#------------------------------------------------------------------------------
#$Date: 2024-02-04 13:31:11 +0200 (Sun, 04 Feb 2024) $
#$Revision: 289414 $
#$URL: file:///home/coder/svn-repositories/cod/cif/1/57/04/1570417.cif $
#------------------------------------------------------------------------------
#
# This file is available in the Crystallography Open Database (COD),
# http://www.crystallography.net/
#
# All data on this site have been placed in the public domain by the
# contributors.
#
data_1570417
loop_
_publ_author_name
'Cheng, Qiuhong'
'Hao, Aiyou'
'Xing, Pengyao'
_publ_section_title
;
 Selective chiral dimerization and folding driven by arene-perfluoroarene
 force.
;
_journal_issue                   2
_journal_name_full               'Chemical science'
_journal_page_first              618
_journal_page_last               628
_journal_paper_doi               10.1039/d3sc05212e
_journal_volume                  15
_journal_year                    2024
_chemical_formula_moiety         'C H Cl3, 2(C36 H28 F7 N3 O2)'
_chemical_formula_sum            'C73 H57 Cl3 F14 N6 O4'
_chemical_formula_weight         1454.59
_space_group_crystal_system      monoclinic
_space_group_IT_number           13
_space_group_name_Hall           '-P 2yc'
_space_group_name_H-M_alt        'P 1 2/c 1'
_atom_sites_solution_hydrogens   geom
_atom_sites_solution_primary     dual
_audit_creation_date             2022-09-23
_audit_creation_method
;
Olex2 1.3
(compiled 2020.02.04 svn.rd84adfe8 for OlexSys, GUI svn.r6032)
;
_audit_update_record
;
2023-03-03 deposited with the CCDC.	2023-11-28 downloaded from the CCDC.
;
_cell_angle_alpha                90
_cell_angle_beta                 90.301(2)
_cell_angle_gamma                90
_cell_formula_units_Z            4
_cell_length_a                   22.8294(3)
_cell_length_b                   9.44580(10)
_cell_length_c                   31.1842(5)
_cell_measurement_reflns_used    14555
_cell_measurement_temperature    173.00(10)
_cell_measurement_theta_max      74.4910
_cell_measurement_theta_min      2.8270
_cell_volume                     6724.53(16)
_computing_cell_refinement       'CrysAlisPro 1.171.42.49 (Rigaku OD, 2022)'
_computing_data_collection       'CrysAlisPro 1.171.42.49 (Rigaku OD, 2022)'
_computing_data_reduction        'CrysAlisPro 1.171.42.49 (Rigaku OD, 2022)'
_computing_molecular_graphics    'Olex2 1.3 (Dolomanov et al., 2009)'
_computing_publication_material  'Olex2 1.3 (Dolomanov et al., 2009)'
_computing_structure_refinement  'SHELXL 2018/3 (Sheldrick, 2015)'
_computing_structure_solution    'SHELXT  (Sheldrick, 2015)'
_diffrn_ambient_environment      N~2~
_diffrn_ambient_temperature      173.00(10)
_diffrn_detector                 'Hybrid Pixel Array Detector'
_diffrn_detector_area_resol_mean 10.0000
_diffrn_detector_type            HyPix
_diffrn_measured_fraction_theta_full 0.984
_diffrn_measured_fraction_theta_max 0.927
_diffrn_measurement_details
;
List of Runs (angles in degrees, time in seconds):

  # Type    Start    End  Width  t~exp~   \w     \q     \k     \f   Frames
#--------------------------------------------------------------------------
  1  \w     37.00 107.00   1.00    0.76    --   48.42  20.00-146.00   70
  2  \w     90.00 121.00   1.00    0.76    --   48.42 155.00  84.00   31
  3  \w   -155.00 -78.00   1.00    6.90    --  -91.75-120.00-156.00   77
  4  \w   -163.00 -84.00   1.00    6.90    --  -91.75 -20.00  46.00   79
  5  \w    120.00 170.00   1.00    6.90    --  106.65 107.00  26.00   50
  6  \w    -24.00  22.00   1.00    0.76    --  -48.42  19.00 -60.00   46
  7  \w    -66.00 -22.00   1.00    6.90    --  -91.75  57.00 150.00   44
  8  \w    -60.00 -19.00   1.00    6.90    --  -91.75  57.00 120.00   41
  9  \w    -66.00 -22.00   1.00    6.90    --  -91.75  57.00-150.00   44
 10  \w     39.00  66.00   1.00    6.90    --  106.65 -57.00-150.00   27
 11  \w     39.00 100.00   1.00    6.90    --  106.65 -99.00 -60.00   61
 12  \w     34.00 111.00   1.00    6.90    --  106.65-125.00-120.00   77
 13  \w     72.00 106.00   1.00    6.90    --  106.65 -99.00-120.00   34
 14  \w     34.00  67.00   1.00    6.90    --  106.65 -99.00-120.00   33
 15  \w    -80.00 -54.00   1.00    6.90    --  -91.75-155.00  46.00   26
 16  \w    -22.00  27.00   1.00    1.00    --  -48.42  19.00-120.00   49
 17  \w    -21.00  21.00   1.00    1.00    --   48.42 -19.00-120.00   42
 18  \w     75.00 100.00   1.00    1.00    --   48.42 155.00  84.00   25
 19  \w    -47.00 -19.00   1.00    6.90    --  -91.75 125.00 -90.00   28
 20  \w   -111.00 -85.00   1.00    6.90    --  -91.75 -57.00 120.00   26
 21  \w   -160.00-135.00   1.00    6.90    --  -91.75 -57.00 120.00   25
 22  \w     34.00  59.00   1.00    6.90    --  106.65 -57.00  90.00   25
 23  \w     80.00 105.00   1.00    6.90    --  106.65 -77.00-150.00   25
 24  \w     37.00  63.00   1.00    6.90    --  106.65 -77.00-150.00   26
 25  \w     40.00  66.00   1.00    6.90    --  106.65 -57.00 -90.00   26
;
_diffrn_measurement_device       'four-circle diffractometer'
_diffrn_measurement_device_type  'XtaLAB Synergy, Dualflex, HyPix'
_diffrn_measurement_method       '\w scans'
_diffrn_orient_matrix_type
'CrysAlisPro convention (1999,Acta A55,543-557)'
_diffrn_orient_matrix_UB_11      -0.0276888000
_diffrn_orient_matrix_UB_12      -0.0282086000
_diffrn_orient_matrix_UB_13      0.0441357000
_diffrn_orient_matrix_UB_21      -0.0609795000
_diffrn_orient_matrix_UB_22      0.0342261000
_diffrn_orient_matrix_UB_23      -0.0186551000
_diffrn_orient_matrix_UB_31      -0.0083218000
_diffrn_orient_matrix_UB_32      -0.1569758000
_diffrn_orient_matrix_UB_33      -0.0119827000
_diffrn_radiation_monochromator  mirror
_diffrn_radiation_probe          x-ray
_diffrn_radiation_type           'Cu K\a'
_diffrn_radiation_wavelength     1.54184
_diffrn_reflns_av_R_equivalents  0.0498
_diffrn_reflns_av_unetI/netI     0.0433
_diffrn_reflns_Laue_measured_fraction_full 0.984
_diffrn_reflns_Laue_measured_fraction_max 0.927
_diffrn_reflns_limit_h_max       28
_diffrn_reflns_limit_h_min       -25
_diffrn_reflns_limit_k_max       8
_diffrn_reflns_limit_k_min       -11
_diffrn_reflns_limit_l_max       38
_diffrn_reflns_limit_l_min       -37
_diffrn_reflns_number            47775
_diffrn_reflns_point_group_measured_fraction_full 0.984
_diffrn_reflns_point_group_measured_fraction_max 0.927
_diffrn_reflns_theta_full        67.684
_diffrn_reflns_theta_max         76.560
_diffrn_reflns_theta_min         2.834
_diffrn_source                   'micro-focus sealed X-ray tube'
_diffrn_source_type              'PhotonJet (Cu) X-ray Source'
_exptl_absorpt_coefficient_mu    2.055
_exptl_absorpt_correction_T_max  1.00000
_exptl_absorpt_correction_T_min  0.71019
_exptl_absorpt_correction_type   multi-scan
_exptl_absorpt_process_details
;
CrysAlisPro 1.171.42.49 (Rigaku Oxford Diffraction, 2022)
Empirical absorption correction using spherical harmonics,
implemented in SCALE3 ABSPACK scaling algorithm.
;
_exptl_crystal_colour            'clear light colourless'
_exptl_crystal_colour_lustre     clear
_exptl_crystal_colour_modifier   light
_exptl_crystal_colour_primary    colourless
_exptl_crystal_density_diffrn    1.437
_exptl_crystal_description       needle
_exptl_crystal_F_000             2984
_exptl_crystal_size_max          0.03
_exptl_crystal_size_mid          0.02
_exptl_crystal_size_min          0.01
_refine_diff_density_max         2.672
_refine_diff_density_min         -1.045
_refine_diff_density_rms         0.122
_refine_ls_extinction_method     none
_refine_ls_goodness_of_fit_ref   1.708
_refine_ls_hydrogen_treatment    constr
_refine_ls_matrix_type           full
_refine_ls_number_parameters     903
_refine_ls_number_reflns         13104
_refine_ls_number_restraints     0
_refine_ls_restrained_S_all      1.708
_refine_ls_R_factor_all          0.1445
_refine_ls_R_factor_gt           0.1282
_refine_ls_shift/su_max          0.000
_refine_ls_shift/su_mean         0.000
_refine_ls_structure_factor_coef Fsqd
_refine_ls_weighting_details
'w=1/[\s^2^(Fo^2^)+(0.2000P)^2^] where P=(Fo^2^+2Fc^2^)/3'
_refine_ls_weighting_scheme      calc
_refine_ls_wR_factor_gt          0.3922
_refine_ls_wR_factor_ref         0.4079
_reflns_Friedel_coverage         0.000
_reflns_number_gt                10458
_reflns_number_total             13104
_reflns_threshold_expression     'I > 2\s(I)'
_cod_data_source_file            d3sc05212e2.cif
_cod_data_source_block           20220917ba_auto
_cod_depositor_comments
'Adding full bibliography for 1570414--1570417.cif.'
_cod_database_code               1570417
_shelx_shelxl_version_number     2018/3
_chemical_oxdiff_formula         CNOF
_shelx_space_group_comment
;
The symmetry employed for this shelxl refinement is uniquely defined
by the following loop, which should always be used as a source of
symmetry information in preference to the above space-group names.
They are only intended as comments.
;
_shelx_estimated_absorpt_t_max   0.980
_shelx_estimated_absorpt_t_min   0.941
_reflns_odcompleteness_completeness 98.10
_reflns_odcompleteness_iscentric 1
_reflns_odcompleteness_theta     66.97
_olex2_refinement_description
;
1. Fixed Uiso
 At 1.2 times of:
  All C(H) groups, All C(H,H) groups, All N(H) groups
 At 1.5 times of:
  All C(H,H,H) groups
2.a Ternary CH refined with riding coordinates:
 C21(H21), C69(H69), C2(H2)
2.b Secondary CH2 refined with riding coordinates:
 C16(H16A,H16B), C66(H66A,H66B), C65(H65A,H65B), C17(H17A,H17B), C25(H25A,
 H25B), C26(H26A,H26B), C73(H73A,H73B), C18(H18A,H18B), C24(H24A,H24B),
 C64(H64A,H64B), C74(H74A,H74B), C72(H72A,H72B)
2.c Aromatic/amide H refined with riding coordinates:
 N67(H67), N19(H19), N15(H15), N22(H22), N70(H70), N63(H63), C43(H43),
 C44(H44), C32(H32), C45(H45), C42(H42), C33(H33), C39(H39), C37(H37), C81(H81),
  C91(H91), C80(H80), C38(H38), C90(H90), C92(H92), C87(H87), C93(H93),
 C85(H85), C86(H86)
2.d Idealised Me refined as rotating group:
 C28(H28A,H28B,H28C), C76(H76A,H76B,H76C)
;
_smtbx_masks_void_probe_radius   1.2
_smtbx_masks_void_truncation_radius 1.2
_shelx_res_file
;
TITL 20220917ba_auto_a.res in P2/c
    20220917ba_auto.res
    created by SHELXL-2018/3 at 21:15:50 on 23-Sep-2022
REM Old TITL 20220917BA_auto in P2/c
REM SHELXT solution in P2/c
REM R1 0.224, Rweak 0.077, Alpha 0.053, Orientation as input
REM Formula found by SHELXT: C74 C30 O102 F100
CELL 1.54184 22.8294 9.4458 31.1842 90 90.301 90
ZERR 4 0.0003 0.0001 0.0005 0 0.002 0
LATT 1
SYMM -X,+Y,0.5-Z
SFAC C H Cl F N O
UNIT 292 228 12 56 24 16

L.S. 20
PLAN  5
SIZE 0.01 0.02 0.03
TEMP -100.15(10)
CONF
fmap 2
MORE -1
BOND $H
ACTA
ABIN
REM <olex2.extras>
REM <HklSrc "%.\\20220917BA_auto.hkl">
REM </olex2.extras>

WGHT    0.200000
FVAR       1.57325
CL1   3    0.171368    1.266497    0.248830    11.00000    0.10891    0.08210 =
         0.07739    0.01302   -0.01823   -0.02220
CL4   3    0.069455    1.119699    0.280302    11.00000    0.08734    0.07539 =
         0.09234   -0.00169    0.00826    0.00683
CL3   3    0.115947    1.044706    0.198727    11.00000    0.11331    0.11352 =
         0.06747   -0.02420   -0.01428    0.00462
F46   4    0.100189    0.445572    0.408083    11.00000    0.04851    0.04174 =
         0.08300    0.00782    0.02748    0.01672
F48   4    0.034012    0.838033    0.485792    11.00000    0.04936    0.06848 =
         0.05839   -0.02452    0.01209   -0.00973
F50   4   -0.199220    0.477207    0.473572    11.00000    0.03876    0.05418 =
         0.07639    0.00251    0.01102   -0.00134
F47   4   -0.073094    0.850055    0.508824    11.00000    0.05273    0.06185 =
         0.05948   -0.02735    0.01406    0.00162
F51   4   -0.113232    0.337063    0.435090    11.00000    0.05636    0.03713 =
         0.09351   -0.00764    0.01617   -0.00378
F49   4   -0.178504    0.731825    0.511047    11.00000    0.04425    0.06350 =
         0.06839   -0.01305    0.02026    0.00714
F52   4   -0.003672    0.321766    0.413265    11.00000    0.06583    0.02830 =
         0.09114   -0.00424    0.02892    0.00437
O77   6    0.306272    0.129031    0.416732    11.00000    0.05535    0.02916 =
         0.04900    0.00150   -0.00319    0.00610
F101  4    0.478487   -0.282067    0.414915    11.00000    0.05655    0.04635 =
         0.08766   -0.01746   -0.01430    0.00462
O29   6    0.233184    0.620558    0.393898    11.00000    0.03726    0.03078 =
         0.06070    0.00463    0.00643    0.00154
F95   4    0.688408   -0.283644    0.427490    11.00000    0.05565    0.06776 =
         0.07200   -0.00682    0.00368    0.02294
F94   4    0.631554    0.199240    0.476134    11.00000    0.04586    0.09884 =
         0.09346    0.00194   -0.02213   -0.02976
O27   6    0.207084    0.897008    0.310097    11.00000    0.05709    0.04681 =
         0.07212   -0.01891   -0.01042    0.00382
N67   5    0.283694    0.360200    0.425689    11.00000    0.03563    0.02651 =
         0.04217   -0.00027   -0.00210    0.00463
AFIX  43
H67   2    0.266693    0.434418    0.413959    11.00000   -1.20000
AFIX   0
F96   4    0.427361   -0.051335    0.431364    11.00000    0.10161    0.05880 =
         0.06159   -0.00058    0.00739    0.00829

N19   5    0.269179    0.830411    0.417804    11.00000    0.03498    0.03445 =
         0.05695    0.00136   -0.00126    0.00322
AFIX  43
H19   2    0.287843    0.908685    0.410982    11.00000   -1.20000
AFIX   0

F98   4    0.687696   -0.020821    0.455047    11.00000    0.12223    0.08602 =
         0.06033   -0.00892    0.01288    0.01692
N15   5    0.124933    0.700689    0.440998    11.00000    0.03702    0.04779 =
         0.06658    0.00186    0.01214    0.00446
AFIX  43
H15   2    0.153856    0.639161    0.441924    11.00000   -1.20000
AFIX   0

C54   1    0.529412    0.223471    0.468842    11.00000    0.02849    0.04105 =
         0.03954   -0.01107    0.00032    0.00288
N22   5    0.264821    0.706659    0.309973    11.00000    0.05384    0.04468 =
         0.05642   -0.00860    0.01831    0.00438
AFIX  43
H22   2    0.274232    0.627399    0.296876    11.00000   -1.20000
AFIX   0

N70   5    0.274780    0.152401    0.330482    11.00000    0.06405    0.05103 =
         0.04075   -0.00753   -0.00040   -0.00696
AFIX  43
H70   2    0.256478    0.074725    0.322459    11.00000   -1.20000
AFIX   0
F100  4    0.583196   -0.399396    0.409005    11.00000    0.06640    0.10824 =
         0.12185    0.00885   -0.00881    0.01367

C20   1    0.263419    0.729789    0.388501    11.00000    0.03101    0.02977 =
         0.05410    0.00448    0.00130    0.00464
C68   1    0.282856    0.237285    0.404368    11.00000    0.04147    0.02973 =
         0.03872    0.00063   -0.00042   -0.00188
O75   6    0.354490    0.290154    0.323552    11.00000    0.10330    0.04858 =
         0.07331   -0.01306    0.02459   -0.01042
N63   5    0.420169    0.212084    0.456346    11.00000    0.04043    0.08988 =
         0.06484    0.02379    0.01306    0.02303
AFIX  43
H63   2    0.389715    0.169575    0.467785    11.00000   -1.20000
AFIX   0

C30   1   -0.047410    0.681119    0.349346    11.00000    0.04585    0.04140 =
         0.03216   -0.00298   -0.00684   -0.00490
C12   1   -0.044263    0.520471    0.450064    11.00000    0.04401    0.03340 =
         0.03764    0.00922    0.00876    0.00917
C23   1    0.220208    0.782503    0.294623    11.00000    0.04655    0.05553 =
         0.04978   -0.00877    0.01311   -0.00862
C16   1    0.140145    0.852053    0.435786    11.00000    0.03858    0.05018 =
         0.04866    0.00112    0.00443    0.00894
AFIX  23
H16A  2    0.104863    0.910528    0.440844    11.00000   -1.20000
H16B  2    0.153130    0.868889    0.405978    11.00000   -1.20000
AFIX   0

F99   4    0.528594    0.343991    0.484449    11.00000    0.07094    0.08317 =
         0.12774   -0.02463   -0.01044   -0.00436
C31   1   -0.074635    0.551674    0.336854    11.00000    0.05578    0.04354 =
         0.03682   -0.00036   -0.00464   -0.01248
C35   1    0.013191    0.704494    0.339523    11.00000    0.04220    0.03930 =
         0.03591   -0.00254   -0.00812   -0.00466
C5    1    0.068638    0.649393    0.444501    11.00000    0.03840    0.04502 =
         0.04330    0.01196    0.00962    0.00477
C6    1    0.023302    0.714672    0.466169    11.00000    0.04150    0.03994 =
         0.03788   -0.00073    0.00588    0.00322
C13   1    0.003028    0.452457    0.430402    11.00000    0.05187    0.02657 =
         0.05173    0.00688    0.01229    0.00496
C11   1   -0.101607    0.462551    0.452631    11.00000    0.04623    0.03243 =
         0.04642    0.00823    0.00740    0.00247
C41   1   -0.080170    0.784013    0.371323    11.00000    0.04704    0.04363 =
         0.03221    0.00412   -0.00813    0.00255
C66   1    0.311572    0.376158    0.467482    11.00000    0.03861    0.04557 =
         0.03981   -0.00448   -0.00268    0.00387
AFIX  23
H66A  2    0.314156    0.281947    0.481274    11.00000   -1.20000
H66B  2    0.286441    0.436587    0.485670    11.00000   -1.20000
AFIX   0

C14   1    0.055897    0.514606    0.427058    11.00000    0.04819    0.03907 =
         0.04874    0.01292    0.02044    0.01643
C10   1   -0.144995    0.531658    0.472551    11.00000    0.03907    0.04654 =
         0.04998    0.00918    0.00517    0.00442
C7    1   -0.033119    0.656347    0.469217    11.00000    0.04213    0.04206 =
         0.03062    0.00411    0.00547    0.00946
C9    1   -0.134026    0.663618    0.491543    11.00000    0.03992    0.05216 =
         0.04181    0.00398    0.00821    0.00906
C8    1   -0.080116    0.724149    0.489998    11.00000    0.04177    0.04613 =
         0.03289    0.00019    0.00399    0.00465
C43   1    0.038311    0.837771    0.352841    11.00000    0.04625    0.04514 =
         0.04133   -0.00048   -0.00728   -0.01142
AFIX  43
H43   2    0.078157    0.856903    0.346391    11.00000   -1.20000
AFIX   0
C40   1   -0.052245    0.912370    0.385049    11.00000    0.06765    0.03374 =
         0.04124   -0.00200   -0.00901    0.00178
C21   1    0.298538    0.749183    0.347356    11.00000    0.03659    0.03281 =
         0.06858   -0.00337    0.01522    0.00016
AFIX  13
H21   2    0.310338    0.850664    0.344434    11.00000   -1.20000
AFIX   0

C78   1    0.599940    0.013347    0.334147    11.00000    0.06276    0.06734 =
         0.02607    0.00377    0.00255   -0.00744
C82   1    0.497688   -0.051783    0.321666    11.00000    0.05351    0.07437 =
         0.03852    0.01533    0.00859   -0.00703
C36   1   -0.139324    0.760229    0.381676    11.00000    0.05373    0.05488 =
         0.03836    0.00897   -0.00530    0.00180
C44   1   -0.136187    0.532477    0.346536    11.00000    0.05481    0.05890 =
         0.04778   -0.00072   -0.00564   -0.02411
AFIX  43
H44   2   -0.155469    0.448334    0.337561    11.00000   -1.20000
AFIX   0

C56   1    0.577185    0.004142    0.449895    11.00000    0.08783    0.05222 =
         0.02683   -0.00131    0.00161    0.00003
C34   1    0.045088    0.597609    0.318792    11.00000    0.05152    0.04556 =
         0.04120   -0.00178    0.00416   -0.00301
C65   1    0.372145    0.440123    0.465970    11.00000    0.04414    0.06083 =
         0.06252   -0.00403   -0.00804   -0.00803
AFIX  23
H65A  2    0.387573    0.447977    0.495604    11.00000   -1.20000
H65B  2    0.369242    0.537042    0.454063    11.00000   -1.20000
AFIX   0

C32   1   -0.041590    0.451607    0.316178    11.00000    0.06999    0.04644 =
         0.05585   -0.01998    0.00241   -0.02183
AFIX  43
H32   2   -0.059425    0.365156    0.307631    11.00000   -1.20000
AFIX   0
C17   1    0.187680    0.896604    0.466193    11.00000    0.04960    0.06825 =
         0.04383   -0.01416    0.00116    0.01123
AFIX  23
H17A  2    0.173785    0.882531    0.495909    11.00000   -1.20000
H17B  2    0.195088    0.999048    0.462278    11.00000   -1.20000
AFIX   0
C45   1   -0.165979    0.630161    0.367663    11.00000    0.04818    0.06678 =
         0.04415    0.00460   -0.00411   -0.00512
AFIX  43
H45   2   -0.206149    0.613849    0.373746    11.00000   -1.20000
AFIX   0
C25   1    0.120406    0.707019    0.269280    11.00000    0.05550    0.06220 =
         0.04257   -0.00981    0.00330   -0.00646
AFIX  23
H25A  2    0.098879    0.665371    0.244695    11.00000   -1.20000
H25B  2    0.104705    0.803343    0.274163    11.00000   -1.20000
AFIX   0

C69   1    0.246722    0.240954    0.362663    11.00000    0.06285    0.03566 =
         0.04454    0.00481   -0.01394    0.00258
AFIX  13
H69   2    0.244775    0.340578    0.351900    11.00000   -1.20000
AFIX   0
C83   1    0.540281    0.049959    0.335120    11.00000    0.06956    0.06000 =
         0.02757   -0.00070    0.00664   -0.01207
C89   1    0.644313    0.110956    0.348930    11.00000    0.06000    0.07022 =
         0.03974    0.00153    0.00643   -0.00321
C58   1    0.639951   -0.204125    0.432519    11.00000    0.07653    0.06306 =
         0.05081    0.00530    0.01856    0.02932

C26   1    0.109413    0.616536    0.309303    11.00000    0.04919    0.05275 =
         0.05574   -0.00450    0.00299    0.00110
AFIX  23
H26A  2    0.127512    0.522290    0.305207    11.00000   -1.20000
H26B  2    0.128699    0.661785    0.334290    11.00000   -1.20000
AFIX   0
C42   1    0.007429    0.934576    0.373852    11.00000    0.06210    0.03870 =
         0.04526   -0.00597   -0.00653   -0.01257
AFIX  43
H42   2    0.025741    1.021228    0.381632    11.00000   -1.20000
AFIX   0

C73   1    0.415052    0.062454    0.280414    11.00000    0.05628    0.05912 =
         0.04103    0.00074    0.00925   -0.00374
AFIX  23
H73A  2    0.434709    0.155868    0.280112    11.00000   -1.20000
H73B  2    0.428189    0.009026    0.254901    11.00000   -1.20000
AFIX   0

C33   1    0.017535    0.473781    0.307414    11.00000    0.07048    0.04021 =
         0.05609   -0.01330    0.01628   -0.00295
AFIX  43
H33   2    0.039193    0.401832    0.293295    11.00000   -1.20000
AFIX   0
C18   1    0.245874    0.816129    0.460606    11.00000    0.04744    0.06299 =
         0.04256   -0.00225   -0.00959    0.00697
AFIX  23
H18A  2    0.274905    0.852699    0.481538    11.00000   -1.20000
H18B  2    0.239493    0.714561    0.466870    11.00000   -1.20000
AFIX   0
C28   1    0.353741    0.655641    0.350310    11.00000    0.03987    0.03892 =
         0.10743    0.00300    0.01903    0.00364
AFIX 137
H28A  2    0.342171    0.555814    0.351500    11.00000   -1.50000
H28B  2    0.375927    0.680047    0.376264    11.00000   -1.50000
H28C  2    0.378222    0.671594    0.325046    11.00000   -1.50000
AFIX   0

C79   1    0.617497   -0.119798    0.319053    11.00000    0.07648    0.06384 =
         0.04177    0.00980   -0.00807   -0.00156
C39   1   -0.084799    1.011293    0.409039    11.00000    0.08500    0.04160 =
         0.05230   -0.00816   -0.00725    0.00674
AFIX  43
H39   2   -0.066839    1.096175    0.418810    11.00000   -1.20000
AFIX   0
C24   1    0.185351    0.717910    0.257961    11.00000    0.05589    0.06432 =
         0.04853   -0.01366    0.01009   -0.00524
AFIX  23
H24A  2    0.200824    0.622371    0.251532    11.00000   -1.20000
H24B  2    0.189899    0.777052    0.231982    11.00000   -1.20000
AFIX   0

C71   1    0.326519    0.180904    0.312228    11.00000    0.06700    0.04791 =
         0.04824   -0.00072    0.00643    0.00035
C64   1    0.415241    0.355809    0.439312    11.00000    0.03440    0.09290 =
         0.06011    0.02171    0.00491   -0.00457
AFIX  23
H64A  2    0.401650    0.352306    0.409131    11.00000   -1.20000
H64B  2    0.454077    0.402409    0.440026    11.00000   -1.20000
AFIX   0

C37   1   -0.170280    0.861284    0.404809    11.00000    0.06007    0.07676 =
         0.04750    0.00395    0.00369    0.01494
AFIX  43
H37   2   -0.210358    0.845984    0.411417    11.00000   -1.20000
AFIX   0

C74   1    0.433297   -0.018199    0.321098    11.00000    0.05216    0.07226 =
         0.04843    0.00264    0.00520   -0.02132
AFIX  23
H74A  2    0.423629    0.039602    0.346580    11.00000   -1.20000
H74B  2    0.410717   -0.107475    0.322840    11.00000   -1.20000
AFIX   0
C76   1    0.184344    0.188794    0.372387    11.00000    0.05421    0.05093 =
         0.06059   -0.01472   -0.01105    0.00912
AFIX 137
H76A  2    0.161122    0.187988    0.345868    11.00000   -1.50000
H76B  2    0.166018    0.252342    0.393224    11.00000   -1.50000
H76C  2    0.186159    0.092829    0.384263    11.00000   -1.50000
AFIX   0
C84   1    0.626483    0.245364    0.365431    11.00000    0.06317    0.07235 =
         0.05851   -0.00713    0.00190   -0.01087
C81   1    0.517394   -0.182949    0.308003    11.00000    0.06707    0.05823 =
         0.05610    0.00153   -0.00764   -0.01467
AFIX  43
H81   2    0.489151   -0.251424    0.299505    11.00000   -1.20000
AFIX   0
C88   1    0.702949    0.076904    0.347946    11.00000    0.05576    0.07729 =
         0.04964    0.00616   -0.00028   -0.00302
C91   1    0.524189    0.187777    0.350037    11.00000    0.05336    0.07524 =
         0.04815   -0.00741    0.00552   -0.00680
AFIX  43
H91   2    0.484133    0.215033    0.349903    11.00000   -1.20000
AFIX   0
C72   1    0.348715    0.084088    0.277789    11.00000    0.06697    0.05551 =
         0.04293   -0.00576    0.00251    0.00470
AFIX  23
H72A  2    0.338496    0.124257    0.249398    11.00000   -1.20000
H72B  2    0.328999   -0.008859    0.280339    11.00000   -1.20000
AFIX   0
C80   1    0.575347   -0.219040    0.306105    11.00000    0.06430    0.05518 =
         0.06696   -0.00168   -0.00660    0.00085
AFIX  43
H80   2    0.586836   -0.309918    0.296171    11.00000   -1.20000
AFIX   0

C38   1   -0.142533    0.984536    0.418227    11.00000    0.07806    0.06461 =
         0.05246   -0.00348    0.00997    0.02523
AFIX  43
H38   2   -0.164090    1.052258    0.434214    11.00000   -1.20000
AFIX   0

C62   1    0.474247    0.020005    0.442125    11.00000    0.05272    0.09208 =
         0.04932    0.00877   -0.01044   -0.03599
C90   1    0.565536    0.280222    0.364404    11.00000    0.05607    0.06403 =
         0.08403   -0.02523    0.01292   -0.00992
AFIX  43
H90   2    0.553523    0.371004    0.374083    11.00000   -1.20000
AFIX   0
C53   1    0.472791    0.145737    0.454112    11.00000    0.05082    0.09477 =
         0.05108    0.01746    0.00782    0.02269
C59   1    0.585813   -0.270072    0.422337    11.00000    0.05343    0.13323 =
         0.07257    0.03302    0.01487    0.04158
C92   1    0.680344   -0.154795    0.317786    11.00000    0.07197    0.07399 =
         0.06311   -0.00015   -0.00225    0.00666
AFIX  43
H92   2    0.692507   -0.245361    0.308024    11.00000   -1.20000
AFIX   0
C61   1    0.531882   -0.076693    0.438818    11.00000    0.08457    0.10059 =
         0.03275    0.00204   -0.00710   -0.05248
C87   1    0.745107    0.170171    0.364226    11.00000    0.05096    0.08904 =
         0.07494    0.00501   -0.00948   -0.00911
AFIX  43
H87   2    0.785449    0.145696    0.363444    11.00000   -1.20000
AFIX   0

C2    1    0.133800    1.104785    0.250843    11.00000    0.09175    0.05751 =
         0.05824   -0.00152   -0.01624    0.01165
AFIX  13
H2    2    0.159638    1.032917    0.264966    11.00000   -1.20000
AFIX   0

C57   1    0.636825   -0.077017    0.445063    11.00000    0.06848    0.06843 =
         0.05646    0.00083    0.00295    0.00257
C93   1    0.719965   -0.060815    0.330167    11.00000    0.05661    0.08836 =
         0.05610   -0.00207   -0.00212    0.00851
AFIX  43
H93   2    0.760363   -0.083043    0.327481    11.00000   -1.20000
AFIX   0
C55   1    0.579534    0.142671    0.464847    11.00000    0.05202    0.08017 =
         0.06415   -0.00961   -0.00415   -0.00457
C85   1    0.668936    0.339480    0.381786    11.00000    0.06707    0.08417 =
         0.09109   -0.03015    0.00093   -0.00883
AFIX  43
H85   2    0.657983    0.429312    0.392850    11.00000   -1.20000
AFIX   0
C60   1    0.531320   -0.205929    0.424917    11.00000    0.06916    0.09427 =
         0.06846    0.00493   -0.00415    0.01380
C86   1    0.727910    0.296970    0.381301    11.00000    0.05802    0.09517 =
         0.08778   -0.01221   -0.00906   -0.01729
AFIX  43
H86   2    0.756757    0.358136    0.393195    11.00000   -1.20000
AFIX   0
HKLF 4




REM  20220917ba_auto_a.res in P2/c
REM wR2 = 0.4079, GooF = S = 1.708, Restrained GooF = 1.708 for all data
REM R1 = 0.1282 for 10458 Fo > 4sig(Fo) and 0.1445 for all 13104 data
REM 903 parameters refined using 0 restraints

END

WGHT      0.2000      0.0000

REM Highest difference peak  2.672,  deepest hole -1.045,  1-sigma level  0.122
Q1    1   0.3895 -0.1035  0.4279  11.00000  0.05    2.67
Q2    1   0.7277 -0.0326  0.4582  11.00000  0.05    2.01
Q3    1   0.4899 -0.1577  0.4295  11.00000  0.05    1.85
Q4    1   0.5169  0.1129  0.4562  11.00000  0.05    1.75
Q5    1   0.6239  0.0454  0.4577  11.00000  0.05    1.72
;
_shelx_res_checksum              72942
_shelx_fab_file
;
-28 1 5 -0.3583 0.0237
-28 1 6 -0.4125 -0.0019
-28 2 3 -0.2080 0.0004
-28 2 4 -0.3592 0.0167
-28 2 5 0.3102 -0.0108
-27 0 2 0.9729 0.0053
-27 0 4 -0.6319 -0.0003
-27 0 6 0.5271 -0.0061
-27 0 8 -0.7133 0.0037
-27 1 1 0.3658 -0.0001
-27 1 2 -0.6237 -0.0063
-27 1 3 -0.2038 0.0039
-27 1 4 0.2299 -0.0001
-27 1 5 0.0169 -0.0109
-27 1 6 -0.1411 0.0055
-27 1 7 0.1130 0.0117
-27 1 8 0.3754 -0.0011
-27 2 1 -0.1803 -0.0026
-27 2 2 0.0124 0.0101
-27 2 3 -0.1819 -0.0026
-27 2 4 0.4362 -0.0013
-27 2 5 0.4677 0.0100
-27 2 6 -0.4786 -0.0059
-27 2 7 -0.5939 -0.0106
-27 3 3 0.8358 -0.0005
-27 3 4 -0.5167 0.0058
-27 3 5 -1.0276 -0.0094
-27 3 6 0.5151 0.0035
-27 4 3 -0.9643 0.0062
-26 0 2 -1.2177 0.0041
-26 0 4 0.9443 -0.0004
-26 0 6 -0.6291 0.0008
-26 0 8 0.4231 0.0046
-26 0 10 -0.3208 -0.0182
-26 0 12 0.2633 0.0253
-26 1 1 -0.3800 -0.0078
-26 1 2 0.6986 -0.0092
-26 1 3 -0.0795 0.0048
-26 1 4 -0.4459 0.0035
-26 1 5 0.4302 0.0010
-26 1 6 0.2503 -0.0034
-26 1 7 -0.5156 -0.0018
-26 1 8 -0.1722 -0.0004
-26 1 9 0.2910 -0.0061
-26 1 10 0.1250 0.0095
-26 1 11 0.0479 0.0151
-26 1 12 -0.0516 -0.0116
-26 1 13 -0.2394 -0.0187
-26 2 1 -0.0641 0.0006
-26 2 2 0.1867 0.0082
-26 2 3 0.8367 -0.0001
-26 2 4 -0.3633 -0.0053
-26 2 5 -1.2638 -0.0039
-26 2 6 0.3014 0.0073
-26 2 7 1.2103 0.0038
-26 2 8 -0.1135 -0.0063
-26 2 9 -0.7307 0.0041
-26 2 10 0.0450 0.0018
-26 3 3 -1.7887 -0.0069
-26 3 4 0.4253 0.0005
-26 3 5 1.9267 0.0103
-26 3 6 -0.2290 -0.0071
-26 3 7 -1.5117 -0.0093
-26 4 3 1.8968 0.0084
-26 4 4 0.1899 0.0087
-26 4 5 -1.6361 -0.0129
-26 4 6 -0.2297 0.0022
-26 5 3 -1.0771 -0.0046
-25 0 2 0.8899 -0.0162
-25 0 4 -0.4739 0.0044
-25 0 6 -0.1139 -0.0031
-25 0 8 0.5255 0.0030
-25 0 10 -0.5877 0.0055
-25 0 12 0.3639 -0.0102
-25 0 14 -0.0574 0.0024
-25 0 16 -0.0845 0.0061
-25 1 1 0.5889 0.0007
-25 1 2 -0.3914 0.0099
-25 1 3 -0.0894 -0.0010
-25 1 4 0.0635 0.0003
-25 1 5 -0.1798 -0.0030
-25 1 6 0.3823 0.0028
-25 1 7 0.1284 0.0048
-25 1 8 -0.6980 -0.0072
-25 1 9 0.1408 0.0002
-25 1 10 0.7741 0.0015
-25 1 11 -0.3514 -0.0065
-25 1 12 -0.6300 0.0038
-25 1 13 0.2911 0.0072
-25 1 14 0.3581 -0.0023
-25 1 15 -0.0405 -0.0034
-25 1 16 -0.1393 0.0044
-25 2 1 -0.3506 -0.0032
-25 2 2 -0.4534 -0.0041
-25 2 3 -0.3989 0.0045
-25 2 4 0.5493 -0.0030
-25 2 5 0.6703 0.0005
-25 2 6 -0.6500 -0.0026
-25 2 7 -0.4491 -0.0040
-25 2 8 0.7246 0.0083
-25 2 9 -0.0020 -0.0006
-25 2 10 -0.8174 -0.0042
-25 2 11 0.2576 0.0076
-25 2 12 0.8731 -0.0008
-25 2 13 -0.0903 -0.0100
-25 2 14 -0.7545 0.0030
-25 3 1 -0.4481 0.0010
-25 3 2 0.6724 -0.0010
-25 3 3 1.0327 -0.0029
-25 3 4 -0.5704 0.0041
-25 3 5 -0.9399 -0.0004
-25 3 6 0.3778 0.0035
-25 3 7 0.4022 0.0016
-25 3 8 -0.2171 -0.0088
-25 3 9 0.1256 0.0040
-25 3 10 0.2756 0.0048
-25 3 11 -0.2230 -0.0107
-25 3 12 -0.4882 0.0008
-25 3 13 -0.1612 0.0136
-25 3 14 0.5775 -0.0049
-25 4 3 -1.1606 -0.0010
-25 4 4 0.2070 -0.0033
-25 4 5 0.6174 0.0017
-25 4 6 -0.0124 -0.0066
-25 4 7 0.1955 0.0015
-25 4 8 -0.2028 0.0126
-25 4 9 -0.7215 -0.0093
-25 4 10 0.2177 -0.0083
-25 4 11 0.6408 0.0157
-25 4 12 -0.0440 0.0004
-25 5 3 0.8983 0.0056
-25 5 4 0.0308 -0.0001
-25 5 5 -0.2257 -0.0042
-25 5 6 -0.0308 0.0121
-24 0 2 -0.1601 0.0185
-24 0 4 0.0617 -0.0024
-24 0 6 0.1266 0.0032
-24 0 8 -0.1085 -0.0131
-24 0 10 -0.2208 0.0129
-24 0 12 0.7100 -0.0082
-24 0 14 -1.1055 0.0100
-24 0 16 1.1730 -0.0096
-24 0 18 -0.8420 -0.0008
-24 1 1 -0.6228 0.0037
-24 1 2 -0.0811 -0.0065
-24 1 3 0.3522 -0.0022
-24 1 4 0.1773 -0.0033
-24 1 5 -0.3340 0.0060
-24 1 6 -0.3558 -0.0031
-24 1 7 0.5200 -0.0095
-24 1 8 0.3541 0.0138
-24 1 9 -0.7172 0.0073
-24 1 10 -0.0819 -0.0108
-24 1 11 0.7009 -0.0038
-24 1 12 -0.3589 0.0024
-24 1 13 -0.4169 0.0045
-24 1 14 0.7904 -0.0005
-24 1 15 0.0817 -0.0068
-24 1 16 -0.9920 -0.0033
-24 1 17 0.0565 0.0045
-24 1 18 0.8207 0.0135
-24 2 1 0.8832 0.0059
-24 2 2 0.4758 -0.0033
-24 2 3 -0.4335 -0.0052
-24 2 4 -0.4958 0.0069
-24 2 5 0.4050 -0.0022
-24 2 6 0.5938 0.0026
-24 2 7 -0.6783 0.0088
-24 2 8 -0.6102 -0.0113
-24 2 9 0.9298 -0.0070
-24 2 10 0.5063 0.0058
-24 2 11 -0.8448 0.0017
-24 2 12 -0.2742 0.0031
-24 2 13 0.4094 -0.0006
-24 2 14 -0.0988 -0.0053
-24 2 15 -0.0058 0.0011
-24 2 16 0.4626 0.0087
-24 2 17 -0.0276 0.0026
-24 2 18 -0.5571 -0.0159
-24 2 19 -0.1730 -0.0092
-24 3 1 -0.8633 -0.0112
-24 3 2 -0.7171 0.0061
-24 3 3 0.4827 0.0099
-24 3 4 0.5434 -0.0057
-24 3 5 -0.5575 -0.0022
-24 3 6 -0.4329 -0.0038
-24 3 7 0.8445 -0.0042
-24 3 8 0.3744 0.0085
-24 3 9 -0.9568 0.0028
-24 3 10 -0.4157 -0.0008
-24 3 11 0.6476 0.0012
-24 3 12 0.4654 -0.0079
-24 3 13 -0.0478 -0.0011
-24 3 14 -0.3261 0.0098
-24 3 15 -0.3434 -0.0002
-24 3 16 0.0322 -0.0110
-24 3 17 0.2165 -0.0026
-24 4 1 0.5481 0.0107
-24 4 2 0.9367 -0.0021
-24 4 3 -0.4655 -0.0107
-24 4 4 -0.5872 0.0002
-24 4 5 0.8175 0.0061
-24 4 6 0.2586 0.0085
-24 4 7 -1.1916 -0.0035
-24 4 8 -0.0508 -0.0102
-24 4 9 1.1790 0.0057
-24 4 10 0.0647 0.0002
-24 4 11 -0.6598 -0.0073
-24 4 12 -0.1872 0.0107
-24 4 13 -0.1121 0.0043
-24 4 14 0.1700 -0.0150
-24 4 15 0.5974 -0.0002
-24 4 16 -0.0037 0.0153
-24 5 1 0.1603 -0.0070
-24 5 2 -0.9878 -0.0073
-24 5 3 0.0286 0.0098
-24 5 4 0.6145 0.0092
-24 5 5 -0.6580 -0.0091
-24 5 6 -0.2901 -0.0179
-24 5 7 1.1777 0.0108
-24 5 8 0.1042 0.0198
-24 5 9 -1.2258 -0.0146
-24 5 10 -0.0879 -0.0092
-24 5 11 0.7909 0.0153
-24 5 12 0.0932 -0.0052
-24 5 13 -0.0966 -0.0110
-24 6 3 0.5123 -0.0070
-24 6 4 -0.2776 -0.0193
-24 6 5 0.1397 0.0077
-24 6 6 0.1695 0.0286
-23 0 2 -0.2612 -0.0068
-23 0 4 -0.2447 -0.0150
-23 0 6 0.6109 0.0152
-23 0 8 -0.9524 0.0032
-23 0 10 1.3617 -0.0115
-23 0 12 -1.7694 0.0058
-23 0 14 2.0315 -0.0005
-23 0 16 -2.0023 -0.0051
-23 0 18 1.6108 0.0146
-23 0 20 -1.0197 -0.0160
-23 1 1 0.0202 0.0001
-23 1 2 0.2528 0.0046
-23 1 3 -0.1225 -0.0014
-23 1 4 0.1034 0.0120
-23 1 5 0.3522 -0.0007
-23 1 6 -0.3734 -0.0115
-23 1 7 -0.5941 0.0031
-23 1 8 0.7002 -0.0019
-23 1 9 0.7027 -0.0019
-23 1 10 -1.1429 0.0050
-23 1 11 -0.5778 -0.0001
-23 1 12 1.5979 0.0010
-23 1 13 0.2902 -0.0008
-23 1 14 -1.9145 -0.0028
-23 1 15 -0.0989 0.0008
-23 1 16 1.9373 0.0048
-23 1 17 0.1779 0.0044
-23 1 18 -1.5666 -0.0127
-23 1 19 -0.3815 -0.0119
-23 1 20 0.9516 0.0138
-23 1 21 0.4399 0.0149
-23 2 1 -0.1932 -0.0023
-23 2 2 -0.1733 -0.0021
-23 2 3 0.1606 0.0024
-23 2 4 0.0721 -0.0058
-23 2 5 -0.3900 0.0016
-23 2 6 0.0045 0.0034
-23 2 7 0.7457 -0.0058
-23 2 8 -0.2391 0.0038
-23 2 9 -0.9839 0.0038
-23 2 10 0.6323 -0.0017
-23 2 11 0.9023 0.0004
-23 2 12 -1.0506 -0.0033
-23 2 13 -0.5712 -0.0005
-23 2 14 1.3792 0.0009
-23 2 15 0.3735 -0.0003
-23 2 16 -1.4760 0.0007
-23 2 17 -0.5505 -0.0046
-23 2 18 1.1875 0.0045
-23 2 19 0.8272 0.0128
-23 2 21 -0.7874 -0.0166
-23 2 22 0.1160 -0.0029
-23 3 1 0.5394 0.0040
-23 3 2 0.1843 0.0000
-23 3 3 -0.2511 -0.0023
-23 3 4 -0.0637 0.0009
-23 3 5 0.2977 -0.0037
-23 3 6 0.0191 0.0031
-23 3 7 -0.5727 0.0086
-23 3 8 0.1015 -0.0056
-23 3 9 0.8014 -0.0070
-23 3 10 -0.2802 0.0002
-23 3 11 -0.7470 0.0035
-23 3 12 0.4484 0.0042
-23 3 13 0.4614 -0.0046
-23 3 14 -0.6109 -0.0006
-23 3 15 -0.3371 0.0067
-23 3 16 0.6902 -0.0027
-23 3 17 0.5996 -0.0024
-23 3 18 -0.5054 0.0008
-23 3 19 -0.8923 -0.0066
-23 3 20 0.0982 -0.0015
-23 3 21 0.7657 0.0124
-23 4 1 -0.5140 -0.0081
-23 4 2 -0.5007 0.0012
-23 4 3 0.2280 0.0060
-23 4 4 0.0444 0.0008
-23 4 5 -0.2769 0.0008
-23 4 6 0.2058 -0.0056
-23 4 7 0.4860 -0.0060
-23 4 8 -0.3160 0.0061
-23 4 9 -0.5905 0.0060
-23 4 10 0.3187 0.0010
-23 4 11 0.4361 -0.0057
-23 4 12 -0.2774 -0.0073
-23 4 13 -0.0991 0.0093
-23 4 14 0.3009 0.0072
-23 4 15 -0.0618 -0.0127
-23 4 16 -0.3324 -0.0050
-23 4 17 -0.1734 0.0098
-23 4 18 0.1812 0.0032
-23 4 19 0.4700 -0.0016
-23 5 1 -0.2196 0.0172
-23 5 2 0.7025 0.0022
-23 5 3 0.1775 -0.0163
-23 5 4 -0.0407 -0.0045
-23 5 5 0.1819 0.0087
-23 5 6 -0.2950 0.0100
-23 5 7 -0.4925 -0.0025
-23 5 8 0.3553 -0.0110
-23 5 9 0.5444 0.0001
-23 5 10 -0.2924 0.0034
-23 5 11 -0.3566 0.0025
-23 5 12 0.2874 0.0074
-23 5 13 0.0143 -0.0071
-23 5 14 -0.4308 -0.0147
-23 5 15 0.2338 0.0108
-23 5 16 0.5440 0.0160
-23 5 17 -0.1507 -0.0104
-23 6 1 0.8972 -0.0259
-23 6 2 -0.3692 -0.0120
-23 6 3 -0.6043 0.0258
-23 6 4 -0.1131 0.0122
-23 6 5 0.0434 -0.0165
-23 6 6 0.2090 -0.0170
-23 6 7 0.2738 0.0082
-23 6 8 -0.0599 0.0192
-23 6 9 -0.2949 -0.0040
-23 6 10 -0.0734 -0.0118
-23 6 11 0.2417 0.0014
-23 6 12 -0.0480 -0.0034
-23 7 3 0.5843 -0.0266
-23 7 4 0.2781 -0.0163
-22 0 2 0.4459 -0.0040
-22 0 4 0.0426 0.0298
-22 0 6 -0.2416 -0.0314
-22 0 8 0.2879 0.0057
-22 0 10 -0.4518 0.0101
-22 0 12 0.7740 -0.0025
-22 0 14 -1.1116 -0.0087
-22 0 16 1.2978 0.0130
-22 0 18 -1.1948 -0.0132
-22 0 20 0.8264 0.0046
-22 0 22 -0.3837 0.0135
-22 1 1 0.2725 -0.0005
-22 1 2 -0.4625 -0.0011
-22 1 3 -0.0232 0.0028
-22 1 4 0.1221 -0.0238
-22 1 5 -0.0740 -0.0041
-22 1 6 0.0836 0.0284
-22 1 7 0.0536 0.0038
-22 1 8 -0.2831 -0.0088
-22 1 9 0.0474 -0.0046
-22 1 10 0.6111 -0.0040
-22 1 11 -0.2277 0.0054
-22 1 12 -0.9844 0.0006
-22 1 13 0.4061 -0.0044
-22 1 14 1.2459 0.0037
-22 1 15 -0.3799 0.0037
-22 1 16 -1.2980 -0.0053
-22 1 17 0.0802 -0.0047
-22 1 18 1.0779 0.0091
-22 1 19 0.2340 0.0042
-22 1 20 -0.6533 -0.0077
-22 1 21 -0.2492 0.0006
-22 1 22 0.2360 -0.0036
-22 2 1 -0.6046 -0.0040
-22 2 2 0.3663 0.0064
-22 2 3 0.4160 -0.0004
-22 2 4 -0.3363 0.0122
-22 2 5 -0.2754 0.0027
-22 2 6 0.1794 -0.0173
-22 2 7 0.1154 -0.0024
-22 2 8 0.2338 0.0062
-22 2 9 0.0038 0.0043
-22 2 10 -0.7906 0.0012
-22 2 11 0.0710 -0.0072
-22 2 12 1.1929 -0.0011
-22 2 13 -0.2966 0.0067
-22 2 14 -1.2856 0.0035
-22 2 15 0.3235 -0.0051
-22 2 16 1.1140 -0.0055
-22 2 17 0.0394 0.0071
-22 2 18 -0.7414 0.0007
-22 2 19 -0.4299 -0.0107
-22 2 20 0.2857 0.0028
-22 2 21 0.3746 0.0099
-22 2 24 -0.1195 -0.0025
-22 3 1 0.8753 0.0079
-22 3 2 -0.0623 -0.0063
-22 3 3 -1.0216 -0.0039
-22 3 4 0.1488 -0.0042
-22 3 5 0.9294 0.0021
-22 3 6 -0.0796 0.0064
-22 3 7 -0.5353 -0.0016
-22 3 8 -0.3017 -0.0005
-22 3 9 0.0733 -0.0016
-22 3 10 0.7881 -0.0022
-22 3 11 0.1066 0.0050
-22 3 12 -1.0345 0.0028
-22 3 13 0.0492 -0.0037
-22 3 14 0.9572 -0.0073
-22 3 15 -0.1302 0.0011
-22 3 16 -0.6949 0.0108
-22 3 17 -0.1760 -0.0040
-22 3 18 0.3415 -0.0081
-22 3 19 0.5357 0.0112
-22 3 20 0.0140 0.0052
-22 3 21 -0.4430 -0.0148
-22 3 22 -0.1919 -0.0059
-22 3 23 0.0219 0.0115
-22 4 1 -1.1347 -0.0034
-22 4 2 -0.2422 0.0005
-22 4 3 1.4269 0.0018
-22 4 4 0.3862 0.0039
-22 4 5 -1.2907 -0.0037
-22 4 6 -0.4562 -0.0019
-22 4 7 0.7778 0.0051
-22 4 8 0.6355 -0.0030
-22 4 9 -0.2127 -0.0031
-22 4 10 -0.8276 0.0032
-22 4 11 -0.0595 0.0010
-22 4 12 0.8381 -0.0009
-22 4 13 -0.0336 -0.0027
-22 4 14 -0.6730 0.0012
-22 4 15 0.1220 0.0045
-22 4 16 0.4381 -0.0031
-22 4 17 0.1462 -0.0007
-22 4 18 -0.1497 0.0045
-22 4 19 -0.5153 -0.0076
-22 4 20 -0.1394 -0.0067
-22 4 21 0.4935 0.0138
-22 5 1 1.4556 -0.0103
-22 5 2 0.4045 0.0035
-22 5 3 -1.4960 0.0089
-22 5 4 -0.7522 -0.0056
-22 5 5 1.1210 -0.0006
-22 5 6 0.8375 0.0012
-22 5 7 -0.6081 -0.0062
-22 5 8 -0.8516 0.0045
-22 5 9 0.2099 0.0079
-22 5 10 0.8451 -0.0033
-22 5 11 -0.0140 -0.0075
-22 5 12 -0.7870 -0.0041
-22 5 13 0.0508 0.0073
-22 5 14 0.7016 0.0108
-22 5 15 -0.1282 -0.0056
-22 5 16 -0.5517 -0.0113
-22 5 17 -0.0502 0.0008
-22 5 18 0.2449 0.0047
-22 5 19 0.3658 0.0065
-22 6 1 -1.5056 0.0243
-22 6 2 -0.4670 -0.0032
-22 6 3 1.3357 -0.0200
-22 6 4 0.7151 0.0068
-22 6 5 -0.8192 0.0061
-22 6 6 -0.7372 -0.0031
-22 6 7 0.4402 0.0063
-22 6 8 0.7046 -0.0031
-22 6 9 -0.2715 -0.0119
-22 6 10 -0.6868 0.0018
-22 6 11 0.0846 0.0125
-22 6 12 0.7083 0.0090
-22 6 13 0.0543 -0.0095
-22 6 14 -0.7833 -0.0200
-22 6 15 -0.0235 0.0044
-22 6 16 0.7472 0.0204
-22 7 3 -1.0251 0.0272
-22 7 4 -0.5019 -0.0094
-22 7 5 0.6247 -0.0120
-22 7 6 0.5121 0.0081
-22 7 7 -0.4533 -0.0028
-22 7 8 -0.5425 -0.0016
-22 7 9 0.4232 0.0114
-22 7 10 0.5408 0.0017
-21 0 2 -0.9643 -0.0173
-21 0 4 1.0801 -0.0046
-21 0 6 -1.4089 0.0093
-21 0 8 1.6920 0.0138
-21 0 10 -1.5493 -0.0262
-21 0 12 1.0101 0.0104
-21 0 14 -0.3730 0.0081
-21 0 16 -0.1504 -0.0115
-21 0 18 0.4262 0.0068
-21 0 20 -0.3825 -0.0000
-21 0 22 0.1117 -0.0079
-21 0 24 0.2375 0.0074
-21 1 1 0.4198 -0.0088
-21 1 2 1.1669 0.0138
-21 1 3 -0.2407 0.0067
-21 1 4 -1.2595 0.0082
-21 1 5 -0.2169 -0.0038
-21 1 6 1.3994 -0.0136
-21 1 7 0.6313 0.0032
-21 1 8 -1.4277 -0.0067
-21 1 9 -0.8335 -0.0026
-21 1 10 1.1608 0.0188
-21 1 11 0.8914 0.0015
-21 1 12 -0.7262 -0.0081
-21 1 13 -0.8771 -0.0016
-21 1 14 0.3355 -0.0046
-21 1 15 0.7030 0.0024
-21 1 16 -0.0285 0.0074
-21 1 17 -0.3510 -0.0032
-21 1 18 -0.1707 -0.0081
-21 1 19 0.0905 0.0042
-21 1 20 0.1867 0.0075
-21 1 21 -0.1960 -0.0041
-21 1 22 -0.0487 -0.0019
-21 1 23 0.5556 0.0013
-21 1 24 -0.1513 -0.0001
-21 2 1 -0.1189 0.0073
-21 2 2 -1.3889 -0.0077
-21 2 3 -0.1443 -0.0025
-21 2 4 1.5003 -0.0114
-21 2 5 0.6543 -0.0012
-21 2 6 -1.3235 0.0161
-21 2 7 -0.9968 0.0007
-21 2 8 0.8786 -0.0012
-21 2 9 1.0842 -0.0008
-21 2 10 -0.3767 -0.0084
-21 2 11 -1.1526 0.0028
-21 2 12 0.1395 0.0041
-21 2 13 1.2962 -0.0032
-21 2 14 -0.2011 -0.0007
-21 2 15 -1.2230 0.0018
-21 2 16 0.2749 0.0021
-21 2 17 0.7511 -0.0021
-21 2 18 -0.2006 -0.0002
-21 2 19 -0.2826 0.0043
-21 2 20 0.0855 -0.0032
-21 2 21 0.3295 -0.0055
-21 2 22 -0.0247 0.0016
-21 2 24 0.0116 -0.0006
-21 3 1 -0.6906 -0.0051
-21 3 2 1.0624 0.0020
-21 3 3 0.9692 -0.0019
-21 3 4 -1.2624 0.0106
-21 3 5 -1.1904 0.0066
-21 3 6 0.9914 -0.0112
-21 3 7 1.0952 -0.0069
-21 3 8 -0.3412 0.0005
-21 3 9 -0.8555 0.0071
-21 3 10 -0.2350 0.0052
-21 3 11 0.8663 -0.0078
-21 3 12 0.3203 -0.0036
-21 3 13 -1.1809 0.0055
-21 3 14 -0.0174 0.0050
-21 3 15 1.2991 -0.0018
-21 3 16 -0.2199 -0.0093
-21 3 17 -0.8459 0.0017
-21 3 18 0.1917 0.0091
-21 3 19 0.2392 -0.0055
-21 3 20 -0.0661 -0.0059
-21 3 21 -0.1537 0.0079
-21 3 22 -0.0045 0.0044
-21 3 23 0.5343 -0.0055
-21 3 24 0.0266 -0.0020
-21 3 25 -0.7293 0.0007
-21 4 1 1.2961 0.0014
-21 4 2 -0.3850 0.0024
-21 4 3 -1.4760 0.0039
-21 4 4 0.5941 -0.0090
-21 4 5 1.3497 -0.0053
-21 4 6 -0.4061 0.0048
-21 4 7 -0.9282 0.0044
-21 4 8 -0.1131 0.0039
-21 4 9 0.5409 -0.0047
-21 4 10 0.5258 -0.0058
-21 4 11 -0.5108 0.0053
-21 4 12 -0.4965 0.0020
-21 4 13 0.8028 -0.0032
-21 4 14 0.1935 -0.0013
-21 4 15 -0.9169 0.0004
-21 4 16 -0.0051 0.0050
-21 4 17 0.4611 -0.0007
-21 4 18 0.0159 -0.0084
-21 4 19 0.1870 0.0041
-21 4 20 -0.0412 0.0095
-21 4 21 -0.3188 -0.0062
-21 4 22 0.0024 -0.0075
-21 4 23 -0.0762 0.0032
-21 5 1 -1.5014 0.0026
-21 5 2 0.0687 -0.0046
-21 5 3 1.4695 -0.0036
-21 5 4 -0.1597 0.0095
-21 5 5 -1.0881 -0.0015
-21 5 6 -0.0353 -0.0040
-21 5 7 0.6547 0.0059
-21 5 8 0.4146 -0.0042
-21 5 9 -0.4376 -0.0056
-21 5 10 -0.6269 0.0048
-21 5 11 0.4284 0.0023
-21 5 12 0.4956 0.0012
-21 5 13 -0.5173 0.0015
-21 5 14 -0.2417 -0.0055
-21 5 15 0.4721 -0.0050
-21 5 16 0.1129 0.0026
-21 5 17 -0.0608 0.0075
-21 5 18 -0.0560 0.0053
-21 5 19 -0.4777 -0.0082
-21 5 20 -0.0500 -0.0107
-21 5 21 0.5773 0.0073
-21 6 1 1.5459 -0.0046
-21 6 2 -0.2043 0.0067
-21 6 3 -1.4167 0.0026
-21 6 4 0.1102 -0.0129
-21 6 5 0.9073 0.0077
-21 6 6 0.2651 0.0086
-21 6 7 -0.5941 -0.0164
-21 6 8 -0.6826 0.0005
-21 6 9 0.6110 0.0179
-21 6 10 0.7864 -0.0040
-21 6 11 -0.5863 -0.0128
-21 6 12 -0.5345 -0.0001
-21 6 13 0.4236 0.0027
-21 6 14 0.2601 0.0040
-21 6 15 -0.2807 0.0081
-21 6 16 -0.1484 0.0002
-21 6 17 0.0839 -0.0132
-21 6 18 0.0400 -0.0108
-21 7 1 -1.4219 0.0073
-21 7 2 0.3027 -0.0088
-21 7 3 1.3739 -0.0043
-21 7 4 0.0088 0.0151
-21 7 5 -0.8165 -0.0087
-21 7 6 -0.5736 -0.0128
-21 7 7 0.5527 0.0220
-21 7 8 1.0620 0.0034
-21 7 9 -0.6580 -0.0289
-21 7 10 -1.0632 0.0032
-21 7 11 0.5689 0.0270
-21 8 3 -1.0304 0.0054
-21 8 4 -0.1753 -0.0116
-20 0 2 2.0142 0.0736
-20 0 4 -2.4275 -0.0506
-20 0 6 2.7831 0.0277
-20 0 8 -2.9055 -0.0305
-20 0 10 2.4641 0.0306
-20 0 12 -1.6030 -0.0091
-20 0 14 0.7662 -0.0107
-20 0 16 -0.1504 0.0123
-20 0 18 -0.2444 -0.0082
-20 0 20 0.3819 0.0083
-20 0 22 -0.2941 -0.0080
-20 0 24 0.0996 0.0075
-20 0 26 0.1148 -0.0115
-20 1 1 -0.5237 0.0207
-20 1 2 -2.1472 -0.0547
-20 1 3 -0.1448 -0.0191
-20 1 4 2.4396 0.0351
-20 1 5 0.7729 0.0152
-20 1 6 -2.6465 -0.0167
-20 1 7 -0.9867 -0.0127
-20 1 8 2.6874 0.0201
-20 1 9 0.7696 0.0103
-20 1 10 -2.3447 -0.0203
-20 1 11 -0.4585 -0.0075
-20 1 12 1.7409 0.0028
-20 1 13 0.3300 0.0059
-20 1 14 -1.1515 0.0118
-20 1 15 -0.3069 -0.0045
-20 1 16 0.6130 -0.0111
-20 1 17 0.2240 0.0019
-20 1 18 -0.1079 0.0082
-20 1 19 -0.1879 0.0024
-20 1 20 -0.2199 -0.0094
-20 1 21 0.3863 -0.0083
-20 1 22 0.2885 0.0072
-20 1 23 -0.7017 0.0135
-20 1 24 -0.1846 -0.0027
-20 1 25 0.8247 -0.0130
-20 1 26 0.0235 0.0036
-20 1 27 -0.6589 0.0043
-20 2 1 0.5230 -0.0100
-20 2 2 2.2704 0.0208
-20 2 3 0.3390 0.0080
-20 2 4 -2.3820 -0.0069
-20 2 5 -1.1489 -0.0052
-20 2 6 2.2853 -0.0028
-20 2 7 1.4138 0.0057
-20 2 8 -2.0997 -0.0029
-20 2 9 -1.1753 -0.0059
-20 2 10 1.8808 0.0049
-20 2 11 0.9340 0.0036
-20 2 12 -1.7389 0.0043
-20 2 13 -0.9861 -0.0019
-20 2 14 1.6203 -0.0085
-20 2 15 1.0345 0.0020
-20 2 16 -1.2580 0.0027
-20 2 17 -0.7426 -0.0007
-20 2 18 0.6194 0.0002
-20 2 19 0.3804 -0.0032
-20 2 20 -0.0529 0.0024
-20 2 21 -0.4306 0.0077
-20 2 22 -0.1777 -0.0015
-20 2 23 0.7991 -0.0093
-20 2 24 0.1515 -0.0027
-20 2 25 -0.9567 0.0059
-20 3 1 -0.2551 -0.0056
-20 3 2 -2.0258 0.0001
-20 3 3 -0.3813 0.0097
-20 3 4 2.1239 -0.0064
-20 3 5 0.9571 -0.0110
-20 3 6 -1.8033 0.0067
-20 3 7 -1.1273 0.0070
-20 3 8 1.3472 -0.0005
-20 3 9 1.0281 -0.0027
-20 3 10 -1.0858 -0.0001
-20 3 11 -1.0926 0.0007
-20 3 12 1.1622 -0.0050
-20 3 13 1.4225 0.0017
-20 3 14 -1.3060 0.0037
-20 3 15 -1.5157 -0.0053
-20 3 16 1.0937 0.0040
-20 3 17 0.9730 0.0062
-20 3 18 -0.5370 -0.0073
-20 3 19 -0.2410 -0.0029
-20 3 20 0.0899 0.0049
-20 3 21 0.0743 -0.0013
-20 3 22 -0.0228 -0.0040
-20 3 23 -0.4587 0.0019
-20 3 24 0.1528 0.0056
-20 3 25 0.7116 0.0018
-20 4 1 0.2458 0.0095
-20 4 2 1.7090 -0.0047
-20 4 3 0.0973 -0.0125
-20 4 4 -1.8330 0.0057
-20 4 5 -0.3649 0.0104
-20 4 6 1.3741 -0.0008
-20 4 7 0.4699 -0.0047
-20 4 8 -0.7338 -0.0040
-20 4 9 -0.5683 0.0004
-20 4 10 0.3908 0.0015
-20 4 11 0.8204 0.0012
-20 4 12 -0.4736 0.0041
-20 4 13 -1.1268 -0.0030
-20 4 14 0.6251 -0.0036
-20 4 15 1.0599 0.0060
-20 4 16 -0.4649 -0.0026
-20 4 17 -0.3764 -0.0083
-20 4 18 0.1092 0.0072
-20 4 19 -0.4084 0.0082
-20 4 20 0.0292 -0.0079
-20 4 21 0.5087 -0.0066
-20 4 22 0.1457 0.0071
-20 4 23 0.0628 0.0065
-20 4 24 -0.3286 -0.0067
-20 5 1 -0.2322 -0.0024
-20 5 2 -1.8484 0.0041
-20 5 3 0.0799 0.0029
-20 5 4 1.7654 -0.0060
-20 5 5 -0.0432 0.0022
-20 5 6 -1.0905 0.0008
-20 5 7 -0.0877 -0.0072
-20 5 8 0.3790 0.0045
-20 5 9 0.4026 0.0067
-20 5 10 -0.1283 -0.0039
-20 5 11 -0.6586 -0.0019
-20 5 12 0.3196 -0.0000
-20 5 13 0.6402 -0.0033
-20 5 14 -0.4785 0.0012
-20 5 15 -0.2805 0.0050
-20 5 16 0.3107 0.0018
-20 5 17 -0.3734 -0.0007
-20 5 18 -0.0603 -0.0060
-20 5 19 0.9372 -0.0072
-20 5 20 0.0622 0.0075
-20 5 21 -0.8633 0.0132
-20 5 22 -0.2225 -0.0052
-20 5 23 0.1913 -0.0156
-20 6 1 -0.3406 -0.0045
-20 6 2 2.0886 -0.0023
-20 6 3 0.3778 0.0041
-20 6 4 -1.5955 0.0076
-20 6 5 -0.1661 -0.0107
-20 6 6 0.6626 -0.0040
-20 6 7 0.2835 0.0156
-20 6 8 0.0182 -0.0048
-20 6 9 -0.7795 -0.0125
-20 6 10 -0.0042 0.0118
-20 6 11 1.0138 0.0024
-20 6 12 -0.4704 -0.0136
-20 6 13 -0.7022 0.0104
-20 6 14 0.7401 0.0119
-20 6 15 0.1789 -0.0186
-20 6 16 -0.5410 -0.0102
-20 6 17 0.2904 0.0142
-20 6 18 0.2592 0.0090
-20 6 19 -0.6178 0.0008
-20 6 20 -0.2272 -0.0046
-20 7 1 1.0603 0.0058
-20 7 2 -1.6901 -0.0052
-20 7 3 -1.0114 -0.0058
-20 7 4 0.8791 -0.0026
-20 7 5 0.5234 0.0140
-20 7 6 0.1160 0.0030
-20 7 7 -0.5256 -0.0218
-20 7 8 -0.6610 0.0067
-20 7 9 1.1025 0.0215
-20 7 10 0.3965 -0.0193
-20 7 11 -1.3663 -0.0114
-20 7 12 0.3211 0.0262
-20 7 13 0.9932 -0.0062
-20 7 14 -0.6838 -0.0256
-20 7 15 -0.5495 0.0218
-20 7 16 0.4279 0.0212
-20 8 3 1.0238 0.0103
-20 8 4 -0.0542 -0.0054
-20 8 5 -0.3588 -0.0180
-20 8 6 -0.7128 -0.0021
-19 0 2 -3.1834 -0.1165
-19 0 4 3.2290 0.0794
-19 0 6 -3.0994 -0.0297
-19 0 8 2.8798 0.0130
-19 0 10 -2.2327 -0.0130
-19 0 12 1.2846 0.0027
-19 0 14 -0.5969 0.0079
-19 0 16 0.3424 -0.0069
-19 0 18 -0.2399 0.0055
-19 0 20 0.1050 -0.0094
-19 0 22 0.0291 0.0081
-19 0 24 -0.0606 0.0002
-19 0 26 -0.1194 -0.0043
-19 0 28 0.4226 0.0009
-19 1 1 -1.0607 -0.0239
-19 1 2 2.9108 0.0881
-19 1 3 1.3678 0.0197
-19 1 4 -3.0142 -0.0585
-19 1 5 -1.2838 -0.0124
-19 1 6 3.0494 0.0173
-19 1 7 0.7392 0.0068
-19 1 8 -3.0369 -0.0031
-19 1 9 0.0023 -0.0033
-19 1 10 2.6129 0.0027
-19 1 11 -0.4207 0.0016
-19 1 12 -1.8390 0.0046
-19 1 13 0.2397 -0.0014
-19 1 14 1.1701 -0.0095
-19 1 15 0.2441 0.0001
-19 1 16 -0.7460 0.0043
-19 1 17 -0.5513 0.0034
-19 1 18 0.3831 -0.0016
-19 1 19 0.6018 -0.0068
-19 1 20 -0.0448 0.0056
-19 1 21 -0.6282 0.0078
-19 1 22 -0.1623 -0.0040
-19 1 23 0.6948 -0.0052
-19 1 24 0.1825 -0.0048
-19 1 25 -0.6627 -0.0020
-19 1 26 -0.0017 0.0087
-19 1 27 0.5044 0.0120
-19 1 28 -0.2647 -0.0043
-19 1 29 -0.3354 -0.0169
-19 2 1 1.4156 0.0113
-19 2 2 -2.2722 -0.0332
-19 2 3 -1.8391 -0.0080
-19 2 4 2.4819 0.0169
-19 2 5 1.8656 0.0024
-19 2 6 -2.7498 0.0055
-19 2 7 -1.3227 -0.0003
-19 2 8 3.0110 -0.0109
-19 2 9 0.5024 -0.0002
-19 2 10 -2.9345 0.0089
-19 2 11 -0.0885 0.0013
-19 2 12 2.4987 -0.0109
-19 2 13 0.4087 -0.0013
-19 2 14 -1.9393 0.0088
-19 2 15 -0.9507 0.0003
-19 2 16 1.3129 -0.0003
-19 2 17 1.0224 -0.0007
-19 2 18 -0.6174 -0.0025
-19 2 19 -0.6782 0.0031
-19 2 20 0.0710 -0.0020
-19 2 21 0.4734 -0.0047
-19 2 22 0.1334 0.0015
-19 2 23 -0.5509 0.0027
-19 2 24 -0.0786 0.0055
-19 2 25 0.5814 0.0039
-19 2 26 -0.0592 -0.0086
-19 2 27 -0.4105 -0.0115
-19 2 28 0.1592 0.0049
-19 3 1 -0.8132 0.0116
-19 3 2 1.6976 0.0022
-19 3 3 1.2102 -0.0132
-19 3 4 -1.9119 0.0022
-19 3 5 -1.4752 0.0124
-19 3 6 2.0809 -0.0089
-19 3 7 1.3551 -0.0071
-19 3 8 -2.2048 0.0097
-19 3 9 -0.9826 0.0018
-19 3 10 2.1588 -0.0101
-19 3 11 0.8539 0.0003
-19 3 12 -1.9391 0.0120
-19 3 13 -1.1725 -0.0017
-19 3 14 1.5920 -0.0084
-19 3 15 1.4156 0.0041
-19 3 16 -1.0872 0.0005
-19 3 17 -1.0055 -0.0051
-19 3 18 0.5329 0.0022
-19 3 19 0.2320 0.0026
-19 3 20 -0.2384 0.0003
-19 3 21 0.1255 0.0011
-19 3 22 0.3160 0.0006
-19 3 23 0.0759 -0.0016
-19 3 24 -0.4997 -0.0054
-19 3 25 -0.2886 -0.0028
-19 3 26 0.5085 0.0071
-19 3 27 0.1854 0.0087
-19 4 1 -0.2662 -0.0132
-19 4 2 -1.6023 0.0023
-19 4 3 -0.1142 0.0122
-19 4 4 1.5965 -0.0014
-19 4 5 0.5192 -0.0066
-19 4 6 -1.3393 0.0012
-19 4 7 -0.7489 -0.0011
-19 4 8 1.0530 -0.0019
-19 4 9 0.7961 0.0051
-19 4 10 -0.8598 0.0054
-19 4 11 -0.8219 -0.0044
-19 4 12 0.7542 -0.0089
-19 4 13 0.8971 0.0033
-19 4 14 -0.6097 0.0073
-19 4 15 -0.7620 -0.0049
-19 4 16 0.3489 -0.0023
-19 4 17 0.1703 0.0080
-19 4 18 -0.1501 -0.0014
-19 4 19 0.5114 -0.0092
-19 4 20 0.2686 0.0035
-19 4 21 -0.6092 0.0065
-19 4 22 -0.6226 -0.0061
-19 4 23 0.1062 -0.0032
-19 4 24 0.8236 0.0082
-19 4 25 0.3179 0.0037
-19 4 26 -0.6593 -0.0070
-19 5 1 0.8207 0.0007
-19 5 2 1.9683 -0.0032
-19 5 3 -0.4571 0.0009
-19 5 4 -1.5629 0.0032
-19 5 5 0.1483 -0.0068
-19 5 6 0.9026 -0.0008
-19 5 7 0.1634 0.0110
-19 5 8 -0.4309 -0.0017
-19 5 9 -0.4459 -0.0083
-19 5 10 0.3432 0.0020
-19 5 11 0.4591 0.0015
-19 5 12 -0.4621 -0.0005
-19 5 13 -0.1379 0.0030
-19 5 14 0.4358 -0.0012
-19 5 15 -0.3465 -0.0007
-19 5 16 -0.1869 0.0018
-19 5 17 0.8355 -0.0089
-19 5 18 0.0365 0.0003
-19 5 19 -1.0997 0.0195
-19 5 20 -0.2339 -0.0045
-19 5 21 0.8359 -0.0221
-19 5 22 0.5502 0.0079
-19 5 23 -0.1522 0.0158
-19 5 24 -0.5755 -0.0083
-19 6 1 -0.3210 0.0019
-19 6 2 -2.1592 0.0020
-19 6 3 0.0481 -0.0023
-19 6 4 1.4258 -0.0056
-19 6 5 -0.0072 0.0072
-19 6 6 -0.6576 0.0033
-19 6 7 -0.2719 -0.0088
-19 6 8 0.3473 0.0048
-19 6 9 0.8010 0.0024
-19 6 10 -0.5956 -0.0131
-19 6 11 -0.8852 0.0074
-19 6 12 1.0080 0.0146
-19 6 13 0.2547 -0.0138
-19 6 14 -1.0285 -0.0076
-19 6 15 0.5210 0.0105
-19 6 16 0.6012 -0.0021
-19 6 17 -0.9290 0.0054
-19 6 18 -0.2435 0.0065
-19 6 19 0.9554 -0.0260
-19 6 20 0.2917 -0.0044
-19 6 21 -0.6680 0.0349
-19 6 22 -0.4439 0.0008
-19 7 1 -0.5761 0.0043
-19 7 2 1.6124 0.0091
-19 7 3 0.7604 -0.0046
-19 7 4 -0.8253 0.0009
-19 7 5 -0.5461 0.0004
-19 7 6 0.2277 -0.0035
-19 7 7 0.7747 0.0009
-19 7 8 -0.1299 -0.0061
-19 7 9 -1.5197 0.0054
-19 7 10 0.5510 0.0197
-19 7 11 1.7415 -0.0157
-19 7 12 -1.0907 -0.0237
-19 7 13 -0.9938 0.0240
-19 7 14 1.1395 0.0135
-19 7 15 0.0864 -0.0232
-19 7 16 -0.6317 0.0024
-19 7 17 0.2814 0.0068
-19 7 18 0.1907 -0.0128
-19 8 1 0.9217 -0.0044
-19 8 2 -0.6166 -0.0211
-19 8 3 -1.0779 0.0069
-19 8 4 0.0051 0.0032
-19 8 5 0.7135 -0.0069
-19 8 6 0.3015 0.0071
-19 8 7 -0.7986 0.0082
-19 8 8 -0.3172 -0.0005
-19 8 9 1.4747 -0.0140
-19 8 10 -0.0022 -0.0150
-19 8 11 -1.6799 0.0225
-19 8 12 0.4879 0.0230
-18 0 2 2.8354 0.1122
-18 0 4 -2.3228 -0.0677
-18 0 6 1.9251 0.0076
-18 0 8 -1.8689 0.0093
-18 0 10 1.5997 0.0065
-18 0 12 -1.0810 -0.0149
-18 0 14 0.9696 0.0114
-18 0 16 -1.4078 -0.0087
-18 0 18 1.7576 0.0046
-18 0 20 -1.5977 0.0017
-18 0 22 1.1771 0.0003
-18 0 24 -0.9600 -0.0096
-18 0 28 -1.4999 -0.0009
-18 0 30 1.4265 -0.0099
-18 1 1 2.2685 0.0166
-18 1 2 -2.3661 -0.0827
-18 1 3 -1.7118 -0.0095
-18 1 4 2.2434 0.0481
-18 1 5 0.9801 0.0008
-18 1 6 -2.2587 0.0007
-18 1 7 -0.2197 0.0047
-18 1 8 2.4258 -0.0136
-18 1 9 -0.3180 -0.0054
-18 1 10 -2.1682 -0.0011
-18 1 11 0.2579 0.0026
-18 1 12 1.5122 0.0103
-18 1 13 0.4684 0.0010
-18 1 14 -1.1543 -0.0104
-18 1 15 -1.3258 -0.0017
-18 1 16 1.2894 0.0105
-18 1 17 1.6633 0.0001
-18 1 18 -1.3842 -0.0064
-18 1 19 -1.4353 -0.0010
-18 1 20 1.1104 -0.0015
-18 1 21 1.1033 0.0052
-18 1 22 -0.7230 0.0012
-18 1 23 -0.9523 -0.0084
-18 1 24 0.6003 0.0074
-18 1 25 0.8928 0.0083
-18 1 26 -0.8523 -0.0097
-18 1 27 -0.7991 -0.0060
-18 1 28 1.1914 0.0010
-18 1 29 0.6486 0.0006
-18 1 30 -1.1361 0.0078
-18 2 1 -3.1297 -0.0073
-18 2 2 1.3383 0.0275
-18 2 3 2.5382 0.0016
-18 2 4 -1.8938 -0.0112
-18 2 5 -1.8746 0.0056
-18 2 6 2.5756 -0.0139
-18 2 7 1.1277 -0.0086
-18 2 8 -3.0336 0.0168
-18 2 9 -0.4962 0.0076
-18 2 10 2.7512 -0.0044
-18 2 11 0.5141 -0.0054
-18 2 12 -1.9193 -0.0027
-18 2 13 -1.3504 0.0028
-18 2 14 1.2581 0.0043
-18 2 15 2.2618 -0.0007
-18 2 16 -0.9964 -0.0058
-18 2 17 -2.3314 -0.0001
-18 2 18 0.7712 0.0023
-18 2 19 1.6188 0.0005
-18 2 20 -0.4147 0.0047
-18 2 21 -0.9589 -0.0020
-18 2 22 0.1640 -0.0045
-18 2 23 0.7879 0.0040
-18 2 24 -0.2144 -0.0030
-18 2 25 -0.8385 -0.0056
-18 2 26 0.4920 0.0062
-18 2 27 0.8043 0.0058
-18 2 28 -0.7255 -0.0012
-18 2 29 -0.6428 -0.0022
-18 2 30 0.6431 -0.0035
-18 3 1 2.4884 -0.0131
-18 3 2 -0.4564 0.0010
-18 3 3 -2.2800 0.0126
-18 3 4 1.1929 -0.0052
-18 3 5 2.2168 -0.0112
-18 3 6 -1.9337 0.0130
-18 3 7 -1.9919 0.0075
-18 3 8 2.2408 -0.0120
-18 3 9 1.5876 -0.0045
-18 3 10 -1.8593 0.0069
-18 3 11 -1.4897 0.0043
-18 3 12 1.1364 -0.0057
-18 3 13 1.9638 -0.0044
-18 3 14 -0.6514 0.0055
-18 3 15 -2.4067 0.0032
-18 3 16 0.5085 -0.0035
-18 3 17 2.0173 -0.0020
-18 3 18 -0.4184 0.0039
-18 3 19 -0.9772 0.0020
-18 3 20 0.2899 -0.0059
-18 3 21 0.2307 -0.0026
-18 3 22 -0.2802 0.0040
-18 3 23 -0.1862 0.0016
-18 3 24 0.4254 0.0008
-18 3 25 0.4007 0.0024
-18 3 26 -0.5735 -0.0020
-18 3 27 -0.4335 -0.0071
-18 3 28 0.5747 -0.0010
-18 3 29 0.2778 0.0072
-18 4 1 -1.3698 0.0105
-18 4 2 0.0478 -0.0031
-18 4 3 1.4732 -0.0071
-18 4 4 -0.4184 0.0046
-18 4 5 -1.7158 0.0017
-18 4 6 0.6884 -0.0055
-18 4 7 1.7557 0.0022
-18 4 8 -0.6151 0.0043
-18 4 9 -1.5227 -0.0011
-18 4 10 0.2268 -0.0042
-18 4 11 1.3309 -0.0037
-18 4 12 0.1453 0.0066
-18 4 13 -1.4319 0.0068
-18 4 14 -0.2257 -0.0078
-18 4 15 1.5331 -0.0055
-18 4 16 0.0792 0.0063
-18 4 17 -1.1318 0.0019
-18 4 18 0.0919 -0.0035
-18 4 19 0.3571 0.0004
-18 4 20 -0.2489 0.0003
-18 4 21 0.0965 0.0009
-18 4 22 0.4339 0.0017
-18 4 23 0.0359 -0.0029
-18 4 24 -0.5751 -0.0003
-18 4 25 -0.2971 0.0002
-18 4 26 0.5666 -0.0043
-18 4 27 0.2744 0.0064
-18 5 1 0.7126 0.0032
-18 5 2 0.0354 0.0035
-18 5 3 -0.8686 -0.0049
-18 5 4 -0.0031 -0.0053
-18 5 5 0.9287 0.0083
-18 5 6 0.0121 0.0032
-18 5 7 -0.8764 -0.0083
-18 5 8 -0.1371 0.0010
-18 5 9 0.7784 0.0025
-18 5 10 0.2815 -0.0031
-18 5 11 -0.6123 0.0039
-18 5 12 -0.3164 0.0012
-18 5 13 0.4192 -0.0048
-18 5 14 0.2769 0.0026
-18 5 15 -0.2782 -0.0003
-18 5 16 -0.2612 -0.0041
-18 5 17 0.1074 0.0083
-18 5 18 0.2247 0.0001
-18 5 19 0.1262 -0.0134
-18 5 20 -0.0661 0.0065
-18 5 21 -0.1938 0.0094
-18 5 22 -0.1470 -0.0080
-18 5 23 -0.0186 0.0009
-18 5 24 0.2329 0.0011
-18 5 25 0.2219 -0.0061
-18 6 1 -0.6856 -0.0026
-18 6 2 -0.0548 -0.0041
-18 6 3 0.8746 0.0025
-18 6 4 0.0398 0.0076
-18 6 5 -0.7271 -0.0040
-18 6 6 0.0632 -0.0054
-18 6 7 0.6668 0.0021
-18 6 8 -0.1705 -0.0017
-18 6 9 -0.8892 0.0035
-18 6 10 0.3097 0.0073
-18 6 11 0.8764 -0.0058
-18 6 12 -0.4523 -0.0053
-18 6 13 -0.3345 0.0008
-18 6 14 0.3891 -0.0028
-18 6 15 -0.2548 0.0094
-18 6 16 -0.0657 0.0082
-18 6 17 0.4509 -0.0214
-18 6 18 -0.2086 -0.0030
-18 6 19 -0.3980 0.0283
-18 6 20 0.1710 -0.0082
-18 6 21 0.3125 -0.0211
-18 6 22 0.0107 0.0127
-18 6 23 -0.1746 0.0019
-18 7 1 0.9277 -0.0079
-18 7 2 0.1975 0.0004
-18 7 3 -1.2961 0.0092
-18 7 4 -0.1008 -0.0089
-18 7 5 1.1268 -0.0101
-18 7 6 -0.1259 0.0106
-18 7 7 -1.1674 0.0133
-18 7 8 0.2905 -0.0035
-18 7 9 1.6917 -0.0173
-18 7 10 -0.4414 -0.0040
-18 7 11 -1.7873 0.0150
-18 7 12 0.6412 0.0020
-18 7 13 0.9224 -0.0047
-18 7 14 -0.6481 0.0085
-18 7 15 0.0910 -0.0095
-18 7 16 0.3302 -0.0150
-18 7 17 -0.4162 0.0245
-18 7 18 -0.0399 0.0079
-18 7 19 0.2783 -0.0346
-18 7 20 0.1061 0.0068
-18 8 1 -1.0014 0.0142
-18 8 2 -0.5184 0.0010
-18 8 3 1.5216 -0.0190
-18 8 4 0.4121 0.0123
-18 8 5 -1.3028 0.0246
-18 8 6 -0.1609 -0.0171
-18 8 7 1.2295 -0.0303
-18 8 8 0.1183 0.0098
-18 8 9 -1.6833 0.0327
-18 8 10 -0.1306 0.0002
-18 8 11 1.7226 -0.0261
-18 8 12 -0.1135 -0.0007
-18 8 13 -0.8176 0.0115
-18 8 14 0.3945 -0.0081
-18 9 3 -1.1660 0.0243
-18 9 4 -0.6658 -0.0145
-18 9 5 0.8306 -0.0332
-17 0 2 0.4740 -0.0789
-17 0 4 -0.9147 0.0437
-17 0 6 0.6567 0.0099
-17 0 8 0.3863 -0.0186
-17 0 10 -1.2543 -0.0098
-17 0 12 1.5612 0.0278
-17 0 14 -1.9539 -0.0240
-17 0 16 2.6553 0.0153
-17 0 18 -2.9502 -0.0074
-17 0 20 2.4433 0.0003
-17 0 22 -1.6827 -0.0012
-17 0 24 1.3302 0.0084
-17 0 28 1.5136 -0.0011
-17 0 30 -1.0150 0.0098
-17 1 1 -1.1828 -0.0062
-17 1 2 -0.5458 0.0574
-17 1 3 0.5162 0.0012
-17 1 4 0.4939 -0.0335
-17 1 5 -0.1856 0.0042
-17 1 6 0.0205 -0.0070
-17 1 7 0.1502 -0.0061
-17 1 8 -0.9307 0.0118
-17 1 9 -0.3349 0.0034
-17 1 10 1.4351 0.0126
-17 1 11 0.8407 0.0019
-17 1 12 -1.3815 -0.0265
-17 1 13 -1.6380 -0.0061
-17 1 14 1.5046 0.0217
-17 1 15 2.2518 0.0062
-17 1 16 -2.0140 -0.0133
-17 1 17 -2.1808 -0.0041
-17 1 18 2.2036 0.0047
-17 1 19 1.5794 0.0043
-17 1 20 -1.7109 0.0036
-17 1 21 -1.0798 -0.0060
-17 1 22 1.0788 -0.0037
-17 1 23 0.9777 0.0028
-17 1 24 -0.9062 -0.0035
-17 1 25 -1.0300 0.0057
-17 1 26 1.1606 0.0050
-17 1 27 0.9639 -0.0120
-17 1 28 -1.3181 0.0031
-17 1 29 -0.7376 0.0124
-17 1 30 0.8899 -0.0112
-17 1 31 0.3948 -0.0095
-17 2 1 1.6808 0.0022
-17 2 2 0.7391 -0.0207
-17 2 3 -1.1726 -0.0005
-17 2 4 0.1348 0.0142
-17 2 5 1.1626 -0.0032
-17 2 6 -0.9940 0.0038
-17 2 7 -1.3297 0.0044
-17 2 8 1.5289 -0.0022
-17 2 9 1.4749 -0.0024
-17 2 10 -1.3515 -0.0130
-17 2 11 -1.8811 -0.0000
-17 2 12 0.7806 0.0177
-17 2 13 2.6965 0.0016
-17 2 14 -0.6094 -0.0110
-17 2 15 -3.2897 -0.0016
-17 2 16 0.9078 0.0045
-17 2 17 2.8949 0.0006
-17 2 18 -0.9688 0.0010
-17 2 19 -1.7773 -0.0003
-17 2 20 0.5268 -0.0062
-17 2 21 0.9773 0.0006
-17 2 22 -0.1352 0.0054
-17 2 23 -0.9491 0.0012
-17 2 24 0.2721 0.0007
-17 2 25 1.2160 -0.0049
-17 2 26 -0.7427 -0.0025
-17 2 27 -1.2596 0.0070
-17 2 28 0.9819 -0.0030
-17 2 29 0.9991 -0.0067
-17 2 30 -0.6423 0.0086
-17 2 31 -0.5319 0.0058
-17 3 1 -1.5812 0.0081
-17 3 2 -1.0035 -0.0008
-17 3 3 1.6769 -0.0025
-17 3 4 -0.0615 -0.0007
-17 3 5 -2.2096 -0.0002
-17 3 6 0.7815 -0.0020
-17 3 7 2.5805 0.0010
-17 3 8 -0.8248 -0.0016
-17 3 9 -2.5494 -0.0001
-17 3 10 0.2878 0.0063
-17 3 11 2.5720 -0.0026
-17 3 12 0.2144 -0.0030
-17 3 13 -3.0025 0.0048
-17 3 14 -0.1278 -0.0034
-17 3 15 3.2930 -0.0050
-17 3 16 -0.3028 0.0054
-17 3 17 -2.6440 0.0040
-17 3 18 0.3869 -0.0050
-17 3 19 1.3172 -0.0025
-17 3 20 -0.0231 0.0048
-17 3 21 -0.4361 0.0013
-17 3 22 -0.2064 -0.0034
-17 3 23 0.4933 -0.0009
-17 3 24 -0.0716 0.0011
-17 3 25 -0.9172 -0.0003
-17 3 26 0.5584 -0.0013
-17 3 27 1.0713 0.0027
-17 3 28 -0.7207 0.0039
-17 3 29 -0.8548 -0.0035
-17 3 30 0.3909 -0.0054
-17 4 1 1.4185 -0.0054
-17 4 2 1.2516 0.0062
-17 4 3 -1.6827 -0.0008
-17 4 4 -0.4985 -0.0052
-17 4 5 2.1764 0.0043
-17 4 6 0.1819 0.0012
-17 4 7 -2.4107 -0.0033
-17 4 8 -0.4795 0.0031
-17 4 9 2.3140 -0.0020
-17 4 10 0.9643 -0.0025
-17 4 11 -2.2997 0.0079
-17 4 12 -1.0370 -0.0034
-17 4 13 2.6278 -0.0102
-17 4 14 0.5652 0.0081
-17 4 15 -2.8584 0.0085
-17 4 16 -0.0483 -0.0077
-17 4 17 2.3302 -0.0050
-17 4 18 0.0020 0.0043
-17 4 19 -1.1950 0.0015
-17 4 20 -0.3058 -0.0020
-17 4 21 0.3643 0.0001
-17 4 22 0.4154 0.0030
-17 4 23 -0.3196 -0.0003
-17 4 24 -0.1071 -0.0071
-17 4 25 0.6338 0.0035
-17 4 26 -0.2878 0.0101
-17 4 27 -0.7425 -0.0095
-17 4 28 0.3592 -0.0089
-17 5 1 -1.4009 -0.0031
-17 5 2 -1.3761 -0.0061
-17 5 3 1.4222 0.0045
-17 5 4 0.6829 0.0065
-17 5 5 -1.4132 -0.0051
-17 5 6 -0.4493 -0.0005
-17 5 7 1.3403 0.0024
-17 5 8 0.7613 -0.0051
-17 5 9 -1.4062 0.0028
-17 5 10 -1.0927 0.0050
-17 5 11 1.6793 -0.0056
-17 5 12 0.9860 -0.0006
-17 5 13 -2.0102 0.0038
-17 5 14 -0.5975 -0.0032
-17 5 15 2.1343 -0.0011
-17 5 16 0.4247 0.0030
-17 5 17 -1.7837 -0.0003
-17 5 18 -0.6372 0.0006
-17 5 19 1.0114 0.0003
-17 5 20 0.8994 -0.0027
-17 5 21 -0.3103 0.0023
-17 5 22 -0.8360 -0.0026
-17 5 23 0.0842 -0.0056
-17 5 24 0.4754 0.0130
-17 5 25 -0.1945 0.0027
-17 5 26 -0.1517 -0.0183
-17 5 27 0.2650 0.0072
-17 6 1 1.3469 0.0056
-17 6 2 1.3695 0.0041
-17 6 3 -1.3961 -0.0033
-17 6 4 -0.4770 -0.0062
-17 6 5 1.1315 0.0014
-17 6 6 0.0725 0.0031
-17 6 7 -0.9719 0.0007
-17 6 8 -0.2535 0.0014
-17 6 9 1.3306 -0.0012
-17 6 10 0.5054 -0.0029
-17 6 11 -1.7912 -0.0038
-17 6 12 -0.4283 0.0014
-17 6 13 1.7676 0.0115
-17 6 14 0.2674 0.0000
-17 6 15 -1.3567 -0.0137
-17 6 16 -0.4388 0.0025
-17 6 17 0.9118 0.0089
-17 6 18 0.8435 -0.0093
-17 6 19 -0.4484 -0.0016
-17 6 20 -1.0224 0.0127
-17 6 21 -0.0515 -0.0071
-17 6 22 0.8081 -0.0044
-17 6 23 0.3532 0.0148
-17 6 24 -0.4742 -0.0109
-17 7 1 -1.1463 -0.0048
-17 7 2 -1.3249 -0.0025
-17 7 3 1.5495 -0.0000
-17 7 4 0.5407 0.0066
-17 7 5 -1.3421 0.0054
-17 7 6 -0.1718 -0.0081
-17 7 7 1.2326 -0.0082
-17 7 8 0.3477 0.0065
-17 7 9 -1.7825 0.0046
-17 7 10 -0.5631 -0.0043
-17 7 11 2.2321 0.0082
-17 7 12 0.3547 0.0034
-17 7 13 -1.7554 -0.0226
-17 7 14 0.0003 -0.0016
-17 7 15 0.8293 0.0263
-17 7 16 0.0182 -0.0057
-17 7 17 -0.3086 -0.0180
-17 7 18 -0.3185 0.0172
-17 7 19 0.1356 0.0061
-17 7 20 0.4083 -0.0226
-17 7 21 0.1416 0.0061
-17 8 1 0.8700 0.0060
-17 8 2 1.2693 0.0044
-17 8 3 -1.4195 0.0001
-17 8 4 -0.8761 -0.0071
-17 8 5 1.1449 -0.0085
-17 8 6 0.6751 0.0090
-17 8 7 -0.9125 0.0131
-17 8 8 -0.9024 -0.0081
-17 8 9 1.4117 -0.0082
-17 8 10 1.0978 0.0060
-17 8 11 -1.8285 -0.0085
-17 8 12 -0.6835 -0.0054
-17 8 13 1.3135 0.0271
-17 8 14 -0.0564 0.0033
-17 9 1 -0.5552 -0.0097
-17 9 2 -1.1221 -0.0094
-17 9 3 0.9335 0.0062
-17 9 4 0.9149 0.0087
-17 9 5 -0.4970 0.0005
-17 9 6 -0.6474 -0.0079
-17 9 7 0.0866 -0.0050
-17 9 8 0.7852 0.0057
-17 9 9 -0.3961 0.0016
-17 9 10 -0.9976 -0.0042
-16 0 2 -4.1095 0.0296
-16 0 4 3.5134 -0.0076
-16 0 6 -1.8704 -0.0360
-16 0 8 -0.6867 0.0401
-16 0 10 2.7440 -0.0071
-16 0 12 -3.4046 -0.0157
-16 0 14 3.3202 0.0142
-16 0 16 -3.2124 -0.0073
-16 0 18 2.7873 0.0024
-16 0 20 -1.7721 0.0015
-16 0 22 0.6978 0.0011
-16 0 24 -0.1109 -0.0104
-16 0 28 0.1810 -0.0098
-16 0 30 -0.5050 0.0021
-16 0 32 0.9142 0.0026
-16 1 1 -0.6459 -0.0040
-16 1 2 3.7393 -0.0256
-16 1 3 0.6292 0.0048
-16 1 4 -2.9584 0.0139
-16 1 5 -0.1128 -0.0064
-16 1 6 1.4818 0.0187
-16 1 7 -0.5729 0.0060
-16 1 8 0.5985 -0.0221
-16 1 9 1.0796 -0.0029
-16 1 10 -2.1712 -0.0020
-16 1 11 -1.4032 -0.0015
-16 1 12 2.5969 0.0157
-16 1 13 1.6732 0.0046
-16 1 14 -2.5108 -0.0104
-16 1 15 -1.7295 -0.0039
-16 1 16 2.4779 0.0033
-16 1 17 1.3161 0.0005
-16 1 18 -2.1360 0.0007
-16 1 19 -0.6516 0.0010
-16 1 20 1.2526 -0.0046
-16 1 21 0.2846 -0.0008
-16 1 22 -0.3940 0.0031
-16 1 23 -0.3484 0.0039
-16 1 24 0.0714 0.0044
-16 1 25 0.4650 -0.0092
-16 1 27 -0.3813 0.0088
-16 1 28 0.0968 0.0023
-16 1 29 0.2005 -0.0009
-16 1 30 0.2249 0.0054
-16 1 31 -0.0372 -0.0065
-16 1 32 -0.6514 -0.0087
-16 2 1 0.9309 0.0006
-16 2 2 -2.9896 0.0186
-16 2 3 -0.4496 0.0029
-16 2 4 1.9962 -0.0185
-16 2 5 -0.5790 -0.0021
-16 2 6 -0.9581 0.0024
-16 2 7 1.5476 0.0009
-16 2 8 -0.1435 0.0001
-16 2 9 -1.9944 -0.0013
-16 2 10 0.8611 0.0098
-16 2 11 2.1235 0.0019
-16 2 12 -1.0408 -0.0109
-16 2 13 -2.3102 -0.0018
-16 2 14 1.1454 0.0031
-16 2 15 2.3164 0.0005
-16 2 16 -1.3221 0.0006
-16 2 17 -1.6498 0.0015
-16 2 18 1.1030 -0.0007
-16 2 19 0.6121 -0.0027
-16 2 20 -0.4216 0.0022
-16 2 21 -0.1111 0.0030
-16 2 22 -0.0473 -0.0022
-16 2 23 0.3813 -0.0049
-16 2 24 -0.1190 -0.0007
-16 2 25 -0.7668 0.0073
-16 2 26 0.5384 0.0005
-16 2 27 0.7898 -0.0052
-16 2 28 -0.6180 0.0050
-16 2 29 -0.5830 -0.0014
-16 2 30 0.2112 -0.0109
-16 2 31 0.3406 0.0065
-16 2 32 0.2927 0.0124
-16 3 1 -0.8381 0.0026
-16 3 2 2.3532 -0.0072
-16 3 3 -0.1115 -0.0106
-16 3 4 -1.5453 0.0117
-16 3 5 1.3695 0.0116
-16 3 6 1.0651 -0.0090
-16 3 7 -2.2594 -0.0087
-16 3 8 -0.7484 0.0080
-16 3 9 2.4479 0.0049
-16 3 10 0.4458 -0.0071
-16 3 11 -2.3573 -0.0012
-16 3 12 -0.0385 0.0007
-16 3 13 2.4758 -0.0008
-16 3 14 -0.5120 0.0050
-16 3 15 -2.4930 0.0007
-16 3 16 0.8687 -0.0036
-16 3 17 1.7754 0.0000
-16 3 18 -0.6044 -0.0005
-16 3 19 -0.6114 -0.0010
-16 3 20 -0.0345 0.0016
-16 3 21 0.0447 0.0012
-16 3 22 0.2603 -0.0004
-16 3 23 -0.4032 0.0009
-16 3 24 0.2075 -0.0010
-16 3 25 0.9587 -0.0027
-16 3 26 -0.7756 0.0033
-16 3 27 -1.0965 0.0007
-16 3 28 0.7659 -0.0065
-16 3 29 0.8891 0.0035
-16 3 30 -0.1819 0.0094
-16 3 31 -0.5644 -0.0051
-16 4 1 0.5613 -0.0028
-16 4 2 -1.7277 -0.0037
-16 4 3 0.2476 0.0091
-16 4 4 1.2695 -0.0011
-16 4 5 -1.2243 -0.0096
-16 4 6 -1.2759 0.0064
-16 4 7 1.9234 0.0060
-16 4 8 1.4448 -0.0075
-16 4 9 -2.2419 -0.0010
-16 4 10 -1.2535 0.0022
-16 4 11 2.4992 -0.0026
-16 4 12 0.5534 0.0059
-16 4 13 -2.8812 0.0029
-16 4 14 0.2412 -0.0093
-16 4 15 2.9741 -0.0011
-16 4 16 -0.5021 0.0063
-16 4 17 -2.2510 -0.0011
-16 4 18 0.0435 -0.0017
-16 4 19 1.0252 0.0039
-16 4 20 0.5682 -0.0003
-16 4 21 -0.2777 -0.0055
-16 4 22 -0.5880 -0.0009
-16 4 23 0.4054 0.0042
-16 4 24 -0.0212 0.0031
-16 4 25 -0.8328 -0.0032
-16 4 26 0.5480 -0.0033
-16 4 27 0.9467 0.0057
-16 4 28 -0.4017 0.0012
-16 4 29 -0.7020 -0.0078
-16 5 1 -0.1859 0.0014
-16 5 2 0.9490 0.0069
-16 5 3 -0.1693 -0.0030
-16 5 4 -0.5477 -0.0029
-16 5 5 0.5979 0.0025
-16 5 6 0.8197 -0.0044
-16 5 7 -1.0674 -0.0006
-16 5 8 -1.3614 0.0065
-16 5 9 1.7407 -0.0019
-16 5 10 1.4256 -0.0019
-16 5 11 -2.5489 0.0026
-16 5 12 -0.8369 -0.0037
-16 5 13 3.0994 -0.0018
-16 5 14 0.2225 0.0054
-16 5 15 -3.0002 0.0030
-16 5 16 -0.2452 -0.0042
-16 5 17 2.1668 -0.0049
-16 5 18 0.8079 0.0027
-16 5 19 -0.9970 0.0027
-16 5 20 -1.1872 -0.0027
-16 5 21 0.1700 0.0026
-16 5 22 0.8840 0.0053
-16 5 23 -0.0204 -0.0062
-16 5 24 -0.1743 -0.0075
-16 5 25 0.2473 0.0099
-16 5 26 -0.2375 0.0037
-16 5 27 -0.3699 -0.0154
-16 6 1 -0.1229 -0.0032
-16 6 2 -0.5193 -0.0036
-16 6 3 0.4031 0.0005
-16 6 4 0.0189 0.0022
-16 6 5 -0.4602 0.0014
-16 6 6 -0.3284 0.0012
-16 6 7 0.6586 -0.0011
-16 6 8 1.0291 -0.0025
-16 6 9 -1.4750 -0.0008
-16 6 10 -1.3023 0.0022
-16 6 11 2.4674 0.0043
-16 6 12 0.8919 -0.0034
-16 6 13 -2.7475 -0.0049
-16 6 14 -0.4276 0.0057
-16 6 15 2.1578 -0.0027
-16 6 16 0.5447 -0.0062
-16 6 17 -1.2294 0.0130
-16 6 18 -1.0197 0.0039
-16 6 19 0.3886 -0.0141
-16 6 20 1.1242 0.0018
-16 6 21 0.2011 0.0053
-16 6 22 -0.6104 -0.0105
-16 6 23 -0.4131 0.0052
-16 6 24 -0.0200 0.0158
-16 6 25 0.2656 -0.0149
-16 7 1 0.0062 0.0100
-16 7 2 0.7764 -0.0033
-16 7 3 -0.5240 -0.0034
-16 7 4 -0.4442 0.0024
-16 7 5 0.4634 -0.0016
-16 7 6 0.6764 0.0001
-16 7 7 -0.4600 0.0012
-16 7 8 -1.2025 -0.0015
-16 7 9 1.2740 0.0047
-16 7 10 1.3573 -0.0011
-16 7 11 -2.2496 -0.0135
-16 7 12 -0.8307 0.0077
-16 7 13 2.2264 0.0160
-16 7 14 0.1849 -0.0140
-16 7 15 -1.3167 -0.0041
-16 7 16 -0.1179 0.0157
-16 7 17 0.5022 -0.0143
-16 7 18 0.4742 -0.0112
-16 7 19 -0.1161 0.0212
-16 7 20 -0.5416 -0.0002
-16 7 22 0.1254 0.0156
-16 7 23 0.3751 -0.0009
-16 8 1 0.4339 -0.0235
-16 8 2 -1.0943 0.0119
-16 8 3 0.0918 0.0163
-16 8 4 1.1057 -0.0114
-16 8 5 0.0481 -0.0079
-16 8 6 -1.2135 0.0052
-16 8 7 -0.1182 0.0047
-16 8 8 1.4653 0.0003
-16 8 9 -0.7380 -0.0090
-16 8 10 -1.4864 -0.0002
-16 8 11 1.7777 0.0184
-16 8 12 0.8874 -0.0048
-16 8 13 -1.7759 -0.0221
-16 8 14 -0.0724 0.0108
-16 8 15 0.9642 0.0092
-16 8 16 -0.1866 -0.0137
-16 9 1 -0.5745 0.0422
-16 9 2 0.9498 -0.0117
-16 9 3 0.2981 -0.0387
-16 9 4 -1.0775 0.0125
-16 9 5 -0.5206 0.0285
-16 9 6 0.9961 -0.0070
-16 9 7 0.6057 -0.0182
-16 9 8 -1.1049 0.0009
-16 9 9 0.1648 0.0129
-16 9 10 1.2627 0.0016
-16 9 11 -1.1051 -0.0143
-16 9 12 -0.9243 -0.0002
-16 9 13 1.1850 0.0147
-15 0 2 3.3472 0.0227
-15 0 4 -1.9159 -0.0265
-15 0 6 -0.3904 0.0564
-15 0 8 3.5165 -0.0580
-15 0 10 -5.7724 0.0260
-15 0 12 5.8319 -0.0017
-15 0 14 -4.5560 -0.0007
-15 0 16 3.4797 -0.0013
-15 0 18 -2.7624 0.0008
-15 0 20 1.8196 -0.0005
-15 0 22 -0.7015 -0.0047
-15 0 24 -0.1482 0.0160
-15 0 28 -0.5013 0.0179
-15 0 30 0.2060 -0.0083
-15 0 32 0.0075 -0.0001
-15 1 1 1.1692 0.0136
-15 1 2 -3.2081 -0.0128
-15 1 3 -0.7691 -0.0122
-15 1 4 1.9657 0.0120
-15 1 5 -0.0028 0.0121
-15 1 6 -0.0107 -0.0358
-15 1 7 0.7359 -0.0117
-15 1 8 -2.6937 0.0397
-15 1 9 -1.0200 0.0094
-15 1 10 4.6977 -0.0178
-15 1 11 0.9043 -0.0055
-15 1 12 -4.8240 0.0021
-15 1 13 -0.7456 0.0014
-15 1 14 3.8077 -0.0019
-15 1 15 0.6400 -0.0001
-15 1 16 -2.9595 0.0022
-15 1 17 -0.3826 0.0017
-15 1 18 2.3778 0.0000
-15 1 19 0.0127 -0.0018
-15 1 20 -1.5708 0.0002
-15 1 21 0.1317 -0.0015
-15 1 22 0.6609 0.0017
-15 1 23 -0.0035 0.0036
-15 1 24 -0.0596 -0.0087
-15 1 25 -0.0679 -0.0028
-15 1 27 -0.0264 0.0042
-15 1 28 0.0918 -0.0088
-15 1 29 0.0517 -0.0091
-15 1 30 0.0927 0.0011
-15 1 31 0.0654 0.0106
-15 1 32 -0.1897 0.0047
-15 1 33 -0.1472 -0.0052
-15 2 1 -1.7964 -0.0064
-15 2 2 2.9493 -0.0017
-15 2 3 1.1117 0.0028
-15 2 4 -2.1219 0.0046
-15 2 5 -0.0084 -0.0036
-15 2 6 0.8455 0.0098
-15 2 7 -0.9411 0.0054
-15 2 8 1.0562 -0.0148
-15 2 9 1.1874 -0.0054
-15 2 10 -2.6403 0.0060
-15 2 11 -0.9196 0.0040
-15 2 12 3.0279 -0.0008
-15 2 13 0.7476 -0.0017
-15 2 14 -2.6104 0.0018
-15 2 15 -0.7492 -0.0001
-15 2 16 2.1819 0.0007
-15 2 17 0.4786 0.0002
-15 2 18 -1.7736 -0.0041
-15 2 19 0.0355 -0.0001
-15 2 20 1.1707 0.0021
-15 2 21 -0.1882 0.0011
-15 2 22 -0.6560 0.0011
-15 2 23 -0.1448 -0.0014
-15 2 24 0.5275 -0.0012
-15 2 25 0.4017 0.0008
-15 2 26 -0.6024 0.0012
-15 2 27 -0.3432 -0.0034
-15 2 28 0.5900 -0.0036
-15 2 29 0.3162 0.0089
-15 2 30 -0.4381 0.0065
-15 2 31 -0.4513 -0.0109
-15 2 32 0.2586 -0.0074
-15 2 33 0.5010 0.0071
-15 3 1 2.0224 -0.0047
-15 3 2 -2.5637 0.0032
-15 3 3 -1.2556 0.0084
-15 3 4 2.1567 -0.0067
-15 3 5 0.1497 -0.0066
-15 3 6 -1.4239 0.0029
-15 3 7 0.7863 0.0031
-15 3 8 0.1561 -0.0002
-15 3 9 -1.0644 -0.0011
-15 3 10 1.1673 0.0000
-15 3 11 0.9330 0.0008
-15 3 12 -1.9038 0.0020
-15 3 13 -0.9829 -0.0025
-15 3 14 2.0043 -0.0026
-15 3 15 1.1694 0.0048
-15 3 16 -1.7583 -0.0017
-15 3 17 -0.9307 -0.0050
-15 3 18 1.2861 0.0054
-15 3 19 0.3288 0.0034
-15 3 20 -0.7634 -0.0034
-15 3 21 -0.1209 -0.0009
-15 3 22 0.5782 -0.0013
-15 3 23 0.5059 -0.0029
-15 3 24 -0.8065 0.0049
-15 3 25 -0.8395 0.0053
-15 3 26 0.9920 -0.0068
-15 3 27 0.7731 -0.0017
-15 3 28 -0.7374 0.0074
-15 3 29 -0.6342 -0.0058
-15 3 30 0.1840 -0.0071
-15 3 31 0.6086 0.0099
-15 3 32 0.2117 0.0060
-15 4 1 -2.0784 0.0056
-15 4 2 1.6499 0.0023
-15 4 3 1.4144 -0.0077
-15 4 4 -1.6517 0.0015
-15 4 5 -0.3893 0.0063
-15 4 6 1.4612 -0.0047
-15 4 7 -0.6370 -0.0043
-15 4 8 -0.8346 0.0036
-15 4 9 1.2929 0.0029
-15 4 10 -0.1411 0.0016
-15 4 11 -1.6484 -0.0026
-15 4 12 0.9954 -0.0068
-15 4 13 1.9405 0.0040
-15 4 14 -1.3011 0.0066
-15 4 15 -2.0227 -0.0052
-15 4 16 1.0078 -0.0018
-15 4 17 1.5530 0.0045
-15 4 18 -0.4315 -0.0026
-15 4 19 -0.7709 -0.0032
-15 4 20 0.0708 0.0044
-15 4 21 0.4042 0.0014
-15 4 22 -0.2485 -0.0041
-15 4 23 -0.6212 0.0027
-15 4 24 0.7380 0.0023
-15 4 25 0.8313 -0.0056
-15 4 26 -0.9201 -0.0010
-15 4 27 -0.6641 0.0016
-15 4 28 0.4670 0.0010
-15 4 29 0.3536 0.0063
-15 4 30 0.2651 0.0000
-15 5 1 1.7674 -0.0015
-15 5 2 -0.4167 -0.0043
-15 5 3 -1.2703 0.0015
-15 5 4 0.8178 0.0007
-15 5 5 0.5198 -0.0006
-15 5 6 -1.2868 0.0035
-15 5 7 0.3687 0.0002
-15 5 8 1.4279 -0.0024
-15 5 9 -1.2958 0.0009
-15 5 10 -0.9683 -0.0032
-15 5 11 2.0596 -0.0021
-15 5 12 0.2054 0.0071
-15 5 13 -2.3504 0.0024
-15 5 14 0.2039 -0.0062
-15 5 15 2.0109 -0.0035
-15 5 16 0.0156 0.0032
-15 5 17 -1.2165 0.0039
-15 5 18 -0.4369 0.0000
-15 5 19 0.4410 0.0006
-15 5 20 0.4285 -0.0044
-15 5 21 -0.1295 -0.0074
-15 5 22 0.1500 0.0082
-15 5 23 0.2529 0.0093
-15 5 24 -0.8047 -0.0096
-15 5 25 -0.3738 -0.0076
-15 5 26 0.9175 0.0104
-15 5 27 0.2204 0.0093
-15 5 28 -0.3816 -0.0107
-15 5 29 0.0918 -0.0125
-15 6 1 -1.2864 -0.0001
-15 6 2 -0.0830 0.0031
-15 6 3 0.8831 0.0023
-15 6 4 -0.5178 -0.0005
-15 6 5 -0.6453 -0.0036
-15 6 6 1.3056 -0.0018
-15 6 7 0.3195 0.0032
-15 6 8 -1.8158 0.0018
-15 6 9 0.5007 -0.0039
-15 6 10 1.6263 -0.0010
-15 6 11 -1.4428 0.0055
-15 6 12 -0.8867 0.0019
-15 6 13 1.6464 -0.0076
-15 6 14 0.3004 -0.0025
-15 6 15 -0.9746 0.0116
-15 6 16 -0.2940 -0.0001
-15 6 17 0.1460 -0.0125
-15 6 18 0.4798 0.0033
-15 6 19 0.2367 0.0022
-15 6 20 -0.2200 -0.0031
-15 6 21 -0.1874 0.0146
-15 6 22 -0.5070 0.0006
-15 6 23 -0.0045 -0.0239
-15 6 24 1.0840 0.0026
-15 6 25 0.1339 0.0232
-15 6 26 -0.9964 -0.0076
-15 6 27 -0.1142 -0.0204
-15 7 1 1.4110 -0.0006
-15 7 2 -0.3825 0.0034
-15 7 3 -0.9680 -0.0034
-15 7 4 0.8829 -0.0034
-15 7 5 1.0820 0.0050
-15 7 6 -1.3626 0.0015
-15 7 7 -1.2038 -0.0034
-15 7 8 1.6151 -0.0008
-15 7 9 0.4635 0.0019
-15 7 10 -1.4020 0.0036
-15 7 11 0.6720 -0.0016
-15 7 12 0.7309 -0.0076
-15 7 13 -0.9325 0.0041
-15 7 14 -0.1123 0.0068
-15 7 15 0.1992 -0.0118
-15 7 16 0.0116 0.0009
-15 7 17 0.4478 0.0175
-15 7 18 -0.1761 -0.0101
-15 7 19 -0.4070 -0.0087
-15 7 20 -0.0067 0.0154
-15 7 21 0.0779 -0.0110
-15 7 22 0.5876 -0.0158
-15 7 23 0.1143 0.0244
-15 7 24 -0.9633 0.0112
-15 8 1 -1.9930 0.0100
-15 8 2 0.7330 -0.0161
-15 8 3 1.4636 -0.0045
-15 8 4 -1.0427 0.0113
-15 8 5 -1.5104 -0.0003
-15 8 6 1.0399 -0.0025
-15 8 7 1.5940 0.0020
-15 8 8 -0.9743 -0.0032
-15 8 9 -0.7459 -0.0024
-15 8 10 0.9103 0.0028
-15 8 11 -0.4978 0.0019
-15 8 12 -0.6179 -0.0003
-15 8 13 0.7634 -0.0035
-15 8 14 0.2129 0.0015
-15 8 15 -0.0194 0.0123
-15 8 16 -0.1239 -0.0075
-15 9 1 1.8983 -0.0295
-15 9 2 -0.5065 0.0198
-15 9 3 -1.3885 0.0212
-15 9 4 0.7073 -0.0121
-15 9 5 1.2466 -0.0088
-15 9 6 -0.4782 0.0015
-15 9 7 -1.1752 -0.0034
-15 9 8 0.3998 0.0056
-15 9 9 0.4268 0.0128
-15 9 10 -0.6941 -0.0079
-15 9 11 0.5086 -0.0160
-15 9 12 0.8495 0.0082
-15 9 13 -0.5450 0.0149
-15 9 14 -0.6147 -0.0090
-15 9 15 -0.1873 -0.0172
-15 10 1 -1.0224 0.0383
-15 10 2 0.3868 -0.0055
-15 10 3 0.6566 -0.0282
-15 10 4 -0.4806 0.0016
-15 10 5 -0.4880 0.0111
-14 0 2 0.2354 -0.0181
-14 0 4 -0.7015 -0.0002
-14 0 6 1.9411 -0.0230
-14 0 8 -4.2871 0.0366
-14 0 10 6.0597 -0.0217
-14 0 12 -5.7021 0.0084
-14 0 14 4.2157 -0.0088
-14 0 16 -3.5906 0.0081
-14 0 18 3.9318 -0.0032
-14 0 20 -3.9548 0.0011
-14 0 22 3.2330 0.0025
-14 0 24 -2.4098 -0.0106
-14 0 28 -2.1796 -0.0120
-14 0 30 2.3776 0.0062
-14 0 34 0.9858 -0.0003
-14 1 1 -0.7874 -0.0121
-14 1 2 0.1596 0.0153
-14 1 3 0.6033 0.0089
-14 1 4 0.1487 0.0021
-14 1 5 -0.1456 -0.0087
-14 1 6 -1.2951 0.0166
-14 1 7 -0.2558 0.0098
-14 1 8 3.5363 -0.0289
-14 1 9 0.2760 -0.0096
-14 1 10 -5.2760 0.0175
-14 1 11 -0.0502 0.0068
-14 1 12 5.0579 -0.0062
-14 1 13 0.0236 -0.0026
-14 1 14 -3.7846 0.0049
-14 1 15 -0.3114 0.0003
-14 1 16 3.2603 -0.0019
-14 1 17 0.5649 -0.0012
-14 1 18 -3.5674 -0.0031
-14 1 19 -0.5938 0.0008
-14 1 20 3.5493 0.0029
-14 1 21 0.6282 0.0037
-14 1 22 -2.8703 -0.0021
-14 1 23 -0.7801 -0.0071
-14 1 24 2.1545 0.0064
-14 1 25 0.8178 0.0053
-14 1 27 -0.6820 -0.0025
-14 1 28 2.0171 0.0084
-14 1 29 0.6268 0.0029
-14 1 30 -2.1523 -0.0034
-14 1 31 -0.6894 -0.0029
-14 1 34 -0.8446 0.0062
-14 2 1 1.4926 0.0103
-14 2 2 -0.9622 -0.0106
-14 2 3 -1.4888 -0.0065
-14 2 4 0.8013 -0.0017
-14 2 5 0.9151 0.0068
-14 2 6 0.2936 -0.0077
-14 2 7 -0.2663 -0.0085
-14 2 8 -2.3360 0.0137
-14 2 9 0.1335 0.0082
-14 2 10 3.9606 -0.0060
-14 2 11 -0.3515 -0.0054
-14 2 12 -4.0070 -0.0006
-14 2 13 0.2243 0.0008
-14 2 14 3.1555 0.0017
-14 2 15 0.3909 0.0034
-14 2 16 -2.7696 -0.0045
-14 2 17 -0.8766 -0.0043
-14 2 18 2.9057 0.0063
-14 2 19 0.9288 0.0035
-14 2 20 -2.7308 -0.0016
-14 2 21 -0.9855 -0.0040
-14 2 22 2.0993 -0.0039
-14 2 23 1.2684 0.0043
-14 2 24 -1.5564 0.0037
-14 2 26 1.3957 -0.0003
-14 2 27 1.1711 0.0020
-14 2 28 -1.4580 -0.0020
-14 2 29 -1.0552 -0.0041
-14 2 30 1.4199 0.0019
-14 2 31 1.1047 0.0040
-14 2 32 -1.0337 0.0014
-14 3 1 -2.0991 -0.0043
-14 3 2 1.3190 0.0092
-14 3 3 2.2854 0.0025
-14 3 4 -1.0565 -0.0010
-14 3 5 -1.6198 -0.0029
-14 3 6 -0.0747 -0.0002
-14 3 7 0.6713 0.0031
-14 3 8 1.7850 0.0009
-14 3 9 -0.2241 -0.0014
-14 3 10 -3.0795 -0.0037
-14 3 11 0.2016 -0.0016
-14 3 12 3.2334 0.0038
-14 3 13 0.1050 0.0055
-14 3 14 -2.6864 -0.0026
-14 3 15 -0.8299 -0.0082
-14 3 16 2.3091 0.0037
-14 3 17 1.3110 0.0063
-14 3 18 -2.1861 -0.0033
-14 3 19 -1.2658 -0.0013
-14 3 20 1.8678 -0.0018
-14 3 21 1.2253 -0.0025
-14 3 22 -1.3358 0.0070
-14 3 23 -1.4439 0.0046
-14 3 24 0.9540 -0.0083
-14 3 25 1.4633 -0.0049
-14 3 26 -0.8221 0.0058
-14 3 27 -1.1221 0.0005
-14 3 28 0.7243 -0.0012
-14 3 29 0.8735 0.0063
-14 3 30 -0.4973 -0.0022
-14 3 31 -0.8390 -0.0081
-14 3 32 0.1906 0.0014
-14 3 33 0.6470 0.0032
-14 4 1 2.2355 0.0011
-14 4 2 -0.8806 -0.0074
-14 4 3 -2.2619 -0.0004
-14 4 4 0.7222 0.0036
-14 4 5 1.3923 -0.0004
-14 4 6 0.0666 0.0017
-14 4 7 -0.2253 0.0023
-14 4 8 -1.0943 -0.0043
-14 4 9 -0.4623 -0.0041
-14 4 10 1.8387 0.0026
-14 4 11 0.6513 0.0050
-14 4 12 -1.9803 0.0007
-14 4 13 -0.8715 -0.0060
-14 4 14 1.6819 -0.0010
-14 4 15 1.2778 0.0053
-14 4 16 -1.3533 -0.0017
-14 4 17 -1.4734 -0.0008
-14 4 18 1.1483 0.0035
-14 4 19 1.3320 -0.0045
-14 4 20 -0.9577 -0.0031
-14 4 21 -1.2480 0.0073
-14 4 22 0.7700 0.0012
-14 4 23 1.3174 -0.0086
-14 4 24 -0.6794 0.0017
-14 4 25 -1.1268 0.0075
-14 4 26 0.6237 -0.0031
-14 4 27 0.6126 -0.0004
-14 4 28 -0.4296 0.0007
-14 4 29 -0.2313 -0.0092
-14 4 30 0.1091 0.0022
-14 4 31 0.1345 0.0118
-14 5 1 -1.6407 0.0014
-14 5 2 0.4235 0.0040
-14 5 3 1.4988 0.0001
-14 5 4 -0.7912 -0.0040
-14 5 5 -0.8243 -0.0006
-14 5 6 0.6932 0.0005
-14 5 7 0.0273 -0.0001
-14 5 8 -0.3787 0.0007
-14 5 9 0.5045 -0.0006
-14 5 10 -0.0139 0.0019
-14 5 11 -0.7214 0.0019
-14 5 12 0.3562 -0.0035
-14 5 13 0.7476 -0.0012
-14 5 14 -0.4811 0.0008
-14 5 15 -0.6927 0.0007
-14 5 16 0.3945 0.0039
-14 5 17 0.6309 -0.0021
-14 5 18 -0.3085 -0.0082
-14 5 19 -0.6787 0.0019
-14 5 20 0.3923 0.0117
-14 5 21 0.8874 0.0006
-14 5 22 -0.6211 -0.0118
-14 5 23 -1.0183 -0.0003
-14 5 24 0.8406 0.0067
-14 5 25 0.7657 -0.0015
-14 5 26 -0.8731 -0.0013
-14 5 27 -0.2510 -0.0025
-14 5 28 0.6424 0.0006
-14 5 29 -0.1173 0.0099
-14 5 30 -0.3015 -0.0015
-14 6 1 1.0959 -0.0016
-14 6 2 -0.6773 -0.0020
-14 6 3 -1.0929 -0.0016
-14 6 4 1.3804 0.0019
-14 6 5 1.1008 0.0037
-14 6 6 -1.5866 0.0001
-14 6 7 -1.0931 -0.0046
-14 6 8 1.4561 -0.0008
-14 6 9 0.7937 0.0070
-14 6 10 -1.0309 -0.0003
-14 6 11 -0.2995 -0.0081
-14 6 12 0.3999 0.0004
-14 6 13 0.1363 0.0048
-14 6 14 0.0950 0.0011
-14 6 15 -0.4023 -0.0010
-14 6 16 -0.2184 -0.0027
-14 6 17 0.5356 -0.0012
-14 6 18 0.1846 0.0054
-14 6 19 -0.1358 0.0058
-14 6 20 -0.3499 -0.0098
-14 6 21 -0.4948 -0.0118
-14 6 22 0.7359 0.0110
-14 6 23 0.7973 0.0109
-14 6 24 -1.0469 -0.0063
-14 6 25 -0.6218 -0.0044
-14 6 26 1.0323 0.0015
-14 6 27 0.2671 0.0030
-14 7 1 -1.4778 -0.0036
-14 7 2 1.0348 0.0005
-14 7 3 1.5462 0.0046
-14 7 4 -1.4854 -0.0004
-14 7 5 -1.9908 -0.0043
-14 7 6 1.4055 0.0008
-14 7 7 2.4352 0.0036
-14 7 8 -1.1170 -0.0013
-14 7 9 -2.0548 -0.0054
-14 7 10 0.7892 0.0020
-14 7 11 1.0509 0.0057
-14 7 12 -0.3566 -0.0029
-14 7 13 -0.5672 -0.0017
-14 7 14 -0.0557 0.0045
-14 7 15 0.9099 -0.0011
-14 7 16 0.1929 -0.0059
-14 7 17 -1.1313 0.0005
-14 7 18 -0.1383 0.0035
-14 7 19 0.5918 -0.0030
-14 7 20 0.2518 0.0020
-14 7 21 0.1972 0.0086
-14 7 22 -0.6172 -0.0047
-14 7 23 -0.5343 -0.0080
-14 7 24 0.8966 0.0021
-14 7 25 0.4292 0.0010
-14 8 1 2.1418 0.0079
-14 8 2 -0.6548 0.0021
-14 8 3 -1.9030 -0.0079
-14 8 4 0.7350 0.0031
-14 8 5 2.1698 0.0065
-14 8 6 -0.3666 -0.0087
-14 8 7 -2.5782 -0.0056
-14 8 8 0.1209 0.0121
-14 8 9 2.1173 0.0072
-14 8 10 -0.3035 -0.0135
-14 8 11 -1.0161 -0.0067
-14 8 12 0.5182 0.0143
-14 8 13 0.5887 0.0018
-14 8 14 -0.4233 -0.0143
-14 8 15 -1.1138 0.0004
-14 8 16 0.2256 0.0110
-14 8 17 1.4665 0.0038
-14 8 18 -0.1444 -0.0034
-14 8 19 -0.9794 -0.0062
-14 9 1 -1.9092 -0.0054
-14 9 2 0.0208 -0.0024
-14 9 3 1.3460 0.0108
-14 9 4 -0.0334 -0.0059
-14 9 5 -1.2882 -0.0149
-14 9 6 -0.3476 0.0126
-14 9 7 1.6054 0.0182
-14 9 8 0.4277 -0.0162
-14 9 9 -1.4021 -0.0208
-14 9 10 0.1633 0.0185
-14 9 11 0.7866 0.0173
-14 9 12 -0.7745 -0.0201
-14 9 13 -0.7453 -0.0061
-14 9 14 0.7480 0.0178
-14 9 15 1.3459 -0.0025
-14 10 1 1.0246 0.0022
-14 10 2 0.0168 -0.0013
-14 10 3 -0.4744 -0.0122
-14 10 4 0.0324 0.0040
-14 10 5 0.3089 0.0201
-14 10 6 0.3379 -0.0036
-14 10 7 -0.5719 -0.0256
-14 10 8 -0.4533 0.0033
-14 10 9 0.6432 0.0283
-13 0 2 0.9032 -0.0526
-13 0 4 -2.5150 0.0697
-13 0 6 2.8064 -0.0284
-13 0 8 -1.1479 -0.0138
-13 0 10 -0.9378 0.0229
-13 0 12 1.6159 -0.0197
-13 0 14 -1.4708 0.0184
-13 0 16 2.3104 -0.0111
-13 0 18 -4.0586 0.0020
-13 0 20 5.1088 -0.0025
-13 0 22 -4.9577 0.0064
-13 0 24 4.4606 -0.0041
-13 0 28 3.9391 0.0038
-13 0 30 -3.3151 -0.0063
-13 0 34 -0.4415 -0.0042
-13 1 1 0.2612 -0.0053
-13 1 2 -1.1821 0.0347
-13 1 3 -0.4416 0.0090
-13 1 4 2.5898 -0.0507
-13 1 5 0.4639 -0.0064
-13 1 6 -2.6529 0.0188
-13 1 7 -0.4322 0.0010
-13 1 8 0.9748 0.0132
-13 1 9 0.4750 0.0026
-13 1 10 0.9725 -0.0168
-13 1 11 -0.4496 -0.0032
-13 1 12 -1.5542 0.0105
-13 1 13 0.0601 0.0019
-13 1 14 1.3756 -0.0075
-13 1 15 0.6429 -0.0019
-13 1 16 -2.1025 0.0009
-13 1 17 -1.1939 0.0047
-13 1 18 3.6209 0.0055
-13 1 19 1.3569 -0.0064
-13 1 20 -4.4412 -0.0023
-13 1 21 -1.4223 0.0035
-13 1 22 4.1641 -0.0037
-13 1 23 1.5938 -0.0001
-13 1 24 -3.6610 0.0028
-13 1 25 -1.6213 0.0012
-13 1 27 1.3513 -0.0030
-13 1 28 -3.3258 -0.0043
-13 1 29 -1.0407 0.0005
-13 1 30 2.8003 0.0033
-13 1 31 0.8314 0.0026
-13 1 32 -1.6575 0.0012
-13 1 34 0.2434 -0.0075
-13 1 35 0.1274 -0.0028
-13 2 1 -0.8941 -0.0012
-13 2 2 1.4981 -0.0091
-13 2 3 1.4208 -0.0036
-13 2 4 -2.2098 0.0229
-13 2 5 -1.3674 0.0020
-13 2 6 1.6990 -0.0090
-13 2 7 1.0642 0.0019
-13 2 8 -0.0812 -0.0048
-13 2 9 -0.9504 -0.0034
-13 2 10 -1.4165 0.0030
-13 2 11 0.8764 0.0020
-13 2 12 1.7263 0.0014
-13 2 13 -0.2858 0.0012
-13 2 14 -1.4805 -0.0018
-13 2 15 -0.8235 -0.0037
-13 2 16 1.9337 0.0041
-13 2 17 1.7022 0.0022
-13 2 18 -2.8623 -0.0054
-13 2 19 -1.9502 0.0013
-13 2 20 3.0811 0.0001
-13 2 21 2.0506 -0.0022
-13 2 22 -2.4483 0.0051
-13 2 23 -2.3416 0.0012
-13 2 24 1.8706 -0.0031
-13 2 27 -1.9579 0.0028
-13 2 28 1.9038 0.0061
-13 2 29 1.4563 -0.0009
-13 2 30 -1.6242 -0.0040
-13 2 31 -1.1287 0.0003
-13 2 32 0.8224 -0.0041
-13 2 34 0.1158 0.0131
-13 3 1 1.6123 0.0073
-13 3 2 -1.1058 -0.0045
-13 3 3 -2.1967 -0.0030
-13 3 4 0.9366 -0.0066
-13 3 5 1.7654 0.0017
-13 3 6 -0.0040 0.0079
-13 3 7 -0.9731 -0.0008
-13 3 8 -1.1828 -0.0069
-13 3 9 0.6126 -0.0015
-13 3 10 1.9278 0.0073
-13 3 11 -0.5719 0.0040
-13 3 12 -1.9173 -0.0047
-13 3 13 0.0869 -0.0062
-13 3 14 1.7138 0.0009
-13 3 15 0.9882 0.0066
-13 3 16 -1.9639 -0.0003
-13 3 17 -1.8608 -0.0026
-13 3 18 2.3048 -0.0003
-13 3 19 2.0561 -0.0031
-13 3 20 -1.9447 0.0039
-13 3 21 -2.0674 0.0046
-13 3 22 1.0108 -0.0061
-13 3 23 2.2532 -0.0025
-13 3 24 -0.3830 0.0036
-13 3 25 -2.1760 0.0008
-13 3 26 0.4428 0.0014
-13 3 27 1.6181 0.0010
-13 3 28 -0.7341 -0.0054
-13 3 29 -1.0862 -0.0028
-13 3 30 0.6904 0.0045
-13 3 31 0.8090 0.0003
-13 3 32 -0.2448 0.0031
-13 4 1 -1.5754 -0.0042
-13 4 2 0.3481 0.0077
-13 4 3 1.8254 0.0008
-13 4 4 0.1477 -0.0024
-13 4 5 -1.0715 0.0018
-13 4 6 -0.9030 -0.0048
-13 4 7 0.1401 -0.0045
-13 4 8 1.3401 0.0088
-13 4 9 0.1492 0.0060
-13 4 10 -1.3731 -0.0071
-13 4 11 0.0071 -0.0055
-13 4 12 1.2697 0.0018
-13 4 13 0.2102 0.0048
-13 4 14 -1.3395 0.0009
-13 4 15 -1.0239 -0.0030
-13 4 16 1.6047 -0.0001
-13 4 17 1.7846 -0.0022
-13 4 18 -1.6580 0.0002
-13 4 19 -2.0294 0.0066
-13 4 20 1.1359 -0.0026
-13 4 21 2.0394 -0.0053
-13 4 22 -0.3303 0.0047
-13 4 23 -2.0199 0.0011
-13 4 24 -0.0688 -0.0055
-13 4 25 1.6777 0.0014
-13 4 26 -0.1629 0.0037
-13 4 27 -1.0185 -0.0035
-13 4 28 0.5501 0.0011
-13 4 29 0.5594 0.0051
-13 4 30 -0.5788 -0.0037
-13 4 31 -0.4196 -0.0011
-13 4 32 0.2876 -0.0002
-13 5 1 0.7174 -0.0018
-13 5 2 -0.3023 -0.0075
-13 5 3 -0.8418 0.0011
-13 5 4 0.0419 0.0077
-13 5 5 0.3918 -0.0011
-13 5 6 0.3506 -0.0012
-13 5 7 -0.0110 0.0023
-13 5 8 -0.3719 -0.0038
-13 5 9 0.0966 -0.0022
-13 5 10 0.2373 0.0031
-13 5 11 -0.3245 0.0016
-13 5 12 -0.3739 -0.0014
-13 5 13 0.1749 -0.0029
-13 5 14 0.7562 0.0032
-13 5 15 0.4303 0.0031
-13 5 16 -1.0089 -0.0061
-13 5 17 -1.1441 0.0011
-13 5 18 0.8721 0.0056
-13 5 19 1.6883 -0.0045
-13 5 20 -0.4240 -0.0021
-13 5 21 -2.0114 0.0025
-13 5 22 0.0299 -0.0029
-13 5 23 1.9904 0.0002
-13 5 24 -0.0587 0.0080
-13 5 25 -1.5002 0.0001
-13 5 26 0.4863 -0.0080
-13 5 27 0.8399 0.0009
-13 5 28 -0.8607 0.0008
-13 5 29 -0.4867 -0.0033
-13 5 30 0.8256 0.0057
-13 5 31 0.4171 0.0007
-13 6 1 -0.2114 0.0036
-13 6 2 0.9784 0.0027
-13 6 3 0.5515 0.0003
-13 6 4 -0.8402 -0.0037
-13 6 5 -0.7102 -0.0024
-13 6 6 0.4144 0.0000
-13 6 7 0.9572 0.0021
-13 6 8 -0.2158 0.0024
-13 6 9 -1.1208 -0.0020
-13 6 10 0.1209 -0.0013
-13 6 11 0.9281 -0.0002
-13 6 12 0.2089 0.0012
-13 6 13 -0.5366 0.0059
-13 6 14 -0.6163 -0.0047
-13 6 15 0.1806 -0.0085
-13 6 16 0.6571 0.0080
-13 6 17 0.2686 0.0029
-13 6 18 -0.2658 -0.0079
-13 6 19 -0.9647 0.0035
-13 6 20 -0.1722 0.0048
-13 6 21 1.6134 -0.0041
-13 6 22 0.2644 0.0015
-13 6 23 -1.7279 0.0035
-13 6 24 0.0662 -0.0082
-13 6 25 1.2799 -0.0046
-13 6 26 -0.5567 0.0076
-13 6 27 -0.7658 0.0023
-13 6 28 0.8192 0.0022
-13 7 1 0.6671 -0.0023
-13 7 2 -1.1656 0.0009
-13 7 3 -1.0204 0.0018
-13 7 4 0.9326 -0.0010
-13 7 5 1.3871 -0.0021
-13 7 6 -0.3628 0.0013
-13 7 7 -1.7874 0.0023
-13 7 8 0.0245 0.0003
-13 7 9 1.6326 -0.0011
-13 7 10 0.0009 -0.0032
-13 7 11 -0.8285 0.0023
-13 7 12 -0.0754 0.0035
-13 7 13 0.2212 -0.0077
-13 7 14 0.2704 0.0008
-13 7 15 -0.2942 0.0082
-13 7 16 -0.2494 -0.0066
-13 7 17 0.4117 0.0021
-13 7 18 -0.1069 0.0103
-13 7 19 0.0570 -0.0133
-13 7 20 0.4402 -0.0093
-13 7 21 -0.7275 0.0155
-13 7 22 -0.3772 0.0021
-13 7 23 0.8931 -0.0125
-13 7 24 -0.0288 0.0065
-13 7 25 -0.5729 0.0090
-13 7 26 0.4051 -0.0065
-13 8 1 -1.1447 -0.0029
-13 8 2 0.4385 0.0032
-13 8 3 1.1774 -0.0013
-13 8 4 -0.2785 -0.0048
-13 8 5 -1.4194 0.0054
-13 8 6 -0.1400 0.0069
-13 8 7 1.8353 -0.0065
-13 8 8 0.2553 -0.0091
-13 8 9 -1.5984 0.0036
-13 8 10 0.1588 0.0104
-13 8 11 0.6562 -0.0026
-13 8 12 -0.5658 -0.0077
-13 8 13 -0.1201 0.0063
-13 8 14 0.4915 -0.0008
-13 8 15 0.5126 -0.0044
-13 8 16 -0.1936 0.0124
-13 8 17 -0.9619 -0.0099
-13 8 18 0.1226 -0.0208
-13 8 19 0.6963 0.0255
-13 8 20 -0.2055 0.0198
-13 8 21 -0.1438 -0.0289
-13 8 22 0.0885 -0.0085
-13 9 1 0.8952 0.0115
-13 9 2 0.2373 -0.0057
-13 9 3 -0.6635 -0.0079
-13 9 4 -0.2028 0.0086
-13 9 5 0.8317 0.0022
-13 9 6 0.4606 -0.0106
-13 9 7 -1.3904 0.0012
-13 9 8 -0.4636 0.0115
-13 9 9 1.4555 -0.0006
-13 9 17 1.1000 0.0060
-13 9 18 0.2802 0.0303
-13 10 1 -0.4500 -0.0127
-13 10 2 -0.2310 -0.0008
-13 10 3 0.1600 0.0118
-13 10 4 0.1294 0.0006
-13 10 5 -0.2497 -0.0063
-13 10 6 -0.4320 -0.0004
-13 10 7 0.7532 0.0012
-13 10 8 0.6019 -0.0014
-13 10 9 -0.9773 0.0003
-13 10 10 -0.1533 0.0056
-13 10 11 0.7210 -0.0036
-12 0 2 -8.4910 0.0829
-12 0 4 10.8413 -0.0786
-12 0 6 -11.1991 0.0210
-12 0 8 8.9409 0.0306
-12 0 10 -5.4637 -0.0379
-12 0 12 3.0969 0.0237
-12 0 14 -2.0861 -0.0105
-12 0 16 0.8141 -0.0029
-12 0 18 1.1066 0.0093
-12 0 20 -2.4262 0.0010
-12 0 22 2.6281 -0.0152
-12 0 24 -2.3870 0.0164
-12 0 28 -1.5097 -0.0011
-12 0 30 0.8328 0.0073
-12 0 34 -0.2417 0.0023
-12 1 1 0.2934 0.0176
-12 1 2 7.9727 -0.0558
-12 1 3 0.3056 -0.0175
-12 1 4 -9.9562 0.0540
-12 1 5 -0.7436 0.0106
-12 1 6 10.1396 -0.0106
-12 1 7 0.8212 -0.0032
-12 1 8 -8.0855 -0.0262
-12 1 9 -0.5792 -0.0000
-12 1 10 5.0334 0.0267
-12 1 11 0.1156 0.0005
-12 1 12 -2.9803 -0.0124
-12 1 13 0.5138 -0.0007
-12 1 14 2.0744 0.0025
-12 1 15 -1.1137 0.0025
-12 1 16 -0.8741 0.0062
-12 1 17 1.3306 -0.0066
-12 1 18 -0.8832 -0.0095
-12 1 19 -1.1202 0.0096
-12 1 20 2.0140 -0.0002
-12 1 21 0.9144 -0.0071
-12 1 22 -2.1078 0.0120
-12 1 23 -0.9578 0.0019
-12 1 24 1.8811 -0.0123
-12 1 25 0.9111 0.0004
-12 1 27 -0.5079 -0.0009
-12 1 28 1.3015 0.0013
-12 1 29 0.0503 0.0035
-12 1 30 -0.7418 -0.0029
-12 1 31 0.1623 -0.0054
-12 1 32 0.1890 -0.0003
-12 1 33 -0.2919 0.0019
-12 1 34 0.2355 0.0060
-12 1 35 0.4743 0.0032
-12 2 1 -0.0920 -0.0072
-12 2 2 -6.3331 0.0197
-12 2 3 -0.8516 0.0087
-12 2 4 7.3727 -0.0223
-12 2 5 1.3237 -0.0036
-12 2 6 -7.1979 0.0017
-12 2 7 -1.2469 -0.0014
-12 2 8 5.7221 0.0141
-12 2 9 0.8895 0.0017
-12 2 10 -3.7089 -0.0102
-12 2 11 -0.3703 -0.0000
-12 2 12 2.3377 0.0021
-12 2 13 -0.4400 -0.0010
-12 2 14 -1.6082 0.0009
-12 2 15 1.3803 0.0005
-12 2 16 0.5994 -0.0044
-12 2 17 -1.8441 0.0030
-12 2 18 0.6546 0.0060
-12 2 19 1.6424 -0.0074
-12 2 20 -1.2114 -0.0003
-12 2 21 -1.4121 0.0075
-12 2 22 0.9700 -0.0053
-12 2 23 1.5422 -0.0037
-12 2 24 -0.7450 0.0032
-12 2 27 0.8472 -0.0011
-12 2 28 -0.8725 -0.0031
-12 2 29 -0.1404 -0.0004
-12 2 30 0.5845 -0.0004
-12 2 31 -0.1537 0.0008
-12 2 32 -0.1294 0.0073
-12 2 33 0.3303 0.0034
-12 2 34 -0.2172 -0.0124
-12 2 35 -0.6090 -0.0079
-12 3 1 -0.3898 -0.0047
-12 3 2 3.9271 -0.0038
-12 3 3 1.1138 0.0013
-12 3 4 -4.0700 0.0064
-12 3 5 -1.1295 -0.0017
-12 3 6 3.7928 -0.0014
-12 3 7 0.7212 0.0012
-12 3 8 -3.1717 -0.0024
-12 3 9 -0.4348 0.0016
-12 3 10 2.2767 0.0013
-12 3 11 0.2670 -0.0031
-12 3 12 -1.4038 -0.0018
-12 3 13 0.2811 0.0027
-12 3 14 0.6082 0.0031
-12 3 15 -1.2433 -0.0013
-12 3 16 0.2587 -0.0005
-12 3 17 1.8851 -0.0021
-12 3 18 -0.8669 -0.0021
-12 3 19 -1.8206 0.0054
-12 3 20 0.7051 0.0008
-12 3 21 1.6418 -0.0037
-12 3 22 -0.0807 -0.0002
-12 3 23 -1.7712 -0.0010
-12 3 24 -0.1432 0.0025
-12 3 25 1.6760 0.0022
-12 3 26 -0.2425 -0.0040
-12 3 27 -0.9983 0.0001
-12 3 28 0.6358 0.0023
-12 3 29 0.3303 -0.0018
-12 3 30 -0.5438 0.0025
-12 3 31 -0.1114 0.0042
-12 3 32 0.0981 -0.0096
-12 3 34 0.2374 0.0127
-12 4 1 0.6154 0.0005
-12 4 2 -1.8043 -0.0026
-12 4 3 -0.9035 0.0018
-12 4 4 1.6747 0.0020
-12 4 5 0.5448 -0.0016
-12 4 6 -1.7110 0.0009
-12 4 7 -0.0542 0.0023
-12 4 8 1.9282 -0.0031
-12 4 9 0.0004 -0.0033
-12 4 10 -1.7881 0.0015
-12 4 11 -0.1482 0.0023
-12 4 12 1.0073 0.0029
-12 4 13 -0.2195 -0.0012
-12 4 14 0.0872 -0.0043
-12 4 15 1.1919 0.0009
-12 4 16 -0.9167 0.0021
-12 4 17 -2.0038 0.0007
-12 4 18 1.0381 -0.0012
-12 4 19 2.1675 -0.0013
-12 4 20 -0.4534 0.0024
-12 4 21 -2.0852 -0.0027
-12 4 22 -0.2334 -0.0020
-12 4 23 2.0908 0.0070
-12 4 24 0.3065 0.0002
-12 4 25 -1.8311 -0.0046
-12 4 26 0.2557 0.0010
-12 4 27 1.1702 -0.0015
-12 4 28 -0.7551 -0.0015
-12 4 29 -0.6477 0.0049
-12 4 30 0.6332 -0.0006
-12 4 31 0.4941 -0.0069
-12 5 1 -0.4949 0.0038
-12 5 2 0.6290 0.0091
-12 5 3 0.7087 -0.0030
-12 5 4 -0.5242 -0.0084
-12 5 5 -0.4938 0.0017
-12 5 6 0.7689 0.0012
-12 5 7 0.3279 -0.0025
-12 5 8 -1.3602 0.0044
-12 5 9 -0.4934 0.0032
-12 5 10 1.5415 -0.0034
-12 5 11 0.5635 -0.0027
-12 5 12 -0.8299 0.0001
-12 5 13 -0.0050 0.0035
-12 5 14 -0.2500 0.0005
-12 5 15 -1.0555 -0.0043
-12 5 16 0.8030 -0.0006
-12 5 17 1.9843 0.0017
-12 5 18 -0.5331 0.0042
-12 5 19 -2.4468 -0.0000
-12 5 20 -0.1233 -0.0079
-12 5 21 2.6141 0.0038
-12 5 22 0.4982 0.0077
-12 5 23 -2.5561 -0.0067
-12 5 24 -0.2239 -0.0045
-12 5 25 2.0978 0.0020
-12 5 26 -0.4621 -0.0007
-12 5 27 -1.4078 0.0047
-12 5 28 0.8959 0.0065
-12 5 29 0.9533 -0.0065
-12 5 30 -0.6755 -0.0068
-12 5 31 -0.7449 0.0061
-12 6 1 0.3800 -0.0010
-12 6 2 -0.1692 -0.0053
-12 6 3 -0.6265 -0.0013
-12 6 4 -0.0907 0.0040
-12 6 5 0.6034 0.0016
-12 6 6 0.0639 0.0014
-12 6 7 -0.7106 0.0011
-12 6 8 0.3779 -0.0045
-12 6 9 0.8669 -0.0033
-12 6 10 -0.6609 0.0027
-12 6 11 -0.6003 0.0045
-12 6 12 0.3163 -0.0007
-12 6 13 -0.1353 -0.0069
-12 6 14 0.2374 0.0014
-12 6 15 0.9156 0.0062
-12 6 16 -0.2447 -0.0003
-12 6 17 -1.5033 0.0009
-12 6 18 -0.3704 -0.0050
-12 6 19 2.0174 -0.0063
-12 6 20 0.9780 0.0095
-12 6 21 -2.4478 0.0027
-12 6 22 -0.9997 -0.0092
-12 6 23 2.4698 0.0024
-12 6 24 0.4043 0.0045
-12 6 25 -1.9581 -0.0006
-12 6 26 0.3494 0.0048
-12 6 27 1.3157 -0.0033
-12 6 28 -0.7010 -0.0149
-12 6 29 -0.9403 0.0038
-12 7 1 -0.4600 0.0032
-12 7 2 -0.0371 -0.0044
-12 7 3 0.4464 -0.0024
-12 7 4 0.3141 0.0052
-12 7 5 -0.2714 0.0027
-12 7 6 -0.4709 -0.0057
-12 7 7 0.3515 -0.0038
-12 7 8 0.2646 0.0040
-12 7 9 -0.3220 0.0026
-12 7 10 0.0896 -0.0011
-12 7 11 -0.2397 -0.0010
-12 7 12 -0.1840 0.0009
-12 7 13 0.8802 0.0017
-12 7 14 0.0951 -0.0038
-12 7 15 -0.9804 0.0012
-12 7 16 -0.2897 0.0045
-12 7 17 0.8054 -0.0116
-12 7 18 0.8651 -0.0001
-12 7 19 -0.9922 0.0187
-12 7 20 -1.3303 -0.0054
-12 7 21 1.4449 -0.0126
-12 7 22 1.2028 0.0081
-12 7 23 -1.5309 0.0013
-12 7 24 -0.5516 -0.0050
-12 7 25 1.1133 0.0035
-12 7 26 -0.1055 -0.0060
-12 7 27 -0.6696 -0.0030
-12 8 1 0.5258 -0.0069
-12 8 2 0.2236 0.0051
-12 8 3 -0.3166 0.0096
-12 8 4 -0.1661 -0.0053
-12 8 5 0.0627 -0.0112
-12 8 6 0.2184 0.0044
-12 8 7 -0.1569 0.0096
-12 8 8 -0.1061 -0.0035
-12 8 9 0.0263 -0.0029
-12 8 10 -0.3211 0.0039
-12 8 11 0.7057 -0.0037
-12 8 12 0.6985 -0.0071
-12 8 13 -1.2832 0.0060
-12 8 14 -0.6998 0.0125
-12 8 15 0.9946 -0.0103
-12 8 16 0.5710 -0.0148
-12 8 17 -0.3578 0.0221
-12 8 18 -0.6905 0.0101
-12 8 19 0.2203 -0.0303
-12 8 20 0.9203 -0.0004
-12 8 21 -0.4677 0.0227
-12 8 22 -0.8191 -0.0082
-12 8 23 0.4628 -0.0060
-12 9 1 -0.3979 0.0023
-12 9 2 -0.3814 -0.0040
-12 9 3 0.3041 -0.0078
-12 9 4 0.1264 0.0018
-12 9 5 -0.2500 0.0129
-12 9 6 -0.1704 -0.0006
-12 9 7 0.5114 -0.0132
-12 9 8 0.1882 0.0024
-12 9 9 -0.4367 0.0061
-12 9 10 0.2743 -0.0063
-12 9 11 -0.3094 0.0024
-12 9 12 -0.8738 0.0118
-12 9 13 0.9500 -0.0060
-12 9 14 0.9410 -0.0188
-12 9 15 -0.8063 0.0105
-12 9 16 -0.5413 0.0228
-12 9 17 0.3049 -0.0233
-12 9 18 0.2955 -0.0179
-12 9 19 -0.0971 0.0344
-12 10 1 0.2465 0.0002
-12 10 2 0.3513 0.0121
-12 10 3 -0.2175 0.0038
-12 10 4 -0.1972 -0.0057
-12 10 5 0.2507 -0.0095
-12 10 6 0.4037 0.0012
-12 10 7 -0.5243 0.0117
-12 10 8 -0.5993 -0.0013
-12 10 9 0.5170 -0.0062
-12 10 10 0.1902 0.0036
-12 10 11 0.0204 -0.0015
-12 10 12 0.5150 -0.0075
-12 10 13 -0.5400 0.0038
-11 0 2 14.0801 -0.0275
-11 0 4 -15.2845 0.0260
-11 0 6 14.6020 0.0134
-11 0 8 -11.5389 -0.0415
-11 0 10 7.3331 0.0262
-11 0 12 -4.6056 0.0029
-11 0 14 4.0759 -0.0179
-11 0 16 -3.8162 0.0224
-11 0 18 2.5611 -0.0165
-11 0 20 -1.2558 -0.0037
-11 0 22 0.8612 0.0220
-11 0 24 -1.0731 -0.0209
-11 0 26 1.4077 0.0084
-11 0 28 -1.6043 0.0007
-11 0 30 1.2243 -0.0044
-11 0 34 -0.5199 0.0015
-11 1 1 0.3090 -0.0067
-11 1 2 -12.9758 0.0107
-11 1 3 -1.0946 0.0032
-11 1 4 14.0988 -0.0129
-11 1 5 1.3672 0.0020
-11 1 6 -13.6026 -0.0142
-11 1 7 -0.9359 -0.0032
-11 1 8 11.0201 0.0326
-11 1 9 0.0633 -0.0010
-11 1 10 -7.3548 -0.0174
-11 1 11 0.8016 0.0050
-11 1 12 4.8776 -0.0051
-11 1 13 -1.3560 -0.0054
-11 1 14 -4.2360 0.0134
-11 1 15 1.4674 0.0027
-11 1 16 3.7621 -0.0143
-11 1 17 -1.0629 0.0018
-11 1 18 -2.4149 0.0099
-11 1 19 0.3258 -0.0048
-11 1 20 1.1202 0.0046
-11 1 21 0.2326 0.0026
-11 1 22 -0.7299 -0.0174
-11 1 23 -0.3637 0.0024
-11 1 24 0.8884 0.0152
-11 1 25 0.4537 -0.0040
-11 1 27 -0.8407 0.0021
-11 1 28 1.2026 -0.0016
-11 1 29 1.2060 -0.0012
-11 1 30 -0.8260 0.0036
-11 1 31 -1.1647 0.0014
-11 1 32 -0.0175 -0.0022
-11 1 33 0.9223 0.0006
-11 1 34 0.6722 -0.0012
-11 1 35 -0.8075 -0.0027
-11 2 1 -0.5462 -0.0023
-11 2 2 10.0081 0.0062
-11 2 3 1.7913 0.0035
-11 2 4 -10.8931 -0.0016
-11 2 5 -2.1982 -0.0063
-11 2 6 10.8128 0.0128
-11 2 7 1.5613 0.0050
-11 2 8 -9.3468 -0.0187
-11 2 9 -0.3663 0.0010
-11 2 10 6.9355 0.0069
-11 2 11 -0.7764 -0.0048
-11 2 12 -5.0315 0.0045
-11 2 13 1.6006 0.0036
-11 2 14 4.1678 -0.0058
-11 2 15 -1.9858 -0.0005
-11 2 16 -3.3367 0.0059
-11 2 17 1.6772 -0.0029
-11 2 18 1.9742 -0.0055
-11 2 19 -0.7680 0.0057
-11 2 20 -0.8450 -0.0011
-11 2 21 0.0052 -0.0044
-11 2 22 0.4954 0.0072
-11 2 23 0.1702 -0.0004
-11 2 24 -0.4966 -0.0056
-11 2 25 -0.3231 0.0026
-11 2 27 0.9447 -0.0010
-11 2 28 -0.2972 -0.0002
-11 2 29 -1.4830 0.0003
-11 2 30 0.0054 0.0002
-11 2 31 1.3449 -0.0007
-11 2 32 0.4503 -0.0004
-11 2 33 -0.9298 -0.0010
-11 2 34 -0.7553 -0.0001
-11 2 35 0.7847 0.0029
-11 3 1 0.5924 0.0095
-11 3 2 -6.4959 -0.0077
-11 3 3 -1.7155 -0.0074
-11 3 4 7.1761 0.0090
-11 3 5 1.9734 0.0068
-11 3 6 -7.5333 -0.0125
-11 3 7 -1.3115 -0.0033
-11 3 8 7.1636 0.0113
-11 3 9 0.3617 -0.0020
-11 3 10 -5.9194 -0.0040
-11 3 11 0.4187 0.0031
-11 3 12 4.4492 0.0002
-11 3 13 -1.1174 0.0000
-11 3 14 -3.3209 -0.0000
-11 3 15 1.7607 -0.0021
-11 3 16 2.3375 -0.0027
-11 3 17 -1.8800 0.0030
-11 3 18 -1.3227 0.0053
-11 3 19 1.2947 -0.0037
-11 3 20 0.6283 -0.0032
-11 3 21 -0.6972 0.0015
-11 3 22 -0.3872 0.0006
-11 3 23 0.5933 0.0023
-11 3 24 0.2032 -0.0003
-11 3 25 -0.4399 -0.0018
-11 3 26 0.1380 -0.0009
-11 3 27 -0.2160 -0.0022
-11 3 28 -0.4127 0.0029
-11 3 29 0.7434 0.0031
-11 3 30 0.4563 -0.0026
-11 3 31 -0.5713 -0.0007
-11 3 32 -0.3584 0.0005
-11 3 33 0.2046 -0.0002
-11 3 34 0.2488 0.0032
-11 4 1 -0.8775 -0.0022
-11 4 2 3.7308 0.0052
-11 4 3 1.5762 0.0029
-11 4 4 -4.4670 -0.0100
-11 4 5 -1.5292 -0.0049
-11 4 6 5.2261 0.0092
-11 4 7 0.8629 0.0038
-11 4 8 -5.5934 -0.0047
-11 4 9 -0.2436 -0.0011
-11 4 10 5.0208 0.0016
-11 4 11 -0.1362 0.0015
-11 4 12 -3.6525 -0.0024
-11 4 13 0.6744 -0.0027
-11 4 14 2.2478 0.0024
-11 4 15 -1.4730 0.0011
-11 4 16 -1.3104 0.0007
-11 4 17 1.9558 0.0005
-11 4 18 0.8248 -0.0026
-11 4 19 -1.7942 -0.0007
-11 4 20 -0.6127 0.0023
-11 4 21 1.5108 0.0022
-11 4 22 0.4592 -0.0031
-11 4 23 -1.5021 -0.0032
-11 4 24 -0.1391 0.0037
-11 4 25 1.3160 -0.0012
-11 4 26 -0.3102 -0.0014
-11 4 27 -0.6665 0.0064
-11 4 28 0.5329 -0.0010
-11 4 30 -0.2832 0.0010
-11 4 31 -0.1759 -0.0023
-11 4 32 -0.2244 0.0001
-11 4 33 0.2702 0.0068
-11 5 1 1.5233 -0.0035
-11 5 2 -1.4901 -0.0070
-11 5 3 -1.9270 0.0009
-11 5 4 2.3459 0.0077
-11 5 5 1.6970 0.0022
-11 5 6 -3.4032 -0.0021
-11 5 7 -1.0989 -0.0017
-11 5 8 4.2505 -0.0034
-11 5 9 0.6622 0.0005
-11 5 10 -4.1612 0.0027
-11 5 11 -0.3239 -0.0016
-11 5 12 3.0150 0.0016
-11 5 13 -0.3204 0.0011
-11 5 14 -1.6633 -0.0035
-11 5 15 1.2145 0.0019
-11 5 16 0.9624 0.0031
-11 5 17 -1.8340 -0.0028
-11 5 18 -0.9007 -0.0031
-11 5 19 1.9948 0.0019
-11 5 20 0.9331 0.0011
-11 5 21 -2.0558 -0.0032
-11 5 22 -0.7075 0.0045
-11 5 23 2.1216 0.0033
-11 5 24 0.2407 -0.0083
-11 5 25 -1.8015 0.0025
-11 5 26 0.2270 0.0070
-11 5 27 1.0703 -0.0073
-11 5 28 -0.3576 -0.0039
-11 5 29 -0.4957 0.0026
-11 5 30 -0.0048 0.0004
-11 6 1 -1.6258 -0.0005
-11 6 2 -0.4880 0.0050
-11 6 3 1.7443 0.0011
-11 6 4 -0.2754 -0.0024
-11 6 5 -1.4519 -0.0009
-11 6 6 1.3616 -0.0028
-11 6 7 1.1332 -0.0017
-11 6 8 -2.4227 0.0054
-11 6 9 -0.9774 0.0022
-11 6 10 2.8029 -0.0021
-11 6 11 0.6279 0.0001
-11 6 12 -2.2619 -0.0031
-11 6 13 0.1050 0.0001
-11 6 14 1.4560 0.0056
-11 6 15 -0.8566 -0.0025
-11 6 16 -1.1677 -0.0066
-11 6 17 1.2983 0.0018
-11 6 18 1.3616 0.0072
-11 6 19 -1.6101 -0.0007
-11 6 20 -1.4358 -0.0032
-11 6 21 2.0105 0.0039
-11 6 22 1.0722 -0.0052
-11 6 23 -2.1977 -0.0056
-11 6 24 -0.4574 0.0109
-11 6 25 1.7799 -0.0005
-11 6 26 -0.0498 -0.0111
-11 6 27 -1.0026 0.0067
-11 6 28 0.1762 0.0079
-11 6 29 0.4346 -0.0037
-11 6 30 0.0882 -0.0009
-11 7 1 0.9841 0.0021
-11 7 2 1.3061 0.0029
-11 7 3 -0.7019 -0.0024
-11 7 4 -0.6816 -0.0044
-11 7 5 0.3272 0.0014
-11 7 6 -0.1402 0.0054
-11 7 7 -0.3453 0.0004
-11 7 8 0.9595 -0.0045
-11 7 9 0.5341 0.0015
-11 7 10 -1.4834 0.0008
-11 7 11 -0.2649 -0.0054
-11 7 12 1.5188 0.0033
-11 7 13 -0.3719 0.0046
-11 7 14 -1.3190 -0.0058
-11 7 15 0.7194 -0.0007
-11 7 16 1.3265 0.0082
-11 7 17 -0.7046 0.0004
-11 7 18 -1.5697 -0.0096
-11 7 19 0.9020 -0.0004
-11 7 20 1.6541 0.0060
-11 7 21 -1.4435 -0.0046
-11 7 22 -1.3120 0.0021
-11 7 23 1.7112 0.0075
-11 7 24 0.7003 -0.0091
-11 7 25 -1.3114 -0.0009
-11 7 26 -0.1994 0.0127
-11 7 27 0.6452 -0.0081
-11 7 28 0.0622 -0.0126
-11 8 1 -0.6162 0.0015
-11 8 2 -0.9783 -0.0070
-11 8 3 0.1947 -0.0004
-11 8 4 0.3866 0.0068
-11 8 5 0.2109 0.0004
-11 8 6 0.0782 -0.0066
-11 8 7 -0.0782 0.0004
-11 8 8 -0.4057 0.0069
-11 8 9 -0.1260 -0.0059
-11 8 10 0.8034 -0.0056
-11 8 11 -0.2852 0.0122
-11 8 12 -1.1986 0.0021
-11 8 13 0.9427 -0.0108
-11 8 14 1.3681 0.0024
-11 8 15 -1.0086 0.0048
-11 8 16 -1.3623 -0.0074
-11 8 17 0.5898 -0.0029
-11 8 18 1.3950 0.0109
-11 8 19 -0.4816 0.0030
-11 8 20 -1.4291 -0.0093
-11 8 21 0.8136 0.0017
-11 8 22 1.2156 0.0023
-11 8 23 -0.9514 -0.0059
-11 8 24 -0.7313 0.0065
-11 9 1 0.6983 -0.0008
-11 9 2 0.7899 0.0045
-11 9 3 -0.4983 0.0008
-11 9 4 -0.3287 -0.0001
-11 9 5 0.1962 -0.0025
-11 9 6 0.1372 -0.0001
-11 9 7 -0.2676 0.0022
-11 9 8 -0.0902 -0.0047
-11 9 9 0.2488 0.0046
-11 9 10 -0.3576 0.0083
-11 9 11 0.3908 -0.0128
-11 9 12 1.1428 -0.0063
-11 9 13 -1.1442 0.0126
-11 9 14 -1.5975 0.0012
-11 9 15 1.2055 -0.0061
-11 9 16 1.4637 0.0042
-11 9 17 -0.7234 0.0039
-11 9 18 -1.1686 -0.0083
-11 9 19 0.4106 -0.0053
-11 10 1 -0.5159 -0.0051
-11 10 2 -0.8861 -0.0031
-11 10 3 0.4616 0.0071
-11 10 4 0.6727 -0.0092
-11 10 5 -0.2840 -0.0049
-11 10 6 -0.6460 0.0121
-11 10 7 0.3413 0.0027
-11 10 8 0.6527 -0.0046
-11 10 9 -0.2969 -0.0065
-11 10 10 -0.0841 -0.0030
-11 10 11 -0.1949 0.0128
-11 10 12 -0.9332 0.0039
-11 10 13 0.7485 -0.0112
-11 10 14 1.5300 -0.0013
-11 10 15 -0.8381 0.0031
-10 0 2 -8.8340 -0.0157
-10 0 4 9.1507 -0.0059
-10 0 6 -8.6849 -0.0083
-10 0 8 6.9417 0.0184
-10 0 10 -4.5308 0.0049
-10 0 12 3.4572 -0.0295
-10 0 14 -4.2339 0.0289
-10 0 16 4.7153 -0.0173
-10 0 18 -3.4216 0.0057
-10 0 20 1.6420 0.0103
-10 0 22 -0.9634 -0.0210
-10 0 24 1.1430 0.0147
-10 0 26 -1.2738 -0.0025
-10 0 28 0.9475 -0.0015
-10 0 30 -0.0130 0.0004
-10 0 32 -1.1669 0.0001
-10 0 34 1.5780 -0.0020
-10 1 1 -2.2011 -0.0113
-10 1 2 8.0132 0.0165
-10 1 3 2.4247 0.0114
-10 1 4 -8.6245 0.0058
-10 1 5 -2.0647 -0.0094
-10 1 6 8.5234 0.0038
-10 1 7 1.2190 0.0031
-10 1 8 -7.1837 -0.0129
-10 1 9 -0.2190 0.0063
-10 1 10 5.0768 -0.0041
-10 1 11 -0.5656 -0.0115
-10 1 12 -3.9916 0.0212
-10 1 13 0.9372 0.0094
-10 1 14 4.4452 -0.0179
-10 1 15 -0.8826 -0.0042
-10 1 16 -4.5832 0.0091
-10 1 17 0.4307 -0.0003
-10 1 18 3.1582 -0.0035
-10 1 19 0.2386 0.0026
-10 1 20 -1.4128 -0.0057
-10 1 21 -0.6804 -0.0014
-10 1 22 0.7863 0.0127
-10 1 23 0.6571 -0.0010
-10 1 24 -0.9710 -0.0079
-10 1 25 -0.5519 0.0001
-10 1 26 1.0520 -0.0010
-10 1 27 0.7722 0.0035
-10 1 28 -0.6550 0.0037
-10 1 29 -1.0478 -0.0041
-10 1 30 -0.2809 -0.0031
-10 1 31 0.9333 0.0009
-10 1 32 1.3631 0.0026
-10 1 33 -0.5982 0.0010
-10 1 34 -1.6842 -0.0002
-10 1 35 0.4560 -0.0003
-10 2 1 3.3958 0.0126
-10 2 2 -5.7388 -0.0134
-10 2 3 -4.0676 -0.0092
-10 2 4 6.8755 -0.0041
-10 2 5 3.7542 0.0056
-10 2 6 -7.5079 0.0003
-10 2 7 -2.5374 0.0007
-10 2 8 7.1042 0.0046
-10 2 9 0.9918 -0.0085
-10 2 10 -5.8172 0.0050
-10 2 11 0.2851 0.0105
-10 2 12 4.8689 -0.0121
-10 2 13 -1.0516 -0.0057
-10 2 14 -4.7392 0.0070
-10 2 15 1.2912 0.0012
-10 2 16 4.2434 -0.0028
-10 2 17 -0.8918 -0.0002
-10 2 18 -2.6370 0.0027
-10 2 19 -0.0281 0.0003
-10 2 20 0.9907 0.0014
-10 2 21 0.7579 -0.0015
-10 2 22 -0.4115 -0.0063
-10 2 23 -0.7969 0.0036
-10 2 24 0.5370 0.0045
-10 2 25 0.6669 -0.0027
-10 2 26 -0.5127 -0.0002
-10 2 27 -0.9855 -0.0015
-10 2 28 0.0486 -0.0020
-10 2 29 1.3149 0.0029
-10 2 30 0.7484 0.0046
-10 2 31 -1.0007 0.0000
-10 2 32 -1.4839 -0.0070
-10 2 33 0.4164 -0.0018
-10 2 34 1.5684 0.0060
-10 2 35 -0.2570 0.0010
-10 3 1 -3.0733 -0.0093
-10 3 2 3.1818 0.0125
-10 3 3 4.1132 0.0034
-10 3 4 -4.5136 -0.0063
-10 3 5 -4.0522 -0.0001
-10 3 6 5.5873 0.0053
-10 3 7 2.9275 -0.0034
-10 3 8 -6.0103 -0.0023
-10 3 9 -1.4906 0.0070
-10 3 10 5.6381 -0.0054
-10 3 11 0.3575 -0.0052
-10 3 12 -5.0221 0.0073
-10 3 13 0.4515 -0.0001
-10 3 14 4.5598 -0.0030
-10 3 15 -1.0358 0.0014
-10 3 16 -3.7649 0.0018
-10 3 17 1.0785 0.0009
-10 3 18 2.3072 -0.0026
-10 3 19 -0.4312 -0.0018
-10 3 20 -0.8992 -0.0006
-10 3 21 -0.2211 0.0019
-10 3 22 0.2879 0.0043
-10 3 23 0.2647 -0.0028
-10 3 24 -0.2376 -0.0040
-10 3 25 -0.1799 0.0012
-10 3 26 0.1168 0.0022
-10 3 27 0.5536 0.0024
-10 3 28 0.2658 0.0009
-10 3 29 -0.8598 -0.0016
-10 3 30 -0.7083 -0.0071
-10 3 31 0.4532 -0.0038
-10 3 32 0.9280 0.0120
-10 3 33 0.1538 0.0068
-10 3 34 -0.7707 -0.0122
-10 3 35 -0.2214 -0.0058
-10 4 1 2.3756 0.0039
-10 4 2 -1.5820 -0.0094
-10 4 3 -3.2901 -0.0023
-10 4 4 2.8166 0.0108
-10 4 5 3.1661 0.0029
-10 4 6 -3.9392 -0.0067
-10 4 7 -2.1459 -0.0016
-10 4 8 4.7454 -0.0011
-10 4 9 1.1452 -0.0006
-10 4 10 -4.9077 0.0063
-10 4 11 -0.6370 -0.0010
-10 4 12 4.4851 -0.0045
-10 4 13 0.2649 0.0034
-10 4 14 -3.8756 0.0011
-10 4 15 0.2912 -0.0017
-10 4 16 3.1690 -0.0015
-10 4 17 -0.6551 -0.0006
-10 4 18 -2.2235 0.0024
-10 4 19 0.4901 -0.0009
-10 4 20 1.2487 -0.0010
-10 4 21 -0.2550 0.0023
-10 4 22 -0.6424 0.0002
-10 4 23 0.3759 -0.0011
-10 4 24 0.3991 -0.0004
-10 4 25 -0.3899 0.0011
-10 4 26 -0.1936 -0.0003
-10 4 27 -0.0951 -0.0013
-10 4 30 0.2051 0.0078
-10 4 31 -0.1811 0.0121
-10 4 32 -0.0455 -0.0127
-10 4 33 -0.2569 -0.0146
-10 4 34 -0.2079 0.0132
-10 5 1 -2.3480 0.0020
-10 5 2 0.3416 0.0036
-10 5 3 2.7965 0.0000
-10 5 4 -1.6400 -0.0043
-10 5 5 -2.3582 -0.0031
-10 5 6 2.9084 -0.0010
-10 5 7 1.3883 0.0031
-10 5 8 -3.9526 0.0069
-10 5 9 -0.8204 -0.0025
-10 5 10 4.3275 -0.0065
-10 5 11 0.8651 0.0048
-10 5 12 -3.8748 0.0010
-10 5 13 -0.9214 -0.0054
-10 5 14 3.1032 0.0014
-10 5 15 0.6122 0.0020
-10 5 16 -2.5263 0.0011
-10 5 17 -0.2394 -0.0007
-10 5 18 2.0842 -0.0039
-10 5 19 0.0480 0.0036
-10 5 20 -1.5597 0.0058
-10 5 21 0.2163 -0.0043
-10 5 22 1.0469 -0.0074
-10 5 23 -0.5855 0.0015
-10 5 24 -0.6891 0.0052
-10 5 25 0.5336 0.0000
-10 5 26 0.4001 0.0003
-10 5 27 0.0602 -0.0021
-10 5 28 -0.1420 -0.0021
-10 5 29 -0.4963 0.0099
-10 5 30 0.1102 -0.0021
-10 5 31 0.3626 -0.0182
-10 5 32 -0.3617 0.0063
-10 6 1 2.0287 -0.0036
-10 6 2 1.1757 -0.0017
-10 6 3 -2.1491 0.0027
-10 6 4 0.3321 -0.0002
-10 6 5 1.7294 -0.0010
-10 6 6 -1.8707 0.0044
-10 6 7 -1.2112 0.0009
-10 6 8 3.1112 -0.0066
-10 6 9 1.1911 0.0011
-10 6 10 -3.6109 0.0027
-10 6 11 -1.4853 -0.0053
-10 6 12 3.2108 0.0031
-10 6 13 1.5465 0.0050
-10 6 14 -2.4413 -0.0038
-10 6 15 -1.3088 0.0004
-10 6 16 1.9513 -0.0002
-10 6 17 1.0335 -0.0022
-10 6 18 -1.7608 0.0045
-10 6 19 -0.6630 -0.0010
-10 6 20 1.5172 -0.0083
-10 6 21 0.0120 0.0021
-10 6 22 -1.1382 0.0097
-10 6 23 0.5616 -0.0009
-10 6 24 0.7679 -0.0042
-10 6 25 -0.4665 0.0020
-10 6 26 -0.4376 -0.0049
-10 6 27 -0.1476 -0.0014
-10 6 28 0.1705 0.0084
-10 6 29 0.5360 -0.0063
-10 7 1 -0.9228 -0.0015
-10 7 2 -1.8495 0.0018
-10 7 3 0.9685 0.0019
-10 7 4 0.4330 -0.0002
-10 7 5 -0.9181 -0.0009
-10 7 6 0.9430 -0.0017
-10 7 7 1.1452 -0.0009
-10 7 8 -1.9433 0.0018
-10 7 9 -1.6942 -0.0010
-10 7 10 2.3982 0.0023
-10 7 11 1.9815 0.0045
-10 7 12 -2.2816 -0.0074
-10 7 13 -1.7332 -0.0011
-10 7 14 1.8686 0.0083
-10 7 15 1.3927 -0.0075
-10 7 16 -1.5473 -0.0049
-10 7 17 -1.2350 0.0098
-10 7 18 1.4131 -0.0003
-10 7 19 0.8707 -0.0041
-10 7 20 -1.2917 0.0058
-10 7 21 -0.0850 -0.0016
-10 7 22 1.0710 -0.0080
-10 7 23 -0.5314 0.0058
-10 7 24 -0.7801 0.0029
-10 7 25 0.3979 -0.0111
-10 7 26 0.4814 0.0052
-10 7 27 0.1539 0.0121
-10 7 28 -0.2717 -0.0077
-10 8 1 0.3870 0.0067
-10 8 2 1.3636 -0.0009
-10 8 3 -0.4143 -0.0081
-10 8 4 -0.3610 0.0011
-10 8 5 0.5190 0.0052
-10 8 6 -0.4382 -0.0004
-10 8 7 -1.0542 -0.0010
-10 8 8 0.8588 -0.0002
-10 8 9 1.7143 0.0014
-10 8 10 -1.1681 -0.0031
-10 8 11 -1.7519 -0.0033
-10 8 12 1.4773 0.0098
-10 8 13 1.1889 -0.0027
-10 8 14 -1.5871 -0.0137
-10 8 15 -0.8039 0.0139
-10 8 16 1.4054 0.0114
-10 8 17 0.8283 -0.0165
-10 8 18 -1.1343 -0.0043
-10 8 19 -0.6627 0.0077
-10 8 20 0.9725 -0.0043
-10 8 21 0.0560 0.0028
-10 8 22 -0.8673 0.0095
-10 8 23 0.3913 -0.0105
-10 8 24 0.6774 -0.0074
-10 8 25 -0.2166 0.0167
-10 9 1 -0.6835 -0.0093
-10 9 2 -1.1224 0.0064
-10 9 3 0.6897 0.0107
-10 9 4 0.4769 -0.0093
-10 9 5 -0.6575 -0.0057
-10 9 6 -0.0513 0.0069
-10 9 7 0.9908 -0.0008
-10 9 8 -0.0742 -0.0012
-10 9 9 -1.3677 0.0013
-10 9 10 0.4435 0.0008
-10 9 11 1.1447 0.0008
-10 9 12 -1.1864 -0.0079
-10 9 13 -0.4850 0.0053
-10 9 14 1.6672 0.0141
-10 9 15 0.1402 -0.0178
-10 9 16 -1.4335 -0.0123
-10 9 17 -0.2418 0.0216
-10 9 18 0.8612 0.0040
-10 9 19 0.2330 -0.0122
-10 9 20 -0.5242 0.0054
-10 9 21 0.0844 0.0002
-10 10 1 0.5577 0.0168
-10 10 2 1.3250 -0.0176
-10 10 3 -0.5662 -0.0190
-10 10 4 -0.8870 0.0245
-10 10 5 0.4945 0.0118
-10 10 6 0.5445 -0.0196
-10 10 7 -0.6905 -0.0009
-10 10 8 -0.4051 0.0068
-10 10 9 0.9277 -0.0037
-10 10 10 -0.0906 -0.0001
-10 10 11 -0.7522 0.0033
-10 10 12 1.0173 0.0047
-10 10 13 0.2790 -0.0092
-10 10 14 -1.5816 -0.0107
-10 10 15 0.0216 0.0215
-10 10 16 1.2619 0.0092
-10 11 2 -0.9526 0.0185
-10 11 3 0.0040 0.0324
-10 11 4 0.6922 -0.0284
-10 11 5 -0.0151 -0.0248
-9 0 2 -6.3640 0.0069
-9 0 4 4.7579 0.0171
-9 0 6 -2.3134 -0.0050
-9 0 8 -0.0535 -0.0074
-9 0 10 1.5461 -0.0090
-9 0 12 -2.7674 0.0224
-9 0 14 4.1068 -0.0096
-9 0 16 -4.2045 -0.0053
-9 0 18 2.2707 0.0063
-9 0 20 0.0242 -0.0063
-9 0 22 -0.9763 0.0078
-9 0 24 1.0378 -0.0019
-9 0 26 -1.2227 -0.0043
-9 0 28 1.5191 0.0013
-9 0 30 -1.6795 0.0032
-9 0 32 1.6697 -0.0017
-9 0 34 -1.1802 -0.0003
-9 1 1 1.8730 0.0138
-9 1 2 6.1160 0.0012
-9 1 3 -1.6294 -0.0085
-9 1 4 -4.3015 -0.0203
-9 1 5 1.6690 0.0041
-9 1 6 1.8865 0.0054
-9 1 7 -1.9076 0.0013
-9 1 8 0.3296 0.0102
-9 1 9 2.0572 -0.0078
-9 1 10 -1.6652 0.0015
-9 1 11 -1.9163 0.0092
-9 1 12 2.6977 -0.0136
-9 1 13 1.5325 -0.0035
-9 1 14 -3.8243 0.0053
-9 1 15 -1.1070 -0.0031
-9 1 16 3.8518 0.0033
-9 1 17 0.8653 0.0054
-9 1 18 -2.0902 -0.0002
-9 1 19 -0.8311 -0.0047
-9 1 20 0.0725 -0.0012
-9 1 21 0.6788 0.0030
-9 1 22 0.6810 -0.0016
-9 1 23 -0.1739 -0.0018
-9 1 24 -0.6709 -0.0010
-9 1 25 -0.3190 0.0028
-9 1 26 0.9008 0.0049
-9 1 27 0.3138 -0.0042
-9 1 28 -1.3420 -0.0026
-9 1 29 -0.0112 0.0018
-9 1 30 1.6561 -0.0007
-9 1 31 -0.0413 0.0031
-9 1 32 -1.7107 0.0010
-9 1 33 -0.1461 -0.0040
-9 1 34 1.2262 -0.0022
-9 2 1 -2.9049 -0.0056
-9 2 2 -5.8262 -0.0110
-9 2 3 3.0460 -0.0009
-9 2 4 3.7397 0.0213
-9 2 5 -3.3586 0.0030
-9 2 6 -1.4531 -0.0066
-9 2 7 3.6373 -0.0040
-9 2 8 -0.5361 -0.0071
-9 2 9 -3.6210 0.0068
-9 2 10 1.7382 0.0005
-9 2 11 3.2004 -0.0061
-9 2 12 -2.5273 0.0067
-9 2 13 -2.4856 0.0006
-9 2 14 3.2321 -0.0013
-9 2 15 1.7446 0.0020
-9 2 16 -3.0729 -0.0020
-9 2 17 -1.3598 0.0010
-9 2 18 1.6428 -0.0021
-9 2 19 1.4186 -0.0038
-9 2 20 -0.1737 0.0020
-9 2 21 -1.3401 0.0037
-9 2 22 -0.2013 0.0020
-9 2 23 0.6212 -0.0027
-9 2 24 0.0221 -0.0005
-9 2 25 0.2055 0.0002
-9 2 26 -0.2486 -0.0036
-9 2 27 -0.3286 0.0031
-9 2 28 0.8759 0.0044
-9 2 29 0.0231 -0.0024
-9 2 30 -1.4302 -0.0042
-9 2 31 -0.0936 -0.0023
-9 2 32 1.5954 0.0029
-9 2 33 0.4264 0.0042
-9 2 34 -1.1808 0.0020
-9 2 35 -0.3682 -0.0005
-9 3 1 2.3129 -0.0062
-9 3 2 5.5991 0.0048
-9 3 3 -3.1897 0.0118
-9 3 4 -3.7934 -0.0102
-9 3 5 3.8650 -0.0094
-9 3 6 1.8861 0.0048
-9 3 7 -4.0772 0.0052
-9 3 8 -0.0007 -0.0013
-9 3 9 3.9194 -0.0045
-9 3 10 -1.4280 0.0060
-9 3 11 -3.5366 0.0027
-9 3 12 2.3030 -0.0064
-9 3 13 2.9124 0.0006
-9 3 14 -2.7403 -0.0003
-9 3 15 -2.1078 0.0007
-9 3 16 2.4365 0.0030
-9 3 17 1.5721 -0.0054
-9 3 18 -1.3255 -0.0013
-9 3 19 -1.5930 0.0064
-9 3 20 0.2902 0.0030
-9 3 21 1.5990 -0.0038
-9 3 22 -0.1065 -0.0053
-9 3 23 -0.9569 0.0024
-9 3 24 0.3618 0.0021
-9 3 25 0.1581 -0.0011
-9 3 26 -0.2354 0.0032
-9 3 27 -0.0168 -0.0013
-9 3 28 -0.3708 -0.0066
-9 3 29 0.1957 0.0004
-9 3 30 0.9734 0.0085
-9 3 31 0.0884 0.0043
-9 3 32 -1.1585 -0.0064
-9 3 33 -0.5472 -0.0058
-9 3 34 0.8771 -0.0009
-9 4 1 -0.8974 0.0056
-9 4 2 -4.7264 0.0023
-9 4 3 1.9690 -0.0096
-9 4 4 3.6721 0.0007
-9 4 5 -2.6027 0.0067
-9 4 6 -2.3641 -0.0037
-9 4 7 2.7023 -0.0036
-9 4 8 0.6488 0.0079
-9 4 9 -2.8113 0.0035
-9 4 10 0.9836 -0.0099
-9 4 11 3.1612 -0.0016
-9 4 12 -1.9774 0.0048
-9 4 13 -3.2889 -0.0011
-9 4 14 2.2888 0.0019
-9 4 15 2.8069 -0.0002
-9 4 16 -2.0372 -0.0029
-9 4 17 -2.1300 0.0026
-9 4 18 1.3516 0.0020
-9 4 19 1.8099 -0.0009
-9 4 20 -0.6690 -0.0037
-9 4 21 -1.5791 -0.0009
-9 4 22 0.4413 0.0041
-9 4 23 0.9915 -0.0017
-9 4 24 -0.5161 -0.0009
-9 4 25 -0.4672 0.0041
-9 4 26 0.3559 -0.0027
-9 4 27 0.5292 -0.0032
-9 4 29 -0.6694 0.0036
-9 4 30 -0.6819 -0.0094
-9 4 31 0.2386 -0.0062
-9 4 32 0.7430 0.0079
-9 4 33 0.3190 0.0053
-9 4 34 -0.4929 -0.0010
-9 5 1 0.1430 -0.0042
-9 5 2 3.4591 -0.0001
-9 5 3 -0.7168 0.0053
-9 5 4 -2.7834 -0.0011
-9 5 5 0.8793 -0.0023
-9 5 6 1.8419 0.0052
-9 5 7 -0.8460 0.0008
-9 5 8 -0.4664 -0.0092
-9 5 9 1.4359 -0.0004
-9 5 10 -0.8537 0.0073
-9 5 11 -2.7116 -0.0026
-9 5 12 1.4854 -0.0011
-9 5 13 3.7282 0.0049
-9 5 14 -1.4999 -0.0015
-9 5 15 -3.7606 -0.0029
-9 5 16 1.3573 -0.0013
-9 5 17 3.1318 0.0017
-9 5 18 -1.1950 0.0024
-9 5 19 -2.4523 -0.0039
-9 5 20 0.9494 0.0003
-9 5 21 1.7473 0.0029
-9 5 22 -0.7177 -0.0027
-9 5 23 -0.9779 0.0037
-9 5 24 0.5391 0.0037
-9 5 25 0.6177 -0.0079
-9 5 26 -0.2010 -0.0035
-9 5 27 -0.8436 0.0066
-9 5 28 -0.3468 -0.0012
-9 5 29 0.9645 -0.0055
-9 5 30 0.7128 0.0086
-9 5 31 -0.5068 0.0055
-9 5 32 -0.5784 -0.0106
-9 5 33 -0.0105 -0.0024
-9 6 1 0.1340 0.0064
-9 6 2 -2.6872 -0.0002
-9 6 3 0.0892 -0.0050
-9 6 4 1.7388 0.0016
-9 6 5 -0.0421 0.0016
-9 6 6 -0.7423 -0.0050
-9 6 7 0.1116 0.0001
-9 6 8 -0.2637 0.0068
-9 6 9 -1.0465 -0.0022
-9 6 10 0.9323 -0.0036
-9 6 11 2.6371 0.0062
-9 6 12 -0.9210 -0.0006
-9 6 13 -3.8410 -0.0067
-9 6 14 0.5311 -0.0006
-9 6 15 4.0848 0.0024
-9 6 16 -0.3692 0.0051
-9 6 17 -3.6705 -0.0014
-9 6 18 0.5349 -0.0051
-9 6 19 2.9432 0.0054
-9 6 20 -0.6868 0.0002
-9 6 21 -1.9278 -0.0054
-9 6 22 0.6512 0.0056
-9 6 23 0.9355 -0.0007
-9 6 24 -0.4597 -0.0106
-9 6 25 -0.5703 0.0045
-9 6 26 0.0782 0.0114
-9 6 27 0.7841 -0.0042
-9 6 28 0.4146 -0.0031
-9 6 29 -0.8302 0.0049
-9 6 30 -0.6509 -0.0097
-9 6 31 0.4427 -0.0054
-9 7 1 -0.6510 -0.0023
-9 7 2 2.1507 -0.0037
-9 7 3 0.2509 0.0010
-9 7 4 -1.0027 0.0015
-9 7 5 0.0102 -0.0007
-9 7 6 0.0131 0.0013
-9 7 7 -0.4714 0.0018
-9 7 8 0.6024 -0.0025
-9 7 9 1.5399 -0.0003
-9 7 10 -0.7669 -0.0001
-9 7 11 -2.7600 -0.0034
-9 7 12 0.4812 0.0028
-9 7 13 3.3884 0.0020
-9 7 14 -0.0129 -0.0006
-9 7 15 -3.4040 0.0032
-9 7 16 -0.2344 -0.0043
-9 7 17 3.1945 -0.0017
-9 7 18 0.1349 0.0052
-9 7 19 -2.7115 -0.0073
-9 7 20 0.1234 -0.0013
-9 7 21 1.7676 0.0120
-9 7 22 -0.3318 -0.0050
-9 7 23 -0.8118 -0.0084
-9 7 24 0.3620 0.0115
-9 7 25 0.4906 0.0033
-9 7 26 -0.1547 -0.0127
-9 8 1 0.8203 -0.0047
-9 8 2 -1.3400 0.0040
-9 8 3 -0.2764 0.0048
-9 8 4 0.4561 -0.0032
-9 8 5 -0.2011 -0.0004
-9 8 6 0.1965 0.0018
-9 8 7 0.8997 -0.0051
-9 8 8 -0.3799 -0.0006
-9 8 9 -1.8953 0.0053
-9 8 10 0.3351 0.0026
-9 8 11 2.5757 -0.0021
-9 8 12 -0.2669 -0.0057
-9 8 13 -2.5427 0.0041
-9 8 14 0.0894 0.0039
-9 8 15 2.2456 -0.0100
-9 8 16 0.2523 0.0028
-9 8 17 -2.1386 0.0073
-9 8 18 -0.5296 -0.0079
-9 8 19 1.9326 0.0050
-9 8 20 0.4759 0.0075
-9 8 21 -1.2999 -0.0136
-9 8 22 -0.1544 -0.0018
-9 8 23 0.6476 0.0117
-9 8 24 -0.1046 -0.0061
-9 8 25 -0.4897 -0.0048
-9 8 26 0.1239 0.0097
-9 9 1 -0.2954 0.0055
-9 9 2 0.7828 -0.0053
-9 9 3 -0.0710 -0.0051
-9 9 4 -0.1879 0.0054
-9 9 5 0.3616 -0.0018
-9 9 6 -0.1769 -0.0027
-9 9 7 -0.9008 0.0098
-9 9 8 0.0887 -0.0016
-9 9 9 1.6336 -0.0107
-9 9 10 -0.0184 0.0015
-9 9 11 -1.9419 0.0070
-9 9 12 0.2571 0.0033
-9 9 13 1.5962 -0.0093
-9 9 14 -0.3585 -0.0038
-9 9 15 -1.1357 0.0171
-9 9 16 -0.1112 -0.0031
-9 9 17 0.9734 -0.0168
-9 9 18 0.7868 0.0101
-9 9 19 -0.8553 0.0045
-9 9 20 -0.9897 -0.0102
-9 9 21 0.5273 0.0064
-9 9 22 0.6608 0.0040
-9 10 1 -0.0434 -0.0061
-9 10 2 -0.7625 0.0130
-9 10 3 0.2297 0.0045
-9 10 4 0.2619 -0.0118
-9 10 5 -0.3204 0.0049
-9 10 6 0.0621 0.0043
-9 10 7 0.6152 -0.0159
-9 10 8 0.0402 0.0062
-9 10 9 -1.0680 0.0185
-9 10 10 -0.0533 -0.0090
-9 10 11 1.2078 -0.0139
-9 10 12 -0.3224 0.0023
-9 10 13 -0.8557 0.0142
-9 10 14 0.5216 0.0023
-9 10 15 0.3608 -0.0217
-9 10 16 -0.0219 0.0016
-9 11 1 -0.1273 0.0112
-9 11 2 0.6545 -0.0178
-9 11 3 0.0301 -0.0082
-9 11 4 -0.2876 0.0168
-9 11 5 0.0447 -0.0039
-9 11 6 0.0135 -0.0078
-9 11 7 -0.2480 0.0187
-9 11 8 -0.0748 -0.0051
-8 0 2 18.1946 -0.0094
-8 0 4 -13.7794 -0.0108
-8 0 6 7.8022 0.0003
-8 0 8 -1.8271 0.0143
-8 0 10 -2.1108 -0.0022
-8 0 12 3.7968 -0.0088
-8 0 14 -4.3967 -0.0036
-8 0 16 3.9810 0.0129
-8 0 18 -2.1873 -0.0030
-8 0 20 0.1460 -0.0053
-8 0 22 0.8850 0.0023
-8 0 24 -1.3026 -0.0007
-8 0 26 1.7086 0.0010
-8 0 28 -1.6172 0.0042
-8 0 30 0.8496 -0.0074
-8 0 32 -0.1846 0.0017
-8 0 34 -0.0350 0.0044
-8 1 1 2.1441 -0.0041
-8 1 2 -17.1077 0.0050
-8 1 3 -1.4669 -0.0011
-8 1 4 13.1178 0.0056
-8 1 5 -0.3691 0.0012
-8 1 6 -7.8791 0.0092
-8 1 7 2.5664 -0.0006
-8 1 8 2.6097 -0.0233
-8 1 9 -4.0903 0.0031
-8 1 10 0.9648 0.0091
-8 1 11 4.3889 -0.0035
-8 1 12 -2.6477 0.0061
-8 1 13 -3.7075 -0.0018
-8 1 14 3.4464 0.0007
-8 1 15 2.6921 0.0067
-8 1 16 -3.3536 -0.0075
-8 1 17 -1.8767 -0.0058
-8 1 18 1.9651 -0.0002
-8 1 19 1.3917 0.0021
-8 1 20 -0.2716 0.0054
-8 1 21 -0.9264 0.0001
-8 1 22 -0.5811 -0.0011
-8 1 23 0.1963 -0.0003
-8 1 24 0.9561 -0.0002
-8 1 25 0.4968 -0.0006
-8 1 26 -1.4087 -0.0017
-8 1 27 -0.6262 0.0011
-8 1 28 1.4657 -0.0012
-8 1 29 0.3136 0.0009
-8 1 30 -0.8830 0.0043
-8 1 31 -0.1686 -0.0034
-8 1 32 0.2967 -0.0024
-8 1 33 0.3258 0.0014
-8 1 34 -0.0245 0.0008
-8 2 1 -3.6942 -0.0016
-8 2 2 14.4851 0.0020
-8 2 3 2.3161 0.0039
-8 2 4 -11.5504 -0.0010
-8 2 5 0.5353 0.0011
-8 2 6 7.9532 -0.0152
-8 2 7 -3.6683 -0.0061
-8 2 8 -4.1801 0.0245
-8 2 9 5.7830 0.0041
-8 2 10 1.3530 -0.0097
-8 2 11 -6.2836 -0.0013
-8 2 12 0.2700 -0.0047
-8 2 13 5.5196 0.0034
-8 2 14 -1.3250 0.0008
-8 2 15 -4.2722 -0.0043
-8 2 16 1.7442 0.0042
-8 2 17 3.2334 0.0003
-8 2 18 -1.1483 0.0001
-8 2 19 -2.6131 0.0029
-8 2 20 0.2288 -0.0014
-8 2 21 1.9304 -0.0017
-8 2 22 0.1543 -0.0020
-8 2 23 -0.7108 -0.0001
-8 2 24 -0.3038 -0.0001
-8 2 25 -0.5310 0.0007
-8 2 26 0.7145 0.0047
-8 2 27 0.8756 -0.0008
-8 2 28 -1.0278 -0.0034
-8 2 29 -0.4760 -0.0010
-8 2 30 0.8910 -0.0009
-8 2 31 0.2823 0.0043
-8 2 32 -0.5793 0.0041
-8 2 33 -0.4627 -0.0036
-8 2 34 0.3074 -0.0079
-8 3 1 4.6831 0.0098
-8 3 2 -11.3416 -0.0051
-8 3 3 -2.7269 -0.0083
-8 3 4 9.7113 0.0030
-8 3 5 -0.2237 -0.0011
-8 3 6 -7.6708 0.0068
-8 3 7 3.0318 0.0084
-8 3 8 5.1296 -0.0104
-8 3 9 -4.9069 -0.0060
-8 3 10 -2.8442 0.0013
-8 3 11 5.6297 0.0015
-8 3 12 1.3511 0.0038
-8 3 13 -5.3775 -0.0014
-8 3 14 -0.4001 0.0018
-8 3 15 4.5139 0.0006
-8 3 16 -0.1078 -0.0050
-8 3 17 -3.6067 0.0029
-8 3 18 0.0264 0.0023
-8 3 19 3.0404 -0.0030
-8 3 20 0.2488 -0.0021
-8 3 21 -2.4261 -0.0003
-8 3 22 -0.1937 0.0026
-8 3 23 1.2210 0.0009
-8 3 24 0.0225 0.0022
-8 3 25 0.0739 0.0009
-8 3 26 -0.1910 -0.0067
-8 3 27 -0.4992 -0.0009
-8 3 28 0.5907 0.0044
-8 3 29 0.2409 0.0012
-8 3 30 -0.8566 0.0016
-8 3 31 -0.2351 -0.0034
-8 3 32 0.8823 -0.0079
-8 3 33 0.4883 0.0028
-8 3 34 -0.7398 0.0139
-8 4 1 -5.0347 -0.0106
-8 4 2 8.1261 0.0043
-8 4 3 3.0262 0.0118
-8 4 4 -7.7235 -0.0047
-8 4 5 -0.5736 -0.0050
-8 4 6 6.7663 0.0018
-8 4 7 -1.4965 -0.0005
-8 4 8 -4.9439 -0.0016
-8 4 9 3.1083 -0.0006
-8 4 10 2.9584 0.0036
-8 4 11 -4.3387 0.0015
-8 4 12 -1.6708 -0.0008
-8 4 13 4.8749 0.0007
-8 4 14 1.0671 -0.0042
-8 4 15 -4.4389 -0.0004
-8 4 16 -0.7568 0.0039
-8 4 17 3.4910 -0.0023
-8 4 18 0.6416 -0.0015
-8 4 19 -2.7538 0.0017
-8 4 20 -0.6404 0.0021
-8 4 21 2.1639 -0.0001
-8 4 22 0.5236 -0.0017
-8 4 23 -1.2666 0.0022
-8 4 24 -0.3122 -0.0026
-8 4 25 0.3873 -0.0038
-8 4 26 0.3063 0.0048
-8 4 27 -0.1576 0.0002
-8 4 28 -0.6068 -0.0019
-8 4 29 0.2425 0.0034
-8 4 30 0.9419 -0.0030
-8 4 31 0.0676 -0.0027
-8 4 32 -1.0177 0.0089
-8 4 33 -0.4913 0.0021
-8 4 34 0.8741 -0.0145
-8 5 1 4.4382 0.0072
-8 5 2 -5.2273 -0.0019
-8 5 3 -3.0396 -0.0101
-8 5 4 5.5469 0.0022
-8 5 5 1.4189 0.0064
-8 5 6 -5.2695 -0.0024
-8 5 7 0.0074 -0.0033
-8 5 8 4.1011 0.0033
-8 5 9 -1.6561 0.0030
-8 5 10 -2.6692 -0.0021
-8 5 11 3.5685 -0.0005
-8 5 12 1.8388 -0.0021
-8 5 13 -4.8389 -0.0025
-8 5 14 -1.5818 0.0034
-8 5 15 4.7064 0.0006
-8 5 16 1.3203 -0.0008
-8 5 17 -3.6195 0.0029
-8 5 18 -0.9428 0.0009
-8 5 19 2.5365 -0.0028
-8 5 20 0.7429 -0.0047
-8 5 21 -1.6849 0.0030
-8 5 22 -0.7459 0.0052
-8 5 23 0.8649 -0.0060
-8 5 24 0.7528 -0.0014
-8 5 25 -0.3497 0.0047
-8 5 26 -0.7839 -0.0017
-8 5 27 0.3874 0.0034
-8 5 28 0.9526 0.0029
-8 5 29 -0.4411 -0.0098
-8 5 30 -1.0783 -0.0027
-8 5 31 0.0304 0.0091
-8 5 32 0.8997 -0.0017
-8 5 33 0.3735 -0.0060
-8 6 1 -3.3354 -0.0039
-8 6 2 3.2084 -0.0004
-8 6 3 2.6473 0.0039
-8 6 4 -3.4902 -0.0009
-8 6 5 -1.8431 -0.0009
-8 6 6 3.4740 0.0025
-8 6 7 0.9435 -0.0002
-8 6 8 -3.0202 -0.0035
-8 6 9 0.6785 0.0006
-8 6 10 2.5005 0.0011
-8 6 11 -2.8662 -0.0035
-8 6 12 -2.3842 0.0025
-8 6 13 4.4043 0.0046
-8 6 14 2.4539 -0.0021
-8 6 15 -4.4814 -0.0007
-8 6 16 -2.1353 0.0005
-8 6 17 3.5703 -0.0023
-8 6 18 1.4434 -0.0039
-8 6 19 -2.4792 0.0009
-8 6 20 -0.9142 0.0095
-8 6 21 1.3997 -0.0015
-8 6 22 0.7727 -0.0097
-8 6 23 -0.4080 0.0056
-8 6 24 -0.8034 0.0044
-8 6 25 -0.0511 -0.0047
-8 6 26 0.8723 0.0021
-8 6 27 -0.0992 -0.0029
-8 6 28 -0.9819 -0.0089
-8 6 29 0.2219 0.0080
-8 6 30 0.9564 0.0130
-8 6 31 0.0086 -0.0069
-8 6 32 -0.6292 -0.0088
-8 7 1 2.6051 0.0006
-8 7 2 -2.0308 0.0012
-8 7 3 -2.1701 0.0010
-8 7 4 1.9089 0.0019
-8 7 5 1.7793 -0.0023
-8 7 6 -1.8142 -0.0040
-8 7 7 -1.2038 0.0013
-8 7 8 1.8464 0.0044
-8 7 9 -0.1509 -0.0019
-8 7 10 -2.0840 -0.0017
-8 7 11 1.9500 0.0057
-8 7 12 2.5111 -0.0014
-8 7 13 -3.0975 -0.0067
-8 7 14 -2.8142 0.0008
-8 7 15 3.1733 0.0027
-8 7 16 2.6171 0.0005
-8 7 17 -2.7222 -0.0013
-8 7 18 -1.9599 0.0026
-8 7 19 2.1316 0.0038
-8 7 20 1.2355 -0.0073
-8 7 21 -1.2618 -0.0017
-8 7 22 -0.7181 0.0073
-8 7 23 0.2877 -0.0060
-8 7 24 0.4472 -0.0030
-8 7 29 -0.0060 0.0026
-8 8 1 -2.2317 0.0007
-8 8 2 1.1167 0.0009
-8 8 3 1.7867 -0.0022
-8 8 4 -0.8285 -0.0025
-8 8 5 -1.4717 0.0014
-8 8 6 0.6673 0.0033
-8 8 7 0.9769 0.0009
-8 8 8 -0.9239 -0.0041
-8 8 9 0.0869 0.0007
-8 8 10 1.4511 0.0032
-8 8 11 -1.2415 -0.0062
-8 8 12 -1.9295 -0.0015
-8 8 13 1.7035 0.0072
-8 8 14 2.2134 0.0028
-8 8 15 -1.5572 -0.0019
-8 8 16 -2.2912 -0.0056
-8 8 17 1.4514 -0.0010
-8 8 18 2.0929 0.0044
-8 8 19 -1.4436 -0.0006
-8 8 20 -1.5422 0.0004
-8 8 21 1.0972 -0.0025
-8 8 22 0.7903 -0.0036
-8 8 23 -0.4874 0.0119
-8 8 24 -0.2102 0.0037
-8 8 25 0.1400 -0.0178
-8 9 1 1.6127 0.0030
-8 9 2 -0.3464 -0.0054
-8 9 3 -1.3127 -0.0003
-8 9 4 0.1590 0.0048
-8 9 5 1.1306 0.0009
-8 9 6 -0.0773 -0.0047
-8 9 7 -0.7367 -0.0032
-8 9 8 0.4499 0.0073
-8 9 9 -0.0677 0.0010
-8 9 10 -0.9685 -0.0081
-8 9 11 0.7446 0.0048
-8 9 12 1.1973 0.0053
-8 9 13 -0.7477 -0.0044
-8 9 14 -1.2792 -0.0044
-8 9 15 0.3973 -0.0042
-8 9 16 1.5703 0.0066
-8 9 17 -0.3464 0.0101
-8 9 18 -1.8796 -0.0054
-8 9 19 0.5918 -0.0089
-8 9 20 1.6834 -0.0011
-8 9 21 -0.6800 0.0092
-8 9 22 -0.9779 0.0070
-8 9 23 0.5296 -0.0153
-8 10 1 -0.8151 -0.0096
-8 10 2 0.0424 0.0085
-8 10 3 0.7499 0.0068
-8 10 4 0.1101 -0.0084
-8 10 5 -0.8013 -0.0070
-8 10 6 -0.2049 0.0097
-8 10 7 0.6413 0.0087
-8 10 8 -0.1154 -0.0141
-8 10 9 -0.1305 -0.0055
-8 10 10 0.5027 0.0142
-8 10 11 -0.2905 -0.0020
-8 10 12 -0.5236 -0.0069
-8 10 13 0.2053 0.0030
-8 10 14 0.4709 0.0009
-8 10 15 0.1645 0.0058
-8 10 16 -0.8366 -0.0006
-8 10 17 -0.3270 -0.0127
-8 11 1 0.3481 0.0134
-8 11 2 -0.1309 -0.0065
-8 11 3 -0.3726 -0.0132
-8 11 4 -0.0891 0.0072
-8 11 5 0.4744 0.0141
-8 11 6 0.3316 -0.0100
-8 11 7 -0.4281 -0.0152
-8 11 10 -0.0056 -0.0160
-7 0 2 -9.2415 0.0083
-7 0 4 4.1941 0.0215
-7 0 6 0.7094 -0.0142
-7 0 8 -4.5002 -0.0068
-7 0 10 5.8382 -0.0008
-7 0 12 -5.0716 0.0154
-7 0 14 4.2491 -0.0069
-7 0 16 -3.9711 -0.0038
-7 0 18 3.1504 -0.0023
-7 0 20 -1.7363 0.0059
-7 0 22 0.7061 0.0033
-7 0 24 -0.1572 -0.0090
-7 0 26 -0.1664 0.0074
-7 0 28 -0.1610 -0.0087
-7 0 30 1.0136 0.0091
-7 0 32 -1.2396 -0.0017
-7 0 34 0.5270 -0.0046
-7 1 1 -3.9498 -0.0057
-7 1 2 9.2320 -0.0187
-7 1 3 2.2506 0.0067
-7 1 4 -5.0505 -0.0054
-7 1 5 0.2585 -0.0023
-7 1 6 0.9537 0.0011
-7 1 7 -2.6466 -0.0008
-7 1 8 2.4184 0.0121
-7 1 9 3.9328 -0.0026
-7 1 10 -3.8980 0.0005
-7 1 11 -3.7401 0.0063
-7 1 12 3.6617 -0.0160
-7 1 13 2.5963 -0.0036
-7 1 14 -3.3894 0.0066
-7 1 15 -1.3995 -0.0008
-7 1 16 3.4801 0.0069
-7 1 17 0.7346 0.0005
-7 1 18 -2.8644 -0.0040
-7 1 19 -0.6322 0.0024
-7 1 20 1.5283 0.0001
-7 1 21 0.6657 -0.0029
-7 1 22 -0.4878 -0.0048
-7 1 23 -0.4100 0.0008
-7 1 24 -0.0601 0.0055
-7 1 25 0.0080 0.0017
-7 1 26 0.3376 -0.0012
-7 1 27 0.0391 -0.0031
-7 1 28 -0.0068 0.0020
-7 1 29 0.2708 0.0023
-7 1 30 -0.7953 -0.0041
-7 1 31 -0.3921 -0.0006
-7 1 32 1.0511 0.0002
-7 1 33 0.1338 0.0022
-7 1 34 -0.4974 0.0042
-7 2 1 7.2843 -0.0019
-7 2 2 -8.5653 0.0274
-7 2 3 -4.7139 0.0017
-7 2 4 6.3074 -0.0128
-7 2 5 0.9894 -0.0066
-7 2 6 -4.0268 0.0129
-7 2 7 2.5547 0.0092
-7 2 8 1.6857 -0.0143
-7 2 9 -4.6380 -0.0030
-7 2 10 -0.0777 -0.0026
-7 2 11 4.7936 -0.0037
-7 2 12 -0.6066 0.0153
-7 2 13 -3.6432 0.0017
-7 2 14 1.2817 -0.0045
-7 2 15 2.2264 0.0032
-7 2 16 -2.0207 -0.0090
-7 2 17 -1.2911 -0.0028
-7 2 18 1.8782 0.0078
-7 2 19 1.0090 0.0007
-7 2 20 -0.8680 -0.0036
-7 2 21 -0.8951 -0.0014
-7 2 22 -0.0253 0.0033
-7 2 23 0.3606 0.0017
-7 2 24 0.4475 0.0006
-7 2 25 0.3340 -0.0000
-7 2 26 -0.5783 -0.0054
-7 2 27 -0.3708 -0.0010
-7 2 28 0.3096 0.0024
-7 2 29 -0.2219 0.0011
-7 2 30 0.2234 0.0027
-7 2 31 0.5295 -0.0018
-7 2 32 -0.4000 -0.0023
-7 2 33 -0.2575 0.0003
-7 2 34 0.1289 -0.0007
-7 2 35 0.0437 0.0045
-7 3 1 -8.9038 0.0081
-7 3 2 6.4826 -0.0152
-7 3 3 6.2754 -0.0081
-7 3 4 -5.9630 0.0099
-7 3 5 -2.7561 0.0119
-7 3 6 5.3106 -0.0112
-7 3 7 -0.4286 -0.0128
-7 3 8 -4.0188 0.0093
-7 3 9 2.4643 0.0050
-7 3 10 2.6022 0.0033
-7 3 11 -3.1786 0.0015
-7 3 12 -1.5891 -0.0095
-7 3 13 2.8849 0.0015
-7 3 14 0.6580 0.0006
-7 3 15 -2.0328 -0.0065
-7 3 16 0.2351 0.0069
-7 3 17 1.1660 0.0060
-7 3 18 -0.4560 -0.0043
-7 3 19 -0.7315 -0.0044
-7 3 20 -0.0577 0.0010
-7 3 21 0.5120 0.0045
-7 3 22 0.5717 0.0003
-7 3 23 0.0670 -0.0018
-7 3 24 -0.6765 -0.0041
-7 3 25 -0.7795 -0.0028
-7 3 26 0.5484 0.0057
-7 3 27 0.7944 0.0036
-7 3 28 -0.3764 0.0002
-7 3 29 -0.1855 -0.0015
-7 3 30 0.2853 -0.0065
-7 3 31 -0.1074 0.0011
-7 3 32 -0.3796 0.0071
-7 3 33 -0.0918 -0.0007
-7 3 34 0.4990 -0.0046
-7 3 35 0.0750 -0.0021
-7 4 1 8.1123 -0.0000
-7 4 2 -3.6919 0.0005
-7 4 3 -5.7607 -0.0019
-7 4 4 4.1753 -0.0013
-7 4 5 3.0563 -0.0026
-7 4 6 -4.3475 0.0048
-7 4 7 -0.9653 0.0062
-7 4 8 3.6475 -0.0038
-7 4 9 -0.4439 -0.0035
-7 4 10 -2.5449 -0.0025
-7 4 11 1.4342 0.0018
-7 4 12 1.7924 0.0040
-7 4 13 -1.8787 -0.0054
-7 4 14 -1.3208 -0.0001
-7 4 15 1.4806 0.0067
-7 4 16 0.8340 -0.0003
-7 4 17 -0.5863 -0.0031
-7 4 18 -0.5847 -0.0023
-7 4 19 -0.0108 0.0015
-7 4 20 0.7822 0.0020
-7 4 21 0.2064 -0.0025
-7 4 22 -1.0205 -0.0012
-7 4 23 -0.5443 0.0008
-7 4 24 0.8548 0.0030
-7 4 25 0.9774 0.0015
-7 4 26 -0.4185 -0.0017
-7 4 27 -0.9234 0.0008
-7 4 28 0.1648 -0.0050
-7 4 29 0.5394 -0.0039
-7 4 30 -0.2828 0.0101
-7 4 31 -0.5173 0.0021
-7 4 32 0.5314 -0.0106
-7 4 33 0.7296 0.0008
-7 4 34 -0.5954 0.0089
-7 5 1 -5.7650 -0.0072
-7 5 2 1.7198 0.0009
-7 5 3 3.9045 0.0099
-7 5 4 -2.6611 0.0008
-7 5 5 -2.0393 -0.0049
-7 5 6 3.1201 -0.0027
-7 5 7 0.8858 -0.0001
-7 5 8 -2.6989 0.0012
-7 5 9 0.0227 0.0008
-7 5 10 1.8896 0.0012
-7 5 11 -1.1426 -0.0019
-7 5 12 -1.4776 -0.0004
-7 5 13 1.9040 0.0035
-7 5 14 1.4376 -0.0004
-7 5 15 -1.5327 -0.0001
-7 5 16 -1.2804 -0.0016
-7 5 17 0.3827 -0.0052
-7 5 18 1.0548 0.0019
-7 5 19 0.4922 0.0046
-7 5 20 -1.1248 0.0009
-7 5 21 -0.8050 -0.0005
-7 5 22 1.3144 -0.0006
-7 5 23 1.0048 -0.0011
-7 5 24 -1.0982 -0.0027
-7 5 25 -1.1118 0.0029
-7 5 26 0.4814 0.0018
-7 5 27 0.8391 -0.0077
-7 5 28 -0.0249 0.0037
-7 5 29 -0.5201 0.0091
-7 5 30 0.0119 -0.0080
-7 5 31 0.6281 -0.0035
-7 5 32 -0.1416 0.0102
-7 6 1 3.6479 0.0038
-7 6 2 -1.0172 0.0005
-7 6 3 -2.5477 -0.0048
-7 6 4 1.9792 0.0002
-7 6 5 1.5024 0.0016
-7 6 6 -2.5154 0.0001
-7 6 7 -0.9152 -0.0001
-7 6 8 2.4420 -0.0001
-7 6 9 0.1161 0.0008
-7 6 10 -2.1249 0.0020
-7 6 11 1.1930 0.0002
-7 6 12 2.0634 -0.0053
-7 6 13 -2.0845 -0.0003
-7 6 14 -2.1351 0.0055
-7 6 15 1.6844 -0.0046
-7 6 16 1.8908 -0.0030
-7 6 17 -0.4722 0.0085
-7 6 18 -1.4254 0.0030
-7 6 19 -0.5206 -0.0058
-7 6 20 1.2165 -0.0036
-7 6 21 1.0750 0.0016
-7 6 22 -1.2445 -0.0009
-7 6 23 -1.4476 -0.0007
-7 6 24 1.0296 0.0067
-7 6 25 1.4518 -0.0016
-7 6 26 -0.4915 -0.0063
-7 6 27 -0.9286 0.0066
-7 6 28 0.0738 0.0011
-7 6 29 0.4082 -0.0070
-7 6 30 0.0050 0.0038
-7 6 31 -0.3253 0.0009
-7 6 32 0.0060 -0.0081
-7 7 1 -2.6829 0.0005
-7 7 2 0.8456 0.0025
-7 7 3 2.2647 -0.0021
-7 7 4 -1.4036 -0.0045
-7 7 5 -1.8871 0.0038
-7 7 6 1.7914 0.0033
-7 7 7 1.6295 -0.0023
-7 7 8 -2.0970 -0.0005
-7 7 9 -0.8528 0.0008
-7 7 10 2.4348 -0.0040
-7 7 11 -0.4475 -0.0027
-7 7 12 -2.7793 0.0079
-7 7 13 1.2483 0.0029
-7 7 14 2.8424 -0.0071
-7 7 15 -0.9418 0.0024
-7 7 16 -2.3898 0.0032
-7 7 17 0.1427 -0.0069
-7 7 18 1.6427 -0.0014
-7 7 19 0.4483 0.0063
-7 7 20 -1.0334 0.0000
-7 7 21 -0.9502 -0.0063
-7 7 22 0.6568 0.0049
-7 7 23 1.4984 0.0089
-7 7 24 -0.3294 -0.0088
-7 7 25 -1.6170 -0.0074
-7 7 27 1.0898 0.0013
-7 7 28 -0.0106 -0.0002
-7 7 29 -0.4836 0.0016
-7 7 30 0.1445 -0.0040
-7 8 1 2.4270 -0.0003
-7 8 2 -0.6816 -0.0041
-7 8 3 -2.2861 0.0049
-7 8 4 0.8075 0.0050
-7 8 5 2.2056 -0.0071
-7 8 6 -0.9067 -0.0030
-7 8 7 -2.0789 0.0050
-7 8 8 1.3448 0.0012
-7 8 9 1.4274 -0.0039
-7 8 10 -2.0340 0.0008
-7 8 11 -0.4616 0.0062
-7 8 12 2.5105 -0.0031
-7 8 13 0.0133 -0.0053
-7 8 14 -2.4599 0.0020
-7 8 15 -0.2398 -0.0027
-7 8 16 1.9718 0.0018
-7 8 17 0.4340 0.0103
-7 8 18 -1.3061 -0.0032
-7 8 19 -0.3035 -0.0127
-7 8 20 0.6049 0.0027
-7 8 21 0.3610 0.0145
-7 8 22 0.0545 -0.0038
-7 8 23 -0.7997 -0.0169
-7 9 1 -2.1401 -0.0007
-7 9 2 0.5537 0.0050
-7 9 3 2.1138 -0.0068
-7 9 4 -0.5608 -0.0028
-7 9 5 -2.1307 0.0102
-7 9 6 0.4442 0.0002
-7 9 7 2.0128 -0.0075
-7 9 8 -0.7404 -0.0015
-7 9 9 -1.4576 0.0054
-7 9 10 1.2984 0.0027
-7 9 11 0.7761 -0.0066
-7 9 12 -1.5121 -0.0002
-7 9 13 -0.5658 0.0041
-7 9 14 1.2447 -0.0016
-7 9 15 0.7050 0.0061
-7 9 16 -0.9086 -0.0001
-7 9 17 -0.5257 -0.0155
-7 9 18 0.6925 0.0006
-7 9 19 -0.0475 0.0174
-7 9 20 -0.3380 0.0015
-7 9 21 0.3845 -0.0163
-7 9 22 -0.2208 -0.0018
-7 9 23 -0.1993 0.0155
-7 9 24 0.5770 0.0004
-7 10 1 1.5643 0.0039
-7 10 2 -0.4330 -0.0086
-7 10 3 -1.7267 0.0056
-7 10 4 0.4052 0.0030
-7 10 5 1.8619 -0.0109
-7 10 6 -0.1263 0.0011
-7 10 7 -1.7515 0.0095
-7 10 8 0.2000 0.0012
-7 10 9 1.2074 -0.0078
-7 10 10 -0.5172 -0.0024
-7 10 11 -0.5531 0.0096
-7 10 12 0.5249 -0.0030
-7 10 13 0.2741 -0.0079
-7 10 14 -0.2374 0.0083
-7 10 15 -0.2976 -0.0020
-7 10 16 0.1729 -0.0073
-7 10 17 0.1461 0.0115
-7 10 18 -0.3958 0.0052
-7 11 1 -0.8353 -0.0091
-7 11 2 0.2890 0.0099
-7 11 3 1.0453 -0.0000
-7 11 4 -0.0993 -0.0035
-7 11 5 -1.1788 0.0079
-7 11 6 -0.3266 -0.0004
-7 11 9 -0.5981 0.0113
-7 11 10 -0.1187 0.0035
-7 11 11 0.0262 -0.0154
-6 0 2 -17.9718 0.0220
-6 0 4 17.7299 -0.0390
-6 0 6 -14.8035 0.0179
-6 0 8 11.0517 0.0114
-6 0 10 -7.3802 0.0004
-6 0 12 4.3686 -0.0265
-6 0 14 -3.1969 0.0210
-6 0 16 3.5136 -0.0009
-6 0 18 -3.3109 -0.0026
-6 0 20 2.0494 0.0005
-6 0 22 -1.0402 -0.0066
-6 0 24 0.8079 0.0084
-6 0 26 -0.8361 -0.0030
-6 0 28 1.0955 0.0035
-6 0 30 -1.5156 -0.0084
-6 0 32 1.2698 0.0079
-6 0 34 -0.2392 -0.0064
-6 0 36 -0.4249 0.0095
-6 1 1 -1.2845 0.0087
-6 1 2 15.0155 -0.0080
-6 1 3 1.5665 -0.0055
-6 1 4 -14.5736 0.0314
-6 1 5 -1.8441 0.0004
-6 1 6 11.9581 -0.0205
-6 1 7 2.0449 0.0010
-6 1 8 -8.9304 -0.0021
-6 1 9 -1.7403 0.0055
-6 1 10 6.1937 -0.0067
-6 1 11 0.6315 -0.0123
-6 1 12 -4.0233 0.0240
-6 1 13 0.8717 0.0102
-6 1 14 3.2991 -0.0122
-6 1 15 -1.9526 -0.0028
-6 1 16 -3.6414 -0.0088
-6 1 17 2.1128 -0.0005
-6 1 18 3.2724 0.0093
-6 1 19 -1.4636 -0.0008
-6 1 20 -1.8477 -0.0016
-6 1 21 0.5806 0.0010
-6 1 22 0.7491 0.0019
-6 1 23 -0.0607 0.0011
-6 1 24 -0.5505 -0.0017
-6 1 25 -0.0540 -0.0034
-6 1 26 0.7145 -0.0019
-6 1 27 0.2267 0.0040
-6 1 28 -1.0685 -0.0005
-6 1 29 -0.6190 -0.0025
-6 1 30 1.4737 0.0048
-6 1 31 0.8128 0.0005
-6 1 32 -1.2288 -0.0016
-6 1 33 -0.5699 -0.0019
-6 1 34 0.3052 -0.0045
-6 1 35 0.2446 0.0075
-6 1 36 0.2594 0.0070
-6 2 1 0.2265 -0.0002
-6 2 2 -8.9147 -0.0097
-6 2 3 -0.5098 0.0041
-6 2 4 8.0199 -0.0173
-6 2 5 1.0246 -0.0037
-6 2 6 -5.9852 0.0183
-6 2 7 -1.6175 0.0030
-6 2 8 4.3585 -0.0072
-6 2 9 1.6130 -0.0085
-6 2 10 -3.4588 0.0131
-6 2 11 -0.4841 0.0131
-6 2 12 2.9599 -0.0186
-6 2 13 -1.3563 -0.0071
-6 2 14 -3.1213 0.0017
-6 2 15 2.8995 -0.0029
-6 2 16 3.5470 0.0156
-6 2 17 -3.3862 0.0054
-6 2 18 -2.9743 -0.0112
-6 2 19 2.7183 -0.0022
-6 2 20 1.3873 -0.0002
-6 2 21 -1.5258 0.0003
-6 2 22 -0.1929 0.0031
-6 2 23 0.6952 0.0002
-6 2 24 0.0484 -0.0036
-6 2 25 -0.3758 -0.0010
-6 2 26 -0.4196 0.0040
-6 2 27 -0.0806 -0.0001
-6 2 28 0.8517 0.0000
-6 2 29 0.8500 0.0023
-6 2 30 -1.0998 -0.0022
-6 2 31 -1.2187 -0.0024
-6 2 32 0.8177 -0.0047
-6 2 33 0.8467 0.0016
-6 2 34 -0.2015 0.0141
-6 2 35 -0.3553 -0.0032
-6 3 1 2.0205 -0.0098
-6 3 2 4.5035 0.0105
-6 3 3 -1.8920 -0.0013
-6 3 4 -3.2673 0.0061
-6 3 5 1.3869 0.0049
-6 3 6 1.6572 -0.0083
-6 3 7 -0.7361 -0.0037
-6 3 8 -0.9771 0.0052
-6 3 9 0.4325 0.0056
-6 3 10 1.2827 -0.0107
-6 3 11 -0.8685 -0.0057
-6 3 12 -1.8391 0.0114
-6 3 13 1.9372 -0.0024
-6 3 14 2.4597 0.0020
-6 3 15 -3.1568 0.0103
-6 3 16 -2.8880 -0.0112
-6 3 17 3.8893 -0.0086
-6 3 18 2.3951 0.0049
-6 3 19 -3.6323 0.0027
-6 3 20 -1.0588 0.0028
-6 3 21 2.6311 0.0001
-6 3 22 0.0198 -0.0035
-6 3 23 -1.7616 -0.0019
-6 3 24 0.0548 0.0030
-6 3 25 1.3125 0.0037
-6 3 26 0.3943 -0.0023
-6 3 27 -0.7038 -0.0012
-6 3 28 -0.6998 -0.0009
-6 3 29 -0.1745 -0.0033
-6 3 30 0.5793 0.0005
-6 3 31 0.5693 0.0029
-6 3 32 -0.1549 0.0070
-6 3 33 -0.2488 0.0015
-6 3 34 -0.1199 -0.0144
-6 3 35 -0.0613 -0.0038
-6 4 1 -2.6230 0.0034
-6 4 2 -3.0819 -0.0035
-6 4 3 2.4507 0.0042
-6 4 4 1.8744 -0.0005
-6 4 5 -2.2072 -0.0022
-6 4 6 -0.6788 0.0001
-6 4 7 2.1959 -0.0039
-6 4 8 0.4729 -0.0018
-6 4 9 -2.3086 0.0052
-6 4 10 -1.1273 0.0079
-6 4 11 2.3527 -0.0051
-6 4 12 1.7729 -0.0081
-6 4 13 -2.4972 0.0085
-6 4 14 -2.1238 0.0010
-6 4 15 3.0696 -0.0089
-6 4 16 2.2552 0.0018
-6 4 17 -3.7919 0.0034
-6 4 18 -1.9096 0.0015
-6 4 19 3.8611 0.0002
-6 4 20 1.0497 -0.0020
-6 4 21 -3.1367 0.0010
-6 4 22 -0.3602 -0.0002
-6 4 23 2.3831 -0.0005
-6 4 24 0.4356 0.0001
-6 4 25 -1.9687 -0.0017
-6 4 26 -0.9634 -0.0001
-6 4 27 1.4623 0.0004
-6 4 28 1.1510 0.0021
-6 4 29 -0.8232 0.0021
-6 4 30 -0.6921 -0.0013
-6 4 31 0.6225 0.0004
-6 4 32 0.0727 -0.0031
-6 4 33 -0.8262 -0.0053
-6 4 34 0.0747 0.0057
-6 5 1 1.3579 0.0065
-6 5 2 2.4331 0.0002
-6 5 3 -0.9481 -0.0072
-6 5 4 -1.5058 0.0002
-6 5 5 0.9069 -0.0006
-6 5 6 0.8966 -0.0001
-6 5 7 -1.6109 0.0082
-6 5 8 -1.1497 0.0029
-6 5 9 2.3635 -0.0085
-6 5 10 1.9138 -0.0061
-6 5 11 -2.3934 0.0060
-6 5 12 -2.3239 0.0042
-6 5 13 2.0529 -0.0042
-6 5 14 2.1847 -0.0008
-6 5 15 -2.2573 0.0003
-6 5 16 -1.8966 0.0014
-6 5 17 2.9638 0.0038
-6 5 18 1.5483 -0.0024
-6 5 19 -3.2300 -0.0012
-6 5 20 -1.0007 0.0000
-6 5 21 2.7578 -0.0045
-6 5 22 0.5821 0.0012
-6 5 23 -2.1872 0.0044
-6 5 24 -0.8036 0.0003
-6 5 25 1.8210 -0.0002
-6 5 26 1.4519 0.0008
-6 5 27 -1.3704 -0.0012
-6 5 28 -1.6869 -0.0050
-6 5 29 0.9523 0.0017
-6 5 30 1.1622 0.0065
-6 5 31 -0.9760 -0.0049
-6 5 32 -0.4807 -0.0051
-6 6 1 -0.4372 -0.0073
-6 6 2 -1.3102 0.0016
-6 6 3 -0.0304 0.0055
-6 6 4 0.6825 -0.0023
-6 6 5 0.0678 0.0008
-6 6 6 -0.5378 0.0010
-6 6 7 0.7316 -0.0040
-6 6 8 1.0177 -0.0000
-6 6 9 -1.4848 0.0018
-6 6 10 -1.6888 -0.0018
-6 6 11 1.3315 0.0004
-6 6 12 1.9120 0.0048
-6 6 13 -0.8299 -0.0016
-6 6 14 -1.6449 -0.0041
-6 6 15 1.0507 0.0045
-6 6 16 1.3316 -0.0008
-6 6 17 -1.8719 -0.0053
-6 6 18 -1.1016 0.0033
-6 6 19 2.3258 -0.0001
-6 6 20 0.7618 -0.0019
-6 6 21 -2.1733 0.0052
-6 6 22 -0.4771 0.0019
-6 6 23 1.8933 -0.0028
-6 6 24 0.6744 -0.0018
-6 6 25 -1.5435 -0.0020
-6 6 26 -1.2175 -0.0038
-6 6 27 0.9203 0.0033
-6 6 28 1.4038 0.0113
-6 6 29 -0.4068 -0.0036
-6 6 30 -0.9628 -0.0136
-6 6 31 0.4323 0.0051
-6 7 1 0.7236 0.0036
-6 7 2 0.4685 -0.0037
-6 7 3 -0.4701 -0.0005
-6 7 4 -0.1465 0.0030
-6 7 5 0.4291 -0.0025
-6 7 6 0.1362 0.0016
-6 7 7 -0.9348 0.0007
-6 7 8 -0.3161 -0.0061
-6 7 9 1.2380 0.0029
-6 7 10 0.4761 0.0093
-6 7 11 -0.7749 -0.0030
-6 7 12 -0.5122 -0.0097
-6 7 13 0.2557 0.0021
-6 7 14 0.5584 0.0043
-6 7 15 -0.5418 -0.0042
-6 7 16 -0.7534 0.0040
-6 7 17 1.2888 0.0050
-6 7 18 0.9384 -0.0074
-6 7 19 -1.6939 -0.0012
-6 7 20 -0.8852 0.0053
-6 7 21 1.7709 -0.0013
-6 7 22 0.7223 -0.0030
-6 7 23 -1.8481 -0.0014
-6 7 24 -0.7376 -0.0010
-6 7 25 1.6432 0.0032
-6 7 26 0.8419 0.0098
-6 7 27 -0.9129 -0.0011
-6 7 28 -0.6768 -0.0172
-6 7 29 0.2177 -0.0000
-6 7 30 0.2334 0.0164
-6 8 1 -1.2261 -0.0001
-6 8 2 -0.0171 0.0027
-6 8 3 1.1701 -0.0050
-6 8 4 0.0498 -0.0012
-6 8 5 -1.2094 0.0059
-6 8 6 -0.1502 -0.0039
-6 8 7 1.5266 -0.0005
-6 8 8 -0.0047 0.0070
-6 8 9 -1.5420 -0.0046
-6 8 10 0.3221 -0.0073
-6 8 11 0.9810 0.0038
-6 8 12 -0.3396 0.0058
-6 8 13 -0.5140 -0.0021
-6 8 14 -0.1741 -0.0004
-6 8 15 0.6545 0.0046
-6 8 16 0.9045 -0.0070
-6 8 17 -0.9513 -0.0065
-6 8 18 -1.3718 0.0094
-6 8 19 0.9519 0.0035
-6 8 20 1.4581 -0.0056
-6 8 21 -0.9966 -0.0004
-6 8 22 -1.3721 0.0011
-6 8 23 1.3372 0.0001
-6 8 24 1.2131 0.0039
-6 8 26 -0.8639 -0.0115
-6 8 27 0.9613 -0.0050
-6 9 1 1.4949 -0.0037
-6 9 2 -0.5794 0.0017
-6 9 3 -1.4904 0.0092
-6 9 4 0.2455 -0.0041
-6 9 5 1.5323 -0.0081
-6 9 6 0.1684 0.0076
-6 9 7 -1.6773 -0.0002
-6 9 8 -0.1186 -0.0065
-6 9 9 1.4926 0.0066
-6 9 10 -0.2148 0.0036
-6 9 11 -0.8802 -0.0050
-6 9 12 0.1052 -0.0032
-6 9 13 0.3796 0.0016
-6 9 14 0.6439 0.0014
-6 9 15 -0.2634 -0.0031
-6 9 16 -1.4054 0.0042
-6 9 17 0.1421 0.0049
-6 9 18 1.6389 -0.0076
-6 9 19 0.1617 -0.0015
-6 9 20 -1.5181 0.0053
-6 9 21 -0.1968 -0.0031
-6 9 22 1.3995 -0.0018
-6 10 1 -1.6073 0.0064
-6 10 2 0.8480 -0.0061
-6 10 3 1.6050 -0.0122
-6 10 4 -0.3769 0.0112
-6 10 5 -1.5073 0.0114
-6 10 6 -0.2735 -0.0141
-6 10 7 1.3412 -0.0032
-6 10 8 0.4144 0.0095
-6 10 9 -0.8618 -0.0030
-6 10 10 -0.1568 -0.0044
-6 10 11 0.1118 0.0001
-6 10 12 0.2267 0.0057
-6 10 13 0.4581 0.0051
-6 10 14 -0.7764 -0.0065
-6 10 15 -0.6382 -0.0041
-6 10 16 1.1606 0.0002
-6 10 17 0.7022 0.0009
-6 10 18 -0.9947 0.0064
-6 10 19 -0.8217 -0.0027
-6 11 1 1.1443 -0.0057
-6 11 2 -0.4377 0.0073
-6 11 3 -1.1206 0.0128
-6 11 4 -0.0026 -0.0134
-6 11 8 -0.6074 -0.0089
-6 11 9 0.0983 -0.0056
-6 11 10 0.2070 0.0034
-6 11 11 0.5241 0.0081
-5 0 2 29.6245 0.0160
-5 0 4 -21.3670 -0.0167
-5 0 8 -4.1750 -0.0346
-5 0 10 1.2489 0.0051
-5 0 12 -0.9902 0.0297
-5 0 14 2.0000 -0.0218
-5 0 16 -3.1303 -0.0054
-5 0 18 2.9389 0.0078
-5 0 20 -1.6033 0.0055
-5 0 22 0.8560 -0.0098
-5 0 24 -1.1081 0.0105
-5 0 26 1.2524 -0.0127
-5 0 28 -1.0252 0.0049
-5 0 30 0.9207 0.0112
-5 0 32 -0.6482 -0.0204
-5 0 34 -0.1111 0.0206
-5 0 36 0.6430 -0.0166
-5 1 1 7.1479 0.0028
-5 1 2 -25.3205 -0.0048
-5 1 3 -4.4118 -0.0056
-5 1 4 18.2409 -0.0036
-5 1 5 1.9663 0.0070
-5 1 6 -9.7662 -0.0043
-5 1 7 -0.4894 -0.0046
-5 1 8 3.8812 0.0184
-5 1 9 -0.3758 -0.0042
-5 1 10 -1.7952 -0.0024
-5 1 11 1.3806 0.0119
-5 1 12 1.8762 -0.0203
-5 1 13 -2.5813 -0.0089
-5 1 14 -2.8255 0.0102
-5 1 15 3.3362 -0.0008
-5 1 16 3.7037 0.0109
-5 1 17 -3.1642 0.0051
-5 1 18 -3.3205 -0.0068
-5 1 19 2.2143 -0.0017
-5 1 20 1.9370 -0.0088
-5 1 21 -1.0921 -0.0024
-5 1 22 -1.2061 0.0107
-5 1 23 0.4009 0.0031
-5 1 24 1.5024 -0.0060
-5 1 25 -0.2155 -0.0022
-5 1 26 -1.7174 0.0042
-5 1 27 0.0591 0.0018
-5 1 28 1.4882 0.0013
-5 1 29 0.3588 -0.0021
-5 1 30 -1.2362 -0.0089
-5 1 31 -0.7048 0.0018
-5 1 32 0.7924 0.0085
-5 1 33 0.6388 0.0015
-5 1 34 0.0180 -0.0024
-5 1 35 -0.3813 -0.0072
-5 1 36 -0.5376 -0.0029
-5 2 1 -9.4447 0.0064
-5 2 2 15.6852 -0.0103
-5 2 3 5.5076 -0.0114
-5 2 4 -11.0929 0.0254
-5 2 5 -2.3656 0.0106
-5 2 6 5.7836 -0.0180
-5 2 7 0.7549 -0.0064
-5 2 8 -2.6287 -0.0013
-5 2 9 0.0786 0.0076
-5 2 10 2.2453 0.0004
-5 2 11 -1.3341 -0.0105
-5 2 12 -3.0269 0.0073
-5 2 13 3.1088 0.0048
-5 2 14 3.8989 0.0032
-5 2 15 -4.4469 0.0047
-5 2 16 -4.3581 -0.0135
-5 2 17 4.5289 -0.0056
-5 2 18 3.7327 0.0022
-5 2 19 -3.3475 -0.0007
-5 2 20 -2.3771 0.0118
-5 2 21 1.6589 0.0044
-5 2 22 1.6863 -0.0085
-5 2 23 -0.4542 -0.0034
-5 2 24 -1.9946 -0.0007
-5 2 25 0.0202 0.0010
-5 2 26 2.2999 0.0038
-5 2 27 0.2832 0.0020
-5 2 28 -2.0654 -0.0043
-5 2 29 -0.8745 -0.0044
-5 2 30 1.5418 0.0019
-5 2 31 1.2367 0.0030
-5 2 32 -0.8396 0.0066
-5 2 33 -0.9196 0.0004
-5 2 34 0.0947 -0.0145
-5 2 35 0.3768 -0.0008
-5 2 36 0.2366 0.0167
-5 3 1 7.1022 -0.0144
-5 3 2 -7.1036 0.0089
-5 3 3 -3.5363 0.0251
-5 3 4 4.5623 -0.0217
-5 3 5 1.0904 -0.0217
-5 3 6 -1.8295 0.0170
-5 3 7 -0.0671 0.0093
-5 3 8 0.7862 -0.0037
-5 3 9 -0.3660 -0.0026
-5 3 10 -1.6074 0.0018
-5 3 11 1.2233 0.0017
-5 3 12 2.8477 -0.0022
-5 3 13 -2.6283 0.0021
-5 3 14 -3.6773 -0.0068
-5 3 15 3.9240 -0.0055
-5 3 16 3.9872 0.0102
-5 3 17 -4.3742 0.0008
-5 3 18 -3.5273 0.0007
-5 3 19 3.6171 0.0059
-5 3 20 2.5252 -0.0083
-5 3 21 -2.0584 -0.0055
-5 3 22 -1.9216 0.0024
-5 3 23 0.7285 0.0007
-5 3 24 2.0672 0.0042
-5 3 25 -0.1382 0.0029
-5 3 26 -2.2849 -0.0033
-5 3 27 -0.2381 -0.0062
-5 3 28 1.9804 -0.0005
-5 3 29 0.7764 0.0075
-5 3 30 -1.2379 0.0060
-5 3 31 -0.9547 -0.0020
-5 3 32 0.4575 -0.0129
-5 3 33 0.4576 -0.0068
-5 3 34 -0.0516 0.0157
-5 3 35 0.1052 0.0098
-5 4 1 -4.1326 0.0106
-5 4 2 2.7782 -0.0015
-5 4 3 1.5330 -0.0163
-5 4 4 -1.4066 0.0089
-5 4 5 0.2425 0.0088
-5 4 6 0.1412 -0.0079
-5 4 7 -1.2845 0.0035
-5 4 8 -0.1551 0.0044
-5 4 9 1.9062 -0.0068
-5 4 10 1.3481 -0.0049
-5 4 11 -2.3062 0.0031
-5 4 12 -2.5104 0.0022
-5 4 13 2.6407 -0.0014
-5 4 14 3.0862 0.0055
-5 4 15 -3.0973 0.0002
-5 4 16 -3.3172 -0.0066
-5 4 17 3.4898 0.0043
-5 4 18 3.2385 0.0003
-5 4 19 -3.2035 -0.0058
-5 4 20 -2.7883 0.0015
-5 4 21 2.1373 0.0010
-5 4 22 2.3481 0.0023
-5 4 23 -1.0968 0.0029
-5 4 24 -2.2683 -0.0020
-5 4 25 0.6320 -0.0026
-5 4 26 2.2661 -0.0027
-5 4 27 -0.3664 0.0029
-5 4 28 -1.8117 0.0057
-5 4 29 0.0443 -0.0032
-5 4 30 0.8848 -0.0069
-5 4 31 -0.0791 -0.0015
-5 4 32 -0.0931 0.0072
-5 4 33 0.5227 0.0078
-5 4 34 0.0048 -0.0043
-5 5 1 2.7912 -0.0037
-5 5 2 -1.2508 0.0026
-5 5 3 -1.1417 0.0014
-5 5 4 0.7241 -0.0063
-5 5 5 -0.3142 0.0073
-5 5 6 -0.5534 0.0056
-5 5 7 1.8447 -0.0133
-5 5 8 1.2725 -0.0044
-5 5 9 -3.0187 0.0089
-5 5 10 -2.4911 0.0034
-5 5 11 3.1322 -0.0010
-5 5 12 3.2187 0.0012
-5 5 13 -2.4160 -0.0022
-5 5 14 -3.2160 -0.0055
-5 5 15 1.9172 0.0028
-5 5 16 3.0639 0.0036
-5 5 17 -2.0014 -0.0032
-5 5 18 -3.0459 0.0002
-5 5 19 1.9453 0.0001
-5 5 20 2.9097 0.0010
-5 5 21 -1.3351 0.0039
-5 5 22 -2.6115 -0.0026
-5 5 23 0.7334 -0.0017
-5 5 24 2.4341 -0.0006
-5 5 25 -0.5493 -0.0040
-5 5 26 -2.3299 0.0035
-5 5 27 0.4835 0.0050
-5 5 28 1.8343 -0.0020
-5 5 29 -0.4455 -0.0020
-5 5 30 -0.8652 -0.0006
-5 5 31 0.7348 0.0012
-5 5 32 0.0911 0.0026
-5 5 33 -1.1191 -0.0011
-5 6 1 -1.9844 0.0029
-5 6 2 0.5012 -0.0051
-5 6 3 1.1786 0.0025
-5 6 4 -0.5979 0.0056
-5 6 5 -0.2196 -0.0092
-5 6 6 1.2044 -0.0022
-5 6 7 -1.2755 0.0100
-5 6 8 -2.3384 -0.0007
-5 6 9 2.4950 -0.0035
-5 6 10 3.4337 0.0026
-5 6 11 -2.3440 -0.0017
-5 6 12 -3.7687 -0.0044
-5 6 13 1.1910 0.0016
-5 6 14 3.3506 0.0025
-5 6 15 -0.4450 -0.0004
-5 6 16 -2.8415 0.0030
-5 6 17 0.5411 -0.0008
-5 6 18 2.5895 -0.0042
-5 6 19 -0.6563 0.0036
-5 6 20 -2.3569 -0.0010
-5 6 21 0.3505 -0.0037
-5 6 22 2.0161 0.0043
-5 6 23 -0.0702 -0.0028
-5 6 24 -1.8049 -0.0034
-5 6 25 0.0203 0.0087
-5 6 26 1.7283 0.0044
-5 6 27 0.0519 -0.0066
-5 6 28 -1.3743 -0.0077
-5 6 29 -0.0043 0.0002
-5 6 30 0.6402 0.0082
-5 6 31 -0.4485 0.0038
-5 7 1 0.8093 -0.0025
-5 7 2 -0.2750 0.0023
-5 7 3 -0.5449 -0.0023
-5 7 4 0.5358 -0.0003
-5 7 5 0.1492 0.0053
-5 7 6 -1.1947 -0.0045
-5 7 7 0.7917 -0.0022
-5 7 8 2.0801 0.0068
-5 7 9 -1.5009 -0.0033
-5 7 10 -2.7942 -0.0055
-5 7 11 1.0469 0.0037
-5 7 12 3.0390 0.0022
-5 7 13 0.0300 -0.0000
-5 7 14 -2.8907 0.0039
-5 7 15 -0.4480 -0.0021
-5 7 16 2.6183 -0.0092
-5 7 17 0.0813 0.0030
-5 7 18 -2.2794 0.0062
-5 7 19 0.1967 -0.0051
-5 7 20 1.7691 0.0032
-5 7 21 -0.1127 0.0041
-5 7 22 -1.2018 -0.0090
-5 7 23 0.0591 0.0014
-5 7 24 0.8498 0.0094
-5 7 25 -0.0091 -0.0039
-5 7 26 -0.6924 -0.0105
-5 7 27 -0.2742 -0.0005
-5 7 28 0.4326 0.0115
-5 7 29 0.4226 0.0056
-5 8 1 0.1041 -0.0005
-5 8 2 0.3908 -0.0009
-5 8 3 -0.2372 0.0032
-5 8 4 -0.6630 -0.0018
-5 8 5 0.4392 -0.0016
-5 8 6 1.0457 0.0066
-5 8 7 -0.9703 -0.0049
-5 8 8 -1.3656 -0.0070
-5 8 9 1.1717 0.0092
-5 8 10 1.5937 0.0032
-5 8 11 -0.4534 -0.0054
-5 8 12 -1.9290 0.0012
-5 8 13 -0.5182 -0.0019
-5 8 14 2.4139 -0.0061
-5 8 15 0.7317 0.0055
-5 8 16 -2.7042 0.0096
-5 8 17 -0.3091 -0.0070
-5 8 18 2.4317 -0.0059
-5 8 19 0.0015 0.0096
-5 8 20 -1.6933 -0.0032
-5 8 21 0.1154 -0.0096
-5 8 22 0.9506 0.0083
-5 8 23 -0.3299 0.0056
-5 8 24 -0.4778 -0.0075
-5 8 25 0.3918 -0.0037
-5 8 26 0.1614 0.0067
-5 8 27 -0.0334 0.0057
-5 8 28 0.1392 -0.0063
-5 9 1 -0.5730 0.0007
-5 9 2 -0.2893 0.0008
-5 9 3 0.6144 -0.0006
-5 9 4 0.7832 0.0017
-5 9 5 -0.7323 -0.0036
-5 9 6 -1.1607 -0.0054
-5 9 7 1.0131 0.0106
-5 9 8 1.1705 0.0039
-5 9 9 -0.8967 -0.0120
-5 9 10 -1.0227 0.0006
-5 9 11 0.0456 0.0032
-5 9 12 1.2886 -0.0025
-5 9 13 0.8810 0.0081
-5 9 14 -2.0220 0.0044
-5 9 15 -1.1045 -0.0128
-5 9 16 2.5071 -0.0086
-5 9 17 0.7853 0.0129
-5 9 18 -2.1856 0.0090
-5 9 19 -0.4766 -0.0136
-5 9 20 1.3866 -0.0032
-5 9 21 0.1911 0.0125
-5 9 22 -0.7703 -0.0012
-5 9 24 0.4609 0.0005
-5 10 1 0.8565 0.0007
-5 10 2 0.1993 0.0033
-5 10 3 -0.6027 -0.0020
-5 10 4 -0.8171 -0.0049
-5 10 5 0.4189 0.0056
-5 10 6 1.2352 0.0061
-5 10 7 -0.3948 -0.0107
-5 10 8 -1.1009 -0.0010
-5 10 9 0.1305 0.0094
-5 10 10 0.6711 -0.0047
-5 10 11 0.5867 0.0019
-5 10 12 -0.6542 0.0041
-5 10 13 -1.2639 -0.0144
-5 10 14 1.1634 -0.0035
-5 10 15 1.3506 0.0176
-5 10 16 -1.4770 0.0091
-5 10 17 -0.9736 -0.0138
-5 10 18 1.1163 -0.0130
-5 10 19 0.5781 0.0111
-5 10 20 -0.5204 0.0083
-5 11 1 -0.6079 0.0001
-5 11 2 -0.3743 -0.0065
-5 11 3 0.1962 0.0004
-5 11 7 -0.2573 0.0057
-5 11 8 0.6575 -0.0018
-5 11 9 0.3881 -0.0053
-5 11 10 -0.0953 0.0074
-5 11 11 -0.7197 -0.0037
-4 0 2 -1.4436 -0.1030
-4 0 4 -7.3960 0.0591
-4 0 6 13.7521 -0.0205
-4 0 8 -14.0626 0.0129
-4 0 10 8.9889 0.0012
-4 0 12 -3.1280 -0.0179
-4 0 14 -0.6086 0.0056
-4 0 16 2.1929 0.0143
-4 0 18 -2.1282 -0.0035
-4 0 20 1.3558 -0.0218
-4 0 22 -1.2922 0.0292
-4 0 24 1.8572 -0.0247
-4 0 26 -1.6722 0.0203
-4 0 28 0.7030 -0.0071
-4 0 30 -0.1440 -0.0141
-4 0 32 0.0719 0.0251
-4 0 34 0.2752 -0.0199
-4 0 36 -0.7170 0.0068
-4 1 1 -4.5767 -0.0157
-4 1 2 0.2223 0.0716
-4 1 3 0.8519 0.0126
-4 1 4 7.1016 -0.0345
-4 1 5 1.4856 -0.0090
-4 1 6 -12.3336 0.0087
-4 1 7 -1.8639 0.0049
-4 1 8 12.2888 -0.0127
-4 1 9 1.0629 0.0021
-4 1 10 -7.5414 0.0067
-4 1 11 -0.4272 -0.0075
-4 1 12 2.2247 0.0084
-4 1 13 0.4762 0.0037
-4 1 14 1.1277 -0.0019
-4 1 15 -0.7064 0.0051
-4 1 16 -2.6070 -0.0110
-4 1 17 0.5660 -0.0070
-4 1 18 2.6679 0.0001
-4 1 19 -0.0791 -0.0004
-4 1 20 -2.0790 0.0177
-4 1 21 -0.3479 0.0080
-4 1 22 2.0774 -0.0158
-4 1 23 0.3526 -0.0098
-4 1 24 -2.5924 0.0059
-4 1 25 0.0118 0.0076
-4 1 26 2.3635 -0.0034
-4 1 27 -0.2522 -0.0046
-4 1 28 -1.3296 -0.0004
-4 1 29 0.0286 0.0018
-4 1 30 0.5771 0.0098
-4 1 31 0.3710 0.0003
-4 1 32 -0.2513 -0.0140
-4 1 33 -0.4968 -0.0023
-4 1 34 -0.2323 0.0100
-4 1 35 0.3834 0.0033
-4 1 36 0.6788 -0.0037
-4 1 37 -0.3112 -0.0001
-4 2 1 6.2581 -0.0013
-4 2 2 2.5862 -0.0233
-4 2 3 -1.3058 0.0033
-4 2 4 -6.8639 0.0039
-4 2 5 -1.3986 -0.0002
-4 2 6 9.9159 -0.0002
-4 2 7 1.3614 -0.0059
-4 2 8 -9.3621 0.0165
-4 2 9 0.0910 0.0052
-4 2 10 5.5458 -0.0167
-4 2 11 -1.0487 0.0005
-4 2 12 -1.5118 0.0023
-4 2 13 0.9021 0.0001
-4 2 14 -1.0415 -0.0005
-4 2 15 -0.4465 -0.0055
-4 2 16 2.4188 0.0035
-4 2 17 0.4850 0.0042
-4 2 18 -2.9207 0.0061
-4 2 19 -1.0486 0.0032
-4 2 20 2.8717 -0.0122
-4 2 21 1.6175 -0.0063
-4 2 22 -3.0645 0.0003
-4 2 23 -1.6045 0.0029
-4 2 24 3.4977 0.0115
-4 2 25 0.9745 0.0009
-4 2 26 -3.2661 -0.0084
-4 2 27 -0.4413 -0.0028
-4 2 28 2.2534 0.0016
-4 2 29 0.5492 0.0031
-4 2 30 -1.2351 -0.0005
-4 2 31 -0.8790 -0.0008
-4 2 32 0.4842 0.0008
-4 2 33 0.8040 -0.0025
-4 2 34 0.1757 -0.0018
-4 2 35 -0.4729 0.0029
-4 2 36 -0.5433 0.0043
-4 3 1 -4.6970 0.0206
-4 3 2 -4.8694 -0.0004
-4 3 3 0.7362 -0.0172
-4 3 4 6.9782 0.0104
-4 3 5 0.9184 0.0042
-4 3 6 -8.5925 -0.0055
-4 3 7 -0.3306 0.0106
-4 3 8 8.0538 -0.0103
-4 3 9 -1.1578 -0.0125
-4 3 10 -5.4639 0.0122
-4 3 11 2.0869 0.0033
-4 3 12 2.7601 -0.0039
-4 3 13 -2.1185 0.0025
-4 3 14 -0.8720 0.0026
-4 3 15 1.8230 -0.0024
-4 3 16 -0.6182 -0.0022
-4 3 17 -1.7331 0.0045
-4 3 18 1.7902 -0.0048
-4 3 19 2.0215 -0.0062
-4 3 20 -2.4258 0.0047
-4 3 21 -2.4741 0.0005
-4 3 22 2.7907 0.0073
-4 3 23 2.5230 0.0078
-4 3 24 -3.0521 -0.0130
-4 3 25 -1.9377 -0.0100
-4 3 26 2.8620 0.0048
-4 3 27 1.3183 0.0070
-4 3 28 -2.0967 0.0040
-4 3 29 -1.1904 -0.0024
-4 3 30 1.1184 -0.0051
-4 3 31 1.1551 -0.0038
-4 3 32 -0.2624 0.0019
-4 3 33 -0.7262 0.0086
-4 3 34 -0.2651 0.0033
-4 3 35 0.2280 -0.0059
-4 3 36 0.3409 -0.0081
-4 4 1 2.1966 -0.0140
-4 4 2 4.9679 0.0043
-4 4 3 0.4719 0.0105
-4 4 4 -6.1797 -0.0111
-4 4 5 -1.3936 -0.0000
-4 4 6 7.1875 0.0066
-4 4 7 1.0698 -0.0092
-4 4 8 -6.8948 0.0030
-4 4 9 -0.2803 0.0058
-4 4 10 5.3442 -0.0055
-4 4 11 -0.5663 0.0049
-4 4 12 -3.7077 0.0050
-4 4 13 1.3650 -0.0091
-4 4 14 2.3870 -0.0070
-4 4 15 -1.8756 0.0069
-4 4 16 -0.8930 0.0049
-4 4 17 1.9313 -0.0054
-4 4 18 -0.7138 0.0016
-4 4 19 -1.8844 0.0024
-4 4 20 1.7668 -0.0015
-4 4 21 2.0743 0.0052
-4 4 22 -2.0566 -0.0040
-4 4 23 -2.1580 -0.0104
-4 4 24 1.9299 0.0025
-4 4 25 1.7730 0.0080
-4 4 26 -1.6217 0.0052
-4 4 27 -1.2834 -0.0031
-4 4 28 1.0875 -0.0076
-4 4 29 1.0445 -0.0002
-4 4 30 -0.3423 0.0025
-4 4 31 -0.7351 0.0041
-4 4 32 -0.3020 0.0039
-4 4 33 0.1682 -0.0064
-4 4 34 0.4483 -0.0083
-4 4 35 0.2021 0.0018
-4 5 1 -0.9467 -0.0027
-4 5 2 -3.3809 -0.0063
-4 5 3 -0.9370 0.0040
-4 5 4 3.9288 0.0075
-4 5 5 1.7878 -0.0070
-4 5 6 -4.2739 -0.0015
-4 5 7 -2.2282 0.0061
-4 5 8 3.8925 -0.0049
-4 5 9 2.2974 0.0023
-4 5 10 -2.9971 0.0069
-4 5 11 -1.4216 -0.0099
-4 5 12 2.3052 -0.0078
-4 5 13 -0.2990 0.0083
-4 5 14 -1.8066 0.0073
-4 5 15 1.6991 -0.0029
-4 5 16 0.8511 -0.0016
-4 5 17 -1.9841 0.0008
-4 5 18 0.5522 -0.0040
-4 5 19 1.7024 0.0007
-4 5 20 -1.5506 0.0029
-4 5 21 -1.6179 -0.0032
-4 5 22 1.6296 -0.0007
-4 5 23 1.5713 0.0024
-4 5 24 -1.1837 0.0045
-4 5 25 -1.2078 0.0011
-4 5 26 0.7686 -0.0083
-4 5 27 0.7722 -0.0010
-4 5 28 -0.3947 0.0047
-4 5 29 -0.4525 -0.0020
-4 5 30 -0.1216 0.0024
-4 5 31 0.0050 0.0022
-4 5 32 0.5276 -0.0068
-4 5 33 0.4702 -0.0009
-4 6 1 0.8252 0.0080
-4 6 2 1.8697 0.0056
-4 6 3 0.3829 -0.0104
-4 6 4 -1.7565 -0.0032
-4 6 5 -1.0757 0.0110
-4 6 6 1.3559 -0.0028
-4 6 7 1.8710 -0.0063
-4 6 8 -0.6571 0.0058
-4 6 9 -2.3608 -0.0022
-4 6 10 0.0952 -0.0047
-4 6 11 1.5035 0.0059
-4 6 12 -0.1101 0.0029
-4 6 13 0.4805 -0.0024
-4 6 14 0.4174 0.0005
-4 6 15 -1.9943 -0.0008
-4 6 16 -0.2819 -0.0053
-4 6 17 2.1801 -0.0002
-4 6 18 -0.4084 0.0052
-4 6 19 -1.8126 0.0017
-4 6 20 0.9563 0.0008
-4 6 21 1.6972 -0.0025
-4 6 22 -0.8753 -0.0028
-4 6 23 -1.5988 0.0046
-4 6 24 0.4944 -0.0023
-4 6 25 1.2133 -0.0043
-4 6 26 -0.2952 0.0052
-4 6 27 -0.7933 -0.0018
-4 6 28 0.2011 -0.0015
-4 6 29 0.4075 0.0076
-4 6 30 0.0519 -0.0025
-4 6 31 0.1439 -0.0070
-4 7 1 -0.5702 -0.0059
-4 7 2 -1.0877 -0.0009
-4 7 3 -0.0643 0.0085
-4 7 4 0.8113 0.0001
-4 7 5 0.3987 -0.0080
-4 7 6 -0.1632 0.0021
-4 7 7 -0.9755 0.0026
-4 7 8 -0.6338 -0.0009
-4 7 9 1.3240 0.0036
-4 7 10 1.0855 -0.0028
-4 7 11 -0.5080 -0.0039
-4 7 12 -0.9417 0.0048
-4 7 13 -1.0724 -0.0001
-4 7 14 0.4862 -0.0058
-4 7 15 1.9541 0.0012
-4 7 16 -0.1850 0.0055
-4 7 17 -1.7290 0.0006
-4 7 18 0.1091 0.0002
-4 7 19 1.3840 -0.0011
-4 7 20 0.0321 -0.0079
-4 7 21 -1.4854 0.0012
-4 7 22 -0.3227 0.0073
-4 7 23 1.5663 -0.0023
-4 7 24 0.4778 0.0011
-4 7 25 -1.3586 0.0001
-4 7 26 -0.3308 -0.0056
-4 7 27 1.1304 0.0061
-4 7 28 0.1160 0.0029
-4 7 29 -0.8329 -0.0087
-4 8 1 -0.0857 0.0027
-4 8 2 0.3271 0.0002
-4 8 3 0.5425 -0.0026
-4 8 4 -0.2408 0.0000
-4 8 5 -0.7284 0.0002
-4 8 6 -0.1475 -0.0013
-4 8 7 0.9695 0.0046
-4 8 8 0.6482 -0.0006
-4 8 9 -0.8854 -0.0068
-4 8 10 -0.9396 0.0039
-4 8 11 -0.0546 0.0023
-4 8 12 0.9961 -0.0040
-4 8 13 1.2268 0.0040
-4 8 14 -0.9455 0.0024
-4 8 15 -1.4832 -0.0054
-4 8 16 0.7259 -0.0012
-4 8 17 0.8979 0.0039
-4 8 18 -0.1813 -0.0024
-4 8 19 -0.5408 -0.0039
-4 8 20 -0.5526 0.0066
-4 8 21 0.7430 0.0031
-4 8 22 1.0537 -0.0033
-4 8 23 -0.9373 -0.0005
-4 8 24 -1.0739 -0.0059
-4 8 25 0.9225 0.0008
-4 8 26 0.7835 0.0096
-4 8 27 -0.9394 -0.0043
-4 9 1 0.4469 0.0035
-4 9 2 0.7277 -0.0044
-4 9 3 -0.7996 -0.0045
-4 9 4 -0.7432 0.0023
-4 9 5 0.9956 0.0052
-4 9 6 0.7840 0.0011
-4 9 7 -1.1165 -0.0059
-4 9 8 -0.7572 -0.0004
-4 9 9 0.8092 0.0027
-4 9 10 0.6213 -0.0023
-4 9 11 0.1612 0.0059
-4 9 12 -0.6459 0.0011
-4 9 13 -1.0852 -0.0130
-4 9 14 0.8963 0.0006
-4 9 15 1.0768 0.0120
-4 9 16 -0.9052 0.0018
-4 9 17 -0.3907 -0.0068
-4 9 18 0.3063 -0.0035
-4 9 19 -0.0227 0.0035
-4 9 20 0.5213 0.0014
-4 9 21 -0.0668 -0.0007
-4 9 22 -0.9110 -0.0022
-4 9 23 0.1951 -0.0030
-4 9 24 0.7686 0.0080
-4 9 25 -0.2273 0.0035
-4 10 1 -0.1574 -0.0095
-4 10 2 -1.3650 0.0078
-4 10 3 0.1537 0.0092
-4 10 4 1.3515 -0.0063
-4 10 5 -0.2900 -0.0064
-4 10 6 -1.1659 0.0032
-4 10 7 0.5423 0.0031
-4 10 8 0.7587 -0.0048
-4 10 9 -0.5034 0.0025
-4 10 10 -0.2574 0.0073
-4 10 11 -0.0653 -0.0112
-4 10 12 0.1045 -0.0041
-4 10 13 0.6467 0.0164
-4 10 14 -0.3848 0.0008
-4 10 15 -0.5866 -0.0119
-4 10 16 0.5345 -0.0044
-4 10 17 0.0472 0.0026
-4 10 18 -0.1601 0.0081
-4 10 19 0.2948 0.0026
-4 11 1 -0.3205 0.0104
-4 11 2 1.0764 -0.0089
-4 11 6 0.7091 -0.0078
-4 11 7 0.0286 -0.0047
-4 11 8 -0.3449 0.0101
-4 11 9 0.3191 0.0009
-4 11 10 -0.0670 -0.0115
-3 0 2 -31.9927 0.0260
-3 0 6 -27.7893 -0.0733
-3 0 8 20.7384 0.0207
-3 0 10 -11.7131 0.0217
-3 0 12 5.0785 -0.0195
-3 0 14 -2.4818 0.0114
-3 0 16 1.8868 -0.0093
-3 0 18 -1.5326 -0.0073
-3 0 20 0.9992 0.0272
-3 0 22 0.0071 -0.0269
-3 0 24 -1.0037 0.0179
-3 0 26 0.7873 -0.0153
-3 0 28 0.3791 0.0082
-3 0 30 -0.9000 0.0071
-3 0 32 0.4925 -0.0133
-3 0 34 -0.2509 0.0040
-3 0 36 0.4241 0.0082
-3 1 1 -2.0131 -0.0022
-3 1 2 29.2670 -0.0275
-3 1 3 3.7952 0.0048
-3 1 4 -28.4036 -0.0377
-3 1 5 -4.0193 -0.0036
-3 1 6 25.2901 0.0529
-3 1 7 2.3946 0.0000
-3 1 8 -19.1058 -0.0079
-3 1 9 0.1825 0.0008
-3 1 10 11.0853 -0.0230
-3 1 11 -2.1828 0.0004
-3 1 12 -5.0992 0.0128
-3 1 13 2.8619 0.0023
-3 1 14 2.6008 -0.0019
-3 1 15 -2.6813 -0.0076
-3 1 16 -1.7595 0.0030
-3 1 17 2.3568 0.0068
-3 1 18 1.1157 0.0047
-3 1 19 -2.0907 0.0016
-3 1 20 -0.4478 -0.0145
-3 1 21 1.7111 -0.0086
-3 1 22 -0.4910 0.0093
-3 1 23 -1.0572 0.0087
-3 1 24 1.3653 -0.0023
-3 1 25 0.2303 -0.0044
-3 1 26 -1.1585 0.0063
-3 1 27 0.3524 0.0003
-3 1 28 0.0826 -0.0066
-3 1 29 -0.3574 0.0021
-3 1 30 0.4803 -0.0047
-3 1 31 -0.0012 -0.0021
-3 1 32 -0.2648 0.0128
-3 1 33 0.2358 0.0004
-3 1 34 0.1620 -0.0101
-3 1 35 -0.2228 0.0016
-3 1 36 -0.3223 0.0039
-3 1 37 0.1687 -0.0043
-3 2 1 3.0299 0.0002
-3 2 2 -23.0502 0.0285
-3 2 3 -5.0876 0.0021
-3 2 4 22.3359 0.0078
-3 2 5 4.8722 -0.0069
-3 2 6 -20.5356 -0.0139
-3 2 7 -2.1196 0.0130
-3 2 8 16.6207 -0.0134
-3 2 9 -1.8400 -0.0119
-3 2 10 -11.0690 0.0213
-3 2 11 4.8780 0.0039
-3 2 12 6.5963 -0.0002
-3 2 13 -5.9954 -0.0003
-3 2 14 -4.2217 -0.0115
-3 2 15 5.7967 0.0031
-3 2 16 2.6364 0.0053
-3 2 17 -5.1911 -0.0026
-3 2 18 -1.1109 -0.0017
-3 2 19 4.4949 -0.0025
-3 2 20 -0.0775 -0.0007
-3 2 21 -3.6284 0.0037
-3 2 22 1.0180 0.0095
-3 2 23 2.4550 0.0002
-3 2 24 -1.7166 -0.0108
-3 2 25 -1.0906 -0.0024
-3 2 26 1.6341 -0.0013
-3 2 27 0.1176 0.0014
-3 2 28 -0.8657 0.0079
-3 2 29 -0.0241 -0.0007
-3 2 30 0.2553 0.0008
-3 2 31 0.4597 0.0001
-3 2 32 -0.0259 -0.0118
-3 2 33 -0.6946 0.0008
-3 2 34 -0.1971 0.0157
-3 2 35 0.6056 -0.0005
-3 2 36 0.3243 -0.0148
-3 2 37 -0.5213 -0.0007
-3 3 1 -3.4955 0.0062
-3 3 2 16.4107 -0.0120
-3 3 3 4.8578 -0.0158
-3 3 4 -16.7093 -0.0040
-3 3 5 -4.1363 0.0222
-3 3 6 16.8087 0.0021
-3 3 7 1.3677 -0.0237
-3 3 8 -15.5094 0.0140
-3 3 9 2.2842 0.0135
-3 3 10 12.6400 -0.0128
-3 3 11 -5.2200 0.0031
-3 3 12 -9.7585 -0.0037
-3 3 13 6.7031 -0.0105
-3 3 14 7.4662 0.0088
-3 3 15 -6.9847 0.0062
-3 3 16 -5.0336 -0.0013
-3 3 17 6.4895 -0.0014
-3 3 18 2.4775 -0.0035
-3 3 19 -5.5528 -0.0012
-3 3 20 -0.6107 0.0074
-3 3 21 4.4817 0.0064
-3 3 22 -0.4187 -0.0132
-3 3 23 -3.3206 -0.0103
-3 3 24 0.9828 0.0094
-3 3 25 2.0484 0.0061
-3 3 26 -1.1430 0.0035
-3 3 27 -1.0913 0.0018
-3 3 28 0.8904 -0.0077
-3 3 29 0.8759 -0.0048
-3 3 30 -0.4189 -0.0019
-3 3 31 -1.0466 0.0033
-3 3 32 -0.1330 0.0124
-3 3 33 0.9870 -0.0004
-3 3 34 0.5803 -0.0158
-3 3 35 -0.7441 -0.0043
-3 3 36 -0.6069 0.0132
-3 4 1 3.7180 -0.0056
-3 4 2 -10.3028 -0.0050
-3 4 3 -4.6478 0.0095
-3 4 4 11.6193 0.0093
-3 4 5 4.0319 -0.0104
-3 4 6 -13.0616 -0.0017
-3 4 7 -2.2613 0.0081
-3 4 8 13.5061 -0.0097
-3 4 9 0.0009 0.0012
-3 4 10 -12.5626 0.0088
-3 4 11 2.2449 -0.0112
-3 4 12 11.0107 -0.0013
-3 4 13 -4.1636 0.0106
-3 4 14 -9.1236 0.0004
-3 4 15 5.2819 -0.0021
-3 4 16 6.5247 -0.0022
-3 4 17 -5.2046 -0.0034
-3 4 18 -3.6397 0.0009
-3 4 19 4.3047 0.0057
-3 4 20 1.5962 -0.0017
-3 4 21 -3.3962 -0.0094
-3 4 22 -0.7557 0.0045
-3 4 23 2.7057 0.0098
-3 4 24 0.4769 -0.0007
-3 4 25 -1.9973 -0.0026
-3 4 26 -0.1659 -0.0061
-3 4 27 1.4144 -0.0050
-3 4 28 -0.1202 0.0039
-3 4 29 -1.2100 0.0056
-3 4 30 0.0182 0.0057
-3 4 31 1.0924 -0.0024
-3 4 32 0.4804 -0.0109
-3 4 33 -0.7555 -0.0007
-3 4 34 -0.8556 0.0081
-3 4 35 0.4643 0.0044
-3 5 1 -2.8343 0.0036
-3 5 2 5.1178 0.0039
-3 5 3 3.6649 0.0004
-3 5 4 -6.5230 -0.0001
-3 5 5 -3.4338 -0.0042
-3 5 6 8.0895 -0.0085
-3 5 7 2.8074 0.0067
-3 5 8 -9.0505 0.0129
-3 5 9 -1.9984 -0.0098
-3 5 10 9.1531 -0.0082
-3 5 11 0.5424 0.0094
-3 5 12 -8.7291 0.0018
-3 5 13 1.5467 -0.0021
-3 5 14 7.7317 0.0014
-3 5 15 -3.1240 -0.0045
-3 5 16 -5.8228 -0.0048
-3 5 17 3.2095 0.0038
-3 5 18 3.4560 0.0074
-3 5 19 -2.3266 -0.0012
-3 5 20 -1.7849 -0.0045
-3 5 21 1.6265 0.0022
-3 5 22 1.2964 0.0011
-3 5 23 -1.3434 -0.0026
-3 5 24 -1.2889 -0.0038
-3 5 25 1.0936 -0.0004
-3 5 26 0.9284 0.0063
-3 5 27 -0.8905 0.0019
-3 5 28 -0.3097 -0.0014
-3 5 29 0.8482 -0.0004
-3 5 30 0.1012 -0.0049
-3 5 31 -0.6948 0.0003
-3 5 32 -0.4207 0.0047
-3 5 33 0.3690 -0.0023
-3 6 1 0.9100 -0.0071
-3 6 2 -2.2745 0.0021
-3 6 3 -1.5244 0.0034
-3 6 4 3.1284 -0.0060
-3 6 5 1.4487 0.0002
-3 6 6 -4.0322 0.0097
-3 6 7 -1.4885 -0.0033
-3 6 8 4.7082 -0.0075
-3 6 9 1.6321 0.0059
-3 6 10 -5.1899 0.0005
-3 6 11 -0.9276 -0.0045
-3 6 12 5.5576 0.0043
-3 6 13 -0.7426 0.0002
-3 6 14 -5.4722 -0.0061
-3 6 15 2.0106 0.0002
-3 6 16 4.5009 0.0077
-3 6 17 -1.8966 0.0042
-3 6 18 -2.9435 -0.0062
-3 6 19 1.1329 -0.0059
-3 6 20 1.7363 0.0006
-3 6 21 -0.7863 0.0026
-3 6 22 -1.3381 0.0007
-3 6 23 0.7911 0.0004
-3 6 24 1.2100 0.0051
-3 6 25 -0.6995 -0.0015
-3 6 26 -0.6925 -0.0084
-3 6 27 0.6278 0.0026
-3 6 28 -0.0206 0.0040
-3 6 29 -0.6693 -0.0016
-3 6 30 0.2601 0.0003
-3 6 31 0.5363 -0.0039
-3 6 32 0.0472 0.0010
-3 7 1 0.1889 0.0075
-3 7 2 1.8739 0.0001
-3 7 3 0.1997 -0.0058
-3 7 4 -2.2768 -0.0021
-3 7 5 -0.0780 0.0032
-3 7 6 2.4665 0.0029
-3 7 7 0.2267 0.0010
-3 7 8 -2.5918 -0.0051
-3 7 9 -0.6445 -0.0050
-3 7 10 2.9669 0.0069
-3 7 11 0.4263 0.0051
-3 7 12 -3.5619 -0.0046
-3 7 13 0.5136 -0.0036
-3 7 14 3.9053 0.0010
-3 7 15 -1.0520 0.0050
-3 7 16 -3.6013 -0.0001
-3 7 17 0.7060 -0.0069
-3 7 18 2.8359 -0.0016
-3 7 19 -0.3802 0.0041
-3 7 20 -2.1441 0.0040
-3 7 21 0.7017 0.0007
-3 7 22 1.7144 -0.0001
-3 7 23 -1.1059 -0.0022
-3 7 24 -1.2271 -0.0090
-3 7 25 1.1037 0.0014
-3 7 26 0.4655 0.0116
-3 7 27 -0.9946 -0.0004
-3 7 28 0.2356 -0.0050
-3 7 29 0.9315 -0.0040
-3 8 1 0.3447 -0.0010
-3 8 2 -1.6445 -0.0016
-3 8 3 -0.7299 -0.0006
-3 8 4 1.9659 0.0053
-3 8 5 0.5829 0.0020
-3 8 6 -1.8867 -0.0054
-3 8 7 -0.5133 -0.0045
-3 8 8 1.7411 0.0045
-3 8 9 0.6392 0.0062
-3 8 10 -1.9445 -0.0024
-3 8 11 -0.4439 -0.0044
-3 8 12 2.3891 -0.0030
-3 8 13 0.0225 0.0024
-3 8 14 -2.6497 0.0068
-3 8 15 -0.1055 -0.0035
-3 8 16 2.5979 -0.0047
-3 8 17 0.5935 0.0040
-3 8 18 -2.4723 0.0012
-3 8 19 -0.5042 -0.0006
-3 8 20 2.3858 0.0001
-3 8 21 -0.3561 -0.0017
-3 8 22 -2.1118 -0.0043
-3 8 23 1.0804 -0.0010
-3 8 24 1.4639 0.0105
-3 8 25 -1.1859 0.0040
-3 8 26 -0.6411 -0.0091
-3 8 27 1.0640 -0.0051
-3 9 1 -0.8664 -0.0029
-3 9 2 0.2945 -0.0008
-3 9 3 1.3418 0.0020
-3 9 4 -0.7792 0.0005
-3 9 5 -1.3767 0.0002
-3 9 6 0.9318 -0.0033
-3 9 7 1.2920 -0.0007
-3 9 8 -1.0112 0.0045
-3 9 9 -1.1806 0.0005
-3 9 10 1.3032 -0.0045
-3 9 11 0.8456 -0.0016
-3 9 12 -1.5750 0.0073
-3 9 13 -0.5604 0.0011
-3 9 14 1.5138 -0.0084
-3 9 15 0.8215 0.0030
-3 9 16 -1.3349 0.0025
-3 9 17 -1.2876 -0.0061
-3 9 18 1.4392 0.0039
-3 9 19 1.0826 0.0046
-3 9 20 -1.6939 -0.0039
-3 9 21 -0.2003 -0.0033
-3 9 22 1.5997 0.0027
-3 9 23 -0.4945 0.0054
-3 9 24 -1.0647 -0.0043
-3 9 25 0.6178 -0.0064
-3 10 1 0.2107 0.0020
-3 10 2 0.7631 -0.0020
-3 10 3 -0.7008 0.0020
-3 10 4 -0.1830 -0.0000
-3 10 5 1.1218 -0.0069
-3 10 6 -0.1672 0.0043
-3 10 7 -1.4767 0.0083
-3 10 8 0.4370 -0.0043
-3 10 9 1.6071 -0.0062
-3 10 10 -0.7796 0.0024
-3 10 11 -1.3264 0.0037
-3 10 12 0.9120 -0.0051
-3 10 13 0.9310 -0.0002
-3 10 14 -0.6201 0.0075
-3 10 15 -0.8917 -0.0060
-3 10 16 0.2753 -0.0021
-3 10 17 1.0532 0.0102
-3 11 1 0.4880 -0.0024
-3 11 2 -0.4291 0.0070
-3 11 3 -0.1131 -0.0002
-3 11 4 0.0544 -0.0047
-3 11 5 -0.4908 0.0040
-3 11 6 0.0428 0.0004
-3 11 7 1.1690 -0.0045
-3 11 8 -0.0412 -0.0006
-3 11 9 -1.5644 0.0014
-3 11 10 0.1294 0.0019
-2 0 2 13.1753 0.1651
-2 0 4 -6.0160 -0.1481
-2 0 6 2.9388 0.0660
-2 0 8 -2.5133 0.0459
-2 0 10 2.5669 -0.0879
-2 0 12 -3.9019 0.0434
-2 0 14 6.4744 0.0057
-2 0 16 -7.9439 -0.0146
-2 0 18 7.2665 0.0111
-2 0 20 -5.5073 -0.0113
-2 0 22 3.4950 0.0056
-2 0 24 -1.7686 -0.0018
-2 0 26 1.2663 0.0094
-2 0 28 -1.7960 -0.0140
-2 0 30 1.8054 0.0075
-2 0 32 -0.8566 -0.0040
-2 0 36 -0.1242 -0.0109
-2 1 1 -0.5229 0.0383
-2 1 2 -11.8614 -0.1110
-2 1 3 0.4578 -0.0225
-2 1 4 5.6604 0.1056
-2 1 5 -0.5482 0.0051
-2 1 6 -3.2295 -0.0490
-2 1 7 1.4322 0.0083
-2 1 8 3.1028 -0.0340
-2 1 9 -2.8277 -0.0128
-2 1 10 -3.2083 0.0598
-2 1 11 3.6315 0.0096
-2 1 12 4.3325 -0.0176
-2 1 13 -3.2444 -0.0070
-2 1 14 -6.5118 -0.0185
-2 1 15 2.2250 0.0080
-2 1 16 7.6577 0.0148
-2 1 17 -1.4126 -0.0071
-2 1 18 -6.8887 -0.0038
-2 1 19 1.0214 0.0015
-2 1 20 5.2301 0.0031
-2 1 21 -0.7694 0.0032
-2 1 22 -3.3795 -0.0014
-2 1 23 0.3744 -0.0030
-2 1 24 1.7082 0.0019
-2 1 25 0.1899 0.0006
-2 1 26 -1.0393 -0.0103
-2 1 27 -0.6401 0.0004
-2 1 28 1.3043 0.0124
-2 1 29 0.6612 0.0003
-2 1 30 -1.2275 -0.0020
-2 1 31 -0.3541 -0.0016
-2 1 32 0.4308 -0.0048
-2 1 33 0.1372 0.0022
-2 1 34 0.1428 0.0009
-2 1 35 -0.1735 -0.0008
-2 1 36 -0.1349 0.0033
-2 1 37 0.2566 -0.0012
-2 2 1 1.5015 -0.0146
-2 2 2 9.5642 0.0257
-2 2 3 -1.5251 0.0031
-2 2 4 -5.9811 -0.0361
-2 2 5 1.7392 0.0058
-2 2 6 5.2472 0.0185
-2 2 7 -3.1030 -0.0121
-2 2 8 -5.8368 0.0169
-2 2 9 5.1959 0.0102
-2 2 10 5.9742 -0.0174
-2 2 11 -6.3939 -0.0003
-2 2 12 -6.4118 -0.0156
-2 2 13 5.8108 -0.0058
-2 2 14 7.3881 0.0279
-2 2 15 -4.1961 0.0031
-2 2 16 -7.4653 -0.0072
-2 2 17 2.7041 0.0001
-2 2 18 6.2035 -0.0097
-2 2 19 -1.7354 0.0009
-2 2 20 -4.5896 0.0088
-2 2 21 1.1096 -0.0009
-2 2 22 3.0677 -0.0038
-2 2 23 -0.5416 -0.0011
-2 2 24 -1.6116 -0.0031
-2 2 25 -0.0932 0.0004
-2 2 26 0.6963 0.0118
-2 2 27 0.5233 0.0023
-2 2 28 -0.4770 -0.0096
-2 2 29 -0.3735 -0.0021
-2 2 30 0.3166 -0.0047
-2 2 31 -0.1526 -0.0005
-2 2 32 0.0381 0.0131
-2 2 33 0.4352 0.0019
-2 2 34 -0.2184 -0.0090
-2 2 35 -0.3098 -0.0020
-2 2 36 0.2450 0.0020
-2 2 37 0.1366 0.0021
-2 3 1 -1.4099 -0.0283
-2 3 2 -7.7940 0.0012
-2 3 3 1.2609 0.0282
-2 3 4 7.3500 0.0090
-2 3 5 -1.3663 -0.0184
-2 3 6 -8.5270 -0.0048
-2 3 7 2.5585 0.0071
-2 3 8 9.8339 -0.0076
-2 3 9 -4.4475 0.0059
-2 3 10 -9.9453 0.0008
-2 3 11 5.6814 -0.0177
-2 3 12 9.5592 0.0170
-2 3 13 -5.5102 0.0182
-2 3 14 -9.0927 -0.0135
-2 3 15 4.3529 -0.0071
-2 3 16 7.8266 -0.0073
-2 3 17 -2.9150 -0.0022
-2 3 18 -5.8166 0.0163
-2 3 19 1.6381 0.0042
-2 3 20 4.0605 -0.0096
-2 3 21 -0.8009 -0.0042
-2 3 22 -2.8410 0.0016
-2 3 23 0.3823 0.0027
-2 3 24 1.7379 0.0053
-2 3 25 -0.1068 0.0033
-2 3 26 -0.7426 -0.0099
-2 3 27 -0.0042 -0.0078
-2 3 28 0.1472 0.0037
-2 3 29 -0.2917 0.0036
-2 3 30 0.0053 0.0090
-2 3 31 0.7615 0.0043
-2 3 32 0.1682 -0.0127
-2 3 33 -0.8855 -0.0074
-2 3 34 -0.3981 0.0048
-2 3 35 0.6747 0.0052
-2 3 36 0.2836 0.0042
-2 4 1 -0.0052 0.0221
-2 4 2 5.3585 0.0054
-2 4 3 0.5618 -0.0150
-2 4 4 -6.9810 -0.0053
-2 4 5 -0.7198 0.0033
-2 4 6 9.2767 -0.0020
-2 4 7 0.1520 0.0046
-2 4 8 -10.9611 0.0087
-2 4 9 0.8478 -0.0095
-2 4 10 11.2046 -0.0026
-2 4 11 -1.7572 0.0113
-2 4 12 -10.5904 -0.0057
-2 4 13 2.3001 -0.0050
-2 4 14 9.5254 0.0006
-2 4 15 -2.2818 -0.0049
-2 4 16 -7.7202 0.0091
-2 4 17 1.5232 0.0080
-2 4 18 5.4790 -0.0082
-2 4 19 -0.3854 -0.0046
-2 4 20 -3.7530 0.0017
-2 4 21 -0.3316 0.0021
-2 4 22 2.7978 0.0014
-2 4 23 0.3695 0.0004
-2 4 24 -1.9966 -0.0034
-2 4 25 -0.1511 -0.0059
-2 4 26 0.9568 0.0039
-2 4 27 -0.1024 0.0080
-2 4 28 -0.0344 0.0016
-2 4 29 0.4753 -0.0019
-2 4 30 -0.1898 -0.0075
-2 4 31 -0.7499 -0.0050
-2 4 32 -0.3057 0.0038
-2 4 33 0.6559 0.0044
-2 4 34 0.8048 0.0066
-2 4 35 -0.4361 0.0014
-2 5 1 0.4420 0.0041
-2 5 2 -2.2264 0.0042
-2 5 3 -1.0306 -0.0099
-2 5 4 4.3365 -0.0070
-2 5 5 1.2085 0.0118
-2 5 6 -6.6806 0.0102
-2 5 7 -1.2774 -0.0070
-2 5 8 8.3150 -0.0076
-2 5 9 1.4640 0.0008
-2 5 10 -8.8298 -0.0021
-2 5 11 -1.3717 0.0040
-2 5 12 8.6184 0.0082
-2 5 13 0.6913 -0.0085
-2 5 14 -7.8870 -0.0050
-2 5 15 -0.0857 0.0090
-2 5 16 6.4485 0.0012
-2 5 17 0.4171 -0.0029
-2 5 18 -4.5948 -0.0018
-2 5 19 -1.3457 -0.0028
-2 5 20 3.1362 0.0009
-2 5 21 1.7721 0.0024
-2 5 22 -2.3631 0.0017
-2 5 23 -1.3982 -0.0009
-2 5 24 1.6989 -0.0008
-2 5 25 0.7587 0.0026
-2 5 26 -0.6316 -0.0009
-2 5 27 -0.1392 -0.0031
-2 5 28 -0.4476 -0.0014
-2 5 29 -0.4332 0.0006
-2 5 30 0.7068 0.0025
-2 5 31 0.6759 -0.0009
-2 5 32 -0.0698 0.0028
-2 5 33 -0.4894 0.0066
-2 5 34 -0.5668 -0.0096
-2 6 1 0.7354 -0.0055
-2 6 2 0.8234 -0.0121
-2 6 3 -0.5019 0.0083
-2 6 4 -2.5107 0.0099
-2 6 5 0.5266 -0.0063
-2 6 6 4.2269 -0.0064
-2 6 7 -0.0759 0.0009
-2 6 8 -5.4497 -0.0008
-2 6 9 -1.0580 0.0029
-2 6 10 6.0746 0.0087
-2 6 11 1.8934 -0.0041
-2 6 12 -6.2602 -0.0099
-2 6 13 -1.7074 0.0034
-2 6 14 5.9401 0.0053
-2 6 15 1.2752 0.0008
-2 6 16 -4.9221 -0.0024
-2 6 17 -1.5919 -0.0059
-2 6 18 3.4609 0.0007
-2 6 19 2.2417 0.0053
-2 6 20 -2.2123 0.0036
-2 6 21 -2.2294 0.0003
-2 6 22 1.4640 -0.0052
-2 6 23 1.5557 -0.0027
-2 6 24 -0.8130 0.0002
-2 6 25 -0.8009 0.0003
-2 6 26 -0.1253 0.0040
-2 6 27 0.0684 0.0022
-2 6 28 0.9731 -0.0019
-2 6 29 0.6251 -0.0044
-2 6 30 -1.0137 -0.0008
-2 6 31 -0.8857 0.0089
-2 6 32 0.2828 -0.0004
-2 7 1 -1.2580 -0.0008
-2 7 2 -1.5868 0.0000
-2 7 3 1.2670 -0.0008
-2 7 4 2.6257 0.0048
-2 7 5 -1.4688 0.0001
-2 7 6 -3.5152 -0.0062
-2 7 7 1.0042 0.0005
-2 7 8 4.1767 0.0059
-2 7 9 0.3795 0.0006
-2 7 10 -4.7139 -0.0042
-2 7 11 -1.6199 -0.0017
-2 7 12 5.0412 -0.0009
-2 7 13 1.9035 0.0025
-2 7 14 -4.8461 0.0050
-2 7 15 -1.8234 -0.0040
-2 7 16 3.9937 -0.0036
-2 7 17 2.0524 0.0031
-2 7 18 -2.8086 0.0020
-2 7 19 -2.1098 0.0024
-2 7 20 1.7791 -0.0041
-2 7 21 1.4660 -0.0063
-2 7 22 -1.0379 0.0035
-2 7 23 -0.6217 0.0023
-2 7 24 0.3331 0.0026
-2 7 25 0.1182 0.0050
-2 7 26 0.4474 -0.0051
-2 7 27 0.2930 -0.0088
-2 7 28 -0.9474 -0.0002
-2 7 29 -0.7566 0.0105
-2 7 30 0.7725 0.0052
-2 8 1 0.1814 -0.0028
-2 8 2 2.1182 0.0062
-2 8 3 -0.1808 0.0032
-2 8 4 -2.7225 -0.0100
-2 8 5 0.4664 -0.0022
-2 8 6 3.0549 0.0070
-2 8 7 -0.2642 0.0022
-2 8 8 -3.3419 -0.0013
-2 8 9 -0.7543 -0.0030
-2 8 10 3.7831 -0.0036
-2 8 11 1.8082 0.0022
-2 8 12 -4.1001 0.0080
-2 8 13 -2.2500 -0.0008
-2 8 14 3.8608 -0.0080
-2 8 15 2.3865 0.0001
-2 8 16 -3.1092 0.0016
-2 8 17 -2.4239 0.0026
-2 8 18 2.3194 0.0032
-2 8 19 1.8748 -0.0071
-2 8 20 -1.7585 -0.0004
-2 8 21 -0.7128 0.0059
-2 8 22 1.2328 -0.0028
-2 8 23 -0.1860 0.0035
-2 8 24 -0.5292 0.0011
-2 8 25 0.3842 -0.0121
-2 8 26 -0.1823 -0.0014
-2 8 27 -0.4077 0.0132
-2 9 1 0.7709 0.0009
-2 9 2 -1.3871 0.0030
-2 9 3 -1.0004 -0.0001
-2 9 4 1.9553 -0.0007
-2 9 5 0.8879 -0.0007
-2 9 6 -2.1780 0.0034
-2 9 7 -0.9568 -0.0009
-2 9 8 2.3468 -0.0055
-2 9 9 1.5013 0.0035
-2 9 10 -2.6597 0.0049
-2 9 11 -2.0839 -0.0040
-2 9 12 2.7729 -0.0054
-2 9 13 2.3504 0.0031
-2 9 14 -2.3188 0.0043
-2 9 15 -2.4679 -0.0024
-2 9 16 1.5906 0.0021
-2 9 17 2.3799 -0.0001
-2 9 18 -1.1979 -0.0060
-2 9 19 -1.6582 0.0041
-2 9 20 1.1892 0.0000
-2 9 21 0.4862 -0.0027
-2 9 22 -1.0577 0.0081
-2 9 23 0.2767 -0.0055
-2 9 24 0.5684 -0.0090
-2 10 1 -0.6065 0.0080
-2 10 2 0.6671 -0.0075
-2 10 3 1.2123 -0.0087
-2 10 4 -1.1917 0.0071
-2 10 5 -1.5464 0.0072
-2 10 6 1.3287 -0.0089
-2 10 7 1.7850 -0.0018
-2 10 8 -1.3437 0.0069
-2 10 9 -2.0276 -0.0049
-2 10 10 1.4290 -0.0026
-2 10 11 2.0495 0.0080
-2 10 12 -1.2995 0.0035
-2 10 13 -1.8017 -0.0070
-2 10 14 0.7136 -0.0061
-2 10 15 1.5578 0.0049
-2 10 19 0.8550 -0.0035
-2 10 20 -0.2337 0.0038
-2 10 21 -0.1642 0.0045
-2 11 1 0.2652 -0.0089
-2 11 2 -0.6182 0.0043
-2 11 3 -0.9352 0.0079
-2 11 4 0.7439 -0.0054
-2 11 5 1.4464 -0.0054
-2 11 6 -0.5369 0.0072
-2 11 7 -1.7689 0.0003
-2 11 8 0.2895 -0.0041
-2 11 9 1.8244 0.0057
-2 11 10 -0.2193 -0.0002
-1 0 2 47.8070 -0.1098
-1 0 4 -47.2208 -0.0194
-1 0 6 36.2637 0.1075
-1 0 8 -20.8070 -0.1451
-1 0 10 7.9613 0.1003
-1 0 12 0.8461 -0.0048
-1 0 14 -6.6187 -0.0473
-1 0 16 9.0317 0.0276
-1 0 18 -8.3983 0.0056
-1 0 20 6.5539 -0.0150
-1 0 22 -4.5608 0.0144
-1 0 24 2.6376 -0.0099
-1 0 26 -1.5701 -0.0049
-1 0 28 1.5994 0.0178
-1 0 30 -1.5156 -0.0170
-1 0 32 0.6888 0.0119
-1 1 1 12.7978 -0.0299
-1 1 2 -43.3699 0.0679
-1 1 3 -11.6659 -0.0046
-1 1 4 42.7365 0.0203
-1 1 5 8.9064 0.0259
-1 1 6 -32.8260 -0.0739
-1 1 7 -6.0229 -0.0310
-1 1 8 18.9198 0.0944
-1 1 9 3.7917 0.0235
-1 1 10 -7.3840 -0.0561
-1 1 11 -1.8759 -0.0109
-1 1 12 -0.6175 -0.0163
-1 1 13 -0.0774 0.0032
-1 1 14 6.0007 0.0465
-1 1 15 1.6050 -0.0042
-1 1 16 -8.3341 -0.0187
-1 1 17 -2.1047 0.0068
-1 1 18 7.8106 -0.0097
-1 1 19 1.7088 -0.0048
-1 1 20 -6.1088 0.0100
-1 1 21 -1.0571 0.0007
-1 1 22 4.2016 -0.0039
-1 1 23 0.6382 0.0015
-1 1 24 -2.2670 0.0013
-1 1 25 -0.5658 -0.0027
-1 1 26 1.0513 0.0057
-1 1 27 0.6451 0.0046
-1 1 28 -0.8814 -0.0109
-1 1 29 -0.5944 -0.0057
-1 1 30 0.7661 0.0077
-1 1 31 0.3977 0.0046
-1 1 32 -0.1382 -0.0056
-1 1 33 -0.3117 -0.0015
-1 1 34 -0.2578 0.0079
-1 2 1 -20.8503 0.0109
-1 2 2 31.1388 -0.0114
-1 2 3 18.9905 0.0090
-1 2 4 -30.3043 -0.0127
-1 2 5 -14.7186 -0.0161
-1 2 6 22.9963 0.0190
-1 2 7 10.2376 0.0145
-1 2 8 -13.0625 -0.0194
-1 2 9 -6.6133 -0.0056
-1 2 10 5.0129 -0.0031
-1 2 11 3.3392 -0.0074
-1 2 12 0.6616 0.0346
-1 2 13 -0.0087 0.0134
-1 2 14 -4.7210 -0.0309
-1 2 15 -2.5877 -0.0073
-1 2 16 6.5729 -0.0030
-1 2 17 3.5538 -0.0009
-1 2 18 -6.1903 0.0183
-1 2 19 -3.0700 0.0026
-1 2 20 4.8884 -0.0043
-1 2 21 1.9874 -0.0009
-1 2 22 -3.4042 -0.0084
-1 2 23 -1.0099 -0.0005
-1 2 24 1.7478 0.0083
-1 2 25 0.4633 0.0034
-1 2 26 -0.4475 -0.0055
-1 2 27 -0.2527 -0.0062
-1 2 28 -0.0556 0.0012
-1 2 29 0.0431 0.0045
-1 2 30 0.2321 0.0041
-1 2 31 0.1969 -0.0002
-1 2 32 -0.4622 -0.0019
-1 2 33 -0.1521 -0.0015
-1 2 34 0.4760 -0.0060
-1 2 35 -0.2006 0.0006
-1 3 1 20.4618 0.0229
-1 3 2 -16.2763 -0.0069
-1 3 3 -18.3436 -0.0110
-1 3 4 15.0962 0.0050
-1 3 5 14.2137 -0.0073
-1 3 6 -10.6222 0.0020
-1 3 7 -9.9385 0.0192
-1 3 8 5.1672 -0.0046
-1 3 9 6.2958 -0.0241
-1 3 10 -1.1626 0.0133
-1 3 11 -2.8801 0.0250
-1 3 12 -1.6193 -0.0199
-1 3 13 -0.4402 -0.0175
-1 3 14 3.8029 0.0042
-1 3 15 2.9106 0.0031
-1 3 16 -4.7575 0.0185
-1 3 17 -3.9340 0.0059
-1 3 18 4.3186 -0.0160
-1 3 19 3.7197 -0.0039
-1 3 20 -3.4342 -0.0053
-1 3 21 -2.7698 -0.0009
-1 3 22 2.6034 0.0157
-1 3 23 1.5534 0.0036
-1 3 24 -1.6063 -0.0101
-1 3 25 -0.5531 -0.0059
-1 3 26 0.5682 0.0013
-1 3 27 -0.0480 0.0054
-1 3 28 0.0945 0.0058
-1 3 29 0.4421 0.0010
-1 3 30 -0.2994 -0.0082
-1 3 31 -0.6491 -0.0070
-1 3 32 0.1764 0.0010
-1 3 33 0.4608 0.0047
-1 3 34 0.0599 0.0091
-1 3 35 -0.0301 0.0024
-1 4 1 -13.9074 -0.0153
-1 4 2 6.0476 0.0033
-1 4 3 12.0193 -0.0005
-1 4 4 -4.5762 -0.0035
-1 4 5 -9.0792 0.0144
-1 4 6 2.0219 0.0028
-1 4 7 6.0041 -0.0169
-1 4 8 0.3693 -0.0024
-1 4 9 -3.0636 0.0123
-1 4 10 -1.6926 -0.0025
-1 4 11 0.2875 -0.0070
-1 4 12 2.5676 0.0035
-1 4 13 1.9447 -0.0003
-1 4 14 -3.4294 0.0077
-1 4 15 -3.2620 0.0075
-1 4 16 3.6710 -0.0157
-1 4 17 3.8527 -0.0067
-1 4 18 -3.0602 0.0056
-1 4 19 -3.9976 -0.0008
-1 4 20 2.2801 0.0094
-1 4 21 3.5591 0.0052
-1 4 22 -1.7557 -0.0109
-1 4 23 -2.5248 -0.0048
-1 4 24 1.2094 0.0028
-1 4 25 1.3928 0.0039
-1 4 26 -0.4432 0.0035
-1 4 27 -0.5534 -0.0009
-1 4 28 -0.2341 -0.0060
-1 4 29 -0.0039 -0.0052
-1 4 30 0.3682 0.0035
-1 4 31 0.2224 0.0071
-1 4 32 0.0806 0.0050
-1 4 33 -0.0264 0.0004
-1 4 34 -0.5308 -0.0121
-1 5 1 7.8055 -0.0081
-1 5 2 -2.0770 -0.0068
-1 5 3 -6.5895 0.0095
-1 5 4 0.5421 0.0032
-1 5 5 4.9252 -0.0052
-1 5 6 1.0731 -0.0005
-1 5 7 -2.8152 -0.0046
-1 5 8 -2.0716 -0.0032
-1 5 9 0.1897 0.0115
-1 5 10 2.3515 0.0084
-1 5 11 2.2802 -0.0116
-1 5 12 -2.5634 -0.0069
-1 5 13 -3.6307 0.0091
-1 5 14 2.9170 -0.0023
-1 5 15 3.9022 -0.0052
-1 5 16 -2.8553 0.0064
-1 5 17 -4.0247 -0.0014
-1 5 18 2.1250 -0.0008
-1 5 19 4.3042 0.0060
-1 5 20 -1.2285 -0.0029
-1 5 21 -4.1090 -0.0042
-1 5 22 0.6227 -0.0009
-1 5 23 3.1592 0.0001
-1 5 24 -0.1628 0.0044
-1 5 25 -1.9675 0.0015
-1 5 26 -0.4393 -0.0039
-1 5 27 0.9655 -0.0027
-1 5 28 0.9803 0.0030
-1 5 29 -0.2544 0.0039
-1 5 30 -0.9172 -0.0013
-1 5 31 0.0233 0.0001
-1 6 1 -4.8482 0.0094
-1 6 2 0.4273 0.0081
-1 6 3 4.3490 -0.0057
-1 6 4 0.9072 0.0012
-1 6 5 -3.5423 -0.0024
-1 6 6 -1.9640 -0.0063
-1 6 7 1.9310 0.0102
-1 6 8 2.3346 0.0094
-1 6 9 0.6776 -0.0112
-1 6 10 -2.2277 -0.0108
-1 6 11 -3.1559 0.0063
-1 6 12 2.1372 0.0059
-1 6 13 4.1934 -0.0008
-1 6 14 -2.1193 0.0021
-1 6 15 -4.0584 -0.0033
-1 6 16 1.7920 -0.0044
-1 6 17 3.9585 0.0053
-1 6 18 -1.0215 0.0026
-1 6 19 -4.0923 -0.0028
-1 6 20 0.1776 -0.0046
-1 6 21 3.7171 -0.0021
-1 6 22 0.3675 0.0076
-1 6 23 -2.6959 0.0035
-1 6 24 -0.6789 -0.0049
-1 6 25 1.5797 -0.0018
-1 6 26 1.0042 0.0009
-1 6 27 -0.6219 0.0017
-1 6 28 -1.2306 -0.0027
-1 6 29 -0.1145 -0.0016
-1 6 30 0.9662 0.0070
-1 7 1 2.9556 -0.0012
-1 7 2 0.9767 0.0017
-1 7 3 -2.8526 -0.0004
-1 7 4 -1.9396 -0.0064
-1 7 5 2.5343 0.0040
-1 7 6 2.5566 0.0047
-1 7 7 -1.4014 -0.0059
-1 7 8 -2.6303 -0.0008
-1 7 9 -0.7841 0.0039
-1 7 10 2.4011 -0.0019
-1 7 11 2.8802 -0.0009
-1 7 12 -2.0968 0.0051
-1 7 13 -3.6491 -0.0005
-1 7 14 1.6666 -0.0066
-1 7 15 3.4174 0.0008
-1 7 16 -1.0191 0.0034
-1 7 17 -3.2155 0.0008
-1 7 18 0.2980 -0.0014
-1 7 19 3.0669 -0.0044
-1 7 20 0.2351 0.0057
-1 7 21 -2.4472 0.0048
-1 7 22 -0.4927 -0.0086
-1 7 23 1.5688 0.0007
-1 7 24 0.6154 0.0039
-1 7 25 -0.9124 -0.0048
-1 7 26 -0.7291 -0.0001
-1 8 1 -1.0840 0.0006
-1 8 2 -1.4209 -0.0078
-1 8 3 1.0796 0.0009
-1 8 4 2.0547 0.0075
-1 8 5 -1.0070 -0.0031
-1 8 6 -2.4157 -0.0013
-1 8 7 0.3689 0.0038
-1 8 8 2.4751 -0.0045
-1 8 9 1.0870 -0.0035
-1 8 10 -2.3974 0.0054
-1 8 11 -2.5034 0.0045
-1 8 12 2.1272 -0.0044
-1 8 13 2.9663 -0.0061
-1 8 14 -1.5129 0.0018
-1 8 15 -2.7403 0.0063
-1 8 16 0.7360 0.0031
-1 8 17 2.4712 -0.0067
-1 8 18 -0.2192 -0.0035
-1 8 19 -2.0531 0.0073
-1 8 20 0.0910 -0.0043
-1 8 21 1.2918 -0.0026
-1 8 22 -0.0630 0.0102
-1 8 23 -0.6769 -0.0069
-1 8 24 -0.1130 -0.0063
-1 8 25 0.5225 0.0102
-1 9 1 -0.0739 0.0006
-1 9 2 1.2389 0.0032
-1 9 3 0.1853 -0.0002
-1 9 4 -1.6849 -0.0044
-1 9 5 -0.2159 -0.0006
-1 9 6 1.8541 0.0016
-1 9 7 0.5174 0.0020
-1 9 8 -1.8465 -0.0007
-1 9 9 -1.3278 -0.0020
-1 9 10 1.8068 0.0036
-1 9 11 2.1320 -0.0011
-1 9 12 -1.5520 -0.0046
-1 9 13 -2.3716 0.0049
-1 9 14 0.9093 0.0035
-1 9 15 2.2160 -0.0060
-1 9 16 -0.2300 -0.0048
-1 9 17 -1.9691 0.0062
-1 9 18 0.0562 0.0041
-1 9 19 1.4653 -0.0062
-1 9 20 -0.3374 0.0043
-1 9 21 -0.7053 0.0011
-1 9 22 0.4839 -0.0113
-1 9 23 0.2205 0.0079
-1 10 1 0.6789 -0.0049
-1 10 2 -1.1808 0.0016
-1 10 3 -0.9927 0.0006
-1 10 4 1.4231 0.0007
-1 10 5 1.0349 0.0045
-1 10 6 -1.3480 -0.0007
-1 10 7 -1.0565 -0.0087
-1 10 8 1.1299 0.0034
-1 10 9 1.2797 0.0094
-1 10 10 -0.9385 -0.0071
-1 10 11 -1.4824 -0.0047
-1 10 12 0.6145 0.0042
-1 10 13 1.4197 -0.0018
-1 10 14 -0.0360 0.0024
-1 10 15 -1.2447 0.0051
-1 10 16 -0.4212 -0.0024
-1 10 17 1.1059 -0.0055
-1 10 18 0.2893 -0.0008
-1 10 19 -0.8209 0.0049
-1 10 20 0.2427 -0.0030
-1 11 1 -1.0158 0.0039
-1 11 2 0.8583 -0.0014
-1 11 3 1.3128 0.0008
-1 11 4 -0.8317 0.0001
-1 11 5 -1.2580 -0.0050
-1 11 6 0.6150 0.0003
-1 11 7 1.0627 0.0071
-1 11 8 -0.3761 -0.0036
-1 11 9 -0.8982 -0.0062
-1 11 10 0.2415 0.0062
-1 11 11 0.6883 0.0009
0 0 2 -74.3099 -0.1953
0 0 4 62.2805 0.2524
0 0 6 -42.1705 -0.1919
0 0 8 21.7474 0.1037
0 0 10 -8.5656 -0.0196
0 0 14 0.6798 0.0526
0 0 16 -2.1820 -0.0069
0 0 18 2.2258 -0.0293
0 0 20 -1.7180 0.0301
0 0 22 1.0450 -0.0230
0 0 24 0.0230 0.0186
0 0 26 -0.7345 -0.0039
0 0 28 0.3336 -0.0134
0 0 30 0.3226 0.0165
0 0 32 -0.2750 -0.0096
0 0 34 0.0411 0.0039
0 0 36 -0.2396 -0.0003
0 0 38 0.4504 0.0011
0 1 0 -70.6348 -0.0143
0 1 1 -19.3933 -0.0317
0 1 2 67.7336 0.1629
0 1 3 15.8445 0.0560
0 1 4 -57.2919 -0.1910
0 1 5 -10.1987 -0.0539
0 1 6 39.4972 0.1270
0 1 7 4.6462 0.0339
0 1 8 -21.2329 -0.0553
0 1 9 -0.6779 -0.0110
0 1 10 9.2874 -0.0017
0 1 11 -1.7153 -0.0042
0 1 12 -3.4523 0.0413
0 1 13 3.1547 0.0067
0 1 14 0.2992 -0.0366
0 1 15 -3.7349 0.0004
0 1 16 1.2968 -0.0033
0 1 17 3.2823 -0.0070
0 1 18 -1.3638 0.0256
0 1 19 -2.1312 0.0065
0 1 20 0.8416 -0.0164
0 1 21 0.9701 -0.0020
0 1 22 -0.1979 0.0085
0 1 23 -0.2269 -0.0012
0 1 24 -0.7692 -0.0109
0 1 25 -0.0537 0.0027
0 1 26 1.4072 0.0050
0 1 27 0.0368 -0.0039
0 1 28 -1.0129 0.0075
0 1 29 0.0284 0.0039
0 1 30 0.3070 -0.0117
0 1 31 -0.0139 -0.0024
0 1 32 -0.1378 0.0090
0 1 33 0.0105 0.0007
0 1 34 0.1149 -0.0057
0 1 35 -0.0863 -0.0002
0 1 36 0.2045 0.0008
0 1 37 0.1243 0.0020
0 2 0 51.6895 0.0188
0 2 1 31.3233 0.0248
0 2 2 -50.0515 -0.0852
0 2 3 -25.9598 -0.0372
0 2 4 43.4894 0.0756
0 2 5 17.3408 0.0291
0 2 6 -31.5028 -0.0228
0 2 7 -8.6636 -0.0121
0 2 8 18.8139 -0.0118
0 2 9 2.1525 -0.0035
0 2 10 -10.2393 0.0242
0 2 11 2.0530 0.0137
0 2 12 5.5080 -0.0264
0 2 13 -4.6199 -0.0129
0 2 14 -2.3591 0.0086
0 2 15 5.5446 0.0017
0 2 16 0.5209 0.0170
0 2 17 -4.6786 0.0080
0 2 18 -0.2121 -0.0166
0 2 19 2.7198 -0.0073
0 2 20 0.5109 -0.0042
0 2 21 -0.7661 0.0016
0 2 22 -0.8512 0.0098
0 2 23 -0.5512 0.0021
0 2 24 1.4369 0.0024
0 2 25 1.1043 -0.0044
0 2 26 -1.9071 -0.0076
0 2 27 -1.0547 0.0058
0 2 28 1.6926 0.0018
0 2 29 0.7752 -0.0041
0 2 30 -1.1184 0.0033
0 2 31 -0.5243 0.0006
0 2 32 0.6826 -0.0054
0 2 33 0.2458 0.0000
0 2 34 -0.2631 0.0048
0 2 35 0.0807 0.0022
0 2 36 -0.1710 0.0015
0 2 37 -0.2490 -0.0042
0 3 0 -29.0262 -0.0148
0 3 1 -31.0384 -0.0023
0 3 2 28.5877 0.0342
0 3 3 26.2064 -0.0107
0 3 4 -25.9500 -0.0165
0 3 5 -18.3260 0.0244
0 3 6 20.2250 -0.0129
0 3 7 10.0922 -0.0282
0 3 8 -13.8496 0.0211
0 3 9 -3.4354 0.0228
0 3 10 9.3487 -0.0145
0 3 11 -1.2646 -0.0149
0 3 12 -6.2652 0.0052
0 3 13 4.1508 0.0042
0 3 14 3.4953 0.0090
0 3 15 -5.0499 0.0080
0 3 16 -1.5572 -0.0166
0 3 17 4.1353 -0.0118
0 3 18 0.9198 0.0011
0 3 19 -2.3559 0.0046
0 3 20 -0.8041 0.0199
0 3 21 0.6318 0.0031
0 3 22 0.6404 -0.0176
0 3 23 0.6659 -0.0043
0 3 24 -0.6829 -0.0008
0 3 25 -1.3743 0.0032
0 3 26 0.9629 0.0100
0 3 27 1.4578 -0.0020
0 3 28 -1.1090 -0.0064
0 3 29 -1.1787 -0.0011
0 3 30 0.9613 0.0005
0 3 31 0.7880 0.0036
0 3 32 -0.5477 0.0035
0 3 33 -0.3062 -0.0010
0 3 34 -0.0004 -0.0025
0 3 35 -0.1480 -0.0034
0 3 36 0.2965 -0.0054
0 4 0 12.5260 0.0085
0 4 1 21.9368 -0.0070
0 4 2 -12.5838 -0.0141
0 4 3 -18.9185 0.0193
0 4 4 12.0017 0.0056
0 4 5 13.8811 -0.0242
0 4 6 -10.1600 0.0037
0 4 7 -8.2369 0.0178
0 4 8 8.0319 -0.0034
0 4 9 3.0608 -0.0070
0 4 10 -6.4322 -0.0001
0 4 11 0.9973 -0.0005
0 4 12 4.7684 0.0040
0 4 13 -3.3585 0.0062
0 4 14 -2.7194 -0.0099
0 4 15 3.8347 -0.0105
0 4 16 1.1870 0.0078
0 4 17 -3.1566 0.0073
0 4 18 -0.7125 0.0081
0 4 19 2.3263 0.0015
0 4 20 0.6437 -0.0197
0 4 21 -1.6020 -0.0054
0 4 22 -0.3709 0.0113
0 4 23 0.7924 0.0021
0 4 24 0.0899 0.0041
0 4 25 -0.0497 0.0016
0 4 26 -0.1418 -0.0084
0 4 27 -0.3355 -0.0031
0 4 28 0.4249 0.0038
0 4 29 0.3798 0.0044
0 4 30 -0.5128 0.0007
0 4 31 -0.1729 -0.0034
0 4 32 0.1279 -0.0023
0 4 33 -0.2250 -0.0014
0 4 34 0.4101 -0.0007
0 4 35 0.5201 0.0045
0 5 0 -4.7755 -0.0037
0 5 1 -12.6027 0.0041
0 5 2 4.7409 -0.0018
0 5 3 11.0899 -0.0021
0 5 4 -4.4755 0.0076
0 5 5 -8.4764 -0.0033
0 5 6 3.9873 -0.0078
0 5 7 5.1071 0.0098
0 5 8 -3.6605 0.0046
0 5 9 -1.3300 -0.0113
0 5 10 3.4176 -0.0027
0 5 11 -1.9223 0.0073
0 5 12 -2.6613 -0.0004
0 5 13 3.4856 -0.0043
0 5 14 1.4425 0.0052
0 5 15 -3.3228 0.0034
0 5 16 -0.6417 -0.0031
0 5 17 2.6990 -0.0004
0 5 18 0.6907 -0.0063
0 5 19 -2.5277 -0.0029
0 5 20 -1.0221 0.0088
0 5 21 2.4489 0.0012
0 5 22 0.9801 -0.0002
0 5 23 -1.9348 0.0033
0 5 24 -0.6121 -0.0067
0 5 25 1.2126 -0.0053
0 5 26 0.3916 0.0050
0 5 27 -0.6853 0.0048
0 5 28 -0.4805 -0.0019
0 5 29 0.4412 -0.0033
0 5 30 0.4854 0.0022
0 5 31 -0.5271 -0.0008
0 5 32 -0.0757 -0.0038
0 5 33 0.8472 0.0060
0 5 34 -0.3796 0.0064
0 6 0 1.5158 0.0018
0 6 1 7.0081 -0.0016
0 6 2 -1.3137 0.0095
0 6 3 -6.1902 -0.0034
0 6 4 0.9364 -0.0151
0 6 5 4.7958 0.0085
0 6 6 -0.8659 0.0117
0 6 7 -2.6987 -0.0101
0 6 8 1.2856 -0.0061
0 6 9 -0.1429 0.0056
0 6 10 -1.7438 0.0033
0 6 11 2.6948 0.0009
0 6 12 1.6837 -0.0000
0 6 13 -3.5927 -0.0033
0 6 14 -1.2184 -0.0034
0 6 15 2.9765 0.0026
0 6 16 0.9606 0.0013
0 6 17 -2.2930 -0.0019
0 6 18 -1.1629 0.0031
0 6 19 2.2166 0.0002
0 6 20 1.4363 -0.0006
0 6 21 -2.1273 0.0031
0 6 22 -1.3161 -0.0057
0 6 23 1.6161 -0.0050
0 6 24 0.8373 0.0059
0 6 25 -1.0528 0.0051
0 6 26 -0.4506 -0.0025
0 6 27 0.6957 -0.0057
0 6 28 0.4077 0.0045
0 6 29 -0.4999 0.0045
0 6 30 -0.4359 -0.0103
0 6 31 0.5782 0.0015
0 6 32 0.2444 0.0131
0 7 0 0.1360 -0.0010
0 7 1 -3.6054 -0.0013
0 7 2 -0.3750 -0.0033
0 7 3 3.0751 0.0026
0 7 4 0.7206 0.0039
0 7 5 -2.3298 -0.0036
0 7 6 -0.5481 0.0014
0 7 7 1.1857 0.0023
0 7 8 -0.2099 -0.0056
0 7 9 0.6043 0.0014
0 7 10 1.0088 0.0045
0 7 11 -2.2464 -0.0037
0 7 12 -1.3975 -0.0025
0 7 13 2.6286 0.0032
0 7 14 1.4506 0.0012
0 7 15 -2.0012 -0.0028
0 7 16 -1.4397 0.0022
0 7 17 1.5466 0.0026
0 7 18 1.3991 -0.0034
0 7 19 -1.5435 -0.0004
0 7 20 -1.1751 -0.0021
0 7 21 1.3775 -0.0015
0 7 22 0.7170 0.0068
0 7 23 -0.9646 0.0009
0 7 24 -0.2026 -0.0033
0 7 25 0.7218 -0.0022
0 7 26 -0.0853 -0.0002
0 7 27 -0.5955 0.0075
0 7 28 0.0395 -0.0057
0 7 29 0.3615 -0.0089
0 7 30 0.1463 0.0148
0 8 0 -0.4725 -0.0013
0 8 1 1.3639 0.0047
0 8 2 0.6774 -0.0010
0 8 3 -0.9924 -0.0052
0 8 4 -0.9435 0.0031
0 8 5 0.6483 0.0045
0 8 6 0.7403 -0.0070
0 8 7 -0.2429 -0.0026
0 8 8 -0.1002 0.0075
0 8 9 -0.5520 0.0013
0 8 10 -0.5121 -0.0024
0 8 11 1.3298 -0.0019
0 8 12 0.8713 -0.0020
0 8 13 -1.4202 0.0020
0 8 14 -1.1048 0.0033
0 8 15 1.0748 0.0010
0 8 16 1.2306 -0.0047
0 8 17 -0.9976 -0.0035
0 8 18 -1.0517 0.0039
0 8 19 1.1073 0.0022
0 8 20 0.5547 0.0023
0 8 21 -0.9389 -0.0014
0 8 22 -0.0418 -0.0058
0 8 23 0.6809 0.0031
0 8 24 -0.2209 0.0003
0 8 25 -0.6778 -0.0008
0 8 26 0.2374 0.0041
0 8 27 0.6283 -0.0073
0 9 0 0.5209 0.0034
0 9 1 -0.2920 -0.0027
0 9 2 -0.6330 -0.0022
0 9 3 0.0741 0.0015
0 9 4 0.7191 0.0028
0 9 5 0.0359 0.0006
0 9 6 -0.4561 -0.0017
0 9 7 -0.0930 -0.0019
0 9 8 -0.0040 0.0029
0 9 9 0.4020 0.0005
0 9 10 0.2934 -0.0069
0 9 11 -0.7990 0.0029
0 9 12 -0.4067 0.0072
0 9 13 0.9029 -0.0039
0 9 14 0.5792 -0.0034
0 9 15 -0.8444 -0.0000
0 9 16 -0.7314 0.0030
0 9 17 0.9212 0.0034
0 9 18 0.5439 -0.0046
0 9 19 -0.9242 -0.0024
0 9 20 -0.0672 0.0017
0 9 21 0.6168 0.0018
0 9 22 -0.2412 0.0011
0 9 23 -0.3297 -0.0042
0 10 0 -0.8797 -0.0030
0 10 1 -0.4730 -0.0022
0 10 2 0.8953 0.0037
0 10 3 0.4048 0.0058
0 10 4 -0.7850 -0.0056
0 10 5 -0.1920 -0.0086
0 10 6 0.3960 0.0053
0 10 7 0.0137 0.0083
0 10 8 0.0541 -0.0060
0 10 9 -0.1359 -0.0043
0 10 10 -0.2619 0.0076
0 10 11 0.4548 -0.0014
0 10 12 0.2932 -0.0033
0 10 13 -0.6698 0.0038
0 10 14 -0.3828 -0.0037
0 10 15 0.7584 -0.0003
0 10 16 0.4368 0.0018
0 10 17 -0.8133 -0.0041
0 10 18 -0.1812 0.0066
0 10 19 0.6889 0.0044
0 10 20 -0.2568 -0.0086
0 11 0 0.7093 0.0029
0 11 1 1.0611 0.0036
0 11 2 -0.7224 -0.0035
0 11 3 -0.7404 -0.0058
0 11 4 0.6555 0.0045
0 11 5 0.2647 0.0061
0 11 6 -0.4036 -0.0032
0 11 7 0.0661 -0.0036
0 11 8 0.1026 0.0031
0 11 9 -0.0553 -0.0004
0 11 10 0.0604 -0.0029
0 11 11 -0.1703 0.0040
0 11 12 -0.1224 -0.0035
1 0 2 32.3867 0.3064
1 0 4 -23.1584 -0.2088
1 0 6 12.3140 0.0561
1 0 16 -4.8247 -0.0102
1 0 18 3.5589 0.0272
1 0 20 -2.6083 -0.0237
1 0 22 2.1114 0.0229
1 0 24 -2.3153 -0.0262
1 0 26 2.3960 0.0141
1 0 28 -1.3423 0.0055
1 0 30 -0.0731 -0.0103
1 0 32 0.4807 0.0035
1 0 34 -0.0630 -0.0001
1 0 36 -0.2500 0.0023
1 1 0 37.3856 0.1988
1 1 1 11.3232 0.0703
1 1 3 -7.4695 -0.0637
1 1 15 1.5664 -0.0024
1 1 16 5.6154 0.0135
1 1 17 -0.8208 0.0083
1 1 18 -4.4828 -0.0192
1 1 19 -0.1206 -0.0065
1 1 20 3.5769 0.0105
1 1 21 0.8662 0.0029
1 1 22 -2.9387 -0.0108
1 1 23 -1.1450 -0.0025
1 1 24 2.8777 0.0182
1 1 25 0.9959 0.0038
1 1 26 -2.7666 -0.0104
1 1 27 -0.6196 -0.0035
1 1 28 1.7109 -0.0064
1 1 29 0.2946 0.0015
1 1 30 -0.3346 0.0102
1 1 31 -0.2213 0.0007
1 1 32 -0.2001 -0.0029
1 1 33 0.3359 -0.0024
1 1 34 0.0293 -0.0018
1 1 35 -0.4380 0.0027
1 1 36 0.1223 0.0018
1 1 37 0.4459 -0.0013
1 2 0 -27.6390 -0.0880
1 2 1 -18.7689 -0.0444
1 2 2 23.8266 0.0992
1 2 3 12.9786 0.0398
1 2 4 -19.5250 -0.0396
1 2 5 -5.5541 -0.0185
1 2 6 13.4334 -0.0283
1 2 13 2.2156 0.0039
1 2 14 7.3831 0.0099
1 2 15 -0.9713 0.0070
1 2 16 -6.2071 -0.0113
1 2 17 -0.5479 -0.0113
1 2 18 5.1734 0.0037
1 2 19 2.0726 0.0058
1 2 20 -4.3293 0.0074
1 2 21 -2.9837 0.0009
1 2 22 3.5081 -0.0021
1 2 23 3.0493 -0.0019
1 2 24 -3.1022 -0.0110
1 2 25 -2.4718 0.0004
1 2 26 2.8736 0.0083
1 2 27 1.5918 -0.0006
1 2 28 -2.1438 0.0044
1 2 29 -0.8398 0.0006
1 2 30 1.1185 -0.0071
1 2 31 0.5231 0.0005
1 2 32 -0.4291 0.0002
1 2 33 -0.5354 -0.0001
1 2 34 0.0778 0.0054
1 2 35 0.5782 -0.0016
1 2 36 0.1202 -0.0080
1 2 37 -0.5333 0.0021
1 3 0 15.4952 0.0283
1 3 1 19.0697 -0.0163
1 3 2 -15.0505 -0.0268
1 3 3 -14.1502 0.0184
1 3 4 14.2790 -0.0054
1 3 5 7.4487 -0.0207
1 3 6 -11.8480 0.0316
1 3 7 -1.7052 0.0171
1 3 8 9.1852 -0.0212
1 3 9 -1.2410 -0.0075
1 3 10 -8.0885 -0.0028
1 3 11 1.6411 -0.0015
1 3 12 7.6186 0.0105
1 3 13 -0.7470 0.0084
1 3 14 -6.2609 -0.0070
1 3 15 -0.7243 -0.0132
1 3 16 4.5516 0.0016
1 3 17 2.4180 0.0105
1 3 18 -3.4829 0.0094
1 3 19 -3.6920 -0.0005
1 3 20 2.7753 -0.0166
1 3 21 4.0723 -0.0061
1 3 22 -2.0607 0.0065
1 3 23 -3.7156 0.0042
1 3 24 1.6901 0.0078
1 3 25 2.9651 -0.0010
1 3 26 -1.7361 -0.0066
1 3 27 -2.0439 0.0010
1 3 28 1.7242 -0.0026
1 3 29 1.2486 -0.0003
1 3 30 -1.3805 0.0031
1 3 31 -0.8097 -0.0026
1 3 32 0.7447 0.0035
1 3 33 0.6171 0.0036
1 3 34 -0.0039 -0.0089
1 3 35 -0.4701 -0.0020
1 3 36 -0.4162 0.0117
1 4 0 -6.8752 -0.0125
1 4 1 -13.7066 0.0244
1 4 2 7.9505 0.0092
1 4 5 -7.1566 0.0179
1 4 6 8.1775 -0.0106
1 4 7 3.3784 -0.0081
1 4 8 -7.2044 0.0022
1 4 9 -0.9438 -0.0016
1 4 10 6.4766 0.0056
1 4 11 -0.0122 0.0065
1 4 12 -5.4029 -0.0037
1 4 13 -0.2436 -0.0091
1 4 14 3.5862 0.0001
1 4 15 1.3595 0.0104
1 4 16 -1.9351 0.0037
1 4 17 -2.5592 -0.0058
1 4 18 1.1726 -0.0114
1 4 19 2.9949 -0.0032
1 4 20 -0.8408 0.0136
1 4 21 -2.6480 0.0065
1 4 22 0.4278 -0.0032
1 4 23 2.1293 -0.0025
1 4 24 -0.1509 -0.0062
1 4 25 -1.7183 -0.0005
1 4 26 0.3052 0.0031
1 4 27 1.3053 -0.0003
1 4 28 -0.7032 0.0028
1 4 29 -0.9051 -0.0003
1 4 30 0.8432 -0.0005
1 4 31 0.5827 0.0033
1 4 32 -0.3743 -0.0056
1 4 33 -0.2750 -0.0048
1 4 34 -0.4070 0.0092
1 4 35 0.0276 0.0041
1 5 0 3.2599 -0.0055
1 5 1 8.0948 -0.0019
1 5 2 -4.1369 0.0092
1 5 3 -7.1585 -0.0002
1 5 4 4.5037 -0.0103
1 5 5 5.3845 0.0026
1 5 6 -4.3329 0.0042
1 5 7 -3.3933 -0.0046
1 5 8 4.0484 0.0037
1 5 9 1.5375 0.0041
1 5 10 -3.7180 -0.0043
1 5 11 -0.2147 -0.0024
1 5 12 2.8763 0.0006
1 5 13 0.0190 0.0037
1 5 14 -1.5826 0.0004
1 5 15 -0.8836 -0.0060
1 5 16 0.6343 -0.0021
1 5 17 1.6948 0.0035
1 5 18 -0.4115 0.0067
1 5 19 -1.5658 0.0017
1 5 20 0.4190 -0.0058
1 5 21 0.8866 -0.0027
1 5 22 -0.1547 -0.0022
1 5 23 -0.4401 -0.0001
1 5 24 -0.2472 0.0053
1 5 25 0.2877 0.0009
1 5 26 0.3384 -0.0002
1 5 27 -0.1392 0.0005
1 5 28 -0.0023 -0.0026
1 5 29 -0.0418 -0.0006
1 5 30 -0.2962 -0.0015
1 5 31 0.2591 -0.0002
1 5 32 0.0495 0.0060
1 5 33 -0.5371 0.0004
1 5 34 0.5015 -0.0069
1 6 0 -1.4388 0.0144
1 6 1 -4.9079 -0.0026
1 6 2 1.8297 -0.0173
1 6 3 4.3643 0.0034
1 6 4 -1.7712 0.0133
1 6 5 -3.5163 -0.0031
1 6 6 1.7364 -0.0028
1 6 7 2.5113 0.0014
1 6 8 -1.9734 -0.0046
1 6 9 -1.1822 0.0016
1 6 10 2.1487 0.0031
1 6 11 -0.0631 -0.0025
1 6 12 -1.8302 0.0005
1 6 13 0.2803 -0.0004
1 6 14 1.1775 -0.0009
1 6 15 0.5485 0.0029
1 6 16 -0.7148 0.0023
1 6 17 -1.2192 -0.0015
1 6 18 0.5856 -0.0044
1 6 19 0.9979 -0.0002
1 6 20 -0.4647 0.0009
1 6 21 -0.4370 -0.0009
1 6 22 0.0976 0.0050
1 6 23 0.1180 0.0020
1 6 24 0.3536 -0.0036
1 6 25 0.1303 -0.0009
1 6 26 -0.4722 -0.0023
1 6 27 -0.4590 -0.0004
1 6 28 0.0909 0.0021
1 6 29 0.6721 0.0023
1 6 30 0.3814 0.0033
1 6 31 -0.7844 -0.0058
1 6 32 -0.4186 -0.0061
1 7 0 -0.2292 -0.0012
1 7 1 2.7908 0.0001
1 7 2 -0.0037 0.0011
1 7 3 -2.3106 0.0014
1 7 4 0.0630 0.0010
1 7 5 1.9225 -0.0033
1 7 6 -0.4798 -0.0059
1 7 7 -1.6704 0.0053
1 7 8 1.2339 0.0069
1 7 9 1.0884 -0.0063
1 7 10 -1.7675 -0.0017
1 7 11 -0.3160 0.0048
1 7 12 1.7370 -0.0028
1 7 13 0.1514 -0.0023
1 7 14 -1.3691 0.0032
1 7 15 -0.6383 0.0029
1 7 16 0.9882 -0.0040
1 7 17 0.8952 -0.0047
1 7 18 -0.6007 0.0045
1 7 19 -0.6012 0.0024
1 7 20 0.1059 -0.0001
1 7 21 0.3087 0.0017
1 7 22 0.4031 -0.0035
1 7 23 -0.2018 -0.0018
1 7 24 -0.6821 -0.0008
1 7 25 -0.0761 -0.0005
1 7 26 0.5267 0.0061
1 7 27 0.4396 0.0017
1 7 28 0.0261 -0.0027
1 7 29 -0.4961 -0.0050
1 7 30 -0.6000 -0.0046
1 8 0 0.8845 -0.0091
1 8 1 -0.9335 -0.0051
1 8 2 -0.6441 0.0109
1 8 3 0.6221 0.0024
1 8 4 0.3738 -0.0093
1 8 5 -0.6123 0.0019
1 8 6 0.2804 0.0083
1 8 7 0.9644 -0.0053
1 8 8 -1.0796 -0.0053
1 8 9 -1.0964 0.0059
1 8 10 1.4740 -0.0006
1 8 11 0.8232 -0.0040
1 8 12 -1.3654 0.0034
1 8 13 -0.6000 0.0039
1 8 14 1.1298 -0.0020
1 8 15 0.5298 -0.0078
1 8 16 -0.9480 0.0024
1 8 17 -0.2589 0.0095
1 8 18 0.6136 -0.0042
1 8 19 -0.0967 -0.0042
1 8 20 -0.0453 0.0020
1 8 21 0.1015 -0.0015
1 8 22 -0.4628 0.0001
1 8 23 0.0617 -0.0000
1 8 24 0.6087 0.0043
1 8 25 0.0505 0.0042
1 8 26 -0.3910 -0.0080
1 8 27 -0.2149 -0.0052
1 9 0 -0.7412 0.0057
1 9 1 -0.0130 0.0048
1 9 2 0.3707 -0.0064
1 9 3 0.0735 -0.0022
1 9 4 0.0479 0.0036
1 9 5 0.0791 -0.0020
1 9 6 -0.6496 -0.0025
1 9 7 -0.5148 0.0047
1 9 8 1.1155 0.0011
1 9 9 0.7756 -0.0037
1 9 10 -1.0731 0.0021
1 9 11 -0.6201 0.0010
1 9 12 0.7188 -0.0020
1 9 13 0.3102 -0.0018
1 9 14 -0.5747 -0.0012
1 9 15 -0.0142 0.0069
1 9 16 0.7125 -0.0007
1 9 17 -0.2969 -0.0087
1 9 18 -0.7052 0.0066
1 9 19 0.4057 0.0025
1 9 20 0.3520 -0.0070
1 9 21 -0.1302 0.0030
1 9 22 0.0376 0.0031
1 9 23 -0.1601 0.0001
1 10 0 0.7552 -0.0029
1 10 1 0.2452 0.0005
1 10 2 -0.3255 0.0027
1 10 3 0.0819 -0.0016
1 10 4 -0.1521 -0.0007
1 10 5 -0.3323 0.0033
1 10 6 0.6765 0.0014
1 10 7 0.5101 -0.0033
1 10 8 -0.9472 -0.0014
1 10 9 -0.4250 0.0010
1 10 10 0.7365 -0.0011
1 10 11 0.0643 0.0013
1 10 12 -0.3335 0.0001
1 10 13 0.2838 0.0002
1 10 14 0.2260 0.0030
1 10 15 -0.4277 -0.0054
1 10 16 -0.4257 0.0014
1 10 17 0.3918 0.0074
1 10 18 0.5084 -0.0116
1 10 19 -0.1663 -0.0018
1 11 0 -0.7360 0.0028
1 11 1 -0.4404 0.0013
1 11 2 0.5567 -0.0030
1 11 3 -0.1283 -0.0021
1 11 4 -0.2800 0.0026
1 11 5 0.4686 0.0022
1 11 6 -0.0918 -0.0045
1 11 7 -0.4888 -0.0024
1 11 8 0.3511 0.0045
1 11 9 0.1993 0.0022
1 11 10 -0.3314 -0.0017
1 11 11 0.2121 -0.0008
1 11 12 0.1768 0.0027
2 0 4 -13.8514 0.0044
2 0 6 9.1006 0.0706
2 0 8 -5.3904 -0.0582
2 0 16 4.0330 -0.0122
2 0 18 -1.9334 -0.0005
2 0 20 0.9801 0.0084
2 0 22 -0.7488 -0.0183
2 0 24 0.9485 0.0270
2 0 26 -0.8527 -0.0181
2 0 28 -0.3065 0.0006
2 0 30 1.6574 0.0035
2 0 32 -1.7026 0.0019
2 0 34 0.6373 -0.0021
2 0 36 0.2385 -0.0017
2 1 0 17.4231 -0.1050
2 1 1 -0.1087 -0.0409
2 1 4 12.0070 0.0049
2 1 5 1.8468 0.0058
2 1 6 -7.6448 -0.0592
2 1 7 -1.9964 -0.0253
2 1 8 4.1939 0.0392
2 1 9 0.8991 0.0279
2 1 10 0.6609 0.0087
2 1 15 1.8622 0.0052
2 1 16 -4.5700 0.0111
2 1 17 -1.8271 -0.0054
2 1 18 2.5535 -0.0027
2 1 19 1.9715 0.0020
2 1 20 -1.4952 -0.0018
2 1 21 -2.0000 -0.0010
2 1 22 1.0272 0.0089
2 1 23 1.6101 0.0043
2 1 24 -1.0109 -0.0165
2 1 25 -0.8978 -0.0074
2 1 26 0.8869 0.0094
2 1 27 0.1781 0.0060
2 1 28 0.0671 0.0038
2 1 29 0.2414 -0.0013
2 1 30 -1.1831 -0.0042
2 1 31 -0.2312 -0.0023
2 1 32 1.2224 -0.0025
2 1 33 -0.0308 0.0016
2 1 34 -0.3658 0.0019
2 1 35 0.2262 0.0042
2 1 36 -0.3244 0.0032
2 1 37 -0.2228 -0.0125
2 2 0 -12.8596 0.0276
2 2 1 0.7121 0.0215
2 2 2 11.8012 -0.0146
2 2 3 0.9107 -0.0129
2 2 4 -7.6592 -0.0193
2 2 5 -2.4708 -0.0036
2 2 6 4.2465 0.0389
2 2 14 -5.9305 0.0049
2 2 15 -4.9658 -0.0058
2 2 16 4.1814 -0.0093
2 2 17 4.9636 0.0040
2 2 18 -2.5188 0.0038
2 2 19 -4.8058 0.0017
2 2 20 1.5965 -0.0024
2 2 21 4.1792 -0.0040
2 2 22 -1.0558 -0.0017
2 2 23 -2.9479 -0.0003
2 2 24 0.9517 0.0067
2 2 25 1.4888 0.0045
2 2 26 -1.0158 -0.0007
2 2 27 -0.2941 -0.0033
2 2 28 0.6316 -0.0075
2 2 29 -0.2776 0.0003
2 2 30 -0.0285 0.0035
2 2 31 0.1598 0.0003
2 2 32 -0.1132 0.0042
2 2 33 0.2810 0.0007
2 2 34 -0.1350 -0.0029
2 2 35 -0.5494 -0.0024
2 2 36 0.3321 -0.0025
2 2 37 0.4932 0.0049
2 3 0 8.2789 -0.0009
2 3 1 -0.8983 0.0168
2 3 2 -6.4462 -0.0042
2 3 3 -0.3871 -0.0071
2 3 4 3.2498 0.0178
2 3 5 1.5794 0.0040
2 3 6 -1.0480 -0.0210
2 3 7 -1.3130 -0.0026
2 3 8 -0.3707 0.0012
2 3 12 -3.5179 -0.0053
2 3 13 -6.0593 -0.0052
2 3 14 2.8653 -0.0074
2 3 15 6.8972 0.0051
2 3 16 -1.1904 0.0052
2 3 17 -6.9558 -0.0017
2 3 18 0.1759 -0.0008
2 3 19 6.3877 -0.0049
2 3 20 0.0364 0.0024
2 3 21 -5.0664 0.0071
2 3 22 0.0314 -0.0011
2 3 23 3.3147 -0.0025
2 3 24 -0.3773 -0.0014
2 3 25 -1.7230 -0.0010
2 3 26 0.8989 -0.0032
2 3 27 0.6554 -0.0004
2 3 28 -1.1486 0.0065
2 3 29 -0.2492 0.0009
2 3 30 1.0062 -0.0002
2 3 31 0.4041 0.0024
2 3 32 -0.6503 -0.0057
2 3 33 -0.6980 -0.0045
2 3 34 0.2102 0.0022
2 3 35 0.7421 0.0025
2 3 36 0.0610 0.0036
2 4 0 -4.0973 0.0052
2 4 1 0.3372 -0.0186
2 4 2 2.2784 0.0003
2 4 3 -0.2139 0.0087
2 4 4 -0.4507 -0.0078
2 4 5 0.0932 -0.0029
2 4 6 -0.4119 0.0071
2 4 7 -0.7652 -0.0006
2 4 8 0.7261 0.0020
2 4 9 2.3539 0.0028
2 4 10 -1.0958 -0.0038
2 4 11 -4.0648 -0.0030
2 4 12 0.8511 -0.0043
2 4 13 5.2038 0.0033
2 4 14 0.4890 0.0063
2 4 15 -5.8038 -0.0042
2 4 16 -1.8941 0.0006
2 4 17 5.9295 0.0011
2 4 18 2.2822 -0.0028
2 4 19 -5.2826 0.0057
2 4 20 -1.8595 -0.0007
2 4 21 3.9130 -0.0080
2 4 22 1.2506 0.0006
2 4 23 -2.4664 0.0041
2 4 24 -0.5939 0.0004
2 4 25 1.4441 -0.0014
2 4 26 -0.1071 0.0029
2 4 27 -0.8864 0.0019
2 4 28 0.6597 -0.0034
2 4 29 0.7118 -0.0002
2 4 30 -0.8193 -0.0024
2 4 31 -0.7496 -0.0041
2 4 32 0.4348 0.0046
2 4 33 0.6876 0.0049
2 4 34 0.2566 0.0010
2 4 35 -0.4288 0.0004
2 5 0 0.7406 0.0027
2 5 1 -0.3440 0.0022
2 5 2 0.1995 -0.0037
2 5 3 0.9977 -0.0011
2 5 4 -0.5063 0.0030
2 5 5 -1.6338 0.0010
2 5 6 0.2777 0.0029
2 5 7 2.4527 -0.0006
2 5 8 -0.0511 -0.0075
2 5 9 -3.1482 0.0001
2 5 10 -0.0613 0.0028
2 5 11 3.3472 0.0008
2 5 12 0.6254 0.0040
2 5 13 -3.3584 -0.0034
2 5 14 -1.7433 -0.0017
2 5 15 3.6454 0.0051
2 5 16 2.6394 -0.0044
2 5 17 -3.8548 -0.0012
2 5 18 -2.7445 0.0043
2 5 19 3.3213 -0.0054
2 5 20 2.3061 -0.0018
2 5 21 -2.2088 0.0070
2 5 22 -1.7693 0.0025
2 5 23 1.2245 -0.0040
2 5 24 1.2618 -0.0014
2 5 25 -0.6278 0.0022
2 5 26 -0.7164 -0.0031
2 5 27 0.2961 -0.0019
2 5 28 0.1318 0.0035
2 5 29 -0.1941 0.0003
2 5 30 0.2352 0.0009
2 5 31 0.1883 0.0011
2 5 32 -0.0498 -0.0017
2 5 33 -0.0284 0.0015
2 5 34 -0.4927 -0.0023
2 6 0 0.2751 -0.0095
2 6 1 1.2856 0.0005
2 6 2 -0.5251 0.0067
2 6 3 -1.8516 0.0009
2 6 4 0.1125 -0.0016
2 6 5 2.4989 -0.0013
2 6 6 0.3884 -0.0060
2 6 7 -3.2027 0.0002
2 6 8 -0.5385 0.0086
2 6 9 3.3931 0.0013
2 6 10 0.5466 -0.0027
2 6 11 -2.8497 -0.0034
2 6 12 -0.8854 -0.0024
2 6 13 2.3356 0.0058
2 6 14 1.5251 -0.0003
2 6 15 -2.4493 -0.0050
2 6 16 -2.0173 0.0040
2 6 17 2.6278 0.0001
2 6 18 2.1335 -0.0033
2 6 19 -2.1570 0.0034
2 6 20 -1.9667 0.0032
2 6 21 1.2845 -0.0024
2 6 22 1.6270 -0.0040
2 6 23 -0.5482 0.0013
2 6 24 -1.1594 -0.0005
2 6 25 -0.0317 -0.0030
2 6 26 0.5788 0.0077
2 6 27 0.4752 0.0046
2 6 28 0.0657 -0.0079
2 6 29 -0.5668 -0.0051
2 6 30 -0.5029 0.0023
2 6 31 0.4229 0.0072
2 6 32 0.4014 0.0010
2 7 0 0.7891 -0.0002
2 7 1 -1.5448 0.0013
2 7 2 -0.5563 0.0007
2 7 3 1.8493 -0.0027
2 7 4 0.7133 -0.0009
2 7 5 -2.3306 0.0031
2 7 6 -0.7768 0.0033
2 7 7 3.0008 -0.0018
2 7 8 0.6064 -0.0038
2 7 9 -3.1958 -0.0004
2 7 10 -0.5435 -0.0002
2 7 11 2.5929 0.0033
2 7 12 0.8123 0.0021
2 7 13 -1.8949 -0.0044
2 7 14 -1.1895 0.0008
2 7 15 1.6920 0.0013
2 7 16 1.4229 -0.0022
2 7 17 -1.6070 0.0024
2 7 18 -1.5313 0.0003
2 7 19 1.2355 -0.0007
2 7 20 1.5208 -0.0006
2 7 21 -0.8329 -0.0027
2 7 22 -1.2336 0.0009
2 7 23 0.5445 -0.0003
2 7 24 0.6259 0.0055
2 7 25 -0.1170 0.0077
2 7 26 0.1219 -0.0128
2 7 27 -0.3198 -0.0116
2 7 28 -0.7657 0.0109
2 7 29 0.3381 0.0124
2 8 0 -1.4351 0.0082
2 8 1 0.4860 0.0032
2 8 2 0.9975 -0.0061
2 8 3 -0.7875 0.0002
2 8 4 -0.7684 0.0019
2 8 5 1.2715 -0.0038
2 8 6 0.5176 -0.0010
2 8 7 -2.0265 0.0052
2 8 8 -0.3220 0.0016
2 8 9 2.4277 -0.0031
2 8 10 0.4397 -0.0003
2 8 11 -2.0109 -0.0010
2 8 12 -0.7549 0.0005
2 8 13 1.2248 0.0021
2 8 14 0.8564 -0.0030
2 8 15 -0.6525 0.0018
2 8 16 -0.6827 0.0018
2 8 17 0.3197 -0.0039
2 8 18 0.5811 0.0025
2 8 19 -0.2057 -0.0012
2 8 20 -0.6709 -0.0029
2 8 21 0.4420 0.0049
2 8 22 0.6377 0.0015
2 8 23 -0.7346 0.0022
2 8 24 -0.2559 -0.0059
2 8 25 0.6206 -0.0132
2 8 26 -0.2881 0.0116
2 8 27 -0.3163 0.0167
2 9 0 0.6434 -0.0058
2 9 1 0.3185 -0.0053
2 9 2 -0.1055 0.0043
2 9 3 0.0023 0.0022
2 9 4 -0.1479 -0.0010
2 9 5 -0.3339 0.0023
2 9 6 0.2319 0.0013
2 9 7 0.8673 -0.0048
2 9 8 -0.0891 -0.0029
2 9 9 -1.2176 0.0026
2 9 10 -0.3190 0.0017
2 9 11 0.9705 0.0022
2 9 12 0.6236 -0.0015
2 9 13 -0.3537 -0.0033
2 9 14 -0.3803 0.0038
2 9 15 -0.1573 -0.0007
2 9 16 -0.2385 -0.0019
2 9 17 0.3573 0.0020
2 9 18 0.5720 -0.0037
2 9 19 -0.1646 0.0041
2 9 20 -0.3426 0.0039
2 9 21 -0.3614 -0.0078
2 9 22 -0.0476 0.0007
2 9 23 0.7594 -0.0003
2 10 0 0.0565 0.0040
2 10 1 0.0140 0.0038
2 10 2 -0.5728 -0.0032
2 10 3 -0.2672 -0.0035
2 10 4 0.7501 0.0017
2 10 5 0.2307 0.0008
2 10 6 -0.6739 -0.0027
2 10 7 -0.2101 0.0012
2 10 8 0.3594 0.0026
2 10 9 0.1936 0.0000
2 10 10 0.1052 0.0013
2 10 11 -0.0151 -0.0033
2 10 12 -0.3282 -0.0025
2 10 13 -0.2163 0.0043
2 10 14 -0.0221 -0.0011
2 10 15 0.2652 -0.0018
2 10 16 0.6711 0.0006
2 10 17 -0.0873 0.0019
2 10 18 -0.9593 0.0054
2 11 0 0.2375 -0.0050
2 11 1 -0.3284 -0.0060
2 11 2 0.1065 0.0046
2 11 3 0.5339 0.0067
2 11 5 -0.3453 -0.0043
2 11 6 0.3419 0.0040
2 11 7 0.0436 0.0014
2 11 8 -0.2527 -0.0014
2 11 9 0.1704 -0.0000
2 11 10 0.0630 -0.0048
2 11 11 -0.2648 0.0007
2 11 12 0.0132 0.0059
3 0 0 27.9293 0.0688
3 0 6 3.9043 -0.0314
3 0 8 -5.7633 0.0042
3 0 10 5.8552 0.0190
3 0 16 0.5829 0.0383
3 0 18 -2.6413 -0.0156
3 0 20 2.7333 0.0009
3 0 22 -2.3083 0.0095
3 0 24 1.9828 -0.0202
3 0 26 -1.9492 0.0173
3 0 28 2.5711 -0.0042
3 0 32 2.8443 -0.0022
3 0 34 -1.6396 0.0025
3 0 36 0.7838 -0.0023
3 1 0 -26.0015 -0.0615
3 1 1 0.4268 -0.0051
3 1 5 3.8735 -0.0180
3 1 6 -2.6680 0.0146
3 1 7 -4.3699 0.0215
3 1 8 4.7960 0.0041
3 1 9 4.5600 -0.0166
3 1 10 -5.3839 -0.0194
3 1 11 -4.5042 0.0062
3 1 12 5.3592 -0.0025
3 1 15 -2.8152 -0.0023
3 1 16 -0.4521 -0.0291
3 1 17 1.9847 -0.0017
3 1 18 2.5406 0.0087
3 1 19 -1.6238 0.0052
3 1 20 -2.7804 -0.0001
3 1 21 1.3035 -0.0039
3 1 22 2.4833 -0.0040
3 1 23 -0.6735 -0.0008
3 1 24 -2.1567 0.0112
3 1 25 -0.1079 0.0035
3 1 26 1.9421 -0.0096
3 1 27 0.7065 -0.0014
3 1 28 -2.2216 0.0005
3 1 29 -0.9570 -0.0026
3 1 30 2.5601 0.0019
3 1 31 0.9053 0.0032
3 1 32 -2.0738 -0.0001
3 1 33 -0.7489 0.0024
3 1 34 1.0248 0.0031
3 1 35 0.6720 -0.0122
3 1 36 -0.3621 -0.0048
3 1 37 -0.6561 0.0203
3 2 0 21.1557 0.0374
3 2 1 -0.1950 0.0025
3 2 2 -14.5830 -0.0093
3 2 3 3.3652 -0.0018
3 2 4 5.9540 -0.0065
3 2 5 -5.6274 0.0070
3 2 6 -0.1671 0.0043
3 2 11 8.3808 -0.0034
3 2 14 1.8925 -0.0209
3 2 15 5.7541 -0.0001
3 2 16 1.0758 0.0100
3 2 17 -4.0699 0.0019
3 2 18 -2.7349 0.0052
3 2 19 2.9206 -0.0041
3 2 20 2.8288 -0.0031
3 2 21 -1.8266 0.0027
3 2 22 -2.4862 -0.0022
3 2 23 0.5180 0.0025
3 2 24 2.0517 -0.0001
3 2 25 0.6355 -0.0051
3 2 26 -1.5406 -0.0000
3 2 27 -1.2339 0.0014
3 2 28 1.2670 0.0031
3 2 29 1.2425 0.0034
3 2 30 -1.0847 -0.0012
3 2 31 -0.9050 -0.0037
3 2 32 0.5753 0.0001
3 2 33 0.5915 -0.0002
3 2 34 0.0133 -0.0056
3 2 35 -0.5338 0.0049
3 2 36 -0.2313 0.0081
3 2 37 0.6014 -0.0080
3 3 0 -15.0892 -0.0101
3 3 1 -0.7431 0.0036
3 3 2 11.1968 -0.0035
3 3 3 -2.4169 -0.0112
3 3 4 -6.1107 0.0078
3 3 5 5.1507 0.0070
3 3 6 2.6594 -0.0028
3 3 7 -7.2776 0.0009
3 3 8 -1.0854 0.0033
3 3 9 8.8963 -0.0038
3 3 10 0.0327 -0.0023
3 3 12 0.1771 -0.0073
3 3 13 8.7129 -0.0014
3 3 14 1.2844 0.0077
3 3 15 -6.8571 -0.0016
3 3 16 -3.1624 0.0072
3 3 17 5.0231 0.0026
3 3 18 3.6614 -0.0139
3 3 19 -3.4746 0.0004
3 3 20 -2.9285 0.0030
3 3 21 1.8570 -0.0019
3 3 22 2.0760 0.0063
3 3 23 -0.2671 -0.0011
3 3 24 -1.4205 -0.0050
3 3 25 -0.7584 0.0025
3 3 26 0.8428 0.0028
3 3 27 0.9902 0.0008
3 3 28 -0.3950 -0.0019
3 3 29 -0.6565 -0.0034
3 3 30 0.0297 -0.0010
3 3 31 0.1729 0.0016
3 3 32 0.2810 -0.0002
3 3 33 0.0576 0.0005
3 3 34 -0.3344 0.0070
3 3 35 0.0684 0.0005
3 3 36 0.1828 -0.0080
3 4 0 9.0152 -0.0057
3 4 1 1.4378 -0.0035
3 4 2 -7.0077 0.0034
3 4 3 1.4554 0.0073
3 4 4 4.8371 0.0009
3 4 5 -4.1683 -0.0035
3 4 6 -3.5949 -0.0034
3 4 7 6.2947 -0.0016
3 4 8 3.0779 0.0019
3 4 9 -7.5696 0.0034
3 4 10 -2.7037 -0.0036
3 4 11 7.6178 -0.0028
3 4 12 2.9589 0.0072
3 4 13 -6.5321 -0.0001
3 4 14 -4.1292 -0.0002
3 4 15 5.1572 0.0042
3 4 16 5.0425 -0.0128
3 4 17 -4.0983 -0.0039
3 4 18 -4.6005 0.0127
3 4 19 3.0503 -0.0014
3 4 20 3.2565 -0.0008
3 4 21 -1.6703 0.0042
3 4 22 -2.0338 -0.0050
3 4 23 0.3560 -0.0015
3 4 24 1.2724 0.0018
3 4 25 0.3362 -0.0008
3 4 26 -0.8021 0.0007
3 4 27 -0.3597 -0.0003
3 4 28 0.4047 -0.0015
3 4 29 0.0180 0.0009
3 4 30 0.0040 0.0021
3 4 31 0.3006 0.0004
3 4 32 -0.2085 0.0017
3 4 33 -0.2758 0.0008
3 4 34 0.0239 -0.0077
3 4 35 -0.0232 -0.0052
3 5 0 -4.1729 0.0080
3 5 1 -0.8421 -0.0009
3 5 2 3.5574 -0.0027
3 5 3 -1.6538 0.0021
3 5 4 -3.3427 -0.0014
3 5 5 3.9305 -0.0032
3 5 6 3.4914 0.0004
3 5 7 -5.5168 0.0023
3 5 8 -3.5618 0.0010
3 5 9 5.9483 -0.0006
3 5 10 3.4997 0.0032
3 5 11 -5.0554 -0.0003
3 5 12 -3.8714 -0.0060
3 5 13 3.5978 0.0017
3 5 14 4.7158 -0.0016
3 5 15 -2.6873 -0.0025
3 5 16 -5.1581 0.0108
3 5 17 2.4180 -0.0007
3 5 18 4.6088 -0.0088
3 5 19 -1.9629 0.0055
3 5 20 -3.4483 0.0013
3 5 21 1.0006 -0.0053
3 5 22 2.3399 -0.0001
3 5 23 -0.0608 0.0007
3 5 24 -1.5897 0.0022
3 5 25 -0.4178 0.0023
3 5 26 1.1375 -0.0013
3 5 27 0.4547 -0.0020
3 5 28 -0.7226 0.0005
3 5 29 -0.2033 0.0011
3 5 30 0.2508 -0.0011
3 5 31 -0.0546 0.0009
3 5 32 -0.0226 -0.0011
3 5 33 0.0021 -0.0054
3 6 0 1.8266 -0.0039
3 6 1 -0.5859 0.0021
3 6 2 -1.9890 0.0013
3 6 3 2.3535 -0.0026
3 6 4 2.6414 0.0005
3 6 5 -3.8983 0.0005
3 6 6 -3.2682 0.0022
3 6 7 4.9306 0.0032
3 6 8 3.4349 -0.0036
3 6 9 -4.9114 -0.0049
3 6 10 -3.3678 -0.0007
3 6 11 3.6524 0.0042
3 6 12 3.5765 0.0028
3 6 13 -2.0904 -0.0028
3 6 14 -4.0067 0.0030
3 6 15 1.3335 0.0001
3 6 16 4.1349 -0.0083
3 6 17 -1.2299 0.0039
3 6 18 -3.7108 0.0058
3 6 19 0.9008 -0.0048
3 6 20 2.8949 -0.0019
3 6 21 -0.1820 0.0010
3 6 22 -1.9387 0.0016
3 6 23 -0.4656 0.0022
3 6 24 1.1030 0.0005
3 6 25 0.8466 -0.0016
3 6 26 -0.5568 -0.0049
3 6 27 -0.9522 0.0005
3 6 28 0.2007 0.0043
3 6 29 0.6925 0.0001
3 6 30 0.0706 0.0008
3 6 31 -0.2900 -0.0033
3 7 0 -1.5554 -0.0011
3 7 1 1.1966 0.0003
3 7 2 1.7374 0.0033
3 7 3 -2.2420 -0.0010
3 7 4 -2.3705 -0.0046
3 7 5 3.1098 0.0030
3 7 6 2.9328 0.0011
3 7 7 -3.8112 -0.0055
3 7 8 -3.1130 0.0026
3 7 9 3.8414 0.0066
3 7 10 3.1487 -0.0018
3 7 11 -2.8179 -0.0067
3 7 12 -3.2825 0.0011
3 7 13 1.4353 0.0053
3 7 14 3.3257 -0.0041
3 7 15 -0.6560 -0.0011
3 7 16 -3.0384 0.0048
3 7 17 0.4484 -0.0026
3 7 18 2.4836 -0.0008
3 7 19 -0.2631 0.0003
3 7 20 -1.7594 -0.0015
3 7 21 0.0308 0.0041
3 7 22 0.8571 0.0015
3 7 23 0.1380 -0.0022
3 7 24 0.0432 -0.0056
3 7 25 -0.3878 -0.0036
3 7 26 -0.6061 0.0107
3 7 27 0.6228 0.0043
3 7 28 0.7400 -0.0074
3 7 29 -0.4875 -0.0012
3 8 0 1.2162 0.0049
3 8 1 -0.4902 -0.0029
3 8 2 -1.2269 -0.0064
3 8 3 1.1723 0.0023
3 8 4 1.7166 0.0071
3 8 5 -1.6469 -0.0014
3 8 6 -2.2363 -0.0030
3 8 7 2.1645 0.0015
3 8 8 2.5324 -0.0024
3 8 9 -2.3589 -0.0037
3 8 10 -2.7230 0.0033
3 8 11 1.7182 0.0072
3 8 12 2.7956 -0.0025
3 8 13 -0.6111 -0.0075
3 8 14 -2.5000 0.0032
3 8 15 -0.1424 0.0023
3 8 16 1.8567 -0.0015
3 8 17 0.2939 0.0016
3 8 18 -1.2300 -0.0031
3 8 19 -0.0435 0.0023
3 8 20 0.7616 0.0040
3 8 21 -0.4355 -0.0068
3 8 22 -0.2321 -0.0024
3 8 23 0.7973 0.0019
3 8 24 -0.4073 0.0058
3 8 25 -0.6524 0.0061
3 8 26 0.8433 -0.0109
3 9 0 0.1632 -0.0068
3 9 1 -0.1793 0.0035
3 9 2 -0.0374 0.0060
3 9 3 -0.1846 -0.0027
3 9 4 -0.6438 -0.0054
3 9 5 0.2869 -0.0003
3 9 6 1.3571 0.0016
3 9 7 -0.5440 0.0021
3 9 8 -1.7856 0.0024
3 9 9 0.7993 0.0006
3 9 10 1.9562 -0.0018
3 9 11 -0.5421 -0.0062
3 9 12 -1.8161 0.0008
3 9 13 -0.1520 0.0078
3 9 14 1.2461 -0.0031
3 9 15 0.6767 -0.0029
3 9 16 -0.5068 0.0032
3 9 17 -0.6567 -0.0004
3 9 18 0.1243 0.0013
3 9 19 0.1328 -0.0051
3 9 20 -0.2054 -0.0028
3 9 21 0.6044 0.0109
3 9 22 0.3069 0.0007
3 10 0 -1.1899 0.0062
3 10 1 -0.1215 -0.0017
3 10 2 0.9649 -0.0044
3 10 3 -0.0040 0.0024
3 10 4 -0.1883 0.0037
3 10 5 0.3757 0.0004
3 10 6 -0.5768 -0.0015
3 10 7 -0.4719 -0.0030
3 10 8 0.9772 0.0005
3 10 9 0.2490 0.0009
3 10 10 -1.0168 -0.0032
3 10 11 -0.1388 0.0048
3 10 12 0.7214 0.0029
3 10 13 0.3063 -0.0079
3 10 14 -0.1361 0.0037
3 10 15 -0.4581 0.0055
3 10 16 -0.3985 -0.0067
3 10 17 0.3336 -0.0039
3 11 0 0.8021 -0.0038
3 11 1 0.5297 -0.0006
3 11 2 -0.7567 0.0027
3 11 6 0.1288 0.0027
3 11 7 0.5711 0.0031
3 11 8 -0.3288 -0.0045
3 11 9 -0.3936 -0.0016
3 11 10 0.2887 0.0087
3 11 11 0.1128 -0.0030
3 11 12 -0.0664 -0.0069
4 0 0 10.9086 -0.0756
4 0 6 -28.5836 -0.0322
4 0 8 21.6476 0.0065
4 0 10 -14.0244 0.0010
4 0 12 8.6382 -0.0180
4 0 16 -0.1669 -0.0310
4 0 18 2.3010 0.0131
4 0 20 -2.5704 -0.0060
4 0 22 2.5167 -0.0012
4 0 24 -2.4475 0.0154
4 0 26 2.1145 -0.0176
4 0 28 -2.0320 0.0044
4 0 32 -2.3461 -0.0037
4 0 34 1.8766 0.0012
4 0 36 -1.4617 0.0024
4 1 0 -8.1981 0.0505
4 1 1 -8.2702 0.0097
4 1 2 17.2529 0.0237
4 1 6 24.8329 0.0263
4 1 7 8.6388 -0.0031
4 1 8 -19.1923 0.0018
4 1 9 -6.3042 0.0058
4 1 10 12.7784 -0.0064
4 1 11 4.3810 -0.0031
4 1 12 -8.0368 0.0149
4 1 13 -2.8298 -0.0003
4 1 15 1.4535 -0.0004
4 1 16 0.4336 0.0154
4 1 17 -0.4752 0.0043
4 1 18 -2.5111 -0.0017
4 1 19 0.0403 -0.0072
4 1 20 2.7665 0.0018
4 1 21 0.1446 0.0060
4 1 22 -2.6861 -0.0007
4 1 23 -0.3656 -0.0023
4 1 24 2.5470 -0.0103
4 1 25 0.5843 0.0002
4 1 26 -2.0823 0.0127
4 1 27 -0.7115 -0.0015
4 1 28 1.7700 -0.0018
4 1 29 0.8052 0.0033
4 1 30 -1.8182 -0.0055
4 1 31 -0.9298 -0.0025
4 1 32 1.6984 0.0051
4 1 33 1.0602 -0.0018
4 1 34 -1.3216 -0.0048
4 1 35 -1.1153 0.0073
4 1 36 1.0842 0.0023
4 1 37 0.9906 -0.0098
4 2 0 2.2599 -0.0065
4 2 1 11.6422 0.0012
4 2 2 -8.5835 -0.0367
4 2 3 -15.3420 -0.0065
4 2 4 14.3269 0.0433
4 2 6 -15.6487 -0.0094
4 2 7 -13.8859 0.0042
4 2 8 12.6723 -0.0139
4 2 9 10.7591 -0.0064
4 2 10 -8.9307 0.0117
4 2 11 -7.8175 0.0033
4 2 12 5.8097 -0.0080
4 2 13 5.0622 0.0003
4 2 14 -2.3259 0.0047
4 2 15 -2.4393 -0.0023
4 2 16 -0.9939 0.0069
4 2 17 0.5009 0.0022
4 2 18 2.5422 -0.0111
4 2 19 0.4717 -0.0004
4 2 20 -2.5973 -0.0006
4 2 21 -0.9025 -0.0001
4 2 22 2.5105 0.0066
4 2 23 1.1598 -0.0020
4 2 24 -2.4291 0.0016
4 2 25 -1.1873 0.0024
4 2 26 1.9540 -0.0059
4 2 27 0.9923 0.0016
4 2 28 -1.3611 0.0003
4 2 29 -0.8339 -0.0058
4 2 30 0.9322 0.0030
4 2 31 0.8932 0.0054
4 2 32 -0.5587 -0.0026
4 2 33 -1.1212 -0.0014
4 2 34 0.3517 0.0038
4 2 35 1.3196 -0.0024
4 2 36 -0.4326 -0.0019
4 3 0 2.5142 -0.0132
4 3 1 -9.7161 -0.0155
4 3 2 1.0288 0.0263
4 3 3 13.8131 0.0112
4 3 4 -4.6425 -0.0190
4 3 5 -15.3396 -0.0001
4 3 6 5.9185 -0.0044
4 3 7 14.1970 -0.0091
4 3 8 -4.8851 0.0146
4 3 9 -11.6428 0.0088
4 3 10 3.4575 -0.0082
4 3 11 8.6977 -0.0022
4 3 12 -2.0671 0.0010
4 3 13 -5.5734 -0.0052
4 3 14 0.1062 0.0069
4 3 15 2.6182 0.0110
4 3 16 1.6468 -0.0163
4 3 17 -0.5165 -0.0116
4 3 18 -2.0462 0.0124
4 3 19 -0.6174 0.0061
4 3 20 1.6558 0.0038
4 3 21 1.2568 -0.0011
4 3 22 -1.6250 -0.0099
4 3 23 -1.5743 0.0012
4 3 24 1.8867 0.0015
4 3 25 1.3991 -0.0017
4 3 26 -1.8138 0.0035
4 3 27 -0.8691 -0.0017
4 3 28 1.3115 -0.0006
4 3 29 0.4276 0.0051
4 3 30 -0.6085 -0.0004
4 3 31 -0.3486 -0.0038
4 3 32 0.0220 -0.0007
4 3 33 0.5936 0.0003
4 3 34 0.0881 0.0008
4 3 35 -0.8887 0.0014
4 3 36 0.1569 -0.0049
4 4 0 -3.8247 0.0110
4 4 1 6.1142 0.0102
4 4 2 2.2548 -0.0070
4 4 3 -9.7500 -0.0035
4 4 4 -0.7640 -0.0015
4 4 5 11.5610 -0.0041
4 4 6 0.3622 0.0091
4 4 7 -11.1881 0.0067
4 4 8 -0.7652 -0.0082
4 4 9 9.3389 -0.0030
4 4 10 1.0830 0.0044
4 4 11 -6.7610 -0.0024
4 4 12 -1.4299 -0.0021
4 4 13 4.0215 0.0075
4 4 14 2.1075 -0.0044
4 4 15 -1.8450 -0.0113
4 4 16 -2.4226 0.0116
4 4 17 0.6367 0.0097
4 4 18 1.8548 -0.0067
4 4 19 0.0399 -0.0026
4 4 20 -1.1453 -0.0049
4 4 21 -0.7217 -0.0019
4 4 22 1.1243 0.0057
4 4 23 1.2347 -0.0001
4 4 24 -1.5757 0.0023
4 4 25 -1.2003 0.0022
4 4 26 1.8200 -0.0043
4 4 27 0.7523 -0.0001
4 4 28 -1.4976 0.0007
4 4 29 -0.3102 -0.0023
4 4 30 0.7139 -0.0001
4 4 31 0.1428 0.0010
4 4 32 -0.0239 0.0022
4 4 33 -0.2930 0.0024
4 4 34 -0.0664 -0.0049
4 4 35 0.5227 -0.0046
4 5 0 2.9420 -0.0072
4 5 1 -3.8298 0.0028
4 5 2 -2.5924 -0.0026
4 5 3 6.5746 -0.0050
4 5 4 2.5393 0.0092
4 5 5 -7.9866 0.0040
4 5 6 -2.8780 -0.0083
4 5 7 7.7801 0.0002
4 5 8 3.1608 0.0042
4 5 9 -6.2956 -0.0031
4 5 10 -3.1192 -0.0049
4 5 11 4.0180 0.0024
4 5 12 3.0971 0.0066
4 5 13 -1.7754 -0.0016
4 5 14 -3.1830 -0.0009
4 5 15 0.5103 0.0018
4 5 16 2.8841 -0.0060
4 5 17 -0.2559 0.0001
4 5 18 -2.1014 0.0035
4 5 19 0.1003 -0.0032
4 5 20 1.4454 0.0020
4 5 21 0.4715 0.0021
4 5 22 -1.3363 0.0003
4 5 23 -1.0375 0.0025
4 5 24 1.5692 -0.0050
4 5 25 1.1589 -0.0045
4 5 26 -1.7172 0.0031
4 5 27 -0.9237 0.0023
4 5 28 1.4344 0.0003
4 5 29 0.5637 -0.0003
4 5 30 -0.7100 0.0010
4 5 31 -0.2791 0.0008
4 5 32 0.0679 -0.0040
4 5 33 0.2504 -0.0034
4 6 0 -1.9424 0.0027
4 6 1 2.7277 -0.0058
4 6 2 2.2337 0.0048
4 6 3 -4.4841 0.0047
4 6 4 -2.8252 -0.0082
4 6 5 5.3289 -0.0006
4 6 6 3.4034 0.0042
4 6 7 -5.2080 -0.0038
4 6 8 -3.5617 0.0001
4 6 9 4.1886 0.0034
4 6 10 3.3829 0.0023
4 6 11 -2.3582 0.0007
4 6 12 -3.2199 -0.0050
4 6 13 0.4761 -0.0038
4 6 14 3.0151 0.0008
4 6 15 0.4554 0.0049
4 6 16 -2.4865 0.0036
4 6 17 -0.4731 -0.0059
4 6 18 1.7775 -0.0013
4 6 19 0.4786 0.0042
4 6 20 -1.2759 -0.0013
4 6 21 -0.8349 0.0011
4 6 22 1.0643 -0.0012
4 6 23 1.1604 -0.0052
4 6 24 -1.0204 0.0023
4 6 25 -1.2377 0.0048
4 6 26 1.0435 0.0009
4 6 27 1.1360 -0.0036
4 6 28 -0.9229 -0.0012
4 6 29 -0.8246 0.0041
4 6 30 0.5166 -0.0033
4 6 31 0.4123 -0.0041
4 7 0 1.2483 0.0052
4 7 1 -1.6944 0.0015
4 7 2 -1.7124 -0.0064
4 7 3 2.6621 0.0004
4 7 4 2.4952 0.0050
4 7 5 -3.0878 -0.0029
4 7 6 -3.1241 0.0008
4 7 7 3.1742 0.0042
4 7 8 3.2695 -0.0053
4 7 9 -2.8304 -0.0027
4 7 10 -3.1270 0.0028
4 7 11 1.7234 0.0003
4 7 12 2.9133 0.0012
4 7 13 -0.2802 0.0015
4 7 14 -2.4548 -0.0005
4 7 15 -0.5738 -0.0044
4 7 16 1.6534 -0.0001
4 7 17 0.6768 0.0066
4 7 18 -0.8556 -0.0028
4 7 19 -0.5927 -0.0030
4 7 20 0.3697 0.0034
4 7 21 0.5888 -0.0042
4 7 22 -0.1127 -0.0004
4 7 23 -0.6033 0.0064
4 7 24 -0.0107 0.0009
4 7 25 0.7324 -0.0041
4 7 26 -0.0704 -0.0044
4 7 27 -0.9263 0.0055
4 7 28 0.2515 0.0026
4 7 29 0.8298 -0.0096
4 8 0 -0.4323 -0.0100
4 8 1 0.6668 0.0014
4 8 2 1.0035 0.0065
4 8 3 -1.1634 -0.0034
4 8 4 -1.9202 -0.0028
4 8 5 1.2804 0.0033
4 8 6 2.5933 -0.0025
4 8 7 -1.4414 -0.0019
4 8 8 -2.7584 0.0060
4 8 9 1.5827 0.0010
4 8 10 2.6823 -0.0032
4 8 11 -1.1529 -0.0021
4 8 12 -2.5125 -0.0013
4 8 13 0.2342 0.0018
4 8 14 2.0231 0.0020
4 8 15 0.4089 0.0032
4 8 16 -1.1931 -0.0022
4 8 17 -0.4007 -0.0068
4 8 18 0.4386 0.0045
4 8 19 0.0074 0.0009
4 8 20 -0.0293 -0.0042
4 8 21 0.4242 0.0088
4 8 22 -0.1985 0.0009
4 8 23 -0.5783 -0.0103
4 8 24 0.3758 -0.0020
4 8 25 0.2140 0.0062
4 8 26 -0.3649 0.0064
4 9 0 -0.4449 0.0086
4 9 1 0.0168 -0.0012
4 9 2 -0.4059 -0.0040
4 9 3 0.0943 0.0025
4 9 4 1.4856 0.0013
4 9 5 0.0630 -0.0000
4 9 6 -2.1005 0.0016
4 9 7 0.0259 -0.0037
4 9 8 2.0817 -0.0037
4 9 9 -0.3684 0.0036
4 9 10 -1.8599 0.0013
4 9 11 0.3693 0.0003
4 9 12 1.7002 0.0014
4 9 13 0.1296 -0.0019
4 9 14 -1.4345 0.0003
4 9 15 -0.5462 -0.0026
4 9 16 1.0020 -0.0013
4 9 17 0.3948 0.0052
4 9 18 -0.6683 -0.0027
4 9 19 0.2191 0.0032
4 9 20 0.5481 0.0053
4 9 21 -0.8535 -0.0149
4 9 22 -0.4008 -0.0033
4 10 0 0.9925 -0.0050
4 10 1 -0.2578 -0.0016
4 10 2 -0.0713 0.0011
4 10 3 0.5569 0.0002
4 10 4 -0.9577 -0.0000
4 10 5 -0.8897 -0.0031
4 10 6 1.4031 -0.0014
4 10 7 0.8257 0.0068
4 10 8 -1.1673 0.0025
4 10 9 -0.3813 -0.0056
4 10 10 0.7660 -0.0004
4 10 11 0.1334 0.0002
4 10 12 -0.5790 0.0000
4 10 13 -0.3706 0.0029
4 10 14 0.5457 -0.0048
4 10 15 0.6835 -0.0001
4 10 16 -0.5581 0.0061
4 10 17 -0.5921 -0.0017
4 11 0 -0.9641 0.0024
4 11 1 0.0784 0.0053
4 11 2 0.4244 0.0002
4 11 3 -0.5109 -0.0025
4 11 6 -0.5222 0.0008
4 11 7 -0.7550 -0.0045
4 11 8 0.3151 -0.0006
4 11 9 0.3611 0.0029
4 11 10 0.0114 -0.0020
4 11 11 -0.0805 0.0012
4 11 12 -0.1557 0.0010
5 0 0 -34.2636 -0.0175
5 0 6 32.7519 0.0193
5 0 8 -24.0077 0.0149
5 0 10 16.4330 -0.0048
5 0 12 -12.1811 -0.0018
5 0 14 8.8059 -0.0115
5 0 16 -4.9569 0.0175
5 0 18 2.0618 -0.0124
5 0 20 -0.7719 0.0089
5 0 22 0.2833 0.0005
5 0 24 -0.3812 -0.0169
5 0 26 0.9985 0.0186
5 0 28 -1.1312 -0.0019
5 0 30 0.2721 -0.0106
5 0 32 0.6602 0.0102
5 0 34 -0.8778 -0.0066
5 0 36 0.6226 0.0022
5 1 0 29.4153 0.0191
5 1 1 9.0277 0.0119
5 1 2 -32.1594 -0.0592
5 1 5 7.6517 0.0139
5 1 6 -29.3977 -0.0017
5 1 7 -5.1218 -0.0001
5 1 8 21.8837 -0.0242
5 1 9 2.9453 -0.0084
5 1 10 -15.2494 0.0060
5 1 11 -1.7412 0.0057
5 1 12 11.4124 0.0080
5 1 13 0.9896 0.0014
5 1 14 -8.2106 0.0001
5 1 15 -0.0729 -0.0040
5 1 16 4.6003 -0.0059
5 1 17 -0.8035 0.0007
5 1 18 -1.9755 0.0049
5 1 19 1.1173 0.0034
5 1 20 0.8313 -0.0063
5 1 21 -0.8472 -0.0040
5 1 22 -0.3344 0.0008
5 1 23 0.3710 0.0016
5 1 24 0.3302 0.0127
5 1 25 0.0037 0.0004
5 1 26 -0.8518 -0.0137
5 1 27 -0.1243 -0.0006
5 1 28 1.0196 -0.0005
5 1 29 -0.0417 -0.0004
5 1 30 -0.3329 0.0093
5 1 31 0.3460 0.0022
5 1 32 -0.4644 -0.0075
5 1 33 -0.5538 -0.0040
5 1 34 0.7261 0.0064
5 1 35 0.5453 0.0042
5 1 36 -0.6247 -0.0062
5 2 0 -18.5604 -0.0163
5 2 1 -12.5803 -0.0079
5 2 2 21.1054 0.0294
5 2 3 13.5152 0.0100
5 2 4 -22.7750 -0.0143
5 2 5 -11.7708 -0.0035
5 2 6 21.0397 -0.0221
5 2 7 8.3246 -0.0064
5 2 8 -16.3143 0.0296
5 2 9 -5.0625 0.0086
5 2 10 12.0208 -0.0033
5 2 11 2.9691 -0.0024
5 2 12 -9.4272 -0.0144
5 2 13 -1.4222 -0.0047
5 2 14 6.9402 0.0107
5 2 15 -0.2720 0.0078
5 2 16 -4.1081 -0.0051
5 2 17 1.6565 -0.0060
5 2 18 2.1392 0.0004
5 2 19 -2.0058 0.0012
5 2 20 -1.1863 0.0069
5 2 21 1.4343 0.0018
5 2 22 0.4709 -0.0049
5 2 23 -0.5673 -0.0005
5 2 24 -0.0707 -0.0064
5 2 25 -0.1385 -0.0012
5 2 26 0.2777 0.0079
5 2 27 0.4295 -0.0004
5 2 28 -0.5115 0.0016
5 2 29 -0.2252 0.0030
5 2 30 0.2801 -0.0048
5 2 31 -0.2490 -0.0033
5 2 32 0.1186 0.0013
5 2 33 0.6315 0.0018
5 2 34 -0.4017 -0.0024
5 2 35 -0.7292 -0.0003
5 2 36 0.5794 0.0059
5 3 0 8.8228 0.0116
5 3 1 10.5281 -0.0020
5 3 2 -10.6593 -0.0094
5 3 3 -12.2906 0.0078
5 3 4 12.1657 -0.0048
5 3 5 11.4866 -0.0125
5 3 6 -11.6498 0.0226
5 3 7 -8.7251 0.0123
5 3 8 9.4559 -0.0188
5 3 9 5.7023 -0.0044
5 3 10 -7.6729 -0.0009
5 3 11 -3.4010 -0.0056
5 3 12 6.7501 0.0102
5 3 13 1.4541 0.0116
5 3 14 -5.5300 -0.0075
5 3 15 0.4504 -0.0127
5 3 16 3.9173 0.0054
5 3 17 -1.7384 0.0087
5 3 18 -2.7021 -0.0010
5 3 19 1.9307 -0.0010
5 3 20 1.7438 -0.0067
5 3 21 -1.3558 -0.0037
5 3 22 -0.5637 0.0057
5 3 23 0.5590 0.0016
5 3 24 -0.3994 0.0026
5 3 25 0.1572 0.0014
5 3 26 0.6131 -0.0029
5 3 27 -0.5474 0.0003
5 3 28 -0.3593 -0.0025
5 3 29 0.4716 -0.0028
5 3 30 0.1010 0.0001
5 3 31 -0.1045 0.0008
5 3 32 -0.0140 0.0063
5 3 33 -0.2608 0.0043
5 3 34 0.2052 -0.0054
5 3 35 0.4594 -0.0077
5 3 36 -0.5145 0.0002
5 4 0 -3.7156 -0.0061
5 4 1 -6.9823 0.0060
5 4 2 4.5954 0.0003
5 4 3 8.8567 -0.0103
5 4 4 -5.1380 0.0075
5 4 5 -8.7739 0.0092
5 4 6 4.6728 -0.0114
5 4 7 7.0362 -0.0028
5 4 8 -3.7699 0.0056
5 4 9 -4.8536 -0.0050
5 4 10 3.5553 0.0005
5 4 11 2.9294 0.0087
5 4 12 -3.8663 0.0009
5 4 13 -1.1958 -0.0085
5 4 14 3.8244 -0.0016
5 4 15 -0.2229 0.0072
5 4 16 -3.3679 -0.0026
5 4 17 0.8988 -0.0036
5 4 18 2.7722 0.0022
5 4 19 -0.8887 -0.0026
5 4 20 -1.7820 0.0031
5 4 21 0.6606 0.0052
5 4 22 0.3557 -0.0027
5 4 23 -0.3882 -0.0016
5 4 24 0.8238 -0.0012
5 4 25 0.0290 -0.0013
5 4 26 -1.2363 -0.0012
5 4 27 0.2610 -0.0007
5 4 28 1.0170 0.0040
5 4 29 -0.3267 0.0018
5 4 30 -0.5232 0.0025
5 4 31 0.2376 0.0033
5 4 32 0.1602 -0.0110
5 4 33 -0.0770 -0.0119
5 4 34 -0.2406 0.0112
5 5 0 1.6766 -0.0007
5 5 1 4.6660 -0.0056
5 5 2 -1.8964 0.0072
5 5 3 -5.9615 0.0044
5 5 4 1.6745 -0.0101
5 5 5 5.9136 0.0009
5 5 6 -1.0002 0.0061
5 5 7 -4.7771 -0.0072
5 5 8 0.5579 -0.0003
5 5 9 3.3185 0.0084
5 5 10 -0.8841 0.0014
5 5 11 -1.8536 -0.0035
5 5 12 1.5992 -0.0064
5 5 13 0.4938 -0.0011
5 5 14 -2.1202 0.0040
5 5 15 0.3106 0.0018
5 5 16 2.3151 0.0032
5 5 17 -0.3350 -0.0024
5 5 18 -2.0530 -0.0039
5 5 19 0.0944 0.0044
5 5 20 1.1239 -0.0003
5 5 21 -0.0921 -0.0036
5 5 22 0.1382 0.0003
5 5 23 0.1931 0.0004
5 5 24 -1.0433 0.0005
5 5 25 -0.1685 0.0003
5 5 26 1.3287 0.0030
5 5 27 0.1063 0.0016
5 5 28 -1.1379 -0.0036
5 5 29 -0.0528 -0.0002
5 5 30 0.6622 -0.0037
5 5 31 -0.0486 -0.0068
5 5 32 -0.2570 0.0105
5 5 33 0.0873 0.0159
5 6 0 -0.6156 0.0048
5 6 1 -3.0203 0.0063
5 6 2 0.5872 -0.0084
5 6 3 3.7522 -0.0031
5 6 4 -0.1768 0.0076
5 6 5 -3.6302 -0.0024
5 6 6 -0.3818 -0.0011
5 6 7 2.9387 0.0066
5 6 8 0.5287 -0.0037
5 6 9 -2.0951 -0.0045
5 6 10 -0.0927 0.0003
5 6 11 1.0258 -0.0019
5 6 12 -0.5980 0.0049
5 6 13 0.1364 0.0056
5 6 14 1.2668 -0.0026
5 6 15 -0.7216 -0.0057
5 6 16 -1.7173 -0.0025
5 6 17 0.5082 0.0058
5 6 18 1.5584 0.0015
5 6 19 -0.1145 -0.0051
5 6 20 -0.6620 0.0012
5 6 21 0.0123 0.0014
5 6 22 -0.4050 0.0002
5 6 23 -0.0667 0.0016
5 6 24 1.0232 -0.0007
5 6 25 0.1630 -0.0008
5 6 26 -1.1617 -0.0026
5 6 27 -0.3415 0.0006
5 6 28 1.0051 0.0025
5 6 29 0.4112 -0.0045
5 6 30 -0.6132 0.0028
5 6 31 -0.2326 0.0098
5 7 0 0.2372 -0.0039
5 7 1 1.3960 -0.0045
5 7 2 -0.0572 0.0014
5 7 3 -1.8755 0.0016
5 7 4 -0.3827 0.0018
5 7 5 1.8488 0.0015
5 7 6 0.7374 -0.0061
5 7 7 -1.6515 -0.0027
5 7 8 -0.6510 0.0074
5 7 9 1.4931 0.0002
5 7 10 0.2058 -0.0019
5 7 11 -0.9824 0.0032
5 7 12 0.3765 -0.0039
5 7 13 0.0904 -0.0047
5 7 14 -1.0660 0.0032
5 7 15 0.4833 0.0065
5 7 16 1.6528 -0.0006
5 7 17 -0.3754 -0.0088
5 7 18 -1.5993 0.0016
5 7 19 0.0120 0.0060
5 7 20 0.7719 -0.0019
5 7 21 0.1965 0.0016
5 7 22 0.2129 -0.0011
5 7 23 -0.1922 -0.0055
5 7 24 -0.7735 0.0008
5 7 25 -0.0877 0.0039
5 7 26 0.9260 0.0039
5 7 27 0.5414 -0.0048
5 7 28 -0.8449 -0.0053
5 8 0 -0.1725 0.0014
5 8 1 -0.2854 0.0000
5 8 2 -0.2178 0.0041
5 8 3 0.5770 0.0024
5 8 4 0.7001 -0.0065
5 8 5 -0.5486 -0.0020
5 8 6 -0.8753 0.0073
5 8 7 0.6415 -0.0011
5 8 8 0.6250 -0.0060
5 8 9 -1.0331 0.0040
5 8 10 -0.2746 0.0008
5 8 11 1.1652 -0.0038
5 8 12 -0.0112 0.0040
5 8 13 -0.7550 0.0028
5 8 14 0.4385 -0.0033
5 8 15 0.3340 -0.0058
5 8 16 -0.9602 0.0010
5 8 17 -0.3635 0.0089
5 8 18 1.0737 -0.0018
5 8 19 0.6516 -0.0032
5 8 20 -0.5642 0.0015
5 8 21 -0.8195 -0.0077
5 8 22 -0.1187 0.0012
5 8 23 0.6381 0.0106
5 8 24 0.5072 0.0003
5 8 25 -0.0356 -0.0053
5 9 0 -0.1846 0.0017
5 9 1 -0.3924 0.0011
5 9 2 0.6948 -0.0054
5 9 3 0.3083 -0.0023
5 9 4 -1.0508 0.0054
5 9 5 -0.4146 -0.0007
5 9 6 0.9243 -0.0046
5 9 7 0.2624 0.0061
5 9 8 -0.4685 0.0039
5 9 9 0.3275 -0.0077
5 9 10 0.2471 -0.0006
5 9 11 -0.7940 0.0036
5 9 12 -0.4224 -0.0028
5 9 13 0.7185 0.0004
5 9 14 0.5666 0.0016
5 9 15 -0.4696 0.0017
5 9 16 -0.4151 0.0000
5 9 17 0.5443 -0.0044
5 9 18 0.2408 0.0025
5 9 19 -0.8804 -0.0020
5 9 20 -0.2976 -0.0041
5 9 21 1.0714 0.0123
5 10 0 0.3415 -0.0062
5 10 1 0.9319 0.0003
5 10 2 -0.7788 0.0075
5 10 3 -0.9346 0.0004
5 10 4 0.9313 -0.0059
5 10 5 0.9739 0.0023
5 10 6 -0.5751 0.0049
5 10 7 -0.7933 -0.0064
5 10 8 -0.0031 -0.0047
5 10 9 0.2906 0.0060
5 10 10 0.1647 0.0013
5 10 11 0.0880 -0.0005
5 10 12 0.2642 0.0024
5 10 13 0.0051 -0.0038
5 10 14 -0.8070 -0.0011
5 10 15 -0.2423 0.0016
5 10 16 1.0267 0.0000
5 11 0 0.0654 0.0085
5 11 1 -0.8012 -0.0002
5 11 2 0.1812 -0.0086
5 11 3 0.8005 -0.0017
5 11 6 -0.0206 -0.0052
5 11 7 0.6507 0.0007
5 11 8 0.4580 0.0041
5 11 9 -0.3804 -0.0006
5 11 10 -0.5983 0.0006
5 11 11 0.2168 -0.0019
5 11 12 0.2945 -0.0040
6 0 0 15.9675 0.0139
6 0 8 13.0591 -0.0069
6 0 10 -11.5641 -0.0112
6 0 12 11.6309 0.0155
6 0 14 -10.5571 0.0064
6 0 16 7.3392 -0.0195
6 0 18 -4.3247 0.0137
6 0 20 3.1571 -0.0060
6 0 22 -3.1469 -0.0038
6 0 24 3.4141 0.0174
6 0 26 -3.5007 -0.0174
6 0 28 2.7280 0.0005
6 0 30 -1.1687 0.0119
6 0 32 0.0906 -0.0109
6 0 34 -0.1986 0.0063
6 0 36 0.7661 -0.0006
6 1 0 -13.5568 0.0012
6 1 1 -0.9505 -0.0165
6 1 2 13.0182 0.0158
6 1 3 0.6105 0.0140
6 1 6 13.8611 -0.0044
6 1 7 0.0095 -0.0105
6 1 8 -11.8786 0.0103
6 1 9 -0.0778 0.0134
6 1 10 10.6598 0.0118
6 1 11 0.4329 -0.0037
6 1 12 -10.8793 -0.0179
6 1 13 -0.4776 -0.0077
6 1 14 10.0112 -0.0022
6 1 15 -0.1460 0.0105
6 1 16 -7.1686 0.0148
6 1 17 0.8900 -0.0047
6 1 18 4.5047 -0.0106
6 1 19 -0.9786 -0.0022
6 1 20 -3.4312 0.0052
6 1 21 0.3860 0.0042
6 1 22 3.2704 0.0018
6 1 23 0.2970 -0.0020
6 1 24 -3.3031 -0.0124
6 1 25 -0.6145 -0.0010
6 1 26 3.2231 0.0114
6 1 27 0.5275 0.0031
6 1 28 -2.4574 0.0026
6 1 29 -0.2468 -0.0031
6 1 30 1.0598 -0.0108
6 1 31 0.0395 -0.0003
6 1 32 -0.1163 0.0094
6 1 33 -0.0436 0.0053
6 1 34 0.1793 -0.0098
6 1 35 0.1765 -0.0065
6 1 36 -0.5900 0.0103
6 2 0 8.5790 -0.0216
6 2 1 0.0955 -0.0007
6 2 2 -8.9351 0.0123
6 2 3 -0.0442 0.0007
6 2 4 10.2349 -0.0067
6 2 5 -0.1157 -0.0060
6 2 6 -10.3970 0.0153
6 2 7 0.3529 0.0120
6 2 8 9.1433 -0.0094
6 2 9 -0.2118 -0.0095
6 2 10 -8.6319 -0.0119
6 2 11 -0.3399 0.0003
6 2 12 9.2045 0.0151
6 2 13 0.4661 0.0066
6 2 14 -8.7498 0.0014
6 2 15 0.3088 -0.0067
6 2 16 6.6820 -0.0095
6 2 17 -1.1531 0.0018
6 2 18 -4.7125 0.0058
6 2 19 1.0312 0.0038
6 2 20 3.7668 -0.0039
6 2 21 -0.0636 -0.0054
6 2 22 -3.2681 0.0007
6 2 23 -0.8606 0.0021
6 2 24 2.8647 0.0062
6 2 25 1.1893 0.0020
6 2 26 -2.5199 -0.0046
6 2 27 -0.9695 -0.0029
6 2 28 1.8478 -0.0048
6 2 29 0.5378 0.0017
6 2 30 -0.8566 0.0073
6 2 31 -0.2553 -0.0008
6 2 32 0.2244 -0.0055
6 2 33 0.2528 0.0009
6 2 34 -0.1726 0.0113
6 2 35 -0.3570 -0.0028
6 2 36 0.2297 -0.0185
6 3 0 -4.9640 0.0145
6 3 1 1.7183 0.0204
6 3 2 5.6899 -0.0125
6 3 3 -1.1701 -0.0162
6 3 4 -6.7344 0.0114
6 3 5 0.8256 0.0114
6 3 6 6.8954 -0.0143
6 3 7 -0.7725 -0.0063
6 3 8 -6.3698 0.0073
6 3 9 0.5079 -0.0004
6 3 10 6.6395 0.0047
6 3 11 0.0677 0.0047
6 3 12 -7.5336 -0.0033
6 3 13 -0.2313 -0.0038
6 3 14 7.3940 -0.0048
6 3 15 -0.3088 0.0006
6 3 16 -5.9676 0.0030
6 3 17 0.7094 0.0028
6 3 18 4.4893 0.0019
6 3 19 -0.2225 -0.0060
6 3 20 -3.4891 0.0006
6 3 21 -0.7773 0.0059
6 3 22 2.6604 -0.0026
6 3 23 1.4938 -0.0014
6 3 24 -2.0063 0.0000
6 3 25 -1.6356 -0.0024
6 3 26 1.5798 -0.0014
6 3 27 1.3730 0.0013
6 3 28 -1.0793 0.0046
6 3 29 -1.0101 0.0003
6 3 30 0.5013 -0.0013
6 3 31 0.8061 0.0026
6 3 32 -0.1779 -0.0005
6 3 33 -0.7533 -0.0087
6 3 34 0.0505 -0.0102
6 3 35 0.6234 0.0133
6 4 0 3.7679 0.0016
6 4 1 -2.3035 -0.0136
6 4 2 -4.3095 0.0010
6 4 3 1.5831 0.0090
6 4 4 4.6892 -0.0050
6 4 5 -1.0045 -0.0026
6 4 6 -4.5285 0.0070
6 4 7 0.7122 -0.0033
6 4 8 4.3848 -0.0030
6 4 9 -0.3219 0.0057
6 4 10 -5.0886 0.0004
6 4 11 -0.1627 -0.0021
6 4 12 6.0658 -0.0041
6 4 13 0.2403 -0.0034
6 4 14 -6.0804 0.0037
6 4 15 0.0318 0.0049
6 4 16 5.0687 0.0051
6 4 17 0.0754 -0.0042
6 4 18 -3.7982 -0.0083
6 4 19 -0.7946 0.0048
6 4 20 2.6066 0.0007
6 4 21 1.5491 -0.0045
6 4 22 -1.5773 0.0052
6 4 23 -1.8663 0.0014
6 4 24 0.9365 -0.0048
6 4 25 1.7936 0.0002
6 4 26 -0.5881 0.0043
6 4 27 -1.5370 0.0017
6 4 28 0.1959 -0.0020
6 4 29 1.2948 -0.0014
6 4 30 0.1647 -0.0049
6 4 31 -1.1967 -0.0054
6 4 32 -0.2796 0.0054
6 4 33 1.0907 0.0145
6 5 0 -3.1676 -0.0018
6 5 1 1.3526 -0.0010
6 5 2 3.5971 -0.0009
6 5 3 -0.8912 0.0039
6 5 4 -3.5784 0.0031
6 5 5 0.4855 -0.0076
6 5 6 3.2002 -0.0004
6 5 7 -0.2228 0.0103
6 5 8 -3.1580 -0.0042
6 5 9 -0.1499 -0.0074
6 5 10 3.8656 0.0029
6 5 11 0.4400 -0.0007
6 5 12 -4.6783 0.0017
6 5 13 -0.3230 0.0062
6 5 14 4.7699 0.0012
6 5 15 0.1830 -0.0050
6 5 16 -4.0774 -0.0089
6 5 17 -0.6230 0.0026
6 5 18 2.9091 0.0077
6 5 19 1.4335 -0.0033
6 5 20 -1.5451 0.0014
6 5 21 -1.9362 0.0039
6 5 22 0.4656 -0.0058
6 5 23 1.9328 -0.0027
6 5 24 -0.0158 0.0041
6 5 25 -1.6374 0.0029
6 5 26 -0.1340 -0.0023
6 5 27 1.2308 -0.0036
6 5 28 0.4149 -0.0014
6 5 29 -0.9221 0.0002
6 5 30 -0.6667 0.0072
6 5 31 0.8527 0.0076
6 5 32 0.6525 -0.0055
6 6 0 2.0589 -0.0025
6 6 1 -0.4847 0.0019
6 6 2 -2.5643 0.0023
6 6 3 0.1512 -0.0051
6 6 4 2.5780 -0.0008
6 6 5 0.0469 0.0091
6 6 6 -2.3388 -0.0044
6 6 7 -0.1569 -0.0116
6 6 8 2.4535 0.0086
6 6 9 0.4267 0.0080
6 6 10 -3.0783 -0.0054
6 6 11 -0.5448 -0.0005
6 6 12 3.7046 0.0002
6 6 13 0.2600 -0.0035
6 6 14 -3.8574 -0.0019
6 6 15 -0.1214 0.0032
6 6 16 3.3886 0.0060
6 6 17 0.6571 -0.0034
6 6 18 -2.2473 -0.0032
6 6 19 -1.4706 0.0044
6 6 20 0.7277 -0.0023
6 6 21 1.8899 -0.0026
6 6 22 0.3747 0.0020
6 6 23 -1.7934 0.0004
6 6 24 -0.6158 0.0008
6 6 25 1.3415 -0.0011
6 6 26 0.4693 -0.0007
6 6 27 -0.7027 0.0012
6 6 28 -0.4808 0.0016
6 6 29 0.2394 0.0026
6 6 30 0.5407 -0.0043
6 7 0 -1.0032 -0.0009
6 7 1 0.5392 0.0009
6 7 2 1.4280 0.0033
6 7 3 -0.1336 0.0026
6 7 4 -1.5480 -0.0045
6 7 5 -0.0028 -0.0060
6 7 6 1.6318 0.0061
6 7 7 0.0975 0.0070
6 7 8 -2.0548 -0.0064
6 7 9 -0.4808 -0.0038
6 7 10 2.7199 0.0024
6 7 11 0.7546 -0.0004
6 7 12 -3.2359 0.0017
6 7 13 -0.5505 0.0020
6 7 14 3.3944 -0.0001
6 7 15 0.3438 -0.0032
6 7 16 -3.0306 -0.0027
6 7 17 -0.6626 0.0060
6 7 18 1.9116 0.0008
6 7 19 1.2408 -0.0048
6 7 20 -0.3195 0.0012
6 7 21 -1.5560 -0.0021
6 7 22 -0.8306 0.0011
6 7 23 1.4491 0.0061
6 7 24 1.0139 -0.0018
6 7 25 -0.9440 -0.0035
6 7 26 -0.6692 -0.0018
6 7 27 0.2305 0.0017
6 8 0 0.2410 0.0031
6 8 1 -0.9541 0.0010
6 8 2 -0.5243 -0.0061
6 8 3 0.6021 -0.0030
6 8 4 0.7311 0.0057
6 8 5 -0.5062 0.0028
6 8 6 -1.0773 -0.0041
6 8 7 0.2751 0.0002
6 8 8 1.6816 0.0029
6 8 9 0.4679 -0.0032
6 8 10 -2.2389 -0.0004
6 8 11 -1.2104 0.0022
6 8 12 2.4723 -0.0018
6 8 13 1.3258 0.0010
6 8 14 -2.4534 0.0000
6 8 15 -1.0561 0.0003
6 8 16 2.1641 0.0020
6 8 17 0.9703 -0.0047
6 8 18 -1.3297 -0.0001
6 8 19 -1.1014 0.0027
6 8 20 0.0680 -0.0017
6 8 21 1.1451 0.0057
6 8 22 0.9004 0.0004
6 8 23 -0.9126 -0.0083
6 8 24 -1.0868 -0.0016
6 9 0 0.4512 -0.0010
6 9 1 1.2794 -0.0007
6 9 2 -0.0732 0.0032
6 9 3 -1.0356 0.0020
6 9 4 -0.3077 -0.0026
6 9 5 0.9689 -0.0005
6 9 6 0.7600 0.0014
6 9 7 -0.6644 -0.0036
6 9 8 -1.2305 -0.0015
6 9 9 -0.2379 0.0042
6 9 10 1.3680 -0.0001
6 9 11 1.2147 0.0020
6 9 12 -1.0818 0.0028
6 9 13 -1.5244 -0.0086
6 9 14 0.7430 -0.0020
6 9 15 1.2409 0.0066
6 9 16 -0.5635 0.0002
6 9 17 -0.9469 0.0011
6 9 18 0.2929 -0.0019
6 9 19 0.8563 -0.0022
6 9 20 0.2169 0.0036
6 10 0 -0.6883 0.0016
6 10 1 -1.3654 -0.0017
6 10 2 0.1817 -0.0020
6 10 3 1.0850 -0.0004
6 10 4 0.2913 0.0006
6 10 5 -1.0005 0.0010
6 10 6 -0.6855 0.0003
6 10 7 0.8301 0.0008
6 10 8 0.9145 -0.0006
6 10 9 -0.2377 0.0007
6 10 10 -0.7072 0.0041
6 10 11 -0.4444 -0.0074
6 10 12 0.1073 -0.0086
6 10 13 0.6478 0.0127
6 10 14 0.4032 0.0073
6 10 15 -0.4355 -0.0087
6 10 16 -0.5103 -0.0030
6 11 0 0.3278 -0.0034
6 11 1 0.9107 0.0012
6 11 2 0.0828 0.0023
6 11 3 -0.6394 0.0015
6 11 7 -0.6685 0.0034
6 11 8 -0.8191 0.0034
6 11 9 0.5019 -0.0038
6 11 10 0.6447 -0.0086
6 11 11 -0.2077 0.0065
7 0 0 12.8884 0.0214
7 0 8 -1.4291 0.0030
7 0 10 4.1016 0.0020
7 0 12 -6.3500 -0.0044
7 0 14 6.5093 -0.0103
7 0 16 -4.5161 0.0164
7 0 18 2.9532 -0.0081
7 0 20 -3.1069 0.0028
7 0 22 3.5927 0.0018
7 0 24 -3.1784 -0.0124
7 0 26 2.0371 0.0137
7 0 28 -0.6206 0.0003
7 0 30 -0.5137 -0.0102
7 0 32 0.5912 0.0056
7 0 34 0.2902 0.0033
7 0 36 -1.0027 -0.0108
7 1 0 -12.3099 -0.0280
7 1 1 -4.2742 -0.0012
7 1 2 11.8748 -0.0055
7 1 3 3.2437 0.0052
7 1 4 -7.6572 0.0320
7 1 7 0.2237 0.0135
7 1 8 0.5494 -0.0028
7 1 9 0.5858 -0.0084
7 1 10 -3.2768 -0.0018
7 1 11 -1.0128 -0.0035
7 1 12 5.7001 0.0041
7 1 13 1.0503 0.0121
7 1 14 -6.1182 0.0081
7 1 15 -0.6416 -0.0102
7 1 16 4.4589 -0.0120
7 1 17 0.1721 0.0008
7 1 18 -3.1280 0.0041
7 1 19 -0.1274 0.0071
7 1 20 3.2705 -0.0007
7 1 21 0.4273 -0.0082
7 1 22 -3.6016 -0.0013
7 1 23 -0.6016 0.0046
7 1 24 3.0741 0.0091
7 1 25 0.4429 -0.0003
7 1 26 -1.9390 -0.0089
7 1 27 -0.1354 -0.0034
7 1 28 0.6415 -0.0039
7 1 29 -0.0705 0.0054
7 1 30 0.3191 0.0117
7 1 31 0.0746 -0.0034
7 1 32 -0.2988 -0.0083
7 1 33 0.0465 -0.0005
7 1 34 -0.5096 0.0042
7 1 35 -0.1250 -0.0002
7 1 36 1.0565 -0.0006
7 2 0 10.3682 0.0274
7 2 1 7.7785 0.0095
7 2 2 -9.9929 0.0007
7 2 3 -6.1681 -0.0073
7 2 4 7.0870 -0.0216
7 2 5 3.5778 0.0076
7 2 6 -3.7111 0.0106
7 2 7 -1.3507 -0.0084
7 2 8 1.1064 0.0031
7 2 9 -0.1554 0.0039
7 2 10 1.5333 -0.0002
7 2 11 1.2131 0.0031
7 2 12 -4.0782 -0.0007
7 2 13 -1.7030 -0.0057
7 2 14 4.8798 -0.0060
7 2 15 1.4351 0.0025
7 2 16 -3.9376 0.0042
7 2 17 -0.9426 0.0026
7 2 18 3.2180 0.0029
7 2 19 0.9063 -0.0060
7 2 20 -3.4777 -0.0015
7 2 21 -1.1858 0.0055
7 2 22 3.6275 -0.0007
7 2 23 1.1890 -0.0016
7 2 24 -2.9895 -0.0038
7 2 25 -0.7895 -0.0021
7 2 26 1.9152 0.0033
7 2 27 0.3422 0.0035
7 2 28 -0.8205 0.0060
7 2 29 -0.1566 -0.0034
7 2 30 0.1343 -0.0105
7 2 31 0.2662 0.0032
7 2 32 -0.2671 0.0093
7 2 33 -0.4627 -0.0041
7 2 34 0.8416 -0.0121
7 2 35 0.4774 0.0078
7 2 36 -0.9974 0.0142
7 3 0 -7.0458 -0.0095
7 3 1 -9.5101 -0.0111
7 3 2 6.6775 -0.0019
7 3 3 7.9221 0.0030
7 3 4 -5.0685 0.0066
7 3 5 -5.2823 0.0005
7 3 6 3.2499 0.0031
7 3 7 2.9057 -0.0006
7 3 8 -1.6002 -0.0090
7 3 9 -1.0528 0.0008
7 3 10 -0.4745 0.0040
7 3 11 -0.5261 0.0002
7 3 12 2.4967 -0.0010
7 3 13 1.5870 -0.0031
7 3 14 -3.1664 -0.0000
7 3 15 -1.8903 0.0041
7 3 16 2.7168 0.0065
7 3 17 1.9249 -0.0023
7 3 18 -2.5857 -0.0091
7 3 19 -2.1847 0.0011
7 3 20 3.0517 0.0004
7 3 21 2.3919 -0.0006
7 3 22 -3.2251 0.0057
7 3 23 -2.1171 -0.0010
7 3 24 2.7172 -0.0015
7 3 25 1.5232 0.0020
7 3 26 -1.8091 -0.0008
7 3 27 -1.0591 -0.0006
7 3 28 0.8360 -0.0033
7 3 29 0.9322 -0.0002
7 3 30 -0.2696 0.0058
7 3 31 -1.0443 -0.0029
7 3 32 0.4116 -0.0093
7 3 33 1.0928 0.0086
7 3 34 -0.7542 0.0199
7 3 35 -0.8188 -0.0139
7 4 0 3.3409 -0.0066
7 4 1 8.8132 0.0006
7 4 2 -2.7785 0.0030
7 4 3 -7.5549 0.0028
7 4 4 1.9075 0.0042
7 4 5 5.3705 -0.0030
7 4 6 -1.1309 -0.0103
7 4 7 -3.3492 0.0022
7 4 8 0.3306 0.0078
7 4 9 1.6352 -0.0005
7 4 10 0.8449 -0.0011
7 4 11 -0.0896 -0.0036
7 4 12 -1.8273 -0.0018
7 4 13 -1.0352 0.0064
7 4 14 1.8611 0.0053
7 4 15 1.6919 -0.0030
7 4 16 -1.4088 -0.0108
7 4 17 -2.3312 -0.0026
7 4 18 1.3874 0.0071
7 4 19 3.0506 0.0035
7 4 20 -1.7425 0.0057
7 4 21 -3.3341 -0.0012
7 4 22 1.8857 -0.0103
7 4 23 2.9444 0.0002
7 4 24 -1.6256 0.0027
7 4 25 -2.2819 0.0004
7 4 26 0.9959 0.0036
7 4 27 1.7809 -0.0020
7 4 28 -0.1625 -0.0030
7 4 29 -1.5591 0.0017
7 4 30 -0.3129 -0.0002
7 4 31 1.5067 0.0026
7 4 32 0.1022 0.0090
7 4 33 -1.3238 -0.0083
7 4 34 0.2522 -0.0241
7 5 0 -0.7815 0.0066
7 5 1 -6.3239 0.0085
7 5 2 -0.0565 -0.0011
7 5 3 5.3140 -0.0063
7 5 4 0.6663 -0.0047
7 5 5 -3.6946 0.0042
7 5 6 -0.9585 0.0037
7 5 7 2.2669 -0.0043
7 5 8 1.2516 0.0030
7 5 9 -1.0406 0.0029
7 5 10 -1.7084 -0.0059
7 5 11 0.0015 0.0019
7 5 12 1.8475 0.0035
7 5 13 0.6458 -0.0041
7 5 14 -1.3710 -0.0037
7 5 15 -1.1440 0.0004
7 5 16 0.7604 0.0059
7 5 17 1.9716 0.0033
7 5 18 -0.4635 -0.0003
7 5 19 -2.8976 -0.0017
7 5 20 0.3551 -0.0089
7 5 21 3.2204 -0.0011
7 5 22 -0.3000 0.0076
7 5 23 -2.8141 0.0014
7 5 24 0.2888 0.0026
7 5 25 2.1368 -0.0012
7 5 26 -0.0480 -0.0084
7 5 27 -1.5445 0.0018
7 5 28 -0.5199 0.0070
7 5 29 1.1836 -0.0011
7 5 30 0.8595 -0.0023
7 5 31 -1.0642 -0.0012
7 5 32 -0.5823 -0.0077
7 6 0 -0.0294 -0.0009
7 6 1 3.8005 -0.0075
7 6 2 0.9055 -0.0007
7 6 3 -2.9461 0.0069
7 6 4 -1.4164 0.0014
7 6 5 1.9277 -0.0074
7 6 6 1.6476 0.0028
7 6 7 -1.1472 0.0090
7 6 8 -1.9188 -0.0080
7 6 9 0.3919 -0.0068
7 6 10 2.1993 0.0064
7 6 11 0.2424 0.0007
7 6 12 -2.0854 -0.0007
7 6 13 -0.4761 0.0027
7 6 14 1.5244 -0.0003
7 6 15 0.6606 -0.0013
7 6 16 -0.8744 -0.0015
7 6 17 -1.3144 0.0006
7 6 18 0.2705 -0.0012
7 6 19 2.1349 -0.0015
7 6 20 0.2893 0.0041
7 6 21 -2.4299 -0.0001
7 6 22 -0.5011 0.0010
7 6 23 2.0955 0.0028
7 6 24 0.2434 -0.0088
7 6 25 -1.4652 -0.0021
7 6 26 -0.0471 0.0098
7 6 27 0.7990 -0.0004
7 6 28 0.2934 -0.0062
7 6 29 -0.3594 0.0011
7 6 30 -0.5646 0.0024
7 7 0 -0.1365 -0.0005
7 7 1 -2.5436 0.0027
7 7 2 -0.5375 0.0007
7 7 3 1.9375 -0.0047
7 7 4 1.0236 -0.0006
7 7 5 -1.4557 0.0063
7 7 6 -1.4782 -0.0016
7 7 7 1.0702 -0.0065
7 7 8 2.0773 0.0038
7 7 9 -0.3797 0.0030
7 7 10 -2.5413 -0.0020
7 7 11 -0.3510 0.0012
7 7 12 2.4590 -0.0015
7 7 13 0.5781 -0.0017
7 7 14 -1.9032 0.0009
7 7 15 -0.5349 0.0008
7 7 16 1.1813 0.0014
7 7 17 0.8209 -0.0017
7 7 18 -0.3428 -0.0001
7 7 19 -1.3664 0.0003
7 7 20 -0.4689 -0.0003
7 7 21 1.6715 0.0063
7 7 22 0.7345 -0.0045
7 7 23 -1.5556 -0.0102
7 7 24 -0.2957 0.0084
7 7 25 1.1010 0.0059
7 7 26 -0.2148 -0.0065
7 7 27 -0.4686 -0.0000
7 8 0 0.2568 0.0024
7 8 1 2.2973 0.0001
7 8 2 0.2983 -0.0007
7 8 3 -1.9680 0.0015
7 8 4 -0.7874 0.0003
7 8 5 1.7392 -0.0014
7 8 6 1.3654 -0.0000
7 8 7 -1.3332 -0.0011
7 8 8 -2.1061 -0.0011
7 8 9 0.3533 0.0035
7 8 10 2.5893 0.0006
7 8 11 0.7121 -0.0015
7 8 12 -2.4171 0.0010
7 8 13 -1.0300 -0.0033
7 8 14 1.7676 -0.0006
7 8 15 0.6796 0.0036
7 8 16 -0.9923 0.0000
7 8 17 -0.4197 0.0013
7 8 18 0.1491 -0.0024
7 8 19 0.5671 -0.0011
7 8 20 0.6282 0.0037
7 8 21 -0.8505 -0.0071
7 8 22 -0.8895 -0.0003
7 8 23 0.9557 0.0115
7 8 24 0.4957 -0.0028
7 9 0 -0.0774 -0.0073
7 9 1 -2.0402 -0.0032
7 9 2 -0.5250 0.0027
7 9 3 1.8380 0.0005
7 9 4 0.8900 -0.0006
7 9 5 -1.6626 0.0000
7 9 6 -1.1831 0.0004
7 9 7 1.1975 0.0026
7 9 8 1.5766 0.0003
7 9 9 -0.1344 -0.0026
7 9 10 -1.7614 0.0006
7 9 11 -0.9608 -0.0037
7 9 12 1.4498 -0.0032
7 9 13 1.1833 0.0102
7 9 14 -0.8745 0.0035
7 9 15 -0.5516 -0.0068
7 9 16 0.3708 -0.0029
7 9 17 -0.0847 -0.0042
7 9 18 0.0699 0.0051
7 9 19 0.1926 0.0081
7 9 20 -0.4839 -0.0072
7 10 0 -0.1018 0.0101
7 10 1 1.3622 0.0085
7 10 2 0.6929 -0.0052
7 10 3 -1.1902 -0.0028
7 10 4 -0.8433 0.0033
7 10 5 1.1450 -0.0009
7 10 6 0.7374 -0.0035
7 10 7 -0.9437 0.0002
7 10 8 -0.7068 0.0036
7 10 9 0.2720 -0.0013
7 10 10 0.6480 -0.0059
7 10 11 0.4841 0.0073
7 10 12 -0.3854 0.0090
7 10 13 -0.6041 -0.0117
7 10 14 0.0964 -0.0073
7 10 15 0.0890 0.0057
7 10 16 0.0048 0.0030
7 11 0 0.0757 -0.0086
7 11 1 -0.6109 -0.0127
7 11 2 -0.5350 0.0056
7 11 3 0.4982 0.0058
7 11 4 0.6016 -0.0051
7 11 7 0.7357 -0.0005
7 11 8 0.2944 -0.0063
7 11 9 -0.5140 0.0011
7 11 10 -0.2463 0.0093
8 0 0 -20.0348 -0.0188
8 0 2 17.8753 -0.0111
8 0 8 -2.5039 -0.0214
8 0 10 0.7046 0.0101
8 0 12 0.7308 0.0068
8 0 14 -1.2896 -0.0015
8 0 16 0.8729 -0.0068
8 0 18 -0.8803 0.0054
8 0 20 1.5843 -0.0048
8 0 22 -1.5495 0.0031
8 0 24 0.3024 0.0052
8 0 26 1.0315 -0.0061
8 0 28 -1.6515 -0.0057
8 0 30 1.6052 0.0101
8 0 32 -1.0264 0.0016
8 0 34 0.2803 -0.0144
8 0 36 0.0012 0.0188
8 1 0 19.0085 0.0099
8 1 1 1.4799 0.0142
8 1 2 -17.3916 0.0171
8 1 3 0.0409 -0.0092
8 1 4 12.3652 -0.0319
8 1 5 -1.4333 0.0045
8 1 7 1.9321 -0.0022
8 1 8 3.4950 0.0220
8 1 9 -1.7285 -0.0017
8 1 10 -1.4492 -0.0111
8 1 11 1.5650 0.0076
8 1 12 -0.2382 -0.0073
8 1 13 -1.6662 -0.0095
8 1 14 0.9531 0.0060
8 1 15 1.6447 0.0039
8 1 16 -0.6643 -0.0001
8 1 17 -1.3126 0.0053
8 1 18 0.7544 0.0004
8 1 19 0.9115 -0.0104
8 1 20 -1.4567 0.0011
8 1 21 -0.6130 0.0085
8 1 22 1.4206 -0.0008
8 1 23 0.3516 -0.0040
8 1 24 -0.2640 -0.0061
8 1 25 -0.1027 0.0014
8 1 26 -0.9217 0.0052
8 1 27 -0.0616 0.0006
8 1 28 1.4036 0.0070
8 1 29 0.1324 -0.0035
8 1 30 -1.2438 -0.0103
8 1 31 -0.1712 0.0044
8 1 32 0.6032 -0.0017
8 1 33 0.2314 -0.0028
8 1 34 0.1087 0.0123
8 1 35 -0.3310 0.0041
8 1 36 -0.2925 -0.0142
8 2 0 -16.3334 0.0071
8 2 1 -3.0913 -0.0078
8 2 2 15.7793 -0.0238
8 2 3 1.0127 0.0013
8 2 4 -12.5206 0.0264
8 2 5 1.1107 0.0019
8 2 6 8.5427 0.0008
8 2 7 -2.0877 -0.0014
8 2 8 -5.5473 -0.0206
8 2 9 2.1727 0.0024
8 2 10 3.1777 0.0088
8 2 11 -2.3863 -0.0047
8 2 12 -1.0814 0.0086
8 2 13 2.8778 0.0042
8 2 14 -0.0031 -0.0105
8 2 15 -2.9415 -0.0011
8 2 16 0.1976 0.0075
8 2 17 2.3423 -0.0017
8 2 18 -0.7059 -0.0054
8 2 19 -1.5559 0.0027
8 2 20 1.5400 -0.0004
8 2 21 0.9239 -0.0019
8 2 22 -1.5216 0.0016
8 2 23 -0.4336 0.0003
8 2 24 0.5042 0.0052
8 2 25 0.1113 0.0006
8 2 26 0.4863 -0.0049
8 2 27 -0.0212 -0.0004
8 2 28 -0.8333 -0.0055
8 2 29 0.0629 0.0010
8 2 30 0.5659 0.0079
8 2 31 -0.0773 -0.0023
8 2 32 0.1304 0.0012
8 2 33 -0.0147 0.0040
8 2 34 -0.7327 -0.0061
8 2 35 0.2083 -0.0077
8 3 0 12.5971 -0.0109
8 3 1 4.7371 -0.0059
8 3 2 -12.5632 0.0124
8 3 3 -3.0296 0.0092
8 3 4 10.8449 -0.0052
8 3 5 0.9187 -0.0066
8 3 6 -8.5200 -0.0113
8 3 7 0.3721 0.0020
8 3 8 6.4683 0.0145
8 3 9 -1.0781 -0.0003
8 3 10 -4.4650 0.0014
8 3 11 2.0638 0.0005
8 3 12 2.5691 -0.0145
8 3 13 -3.1998 -0.0007
8 3 14 -1.3655 0.0142
8 3 15 3.6525 0.0029
8 3 16 0.5647 -0.0096
8 3 17 -3.2513 -0.0062
8 3 18 0.5861 0.0027
8 3 19 2.5006 0.0062
8 3 20 -1.6671 0.0062
8 3 21 -1.7230 -0.0032
8 3 22 1.6925 -0.0058
8 3 23 1.0181 0.0013
8 3 24 -0.8037 -0.0045
8 3 25 -0.5781 -0.0009
8 3 26 -0.0749 0.0067
8 3 27 0.4709 0.0000
8 3 28 0.4445 0.0021
8 3 29 -0.4932 0.0004
8 3 30 -0.2153 -0.0062
8 3 31 0.4521 0.0012
8 3 32 -0.4623 0.0033
8 3 33 -0.2869 -0.0043
8 3 34 0.9421 -0.0041
8 3 35 0.0181 0.0082
8 4 0 -8.3371 0.0046
8 4 1 -5.4751 0.0071
8 4 2 8.0058 0.0033
8 4 3 4.2098 -0.0047
8 4 4 -7.0100 -0.0120
8 4 5 -2.4253 0.0005
8 4 6 5.9365 0.0147
8 4 7 1.1729 0.0003
8 4 8 -5.0781 -0.0045
8 4 9 -0.1920 0.0021
8 4 10 4.1880 -0.0095
8 4 11 -1.1402 -0.0030
8 4 12 -3.3187 0.0128
8 4 13 2.5312 0.0033
8 4 14 2.6228 -0.0071
8 4 15 -3.3167 -0.0067
8 4 16 -1.6799 0.0010
8 4 17 3.4576 0.0100
8 4 18 0.2873 0.0065
8 4 19 -3.2143 -0.0074
8 4 20 0.7687 -0.0128
8 4 21 2.6188 0.0019
8 4 22 -0.8041 0.0070
8 4 23 -1.8156 -0.0001
8 4 24 0.2123 0.0066
8 4 25 1.1910 0.0012
8 4 26 0.3242 -0.0095
8 4 27 -0.8753 -0.0008
8 4 28 -0.5391 0.0002
8 4 29 0.6880 -0.0012
8 4 30 0.2646 0.0071
8 4 31 -0.5185 0.0023
8 4 32 0.4250 -0.0095
8 4 33 0.3235 -0.0015
8 5 0 4.7286 -0.0004
8 5 1 4.6048 -0.0019
8 5 2 -4.0526 -0.0065
8 5 3 -3.4254 -0.0028
8 5 4 3.3176 0.0113
8 5 5 2.0018 0.0046
8 5 6 -2.8801 -0.0073
8 5 7 -1.1392 -0.0000
8 5 8 2.7814 -0.0030
8 5 9 0.4774 -0.0047
8 5 10 -2.8253 0.0073
8 5 11 0.4390 0.0036
8 5 12 2.9504 -0.0011
8 5 13 -1.3206 -0.0009
8 5 14 -2.9070 -0.0058
8 5 15 1.8646 0.0022
8 5 16 2.2426 0.0078
8 5 17 -2.2418 -0.0038
8 5 18 -1.1628 -0.0100
8 5 19 2.4520 0.0012
8 5 20 0.5114 0.0106
8 5 21 -2.1940 0.0014
8 5 22 -0.5408 -0.0018
8 5 23 1.5603 0.0005
8 5 24 0.7097 -0.0098
8 5 25 -0.9940 -0.0030
8 5 26 -0.7173 0.0095
8 5 27 0.6412 0.0014
8 5 28 0.6405 0.0004
8 5 29 -0.4099 0.0029
8 5 30 -0.3205 -0.0075
8 5 31 0.3092 -0.0073
8 5 32 -0.2871 0.0100
8 6 0 -2.8006 -0.0020
8 6 1 -3.1853 0.0007
8 6 2 2.2619 0.0044
8 6 3 2.1645 0.0020
8 6 4 -1.7119 -0.0049
8 6 5 -1.1905 -0.0021
8 6 6 1.3484 0.0005
8 6 7 0.7484 -0.0017
8 6 8 -1.2200 0.0044
8 6 9 -0.3991 0.0026
8 6 10 1.3656 -0.0018
8 6 11 -0.0956 0.0022
8 6 12 -1.7570 -0.0060
8 6 13 0.3737 -0.0059
8 6 14 1.9567 0.0085
8 6 15 -0.4006 0.0045
8 6 16 -1.5412 -0.0050
8 6 17 0.5959 -0.0025
8 6 18 0.8793 0.0030
8 6 19 -0.9343 0.0022
8 6 20 -0.6399 -0.0016
8 6 21 0.9802 0.0001
8 6 22 0.7188 -0.0050
8 6 23 -0.7040 -0.0040
8 6 24 -0.5910 0.0107
8 6 25 0.4033 0.0037
8 6 26 0.3155 -0.0068
8 6 27 -0.1599 0.0007
8 6 28 -0.2191 -0.0012
8 6 29 -0.0014 -0.0049
8 6 30 0.1400 0.0046
8 7 0 1.9951 0.0044
8 7 1 2.5975 -0.0001
8 7 2 -1.6969 -0.0042
8 7 3 -2.0443 -0.0003
8 7 4 1.2213 0.0024
8 7 5 1.5088 0.0004
8 7 6 -0.6720 0.0006
8 7 7 -1.1674 -0.0001
8 7 8 0.1882 -0.0025
8 7 9 0.6333 0.0024
8 7 10 -0.0839 -0.0003
8 7 11 0.0016 -0.0058
8 7 12 0.4549 0.0044
8 7 13 -0.1541 0.0054
8 7 14 -0.7950 -0.0034
8 7 15 -0.1325 -0.0023
8 7 16 0.6345 -0.0007
8 7 17 0.2009 0.0013
8 7 18 -0.2690 0.0020
8 7 19 0.1280 -0.0003
8 7 20 0.1690 -0.0026
8 7 21 -0.4512 -0.0045
8 7 22 -0.1449 0.0069
8 7 23 0.5364 0.0077
8 7 24 -0.1455 -0.0098
8 7 25 -0.4134 -0.0031
8 7 26 0.4400 0.0060
8 8 0 -1.1362 -0.0037
8 8 1 -2.4803 -0.0024
8 8 2 0.8536 0.0014
8 8 3 2.3198 0.0018
8 8 4 -0.4441 0.0006
8 8 5 -1.9984 -0.0020
8 8 6 -0.0714 -0.0010
8 8 7 1.5386 0.0039
8 8 8 0.5976 0.0008
8 8 9 -0.7153 -0.0059
8 8 10 -0.7085 0.0009
8 8 11 -0.1062 0.0045
8 8 12 0.2014 -0.0032
8 8 13 0.1958 0.0002
8 8 14 0.4201 0.0029
8 8 15 0.3564 -0.0017
8 8 16 -0.5922 -0.0016
8 8 17 -0.6802 -0.0022
8 8 18 0.4268 0.0023
8 8 19 0.3473 0.0028
8 8 20 -0.2710 -0.0018
8 8 21 0.2699 0.0048
8 8 22 0.0619 -0.0034
8 8 23 -0.6767 -0.0099
8 8 24 0.3195 0.0081
8 9 0 0.2275 0.0014
8 9 1 1.8635 0.0042
8 9 2 0.0417 0.0034
8 9 3 -1.8417 -0.0021
8 9 4 -0.1715 -0.0043
8 9 5 1.6358 0.0020
8 9 6 0.3013 0.0018
8 9 7 -1.2346 -0.0053
8 9 8 -0.5758 0.0001
8 9 9 0.5277 0.0070
8 9 10 0.6475 -0.0017
8 9 11 0.0682 -0.0034
8 9 12 -0.2098 0.0039
8 9 13 0.1165 -0.0015
8 9 14 -0.3941 -0.0048
8 9 15 -0.9226 -0.0011
8 9 16 0.6471 0.0048
8 9 17 1.3995 0.0099
8 9 18 -0.5432 -0.0065
8 9 19 -1.0284 -0.0112
8 9 20 0.3519 0.0069
8 9 21 0.2218 -0.0001
8 10 0 0.1138 -0.0005
8 10 1 -0.9574 -0.0075
8 10 2 -0.2868 -0.0049
8 10 3 1.0101 0.0029
8 10 4 0.1273 0.0047
8 10 5 -0.9960 -0.0015
8 10 6 0.0911 -0.0012
8 10 7 0.8682 0.0049
8 10 8 0.0109 -0.0004
8 10 9 -0.5016 -0.0068
8 10 10 -0.2323 0.0013
8 10 11 0.1820 0.0034
8 10 12 0.1917 -0.0033
8 10 13 -0.4226 0.0001
8 10 14 0.0230 0.0036
8 10 15 1.0897 0.0042
8 11 0 -0.0005 -0.0009
8 11 1 0.3979 0.0124
8 11 2 0.1680 0.0048
8 11 3 -0.4440 -0.0063
8 11 4 0.0022 -0.0039
8 11 8 0.2306 -0.0007
8 11 9 0.4404 0.0062
8 11 10 0.0472 -0.0004
9 0 0 6.7630 0.0325
9 0 2 -5.3770 -0.0187
9 0 8 0.6054 0.0163
9 0 10 -1.4732 0.0025
9 0 12 1.1986 -0.0179
9 0 14 -0.3407 0.0055
9 0 16 0.0145 0.0089
9 0 18 0.0412 -0.0070
9 0 20 -0.1055 0.0031
9 0 22 -0.2760 -0.0036
9 0 26 -0.8861 -0.0046
9 0 28 0.3969 0.0125
9 0 30 -0.2016 -0.0101
9 0 32 0.3884 -0.0052
9 0 34 -0.5839 0.0149
9 1 0 -6.9159 -0.0186
9 1 1 2.2774 -0.0061
9 1 2 5.9895 0.0126
9 1 3 -2.6200 -0.0062
9 1 4 -3.5005 -0.0013
9 1 5 2.5792 0.0113
9 1 6 1.5140 0.0147
9 1 7 -2.0184 -0.0081
9 1 8 -1.4560 -0.0232
9 1 9 1.3849 0.0044
9 1 10 2.0231 0.0018
9 1 11 -1.3075 -0.0041
9 1 12 -1.6422 0.0175
9 1 13 1.6984 0.0038
9 1 14 0.8459 -0.0093
9 1 15 -1.8255 0.0000
9 1 16 -0.5365 -0.0038
9 1 17 1.3330 -0.0051
9 1 18 0.3858 0.0038
9 1 19 -0.6215 0.0061
9 1 20 -0.2006 -0.0013
9 1 21 0.1976 -0.0025
9 1 22 0.4786 0.0009
9 1 23 -0.1573 0.0003
9 1 24 -0.9990 0.0012
9 1 25 0.3151 -0.0028
9 1 26 0.9605 0.0020
9 1 27 -0.4484 0.0047
9 1 28 -0.4770 -0.0097
9 1 29 0.4047 -0.0011
9 1 30 0.2537 0.0043
9 1 31 -0.1872 -0.0032
9 1 32 -0.3405 0.0142
9 1 33 -0.0770 0.0026
9 1 34 0.4301 -0.0234
9 1 35 0.2814 -0.0007
9 2 0 7.2937 -0.0006
9 2 1 -3.0507 0.0015
9 2 2 -7.2424 -0.0042
9 2 3 3.3838 0.0074
9 2 4 5.5473 0.0064
9 2 5 -3.3972 -0.0083
9 2 6 -3.8128 -0.0204
9 2 7 2.7237 0.0022
9 2 8 3.2604 0.0222
9 2 9 -1.9309 0.0016
9 2 10 -3.0759 0.0010
9 2 11 1.9056 -0.0008
9 2 12 2.3077 -0.0184
9 2 13 -2.4400 -0.0006
9 2 14 -1.4448 0.0111
9 2 15 2.4366 0.0006
9 2 16 0.9798 0.0008
9 2 17 -1.5060 -0.0004
9 2 18 -0.5604 -0.0028
9 2 19 0.3854 0.0005
9 2 20 0.2392 0.0019
9 2 21 0.1738 -0.0006
9 2 22 -0.5205 0.0007
9 2 23 -0.1088 -0.0002
9 2 24 1.0548 -0.0057
9 2 25 -0.2444 0.0023
9 2 26 -1.0669 0.0033
9 2 27 0.5116 -0.0037
9 2 28 0.6749 0.0042
9 2 29 -0.4560 0.0016
9 2 30 -0.4160 0.0013
9 2 31 0.1398 0.0021
9 2 32 0.2806 -0.0181
9 2 33 0.1890 -0.0038
9 2 34 -0.1441 0.0235
9 2 35 -0.3885 0.0046
9 3 0 -7.0997 0.0017
9 3 1 1.8227 0.0053
9 3 2 7.4889 0.0051
9 3 3 -1.9904 -0.0058
9 3 4 -6.5201 -0.0093
9 3 5 2.2582 0.0007
9 3 6 5.2540 0.0134
9 3 7 -2.0235 0.0049
9 3 8 -4.4961 -0.0046
9 3 9 1.7134 -0.0047
9 3 10 3.7705 -0.0147
9 3 11 -2.0896 0.0010
9 3 12 -2.6534 0.0204
9 3 13 2.7768 0.0017
9 3 14 1.5424 -0.0074
9 3 15 -2.6805 -0.0037
9 3 16 -0.6535 -0.0046
9 3 17 1.6217 0.0052
9 3 18 -0.1203 0.0071
9 3 19 -0.4534 -0.0036
9 3 20 0.3861 -0.0054
9 3 21 -0.1654 0.0005
9 3 22 0.1720 -0.0009
9 3 23 0.2386 0.0003
9 3 24 -0.8705 0.0089
9 3 25 -0.0451 0.0007
9 3 26 0.9560 -0.0063
9 3 27 -0.0857 -0.0008
9 3 28 -0.6427 -0.0029
9 3 29 -0.0591 0.0002
9 3 30 0.3578 0.0004
9 3 31 0.3397 -0.0004
9 3 32 -0.0639 0.0120
9 3 33 -0.4773 0.0013
9 3 34 -0.1707 -0.0146
9 4 0 5.6246 0.0045
9 4 1 -0.2329 -0.0005
9 4 2 -5.8906 -0.0082
9 4 3 0.4653 -0.0006
9 4 4 5.3901 0.0091
9 4 5 -1.0022 0.0027
9 4 6 -4.7789 -0.0041
9 4 7 1.1651 -0.0007
9 4 8 4.4262 -0.0086
9 4 9 -1.3075 -0.0045
9 4 10 -3.9471 0.0181
9 4 11 2.0013 0.0063
9 4 12 3.0892 -0.0113
9 4 13 -2.7675 -0.0040
9 4 14 -2.0073 -0.0038
9 4 15 2.7287 0.0028
9 4 16 0.7991 0.0108
9 4 17 -1.9330 -0.0029
9 4 18 0.2178 -0.0096
9 4 19 1.0603 0.0004
9 4 20 -0.3669 0.0060
9 4 21 -0.4335 0.0020
9 4 22 -0.3251 0.0017
9 4 23 0.0304 0.0005
9 4 24 0.8377 -0.0086
9 4 25 0.1758 -0.0045
9 4 26 -0.5968 0.0034
9 4 27 -0.3302 0.0035
9 4 28 0.0915 0.0078
9 4 29 0.5761 0.0022
9 4 30 0.2498 -0.0077
9 4 31 -0.7417 -0.0077
9 4 32 -0.5060 -0.0017
9 4 33 0.6292 0.0090
9 5 0 -3.9947 -0.0033
9 5 1 -0.1120 -0.0059
9 5 2 4.1095 0.0054
9 5 3 -0.3603 0.0059
9 5 4 -3.8108 -0.0064
9 5 5 0.9040 -0.0039
9 5 6 3.5750 0.0015
9 5 7 -0.9312 -0.0030
9 5 8 -3.5947 0.0064
9 5 9 0.8873 0.0083
9 5 10 3.5894 -0.0068
9 5 11 -1.2765 -0.0049
9 5 12 -3.2901 -0.0033
9 5 13 1.6642 -0.0022
9 5 14 2.5295 0.0113
9 5 15 -1.5091 0.0044
9 5 16 -1.3324 -0.0093
9 5 17 1.0611 -0.0031
9 5 18 0.3562 0.0046
9 5 19 -0.7218 0.0032
9 5 20 -0.3697 -0.0025
9 5 21 0.4223 -0.0022
9 5 22 0.9922 -0.0015
9 5 23 -0.0905 -0.0026
9 5 24 -1.0537 0.0041
9 5 25 -0.1294 0.0057
9 5 26 0.3031 0.0024
9 5 27 0.2778 -0.0013
9 5 28 0.4647 -0.0112
9 5 29 -0.4616 -0.0081
9 5 30 -0.8099 0.0092
9 5 31 0.5054 0.0164
9 6 0 3.4118 0.0006
9 6 1 0.1069 0.0037
9 6 2 -3.5791 -0.0013
9 6 3 0.4438 -0.0052
9 6 4 3.2483 0.0017
9 6 5 -0.8659 0.0045
9 6 6 -2.8497 0.0008
9 6 7 0.6900 0.0001
9 6 8 2.6447 -0.0033
9 6 9 -0.3914 -0.0017
9 6 10 -2.6008 0.0002
9 6 11 0.3712 -0.0037
9 6 12 2.4950 0.0061
9 6 13 -0.2519 0.0088
9 6 14 -1.9402 -0.0061
9 6 15 -0.1911 -0.0076
9 6 16 0.8979 -0.0001
9 6 17 0.4975 0.0045
9 6 18 -0.1540 0.0026
9 6 19 -0.4032 -0.0037
9 6 20 0.4077 0.0001
9 6 21 0.2255 0.0015
9 6 22 -1.0651 -0.0008
9 6 23 -0.1554 0.0028
9 6 24 1.0015 0.0009
9 6 25 0.0865 -0.0033
9 6 26 -0.2006 -0.0057
9 6 27 -0.0652 -0.0018
9 6 28 -0.4755 0.0093
9 6 29 0.1437 0.0080
9 7 0 -2.9862 -0.0016
9 7 1 -0.7911 0.0009
9 7 2 3.1509 0.0000
9 7 3 0.4065 0.0010
9 7 4 -2.7695 0.0022
9 7 5 -0.0084 -0.0018
9 7 6 2.2118 -0.0041
9 7 7 -0.0124 0.0006
9 7 8 -1.7540 0.0040
9 7 9 -0.0170 -0.0016
9 7 10 1.5509 -0.0010
9 7 11 -0.0692 0.0050
9 7 12 -1.4785 -0.0017
9 7 13 -0.1503 -0.0053
9 7 14 1.0654 -0.0008
9 7 15 0.7281 0.0024
9 7 16 -0.1889 0.0051
9 7 17 -1.0395 -0.0021
9 7 18 -0.4267 -0.0041
9 7 19 0.7891 0.0041
9 7 20 0.1675 -0.0000
9 7 21 -0.3642 -0.0024
9 7 22 0.4349 0.0009
9 7 23 0.0940 -0.0012
9 7 24 -0.4845 -0.0007
9 7 25 0.0117 0.0004
9 7 26 0.0243 0.0043
9 8 0 1.8928 -0.0009
9 8 1 1.1776 -0.0018
9 8 2 -1.9114 0.0022
9 8 3 -1.0620 0.0014
9 8 4 1.6632 -0.0036
9 8 5 0.7694 -0.0014
9 8 6 -1.3822 0.0027
9 8 7 -0.5951 0.0003
9 8 8 1.1508 -0.0008
9 8 9 0.3643 0.0023
9 8 10 -1.1236 -0.0013
9 8 11 -0.0931 -0.0033
9 8 12 1.2741 0.0024
9 8 13 0.2273 0.0007
9 8 14 -1.1489 -0.0008
9 8 15 -0.7543 0.0008
9 8 16 0.5050 -0.0013
9 8 17 0.9917 0.0033
9 8 18 0.1396 0.0003
9 8 19 -0.6010 -0.0068
9 8 20 -0.2310 0.0008
9 8 21 0.0044 0.0026
9 8 22 0.0159 0.0016
9 8 23 0.3186 0.0027
9 8 24 -0.0269 -0.0032
9 9 0 -1.0342 0.0091
9 9 1 -0.6754 0.0018
9 9 2 0.9191 -0.0081
9 9 3 0.8140 -0.0016
9 9 4 -0.8384 0.0050
9 9 5 -0.8227 0.0008
9 9 6 0.8737 -0.0001
9 9 7 0.8706 0.0030
9 9 8 -0.8569 -0.0025
9 9 9 -0.8212 -0.0071
9 9 10 0.8910 0.0029
9 9 11 0.7050 0.0069
9 9 12 -1.1083 -0.0032
9 9 13 -0.8863 -0.0031
9 9 14 1.2040 0.0031
9 9 15 1.3172 0.0028
9 9 16 -0.8584 -0.0025
9 9 17 -1.3627 -0.0081
9 9 18 0.3166 0.0030
9 9 19 0.7282 0.0097
9 9 20 -0.0044 -0.0024
9 9 21 0.0990 -0.0016
9 10 0 0.8662 -0.0161
9 10 1 0.2587 -0.0036
9 10 2 -0.6479 0.0133
9 10 3 -0.4764 0.0022
9 10 4 0.5701 -0.0070
9 10 5 0.6417 0.0002
9 10 6 -0.6239 0.0008
9 10 7 -0.8483 -0.0056
9 10 8 0.4968 0.0003
9 10 9 0.9626 0.0097
9 10 10 -0.2693 0.0010
9 10 11 -0.9717 -0.0083
9 10 12 0.2355 -0.0003
9 10 13 1.1417 0.0043
9 10 14 -0.3140 -0.0012
9 10 15 -1.4361 -0.0045
9 11 0 -0.6367 0.0165
9 11 1 -0.2373 0.0051
9 11 2 0.3587 -0.0127
9 11 3 0.2572 -0.0028
9 11 4 -0.2618 0.0061
9 11 5 -0.2718 0.0001
9 11 8 -0.1608 0.0018
10 0 0 7.9717 -0.0404
10 0 2 -6.8341 0.0193
10 0 4 5.6258 0.0188
10 0 8 1.4380 0.0070
10 0 10 0.0078 -0.0065
10 0 12 0.4197 0.0079
10 0 14 -1.3003 0.0050
10 0 16 1.1018 -0.0111
10 0 18 -0.3355 0.0007
10 0 24 1.3374 -0.0079
10 0 26 -2.1687 0.0095
10 0 28 2.3443 -0.0127
10 0 30 -1.4788 0.0098
10 0 32 0.3421 0.0005
10 0 34 0.1760 -0.0048
10 1 0 -6.9787 0.0356
10 1 1 -1.6466 -0.0115
10 1 2 5.8232 -0.0259
10 1 3 1.1775 0.0199
10 1 4 -4.7000 -0.0019
10 1 5 -0.9239 -0.0163
10 1 6 3.0358 0.0042
10 1 7 0.7098 0.0056
10 1 8 -0.7786 0.0059
10 1 9 -0.5554 0.0011
10 1 10 -0.6322 -0.0003
10 1 11 0.7097 -0.0002
10 1 12 0.3211 -0.0057
10 1 13 -1.0521 -0.0026
10 1 14 0.4505 -0.0041
10 1 15 1.0516 0.0020
10 1 16 -0.3558 0.0103
10 1 17 -0.5335 0.0006
10 1 18 -0.1356 -0.0022
10 1 19 -0.0284 -0.0006
10 1 20 0.1348 -0.0023
10 1 21 0.1407 -0.0019
10 1 22 0.3281 -0.0027
10 1 23 0.1994 0.0013
10 1 24 -0.9949 0.0059
10 1 25 -0.6710 0.0044
10 1 26 1.6620 -0.0070
10 1 27 0.9659 -0.0073
10 1 28 -1.7207 0.0082
10 1 29 -0.9502 0.0016
10 1 30 0.8865 0.0001
10 1 31 0.7099 0.0048
10 1 32 0.0623 -0.0158
10 1 33 -0.4330 -0.0014
10 1 34 -0.3564 0.0203
10 1 35 0.2118 -0.0075
10 2 0 4.4563 -0.0251
10 2 1 2.3201 0.0046
10 2 2 -3.4016 0.0263
10 2 3 -1.5716 -0.0095
10 2 4 2.6411 -0.0123
10 2 5 1.2072 0.0033
10 2 6 -1.5159 0.0108
10 2 7 -0.7593 0.0075
10 2 8 -0.1281 -0.0120
10 2 9 0.2464 -0.0109
10 2 10 1.1672 0.0014
10 2 11 -0.1914 0.0057
10 2 12 -0.9406 0.0042
10 2 13 0.5230 -0.0002
10 2 14 0.3819 0.0053
10 2 15 -0.4845 -0.0012
10 2 16 -0.3469 -0.0105
10 2 17 -0.1549 0.0004
10 2 18 0.4574 0.0033
10 2 19 0.7275 0.0004
10 2 20 -0.2889 0.0014
10 2 21 -0.6550 -0.0009
10 2 22 0.0229 -0.0002
10 2 23 0.0679 0.0022
10 2 24 0.2903 0.0005
10 2 25 0.5708 -0.0045
10 2 26 -0.6290 0.0004
10 2 27 -0.9043 0.0046
10 2 28 0.5039 -0.0023
10 2 29 0.8300 0.0004
10 2 30 0.2173 -0.0067
10 2 31 -0.5439 -0.0061
10 2 32 -0.7633 0.0227
10 2 33 0.3203 0.0056
10 2 34 0.6251 -0.0247
10 3 0 -1.9046 0.0112
10 3 1 -1.8311 0.0024
10 3 2 1.1094 -0.0115
10 3 3 1.2837 -0.0024
10 3 4 -0.8426 0.0050
10 3 5 -1.2409 0.0091
10 3 6 0.4717 -0.0031
10 3 7 0.8970 -0.0149
10 3 8 0.2242 -0.0000
10 3 9 -0.2381 0.0122
10 3 10 -0.5469 0.0068
10 3 11 -0.0479 -0.0052
10 3 12 0.1759 -0.0040
10 3 13 -0.0584 0.0017
10 3 14 0.2578 -0.0077
10 3 15 -0.1359 -0.0018
10 3 16 -0.3487 0.0103
10 3 17 0.7528 0.0023
10 3 18 0.3269 -0.0023
10 3 19 -1.1666 -0.0031
10 3 20 -0.2371 -0.0026
10 3 21 1.0397 0.0034
10 3 22 0.0135 0.0034
10 3 23 -0.6347 -0.0016
10 3 24 0.0125 -0.0046
10 3 25 0.2819 -0.0008
10 3 26 0.2114 0.0013
10 3 27 -0.1469 0.0016
10 3 28 -0.0798 0.0037
10 3 29 0.2350 -0.0022
10 3 30 -0.5288 0.0030
10 3 31 -0.3132 0.0033
10 3 32 0.8570 -0.0165
10 3 33 0.1717 -0.0036
10 4 0 0.4397 -0.0003
10 4 1 1.4228 -0.0016
10 4 2 0.1791 -0.0021
10 4 3 -1.3359 0.0002
10 4 4 -0.2077 0.0039
10 4 5 1.7117 -0.0033
10 4 6 0.1615 -0.0051
10 4 7 -1.6017 0.0039
10 4 8 -0.2568 0.0088
10 4 9 1.0393 -0.0003
10 4 10 0.1315 -0.0103
10 4 11 -0.7292 -0.0006
10 4 12 0.3093 0.0023
10 4 13 0.6654 -0.0034
10 4 14 -0.7281 0.0067
10 4 15 -0.3045 0.0064
10 4 16 0.9890 -0.0041
10 4 17 -0.2906 -0.0055
10 4 18 -1.0543 -0.0038
10 4 19 0.6249 0.0041
10 4 20 0.7167 0.0051
10 4 21 -0.6657 -0.0024
10 4 22 -0.2220 -0.0032
10 4 23 0.6932 -0.0018
10 4 24 0.2767 0.0018
10 4 25 -0.7600 0.0050
10 4 26 -0.8031 0.0042
10 4 27 0.8317 -0.0021
10 4 28 0.8691 -0.0106
10 4 29 -0.9056 -0.0044
10 4 30 -0.2627 0.0054
10 4 31 0.8038 0.0087
10 4 32 -0.2164 0.0057
10 5 0 0.7601 -0.0042
10 5 1 -1.8212 -0.0014
10 5 2 -1.2555 0.0037
10 5 3 1.9614 0.0033
10 5 4 1.1341 -0.0010
10 5 5 -2.2894 -0.0025
10 5 6 -0.8731 0.0013
10 5 7 1.9959 0.0045
10 5 8 0.7201 -0.0054
10 5 9 -1.3111 -0.0066
10 5 10 -0.5293 0.0063
10 5 11 0.9252 0.0023
10 5 12 0.2309 -0.0010
10 5 13 -0.7520 0.0051
10 5 14 0.1556 -0.0011
10 5 15 0.3796 -0.0066
10 5 16 -0.6130 -0.0047
10 5 17 -0.0161 0.0029
10 5 18 0.7929 0.0082
10 5 19 -0.0086 -0.0004
10 5 20 -0.3462 -0.0032
10 5 21 -0.0672 -0.0013
10 5 22 -0.1583 -0.0019
10 5 23 -0.0380 0.0045
10 5 24 -0.2194 0.0036
10 5 25 0.2014 -0.0046
10 5 26 1.1952 -0.0074
10 5 27 -0.3295 -0.0027
10 5 28 -1.5528 0.0105
10 5 29 0.4677 0.0136
10 5 30 1.0034 -0.0049
10 6 0 -2.2494 0.0043
10 6 1 1.8306 0.0032
10 6 2 2.5042 -0.0024
10 6 3 -2.0259 -0.0014
10 6 4 -2.0656 0.0001
10 6 5 2.1322 -0.0001
10 6 6 1.4506 -0.0011
10 6 7 -1.5635 -0.0026
10 6 8 -0.9726 0.0044
10 6 9 0.7210 0.0045
10 6 10 0.6547 -0.0048
10 6 11 -0.2475 -0.0006
10 6 12 -0.4284 0.0023
10 6 13 -0.0052 -0.0038
10 6 14 0.1070 -0.0034
10 6 15 0.3395 0.0022
10 6 16 0.3249 0.0073
10 6 17 -0.4510 0.0012
10 6 18 -0.3407 -0.0047
10 6 19 0.1158 -0.0013
10 6 20 -0.3910 -0.0038
10 6 21 0.2736 0.0018
10 6 22 1.0591 0.0080
10 6 23 -0.4035 -0.0050
10 6 24 -0.6337 -0.0061
10 6 25 0.4015 0.0051
10 6 26 -0.5063 0.0050
10 6 27 -0.3273 0.0013
10 6 28 1.1028 -0.0036
10 7 0 2.7616 -0.0011
10 7 1 -0.9064 -0.0061
10 7 2 -2.8413 0.0018
10 7 3 1.1527 0.0030
10 7 4 2.3301 -0.0038
10 7 5 -1.2628 -0.0017
10 7 6 -1.6665 0.0056
10 7 7 0.8306 0.0034
10 7 8 1.0527 -0.0060
10 7 9 -0.2481 -0.0036
10 7 10 -0.5712 0.0040
10 7 11 -0.0112 0.0007
10 7 12 0.2464 -0.0018
10 7 13 0.1906 0.0004
10 7 14 0.0941 0.0030
10 7 15 -0.5444 0.0015
10 7 16 -0.4442 -0.0043
10 7 17 0.7032 -0.0007
10 7 18 0.2806 -0.0002
10 7 19 -0.4090 -0.0029
10 7 20 0.6297 0.0073
10 7 21 0.0138 0.0016
10 7 22 -1.4431 -0.0086
10 7 23 0.1718 0.0050
10 7 24 1.2215 0.0056
10 7 25 -0.2197 -0.0086
10 7 26 -0.2931 -0.0044
10 8 0 -1.9974 -0.0020
10 8 1 0.3000 0.0066
10 8 2 2.0535 0.0012
10 8 3 -0.3133 -0.0059
10 8 4 -1.8764 0.0017
10 8 5 0.2812 0.0061
10 8 6 1.7053 -0.0025
10 8 7 -0.0164 -0.0052
10 8 8 -1.4246 0.0011
10 8 9 -0.1747 0.0021
10 8 10 1.0186 0.0008
10 8 11 0.0450 0.0005
10 8 12 -0.6351 -0.0013
10 8 13 0.0355 0.0012
10 8 14 0.2405 -0.0005
10 8 15 0.2214 -0.0033
10 8 16 0.1540 0.0019
10 8 17 -0.4488 -0.0004
10 8 18 -0.1577 0.0005
10 8 19 0.3124 0.0055
10 8 20 -0.4118 -0.0040
10 8 21 -0.0516 -0.0025
10 8 22 0.9570 0.0042
10 8 23 -0.0338 -0.0058
10 8 24 -0.8377 -0.0040
10 9 0 1.4061 -0.0015
10 9 1 -0.3622 -0.0039
10 9 2 -1.2700 -0.0019
10 9 3 -0.0760 0.0038
10 9 4 1.2231 0.0028
10 9 5 0.4917 -0.0044
10 9 6 -1.4044 -0.0039
10 9 7 -0.8555 0.0013
10 9 8 1.4371 0.0042
10 9 9 0.9206 0.0034
10 9 10 -1.1841 -0.0032
10 9 11 -0.5890 -0.0038
10 9 12 0.8815 0.0020
10 9 13 0.2800 -0.0017
10 9 14 -0.6061 -0.0007
10 9 15 -0.3037 0.0057
10 9 16 0.2968 -0.0006
10 9 17 0.3482 -0.0020
10 9 18 -0.1271 0.0003
10 9 19 -0.0877 -0.0031
10 9 20 0.2429 0.0008
10 9 21 -0.2601 0.0003
10 10 0 -1.2702 0.0078
10 10 1 0.2154 0.0059
10 10 2 0.7756 -0.0003
10 10 3 0.2735 -0.0030
10 10 4 -0.4888 -0.0045
10 10 5 -0.7151 0.0023
10 10 6 0.5780 0.0065
10 10 7 1.0473 0.0012
10 10 8 -0.6053 -0.0044
10 10 9 -1.0974 -0.0048
10 10 10 0.3930 0.0010
10 10 11 0.8128 0.0030
10 10 12 -0.2107 -0.0003
10 10 13 -0.5292 0.0037
10 10 14 0.1813 0.0011
10 11 2 -0.2148 -0.0030
10 11 3 -0.1047 0.0050
10 11 4 -0.1242 0.0084
10 11 5 0.1757 -0.0028
11 0 0 -11.5345 -0.0130
11 0 2 8.1842 0.0305
11 0 4 -4.9880 -0.0574
11 0 6 2.6234 0.0440
11 0 8 -1.3441 -0.0081
11 0 10 1.4187 -0.0046
11 0 12 -2.3773 -0.0007
11 0 14 2.7115 -0.0008
11 0 16 -1.8036 0.0015
11 0 18 0.9492 0.0067
11 0 26 3.3804 -0.0045
11 0 28 -2.5514 0.0101
11 0 30 1.2347 -0.0138
11 0 32 -0.3961 0.0080
11 0 34 0.4574 -0.0017
11 1 0 10.6515 0.0039
11 1 1 -0.4102 0.0177
11 1 2 -7.5261 -0.0128
11 1 3 0.5476 -0.0166
11 1 4 4.4182 0.0348
11 1 5 -0.1829 0.0074
11 1 6 -1.9588 -0.0254
11 1 7 -0.1282 0.0026
11 1 8 0.4932 -0.0020
11 1 9 0.1239 -0.0044
11 1 10 -0.4033 0.0084
11 1 11 -0.0993 -0.0014
11 1 12 1.2977 -0.0005
11 1 13 0.2550 0.0064
11 1 14 -1.7610 0.0011
11 1 15 -0.3219 -0.0052
11 1 16 1.1968 -0.0025
11 1 17 0.0865 0.0006
11 1 18 -0.7146 -0.0032
11 1 19 0.2016 0.0014
11 1 20 1.2451 0.0033
11 1 21 -0.1940 0.0005
11 1 22 -2.2524 0.0039
11 1 23 -0.1387 -0.0012
11 1 24 2.8561 -0.0054
11 1 25 0.5788 -0.0026
11 1 26 -2.7385 0.0039
11 1 27 -0.8836 0.0046
11 1 28 1.8676 -0.0068
11 1 29 0.9155 0.0009
11 1 30 -0.6530 0.0046
11 1 31 -0.7318 -0.0055
11 1 32 0.0128 0.0070
11 1 33 0.5083 -0.0020
11 1 34 -0.2576 -0.0137
11 2 0 -8.3260 0.0068
11 2 1 0.6456 -0.0083
11 2 2 5.9830 -0.0050
11 2 3 -1.0000 0.0063
11 2 4 -3.4698 -0.0082
11 2 5 0.7348 0.0028
11 2 6 1.2285 0.0023
11 2 7 -0.7352 -0.0108
11 2 8 0.3189 0.0125
11 2 9 1.2065 0.0083
11 2 10 -0.6610 -0.0114
11 2 11 -1.4138 0.0012
11 2 12 0.0490 0.0036
11 2 13 0.9672 -0.0066
11 2 14 0.4028 -0.0044
11 2 15 -0.4281 0.0042
11 2 16 -0.2823 0.0046
11 2 17 0.3248 0.0007
11 2 18 0.3595 0.0009
11 2 19 -0.4420 -0.0035
11 2 20 -1.0291 -0.0011
11 2 21 0.3653 0.0035
11 2 22 1.6982 -0.0030
11 2 23 -0.0299 -0.0029
11 2 24 -1.8755 0.0016
11 2 25 -0.4099 0.0034
11 2 26 1.5293 0.0003
11 2 27 0.7585 -0.0025
11 2 28 -0.6582 0.0022
11 2 29 -0.8533 -0.0027
11 2 30 -0.3507 0.0021
11 2 31 0.7398 0.0073
11 2 32 0.6505 -0.0150
11 2 33 -0.6082 -0.0038
11 2 34 -0.1146 0.0194
11 3 0 5.5150 0.0005
11 3 1 -0.4752 -0.0019
11 3 2 -4.2403 -0.0001
11 3 3 0.7087 0.0034
11 3 4 2.8687 0.0024
11 3 5 -0.5465 -0.0101
11 3 6 -1.5350 0.0046
11 3 7 1.0214 0.0137
11 3 8 0.5005 -0.0117
11 3 9 -2.0881 -0.0078
11 3 10 -0.1575 0.0081
11 3 11 2.6048 -0.0009
11 3 12 0.3227 -0.0038
11 3 13 -2.0719 0.0025
11 3 14 -0.3478 0.0050
11 3 15 1.2204 0.0015
11 3 16 0.2150 -0.0025
11 3 17 -0.7482 -0.0044
11 3 18 -0.4478 -0.0034
11 3 19 0.5930 0.0048
11 3 20 0.9775 0.0025
11 3 21 -0.5153 -0.0037
11 3 22 -1.2815 0.0010
11 3 23 0.4460 0.0014
11 3 24 1.2734 0.0008
11 3 25 -0.2885 0.0007
11 3 26 -1.0030 -0.0012
11 3 27 0.0223 -0.0015
11 3 28 0.2551 -0.0028
11 3 29 0.1914 0.0029
11 3 30 0.6762 -0.0008
11 3 31 -0.3123 -0.0049
11 3 32 -0.9154 0.0120
11 3 33 0.4383 0.0042
11 4 0 -3.0444 -0.0086
11 4 1 -0.2550 -0.0044
11 4 2 2.4633 0.0070
11 4 3 0.3930 0.0038
11 4 4 -2.0499 -0.0020
11 4 5 -0.6890 0.0025
11 4 6 1.6841 -0.0045
11 4 7 0.0856 -0.0053
11 4 8 -1.3594 0.0048
11 4 9 1.1845 0.0011
11 4 10 1.2024 0.0007
11 4 11 -1.8648 0.0018
11 4 12 -1.0521 -0.0027
11 4 13 1.5239 0.0014
11 4 14 0.7276 0.0019
11 4 15 -0.8759 -0.0048
11 4 16 -0.5562 -0.0058
11 4 17 0.4664 0.0036
11 4 18 0.8135 0.0088
11 4 19 -0.2581 -0.0012
11 4 20 -1.1216 -0.0036
11 4 21 0.2405 -0.0000
11 4 22 1.1836 -0.0019
11 4 23 -0.4106 0.0019
11 4 24 -1.2664 0.0011
11 4 25 0.4867 -0.0029
11 4 26 1.3020 -0.0021
11 4 27 -0.3159 0.0003
11 4 28 -0.7202 0.0067
11 4 29 0.1005 0.0033
11 4 30 -0.2925 -0.0042
11 4 31 0.0630 -0.0043
11 4 32 0.7477 -0.0041
11 5 0 0.8984 0.0044
11 5 1 1.1106 0.0101
11 5 2 -0.6614 -0.0010
11 5 3 -1.2879 -0.0086
11 5 4 0.7541 -0.0043
11 5 5 1.5071 0.0029
11 5 6 -0.9264 0.0053
11 5 7 -0.8858 -0.0019
11 5 8 1.0169 0.0008
11 5 9 -0.2340 0.0056
11 5 10 -0.9763 -0.0072
11 5 11 0.7600 -0.0053
11 5 12 0.7019 0.0076
11 5 13 -0.4996 0.0007
11 5 14 -0.3442 -0.0068
11 5 15 0.0963 0.0003
11 5 16 0.3379 0.0094
11 5 17 0.1884 0.0033
11 5 18 -0.6493 -0.0084
11 5 19 -0.4570 -0.0050
11 5 20 0.7469 0.0008
11 5 21 0.5354 0.0040
11 5 22 -0.6582 0.0035
11 5 23 -0.3192 -0.0038
11 5 24 0.9351 -0.0008
11 5 25 0.1323 0.0022
11 5 26 -1.3544 0.0004
11 5 27 -0.1445 0.0039
11 5 28 1.0560 -0.0041
11 5 29 0.1421 -0.0109
11 5 30 -0.1248 0.0035
11 6 0 0.8322 0.0007
11 6 1 -1.3327 -0.0058
11 6 2 -0.7101 -0.0034
11 6 3 1.3018 0.0026
11 6 4 0.2762 0.0046
11 6 5 -1.2114 0.0008
11 6 6 0.1743 -0.0015
11 6 7 0.5274 0.0018
11 6 8 -0.4761 -0.0039
11 6 9 0.3297 -0.0066
11 6 10 0.5164 0.0058
11 6 11 -0.5438 0.0061
11 6 12 -0.2116 -0.0028
11 6 13 0.1990 -0.0027
11 6 14 -0.1633 0.0014
11 6 15 0.1066 0.0033
11 6 16 0.2093 -0.0030
11 6 17 -0.3342 -0.0063
11 6 18 -0.1292 0.0011
11 6 19 0.6716 0.0064
11 6 20 0.3770 0.0040
11 6 21 -0.8742 -0.0060
11 6 22 -0.6129 -0.0033
11 6 23 0.7612 0.0082
11 6 24 0.1599 -0.0033
11 6 25 -0.5999 -0.0077
11 6 26 0.6236 0.0060
11 6 27 0.5240 0.0006
11 7 0 -1.5239 -0.0028
11 7 1 0.9336 0.0025
11 7 2 1.2654 0.0021
11 7 3 -0.7891 0.0009
11 7 4 -0.7681 0.0012
11 7 5 0.5286 -0.0025
11 7 6 0.2739 -0.0042
11 7 7 0.0243 0.0002
11 7 8 0.1769 0.0039
11 7 9 -0.4832 0.0021
11 7 10 -0.4476 0.0002
11 7 11 0.3717 -0.0006
11 7 12 0.3185 -0.0045
11 7 13 -0.0049 -0.0009
11 7 14 0.0528 0.0044
11 7 15 -0.0747 -0.0011
11 7 16 -0.3320 -0.0018
11 7 17 0.0112 0.0026
11 7 18 0.6428 0.0027
11 7 19 -0.1469 -0.0023
11 7 20 -1.1942 -0.0054
11 7 21 0.3244 0.0063
11 7 22 1.5026 0.0029
11 7 23 -0.3341 -0.0149
11 7 24 -0.9990 0.0032
11 7 25 0.3134 0.0183
11 7 26 0.1216 -0.0056
11 8 0 1.3146 0.0074
11 8 1 -0.5316 -0.0011
11 8 2 -1.2340 -0.0044
11 8 3 0.1468 0.0001
11 8 4 1.0160 -0.0014
11 8 5 0.2101 0.0005
11 8 6 -0.7935 0.0037
11 8 7 -0.4494 -0.0015
11 8 8 0.3780 -0.0009
11 8 9 0.3676 0.0034
11 8 10 0.1471 -0.0034
11 8 11 0.1211 -0.0044
11 8 12 -0.3648 0.0047
11 8 13 -0.5202 0.0013
11 8 14 0.1819 -0.0016
11 8 15 0.3608 0.0030
11 8 16 0.1376 -0.0019
11 8 17 0.0580 -0.0027
11 8 18 -0.5351 0.0011
11 8 19 -0.2202 0.0004
11 8 20 1.0213 0.0024
11 8 21 0.1481 -0.0057
11 8 22 -1.2172 -0.0031
11 8 23 -0.0864 0.0169
11 8 24 0.8176 0.0018
11 9 0 -1.0331 -0.0106
11 9 1 0.2747 -0.0026
11 9 2 0.9019 0.0090
11 9 3 0.4646 0.0011
11 9 4 -0.8131 -0.0036
11 9 5 -0.9374 0.0001
11 9 6 0.8819 0.0011
11 9 7 0.9335 0.0021
11 9 8 -0.7038 -0.0019
11 9 9 -0.4566 -0.0047
11 9 10 0.2013 0.0024
11 9 11 -0.2963 0.0021
11 9 12 0.1537 -0.0008
11 9 13 0.7721 0.0064
11 9 14 -0.1042 -0.0025
11 9 15 -0.6039 -0.0129
11 9 16 -0.1302 0.0052
11 9 17 0.1595 0.0100
11 9 18 0.3586 -0.0042
11 9 19 0.0114 -0.0033
11 9 20 -0.5372 0.0002
11 10 0 0.7963 0.0114
11 10 1 -0.0591 0.0037
11 10 2 -0.3380 -0.0126
11 10 3 -0.6099 -0.0024
11 10 4 0.0887 0.0091
11 10 5 0.9674 -0.0002
11 10 6 -0.2410 -0.0060
11 10 7 -0.8681 -0.0008
11 10 8 0.3132 0.0035
11 10 9 0.4135 0.0018
11 10 10 -0.0704 -0.0010
11 10 11 0.1809 0.0031
11 10 12 -0.1220 -0.0003
11 10 13 -0.5168 -0.0129
11 11 0 -0.3945 -0.0160
12 0 0 5.2655 0.0488
12 0 2 -2.1179 -0.0355
12 0 4 0.0801 0.0421
12 0 6 0.3781 -0.0279
12 0 8 0.2441 0.0025
12 0 10 -1.1822 -0.0020
12 0 12 1.7857 0.0143
12 0 14 -1.5676 -0.0100
12 0 16 0.8798 0.0003
12 0 18 -0.8055 -0.0045
12 0 20 1.5869 0.0115
12 0 22 -2.2197 -0.0100
12 0 24 2.0245 0.0062
12 0 26 -1.3357 0.0001
12 0 28 0.5851 -0.0122
12 0 30 0.0008 0.0176
12 0 32 -0.0824 -0.0079
12 0 34 -0.3177 -0.0030
12 1 0 -5.0204 -0.0371
12 1 1 0.6529 -0.0085
12 1 2 1.9003 0.0227
12 1 3 -0.5054 0.0035
12 1 4 0.3517 -0.0298
12 1 5 0.0819 0.0032
12 1 6 -1.1269 0.0203
12 1 7 0.0763 -0.0070
12 1 8 0.7121 -0.0006
12 1 9 0.1733 0.0030
12 1 10 0.2510 0.0023
12 1 11 -0.3795 0.0053
12 1 12 -1.0692 -0.0142
12 1 13 0.2102 -0.0093
12 1 14 1.1550 0.0101
12 1 15 0.0721 0.0054
12 1 16 -0.7668 0.0001
12 1 17 -0.1013 0.0017
12 1 18 0.8615 0.0012
12 1 19 -0.0565 -0.0042
12 1 20 -1.5907 -0.0056
12 1 21 0.1127 -0.0001
12 1 22 2.0348 0.0048
12 1 23 0.0353 0.0045
12 1 24 -1.7070 -0.0035
12 1 25 -0.2742 -0.0022
12 1 26 1.0297 -0.0009
12 1 27 0.4184 -0.0026
12 1 28 -0.3763 0.0107
12 1 29 -0.3418 0.0017
12 1 30 -0.1010 -0.0115
12 1 31 0.1164 0.0013
12 1 32 0.0931 -0.0032
12 1 33 0.0485 0.0042
12 1 34 0.3519 0.0151
12 2 0 4.2790 0.0150
12 2 1 -0.9354 0.0060
12 2 2 -1.6266 -0.0041
12 2 3 1.1574 -0.0031
12 2 4 -0.6912 0.0089
12 2 5 -0.9925 -0.0013
12 2 6 1.8992 -0.0031
12 2 7 1.1434 0.0033
12 2 8 -1.9152 -0.0073
12 2 9 -1.6282 0.0025
12 2 10 1.1259 0.0013
12 2 11 1.6212 -0.0110
12 2 12 -0.2240 0.0090
12 2 13 -0.7560 0.0124
12 2 14 -0.1592 -0.0046
12 2 15 -0.2332 -0.0055
12 2 16 0.2234 -0.0038
12 2 17 0.5605 -0.0019
12 2 18 -0.6641 0.0030
12 2 19 -0.3130 0.0044
12 2 20 1.3654 -0.0000
12 2 21 0.0212 -0.0025
12 2 22 -1.5400 -0.0009
12 2 23 0.0199 0.0002
12 2 24 1.0855 0.0037
12 2 25 0.1798 -0.0012
12 2 26 -0.5473 -0.0022
12 2 27 -0.4103 0.0036
12 2 28 0.1098 -0.0058
12 2 29 0.4110 -0.0018
12 2 30 0.2209 0.0047
12 2 31 -0.1964 -0.0021
12 2 32 -0.1331 0.0102
12 2 33 0.0465 0.0003
12 3 0 -3.0442 -0.0059
12 3 1 0.5638 -0.0018
12 3 2 1.4476 -0.0023
12 3 3 -1.1145 0.0023
12 3 4 0.2060 0.0043
12 3 5 1.4297 0.0004
12 3 6 -1.2600 -0.0102
12 3 7 -2.1222 -0.0014
12 3 8 1.5189 0.0126
12 3 9 2.9129 -0.0044
12 3 10 -1.2069 -0.0031
12 3 11 -2.7055 0.0105
12 3 12 0.8594 -0.0047
12 3 13 1.2722 -0.0085
12 3 14 -0.8112 0.0004
12 3 15 0.2489 0.0015
12 3 16 0.6587 0.0050
12 3 17 -0.8543 0.0026
12 3 18 0.0439 -0.0041
12 3 19 0.6543 -0.0027
12 3 20 -0.8026 0.0032
12 3 21 -0.2279 0.0016
12 3 22 0.9038 -0.0016
12 3 23 -0.0431 -0.0006
12 3 24 -0.5739 -0.0041
12 3 25 -0.0170 0.0007
12 3 26 0.3465 0.0049
12 3 27 0.2910 -0.0019
12 3 28 -0.1092 0.0018
12 3 29 -0.4131 0.0012
12 3 30 -0.2388 -0.0008
12 3 31 0.2890 0.0012
12 3 32 0.2583 -0.0112
12 4 0 1.5915 0.0018
12 4 1 -0.0054 0.0058
12 4 2 -0.8850 0.0034
12 4 3 0.3741 -0.0056
12 4 4 0.0859 -0.0087
12 4 5 -0.7013 0.0009
12 4 6 0.4188 0.0123
12 4 7 1.5716 0.0009
12 4 8 -0.5714 -0.0079
12 4 9 -2.5460 0.0039
12 4 10 0.6129 -0.0024
12 4 11 2.4500 -0.0071
12 4 12 -0.8918 0.0061
12 4 13 -1.1681 0.0031
12 4 14 1.3085 -0.0012
12 4 15 -0.1344 0.0016
12 4 16 -1.2007 -0.0021
12 4 17 0.6450 -0.0011
12 4 18 0.3864 0.0021
12 4 19 -0.5650 -0.0007
12 4 20 0.3078 -0.0042
12 4 21 0.2864 0.0005
12 4 22 -0.3091 0.0036
12 4 23 -0.0285 -0.0002
12 4 24 0.1352 0.0027
12 4 25 0.0386 0.0006
12 4 26 -0.2195 -0.0042
12 4 27 -0.2999 0.0003
12 4 28 0.1423 -0.0014
12 4 29 0.4222 -0.0013
12 4 30 0.2611 0.0009
12 4 31 -0.2826 0.0011
12 5 0 -0.5662 0.0049
12 5 1 -0.0497 -0.0063
12 5 2 0.1814 -0.0060
12 5 3 -0.1058 0.0048
12 5 4 0.2287 0.0079
12 5 5 0.1827 0.0003
12 5 6 -0.4123 -0.0064
12 5 7 -0.7683 -0.0003
12 5 8 0.4022 -0.0004
12 5 9 1.5058 -0.0051
12 5 10 -0.4959 0.0062
12 5 11 -1.4279 0.0064
12 5 12 0.9493 -0.0042
12 5 13 0.5549 -0.0013
12 5 14 -1.4134 -0.0006
12 5 15 0.1648 -0.0013
12 5 16 1.1792 0.0006
12 5 17 -0.3377 -0.0015
12 5 18 -0.3549 0.0003
12 5 19 0.3033 0.0034
12 5 20 -0.0883 0.0021
12 5 21 -0.2112 -0.0017
12 5 22 -0.1413 -0.0015
12 5 23 0.0405 0.0008
12 5 24 0.2634 -0.0039
12 5 25 -0.0266 -0.0010
12 5 26 0.0395 0.0044
12 5 27 0.2285 -0.0006
12 5 28 -0.1289 0.0014
12 5 29 -0.2998 0.0031
12 6 0 0.2482 -0.0063
12 6 1 -0.1371 -0.0006
12 6 2 -0.0294 0.0049
12 6 3 0.4409 0.0023
12 6 4 -0.2661 -0.0029
12 6 5 -0.5097 -0.0050
12 6 6 0.4161 -0.0002
12 6 7 0.7558 0.0022
12 6 8 -0.3956 0.0023
12 6 9 -0.9965 0.0032
12 6 10 0.4758 0.0001
12 6 11 0.6677 -0.0026
12 6 12 -0.8919 -0.0058
12 6 13 0.0042 -0.0025
12 6 14 1.2583 0.0072
12 6 15 -0.2874 0.0029
12 6 16 -0.9568 -0.0019
12 6 17 0.1532 0.0017
12 6 18 0.2525 -0.0023
12 6 19 -0.0650 -0.0044
12 6 20 -0.0419 0.0019
12 6 21 0.0446 0.0046
12 6 22 0.3668 -0.0034
12 6 23 0.0662 -0.0056
12 6 24 -0.4009 0.0078
12 6 25 -0.0702 0.0054
12 6 26 -0.0144 -0.0072
12 7 0 -0.1072 0.0020
12 7 1 0.0150 0.0051
12 7 2 0.1036 -0.0001
12 7 3 -0.5611 -0.0075
12 7 4 -0.0138 -0.0033
12 7 5 0.7905 0.0093
12 7 6 -0.0511 0.0043
12 7 7 -0.8136 -0.0072
12 7 8 -0.0067 -0.0000
12 7 9 0.6275 0.0045
12 7 10 -0.0113 -0.0075
12 7 11 -0.0915 -0.0061
12 7 12 0.3739 0.0119
12 7 13 -0.4123 0.0085
12 7 14 -0.7819 -0.0080
12 7 15 0.3609 -0.0057
12 7 16 0.6754 -0.0005
12 7 17 0.0200 0.0001
12 7 18 -0.2268 0.0047
12 7 19 -0.1808 0.0038
12 7 20 0.1070 -0.0038
12 7 21 0.1298 -0.0079
12 7 22 -0.3030 0.0045
12 7 23 -0.1097 0.0133
12 7 24 0.2339 -0.0076
12 7 25 0.0319 -0.0136
12 8 0 -0.2794 -0.0009
12 8 1 0.1291 -0.0041
12 8 2 0.1653 -0.0017
12 8 3 0.5217 0.0067
12 8 4 -0.0224 0.0060
12 8 5 -0.7662 -0.0088
12 8 6 -0.0606 -0.0057
12 8 7 0.5208 0.0092
12 8 8 0.2305 -0.0004
12 8 9 -0.0034 -0.0089
12 8 10 -0.3885 0.0066
12 8 11 -0.5821 0.0085
12 8 12 0.1968 -0.0063
12 8 13 0.8332 -0.0060
12 8 14 0.2228 -0.0007
12 8 15 -0.4765 0.0013
12 8 16 -0.3546 0.0079
12 8 17 -0.0812 0.0013
12 8 18 0.1498 -0.0082
12 8 19 0.2621 -0.0020
12 8 20 -0.0231 0.0035
12 8 21 -0.1058 0.0070
12 8 22 0.0509 -0.0011
12 8 23 -0.0393 -0.0156
12 9 0 0.5558 0.0048
12 9 1 0.0315 0.0022
12 9 2 -0.3506 -0.0013
12 9 3 -0.6678 -0.0032
12 9 4 0.0881 -0.0038
12 9 5 0.7896 0.0042
12 9 6 -0.0224 0.0040
12 9 7 -0.2991 -0.0053
12 9 8 -0.0842 0.0000
12 9 9 -0.4020 0.0048
12 9 10 0.3080 -0.0020
12 9 11 0.9375 -0.0005
12 9 12 -0.3020 -0.0017
12 9 13 -1.0002 -0.0064
12 9 14 -0.0026 0.0084
12 9 15 0.5358 0.0106
12 9 16 0.1985 -0.0124
12 9 17 -0.0102 -0.0072
12 9 19 -0.0826 0.0011
12 10 0 -0.4229 -0.0113
12 10 1 -0.0959 -0.0033
12 10 2 0.1057 0.0067
12 10 3 0.5649 0.0025
12 10 4 0.1742 -0.0007
12 10 5 -0.5945 -0.0013
12 10 6 -0.0897 -0.0010
12 10 7 0.1546 0.0014
12 10 8 -0.0385 0.0002
12 10 9 0.3634 0.0004
12 10 10 -0.0470 -0.0011
12 10 11 -0.6669 -0.0069
12 10 12 0.0906 0.0040
13 0 0 0.6493 0.0044
13 0 2 -1.4722 -0.0285
13 0 4 1.4955 0.0072
13 0 6 -1.0396 0.0101
13 0 8 0.6769 -0.0084
13 0 10 -0.6558 0.0109
13 0 12 0.7827 -0.0136
13 0 14 -0.8696 0.0004
13 0 16 0.7477 0.0094
13 0 18 -0.2732 0.0041
13 0 20 -0.1946 -0.0218
13 0 22 0.0861 0.0219
13 0 24 0.3941 -0.0108
13 0 26 -0.5815 -0.0010
13 0 28 0.5093 0.0107
13 0 30 -0.6212 -0.0103
13 0 32 0.7770 -0.0010
13 1 0 -0.4221 -0.0038
13 1 1 0.0664 -0.0045
13 1 2 1.5249 0.0248
13 1 3 -0.0807 0.0077
13 1 4 -1.8432 -0.0044
13 1 5 0.2221 -0.0100
13 1 6 1.4914 -0.0122
13 1 7 -0.1208 0.0096
13 1 8 -0.9653 0.0106
13 1 9 -0.3174 -0.0031
13 1 10 0.6211 -0.0121
13 1 11 0.6715 -0.0055
13 1 12 -0.4851 0.0137
13 1 13 -0.5801 0.0086
13 1 14 0.5020 -0.0010
13 1 15 0.2223 -0.0042
13 1 16 -0.4642 -0.0094
13 1 17 0.0356 -0.0019
13 1 18 0.1351 -0.0004
13 1 19 -0.1209 0.0022
13 1 20 0.1849 0.0144
13 1 21 0.1479 0.0045
13 1 22 0.0050 -0.0145
13 1 23 -0.1516 -0.0098
13 1 24 -0.4381 0.0062
13 1 25 0.1068 0.0052
13 1 26 0.4899 0.0034
13 1 27 0.0063 0.0047
13 1 28 -0.3092 -0.0110
13 1 29 -0.1995 -0.0065
13 1 30 0.3937 0.0057
13 1 31 0.3909 -0.0004
13 1 32 -0.5643 0.0126
13 1 33 -0.4232 0.0026
13 2 0 -0.0980 0.0063
13 2 1 -0.1166 0.0016
13 2 2 -1.3502 -0.0181
13 2 3 -0.2774 -0.0010
13 2 4 2.1856 0.0023
13 2 5 0.2143 0.0012
13 2 6 -2.1178 0.0090
13 2 7 -0.2497 -0.0018
13 2 8 1.4570 -0.0079
13 2 9 0.5853 -0.0024
13 2 10 -0.7200 0.0101
13 2 11 -0.6665 0.0087
13 2 12 0.2972 -0.0101
13 2 13 0.1386 -0.0092
13 2 14 -0.2986 -0.0026
13 2 15 0.5141 0.0034
13 2 16 0.3757 0.0122
13 2 17 -0.7257 0.0019
13 2 18 -0.1637 -0.0051
13 2 19 0.5681 -0.0023
13 2 20 -0.0336 -0.0055
13 2 21 -0.3680 -0.0006
13 2 22 -0.2056 0.0073
13 2 23 0.2254 0.0020
13 2 24 0.4745 -0.0046
13 2 25 -0.1189 0.0017
13 2 26 -0.2243 -0.0011
13 2 27 0.0005 -0.0069
13 2 28 -0.1492 0.0078
13 2 29 0.2253 0.0048
13 2 30 0.0587 -0.0027
13 2 31 -0.4829 0.0047
13 2 32 0.1955 -0.0153
13 3 0 0.3473 -0.0072
13 3 1 0.4148 0.0023
13 3 2 0.9451 0.0117
13 3 3 0.4005 -0.0062
13 3 4 -1.9493 -0.0037
13 3 5 -0.5343 0.0053
13 3 6 2.1339 -0.0011
13 3 7 0.5564 -0.0022
13 3 8 -1.6593 0.0022
13 3 9 -0.6821 0.0035
13 3 10 1.0874 -0.0066
13 3 11 0.3605 -0.0068
13 3 12 -0.9266 0.0056
13 3 13 0.5544 0.0050
13 3 14 1.1781 0.0062
13 3 15 -1.3005 0.0001
13 3 16 -1.2556 -0.0139
13 3 17 1.3280 -0.0021
13 3 18 0.8368 0.0088
13 3 19 -0.9510 0.0012
13 3 20 -0.4761 -0.0015
13 3 21 0.6042 -0.0012
13 3 22 0.6074 -0.0021
13 3 23 -0.3469 0.0024
13 3 24 -0.6409 0.0052
13 3 25 0.1775 -0.0045
13 3 26 0.0697 -0.0038
13 3 27 -0.0776 0.0060
13 3 28 0.4722 -0.0028
13 3 29 -0.1224 -0.0029
13 3 30 -0.3409 0.0008
13 3 31 0.3938 -0.0048
13 3 32 -0.0169 0.0118
13 4 0 -0.0144 0.0058
13 4 1 -0.6063 -0.0035
13 4 2 -0.9722 -0.0051
13 4 3 -0.0759 0.0067
13 4 4 1.8208 0.0028
13 4 5 0.1713 -0.0036
13 4 6 -1.9950 -0.0021
13 4 7 -0.2661 -0.0004
13 4 8 1.6541 -0.0005
13 4 9 0.5043 -0.0006
13 4 10 -1.3914 0.0051
13 4 11 -0.2806 0.0019
13 4 12 1.6605 -0.0024
13 4 13 -0.4665 0.0016
13 4 14 -2.1892 -0.0073
13 4 15 0.9501 -0.0048
13 4 16 2.1822 0.0116
13 4 17 -0.8186 0.0029
13 4 18 -1.5190 -0.0077
13 4 19 0.5344 -0.0004
13 4 20 1.0751 0.0044
13 4 21 -0.3823 0.0015
13 4 22 -1.2319 -0.0015
13 4 23 0.2175 -0.0032
13 4 24 1.1440 -0.0042
13 4 25 -0.0613 0.0030
13 4 26 -0.3100 0.0054
13 4 27 0.0053 -0.0021
13 4 28 -0.4378 0.0000
13 4 29 0.1279 0.0004
13 4 30 0.3922 0.0002
13 5 0 -0.1715 -0.0021
13 5 1 0.1438 0.0014
13 5 2 1.1957 -0.0020
13 5 3 0.1064 -0.0024
13 5 4 -1.9916 0.0025
13 5 5 0.1175 -0.0016
13 5 6 2.0618 -0.0013
13 5 7 -0.1641 0.0038
13 5 8 -1.6073 0.0019
13 5 9 -0.1306 -0.0017
13 5 10 1.2895 -0.0023
13 5 11 0.1900 0.0021
13 5 12 -1.5593 -0.0020
13 5 13 0.0575 -0.0070
13 5 14 2.0072 0.0067
13 5 15 -0.0210 0.0084
13 5 16 -1.8149 -0.0049
13 5 17 -0.3518 -0.0034
13 5 18 1.1026 0.0009
13 5 19 0.5259 -0.0001
13 5 20 -0.8963 -0.0016
13 5 21 -0.4408 -0.0016
13 5 22 1.3637 0.0020
13 5 23 0.4357 0.0031
13 5 24 -1.4009 0.0021
13 5 25 -0.4549 -0.0016
13 5 26 0.5190 -0.0033
13 5 27 0.3166 -0.0001
13 5 28 0.3364 -0.0004
13 6 0 -0.3601 -0.0026
13 6 1 0.3133 0.0008
13 6 2 -0.7351 0.0066
13 6 3 -0.4578 -0.0015
13 6 4 1.5861 -0.0072
13 6 5 0.0536 0.0051
13 6 6 -1.7334 0.0052
13 6 7 0.3067 -0.0055
13 6 8 1.2946 -0.0017
13 6 9 -0.3149 0.0033
13 6 10 -0.8531 -0.0031
13 6 11 0.2912 -0.0052
13 6 12 0.8532 0.0069
13 6 13 -0.2400 0.0099
13 6 14 -0.9364 -0.0047
13 6 15 -0.2089 -0.0087
13 6 16 0.4492 -0.0030
13 6 17 0.8467 0.0015
13 6 18 0.2893 0.0070
13 6 19 -1.0912 0.0023
13 6 20 -0.2682 -0.0033
13 6 21 0.9826 -0.0002
13 6 22 -0.4884 -0.0001
13 6 23 -0.9055 -0.0018
13 6 24 0.8086 -0.0015
13 6 25 0.7763 0.0013
13 6 26 -0.2433 0.0021
13 7 0 0.7720 0.0059
13 7 1 0.1093 -0.0006
13 7 2 -0.0436 -0.0069
13 7 3 0.2557 0.0027
13 7 4 -0.5900 0.0079
13 7 5 -0.0316 -0.0054
13 7 6 0.8651 -0.0063
13 7 7 -0.4541 0.0048
13 7 8 -0.7298 0.0004
13 7 9 0.7763 -0.0032
13 7 10 0.4573 0.0065
13 7 11 -0.9318 0.0056
13 7 12 -0.3581 -0.0080
13 7 13 0.8344 -0.0086
13 7 14 0.1841 0.0011
13 7 15 -0.2859 0.0054
13 7 16 0.5072 0.0080
13 7 17 -0.3878 0.0014
13 7 18 -1.3177 -0.0097
13 7 19 0.6485 -0.0038
13 7 20 1.3360 0.0039
13 7 21 -0.5703 0.0020
13 7 22 -0.5931 -0.0002
13 7 23 0.5085 -0.0010
13 7 24 0.0537 0.0019
13 8 0 -0.3011 -0.0059
13 8 1 -0.7989 -0.0027
13 8 2 0.1601 0.0041
13 8 3 0.3118 -0.0007
13 8 4 -0.0195 -0.0051
13 8 5 -0.2703 0.0022
13 8 6 -0.2153 0.0041
13 8 7 0.6435 -0.0008
13 8 8 0.3756 0.0013
13 8 9 -0.9929 -0.0005
13 8 10 -0.3639 -0.0061
13 8 11 1.1332 -0.0009
13 8 12 0.3147 0.0041
13 8 13 -0.9981 0.0024
13 8 14 -0.1137 0.0040
13 8 15 0.5475 -0.0006
13 8 16 -0.5188 -0.0104
13 8 17 -0.0935 -0.0016
13 8 18 1.2703 0.0083
13 8 19 0.0146 0.0006
13 8 20 -1.4224 -0.0014
13 8 21 -0.1667 -0.0000
13 8 22 0.9131 -0.0016
13 9 0 -0.3427 0.0020
13 9 1 0.8164 0.0062
13 9 2 0.1359 0.0000
13 9 3 -0.3964 -0.0016
13 9 4 0.1033 0.0010
13 9 5 0.2366 0.0009
13 9 6 0.0214 -0.0001
13 9 7 -0.4628 -0.0029
13 9 8 -0.3016 -0.0034
13 9 9 0.6868 0.0051
13 9 10 0.3885 0.0041
13 9 11 -0.6986 -0.0059
13 9 12 -0.3268 0.0011
13 9 13 0.5226 0.0058
13 9 14 0.1675 -0.0087
13 9 15 -0.2324 -0.0048
13 9 16 0.2417 0.0119
13 10 0 0.3852 0.0028
13 10 1 -0.4751 -0.0050
13 10 2 -0.1260 -0.0014
13 10 3 0.1476 0.0007
13 10 4 -0.2074 -0.0005
13 10 5 0.0392 -0.0010
13 10 6 0.1178 -0.0006
13 10 9 -0.1558 -0.0066
13 10 10 -0.2736 -0.0014
13 10 11 0.1067 0.0096
14 0 0 0.4577 -0.0654
14 0 2 -1.2471 0.0733
14 0 4 1.3486 -0.0305
14 0 6 -0.5150 -0.0038
14 0 8 -0.7550 0.0032
14 0 10 1.6859 0.0045
14 0 12 -1.8726 -0.0070
14 0 14 1.5794 0.0136
14 0 16 -1.2427 -0.0133
14 0 18 0.9982 -0.0057
14 0 20 -0.9062 0.0231
14 0 22 0.9774 -0.0205
14 0 24 -0.8695 0.0100
14 0 26 0.3956 -0.0048
14 0 28 -0.1337 0.0015
14 0 30 0.5650 -0.0000
14 0 32 -1.1199 0.0020
14 1 0 -0.5870 0.0516
14 1 1 -0.7455 0.0110
14 1 2 1.1586 -0.0584
14 1 3 0.7377 -0.0122
14 1 4 -1.2941 0.0210
14 1 5 -0.7566 0.0128
14 1 6 0.7716 0.0084
14 1 7 0.4656 -0.0113
14 1 8 0.0876 -0.0062
14 1 9 0.2323 0.0048
14 1 10 -0.7596 -0.0019
14 1 11 -0.8648 0.0030
14 1 12 1.0011 0.0045
14 1 13 0.9237 -0.0056
14 1 14 -1.0197 -0.0108
14 1 15 -0.4674 0.0025
14 1 16 1.0253 0.0118
14 1 17 -0.0677 0.0007
14 1 18 -0.9771 0.0027
14 1 19 0.3762 0.0009
14 1 20 0.9298 -0.0153
14 1 21 -0.3884 -0.0069
14 1 22 -0.9624 0.0116
14 1 23 0.1768 0.0105
14 1 24 0.7755 -0.0032
14 1 25 0.0625 -0.0050
14 1 26 -0.2246 0.0006
14 1 27 -0.1593 -0.0042
14 1 28 -0.0612 -0.0016
14 1 29 0.1467 0.0032
14 1 30 -0.3953 0.0088
14 1 31 -0.1313 0.0087
14 1 32 0.9664 -0.0222
14 2 0 0.9194 -0.0258
14 2 1 1.2076 -0.0077
14 2 2 -0.9782 0.0275
14 2 3 -1.2729 0.0064
14 2 4 1.0347 -0.0019
14 2 5 1.6760 -0.0070
14 2 6 -0.9935 -0.0145
14 2 7 -1.6481 0.0087
14 2 8 0.8603 0.0090
14 2 9 0.8100 -0.0057
14 2 10 -0.6592 -0.0022
14 2 11 0.1611 -0.0011
14 2 12 0.3110 -0.0006
14 2 13 -0.4514 0.0038
14 2 14 0.2505 0.0074
14 2 15 0.1036 -0.0010
14 2 16 -0.7705 -0.0097
14 2 17 0.3447 -0.0017
14 2 18 0.9253 -0.0004
14 2 19 -0.5874 0.0014
14 2 20 -0.8648 0.0084
14 2 21 0.5407 0.0006
14 2 22 0.8273 -0.0047
14 2 23 -0.2129 -0.0014
14 2 24 -0.5279 -0.0007
14 2 25 -0.1544 -0.0007
14 2 26 -0.1522 0.0023
14 2 27 0.2918 0.0018
14 2 28 0.4805 -0.0027
14 2 29 -0.2608 0.0062
14 2 30 0.0311 -0.0049
14 2 31 0.2345 -0.0219
14 2 32 -0.6440 0.0214
14 3 0 -1.0141 0.0075
14 3 1 -1.5804 -0.0024
14 3 2 0.5727 -0.0042
14 3 3 1.7162 0.0047
14 3 4 -0.3432 -0.0090
14 3 5 -2.5184 -0.0014
14 3 6 0.4400 0.0135
14 3 7 2.8886 -0.0051
14 3 8 -0.6859 -0.0078
14 3 9 -2.1980 0.0059
14 3 10 0.7341 0.0047
14 3 11 1.1542 -0.0013
14 3 12 -0.2860 -0.0024
14 3 13 -0.6347 -0.0008
14 3 14 -0.5344 -0.0049
14 3 15 0.5996 -0.0006
14 3 16 1.0965 0.0078
14 3 17 -0.6508 0.0011
14 3 18 -1.0344 -0.0012
14 3 19 0.6924 -0.0010
14 3 20 0.7939 -0.0034
14 3 21 -0.6198 0.0028
14 3 22 -0.7425 0.0012
14 3 23 0.2529 -0.0049
14 3 24 0.4245 0.0002
14 3 25 0.2082 0.0050
14 3 26 0.3765 -0.0018
14 3 27 -0.4045 -0.0014
14 3 28 -0.8156 0.0068
14 3 29 0.3921 -0.0086
14 3 30 0.3255 -0.0053
14 3 31 -0.3753 0.0225
14 4 0 0.3746 0.0016
14 4 1 1.8048 0.0057
14 4 2 0.3738 -0.0063
14 4 3 -1.9980 -0.0080
14 4 4 -0.7850 0.0095
14 4 5 2.8396 0.0031
14 4 6 0.6324 -0.0063
14 4 7 -3.1887 0.0043
14 4 8 -0.2005 0.0023
14 4 9 2.4422 -0.0059
14 4 10 0.0459 -0.0029
14 4 11 -1.3606 0.0034
14 4 12 -0.5419 0.0020
14 4 13 0.7499 -0.0030
14 4 14 1.3580 0.0036
14 4 15 -0.5000 0.0033
14 4 16 -1.6594 -0.0052
14 4 17 0.3567 -0.0006
14 4 18 1.2561 0.0013
14 4 19 -0.4035 -0.0007
14 4 20 -0.9278 -0.0002
14 4 21 0.4584 -0.0029
14 4 22 1.0183 0.0014
14 4 23 -0.1469 0.0065
14 4 24 -0.7524 0.0007
14 4 25 -0.3415 -0.0058
14 4 26 -0.2217 -0.0004
14 4 27 0.5422 0.0016
14 4 28 0.9173 -0.0066
14 5 0 0.4514 -0.0079
14 5 1 -1.4998 -0.0035
14 5 2 -1.3661 0.0107
14 5 3 1.8066 0.0039
14 5 4 1.7055 -0.0075
14 5 5 -2.5403 0.0013
14 5 6 -1.2980 0.0010
14 5 7 2.7123 -0.0064
14 5 8 0.5454 0.0022
14 5 9 -1.8715 0.0063
14 5 10 -0.1386 -0.0007
14 5 11 0.7801 -0.0050
14 5 12 0.4898 0.0001
14 5 13 -0.1170 0.0062
14 5 14 -1.1548 -0.0013
14 5 15 -0.2753 -0.0050
14 5 16 1.2561 -0.0002
14 5 17 0.5192 -0.0003
14 5 18 -0.8033 0.0017
14 5 19 -0.4129 0.0023
14 5 20 0.7278 0.0015
14 5 21 0.1952 0.0023
14 5 22 -1.1823 -0.0037
14 5 23 -0.3393 -0.0065
14 5 24 1.0966 -0.0002
14 5 25 0.6505 0.0052
14 5 26 -0.0598 0.0023
14 5 27 -0.6460 -0.0016
14 5 28 -0.8317 0.0024
14 6 0 -0.4255 0.0105
14 6 1 1.1035 0.0037
14 6 2 1.3787 -0.0111
14 6 3 -1.4436 -0.0017
14 6 4 -1.6509 0.0078
14 6 5 2.0997 -0.0031
14 6 6 1.1693 -0.0030
14 6 7 -2.3303 0.0052
14 6 8 -0.2975 -0.0002
14 6 9 1.7343 -0.0032
14 6 10 -0.3526 0.0012
14 6 11 -0.8592 0.0026
14 6 12 0.3679 -0.0009
14 6 13 0.1930 -0.0041
14 6 14 -0.1008 -0.0017
14 6 15 0.3885 0.0018
14 6 16 0.2416 0.0057
14 6 17 -0.8499 0.0041
14 6 18 -0.6011 -0.0050
14 6 19 0.8841 -0.0047
14 6 20 0.2945 -0.0015
14 6 21 -0.6901 -0.0017
14 6 22 0.5967 0.0046
14 6 23 0.7135 0.0063
14 6 24 -0.8723 -0.0002
14 6 25 -0.7860 -0.0047
14 7 0 -0.1689 -0.0055
14 7 1 -1.4923 -0.0069
14 7 2 -0.5847 0.0049
14 7 3 1.5830 0.0048
14 7 4 0.9051 -0.0057
14 7 5 -1.9235 -0.0028
14 7 6 -0.8103 0.0059
14 7 7 2.1771 0.0038
14 7 8 0.3829 -0.0030
14 7 9 -1.9625 -0.0061
14 7 10 0.1676 -0.0014
14 7 11 1.4830 0.0051
14 7 12 -0.5439 0.0026
14 7 13 -0.9941 -0.0026
14 7 14 0.8368 0.0012
14 7 15 0.4116 0.0044
14 7 16 -1.3558 -0.0056
14 7 17 0.1499 -0.0081
14 7 18 1.7613 0.0035
14 7 19 -0.3639 0.0058
14 7 20 -1.3220 0.0032
14 7 21 0.3462 0.0014
14 7 22 0.2573 -0.0052
14 7 23 -0.4280 -0.0053
14 8 0 0.1984 -0.0043
14 8 1 2.2169 0.0058
14 8 2 0.1740 0.0067
14 8 3 -1.8720 -0.0055
14 8 4 -0.4277 -0.0028
14 8 5 1.5822 0.0081
14 8 6 0.7498 -0.0013
14 8 7 -1.5262 -0.0121
14 8 8 -0.9371 -0.0003
14 8 9 1.4478 0.0138
14 8 10 0.7044 0.0049
14 8 11 -1.2905 -0.0107
14 8 12 -0.1686 -0.0058
14 8 13 1.1185 0.0067
14 8 14 -0.4875 0.0017
14 8 15 -0.8397 -0.0063
14 8 16 1.2235 0.0016
14 8 17 0.5095 0.0067
14 8 18 -1.6879 0.0011
14 8 19 -0.3450 -0.0027
14 8 20 1.3803 -0.0063
14 8 21 0.2748 -0.0029
14 9 0 0.2545 0.0101
14 9 1 -2.0468 0.0025
14 9 2 -0.2963 -0.0134
14 9 3 1.3865 -0.0024
14 9 4 0.2739 0.0098
14 9 5 -0.6059 -0.0039
14 9 6 -0.6069 -0.0056
14 9 7 0.2393 0.0106
14 9 8 1.0353 0.0059
14 9 9 -0.1656 -0.0128
14 9 10 -1.0053 -0.0076
14 9 11 0.1998 0.0100
14 9 12 0.5123 0.0059
14 9 13 -0.2969 -0.0060
14 9 14 0.1055 -0.0015
14 9 15 0.3523 0.0040
14 10 0 -0.2716 -0.0061
14 10 1 1.1099 -0.0092
14 10 2 0.1631 0.0079
14 10 3 -0.4375 0.0097
14 10 4 0.1049 -0.0066
14 10 5 -0.3277 -0.0024
14 10 6 0.0171 0.0061
14 10 9 -0.5976 0.0083
15 0 0 -4.4709 0.0524
15 0 2 4.8936 -0.0591
15 0 4 -3.9511 0.0250
15 0 6 2.0557 0.0012
15 0 8 -0.4183 0.0047
15 0 10 -0.2058 -0.0138
15 0 12 0.1066 0.0126
15 0 14 -0.0533 -0.0165
15 0 16 0.3176 0.0210
15 0 18 -0.5499 -0.0094
15 0 20 0.5385 -0.0088
15 0 22 -0.4222 0.0166
15 0 24 0.1982 -0.0175
15 0 26 0.1389 0.0161
15 0 28 -0.1755 -0.0068
15 0 30 -0.2830 -0.0057
15 1 0 4.2974 -0.0376
15 1 1 1.1907 -0.0065
15 1 2 -4.8639 0.0458
15 1 3 -1.0876 0.0065
15 1 4 4.2371 -0.0181
15 1 5 0.9210 -0.0069
15 1 6 -2.6911 -0.0039
15 1 7 -0.4817 0.0069
15 1 8 1.2404 -0.0016
15 1 9 -0.2260 -0.0037
15 1 10 -0.5337 0.0087
15 1 11 0.7294 -0.0004
15 1 12 0.3306 -0.0061
15 1 13 -0.6149 0.0011
15 1 14 -0.0411 0.0088
15 1 15 0.0769 0.0012
15 1 16 -0.4150 -0.0140
15 1 17 0.3500 -0.0028
15 1 18 0.6408 0.0068
15 1 19 -0.3819 0.0022
15 1 20 -0.5403 0.0053
15 1 21 0.1056 0.0010
15 1 22 0.3702 -0.0098
15 1 23 0.2136 -0.0043
15 1 24 -0.1349 0.0116
15 1 25 -0.2885 0.0036
15 1 26 -0.2090 -0.0138
15 1 27 0.0364 -0.0002
15 1 28 0.2504 0.0110
15 1 29 0.2874 0.0032
15 1 30 0.2110 -0.0088
15 1 31 -0.3873 -0.0140
15 2 0 -3.8181 0.0105
15 2 1 -2.1148 0.0054
15 2 2 4.4536 -0.0171
15 2 3 2.4419 -0.0049
15 2 4 -4.2895 0.0016
15 2 5 -2.6626 0.0056
15 2 6 3.4015 0.0083
15 2 7 2.1540 -0.0075
15 2 8 -2.4096 -0.0013
15 2 9 -0.8205 0.0056
15 2 10 1.6976 -0.0018
15 2 11 -0.4203 -0.0002
15 2 12 -1.0678 -0.0033
15 2 13 0.6902 -0.0020
15 2 14 0.2643 0.0019
15 2 15 -0.1855 -0.0004
15 2 16 0.4215 0.0032
15 2 17 -0.3039 0.0028
15 2 18 -0.5441 -0.0002
15 2 19 0.3596 -0.0031
15 2 20 0.2884 -0.0045
15 2 21 -0.0406 0.0017
15 2 22 -0.1159 0.0034
15 2 23 -0.3789 0.0014
15 2 24 -0.0528 -0.0027
15 2 25 0.4921 -0.0051
15 2 26 0.3920 0.0035
15 2 27 -0.1091 0.0094
15 2 28 -0.4610 -0.0010
15 2 29 -0.4016 -0.0180
15 2 30 -0.0080 0.0031
15 2 31 0.5658 0.0298
15 3 0 2.9691 0.0058
15 3 1 2.6162 0.0034
15 3 2 -3.2407 -0.0043
15 3 3 -3.4661 -0.0030
15 3 4 3.1002 0.0101
15 3 5 4.2327 -0.0004
15 3 6 -2.6215 -0.0094
15 3 7 -3.8938 0.0058
15 3 8 2.1325 0.0028
15 3 9 2.2340 -0.0056
15 3 10 -1.7219 -0.0041
15 3 11 -0.4649 -0.0003
15 3 12 1.1222 0.0100
15 3 13 -0.2386 0.0041
15 3 14 -0.2897 -0.0082
15 3 15 0.0339 -0.0033
15 3 16 -0.2356 0.0033
15 3 17 0.2857 0.0020
15 3 18 0.0896 -0.0038
15 3 19 -0.3603 -0.0006
15 3 20 0.2239 0.0037
15 3 21 0.1629 -0.0019
15 3 22 -0.1803 0.0006
15 3 23 0.2316 0.0026
15 3 24 0.1490 -0.0033
15 3 25 -0.4391 0.0014
15 3 26 -0.5041 0.0064
15 3 27 0.1328 -0.0089
15 3 28 0.6854 -0.0139
15 3 29 0.3515 0.0191
15 3 30 -0.2444 0.0147
15 4 0 -1.6207 -0.0059
15 4 1 -2.5986 -0.0075
15 4 2 1.5106 0.0073
15 4 3 3.4335 0.0082
15 4 4 -1.2670 -0.0066
15 4 5 -4.2438 -0.0045
15 4 6 1.0159 0.0011
15 4 7 3.9557 -0.0016
15 4 8 -0.9260 0.0024
15 4 9 -2.3539 0.0022
15 4 10 0.8795 0.0027
15 4 11 0.6941 0.0023
15 4 12 -0.5270 -0.0084
15 4 13 -0.0818 -0.0050
15 4 14 -0.0605 0.0062
15 4 15 0.2444 0.0052
15 4 16 0.2456 -0.0024
15 4 17 -0.4684 -0.0060
15 4 18 0.1526 0.0022
15 4 19 0.5767 0.0047
15 4 20 -0.3761 -0.0007
15 4 21 -0.5088 0.0010
15 4 22 0.0113 -0.0026
15 4 23 0.1344 -0.0056
15 4 24 0.1910 0.0037
15 4 25 0.2176 0.0041
15 4 26 0.2958 -0.0077
15 4 27 -0.1003 0.0014
15 5 0 0.2328 0.0020
15 5 1 2.1081 0.0029
15 5 2 -0.2074 -0.0014
15 5 3 -2.6113 -0.0039
15 5 4 0.2435 -0.0029
15 5 5 3.0898 0.0015
15 5 6 -0.3347 0.0085
15 5 7 -2.7444 0.0018
15 5 8 0.5221 -0.0087
15 5 9 1.4484 -0.0005
15 5 10 -0.6261 0.0026
15 5 11 -0.2709 -0.0027
15 5 12 0.3253 0.0019
15 5 13 0.0109 0.0031
15 5 14 0.1985 -0.0007
15 5 15 -0.2470 -0.0033
15 5 16 -0.2761 -0.0008
15 5 17 0.4011 0.0059
15 5 18 -0.1136 0.0007
15 5 19 -0.5071 -0.0054
15 5 20 0.1050 -0.0022
15 5 21 0.5281 -0.0011
15 5 22 0.5292 0.0026
15 5 23 -0.2127 0.0066
15 5 24 -0.7821 0.0003
15 5 25 -0.1729 -0.0060
15 5 26 0.1226 0.0010
15 5 27 0.1488 0.0026
15 6 0 0.2616 -0.0016
15 6 1 -1.6799 0.0010
15 6 2 -0.0371 -0.0004
15 6 3 2.0178 -0.0014
15 6 4 -0.3426 0.0035
15 6 5 -2.2512 0.0025
15 6 6 0.6579 -0.0055
15 6 7 1.9678 -0.0021
15 6 8 -0.9088 0.0050
15 6 9 -1.0898 -0.0014
15 6 10 1.0234 -0.0032
15 6 11 0.3366 0.0036
15 6 12 -0.7650 0.0026
15 6 13 -0.1944 -0.0022
15 6 14 0.3009 -0.0029
15 6 15 0.2622 0.0020
15 6 16 -0.1947 0.0018
15 6 17 -0.1850 -0.0048
15 6 18 0.3801 -0.0013
15 6 19 0.1619 0.0044
15 6 20 -0.0840 0.0029
15 6 21 -0.1861 0.0012
15 6 22 -0.7208 -0.0017
15 6 23 -0.0388 -0.0046
15 6 24 0.9940 -0.0035
15 7 0 0.1248 -0.0028
15 7 1 1.9119 -0.0000
15 7 2 -0.2600 0.0027
15 7 3 -2.0577 -0.0002
15 7 4 0.5272 0.0002
15 7 5 2.0083 0.0014
15 7 6 -0.6155 -0.0036
15 7 7 -1.8056 -0.0041
15 7 8 0.6429 0.0032
15 7 9 1.3689 0.0073
15 7 10 -0.7847 0.0012
15 7 11 -0.9732 -0.0074
15 7 12 0.8535 -0.0052
15 7 13 0.8267 0.0045
15 7 14 -0.7667 0.0049
15 7 15 -0.6604 -0.0038
15 7 16 0.7884 -0.0020
15 7 17 0.3387 0.0055
15 7 18 -0.8282 0.0016
15 7 19 -0.1294 -0.0040
15 7 20 0.3766 -0.0038
15 7 21 0.0515 -0.0006
15 7 22 0.4221 0.0028
15 7 23 0.1552 0.0016
15 8 0 -0.3167 0.0143
15 8 1 -2.3306 0.0074
15 8 2 0.1790 -0.0116
15 8 3 1.9316 -0.0027
15 8 4 -0.1562 0.0029
15 8 5 -1.3197 -0.0035
15 8 6 -0.1041 0.0052
15 8 7 1.0314 0.0084
15 8 8 0.3646 -0.0048
15 8 9 -0.9858 -0.0103
15 8 10 -0.1957 -0.0024
15 8 11 1.0172 0.0085
15 8 12 -0.2533 0.0077
15 8 13 -1.0550 -0.0056
15 8 14 0.5943 -0.0069
15 8 15 0.9189 0.0052
15 8 16 -0.7775 0.0037
15 8 17 -0.5889 -0.0057
15 8 18 0.7733 -0.0040
15 8 19 0.3124 0.0028
15 8 20 -0.3880 0.0065
15 9 0 0.0287 -0.0179
15 9 1 1.9098 -0.0280
15 9 2 0.1510 0.0148
15 9 3 -0.9814 0.0181
15 9 4 -0.1275 -0.0055
15 9 5 -0.0594 -0.0055
15 9 6 0.3791 -0.0024
15 9 7 0.3847 -0.0029
15 9 8 -0.7291 0.0020
15 9 9 -0.1109 0.0053
15 9 10 0.6306 0.0041
15 9 11 -0.2845 -0.0042
15 9 12 -0.1434 -0.0079
15 9 13 0.5405 0.0030
15 9 14 -0.2424 0.0068
15 9 15 -0.5424 -0.0037
15 10 0 0.0057 0.0055
15 10 1 -0.8638 0.0399
15 10 4 -0.1915 0.0002
15 10 5 0.9358 0.0128
16 0 0 4.3187 0.0038
16 0 2 -4.1745 0.0186
16 0 4 3.3743 -0.0026
16 0 6 -2.3009 -0.0180
16 0 8 1.7199 0.0137
16 0 10 -1.7518 -0.0011
16 0 12 1.7708 -0.0092
16 0 14 -1.2963 0.0274
16 0 16 0.6120 -0.0414
16 0 18 -0.2443 0.0269
16 0 20 0.1137 0.0056
16 0 22 0.1847 -0.0260
16 0 24 -0.5042 0.0255
16 0 26 0.4235 -0.0116
16 0 28 -0.1189 -0.0086
16 0 30 0.0033 0.0215
16 1 0 -4.2845 -0.0060
16 1 1 -0.2514 -0.0092
16 1 2 4.4252 -0.0179
16 1 3 -0.1391 0.0091
16 1 4 -3.7610 0.0061
16 1 5 0.2550 -0.0056
16 1 6 2.6477 0.0127
16 1 7 -0.1995 0.0007
16 1 8 -1.8839 -0.0113
16 1 9 0.1360 0.0012
16 1 10 1.6810 0.0036
16 1 11 0.0056 -0.0003
16 1 12 -1.5120 0.0019
16 1 13 -0.2780 0.0007
16 1 14 0.9612 -0.0160
16 1 15 0.4413 -0.0032
16 1 16 -0.3309 0.0287
16 1 17 -0.2544 0.0060
16 1 18 0.0968 -0.0182
16 1 19 -0.1634 -0.0082
16 1 20 -0.0822 -0.0073
16 1 21 0.5062 0.0077
16 1 22 -0.1629 0.0234
16 1 23 -0.5957 -0.0031
16 1 24 0.4464 -0.0239
16 1 25 0.3992 -0.0011
16 1 26 -0.3031 0.0140
16 1 27 -0.0219 0.0002
16 1 28 -0.0604 0.0018
16 1 29 -0.2606 0.0005
16 1 30 0.1831 -0.0103
16 1 31 0.2487 0.0051
16 2 0 4.0006 0.0068
16 2 1 0.8296 0.0047
16 2 2 -4.5094 0.0132
16 2 3 -0.6232 -0.0053
16 2 4 4.0165 -0.0080
16 2 5 0.5742 0.0041
16 2 6 -2.8792 -0.0031
16 2 7 -0.4294 0.0001
16 2 8 1.9391 0.0036
16 2 9 0.0454 -0.0018
16 2 10 -1.5091 -0.0045
16 2 11 0.1824 -0.0004
16 2 12 1.1672 0.0077
16 2 13 0.0279 0.0014
16 2 14 -0.5800 -0.0004
16 2 15 -0.2710 0.0009
16 2 16 0.0941 -0.0098
16 2 17 0.0684 -0.0031
16 2 18 -0.1014 0.0055
16 2 19 0.4285 0.0036
16 2 20 0.2408 0.0076
16 2 21 -0.7867 -0.0020
16 2 22 -0.0081 -0.0134
16 2 23 0.8165 -0.0026
16 2 24 -0.2597 0.0109
16 2 25 -0.4818 0.0076
16 2 26 0.0036 -0.0033
16 2 27 -0.1247 -0.0085
16 2 28 0.4583 -0.0078
16 2 29 0.5981 0.0077
16 2 30 -0.5333 0.0107
16 3 0 -3.2678 -0.0060
16 3 1 -1.2732 -0.0006
16 3 2 3.6219 -0.0032
16 3 3 1.5163 0.0012
16 3 4 -3.0353 0.0016
16 3 5 -1.6557 -0.0003
16 3 6 1.9794 0.0008
16 3 7 1.2858 -0.0034
16 3 8 -1.2845 -0.0004
16 3 9 -0.3797 0.0036
16 3 10 1.1716 0.0061
16 3 11 -0.2787 0.0018
16 3 12 -1.1037 -0.0133
16 3 13 0.1727 -0.0061
16 3 14 0.7127 0.0095
16 3 15 0.1611 0.0059
16 3 16 -0.3964 -0.0014
16 3 17 -0.0784 -0.0048
16 3 18 0.5138 0.0015
16 3 19 -0.2458 0.0035
16 3 20 -0.5857 -0.0048
16 3 21 0.3940 -0.0013
16 3 22 0.1584 0.0025
16 3 23 -0.3291 0.0011
16 3 24 0.1989 0.0028
16 3 25 0.0507 -0.0037
16 3 26 0.1490 -0.0101
16 3 27 0.4791 0.0054
16 3 28 -0.6859 0.0196
16 3 29 -0.9013 -0.0057
16 3 30 0.6486 -0.0200
16 4 0 2.3082 -0.0013
16 4 1 1.0038 0.0009
16 4 2 -2.3375 0.0010
16 4 3 -1.3156 -0.0038
16 4 4 1.5935 -0.0002
16 4 5 1.5241 0.0039
16 4 6 -0.6535 0.0025
16 4 7 -1.1858 -0.0003
16 4 8 0.3136 -0.0034
16 4 9 0.3125 -0.0000
16 4 10 -0.6465 -0.0028
16 4 11 0.2105 -0.0046
16 4 12 0.9343 0.0087
16 4 13 0.1173 0.0079
16 4 14 -0.7447 -0.0056
16 4 15 -0.6174 -0.0082
16 4 16 0.5254 0.0003
16 4 17 0.6235 0.0083
16 4 18 -0.6192 -0.0004
16 4 19 -0.4253 -0.0066
16 4 20 0.4908 0.0008
16 4 21 0.4145 0.0010
16 4 22 0.1882 0.0027
16 4 23 -0.4411 0.0043
16 4 24 -0.6162 -0.0070
16 4 25 0.4601 -0.0052
16 4 26 0.1436 0.0131
16 4 27 -0.6741 0.0044
16 4 28 0.5046 -0.0222
16 5 0 -1.6281 0.0091
16 5 1 -0.3242 0.0025
16 5 2 1.8430 -0.0069
16 5 3 0.3824 0.0028
16 5 4 -1.2863 0.0068
16 5 5 -0.4667 -0.0048
16 5 6 0.4398 -0.0091
16 5 7 0.2816 0.0027
16 5 8 -0.0853 0.0092
16 5 9 0.1885 -0.0021
16 5 10 0.3461 -0.0049
16 5 11 -0.2616 0.0033
16 5 12 -0.5463 0.0023
16 5 13 -0.3531 -0.0025
16 5 14 0.2999 -0.0044
16 5 15 0.9193 0.0014
16 5 16 -0.0804 0.0054
16 5 17 -0.8930 -0.0033
16 5 18 0.1635 -0.0025
16 5 19 0.7010 0.0040
16 5 20 0.0416 0.0009
16 5 21 -0.7055 0.0007
16 5 22 -0.7709 -0.0017
16 5 23 0.6292 -0.0065
16 5 24 1.1238 0.0024
16 5 25 -0.4107 0.0085
16 5 26 -0.5211 -0.0062
16 6 0 1.4792 -0.0066
16 6 1 0.0959 -0.0078
16 6 2 -2.1554 0.0070
16 6 3 -0.0694 0.0032
16 6 4 2.0254 -0.0070
16 6 5 -0.0213 -0.0005
16 6 6 -1.2836 0.0068
16 6 7 0.1704 0.0005
16 6 8 0.6704 -0.0065
16 6 9 -0.3860 -0.0005
16 6 10 -0.5326 0.0066
16 6 11 0.2831 0.0020
16 6 12 0.4296 -0.0080
16 6 13 0.2579 -0.0062
16 6 14 -0.0581 0.0088
16 6 15 -0.6404 0.0081
16 6 16 -0.1670 -0.0058
16 6 17 0.5220 -0.0042
16 6 18 0.0570 0.0013
16 6 19 -0.3472 0.0002
16 6 20 -0.1958 0.0003
16 6 21 0.3724 -0.0010
16 6 22 0.7771 -0.0006
16 6 23 -0.2635 0.0035
16 7 0 -1.5032 0.0013
16 7 1 -0.5457 0.0088
16 7 2 2.1906 -0.0018
16 7 3 0.5543 -0.0059
16 7 4 -2.2959 -0.0009
16 7 5 -0.2853 0.0035
16 7 6 1.7007 0.0049
16 7 7 0.1049 -0.0024
16 7 8 -0.9969 -0.0049
16 7 9 -0.0183 0.0021
16 7 10 0.7055 -0.0000
16 7 11 0.0871 -0.0044
16 7 12 -0.5859 0.0050
16 7 13 -0.3328 0.0091
16 7 14 0.3043 -0.0049
16 7 15 0.4354 -0.0108
16 7 16 -0.1149 0.0004
16 7 17 -0.2589 0.0069
16 7 18 0.1890 0.0025
16 7 19 0.1392 -0.0023
16 7 20 -0.1074 -0.0013
16 7 21 -0.1789 0.0009
16 7 22 -0.2772 -0.0001
16 8 0 1.1866 -0.0031
16 8 1 0.9540 -0.0151
16 8 2 -1.4600 0.0007
16 8 3 -0.7534 0.0099
16 8 4 1.5835 0.0062
16 8 5 0.2770 -0.0052
16 8 6 -1.1903 -0.0136
16 8 7 -0.1792 0.0026
16 8 8 0.6146 0.0135
16 8 9 0.3830 -0.0016
16 8 10 -0.4167 -0.0061
16 8 11 -0.5731 0.0026
16 8 12 0.4779 -0.0002
16 8 13 0.6540 -0.0053
16 8 14 -0.3802 -0.0003
16 8 15 -0.5676 0.0064
16 8 16 0.2048 0.0041
16 8 17 0.3565 -0.0048
16 8 18 -0.1809 -0.0044
16 8 19 -0.2400 0.0034
16 9 0 -0.6450 0.0018
16 9 1 -0.7414 0.0324
16 9 2 0.6270 0.0019
16 9 3 0.2361 -0.0210
16 9 4 -0.8043 -0.0092
16 9 5 0.3298 0.0112
16 9 6 0.6418 0.0156
16 9 7 -0.2265 -0.0060
16 9 9 -0.3083 0.0036
16 9 10 0.0057 0.0071
16 9 11 0.6644 -0.0022
16 9 12 -0.0872 -0.0018
16 9 13 -0.6636 0.0017
17 0 0 -0.2865 -0.0574
17 0 2 0.6666 0.0257
17 0 4 -1.1094 -0.0301
17 0 6 1.3157 0.0451
17 0 8 -1.4668 -0.0333
17 0 10 1.6326 0.0048
17 0 12 -1.5765 0.0206
17 0 14 1.2051 -0.0408
17 0 16 -0.7919 0.0438
17 0 18 0.5036 -0.0157
17 0 20 -0.0306 -0.0217
17 0 22 -0.8022 0.0328
17 0 24 1.3932 -0.0151
17 0 26 -1.1236 -0.0089
17 0 28 0.4026 0.0241
17 1 0 0.7337 0.0403
17 1 1 -1.8689 0.0247
17 1 2 -1.1490 -0.0089
17 1 3 2.0283 -0.0199
17 1 4 1.3373 0.0125
17 1 5 -1.4191 0.0108
17 1 6 -1.1975 -0.0285
17 1 7 0.4032 -0.0025
17 1 8 1.0903 0.0221
17 1 9 0.4185 0.0009
17 1 10 -1.1582 -0.0015
17 1 11 -0.7504 -0.0039
17 1 12 1.1232 -0.0163
17 1 13 0.6386 0.0041
17 1 14 -0.8123 0.0312
17 1 15 -0.2174 -0.0001
17 1 16 0.4695 -0.0333
17 1 17 -0.3004 -0.0046
17 1 18 -0.2747 0.0097
17 1 19 0.6166 0.0078
17 1 20 -0.0831 0.0215
17 1 21 -0.6284 -0.0078
17 1 22 0.7908 -0.0304
17 1 23 0.5279 0.0037
17 1 24 -1.2437 0.0152
17 1 25 -0.4725 -0.0006
17 1 26 0.8390 0.0064
17 1 27 0.4220 0.0050
17 1 28 -0.0441 -0.0228
17 1 29 -0.3612 -0.0113
17 1 30 -0.2960 0.0256
17 2 0 -1.5256 -0.0093
17 2 1 2.4364 -0.0121
17 2 2 1.8961 -0.0140
17 2 3 -2.6644 0.0099
17 2 4 -1.5562 0.0101
17 2 5 1.9305 -0.0046
17 2 6 0.8333 0.0039
17 2 7 -0.6993 -0.0021
17 2 8 -0.4065 -0.0044
17 2 9 -0.2396 0.0043
17 2 10 0.4694 -0.0017
17 2 11 0.6006 -0.0006
17 2 12 -0.5702 0.0059
17 2 13 -0.5018 -0.0019
17 2 14 0.3592 -0.0129
17 2 15 0.0136 0.0003
17 2 16 -0.0852 0.0160
17 2 17 0.6609 0.0014
17 2 18 0.0212 -0.0029
17 2 19 -1.0367 -0.0011
17 2 20 0.1400 -0.0145
17 2 21 0.9126 -0.0003
17 2 22 -0.6343 0.0166
17 2 23 -0.6322 0.0020
17 2 24 0.8619 -0.0053
17 2 25 0.4681 -0.0011
17 2 26 -0.2543 -0.0084
17 2 27 -0.3153 -0.0067
17 2 28 -0.6000 0.0194
17 2 29 0.1474 0.0161
17 2 30 0.7889 -0.0208
17 3 0 1.8508 -0.0029
17 3 1 -1.9686 -0.0084
17 3 2 -1.9195 0.0124
17 3 3 2.1467 0.0079
17 3 4 1.1522 -0.0089
17 3 5 -1.5998 -0.0084
17 3 6 -0.2339 0.0026
17 3 7 0.7039 0.0111
17 3 8 -0.0238 -0.0026
17 3 9 -0.0968 -0.0098
17 3 10 -0.4029 0.0009
17 3 11 -0.1758 0.0025
17 3 12 0.7459 0.0033
17 3 13 0.2917 0.0034
17 3 14 -0.5054 -0.0010
17 3 15 -0.0802 -0.0039
17 3 16 0.0905 -0.0031
17 3 17 -0.4473 0.0030
17 3 18 0.0091 -0.0009
17 3 19 0.7184 -0.0028
17 3 20 -0.0912 0.0060
17 3 21 -0.4441 0.0011
17 3 22 0.4851 -0.0026
17 3 23 0.0764 0.0015
17 3 24 -0.6171 -0.0046
17 3 25 0.0525 -0.0051
17 3 26 -0.0482 0.0105
17 3 27 -0.1606 0.0120
17 3 28 0.8233 -0.0158
17 3 29 0.3225 -0.0190
17 4 0 -1.7726 0.0025
17 4 1 1.5777 0.0106
17 4 2 1.4840 -0.0000
17 4 3 -1.6736 -0.0072
17 4 4 -0.5016 -0.0032
17 4 5 1.2396 0.0057
17 4 6 -0.3411 0.0018
17 4 7 -0.5676 -0.0077
17 4 8 0.2681 0.0023
17 4 9 0.1316 0.0070
17 4 10 0.5160 -0.0006
17 4 11 0.1997 -0.0014
17 4 12 -0.9683 -0.0044
17 4 13 -0.5992 -0.0029
17 4 14 0.5401 0.0039
17 4 15 0.6705 0.0032
17 4 16 0.1213 -0.0011
17 4 17 -0.2639 -0.0031
17 4 18 -0.3095 0.0020
17 4 19 0.0152 0.0025
17 4 20 0.3486 -0.0018
17 4 21 -0.2779 0.0018
17 4 22 -0.6803 -0.0028
17 4 23 0.5320 -0.0081
17 4 24 0.7670 0.0063
17 4 25 -0.4359 0.0129
17 4 26 -0.0996 -0.0078
17 5 0 1.8634 -0.0039
17 5 1 -1.5245 -0.0034
17 5 2 -1.5630 -0.0020
17 5 3 1.5865 -0.0022
17 5 4 0.5666 0.0048
17 5 5 -1.2358 0.0040
17 5 6 0.3400 -0.0016
17 5 7 0.6626 -0.0005
17 5 8 -0.3767 -0.0034
17 5 9 -0.2447 -0.0025
17 5 10 -0.2850 0.0038
17 5 11 -0.1545 0.0027
17 5 12 0.5990 -0.0013
17 5 13 0.6597 -0.0035
17 5 14 -0.0474 0.0005
17 5 15 -0.8098 0.0043
17 5 16 -0.6245 0.0004
17 5 17 0.4245 -0.0017
17 5 18 0.6836 -0.0027
17 5 19 -0.1519 -0.0007
17 5 20 -0.5490 0.0019
17 5 21 0.3449 -0.0027
17 5 22 0.7520 0.0017
17 5 23 -0.4696 0.0099
17 5 24 -0.7921 -0.0028
17 5 25 0.2298 -0.0151
17 6 0 -2.1220 0.0022
17 6 1 1.2276 0.0013
17 6 2 2.1659 -0.0007
17 6 3 -1.2444 0.0038
17 6 4 -1.4166 -0.0012
17 6 5 1.1450 -0.0051
17 6 6 0.4175 0.0013
17 6 7 -0.8599 0.0015
17 6 8 0.0341 0.0007
17 6 9 0.6069 0.0031
17 6 10 0.1895 -0.0029
17 6 11 -0.3224 -0.0074
17 6 12 -0.3167 0.0037
17 6 13 -0.0793 0.0119
17 6 14 -0.1249 -0.0025
17 6 15 0.2328 -0.0128
17 6 16 0.5244 -0.0013
17 6 17 0.0162 0.0071
17 6 18 -0.3162 0.0044
17 6 19 -0.1558 -0.0008
17 6 20 0.0024 -0.0030
17 6 21 -0.0556 0.0015
17 6 22 -0.1323 0.0000
17 7 0 2.0569 0.0044
17 7 1 -0.5644 -0.0009
17 7 2 -2.3776 -0.0008
17 7 3 0.4612 -0.0015
17 7 4 2.0726 0.0025
17 7 5 -0.6366 0.0023
17 7 6 -1.2763 -0.0076
17 7 7 0.6707 -0.0004
17 7 8 0.6174 0.0091
17 7 9 -0.5929 -0.0028
17 7 10 -0.5094 -0.0052
17 7 11 0.4614 0.0074
17 7 12 0.5483 0.0009
17 7 13 -0.2192 -0.0131
17 7 14 -0.2994 -0.0013
17 7 15 0.0434 0.0146
17 7 16 0.1244 0.0052
17 7 17 -0.0519 -0.0092
17 7 18 -0.4089 -0.0069
17 7 19 -0.0128 0.0026
17 7 20 0.7075 0.0040
17 8 0 -1.5779 -0.0073
17 8 1 0.0369 0.0008
17 8 2 1.8366 0.0019
17 8 3 0.1653 0.0009
17 8 4 -1.8930 -0.0042
17 8 5 0.0795 -0.0024
17 8 6 1.4776 0.0120
17 8 7 -0.1367 0.0028
17 8 8 -0.8681 -0.0154
17 8 9 -0.0055 -0.0019
17 8 10 0.5907 0.0110
17 8 11 0.0942 -0.0011
17 8 12 -0.5638 -0.0057
17 8 13 -0.1509 0.0063
17 8 14 0.4072 0.0060
17 8 15 0.2289 -0.0098
17 8 16 -0.2629 -0.0097
17 8 17 -0.3002 0.0084
17 9 0 1.0339 0.0076
17 9 1 0.1447 -0.0056
17 9 2 -1.0339 -0.0020
17 9 3 -0.3005 0.0021
17 9 4 1.1886 0.0030
17 9 5 0.1109 0.0009
17 9 6 -1.0309 -0.0095
17 9 7 -0.2025 -0.0026
17 9 10 -0.1462 -0.0096
17 9 11 -0.5342 -0.0030
18 0 0 -2.5796 0.0949
18 0 2 1.4421 -0.0540
18 0 4 -0.2977 0.0414
18 0 6 -0.2219 -0.0419
18 0 8 0.3422 0.0211
18 0 10 -0.5036 0.0098
18 0 12 0.7371 -0.0257
18 0 14 -0.8369 0.0268
18 0 16 0.7465 -0.0164
18 0 18 -0.4728 -0.0073
18 0 20 -0.1083 0.0265
18 0 22 0.8926 -0.0196
18 0 24 -1.2709 -0.0035
18 0 26 0.8851 0.0186
18 0 28 -0.3283 -0.0195
18 1 0 2.0080 -0.0647
18 1 1 2.4010 -0.0239
18 1 2 -1.1101 0.0286
18 1 3 -1.8478 0.0134
18 1 4 0.3516 -0.0202
18 1 5 0.7112 -0.0028
18 1 6 -0.1241 0.0252
18 1 7 0.4145 -0.0015
18 1 8 0.1007 -0.0111
18 1 9 -0.9143 -0.0028
18 1 10 0.1028 -0.0126
18 1 11 0.7135 0.0089
18 1 12 -0.3938 0.0236
18 1 13 -0.2091 -0.0078
18 1 14 0.4966 -0.0235
18 1 15 -0.2138 0.0017
18 1 16 -0.3961 0.0154
18 1 17 0.3840 0.0014
18 1 18 0.1800 0.0037
18 1 19 -0.2988 -0.0001
18 1 20 0.2634 -0.0196
18 1 21 0.1635 -0.0015
18 1 22 -0.8829 0.0135
18 1 23 -0.2626 0.0022
18 1 24 1.1133 0.0069
18 1 25 0.5762 -0.0007
18 1 26 -0.6158 -0.0223
18 1 27 -0.7723 -0.0064
18 1 28 0.0098 0.0279
18 1 29 0.6870 0.0140
18 2 0 -0.8229 0.0146
18 2 1 -3.3732 0.0102
18 2 2 0.4051 0.0079
18 2 3 2.7640 -0.0030
18 2 4 -0.3593 -0.0075
18 2 5 -1.2755 -0.0041
18 2 6 0.6038 -0.0026
18 2 7 -0.2737 0.0077
18 2 8 -0.6558 -0.0013
18 2 9 0.9540 -0.0049
18 2 10 0.3044 0.0107
18 2 11 -0.6738 -0.0013
18 2 12 0.0785 -0.0121
18 2 13 0.0207 0.0030
18 2 14 -0.1073 0.0109
18 2 15 0.5318 0.0002
18 2 16 -0.0754 -0.0090
18 2 17 -0.7895 -0.0009
18 2 18 0.1839 0.0001
18 2 19 0.6586 -0.0022
18 2 20 -0.3527 0.0081
18 2 21 -0.3564 0.0035
18 2 22 0.7048 -0.0036
18 2 23 0.3558 -0.0005
18 2 24 -0.7652 -0.0076
18 2 25 -0.6939 -0.0063
18 2 26 0.1796 0.0151
18 2 27 0.8621 0.0168
18 2 28 0.4312 -0.0194
18 2 29 -0.6281 -0.0249
18 3 0 -0.0180 0.0046
18 3 1 2.7345 0.0147
18 3 2 0.0899 -0.0132
18 3 3 -2.4004 -0.0158
18 3 4 0.2259 0.0093
18 3 5 1.2103 0.0150
18 3 6 -0.5672 -0.0032
18 3 7 0.1408 -0.0133
18 3 8 0.4612 0.0053
18 3 9 -0.7419 0.0081
18 3 10 0.0563 -0.0057
18 3 11 0.5590 -0.0007
18 3 12 -0.3690 -0.0003
18 3 13 -0.1509 -0.0021
18 3 14 0.1131 0.0024
18 3 15 -0.2381 -0.0007
18 3 16 0.2650 0.0006
18 3 17 0.5617 0.0021
18 3 18 -0.2567 -0.0004
18 3 19 -0.5655 -0.0001
18 3 20 0.1431 -0.0011
18 3 21 0.2746 0.0004
18 3 22 -0.3458 -0.0014
18 3 23 -0.2092 -0.0053
18 3 24 0.4738 0.0033
18 3 25 0.4974 0.0124
18 3 26 -0.0475 -0.0022
18 3 27 -0.5849 -0.0201
18 3 28 -0.4206 0.0042
18 4 0 0.1624 0.0015
18 4 1 -1.4710 -0.0152
18 4 2 -0.0835 -0.0026
18 4 3 1.2952 0.0137
18 4 4 -0.2030 0.0057
18 4 5 -0.4774 -0.0102
18 4 6 0.3648 -0.0035
18 4 7 -0.5009 0.0077
18 4 8 -0.0806 -0.0026
18 4 9 0.9185 -0.0041
18 4 10 -0.4343 0.0017
18 4 11 -0.8453 -0.0007
18 4 12 0.4796 0.0063
18 4 13 0.7424 0.0016
18 4 14 0.1525 -0.0096
18 4 15 -0.5523 0.0016
18 4 16 -0.6778 0.0063
18 4 17 0.1259 -0.0030
18 4 18 0.4384 -0.0033
18 4 19 0.1459 0.0017
18 4 20 0.0399 0.0015
18 4 21 -0.0555 -0.0035
18 4 22 0.0026 -0.0001
18 4 23 0.0806 0.0093
18 4 24 -0.2424 0.0030
18 4 25 -0.4092 -0.0146
18 4 26 0.0339 -0.0072
18 5 0 0.0038 -0.0028
18 5 1 0.6012 -0.0003
18 5 2 -0.1432 0.0078
18 5 3 -0.4123 0.0016
18 5 4 0.3396 -0.0107
18 5 5 -0.0995 -0.0032
18 5 6 -0.4237 0.0064
18 5 7 0.6695 0.0023
18 5 8 0.1826 0.0006
18 5 9 -0.8252 -0.0013
18 5 10 0.1885 -0.0008
18 5 11 0.7221 0.0013
18 5 12 -0.0575 -0.0054
18 5 13 -0.7489 0.0004
18 5 14 -0.6737 0.0094
18 5 15 0.6889 -0.0026
18 5 16 1.0843 -0.0088
18 5 17 -0.2741 0.0014
18 5 18 -0.5155 0.0065
18 5 19 -0.0814 0.0010
18 5 20 -0.3075 -0.0036
18 5 21 0.0664 0.0019
18 5 22 0.4256 0.0022
18 5 23 -0.1026 -0.0093
18 5 24 -0.1330 -0.0056
18 6 0 -0.0333 -0.0028
18 6 1 -0.3352 0.0080
18 6 2 0.1176 0.0000
18 6 3 0.1400 -0.0090
18 6 4 -0.1981 0.0040
18 6 5 0.0013 0.0093
18 6 6 0.2955 -0.0048
18 6 7 -0.1335 -0.0071
18 6 8 -0.2292 0.0022
18 6 9 0.0661 0.0041
18 6 10 -0.0095 -0.0006
18 6 11 0.0583 -0.0014
18 6 12 -0.0381 0.0022
18 6 13 0.0534 -0.0016
18 6 14 0.5132 -0.0048
18 6 15 -0.1755 0.0023
18 6 16 -0.6648 0.0064
18 6 17 0.0088 0.0015
18 6 18 -0.0365 -0.0060
18 6 19 0.1470 -0.0048
18 6 20 0.8559 0.0034
18 6 21 -0.0329 0.0008
18 7 0 -0.1460 0.0051
18 7 1 0.2726 -0.0088
18 7 2 0.1946 -0.0082
18 7 3 -0.0452 0.0099
18 7 4 -0.3308 0.0039
18 7 5 0.2159 -0.0113
18 7 6 0.3019 0.0034
18 7 7 -0.3741 0.0109
18 7 8 -0.2007 -0.0063
18 7 9 0.4636 -0.0087
18 7 10 0.2823 0.0032
18 7 11 -0.4762 0.0050
18 7 12 -0.3440 0.0005
18 7 13 0.2672 -0.0008
18 7 14 0.1478 -0.0002
18 7 15 0.0187 -0.0006
18 7 16 -0.1096 -0.0029
18 7 17 -0.1214 -0.0027
18 7 18 0.6029 0.0045
18 7 19 0.1592 0.0055
18 8 0 0.3731 -0.0079
18 8 1 -0.0945 0.0116
18 8 2 -0.3869 0.0168
18 8 3 -0.2234 -0.0125
18 8 4 0.6460 -0.0138
18 8 5 -0.0546 0.0151
18 8 6 -0.7036 0.0029
18 8 7 0.2766 -0.0164
18 8 8 0.4649 0.0041
18 8 9 -0.2714 0.0149
18 8 10 -0.3307 -0.0018
18 8 11 0.2123 -0.0107
18 8 12 0.3685 -0.0029
18 8 13 -0.0757 0.0049
18 8 14 -0.3042 0.0023
18 9 0 -0.4900 0.0139
18 9 1 -0.1461 -0.0117
18 9 2 0.2444 -0.0252
18 9 3 0.4196 0.0113
18 9 4 -0.4035 0.0241
18 9 5 -0.1151 -0.0138
18 9 6 0.4999 -0.0131
18 9 7 -0.0816 0.0155
19 0 0 2.4688 -0.0942
19 0 2 -1.1974 0.0420
19 0 4 0.1776 -0.0153
19 0 6 0.1575 0.0120
19 0 8 -0.1956 -0.0021
19 0 10 0.4062 -0.0097
19 0 12 -0.7245 0.0070
19 0 14 0.8570 0.0007
19 0 16 -0.7931 -0.0027
19 0 18 0.6840 0.0062
19 0 20 -0.4654 -0.0101
19 0 22 0.0642 0.0038
19 0 24 0.2195 0.0072
19 0 26 -0.1346 -0.0105
19 1 0 -2.3134 0.0687
19 1 1 -0.5308 0.0091
19 1 2 1.2891 -0.0263
19 1 3 -0.0952 0.0009
19 1 4 -0.4997 0.0078
19 1 5 0.6479 -0.0065
19 1 6 0.2692 -0.0097
19 1 7 -0.8688 0.0051
19 1 8 -0.2159 0.0033
19 1 9 0.6488 0.0016
19 1 10 -0.0541 0.0069
19 1 11 -0.2481 -0.0057
19 1 12 0.4055 -0.0052
19 1 13 0.0429 0.0013
19 1 14 -0.5303 0.0001
19 1 15 -0.1047 0.0048
19 1 16 0.4664 -0.0006
19 1 17 0.2392 -0.0026
19 1 18 -0.4154 -0.0006
19 1 19 -0.2943 -0.0048
19 1 20 0.2984 0.0031
19 1 21 0.1954 0.0073
19 1 22 0.0095 0.0032
19 1 23 0.0985 -0.0044
19 1 24 -0.2211 -0.0145
19 1 25 -0.4325 0.0017
19 1 26 0.0646 0.0206
19 1 27 0.5127 0.0013
19 1 28 0.1105 -0.0225
19 2 0 1.8542 -0.0210
19 2 1 0.8146 -0.0061
19 2 2 -1.2494 -0.0016
19 2 3 -0.0848 -0.0013
19 2 4 0.8561 0.0045
19 2 5 -0.6472 0.0047
19 2 6 -0.7982 0.0046
19 2 7 0.9826 -0.0038
19 2 8 0.7070 -0.0037
19 2 9 -0.6731 -0.0001
19 2 10 -0.3254 -0.0013
19 2 11 0.0917 0.0030
19 2 12 -0.0826 -0.0014
19 2 13 0.1824 -0.0004
19 2 14 0.1854 0.0029
19 2 15 -0.0969 -0.0041
19 2 16 -0.1222 0.0020
19 2 17 -0.0254 0.0020
19 2 18 0.1756 -0.0041
19 2 19 0.0643 0.0044
19 2 20 -0.1881 0.0020
19 2 21 -0.0206 -0.0052
19 2 22 -0.0878 -0.0041
19 2 23 -0.2168 -0.0012
19 2 24 0.3329 0.0090
19 2 25 0.5308 0.0082
19 2 26 -0.1452 -0.0119
19 2 27 -0.5175 -0.0131
19 2 28 -0.1461 0.0154
19 3 0 -1.3038 -0.0039
19 3 1 -0.4659 -0.0074
19 3 2 0.8177 0.0114
19 3 3 0.0322 0.0071
19 3 4 -0.5582 -0.0062
19 3 5 0.5619 -0.0025
19 3 6 0.5874 -0.0017
19 3 7 -0.9292 -0.0022
19 3 8 -0.5484 0.0009
19 3 9 0.7064 0.0054
19 3 10 0.2080 -0.0003
19 3 11 -0.2344 -0.0062
19 3 12 0.1527 0.0059
19 3 13 0.0762 0.0024
19 3 14 -0.2292 -0.0069
19 3 15 -0.1288 0.0030
19 3 16 0.2483 0.0001
19 3 17 -0.0183 -0.0027
19 3 18 -0.4848 0.0039
19 3 19 0.2687 -0.0023
19 3 20 0.5743 -0.0016
19 3 21 -0.3586 0.0026
19 3 22 -0.0997 -0.0014
19 3 23 0.4309 0.0036
19 3 24 -0.4860 0.0043
19 3 25 -0.5487 -0.0100
19 3 26 0.4914 -0.0060
19 3 27 0.3674 0.0128
19 4 0 1.1926 0.0049
19 4 1 -0.4619 0.0080
19 4 2 -0.5427 -0.0048
19 4 3 0.6283 -0.0055
19 4 4 0.1232 -0.0001
19 4 5 -0.9677 -0.0021
19 4 6 -0.1629 0.0008
19 4 7 1.2268 0.0080
19 4 8 0.3378 0.0041
19 4 9 -1.0663 -0.0099
19 4 10 -0.2767 -0.0032
19 4 11 0.7848 0.0086
19 4 12 0.1039 -0.0049
19 4 13 -0.8280 -0.0039
19 4 14 -0.0220 0.0081
19 4 15 0.8781 -0.0015
19 4 16 -0.2510 -0.0032
19 4 17 -0.4256 0.0016
19 4 18 0.8852 -0.0004
19 4 19 -0.2238 0.0023
19 4 20 -1.2147 -0.0016
19 4 21 0.5186 -0.0025
19 4 22 0.6132 0.0067
19 4 23 -0.5709 -0.0024
19 4 24 0.3271 -0.0133
19 4 25 0.6012 0.0062
19 4 26 -0.6024 0.0163
19 5 0 -1.7363 -0.0062
19 5 1 1.0878 -0.0001
19 5 2 0.9555 0.0023
19 5 3 -1.1755 0.0004
19 5 4 -0.2596 0.0020
19 5 5 1.2321 0.0045
19 5 6 0.1768 0.0004
19 5 7 -1.2142 -0.0083
19 5 8 -0.4976 -0.0065
19 5 9 0.9632 0.0088
19 5 10 0.6902 0.0062
19 5 11 -0.7796 -0.0070
19 5 12 -0.6750 0.0011
19 5 13 1.0077 0.0036
19 5 14 0.5598 -0.0054
19 5 15 -1.2049 -0.0006
19 5 16 -0.0460 0.0036
19 5 17 0.7824 0.0020
19 5 18 -0.9539 -0.0013
19 5 19 -0.0791 -0.0052
19 5 20 1.5815 0.0023
19 5 21 -0.2610 0.0041
19 5 22 -1.0687 -0.0069
19 6 0 2.2497 0.0120
19 6 1 -0.7418 -0.0014
19 6 2 -1.5120 -0.0075
19 6 3 0.8884 -0.0000
19 6 4 0.5622 0.0018
19 6 5 -0.7570 -0.0030
19 6 6 -0.2025 -0.0004
19 6 7 0.5369 0.0058
19 6 8 0.4348 0.0032
19 6 9 -0.2719 -0.0064
19 6 10 -0.6685 -0.0047
19 6 11 0.1934 0.0056
19 6 12 0.6931 0.0026
19 6 13 -0.5424 -0.0040
19 6 14 -0.6114 -0.0002
19 6 15 0.9237 0.0035
19 6 16 0.1747 -0.0001
19 6 17 -0.7868 -0.0059
19 6 18 0.7309 -0.0004
19 6 19 0.3602 0.0080
19 6 20 -1.3436 -0.0002
19 7 0 -1.9847 -0.0164
19 7 1 0.0050 -0.0001
19 7 2 1.4723 0.0157
19 7 3 -0.2792 -0.0006
19 7 4 -0.4729 -0.0093
19 7 5 0.1182 0.0044
19 7 6 -0.0858 0.0019
19 7 7 0.0807 -0.0076
19 7 8 -0.0305 0.0003
19 7 9 -0.1641 0.0083
19 7 10 0.2562 0.0028
19 7 11 0.1056 -0.0074
19 7 12 -0.2962 -0.0062
19 7 13 0.1963 0.0062
19 7 14 0.3094 0.0064
19 7 15 -0.5356 -0.0061
19 7 16 -0.1784 -0.0043
19 7 17 0.5527 0.0081
19 8 0 1.1909 0.0239
19 8 1 0.2583 -0.0012
19 8 2 -1.0815 -0.0284
19 8 3 0.0541 0.0040
19 8 4 0.3277 0.0224
19 8 5 0.1437 -0.0089
19 8 6 0.2136 -0.0101
19 8 7 -0.2995 0.0120
19 8 8 -0.1227 0.0024
19 8 9 0.2306 -0.0115
19 8 10 -0.1170 -0.0040
19 8 11 -0.1402 0.0095
19 8 12 0.1416 0.0090
20 0 0 -1.3419 0.0528
20 0 2 0.4380 -0.0054
20 0 4 0.2576 -0.0161
20 0 6 -0.5036 0.0068
20 0 8 0.5290 0.0023
20 0 10 -0.5790 -0.0046
20 0 12 0.6259 0.0090
20 0 14 -0.6427 -0.0080
20 0 16 0.7954 -0.0025
20 0 18 -1.1181 0.0068
20 0 20 1.2556 -0.0000
20 0 22 -0.9196 -0.0038
20 0 24 0.4192 -0.0002
20 0 26 -0.2218 0.0044
20 1 0 1.5647 -0.0422
20 1 1 -0.8495 0.0021
20 1 2 -0.7414 0.0047
20 1 3 0.7478 -0.0060
20 1 4 0.1097 0.0100
20 1 5 -0.4241 0.0066
20 1 6 0.1052 0.0006
20 1 7 0.1318 -0.0049
20 1 8 -0.1376 -0.0075
20 1 9 -0.0269 0.0016
20 1 10 0.2311 0.0067
20 1 11 0.1798 -0.0008
20 1 12 -0.3377 -0.0093
20 1 13 -0.5060 0.0060
20 1 14 0.3962 0.0088
20 1 15 0.7262 -0.0110
20 1 16 -0.5638 -0.0003
20 1 17 -0.6425 0.0071
20 1 18 0.8976 -0.0038
20 1 19 0.3894 0.0012
20 1 20 -1.0565 0.0002
20 1 21 -0.1968 -0.0028
20 1 22 0.7516 -0.0013
20 1 23 0.0783 -0.0007
20 1 24 -0.3048 0.0097
20 1 25 0.0203 -0.0001
20 1 26 0.1952 -0.0171
20 1 27 -0.0300 0.0041
20 2 0 -1.7859 0.0150
20 2 1 0.9028 0.0047
20 2 2 1.0798 0.0026
20 2 3 -0.7104 -0.0012
20 2 4 -0.5922 -0.0034
20 2 5 0.2715 0.0003
20 2 6 0.4933 -0.0082
20 2 7 0.0887 -0.0002
20 2 8 -0.4812 0.0106
20 2 9 -0.2139 0.0006
20 2 10 0.2712 -0.0062
20 2 11 -0.0077 -0.0008
20 2 12 0.0282 0.0070
20 2 13 0.4994 -0.0018
20 2 14 -0.2169 -0.0069
20 2 15 -0.8214 0.0047
20 2 16 0.3848 0.0008
20 2 17 0.6493 -0.0020
20 2 18 -0.6367 0.0016
20 2 19 -0.2729 -0.0033
20 2 20 0.6882 0.0015
20 2 21 0.1309 0.0020
20 2 22 -0.2904 -0.0002
20 2 23 -0.1713 0.0051
20 2 24 -0.1509 -0.0069
20 2 25 0.1687 -0.0081
20 2 26 0.0928 0.0131
20 2 27 -0.1923 0.0061
20 3 0 1.4592 0.0053
20 3 1 -0.5003 -0.0036
20 3 2 -0.7707 -0.0082
20 3 3 0.3045 0.0054
20 3 4 0.4758 0.0004
20 3 5 -0.0076 -0.0092
20 3 6 -0.6677 0.0078
20 3 7 -0.1572 0.0102
20 3 8 0.8457 -0.0045
20 3 9 0.1723 -0.0080
20 3 10 -0.5457 -0.0012
20 3 11 0.0689 0.0056
20 3 12 -0.0683 -0.0008
20 3 13 -0.5565 -0.0027
20 3 14 0.5371 0.0028
20 3 15 0.7916 0.0002
20 3 16 -0.7682 0.0005
20 3 17 -0.3911 -0.0017
20 3 18 0.8727 -0.0011
20 3 19 -0.1741 0.0051
20 3 20 -0.6318 -0.0030
20 3 21 0.2428 -0.0029
20 3 22 -0.1098 0.0047
20 4 0 -1.0095 -0.0119
20 4 1 0.3690 -0.0003
20 4 2 0.2470 0.0092
20 4 3 -0.2018 -0.0027
20 4 4 -0.0955 -0.0012
20 4 5 0.0333 0.0092
20 4 6 0.6659 -0.0006
20 4 7 -0.0343 -0.0121
20 4 8 -1.2254 -0.0072
20 4 9 0.1345 0.0097
20 4 10 0.9954 0.0122
20 4 11 -0.4265 -0.0062
20 4 12 -0.0947 -0.0075
20 4 13 0.9411 0.0032
20 4 14 -0.7604 0.0026
20 4 15 -1.1266 -0.0010
20 4 16 1.2405 -0.0031
20 4 17 0.5236 0.0021
20 4 18 -1.3929 0.0027
20 4 19 0.2900 -0.0048
20 4 20 0.9995 0.0016
20 4 21 -0.4600 0.0035
20 4 22 0.0444 -0.0059
20 4 23 0.1091 0.0012
20 4 24 -0.9755 0.0090
20 5 0 1.1846 0.0118
20 5 1 -0.3505 0.0058
20 5 2 -0.2515 -0.0075
20 5 3 0.2148 -0.0066
20 5 4 -0.0891 0.0014
20 5 5 0.0006 0.0015
20 5 6 -0.5274 -0.0027
20 5 7 -0.0598 0.0024
20 5 8 1.3617 0.0110
20 5 9 -0.0435 -0.0020
20 5 10 -1.3634 -0.0153
20 5 11 0.4128 0.0002
20 5 12 0.4747 0.0112
20 5 13 -1.0818 0.0013
20 5 14 0.5133 -0.0065
20 5 15 1.4644 -0.0020
20 5 16 -1.1525 0.0060
20 5 17 -0.9954 0.0004
20 5 18 1.4599 -0.0056
20 5 19 0.1722 0.0023
20 5 20 -1.1892 0.0021
20 6 0 -1.6910 -0.0084
20 6 1 -0.0429 -0.0112
20 6 2 0.6095 0.0042
20 6 3 -0.0421 0.0143
20 6 4 0.2261 0.0014
20 6 5 -0.1321 -0.0112
20 6 6 -0.0399 -0.0027
20 6 7 0.2508 0.0070
20 6 8 -0.7525 -0.0017
20 6 9 -0.1811 -0.0055
20 6 10 1.0456 0.0062
20 6 11 -0.1674 0.0056
20 6 12 -0.5476 -0.0069
20 6 13 0.8389 -0.0057
20 6 14 -0.0919 0.0065
20 6 16 0.4908 -0.0073
20 6 17 1.1936 -0.0030
20 6 18 -0.7544 0.0078
20 6 19 -0.6087 0.0000
20 7 0 1.7278 0.0062
20 7 1 0.5001 0.0111
20 7 2 -0.8320 -0.0048
20 7 3 -0.0462 -0.0130
20 7 4 -0.2763 -0.0010
20 7 5 -0.0006 0.0105
20 7 6 0.5585 0.0079
20 7 7 -0.0363 -0.0072
20 7 8 0.0219 -0.0101
20 7 9 -0.0194 0.0059
20 7 10 -0.5160 0.0061
20 7 11 0.1625 -0.0057
20 7 12 0.4507 -0.0001
20 7 13 -0.4637 0.0054
20 7 14 -0.2640 -0.0043
20 7 15 0.7585 -0.0045
20 7 16 0.2324 0.0069
20 8 0 -1.3063 -0.0120
20 8 1 -0.5488 -0.0092
20 8 2 0.9423 0.0130
20 8 3 -0.0163 0.0083
20 8 4 -0.0376 -0.0063
20 8 5 0.1315 -0.0054
20 8 6 -0.4430 -0.0061
20 8 7 -0.1339 0.0032
20 8 10 0.3366 -0.0123
21 0 0 0.8708 -0.0125
21 0 2 -0.6020 -0.0167
21 0 4 0.3080 0.0267
21 0 6 -0.1923 -0.0087
21 0 8 0.2195 -0.0069
21 0 10 -0.2394 0.0090
21 0 12 0.1323 -0.0079
21 0 14 0.2091 0.0037
21 0 16 -0.7922 0.0047
21 0 18 1.3292 -0.0048
21 0 20 -1.3569 -0.0050
21 0 22 0.7930 0.0084
21 0 24 -0.1882 -0.0009
21 1 0 -0.9968 0.0096
21 1 1 0.1495 -0.0018
21 1 2 0.6719 0.0147
21 1 3 0.3836 0.0004
21 1 4 -0.3946 -0.0223
21 1 5 -0.7550 -0.0001
21 1 6 0.3399 0.0074
21 1 7 0.6741 0.0009
21 1 8 -0.4104 0.0032
21 1 9 -0.2087 0.0006
21 1 10 0.4152 -0.0031
21 1 11 -0.3479 -0.0029
21 1 12 -0.2581 0.0049
21 1 13 0.7002 -0.0005
21 1 14 -0.1037 -0.0071
21 1 15 -0.6807 0.0072
21 1 16 0.6547 0.0039
21 1 17 0.3877 -0.0076
21 1 18 -1.1525 -0.0028
21 1 19 -0.1617 0.0018
21 1 20 1.1843 0.0055
21 1 21 0.1987 0.0000
21 1 22 -0.6723 -0.0011
21 1 23 -0.2966 0.0026
21 1 24 0.1491 -0.0103
21 1 25 0.2066 -0.0007
21 1 26 -0.1057 0.0169
21 2 0 1.0396 -0.0032
21 2 1 0.1794 -0.0004
21 2 2 -0.6374 -0.0085
21 2 3 -0.8517 -0.0007
21 2 4 0.4686 0.0095
21 2 5 1.3068 0.0023
21 2 6 -0.6013 -0.0007
21 2 7 -1.1317 -0.0040
21 2 8 0.7645 0.0003
21 2 9 0.4416 0.0027
21 2 10 -0.6786 -0.0055
21 2 11 0.3708 0.0021
21 2 12 0.3572 0.0020
21 2 13 -0.9322 -0.0037
21 2 14 0.0292 0.0054
21 2 15 0.9726 0.0000
21 2 16 -0.4050 -0.0070
21 2 17 -0.5742 0.0023
21 2 18 0.6892 0.0058
21 2 19 0.2720 -0.0010
21 2 20 -0.6392 -0.0038
21 2 21 -0.4212 0.0025
21 2 22 0.2036 -0.0043
21 2 23 0.6692 -0.0070
21 2 24 0.1349 0.0145
21 2 25 -0.5473 0.0070
21 3 0 -0.6291 -0.0024
21 3 1 -0.7466 0.0005
21 3 2 0.3438 0.0032
21 3 3 1.1325 0.0002
21 3 4 -0.4890 0.0018
21 3 5 -1.3676 -0.0011
21 3 6 0.9461 -0.0046
21 3 7 1.0928 0.0028
21 3 8 -1.1995 -0.0043
21 3 9 -0.4471 -0.0027
21 3 10 0.8723 0.0134
21 3 11 -0.2716 -0.0014
21 3 12 -0.2015 -0.0089
21 3 13 0.8312 0.0045
21 3 14 -0.2708 -0.0013
21 3 15 -0.9306 -0.0022
21 3 16 0.3679 0.0050
21 3 17 0.5190 -0.0015
21 3 18 -0.2666 -0.0034
21 3 19 -0.1728 0.0033
21 3 20 -0.0054 -0.0004
21 3 21 0.3925 -0.0061
21 3 22 0.4501 0.0071
21 4 0 0.0767 0.0045
21 4 1 1.1540 0.0027
21 4 2 -0.0649 -0.0006
21 4 3 -1.2456 -0.0042
21 4 4 0.5750 -0.0067
21 4 5 1.2840 0.0033
21 4 6 -1.3636 0.0057
21 4 7 -0.9843 -0.0027
21 4 8 1.7082 0.0071
21 4 9 0.4655 0.0022
21 4 10 -1.1057 -0.0168
21 4 11 0.1107 0.0002
21 4 12 -0.0028 0.0120
21 4 13 -0.6757 -0.0018
21 4 14 0.6759 -0.0018
21 4 15 0.8946 -0.0011
21 4 16 -0.6028 -0.0017
21 4 17 -0.5169 0.0060
21 4 18 0.2014 -0.0007
21 4 19 0.0582 -0.0089
21 4 20 0.2535 0.0045
21 4 21 -0.1648 0.0105
21 4 22 -0.7454 -0.0078
21 5 0 0.1310 -0.0014
21 5 1 -1.3543 -0.0070
21 5 2 -0.1487 -0.0032
21 5 3 1.3640 0.0115
21 5 4 -0.2961 0.0106
21 5 5 -1.4116 -0.0101
21 5 6 1.1159 -0.0096
21 5 7 1.2021 0.0066
21 5 8 -1.5852 -0.0018
21 5 9 -0.7659 -0.0043
21 5 10 1.0252 0.0111
21 5 11 0.1861 0.0028
21 5 12 0.1649 -0.0093
21 5 13 0.5274 -0.0031
21 5 14 -0.8761 0.0029
21 5 15 -0.9914 0.0068
21 5 16 0.7196 -0.0012
21 5 17 0.7684 -0.0113
21 5 18 -0.2468 0.0038
21 6 0 -0.0151 -0.0054
21 6 1 1.2653 0.0057
21 6 2 0.4013 0.0089
21 6 3 -1.0836 -0.0125
21 6 4 -0.5241 -0.0162
21 6 5 1.1088 0.0123
21 6 6 0.0554 0.0192
21 6 7 -1.0245 -0.0083
21 6 8 0.5456 -0.0134
21 6 9 0.7303 0.0057
21 6 10 -0.4492 0.0044
21 6 11 -0.2622 -0.0056
21 6 12 -0.2715 0.0001
21 6 13 -0.4040 0.0076
21 6 15 0.9552 -0.0112
21 6 16 -0.4138 0.0029
21 7 0 -0.2009 0.0084
21 7 1 -0.7950 0.0019
21 7 2 -0.3537 -0.0093
21 7 3 0.2145 0.0049
21 7 4 0.9466 0.0168
21 7 5 -0.0723 -0.0063
21 7 6 -0.9096 -0.0261
21 7 7 0.0875 0.0042
21 7 8 0.3017 0.0283
21 7 9 -0.0576 -0.0033
21 7 10 0.0534 -0.0213
21 7 11 -0.0160 0.0050
21 7 12 0.1382 0.0108
21 7 13 0.2378 -0.0079
21 8 0 0.4057 -0.0040
21 8 1 0.3056 -0.0056
21 8 2 -0.1540 0.0035
21 8 3 0.4348 0.0009
22 0 0 -0.9929 0.0037
22 0 2 1.3319 0.0144
22 0 4 -1.4629 -0.0223
22 0 6 1.4787 0.0076
22 0 8 -1.3609 0.0049
22 0 10 1.0563 -0.0048
22 0 12 -0.5651 0.0041
22 0 14 -0.0620 -0.0050
22 0 16 0.6724 0.0020
22 0 18 -0.9841 -0.0017
22 0 20 0.7857 0.0062
22 0 22 -0.2468 -0.0055
22 0 24 -0.1344 -0.0014
22 1 0 0.8317 -0.0006
22 1 1 0.6162 -0.0014
22 1 2 -1.0860 -0.0159
22 1 3 -0.8838 0.0041
22 1 4 1.2465 0.0236
22 1 5 0.8832 -0.0031
22 1 6 -1.3469 -0.0125
22 1 7 -0.5835 0.0013
22 1 8 1.2979 0.0041
22 1 9 0.1782 -0.0044
22 1 10 -1.0115 -0.0040
22 1 11 0.1037 0.0104
22 1 12 0.5124 -0.0007
22 1 13 -0.1858 -0.0092
22 1 14 0.0956 0.0081
22 1 15 0.1241 0.0005
22 1 16 -0.6497 -0.0079
22 1 17 -0.0527 0.0030
22 1 18 0.9175 0.0034
22 1 19 0.1290 0.0030
22 1 20 -0.7273 -0.0000
22 1 21 -0.3282 -0.0068
22 1 22 0.2347 -0.0058
22 1 23 0.3735 0.0028
22 1 24 0.0912 0.0117
22 2 0 -0.4155 0.0012
22 2 1 -0.8930 -0.0043
22 2 2 0.5613 0.0099
22 2 3 1.1609 0.0042
22 2 4 -0.8319 -0.0150
22 2 5 -1.1423 -0.0059
22 2 6 1.1270 0.0104
22 2 7 0.7364 0.0064
22 2 8 -1.2180 -0.0105
22 2 9 -0.1808 -0.0014
22 2 10 0.9613 0.0128
22 2 11 -0.2394 -0.0074
22 2 12 -0.4634 -0.0045
22 2 13 0.4523 0.0097
22 2 14 -0.0373 -0.0077
22 2 15 -0.4857 -0.0021
22 2 16 0.3872 0.0090
22 2 17 0.4251 -0.0047
22 2 18 -0.5237 -0.0010
22 2 19 -0.4916 0.0033
22 2 20 0.3828 -0.0083
22 2 21 0.7327 -0.0008
22 2 22 -0.0493 0.0164
22 2 23 -0.7656 0.0028
22 2 24 -0.1168 -0.0182
22 3 0 0.0948 -0.0034
22 3 1 0.7590 0.0064
22 3 2 -0.3660 -0.0005
22 3 3 -0.8003 -0.0092
22 3 4 0.8154 0.0004
22 3 5 0.7884 0.0112
22 3 6 -1.2402 -0.0004
22 3 7 -0.5255 -0.0104
22 3 8 1.3496 0.0085
22 3 9 0.1413 0.0050
22 3 10 -1.0086 -0.0143
22 3 11 0.2023 0.0031
22 3 12 0.4717 0.0054
22 3 13 -0.5321 -0.0053
22 3 14 -0.1535 0.0080
22 3 15 0.7753 -0.0027
22 3 16 0.1393 -0.0089
22 3 17 -0.7853 0.0124
22 3 18 -0.1963 -0.0019
22 3 19 0.7385 -0.0145
22 3 20 0.2360 0.0142
22 3 21 -0.8574 0.0120
22 3 22 -0.3247 -0.0216
22 4 0 -0.1518 0.0035
22 4 1 -0.7581 -0.0038
22 4 2 0.7116 -0.0056
22 4 3 0.6447 0.0090
22 4 4 -1.2416 0.0118
22 4 5 -0.6870 -0.0097
22 4 6 1.5784 -0.0115
22 4 7 0.6141 0.0059
22 4 8 -1.5146 0.0002
22 4 9 -0.4343 -0.0000
22 4 10 0.9636 0.0076
22 4 11 0.1783 -0.0049
22 4 12 -0.3134 -0.0002
22 4 13 0.2739 0.0032
22 4 14 0.1464 -0.0117
22 4 15 -0.7428 0.0073
22 4 16 -0.4613 0.0118
22 4 17 0.8200 -0.0191
22 4 18 0.7002 -0.0002
22 5 0 0.2119 -0.0027
22 5 1 1.1709 -0.0028
22 5 2 -0.7866 0.0079
22 5 3 -1.0645 -0.0046
22 5 4 1.0978 -0.0177
22 5 5 1.1395 0.0037
22 5 6 -1.1987 0.0195
22 5 7 -1.1079 0.0037
22 5 8 1.0448 -0.0093
22 5 9 0.9272 -0.0106
22 5 10 -0.4947 0.0003
22 5 11 -0.6135 0.0123
22 5 12 -0.1219 -0.0038
22 5 13 0.0384 -0.0066
22 5 14 0.1597 0.0125
22 5 15 0.5732 -0.0056
22 6 0 0.0475 0.0019
22 6 1 -1.2610 0.0135
22 6 2 0.1681 -0.0071
22 6 3 1.0707 -0.0041
22 6 4 -0.0566 0.0176
22 6 5 -1.0954 0.0040
22 6 6 -0.0426 -0.0226
22 6 7 1.0646 -0.0114
22 6 8 0.0121 0.0164
22 6 9 -0.8895 0.0174
22 6 10 -0.1787 -0.0067
22 6 13 -0.1325 0.0089
22 6 14 -0.4384 -0.0074
22 6 15 -0.4063 0.0019
22 7 0 -0.1863 0.0013
22 7 1 0.6116 -0.0231
22 7 2 0.2214 0.0021
22 7 3 -0.1781 0.0130
22 7 4 -0.5946 -0.0122
22 7 5 0.1252 -0.0106
22 7 6 0.8074 0.0216
22 7 7 -0.1965 0.0150
22 7 8 -0.5877 -0.0217
23 0 0 0.8548 -0.0158
23 0 2 -1.3823 -0.0000
23 0 4 1.7042 0.0117
23 0 6 -1.6959 -0.0047
23 0 8 1.3406 -0.0021
23 0 10 -0.8323 -0.0003
23 0 12 0.4010 0.0004
23 0 14 -0.0851 0.0028
23 0 16 -0.1797 -0.0008
23 0 18 0.3499 -0.0022
23 0 20 -0.3160 0.0000
23 0 22 0.1240 0.0014
23 1 0 -0.7230 0.0161
23 1 1 0.0512 -0.0004
23 1 2 1.2032 -0.0018
23 1 3 -0.0980 -0.0003
23 1 4 -1.5356 -0.0088
23 1 5 0.0485 -0.0024
23 1 6 1.5510 0.0033
23 1 7 0.1058 0.0051
23 1 8 -1.2010 0.0011
23 1 9 -0.2978 -0.0017
23 1 10 0.6688 0.0015
23 1 11 0.4221 -0.0064
23 1 12 -0.2057 0.0004
23 1 13 -0.3855 0.0081
23 1 14 -0.1039 -0.0054
23 1 15 0.2043 -0.0008
23 1 16 0.3064 0.0025
23 1 17 0.0195 -0.0023
23 1 18 -0.3947 0.0046
23 1 19 -0.2276 -0.0046
23 1 20 0.3041 -0.0070
23 1 22 -0.0927 0.0065
23 2 0 0.4539 -0.0114
23 2 1 -0.3941 -0.0006
23 2 2 -0.8761 0.0001
23 2 3 0.5023 0.0008
23 2 4 1.2404 0.0061
23 2 5 -0.3710 0.0019
23 2 6 -1.3178 -0.0020
23 2 7 0.0747 -0.0041
23 2 8 1.0169 0.0013
23 2 9 0.2316 0.0010
23 2 10 -0.4816 -0.0044
23 2 11 -0.3762 0.0062
23 2 12 -0.0168 0.0003
23 2 13 0.2269 -0.0077
23 2 14 0.3004 0.0062
23 2 15 0.1214 0.0000
23 2 16 -0.3792 -0.0025
23 2 17 -0.4166 0.0060
23 2 18 0.3342 -0.0077
23 2 19 0.5833 -0.0022
23 2 20 -0.1834 0.0136
23 2 22 -0.0296 -0.0131
23 3 0 -0.5074 0.0043
23 3 1 0.9281 0.0018
23 3 2 0.9329 0.0018
23 3 3 -1.0226 0.0005
23 3 4 -1.2377 -0.0011
23 3 5 0.7214 -0.0025
23 3 6 1.2755 -0.0030
23 3 7 -0.2606 0.0023
23 3 8 -1.0187 -0.0001
23 3 9 -0.1118 0.0011
23 3 10 0.5497 0.0043
23 3 11 0.2022 -0.0059
23 3 12 -0.0883 0.0013
23 3 13 0.1177 0.0051
23 3 14 -0.1280 -0.0091
23 3 15 -0.6313 0.0040
23 3 16 0.0964 0.0051
23 3 17 0.8874 -0.0123
23 3 18 -0.0132 0.0074
23 3 19 -0.8077 0.0112
23 3 20 -0.0557 -0.0161
23 3 21 0.6775 -0.0057
23 4 0 1.0773 0.0039
23 4 1 -0.8986 -0.0054
23 4 2 -1.4646 -0.0037
23 4 3 0.9221 0.0002
23 4 4 1.4665 -0.0040
23 4 5 -0.5127 -0.0003
23 4 6 -1.2211 0.0091
23 4 7 0.0072 0.0054
23 4 8 0.9141 -0.0040
23 4 9 0.3266 -0.0107
23 4 10 -0.5517 -0.0009
23 4 11 -0.3292 0.0127
23 4 12 0.2074 -0.0055
23 4 13 -0.1267 -0.0079
23 4 14 -0.1106 0.0147
23 4 15 0.7620 -0.0034
23 4 16 0.2459 -0.0121
23 5 0 -1.4120 -0.0120
23 5 1 0.0130 0.0106
23 5 2 1.6412 0.0082
23 5 3 -0.0698 -0.0030
23 5 4 -1.2374 0.0019
23 5 5 -0.1899 0.0054
23 5 6 0.6715 -0.0071
23 5 7 0.4814 -0.0155
23 5 8 -0.3640 0.0017
23 5 9 -0.6233 0.0239
23 5 10 0.2011 0.0031
23 5 11 0.5454 -0.0245
23 5 12 -0.0360 0.0036
23 5 13 -0.0995 0.0170
23 6 0 0.9618 0.0180
23 6 1 0.7273 -0.0145
23 6 2 -1.0444 -0.0142
23 6 3 -0.5090 0.0040
23 6 4 0.4501 0.0061
23 6 5 0.5065 -0.0055
23 6 6 0.1825 -0.0019
23 6 7 -0.5443 0.0171
23 6 8 -0.3107 0.0059
23 6 11 -0.4890 0.0282
23 6 12 -0.1985 0.0054
23 7 0 -0.4020 -0.0201
23 7 1 -0.5857 0.0148
23 7 2 0.5174 0.0176
23 7 3 0.2459 -0.0029
24 0 0 -0.0350 0.0264
24 0 2 0.4563 -0.0122
24 0 4 -0.8127 -0.0026
24 0 6 0.8228 0.0024
24 0 8 -0.5321 -0.0006
24 0 10 0.3102 0.0050
24 0 12 -0.3767 -0.0053
24 0 14 0.5000 0.0009
24 0 16 -0.3583 -0.0014
24 0 18 0.0045 0.0039
24 1 0 0.2574 -0.0296
24 1 1 -0.9721 0.0024
24 1 2 -0.6315 0.0163
24 1 3 1.0713 -0.0032
24 1 4 0.9025 -0.0042
24 1 5 -0.7325 0.0063
24 1 6 -0.7977 0.0053
24 1 7 0.1171 -0.0102
24 1 8 0.3885 -0.0056
24 1 9 0.4181 0.0087
24 1 10 -0.0664 -0.0012
24 1 11 -0.6160 -0.0010
24 1 12 0.0772 0.0032
24 1 13 0.4670 -0.0020
24 1 14 -0.2270 0.0008
24 1 15 -0.1710 -0.0051
24 1 16 0.2001 -0.0010
24 1 17 -0.0564 0.0111
24 1 18 0.0083 -0.0012
24 1 21 -0.2428 0.0003
24 2 0 -0.6681 0.0167
24 2 1 1.4846 0.0078
24 2 2 0.9724 -0.0068
24 2 3 -1.6914 -0.0059
24 2 4 -1.0843 0.0026
24 2 5 1.2101 0.0006
24 2 6 0.7791 -0.0077
24 2 7 -0.3169 0.0052
24 2 8 -0.1797 0.0072
24 2 9 -0.4455 -0.0056
24 2 10 -0.3221 0.0010
24 2 11 0.7128 -0.0011
24 2 12 0.4555 -0.0036
24 2 13 -0.4759 0.0058
24 2 14 -0.3070 -0.0004
24 2 15 0.0474 -0.0012
24 2 16 0.1344 0.0011
24 2 17 0.2171 -0.0051
24 3 0 0.9825 0.0019
24 3 1 -1.4608 -0.0098
24 3 2 -1.2005 -0.0072
24 3 3 1.6665 0.0061
24 3 4 1.1322 0.0027
24 3 5 -1.1830 -0.0017
24 3 6 -0.7032 0.0062
24 3 7 0.3452 -0.0015
24 3 8 0.0910 -0.0050
24 3 9 0.3167 0.0007
24 3 10 0.4389 -0.0035
24 3 11 -0.4999 0.0051
24 3 12 -0.7003 0.0051
24 3 13 0.2003 -0.0099
24 3 14 0.6473 -0.0002
24 3 15 0.2553 0.0070
24 3 16 -0.3920 -0.0008
24 3 17 -0.4326 -0.0011
24 3 18 0.1186 -0.0018
24 4 0 -1.2128 -0.0152
24 4 1 0.9593 0.0057
24 4 2 1.2231 0.0170
24 4 3 -1.1145 0.0004
24 4 4 -0.8686 -0.0080
24 4 5 0.7259 -0.0022
24 4 6 0.3504 -0.0015
24 4 7 -0.1140 -0.0006
24 4 8 0.0724 -0.0006
24 4 9 -0.3150 0.0055
24 4 10 -0.3847 0.0081
24 4 11 0.3831 -0.0110
24 4 12 0.6337 -0.0073
24 4 13 -0.0550 0.0142
24 5 0 1.2252 0.0225
24 5 1 -0.1499 0.0009
24 5 2 -1.0334 -0.0241
24 5 3 0.4068 -0.0103
24 5 4 0.4048 0.0167
24 5 5 -0.2630 0.0105
24 5 6 0.1799 -0.0094
24 5 7 -0.0579 -0.0018
24 5 8 -0.3454 0.0112
24 5 9 0.2923 -0.0083
24 6 0 -0.8771 -0.0231
24 6 1 -0.4574 -0.0102
24 6 2 0.7438 0.0267
24 6 3 0.0279 0.0233
24 6 4 -0.1034 -0.0242
24 6 5 0.0903 -0.0240
24 6 6 -0.4486 0.0198
24 6 7 -0.0069 0.0118
24 6 8 0.4233 -0.0197
25 0 0 -0.8822 -0.0221
25 0 2 0.5016 0.0099
25 0 4 -0.0650 0.0032
25 0 6 -0.1225 -0.0021
25 0 8 0.1002 -0.0023
25 0 10 -0.1925 0.0012
25 0 12 0.4939 -0.0029
25 0 14 -0.6613 0.0087
25 0 16 0.4256 -0.0090
25 1 0 0.4034 0.0172
25 1 1 1.0650 0.0031
25 1 2 -0.1481 -0.0050
25 1 3 -1.1879 -0.0051
25 1 4 -0.0941 -0.0040
25 1 5 0.8226 0.0049
25 1 6 0.0792 0.0003
25 1 7 -0.2097 -0.0010
25 1 8 0.0914 0.0024
25 1 9 -0.2500 -0.0008
25 1 10 -0.0643 0.0027
25 1 11 0.3569 -0.0031
25 1 12 -0.2539 -0.0033
25 1 13 -0.2090 0.0035
25 1 14 0.5110 -0.0044
25 1 15 0.0348 0.0070
25 1 16 -0.4059 0.0100
25 1 19 -0.0387 0.0158
25 2 0 0.4498 -0.0028
25 2 1 -1.2150 -0.0036
25 2 2 -0.4934 -0.0048
25 2 3 1.6008 0.0021
25 2 4 0.3765 0.0045
25 2 5 -1.2070 0.0011
25 2 6 0.0173 0.0036
25 2 7 0.3686 -0.0054
25 2 8 -0.4701 -0.0033
25 2 9 0.3110 0.0051
25 2 10 0.5963 -0.0072
25 2 11 -0.5222 0.0032
25 2 12 -0.3049 0.0115
25 2 13 0.3665 -0.0102
25 2 14 -0.0816 -0.0040
25 2 18 -0.1936 0.0096
25 3 0 -0.7136 -0.0083
25 3 1 0.5238 -0.0028
25 3 2 0.6572 0.0110
25 3 3 -1.1519 0.0066
25 3 4 -0.3531 -0.0026
25 3 5 0.9874 -0.0100
25 3 6 -0.2073 -0.0083
25 3 7 -0.3198 0.0115
25 3 8 0.7538 0.0046
25 3 9 -0.2763 -0.0076
25 3 10 -0.9743 0.0107
25 3 11 0.5117 -0.0036
25 3 12 0.8099 -0.0183
25 4 0 0.2860 0.0103
25 4 1 0.1566 0.0102
25 4 2 -0.2011 -0.0121
25 4 3 0.5100 -0.0172
25 4 4 -0.1011 0.0018
25 4 5 -0.5275 0.0207
25 4 6 0.5438 0.0083
25 4 7 0.1185 -0.0185
25 4 8 -0.8782 -0.0027
25 4 9 0.2730 0.0106
25 5 0 0.1274 -0.0088
25 5 1 -0.3086 -0.0170
25 5 2 -0.2097 0.0127
25 5 3 -0.2646 0.0294
25 5 4 0.4819 -0.0052
25 5 5 0.3126 -0.0347
25 5 6 -0.7675 -0.0035
25 5 7 -0.0350 0.0292
26 0 0 1.2260 0.0053
26 0 2 -0.8801 0.0032
26 0 4 0.3589 -0.0081
26 0 6 0.0133 -0.0009
26 0 8 -0.1231 0.0115
26 0 10 0.1772 -0.0132
26 0 12 -0.3157 0.0144
26 1 0 -0.8084 0.0059
26 1 1 -0.7833 -0.0092
26 1 2 0.6439 -0.0123
26 1 3 0.9372 0.0145
26 1 4 -0.3180 0.0117
26 1 5 -0.7397 -0.0168
26 1 6 0.0884 -0.0003
26 1 7 0.3489 0.0123
26 1 8 -0.0247 -0.0063
26 1 9 -0.0580 -0.0065
26 1 10 -0.0713 0.0017
26 1 11 -0.0003 0.0065
26 1 12 0.2895 0.0005
26 2 0 0.0730 -0.0095
26 2 1 0.7843 -0.0036
26 2 2 -0.2186 0.0109
26 2 3 -1.2749 -0.0002
26 2 4 0.2563 -0.0037
26 2 5 1.1235 0.0025
26 2 6 -0.3132 -0.0073
26 2 7 -0.5498 -0.0009
26 2 8 0.3590 0.0058
26 2 9 0.0447 -0.0000
26 2 10 -0.2100 0.0085
26 3 0 0.0862 0.0005
26 3 1 -0.1000 0.0119
26 3 2 0.1199 0.0018
26 3 3 0.9381 -0.0107
26 3 4 -0.3013 -0.0128
26 3 5 -1.0088 0.0102
26 3 6 0.5118 0.0214
26 3 7 0.5065 -0.0106
26 3 8 -0.6294 -0.0116
26 3 9 0.0294 0.0086
26 4 0 0.4135 0.0104
26 4 1 -0.4351 -0.0100
26 4 2 -0.4101 -0.0125
26 4 3 -0.4244 0.0151
26 4 4 0.4546 0.0239
26 4 5 0.5950 -0.0196
26 4 6 -0.6008 -0.0310
26 4 7 -0.2532 0.0206
26 5 0 -0.7548 -0.0135
26 5 1 0.3399 0.0060
26 5 2 0.5565 0.0149
27 0 0 -1.1820 0.0085
27 0 2 0.9395 -0.0141
27 0 4 -0.3414 0.0140
27 0 6 -0.1543 -0.0032
27 0 8 0.2442 -0.0058
27 1 0 0.9456 -0.0037
27 1 1 0.5255 -0.0012
27 1 2 -0.8286 0.0034
27 1 3 -0.6412 -0.0011
27 1 4 0.3233 0.0021
27 1 5 0.5895 0.0015
27 1 6 0.1378 -0.0127
27 1 7 -0.3820 0.0040
27 1 8 -0.2527 0.0143
27 1 9 0.1997 -0.0102
27 2 0 -0.4947 -0.0081
27 2 1 -0.6191 -0.0007
27 2 2 0.5852 0.0119
27 2 3 0.9581 0.0061
27 2 4 -0.2684 -0.0198
27 2 5 -0.9232 -0.0082
27 2 6 -0.0888 0.0264
27 2 7 0.5548 0.0032
27 2 8 0.2205 -0.0183
27 3 0 0.2560 0.0213
27 3 1 0.2912 0.0093
27 3 2 -0.3555 -0.0250
27 3 3 -0.8579 -0.0125
27 3 4 0.1577 0.0324
27 3 5 0.9032 0.0109
27 3 6 0.0527 -0.0350
27 4 0 -0.2888 -0.0235
27 4 1 0.1000 -0.0192
27 4 2 0.1906 0.0267
28 1 4 -0.0770 -0.0129
28 1 5 -0.3447 0.0279
28 2 0 0.5946 0.0332
28 2 1 0.1535 0.0091
28 2 2 -0.4204 -0.0319
28 2 3 -0.3892 -0.0096
28 2 4 -0.1508 0.0322
0 0 0 0.0 0.0
;
_shelx_fab_checksum              65138
_olex2_submission_special_instructions 'No special instructions were received'
_oxdiff_exptl_absorpt_empirical_details
;
Empirical correction (ABSPACK) includes:
- Absorption correction using spherical harmonics
- Frame scaling
;
_oxdiff_exptl_absorpt_empirical_full_max 1.422
_oxdiff_exptl_absorpt_empirical_full_min 0.664
loop_
_space_group_symop_operation_xyz
'x, y, z'
'-x, y, -z+1/2'
'-x, -y, -z'
'x, -y, z-1/2'
loop_
_atom_site_label
_atom_site_type_symbol
_atom_site_fract_x
_atom_site_fract_y
_atom_site_fract_z
_atom_site_U_iso_or_equiv
_atom_site_adp_type
_atom_site_occupancy
_atom_site_site_symmetry_order
_atom_site_calc_flag
_atom_site_refinement_flags_posn
_atom_site_refinement_flags_adp
_atom_site_refinement_flags_occupancy
_atom_site_disorder_assembly
_atom_site_disorder_group
Cl1 Cl 0.17137(11) 1.2665(2) 0.24883(7) 0.0895(6) Uani 1 1 d . . . . .
Cl4 Cl 0.06946(10) 1.1197(2) 0.28030(8) 0.0850(6) Uani 1 1 d . . . . .
Cl3 Cl 0.11595(12) 1.0447(3) 0.19873(7) 0.0982(7) Uani 1 1 d . . . . .
F46 F 0.10019(14) 0.4456(3) 0.40808(12) 0.0577(9) Uani 1 1 d . . . . .
F48 F 0.03401(14) 0.8380(4) 0.48579(11) 0.0587(8) Uani 1 1 d . . . . .
F50 F -0.19922(13) 0.4772(3) 0.47357(12) 0.0564(8) Uani 1 1 d . . . . .
F47 F -0.07309(14) 0.8501(4) 0.50882(11) 0.0580(8) Uani 1 1 d . . . . .
F51 F -0.11323(15) 0.3371(3) 0.43509(14) 0.0623(9) Uani 1 1 d . . . . .
F49 F -0.17850(14) 0.7318(4) 0.51105(12) 0.0586(8) Uani 1 1 d . . . . .
F52 F -0.00367(16) 0.3218(3) 0.41327(13) 0.0617(9) Uani 1 1 d . . . . .
O77 O 0.30627(16) 0.1290(3) 0.41673(12) 0.0445(8) Uani 1 1 d . . . . .
F101 F 0.47849(15) -0.2821(3) 0.41492(13) 0.0636(9) Uani 1 1 d . . . . .
O29 O 0.23318(14) 0.6206(3) 0.39390(12) 0.0429(8) Uani 1 1 d . . . . .
F95 F 0.68841(16) -0.2836(4) 0.42749(13) 0.0651(9) Uani 1 1 d . . . . .
F94 F 0.63155(16) 0.1992(5) 0.47613(15) 0.0795(12) Uani 1 1 d . . . . .
O27 O 0.20708(18) 0.8970(4) 0.31010(15) 0.0587(10) Uani 1 1 d . . . . .
N67 N 0.28369(16) 0.3602(4) 0.42569(13) 0.0348(8) Uani 1 1 d . . . . .
H67 H 0.266693 0.434418 0.413959 0.042 Uiso 1 1 calc R U . . .
F96 F 0.4274(2) -0.0513(4) 0.43136(13) 0.0740(11) Uani 1 1 d . . . . .
N19 N 0.26918(17) 0.8304(4) 0.41780(15) 0.0421(9) Uani 1 1 d . . . . .
H19 H 0.287843 0.908685 0.410982 0.051 Uiso 1 1 calc R U . . .
F98 F 0.6877(3) -0.0208(5) 0.45505(14) 0.0895(14) Uani 1 1 d . . . . .
N15 N 0.12493(19) 0.7007(5) 0.44100(17) 0.0504(10) Uani 1 1 d . . . . .
H15 H 0.153856 0.639161 0.441924 0.061 Uiso 1 1 calc R U . . .
C54 C 0.52941(18) 0.2235(5) 0.46884(15) 0.0364(9) Uani 1 1 d . . . . .
N22 N 0.2648(2) 0.7067(5) 0.30997(16) 0.0516(11) Uani 1 1 d . . . . .
H22 H 0.274232 0.627399 0.296876 0.062 Uiso 1 1 calc R U . . .
N70 N 0.2748(2) 0.1524(5) 0.33048(15) 0.0519(11) Uani 1 1 d . . . . .
H70 H 0.256478 0.074725 0.322459 0.062 Uiso 1 1 calc R U . . .
F100 F 0.5832(2) -0.3994(7) 0.4090(2) 0.0989(15) Uani 1 1 d . . . . .
C20 C 0.26342(19) 0.7298(4) 0.38850(17) 0.0383(10) Uani 1 1 d . . . . .
C68 C 0.2829(2) 0.2373(4) 0.40437(15) 0.0366(9) Uani 1 1 d . . . . .
O75 O 0.3545(3) 0.2902(5) 0.32355(17) 0.0750(14) Uani 1 1 d . . . . .
N63 N 0.4202(2) 0.2121(6) 0.45635(18) 0.0650(14) Uani 1 1 d . . . . .
H63 H 0.389715 0.169575 0.467785 0.078 Uiso 1 1 calc R U . . .
C30 C -0.0474(2) 0.6811(5) 0.34935(15) 0.0398(10) Uani 1 1 d . . . . .
C12 C -0.0443(2) 0.5205(5) 0.45006(15) 0.0383(10) Uani 1 1 d . . . . .
C23 C 0.2202(2) 0.7825(6) 0.29462(18) 0.0506(12) Uani 1 1 d . . . . .
C16 C 0.1401(2) 0.8521(5) 0.43579(18) 0.0458(11) Uani 1 1 d . . . . .
H16A H 0.104863 0.910528 0.440844 0.055 Uiso 1 1 calc R U . . .
H16B H 0.153130 0.868889 0.405978 0.055 Uiso 1 1 calc R U . . .
F99 F 0.5286(2) 0.3440(5) 0.4844(2) 0.0940(15) Uani 1 1 d . . . . .
C31 C -0.0746(2) 0.5517(5) 0.33685(16) 0.0454(11) Uani 1 1 d . . . . .
C35 C 0.0132(2) 0.7045(5) 0.33952(15) 0.0392(10) Uani 1 1 d . . . . .
C5 C 0.0686(2) 0.6494(5) 0.44450(16) 0.0422(10) Uani 1 1 d . . . . .
C6 C 0.0233(2) 0.7147(5) 0.46617(15) 0.0398(10) Uani 1 1 d . . . . .
C13 C 0.0030(2) 0.4525(4) 0.43040(17) 0.0433(11) Uani 1 1 d . . . . .
C11 C -0.1016(2) 0.4626(5) 0.45263(17) 0.0417(10) Uani 1 1 d . . . . .
C41 C -0.0802(2) 0.7840(5) 0.37132(15) 0.0410(10) Uani 1 1 d . . . . .
C66 C 0.3116(2) 0.3762(5) 0.46748(16) 0.0413(10) Uani 1 1 d . . . . .
H66A H 0.314156 0.281947 0.481274 0.050 Uiso 1 1 calc R U . . .
H66B H 0.286441 0.436587 0.485670 0.050 Uiso 1 1 calc R U . . .
C14 C 0.0559(2) 0.5146(5) 0.42706(17) 0.0453(12) Uani 1 1 d . . . . .
C10 C -0.1450(2) 0.5317(5) 0.47255(18) 0.0452(11) Uani 1 1 d . . . . .
C7 C -0.0331(2) 0.6563(5) 0.46922(14) 0.0383(10) Uani 1 1 d . . . . .
C9 C -0.1340(2) 0.6636(5) 0.49154(17) 0.0446(11) Uani 1 1 d . . . . .
C8 C -0.0801(2) 0.7241(5) 0.49000(15) 0.0403(10) Uani 1 1 d . . . . .
C43 C 0.0383(2) 0.8378(5) 0.35284(16) 0.0443(11) Uani 1 1 d . . . . .
H43 H 0.078157 0.856903 0.346391 0.053 Uiso 1 1 calc R U . . .
C40 C -0.0522(3) 0.9124(5) 0.38505(17) 0.0476(12) Uani 1 1 d . . . . .
C21 C 0.2985(2) 0.7492(5) 0.34736(19) 0.0459(12) Uani 1 1 d . . . . .
H21 H 0.310338 0.850664 0.344434 0.055 Uiso 1 1 calc R U . . .
C78 C 0.5999(3) 0.0133(6) 0.33415(16) 0.0520(13) Uani 1 1 d . . . . .
C82 C 0.4977(3) -0.0518(7) 0.32167(18) 0.0554(14) Uani 1 1 d . . . . .
C36 C -0.1393(2) 0.7602(6) 0.38168(17) 0.0490(12) Uani 1 1 d . . . . .
C44 C -0.1362(3) 0.5325(6) 0.34654(18) 0.0539(13) Uani 1 1 d . . . . .
H44 H -0.155469 0.448334 0.337561 0.065 Uiso 1 1 calc R U . . .
C56 C 0.5772(3) 0.0041(6) 0.44990(16) 0.0556(14) Uani 1 1 d . . . . .
C34 C 0.0451(2) 0.5976(5) 0.31879(17) 0.0461(11) Uani 1 1 d . . . . .
C65 C 0.3721(2) 0.4401(6) 0.4660(2) 0.0559(13) Uani 1 1 d . . . . .
H65A H 0.387573 0.447977 0.495604 0.067 Uiso 1 1 calc R U . . .
H65B H 0.369242 0.537042 0.454063 0.067 Uiso 1 1 calc R U . . .
C32 C -0.0416(3) 0.4516(6) 0.3162(2) 0.0574(14) Uani 1 1 d . . . . .
H32 H -0.059425 0.365156 0.307631 0.069 Uiso 1 1 calc R U . . .
C17 C 0.1877(2) 0.8966(7) 0.46619(18) 0.0539(13) Uani 1 1 d . . . . .
H17A H 0.173785 0.882531 0.495909 0.065 Uiso 1 1 calc R U . . .
H17B H 0.195088 0.999048 0.462278 0.065 Uiso 1 1 calc R U . . .
C45 C -0.1660(3) 0.6302(7) 0.36766(18) 0.0530(12) Uani 1 1 d . . . . .
H45 H -0.206149 0.613849 0.373746 0.064 Uiso 1 1 calc R U . . .
C25 C 0.1204(3) 0.7070(7) 0.26928(18) 0.0534(13) Uani 1 1 d . . . . .
H25A H 0.098879 0.665371 0.244695 0.064 Uiso 1 1 calc R U . . .
H25B H 0.104705 0.803343 0.274163 0.064 Uiso 1 1 calc R U . . .
C69 C 0.2467(3) 0.2410(5) 0.36266(17) 0.0477(12) Uani 1 1 d . . . . .
H69 H 0.244775 0.340578 0.351900 0.057 Uiso 1 1 calc R U . . .
C83 C 0.5403(3) 0.0500(6) 0.33512(16) 0.0524(13) Uani 1 1 d . . . . .
C89 C 0.6443(3) 0.1110(7) 0.34893(18) 0.0566(13) Uani 1 1 d . . . . .
C58 C 0.6400(3) -0.2041(7) 0.4325(2) 0.0634(16) Uani 1 1 d . . . . .
C26 C 0.1094(2) 0.6165(6) 0.30930(19) 0.0526(12) Uani 1 1 d . . . . .
H26A H 0.127512 0.522290 0.305207 0.063 Uiso 1 1 calc R U . . .
H26B H 0.128699 0.661785 0.334290 0.063 Uiso 1 1 calc R U . . .
C42 C 0.0074(3) 0.9346(5) 0.37385(17) 0.0487(12) Uani 1 1 d . . . . .
H42 H 0.025741 1.021228 0.381632 0.058 Uiso 1 1 calc R U . . .
C73 C 0.4151(3) 0.0625(6) 0.28041(18) 0.0521(12) Uani 1 1 d . . . . .
H73A H 0.434709 0.155868 0.280112 0.063 Uiso 1 1 calc R U . . .
H73B H 0.428189 0.009026 0.254901 0.063 Uiso 1 1 calc R U . . .
C33 C 0.0175(3) 0.4738(6) 0.3074(2) 0.0555(14) Uani 1 1 d . . . . .
H33 H 0.039193 0.401832 0.293295 0.067 Uiso 1 1 calc R U . . .
C18 C 0.2459(2) 0.8161(6) 0.46061(18) 0.0510(12) Uani 1 1 d . . . . .
H18A H 0.274905 0.852699 0.481538 0.061 Uiso 1 1 calc R U . . .
H18B H 0.239493 0.714561 0.466870 0.061 Uiso 1 1 calc R U . . .
C28 C 0.3537(2) 0.6556(6) 0.3503(3) 0.0620(17) Uani 1 1 d . . . . .
H28A H 0.342171 0.555814 0.351500 0.093 Uiso 1 1 calc R U . . .
H28B H 0.375927 0.680047 0.376264 0.093 Uiso 1 1 calc R U . . .
H28C H 0.378222 0.671594 0.325046 0.093 Uiso 1 1 calc R U . . .
C79 C 0.6175(3) -0.1198(7) 0.31905(19) 0.0607(15) Uani 1 1 d . . . . .
C39 C -0.0848(3) 1.0113(6) 0.4090(2) 0.0597(15) Uani 1 1 d . . . . .
H39 H -0.066839 1.096175 0.418810 0.072 Uiso 1 1 calc R U . . .
C24 C 0.1854(3) 0.7179(7) 0.2580(2) 0.0562(13) Uani 1 1 d . . . . .
H24A H 0.200824 0.622371 0.251532 0.067 Uiso 1 1 calc R U . . .
H24B H 0.189899 0.777052 0.231982 0.067 Uiso 1 1 calc R U . . .
C71 C 0.3265(3) 0.1809(6) 0.31223(19) 0.0544(13) Uani 1 1 d . . . . .
C64 C 0.4152(2) 0.3558(8) 0.4393(2) 0.0625(16) Uani 1 1 d . . . . .
H64A H 0.401650 0.352306 0.409131 0.075 Uiso 1 1 calc R U . . .
H64B H 0.454077 0.402409 0.440026 0.075 Uiso 1 1 calc R U . . .
C37 C -0.1703(3) 0.8613(7) 0.4048(2) 0.0614(15) Uani 1 1 d . . . . .
H37 H -0.210358 0.845984 0.411417 0.074 Uiso 1 1 calc R U . . .
C74 C 0.4333(3) -0.0182(7) 0.3211(2) 0.0576(14) Uani 1 1 d . . . . .
H74A H 0.423629 0.039602 0.346580 0.069 Uiso 1 1 calc R U . . .
H74B H 0.410717 -0.107475 0.322840 0.069 Uiso 1 1 calc R U . . .
C76 C 0.1843(3) 0.1888(6) 0.3724(2) 0.0553(13) Uani 1 1 d . . . . .
H76A H 0.161122 0.187988 0.345868 0.083 Uiso 1 1 calc R U . . .
H76B H 0.166018 0.252342 0.393224 0.083 Uiso 1 1 calc R U . . .
H76C H 0.186159 0.092829 0.384263 0.083 Uiso 1 1 calc R U . . .
C84 C 0.6265(3) 0.2454(7) 0.3654(2) 0.0647(16) Uani 1 1 d . . . . .
C81 C 0.5174(3) -0.1829(7) 0.3080(2) 0.0605(14) Uani 1 1 d . . . . .
H81 H 0.489151 -0.251424 0.299505 0.073 Uiso 1 1 calc R U . . .
C88 C 0.7029(3) 0.0769(7) 0.3479(2) 0.0609(14) Uani 1 1 d . . . . .
C91 C 0.5242(3) 0.1878(7) 0.3500(2) 0.0589(14) Uani 1 1 d . . . . .
H91 H 0.484133 0.215033 0.349903 0.071 Uiso 1 1 calc R U . . .
C72 C 0.3487(3) 0.0841(6) 0.27779(19) 0.0551(13) Uani 1 1 d . . . . .
H72A H 0.338496 0.124257 0.249398 0.066 Uiso 1 1 calc R U . . .
H72B H 0.328999 -0.008859 0.280339 0.066 Uiso 1 1 calc R U . . .
C80 C 0.5753(3) -0.2190(7) 0.3061(2) 0.0622(15) Uani 1 1 d . . . . .
H80 H 0.586836 -0.309918 0.296171 0.075 Uiso 1 1 calc R U . . .
C38 C -0.1425(3) 0.9845(7) 0.4182(2) 0.0650(16) Uani 1 1 d . . . . .
H38 H -0.164090 1.052258 0.434214 0.078 Uiso 1 1 calc R U . . .
C62 C 0.4742(3) 0.0200(8) 0.4421(2) 0.0647(18) Uani 1 1 d . . . . .
C90 C 0.5655(3) 0.2802(7) 0.3644(3) 0.0680(18) Uani 1 1 d . . . . .
H90 H 0.553523 0.371004 0.374083 0.082 Uiso 1 1 calc R U . . .
C53 C 0.4728(3) 0.1457(9) 0.4541(2) 0.0655(18) Uani 1 1 d . . . . .
C59 C 0.5858(3) -0.2701(12) 0.4223(3) 0.086(3) Uani 1 1 d . . . . .
C92 C 0.6803(3) -0.1548(8) 0.3178(2) 0.0697(17) Uani 1 1 d . . . . .
H92 H 0.692507 -0.245361 0.308024 0.084 Uiso 1 1 calc R U . . .
C61 C 0.5319(3) -0.0767(9) 0.43882(19) 0.073(2) Uani 1 1 d . . . . .
C87 C 0.7451(3) 0.1702(8) 0.3642(3) 0.0717(18) Uani 1 1 d . . . . .
H87 H 0.785449 0.145696 0.363444 0.086 Uiso 1 1 calc R U . . .
C2 C 0.1338(4) 1.1048(7) 0.2508(2) 0.0692(18) Uani 1 1 d . . . . .
H2 H 0.159638 1.032917 0.264966 0.083 Uiso 1 1 calc R U . . .
C57 C 0.6368(3) -0.0770(7) 0.4451(2) 0.0644(15) Uani 1 1 d . . . . .
C93 C 0.7200(3) -0.0608(8) 0.3302(2) 0.0670(16) Uani 1 1 d . . . . .
H93 H 0.760363 -0.083043 0.327481 0.080 Uiso 1 1 calc R U . . .
C55 C 0.5795(3) 0.1427(8) 0.4648(2) 0.0655(16) Uani 1 1 d . . . . .
C85 C 0.6689(3) 0.3395(9) 0.3818(3) 0.081(2) Uani 1 1 d . . . . .
H85 H 0.657983 0.429312 0.392850 0.097 Uiso 1 1 calc R U . . .
C60 C 0.5313(4) -0.2059(9) 0.4249(3) 0.0773(19) Uani 1 1 d . . . . .
C86 C 0.7279(3) 0.2970(9) 0.3813(3) 0.080(2) Uani 1 1 d . . . . .
H86 H 0.756757 0.358136 0.393195 0.096 Uiso 1 1 calc R U . . .
loop_
_atom_site_aniso_label
_atom_site_aniso_U_11
_atom_site_aniso_U_22
_atom_site_aniso_U_33
_atom_site_aniso_U_23
_atom_site_aniso_U_13
_atom_site_aniso_U_12
Cl1 0.1089(16) 0.0821(12) 0.0774(12) 0.0130(9) -0.0182(11) -0.0222(10)
Cl4 0.0873(13) 0.0754(11) 0.0923(14) -0.0017(9) 0.0083(10) 0.0068(9)
Cl3 0.1133(17) 0.1135(16) 0.0675(12) -0.0242(11) -0.0143(11) 0.0046(13)
F46 0.0485(16) 0.0417(15) 0.083(2) 0.0078(14) 0.0275(16) 0.0167(12)
F48 0.0494(17) 0.068(2) 0.0584(19) -0.0245(15) 0.0121(14) -0.0097(14)
F50 0.0388(15) 0.0542(17) 0.076(2) 0.0025(15) 0.0110(14) -0.0013(12)
F47 0.0527(17) 0.0618(18) 0.0595(19) -0.0273(15) 0.0141(15) 0.0016(14)
F51 0.0564(18) 0.0371(15) 0.094(3) -0.0076(15) 0.0162(18) -0.0038(13)
F49 0.0443(16) 0.0635(18) 0.068(2) -0.0131(15) 0.0203(14) 0.0071(13)
F52 0.066(2) 0.0283(13) 0.091(3) -0.0042(14) 0.0289(18) 0.0044(12)
O77 0.055(2) 0.0292(15) 0.0490(19) 0.0015(13) -0.0032(15) 0.0061(13)
F101 0.0566(19) 0.0463(16) 0.088(3) -0.0175(16) -0.0143(17) 0.0046(14)
O29 0.0373(16) 0.0308(15) 0.061(2) 0.0046(14) 0.0064(14) 0.0015(12)
F95 0.0557(19) 0.068(2) 0.072(2) -0.0068(17) 0.0037(16) 0.0229(16)
F94 0.0459(19) 0.099(3) 0.093(3) 0.002(2) -0.0221(19) -0.0298(19)
O27 0.057(2) 0.0468(19) 0.072(3) -0.0189(18) -0.0104(19) 0.0038(16)
N67 0.0356(18) 0.0265(16) 0.042(2) -0.0003(14) -0.0021(15) 0.0046(13)
F96 0.102(3) 0.059(2) 0.062(2) -0.0006(17) 0.007(2) 0.0083(19)
N19 0.0350(19) 0.0344(18) 0.057(2) 0.0014(17) -0.0013(17) 0.0032(15)
F98 0.122(4) 0.086(3) 0.060(2) -0.009(2) 0.013(2) 0.017(3)
N15 0.037(2) 0.048(2) 0.067(3) 0.002(2) 0.0121(19) 0.0045(17)
C54 0.0285(19) 0.041(2) 0.040(2) -0.0111(18) 0.0003(16) 0.0029(16)
N22 0.054(3) 0.045(2) 0.056(3) -0.0086(19) 0.018(2) 0.0044(19)
N70 0.064(3) 0.051(2) 0.041(2) -0.0075(18) 0.000(2) -0.007(2)
F100 0.066(3) 0.108(4) 0.122(4) 0.009(3) -0.009(3) 0.014(3)
C20 0.031(2) 0.0298(19) 0.054(3) 0.0045(18) 0.0013(18) 0.0046(16)
C68 0.041(2) 0.030(2) 0.039(2) 0.0006(17) -0.0004(18) -0.0019(16)
O75 0.103(4) 0.049(2) 0.073(3) -0.013(2) 0.025(3) -0.010(2)
N63 0.040(2) 0.090(4) 0.065(3) 0.024(3) 0.013(2) 0.023(2)
C30 0.046(2) 0.041(2) 0.032(2) -0.0030(18) -0.0068(18) -0.0049(18)
C12 0.044(2) 0.033(2) 0.038(2) 0.0092(17) 0.0088(18) 0.0092(17)
C23 0.047(3) 0.056(3) 0.050(3) -0.009(2) 0.013(2) -0.009(2)
C16 0.039(2) 0.050(3) 0.049(3) 0.001(2) 0.004(2) 0.009(2)
F99 0.071(3) 0.083(3) 0.128(4) -0.025(3) -0.010(3) -0.004(2)
C31 0.056(3) 0.044(2) 0.037(2) -0.0004(19) -0.005(2) -0.012(2)
C35 0.042(2) 0.039(2) 0.036(2) -0.0025(18) -0.0081(18) -0.0047(18)
C5 0.038(2) 0.045(2) 0.043(3) 0.012(2) 0.0096(19) 0.0048(19)
C6 0.042(2) 0.040(2) 0.038(2) -0.0007(18) 0.0059(18) 0.0032(18)
C13 0.052(3) 0.027(2) 0.052(3) 0.0069(18) 0.012(2) 0.0050(18)
C11 0.046(3) 0.032(2) 0.046(3) 0.0082(18) 0.007(2) 0.0025(18)
C41 0.047(3) 0.044(2) 0.032(2) 0.0041(18) -0.0081(18) 0.0025(19)
C66 0.039(2) 0.046(2) 0.040(2) -0.0045(19) -0.0027(18) 0.0039(18)
C14 0.048(3) 0.039(2) 0.049(3) 0.013(2) 0.020(2) 0.0164(19)
C10 0.039(2) 0.047(3) 0.050(3) 0.009(2) 0.005(2) 0.0044(19)
C7 0.042(2) 0.042(2) 0.031(2) 0.0041(17) 0.0055(17) 0.0095(18)
C9 0.040(2) 0.052(3) 0.042(3) 0.004(2) 0.0082(19) 0.009(2)
C8 0.042(2) 0.046(2) 0.033(2) 0.0002(18) 0.0040(18) 0.0046(19)
C43 0.046(3) 0.045(2) 0.041(3) 0.000(2) -0.007(2) -0.011(2)
C40 0.068(3) 0.034(2) 0.041(3) -0.0020(19) -0.009(2) 0.002(2)
C21 0.037(2) 0.033(2) 0.069(3) -0.003(2) 0.015(2) 0.0002(17)
C78 0.063(3) 0.067(3) 0.026(2) 0.004(2) 0.003(2) -0.007(3)
C82 0.054(3) 0.074(4) 0.039(3) 0.015(2) 0.009(2) -0.007(3)
C36 0.054(3) 0.055(3) 0.038(3) 0.009(2) -0.005(2) 0.002(2)
C44 0.055(3) 0.059(3) 0.048(3) -0.001(2) -0.006(2) -0.024(2)
C56 0.088(4) 0.052(3) 0.027(2) -0.001(2) 0.002(2) 0.000(3)
C34 0.052(3) 0.046(3) 0.041(3) -0.002(2) 0.004(2) -0.003(2)
C65 0.044(3) 0.061(3) 0.063(3) -0.004(3) -0.008(2) -0.008(2)
C32 0.070(4) 0.046(3) 0.056(3) -0.020(2) 0.002(3) -0.022(2)
C17 0.050(3) 0.068(3) 0.044(3) -0.014(2) 0.001(2) 0.011(2)
C45 0.048(3) 0.067(3) 0.044(3) 0.005(2) -0.004(2) -0.005(2)
C25 0.056(3) 0.062(3) 0.043(3) -0.010(2) 0.003(2) -0.006(2)
C69 0.063(3) 0.036(2) 0.045(3) 0.005(2) -0.014(2) 0.003(2)
C83 0.070(3) 0.060(3) 0.028(2) -0.001(2) 0.007(2) -0.012(3)
C89 0.060(3) 0.070(3) 0.040(3) 0.002(2) 0.006(2) -0.003(3)
C58 0.077(4) 0.063(3) 0.051(3) 0.005(3) 0.019(3) 0.029(3)
C26 0.049(3) 0.053(3) 0.056(3) -0.005(2) 0.003(2) 0.001(2)
C42 0.062(3) 0.039(2) 0.045(3) -0.006(2) -0.007(2) -0.013(2)
C73 0.056(3) 0.059(3) 0.041(3) 0.001(2) 0.009(2) -0.004(2)
C33 0.070(4) 0.040(3) 0.056(3) -0.013(2) 0.016(3) -0.003(2)
C18 0.047(3) 0.063(3) 0.043(3) -0.002(2) -0.010(2) 0.007(2)
C28 0.040(3) 0.039(3) 0.107(5) 0.003(3) 0.019(3) 0.004(2)
C79 0.076(4) 0.064(3) 0.042(3) 0.010(3) -0.008(3) -0.002(3)
C39 0.085(4) 0.042(3) 0.052(3) -0.008(2) -0.007(3) 0.007(3)
C24 0.056(3) 0.064(3) 0.049(3) -0.014(2) 0.010(2) -0.005(3)
C71 0.067(4) 0.048(3) 0.048(3) -0.001(2) 0.006(3) 0.000(2)
C64 0.034(2) 0.093(4) 0.060(4) 0.022(3) 0.005(2) -0.005(3)
C37 0.060(3) 0.077(4) 0.047(3) 0.004(3) 0.004(3) 0.015(3)
C74 0.052(3) 0.072(4) 0.048(3) 0.003(3) 0.005(2) -0.021(3)
C76 0.054(3) 0.051(3) 0.061(3) -0.015(2) -0.011(3) 0.009(2)
C84 0.063(4) 0.072(4) 0.059(4) -0.007(3) 0.002(3) -0.011(3)
C81 0.067(4) 0.058(3) 0.056(3) 0.002(3) -0.008(3) -0.015(3)
C88 0.056(3) 0.077(4) 0.050(3) 0.006(3) 0.000(2) -0.003(3)
C91 0.053(3) 0.075(4) 0.048(3) -0.007(3) 0.006(2) -0.007(3)
C72 0.067(3) 0.056(3) 0.043(3) -0.006(2) 0.003(2) 0.005(3)
C80 0.064(4) 0.055(3) 0.067(4) -0.002(3) -0.007(3) 0.001(3)
C38 0.078(4) 0.065(4) 0.052(3) -0.003(3) 0.010(3) 0.025(3)
C62 0.053(3) 0.092(5) 0.049(3) 0.009(3) -0.010(2) -0.036(3)
C90 0.056(3) 0.064(4) 0.084(5) -0.025(3) 0.013(3) -0.010(3)
C53 0.051(3) 0.095(5) 0.051(3) 0.017(3) 0.008(3) 0.023(3)
C59 0.053(4) 0.133(8) 0.073(5) 0.033(5) 0.015(3) 0.042(4)
C92 0.072(4) 0.074(4) 0.063(4) 0.000(3) -0.002(3) 0.007(3)
C61 0.085(5) 0.101(5) 0.033(3) 0.002(3) -0.007(3) -0.052(4)
C87 0.051(3) 0.089(5) 0.075(4) 0.005(4) -0.009(3) -0.009(3)
C2 0.092(5) 0.058(3) 0.058(4) -0.002(3) -0.016(3) 0.012(3)
C57 0.068(4) 0.068(4) 0.056(4) 0.001(3) 0.003(3) 0.003(3)
C93 0.057(3) 0.088(4) 0.056(4) -0.002(3) -0.002(3) 0.009(3)
C55 0.052(3) 0.080(4) 0.064(4) -0.010(3) -0.004(3) -0.005(3)
C85 0.067(4) 0.084(5) 0.091(5) -0.030(4) 0.001(4) -0.009(4)
C60 0.069(4) 0.094(5) 0.068(4) 0.005(4) -0.004(3) 0.014(4)
C86 0.058(4) 0.095(5) 0.088(5) -0.012(4) -0.009(4) -0.017(4)
loop_
_atom_type_symbol
_atom_type_description
_atom_type_scat_dispersion_real
_atom_type_scat_dispersion_imag
_atom_type_scat_source
C C 0.0181 0.0091 'International Tables Vol C Tables 4.2.6.8 and 6.1.1.4'
H H 0.0000 0.0000 'International Tables Vol C Tables 4.2.6.8 and 6.1.1.4'
Cl Cl 0.3639 0.7018 'International Tables Vol C Tables 4.2.6.8 and 6.1.1.4'
F F 0.0727 0.0534 'International Tables Vol C Tables 4.2.6.8 and 6.1.1.4'
N N 0.0311 0.0180 'International Tables Vol C Tables 4.2.6.8 and 6.1.1.4'
O O 0.0492 0.0322 'International Tables Vol C Tables 4.2.6.8 and 6.1.1.4'
loop_
_geom_angle_atom_site_label_1
_geom_angle_atom_site_label_2
_geom_angle_atom_site_label_3
_geom_angle
_geom_angle_site_symmetry_1
_geom_angle_site_symmetry_3
_geom_angle_publ_flag
C68 N67 H67 118.7 . . ?
C68 N67 C66 122.7(4) . . ?
C66 N67 H67 118.7 . . ?
C20 N19 H19 118.9 . . ?
C20 N19 C18 122.3(4) . . ?
C18 N19 H19 118.9 . . ?
C16 N15 H15 117.7 . . ?
C5 N15 H15 117.7 . . ?
C5 N15 C16 124.6(4) . . ?
F99 C54 C53 122.4(5) . . ?
F99 C54 C55 123.9(5) . . ?
C55 C54 C53 113.6(5) . . ?
C23 N22 H22 118.6 . . ?
C23 N22 C21 122.8(4) . . ?
C21 N22 H22 118.6 . . ?
C69 N70 H70 117.7 . . ?
C71 N70 H70 117.7 . . ?
C71 N70 C69 124.6(5) . . ?
O29 C20 N19 123.4(5) . . ?
O29 C20 C21 120.2(4) . . ?
N19 C20 C21 116.3(4) . . ?
O77 C68 N67 124.6(4) . . ?
O77 C68 C69 121.4(4) . . ?
N67 C68 C69 114.0(4) . . ?
C64 N63 H63 120.8 . . ?
C53 N63 H63 120.8 . . ?
C53 N63 C64 118.5(5) . . ?
C31 C30 C35 119.5(5) . . ?
C41 C30 C31 119.6(5) . . ?
C41 C30 C35 120.9(4) . . ?
C13 C12 C11 124.1(4) . . ?
C13 C12 C7 117.1(4) . . ?
C11 C12 C7 118.8(4) . . ?
O27 C23 N22 121.5(5) . . ?
O27 C23 C24 121.6(5) . . ?
N22 C23 C24 116.8(5) . . ?
N15 C16 H16A 109.3 . . ?
N15 C16 H16B 109.3 . . ?
N15 C16 C17 111.8(5) . . ?
H16A C16 H16B 107.9 . . ?
C17 C16 H16A 109.3 . . ?
C17 C16 H16B 109.3 . . ?
C30 C31 C44 118.2(5) . . ?
C32 C31 C30 118.6(5) . . ?
C32 C31 C44 123.2(5) . . ?
C30 C35 C43 117.0(4) . . ?
C34 C35 C30 119.4(4) . . ?
C34 C35 C43 123.6(5) . . ?
N15 C5 C6 125.6(5) . . ?
N15 C5 C14 118.4(4) . . ?
C6 C5 C14 115.9(4) . . ?
F48 C6 C5 118.4(4) . . ?
F48 C6 C7 118.4(4) . . ?
C5 C6 C7 123.1(5) . . ?
F52 C13 C12 120.4(4) . . ?
C14 C13 F52 117.8(4) . . ?
C14 C13 C12 121.8(5) . . ?
F51 C11 C12 120.1(4) . . ?
F51 C11 C10 118.5(5) . . ?
C10 C11 C12 121.4(5) . . ?
C30 C41 C40 119.5(5) . . ?
C30 C41 C36 121.0(5) . . ?
C36 C41 C40 119.5(5) . . ?
N67 C66 H66A 108.7 . . ?
N67 C66 H66B 108.7 . . ?
N67 C66 C65 114.2(4) . . ?
H66A C66 H66B 107.6 . . ?
C65 C66 H66A 108.7 . . ?
C65 C66 H66B 108.7 . . ?
F46 C14 C5 116.9(4) . . ?
F46 C14 C13 120.0(5) . . ?
C13 C14 C5 123.0(4) . . ?
F50 C10 C11 120.6(5) . . ?
F50 C10 C9 119.6(4) . . ?
C11 C10 C9 119.8(5) . . ?
C6 C7 C12 118.8(4) . . ?
C6 C7 C8 123.6(4) . . ?
C8 C7 C12 117.6(4) . . ?
F49 C9 C10 118.8(4) . . ?
F49 C9 C8 119.9(5) . . ?
C8 C9 C10 121.3(4) . . ?
F47 C8 C7 121.1(4) . . ?
F47 C8 C9 117.8(4) . . ?
C9 C8 C7 121.1(5) . . ?
C35 C43 H43 119.0 . . ?
C42 C43 C35 122.1(5) . . ?
C42 C43 H43 119.0 . . ?
C42 C40 C41 118.4(5) . . ?
C39 C40 C41 118.9(5) . . ?
C39 C40 C42 122.7(5) . . ?
N22 C21 C20 111.3(4) . . ?
N22 C21 H21 109.5 . . ?
N22 C21 C28 108.6(5) . . ?
C20 C21 H21 109.5 . . ?
C20 C21 C28 108.3(5) . . ?
C28 C21 H21 109.5 . . ?
C83 C78 C89 121.0(5) . . ?
C79 C78 C83 120.4(5) . . ?
C79 C78 C89 118.6(6) . . ?
C83 C82 C74 121.7(6) . . ?
C81 C82 C83 118.0(6) . . ?
C81 C82 C74 120.3(6) . . ?
C41 C36 C45 118.1(5) . . ?
C37 C36 C41 120.0(5) . . ?
C37 C36 C45 121.9(6) . . ?
C31 C44 H44 119.4 . . ?
C45 C44 C31 121.2(5) . . ?
C45 C44 H44 119.4 . . ?
C61 C56 C57 111.6(6) . . ?
C61 C56 C55 131.0(7) . . ?
C55 C56 C57 117.4(6) . . ?
C35 C34 C26 120.8(5) . . ?
C33 C34 C35 119.5(5) . . ?
C33 C34 C26 119.6(5) . . ?
C66 C65 H65A 108.8 . . ?
C66 C65 H65B 108.8 . . ?
C66 C65 C64 113.8(5) . . ?
H65A C65 H65B 107.7 . . ?
C64 C65 H65A 108.8 . . ?
C64 C65 H65B 108.8 . . ?
C31 C32 H32 119.2 . . ?
C31 C32 C33 121.6(5) . . ?
C33 C32 H32 119.2 . . ?
C16 C17 H17A 108.7 . . ?
C16 C17 H17B 108.7 . . ?
C16 C17 C18 114.3(4) . . ?
H17A C17 H17B 107.6 . . ?
C18 C17 H17A 108.7 . . ?
C18 C17 H17B 108.7 . . ?
C36 C45 H45 119.0 . . ?
C44 C45 C36 121.9(5) . . ?
C44 C45 H45 119.0 . . ?
H25A C25 H25B 107.8 . . ?
C26 C25 H25A 109.0 . . ?
C26 C25 H25B 109.0 . . ?
C24 C25 H25A 109.0 . . ?
C24 C25 H25B 109.0 . . ?
C24 C25 C26 112.8(5) . . ?
N70 C69 C68 109.5(4) . . ?
N70 C69 H69 109.1 . . ?
N70 C69 C76 111.3(4) . . ?
C68 C69 H69 109.1 . . ?
C68 C69 C76 108.6(4) . . ?
C76 C69 H69 109.1 . . ?
C78 C83 C82 119.1(5) . . ?
C78 C83 C91 118.8(5) . . ?
C82 C83 C91 122.1(6) . . ?
C84 C89 C78 118.8(6) . . ?
C88 C89 C78 121.6(6) . . ?
C88 C89 C84 119.6(6) . . ?
F95 C58 C59 116.4(6) . . ?
C57 C58 F95 127.8(8) . . ?
C57 C58 C59 115.8(7) . . ?
C34 C26 C25 112.9(5) . . ?
C34 C26 H26A 109.0 . . ?
C34 C26 H26B 109.0 . . ?
C25 C26 H26A 109.0 . . ?
C25 C26 H26B 109.0 . . ?
H26A C26 H26B 107.8 . . ?
C43 C42 C40 122.0(4) . . ?
C43 C42 H42 119.0 . . ?
C40 C42 H42 119.0 . . ?
H73A C73 H73B 107.9 . . ?
C74 C73 H73A 109.2 . . ?
C74 C73 H73B 109.2 . . ?
C72 C73 H73A 109.2 . . ?
C72 C73 H73B 109.2 . . ?
C72 C73 C74 112.0(5) . . ?
C34 C33 C32 121.3(5) . . ?
C34 C33 H33 119.3 . . ?
C32 C33 H33 119.3 . . ?
N19 C18 C17 112.3(4) . . ?
N19 C18 H18A 109.1 . . ?
N19 C18 H18B 109.1 . . ?
C17 C18 H18A 109.1 . . ?
C17 C18 H18B 109.1 . . ?
H18A C18 H18B 107.9 . . ?
C21 C28 H28A 109.5 . . ?
C21 C28 H28B 109.5 . . ?
C21 C28 H28C 109.5 . . ?
H28A C28 H28B 109.5 . . ?
H28A C28 H28C 109.5 . . ?
H28B C28 H28C 109.5 . . ?
C78 C79 C92 119.4(6) . . ?
C80 C79 C78 120.0(6) . . ?
C80 C79 C92 120.6(6) . . ?
C40 C39 H39 120.1 . . ?
C38 C39 C40 119.8(6) . . ?
C38 C39 H39 120.1 . . ?
C23 C24 C25 111.0(5) . . ?
C23 C24 H24A 109.4 . . ?
C23 C24 H24B 109.4 . . ?
C25 C24 H24A 109.4 . . ?
C25 C24 H24B 109.4 . . ?
H24A C24 H24B 108.0 . . ?
N70 C71 C72 118.9(5) . . ?
O75 C71 N70 119.4(5) . . ?
O75 C71 C72 121.7(6) . . ?
N63 C64 C65 109.7(5) . . ?
N63 C64 H64A 109.7 . . ?
N63 C64 H64B 109.7 . . ?
C65 C64 H64A 109.7 . . ?
C65 C64 H64B 109.7 . . ?
H64A C64 H64B 108.2 . . ?
C36 C37 H37 120.0 . . ?
C38 C37 C36 119.9(6) . . ?
C38 C37 H37 120.0 . . ?
C82 C74 C73 112.0(5) . . ?
C82 C74 H74A 109.2 . . ?
C82 C74 H74B 109.2 . . ?
C73 C74 H74A 109.2 . . ?
C73 C74 H74B 109.2 . . ?
H74A C74 H74B 107.9 . . ?
C69 C76 H76A 109.5 . . ?
C69 C76 H76B 109.5 . . ?
C69 C76 H76C 109.5 . . ?
H76A C76 H76B 109.5 . . ?
H76A C76 H76C 109.5 . . ?
H76B C76 H76C 109.5 . . ?
C90 C84 C89 118.4(6) . . ?
C85 C84 C89 119.6(7) . . ?
C85 C84 C90 122.0(7) . . ?
C82 C81 H81 118.3 . . ?
C80 C81 C82 123.5(6) . . ?
C80 C81 H81 118.3 . . ?
C89 C88 C87 120.8(7) . . ?
C89 C88 C93 118.3(6) . . ?
C87 C88 C93 120.8(6) . . ?
C83 C91 H91 119.6 . . ?
C90 C91 C83 120.8(6) . . ?
C90 C91 H91 119.6 . . ?
C73 C72 H72A 109.1 . . ?
C73 C72 H72B 109.1 . . ?
C71 C72 C73 112.4(5) . . ?
C71 C72 H72A 109.1 . . ?
C71 C72 H72B 109.1 . . ?
H72A C72 H72B 107.9 . . ?
C79 C80 H80 120.5 . . ?
C81 C80 C79 118.9(6) . . ?
C81 C80 H80 120.5 . . ?
C39 C38 C37 121.9(6) . . ?
C39 C38 H38 119.1 . . ?
C37 C38 H38 119.1 . . ?
F96 C62 C61 111.1(6) . . ?
C53 C62 F96 123.1(7) . . ?
C53 C62 C61 125.8(5) . . ?
C84 C90 H90 118.9 . . ?
C91 C90 C84 122.2(6) . . ?
C91 C90 H90 118.9 . . ?
N63 C53 C54 120.1(7) . . ?
C62 C53 C54 121.0(5) . . ?
C62 C53 N63 118.7(7) . . ?
F100 C59 C58 121.7(6) . . ?
F100 C59 C60 113.1(9) . . ?
C60 C59 C58 125.2(10) . . ?
C79 C92 H92 119.8 . . ?
C93 C92 C79 120.4(7) . . ?
C93 C92 H92 119.8 . . ?
C56 C61 C62 107.1(6) . . ?
C60 C61 C56 129.4(9) . . ?
C60 C61 C62 123.4(6) . . ?
C88 C87 H87 120.2 . . ?
C86 C87 C88 119.6(7) . . ?
C86 C87 H87 120.2 . . ?
Cl1 C2 Cl3 110.9(4) . . ?
Cl1 C2 H2 108.6 . . ?
Cl4 C2 Cl1 111.2(4) . . ?
Cl4 C2 Cl3 108.7(4) . . ?
Cl4 C2 H2 108.6 . . ?
Cl3 C2 H2 108.6 . . ?
F98 C57 C56 123.1(6) . . ?
C58 C57 F98 113.9(7) . . ?
C58 C57 C56 122.9(7) . . ?
C88 C93 H93 119.2 . . ?
C92 C93 C88 121.5(6) . . ?
C92 C93 H93 119.2 . . ?
F94 C55 C54 119.1(6) . . ?
F94 C55 C56 119.6(6) . . ?
C54 C55 C56 121.3(6) . . ?
C84 C85 H85 120.9 . . ?
C86 C85 C84 118.2(7) . . ?
C86 C85 H85 120.9 . . ?
C59 C60 F101 121.4(8) . . ?
C61 C60 F101 123.4(7) . . ?
C61 C60 C59 115.1(9) . . ?
C87 C86 C85 122.1(7) . . ?
C87 C86 H86 119.0 . . ?
C85 C86 H86 119.0 . . ?
loop_
_geom_bond_atom_site_label_1
_geom_bond_atom_site_label_2
_geom_bond_distance
_geom_bond_site_symmetry_2
_geom_bond_publ_flag
Cl1 C2 1.753(8) . ?
Cl4 C2 1.742(9) . ?
Cl3 C2 1.767(7) . ?
F46 C14 1.343(5) . ?
F48 C6 1.338(6) . ?
F50 C10 1.341(6) . ?
F47 C8 1.336(6) . ?
F51 C11 1.332(6) . ?
F49 C9 1.350(5) . ?
F52 C13 1.354(6) . ?
O77 C68 1.216(6) . ?
F101 C60 1.437(9) . ?
O29 C20 1.253(6) . ?
F95 C58 1.347(7) . ?
F94 C55 1.347(7) . ?
O27 C23 1.222(7) . ?
N67 H67 0.8800 . ?
N67 C68 1.338(6) . ?
N67 C66 1.455(6) . ?
F96 C62 1.307(7) . ?
N19 H19 0.8800 . ?
N19 C20 1.325(7) . ?
N19 C18 1.446(7) . ?
F98 C57 1.313(9) . ?
N15 H15 0.8800 . ?
N15 C16 1.480(7) . ?
N15 C5 1.378(6) . ?
C54 F99 1.238(6) . ?
C54 C53 1.554(9) . ?
C54 C55 1.382(8) . ?
N22 H22 0.8800 . ?
N22 C23 1.332(8) . ?
N22 C21 1.450(8) . ?
N70 H70 0.8800 . ?
N70 C69 1.457(7) . ?
N70 C71 1.341(8) . ?
F100 C59 1.292(12) . ?
C20 C21 1.528(7) . ?
C68 C69 1.537(7) . ?
O75 C71 1.263(8) . ?
N63 H63 0.8800 . ?
N63 C64 1.462(9) . ?
N63 C53 1.357(7) . ?
C30 C31 1.425(7) . ?
C30 C35 1.436(7) . ?
C30 C41 1.407(7) . ?
C12 C13 1.400(6) . ?
C12 C11 1.422(7) . ?
C12 C7 1.438(7) . ?
C23 C24 1.518(8) . ?
C16 H16A 0.9900 . ?
C16 H16B 0.9900 . ?
C16 C17 1.498(8) . ?
C31 C44 1.450(8) . ?
C31 C32 1.372(8) . ?
C35 C43 1.444(6) . ?
C35 C34 1.404(7) . ?
C5 C6 1.384(6) . ?
C5 C14 1.414(8) . ?
C6 C7 1.405(7) . ?
C13 C14 1.347(7) . ?
C11 C10 1.341(7) . ?
C41 C40 1.434(7) . ?
C41 C36 1.408(8) . ?
C66 H66A 0.9900 . ?
C66 H66B 0.9900 . ?
C66 C65 1.510(7) . ?
C10 C9 1.402(8) . ?
C7 C8 1.410(6) . ?
C9 C8 1.358(7) . ?
C43 H43 0.9500 . ?
C43 C42 1.329(8) . ?
C40 C42 1.424(8) . ?
C40 C39 1.411(8) . ?
C21 H21 1.0000 . ?
C21 C28 1.542(7) . ?
C78 C83 1.406(9) . ?
C78 C89 1.444(9) . ?
C78 C79 1.402(9) . ?
C82 C83 1.429(9) . ?
C82 C74 1.504(9) . ?
C82 C81 1.386(9) . ?
C36 C45 1.438(8) . ?
C36 C37 1.392(8) . ?
C44 H44 0.9500 . ?
C44 C45 1.324(9) . ?
C56 C61 1.330(9) . ?
C56 C57 1.570(10) . ?
C56 C55 1.390(9) . ?
C34 C26 1.510(8) . ?
C34 C33 1.374(8) . ?
C65 H65A 0.9900 . ?
C65 H65B 0.9900 . ?
C65 C64 1.517(9) . ?
C32 H32 0.9500 . ?
C32 C33 1.394(9) . ?
C17 H17A 0.9900 . ?
C17 H17B 0.9900 . ?
C17 C18 1.541(8) . ?
C45 H45 0.9500 . ?
C25 H25A 0.9900 . ?
C25 H25B 0.9900 . ?
C25 C26 1.534(9) . ?
C25 C24 1.529(8) . ?
C69 H69 1.0000 . ?
C69 C76 1.539(9) . ?
C83 C91 1.431(9) . ?
C89 C84 1.430(10) . ?
C89 C88 1.377(9) . ?
C58 C59 1.419(13) . ?
C58 C57 1.265(10) . ?
C26 H26A 0.9900 . ?
C26 H26B 0.9900 . ?
C42 H42 0.9500 . ?
C73 H73A 0.9900 . ?
C73 H73B 0.9900 . ?
C73 C74 1.536(9) . ?
C73 C72 1.530(9) . ?
C33 H33 0.9500 . ?
C18 H18A 0.9900 . ?
C18 H18B 0.9900 . ?
C28 H28A 0.9800 . ?
C28 H28B 0.9800 . ?
C28 H28C 0.9800 . ?
C79 C80 1.401(10) . ?
C79 C92 1.473(10) . ?
C39 H39 0.9500 . ?
C39 C38 1.374(10) . ?
C24 H24A 0.9900 . ?
C24 H24B 0.9900 . ?
C71 C72 1.501(8) . ?
C64 H64A 0.9900 . ?
C64 H64B 0.9900 . ?
C37 H37 0.9500 . ?
C37 C38 1.389(11) . ?
C74 H74A 0.9900 . ?
C74 H74B 0.9900 . ?
C76 H76A 0.9800 . ?
C76 H76B 0.9800 . ?
C76 H76C 0.9800 . ?
C84 C90 1.430(10) . ?
C84 C85 1.409(10) . ?
C81 H81 0.9500 . ?
C81 C80 1.368(10) . ?
C88 C87 1.398(10) . ?
C88 C93 1.467(10) . ?
C91 H91 0.9500 . ?
C91 C90 1.360(9) . ?
C72 H72A 0.9900 . ?
C72 H72B 0.9900 . ?
C80 H80 0.9500 . ?
C38 H38 0.9500 . ?
C62 C53 1.246(11) . ?
C62 C61 1.605(12) . ?
C90 H90 0.9500 . ?
C59 C60 1.386(10) . ?
C92 H92 0.9500 . ?
C92 C93 1.323(11) . ?
C61 C60 1.295(12) . ?
C87 H87 0.9500 . ?
C87 C86 1.369(12) . ?
C2 H2 1.0000 . ?
C93 H93 0.9500 . ?
C85 H85 0.9500 . ?
C85 C86 1.405(11) . ?
C86 H86 0.9500 . ?
loop_
_geom_torsion_atom_site_label_1
_geom_torsion_atom_site_label_2
_geom_torsion_atom_site_label_3
_geom_torsion_atom_site_label_4
_geom_torsion
_geom_torsion_site_symmetry_1
_geom_torsion_site_symmetry_2
_geom_torsion_site_symmetry_3
_geom_torsion_site_symmetry_4
_geom_torsion_publ_flag
F48 C6 C7 C12 -176.9(4) . . . . ?
F48 C6 C7 C8 3.4(7) . . . . ?
F50 C10 C9 F49 1.0(7) . . . . ?
F50 C10 C9 C8 -177.9(5) . . . . ?
F51 C11 C10 F50 -2.0(7) . . . . ?
F51 C11 C10 C9 179.6(5) . . . . ?
F49 C9 C8 F47 1.1(7) . . . . ?
F49 C9 C8 C7 -178.9(4) . . . . ?
F52 C13 C14 F46 -1.5(8) . . . . ?
F52 C13 C14 C5 -178.5(5) . . . . ?
O77 C68 C69 N70 -38.2(6) . . . . ?
O77 C68 C69 C76 83.5(6) . . . . ?
O29 C20 C21 N22 42.5(6) . . . . ?
O29 C20 C21 C28 -76.8(6) . . . . ?
F95 C58 C59 F100 0.1(10) . . . . ?
F95 C58 C59 C60 -179.3(7) . . . . ?
F95 C58 C57 F98 -1.8(10) . . . . ?
F95 C58 C57 C56 -179.6(5) . . . . ?
O27 C23 C24 C25 -54.7(8) . . . . ?
N67 C68 C69 N70 144.3(4) . . . . ?
N67 C68 C69 C76 -94.0(5) . . . . ?
N67 C66 C65 C64 -59.1(6) . . . . ?
F96 C62 C53 C54 176.8(5) . . . . ?
F96 C62 C53 N63 0.3(10) . . . . ?
F96 C62 C61 C56 179.5(5) . . . . ?
F96 C62 C61 C60 3.6(9) . . . . ?
N19 C20 C21 N22 -140.3(4) . . . . ?
N19 C20 C21 C28 100.4(5) . . . . ?
N15 C16 C17 C18 60.7(6) . . . . ?
N15 C5 C6 F48 -0.3(8) . . . . ?
N15 C5 C6 C7 -179.0(5) . . . . ?
N15 C5 C14 F46 0.0(7) . . . . ?
N15 C5 C14 C13 177.1(5) . . . . ?
N22 C23 C24 C25 123.5(6) . . . . ?
N70 C71 C72 C73 -142.3(6) . . . . ?
F100 C59 C60 F101 2.1(11) . . . . ?
F100 C59 C60 C61 179.0(7) . . . . ?
C20 N19 C18 C17 -100.8(6) . . . . ?
C68 N67 C66 C65 99.1(5) . . . . ?
O75 C71 C72 C73 39.7(8) . . . . ?
C30 C31 C44 C45 -2.2(8) . . . . ?
C30 C31 C32 C33 0.3(9) . . . . ?
C30 C35 C43 C42 1.0(7) . . . . ?
C30 C35 C34 C26 -177.9(5) . . . . ?
C30 C35 C34 C33 1.4(7) . . . . ?
C30 C41 C40 C42 3.3(7) . . . . ?
C30 C41 C40 C39 -176.7(5) . . . . ?
C30 C41 C36 C45 -2.4(7) . . . . ?
C30 C41 C36 C37 177.6(5) . . . . ?
C12 C13 C14 F46 179.8(5) . . . . ?
C12 C13 C14 C5 2.8(8) . . . . ?
C12 C11 C10 F50 178.1(4) . . . . ?
C12 C11 C10 C9 -0.3(8) . . . . ?
C12 C7 C8 F47 179.5(4) . . . . ?
C12 C7 C8 C9 -0.5(7) . . . . ?
C23 N22 C21 C20 72.6(6) . . . . ?
C23 N22 C21 C28 -168.3(5) . . . . ?
C16 N15 C5 C6 -37.6(8) . . . . ?
C16 N15 C5 C14 146.7(5) . . . . ?
C16 C17 C18 N19 58.1(7) . . . . ?
F99 C54 C53 N63 2.9(9) . . . . ?
F99 C54 C53 C62 -173.5(6) . . . . ?
F99 C54 C55 F94 -4.0(10) . . . . ?
F99 C54 C55 C56 175.3(6) . . . . ?
C31 C30 C35 C43 179.8(4) . . . . ?
C31 C30 C35 C34 -1.8(7) . . . . ?
C31 C30 C41 C40 178.1(4) . . . . ?
C31 C30 C41 C36 0.8(7) . . . . ?
C31 C44 C45 C36 0.6(9) . . . . ?
C31 C32 C33 C34 -0.6(10) . . . . ?
C35 C30 C31 C44 -178.9(5) . . . . ?
C35 C30 C31 C32 0.9(7) . . . . ?
C35 C30 C41 C40 -1.6(7) . . . . ?
C35 C30 C41 C36 -178.8(4) . . . . ?
C35 C43 C42 C40 0.8(8) . . . . ?
C35 C34 C26 C25 -80.0(6) . . . . ?
C35 C34 C33 C32 -0.2(9) . . . . ?
C5 N15 C16 C17 131.9(5) . . . . ?
C5 C6 C7 C12 1.9(7) . . . . ?
C5 C6 C7 C8 -177.8(5) . . . . ?
C6 C5 C14 F46 -176.2(4) . . . . ?
C6 C5 C14 C13 0.9(7) . . . . ?
C6 C7 C8 F47 -0.8(7) . . . . ?
C6 C7 C8 C9 179.2(5) . . . . ?
C13 C12 C11 F51 -1.1(7) . . . . ?
C13 C12 C11 C10 178.8(5) . . . . ?
C13 C12 C7 C6 1.8(6) . . . . ?
C13 C12 C7 C8 -178.5(4) . . . . ?
C11 C12 C13 F52 -1.8(8) . . . . ?
C11 C12 C13 C14 176.9(5) . . . . ?
C11 C12 C7 C6 -179.1(4) . . . . ?
C11 C12 C7 C8 0.6(6) . . . . ?
C11 C10 C9 F49 179.4(5) . . . . ?
C11 C10 C9 C8 0.4(8) . . . . ?
C41 C30 C31 C44 1.5(7) . . . . ?
C41 C30 C31 C32 -178.8(5) . . . . ?
C41 C30 C35 C43 -0.5(7) . . . . ?
C41 C30 C35 C34 177.9(4) . . . . ?
C41 C40 C42 C43 -2.9(8) . . . . ?
C41 C40 C39 C38 -1.0(8) . . . . ?
C41 C36 C45 C44 1.7(8) . . . . ?
C41 C36 C37 C38 -1.0(8) . . . . ?
C66 N67 C68 O77 -2.2(7) . . . . ?
C66 N67 C68 C69 175.1(4) . . . . ?
C66 C65 C64 N63 -58.5(7) . . . . ?
C14 C5 C6 F48 175.6(4) . . . . ?
C14 C5 C6 C7 -3.2(7) . . . . ?
C10 C9 C8 F47 180.0(4) . . . . ?
C10 C9 C8 C7 0.0(8) . . . . ?
C7 C12 C13 F52 177.3(4) . . . . ?
C7 C12 C13 C14 -4.1(7) . . . . ?
C7 C12 C11 F51 179.8(4) . . . . ?
C7 C12 C11 C10 -0.2(7) . . . . ?
C43 C35 C34 C26 0.4(8) . . . . ?
C43 C35 C34 C33 179.8(5) . . . . ?
C40 C41 C36 C45 -179.7(5) . . . . ?
C40 C41 C36 C37 0.4(7) . . . . ?
C40 C39 C38 C37 0.5(10) . . . . ?
C21 N22 C23 O27 3.9(8) . . . . ?
C21 N22 C23 C24 -174.3(5) . . . . ?
C78 C83 C91 C90 -2.2(9) . . . . ?
C78 C89 C84 C90 -3.3(9) . . . . ?
C78 C89 C84 C85 177.2(7) . . . . ?
C78 C89 C88 C87 -177.0(6) . . . . ?
C78 C89 C88 C93 1.8(9) . . . . ?
C78 C79 C80 C81 0.8(9) . . . . ?
C78 C79 C92 C93 -1.0(10) . . . . ?
C82 C83 C91 C90 177.1(6) . . . . ?
C82 C81 C80 C79 0.8(10) . . . . ?
C36 C41 C40 C42 -179.4(5) . . . . ?
C36 C41 C40 C39 0.6(7) . . . . ?
C36 C37 C38 C39 0.6(10) . . . . ?
C44 C31 C32 C33 -180.0(6) . . . . ?
C56 C61 C60 F101 178.6(6) . . . . ?
C56 C61 C60 C59 1.9(12) . . . . ?
C34 C35 C43 C42 -177.4(5) . . . . ?
C32 C31 C44 C45 178.0(6) . . . . ?
C45 C36 C37 C38 179.1(6) . . . . ?
C69 N70 C71 O75 1.3(9) . . . . ?
C69 N70 C71 C72 -176.8(5) . . . . ?
C83 C78 C89 C84 1.1(8) . . . . ?
C83 C78 C89 C88 -179.6(5) . . . . ?
C83 C78 C79 C80 -2.1(8) . . . . ?
C83 C78 C79 C92 179.1(5) . . . . ?
C83 C82 C74 C73 82.2(7) . . . . ?
C83 C82 C81 C80 -1.1(9) . . . . ?
C83 C91 C90 C84 -0.1(11) . . . . ?
C89 C78 C83 C82 -177.7(5) . . . . ?
C89 C78 C83 C91 1.6(8) . . . . ?
C89 C78 C79 C80 177.4(6) . . . . ?
C89 C78 C79 C92 -1.4(8) . . . . ?
C89 C84 C90 C91 2.9(11) . . . . ?
C89 C84 C85 C86 -0.1(12) . . . . ?
C89 C88 C87 C86 -0.1(11) . . . . ?
C89 C88 C93 C92 -4.3(10) . . . . ?
C58 C59 C60 F101 -178.5(7) . . . . ?
C58 C59 C60 C61 -1.7(12) . . . . ?
C26 C34 C33 C32 179.1(6) . . . . ?
C26 C25 C24 C23 -59.2(7) . . . . ?
C42 C40 C39 C38 179.0(6) . . . . ?
C33 C34 C26 C25 100.7(6) . . . . ?
C18 N19 C20 O29 6.6(7) . . . . ?
C18 N19 C20 C21 -170.4(4) . . . . ?
C79 C78 C83 C82 1.8(7) . . . . ?
C79 C78 C83 C91 -178.9(5) . . . . ?
C79 C78 C89 C84 -178.3(5) . . . . ?
C79 C78 C89 C88 0.9(8) . . . . ?
C79 C92 C93 C88 3.8(11) . . . . ?
C39 C40 C42 C43 177.0(5) . . . . ?
C24 C25 C26 C34 -176.1(5) . . . . ?
C71 N70 C69 C68 -67.6(7) . . . . ?
C71 N70 C69 C76 172.4(5) . . . . ?
C64 N63 C53 C54 48.1(8) . . . . ?
C64 N63 C53 C62 -135.5(7) . . . . ?
C37 C36 C45 C44 -178.4(6) . . . . ?
C74 C82 C83 C78 -178.7(5) . . . . ?
C74 C82 C83 C91 2.0(8) . . . . ?
C74 C82 C81 C80 177.5(6) . . . . ?
C74 C73 C72 C71 66.6(7) . . . . ?
C84 C89 C88 C87 2.2(10) . . . . ?
C84 C89 C88 C93 -179.0(6) . . . . ?
C84 C85 C86 C87 2.3(14) . . . . ?
C81 C82 C83 C78 -0.2(8) . . . . ?
C81 C82 C83 C91 -179.5(5) . . . . ?
C81 C82 C74 C73 -96.3(7) . . . . ?
C88 C89 C84 C90 177.4(6) . . . . ?
C88 C89 C84 C85 -2.1(10) . . . . ?
C88 C87 C86 C85 -2.2(13) . . . . ?
C72 C73 C74 C82 174.5(5) . . . . ?
C80 C79 C92 C93 -179.8(7) . . . . ?
C62 C61 C60 F101 -6.4(11) . . . . ?
C62 C61 C60 C59 176.9(6) . . . . ?
C90 C84 C85 C86 -179.6(8) . . . . ?
C53 C54 C55 F94 179.2(6) . . . . ?
C53 C54 C55 C56 -1.5(9) . . . . ?
C53 N63 C64 C65 -146.1(6) . . . . ?
C53 C62 C61 C56 -1.9(9) . . . . ?
C53 C62 C61 C60 -177.9(7) . . . . ?
C59 C58 C57 F98 178.6(6) . . . . ?
C59 C58 C57 C56 0.8(10) . . . . ?
C92 C79 C80 C81 179.6(6) . . . . ?
C61 C56 C57 F98 -178.3(6) . . . . ?
C61 C56 C57 C58 -0.7(9) . . . . ?
C61 C56 C55 F94 176.5(6) . . . . ?
C61 C56 C55 C54 -2.8(11) . . . . ?
C61 C62 C53 C54 -1.6(10) . . . . ?
C61 C62 C53 N63 -178.1(5) . . . . ?
C87 C88 C93 C92 174.5(7) . . . . ?
C57 C56 C61 C62 -176.4(5) . . . . ?
C57 C56 C61 C60 -0.8(10) . . . . ?
C57 C56 C55 F94 -2.7(9) . . . . ?
C57 C56 C55 C54 178.0(6) . . . . ?
C57 C58 C59 F100 179.7(7) . . . . ?
C57 C58 C59 C60 0.4(11) . . . . ?
C93 C88 C87 C86 -178.9(7) . . . . ?
C55 C54 C53 N63 179.8(6) . . . . ?
C55 C54 C53 C62 3.4(8) . . . . ?
C55 C56 C61 C62 4.3(9) . . . . ?
C55 C56 C61 C60 179.9(7) . . . . ?
C55 C56 C57 F98 1.1(9) . . . . ?
C55 C56 C57 C58 178.7(7) . . . . ?
C85 C84 C90 C91 -177.6(8) . . . . ?
loop_
_smtbx_masks_void_nr
_smtbx_masks_void_average_x
_smtbx_masks_void_average_y
_smtbx_masks_void_average_z
_smtbx_masks_void_volume
_smtbx_masks_void_count_electrons
_smtbx_masks_void_content
1 0.000 -0.153 0.250 14.8 0.0 ?
2 0.000 0.153 0.750 14.8 0.0 ?
3 0.500 0.457 0.250 212.1 41.5 ?
4 0.500 0.543 0.750 212.1 41.5 ?
