#------------------------------------------------------------------------------
#$Date: 2024-02-04 13:32:48 +0200 (Sun, 04 Feb 2024) $
#$Revision: 289423 $
#$URL: file:///home/coder/svn-repositories/cod/cif/1/57/04/1570490.cif $
#------------------------------------------------------------------------------
#
# This file is available in the Crystallography Open Database (COD),
# http://www.crystallography.net/
#
# All data on this site have been placed in the public domain by the
# contributors.
#
data_1570490
loop_
_publ_author_name
'Zhang, Rong'
'Lan, Jiajing'
'Wang, Fei'
'Chen, Shumei'
'Zhang, Jian'
_publ_section_title
;
 Aggregate assembly of ferrocene functionalized indium-oxo clusters.
;
_journal_issue                   2
_journal_name_full               'Chemical science'
_journal_page_first              726
_journal_page_last               735
_journal_paper_doi               10.1039/d3sc05824g
_journal_volume                  15
_journal_year                    2024
_chemical_formula_moiety         'C304 H224 Fe24 In28 N8 O116'
_chemical_formula_sum            'C304 H216 Fe24 In28 N8 O116'
_chemical_formula_weight         10392.20
_space_group_crystal_system      tetragonal
_space_group_IT_number           86
_space_group_name_Hall           '-P 4bc'
_space_group_name_H-M_alt        'P 42/n :2'
_atom_sites_solution_hydrogens   mixed
_audit_creation_date             2023-07-08
_audit_creation_method
;
Olex2 1.5
(compiled 2023.03.06 svn.rbb2c1857 for OlexSys, GUI svn.r6748)
;
_audit_update_record
;
2023-07-14 deposited with the CCDC.	2023-11-23 downloaded from the CCDC.
;
_cell_angle_alpha                90
_cell_angle_beta                 90
_cell_angle_gamma                90
_cell_formula_units_Z            2
_cell_length_a                   35.1846(4)
_cell_length_b                   35.1846(4)
_cell_length_c                   15.8530(4)
_cell_measurement_reflns_used    17039
_cell_measurement_temperature    293(2)
_cell_measurement_theta_max      60.1420
_cell_measurement_theta_min      3.0950
_cell_volume                     19625.3(6)
_computing_cell_refinement       'CrysAlisPro 1.171.41.93a (Rigaku OD, 2020)'
_computing_data_collection       'CrysAlisPro 1.171.41.93a (Rigaku OD, 2020)'
_computing_data_reduction        'CrysAlisPro 1.171.41.93a (Rigaku OD, 2020)'
_computing_molecular_graphics    'Olex2 1.5 (Dolomanov et al., 2009)'
_computing_publication_material  'Olex2 1.5 (Dolomanov et al., 2009)'
_computing_structure_refinement  'SHELXL 2017/1 (Sheldrick, 2015)'
_computing_structure_solution    'ShelXT (Sheldrick, 2015)'
_diffrn_ambient_temperature      293(2)
_diffrn_detector                 'Hybrid Pixel Array Detector'
_diffrn_detector_area_resol_mean 10.0000
_diffrn_detector_type            HyPix
_diffrn_measured_fraction_theta_full 0.998
_diffrn_measured_fraction_theta_max 0.975
_diffrn_measurement_details
;
List of Runs (angles in degrees, time in seconds):

  # Type    Start    End  Width  t~exp~   \w     \q     \k     \f   Frames
#--------------------------------------------------------------------------
  1  \w     12.00  51.00   0.50    6.50    --   73.53 -62.00  37.00   78
  2  \w    -94.00  -3.00   0.50    6.50    --  -74.78  69.00 -49.00  182
  3  \w    -29.00  12.00   0.50    1.44    --   -0.62  93.00  49.00   82
  4  \w    -28.00   7.00   0.50    1.44    --   -0.62 -93.00 -62.00   70
  5  \w    104.00 147.00   0.50    6.50    --   73.53 125.00 120.00   86
  6  \w   -141.00 -81.00   0.50    6.50    --  -74.78-125.00-120.00  120
  7  \w   -134.00 -91.00   0.50    6.50    --  -74.78 -99.00-120.00   86
;
_diffrn_measurement_device       'four-circle diffractometer'
_diffrn_measurement_device_type  'ROD, Synergy Custom system, HyPix'
_diffrn_measurement_method       '\w scans'
_diffrn_orient_matrix_type
'CrysAlisPro convention (1999,Acta A55,543-557)'
_diffrn_orient_matrix_UB_11      0.0350771000
_diffrn_orient_matrix_UB_12      -0.0078561000
_diffrn_orient_matrix_UB_13      0.0281021000
_diffrn_orient_matrix_UB_21      -0.0037689000
_diffrn_orient_matrix_UB_22      0.0265804000
_diffrn_orient_matrix_UB_23      0.0598119000
_diffrn_orient_matrix_UB_31      -0.0144235000
_diffrn_orient_matrix_UB_32      -0.0260354000
_diffrn_orient_matrix_UB_33      0.0525505000
_diffrn_radiation_monochromator  mirror
_diffrn_radiation_probe          x-ray
_diffrn_radiation_type           'Ga K\a'
_diffrn_radiation_wavelength     1.3405
_diffrn_reflns_av_R_equivalents  0.0504
_diffrn_reflns_av_unetI/netI     0.0633
_diffrn_reflns_Laue_measured_fraction_full 0.998
_diffrn_reflns_Laue_measured_fraction_max 0.975
_diffrn_reflns_limit_h_max       44
_diffrn_reflns_limit_h_min       -30
_diffrn_reflns_limit_k_max       22
_diffrn_reflns_limit_k_min       -45
_diffrn_reflns_limit_l_max       20
_diffrn_reflns_limit_l_min       -8
_diffrn_reflns_number            69336
_diffrn_reflns_point_group_measured_fraction_full 0.998
_diffrn_reflns_point_group_measured_fraction_max 0.975
_diffrn_reflns_theta_full        53.543
_diffrn_reflns_theta_max         60.691
_diffrn_reflns_theta_min         2.183
_diffrn_source                   'micro-focus metaljet'
_exptl_absorpt_coefficient_mu    13.631
_exptl_absorpt_correction_T_max  1.00000
_exptl_absorpt_correction_T_min  0.79154
_exptl_absorpt_correction_type   multi-scan
_exptl_absorpt_process_details
;
CrysAlisPro 1.171.41.93a (Rigaku Oxford Diffraction, 2020)
Empirical absorption correction using spherical harmonics,
implemented in SCALE3 ABSPACK scaling algorithm.
;
_exptl_crystal_colour            orange
_exptl_crystal_colour_primary    orange
_exptl_crystal_density_diffrn    1.759
_exptl_crystal_description       block
_exptl_crystal_F_000             10040
_exptl_crystal_size_max          0.05
_exptl_crystal_size_mid          0.05
_exptl_crystal_size_min          0.02
_refine_diff_density_max         1.932
_refine_diff_density_min         -1.536
_refine_diff_density_rms         0.141
_refine_ls_extinction_method     none
_refine_ls_goodness_of_fit_ref   1.013
_refine_ls_hydrogen_treatment    constr
_refine_ls_matrix_type           full
_refine_ls_number_parameters     1083
_refine_ls_number_reflns         22086
_refine_ls_number_restraints     240
_refine_ls_restrained_S_all      1.010
_refine_ls_R_factor_all          0.1105
_refine_ls_R_factor_gt           0.0644
_refine_ls_shift/su_max          0.002
_refine_ls_shift/su_mean         0.000
_refine_ls_structure_factor_coef Fsqd
_refine_ls_weighting_details
'w=1/[\s^2^(Fo^2^)+(0.1148P)^2^] where P=(Fo^2^+2Fc^2^)/3'
_refine_ls_weighting_scheme      calc
_refine_ls_wR_factor_gt          0.1758
_refine_ls_wR_factor_ref         0.2001
_reflns_Friedel_coverage         0.000
_reflns_number_gt                12306
_reflns_number_total             22086
_reflns_threshold_expression     'I > 2\s(I)'
_cod_data_source_file            d3sc05824g2.cif
_cod_data_source_block           5-3-4_auto
_cod_depositor_comments
'Adding full bibliography for 1570485--1570493.cif.'
_cod_original_cell_volume        19625.3(7)
_cod_original_sg_symbol_H-M      'P 42/n'
_cod_database_code               1570490
_shelx_shelxl_version_number     2017/1
_chemical_oxdiff_formula         'In Fe C N H O'
_shelx_space_group_comment
;
The symmetry employed for this shelxl refinement is uniquely defined
by the following loop, which should always be used as a source of
symmetry information in preference to the above space-group names.
They are only intended as comments.
;
_shelx_estimated_absorpt_t_max   0.772
_shelx_estimated_absorpt_t_min   0.549
_olex2_refinement_description
;
1. Fixed Uiso
 At 1.2 times of:
  All C(H) groups
 At 1.5 times of:
  All C(H,H,H) groups, All O(H,H) groups
2. Restrained planarity
 C21, C02L, C036, C035, C02W
 with sigma of 0.1
 C037, C039, C034, C22, C24
 with sigma of 0.1
3. Rigid bond restraints
 C21, C02L, C02W, C036, C035
 with sigma for 1-2 distances of 0.01 and sigma for 1-3 distances of 0.01
 C24, C037, C039, C034, C22
 with sigma for 1-2 distances of 0.01 and sigma for 1-3 distances of 0.01
4. Uiso/Uaniso restraints and constraints
C21 \\sim C02L \\sim C02W \\sim C036 \\sim C035: within 1.7A with sigma of 0.04
and sigma for terminal atoms of 0.08 within 1.7A
C22 \\sim C24 \\sim C037 \\sim C039 \\sim C034: within 1.7A with sigma of 0.04
and sigma for terminal atoms of 0.08 within 1.7A
Uanis(C21) \\sim Ueq, Uanis(C035) \\sim Ueq, Uanis(C22) \\sim Ueq, Uanis(C24)
\\sim Ueq, Uanis(C039) \\sim Ueq, Uanis(C034) \\sim Ueq, Uanis(C0AA) \\sim Ueq,
Uanis(C032) \\sim Ueq, Uanis(C02M) \\sim Ueq, Uanis(C02Y) \\sim Ueq,
Uanis(C02U) \\sim Ueq, Uanis(C028) \\sim Ueq, Uanis(C02V) \\sim Ueq,
Uanis(C038) \\sim Ueq, Uanis(C02Z) \\sim Ueq: with sigma of 0.001 and sigma for
terminal atoms of 0.002
Uanis(C037) \\sim Ueq, Uanis(C24) \\sim Ueq, Uanis(C039) \\sim Ueq, Uanis(C034)
\\sim Ueq, Uanis(C22) \\sim Ueq: with sigma of 0.01 and sigma for terminal
atoms of 0.02
5. Rigid body (RIGU) restrains
 C21, C035, C036, C02W, C02L
 with sigma for 1-2 distances of 55 and sigma for 1-3 distances of 55
 C039, C037, C24, C22, C034
 with sigma for 1-2 distances of 55 and sigma for 1-3 distances of 55
6.a Rotating group:
 O014(H01A,H01B)
6.b Ternary CH refined with riding coordinates:
 C031(H031), C034(H034), C035(H035), C036(H036)
6.c Aromatic/amide H refined with riding coordinates:
 C01E(H01E), C01O(H01O), C01P(H01P), C01R(H01R), C01S(H01S), C01U(H01U),
 C01V(H01V), C01W(H01W), C01X(H01X), C01Z(H01Z), C020(H020), C021(H021),
 C024(H024), C025(H025), C027(H027), C029(H029), C02A(H02A), C02B(H02B),
 C02C(H02C), C02D(H02D), C02E(H02E), C02F(H02F), C02G(H02G), C02H(H02H),
 C02I(H02I), C02J(H02J), C02K(H02K), C02M(H02M), C02N(H02N), C02O(H02O),
 C02P(H02P), C02Q(H02Q), C02S(H02T), C02T(H02U), C02U(H02V), C02W(H02W),
 C02X(H02X), C02Y(H02Y), C02Z(H02Z), C030(H030), C032(H032), C038(H038),
 C039(H039), C21(H21), C22(H22), C24(H24), C0AA(H0AA)
6.d Idealised Me refined as rotating group:
 C02R(H02L,H02R,H02S)
;
_shelx_res_file
;
TITL 5-3-4_auto_a.res in P4(2)/n
    5-3-4_auto.res
    created by SHELXL-2017/1 at 11:27:21 on 08-Jul-2023
REM Old TITL 5-3-4_auto_a.res in P4(2)/n
REM SHELXT solution in P4(2)/n
REM R1 0.253, Rweak 0.012, Alpha 0.038, Orientation as input
REM Formula found by SHELXT: C67 N7 O30 Fe6 In7
CELL 1.3405 35.1846 35.1846 15.853 90 90 90
ZERR 2 0.0004 0.0004 0.0004 0 0 0
LATT 1
SYMM 0.5-X,0.5-Y,+Z
SYMM -Y,0.5+X,0.5+Z
SYMM 0.5+Y,-X,0.5+Z
SFAC C H N O Fe In
DISP C 0.0147 0.007 57.608
DISP Fe -0.2758 2.5767 18844.2355
DISP H -0 0 0.6481
DISP In 0.1337 3.9104 30156.1191
DISP N 0.0253 0.0135 110.2408
DISP O 0.0412 0.025 193.4765
UNIT 608 432 16 232 48 56
FLAT C21 C02L C036 C035 C02W
FLAT C037 C039 C034 C22 C24
DELU C21 C02L C02W C036 C035
DELU C24 C037 C039 C034 C22
SIMU 0.04 0.08 1.7 C21 C02L C02W C036 C035
SIMU 0.04 0.08 1.7 C22 C24 C037 C039 C034
RIGU 55 55 C21 C035 C036 C02W C02L
RIGU 55 55 C039 C037 C24 C22 C034
ISOR 0.001 0.002 C21 C035 C22 C24 C039 C034 C0AA C032 C02M C02Y C02U C028 =
 C02V C038 C02Z
ISOR 0.01 0.02 C037 C24 C039 C034 C22

L.S. 10
PLAN  29
SIZE 0.02 0.05 0.05
CONF
FREE In05 In01
FREE In04 In01
FREE In06 In05
FREE In06 In01
BOND $H
list 4
ABIN
fmap 2
acta
MORE -1
OMIT 0 4 0
OMIT 0 9 2
OMIT 0 6 1
OMIT 3 7 1
OMIT 4 4 1
OMIT 0 5 2
OMIT 8 4 1
OMIT 0 1 2
OMIT 1 3 3
OMIT 1 8 2
OMIT 5 5 0
OMIT 10 28 15
OMIT 3 6 2
OMIT 5 4 1
OMIT 9 6 1
OMIT 3 3 2
OMIT 4 1 2
OMIT 0 8 1
OMIT 2 27 16
OMIT 4 2 0
OMIT -4 5 1
OMIT -6 9 1
OMIT -4 8 1
OMIT -1 4 2
OMIT 4 7 1
OMIT -2 4 0
OMIT -3 4 2
OMIT 2 5 1
OMIT -4 5 2
OMIT -3 6 1
OMIT 1 1 1
OMIT -1 7 0
OMIT 0 8 3
OMIT 2 8 0
OMIT 3 13 2
OMIT 3 5 0
OMIT 8 13 1
OMIT -2 11 1
OMIT -2 13 1
OMIT 6 8 1
OMIT 9 17 0
OMIT -8 9 3
REM <olex2.extras>
REM <HklSrc "%.\\5-3-4_auto.hkl">
REM </olex2.extras>

WGHT    0.114800
FVAR       0.05146
IN01  6    0.489070    0.755976    0.757913    11.00000    0.04149    0.03795 =
         0.08468    0.00695    0.00735    0.00241
IN02  6    0.534969    0.658317    0.749616    11.00000    0.04319    0.04005 =
         0.08129    0.00487    0.00565    0.00767
IN03  6    0.546461    0.834181    0.650189    11.00000    0.04689    0.04277 =
         0.09331    0.00770   -0.00216   -0.01160
IN04  6    0.545252    0.736869    0.597332    11.00000    0.04666    0.04978 =
         0.08081    0.00406    0.00352   -0.00411
IN05  6    0.460795    0.692071    0.620337    11.00000    0.04530    0.04348 =
         0.10693    0.00375   -0.00126    0.00048
IN06  6    0.462454    0.784254    0.568358    11.00000    0.05732    0.04779 =
         0.10094    0.01049   -0.01294   -0.00482
IN07  6    0.385890    0.756901    0.693631    11.00000    0.05402    0.05642 =
         0.17323    0.00109    0.00798    0.00381
FE08  5    0.571692    0.586123    0.487308    11.00000    0.05276    0.07041 =
         0.09701   -0.02152    0.00125    0.00325
FE09  5    0.639719    0.756735    0.894595    11.00000    0.05953    0.07973 =
         0.09828   -0.00230   -0.01647    0.01094
FE0A  5    0.428780    0.905142    0.807426    11.00000    0.07286    0.04697 =
         0.13352   -0.01543   -0.02362    0.01314
FE0B  5    0.397954    0.647839    0.940652    11.00000    0.08221    0.07192 =
         0.15849    0.03578    0.05196    0.00291
FE0C  5    0.563863    0.849988    0.333592    11.00000    0.13280    0.10589 =
         0.10944    0.04257    0.02880   -0.00092
FE0D  5    0.331723    0.710884    0.420219    11.00000    0.12937    0.08356 =
         0.33577   -0.02398   -0.13634   -0.00382
O00E  4    0.511411    0.706181    0.689506    11.00000    0.03811    0.03274 =
         0.08393    0.00734    0.00652    0.00421
O00F  4    0.443320    0.747181    0.666678    11.00000    0.04012    0.03011 =
         0.09557    0.00726   -0.00015    0.00320
O00G  4    0.513698    0.784294    0.645769    11.00000    0.04360    0.03636 =
         0.08206    0.01217   -0.00550   -0.00514
O00H  4    0.584566    0.659503    0.664692    11.00000    0.04242    0.05458 =
         0.07991   -0.00560    0.00992   -0.00041
O00I  4    0.537160    0.754151    0.839801    11.00000    0.05608    0.04835 =
         0.08892    0.00465   -0.00061    0.01143
O00J  4    0.489926    0.730009    0.527832    11.00000    0.05117    0.05367 =
         0.07862    0.00772   -0.00556   -0.00776
O00K  4    0.473832    0.808721    0.811700    11.00000    0.05332    0.04488 =
         0.09723    0.00573    0.01239    0.00580
O00L  4    0.570417    0.688482    0.542750    11.00000    0.06773    0.05534 =
         0.08267    0.00429    0.00405    0.01044
O00M  4    0.592613    0.749713    0.678469    11.00000    0.04520    0.05455 =
         0.08409   -0.00299   -0.00405   -0.00168
O00N  4    0.515185    0.851340    0.760512    11.00000    0.05745    0.06420 =
         0.11111   -0.00695    0.01088   -0.01339
O00O  4    0.557361    0.693890    0.847360    11.00000    0.08322    0.04255 =
         0.09607   -0.00326   -0.00598    0.01082
O00P  4    0.483972    0.643810    0.817277    11.00000    0.04553    0.06669 =
         0.10002    0.01846    0.01254    0.00265
O00Q  4    0.564673    0.764692    0.487419    11.00000    0.07661    0.07045 =
         0.07846    0.01546    0.01388   -0.00839
O00R  4    0.438960    0.833482    0.625009    11.00000    0.06150    0.04858 =
         0.10441    0.01105   -0.00002   -0.00022
O00S  4    0.512707    0.617410    0.657381    11.00000    0.05573    0.05245 =
         0.08999   -0.00272    0.00140   -0.00218
O00T  4    0.485094    0.647331    0.549982    11.00000    0.05543    0.05018 =
         0.10751    0.00052    0.00100    0.00905
O00U  4    0.513660    0.860245    0.545458    11.00000    0.06677    0.05523 =
         0.10726    0.01935   -0.00695   -0.01842
O00V  4    0.456811    0.728241    0.852906    11.00000    0.06688    0.05959 =
         0.10318    0.01320    0.02610   -0.00145
O00W  4    0.439760    0.658825    0.721536    11.00000    0.04755    0.06280 =
         0.11850    0.01881    0.00819   -0.00416
O00X  4    0.590447    0.809364    0.726211    11.00000    0.05406    0.05302 =
         0.09024    0.00467   -0.00555   -0.01178
O00Y  4    0.585165    0.819213    0.545745    11.00000    0.07522    0.07685 =
         0.10437    0.00380    0.02450   -0.01823
O00Z  4    0.486244    0.815113    0.469088    11.00000    0.08278    0.06247 =
         0.08987    0.00827   -0.01455   -0.01704
N010  3    0.563912    0.611745    0.808343    11.00000    0.04101    0.03832 =
         0.08828    0.00601    0.00492    0.01006
O011  4    0.394702    0.815600    0.718737    11.00000    0.05482    0.04758 =
         0.15055   -0.00539    0.01684   -0.00097
N012  3    0.610593    0.572492    0.840373    11.00000    0.04030    0.05218 =
         0.11065    0.01652    0.01170    0.00797
O013  4    0.372893    0.777754    0.568438    11.00000    0.06092    0.06025 =
         0.18050    0.00816   -0.01897    0.00267
O014  4    0.322098    0.761889    0.722745    11.00000    0.05809    0.06862 =
         0.16869   -0.02414    0.02169    0.01344
AFIX   7
H01A  2    0.310958    0.761908    0.772875    11.00000   -1.50000
H01B  2    0.303108    0.764010    0.686335    11.00000   -1.50000
AFIX   0
O015  4    0.412669    0.682111    0.547863    11.00000    0.05345    0.06469 =
         0.15047   -0.00541   -0.01128    0.00437
O016  4    0.371791    0.701809    0.646989    11.00000    0.05090    0.05832 =
         0.16676   -0.00148    0.00481   -0.01281
O017  4    0.419629    0.770309    0.478885    11.00000    0.09344    0.07127 =
         0.13186   -0.00299   -0.04728   -0.00823
C018  1    0.585142    0.661144    0.586606    11.00000    0.03054    0.05798 =
         0.08972   -0.01765    0.01118   -0.00593
O019  4    0.394653    0.740106    0.818158    11.00000    0.06815    0.07666 =
         0.15958    0.02386    0.02822    0.02211
C01A  1    0.487496    0.841850    0.805688    11.00000    0.04809    0.05264 =
         0.07561   -0.00245   -0.00946    0.00803
C01B  1    0.470733    0.872164    0.857271    11.00000    0.05697    0.05573 =
         0.10111   -0.02165   -0.01843    0.01341
C01C  1    0.558900    0.728068    0.869221    11.00000    0.05867    0.05374 =
         0.06327    0.00734   -0.00076    0.00433
C01D  1    0.602267    0.630143    0.539437    11.00000    0.04514    0.08159 =
         0.08280   -0.01923   -0.00289   -0.00273
C01E  1    0.601117    0.605900    0.812985    11.00000    0.04968    0.04318 =
         0.08037    0.00612   -0.00375    0.00722
AFIX  43
H01E  2    0.618901    0.624229    0.797862    11.00000   -1.20000
AFIX   0
C01F  1    0.415212    0.839912    0.680794    11.00000    0.05971    0.04260 =
         0.10100   -0.00578   -0.01391    0.00528
C01G  1    0.504351    0.620544    0.581939    11.00000    0.03946    0.04841 =
         0.09669   -0.00334    0.00788   -0.00768
C01H  1    0.587109    0.739151    0.929934    11.00000    0.07327    0.05241 =
         0.08513   -0.00079   -0.00353    0.01709
C01I  1    0.504697    0.845125    0.477380    11.00000    0.06027    0.07040 =
         0.08631    0.02288   -0.01162    0.00150
C01J  1    0.604450    0.777082    0.720395    11.00000    0.04598    0.05752 =
         0.07639    0.01021    0.00225   -0.00376
C01K  1    0.516363    0.590374    0.521483    11.00000    0.04106    0.05110 =
         0.09404   -0.00839   -0.00547    0.00013
C01L  1    0.407491    0.880257    0.702895    11.00000    0.05758    0.05272 =
         0.12446   -0.00792   -0.01992    0.01118
C01M  1    0.420337    0.726360    0.864384    11.00000    0.08289    0.05015 =
         0.12468    0.00939    0.05389   -0.01159
C01N  1    0.408644    0.705277    0.940914    11.00000    0.07949    0.07331 =
         0.13705    0.02100    0.04203    0.01687
C01O  1    0.377556    0.893034    0.752173    11.00000    0.09698    0.07173 =
         0.15427   -0.02684   -0.03859    0.02596
AFIX  43
H01O  2    0.358173    0.878026    0.774111    11.00000   -1.20000
AFIX   0
C01P  1    0.594527    0.776158    0.960637    11.00000    0.07098    0.07735 =
         0.11605   -0.00513    0.00416    0.01497
AFIX  43
H01P  2    0.580733    0.797903    0.947405    11.00000   -1.20000
AFIX   0
C01Q  1    0.451033    0.643593    0.788919    11.00000    0.04987    0.04953 =
         0.10920    0.01258    0.01573    0.01159
C01R  1    0.607596    0.628386    0.448765    11.00000    0.06337    0.10169 =
         0.09426    0.00034    0.01153   -0.00621
AFIX  43
H01R  2    0.602160    0.647249    0.409482    11.00000   -1.20000
AFIX   0
C01S  1    0.615786    0.714764    0.965030    11.00000    0.10300    0.08851 =
         0.09743    0.02334   -0.01894    0.01506
AFIX  43
H01S  2    0.618126    0.688756    0.955941    11.00000   -1.20000
AFIX   0
C01T  1    0.639851    0.770606    0.769543    11.00000    0.03398    0.07471 =
         0.11420    0.00089   -0.00358    0.00485
C01U  1    0.548817    0.579350    0.834854    11.00000    0.03957    0.06724 =
         0.20606    0.04907    0.02628    0.01067
AFIX  43
H01U  2    0.522917    0.574238    0.837791    11.00000   -1.20000
AFIX   0
C01V  1    0.519309    0.594033    0.433642    11.00000    0.05140    0.06790 =
         0.10771   -0.00143   -0.00982    0.00649
AFIX  43
H01V  2    0.512000    0.614841    0.401307    11.00000   -1.20000
AFIX   0
C01W  1    0.437647    0.869434    0.909027    11.00000    0.06824    0.06491 =
         0.11046   -0.00824    0.00251    0.01370
AFIX  43
H01W  2    0.424168    0.847499    0.922313    11.00000   -1.20000
AFIX   0
C01X  1    0.482497    0.910468    0.853724    11.00000    0.06578    0.05235 =
         0.12965   -0.02204   -0.01581    0.00132
AFIX  43
H01X  2    0.503109    0.919820    0.823425    11.00000   -1.20000
AFIX   0
C01Y  1    0.384927    0.770281    0.500268    11.00000    0.07221    0.05175 =
         0.14955    0.00095   -0.03803   -0.00611
C01Z  1    0.615422    0.594665    0.574341    11.00000    0.05827    0.06696 =
         0.13232   -0.03800   -0.01843    0.02234
AFIX  43
H01Z  2    0.616351    0.588315    0.631249    11.00000   -1.20000
AFIX   0
C020  1    0.657591    0.735967    0.781114    11.00000    0.07187    0.10914 =
         0.09665   -0.01704   -0.01371    0.02989
AFIX  43
H020  2    0.650418    0.712688    0.758340    11.00000   -1.20000
AFIX   0
C021  1    0.689765    0.743385    0.836189    11.00000    0.05563    0.21402 =
         0.13539    0.01193   -0.01823    0.05489
AFIX  43
H021  2    0.707360    0.725302    0.853675    11.00000   -1.20000
AFIX   0
C022  1    0.580258    0.797066    0.484916    11.00000    0.05926    0.08018 =
         0.11226    0.03946    0.01063    0.00185
C023  1    0.379594    0.687463    0.575718    11.00000    0.06812    0.04327 =
         0.14658   -0.00389   -0.00456   -0.00095
C024  1    0.616282    0.841616    0.383651    11.00000    0.11804    0.11091 =
         0.10597    0.03862    0.02337   -0.00997
AFIX  43
H024  2    0.627930    0.857728    0.422308    11.00000   -1.20000
AFIX   0
C025  1    0.639326    0.736952    1.014842    11.00000    0.09634    0.12671 =
         0.08818    0.01140   -0.03199    0.00904
AFIX  43
H025  2    0.660525    0.728142    1.043921    11.00000   -1.20000
AFIX   0
C026  1    0.422365    0.623873    0.840360    11.00000    0.06918    0.05140 =
         0.14711    0.02790    0.03064    0.00608
C027  1    0.576576    0.554960    0.856887    11.00000    0.05222    0.07136 =
         0.23217    0.06573    0.01777    0.00906
AFIX  43
H027  2    0.573298    0.530728    0.879164    11.00000   -1.20000
AFIX   0
C028  1    0.593586    0.811107    0.401754    11.00000    0.08995    0.08971 =
         0.09018    0.00065    0.00037   -0.00029
C029  1    0.531434    0.554506    0.544854    11.00000    0.06154    0.05751 =
         0.09930    0.00032    0.01063    0.01108
AFIX  43
H029  2    0.532821    0.544723    0.599265    11.00000   -1.20000
AFIX   0
C02A  1    0.536124    0.558703    0.403028    11.00000    0.07148    0.08622 =
         0.11154   -0.02720   -0.00950   -0.01555
AFIX  43
H02A  2    0.540740    0.552475    0.346944    11.00000   -1.20000
AFIX   0
C02B  1    0.429598    0.602314    0.914705    11.00000    0.10249    0.07626 =
         0.15086    0.03720    0.03979    0.01737
AFIX  43
H02B  2    0.453171    0.597016    0.938497    11.00000   -1.20000
AFIX   0
C02C  1    0.659324    0.799405    0.819134    11.00000    0.05520    0.10848 =
         0.10955    0.01062   -0.00359   -0.01774
AFIX  43
H02C  2    0.652159    0.824785    0.823086    11.00000   -1.20000
AFIX   0
C02D  1    0.382404    0.625474    0.827628    11.00000    0.06883    0.08286 =
         0.16596    0.01658    0.04736    0.00458
AFIX  43
H02D  2    0.369824    0.637854    0.783958    11.00000   -1.20000
AFIX   0
C02E  1    0.626696    0.571206    0.505939    11.00000    0.06479    0.08413 =
         0.18230   -0.02733    0.00590    0.01944
AFIX  43
H02E  2    0.635181    0.546246    0.510189    11.00000   -1.20000
AFIX   0
C02F  1    0.393160    0.590447    0.945388    11.00000    0.10633    0.08284 =
         0.17986    0.04537    0.05694   -0.01179
AFIX  43
H02F  2    0.388944    0.575444    0.992771    11.00000   -1.20000
AFIX   0
C02G  1    0.543831    0.536532    0.471134    11.00000    0.08001    0.05567 =
         0.13038    0.00209    0.00270   -0.00025
AFIX  43
H02G  2    0.555613    0.512890    0.469019    11.00000   -1.20000
AFIX   0
C02H  1    0.431346    0.686641    1.000843    11.00000    0.10605    0.10515 =
         0.12349    0.03299    0.03792    0.02478
AFIX  43
H02H  2    0.457776    0.686308    1.000602    11.00000   -1.20000
AFIX   0
C02I  1    0.381417    0.932585    0.763459    11.00000    0.12797    0.08762 =
         0.20329   -0.05394   -0.07363    0.06440
AFIX  43
H02I  2    0.365448    0.948239    0.794738    11.00000   -1.20000
AFIX   0
C02J  1    0.622992    0.591461    0.432651    11.00000    0.07360    0.11328 =
         0.16260   -0.08054    0.06005   -0.02191
AFIX  43
H02J  2    0.629601    0.582424    0.379509    11.00000   -1.20000
AFIX   0
C02K  1    0.690332    0.783087    0.859738    11.00000    0.06620    0.18183 =
         0.12155   -0.01454   -0.01689   -0.01143
AFIX  43
H02K  2    0.707776    0.795176    0.894707    11.00000   -1.20000
AFIX   0
C02L  1    0.348078    0.675638    0.517613    11.00000    0.11907    0.06207 =
         0.18338   -0.02371   -0.02048   -0.00404
C02M  1    0.618633    0.843932    0.292884    11.00000    0.12747    0.12757 =
         0.12768    0.00074    0.00089   -0.00024
AFIX  43
H02M  2    0.632305    0.862464    0.264093    11.00000   -1.20000
AFIX   0
C02N  1    0.369720    0.697304    0.963464    11.00000    0.08299    0.07977 =
         0.19261    0.04054    0.07451    0.01483
AFIX  43
H02N  2    0.348227    0.705906    0.935155    11.00000   -1.20000
AFIX   0
C02O  1    0.429384    0.912148    0.682381    11.00000    0.10523    0.05174 =
         0.18185   -0.00060   -0.03220    0.00288
AFIX  43
H02O  2    0.451094    0.911133    0.648992    11.00000   -1.20000
AFIX   0
C02P  1    0.457376    0.932241    0.904484    11.00000    0.09040    0.07798 =
         0.16044   -0.04284   -0.03604    0.01838
AFIX  43
H02P  2    0.458925    0.958198    0.915010    11.00000   -1.20000
AFIX   0
C02Q  1    0.626476    0.774576    1.014910    11.00000    0.10302    0.13175 =
         0.09185   -0.01388   -0.01745   -0.01742
AFIX  43
H02Q  2    0.636931    0.794741    1.044914    11.00000   -1.20000
AFIX   0
C02R  1    0.491568    0.719368    0.439743    11.00000    0.06666    0.08310 =
         0.11982   -0.00553   -0.01260   -0.00260
AFIX 137
H02L  2    0.507654    0.736833    0.409912    11.00000   -1.50000
H02R  2    0.466460    0.720084    0.416096    11.00000   -1.50000
H02S  2    0.501681    0.694125    0.434778    11.00000   -1.50000
AFIX   0
C02S  1    0.365555    0.604840    0.893431    11.00000    0.08758    0.08329 =
         0.26162    0.01360    0.06890   -0.01597
AFIX  43
H02T  2    0.339550    0.601435    0.900717    11.00000   -1.20000
AFIX   0
C02T  1    0.429529    0.906933    0.936017    11.00000    0.09570    0.09998 =
         0.15905   -0.03802   -0.00887    0.03286
AFIX  43
H02U  2    0.408963    0.913891    0.969477    11.00000   -1.20000
AFIX   0
C02U  1    0.583839    0.795782    0.325089    11.00000    0.12251    0.12213 =
         0.12226    0.00083    0.00050    0.00029
AFIX  43
H02V  2    0.568924    0.774175    0.318306    11.00000   -1.20000
AFIX   0
C02V  1    0.516962    0.864995    0.397061    11.00000    0.10962    0.10931 =
         0.10984    0.00044   -0.00017   -0.00014
C02W  1    0.354974    0.658296    0.437661    11.00000    0.14560    0.09363 =
         0.18927   -0.05674   -0.06364    0.01232
AFIX  43
H02W  2    0.378049    0.650053    0.415664    11.00000   -1.20000
AFIX   0
C02X  1    0.415634    0.944501    0.716205    11.00000    0.19929    0.04774 =
         0.20208   -0.00597   -0.10183    0.02480
AFIX  43
H02X  2    0.425489    0.968913    0.710975    11.00000   -1.20000
AFIX   0
C02Y  1    0.599666    0.817451    0.256592    11.00000    0.13918    0.13915 =
         0.13863   -0.00001    0.00051    0.00015
AFIX  43
H02Y  2    0.596792    0.813212    0.199040    11.00000   -1.20000
AFIX   0
C02Z  1    0.542370    0.896685    0.392618    11.00000    0.11689    0.11682 =
         0.11680    0.00079    0.00029   -0.00032
AFIX  43
H02Z  2    0.553667    0.909877    0.436840    11.00000   -1.20000
AFIX   0
C030  1    0.409114    0.669138    1.059321    11.00000    0.15857    0.11740 =
         0.16579    0.06306    0.07155    0.02080
AFIX  43
H030  2    0.417680    0.656050    1.106611    11.00000   -1.20000
AFIX   0
C031  1    0.370065    0.674397    1.035275    11.00000    0.13436    0.09703 =
         0.19469    0.02845    0.10094   -0.00102
AFIX  13
H031  2    0.347752    0.664765    1.065472    11.00000   -1.20000
AFIX   0
C032  1    0.546251    0.903232    0.304286    11.00000    0.14022    0.14003 =
         0.14014    0.00050    0.00032   -0.00003
AFIX  43
H032  2    0.561374    0.922298    0.281389    11.00000   -1.20000
AFIX   0
C034  1    0.311188    0.751233    0.345999    11.00000    0.16030    0.16031 =
         0.16067   -0.00003   -0.00071   -0.00014
AFIX  13
H034  2    0.284474    0.750085    0.328685    11.00000   -1.20000
AFIX   0
C035  1    0.293925    0.670551    0.450792    11.00000    0.15402    0.15453 =
         0.15486   -0.00024   -0.00075   -0.00026
AFIX  13
H035  2    0.267135    0.673726    0.435410    11.00000   -1.20000
AFIX   0
C036  1    0.317081    0.656445    0.397904    11.00000    0.13132    0.16665 =
         0.23312   -0.09592   -0.03469   -0.04386
AFIX  13
H036  2    0.310818    0.645131    0.343153    11.00000   -1.20000
AFIX   0
C037  1    0.359075    0.761995    0.427681    11.00000    0.13703    0.12173 =
         0.16828    0.01043   -0.00602   -0.00169
C038  1    0.506453    0.851761    0.317409    11.00000    0.13032    0.13052 =
         0.13049    0.00049    0.00008   -0.00013
AFIX  43
H038  2    0.491149    0.831071    0.304024    11.00000   -1.20000
AFIX   0
C039  1    0.320737    0.767306    0.428160    11.00000    0.16314    0.16306 =
         0.16380    0.00009   -0.00045    0.00007
AFIX  43
H039  2    0.305140    0.778071    0.469055    11.00000   -1.20000
AFIX   0
C21   1    0.307863    0.685789    0.530534    11.00000    0.15985    0.16049 =
         0.16078   -0.00043   -0.00011    0.00029
AFIX  43
H21   2    0.295480    0.697897    0.574851    11.00000   -1.20000
AFIX   0
C22   1    0.337976    0.737329    0.294160    11.00000    0.17555    0.17565 =
         0.17523   -0.00037   -0.00042   -0.00009
AFIX  43
H22   2    0.336941    0.726462    0.240733    11.00000   -1.20000
AFIX   0
C24   1    0.369685    0.745500    0.352508    11.00000    0.17648    0.17683 =
         0.17679    0.00012   -0.00037   -0.00010
AFIX  43
H24   2    0.394850    0.739936    0.339483    11.00000   -1.20000
AFIX   0
C0AA  1    0.525917    0.879133    0.258293    11.00000    0.15115    0.15126 =
         0.15071    0.00058    0.00006    0.00032
AFIX  43
H0AA  2    0.524006    0.879130    0.199783    11.00000   -1.20000
AFIX   0
HKLF 4




REM  5-3-4_auto_a.res in P4(2)/n
REM R1 =  0.0644 for   12306 Fo > 4sig(Fo)  and  0.1105 for all   22086 data
REM   1083 parameters refined using    240 restraints

END

WGHT      0.1148      0.0000

REM Highest difference peak  1.932,  deepest hole -1.536,  1-sigma level  0.141
Q1    1   0.5381  0.6605  0.6927  11.00000  0.05    1.93
Q2    1   0.3149  0.7183  0.4909  11.00000  0.05    1.69
Q3    1   0.4871  0.7586  0.6948  11.00000  0.05    1.59
Q4    1   0.5405  0.8387  0.7070  11.00000  0.05    1.52
Q5    1   0.4604  0.6931  0.5476  11.00000  0.05    1.49
Q6    1   0.5450  0.7389  0.5347  11.00000  0.05    1.46
Q7    1   0.5426  0.8336  0.6015  11.00000  0.05    1.34
Q8    1   0.4882  0.7589  0.8182  11.00000  0.05    1.27
Q9    1   0.4141  0.6615  0.9911  11.00000  0.05    1.25
Q10   1   0.5366  0.6593  0.8084  11.00000  0.05    1.21
Q11   1   0.4588  0.7884  0.5001  11.00000  0.05    1.15
Q12   1   0.3859  0.7635  0.7730  11.00000  0.05    1.12
Q13   1   0.5810  0.6006  0.4365  11.00000  0.05    1.03
Q14   1   0.4583  0.7887  0.6399  11.00000  0.05    0.95
Q15   1   0.4574  0.6909  0.6961  11.00000  0.05    0.94
Q16   1   0.4550  0.7084  0.6720  11.00000  0.05    0.91
Q17   1   0.5356  0.7497  0.6355  11.00000  0.05    0.84
Q18   1   0.4510  0.7953  0.6226  11.00000  0.05    0.84
Q19   1   0.6380  0.7423  0.9353  11.00000  0.05    0.80
Q20   1   0.4217  0.9098  0.7547  11.00000  0.05    0.78
Q21   1   0.4228  0.9061  0.8706  11.00000  0.05    0.76
Q22   1   0.2799  0.6693  0.5099  11.00000  0.05    0.75
Q23   1   0.3085  0.7662  0.4909  11.00000  0.05    0.74
Q24   1   0.6404  0.7705  0.9079  11.00000  0.05    0.74
Q25   1   0.5397  0.7391  0.6639  11.00000  0.05    0.71
Q26   1   0.2918  0.7522  0.4109  11.00000  0.05    0.70
Q27   1   0.3057  0.6798  0.5899  11.00000  0.05    0.69
Q28   1   0.6504  0.7488  0.8563  11.00000  0.05    0.68
Q29   1   0.6423  0.7528  0.8359  11.00000  0.05    0.67
;
_shelx_res_checksum              79803
_shelx_fab_file
;
0 0 2 -86.2724 -5.5629
0 0 4 -103.9414 8.7051
0 0 6 -10.5933 1.2502
0 0 8 17.0488 -1.6466
0 0 10 2.1183 -1.8925
0 0 12 -1.5643 -0.6020
0 0 14 -1.1150 1.2150
0 0 16 28.1924 1.2145
0 0 18 11.5091 -0.2762
0 0 20 10.7185 -2.1684
0 1 1 326.3841 12.1337
0 1 3 96.2801 3.4402
0 1 4 -13.5124 2.0134
0 1 5 2.7560 0.1011
0 1 6 -8.1966 -2.1027
0 1 7 0.4764 -0.4379
0 1 8 -0.2446 -1.9278
0 1 9 4.9289 -0.5268
0 1 10 6.9724 -0.0082
0 1 11 1.7196 0.7715
0 1 12 1.4992 1.1546
0 1 13 -1.2521 0.6529
0 1 14 -5.4010 0.8496
0 1 15 -4.7678 0.5735
0 1 16 3.6004 -0.3021
0 1 17 1.3410 -0.1462
0 1 18 4.6091 -0.5037
0 1 19 5.7660 -0.3141
0 1 20 9.7090 -0.4967
0 2 0 0.7236 -6.6243
0 2 1 -189.3904 -6.4565
0 2 2 4.0898 -2.5875
0 2 3 120.6669 0.8902
0 2 4 41.2824 -0.8060
0 2 5 16.0574 -1.5064
0 2 6 -4.9297 0.5452
0 2 7 4.3384 -1.4134
0 2 8 -1.4130 0.5481
0 2 9 -5.9298 1.4424
0 2 10 1.4448 -0.7375
0 2 11 2.4730 1.2006
0 2 12 -1.9544 0.0797
0 2 13 6.5755 -0.1600
0 2 14 -12.9162 0.4025
0 2 15 -12.4507 -0.5531
0 2 16 -22.0358 0.1515
0 2 17 1.6511 -0.4691
0 2 18 -19.5726 -0.1921
0 2 19 -0.5322 0.2921
0 2 20 5.9203 -0.3893
0 3 1 -108.2924 -4.9429
0 3 2 23.8273 -5.1394
0 3 3 -69.9524 -0.1653
0 3 4 5.5361 -3.5267
0 3 5 20.9710 -0.0868
0 3 6 8.6182 -1.0502
0 3 7 -1.5610 -0.6857
0 3 8 -7.7239 0.8225
0 3 9 5.7201 0.7839
0 3 10 -2.2559 1.0455
0 3 11 -3.3470 -0.3506
0 3 12 -0.3563 -0.3009
0 3 13 5.4524 -0.5932
0 3 14 9.5390 -0.8332
0 3 15 19.9808 -0.5619
0 3 16 -5.4614 -0.2290
0 3 17 -8.7059 0.0177
0 3 18 -5.5051 0.8568
0 3 19 -4.2629 0.3816
0 3 20 -2.1525 0.3609
0 4 1 -152.1954 2.2553
0 4 2 9.2010 -2.3301
0 4 3 50.7694 -0.5553
0 4 4 -17.1794 4.2916
0 4 5 6.3640 0.4220
0 4 6 1.6050 1.5524
0 4 7 6.6113 -1.2074
0 4 8 -3.4549 -0.7337
0 4 9 -2.9730 -0.4456
0 4 10 4.7992 -0.8937
0 4 11 1.0403 0.3060
0 4 12 -3.9067 -1.4706
0 4 13 -3.4092 -0.0145
0 4 14 -2.7544 0.2021
0 4 15 4.1954 -0.1859
0 4 16 13.2345 1.2643
0 4 17 -3.5946 -0.2235
0 4 18 -5.8420 0.3186
0 4 19 -4.7884 0.4245
0 4 20 -1.9770 -0.7644
0 5 1 34.6079 5.2789
0 5 3 -19.8491 2.8448
0 5 4 -9.2138 -0.8848
0 5 5 0.6870 2.1386
0 5 6 1.3188 1.6276
0 5 7 9.0814 -0.6570
0 5 8 -6.3484 0.2380
0 5 9 2.7133 -0.9903
0 5 10 4.0568 -0.5365
0 5 11 -0.3887 0.6359
0 5 12 0.6681 0.3976
0 5 13 -7.2836 0.3331
0 5 14 -4.6198 0.5662
0 5 15 -5.3361 0.1907
0 5 16 -6.6957 0.1812
0 5 17 10.5296 0.2155
0 5 18 7.7200 0.1116
0 5 19 -9.6567 0.0406
0 5 20 9.8027 -0.1761
0 6 0 79.8078 6.5169
0 6 2 36.3260 3.0728
0 6 3 -39.6138 0.9793
0 6 4 7.2428 4.4253
0 6 5 -9.4728 -0.8477
0 6 6 -14.5205 0.7451
0 6 7 11.6369 -1.2442
0 6 8 -2.6602 0.1126
0 6 9 -4.4614 1.0328
0 6 10 -1.9864 -0.7841
0 6 11 4.6905 0.4447
0 6 12 0.0125 -0.6332
0 6 13 2.1398 -0.2907
0 6 14 15.8367 -0.0400
0 6 15 0.9174 -0.0681
0 6 16 -1.8291 0.8495
0 6 17 -3.0079 -0.3386
0 6 18 0.8775 0.0363
0 6 19 15.9808 -0.4395
0 6 20 -0.8941 -0.3388
0 7 1 45.8773 4.5963
0 7 2 41.7567 2.6804
0 7 3 31.0168 0.1570
0 7 4 32.5512 -0.0521
0 7 5 -12.2730 -0.4234
0 7 6 -0.0680 -1.0035
0 7 7 1.4837 -0.2355
0 7 8 -3.1437 0.7791
0 7 9 6.1799 -0.4883
0 7 10 -5.7434 0.7164
0 7 11 -1.3850 0.2032
0 7 12 -2.0389 -0.9073
0 7 13 -1.9998 0.2176
0 7 14 1.1286 -0.9260
0 7 15 1.6430 -0.7557
0 7 16 2.5860 -0.0398
0 7 17 -8.7193 -0.2614
0 7 18 -1.2760 0.0766
0 7 19 -20.0967 0.2245
0 7 20 -1.7249 -0.1704
0 8 0 14.2407 -16.5131
0 8 2 24.8378 -3.3026
0 8 4 30.6662 -0.1474
0 8 5 23.1967 -0.4549
0 8 6 -7.9894 0.0862
0 8 7 11.5496 -1.9302
0 8 8 1.7587 0.1070
0 8 9 -0.4271 0.7664
0 8 10 3.0046 -0.4504
0 8 11 -2.4269 0.7304
0 8 12 -8.8793 -0.3841
0 8 13 1.0127 -0.0505
0 8 14 -1.7098 0.1478
0 8 15 3.1195 -0.0745
0 8 16 5.0029 0.5270
0 8 17 11.6339 -0.1177
0 8 18 17.1828 0.3564
0 8 19 1.9772 -0.1374
0 8 20 -8.8324 -0.2440
0 9 1 47.7163 -7.9391
0 9 3 11.5827 1.0717
0 9 4 -16.0247 -0.3105
0 9 5 5.7228 -0.4633
0 9 6 3.3241 1.9131
0 9 7 -10.3005 -0.3596
0 9 8 1.2456 -0.1523
0 9 9 4.5722 0.7850
0 9 10 -0.6000 -0.3121
0 9 11 1.5430 -0.2462
0 9 12 -3.6781 0.7255
0 9 13 1.8337 0.1788
0 9 14 -2.6885 -0.0990
0 9 15 -8.8155 0.6997
0 9 16 -7.7204 -0.5750
0 9 17 -1.8748 -0.3990
0 9 18 19.3935 0.3118
0 9 19 -0.4093 -0.3359
0 9 20 2.8630 -0.0436
0 10 0 -45.3352 28.5512
0 10 1 43.4423 13.1320
0 10 2 26.4520 2.2770
0 10 3 -13.9197 -0.6760
0 10 4 -12.1536 -2.1711
0 10 5 3.1426 -1.4625
0 10 6 -4.5309 -0.1352
0 10 7 -2.6946 0.3922
0 10 8 -9.9711 0.5405
0 10 9 -2.8750 1.4021
0 10 10 10.2209 1.0742
0 10 11 3.9615 0.9484
0 10 12 3.1819 -0.2211
0 10 13 3.8381 -0.0904
0 10 14 6.4435 -0.6329
0 10 15 6.2375 -0.2280
0 10 16 -7.9458 -0.1855
0 10 17 -16.9234 -0.4123
0 10 18 -9.7264 0.2819
0 10 19 -7.3267 0.3422
0 10 20 17.3587 0.8004
0 11 1 14.7386 -7.4390
0 11 2 -31.1191 3.5661
0 11 3 18.4271 -4.7388
0 11 4 20.9370 -0.9134
0 11 5 -8.2698 0.7518
0 11 6 17.1520 -0.3244
0 11 7 3.9649 -0.1279
0 11 8 -7.4678 0.9155
0 11 9 -4.3070 -1.0257
0 11 10 -1.4174 0.9947
0 11 11 2.6007 -0.5817
0 11 12 4.6016 -1.0176
0 11 13 3.6470 0.0654
0 11 14 5.2128 -0.7777
0 11 15 -0.5395 -0.2781
0 11 16 22.4759 0.6037
0 11 17 5.7775 0.3082
0 11 18 0.4908 0.1887
0 11 19 -23.4412 0.6237
0 11 20 -5.2460 0.6375
0 12 0 -21.8610 -4.4384
0 12 1 3.8830 -5.3993
0 12 2 28.3089 -1.2934
0 12 3 -25.2101 -5.3554
0 12 4 0.8385 -2.8165
0 12 5 0.5840 -0.0181
0 12 6 -6.7086 -0.4431
0 12 7 10.3953 -0.3848
0 12 8 -4.8964 0.9006
0 12 9 -5.0726 -1.5693
0 12 10 -2.8589 0.3154
0 12 11 -4.2549 0.1329
0 12 12 0.2327 -0.9898
0 12 13 0.1991 0.2447
0 12 14 2.6770 -0.2867
0 12 15 -1.9946 0.0634
0 12 16 6.9824 0.3170
0 12 17 8.3663 0.2870
0 12 18 13.5565 0.5011
0 12 19 2.2310 -0.0486
0 13 1 -7.3450 -1.4148
0 13 2 -21.1318 -0.7608
0 13 3 -3.2558 3.0246
0 13 4 -9.4331 0.1374
0 13 5 -1.9823 0.2141
0 13 6 -3.9801 2.5061
0 13 7 2.0700 -1.6486
0 13 8 6.9126 0.2327
0 13 9 -0.7163 0.4904
0 13 10 -1.4781 -0.4390
0 13 11 1.1718 -0.0815
0 13 12 -3.9373 0.5842
0 13 13 1.7641 0.2727
0 13 14 1.6937 0.6402
0 13 15 -5.2119 0.5156
0 13 16 6.7402 0.0648
0 13 17 -4.6156 -0.3917
0 13 18 2.8390 -0.1867
0 13 19 -6.9931 -0.4868
0 14 0 6.4446 32.9809
0 14 1 19.4331 3.4689
0 14 2 16.1357 1.7368
0 14 3 -1.8295 -1.0037
0 14 4 -13.1544 2.9971
0 14 5 -2.0911 -3.8518
0 14 6 -0.2554 0.6886
0 14 7 -0.1843 0.0734
0 14 8 -1.0733 0.4677
0 14 9 2.2634 1.6663
0 14 10 1.9509 0.3422
0 14 11 -3.6954 0.1115
0 14 12 -8.3604 0.6766
0 14 13 -3.2263 -0.2265
0 14 14 -11.2654 -0.3736
0 14 15 -4.5258 -0.4708
0 14 16 1.7327 -0.1773
0 14 17 1.2048 0.0078
0 14 18 14.1514 -0.1740
0 14 19 -3.4225 0.0955
0 15 1 -0.2561 6.8131
0 15 2 8.6020 3.9728
0 15 3 6.7875 -1.7087
0 15 4 13.0997 1.8999
0 15 5 -8.8766 0.6199
0 15 6 0.6715 -3.1817
0 15 7 -1.6318 -0.1751
0 15 8 1.2217 -1.4066
0 15 9 1.7287 -0.3467
0 15 10 6.3124 0.6115
0 15 11 2.3988 -1.2972
0 15 12 -3.1259 -0.0301
0 15 13 0.5012 -0.0485
0 15 14 -2.3755 0.0640
0 15 15 -10.4683 -0.2867
0 15 16 5.5311 -0.3081
0 15 17 -16.5294 0.0645
0 15 18 1.7393 -0.4264
0 15 19 -8.5187 0.4633
0 16 0 -19.7921 18.4218
0 16 1 -5.9026 -10.6379
0 16 2 -4.2996 0.6417
0 16 3 -13.6404 -3.0714
0 16 4 3.7952 -1.3360
0 16 5 1.8042 0.2853
0 16 6 -0.6253 -0.5020
0 16 7 -1.8320 0.1575
0 16 8 -6.0435 0.0473
0 16 9 -1.3929 -0.7493
0 16 10 1.2965 0.2483
0 16 11 0.8667 -0.0136
0 16 12 6.1209 -0.8766
0 16 13 1.5278 0.3076
0 16 14 5.1342 -0.9442
0 16 15 -2.1476 -0.1539
0 16 16 2.9707 -0.7818
0 16 17 4.7897 0.0355
0 16 18 -2.5783 0.5224
0 16 19 -3.4649 0.2546
0 17 1 -6.8425 -4.2139
0 17 2 4.6165 0.9276
0 17 3 -4.7641 -0.4053
0 17 4 -3.2556 -0.8865
0 17 5 4.1140 0.9480
0 17 6 4.1914 0.8216
0 17 7 -0.7879 1.7162
0 17 8 -1.4890 1.0316
0 17 9 -0.8233 -0.0356
0 17 10 -7.2341 -0.1598
0 17 11 -4.7362 0.5281
0 17 12 -1.9064 0.1148
0 17 13 -1.2013 -0.2406
0 17 14 -0.8766 0.1380
0 17 15 3.1326 0.4373
0 17 16 0.7260 0.2910
0 17 17 6.1338 0.1660
0 17 18 8.0737 0.2652
0 17 19 -5.5854 0.3877
0 18 0 -2.2223 14.9821
0 18 1 9.3960 -2.0112
0 18 2 3.5830 -0.3416
0 18 3 -2.3582 -0.0967
0 18 4 -8.0551 1.3883
0 18 5 -2.3573 0.2711
0 18 6 -3.3132 1.4550
0 18 7 2.6202 1.2790
0 18 8 2.1638 0.1332
0 18 9 -0.0831 0.7699
0 18 10 5.2560 -0.6770
0 18 11 -0.9550 0.3404
0 18 12 -2.6915 -0.1398
0 18 13 3.5486 0.2723
0 18 14 -7.7837 0.0515
0 18 15 2.0465 0.1505
0 18 16 -5.1611 0.3268
0 18 17 1.8711 -0.0028
0 18 18 2.6771 -0.0438
0 19 1 -2.7580 -1.9224
0 19 2 3.7711 2.9395
0 19 3 0.8336 -3.6812
0 19 4 -2.8675 1.0493
0 19 5 -3.3644 -0.8700
0 19 6 1.8473 -1.5656
0 19 7 -1.6141 1.0705
0 19 8 -2.6809 -1.0913
0 19 9 5.2854 0.0623
0 19 10 -1.1346 -0.3282
0 19 11 -2.1133 -0.4382
0 19 12 8.0415 0.3064
0 19 13 8.6881 -0.1743
0 19 14 -8.4217 -0.1169
0 19 15 -4.8302 -0.9272
0 19 16 -6.2910 0.1432
0 19 17 8.7145 -0.3459
0 19 18 -2.2602 -0.0502
0 20 0 4.1902 -17.5645
0 20 1 -1.5263 -7.0496
0 20 2 3.7620 -1.4537
0 20 3 0.9947 -2.9860
0 20 4 -8.1863 -0.6957
0 20 5 -1.2252 0.0266
0 20 6 -2.4371 -1.2628
0 20 7 -2.3243 -0.3007
0 20 8 -7.4933 -0.6051
0 20 9 -4.8394 -0.4993
0 20 10 -5.1750 0.1515
0 20 11 -3.9231 0.4029
0 20 12 -1.6713 -0.2631
0 20 13 -3.2605 0.3030
0 20 14 10.2811 0.4182
0 20 15 0.2707 -0.1281
0 20 16 -31.8041 -0.1243
0 20 17 -2.7077 -0.1226
0 20 18 -10.6042 0.0510
0 21 1 -5.4751 -1.7454
0 21 2 4.1658 1.4948
0 21 3 0.9664 2.0357
0 21 4 -8.0392 1.2318
0 21 5 -2.2808 -0.5534
0 21 6 -0.9007 0.3258
0 21 7 5.6060 -0.1892
0 21 8 -2.7131 -0.5330
0 21 9 4.6291 0.6045
0 21 10 -3.6475 -0.4979
0 21 11 -11.0273 -0.0532
0 21 12 3.2504 1.0710
0 21 13 9.2571 -0.2700
0 21 14 4.3162 0.8601
0 21 15 14.9393 0.3028
0 21 16 10.5834 -0.2584
0 21 17 -4.9309 0.1934
0 21 18 -8.4793 0.3197
0 22 0 -2.8524 -1.3036
0 22 1 -1.0654 5.3232
0 22 2 3.3549 -1.6339
0 22 3 2.1100 0.9051
0 22 4 -0.1676 2.4288
0 22 5 -3.3669 0.8252
0 22 6 -4.8038 0.8621
0 22 7 6.0131 0.0268
0 22 8 1.4027 0.2313
0 22 10 7.9083 -0.1226
0 22 11 1.8940 0.5611
0 22 12 -1.0936 0.0336
0 22 13 -9.7889 -0.1287
0 22 14 1.0432 -0.0315
0 22 15 10.2953 -0.0390
0 22 16 -0.8473 0.2375
0 22 17 11.9838 0.0159
0 22 18 7.2580 0.3445
0 23 1 -3.9490 -1.0380
0 23 2 2.0718 2.3645
0 23 3 -1.6134 -6.6066
0 23 4 1.5522 -1.5160
0 23 5 -2.7181 -1.4670
0 23 6 3.5653 -1.2991
0 23 7 -2.1129 1.1814
0 23 8 -2.9369 -0.1959
0 23 9 0.7758 0.0159
0 23 10 -4.1683 0.6000
0 23 11 2.4221 -0.0374
0 23 12 4.9175 -0.3244
0 23 13 9.6588 -0.4684
0 23 14 -14.2192 -0.1065
0 23 15 -15.6247 -0.4533
0 23 16 -17.9288 0.1495
0 23 17 -5.2685 0.0260
0 24 0 3.5348 -18.4775
0 24 1 1.0688 -0.8765
0 24 2 -0.1958 0.5677
0 24 3 1.0644 1.6399
0 24 4 -3.2342 0.2858
0 24 5 -2.8993 0.1440
0 24 6 0.8661 0.5450
0 24 7 0.6592 -1.0106
0 24 8 2.2125 -0.3115
0 24 9 -5.1610 -1.0571
0 24 10 -4.8731 -0.6710
0 24 11 -6.1758 -0.1191
0 24 12 2.5716 -0.1992
0 24 13 9.7219 0.0356
0 24 14 10.3712 -0.1195
0 24 15 17.6185 0.1993
0 24 16 -16.0764 0.3695
0 24 17 -5.4652 -0.0313
0 25 1 1.9891 -2.7397
0 25 2 -3.5458 1.5040
0 25 3 5.9052 0.0886
0 25 4 -0.5928 1.8854
0 25 5 -2.1741 -0.6291
0 25 6 -1.8499 0.6789
0 25 7 1.2227 1.5374
0 25 8 -6.2837 -0.2381
0 25 9 1.1742 0.4319
0 25 10 -10.5882 -0.7891
0 25 11 -9.5604 -0.0015
0 25 12 -5.6016 0.5767
0 25 13 -9.9869 -0.1240
0 25 14 13.4759 0.1491
0 25 15 4.8412 0.8899
0 25 16 3.6198 -0.1355
0 25 17 2.5401 0.1335
0 26 0 0.6385 -13.5234
0 26 1 1.5192 3.1589
0 26 2 -3.2315 -0.6878
0 26 3 -7.1731 3.5130
0 26 4 1.5573 2.2838
0 26 5 1.1454 0.5038
0 26 6 -0.7242 -0.0434
0 26 7 0.9344 -0.5111
0 26 8 2.2219 -0.1354
0 26 9 -1.7928 0.2812
0 26 10 0.0192 -0.4707
0 26 11 0.5023 0.1518
0 26 12 0.0896 -0.2410
0 26 13 -19.3570 0.5984
0 26 14 1.2514 0.2325
0 26 15 -9.0039 0.0043
0 26 16 4.6164 0.9114
0 27 1 1.9245 -2.9969
0 27 2 -2.2713 3.3909
0 27 3 0.2444 -1.8840
0 27 4 -4.0045 1.4139
0 27 5 -6.0508 0.1746
0 27 6 -2.3097 -2.0026
0 27 7 3.6567 -0.3109
0 27 8 -4.3028 -0.3375
0 27 9 1.9956 0.6514
0 27 10 7.8891 -0.0406
0 27 11 2.9839 0.4200
0 27 12 5.3138 -0.5886
0 27 13 -3.4420 -0.1987
0 27 14 0.1176 0.0215
0 27 15 -0.2954 -1.1740
0 27 16 -15.6819 0.3330
0 28 0 4.8825 -18.8222
0 28 1 2.0559 1.3175
0 28 2 1.6304 -1.2196
0 28 3 0.1803 2.2705
0 28 4 -0.1257 -0.1011
0 28 5 -3.3125 1.1112
0 28 6 -4.0298 0.4204
0 28 7 1.2480 -1.2881
0 28 8 1.5274 -0.5464
0 28 9 -11.5112 0.0930
0 28 10 -2.8158 -0.7782
0 28 11 8.2270 0.8208
0 28 12 26.3640 -0.6329
0 28 13 -2.8896 -0.8107
0 28 14 11.1694 0.9485
0 28 15 4.4812 -0.2954
0 28 16 9.2474 -0.7430
0 29 1 5.5454 -10.0043
0 29 2 0.7628 1.3165
0 29 3 2.0457 -0.9810
0 29 4 3.0032 0.5749
0 29 5 -0.1322 0.1969
0 29 6 -0.8161 0.7937
0 29 7 0.2515 1.6648
0 29 8 2.9385 -0.7003
0 29 9 1.3810 1.1138
0 29 10 -10.8119 0.1499
0 29 11 -18.1566 -0.7068
0 29 12 3.6293 0.8002
0 29 13 11.8277 -0.8932
0 29 14 -1.3813 -0.2444
0 29 15 -5.6214 1.5617
0 30 0 -1.1629 3.3824
0 30 1 -1.5194 2.4954
0 30 2 2.7435 0.4419
0 30 3 0.0785 -0.2612
0 30 4 0.5961 -0.2007
0 30 5 1.7542 -0.0525
0 30 6 0.1709 -0.6650
0 30 7 0.5311 0.1488
0 30 8 4.9512 0.3428
0 30 9 0.2882 -0.3540
0 30 10 9.0587 0.1016
0 30 11 -6.6445 -0.0232
0 30 12 7.3262 0.2614
0 30 13 -11.2468 0.4282
0 30 14 20.2279 0.1954
0 30 15 -4.3430 -0.4433
0 31 1 1.5738 -2.8810
0 31 2 -6.9315 1.4540
0 31 3 -2.5595 0.1640
0 31 4 -6.0394 0.1145
0 31 5 3.6115 0.7733
0 31 6 0.0140 -0.6088
0 31 7 2.1590 0.2625
0 31 8 1.6735 0.0522
0 31 9 7.0355 -0.0385
0 31 10 2.4320 0.1035
0 31 11 7.5729 -0.2125
0 31 12 14.0777 -0.9068
0 31 13 -3.6870 0.4976
0 31 14 8.5112 0.2070
0 31 15 9.5129 0.4556
0 32 0 -0.9857 -5.0512
0 32 1 1.9436 -3.0272
0 32 2 -0.0394 -2.0494
0 32 3 3.0836 -1.6457
0 32 4 -4.1127 0.3245
0 32 5 -5.5215 -0.9288
0 32 6 1.3628 0.9129
0 32 7 -1.4847 -1.0960
0 32 8 -4.4157 0.4978
0 32 9 -11.2923 0.3485
0 32 10 0.1449 -0.6419
0 32 11 -10.8560 -0.0343
0 32 12 14.1187 -0.1613
0 32 13 -11.6306 0.1585
0 32 14 9.2149 0.5972
0 33 1 2.8482 -4.0157
0 33 2 -0.1039 0.6945
0 33 3 4.2185 1.8084
0 33 4 7.9416 0.2911
0 33 5 -2.6272 -0.0830
0 33 6 -5.0233 -0.3996
0 33 7 4.5798 -0.6442
0 33 8 -11.0681 -1.3434
0 33 9 -3.2530 0.9068
0 33 10 -6.5709 -0.4672
0 33 11 -10.6328 0.4061
0 33 12 -5.1795 0.6434
0 33 13 -15.4217 0.3693
0 33 14 -3.9565 1.2724
0 34 0 1.2400 15.0222
0 34 1 -3.5989 -1.7373
0 34 2 0.4874 0.8119
0 34 3 -3.3923 -1.3930
0 34 4 -1.2414 1.7540
0 34 5 -3.8292 -0.3530
0 34 6 0.9297 -0.0999
0 34 7 2.0301 0.0638
0 34 8 -1.4499 0.0413
0 34 9 -9.0071 0.9115
0 34 10 4.6369 0.6357
0 34 11 -0.6014 0.4191
0 34 12 9.9277 0.0914
0 34 13 -8.4848 0.8854
0 35 1 2.0379 1.1213
0 35 2 4.8080 0.0751
0 35 3 2.3695 -0.9149
0 35 4 -4.3915 -1.5927
0 35 5 -2.0415 0.4915
0 35 6 0.8854 -0.4058
0 35 7 9.6855 0.0547
0 35 8 6.3571 0.4920
0 35 9 2.1432 -0.0766
0 35 10 -0.5043 0.9034
0 35 11 1.7875 0.2130
0 35 12 10.2033 -0.3533
0 35 13 0.4812 0.2802
0 36 0 -6.2384 7.7171
0 36 1 1.6250 -1.5171
0 36 2 2.5888 -0.2205
0 36 3 3.6942 -1.9453
0 36 4 4.2207 -1.7309
0 36 5 -4.9143 -1.1822
0 36 6 -5.2578 0.1511
0 36 7 -8.7925 0.7237
0 36 8 6.6588 0.4799
0 36 9 9.4910 -0.2829
0 36 10 5.8662 -0.2834
0 36 11 -10.7790 0.4813
0 36 12 5.8231 -0.2424
0 37 1 2.6143 1.5334
0 37 2 -5.1891 0.4319
0 37 3 -5.1536 1.3450
0 37 4 -3.2170 0.9174
0 37 5 -4.8222 0.4399
0 37 6 1.6752 0.4501
0 37 7 2.9851 0.7587
0 37 8 -17.7327 -0.0689
0 37 9 6.0458 0.6138
0 37 10 6.5933 -0.5459
0 37 11 6.4421 -0.7905
0 37 12 -8.8006 0.1537
0 38 0 2.6040 7.9722
0 38 1 -0.9997 -2.1337
0 38 2 -3.9502 -0.8372
0 38 3 0.6559 -1.1754
0 38 4 -0.9211 0.1711
0 38 5 -4.7589 -0.0375
0 38 6 -5.5419 0.3867
0 38 7 -4.7317 0.8303
0 38 8 5.6369 -0.2191
0 38 9 -9.8498 -0.1133
0 38 10 3.6286 -0.3948
0 38 11 2.5070 0.8459
0 39 1 14.2168 2.2886
0 39 2 -2.5369 0.0768
0 39 3 -1.1939 -0.3491
0 39 4 0.8983 -0.6416
0 39 5 -4.2499 -0.3815
0 39 6 -0.0186 -0.3503
0 39 7 -3.9864 -0.2025
0 39 8 -5.4287 0.3875
0 39 9 -5.3967 -0.5054
0 39 10 2.7262 1.9523
0 40 0 3.0210 11.7837
0 40 1 -1.1054 0.0637
0 40 2 9.7551 1.1716
0 40 3 6.0875 -0.6021
0 40 4 4.9694 -1.0568
0 40 5 -9.2876 0.1429
0 40 6 1.0694 -0.3153
0 40 7 -1.7969 0.4686
0 40 8 6.4249 0.3716
0 40 9 -6.5768 -0.2470
0 41 1 0.6379 1.9256
0 41 2 -4.1365 0.6745
0 41 3 7.7795 -0.0952
0 41 4 2.8005 -0.4721
0 41 5 -1.2214 -1.7358
0 41 6 -3.7225 0.5757
0 41 7 -2.1895 0.1987
0 41 8 5.8190 1.0290
0 42 0 6.9425 0.6526
0 42 1 5.4940 -2.4893
0 42 2 -1.0637 0.4716
0 42 3 7.5679 -1.2519
0 42 4 0.7065 -0.1123
0 42 5 0.6279 1.0038
0 42 6 -2.0880 -0.5579
0 42 7 -10.0626 0.9392
0 43 1 5.6426 0.3203
0 43 2 2.0023 0.9169
0 43 3 6.0278 0.3404
0 43 4 4.6810 0.5312
0 43 5 -3.2625 0.5934
0 43 6 -5.2098 0.4410
0 44 0 -3.2427 2.3697
0 44 1 -2.5522 -3.1441
0 44 2 -0.0204 -0.1718
0 44 3 -1.9880 -0.3151
0 44 4 8.7268 -1.3227
0 44 5 0.7159 0.9242
0 45 1 1.6245 0.0936
0 45 2 -4.8143 0.7144
0 45 3 5.5911 -0.3033
1 1 2 22.1295 1.9957
1 1 3 5.2505 1.3206
1 1 4 -6.7799 1.1660
1 1 5 20.5556 2.6154
1 1 6 2.8616 0.9292
1 1 7 6.4270 0.1922
1 1 8 -0.4693 0.0546
1 1 9 1.7902 -0.4951
1 1 10 -1.6376 -0.8225
1 1 11 -2.0000 -0.6215
1 1 12 -2.6053 0.1804
1 1 13 -0.8829 -0.4222
1 1 14 -16.8034 0.6765
1 1 15 0.7878 0.0529
1 1 16 -5.7001 -0.2567
1 1 17 2.8898 0.0515
1 1 18 -13.2666 -0.1650
1 1 19 0.9800 0.3471
1 1 20 4.7892 0.3408
1 2 1 16.8638 -5.8037
1 2 2 -47.3322 -1.6353
1 2 3 -21.8625 1.5700
1 2 4 -6.4782 0.5113
1 2 5 16.3805 1.6956
1 2 6 2.9080 1.7913
1 2 7 -5.1586 0.2205
1 2 8 7.1933 0.5302
1 2 9 4.7774 -0.9090
1 2 10 2.1723 0.3802
1 2 11 -0.9826 0.9889
1 2 12 0.0551 -0.1928
1 2 13 4.3243 0.3165
1 2 14 6.5942 -0.7257
1 2 15 5.2386 0.0506
1 2 16 -7.7728 -0.0947
1 2 17 21.6553 -0.3541
1 2 18 -4.6065 0.3098
1 2 19 10.0962 -0.3764
1 2 20 -2.5399 0.5112
1 3 0 41.8303 0.0229
1 3 1 17.7634 2.4239
1 3 2 82.6470 -2.3657
1 3 4 -53.5413 -2.2717
1 3 5 -3.4231 0.8048
1 3 6 1.4066 -1.8753
1 3 7 5.7288 -0.1410
1 3 8 -15.0747 0.4039
1 3 9 -3.0943 -0.6848
1 3 10 9.6059 0.3971
1 3 11 -1.7289 -0.2731
1 3 12 -4.2389 1.0592
1 3 13 -1.7903 0.1028
1 3 14 -8.1337 0.0476
1 3 15 -3.9422 0.0019
1 3 16 9.9733 -1.0095
1 3 17 -5.8540 -0.0683
1 3 18 -2.6263 -0.3542
1 3 19 -9.5034 0.3860
1 3 20 -5.7664 0.7867
1 4 1 -31.2122 -3.3899
1 4 2 -72.9322 -6.0722
1 4 3 84.4792 -0.6462
1 4 4 18.1784 -1.3333
1 4 5 -0.8853 1.4263
1 4 6 -2.7075 2.6223
1 4 7 -2.2358 -0.6787
1 4 8 1.8024 0.2652
1 4 9 -8.0548 -0.3414
1 4 10 1.6415 0.4939
1 4 11 -0.1509 -0.5233
1 4 12 -3.8258 -0.0435
1 4 13 -6.3524 -0.2090
1 4 14 -5.9324 -1.1128
1 4 15 -8.0350 0.2552
1 4 16 -0.5750 0.0471
1 4 17 14.0586 -0.0346
1 4 18 -5.4722 1.1673
1 4 19 10.4497 -0.5527
1 4 20 -1.9617 0.9187
1 5 0 -31.1967 -5.1768
1 5 1 109.2890 -0.3493
1 5 2 -38.9509 -0.7090
1 5 3 -45.1551 0.5816
1 5 4 6.0213 -1.7295
1 5 5 33.8164 -0.6530
1 5 6 7.6665 0.0854
1 5 7 10.9408 0.5758
1 5 8 -1.2343 0.0517
1 5 9 1.9760 -0.1688
1 5 10 -1.6124 1.0327
1 5 11 2.3297 -0.3897
1 5 12 1.4451 0.5342
1 5 13 2.2155 0.5380
1 5 14 -3.5054 -0.1333
1 5 15 -0.8974 0.5460
1 5 16 -4.3543 -0.2704
1 5 17 11.5661 -0.0782
1 5 18 15.9623 0.0959
1 5 19 -2.1210 -0.4784
1 5 20 8.8966 0.2155
1 6 1 -79.7073 -1.0582
1 6 2 91.2112 -0.7173
1 6 3 -30.9881 2.0406
1 6 4 -27.4470 -1.1833
1 6 5 -19.4527 1.1180
1 6 6 -6.2155 0.0536
1 6 7 6.2735 -2.2371
1 6 8 7.4283 0.3054
1 6 9 -3.2139 -1.4058
1 6 10 2.5210 0.2331
1 6 11 1.8771 0.2633
1 6 12 0.1493 -0.4172
1 6 13 -6.4157 0.0202
1 6 14 1.1832 -0.2360
1 6 15 0.4981 -0.5540
1 6 16 -18.3614 0.5239
1 6 17 6.2294 0.0525
1 6 18 -16.0713 0.5992
1 6 19 9.1380 0.0005
1 6 20 0.2717 0.0570
1 7 0 14.9249 1.2387
1 7 1 60.5265 -3.4651
1 7 2 36.7694 2.4686
1 7 3 -41.4437 -1.0248
1 7 4 25.6438 3.6640
1 7 5 8.7571 0.5670
1 7 6 -17.5494 0.7904
1 7 7 3.0216 0.4570
1 7 8 1.2970 -0.6378
1 7 9 3.0524 -0.8791
1 7 10 0.4850 -0.9591
1 7 11 1.6847 -0.6022
1 7 12 5.7287 0.0961
1 7 13 0.9628 -0.0941
1 7 14 -8.5798 0.5018
1 7 15 2.6028 0.1729
1 7 16 -3.3313 -0.3163
1 7 17 3.0368 0.1347
1 7 18 3.1372 -0.3295
1 7 19 4.3277 -0.1507
1 7 20 2.7015 0.4303
1 8 1 -66.6055 6.3988
1 8 3 30.8062 -0.3225
1 8 4 -9.2238 0.5696
1 8 5 25.0568 0.0201
1 8 6 11.9824 -0.6581
1 8 7 -10.9994 -0.9234
1 8 8 -0.8708 -1.1036
1 8 9 -2.2780 -0.6578
1 8 10 -4.1303 0.9770
1 8 11 -1.3790 -0.1822
1 8 12 -2.2428 1.4704
1 8 13 3.3673 0.6580
1 8 14 -2.4293 -0.3442
1 8 15 -0.2077 0.2480
1 8 16 -5.4620 -0.8230
1 8 17 1.5100 -0.2094
1 8 18 -0.4209 -0.1288
1 8 19 7.0498 -0.5265
1 8 20 -2.2292 -0.0018
1 9 0 -46.8856 18.2326
1 9 1 41.2050 -4.0770
1 9 2 -36.5658 3.2603
1 9 3 -17.2849 -0.8709
1 9 4 6.7407 -1.5026
1 9 5 -0.1025 -2.3883
1 9 6 10.0039 -0.2017
1 9 7 -2.1793 -0.1539
1 9 8 -5.7495 0.3579
1 9 9 -0.4745 0.9143
1 9 10 -2.0559 0.9903
1 9 11 -0.0326 0.4239
1 9 12 2.9018 0.1392
1 9 13 1.2947 0.0937
1 9 14 7.7584 -0.7496
1 9 15 -5.0793 -0.0775
1 9 16 -1.9633 -0.4242
1 9 17 -5.8885 -0.3953
1 9 18 -1.9128 0.3608
1 9 19 0.0377 0.0500
1 10 1 -52.4141 4.9755
1 10 2 21.9676 0.1044
1 10 3 -17.7220 3.2381
1 10 4 -9.1558 -0.2698
1 10 5 -8.5415 -1.4064
1 10 6 6.6736 0.1791
1 10 7 4.3726 -0.1061
1 10 8 -4.2324 -0.0381
1 10 9 -3.3585 -0.7521
1 10 10 1.1393 0.5584
1 10 11 4.9315 0.5924
1 10 12 -3.2819 0.2927
1 10 13 8.8255 0.0043
1 10 14 6.6287 -0.8945
1 10 15 0.3613 -0.2912
1 10 16 -1.2874 -0.2832
1 10 17 5.9828 0.4158
1 10 18 -4.0115 0.2999
1 10 19 -18.2206 0.6721
1 11 0 16.9869 -18.6817
1 11 1 35.2082 -5.1835
1 11 2 31.0690 -1.9077
1 11 3 -20.7962 2.1895
1 11 4 6.6681 1.7566
1 11 5 -0.7794 0.8420
1 11 6 -4.5041 -0.3083
1 11 7 9.8644 0.2446
1 11 8 3.8727 0.0391
1 11 9 2.0219 0.1118
1 11 10 -4.2892 -0.6316
1 11 11 -2.7927 -0.1723
1 11 12 -0.2510 -0.5096
1 11 13 0.1873 0.2018
1 11 14 7.0773 -0.2503
1 11 15 4.7786 0.1417
1 11 16 1.5245 0.3646
1 11 17 10.1769 0.3373
1 11 18 -5.3341 0.1595
1 11 19 5.0748 -0.3340
1 12 1 -30.8013 -3.3308
1 12 2 28.5801 -1.9393
1 12 3 17.6703 1.9671
1 12 4 -4.7965 0.2863
1 12 5 -3.0799 1.0369
1 12 6 -5.0189 0.1374
1 12 7 5.1021 -1.4731
1 12 8 -1.6084 0.2298
1 12 9 2.4977 0.2822
1 12 10 5.4427 0.1884
1 12 11 3.0020 0.1031
1 12 12 0.5555 0.3093
1 12 13 -0.7891 0.3197
1 12 14 3.6794 0.3765
1 12 15 -4.8293 -0.1136
1 12 16 -9.0616 -0.5289
1 12 17 16.1088 -0.1639
1 12 18 -9.0231 -0.6708
1 12 19 -10.4266 0.0646
1 13 0 9.2452 -3.4454
1 13 1 -19.5170 8.1882
1 13 2 -2.7963 0.7130
1 13 3 -6.4450 0.4065
1 13 4 -6.8713 -0.6077
1 13 5 3.2340 0.6999
1 13 6 -0.7449 1.0231
1 13 7 -0.9811 0.5118
1 13 8 -2.1681 -1.7383
1 13 9 -2.3900 0.9072
1 13 10 -5.9008 0.1501
1 13 11 -0.9534 0.4546
1 13 12 0.3104 -0.3166
1 13 13 -3.8470 -0.7613
1 13 14 3.1333 0.5070
1 13 15 -4.1933 0.1347
1 13 16 4.1726 -0.1302
1 13 17 7.7720 0.3643
1 13 18 -10.8878 -0.3362
1 14 1 -17.8170 8.6542
1 14 2 4.7135 2.5126
1 14 3 5.8383 0.6201
1 14 4 -3.6373 -0.6916
1 14 5 -9.9689 -1.5346
1 14 6 -2.0036 -1.0757
1 14 7 3.7386 -0.1222
1 14 8 -2.4686 -0.2095
1 14 9 -2.4506 0.0928
1 14 10 -0.4640 1.2538
1 14 11 2.7074 -0.0498
1 14 12 -0.3050 0.6706
1 14 13 -0.1902 0.1071
1 14 14 5.4658 -0.3377
1 14 15 -9.4591 0.3269
1 14 16 -1.8355 -0.2825
1 14 17 6.5152 -0.1503
1 14 18 2.0955 -0.0737
1 15 0 27.5939 -9.9898
1 15 1 -18.7512 8.6129
1 15 2 -1.3584 -0.4241
1 15 3 -2.4085 0.0067
1 15 4 3.8367 -0.3354
1 15 5 1.9246 -1.1473
1 15 6 -9.2636 -0.0639
1 15 7 3.2506 0.5654
1 15 8 -3.0637 0.1749
1 15 9 -1.8156 -0.7036
1 15 10 1.7112 0.6743
1 15 11 0.5500 -0.0100
1 15 12 -0.1689 0.1492
1 15 13 -0.1373 0.4554
1 15 14 8.9401 -0.1179
1 15 15 -1.3416 -0.1146
1 15 16 2.4364 0.3867
1 15 17 -1.3894 -0.5117
1 15 18 -9.2922 0.2197
1 16 1 5.5147 12.0790
1 16 2 -0.2088 -3.5284
1 16 3 -7.0685 2.2034
1 16 4 5.6733 -1.0377
1 16 5 1.4684 0.2209
1 16 6 0.2659 -0.1731
1 16 7 3.6450 -0.9249
1 16 8 -2.2065 -0.4328
1 16 9 -3.4773 -0.2170
1 16 10 -1.9500 -0.3516
1 16 11 0.9892 -0.2337
1 16 12 -1.0991 0.0454
1 16 13 -3.0087 0.3037
1 16 14 1.6749 0.2892
1 16 15 2.6531 0.2542
1 16 16 5.6440 -0.3346
1 16 17 6.3244 0.0560
1 17 0 15.2075 -9.4953
1 17 1 -3.0664 3.0525
1 17 2 8.7542 -2.2195
1 17 3 5.3817 -0.2947
1 17 4 -0.4190 -2.4100
1 17 5 0.7194 -3.5192
1 17 6 -4.3382 0.4744
1 17 7 2.0419 -0.6624
1 17 8 -2.1132 0.7778
1 17 9 -4.3036 0.9233
1 17 10 2.0464 -0.0620
1 17 11 -2.7044 0.0758
1 17 12 -8.1127 -0.3113
1 17 13 -3.2864 -0.4466
1 17 14 -7.5269 -0.0177
1 17 15 -2.4011 -0.1911
1 17 16 -2.3501 0.0944
1 17 17 1.6887 0.3449
1 18 1 2.2076 -1.6765
1 18 2 -1.5861 -0.7816
1 18 3 1.3767 -1.0447
1 18 4 1.6509 -1.5486
1 18 5 4.2882 0.1576
1 18 6 -0.2517 -1.4487
1 18 7 -1.0810 1.3148
1 18 8 1.9913 1.2381
1 18 9 -5.8006 -0.3321
1 18 10 -8.5453 0.0554
1 18 11 5.9503 0.1434
1 18 12 6.6847 -0.6476
1 18 13 -2.9673 -0.2330
1 18 14 -3.1084 -0.1307
1 18 15 1.5296 0.2439
1 18 16 1.5489 -0.1250
1 18 17 -2.8149 0.5879
1 19 0 4.0658 -11.2468
1 19 1 -8.6870 3.1349
1 19 2 -7.0912 1.9338
1 19 3 -2.4844 3.1556
1 19 4 -3.4848 3.7584
1 19 5 -3.2027 1.9321
1 19 6 -10.4059 0.4654
1 19 7 5.7727 -0.6470
1 19 8 -0.9329 -0.0523
1 19 9 -4.8237 -0.3123
1 19 10 1.2183 -0.6877
1 19 11 -11.0380 -0.3847
1 19 12 -6.3897 -0.6232
1 19 13 12.2717 0.6047
1 19 14 1.6248 0.1558
1 19 15 -3.4107 0.3137
1 19 16 -2.0492 0.6889
1 19 17 -2.1710 -0.2723
1 20 1 4.1868 4.5246
1 20 2 -9.4660 1.5732
1 20 3 -5.5957 -0.3620
1 20 4 -1.2355 -0.7537
1 20 5 -2.0282 0.0553
1 20 6 -0.1548 -0.3131
1 20 7 -3.5497 -0.0411
1 20 8 6.2808 0.2168
1 20 9 8.6578 -0.7492
1 20 10 10.3163 -0.6041
1 20 11 -0.6039 0.1949
1 20 12 2.6528 0.0744
1 20 13 -2.4082 0.5479
1 20 14 -0.2565 0.2340
1 20 15 5.0738 0.4601
1 20 16 8.5989 -0.0124
1 20 17 -6.0777 -0.1886
1 21 0 9.6601 -16.4219
1 21 1 -3.3718 9.6399
1 21 2 2.9933 1.3104
1 21 3 7.9852 -1.6466
1 21 4 -4.1091 -1.3261
1 21 5 -1.5465 -2.5807
1 21 6 -0.9436 -0.7855
1 21 7 2.4934 -0.4244
1 21 8 0.0742 -0.3724
1 21 9 -6.1633 0.9032
1 21 10 12.3159 -0.6729
1 21 11 1.7527 0.2506
1 21 12 -3.1753 -0.1267
1 21 13 4.4505 -0.8261
1 21 14 13.6116 0.2068
1 21 15 -5.2766 -0.6312
1 21 16 1.7600 -0.2882
1 21 17 -4.5694 -0.0344
1 22 1 -2.6751 -8.3621
1 22 2 -1.7210 1.1673
1 22 3 -0.5713 -1.0561
1 22 4 4.4505 0.4266
1 22 5 -1.4972 1.2345
1 22 6 -1.1905 0.4464
1 22 7 -4.4568 1.6099
1 22 8 0.2123 1.2499
1 22 9 -3.7348 0.0939
1 22 10 -5.3660 0.3433
1 22 11 -0.5835 -0.4289
1 22 12 4.3924 0.1439
1 22 13 -2.9890 -0.4624
1 22 14 -8.0483 -0.6140
1 22 15 2.4588 0.1484
1 22 16 9.9469 0.1007
1 22 17 -15.1787 0.1768
1 23 0 1.0311 -1.9716
1 23 1 1.7813 -3.4713
1 23 2 -0.3942 -0.6797
1 23 3 -4.7127 0.9815
1 23 4 -0.8819 -0.3299
1 23 5 1.4362 0.2686
1 23 6 0.7580 -0.5681
1 23 7 5.4203 -0.5228
1 23 8 -0.4803 1.3681
1 23 9 0.4909 0.3606
1 23 10 -4.0718 -0.2222
1 23 11 -4.0022 0.2669
1 23 12 -7.2935 0.3978
1 23 13 6.8178 0.4074
1 23 14 -1.1351 0.0051
1 23 15 -2.4597 -0.0962
1 23 16 7.8250 -0.1230
1 23 17 -4.5312 0.1614
1 24 1 3.3452 -8.2857
1 24 2 2.1520 -6.1247
1 24 3 -3.3676 -1.4592
1 24 4 -2.8581 -0.4050
1 24 5 -4.0706 1.6126
1 24 6 0.4083 2.2948
1 24 7 -1.5365 -0.5951
1 24 8 1.1296 0.7299
1 24 9 -1.8434 -0.4285
1 24 10 -7.5071 0.1656
1 24 11 -4.9079 -0.8926
1 24 12 -0.8055 -0.9519
1 24 13 2.5797 0.0685
1 24 14 -8.0860 -0.8754
1 24 15 -7.1033 0.0114
1 24 16 11.5522 -0.0503
1 24 17 -0.7858 -0.7394
1 25 0 -3.5827 5.3636
1 25 1 -2.3776 2.2994
1 25 2 5.5392 1.1058
1 25 3 -2.5144 -1.0421
1 25 4 -0.5049 0.8784
1 25 5 -5.6036 -0.5667
1 25 6 -2.8312 0.3448
1 25 7 -0.3875 -1.1792
1 25 8 2.1613 -0.2611
1 25 9 3.4867 0.5765
1 25 10 -2.2647 -0.5634
1 25 11 -10.4024 0.6911
1 25 12 -1.2554 -0.3177
1 25 13 8.1585 -0.5276
1 25 14 -0.8746 0.5470
1 25 15 -0.6936 -0.6345
1 25 16 3.4903 0.6850
1 26 1 -2.3233 -5.4723
1 26 2 1.4265 1.5079
1 26 3 0.5422 -0.6976
1 26 4 5.6833 0.4337
1 26 5 -3.6564 0.5506
1 26 6 -1.2752 1.3120
1 26 7 -0.3661 -0.4857
1 26 8 0.4082 -0.2932
1 26 9 10.1352 -0.3690
1 26 10 -4.3067 -0.2480
1 26 11 -0.2535 0.4998
1 26 12 -5.1052 -0.1797
1 26 13 -3.1632 0.1451
1 26 14 0.7135 -0.1374
1 26 15 -2.4067 0.9259
1 26 16 4.5649 0.3419
1 27 0 -0.5211 0.1891
1 27 1 6.1761 -1.4054
1 27 2 -0.6585 -1.0063
1 27 3 -0.1926 -2.6725
1 27 4 0.5468 2.4380
1 27 5 -1.5700 -1.0861
1 27 6 -5.1381 0.9219
1 27 7 -2.7531 0.2816
1 27 8 -3.3706 -0.6923
1 27 9 1.8148 0.1531
1 27 10 -3.9958 0.1361
1 27 11 5.5418 0.3666
1 27 12 -1.1263 0.6611
1 27 13 18.8940 0.1328
1 27 14 -7.6454 -0.6835
1 27 15 10.7032 0.0346
1 27 16 3.3869 -0.1495
1 28 1 -4.7232 1.4480
1 28 2 0.6165 1.7338
1 28 3 -1.0694 0.3876
1 28 4 -1.5712 -0.4373
1 28 5 -5.1434 0.7471
1 28 6 -1.9266 0.0778
1 28 7 0.1672 -0.1996
1 28 8 11.9183 0.0883
1 28 9 6.2169 -0.4851
1 28 10 -6.8652 -0.3267
1 28 11 -6.8939 -0.0558
1 28 12 9.5973 -0.1637
1 28 13 -0.8149 0.1987
1 28 14 -1.2842 -0.5476
1 28 15 -9.6195 0.3005
1 28 16 -1.2077 -0.4619
1 29 0 2.2929 6.9820
1 29 1 1.8112 -2.9986
1 29 2 0.2086 0.4121
1 29 3 -6.7778 -1.4746
1 29 4 2.5626 -2.1764
1 29 5 3.8216 -2.2026
1 29 6 -3.2467 0.7291
1 29 7 -6.3856 -0.7974
1 29 8 1.4441 0.6746
1 29 9 16.5687 0.2953
1 29 10 1.4898 -0.3497
1 29 11 7.4315 0.7210
1 29 12 -9.4821 -0.6460
1 29 13 19.5599 -0.2996
1 29 14 2.9938 -0.4523
1 29 15 -8.0145 -1.2352
1 30 1 -1.0549 -0.8391
1 30 2 2.7848 -4.3285
1 30 3 -1.8715 -0.0070
1 30 4 -3.9806 0.1546
1 30 5 -6.9171 -0.4315
1 30 6 1.6892 0.8726
1 30 7 -1.8142 -0.1706
1 30 8 -3.5949 0.2863
1 30 9 3.9555 -0.1896
1 30 10 -6.7095 -0.1641
1 30 11 1.3962 -0.2367
1 30 12 -0.2207 -0.1717
1 30 13 3.0850 0.1762
1 30 14 4.3757 0.4286
1 30 15 0.5651 0.6841
1 31 0 -3.4742 -5.4541
1 31 1 -0.0192 1.7922
1 31 2 -1.9242 0.3720
1 31 3 2.7391 0.4181
1 31 4 0.7208 2.9739
1 31 5 2.3396 0.7130
1 31 6 -6.0761 1.4048
1 31 7 -6.1522 0.3564
1 31 8 -1.8624 -0.1619
1 31 9 2.9482 0.0468
1 31 10 -1.4774 -0.2026
1 31 11 -0.4815 0.1236
1 31 12 -0.3794 -0.7080
1 31 13 7.9475 0.7568
1 31 14 -2.0463 0.5514
1 31 15 3.2515 1.0089
1 32 1 -3.7189 4.4711
1 32 2 1.2252 1.9659
1 32 3 -0.2992 0.6544
1 32 4 12.4219 0.5138
1 32 5 0.9243 0.4930
1 32 6 4.4751 -0.3479
1 32 7 -1.1549 -0.9150
1 32 8 0.7078 -0.7982
1 32 9 0.2919 -1.0356
1 32 10 -0.8989 0.6577
1 32 11 -5.7994 0.3530
1 32 12 4.5481 0.4431
1 32 13 4.3798 0.6747
1 32 14 1.6301 0.7502
1 33 0 10.2316 -1.1291
1 33 1 4.5005 -2.4087
1 33 2 4.2025 0.5453
1 33 3 -2.2732 -1.0644
1 33 4 -1.1703 -0.6422
1 33 5 -1.0749 -1.1121
1 33 6 -11.5148 -0.3865
1 33 7 -1.9297 -0.8140
1 33 8 -2.3967 0.3354
1 33 9 -1.2123 -0.1564
1 33 10 -4.4765 0.0671
1 33 11 -6.0353 0.5201
1 33 12 -5.6100 -0.4425
1 33 13 7.7377 -0.3865
1 34 1 -2.9187 3.3445
1 34 2 3.8687 -0.0117
1 34 3 2.3901 1.1623
1 34 4 3.1671 -1.3039
1 34 5 -1.1237 -1.2115
1 34 6 -4.8492 0.4505
1 34 7 -8.8787 -0.1215
1 34 8 -4.9347 0.8331
1 34 9 3.1152 0.7695
1 34 10 -1.1087 0.1057
1 34 11 6.9875 0.2144
1 34 12 -2.4831 0.4267
1 34 13 -0.6506 -0.8577
1 35 0 -8.7486 -9.4341
1 35 1 -7.7304 -0.1487
1 35 2 -1.8095 -1.8213
1 35 3 -1.2062 0.3471
1 35 4 1.7525 1.2032
1 35 5 5.6781 -0.8596
1 35 6 -4.5331 0.0766
1 35 7 3.2729 0.6053
1 35 8 3.1448 0.3379
1 35 9 -7.4827 0.8727
1 35 10 1.3569 0.7566
1 35 11 6.6238 0.2568
1 35 12 4.3335 -0.0980
1 35 13 0.8871 0.6332
1 36 1 -12.7145 1.7171
1 36 2 0.7521 0.7857
1 36 3 -2.4692 0.7263
1 36 4 -1.2379 0.4156
1 36 5 5.5462 -0.2151
1 36 6 3.2387 -0.9910
1 36 7 -3.0847 0.4820
1 36 8 1.5240 -0.5069
1 36 9 5.8021 0.4423
1 36 10 -3.0757 -0.3645
1 36 11 4.4035 -0.1931
1 36 12 -2.5299 0.4654
1 37 0 2.1282 -1.1359
1 37 1 8.2828 0.4312
1 37 2 -5.8051 1.5493
1 37 3 -0.9842 0.3920
1 37 4 -4.0619 -0.9524
1 37 5 -2.6124 0.9412
1 37 6 -8.7382 -0.6226
1 37 7 -1.1494 -0.5382
1 37 8 -14.1998 0.1403
1 37 9 -8.0434 -0.6397
1 37 10 -3.6069 0.4907
1 37 11 4.7651 0.1940
1 37 12 2.9745 -2.0453
1 38 1 0.2507 0.1788
1 38 2 -2.4681 -0.1776
1 38 3 -1.5779 -0.4814
1 38 4 3.6442 -1.1869
1 38 5 -0.9117 -1.0355
1 38 6 2.7276 -1.1089
1 38 7 -6.8513 -0.1243
1 38 8 1.8882 0.0878
1 38 9 -5.2069 0.7402
1 38 10 -2.1869 0.2099
1 38 11 0.0575 2.0368
1 39 0 -0.4907 -8.0029
1 39 1 6.5695 1.7763
1 39 2 2.3501 -1.2321
1 39 3 -3.1152 2.5493
1 39 4 6.0898 1.6016
1 39 5 9.7119 0.0646
1 39 6 1.4725 1.1228
1 39 7 4.4260 0.0336
1 39 8 2.8197 -0.3438
1 39 9 -1.2695 0.3631
1 39 10 0.9306 0.3169
1 40 1 -2.5588 2.5244
1 40 2 -0.0761 1.0107
1 40 3 -1.0914 -1.1898
1 40 4 -4.6440 0.6847
1 40 5 0.8104 -0.5480
1 40 6 1.2211 -0.3483
1 40 7 -7.2958 1.0885
1 40 8 -0.9551 -0.2521
1 40 9 0.9660 -0.0104
1 41 0 -1.9582 1.8750
1 41 1 10.5265 2.0099
1 41 2 -8.5128 0.8336
1 41 3 5.1273 0.1099
1 41 4 -3.3948 -1.3754
1 41 5 0.8543 -0.9611
1 41 6 -1.6926 -0.4272
1 41 7 -4.2451 -0.4019
1 41 8 -8.0632 0.8799
1 42 1 1.9253 -0.8330
1 42 2 3.7050 0.0699
1 42 3 -0.0028 -0.4344
1 42 4 1.7390 0.0012
1 42 5 1.5068 -1.0591
1 42 6 -0.8939 0.2231
1 42 7 5.0801 0.3082
1 42 8 -0.4115 0.9387
1 43 0 3.5364 -3.4959
1 43 1 4.4744 2.1055
1 43 2 2.4058 -0.9309
1 43 3 -1.3596 0.2480
1 43 4 -1.1821 1.1238
1 43 5 7.2255 1.1323
1 43 6 -2.2471 1.4485
1 44 1 -5.3544 0.3708
1 44 2 2.4116 1.0700
1 44 3 3.4166 -1.0110
1 44 4 -4.0881 -0.2589
1 44 5 2.6369 -0.4098
1 45 0 5.9240 1.2731
1 45 1 8.6577 0.6754
1 45 2 -3.5496 0.1850
1 45 3 4.7648 0.8070
2 1 1 55.0282 -4.9639
2 1 2 126.9776 8.1605
2 1 3 31.9248 -0.9756
2 1 4 -20.5565 0.6253
2 1 5 -11.1953 0.9474
2 1 6 19.9907 -0.5770
2 1 7 -4.1633 -1.7504
2 1 8 -0.6874 -2.0362
2 1 9 -4.5928 -0.4622
2 1 10 10.5122 -1.0396
2 1 11 5.3192 -0.7655
2 1 12 8.0653 1.0097
2 1 13 6.5809 0.2069
2 1 14 5.0136 1.5524
2 1 15 -0.2875 0.6171
2 1 16 8.6321 -0.0687
2 1 17 12.8736 0.3000
2 1 18 4.9686 -1.4774
2 1 19 -0.2829 -0.3996
2 1 20 5.5769 -0.4654
2 2 0 -13.8059 35.6332
2 2 1 -71.9348 -7.6964
2 2 2 50.0087 1.2270
2 2 3 48.0654 -2.5874
2 2 4 27.2753 -5.0538
2 2 5 1.3028 -1.6160
2 2 6 11.1707 -2.4024
2 2 7 -5.6983 -0.8405
2 2 8 3.2959 1.1610
2 2 9 -8.2317 -0.8990
2 2 10 -1.1718 1.2587
2 2 11 0.8146 -0.2803
2 2 12 1.2290 1.3757
2 2 13 -0.0052 -0.6032
2 2 14 -0.5780 -0.4770
2 2 15 4.8090 -0.3955
2 2 16 -6.1512 -1.3298
2 2 17 -1.3588 0.3772
2 2 18 13.5368 -0.2720
2 2 19 -11.4251 -0.0003
2 2 20 12.6443 1.2337
2 3 2 -97.2258 -2.0882
2 3 3 32.2556 -2.1469
2 3 4 -25.1400 -0.0610
2 3 5 2.6285 -0.8192
2 3 6 4.1512 0.8642
2 3 7 1.7010 1.8443
2 3 8 0.8651 1.2805
2 3 9 -8.1409 1.4979
2 3 10 1.3354 0.1339
2 3 11 -1.3750 -0.7450
2 3 12 -5.2862 -0.7139
2 3 13 0.8301 -0.9826
2 3 14 3.8931 -0.0813
2 3 15 -11.5149 -0.1272
2 3 16 -4.1199 0.0873
2 3 17 -13.3221 0.3637
2 3 18 3.9275 -0.0755
2 3 19 3.9266 0.5997
2 3 20 2.7326 0.5794
2 4 0 208.9132 8.0383
2 4 1 40.6909 2.4127
2 4 2 -24.5555 -0.9447
2 4 3 12.9390 0.4020
2 4 4 -7.9066 2.6061
2 4 5 1.6972 1.4573
2 4 6 5.1499 1.4307
2 4 7 2.0119 2.1190
2 4 8 -0.5085 -0.3990
2 4 9 0.4095 -0.3219
2 4 10 0.3991 -0.1327
2 4 11 0.4219 -1.3580
2 4 12 -6.9589 0.6758
2 4 13 3.3326 -0.2353
2 4 14 -1.3297 -0.0229
2 4 15 6.8444 0.2813
2 4 16 0.6363 -0.0688
2 4 17 1.2221 0.2866
2 4 18 -14.3485 0.1222
2 4 19 -6.2403 0.2708
2 4 20 9.5217 0.0698
2 5 2 77.0447 6.0767
2 5 3 21.3409 -0.5492
2 5 4 -23.2869 1.4367
2 5 5 1.8381 0.1415
2 5 6 4.8093 -0.5831
2 5 7 8.5036 0.3220
2 5 8 3.2050 -0.3941
2 5 9 -6.4235 0.1024
2 5 10 1.2525 -0.5318
2 5 11 0.5452 -1.0826
2 5 12 -0.3150 0.4144
2 5 13 -2.3368 -0.3226
2 5 14 0.2840 1.0771
2 5 15 -4.4224 0.7395
2 5 16 -0.1960 0.5333
2 5 17 -0.6225 -0.0545
2 5 18 8.5461 -0.5680
2 5 19 -4.6324 -0.6428
2 5 20 -14.3578 -0.3397
2 6 0 107.4897 7.7156
2 6 1 -124.0792 -1.3200
2 6 2 28.2468 0.3775
2 6 3 48.2764 0.1434
2 6 4 -3.0095 -2.5344
2 6 5 -5.7892 1.3026
2 6 6 -9.3592 0.1225
2 6 7 2.8578 1.3906
2 6 8 11.0658 -1.5758
2 6 9 -3.5427 -0.7548
2 6 10 -3.3700 -0.2082
2 6 11 0.5274 -0.4939
2 6 12 4.2298 0.4036
2 6 13 3.7780 0.3416
2 6 14 -8.7419 0.4738
2 6 15 6.7176 -0.0824
2 6 16 -3.6505 -0.5206
2 6 17 -4.7946 -0.2235
2 6 18 10.0179 -0.3454
2 6 19 1.6566 -0.0619
2 6 20 13.8999 -0.1114
2 7 1 -64.7355 0.8985
2 7 2 -6.3810 -0.2879
2 7 3 8.9479 -0.2066
2 7 4 -15.2678 -1.6254
2 7 5 23.6805 0.0326
2 7 6 -13.8218 -0.1508
2 7 7 -7.5161 0.5572
2 7 8 3.5665 0.5271
2 7 9 1.0931 -0.4121
2 7 10 -2.7453 0.4733
2 7 11 -12.4430 -0.0960
2 7 12 1.9272 0.3097
2 7 13 2.6837 -0.4425
2 7 14 -0.6246 0.1811
2 7 15 4.7856 -0.7408
2 7 16 0.0387 0.4461
2 7 17 -12.8347 -0.2891
2 7 18 9.1989 -0.0863
2 7 19 -7.5740 0.1500
2 7 20 4.2598 0.1970
2 8 1 -11.6778 -11.0548
2 8 2 -18.3349 -1.1500
2 8 3 27.8710 -1.5433
2 8 4 -3.5736 -1.1151
2 8 5 8.4963 0.4343
2 8 6 0.6843 0.6490
2 8 7 -5.5507 1.5766
2 8 8 -0.0789 -0.1341
2 8 9 1.8620 0.1608
2 8 10 2.3772 -1.3959
2 8 11 5.9874 0.5155
2 8 12 -5.7234 0.3449
2 8 13 -3.5089 0.2346
2 8 14 -1.6133 1.2802
2 8 15 7.1012 -0.3762
2 8 16 7.7119 -0.0879
2 8 17 -8.0175 0.1857
2 8 18 1.4884 -0.2727
2 8 19 0.9806 0.0799
2 8 20 2.5154 -0.0455
2 9 1 42.8323 -0.3455
2 9 3 -9.4401 0.2059
2 9 4 -2.4428 1.4051
2 9 5 7.3916 -0.4910
2 9 6 5.4077 1.0378
2 9 7 -0.1911 -1.3189
2 9 8 -1.4251 -0.8792
2 9 9 -0.2304 0.9562
2 9 10 2.6321 -0.0551
2 9 11 -1.9970 -0.3656
2 9 12 3.4181 0.8176
2 9 13 1.1010 -0.1998
2 9 14 -5.8103 0.5243
2 9 15 0.4020 -0.1088
2 9 16 6.6125 -0.3558
2 9 17 6.4565 0.0653
2 9 18 -0.9146 -0.0763
2 9 19 1.1810 -0.1566
2 10 0 39.2246 8.1997
2 10 1 -17.9168 3.0572
2 10 2 34.9010 -0.4259
2 10 3 2.2563 -1.3581
2 10 4 1.0647 2.6523
2 10 5 -4.5095 -0.7928
2 10 6 -2.7199 0.1020
2 10 7 4.6925 0.1833
2 10 8 -0.4483 -1.8528
2 10 9 -2.4860 -0.3643
2 10 10 -0.7410 0.9026
2 10 11 -0.5865 0.1919
2 10 12 -0.4878 0.5374
2 10 13 3.4141 0.4357
2 10 14 7.4567 -0.0245
2 10 15 7.7137 -0.1729
2 10 16 -0.0824 -0.0372
2 10 17 -4.6348 -0.4417
2 10 18 22.7713 0.0489
2 10 19 10.6633 0.1675
2 11 1 -2.2714 2.8550
2 11 2 -11.8454 -0.4119
2 11 3 26.9843 -3.1116
2 11 4 1.6195 -1.1271
2 11 5 8.2184 -1.6674
2 11 6 0.9002 -0.7762
2 11 7 1.3134 0.8613
2 11 8 0.7569 0.0930
2 11 9 2.7142 -0.6845
2 11 10 1.7359 -0.1579
2 11 11 -1.7255 0.0118
2 11 12 -1.0315 -0.7814
2 11 13 0.5614 0.0723
2 11 14 2.2110 -0.5830
2 11 15 1.4894 -0.0220
2 11 16 2.6110 0.4779
2 11 17 0.2479 0.3483
2 11 18 -10.5747 0.7130
2 11 19 -10.7733 0.3683
2 12 0 18.6723 -20.8838
2 12 1 -16.5800 -3.4845
2 12 2 -18.6844 -0.7162
2 12 3 -10.3505 1.1408
2 12 4 -9.6370 2.7331
2 12 5 5.5097 1.7857
2 12 6 -6.3566 1.2080
2 12 7 3.6475 0.1355
2 12 8 2.7693 -0.3797
2 12 9 -6.5641 -1.2484
2 12 10 -2.8843 -1.7032
2 12 11 -0.1175 -0.5748
2 12 12 -3.1265 -0.5532
2 12 13 -5.3756 0.2983
2 12 14 -4.3736 0.6772
2 12 15 9.7470 0.0895
2 12 16 -9.7175 0.3535
2 12 17 -4.1787 0.3896
2 12 18 20.2690 -0.1688
2 12 19 -15.3897 0.2014
2 13 1 10.5714 -0.9375
2 13 2 -32.4805 5.2186
2 13 3 7.4288 4.1402
2 13 4 -11.9979 -0.5853
2 13 5 -9.6130 -0.0872
2 13 6 1.9176 -0.2112
2 13 7 -1.5201 -0.8076
2 13 8 -1.0826 0.4663
2 13 9 0.6915 0.1556
2 13 10 -3.9464 -0.7238
2 13 11 -1.1048 1.8684
2 13 12 2.2748 -0.0159
2 13 13 -0.7512 0.4428
2 13 14 -5.4424 0.3103
2 13 15 1.8414 0.0219
2 13 16 -3.1740 -0.1167
2 13 17 16.7322 -0.2564
2 13 18 -7.1473 -0.1551
2 13 19 1.3982 -1.0819
2 14 0 22.2680 -8.4283
2 14 1 16.2513 6.3467
2 14 2 6.1180 -0.8573
2 14 3 -4.0332 2.9683
2 14 4 2.9547 -0.0715
2 14 5 -4.1858 -1.2212
2 14 6 -7.4018 -0.1668
2 14 7 0.9798 0.0244
2 14 8 3.3759 -1.0729
2 14 9 -0.9747 0.2421
2 14 10 -0.4620 -0.0945
2 14 11 -6.3010 0.1105
2 14 12 3.0692 0.4983
2 14 13 -6.2316 -0.0129
2 14 14 -3.1096 0.2229
2 14 15 -2.0019 -0.2241
2 14 16 -1.7698 -0.1950
2 14 17 -6.0985 -0.0299
2 14 18 21.4547 -0.4145
2 15 1 21.5117 -0.1693
2 15 2 -7.9517 -1.8991
2 15 3 12.8422 -0.5450
2 15 4 6.7485 3.2919
2 15 5 6.3493 0.6471
2 15 6 2.9343 -1.9925
2 15 7 -0.6525 0.6072
2 15 8 1.5855 -0.6650
2 15 9 -4.1032 -0.6928
2 15 10 -4.0638 0.5862
2 15 11 3.5650 -0.2972
2 15 12 1.3987 -0.5609
2 15 13 0.6021 0.0359
2 15 14 -3.5750 -1.0552
2 15 15 -5.4845 -0.2828
2 15 16 -7.8471 -0.1711
2 15 17 -0.3716 0.0826
2 15 18 -2.2611 0.4543
2 16 0 -11.5794 -10.7740
2 16 1 2.5175 2.0167
2 16 2 8.8286 2.8162
2 16 3 -8.0613 1.8199
2 16 4 -0.8810 -0.3896
2 16 5 -1.0631 2.5436
2 16 6 -4.2449 -1.2794
2 16 7 0.4055 -0.6423
2 16 8 2.4207 0.7659
2 16 9 1.9776 -0.9740
2 16 10 -1.8906 0.9128
2 16 11 -2.8618 -0.2861
2 16 12 4.4249 -0.5330
2 16 13 3.5903 -0.3834
2 16 14 2.4560 -0.1685
2 16 15 2.8698 0.0208
2 16 16 2.7166 0.0119
2 16 17 -1.1511 0.0922
2 16 18 -0.5321 0.0956
2 17 1 6.0649 -2.3065
2 17 2 -8.4239 -4.0247
2 17 3 3.2913 2.3592
2 17 4 4.3021 -0.3612
2 17 5 0.3973 1.6237
2 17 6 1.0145 1.2757
2 17 7 -5.0665 -1.5494
2 17 8 3.9825 1.3294
2 17 9 -3.3364 0.7132
2 17 10 -2.9177 0.2180
2 17 11 1.4241 1.2726
2 17 12 -0.8334 -0.6877
2 17 13 3.1874 0.1932
2 17 14 1.6776 -0.2658
2 17 15 -1.5739 -0.1497
2 17 16 6.4890 0.2475
2 17 17 3.1510 -0.1433
2 18 0 -6.6143 -1.4643
2 18 1 0.6212 -0.6579
2 18 2 1.6742 -1.1296
2 18 3 -11.9030 1.7881
2 18 4 -0.5049 1.0671
2 18 5 0.2174 -0.1426
2 18 6 7.8049 0.4805
2 18 7 -1.5296 -0.5727
2 18 8 -1.5925 0.2403
2 18 9 3.2172 0.5648
2 18 10 -1.6389 -0.4293
2 18 11 -5.3859 -0.3813
2 18 12 3.0890 0.5698
2 18 13 -0.8797 -0.8465
2 18 14 -5.5017 0.2281
2 18 15 -5.5018 0.5161
2 18 16 -2.2455 -0.2132
2 18 17 -6.6914 0.5462
2 19 1 2.2305 1.3408
2 19 2 -6.9536 1.1560
2 19 3 -5.5367 2.2676
2 19 4 -7.8182 -0.8259
2 19 5 -1.9379 0.5397
2 19 6 -3.2178 -0.7623
2 19 7 -3.2644 -0.1756
2 19 8 7.6076 -0.2073
2 19 9 3.3670 -0.3155
2 19 10 -1.0219 0.1248
2 19 11 6.8045 -0.3191
2 19 12 -1.8371 -0.4890
2 19 13 -0.8253 0.3890
2 19 14 11.1253 -0.7312
2 19 15 1.9638 0.2998
2 19 16 -6.6979 -0.0719
2 19 17 -0.9884 -0.3535
2 20 0 -4.0771 1.0495
2 20 1 7.9888 -10.3701
2 20 2 1.9253 0.3108
2 20 3 -7.0776 -2.8013
2 20 4 -4.5406 -2.8575
2 20 5 -4.4515 0.0553
2 20 6 0.6547 -2.4956
2 20 7 -2.6100 -0.2099
2 20 8 -9.2348 1.6875
2 20 9 -5.4644 0.7772
2 20 10 -0.4784 0.7227
2 20 11 -3.9905 0.1518
2 20 12 1.9376 0.5861
2 20 13 -4.1644 0.4072
2 20 14 0.9426 0.1094
2 20 15 1.6838 0.1182
2 20 16 -0.5333 -0.3349
2 20 17 -6.4716 0.5759
2 21 1 8.1909 -2.7662
2 21 2 1.0661 -0.5059
2 21 3 7.5447 4.8646
2 21 4 -2.3740 -0.7379
2 21 5 -3.6094 1.5687
2 21 6 -0.9787 0.2766
2 21 7 0.5040 -2.3388
2 21 8 2.5654 0.1352
2 21 9 1.3203 -0.1466
2 21 10 -6.7357 0.0925
2 21 11 0.8019 0.5531
2 21 12 -0.1013 -0.5247
2 21 13 -6.3652 0.5062
2 21 14 7.0814 -0.3869
2 21 15 3.1116 0.3101
2 21 16 -1.1269 -0.2445
2 21 17 -6.3315 -0.4067
2 22 0 -8.3679 21.7266
2 22 1 1.0955 3.2013
2 22 2 0.0399 1.2385
2 22 3 1.8751 -1.6306
2 22 4 1.1218 -0.3065
2 22 5 -0.8812 -0.1543
2 22 6 1.1113 0.1729
2 22 7 8.3853 0.7841
2 22 8 2.7880 -0.0155
2 22 9 7.1844 0.8420
2 22 10 2.7937 0.9266
2 22 11 9.0300 -0.4131
2 22 12 -2.3266 -0.1922
2 22 13 -3.6095 -0.1761
2 22 14 -1.2897 -0.6967
2 22 15 -1.5805 -0.2560
2 22 16 -1.2837 0.1051
2 22 17 11.9602 0.0240
2 23 1 -1.8556 2.0798
2 23 2 -2.9453 -5.2479
2 23 3 5.2864 -1.7454
2 23 4 -1.6008 -1.4228
2 23 5 4.5488 -0.4582
2 23 6 -9.6867 0.1632
2 23 7 -0.2208 -0.2383
2 23 8 -1.3446 0.2957
2 23 9 4.9352 -0.2406
2 23 10 4.6845 0.4672
2 23 11 -6.8337 -0.0446
2 23 12 0.6201 -0.1378
2 23 13 -0.8672 0.2317
2 23 14 -2.1798 -0.4397
2 23 15 -6.0650 0.1022
2 23 16 -13.7581 -0.0046
2 23 17 12.6263 0.2966
2 24 0 -2.8604 10.5129
2 24 1 4.5589 -7.3560
2 24 2 2.5171 -0.7368
2 24 3 -2.7869 -0.6062
2 24 4 -1.4585 -2.4356
2 24 5 2.4756 0.6863
2 24 6 -1.3967 -0.0589
2 24 7 -0.7590 0.5180
2 24 8 -14.6768 -0.1054
2 24 9 -3.7629 0.1039
2 24 10 0.2234 -0.0698
2 24 11 2.3276 -0.5551
2 24 12 -4.1816 -0.0236
2 24 13 -10.1561 -0.6110
2 24 14 8.2142 -0.5031
2 24 15 -5.7119 0.2517
2 24 16 -2.8081 -0.4464
2 24 17 0.1625 0.2263
2 25 1 -1.8923 5.8251
2 25 2 0.8398 -0.9063
2 25 3 2.1437 2.4114
2 25 4 0.4954 -0.7215
2 25 5 -3.2475 -0.2140
2 25 6 0.4398 1.7097
2 25 7 2.5450 -0.8069
2 25 8 -0.8259 0.8142
2 25 9 -0.6514 -0.6167
2 25 10 -0.6684 0.4544
2 25 11 -2.6492 -0.3240
2 25 12 -5.1501 0.2442
2 25 13 0.8207 0.5242
2 25 14 0.8866 -0.2438
2 25 15 -1.1383 0.0953
2 25 16 1.4680 0.0777
2 26 0 -4.4072 11.9289
2 26 1 1.3309 -0.0068
2 26 2 2.0627 2.1535
2 26 3 -1.0373 -0.5381
2 26 4 -0.0251 -0.4583
2 26 5 -0.3772 -0.5544
2 26 6 -11.7481 -0.3237
2 26 7 -0.4351 1.1037
2 26 8 -1.1996 -0.1037
2 26 9 4.5698 -0.9017
2 26 10 6.5340 0.4584
2 26 11 0.6942 -0.4177
2 26 12 10.9034 0.2093
2 26 13 3.3573 0.4634
2 26 14 1.1906 -0.6440
2 26 15 8.3595 0.1130
2 26 16 -6.6495 -0.4875
2 27 1 -2.5558 2.0040
2 27 2 -1.2449 2.5381
2 27 3 -2.4945 0.5444
2 27 4 -6.5109 0.2245
2 27 5 3.5063 -0.2822
2 27 6 -3.0256 -1.0634
2 27 7 -7.7381 -0.7519
2 27 8 -6.1230 0.6510
2 27 9 -0.4041 -0.9768
2 27 10 2.8063 0.7647
2 27 11 -0.4975 -0.5214
2 27 12 2.9553 0.0202
2 27 13 -1.6851 0.4539
2 27 14 0.4720 -0.0370
2 27 15 -5.8626 -0.5833
2 28 0 1.6671 7.1201
2 28 1 -1.7893 -2.8255
2 28 2 -3.1006 -0.0647
2 28 3 0.6098 -2.9479
2 28 4 3.2263 -2.2368
2 28 5 -2.8330 0.8182
2 28 6 3.7013 0.4191
2 28 7 6.0169 0.7003
2 28 8 -0.2621 0.6542
2 28 9 2.5075 -0.3266
2 28 10 2.2257 0.2999
2 28 11 -1.2046 -0.4851
2 28 12 9.1557 -0.0852
2 28 13 4.4598 -0.4681
2 28 14 0.4790 0.2073
2 28 15 6.0870 0.3679
2 28 16 -9.1289 -0.5206
2 29 1 8.7038 1.4206
2 29 2 0.4045 -0.0325
2 29 3 -0.3629 1.0975
2 29 4 -3.2454 -0.7859
2 29 5 5.4246 -0.5927
2 29 6 -3.3852 0.4457
2 29 7 5.8512 0.2663
2 29 8 3.2730 -0.0643
2 29 9 7.6078 0.1843
2 29 10 1.7108 0.3521
2 29 11 3.1634 -0.0345
2 29 12 3.0493 0.3324
2 29 13 3.0589 -0.3413
2 29 14 15.7520 -0.1270
2 29 15 6.4034 0.5012
2 30 0 0.3432 -3.2669
2 30 1 -2.1566 2.3084
2 30 2 5.8007 1.2955
2 30 3 5.5588 1.0217
2 30 4 1.7489 0.5042
2 30 5 1.7372 1.1233
2 30 6 -9.5252 -0.0443
2 30 7 -0.4774 1.0059
2 30 8 -12.8957 -0.1226
2 30 9 2.9976 -1.0839
2 30 10 6.2285 0.3200
2 30 11 -5.7298 -0.1709
2 30 12 1.1741 0.1397
2 30 13 -3.5390 0.8424
2 30 14 2.1789 -0.2455
2 30 15 11.4026 -0.1230
2 31 1 -1.0530 -1.0433
2 31 2 -2.3098 -0.6703
2 31 3 -2.3251 0.1100
2 31 4 -0.5197 -1.1683
2 31 5 5.3451 -0.0505
2 31 6 4.3841 -0.9260
2 31 7 -7.2401 0.2832
2 31 8 -6.6767 0.1735
2 31 9 -4.3335 -0.7517
2 31 10 4.1819 -0.4845
2 31 11 4.7281 -0.2181
2 31 12 -7.9409 0.0194
2 31 13 -7.8185 -0.2393
2 31 14 -5.9601 0.7282
2 31 15 3.5384 0.5283
2 32 0 2.5747 -14.2401
2 32 1 -2.4898 -3.7431
2 32 2 0.8400 -1.4588
2 32 3 -0.2637 -0.7864
2 32 4 -4.9826 -0.3973
2 32 5 -3.9140 -0.1886
2 32 6 3.1904 -0.6139
2 32 7 -0.7595 0.1546
2 32 8 -9.7114 -0.0700
2 32 9 -10.1629 0.1009
2 32 10 -7.7169 -0.5900
2 32 11 1.5059 0.0489
2 32 12 8.6248 0.4253
2 32 13 6.7711 0.3121
2 32 14 -11.8844 1.4783
2 33 1 4.6112 -1.4182
2 33 2 -3.5348 1.6305
2 33 3 5.1879 0.7077
2 33 4 -2.1572 -0.0056
2 33 5 1.4671 1.2928
2 33 6 1.8485 -1.0324
2 33 7 0.9014 -0.2664
2 33 8 6.9411 0.0883
2 33 9 -3.3189 0.3853
2 33 10 2.7321 0.5044
2 33 11 -5.4500 -0.2202
2 33 12 -4.1313 0.2207
2 33 13 14.9412 0.0663
2 34 0 6.4034 0.5518
2 34 1 -3.2709 3.6312
2 34 2 -2.2453 0.8111
2 34 3 0.0259 1.8551
2 34 4 -4.5488 2.6362
2 34 5 3.5046 -0.3694
2 34 6 -5.7536 0.1399
2 34 7 3.8574 0.0127
2 34 8 -2.5566 -1.3448
2 34 9 -1.0662 -0.4641
2 34 10 10.4213 0.2055
2 34 11 9.7303 -0.7566
2 34 12 5.1636 0.9539
2 34 13 1.5193 -0.1963
2 35 1 5.3647 -1.7964
2 35 2 2.1628 -1.2280
2 35 3 -2.1612 -3.3485
2 35 4 -7.9560 -0.9722
2 35 5 4.4285 0.5936
2 35 6 -3.0172 -0.2683
2 35 7 3.2966 0.0167
2 35 8 6.1944 0.2170
2 35 9 -6.3467 -0.0524
2 35 10 -16.1704 1.0796
2 35 11 5.4854 0.2530
2 35 12 -2.1076 0.1533
2 35 13 -0.0618 0.8088
2 36 0 2.3411 -6.0718
2 36 1 -3.8516 -1.6475
2 36 2 -1.8390 -0.1551
2 36 3 9.2354 -0.1560
2 36 4 -5.2736 0.5229
2 36 5 -4.8429 -0.5672
2 36 6 1.3649 0.5760
2 36 7 -11.5667 -0.4895
2 36 8 -8.6660 0.2401
2 36 9 6.9896 -0.1012
2 36 10 -6.1673 -1.6145
2 36 11 -12.7322 0.6308
2 36 12 0.3299 -0.8053
2 37 1 -1.2482 -1.6411
2 37 2 -6.0948 -1.0461
2 37 3 -6.0377 0.4226
2 37 4 -6.6221 0.7491
2 37 5 5.6602 0.2260
2 37 6 5.6708 1.8810
2 37 7 5.4590 0.2095
2 37 8 -7.8245 0.1713
2 37 9 -9.1349 -0.1299
2 37 10 10.7507 -0.1403
2 37 11 5.8528 0.2935
2 37 12 -1.2081 0.8385
2 38 0 11.3368 -9.7318
2 38 1 -0.9698 2.8606
2 38 2 9.4622 0.5703
2 38 3 -2.1262 -0.1591
2 38 4 -8.6924 1.8047
2 38 5 -2.4533 -0.0183
2 38 6 1.2836 -0.7222
2 38 7 12.0856 -0.0217
2 38 8 4.8263 -0.3268
2 38 9 -3.5899 -0.1105
2 38 10 -8.6638 -0.2014
2 38 11 2.7702 0.8567
2 39 1 7.6794 -1.4722
2 39 2 3.1539 0.4722
2 39 3 4.5101 -0.7648
2 39 4 -10.6030 0.1962
2 39 5 -5.6383 -0.1024
2 39 6 -4.7772 -0.3148
2 39 7 0.6615 0.9083
2 39 8 -3.6219 -0.3877
2 39 9 4.6231 -0.3239
2 39 10 -6.1531 -0.4753
2 40 0 2.2263 -1.9766
2 40 1 -1.5264 4.2281
2 40 2 1.9380 -0.7087
2 40 3 11.0925 0.6914
2 40 4 -0.1414 -0.6382
2 40 5 -7.0972 0.3175
2 40 6 -6.8527 0.0225
2 40 7 -3.3356 -0.1605
2 40 8 -3.6244 0.2772
2 40 9 -2.9231 1.4511
2 41 1 13.1206 3.6608
2 41 2 1.5443 0.1357
2 41 3 -3.9122 0.0044
2 41 4 1.4283 0.0021
2 41 5 -1.2277 -0.4015
2 41 6 -1.5015 1.0658
2 41 7 5.6296 0.2373
2 41 8 -0.3137 0.4654
2 42 0 5.3164 -9.8840
2 42 1 -7.9994 2.6452
2 42 2 18.0483 1.0103
2 42 3 8.0288 0.3026
2 42 4 -2.4497 -0.4781
2 42 5 0.3760 0.0677
2 42 6 -5.4659 -0.7093
2 42 7 -5.3431 0.8800
2 42 8 4.4178 -0.3954
2 43 1 -3.3630 -2.8210
2 43 2 -2.5780 0.7231
2 43 3 10.6242 0.9907
2 43 4 4.3149 0.9521
2 43 5 -0.3803 1.4723
2 43 6 9.8617 0.2711
2 44 0 10.4213 -0.8927
2 44 1 -0.7059 -1.0104
2 44 2 -2.9012 -1.5952
2 44 3 4.0957 -0.9223
2 44 4 2.9241 -0.6897
2 44 5 2.2427 1.4901
2 45 1 3.1054 0.2582
2 45 2 -0.2644 -0.9115
2 45 3 -8.8631 -3.8534
3 1 0 137.4233 0.0652
3 1 1 167.5521 -0.9674
3 1 2 -35.2600 -0.7935
3 1 3 -24.6089 0.0935
3 1 4 6.6786 0.9995
3 1 5 -13.0207 0.5765
3 1 6 -0.1634 2.0915
3 1 7 -1.6702 0.5578
3 1 8 4.1057 0.1785
3 1 9 -4.8105 1.8412
3 1 10 1.8688 -0.0587
3 1 11 -5.5366 1.0038
3 1 12 4.5901 -0.8011
3 1 13 -4.2713 -1.2048
3 1 14 -0.7362 0.1661
3 1 15 -0.5764 -0.5346
3 1 16 2.8898 0.8400
3 1 17 -1.9567 0.6506
3 1 18 12.5575 0.1164
3 1 19 -3.8509 0.1014
3 1 20 0.6791 -0.5184
3 2 1 92.4082 4.8401
3 2 2 47.3606 3.5693
3 2 3 55.8465 -1.2971
3 2 4 -7.1947 0.3410
3 2 5 6.8699 -0.5686
3 2 6 15.8082 -0.0939
3 2 7 -1.9165 -1.2312
3 2 8 -1.1462 -0.6595
3 2 9 8.5323 0.6852
3 2 10 -2.9814 -0.1561
3 2 11 -0.2631 -0.3351
3 2 12 -9.9686 0.2912
3 2 13 3.8328 0.1105
3 2 14 -3.2602 0.4780
3 2 15 -9.9346 -0.3045
3 2 16 11.4240 -0.1385
3 2 17 -12.5693 -0.0216
3 2 18 3.0380 -0.6269
3 2 19 6.1056 0.1554
3 2 20 0.2070 -0.6087
3 3 0 -69.3670 8.6678
3 3 3 66.7316 1.3606
3 3 4 4.7974 -0.0610
3 3 5 -11.1766 -3.0672
3 3 6 18.3500 -0.0461
3 3 7 1.1521 -1.3055
3 3 8 1.0589 -0.8693
3 3 9 2.2694 0.3255
3 3 10 -2.7879 0.5983
3 3 11 2.1050 0.4805
3 3 12 -0.9814 -0.1186
3 3 13 -1.7634 -0.5529
3 3 14 4.4065 -0.5142
3 3 15 -4.4150 -0.2277
3 3 16 -7.4590 -0.0757
3 3 17 -5.8537 -0.0291
3 3 18 -4.2219 0.1194
3 3 19 -11.4694 -0.2289
3 3 20 4.4571 -0.3577
3 4 2 -75.2324 -0.2880
3 4 3 62.5087 0.1308
3 4 4 17.4135 -1.2444
3 4 5 -15.4076 -2.2140
3 4 6 -9.1002 0.5810
3 4 7 -2.6390 1.1815
3 4 8 -2.1373 0.6786
3 4 9 -2.8975 1.0260
3 4 10 -3.0196 -0.7267
3 4 11 -2.1203 -0.2878
3 4 12 -2.8181 -0.4666
3 4 13 -1.7310 0.0384
3 4 14 9.3787 -0.0128
3 4 15 3.4617 0.5866
3 4 16 -8.2834 0.3059
3 4 17 11.3768 -0.0597
3 4 18 0.2280 0.5307
3 4 19 3.6249 0.0017
3 4 20 -8.0268 -0.0141
3 5 1 38.3271 -5.1773
3 5 2 -64.1174 -1.6870
3 5 3 -3.2031 1.2992
3 5 4 15.1422 -0.6445
3 5 5 15.9026 -0.7107
3 5 6 6.4727 0.8688
3 5 7 -6.2904 0.3272
3 5 8 1.0511 1.9713
3 5 9 1.1586 0.2592
3 5 10 3.4108 0.3855
3 5 11 -0.4327 0.0849
3 5 12 -1.0106 -0.9690
3 5 13 -6.9420 0.6348
3 5 14 0.4259 -0.1749
3 5 15 -3.5689 -0.1064
3 5 16 4.1736 1.0514
3 5 17 -6.0352 -0.0380
3 5 18 5.0175 0.0411
3 5 19 7.1269 -0.1241
3 5 20 7.7596 -0.9566
3 6 1 4.9991 4.4916
3 6 3 -4.1312 1.4167
3 6 4 -30.4883 -0.4973
3 6 5 -2.4800 -1.4444
3 6 6 7.0145 -1.5436
3 6 7 -1.3448 0.9013
3 6 8 -5.3819 -0.1906
3 6 9 0.8561 -0.5398
3 6 10 -1.8311 -1.1195
3 6 11 2.2194 0.2053
3 6 12 0.9526 -1.2403
3 6 13 1.8078 0.3291
3 6 14 -2.3240 0.7487
3 6 15 -8.5674 -0.3289
3 6 16 -2.1656 0.8600
3 6 17 6.3731 -0.3234
3 6 18 0.5338 -0.0473
3 6 19 9.8282 0.2668
3 6 20 0.9437 -0.6529
3 7 0 120.5587 -4.7392
3 7 2 4.9042 0.0578
3 7 3 17.6016 2.4843
3 7 4 -30.5174 1.9097
3 7 5 3.1153 0.3755
3 7 6 0.3115 0.3044
3 7 7 -5.8245 -0.0851
3 7 8 3.5702 -1.3988
3 7 9 2.4783 -0.2883
3 7 10 -1.5012 -0.1913
3 7 11 -0.9966 -0.4799
3 7 12 -3.2203 -0.3903
3 7 13 5.4777 -0.1725
3 7 14 -4.1480 -0.0301
3 7 15 -5.7432 0.1213
3 7 16 2.5851 0.1152
3 7 17 -14.3360 0.3520
3 7 18 6.3460 0.0021
3 7 19 4.1710 0.2135
3 7 20 12.2910 -0.1659
3 8 1 78.8325 -0.5113
3 8 2 33.0581 -3.6972
3 8 3 71.2358 0.8267
3 8 4 14.8543 -2.3167
3 8 5 9.6154 0.4238
3 8 6 4.5619 0.0294
3 8 7 -10.2753 1.8396
3 8 8 5.0716 0.5861
3 8 9 3.7951 0.2051
3 8 10 0.3751 -1.0865
3 8 11 -1.4638 0.1216
3 8 12 -2.5529 0.5180
3 8 13 6.9957 -0.3894
3 8 14 -1.6721 0.5580
3 8 15 -1.3432 0.4349
3 8 16 -4.2760 -0.2461
3 8 17 7.9940 -0.2865
3 8 18 -34.6478 -0.0663
3 8 19 6.3815 -0.5929
3 8 20 1.5510 0.0948
3 9 0 -108.2205 13.4218
3 9 1 14.8128 -1.3243
3 9 2 -21.2460 2.6403
3 9 3 -11.4990 2.7769
3 9 4 16.7872 -1.9884
3 9 5 17.8510 0.4534
3 9 6 10.5578 -1.4275
3 9 7 -4.4343 -0.7563
3 9 8 -5.5707 0.3989
3 9 9 0.1856 0.3935
3 9 10 6.8690 0.8736
3 9 11 -4.9083 0.2240
3 9 12 -9.0301 -0.1426
3 9 13 6.9714 0.0401
3 9 14 4.8581 -0.5209
3 9 15 1.5470 0.1255
3 9 16 4.8507 -0.8364
3 9 17 17.7330 -0.1484
3 9 18 2.5063 0.3809
3 9 19 -6.7539 -0.1803
3 9 20 3.9527 0.3820
3 10 1 -17.4050 -1.0288
3 10 2 -4.8486 -2.1862
3 10 3 -13.6853 -1.4640
3 10 4 -15.0769 -0.7571
3 10 5 2.7155 -0.1179
3 10 6 4.1441 0.3720
3 10 7 0.1675 2.3806
3 10 8 -1.7024 1.5698
3 10 9 -3.1506 0.5129
3 10 10 3.3252 0.4244
3 10 11 1.7562 -0.6725
3 10 12 4.4088 -1.1506
3 10 13 -6.9734 -0.3398
3 10 14 2.3581 -0.2272
3 10 15 -0.1752 0.1382
3 10 16 -2.1744 0.6414
3 10 17 -2.1895 -0.2168
3 10 18 -13.4503 0.5089
3 10 19 8.5211 0.1827
3 10 20 -0.5747 0.1391
3 11 0 -52.3031 -3.3077
3 11 1 54.6717 -10.1290
3 11 2 4.8264 1.4720
3 11 3 -16.7568 -2.8334
3 11 4 -14.6162 1.5524
3 11 5 0.0023 0.4468
3 11 6 6.2658 -1.8135
3 11 7 0.8649 0.2792
3 11 8 4.3749 0.4332
3 11 9 -2.2619 -1.0149
3 11 10 -2.7856 -0.0995
3 11 11 -0.0586 -0.3827
3 11 12 -1.5044 0.1106
3 11 13 5.1778 0.4168
3 11 14 1.6174 -0.0912
3 11 15 0.3193 0.5911
3 11 16 -4.7952 0.1223
3 11 17 7.8770 -0.0766
3 11 18 -4.3567 0.2881
3 11 19 -10.9750 0.2199
3 12 1 -22.9009 -14.9021
3 12 2 5.2877 -0.2111
3 12 3 20.2194 0.0480
3 12 4 -12.7881 1.1741
3 12 5 -7.1846 1.9434
3 12 6 -0.2551 0.8004
3 12 7 -6.5385 -0.2850
3 12 8 3.6363 0.3231
3 12 9 2.3311 0.0065
3 12 10 3.5614 -0.7594
3 12 11 -3.2827 -0.3437
3 12 12 -4.0535 -0.4622
3 12 13 2.4053 0.2723
3 12 14 -2.1675 0.4285
3 12 15 1.2944 0.1537
3 12 16 9.1455 -0.1345
3 12 17 8.5093 -0.0633
3 12 18 -9.8172 -0.1099
3 12 19 1.0968 -0.2920
3 13 0 -23.1785 26.9157
3 13 1 40.4760 -6.4824
3 13 3 -6.2833 -1.2002
3 13 4 8.2212 -0.0338
3 13 5 -5.0162 2.3366
3 13 6 -5.4500 1.2527
3 13 7 -2.4390 -0.4589
3 13 8 -4.1367 0.4395
3 13 9 -3.2017 -0.2815
3 13 10 3.5284 0.1538
3 13 11 -3.9387 -0.0737
3 13 12 -3.5122 0.9293
3 13 13 4.0874 0.0403
3 13 14 3.9558 0.1126
3 13 15 -4.8788 0.1279
3 13 16 -4.4431 -0.5107
3 13 17 3.6009 -0.0295
3 13 18 12.8172 -0.2760
3 13 19 -5.1190 0.0301
3 14 1 -4.6178 -9.2980
3 14 2 10.1321 -0.4575
3 14 3 0.7301 -1.9278
3 14 4 4.1343 -0.7752
3 14 5 7.5858 0.2362
3 14 6 -3.4909 0.5471
3 14 7 -0.6789 1.0086
3 14 8 -1.9974 -0.4253
3 14 9 -6.2621 0.3168
3 14 10 3.0934 0.0924
3 14 11 -2.4172 0.2446
3 14 12 0.9624 0.1454
3 14 13 -4.0577 -0.3148
3 14 14 1.0176 -0.0168
3 14 15 0.0366 0.2421
3 14 16 6.6279 -0.1348
3 14 17 0.1391 0.0904
3 14 18 -1.8281 0.0873
3 14 19 -0.2457 0.0486
3 15 0 -18.5230 18.0284
3 15 1 21.5795 0.5268
3 15 2 8.2281 0.4236
3 15 3 2.4881 -1.6143
3 15 4 -3.6862 -1.5319
3 15 5 5.7227 1.7677
3 15 6 -0.6719 -0.8209
3 15 7 1.3184 0.0039
3 15 8 1.0607 -1.1177
3 15 9 6.5339 -1.0429
3 15 10 -4.1724 0.7616
3 15 11 -3.0155 -0.1515
3 15 12 -0.5419 0.8365
3 15 13 4.9882 -0.0813
3 15 14 0.8500 -0.5520
3 15 15 -7.7150 0.0423
3 15 16 0.7591 -0.2853
3 15 17 2.2757 0.0503
3 15 18 -4.7501 0.1029
3 15 19 15.4125 0.4682
3 16 1 -15.0175 -0.9573
3 16 2 5.5204 4.0203
3 16 3 4.7986 -1.5036
3 16 4 -1.8154 1.6285
3 16 5 0.4199 -0.9112
3 16 6 -1.3716 -0.4291
3 16 7 1.8602 -0.5961
3 16 8 -1.6430 -0.9502
3 16 9 -0.3461 -0.3434
3 16 10 3.1963 -1.1434
3 16 11 1.7471 0.1774
3 16 12 -1.6725 0.4764
3 16 13 1.5540 -0.3592
3 16 14 4.1012 0.3421
3 16 15 0.1328 -0.1803
3 16 16 6.6496 -0.0131
3 16 17 3.6895 -0.0553
3 16 18 -11.0449 -0.4073
3 16 19 -5.2653 0.4580
3 17 0 -13.8596 -4.2510
3 17 1 1.3381 -5.3333
3 17 2 -4.3542 -1.4069
3 17 3 -10.4763 -2.3235
3 17 4 0.1910 -1.3193
3 17 5 1.6306 1.2174
3 17 6 -5.1013 -0.1953
3 17 7 -1.0552 1.0941
3 17 8 -4.0676 -0.2102
3 17 9 -1.9553 -0.3751
3 17 10 -7.6479 1.1739
3 17 11 -1.0534 -0.6155
3 17 12 -9.2637 0.9644
3 17 13 -6.7226 0.0906
3 17 14 -0.1899 -0.0920
3 17 15 -9.8640 0.0623
3 17 16 11.8188 -0.5301
3 17 17 -0.0543 0.3514
3 17 18 -1.4805 0.0012
3 17 19 15.5342 0.3201
3 18 1 -9.0838 -2.5560
3 18 2 7.5073 0.6531
3 18 3 -5.3206 -4.1632
3 18 4 -1.5512 2.2763
3 18 5 0.6199 0.5452
3 18 6 1.8633 -0.4878
3 18 7 2.3864 0.1092
3 18 8 0.2303 0.0559
3 18 9 -5.5237 0.7198
3 18 10 -1.8036 0.5571
3 18 11 -3.7678 -0.2971
3 18 12 9.3436 -0.0095
3 18 13 2.6085 -0.2921
3 18 14 -11.8389 0.1595
3 18 15 2.1591 -0.3158
3 18 16 1.7779 0.1932
3 18 17 6.4617 0.1111
3 18 18 -4.8478 0.5320
3 19 0 1.6078 13.8538
3 19 1 -5.7018 -2.7017
3 19 2 -1.1518 0.3523
3 19 3 0.5130 1.8043
3 19 4 -7.0413 -0.6839
3 19 5 -1.9001 1.8760
3 19 6 0.3049 1.4364
3 19 7 -4.0807 -0.4814
3 19 8 -0.4629 -0.4205
3 19 9 3.8471 -1.5890
3 19 10 -0.7971 -0.2206
3 19 11 -7.0422 -0.8611
3 19 12 3.4588 0.5175
3 19 13 2.6307 -0.1934
3 19 14 0.6072 0.1915
3 19 15 0.3055 0.6756
3 19 16 0.9184 -0.0556
3 19 17 -8.4122 -0.0863
3 19 18 -9.1461 0.0586
3 20 1 -2.0166 8.8101
3 20 2 3.9078 5.0760
3 20 3 -2.0521 0.5549
3 20 4 -1.0475 2.0930
3 20 5 0.6260 -0.8045
3 20 6 0.7111 0.5550
3 20 7 6.3426 -1.9684
3 20 8 3.3776 -1.9348
3 20 9 -2.0606 0.3305
3 20 10 -0.6860 -0.0029
3 20 11 3.9732 0.5970
3 20 12 7.2219 1.3280
3 20 13 -0.8956 -0.1394
3 20 14 -5.2239 0.5106
3 20 15 -7.0555 -0.8067
3 20 16 6.4347 -0.1215
3 20 17 -5.9856 -0.1778
3 20 18 -8.0824 -0.2884
3 21 0 6.0064 -4.8728
3 21 1 2.4427 -3.9798
3 21 2 4.6731 1.2515
3 21 3 1.2228 -2.0343
3 21 4 3.1466 -1.4299
3 21 5 -3.2064 -0.6444
3 21 6 0.2213 -0.6194
3 21 7 6.4879 -0.6020
3 21 8 0.5841 0.3548
3 21 9 3.0597 0.1692
3 21 10 4.1733 0.6560
3 21 11 4.0861 0.4333
3 21 12 4.9204 0.3652
3 21 13 -0.6117 -0.1061
3 21 14 -0.9165 -0.3210
3 21 15 1.7878 -0.4381
3 21 16 -10.4681 -0.5096
3 21 17 -1.6765 0.4464
3 21 18 -9.1877 -0.6590
3 22 1 -1.4582 -4.9057
3 22 2 2.0240 2.0965
3 22 3 0.7829 -2.8961
3 22 4 1.6142 0.2302
3 22 5 -0.0244 -0.3689
3 22 6 -5.8979 0.6547
3 22 7 2.3399 1.6699
3 22 8 4.7001 -0.9717
3 22 9 -9.0904 0.6239
3 22 10 -4.7610 0.5887
3 22 11 -4.3377 -0.2298
3 22 12 17.9197 0.7928
3 22 13 0.2218 -0.6350
3 22 14 -8.8171 0.4923
3 22 15 11.2370 -0.2741
3 22 16 0.6217 -0.2619
3 22 17 -1.7454 0.6217
3 22 18 -9.9200 -0.1877
3 23 0 8.7853 0.3516
3 23 1 -4.7527 -2.6359
3 23 2 -2.3182 0.4529
3 23 3 -1.0595 0.3822
3 23 4 0.7537 0.0260
3 23 5 3.3819 0.8766
3 23 6 0.8651 -1.4389
3 23 7 -3.9592 0.8529
3 23 8 0.7801 -0.0151
3 23 9 -7.2747 -0.4797
3 23 10 5.6744 0.0333
3 23 11 -6.4472 -0.4138
3 23 12 -4.9172 0.0225
3 23 13 1.3054 0.3347
3 23 14 7.8407 -0.4368
3 23 15 -2.3142 0.2382
3 23 16 -0.3639 -0.2225
3 23 17 6.0842 -0.2046
3 24 1 -8.2220 9.6731
3 24 2 1.2956 1.4042
3 24 3 -4.5286 0.8366
3 24 4 -6.4346 0.6864
3 24 5 -0.2327 -2.1893
3 24 6 1.8193 -0.9811
3 24 7 1.4466 -0.4128
3 24 8 -3.3260 -0.7351
3 24 9 -10.5525 1.2475
3 24 10 -8.1801 -0.6863
3 24 11 0.0239 -0.1772
3 24 12 5.5096 -0.0511
3 24 13 -13.5171 -0.4877
3 24 14 1.9544 0.0237
3 24 15 -0.8141 -0.6366
3 24 16 4.6755 -0.1547
3 24 17 -6.3278 -0.3521
3 25 0 4.9716 -13.4105
3 25 1 -3.0051 -2.3278
3 25 2 0.6059 -0.4295
3 25 3 -1.2504 1.7196
3 25 4 -5.5409 0.8157
3 25 5 -3.7919 0.5493
3 25 6 -1.7151 0.4410
3 25 7 3.3733 0.3652
3 25 8 9.3156 -0.9324
3 25 9 -5.7976 0.4675
3 25 10 -4.1774 -0.1709
3 25 11 -5.6513 0.1551
3 25 12 0.2467 -0.4373
3 25 13 8.0810 0.3031
3 25 14 12.3771 0.6019
3 25 15 0.6476 -0.4324
3 25 16 -1.9865 0.0826
3 25 17 -2.8642 0.2508
3 26 1 -5.2206 2.1079
3 26 2 -3.0708 1.2917
3 26 3 6.4739 -0.3468
3 26 4 1.5715 0.1389
3 26 5 2.9960 -0.4515
3 26 6 -1.3021 -1.1492
3 26 7 -4.0813 0.3333
3 26 8 8.4645 -1.0793
3 26 9 -2.8686 0.0831
3 26 10 14.4702 -0.0501
3 26 11 -2.4783 0.0770
3 26 12 -6.6117 0.8346
3 26 13 3.0873 -0.4257
3 26 14 4.2971 0.7037
3 26 15 7.1833 0.4207
3 26 16 -0.9122 0.2488
3 27 0 8.3552 9.1528
3 27 1 0.9596 -1.0930
3 27 2 -1.0108 3.2544
3 27 3 -7.7816 3.1696
3 27 4 -1.9367 0.6157
3 27 5 1.9552 0.7896
3 27 6 6.7714 0.0236
3 27 7 -1.6281 0.9491
3 27 8 -0.8279 -0.1969
3 27 9 -2.7682 -0.4171
3 27 10 -2.2130 -0.1607
3 27 11 2.3388 -0.1222
3 27 12 2.7872 -0.1234
3 27 13 -6.1394 -0.2639
3 27 14 -1.7410 -0.1293
3 27 15 3.3403 0.1424
3 27 16 2.8011 -0.0806
3 28 1 2.2259 2.9548
3 28 2 -2.7200 1.6083
3 28 3 -2.8487 0.1972
3 28 4 -3.2115 -0.6264
3 28 5 -6.9557 -0.4907
3 28 6 -3.7362 -0.7029
3 28 7 9.0165 -0.6236
3 28 8 2.2573 0.7769
3 28 9 -0.7647 -0.0928
3 28 10 6.4273 -0.5702
3 28 11 -0.2712 0.4510
3 28 12 -7.0094 -0.1895
3 28 13 6.7940 0.0381
3 28 14 -10.5927 -0.2949
3 28 15 -5.5520 -0.6671
3 28 16 -0.5262 -0.4541
3 29 0 1.6993 -5.9272
3 29 1 3.1032 -3.8091
3 29 2 3.0569 -0.8775
3 29 3 2.9076 -1.2879
3 29 4 -2.5371 0.3588
3 29 5 1.8546 -1.7604
3 29 6 -4.2184 -0.9453
3 29 7 -5.9974 -0.5365
3 29 8 4.1517 0.0998
3 29 9 0.2381 0.7058
3 29 10 2.7156 -0.1857
3 29 11 7.0312 0.3556
3 29 12 12.0443 -0.1917
3 29 13 2.6912 -0.5042
3 29 14 -3.7380 0.0124
3 29 15 2.4642 0.0244
3 30 1 -2.2947 -3.3039
3 30 2 -1.7081 -3.5569
3 30 3 6.6245 -0.3436
3 30 4 1.3590 0.7790
3 30 5 3.4477 -0.4917
3 30 6 2.4702 1.3549
3 30 7 -0.9152 1.1885
3 30 8 1.4004 0.8244
3 30 9 -5.8975 0.5929
3 30 10 -0.7672 -0.6233
3 30 11 -5.6966 -1.0518
3 30 12 4.5068 -0.8540
3 30 13 6.7700 -0.3293
3 30 14 4.8349 0.4349
3 30 15 -4.8280 1.3630
3 31 0 -3.4763 -0.3155
3 31 1 0.8473 1.1255
3 31 2 -1.4476 3.0329
3 31 3 -0.7268 0.3118
3 31 4 1.3867 3.4881
3 31 5 -6.8590 0.8396
3 31 6 0.9648 0.0434
3 31 7 -1.8493 -0.2101
3 31 8 -0.9048 -0.4073
3 31 9 1.9412 0.1274
3 31 10 -13.9779 -0.1798
3 31 11 9.0704 -0.3999
3 31 12 -9.6914 0.2926
3 31 13 8.0003 0.2451
3 31 14 15.8657 0.5794
3 31 15 2.8901 1.3736
3 32 1 4.8252 0.4681
3 32 2 -8.8246 0.6118
3 32 3 4.8293 2.7371
3 32 4 1.7504 0.1873
3 32 5 -2.5863 0.3509
3 32 6 -0.6611 -0.1888
3 32 7 0.3763 -0.5884
3 32 8 1.1047 0.1470
3 32 9 4.0808 -0.1876
3 32 10 1.2767 0.0142
3 32 11 2.8832 0.3427
3 32 12 5.2359 -0.3026
3 32 13 5.2187 0.2025
3 32 14 10.9628 0.4515
3 33 0 -3.2940 -0.5978
3 33 1 3.5544 0.5309
3 33 2 5.2629 -1.4483
3 33 3 -3.9547 -1.1504
3 33 4 -1.9882 -3.0443
3 33 5 1.8924 -0.0702
3 33 6 -0.6878 -0.5191
3 33 7 -3.6892 -0.6549
3 33 8 -2.1540 -0.2163
3 33 9 1.4623 -0.0790
3 33 10 -6.8224 -0.2534
3 33 11 8.3865 0.3921
3 33 12 -8.7781 -0.7791
3 33 13 2.2640 -0.0201
3 34 1 -2.3391 -2.5768
3 34 2 0.2552 -4.2453
3 34 3 3.5839 0.2552
3 34 4 -2.8643 -1.3455
3 34 5 -7.6448 0.2457
3 34 6 8.4040 1.0276
3 34 7 0.3156 0.1904
3 34 8 -1.8056 1.4673
3 34 9 -1.7095 0.0562
3 34 10 -8.2630 0.1987
3 34 11 -7.7324 0.2829
3 34 12 -1.5788 0.3621
3 34 13 -15.4080 0.5429
3 35 0 -4.1637 3.3605
3 35 1 2.1369 -0.4734
3 35 2 -9.6686 -0.4546
3 35 3 1.2104 0.9956
3 35 4 -3.6224 -0.8686
3 35 5 -8.5658 -0.1580
3 35 6 -1.0152 -0.2404
3 35 7 0.1255 1.7587
3 35 8 -2.2261 0.4597
3 35 9 6.6224 0.7087
3 35 10 -11.0521 0.8438
3 35 11 -3.2058 -0.5365
3 35 12 -6.3862 -0.0514
3 35 13 -0.3543 -0.1985
3 36 1 -2.0284 -0.5708
3 36 2 -4.1248 -2.8164
3 36 3 -1.1787 -0.2523
3 36 4 5.5361 0.8945
3 36 5 -6.8305 0.6873
3 36 6 0.7946 0.2428
3 36 7 -2.0224 -0.5995
3 36 8 1.2865 -0.1129
3 36 9 6.8007 -0.6216
3 36 10 7.3678 -1.0762
3 36 11 2.3074 -0.9489
3 36 12 0.5756 0.1829
3 37 0 10.2622 3.0039
3 37 1 5.7771 -0.1332
3 37 2 2.0517 0.4266
3 37 3 -1.9675 -0.8872
3 37 4 -3.7604 -1.0573
3 37 5 1.9198 -0.3268
3 37 6 2.1440 -1.6189
3 37 7 -3.9456 0.2851
3 37 8 -0.9694 0.4517
3 37 9 -4.8347 -0.7717
3 37 10 -8.6579 1.7440
3 37 11 7.1224 -0.8654
3 38 1 2.7731 -3.3404
3 38 2 -0.3908 -1.2972
3 38 3 1.9646 0.4988
3 38 4 -6.0876 -1.5327
3 38 5 -13.7706 -0.1947
3 38 6 -0.5178 0.7032
3 38 7 1.8039 -0.5152
3 38 8 0.9945 0.6023
3 38 9 8.5255 0.0138
3 38 10 -1.9061 -0.2442
3 38 11 -3.3444 0.6853
3 39 0 -12.1395 6.3965
3 39 1 9.9929 -1.6892
3 39 2 -1.8570 1.2231
3 39 3 4.6449 0.1275
3 39 4 6.8321 0.6523
3 39 5 -5.1207 0.7474
3 39 6 -6.1067 1.2994
3 39 7 -1.3000 0.3633
3 39 8 0.6994 0.5022
3 39 9 2.9924 -0.2861
3 39 10 -0.3815 -0.2855
3 40 1 4.3131 -0.4954
3 40 2 0.3099 2.3535
3 40 3 3.4958 1.1439
3 40 4 2.4812 1.0282
3 40 5 0.2491 0.0704
3 40 6 1.2517 -0.1458
3 40 7 -7.7762 0.5771
3 40 8 -0.9657 -0.1151
3 40 9 -0.1225 -0.0669
3 41 0 -0.1462 7.3504
3 41 1 2.3576 -0.0448
3 41 2 5.5665 0.6381
3 41 3 2.9626 -1.7806
3 41 4 -2.3112 -2.5439
3 41 5 -2.2207 -0.3085
3 41 6 -4.0127 -0.4807
3 41 7 0.7981 -0.2700
3 41 8 -1.6527 0.5135
3 41 9 -5.3288 -0.7222
3 42 1 -2.1518 -0.9594
3 42 2 -9.6213 -1.4481
3 42 3 5.2745 1.2682
3 42 4 4.8542 -1.0134
3 42 5 2.7388 0.1164
3 42 6 3.4043 -0.5465
3 42 7 -0.3075 0.6089
3 42 8 5.1336 -0.5984
3 43 0 4.0033 -0.6943
3 43 1 13.4210 -2.2121
3 43 2 0.6353 0.9686
3 43 3 0.0225 0.2107
3 43 4 -1.4156 0.8964
3 43 5 -0.8786 1.5250
3 43 6 -0.4584 2.0291
3 44 1 -0.4349 -1.0158
3 44 2 1.8077 0.8110
3 44 3 2.2305 -0.2101
3 44 4 -3.9877 -0.1807
3 45 0 -3.3741 1.9684
3 45 1 -6.5986 -3.1947
3 45 2 -0.0789 -0.4838
4 1 1 203.9619 0.1351
4 1 3 -7.0494 3.4005
4 1 4 22.2465 2.1361
4 1 5 2.0884 0.6852
4 1 6 7.0987 -3.5798
4 1 7 -3.7287 -1.2929
4 1 8 -3.4926 -0.8166
4 1 9 2.0174 -2.1320
4 1 10 1.0101 0.4681
4 1 11 -0.8398 0.7398
4 1 12 -6.3067 0.3772
4 1 13 5.2873 1.0032
4 1 14 0.6565 -0.4563
4 1 15 5.6527 0.0607
4 1 16 11.1370 -0.0746
4 1 17 -13.6849 0.0485
4 1 18 1.1217 -0.4089
4 1 19 3.9517 -0.2061
4 1 20 4.5693 -0.2608
4 2 1 -133.9771 3.8532
4 2 2 43.4774 -1.3977
4 2 3 79.8586 3.0362
4 2 4 71.3067 -1.0707
4 2 5 -10.7994 -1.8543
4 2 6 16.3818 -1.6964
4 2 7 7.7656 -1.2198
4 2 8 -10.2626 -0.8390
4 2 9 -0.7196 -0.3000
4 2 10 0.7034 0.9689
4 2 11 0.8072 0.4128
4 2 12 -4.4845 -0.5222
4 2 13 -2.6586 0.7459
4 2 14 0.3583 -0.7290
4 2 15 -2.1742 -0.1652
4 2 16 2.4618 -0.5594
4 2 17 5.1753 -0.3318
4 2 18 -20.8303 0.4049
4 2 19 0.9166 -0.0295
4 2 20 -5.4679 0.7216
4 3 3 -71.9179 -2.2429
4 3 4 31.1145 0.9946
4 3 5 -15.3726 -1.1500
4 3 6 18.4705 1.8738
4 3 7 1.0295 0.3008
4 3 8 -5.8005 1.3753
4 3 9 -5.0750 0.9119
4 3 10 -2.1258 0.6529
4 3 11 -5.2335 0.4928
4 3 12 2.5793 -0.2399
4 3 13 -3.9828 -0.3632
4 3 14 -1.9119 -1.1223
4 3 15 0.5034 -0.2854
4 3 16 3.4661 -0.6698
4 3 17 -1.3362 0.2323
4 3 18 9.0693 0.9347
4 3 19 0.6637 0.3028
4 3 20 -9.0527 0.4658
4 4 0 33.3244 -1.8330
4 4 2 16.0008 3.2106
4 4 3 -73.3409 1.1432
4 4 4 6.7654 1.4288
4 4 5 -28.3076 0.3704
4 4 6 12.1014 2.2453
4 4 7 6.6569 0.1510
4 4 8 0.1514 2.0700
4 4 9 -3.5671 0.2865
4 4 10 1.5656 -0.6374
4 4 11 -4.9259 -0.3437
4 4 12 2.6926 -1.1223
4 4 13 -3.8213 -0.6538
4 4 14 -1.2248 0.1395
4 4 15 4.7995 0.6800
4 4 16 -8.8439 0.5553
4 4 17 -1.8139 0.7336
4 4 18 -4.3044 0.3173
4 4 19 12.9002 -0.0475
4 4 20 17.4932 0.1873
4 5 1 -28.5817 -1.9908
4 5 2 49.6306 3.8932
4 5 3 -6.2772 0.1245
4 5 4 8.8572 3.5280
4 5 5 -27.9689 1.2980
4 5 6 4.5064 -0.9184
4 5 7 6.8876 0.3815
4 5 8 -0.5083 -1.5933
4 5 9 -1.3348 -0.6900
4 5 10 4.5359 -0.1585
4 5 11 5.5343 -0.0872
4 5 12 -4.4304 -0.0266
4 5 13 -8.4811 0.2286
4 5 14 8.9103 -0.0999
4 5 15 -7.7695 -0.1526
4 5 16 11.2473 -0.2330
4 5 17 -4.5765 0.4078
4 5 18 0.2020 -0.1298
4 5 19 -3.8507 0.0533
4 5 20 7.2885 -0.6319
4 6 0 66.5927 0.2606
4 6 1 71.4383 1.1840
4 6 2 20.6848 3.0309
4 6 3 0.6292 -1.7554
4 6 4 25.4125 1.0985
4 6 5 -3.5872 -1.9931
4 6 6 -0.4248 -2.0681
4 6 7 4.1835 -1.6999
4 6 8 -2.7567 0.4935
4 6 9 2.5972 -0.3212
4 6 10 1.0155 1.2102
4 6 11 -0.4851 0.1799
4 6 12 2.9093 -0.0070
4 6 13 -6.7265 0.4049
4 6 14 -5.5921 -0.6931
4 6 15 2.6391 0.0491
4 6 16 -4.8067 0.0352
4 6 17 2.5826 -0.3502
4 6 18 -2.1737 -0.1295
4 6 19 -4.3156 -0.1787
4 6 20 -5.6395 -0.0715
4 7 2 42.2087 -0.4833
4 7 3 24.2260 0.3777
4 7 4 15.8843 -0.1734
4 7 5 -5.0165 -0.0664
4 7 6 13.8233 -0.2345
4 7 7 -4.5550 0.8359
4 7 8 0.5446 -0.3155
4 7 9 0.0857 0.2219
4 7 10 2.0960 0.0833
4 7 11 5.2774 1.1685
4 7 12 -1.7029 0.3067
4 7 13 -2.3041 -0.0977
4 7 14 -0.9044 0.1226
4 7 15 -13.2114 -0.1600
4 7 16 5.8457 -0.2726
4 7 17 -9.4973 -0.0251
4 7 18 -2.4578 -0.2054
4 7 19 0.1236 0.3363
4 7 20 -4.9401 -0.3954
4 8 0 -12.1621 -6.6814
4 8 1 12.2538 -0.5843
4 8 2 -12.3569 -3.9287
4 8 3 -7.8398 -2.9301
4 8 4 17.7102 0.1403
4 8 5 4.7221 -1.7655
4 8 6 6.5116 -0.7329
4 8 7 -3.0715 0.0196
4 8 8 -3.0878 1.8963
4 8 9 2.7884 1.7828
4 8 10 1.7988 0.1199
4 8 11 -6.6935 0.3088
4 8 12 7.9587 -0.0172
4 8 13 0.6665 -0.7427
4 8 14 4.0884 -0.0739
4 8 15 -0.4099 -0.1019
4 8 16 -0.5010 0.2916
4 8 17 15.6193 0.8059
4 8 18 12.9166 -0.0742
4 8 19 -2.9160 -0.0968
4 8 20 10.0074 0.2521
4 9 1 -48.4576 -1.6019
4 9 2 54.3143 1.4904
4 9 3 -9.5146 -1.4548
4 9 4 -13.8875 -0.0079
4 9 5 0.9635 0.9773
4 9 6 10.5272 -1.9654
4 9 7 -1.4386 0.6093
4 9 8 -6.5603 -1.5131
4 9 9 -3.1919 0.4504
4 9 10 -4.1799 -0.1866
4 9 11 1.1582 -0.6709
4 9 12 -3.1750 0.7859
4 9 13 -3.7886 -0.7130
4 9 14 11.1874 0.0030
4 9 15 -8.6173 0.1450
4 9 16 -0.2984 -0.1767
4 9 17 -15.3232 0.2450
4 9 18 25.3497 0.0685
4 9 19 -8.5669 0.2901
4 9 20 2.7528 -0.4461
4 10 0 24.6977 22.7839
4 10 1 -12.9990 7.4444
4 10 2 1.8973 -0.8270
4 10 3 5.8096 -0.3153
4 10 4 -10.4107 -1.8280
4 10 5 -4.7770 -1.7771
4 10 6 -0.4576 -1.4227
4 10 7 -0.5901 -0.3830
4 10 8 -4.0880 -0.8681
4 10 9 -1.1582 0.6440
4 10 10 0.4528 1.2089
4 10 11 -0.4063 0.0810
4 10 12 2.7645 -0.2238
4 10 13 0.4288 0.2503
4 10 14 0.2307 -0.7699
4 10 15 12.1765 -0.1786
4 10 16 -5.9564 -0.3578
4 10 17 0.7842 -0.7092
4 10 18 -6.2835 0.3856
4 10 19 1.2150 0.0140
4 10 20 5.0984 0.5469
4 11 1 -57.1933 8.0701
4 11 2 14.4711 -2.6936
4 11 3 5.6075 -5.0916
4 11 4 -1.5571 -0.5129
4 11 5 -4.6392 -0.3767
4 11 6 8.7949 1.1325
4 11 7 -0.9522 1.1369
4 11 8 -1.8149 0.1406
4 11 9 -7.4741 0.0055
4 11 10 4.7012 -0.1839
4 11 11 2.2350 -0.1234
4 11 12 -3.3449 0.0565
4 11 13 0.7090 -0.2293
4 11 14 -0.4132 0.3652
4 11 15 6.8476 0.0809
4 11 16 5.2989 0.4945
4 11 17 8.7117 0.1924
4 11 18 3.5420 0.0321
4 11 19 -6.4914 0.7158
4 12 0 76.9219 2.3276
4 12 1 19.3430 -4.3087
4 12 2 -7.8009 1.0138
4 12 3 -1.2014 -1.4446
4 12 4 5.6356 0.0679
4 12 5 -7.4487 1.1679
4 12 6 8.4771 1.8735
4 12 7 4.2360 0.2627
4 12 8 1.1102 1.3463
4 12 9 -6.3405 -0.3397
4 12 10 0.1804 -1.0080
4 12 11 -1.4376 0.2431
4 12 12 -0.1327 -1.3966
4 12 13 -4.9086 -0.6504
4 12 14 -3.6310 0.3328
4 12 15 -11.4765 0.0816
4 12 16 -8.1973 1.2779
4 12 17 5.3013 0.2695
4 12 18 11.9671 0.0060
4 12 19 -6.9955 0.1491
4 13 1 3.6253 1.3373
4 13 2 20.3857 5.5901
4 13 3 4.4000 -2.9839
4 13 4 -1.5283 -0.4346
4 13 5 -5.6374 -0.6360
4 13 6 -1.2055 0.9898
4 13 7 -1.0279 -0.7089
4 13 8 4.0177 -0.2357
4 13 9 -1.3040 -0.6800
4 13 10 1.0214 -0.7638
4 13 11 -0.2494 -0.1070
4 13 12 -5.6179 0.6299
4 13 13 -2.3340 0.0560
4 13 14 8.4247 0.8111
4 13 15 -3.2755 -0.5803
4 13 16 -12.8569 -0.1620
4 13 17 -5.6652 0.1648
4 13 18 1.9589 -1.3710
4 13 19 4.7734 -0.0133
4 14 0 13.9880 13.4337
4 14 1 -3.4845 4.8594
4 14 2 6.3745 -2.6377
4 14 3 4.6667 0.7365
4 14 4 -3.5876 1.6899
4 14 5 0.8986 -4.1364
4 14 6 -7.2852 0.7118
4 14 7 0.8779 -1.1683
4 14 8 0.2843 -0.3667
4 14 9 1.2272 0.9252
4 14 10 1.5469 0.0046
4 14 11 -0.6395 0.0511
4 14 12 -0.5403 1.0076
4 14 13 0.3582 -0.3206
4 14 14 -7.5563 -0.2341
4 14 15 9.2484 -0.1214
4 14 16 -4.1889 -0.4660
4 14 17 5.9046 -0.4118
4 14 18 9.0364 0.0169
4 14 19 1.6304 -0.4480
4 15 1 -8.9345 6.5039
4 15 2 3.7034 2.7989
4 15 3 17.3768 -2.5576
4 15 4 4.7530 1.4975
4 15 5 -1.0158 -1.5540
4 15 6 -0.4526 0.5248
4 15 7 -4.4561 2.7521
4 15 8 -6.1589 0.1783
4 15 9 -1.0088 0.5329
4 15 10 2.4665 0.2833
4 15 11 3.4608 -1.6125
4 15 12 -4.5036 0.0199
4 15 13 3.8609 -0.2526
4 15 14 5.8299 -0.0966
4 15 15 -5.3576 0.5935
4 15 16 -14.5389 -0.4168
4 15 17 14.2690 -0.0434
4 15 18 -13.8938 -0.2594
4 15 19 4.2460 0.4479
4 16 0 11.2746 -9.8037
4 16 1 -16.2260 3.8904
4 16 2 -19.8382 1.5487
4 16 3 -6.1103 -0.7599
4 16 4 2.6218 -1.8892
4 16 5 2.2438 2.1820
4 16 6 3.4101 0.4369
4 16 7 1.2260 -0.7181
4 16 8 1.8838 1.4828
4 16 9 -5.2021 -0.5504
4 16 10 -7.2141 -0.4070
4 16 11 -1.4367 0.6535
4 16 12 -4.4455 -0.7395
4 16 13 4.2535 0.6176
4 16 14 1.9551 0.1904
4 16 15 3.7994 0.1772
4 16 16 -2.8126 0.6369
4 16 17 -9.0594 -0.2088
4 16 18 11.2805 0.0900
4 16 19 -3.2560 -0.2719
4 17 1 4.3370 -0.8870
4 17 2 -7.5422 5.2172
4 17 3 -6.1411 0.8421
4 17 4 -7.7042 -2.2648
4 17 5 4.6586 -0.6284
4 17 6 2.2924 -0.8036
4 17 7 1.5970 0.0779
4 17 8 1.1232 0.2418
4 17 9 3.1163 -0.1174
4 17 10 -2.6240 -0.6434
4 17 11 -0.9093 0.0211
4 17 12 0.1691 -0.2330
4 17 13 -1.4584 -0.2194
4 17 14 3.0158 0.4622
4 17 15 15.8391 -0.2152
4 17 16 -6.2365 0.3888
4 17 17 31.6463 0.2285
4 17 18 -13.2621 0.2572
4 17 19 -6.4276 0.7119
4 18 0 13.3338 -17.8819
4 18 1 5.4953 2.5580
4 18 2 6.4353 -1.9213
4 18 3 3.9254 2.0602
4 18 4 -7.8691 -0.9786
4 18 5 -6.8044 1.2298
4 18 6 -4.9825 3.0247
4 18 7 1.9341 0.4778
4 18 8 3.5240 -0.8679
4 18 9 0.3894 0.1370
4 18 10 0.4718 -1.2935
4 18 11 -7.0609 0.1296
4 18 12 -7.3095 -0.1913
4 18 13 10.0433 0.1726
4 18 14 -7.7299 0.7571
4 18 15 -7.9740 -0.3593
4 18 16 -4.2360 0.2527
4 18 17 4.6813 -0.9375
4 18 18 11.7362 0.2418
4 19 1 12.0548 -0.9233
4 19 2 -3.2244 -1.0700
4 19 3 11.0878 -1.3876
4 19 4 8.0216 -0.4163
4 19 5 -6.3709 -0.3358
4 19 6 0.0940 -0.1985
4 19 7 -5.2086 1.8503
4 19 8 -2.8383 -0.5571
4 19 9 2.4948 0.2561
4 19 10 -0.3905 -0.2616
4 19 11 1.1003 -0.7207
4 19 12 -3.4834 1.2050
4 19 13 2.2768 -0.0956
4 19 14 -0.0876 0.6394
4 19 15 -7.2215 0.4882
4 19 16 -10.8543 0.1252
4 19 17 3.0942 -0.4615
4 19 18 -1.5992 -0.3873
4 20 0 -0.3037 -14.6170
4 20 1 -3.2633 -1.9531
4 20 2 -0.6890 -2.8052
4 20 3 1.2822 2.8797
4 20 4 5.4343 -1.1952
4 20 5 -0.2462 -1.3449
4 20 6 1.1076 -0.4664
4 20 7 -0.7650 -0.5795
4 20 8 3.2989 0.4075
4 20 9 1.3388 -0.1219
4 20 10 -2.5831 -0.3549
4 20 11 -2.4353 0.4786
4 20 12 4.3210 -0.1116
4 20 13 8.1549 0.5521
4 20 14 -6.0575 0.6126
4 20 15 3.5294 -0.2368
4 20 16 -6.5558 0.4313
4 20 17 -6.9368 -0.2861
4 20 18 5.4729 -0.0559
4 21 1 7.3762 -1.8877
4 21 2 -5.8268 -1.8456
4 21 3 -6.5172 1.3430
4 21 4 -2.1847 -1.0831
4 21 5 3.1498 1.5516
4 21 6 -3.3346 -0.3767
4 21 7 0.4874 -0.8161
4 21 8 5.0004 -0.2549
4 21 9 5.9515 0.6366
4 21 10 0.7176 -0.1131
4 21 11 -5.5987 -0.8512
4 21 12 3.7301 0.2089
4 21 13 11.2323 -0.3602
4 21 14 -8.9110 0.4023
4 21 15 14.0024 -0.3245
4 21 16 -8.6324 0.0762
4 21 17 6.1536 0.3381
4 21 18 -4.6014 0.7793
4 22 0 -2.0098 -5.7467
4 22 1 2.3145 2.2310
4 22 2 2.1075 0.8171
4 22 3 2.9661 2.4801
4 22 4 -6.3220 3.5113
4 22 5 -2.0766 -0.6961
4 22 6 3.3413 0.8177
4 22 7 1.3577 -0.2797
4 22 8 3.4834 -1.4979
4 22 9 2.7881 0.0341
4 22 10 0.5016 -0.0540
4 22 11 1.2978 0.0473
4 22 12 -4.5960 -0.3451
4 22 13 3.2439 0.0989
4 22 14 -6.6327 0.2159
4 22 15 0.5418 -0.1319
4 22 16 5.0887 0.1777
4 22 17 -3.0473 -0.4724
4 23 1 6.8859 -7.9193
4 23 2 -3.7481 -3.0672
4 23 3 2.5794 -2.5029
4 23 4 2.7998 -1.5939
4 23 5 -4.9751 0.4842
4 23 6 -5.8353 -0.4257
4 23 7 -3.0426 1.1784
4 23 8 0.9860 0.0075
4 23 9 6.4513 0.2416
4 23 10 -15.0858 0.4105
4 23 11 3.1699 0.2956
4 23 12 -2.7206 -0.0100
4 23 13 -12.7868 -0.5087
4 23 14 -4.3797 0.4722
4 23 15 6.8927 -0.3045
4 23 16 -2.6847 -0.2525
4 23 17 -1.2392 -0.1706
4 24 0 -3.6522 -4.3839
4 24 1 -2.7210 -3.2321
4 24 2 -2.0554 1.7682
4 24 3 -2.2214 -0.7057
4 24 4 2.4026 1.5636
4 24 5 0.3708 1.7304
4 24 6 -0.8417 1.2730
4 24 7 -2.1465 -0.0881
4 24 8 -0.9768 -0.3840
4 24 9 -7.4472 -0.6326
4 24 10 -8.2138 -1.6474
4 24 11 4.2082 -0.0847
4 24 12 4.6057 -0.7169
4 24 13 -5.7340 -0.0764
4 24 14 -11.0441 0.1609
4 24 15 4.0724 -0.2915
4 24 16 2.8725 0.6888
4 24 17 -2.0775 -1.0398
4 25 1 3.9926 1.1342
4 25 2 -3.0153 0.1511
4 25 3 1.0872 1.2248
4 25 4 -6.5945 1.4272
4 25 5 1.4847 0.3481
4 25 6 -0.2845 0.5079
4 25 7 -0.6653 0.9792
4 25 8 6.4316 -0.2699
4 25 9 5.1766 -0.1877
4 25 10 -11.3385 -0.0564
4 25 11 1.0333 0.0383
4 25 12 7.4233 -0.3512
4 25 13 5.4779 0.2027
4 25 14 1.1514 -0.3142
4 25 15 6.1331 -0.3402
4 25 16 -7.7356 0.2411
4 25 17 2.9443 -0.2904
4 26 0 1.8362 -0.9375
4 26 1 7.4120 3.2205
4 26 2 -1.1926 1.5583
4 26 3 -1.6939 0.3734
4 26 4 -3.1577 0.0835
4 26 5 -6.6779 -1.4194
4 26 6 -0.0577 -0.5236
4 26 7 3.4425 -0.0734
4 26 8 -0.1188 -1.2562
4 26 9 3.1103 0.8383
4 26 10 -4.4015 0.0177
4 26 11 16.7354 0.8199
4 26 12 2.8242 0.2102
4 26 13 -9.5744 0.6353
4 26 14 -0.2541 0.3289
4 26 15 9.4828 -0.7880
4 26 16 5.4740 0.4936
4 27 1 4.5143 -0.2625
4 27 2 3.8242 -2.4064
4 27 3 3.3012 -0.5543
4 27 4 -0.7132 2.1447
4 27 5 -4.7689 -0.3218
4 27 6 -2.4811 -0.1572
4 27 7 -2.1528 0.4266
4 27 8 4.9674 -0.4808
4 27 9 6.9631 0.0936
4 27 10 -8.0061 -1.1807
4 27 11 -4.3746 0.5094
4 27 12 8.0512 -0.1539
4 27 13 1.7185 -0.3894
4 27 14 -9.7645 -0.0555
4 27 15 -9.0819 -0.2577
4 27 16 -0.2207 -0.5960
4 28 0 -1.5692 -1.9633
4 28 1 1.8313 -2.5537
4 28 2 3.0621 -0.4323
4 28 3 0.1860 -0.8086
4 28 4 2.7081 -1.6220
4 28 5 6.8017 1.4176
4 28 6 -4.6274 -0.6839
4 28 7 2.0789 0.2678
4 28 8 4.1872 0.6415
4 28 9 -4.8015 0.8699
4 28 10 5.7520 0.5804
4 28 11 6.5874 0.3544
4 28 12 3.5516 -0.4564
4 28 13 -0.6215 -0.5933
4 28 14 5.2125 0.2559
4 28 15 1.0377 -0.5278
4 28 16 4.6715 0.1278
4 29 1 -1.3349 -2.9447
4 29 2 1.3346 1.8243
4 29 3 -1.6688 -1.5989
4 29 4 4.9899 0.6537
4 29 5 -0.4814 0.2446
4 29 6 -0.1821 0.6594
4 29 7 -5.2156 -0.3799
4 29 8 8.4863 0.3225
4 29 9 8.5319 0.4053
4 29 10 -1.8901 -0.3207
4 29 11 -0.5481 -0.0331
4 29 12 6.2001 -0.0243
4 29 13 3.2591 -0.2428
4 29 14 1.7130 -0.0631
4 29 15 3.6791 0.5724
4 30 0 -7.1628 7.5084
4 30 1 1.9576 -0.3076
4 30 2 0.2171 0.3952
4 30 3 -0.1072 0.5818
4 30 4 5.0817 1.0860
4 30 5 -0.1916 -0.0361
4 30 6 0.5973 -0.5170
4 30 7 -8.4218 -0.0837
4 30 8 -4.3845 -0.6279
4 30 9 -6.0420 -0.9902
4 30 10 1.9411 0.9391
4 30 11 -4.7154 -0.2343
4 30 12 6.3116 0.0422
4 30 13 -1.0721 -0.0423
4 30 14 8.0053 -0.0173
4 30 15 9.8098 -0.2567
4 31 1 -3.1256 1.2293
4 31 2 -3.3808 2.6642
4 31 3 -3.6671 -3.1304
4 31 4 1.2862 1.1868
4 31 5 0.3195 -1.5950
4 31 6 -1.9001 0.0084
4 31 7 4.4225 -0.4456
4 31 8 5.1148 -0.4640
4 31 9 -0.3706 0.1331
4 31 10 4.7171 -0.4724
4 31 11 0.8332 0.8340
4 31 12 9.2499 -0.1584
4 31 13 -12.2229 0.5125
4 31 14 4.9943 0.2573
4 32 0 -5.3523 -0.7973
4 32 1 -1.7508 -5.0846
4 32 2 0.7472 -0.4803
4 32 3 -3.6004 -2.5420
4 32 4 0.3188 -0.9491
4 32 5 -5.7323 -0.8363
4 32 6 -7.3849 -0.5858
4 32 7 0.7842 0.0600
4 32 8 -5.5146 1.7780
4 32 9 -1.9470 -0.1323
4 32 10 6.0583 0.3506
4 32 11 -3.9524 -0.5151
4 32 12 18.5841 0.1561
4 32 13 -7.2966 0.0332
4 32 14 -11.9362 -0.9131
4 33 1 -2.5281 -3.1809
4 33 2 5.5479 2.1849
4 33 3 2.1934 0.2776
4 33 4 2.7590 2.1703
4 33 5 -0.1793 0.0502
4 33 6 0.2093 0.3595
4 33 7 1.9423 -0.6783
4 33 8 -6.5774 -0.8952
4 33 9 -7.4793 0.7012
4 33 10 -10.6303 -0.3896
4 33 11 -11.3306 0.3977
4 33 12 -2.3557 -0.4165
4 33 13 -3.7960 0.3772
4 34 0 -2.6230 17.4323
4 34 1 0.7376 4.1818
4 34 2 1.7073 0.5622
4 34 3 -0.5236 0.0379
4 34 4 6.0326 -0.7572
4 34 5 -10.9435 -0.8721
4 34 6 -3.0398 -0.2744
4 34 7 1.4735 -0.8839
4 34 8 0.1551 -0.0766
4 34 9 -2.4688 0.2975
4 34 10 8.0817 0.9357
4 34 11 -2.8071 -0.3015
4 34 12 2.5899 0.1421
4 34 13 -5.0659 -0.3533
4 35 1 -0.7912 3.2746
4 35 2 0.1082 0.1619
4 35 3 -5.9459 -1.5906
4 35 4 0.7967 -0.2605
4 35 5 -3.1929 -0.9631
4 35 6 -2.2116 -1.1318
4 35 7 -0.7763 0.1088
4 35 8 4.3798 -0.4817
4 35 9 -9.1859 0.4325
4 35 10 14.8852 0.3204
4 35 11 3.3586 0.7379
4 35 12 7.3113 -0.5510
4 35 13 1.5852 -0.7981
4 36 0 -1.9573 0.2985
4 36 1 -5.9148 -4.9599
4 36 2 6.0936 -0.0685
4 36 3 3.9124 -1.3419
4 36 4 5.2346 -1.1841
4 36 5 -0.8632 1.2257
4 36 6 -2.2486 0.2286
4 36 7 -1.2243 0.2459
4 36 8 1.7275 0.5634
4 36 9 -0.5632 -0.5622
4 36 10 -7.9879 0.5557
4 36 11 -3.2732 -0.4081
4 36 12 5.7066 0.6698
4 37 1 -1.1714 2.7078
4 37 2 -1.2184 1.6779
4 37 3 -5.1206 0.3877
4 37 4 -4.0762 0.8099
4 37 5 -5.3108 0.4421
4 37 6 1.0114 0.5155
4 37 7 -0.8533 0.7139
4 37 8 -4.3172 -0.4161
4 37 9 5.0774 0.5920
4 37 10 17.6521 -0.9418
4 37 11 -3.4991 -1.1916
4 38 0 -5.8339 6.5922
4 38 1 3.0767 -1.6550
4 38 2 5.0802 0.1205
4 38 3 4.2754 -0.7096
4 38 4 7.8925 0.1124
4 38 5 -13.5203 0.1109
4 38 6 -2.8890 -0.3587
4 38 7 -2.6696 0.6678
4 38 8 -5.7069 -0.0070
4 38 9 -7.3722 -0.8792
4 38 10 6.1045 -0.0937
4 38 11 1.9189 -0.5984
4 39 1 -3.2612 2.8425
4 39 2 7.0840 1.9037
4 39 3 0.1588 -0.1792
4 39 4 5.7701 -0.6060
4 39 5 3.6518 -1.2582
4 39 6 -1.1404 -0.3141
4 39 7 -0.0103 -0.6906
4 39 8 -1.3426 0.4429
4 39 9 -3.6450 0.6038
4 39 10 -1.8709 0.4886
4 40 0 -3.4261 7.4218
4 40 1 4.9739 -2.3479
4 40 2 4.6513 -0.1675
4 40 3 -3.2211 0.4699
4 40 4 5.1709 -0.3651
4 40 5 -4.5903 1.5507
4 40 6 1.2137 0.4153
4 40 7 -1.6084 0.0567
4 40 8 -1.0854 2.2328
4 40 9 4.6819 -0.8607
4 41 1 -1.5993 2.8873
4 41 2 -4.0922 -0.5286
4 41 3 -1.2997 -0.1266
4 41 4 -0.3683 -1.3512
4 41 5 2.2226 -0.8679
4 41 6 -5.0161 1.0470
4 41 7 -4.2714 0.8236
4 41 8 -2.5221 -1.0816
4 42 0 -5.1925 -3.7351
4 42 1 3.5578 -0.8519
4 42 2 5.5485 -0.1461
4 42 3 0.2231 -0.7933
4 42 4 2.4176 0.5241
4 42 5 -2.0082 0.6125
4 42 6 5.5062 0.5077
4 42 7 -10.4229 1.3926
4 43 1 -6.7912 -2.2475
4 43 2 -3.0929 0.0047
4 43 3 1.7115 -0.2565
4 43 4 1.8820 -1.9055
4 43 5 -0.7108 -0.2090
4 43 6 0.3529 0.6822
4 44 0 6.6768 -0.4978
4 44 1 -0.3328 -1.2994
4 44 2 2.5005 -0.7871
4 44 3 0.1711 -0.8817
4 44 4 3.4626 -0.6502
4 45 1 -2.5882 2.3277
4 45 2 4.1462 -0.0221
5 1 0 29.9241 1.3615
5 1 1 -77.6030 2.4638
5 1 2 38.1139 -0.3830
5 1 3 37.9806 -0.4056
5 1 4 -10.8481 0.5336
5 1 5 6.6281 1.9307
5 1 6 -7.7231 0.8782
5 1 7 3.6208 1.3460
5 1 8 2.6319 0.2151
5 1 9 4.2929 -0.1777
5 1 10 -0.2646 -0.7014
5 1 11 0.6109 -0.0905
5 1 12 -4.7317 0.2676
5 1 13 0.5184 0.4638
5 1 14 -5.7811 0.1963
5 1 15 -16.1756 -0.3657
5 1 16 -4.9919 -0.3645
5 1 17 6.2932 -0.1075
5 1 18 11.2337 -0.4207
5 1 19 7.6400 0.3595
5 1 20 -1.7575 0.5426
5 2 1 -48.2773 -6.3813
5 2 2 6.5681 1.4956
5 2 3 -11.7675 3.3827
5 2 4 8.6755 0.7526
5 2 5 3.3872 1.3926
5 2 6 -15.7063 -1.3595
5 2 7 6.4815 -0.2885
5 2 8 1.2350 -0.9991
5 2 9 -0.1880 -0.5118
5 2 10 1.6839 -0.3121
5 2 11 2.0073 -0.5419
5 2 12 -3.3891 -0.1676
5 2 13 8.2117 -0.0608
5 2 14 4.0727 -0.1877
5 2 15 -1.8931 0.8436
5 2 16 -7.1919 -0.6332
5 2 17 -3.0378 0.5348
5 2 18 -1.9059 -0.3807
5 2 19 8.7373 -0.2848
5 2 20 20.2808 -0.1032
5 3 0 54.9948 12.3383
5 3 1 32.3663 3.9995
5 3 2 -2.0657 -2.3993
5 3 3 -3.5735 -0.0820
5 3 4 10.3694 -1.5048
5 3 5 -3.8903 0.7965
5 3 6 -1.6086 0.9397
5 3 7 3.8341 -0.1774
5 3 8 -4.3435 -1.0208
5 3 9 -10.0206 -0.3836
5 3 10 1.5021 0.1733
5 3 11 5.2594 0.1810
5 3 12 1.8884 0.1665
5 3 13 -2.6299 0.2008
5 3 14 3.2220 0.3286
5 3 15 6.3916 -0.0911
5 3 16 -8.3610 -0.5527
5 3 17 11.8361 -0.2433
5 3 18 -19.0705 -0.2199
5 3 19 -8.5851 -0.0021
5 3 20 -1.8627 0.1059
5 4 3 -17.1325 -2.1654
5 4 4 7.9342 0.3112
5 4 5 -12.1823 -2.0686
5 4 6 -14.6546 -0.0634
5 4 7 17.4152 0.3719
5 4 8 -1.7882 0.5818
5 4 9 -3.1942 0.3003
5 4 10 -4.9326 0.7596
5 4 11 1.3418 1.0367
5 4 12 -3.5524 0.2894
5 4 13 3.0457 -0.2305
5 4 14 -2.9605 -0.8209
5 4 15 -8.4509 0.0340
5 4 16 5.7149 -0.1917
5 4 17 5.9625 0.4348
5 4 18 17.6040 0.5541
5 4 19 -5.4491 0.3888
5 4 20 -1.9122 0.5726
5 5 1 39.8451 1.0906
5 5 2 -42.3142 -2.3648
5 5 3 -18.0035 -0.9738
5 5 4 25.8504 4.6637
5 5 5 4.9001 -0.3627
5 5 6 -5.6078 0.9423
5 5 7 3.7215 0.0992
5 5 8 10.7318 0.1088
5 5 9 0.7857 -0.4442
5 5 10 -3.2501 -0.3412
5 5 11 5.6231 -0.5831
5 5 12 0.2363 0.6394
5 5 13 -4.3372 0.4455
5 5 14 -10.1814 0.4456
5 5 15 0.1143 0.0797
5 5 16 -21.3751 0.2298
5 5 17 -2.7264 -0.3953
5 5 18 10.6626 -0.0565
5 5 19 9.1623 0.5320
5 5 20 13.4439 -0.8258
5 6 1 71.2855 2.3205
5 6 2 87.8092 -0.1958
5 6 3 6.9830 1.2194
5 6 4 -12.5390 2.4617
5 6 5 2.0449 0.8890
5 6 6 -4.6626 -0.0847
5 6 7 -1.6034 -3.0614
5 6 8 2.7890 -1.3643
5 6 9 0.1163 -0.5452
5 6 10 0.8061 -0.0468
5 6 11 -0.2072 -0.1832
5 6 12 -1.3251 0.0553
5 6 13 6.4296 0.2396
5 6 14 -3.8137 0.4060
5 6 15 1.8004 -0.0094
5 6 16 -13.4741 -0.1571
5 6 17 -14.0747 -0.0173
5 6 18 -9.1921 -0.3229
5 6 19 1.0198 -0.4424
5 6 20 2.9858 -0.2504
5 7 0 12.9017 -10.0912
5 7 1 -25.0609 6.0291
5 7 2 -7.5525 -0.0213
5 7 3 34.9993 -3.5849
5 7 4 34.5950 -0.0272
5 7 5 -2.6321 -2.2456
5 7 6 0.4445 0.8746
5 7 7 -4.5762 -1.4426
5 7 8 0.5539 0.8458
5 7 9 -0.6837 -0.7104
5 7 10 -7.2004 -0.6250
5 7 11 1.9236 -0.1345
5 7 12 3.1258 0.1054
5 7 13 -0.2820 -0.5951
5 7 14 7.3750 0.8576
5 7 15 1.8706 -0.5180
5 7 16 -4.3539 -0.0365
5 7 17 7.0252 -0.0271
5 7 18 -7.2388 -0.4280
5 7 19 -3.2311 0.8191
5 7 20 9.7494 -0.1842
5 8 1 -17.0983 -3.5566
5 8 2 4.7657 6.6276
5 8 3 -3.3713 1.0103
5 8 4 6.1880 0.1649
5 8 5 18.9880 1.6429
5 8 6 4.6429 -1.9511
5 8 7 1.5899 -0.4138
5 8 8 -9.0172 0.4638
5 8 9 -2.2902 -0.1356
5 8 10 0.0458 1.9935
5 8 11 -7.1801 1.2469
5 8 12 -3.6322 0.3705
5 8 13 10.3125 0.0937
5 8 14 3.0775 -0.0295
5 8 15 3.7455 -0.3610
5 8 16 -2.8956 -0.4633
5 8 17 -6.9048 0.0451
5 8 18 8.0128 -0.1408
5 8 19 2.2866 -0.1547
5 8 20 -13.7250 0.3906
5 9 0 95.5547 -0.1767
5 9 1 -24.4249 13.4568
5 9 2 -18.1693 1.7659
5 9 3 1.8065 2.6395
5 9 4 -7.6927 0.0915
5 9 5 -6.0553 -1.2326
5 9 6 10.3503 1.0309
5 9 7 2.1676 -1.1952
5 9 8 -4.3972 1.3206
5 9 9 -0.0769 0.2398
5 9 10 -9.0178 -0.4433
5 9 11 3.8230 0.2321
5 9 12 -6.7633 0.7794
5 9 13 -1.0125 0.2636
5 9 14 4.1760 -0.2917
5 9 15 5.9454 -0.5199
5 9 16 3.2177 0.0915
5 9 17 -8.9723 -0.7184
5 9 18 -10.8082 0.4054
5 9 19 10.6150 0.2763
5 9 20 6.8659 -0.0072
5 10 1 16.1675 7.0615
5 10 2 -13.6885 -4.7265
5 10 3 1.9511 1.4323
5 10 4 -10.7227 -0.9522
5 10 5 -4.0167 -1.1485
5 10 6 1.6350 1.3210
5 10 7 2.2921 -0.0260
5 10 8 2.6114 -0.8752
5 10 9 -2.0954 0.3189
5 10 10 1.7617 -0.2447
5 10 11 5.9510 -0.0409
5 10 12 -3.7441 0.1434
5 10 13 7.0199 -0.2273
5 10 14 -11.0661 -0.6351
5 10 15 9.0485 -0.3214
5 10 16 3.8969 0.1146
5 10 17 11.0030 -0.3825
5 10 18 -7.3391 0.8253
5 10 19 -16.4849 0.1446
5 11 0 61.6251 -34.5583
5 11 1 17.5276 1.5318
5 11 2 20.1039 -0.8651
5 11 3 7.4929 -2.6239
5 11 4 8.8793 -3.2754
5 11 5 -4.4512 -1.6711
5 11 6 5.7275 -0.9275
5 11 7 1.8881 1.0024
5 11 8 4.4345 0.5969
5 11 9 -1.6594 0.9735
5 11 10 -3.0548 -1.0634
5 11 11 3.1686 0.1872
5 11 12 -0.7984 -0.7359
5 11 13 2.5617 -0.4118
5 11 14 -0.9480 0.5969
5 11 15 0.4524 -0.2587
5 11 16 2.2730 0.7306
5 11 17 10.1572 0.2620
5 11 18 7.5520 0.1155
5 11 19 -2.2785 -0.0119
5 12 1 13.6691 -2.0887
5 12 2 2.6600 2.0941
5 12 3 17.0852 4.2979
5 12 4 6.3805 -0.1918
5 12 5 -5.0104 1.5025
5 12 6 -3.4798 -0.3381
5 12 7 -2.8366 -1.4608
5 12 8 3.1898 0.3886
5 12 9 -1.7482 -0.3442
5 12 10 0.9474 0.1639
5 12 11 -2.4897 0.6675
5 12 12 -3.0983 0.5078
5 12 13 -6.1090 0.1823
5 12 14 -1.4914 0.1167
5 12 15 -5.1726 -0.0924
5 12 16 -4.9587 0.5177
5 12 17 -1.0881 -0.2054
5 12 18 1.0788 0.0156
5 12 19 5.3372 -0.4207
5 13 0 -14.8314 -6.4521
5 13 1 -3.2673 3.1514
5 13 2 -4.9011 2.1548
5 13 3 -12.6842 5.1300
5 13 4 8.6279 2.7207
5 13 5 1.8324 0.1229
5 13 6 -1.6643 -0.0473
5 13 7 -3.3051 0.2821
5 13 8 -4.3218 -0.5182
5 13 9 -2.1576 1.6028
5 13 10 -1.0930 -0.2424
5 13 11 7.0445 1.0216
5 13 12 -0.9669 -0.0110
5 13 13 -6.9766 0.1202
5 13 14 -1.5839 0.3295
5 13 15 8.1895 -0.1577
5 13 16 -14.9613 0.3718
5 13 17 7.0670 -0.1519
5 13 18 -4.3374 0.1682
5 13 19 3.1703 -0.3740
5 14 1 -0.6693 2.3821
5 14 2 -7.3151 -3.0051
5 14 3 4.7662 0.0208
5 14 4 -4.3284 -1.5841
5 14 5 3.1788 -1.0301
5 14 6 -0.3064 -0.0127
5 14 7 0.1763 -2.1648
5 14 8 4.2385 0.6121
5 14 9 -9.0372 -0.7027
5 14 10 0.7239 0.4594
5 14 11 1.7576 -0.7953
5 14 12 2.7053 -0.2245
5 14 13 0.9462 0.3120
5 14 14 2.8563 -0.6446
5 14 15 0.2711 0.0765
5 14 16 12.4748 0.0807
5 14 17 -9.9723 0.1024
5 14 18 -8.3389 0.6164
5 14 19 -2.1863 -0.6578
5 15 0 -5.0939 6.8253
5 15 1 13.6205 0.8231
5 15 2 3.7529 1.4226
5 15 3 -12.9450 0.1215
5 15 4 4.2695 0.0395
5 15 5 -1.4687 -2.7979
5 15 6 0.4701 -0.1288
5 15 7 -2.9765 -0.3045
5 15 8 2.7716 -0.2176
5 15 9 -1.4854 0.6959
5 15 10 -5.8814 -0.6921
5 15 11 -0.0302 0.1607
5 15 12 -1.7878 -1.3125
5 15 13 -7.2925 -0.6255
5 15 14 -1.1014 -0.1496
5 15 15 2.2051 -0.3785
5 15 16 2.9571 0.5372
5 15 17 6.0036 -0.4824
5 15 18 3.1982 0.0833
5 15 19 -2.1621 -0.0968
5 16 1 3.2681 1.3840
5 16 2 -5.4466 1.4206
5 16 3 3.8400 1.9656
5 16 4 1.9651 -1.0490
5 16 5 3.7866 -1.5515
5 16 6 -0.1080 0.4787
5 16 7 -4.8215 -0.1964
5 16 8 0.8543 1.5774
5 16 9 -3.4496 -0.7525
5 16 10 2.4285 0.6973
5 16 11 -3.2475 0.0098
5 16 12 -0.7844 -0.0305
5 16 13 -4.8254 0.7928
5 16 14 4.6408 -0.5665
5 16 15 -2.6027 0.5904
5 16 16 18.2123 0.4782
5 16 17 -1.0244 0.0810
5 16 18 2.3970 0.2951
5 16 19 -0.3192 -0.0223
5 17 0 -10.5061 -4.9086
5 17 1 15.0095 -2.9289
5 17 2 4.4788 3.6425
5 17 3 -3.0698 -0.4812
5 17 4 -1.4877 1.8953
5 17 5 2.1684 -1.7778
5 17 6 -1.4061 -1.2084
5 17 7 -0.3087 -0.0258
5 17 8 -4.8527 0.3543
5 17 9 -3.7701 1.2824
5 17 10 1.1338 -0.0352
5 17 11 -4.5873 0.3256
5 17 12 0.6725 -0.3054
5 17 13 -3.1405 0.2016
5 17 14 -7.8998 -0.4907
5 17 15 1.7331 -0.2713
5 17 16 -2.0610 0.9381
5 17 17 1.0894 -0.2203
5 17 18 7.1435 0.3002
5 18 1 1.1273 -5.3962
5 18 2 0.5330 -6.6474
5 18 3 3.3383 1.3803
5 18 4 6.7191 0.1701
5 18 5 10.2258 0.8261
5 18 6 1.3103 2.0217
5 18 7 -3.4163 -0.3509
5 18 8 1.7322 1.1761
5 18 9 -1.1451 -0.1784
5 18 10 -6.3056 -0.5362
5 18 11 6.4287 -0.4199
5 18 12 -0.0923 -1.4097
5 18 13 -0.5509 0.1090
5 18 14 7.1990 -0.3978
5 18 15 -13.9900 0.3042
5 18 16 12.8356 -0.0613
5 18 17 -9.6609 0.0414
5 18 18 -0.9639 -0.0818
5 19 0 -16.5434 -2.7071
5 19 1 9.3701 1.0687
5 19 2 3.0141 1.3002
5 19 3 -10.9283 -1.0674
5 19 4 -3.5241 -1.1568
5 19 5 -0.6690 0.0578
5 19 6 4.7785 0.8699
5 19 7 4.0849 -0.9569
5 19 8 1.2869 -0.8314
5 19 9 1.3870 0.4716
5 19 10 6.3776 -0.8960
5 19 11 -1.4502 0.2746
5 19 12 -3.3817 -1.0354
5 19 13 10.0559 -0.4910
5 19 14 4.7806 0.3518
5 19 15 -5.6675 0.2641
5 19 16 1.0112 0.2585
5 19 17 -7.3485 0.3130
5 19 18 5.8853 0.2266
5 20 1 -2.8067 3.3651
5 20 2 -0.6998 -3.0565
5 20 3 -3.8003 1.9349
5 20 4 -0.7585 1.0214
5 20 5 -4.8103 0.2786
5 20 6 -1.0519 0.3911
5 20 7 -1.9818 0.2612
5 20 8 6.4434 0.5681
5 20 9 3.1230 -0.3049
5 20 10 4.8788 0.4654
5 20 11 -1.5304 0.5355
5 20 12 -2.0078 -0.4013
5 20 13 1.2240 0.6726
5 20 14 -5.7993 -0.4724
5 20 15 -5.8697 0.8711
5 20 16 5.2625 0.1421
5 20 17 -10.4850 -0.4190
5 20 18 -3.9854 -0.3343
5 21 0 -10.3302 -2.4669
5 21 1 7.3845 5.1106
5 21 2 4.0053 -0.0527
5 21 3 1.1795 -1.0796
5 21 4 -4.5142 -0.4558
5 21 5 3.4732 -1.5196
5 21 6 1.0137 -0.5458
5 21 7 -4.1957 0.4624
5 21 8 -0.4244 -0.3951
5 21 9 -0.6630 0.6000
5 21 10 7.7063 1.1882
5 21 11 -2.0631 0.2665
5 21 12 -11.0937 0.4873
5 21 13 5.8227 0.4039
5 21 14 -1.4901 -0.2038
5 21 15 -4.8197 -0.2167
5 21 16 -4.2061 -0.2735
5 21 17 -1.9760 0.2766
5 21 18 -5.3799 0.2269
5 22 1 -6.2047 -1.9654
5 22 2 1.8290 -3.2850
5 22 3 -1.6618 -1.1485
5 22 4 1.9997 -0.7919
5 22 5 -2.8641 1.4402
5 22 6 -1.7208 1.0030
5 22 7 -2.3141 0.9804
5 22 8 -6.1578 0.2538
5 22 9 -6.0606 -0.2667
5 22 10 -10.0085 -0.1059
5 22 11 -2.1839 -0.7607
5 22 12 4.8367 -0.6599
5 22 13 1.1425 0.0344
5 22 14 -1.7168 -0.9381
5 22 15 1.2408 0.4850
5 22 16 18.4459 0.0727
5 22 17 -4.9935 -0.7196
5 23 0 -8.5657 8.6490
5 23 1 0.4154 -1.9423
5 23 2 0.8224 -1.8920
5 23 3 -0.9565 1.5911
5 23 4 1.2046 -1.7262
5 23 5 -2.1234 0.0339
5 23 6 2.5000 0.6251
5 23 7 1.2302 0.4730
5 23 8 4.2507 1.7366
5 23 9 2.7815 -1.3606
5 23 10 2.2461 0.1554
5 23 11 -17.6615 -0.2811
5 23 12 -1.4512 -0.7591
5 23 13 8.3627 0.2941
5 23 14 -2.5292 -0.1024
5 23 15 0.9839 0.0930
5 23 16 5.5184 -0.2250
5 23 17 10.4787 0.0854
5 24 1 -2.7411 1.7337
5 24 2 3.4127 -2.1284
5 24 3 0.6155 0.1551
5 24 4 2.9428 -0.8067
5 24 5 -0.2838 0.2501
5 24 6 -1.3887 0.2959
5 24 7 -0.5242 -0.5913
5 24 8 4.0130 0.5797
5 24 9 -0.4934 -0.6405
5 24 10 -0.4406 -0.4017
5 24 11 -3.5455 0.3514
5 24 12 8.1646 -0.4328
5 24 13 -2.3751 0.2826
5 24 14 -6.3493 -0.0927
5 24 15 -4.0044 -0.3807
5 24 16 10.1605 0.3202
5 24 17 4.0392 -0.1207
5 25 0 -2.3614 -4.6383
5 25 1 5.7211 1.8742
5 25 2 -3.4895 -0.5841
5 25 3 2.7431 -1.6864
5 25 4 -3.7767 1.5721
5 25 5 -4.4709 -0.9132
5 25 6 0.9068 0.1589
5 25 7 -3.8976 0.0605
5 25 8 -4.3565 0.8711
5 25 9 9.0163 0.6602
5 25 10 0.0492 0.3229
5 25 11 -6.8450 0.0130
5 25 12 6.4264 0.4705
5 25 13 6.5139 0.0838
5 25 14 -6.6029 0.2632
5 25 15 -0.5434 0.0873
5 25 16 -7.5384 -0.1878
5 25 17 7.9791 0.7095
5 26 1 -4.5251 -2.9042
5 26 2 3.9376 0.2153
5 26 3 4.4872 -1.4737
5 26 4 -0.3242 0.9854
5 26 5 -0.9696 0.3196
5 26 6 -2.2237 -0.7652
5 26 7 7.6011 1.0801
5 26 8 -0.1237 -1.7501
5 26 9 6.4425 -0.2118
5 26 10 -5.8104 -0.0860
5 26 11 -2.6516 -0.1239
5 26 12 7.0909 0.0595
5 26 13 0.8042 0.1694
5 26 14 -4.6401 0.4207
5 26 15 -5.2546 0.6931
5 26 16 10.8500 -0.9440
5 27 0 7.2370 5.2391
5 27 1 7.8038 4.0922
5 27 2 -2.8199 1.3779
5 27 3 -1.7305 0.7442
5 27 4 3.9955 -0.0032
5 27 5 3.0559 1.1092
5 27 6 2.1889 -0.1215
5 27 7 -7.7240 -0.9021
5 27 8 2.2396 0.2941
5 27 9 3.2721 -0.9387
5 27 10 4.9054 -0.0723
5 27 11 -2.1999 -0.3712
5 27 12 -2.3631 -0.2633
5 27 13 0.8302 0.0883
5 27 14 3.7587 -0.4307
5 27 15 -5.2291 0.0569
5 27 16 -4.8425 -0.0909
5 28 1 -2.2151 0.5653
5 28 2 3.0272 2.0931
5 28 3 0.5875 1.4407
5 28 4 -13.1576 -1.0954
5 28 5 0.4035 -0.2387
5 28 6 0.5910 -1.7050
5 28 7 0.2977 -0.0653
5 28 8 2.9157 -0.2101
5 28 9 1.8720 -0.2488
5 28 10 1.9368 -0.1353
5 28 11 4.0924 1.2925
5 28 12 3.6884 0.2435
5 28 13 -2.1574 -0.0450
5 28 14 -5.5125 -0.3435
5 28 15 -11.0752 0.0075
5 28 16 0.9547 0.0332
5 29 0 -0.3718 -7.6194
5 29 1 -3.5296 1.5006
5 29 2 -3.6800 -3.0656
5 29 3 0.4787 -0.5250
5 29 4 2.1833 -1.1103
5 29 5 2.6442 -0.2073
5 29 6 -2.2214 1.0216
5 29 7 -2.4756 -0.5346
5 29 8 -1.6487 0.4351
5 29 9 5.8067 0.6023
5 29 10 -1.6151 -0.8140
5 29 11 4.0163 -0.2964
5 29 12 1.6912 0.1971
5 29 13 11.4083 0.0812
5 29 14 6.9301 0.4219
5 29 15 -8.1236 -0.7521
5 30 1 -0.2459 -3.0355
5 30 2 -0.9517 3.3034
5 30 3 2.3389 -0.3441
5 30 4 1.5099 1.4784
5 30 5 4.1156 1.2021
5 30 6 1.8700 -0.4643
5 30 7 0.2631 0.6485
5 30 8 -3.6415 -0.0759
5 30 9 -0.8482 0.8326
5 30 10 0.8333 -0.2469
5 30 11 2.4763 -0.5487
5 30 12 0.3236 0.5151
5 30 13 18.4268 -0.7932
5 30 14 0.6867 0.1347
5 30 15 5.0135 1.1016
5 31 0 9.3238 -1.9307
5 31 1 0.3117 -0.9493
5 31 2 -2.2080 0.7399
5 31 3 -4.7029 0.8122
5 31 4 -1.2965 0.2620
5 31 5 4.4241 1.2311
5 31 6 -1.0547 0.3819
5 31 7 -6.4617 -0.5420
5 31 8 1.3062 -0.2204
5 31 9 -4.6907 -0.5536
5 31 10 -5.2235 -0.3697
5 31 11 -2.8612 0.1702
5 31 12 -0.8971 -0.5690
5 31 13 5.4107 0.5756
5 31 14 -0.2369 0.3315
5 32 1 -0.4371 1.8328
5 32 2 1.8509 3.8631
5 32 3 0.9057 0.3005
5 32 4 -0.6511 1.5671
5 32 5 4.8724 -0.4666
5 32 6 -1.4164 -1.0518
5 32 7 1.2061 -1.4506
5 32 8 -1.1373 -1.7291
5 32 9 -3.2591 -0.4538
5 32 10 -7.8753 0.5402
5 32 11 -7.7271 0.0698
5 32 12 -1.2613 0.9057
5 32 13 5.8396 0.6387
5 32 14 -9.2296 0.5767
5 33 0 -1.0573 -9.0575
5 33 1 2.6635 1.1428
5 33 2 -2.2027 -0.9396
5 33 3 -3.7450 -0.4785
5 33 4 -4.5597 1.6613
5 33 5 3.6875 -1.0461
5 33 6 -0.0420 0.5916
5 33 7 -1.4257 -0.1098
5 33 8 5.7710 0.2014
5 33 9 -1.8639 0.2281
5 33 10 -7.2270 0.2851
5 33 11 0.1874 0.8267
5 33 12 -5.1868 0.2789
5 33 13 8.5669 -0.1907
5 34 1 -7.6601 -3.4138
5 34 2 -7.4246 0.7560
5 34 3 2.3063 -1.9220
5 34 4 -3.4158 -0.3756
5 34 5 -4.0061 -1.2418
5 34 6 -3.5209 0.8687
5 34 7 -2.5352 0.2234
5 34 8 4.8722 -0.3887
5 34 9 8.8929 0.9408
5 34 10 1.5084 0.2108
5 34 11 0.3874 -0.1372
5 34 12 -4.4961 0.8457
5 34 13 3.7172 -1.4496
5 35 0 9.3120 -6.8845
5 35 1 -3.1888 0.4542
5 35 2 -6.2359 -1.3832
5 35 3 0.4225 1.2384
5 35 4 2.6161 0.5159
5 35 5 4.3079 -0.5252
5 35 6 -1.3369 0.7655
5 35 7 -4.3797 -0.1465
5 35 8 -1.4646 -0.4248
5 35 9 -8.3362 -0.2976
5 35 10 -3.2510 -0.8267
5 35 11 12.8093 0.0654
5 35 12 -8.3288 -0.2980
5 35 13 7.8252 0.8799
5 36 1 5.0510 1.6410
5 36 2 -3.1353 1.0022
5 36 3 -7.0061 -0.6338
5 36 4 1.1552 -0.0315
5 36 5 2.9364 -0.6478
5 36 6 2.3855 -0.7190
5 36 7 0.2443 0.3489
5 36 8 5.0478 -0.0056
5 36 9 4.9016 -0.6584
5 36 10 -2.1188 -0.4237
5 36 11 -1.2892 -0.6597
5 36 12 8.3555 0.2877
5 37 0 2.2357 -9.1107
5 37 1 7.3238 3.8588
5 37 2 3.6717 2.6325
5 37 3 3.4522 0.7354
5 37 4 -6.6168 0.2342
5 37 5 1.2602 -0.0338
5 37 6 -1.2141 -0.4751
5 37 7 -3.0487 0.4047
5 37 8 -4.0542 -0.4531
5 37 9 -1.8415 0.1239
5 37 10 4.7674 0.3849
5 37 11 4.9453 -0.7616
5 38 1 -3.2344 -0.4403
5 38 2 7.8912 -0.5805
5 38 3 -4.6385 -0.9185
5 38 4 1.3735 -0.3045
5 38 5 -5.9374 -0.3424
5 38 6 4.5685 -0.1386
5 38 7 1.7401 0.0912
5 38 8 -2.7610 0.9710
5 38 9 -5.1384 0.3961
5 38 10 -5.1540 0.6616
5 38 11 2.6222 1.9294
5 39 0 3.0551 -4.8803
5 39 1 0.5422 2.5833
5 39 2 -9.9214 2.0746
5 39 3 1.0240 1.1838
5 39 4 -2.3911 0.4770
5 39 5 6.0426 -0.3408
5 39 6 -0.7159 0.6376
5 39 7 7.7391 0.7515
5 39 8 5.0737 -0.2826
5 39 9 1.4275 0.3594
5 39 10 -3.4077 -0.5043
5 40 1 -0.4216 1.2940
5 40 2 6.0723 1.1680
5 40 3 -13.1456 -0.0284
5 40 4 -6.1790 0.1475
5 40 5 -3.1516 -1.0459
5 40 6 2.2854 -0.3074
5 40 7 -0.8604 0.2860
5 40 8 2.2253 -0.2743
5 40 9 1.3824 0.0868
5 41 0 4.9501 0.8781
5 41 1 8.1325 -0.6017
5 41 2 2.2625 0.7446
5 41 3 4.8977 0.2321
5 41 4 -3.3654 -0.0629
5 41 5 -6.7106 -2.4179
5 41 6 -5.6885 -0.4984
5 41 7 -8.6477 -0.0847
5 41 8 -9.8708 -0.5519
5 42 1 2.1586 -0.3532
5 42 2 3.5206 -0.8706
5 42 3 1.4716 -1.2099
5 42 4 2.0710 0.2743
5 42 5 -7.8822 0.6810
5 42 6 -0.9859 2.0528
5 42 7 -2.2131 1.4863
5 43 0 3.4792 -3.6822
5 43 1 -2.8473 -1.6101
5 43 2 -1.6119 -0.1981
5 43 3 6.9343 0.2759
5 43 4 0.5864 0.4966
5 43 5 5.2436 -1.2508
5 43 6 -7.2104 0.4364
5 44 1 -4.7295 -0.5360
5 44 2 -0.6508 0.6058
5 44 3 4.5379 -0.3831
5 44 4 2.4040 -1.2777
5 45 0 22.4573 4.2621
5 45 1 4.2809 -0.2462
5 45 2 -9.2290 1.0107
6 1 1 131.3761 4.4991
6 1 2 -92.7794 -0.5899
6 1 3 14.7581 1.8993
6 1 4 -2.9980 -0.7510
6 1 5 26.9902 0.7213
6 1 6 0.9705 0.4028
6 1 7 -1.9227 1.1778
6 1 8 -5.8555 -0.4421
6 1 9 0.2696 -2.2361
6 1 10 -0.0171 -0.6884
6 1 11 2.5182 -0.5148
6 1 12 -2.9676 -0.0317
6 1 13 -0.1423 0.2233
6 1 14 -4.1621 0.6026
6 1 15 11.9881 0.2536
6 1 16 -1.8895 0.0423
6 1 17 -3.5184 -0.0808
6 1 18 12.7465 -0.5227
6 1 19 15.7625 -0.3674
6 1 20 -3.6738 -0.1011
6 2 0 37.1333 23.5164
6 2 1 -22.3307 5.5480
6 2 2 27.9057 -0.7398
6 2 3 31.6091 1.1199
6 2 4 -20.8599 -1.8845
6 2 5 10.6911 -0.6476
6 2 6 4.2889 -2.1067
6 2 7 -2.6920 -1.4413
6 2 8 0.1786 0.9442
6 2 9 0.5557 -0.2031
6 2 10 -1.1155 -0.0522
6 2 11 -1.8271 0.6009
6 2 12 4.7613 0.3653
6 2 13 -3.2580 0.0184
6 2 14 2.4827 -0.4018
6 2 15 -9.3561 -0.6323
6 2 16 -1.1173 -0.3744
6 2 17 -0.5863 -0.2571
6 2 18 -4.3623 -0.1289
6 2 19 6.9782 -0.1076
6 2 20 15.5304 0.6856
6 3 2 -46.2448 -3.3049
6 3 3 -24.3955 -0.5708
6 3 4 4.4339 -2.0068
6 3 5 14.4755 -0.0050
6 3 6 -7.9084 1.3076
6 3 7 0.4228 0.7533
6 3 8 0.9397 2.2233
6 3 9 -1.4826 1.0887
6 3 10 -4.9783 -0.0274
6 3 11 -1.3683 0.5449
6 3 12 1.0549 -1.7454
6 3 13 -0.1841 -0.4379
6 3 14 -5.4987 -0.3574
6 3 15 5.0696 -0.1210
6 3 16 -9.1255 0.0337
6 3 17 -15.3689 0.1401
6 3 18 -6.5144 0.2523
6 3 19 2.8416 0.1192
6 3 20 -1.2464 0.7266
6 4 0 200.8197 -26.7803
6 4 1 -6.3992 -0.5533
6 4 2 31.0366 -2.9638
6 4 3 13.3549 -1.7127
6 4 4 -8.8244 1.3769
6 4 5 11.0364 3.7704
6 4 6 2.5256 1.4025
6 4 7 4.8276 1.3013
6 4 8 3.8035 -1.3242
6 4 9 5.7371 -0.4675
6 4 10 1.5246 -0.3609
6 4 11 -3.5149 -0.1900
6 4 12 1.8486 0.6010
6 4 13 -2.6925 -0.4112
6 4 14 4.7770 0.3716
6 4 15 -7.7304 0.6662
6 4 16 4.0983 0.2390
6 4 17 -5.2402 0.7166
6 4 18 -9.6628 0.2479
6 4 19 -1.8954 -0.0933
6 4 20 -2.6758 -0.4318
6 5 1 118.5251 3.1805
6 5 2 -1.3898 1.9143
6 5 3 7.9594 3.7350
6 5 4 7.8825 -0.5038
6 5 5 -2.3470 -0.1641
6 5 6 1.9914 -0.1337
6 5 7 -1.5389 -0.0678
6 5 8 3.1442 -0.1242
6 5 9 1.7063 -1.7269
6 5 10 -3.2491 -0.2666
6 5 11 -4.2200 -1.0431
6 5 12 -0.0190 -0.3112
6 5 13 2.3870 0.9977
6 5 14 0.8477 -0.1756
6 5 15 9.6419 1.2294
6 5 16 -1.6039 0.3429
6 5 17 -7.2883 -0.5923
6 5 18 4.2441 0.1598
6 5 19 -0.6187 -0.7689
6 5 20 -7.5854 0.0831
6 6 0 -33.3452 4.5472
6 6 1 -16.6783 2.0108
6 6 2 7.9826 -3.0370
6 6 3 19.8360 2.7036
6 6 4 3.5761 -3.7709
6 6 5 1.7915 2.4915
6 6 6 -0.2274 -1.4152
6 6 7 -6.8774 -0.1680
6 6 8 4.9274 -0.1334
6 6 9 4.4855 -1.5400
6 6 10 -4.9955 0.6924
6 6 11 -2.3676 -0.1427
6 6 12 -0.3472 0.7739
6 6 13 -8.9700 0.3413
6 6 14 4.7148 0.1344
6 6 15 2.7497 0.1146
6 6 16 2.5712 -0.5860
6 6 17 -5.9307 -0.7295
6 6 18 -2.8107 -0.8243
6 6 19 10.7388 -0.2142
6 6 20 -0.0855 -0.4790
6 7 1 6.0139 4.1757
6 7 2 -39.0801 -0.4447
6 7 3 -13.6600 3.9308
6 7 4 13.2661 -2.5970
6 7 5 5.4367 -0.3463
6 7 6 2.8236 -0.3508
6 7 7 0.5292 -2.1078
6 7 8 -4.0004 1.9278
6 7 9 4.2838 0.2731
6 7 10 -0.7456 0.6097
6 7 11 -0.9588 0.4593
6 7 12 4.7344 -0.2825
6 7 13 -2.0107 0.6998
6 7 14 0.9576 0.1111
6 7 15 -3.7003 -0.0967
6 7 16 3.4105 0.3271
6 7 17 -5.5555 -0.2928
6 7 18 0.3938 -0.1261
6 7 19 4.2993 -0.0389
6 7 20 -8.0644 0.6029
6 8 0 71.6468 -5.3519
6 8 2 18.2626 -5.3820
6 8 3 -14.3583 2.2375
6 8 4 -10.4685 -1.3807
6 8 5 3.4382 2.0866
6 8 6 3.5323 0.9559
6 8 7 2.3321 0.3445
6 8 8 -7.0552 0.4141
6 8 9 -1.1913 -0.6643
6 8 10 -1.6619 -0.0929
6 8 11 -1.2568 -0.3508
6 8 12 -2.0936 0.4111
6 8 13 7.7512 -0.3523
6 8 14 2.3307 0.1970
6 8 15 -3.4083 0.1308
6 8 16 5.4336 -0.2413
6 8 17 -8.2176 0.3965
6 8 18 -0.9533 -0.3497
6 8 19 17.3580 0.2853
6 8 20 11.0288 0.1722
6 9 1 26.8544 -6.4579
6 9 2 17.9057 -2.2767
6 9 3 16.3557 2.2932
6 9 4 6.7474 -1.7490
6 9 5 -6.5517 1.2112
6 9 6 6.9756 -0.0237
6 9 7 0.9245 -1.2498
6 9 8 -5.9324 0.1850
6 9 9 2.2438 0.1008
6 9 10 -6.9286 0.0944
6 9 11 -1.6048 -0.8489
6 9 12 -2.3753 0.1114
6 9 13 -1.3491 0.2097
6 9 14 5.8190 -0.0562
6 9 15 -5.8134 0.3674
6 9 16 6.2741 -0.1861
6 9 17 5.5990 -0.1923
6 9 18 -3.1482 0.3889
6 9 19 -5.6955 -0.4593
6 10 0 -5.4793 20.9395
6 10 1 30.5958 -4.4993
6 10 2 -7.1801 -1.0851
6 10 3 2.9677 3.0502
6 10 4 5.8647 -0.5971
6 10 5 -0.4407 1.4276
6 10 6 13.0576 -1.5063
6 10 7 2.0727 0.1129
6 10 8 1.3509 -0.8125
6 10 9 1.9107 -1.0229
6 10 10 -3.9658 0.6025
6 10 11 -6.2792 -0.8457
6 10 12 1.4276 1.0293
6 10 13 -3.5503 0.4136
6 10 14 8.5333 -0.5036
6 10 15 -3.0318 0.4622
6 10 16 4.4168 -0.5762
6 10 17 -1.2161 0.1689
6 10 18 18.0734 0.1684
6 10 19 0.0227 0.0220
6 11 1 -6.4908 1.4079
6 11 2 13.2272 -6.3137
6 11 3 10.4204 0.7270
6 11 4 -1.9733 -0.8763
6 11 5 -8.9444 0.3416
6 11 6 2.6289 -0.9064
6 11 7 5.7689 -0.5260
6 11 8 -2.0204 0.3480
6 11 9 9.0459 0.6536
6 11 10 -4.7582 1.2190
6 11 11 3.7646 0.0978
6 11 12 -2.5976 -0.9903
6 11 13 -3.6565 0.1485
6 11 14 -1.9714 -0.5065
6 11 15 -13.2061 -0.1691
6 11 16 0.7135 0.5041
6 11 17 -4.3059 -0.6698
6 11 18 1.7454 0.7928
6 11 19 0.1572 0.1733
6 12 0 -13.4564 -11.3459
6 12 1 16.5021 -3.9812
6 12 2 -15.3407 1.2832
6 12 3 -2.5791 -1.5189
6 12 4 6.8046 0.6713
6 12 5 0.7056 4.3079
6 12 6 -3.4945 0.3351
6 12 7 -0.2890 2.2795
6 12 8 3.8157 -1.7892
6 12 9 -0.7523 -1.0132
6 12 10 2.0567 -0.4999
6 12 11 -2.7468 -0.9592
6 12 12 3.8951 -0.0263
6 12 13 -2.9825 -0.0575
6 12 14 -0.0017 0.0893
6 12 15 -9.1310 0.2251
6 12 16 -14.9654 0.1031
6 12 17 -1.7464 0.2683
6 12 18 7.6087 -0.1799
6 12 19 -15.8573 0.5380
6 13 1 -25.7539 -2.5411
6 13 2 15.8325 3.3657
6 13 3 -3.4013 6.7842
6 13 4 -9.8022 -0.0215
6 13 5 -1.1234 1.7248
6 13 6 1.3140 -0.7002
6 13 7 2.9134 -1.0388
6 13 8 -5.8585 -0.6919
6 13 9 -3.8954 -0.3668
6 13 10 -3.6970 -0.3740
6 13 11 -1.0084 0.8371
6 13 12 2.1270 0.3763
6 13 13 0.4307 0.2122
6 13 14 -1.1683 0.0204
6 13 15 -0.8900 0.0523
6 13 16 -4.8651 -0.1420
6 13 17 -7.3533 -0.3416
6 13 18 19.0018 -0.7347
6 13 19 -11.4453 -0.8979
6 14 0 25.4939 33.4451
6 14 1 15.0280 -3.2407
6 14 2 -5.3875 -2.3166
6 14 3 -3.3852 3.4200
6 14 4 3.3308 -4.5105
6 14 5 -14.9910 0.2732
6 14 6 4.2894 -1.0233
6 14 7 -2.6204 0.2804
6 14 8 2.8753 -0.6235
6 14 9 -3.7526 1.2174
6 14 10 -2.2687 0.2565
6 14 11 -4.6834 0.0180
6 14 12 3.0038 0.7719
6 14 13 -3.8839 -0.1120
6 14 14 5.0993 -0.1413
6 14 15 -1.3922 -0.0385
6 14 16 -1.0600 -1.2542
6 14 17 5.7695 0.5517
6 14 18 5.5500 -0.0539
6 14 19 12.7673 -0.2620
6 15 1 -11.4942 5.2731
6 15 2 22.8674 -1.9083
6 15 3 9.7670 -2.7939
6 15 4 -0.2879 2.9698
6 15 5 1.7750 -0.3923
6 15 6 -0.5899 -0.6461
6 15 7 1.2507 0.4279
6 15 8 -0.0540 0.3390
6 15 9 0.3758 0.2898
6 15 10 0.1558 1.0486
6 15 11 0.5114 0.0680
6 15 12 1.3352 -0.3200
6 15 13 5.5722 0.0147
6 15 14 4.4957 -1.2258
6 15 15 1.4585 -0.6446
6 15 16 3.5712 -0.2869
6 15 17 11.9708 0.0743
6 15 18 4.8774 0.4845
6 15 19 -10.4526 0.2495
6 16 0 16.2135 3.3110
6 16 1 2.7554 -5.6690
6 16 2 -1.4352 2.2630
6 16 3 3.1081 -2.8735
6 16 4 4.9884 -0.1767
6 16 5 5.2663 1.6159
6 16 6 2.4644 -1.6512
6 16 7 -1.1558 0.9371
6 16 8 0.5351 0.3794
6 16 9 -0.1637 -0.6936
6 16 10 5.3919 1.5357
6 16 11 -0.8625 -0.3795
6 16 12 3.5693 -0.1499
6 16 13 -6.0481 0.2267
6 16 14 2.3047 -0.2150
6 16 15 -1.8629 0.1449
6 16 16 -4.2292 -0.1774
6 16 17 5.9350 0.2686
6 16 18 0.0782 0.1012
6 16 19 5.9894 0.2519
6 17 1 -3.5863 -2.3219
6 17 2 8.5620 0.5623
6 17 3 5.8267 0.6341
6 17 4 -2.2242 0.3934
6 17 5 -0.5638 -1.7379
6 17 6 5.3456 1.1924
6 17 7 -2.0974 -1.5373
6 17 8 -3.0406 -0.2948
6 17 9 -2.6649 0.1987
6 17 10 -2.6531 -0.5593
6 17 11 4.5973 0.8264
6 17 12 0.5913 0.0535
6 17 13 -1.6472 0.1754
6 17 14 1.2304 0.1798
6 17 15 -10.6050 -0.0625
6 17 16 0.8418 0.2925
6 17 17 10.1413 0.1925
6 17 18 1.3814 0.0591
6 18 0 5.4207 1.0339
6 18 1 -3.3200 -5.7479
6 18 2 0.3924 0.3497
6 18 3 -2.9556 -2.6292
6 18 4 -5.8259 2.0557
6 18 5 -5.4858 -0.3725
6 18 6 6.5744 0.1750
6 18 7 0.0274 1.0149
6 18 8 -8.8548 0.2735
6 18 9 -1.3362 0.3514
6 18 10 -3.6355 0.8511
6 18 11 -3.8800 -0.7499
6 18 12 8.5540 0.5364
6 18 13 -3.4827 -0.9334
6 18 14 0.1112 -0.2335
6 18 15 -6.1086 0.5953
6 18 16 -5.4385 -0.2088
6 18 17 0.8761 0.8259
6 18 18 13.6412 -0.1426
6 19 1 -7.9011 -6.6240
6 19 2 2.7757 3.5095
6 19 3 3.6787 0.2312
6 19 4 -5.7185 0.1379
6 19 5 -4.8730 -1.1708
6 19 6 -6.7062 -0.7812
6 19 7 4.0179 0.0366
6 19 8 6.8147 -0.3247
6 19 9 1.5033 0.2212
6 19 10 -5.1437 0.2719
6 19 11 4.2256 0.8175
6 19 12 -6.8588 0.1103
6 19 13 -4.6350 0.1035
6 19 14 2.9196 -0.3834
6 19 15 -3.7244 0.4720
6 19 16 -14.9110 -0.4638
6 19 17 -6.0075 0.1264
6 19 18 -0.0561 -0.2500
6 20 0 8.1188 3.6268
6 20 1 2.1250 1.5968
6 20 2 -0.5347 1.9911
6 20 3 2.7277 -2.0326
6 20 4 -1.6123 -0.2422
6 20 5 4.6067 -1.2860
6 20 6 -2.9476 -0.7151
6 20 7 2.1119 -0.5263
6 20 8 -3.2574 0.3785
6 20 9 3.4389 -0.3948
6 20 10 5.6031 0.6088
6 20 11 -0.8077 -0.2127
6 20 12 -4.8787 0.7511
6 20 13 -7.0915 0.2180
6 20 14 -0.3713 -0.3842
6 20 15 0.2235 -0.0851
6 20 16 1.9178 -0.2234
6 20 17 -4.7834 -0.2126
6 20 18 -7.8401 -0.4850
6 21 1 1.9165 -0.5365
6 21 2 -0.4972 0.5918
6 21 3 6.2704 0.1297
6 21 4 2.7198 1.3314
6 21 5 -0.7433 -0.1687
6 21 6 -0.2122 -1.0237
6 21 7 -11.0802 0.1793
6 21 8 -3.5533 -0.0320
6 21 9 -2.2088 0.4965
6 21 10 -2.6319 -0.2433
6 21 11 11.2821 0.5660
6 21 12 -3.6363 -0.3295
6 21 13 -4.5844 -0.0150
6 21 14 -0.9290 0.1133
6 21 15 -0.5323 -0.0438
6 21 16 2.3756 -0.3299
6 21 17 9.1894 0.0322
6 21 18 4.4587 0.9243
6 22 0 4.0813 4.6937
6 22 1 -10.6342 8.7751
6 22 2 0.0805 2.1976
6 22 3 2.1197 -2.0618
6 22 4 -0.4447 -1.5751
6 22 5 2.3517 -2.2628
6 22 6 5.0295 0.0146
6 22 7 4.7864 -0.4568
6 22 8 -4.1079 0.8942
6 22 9 -8.9264 0.3513
6 22 10 6.4704 0.6009
6 22 11 1.9026 -0.4586
6 22 12 11.6978 -0.3622
6 22 13 1.1710 -0.2547
6 22 14 0.7824 0.0306
6 22 15 -10.5461 0.0026
6 22 16 -4.6754 0.3719
6 22 17 -11.7448 0.4303
6 23 1 1.4033 0.8204
6 23 2 -2.3378 -2.2075
6 23 3 0.8619 -0.3839
6 23 4 9.1830 0.3449
6 23 5 -0.9737 0.8925
6 23 6 0.3981 -0.8990
6 23 7 1.9200 -0.2920
6 23 8 4.0808 0.2622
6 23 9 -4.7666 -0.2073
6 23 10 -7.2207 0.5457
6 23 11 -4.9054 0.3274
6 23 12 3.8036 -0.3919
6 23 13 8.0294 -0.5424
6 23 14 3.7752 -0.0079
6 23 15 2.1632 -0.0583
6 23 16 -2.7623 -0.1973
6 23 17 0.6258 0.5768
6 24 0 5.3724 -9.0504
6 24 1 2.2043 1.9158
6 24 2 -0.6227 1.0372
6 24 3 2.0157 -0.6654
6 24 4 -3.1650 1.8209
6 24 5 4.3559 0.9522
6 24 6 -7.9458 1.5886
6 24 7 -1.2564 0.1126
6 24 8 -1.3214 0.0373
6 24 9 -0.8772 -0.9501
6 24 10 -2.2056 -0.2552
6 24 11 -1.2760 -0.5313
6 24 12 -0.6371 0.0568
6 24 13 3.4142 -0.5085
6 24 14 -4.9248 -0.2304
6 24 15 -5.5823 0.2659
6 24 16 -1.6368 -0.5812
6 24 17 1.5602 -0.1854
6 25 1 1.8314 3.9720
6 25 2 -0.7666 -0.2109
6 25 3 -4.3249 2.2346
6 25 4 0.3997 -1.4758
6 25 5 0.2768 0.3239
6 25 6 1.3182 0.7953
6 25 7 -1.2528 -0.4135
6 25 8 -0.0959 0.1846
6 25 9 3.2045 -0.6169
6 25 10 -4.3191 -0.1981
6 25 11 -1.9127 -0.6728
6 25 12 0.5239 0.5993
6 25 13 10.7744 0.0126
6 25 14 -0.9104 -0.0084
6 25 15 0.1437 0.3183
6 25 16 -11.0519 0.1802
6 26 0 10.5913 -1.2319
6 26 1 -1.3119 0.5212
6 26 2 2.6578 -0.7280
6 26 3 1.8170 -0.7609
6 26 4 2.2284 0.7242
6 26 5 -4.5603 -1.6639
6 26 6 -1.0985 -0.0096
6 26 7 1.7196 -0.7459
6 26 8 3.2995 0.6071
6 26 9 2.6836 0.3000
6 26 10 1.7640 -0.4490
6 26 11 -0.3848 0.6107
6 26 12 1.3240 0.2459
6 26 13 1.6393 0.4047
6 26 14 9.4385 0.4074
6 26 15 2.9478 -0.1690
6 26 16 -0.2508 -0.2834
6 27 1 5.5313 4.1695
6 27 2 0.4066 1.7039
6 27 3 -5.4181 0.2170
6 27 4 4.3338 -0.3218
6 27 5 -0.6366 0.1032
6 27 6 -2.5895 -0.5078
6 27 7 -3.5325 0.0806
6 27 8 -1.6481 0.8136
6 27 9 3.5076 -0.3379
6 27 10 -0.4525 1.0618
6 27 11 3.7548 -0.7364
6 27 12 -3.0526 -0.3082
6 27 13 -3.4612 -0.1143
6 27 14 -3.8324 0.1362
6 27 15 3.3498 0.1224
6 27 16 -1.5064 0.4111
6 28 0 -4.0989 -9.6402
6 28 1 -4.3567 2.3318
6 28 2 -1.7441 -0.4091
6 28 3 7.6753 1.0865
6 28 4 1.6335 1.2662
6 28 5 -0.0744 1.2881
6 28 6 7.4008 0.2915
6 28 7 3.3116 -0.1549
6 28 8 -2.1673 0.1841
6 28 9 0.3425 0.1874
6 28 10 -6.0397 -0.6567
6 28 11 3.8144 0.1957
6 28 12 3.0973 -0.3560
6 28 13 0.0806 0.3106
6 28 14 -0.6632 -0.3819
6 28 15 2.0529 -0.0097
6 29 1 5.2021 -1.3708
6 29 2 -0.0798 -2.4805
6 29 3 -0.4418 2.1809
6 29 4 1.5166 -2.5423
6 29 5 -1.4861 0.1888
6 29 6 2.2281 1.1863
6 29 7 0.5068 -0.9554
6 29 8 4.8853 0.4263
6 29 9 4.1871 -0.5473
6 29 10 -2.2482 -0.1948
6 29 11 4.0642 -0.4704
6 29 12 7.2899 -0.3281
6 29 13 0.8541 0.1808
6 29 14 16.1346 0.1317
6 29 15 -2.6155 1.2329
6 30 0 -1.7675 -2.6455
6 30 1 0.9606 1.7170
6 30 2 3.1946 -3.2508
6 30 3 -0.0951 2.8305
6 30 4 0.9083 -0.0027
6 30 5 -1.3335 0.6054
6 30 6 -6.5670 1.5240
6 30 7 -5.1415 -0.1394
6 30 8 -4.5108 -0.9909
6 30 9 -1.4463 0.2561
6 30 10 -3.1250 -0.6408
6 30 11 3.1078 0.0451
6 30 12 -4.5395 -0.3194
6 30 13 1.1361 0.7324
6 30 14 4.8836 0.0808
6 30 15 6.5200 0.4466
6 31 1 1.2671 3.6287
6 31 2 2.2038 -3.5244
6 31 3 -2.8241 -0.1834
6 31 4 -0.4294 -1.4932
6 31 5 2.7394 -0.4219
6 31 6 3.8330 -0.2331
6 31 7 -0.2731 0.4887
6 31 8 -2.4856 0.6076
6 31 9 2.7844 -0.1516
6 31 10 -8.7735 0.4112
6 31 11 -0.1970 -0.0183
6 31 12 -11.9612 -0.1574
6 31 13 -9.5439 0.1688
6 31 14 2.7974 0.3201
6 32 0 -5.0111 -17.5553
6 32 1 -0.7542 0.9174
6 32 2 -2.8936 -0.3384
6 32 3 -4.1768 0.0578
6 32 4 -2.8155 -0.0326
6 32 5 -0.3909 0.1846
6 32 6 -2.6636 -0.9618
6 32 7 -4.5146 -0.1284
6 32 8 0.6117 -1.0339
6 32 9 -1.4469 -0.5769
6 32 10 3.6594 -0.0813
6 32 11 1.4192 0.4550
6 32 12 6.4067 -0.1135
6 32 13 -2.0954 0.2117
6 32 14 -2.7975 0.6503
6 33 1 -1.3158 -3.3223
6 33 2 0.4063 -1.4652
6 33 3 -2.5119 2.3526
6 33 4 1.2055 0.4608
6 33 5 -2.5701 1.7579
6 33 6 2.7120 0.9168
6 33 7 -2.8245 -0.5985
6 33 8 -3.9453 1.0815
6 33 9 1.6779 -0.7153
6 33 10 -3.8746 -0.1504
6 33 11 1.1076 -1.2453
6 33 12 0.3945 -0.7528
6 33 13 3.7960 0.7477
6 33 14 16.8105 0.1402
6 34 0 -4.3531 8.9690
6 34 1 1.2970 3.4844
6 34 2 4.9415 -0.4802
6 34 3 0.1171 1.8486
6 34 4 6.5703 -0.0932
6 34 5 2.9803 -0.8544
6 34 6 -0.7252 -0.0932
6 34 7 4.8861 -0.3141
6 34 8 -7.8116 -0.3305
6 34 9 2.1930 -0.2625
6 34 10 2.3461 -0.0147
6 34 11 -2.9424 0.2969
6 34 12 2.2249 -0.2586
6 34 13 -0.0162 0.1543
6 35 1 -6.1818 1.0155
6 35 2 -2.1848 -2.0057
6 35 3 -2.2546 -0.7905
6 35 4 -4.5922 -0.5119
6 35 5 0.1330 -0.9703
6 35 6 3.3752 -0.2379
6 35 7 4.6177 -0.3852
6 35 8 -4.1624 1.2002
6 35 9 -0.9614 0.2598
6 35 10 -11.3865 1.1586
6 35 11 10.4460 0.4849
6 35 12 0.0469 -0.4343
6 36 0 0.2590 -6.7984
6 36 1 -2.7303 -0.7584
6 36 2 10.5962 0.1223
6 36 3 -4.7089 0.2710
6 36 4 -0.6836 0.7952
6 36 5 -5.3121 0.1193
6 36 6 0.1445 0.6638
6 36 7 10.3491 0.2739
6 36 8 8.8772 0.5000
6 36 9 4.0672 0.0445
6 36 10 -0.2972 -0.4700
6 36 11 -18.2930 -0.7438
6 36 12 3.0466 -0.4312
6 37 1 -1.9080 -0.9510
6 37 2 2.2865 -0.5088
6 37 3 -0.8863 3.8219
6 37 4 -0.2437 0.0308
6 37 5 -3.4874 0.8820
6 37 6 -1.2245 0.8803
6 37 7 1.5916 -0.5420
6 37 8 1.9240 -0.3316
6 37 9 8.7311 -0.9467
6 37 10 15.8464 -0.2718
6 37 11 16.4350 -0.1009
6 38 0 2.3914 -2.1755
6 38 1 -3.9486 -0.4389
6 38 2 6.7824 0.8538
6 38 3 3.4490 0.3335
6 38 4 -5.4253 -0.2344
6 38 5 -4.0846 -0.0204
6 38 6 -3.1147 -0.9488
6 38 7 6.9318 -0.0954
6 38 8 -6.5067 0.6260
6 38 9 -9.0540 0.3697
6 38 10 -8.2788 0.0645
6 39 1 3.9438 -2.3091
6 39 2 -4.5727 -1.0620
6 39 3 -6.3771 1.4480
6 39 4 -0.9890 -0.5962
6 39 5 -3.5632 0.7619
6 39 6 -6.3715 -1.2930
6 39 7 -4.8004 0.3205
6 39 8 4.6823 -0.2369
6 39 9 -12.3534 0.4626
6 40 0 -9.2194 0.6453
6 40 1 -4.9453 1.2293
6 40 2 12.3763 0.2838
6 40 3 -0.5926 -1.7724
6 40 4 0.0021 -0.6653
6 40 5 -4.2016 0.5914
6 40 6 -4.1160 -0.9345
6 40 7 -1.5614 -0.3258
6 40 8 -3.7519 0.6854
6 40 9 -0.1114 1.6075
6 41 1 -1.5264 0.3741
6 41 2 3.9517 -0.8684
6 41 3 -0.5912 0.8057
6 41 4 -0.0435 0.2102
6 41 5 1.3298 -0.3411
6 41 6 1.5624 0.4535
6 41 7 -3.3311 -0.1118
6 41 8 -2.0329 -0.3408
6 42 0 -9.3863 1.8407
6 42 1 5.2513 0.0719
6 42 2 2.1943 0.7378
6 42 3 9.7793 -0.9147
6 42 4 5.6454 0.0370
6 42 5 -2.0703 -0.4248
6 42 6 -4.1549 0.5870
6 42 7 -0.3579 -0.8160
6 43 1 6.3550 0.4347
6 43 2 -15.2846 0.5509
6 43 3 -2.5674 -1.1883
6 43 4 6.4455 0.7575
6 43 5 5.1420 -0.1689
6 43 6 4.4958 -1.4725
6 44 0 3.4486 1.2635
6 44 1 12.0274 0.1094
6 44 2 -3.1280 1.1145
6 44 3 -7.5538 -0.0517
6 44 4 -5.0245 -0.7331
6 45 1 10.8370 -0.2117
6 45 2 -5.3300 1.5311
7 1 1 167.6149 -1.0802
7 1 2 19.2107 3.5807
7 1 3 -15.3801 -0.5067
7 1 4 -4.2267 0.5820
7 1 5 10.2034 1.4307
7 1 6 2.9384 -1.9673
7 1 7 -5.0824 1.8603
7 1 8 -13.4295 -0.1242
7 1 9 2.5555 0.6783
7 1 10 -0.3792 0.7083
7 1 11 0.7839 -0.0781
7 1 12 -0.6523 0.0864
7 1 13 -0.3971 -0.8716
7 1 14 -10.3029 -0.6893
7 1 15 -2.2392 0.0076
7 1 16 3.8997 0.0026
7 1 17 10.1352 0.3661
7 1 18 -10.2238 0.3469
7 1 19 4.3093 -0.0653
7 1 20 -5.0491 0.6933
7 2 1 45.7060 -3.1332
7 2 2 36.8281 3.5676
7 2 3 44.7693 0.1260
7 2 4 0.6023 -0.0396
7 2 5 -5.3647 0.3385
7 2 6 10.1263 0.5261
7 2 7 4.8379 -0.6597
7 2 8 -8.8863 -1.3276
7 2 9 -4.4289 -0.4747
7 2 10 2.5145 -1.3859
7 2 11 -9.9646 -0.8221
7 2 12 -0.3171 0.7584
7 2 13 3.7448 -0.2126
7 2 14 5.0320 0.6660
7 2 15 -6.1215 0.1551
7 2 16 -8.8716 0.0788
7 2 17 4.3711 0.4557
7 2 18 11.1431 0.0754
7 2 19 2.7800 -0.4888
7 2 20 4.4284 -0.5275
7 3 0 -80.3747 13.2800
7 3 1 18.7607 -8.2372
7 3 2 26.3873 2.0168
7 3 3 7.8787 0.9869
7 3 4 -0.5305 -0.3257
7 3 5 7.2574 0.5880
7 3 6 2.5069 -2.6725
7 3 7 11.2085 0.6432
7 3 8 -2.1863 -0.3080
7 3 9 1.8618 -0.0802
7 3 10 1.3693 0.0308
7 3 11 3.5946 -0.2097
7 3 12 -5.0638 -0.2693
7 3 13 -2.6560 -0.2366
7 3 14 6.6151 -0.5678
7 3 15 4.7051 0.3829
7 3 16 2.1358 -0.2266
7 3 17 -6.9234 -0.1269
7 3 18 -11.5562 0.3909
7 3 19 -8.5123 -0.6422
7 3 20 11.0122 0.4473
7 4 1 -17.1742 -7.9877
7 4 2 -42.6562 2.6065
7 4 3 32.2558 -4.6874
7 4 4 -7.0371 -2.8723
7 4 5 -20.7474 -1.5393
7 4 6 -9.9699 -0.7476
7 4 7 2.9764 1.4201
7 4 8 0.3698 1.0588
7 4 9 2.6639 1.4625
7 4 10 1.0138 0.5411
7 4 11 -2.2860 0.6310
7 4 12 -2.0830 -0.1482
7 4 13 -2.3422 -0.0521
7 4 14 -2.3382 -0.0545
7 4 15 8.7510 -0.1204
7 4 16 -5.1050 0.4819
7 4 17 8.4915 0.2004
7 4 18 2.5246 0.2231
7 4 19 -14.1188 0.4480
7 4 20 -4.2061 -0.1021
7 5 0 7.3329 4.9030
7 5 1 59.2561 -7.3761
7 5 2 -28.3721 0.9800
7 5 3 -11.2564 -0.2089
7 5 4 13.3070 0.7110
7 5 5 13.5892 2.0440
7 5 6 -13.3793 -1.5984
7 5 7 -1.1811 1.3793
7 5 8 1.8975 -0.5061
7 5 9 2.1758 0.7419
7 5 10 1.0281 -0.3406
7 5 11 0.9405 -0.4727
7 5 12 -1.0102 -0.1370
7 5 13 -8.9570 -0.3600
7 5 14 -4.8434 -0.1511
7 5 15 2.9015 0.4645
7 5 16 -6.6876 0.4452
7 5 17 -4.5876 0.5602
7 5 18 3.8845 0.2531
7 5 19 14.7248 -0.3252
7 5 20 -2.6684 0.1263
7 6 1 0.3205 -0.3646
7 6 2 20.4685 5.4887
7 6 3 -1.5332 -2.7278
7 6 4 -14.5749 2.9964
7 6 5 5.2873 0.6914
7 6 6 4.4940 1.1699
7 6 7 7.8843 0.5149
7 6 8 -4.1261 -1.6881
7 6 9 3.8879 -0.5138
7 6 10 2.6536 -1.5305
7 6 11 -0.6134 -0.6785
7 6 12 4.6813 0.0896
7 6 13 3.4969 0.1388
7 6 14 -5.9682 0.2727
7 6 15 -1.8218 0.0836
7 6 16 6.2398 -0.1467
7 6 17 -3.0274 0.1793
7 6 18 -13.2001 -0.7852
7 6 19 7.6955 0.0531
7 6 20 11.5416 -1.0477
7 7 0 92.2176 -1.2176
7 7 1 52.1640 0.0450
7 7 2 27.6143 1.9146
7 7 3 1.8024 -0.7944
7 7 4 10.8134 -1.9834
7 7 5 1.3370 -0.0309
7 7 6 -4.5217 -1.8533
7 7 7 5.6795 -0.3796
7 7 8 -4.1847 -1.3425
7 7 9 -0.9929 -0.0578
7 7 10 -1.6746 0.6276
7 7 11 -3.0113 0.0194
7 7 12 2.0005 -0.0420
7 7 13 1.8522 0.1547
7 7 14 -2.7754 -0.0333
7 7 15 0.9198 0.2595
7 7 16 -7.8823 -0.2607
7 7 17 0.0231 0.2184
7 7 18 1.6339 -0.3890
7 7 19 -3.6082 0.0676
7 7 20 16.6914 0.1960
7 8 1 9.6233 -7.0078
7 8 2 66.1047 -2.2505
7 8 3 19.9691 -4.8929
7 8 4 2.2751 0.7539
7 8 5 5.9225 -0.6086
7 8 6 -5.0631 1.9755
7 8 7 3.5879 1.0627
7 8 8 -0.0049 0.6749
7 8 9 1.7185 1.5070
7 8 10 1.5579 0.2657
7 8 11 -3.8817 -0.0062
7 8 12 -2.1967 0.4440
7 8 13 -0.1516 -0.5396
7 8 14 5.5772 0.2503
7 8 15 1.6374 -0.2012
7 8 16 -4.0915 -0.2652
7 8 17 -9.3852 0.4399
7 8 18 -11.5800 -0.6795
7 8 19 -17.1720 0.1843
7 9 0 16.4188 20.1763
7 9 1 -30.3361 -0.1630
7 9 2 -10.9967 -1.1989
7 9 3 3.9236 2.1330
7 9 4 14.5690 -0.0503
7 9 5 7.2766 2.0543
7 9 6 3.2248 1.3705
7 9 7 -2.0374 -0.5949
7 9 8 -0.4312 -0.6050
7 9 9 -0.4130 -0.5995
7 9 10 -0.6216 1.1136
7 9 11 0.1177 0.3646
7 9 12 -8.6659 0.4353
7 9 13 -5.9417 -0.4647
7 9 14 5.3002 -0.6257
7 9 15 12.3516 0.7082
7 9 16 1.3948 -0.5608
7 9 17 12.8870 0.5318
7 9 18 0.7852 0.0643
7 9 19 -11.4958 -0.3028
7 10 1 -14.0145 8.6155
7 10 2 8.1658 1.5834
7 10 3 -17.5829 -3.3787
7 10 4 -4.4999 -0.4084
7 10 5 -1.7560 -2.2621
7 10 6 1.8506 1.4550
7 10 7 4.8273 1.1312
7 10 8 -4.2942 -0.2354
7 10 9 -0.5684 0.8123
7 10 10 4.4908 -0.9284
7 10 11 -1.0081 -1.1618
7 10 12 -3.5003 0.0084
7 10 13 -8.1430 -0.6122
7 10 14 -12.0435 -0.1013
7 10 15 -5.7480 -0.4665
7 10 16 -1.7239 0.1810
7 10 17 5.6648 0.1554
7 10 18 1.9780 -0.0406
7 10 19 11.7462 0.8751
7 11 0 45.5066 -21.2431
7 11 1 -2.7399 -11.9310
7 11 2 4.2451 -2.3907
7 11 3 -0.8706 -2.3400
7 11 4 -2.6826 1.9953
7 11 5 -7.4930 -0.5645
7 11 6 -5.0807 0.0322
7 11 7 9.5334 0.5285
7 11 8 2.0214 -0.1341
7 11 9 1.5984 -1.0663
7 11 10 -4.8949 0.6521
7 11 11 3.7127 -0.3203
7 11 12 5.8477 0.0576
7 11 13 7.5084 0.5315
7 11 14 3.6406 0.2264
7 11 15 -6.6016 0.1415
7 11 16 -16.8368 0.1344
7 11 17 -3.6075 0.0962
7 11 18 12.1899 -0.8746
7 11 19 -0.6205 0.2500
7 12 1 -9.6880 -6.2871
7 12 2 11.7788 1.7180
7 12 3 0.4079 -0.9571
7 12 4 1.0293 0.1618
7 12 5 -1.8033 1.0236
7 12 6 -9.8977 -0.6607
7 12 7 0.4054 1.8119
7 12 8 3.6482 -0.7720
7 12 9 2.6679 0.2557
7 12 10 1.1029 -0.3323
7 12 11 -1.7062 -0.1045
7 12 12 -4.5607 0.5956
7 12 13 7.1304 0.3427
7 12 14 0.9289 1.0172
7 12 15 13.6028 0.3214
7 12 16 -1.5211 -0.0543
7 12 17 -20.3635 0.0805
7 12 18 6.1754 -0.7500
7 12 19 -3.5335 0.0020
7 13 0 58.1204 21.5392
7 13 1 -2.4380 6.2540
7 13 2 3.5925 0.9914
7 13 3 9.0129 3.1313
7 13 4 7.6698 0.6474
7 13 5 -3.2710 0.2286
7 13 6 -4.6068 0.6538
7 13 7 -1.9986 -0.5960
7 13 8 3.3826 0.5107
7 13 9 0.1616 -0.7902
7 13 10 -0.3498 0.1954
7 13 11 2.9295 0.1310
7 13 12 -4.2531 0.1569
7 13 13 4.4130 0.6632
7 13 14 -6.4114 -0.3061
7 13 15 1.3580 0.1921
7 13 16 -3.6024 -0.1771
7 13 17 -1.5522 -0.2494
7 13 18 -2.0288 -0.2715
7 13 19 9.0714 -0.0823
7 14 1 11.8962 8.2412
7 14 2 4.5150 -1.8969
7 14 3 0.2157 0.1369
7 14 4 22.0552 -0.8768
7 14 5 5.5501 -1.9784
7 14 6 0.0285 -1.3866
7 14 7 -2.1610 0.8012
7 14 8 -3.7729 -1.8483
7 14 9 -5.7736 1.1665
7 14 10 -3.3592 -1.1014
7 14 11 7.8844 0.3661
7 14 12 -0.9017 0.2313
7 14 13 4.7899 -0.8593
7 14 14 5.1886 0.5710
7 14 15 7.5291 -0.6816
7 14 16 0.3755 -0.2602
7 14 17 -1.2987 0.1601
7 14 18 2.5533 -0.3987
7 14 19 1.2036 0.5895
7 15 0 20.2980 -9.3596
7 15 1 -3.1110 0.8473
7 15 2 2.2607 -2.3351
7 15 3 1.9527 -0.0591
7 15 4 -2.8447 -0.2432
7 15 5 8.8207 0.4689
7 15 6 -0.9807 0.0742
7 15 7 -0.9346 -1.2623
7 15 8 5.2612 -0.9807
7 15 9 -6.4167 -0.4458
7 15 10 -5.5975 -0.2670
7 15 11 -0.2892 0.2419
7 15 12 1.6846 0.0014
7 15 13 1.3339 0.3197
7 15 14 0.3624 0.0509
7 15 15 9.1178 0.2110
7 15 16 -5.6994 -0.4045
7 15 17 3.2781 0.3741
7 15 18 4.0278 0.1331
7 15 19 3.4050 -0.3460
7 16 1 2.2948 2.2625
7 16 2 -0.0835 -2.6458
7 16 3 1.9006 -1.9449
7 16 4 -0.6076 0.0572
7 16 5 -0.1565 0.1117
7 16 6 3.0335 -0.8358
7 16 7 0.3729 1.9779
7 16 8 0.3915 -0.5233
7 16 9 -7.2783 0.3608
7 16 10 -5.1305 0.0368
7 16 11 -1.9904 0.2852
7 16 12 3.9299 0.6168
7 16 13 -0.0195 -0.3879
7 16 14 -4.0270 0.7365
7 16 15 -7.0554 0.1175
7 16 16 -0.7863 0.1857
7 16 17 5.6281 0.1981
7 16 18 -7.5537 -0.4861
7 17 0 3.3311 0.3259
7 17 1 -2.0538 -1.6099
7 17 2 -3.7695 -0.0988
7 17 3 -4.6849 -0.2843
7 17 4 3.3532 0.4882
7 17 5 -5.4404 0.9322
7 17 6 0.7008 -0.9232
7 17 7 2.1108 -0.3548
7 17 8 -0.6099 0.5806
7 17 9 5.7692 -0.6719
7 17 10 -10.8068 0.3072
7 17 11 -9.5337 -0.1231
7 17 12 -0.2477 0.2392
7 17 13 -0.3291 0.6647
7 17 14 5.1758 -0.2972
7 17 15 -3.0596 -0.1630
7 17 16 -13.6141 -0.0796
7 17 17 1.5318 -0.1911
7 17 18 4.9443 -0.0007
7 18 1 2.8809 1.9048
7 18 2 -3.9618 4.7927
7 18 3 -3.0354 2.6234
7 18 4 4.2877 1.0865
7 18 5 -5.2445 1.7107
7 18 6 -1.5281 -1.3027
7 18 7 5.7250 -1.0438
7 18 8 0.6200 0.4822
7 18 9 -3.4415 -0.3359
7 18 10 6.6200 0.0432
7 18 11 -3.6531 -0.5064
7 18 12 -3.2188 -0.3649
7 18 13 -0.4448 -0.2252
7 18 14 -6.1239 -0.1513
7 18 15 -6.5680 -0.6492
7 18 16 17.3720 -0.1042
7 18 17 -15.8882 0.0260
7 18 18 -12.7941 -0.2354
7 19 0 4.7365 -0.9566
7 19 1 7.5202 -5.0081
7 19 2 1.8227 -3.1865
7 19 3 -3.0960 -0.5580
7 19 4 -2.9736 1.0836
7 19 5 2.4079 0.4907
7 19 6 -1.9115 0.4141
7 19 7 -0.3959 -0.9652
7 19 8 -2.5122 -0.6849
7 19 9 6.3641 -0.4087
7 19 10 -0.5393 -0.3620
7 19 11 -6.0780 -0.1030
7 19 12 1.5563 0.4116
7 19 13 3.4885 -0.0707
7 19 14 -1.0881 0.7607
7 19 15 -4.0691 0.0637
7 19 16 0.9652 0.2711
7 19 17 8.9144 -0.4629
7 19 18 -8.0856 -0.2176
7 20 1 5.1446 -1.9823
7 20 2 -0.5002 2.7028
7 20 3 6.2459 2.1622
7 20 4 2.9780 1.2020
7 20 5 -0.6596 -0.1391
7 20 6 -0.4583 0.1330
7 20 7 -0.5051 -0.6735
7 20 8 0.3076 -1.0881
7 20 9 -9.3409 0.3917
7 20 10 -2.8493 0.4912
7 20 11 7.0718 0.1726
7 20 12 -3.7159 1.1758
7 20 13 -2.8802 -0.0840
7 20 14 -0.5529 0.2900
7 20 15 -2.7479 0.0348
7 20 16 6.4369 -0.1511
7 20 17 3.0315 0.0840
7 20 18 -10.3071 -0.2176
7 21 0 -5.4465 16.8583
7 21 1 1.2267 3.8198
7 21 2 1.0760 -0.3537
7 21 3 -4.4534 0.5944
7 21 4 6.5915 -0.5193
7 21 5 0.7506 0.9897
7 21 6 6.0459 0.6530
7 21 7 3.2322 0.3014
7 21 8 -1.0038 0.1386
7 21 9 8.3241 0.4325
7 21 10 -1.5569 0.4061
7 21 11 -3.9847 0.8053
7 21 12 10.5114 0.8835
7 21 13 1.9738 -0.6260
7 21 14 9.1761 -0.5014
7 21 15 -2.6853 -0.2377
7 21 16 -3.4349 -0.4173
7 21 17 -9.5642 -0.1828
7 22 1 3.4545 2.1293
7 22 2 -2.9068 0.4179
7 22 3 -2.1191 -0.7990
7 22 4 1.6709 -0.8163
7 22 5 1.3208 -0.6736
7 22 6 0.3319 -0.3190
7 22 7 -3.0383 0.3715
7 22 8 2.5845 -0.2582
7 22 9 -7.9783 -0.2671
7 22 10 -2.6415 0.0673
7 22 11 -4.2395 -0.3719
7 22 12 7.4487 -0.1516
7 22 13 -2.0608 -0.0243
7 22 14 5.8228 -0.1014
7 22 15 6.5928 0.2737
7 22 16 19.5464 -0.2840
7 22 17 -11.7377 0.6114
7 23 0 -4.1398 -16.0272
7 23 1 9.1177 -4.6998
7 23 2 3.1968 -0.5062
7 23 3 -0.1460 -0.0188
7 23 4 -8.9597 -0.5090
7 23 5 2.0768 2.1596
7 23 6 1.5985 -0.7502
7 23 7 0.4724 1.1492
7 23 8 -1.7526 -0.4418
7 23 9 -2.9014 -0.8607
7 23 10 -1.6036 -0.0913
7 23 11 -6.1273 -0.6137
7 23 12 -11.7269 -0.1178
7 23 13 7.3824 0.0241
7 23 14 0.6188 -0.1748
7 23 15 -4.0500 -0.7182
7 23 16 -0.4027 0.1366
7 23 17 3.2109 0.2433
7 24 1 -0.2596 -3.0526
7 24 2 -4.9857 -3.2600
7 24 3 3.1891 1.3653
7 24 4 -0.6930 -1.0595
7 24 5 -1.5727 0.9419
7 24 6 -1.8881 0.0150
7 24 7 -1.4913 -0.4410
7 24 8 6.9891 0.6906
7 24 9 -1.6330 -0.0654
7 24 10 -1.9144 0.3309
7 24 11 -4.4610 0.6422
7 24 12 -10.5464 -0.1829
7 24 13 -12.4788 -0.0426
7 24 14 1.4873 0.6892
7 24 15 4.9135 -0.0187
7 24 16 4.1700 -0.0372
7 24 17 5.0550 -0.5076
7 25 0 -0.7257 4.7844
7 25 1 8.5346 3.2339
7 25 2 2.6483 -0.0671
7 25 3 -8.1291 -0.6000
7 25 4 -0.5240 -0.0918
7 25 5 -1.6102 0.6483
7 25 6 2.1925 0.0347
7 25 7 -0.9635 1.5723
7 25 8 0.9268 -0.6146
7 25 9 3.8947 0.9877
7 25 10 5.7672 0.0182
7 25 11 -3.8375 -0.5012
7 25 12 2.9824 0.9792
7 25 13 -9.5254 -0.5673
7 25 14 0.4643 0.1634
7 25 15 -1.9938 -0.0284
7 25 16 2.2486 0.0191
7 26 1 -0.0930 1.2236
7 26 2 2.7405 1.4599
7 26 3 1.9170 -0.1614
7 26 4 1.6657 -0.1591
7 26 5 -2.4626 0.7280
7 26 6 -0.2475 -0.9792
7 26 7 -3.8348 -0.0965
7 26 8 0.7270 -0.4011
7 26 9 1.5611 -0.6440
7 26 10 15.7350 0.4684
7 26 11 -4.9920 -1.1837
7 26 12 10.8771 0.2007
7 26 13 -2.4006 -0.2822
7 26 14 6.4632 -0.0397
7 26 15 0.0134 -0.1351
7 26 16 -1.9220 0.5385
7 27 0 -5.7806 14.0464
7 27 1 4.2618 -1.4375
7 27 2 -1.1601 4.6807
7 27 3 3.3914 1.3349
7 27 4 1.1411 -1.6234
7 27 5 4.9721 1.4381
7 27 6 1.4231 -2.1685
7 27 7 0.8411 0.0092
7 27 8 -3.0435 -0.4558
7 27 9 -3.8546 -0.5371
7 27 10 -0.8740 0.4665
7 27 11 1.7658 -0.3357
7 27 12 2.5354 -0.2778
7 27 13 -4.6443 -0.3748
7 27 14 3.4838 -0.0270
7 27 15 7.2919 0.1668
7 27 16 4.2076 0.0375
7 28 1 0.2803 1.1989
7 28 2 -1.6955 -2.2751
7 28 3 1.0133 0.4871
7 28 4 1.0793 -0.8445
7 28 5 -2.9790 -0.6934
7 28 6 1.2592 1.4533
7 28 7 0.0338 -0.6251
7 28 8 -5.2889 0.7933
7 28 9 0.4528 -0.1921
7 28 10 -2.9102 0.3660
7 28 11 -5.7740 0.6879
7 28 12 9.8114 -0.1071
7 28 13 -3.4977 0.0568
7 28 14 -11.0850 0.2224
7 28 15 0.9626 -0.8174
7 29 0 -1.4801 3.6534
7 29 1 5.0759 -6.8745
7 29 2 0.6557 0.1336
7 29 3 -5.5360 -2.0072
7 29 4 0.3691 0.1226
7 29 5 -4.3558 -0.5382
7 29 6 3.2965 -1.0017
7 29 7 -5.5095 1.1123
7 29 8 1.2926 0.4563
7 29 9 -3.4241 1.2512
7 29 10 -1.6363 0.0990
7 29 11 -3.1442 -0.0534
7 29 12 5.4539 0.3471
7 29 13 -3.5856 -1.2226
7 29 14 1.0977 -0.2546
7 29 15 -3.2575 0.1497
7 30 1 1.6074 -4.2412
7 30 2 5.2770 0.1057
7 30 3 7.7753 -0.2274
7 30 4 -4.4270 0.2298
7 30 5 6.4264 1.3800
7 30 6 1.0648 1.5066
7 30 7 1.7293 1.1388
7 30 8 3.3005 0.3890
7 30 9 1.3885 0.0258
7 30 10 1.8878 -0.6100
7 30 11 -4.8717 -0.7717
7 30 12 0.7160 -1.0572
7 30 13 -4.1562 -0.2083
7 30 14 2.3870 -0.4699
7 30 15 2.5683 0.6450
7 31 0 -1.0450 3.8998
7 31 1 -0.3049 -6.5549
7 31 2 -3.7016 1.2696
7 31 3 -0.2292 0.0037
7 31 4 -0.6379 0.1498
7 31 5 3.7246 1.1571
7 31 6 -0.0412 -2.0726
7 31 7 -2.4433 -0.0259
7 31 8 -8.6390 -1.0441
7 31 9 -3.5875 -0.1429
7 31 10 -1.5754 0.9895
7 31 11 3.5813 -0.4592
7 31 12 7.6710 0.4731
7 31 13 -4.8499 0.3384
7 31 14 13.4185 0.5039
7 32 1 -4.4282 -0.8288
7 32 2 -0.5774 -1.2710
7 32 3 -4.3439 1.9833
7 32 4 -8.9290 -0.9464
7 32 5 2.8100 -0.1832
7 32 6 2.8058 -0.2248
7 32 7 -0.8145 -0.7615
7 32 8 -0.9107 -0.2066
7 32 9 -1.3282 -0.0613
7 32 10 -6.2568 0.1055
7 32 11 -6.1908 1.4345
7 32 12 -0.7154 0.0906
7 32 13 -0.6302 0.8521
7 32 14 -4.0636 0.6131
7 33 0 9.7308 7.9696
7 33 1 -1.2558 2.0512
7 33 2 -0.8591 1.1482
7 33 3 -4.0331 -0.9834
7 33 4 1.0511 -0.4045
7 33 5 0.6636 0.9064
7 33 6 5.8122 -1.1864
7 33 7 5.0440 0.9353
7 33 8 3.3414 -0.0682
7 33 9 6.5074 0.5532
7 33 10 -1.8227 1.0131
7 33 11 -1.9109 0.2986
7 33 12 -0.7457 -1.0046
7 33 13 1.4646 -0.4835
7 34 1 -0.6300 -3.1163
7 34 2 9.6354 -1.9153
7 34 3 4.0822 -0.7086
7 34 4 -12.6830 -0.1618
7 34 5 0.5430 0.5560
7 34 6 -3.2108 -0.6720
7 34 7 1.0879 -0.2403
7 34 8 6.4343 0.0393
7 34 9 4.1848 0.0617
7 34 10 10.2683 -0.0622
7 34 11 -4.0002 0.7740
7 34 12 -4.6213 -0.2878
7 34 13 0.4956 -0.6818
7 35 0 9.2543 6.9412
7 35 1 -0.0599 -3.0758
7 35 2 -2.4370 -0.4041
7 35 3 6.3007 -0.4581
7 35 4 2.7550 -0.0693
7 35 5 -6.0113 0.1756
7 35 6 -3.3795 0.6416
7 35 7 -3.2674 0.4185
7 35 8 0.7066 -0.3172
7 35 9 0.6383 -0.7774
7 35 10 1.0841 0.1617
7 35 11 1.0612 -1.1153
7 35 12 4.0263 0.3746
7 36 1 0.3520 3.2299
7 36 2 -0.9779 -2.6905
7 36 3 4.9329 0.6998
7 36 4 -5.0408 1.0426
7 36 5 0.9885 -0.4076
7 36 6 -11.5984 0.3640
7 36 7 0.3985 -0.4688
7 36 8 4.2990 0.2592
7 36 9 -2.1112 -0.3214
7 36 10 -0.6882 -0.2533
7 36 11 3.5757 -0.8362
7 36 12 -2.7475 -0.5783
7 37 0 6.3037 1.4772
7 37 1 -4.7132 1.3681
7 37 2 -3.5336 0.0780
7 37 3 -1.3833 -0.5607
7 37 4 -5.9622 0.0976
7 37 5 7.2613 -0.6072
7 37 6 3.7777 -0.0927
7 37 7 -7.9091 -0.3519
7 37 8 7.8132 0.5855
7 37 9 0.5945 0.0537
7 37 10 -8.4680 0.8153
7 37 11 3.3046 1.2099
7 38 1 2.9566 -0.0178
7 38 2 -1.4116 1.6856
7 38 3 5.9242 0.8000
7 38 4 -11.5249 0.3985
7 38 5 -5.2485 0.6301
7 38 6 -4.7247 0.0760
7 38 7 3.6952 -0.8897
7 38 8 9.0368 -0.0632
7 38 9 5.8426 -0.4051
7 38 10 -1.7966 -0.3133
7 39 0 -6.7641 0.1731
7 39 1 -7.1834 0.4358
7 39 2 9.8317 -0.3656
7 39 3 5.1165 -0.0284
7 39 4 7.1641 0.2361
7 39 5 2.2112 0.9707
7 39 6 -1.2501 0.3369
7 39 7 -13.9078 -0.1393
7 39 8 6.3850 0.2719
7 39 9 1.6370 -1.5272
7 39 10 1.5514 -0.0733
7 40 1 -8.2031 0.9992
7 40 2 2.4141 1.7809
7 40 3 2.0609 1.3284
7 40 4 -3.7500 -0.2524
7 40 5 7.7751 -0.1455
7 40 6 -2.5512 0.4770
7 40 7 -4.1879 -0.3317
7 40 8 -3.8560 -0.4770
7 40 9 -2.9778 0.2736
7 41 0 1.4815 0.0435
7 41 1 -0.2916 0.4702
7 41 2 2.5489 -1.9982
7 41 3 3.9281 0.3084
7 41 4 -8.3530 -0.6915
7 41 5 -5.6371 0.1454
7 41 6 -1.1138 -0.1140
7 41 7 -5.9213 0.0959
7 41 8 3.7247 0.1398
7 42 1 -2.4395 2.3839
7 42 2 -0.6563 -1.5746
7 42 3 -5.8751 -1.0921
7 42 4 -1.2395 0.5973
7 42 5 0.6759 -0.0753
7 42 6 -6.2737 1.0089
7 42 7 -3.5909 1.4359
7 43 0 -5.4385 -8.5111
7 43 1 5.0147 -0.2160
7 43 2 6.8604 -0.2965
7 43 3 -10.7806 0.5142
7 43 4 1.3139 -0.6438
7 43 5 1.0980 0.8393
7 44 1 -0.8105 2.0035
7 44 2 -0.2955 0.4306
7 44 3 -2.5425 0.7516
7 45 0 5.2571 1.2792
7 45 1 -0.3797 0.2487
8 1 1 21.1267 4.8211
8 1 2 95.6312 6.0340
8 1 3 0.9319 0.3411
8 1 4 22.9228 3.1767
8 1 5 13.4054 -0.4932
8 1 6 6.3894 -0.9320
8 1 7 -4.8247 0.2711
8 1 8 -5.2568 -1.3455
8 1 9 -7.2874 -0.2978
8 1 10 3.7196 -0.1709
8 1 11 4.7441 -0.2915
8 1 12 5.8700 0.5784
8 1 13 -0.7335 -0.1768
8 1 14 -9.7001 0.1733
8 1 15 1.4987 -0.3017
8 1 16 -0.7124 -0.4374
8 1 17 3.0628 -0.1676
8 1 18 0.2918 -0.4830
8 1 19 1.7505 0.0735
8 1 20 7.4313 -0.3758
8 2 0 -89.8393 13.4515
8 2 1 -67.0166 4.9883
8 2 2 5.7727 1.6408
8 2 3 17.0000 1.6255
8 2 4 27.1120 -0.8414
8 2 5 -2.4900 -1.3970
8 2 6 4.4570 -0.5316
8 2 7 7.3740 -1.2050
8 2 8 2.8080 0.7006
8 2 9 -5.1203 0.5931
8 2 10 3.1392 -0.3859
8 2 11 1.7408 0.9562
8 2 12 1.2657 -0.9100
8 2 13 6.6809 0.0508
8 2 14 4.5419 -0.1201
8 2 15 -7.3486 -0.3767
8 2 16 -0.8078 0.0329
8 2 17 -9.4985 -0.2608
8 2 18 3.6696 0.1656
8 2 19 4.3847 0.4261
8 2 20 4.4706 0.3726
8 3 1 -64.4224 -3.7302
8 3 2 -72.5393 1.9125
8 3 3 -31.1315 -5.2079
8 3 4 -1.6682 0.7000
8 3 5 -2.7897 -1.2208
8 3 6 -3.9653 0.1587
8 3 7 0.3726 -0.4073
8 3 8 4.3792 1.3576
8 3 9 -2.9355 1.4853
8 3 10 -1.4427 0.3040
8 3 11 -0.5130 0.2619
8 3 12 -4.4794 -0.0938
8 3 13 -0.7551 -0.9041
8 3 14 -2.4969 -0.4053
8 3 15 1.3412 -1.2788
8 3 16 0.6749 0.1051
8 3 17 -11.1112 0.5211
8 3 18 -1.8892 0.1834
8 3 19 -8.9744 0.9476
8 3 20 -1.2763 -0.0753
8 4 0 99.5656 -5.3304
8 4 2 -9.6062 -1.5223
8 4 3 -3.5994 -1.2514
8 4 4 -6.5301 0.6347
8 4 5 -9.5216 -1.7726
8 4 6 -1.6431 2.6199
8 4 7 -2.7199 0.7366
8 4 8 2.5128 -0.1745
8 4 9 1.8676 1.4572
8 4 10 1.2559 -1.0310
8 4 11 1.1500 0.0348
8 4 12 2.3949 -0.3927
8 4 13 3.1782 -0.1141
8 4 14 -3.8409 0.7065
8 4 15 -2.5960 0.1374
8 4 16 5.0895 0.3048
8 4 17 -1.4501 -0.1100
8 4 18 7.4505 0.2678
8 4 19 8.7193 0.2489
8 4 20 0.0163 -0.3173
8 5 1 33.7306 -5.4769
8 5 2 6.8161 4.9288
8 5 3 23.3797 0.5586
8 5 4 0.1497 3.0669
8 5 5 5.2077 -0.5988
8 5 6 -2.6610 1.4515
8 5 7 -2.9200 0.4373
8 5 8 6.1525 -2.0753
8 5 9 2.2455 0.1693
8 5 10 2.5230 -1.1602
8 5 11 3.5122 -0.4878
8 5 12 9.0522 0.9311
8 5 13 8.7527 0.1570
8 5 14 -1.5093 0.3374
8 5 15 -2.8897 0.7971
8 5 16 -1.2333 -0.3443
8 5 17 -10.2932 0.1507
8 5 18 0.2807 -0.3416
8 5 19 15.9111 -0.1751
8 5 20 0.4753 -0.6673
8 6 0 107.1110 9.6400
8 6 1 32.6729 4.7793
8 6 2 -6.5952 4.2391
8 6 3 17.6236 0.3776
8 6 4 17.2303 0.1886
8 6 5 10.0427 -2.8222
8 6 6 -7.7439 -0.4033
8 6 7 -1.3472 -1.3775
8 6 8 -1.7576 0.2156
8 6 9 -1.1507 0.3378
8 6 10 1.3765 -0.2049
8 6 11 -4.5048 1.5445
8 6 12 0.6534 -0.4818
8 6 13 1.5963 0.4085
8 6 14 2.2817 0.2696
8 6 15 -3.2408 -0.8197
8 6 16 -7.0756 0.2428
8 6 17 -8.3618 -0.6135
8 6 18 -11.9453 -0.3455
8 6 19 -2.9205 -0.0022
8 6 20 7.4304 -0.1612
8 7 1 68.2167 -5.4737
8 7 2 21.5399 0.2680
8 7 3 14.1104 -3.6907
8 7 4 1.5993 -0.7040
8 7 5 16.7286 -2.0377
8 7 6 5.0764 0.2065
8 7 7 -6.1416 0.9022
8 7 8 -2.6626 -0.4437
8 7 9 -2.9780 0.2904
8 7 10 -2.5850 -0.3626
8 7 11 -6.2403 1.0404
8 7 12 1.9112 0.0948
8 7 13 -6.7030 0.1502
8 7 14 -10.2424 -0.1412
8 7 15 -3.5752 -0.3873
8 7 16 4.8635 -0.0672
8 7 17 -16.6586 0.6378
8 7 18 -2.0021 -0.4078
8 7 19 -2.6562 0.5479
8 8 0 13.3506 -23.7674
8 8 1 -21.3373 2.8300
8 8 2 -15.7267 1.3257
8 8 3 21.9046 -2.9742
8 8 4 -12.5380 1.4489
8 8 5 6.3407 -3.8148
8 8 6 4.0615 1.3188
8 8 7 -4.4278 0.1989
8 8 8 1.5578 0.4529
8 8 9 0.5961 1.1442
8 8 10 -2.7705 -0.0001
8 8 11 -4.6399 -0.2937
8 8 12 1.3542 -0.5810
8 8 13 3.6968 -0.2177
8 8 14 3.2262 0.0055
8 8 15 -1.0254 -0.6531
8 8 16 0.2574 0.0462
8 8 17 11.1676 -0.0673
8 8 18 -3.3139 0.2170
8 8 19 8.9224 0.2670
8 9 1 24.3161 -8.1352
8 9 2 -16.0282 -2.6589
8 9 3 6.5185 -0.0026
8 9 4 -10.5808 1.5192
8 9 5 -4.7532 1.5175
8 9 6 -2.2646 0.8962
8 9 7 -5.6277 1.0386
8 9 8 0.2179 -0.2375
8 9 9 -0.5728 0.0870
8 9 10 0.6157 -0.1523
8 9 11 2.4598 -0.1795
8 9 12 -6.3765 0.0915
8 9 13 4.0722 -0.6168
8 9 14 2.5648 0.2156
8 9 15 1.4599 0.6158
8 9 16 -3.3505 -0.0768
8 9 17 2.0605 0.4964
8 9 18 0.8919 -0.2556
8 9 19 12.0489 -0.0033
8 10 0 19.7616 13.4442
8 10 1 7.1855 9.8415
8 10 2 -8.4703 1.2588
8 10 3 18.3859 0.9894
8 10 4 -6.2967 -0.9191
8 10 5 10.9107 -3.9630
8 10 6 -1.1590 1.3327
8 10 7 4.3854 -1.9804
8 10 8 -5.1536 0.3730
8 10 9 1.3318 0.1840
8 10 10 0.5916 -0.2422
8 10 11 1.7519 0.3942
8 10 12 -0.4730 -0.4152
8 10 13 3.7397 0.2205
8 10 14 8.7311 0.1869
8 10 15 2.0761 -0.0877
8 10 16 -7.2939 0.5366
8 10 17 -8.2845 -0.3288
8 10 18 1.1352 0.1181
8 10 19 2.3949 -0.1873
8 11 1 2.4291 6.0619
8 11 2 -14.3572 -5.1991
8 11 3 9.9671 -1.6959
8 11 4 -0.4821 0.1587
8 11 5 -0.3840 0.6106
8 11 6 5.7052 -0.5406
8 11 7 5.0035 -0.1126
8 11 8 1.5125 0.4519
8 11 9 8.1664 -0.4452
8 11 10 0.0597 0.0437
8 11 11 -2.9058 -0.5560
8 11 12 0.3307 -0.4444
8 11 13 -1.4645 -0.2200
8 11 14 2.1752 -0.5240
8 11 15 9.0352 -0.4937
8 11 16 6.1493 0.2903
8 11 17 -8.7056 0.0867
8 11 18 -7.7808 0.3198
8 11 19 2.5103 0.2815
8 12 0 41.1845 -18.7371
8 12 1 43.0453 0.7760
8 12 2 -11.8098 3.0205
8 12 3 0.7092 -3.5366
8 12 4 -0.2707 3.5389
8 12 5 3.7246 -0.9697
8 12 6 0.7991 2.3297
8 12 7 3.7402 0.1966
8 12 8 -1.8895 0.6885
8 12 9 3.3464 0.0390
8 12 10 -2.5287 -0.6222
8 12 11 0.8181 0.3867
8 12 12 -5.8703 -1.2345
8 12 13 -0.6439 -0.0756
8 12 14 -4.1012 0.5014
8 12 15 -4.8550 -0.4290
8 12 16 -1.4170 0.8566
8 12 17 -1.7266 -0.1858
8 12 18 -5.0500 0.1776
8 12 19 8.4391 0.3080
8 13 2 16.0589 2.5088
8 13 3 13.4158 3.5271
8 13 4 1.3418 0.0884
8 13 5 -4.9453 3.1532
8 13 6 0.1550 0.3888
8 13 7 -5.8457 0.3261
8 13 8 -1.3955 -0.3117
8 13 9 7.6944 -1.6247
8 13 10 -8.2597 -0.7592
8 13 11 4.6877 -0.2503
8 13 12 -10.8096 0.7651
8 13 13 3.2101 0.1061
8 13 14 5.0380 1.2088
8 13 15 0.7961 0.2778
8 13 16 -4.1727 0.0466
8 13 17 6.0618 0.0807
8 13 18 -10.9516 -0.7112
8 13 19 5.5760 -0.1311
8 14 0 -21.3103 6.3635
8 14 1 10.9193 2.6615
8 14 2 -6.7486 -0.5801
8 14 3 5.1204 0.3627
8 14 4 1.5827 1.5445
8 14 5 9.3611 -2.7175
8 14 6 -2.2075 -0.3096
8 14 7 -0.8419 -0.8703
8 14 8 1.7024 0.2819
8 14 9 -0.3260 1.0304
8 14 10 -1.6458 -0.4000
8 14 11 1.4497 1.1517
8 14 12 3.7936 0.3981
8 14 13 -7.8076 -0.0653
8 14 14 9.2985 -0.2142
8 14 15 6.6797 -0.1897
8 14 16 2.9186 0.0354
8 14 17 -6.8355 -0.2404
8 14 18 15.4187 -0.1904
8 14 19 3.6808 -0.8227
8 15 1 -5.2334 6.3873
8 15 2 -4.8324 -4.8546
8 15 3 8.8523 -1.0766
8 15 4 -3.7097 -2.0597
8 15 5 -0.2818 -0.5871
8 15 6 2.2493 0.0181
8 15 7 -1.4582 1.1796
8 15 8 0.3099 0.4622
8 15 9 0.0023 0.7331
8 15 10 1.5904 0.4194
8 15 11 -3.4150 -0.6939
8 15 12 -1.5469 -0.6978
8 15 13 -2.2740 -0.2553
8 15 14 -6.1946 -0.7507
8 15 15 4.3611 -0.0024
8 15 16 -7.3568 0.1476
8 15 17 -1.6042 -0.0318
8 15 18 -0.6637 0.5872
8 16 0 3.7467 -26.3707
8 16 1 11.6270 -5.0938
8 16 2 -13.1238 -2.4274
8 16 3 -2.4961 -1.0508
8 16 4 1.3810 1.2112
8 16 5 -2.2320 2.0700
8 16 6 1.1901 -0.2923
8 16 7 -0.0837 0.2468
8 16 8 0.4388 -0.2604
8 16 9 0.6187 0.6071
8 16 10 -8.4830 -0.3749
8 16 11 -1.1642 0.4844
8 16 12 1.5128 -0.5838
8 16 13 -6.7760 0.6196
8 16 14 -0.4627 0.0527
8 16 15 -4.9337 0.0723
8 16 16 -15.0940 0.3393
8 16 17 -2.1840 -0.2481
8 16 18 6.7591 0.0795
8 17 1 0.3425 -0.5705
8 17 2 5.8437 -1.7563
8 17 3 -1.8430 -0.8275
8 17 4 -7.1051 -2.2823
8 17 5 -2.8707 1.6268
8 17 6 1.5336 0.6465
8 17 7 2.8360 -0.6683
8 17 8 -3.8250 -0.2771
8 17 9 8.6473 -0.6349
8 17 10 5.9251 -0.4631
8 17 11 -4.3538 0.4533
8 17 12 -5.0163 -0.0974
8 17 13 -0.6609 0.3103
8 17 14 1.6442 0.6730
8 17 15 3.0698 0.7286
8 17 16 -6.5700 0.2194
8 17 17 -3.9180 0.1503
8 17 18 -7.5965 0.4285
8 18 0 5.3252 -0.1484
8 18 1 11.8059 4.8800
8 18 2 5.0670 -1.0291
8 18 3 1.6877 2.4462
8 18 4 3.7245 -0.5976
8 18 5 -6.1091 1.9764
8 18 6 -7.2689 0.2417
8 18 7 0.1624 0.8151
8 18 8 -1.2200 -0.5674
8 18 9 -4.5532 0.1174
8 18 10 3.8968 -0.9476
8 18 11 7.9068 -0.3061
8 18 12 -0.7815 -0.7031
8 18 13 3.3613 -0.0862
8 18 14 3.4918 0.1108
8 18 15 -2.0797 -0.0859
8 18 16 9.8107 0.2521
8 18 17 22.5898 -0.0525
8 18 18 0.5039 -0.4543
8 19 1 -1.4981 1.3315
8 19 2 8.7340 1.8092
8 19 3 5.2265 -2.2910
8 19 4 7.6783 -0.7437
8 19 5 2.2477 -0.2366
8 19 6 1.5702 0.2274
8 19 7 -1.8737 -0.1546
8 19 8 -2.5948 0.7526
8 19 9 -7.8546 -0.7192
8 19 10 7.3783 0.0004
8 19 11 -3.4211 0.2266
8 19 12 -5.3705 0.4901
8 19 13 1.6383 0.4787
8 19 14 -0.7347 0.2766
8 19 15 -1.4285 -0.2487
8 19 16 -19.6374 0.1690
8 19 17 21.3769 -0.2203
8 19 18 4.3429 -0.6217
8 20 0 -3.1885 4.0323
8 20 1 -2.7307 -3.1647
8 20 2 2.4825 -2.4075
8 20 3 -4.4451 2.2315
8 20 4 6.1250 -0.6565
8 20 5 2.6790 0.2906
8 20 6 7.2067 -0.8793
8 20 7 0.1406 -0.2461
8 20 8 1.1999 -1.0398
8 20 9 2.3809 -0.3023
8 20 10 -4.0539 0.1709
8 20 11 11.6093 -0.1759
8 20 12 10.0530 0.1932
8 20 13 -4.3534 0.2845
8 20 14 2.7550 -0.4466
8 20 15 -12.3852 0.2935
8 20 16 -3.1211 -0.0827
8 20 17 -12.4175 -0.4891
8 20 18 -4.6077 0.2138
8 21 1 -3.9678 2.8755
8 21 2 4.3063 -0.5895
8 21 3 -2.5187 -3.4134
8 21 4 -1.1992 1.3514
8 21 5 -2.5160 -2.3805
8 21 6 -2.8606 1.9396
8 21 7 1.1692 0.7359
8 21 8 -3.3486 0.6503
8 21 9 -4.3061 0.4708
8 21 10 -6.1623 -0.5253
8 21 11 -2.7408 -0.1877
8 21 12 -0.5782 0.4169
8 21 13 7.1223 0.2723
8 21 14 -1.9685 -0.0181
8 21 15 5.8189 -0.1826
8 21 16 -1.2089 -0.4200
8 21 17 6.5595 -0.4528
8 22 0 1.3151 4.1650
8 22 1 4.8803 0.2159
8 22 2 2.3042 0.3908
8 22 3 -1.7117 -0.0855
8 22 4 -3.9270 -1.0247
8 22 5 -1.6413 0.6367
8 22 6 4.4629 -1.1816
8 22 7 -9.8436 0.3289
8 22 8 -4.8966 0.2451
8 22 9 -4.7188 -0.4390
8 22 10 -0.8714 0.0692
8 22 11 1.9280 -0.2042
8 22 12 -1.0815 0.2337
8 22 13 -4.0051 -0.1934
8 22 14 -13.7526 -0.2684
8 22 15 -6.2715 0.7639
8 22 16 -4.2485 0.1498
8 22 17 -1.4762 0.3763
8 23 1 0.0765 -1.7275
8 23 2 1.7561 5.5644
8 23 3 3.5138 -2.8194
8 23 4 -1.1361 1.0778
8 23 5 -3.9235 -1.0607
8 23 6 -0.1061 0.2055
8 23 7 4.6538 0.3006
8 23 8 2.5469 0.3894
8 23 9 -5.0878 0.4859
8 23 10 -10.5310 -0.2705
8 23 11 4.1103 -0.3098
8 23 12 -4.8671 -0.5919
8 23 13 2.0130 0.0494
8 23 14 -11.8922 0.0184
8 23 15 2.8170 -0.7042
8 23 16 -5.7758 -0.6611
8 23 17 8.6009 -0.4125
8 24 0 8.5571 0.7974
8 24 1 -1.1625 -3.7913
8 24 2 6.2252 0.7797
8 24 3 -1.8610 1.4829
8 24 4 4.5139 -0.2732
8 24 5 -1.7143 2.5836
8 24 6 3.3150 0.6022
8 24 7 -0.7796 0.6756
8 24 8 1.6682 0.6602
8 24 9 1.2669 -0.8516
8 24 10 6.3294 -0.1056
8 24 11 -1.1529 -0.1467
8 24 12 10.1668 -0.2804
8 24 13 -7.8571 0.0117
8 24 14 1.5503 -0.0076
8 24 15 5.6316 0.3819
8 24 16 10.9916 -0.1584
8 24 17 -0.1110 -1.1460
8 25 1 -4.5702 -0.9809
8 25 2 6.1027 6.3511
8 25 3 -2.4169 0.7718
8 25 4 4.7174 0.6338
8 25 5 1.3527 -1.0049
8 25 6 -3.6775 -0.5080
8 25 7 -2.2397 -0.0778
8 25 8 -0.5856 -1.2188
8 25 9 2.3471 0.1855
8 25 10 -0.2325 -0.4257
8 25 11 7.7834 0.8747
8 25 12 10.3082 0.6723
8 25 13 9.4871 -0.0406
8 25 14 -4.0177 0.4094
8 25 15 4.7098 -0.4272
8 25 16 -0.2717 -0.2804
8 26 0 6.8926 10.7094
8 26 1 -3.1344 0.5156
8 26 2 -1.3649 -1.6547
8 26 3 1.6775 1.0415
8 26 4 -1.0422 -1.8249
8 26 5 1.7792 -0.4785
8 26 6 3.2971 -1.3044
8 26 7 -1.2348 0.3026
8 26 8 -2.4502 0.3052
8 26 9 -12.1259 0.2672
8 26 10 4.9583 0.6038
8 26 11 1.4050 0.0641
8 26 12 1.8304 0.8584
8 26 13 3.0056 0.5625
8 26 14 -2.7167 0.0121
8 26 15 12.0630 -0.4206
8 26 16 4.4420 -0.2568
8 27 1 2.6621 2.4080
8 27 2 5.9298 -1.4497
8 27 3 -1.7288 -2.0559
8 27 4 2.5364 1.1525
8 27 5 -0.2857 -0.5121
8 27 6 -3.8872 -0.2766
8 27 7 -0.6320 1.3726
8 27 8 1.6091 -1.2223
8 27 9 -4.5399 1.3995
8 27 10 -12.6561 -0.2754
8 27 11 -4.1240 -0.4918
8 27 12 -1.8858 0.7634
8 27 13 -1.5583 -0.5242
8 27 14 -9.9047 -0.0250
8 27 15 -5.0851 -0.6306
8 27 16 3.5507 -1.0013
8 28 0 4.3644 2.3558
8 28 1 -2.0678 -4.3185
8 28 2 5.5383 2.7066
8 28 3 -0.5241 -1.0307
8 28 4 4.6026 -1.7456
8 28 5 -0.4653 0.5381
8 28 6 -2.4110 -1.4609
8 28 7 -4.0747 0.1348
8 28 8 -2.6138 0.5062
8 28 9 -2.6626 -0.1881
8 28 10 3.5591 0.9836
8 28 11 3.2465 -0.6569
8 28 12 -1.3312 -0.2547
8 28 13 -1.1754 -0.4399
8 28 14 -12.1884 -0.0955
8 28 15 -9.6729 0.0442
8 29 1 1.3705 -4.6573
8 29 2 0.1391 -0.5280
8 29 3 -1.4625 -0.7659
8 29 4 4.8276 0.4532
8 29 5 -1.2565 0.4495
8 29 6 3.5001 -0.2722
8 29 7 2.5757 -0.6796
8 29 8 0.1479 -0.9831
8 29 9 -1.7369 0.9891
8 29 10 -1.8267 -0.0384
8 29 11 3.3085 0.3849
8 29 12 1.4567 0.9919
8 29 13 13.4213 -0.5382
8 29 14 -7.8483 0.7627
8 29 15 -0.4913 0.4334
8 30 0 2.1483 14.1369
8 30 1 -4.3802 -3.1685
8 30 2 -2.8446 -0.8842
8 30 3 2.6172 0.1553
8 30 4 -1.2632 1.0095
8 30 5 -1.5008 -0.5228
8 30 6 0.9305 0.5779
8 30 7 -1.7231 0.0316
8 30 8 -2.7523 -0.9736
8 30 9 -8.0594 -0.1943
8 30 10 2.5159 -0.0257
8 30 11 -2.0546 0.3549
8 30 12 4.6597 0.5694
8 30 13 8.0890 0.3319
8 30 14 2.3903 -0.1199
8 31 1 0.2346 1.1174
8 31 2 1.8998 1.9011
8 31 3 -2.7467 -1.7538
8 31 4 4.8272 1.0693
8 31 5 -0.2871 -0.1750
8 31 6 -0.2939 -0.9475
8 31 7 0.4097 0.4192
8 31 8 2.7752 -1.5317
8 31 9 -4.2572 0.0427
8 31 10 -0.5877 0.3264
8 31 11 -1.9034 0.5683
8 31 12 1.5104 0.3963
8 31 13 -5.2185 -0.0960
8 31 14 -0.7234 0.0440
8 32 0 -1.9629 7.0271
8 32 1 -6.1667 -2.0833
8 32 2 1.6163 0.2746
8 32 3 7.9748 -2.3299
8 32 4 2.3236 0.1772
8 32 5 3.3905 -0.3041
8 32 6 3.4634 -0.3954
8 32 7 -5.2228 0.6766
8 32 8 -1.3522 -0.3111
8 32 9 -1.6856 -0.4241
8 32 10 -2.3447 -0.2805
8 32 11 8.2836 0.1700
8 32 12 0.0864 0.0457
8 32 13 1.3335 -0.2397
8 32 14 -12.7704 -0.6735
8 33 1 2.5131 -1.4902
8 33 2 -5.9865 3.5646
8 33 3 -2.1531 0.6443
8 33 4 -1.8837 0.4935
8 33 5 1.2959 1.0977
8 33 6 -1.6740 -0.1896
8 33 7 -6.1561 1.0817
8 33 8 -11.8855 -0.9077
8 33 9 -12.1298 0.1427
8 33 10 -6.8060 -0.5319
8 33 11 -7.8326 0.2046
8 33 12 3.9637 0.5994
8 33 13 8.6790 -0.7183
8 34 0 -0.4490 8.1485
8 34 1 0.1708 2.8946
8 34 2 2.3367 1.2282
8 34 3 4.5112 -0.2847
8 34 4 -2.3543 0.4069
8 34 5 -1.2996 -0.6163
8 34 6 1.8046 -0.2512
8 34 7 1.2924 -0.3686
8 34 8 6.6713 -0.1230
8 34 9 -2.6478 0.5149
8 34 10 -3.2514 0.2541
8 34 11 -2.4227 0.8205
8 34 12 -4.8798 0.6161
8 34 13 -4.2880 0.0211
8 35 1 -2.6618 2.3010
8 35 2 -3.6060 -1.8532
8 35 3 -1.5223 -1.0732
8 35 4 2.7817 0.4254
8 35 5 0.7311 -0.6515
8 35 6 0.8735 -0.2272
8 35 7 6.3612 0.7675
8 35 8 -0.4433 -0.7110
8 35 9 14.4539 0.5576
8 35 10 13.0956 -0.3244
8 35 11 0.0162 -0.6966
8 35 12 7.9622 -0.1854
8 36 0 1.4546 -10.7163
8 36 1 -1.1365 -1.7749
8 36 2 -9.2639 -0.0968
8 36 3 4.3101 -2.1272
8 36 4 3.5676 0.7588
8 36 5 8.4044 1.7629
8 36 6 -1.2371 1.3736
8 36 7 5.1591 1.0712
8 36 8 -2.6371 0.3074
8 36 9 4.5062 0.4315
8 36 10 -5.8680 -0.0598
8 36 11 4.7831 0.4066
8 36 12 -5.2957 -1.5185
8 37 1 4.2156 0.3198
8 37 2 -7.8699 2.7058
8 37 3 -3.9337 0.4859
8 37 4 -1.6630 0.1570
8 37 5 -0.1383 -0.0608
8 37 6 7.6510 -0.2787
8 37 7 -2.3864 0.1086
8 37 8 -8.5767 -0.2319
8 37 9 10.3216 -0.0089
8 37 10 0.9904 -0.4682
8 37 11 0.7462 -0.1747
8 38 0 -6.1683 -2.4585
8 38 1 -0.4145 -0.2526
8 38 2 10.2362 0.2514
8 38 3 -1.0887 0.5488
8 38 4 2.8771 0.3622
8 38 5 0.1037 -0.2130
8 38 6 -2.5417 -0.3653
8 38 7 -1.1278 -0.3797
8 38 8 -10.2437 -0.5210
8 38 9 -1.6984 -1.1265
8 38 10 -6.5508 0.4376
8 39 1 -9.3089 -1.6062
8 39 2 0.5664 -1.0318
8 39 3 2.8402 -0.6540
8 39 4 0.3518 -0.2835
8 39 5 -3.5239 -0.0772
8 39 6 2.4537 0.4888
8 39 7 -0.0526 -0.2544
8 39 8 -12.7944 1.0610
8 39 9 5.1551 0.8274
8 39 10 -11.0054 -0.1201
8 40 0 0.8104 -0.2088
8 40 1 -5.9087 0.0905
8 40 2 -5.8298 0.3347
8 40 3 0.1322 -0.8645
8 40 4 -9.2621 -0.5051
8 40 5 -2.7226 0.7615
8 40 6 1.0123 0.1089
8 40 7 4.6443 0.0417
8 40 8 0.1153 0.6359
8 40 9 11.4460 -0.3914
8 41 1 -1.9660 -1.5019
8 41 2 1.1711 0.5866
8 41 3 -7.1808 -0.8692
8 41 4 -3.5814 -2.0968
8 41 5 -8.0416 -0.1113
8 41 6 -2.0720 0.3061
8 41 7 -2.8986 -0.3985
8 41 8 -1.0879 0.2361
8 42 0 -1.8077 -3.2908
8 42 1 -1.1713 0.3164
8 42 2 11.7426 0.8488
8 42 3 3.0532 0.7700
8 42 4 -3.3940 0.8396
8 42 5 -2.5330 1.2456
8 42 6 2.9567 -0.2441
8 43 1 -12.2834 1.1521
8 43 2 0.7073 0.1944
8 43 3 -4.2777 -0.8369
8 43 4 0.1861 0.8640
8 43 5 4.7862 -0.5702
8 44 0 -6.7366 -2.5795
8 44 1 9.0006 -0.4931
8 44 2 4.3720 -0.0097
8 44 3 -2.5037 -0.8167
9 1 0 -48.0574 -5.2460
9 1 1 -51.2723 5.1978
9 1 2 -2.2910 -1.5926
9 1 3 15.2597 1.1782
9 1 4 6.5429 -2.1768
9 1 5 9.7428 -0.6999
9 1 6 12.2749 0.5811
9 1 7 -6.4451 -2.0029
9 1 8 -5.2459 1.0950
9 1 9 -1.0589 -0.3102
9 1 10 -1.1561 -0.2691
9 1 11 -1.3873 0.3619
9 1 12 0.9869 -0.9120
9 1 13 4.4961 -0.3116
9 1 14 7.9445 0.4828
9 1 15 -1.9505 -0.5829
9 1 16 -3.1268 0.0763
9 1 17 20.5211 0.2804
9 1 18 11.4926 -0.1615
9 1 19 0.3652 0.3765
9 1 20 -0.4029 0.3388
9 2 1 -39.6229 5.2882
9 2 2 -30.9704 -2.2603
9 2 3 -42.6085 2.6436
9 2 4 0.0698 -0.8991
9 2 5 -8.1887 0.7205
9 2 6 0.1001 -0.1062
9 2 7 6.2498 -1.0189
9 2 8 1.5176 0.6406
9 2 9 -1.8814 -1.2697
9 2 10 -1.3607 0.6814
9 2 11 -6.3069 0.4329
9 2 12 -6.1476 -0.1236
9 2 13 -0.0876 0.3523
9 2 14 1.8820 0.0815
9 2 15 -8.6710 0.5522
9 2 16 -6.9739 0.6555
9 2 17 -3.9304 -0.0581
9 2 18 6.5088 0.2675
9 2 19 6.9106 -0.1769
9 2 20 8.3886 0.0906
9 3 0 60.6157 3.3748
9 3 1 66.1898 7.5639
9 3 2 1.2401 0.3340
9 3 3 -14.9736 1.9766
9 3 4 -6.9692 0.8646
9 3 5 -3.7393 -1.4445
9 3 6 1.2438 0.2973
9 3 7 -8.0630 -0.9571
9 3 8 0.2558 -0.2791
9 3 9 -1.8557 -0.3708
9 3 10 1.6541 0.3239
9 3 11 8.4981 0.2434
9 3 12 -2.6965 -0.1028
9 3 13 2.8491 1.1576
9 3 14 9.4530 -0.1219
9 3 15 2.1816 -0.1100
9 3 16 -8.2203 0.3222
9 3 17 -17.1427 -0.5577
9 3 18 -8.4301 0.2729
9 3 19 12.3198 0.1385
9 3 20 2.1077 -0.2177
9 4 1 22.1736 6.1260
9 4 2 24.8202 -10.9613
9 4 3 2.7868 2.3608
9 4 4 16.6947 -1.5449
9 4 5 -2.5066 -1.3748
9 4 6 4.2988 0.9011
9 4 7 2.5661 -1.6255
9 4 8 2.5673 1.5021
9 4 9 -0.1383 -0.5114
9 4 10 -4.9822 0.1586
9 4 11 1.9797 0.3597
9 4 12 8.9439 -0.2694
9 4 13 3.9664 0.1260
9 4 14 3.6010 -0.3591
9 4 15 9.0868 -0.4247
9 4 16 3.4546 0.0215
9 4 17 -4.2520 -0.5902
9 4 18 -19.6411 0.0498
9 4 19 -11.2477 -0.1095
9 4 20 2.3975 0.7417
9 5 0 47.7324 3.1943
9 5 1 70.6620 -6.4634
9 5 2 -13.0976 -5.6503
9 5 3 -11.0152 -3.2603
9 5 4 17.9059 0.3510
9 5 5 7.2633 -1.5503
9 5 6 9.9613 0.7049
9 5 7 0.9581 0.0419
9 5 8 -0.1536 -0.1429
9 5 9 6.4937 0.4918
9 5 10 -2.5157 -1.1043
9 5 11 -4.3912 -0.4561
9 5 12 -1.3521 -0.7801
9 5 13 -6.1617 -0.4911
9 5 14 -4.9614 0.2645
9 5 15 -6.1432 -0.0925
9 5 16 2.2847 0.1585
9 5 17 2.8993 0.3868
9 5 18 -9.1725 0.4850
9 5 19 -8.5940 -0.1904
9 5 20 14.8707 -0.0301
9 6 2 47.1680 3.8761
9 6 3 -3.1789 7.1397
9 6 4 2.1095 1.8288
9 6 5 -1.0848 1.6345
9 6 6 0.2659 -0.7220
9 6 7 -4.4024 -1.3431
9 6 8 -4.5021 0.1931
9 6 9 0.6719 -1.2156
9 6 10 0.2345 0.9252
9 6 11 -4.7782 -0.2867
9 6 12 -2.8103 -0.1364
9 6 13 1.0948 0.8440
9 6 14 -6.5957 -0.4243
9 6 15 -5.8419 0.9032
9 6 16 -7.8229 -0.1229
9 6 17 -1.2829 -0.5468
9 6 18 1.8945 0.0168
9 6 19 -7.5961 -0.7975
9 7 0 -72.7861 8.3785
9 7 1 -8.6291 0.0966
9 7 2 7.8160 1.2919
9 7 3 18.9958 -1.1923
9 7 4 12.0725 0.7803
9 7 5 2.7437 -1.2992
9 7 6 3.8232 -1.4893
9 7 7 -9.4580 -0.3350
9 7 8 -1.9171 0.2218
9 7 9 -3.2867 0.1783
9 7 10 -1.3465 0.9549
9 7 11 -2.2263 1.2016
9 7 12 1.6054 0.7386
9 7 13 -0.3891 0.9202
9 7 14 10.5815 -0.3205
9 7 15 -4.2440 -0.3423
9 7 16 3.6147 -0.0431
9 7 17 2.0785 -0.5725
9 7 18 -8.7467 0.2024
9 7 19 1.7850 -0.1268
9 8 1 -7.9304 -6.9789
9 8 2 -33.3652 -1.8085
9 8 4 4.8274 -1.7830
9 8 5 0.5492 0.4101
9 8 6 11.2075 -0.0097
9 8 7 2.1341 -1.5300
9 8 8 -4.5509 0.4919
9 8 9 -1.3118 -0.2372
9 8 10 4.6468 0.5045
9 8 11 -0.9833 0.3324
9 8 12 -3.6214 -0.7031
9 8 13 6.2374 0.4745
9 8 14 0.4308 -0.8338
9 8 15 13.1622 0.0037
9 8 16 -6.9256 -0.5695
9 8 17 -2.9051 -0.1877
9 8 18 -3.8900 0.0021
9 8 19 -8.2086 -0.4006
9 9 0 27.2735 21.4350
9 9 1 34.7687 4.2507
9 9 2 5.0420 -2.2133
9 9 3 -12.3380 -1.0493
9 9 4 -13.4788 -2.6445
9 9 5 -2.5917 0.5406
9 9 6 1.9618 2.2424
9 9 7 2.3563 1.7149
9 9 8 -0.1286 1.1571
9 9 9 -0.8146 -0.0405
9 9 10 -1.3669 -0.5450
9 9 11 -1.7990 -0.6715
9 9 12 4.2375 -0.8438
9 9 13 -8.9973 -0.8201
9 9 14 5.5646 -0.1516
9 9 15 1.6292 -0.2302
9 9 16 17.2489 -0.1995
9 9 17 1.8392 0.2818
9 9 18 4.4913 0.2739
9 9 19 -7.6122 -0.2333
9 10 1 12.1314 8.3664
9 10 2 19.5682 0.1749
9 10 3 15.7092 2.3327
9 10 4 -0.1743 -0.4876
9 10 5 -7.2730 -1.9237
9 10 6 3.3161 -0.0283
9 10 7 7.3259 -0.2505
9 10 8 -0.2653 0.6923
9 10 9 1.0259 -0.2511
9 10 10 3.6359 0.4693
9 10 11 0.9492 0.7006
9 10 12 3.7277 -0.3741
9 10 13 -11.9399 0.3537
9 10 14 -3.8879 -0.6023
9 10 15 -1.8006 0.4950
9 10 16 3.5701 0.2812
9 10 17 1.6421 0.0071
9 10 18 9.9655 0.7015
9 10 19 -7.6103 0.5450
9 11 0 29.8202 -20.9134
9 11 1 18.4682 1.1648
9 11 2 5.8201 -1.7724
9 11 3 3.6057 -1.8652
9 11 4 20.7850 -0.4150
9 11 5 2.8079 0.5386
9 11 6 0.2852 -0.2019
9 11 7 6.8902 1.6783
9 11 8 1.8821 -0.3441
9 11 9 1.4139 0.3294
9 11 10 2.4568 0.7704
9 11 11 3.6336 -0.7597
9 11 12 4.2514 0.9279
9 11 13 -1.2886 -0.0344
9 11 14 -2.8554 0.0734
9 11 15 -9.7081 -0.1696
9 11 16 -6.6491 0.1028
9 11 17 7.3026 0.3272
9 11 18 -1.0951 -0.2272
9 11 19 -2.8783 0.2805
9 12 1 2.2188 -2.8630
9 12 2 28.1674 -2.7316
9 12 3 -9.9337 0.6368
9 12 4 4.9265 0.7637
9 12 5 0.1331 1.8693
9 12 6 -2.3335 -0.1890
9 12 7 0.0563 -0.4173
9 12 8 1.9136 -0.5032
9 12 9 -1.2740 -1.3786
9 12 10 5.6833 -0.2040
9 12 11 -1.5958 -0.4402
9 12 12 3.0001 0.7023
9 12 13 -0.2914 0.5910
9 12 14 -1.3100 0.4891
9 12 15 2.8864 0.6346
9 12 16 -0.4619 -0.4271
9 12 17 -9.3036 0.0099
9 12 18 -5.6312 0.0133
9 12 19 -5.9053 -0.8605
9 13 0 7.9149 11.7164
9 13 1 -8.6228 4.9639
9 13 2 -1.7918 2.4247
9 13 3 -2.9115 0.6202
9 13 4 8.3139 -2.8644
9 13 5 -1.0694 1.0536
9 13 6 -1.7062 -0.9201
9 13 7 0.4039 0.3707
9 13 8 -4.0208 0.4804
9 13 9 2.7343 -0.3169
9 13 10 -0.0758 0.1245
9 13 11 1.1966 -0.6579
9 13 12 2.8127 -0.1965
9 13 13 -3.6104 -0.6160
9 13 14 2.1528 0.0890
9 13 15 -5.8732 -0.1675
9 13 16 5.5067 -0.3413
9 13 17 -0.0750 0.2266
9 13 18 0.7190 -0.0348
9 13 19 -16.6454 0.1530
9 14 1 -5.8776 -1.6267
9 14 2 6.4505 0.1979
9 14 3 -3.1127 -2.5215
9 14 4 0.5674 -0.7887
9 14 5 5.5522 0.0573
9 14 6 0.7368 -1.2204
9 14 7 -0.9718 -0.6811
9 14 8 -1.9028 1.3677
9 14 9 -6.5010 0.1435
9 14 10 1.5732 0.6622
9 14 11 -6.6387 0.6282
9 14 12 2.1833 -0.5341
9 14 13 2.9883 -0.3185
9 14 14 -6.8089 -0.3878
9 14 15 6.2513 -0.5488
9 14 16 -5.7319 0.1839
9 14 17 -8.2128 0.1654
9 14 18 2.6252 0.0711
9 15 0 15.4173 -4.7352
9 15 1 5.6765 1.7477
9 15 2 -2.9433 1.1167
9 15 3 -7.1435 -2.6084
9 15 4 3.0322 -0.7788
9 15 5 -6.1519 -1.8787
9 15 6 -2.6811 -0.7334
9 15 7 0.8513 0.4682
9 15 8 1.6536 -0.3747
9 15 9 -0.5352 0.1334
9 15 10 -2.5903 -0.2481
9 15 11 2.2120 -0.4997
9 15 12 -1.8023 0.4235
9 15 13 -0.0722 -0.3422
9 15 14 -2.7953 0.0291
9 15 15 15.1893 0.3642
9 15 16 8.9409 -0.0199
9 15 17 -2.7501 0.4046
9 15 18 -4.9238 0.0415
9 16 1 -1.7275 -5.0948
9 16 2 2.1654 2.6260
9 16 3 -7.2884 -1.7859
9 16 4 1.3838 0.5080
9 16 5 1.7879 0.3873
9 16 6 -0.5848 0.0886
9 16 7 -0.0284 1.2168
9 16 8 -1.2615 -0.5377
9 16 9 2.9978 0.1889
9 16 10 1.1352 -0.0305
9 16 11 4.0416 -0.5555
9 16 12 5.0236 0.0248
9 16 13 -1.0975 -0.1433
9 16 14 -11.4676 -0.1035
9 16 15 -3.8174 0.1326
9 16 16 13.7987 -0.1523
9 16 17 -1.8244 0.1706
9 16 18 0.3879 0.4258
9 17 1 8.0388 -1.1065
9 17 2 3.5744 2.8151
9 17 3 3.5774 1.6602
9 17 4 -2.3629 -1.1586
9 17 5 -3.6692 0.2812
9 17 6 4.1221 -0.3680
9 17 7 3.0735 0.3515
9 17 8 7.6745 1.0348
9 17 9 -7.4641 0.3963
9 17 10 -1.0522 -0.8173
9 17 11 -2.3911 0.0754
9 17 12 -3.5685 -0.8643
9 17 13 8.2379 -0.1476
9 17 14 -3.4584 -0.2560
9 17 15 2.0801 0.3267
9 17 16 -8.6194 0.0193
9 17 17 3.1374 -0.1669
9 17 18 11.5545 0.4314
9 18 1 7.0321 -2.0236
9 18 2 13.6642 2.3594
9 18 3 2.5570 -0.8169
9 18 4 6.7970 0.3642
9 18 5 5.4781 0.8676
9 18 6 -6.5666 0.8743
9 18 7 1.9166 0.6376
9 18 8 1.4989 -0.0277
9 18 9 -1.3985 0.2985
9 18 10 -2.6894 -0.3660
9 18 11 -5.7151 0.1114
9 18 12 0.4069 -0.4479
9 18 13 -4.3095 -0.3195
9 18 14 4.7096 0.0198
9 18 15 3.7358 -0.5497
9 18 16 -13.4603 0.1106
9 18 17 6.9676 -0.0767
9 18 18 -7.4191 0.0151
9 19 0 -0.0983 -21.6837
9 19 1 -10.3868 -0.7327
9 19 2 2.4223 1.6496
9 19 3 -1.2945 0.9011
9 19 4 2.3666 -0.0326
9 19 5 -2.0995 -1.0340
9 19 6 -3.0395 -0.5033
9 19 7 -1.0641 -0.4573
9 19 8 2.6942 0.0557
9 19 9 2.6556 1.3415
9 19 10 1.4087 -0.7212
9 19 11 5.6121 0.4613
9 19 12 -6.8363 -0.3136
9 19 13 2.9809 0.4524
9 19 14 11.8977 0.4873
9 19 15 1.4119 0.1257
9 19 16 -11.3047 0.5054
9 19 17 -3.2111 -0.0957
9 19 18 0.8195 -0.4278
9 20 1 -3.3052 -9.4674
9 20 2 -1.8153 1.5994
9 20 3 -3.5308 -1.5700
9 20 4 0.8788 0.8260
9 20 5 0.1277 0.8399
9 20 6 -2.3119 -0.4240
9 20 7 0.2316 0.1029
9 20 8 -8.0157 -0.5635
9 20 9 -5.1559 0.7657
9 20 10 -2.8335 0.2261
9 20 11 3.8644 -0.3581
9 20 12 2.0254 0.3496
9 20 13 -12.4561 -0.2734
9 20 14 4.6274 0.0642
9 20 15 -5.9919 0.2626
9 20 16 1.2950 -0.2958
9 20 17 1.3447 0.0217
9 21 0 8.2664 4.6978
9 21 1 5.1229 4.5353
9 21 2 5.1442 1.2970
9 21 3 -0.9296 3.3568
9 21 4 -1.8362 0.9152
9 21 5 0.3799 -0.8596
9 21 6 1.7337 0.9420
9 21 7 1.2011 -0.7537
9 21 8 0.5750 -0.1131
9 21 9 -1.8971 0.5746
9 21 10 -10.9127 0.5702
9 21 11 1.2724 0.6007
9 21 12 -4.0771 -0.3622
9 21 13 7.1878 0.3290
9 21 14 -8.5958 0.0575
9 21 15 -3.1459 0.0385
9 21 16 -19.2859 0.0515
9 21 17 -4.1465 -0.3986
9 22 1 1.5366 2.3909
9 22 2 0.5300 -1.5441
9 22 3 1.2964 -3.2980
9 22 4 0.5196 0.9895
9 22 5 -7.4925 -2.0289
9 22 6 -0.8350 -0.3522
9 22 7 5.6117 0.5847
9 22 8 -4.6692 0.0735
9 22 9 -0.4007 0.1810
9 22 10 -2.0425 0.1719
9 22 11 -1.8033 -0.2531
9 22 12 0.9527 0.0164
9 22 13 -0.6181 0.2509
9 22 14 -8.6396 -0.8796
9 22 15 7.2010 0.3840
9 22 16 5.8807 0.9382
9 22 17 -3.9000 -0.4570
9 23 0 7.6557 -19.9378
9 23 1 1.0335 -1.7911
9 23 2 5.1752 0.3513
9 23 3 1.0153 -0.6693
9 23 4 -2.1440 1.8525
9 23 5 0.3226 -1.3787
9 23 6 1.3445 1.1644
9 23 7 3.8291 -0.5903
9 23 8 -1.7755 0.7412
9 23 9 8.7489 -0.7166
9 23 10 -5.7064 -0.5304
9 23 11 3.9981 0.1773
9 23 12 4.3299 -0.8719
9 23 13 13.6344 0.9379
9 23 14 5.5889 0.5185
9 23 15 -2.7087 -0.2878
9 23 16 12.4780 0.3433
9 23 17 15.4588 -1.1305
9 24 1 3.7627 -3.0758
9 24 2 0.3857 0.7447
9 24 3 7.4964 0.2787
9 24 4 7.1736 1.3242
9 24 5 -5.5974 0.1731
9 24 6 -0.5477 0.7496
9 24 7 5.4783 -0.8260
9 24 8 -2.4331 0.1416
9 24 9 -2.7878 0.3607
9 24 10 -3.6997 -0.8143
9 24 11 0.9402 0.3824
9 24 12 5.8604 -0.2546
9 24 13 0.5663 0.3232
9 24 14 -2.4649 0.8508
9 24 15 2.5194 0.2883
9 24 16 7.6062 -0.7979
9 25 0 -3.8021 3.6009
9 25 1 -2.2138 6.6385
9 25 2 -1.1897 -1.3482
9 25 3 0.0054 1.0215
9 25 4 -2.1771 1.5321
9 25 5 7.6150 -3.0012
9 25 6 -5.7505 2.0823
9 25 7 -4.1461 -1.9107
9 25 8 -2.3279 0.0755
9 25 9 0.4302 0.1941
9 25 10 -8.5652 -1.0011
9 25 11 0.3620 0.7437
9 25 12 -4.1784 -0.2168
9 25 13 6.6340 -0.1613
9 25 14 -5.1398 0.5776
9 25 15 -5.5727 0.5573
9 25 16 -14.8675 -0.5218
9 26 1 -1.0266 4.8871
9 26 2 -1.3484 2.4179
9 26 3 -1.6703 -0.9015
9 26 4 -4.6992 0.6906
9 26 5 2.3209 -0.1496
9 26 6 -0.8454 -0.7285
9 26 7 1.5760 0.7632
9 26 8 -3.2757 -0.7318
9 26 9 -5.9272 -0.3673
9 26 10 -8.1933 0.3092
9 26 11 0.7091 -0.5048
9 26 12 2.8935 -0.5967
9 26 13 4.4804 0.2425
9 26 14 -1.2640 -0.3048
9 26 15 1.3956 0.3130
9 26 16 3.0498 -0.4444
9 27 0 8.8126 -11.7913
9 27 1 8.5940 5.2331
9 27 2 4.3499 -0.1278
9 27 3 1.0861 -0.6867
9 27 4 -3.9359 1.6443
9 27 5 -1.3634 -0.9917
9 27 6 1.0967 0.4590
9 27 7 -0.9306 -1.4866
9 27 8 -5.6014 -0.0861
9 27 9 3.0551 -0.9707
9 27 10 -5.4576 0.0946
9 27 11 -1.8512 0.4232
9 27 12 -3.0330 -0.1101
9 27 13 -7.5659 1.0770
9 27 14 8.0685 -0.1398
9 27 15 -5.5102 -0.5173
9 28 1 6.2736 5.1318
9 28 2 1.4857 -1.8996
9 28 3 5.0682 1.0865
9 28 4 0.0977 -1.5372
9 28 5 -0.7544 -0.8628
9 28 6 2.0694 0.6477
9 28 7 2.9086 -0.2642
9 28 8 1.8284 -0.0600
9 28 9 -0.1274 -0.1433
9 28 10 -2.5082 0.4560
9 28 11 1.2337 0.4720
9 28 12 6.7570 0.2500
9 28 13 -11.1838 0.2818
9 28 14 -6.6426 0.5881
9 28 15 -14.4083 0.3892
9 29 0 -11.0524 -13.2391
9 29 1 1.6744 3.0508
9 29 2 -2.7803 -2.2437
9 29 3 -1.7124 -1.5773
9 29 4 -1.3338 1.6727
9 29 5 11.5092 -0.5843
9 29 6 -2.9364 2.0593
9 29 7 6.9388 0.6562
9 29 8 -9.0272 0.4653
9 29 9 -1.7000 0.3114
9 29 10 -4.5610 -0.8050
9 29 11 -4.2492 0.2808
9 29 12 3.6012 -0.5599
9 29 13 9.8055 -0.0269
9 29 14 21.0368 -0.0412
9 29 15 -1.2752 -0.5730
9 30 1 -4.3673 3.5092
9 30 2 -0.3125 0.5454
9 30 3 0.3224 -0.1029
9 30 4 -1.8058 0.2940
9 30 5 -3.6677 0.8203
9 30 6 3.3559 -0.0690
9 30 7 6.1274 0.3436
9 30 8 -1.1275 0.2240
9 30 9 -4.2191 -0.2310
9 30 10 -15.0592 -0.2242
9 30 11 -1.7769 -0.5233
9 30 12 -6.5052 0.4358
9 30 13 -4.4029 -0.2240
9 30 14 6.0896 0.1380
9 31 0 6.5498 -0.4253
9 31 1 4.0990 -1.0655
9 31 2 -0.7166 -1.3849
9 31 3 -2.7833 1.6560
9 31 4 -0.4309 -0.3177
9 31 5 2.1951 -0.6375
9 31 6 -4.5050 0.3589
9 31 7 -4.5842 -0.8691
9 31 8 5.6440 -0.3462
9 31 9 0.8296 -0.4779
9 31 10 -6.3258 -0.4655
9 31 11 -7.3119 0.6575
9 31 12 -2.9069 0.0830
9 31 13 -0.3485 1.7267
9 31 14 9.2281 0.8798
9 32 1 7.1535 4.2610
9 32 2 0.1160 -1.4754
9 32 3 2.5787 0.2791
9 32 4 -7.7523 0.0688
9 32 5 -3.9088 -0.4058
9 32 6 1.5631 -0.0362
9 32 7 -8.2559 -0.9644
9 32 8 2.0305 0.4226
9 32 9 0.2667 -0.4139
9 32 10 -0.6965 -0.0560
9 32 11 -2.6345 0.4704
9 32 12 -1.5401 0.6789
9 32 13 -3.3017 0.2526
9 32 14 6.2058 0.9333
9 33 0 -7.7209 2.7052
9 33 1 5.2076 5.3797
9 33 2 0.5682 1.1674
9 33 3 2.1757 -0.2235
9 33 4 -7.7402 1.1787
9 33 5 4.4940 -0.2996
9 33 6 1.2833 0.2674
9 33 7 1.6048 0.8517
9 33 8 -0.9768 0.6708
9 33 9 3.2015 0.5243
9 33 10 11.9417 0.4589
9 33 11 -0.8237 0.3470
9 33 12 1.8363 -0.3115
9 33 13 -1.5698 -0.4443
9 34 1 -3.4571 -2.0486
9 34 2 5.8182 1.1650
9 34 3 1.4265 -2.2712
9 34 4 -5.2993 -1.0225
9 34 5 -2.2906 -0.5207
9 34 6 7.9190 -0.5443
9 34 7 3.9497 0.4639
9 34 8 1.6232 0.4500
9 34 9 5.1727 -0.2056
9 34 10 2.1852 -0.2120
9 34 11 -0.1005 0.3910
9 34 12 4.1622 -0.0127
9 34 13 -3.9332 -0.4278
9 35 0 2.6368 -3.7843
9 35 1 2.1355 -1.6864
9 35 2 -1.7409 -0.9968
9 35 3 3.2535 -0.5745
9 35 4 0.2414 -0.4280
9 35 5 2.1850 0.9123
9 35 6 0.2930 -0.9069
9 35 7 6.6984 0.3758
9 35 8 -3.2749 -0.2747
9 35 9 -11.8811 -0.0582
9 35 10 6.8499 -0.3725
9 35 11 -2.1840 -0.3776
9 35 12 -8.7205 -0.6410
9 36 1 3.6872 -0.9625
9 36 2 2.7836 0.7223
9 36 3 -2.5710 0.7748
9 36 4 -0.1721 0.3089
9 36 5 -1.0425 0.0392
9 36 6 0.4618 0.9254
9 36 7 -3.6710 0.4206
9 36 8 5.7160 0.2326
9 36 9 -10.2060 0.5318
9 36 10 -0.4017 -0.1917
9 36 11 -5.9586 0.8972
9 37 0 -14.4585 1.8524
9 37 1 2.9783 2.4478
9 37 2 -0.2050 -0.1667
9 37 3 -2.6686 -0.7632
9 37 4 3.6883 -0.3860
9 37 5 3.7192 -0.1271
9 37 6 3.1579 -0.2101
9 37 7 -0.0878 -0.0546
9 37 8 4.6695 -0.6711
9 37 9 -0.5885 0.9615
9 37 10 -4.0776 0.0997
9 37 11 -4.3765 -0.5657
9 38 1 -5.0964 -1.5990
9 38 2 5.0119 1.4463
9 38 3 3.2663 -0.8917
9 38 4 -12.1918 0.1686
9 38 5 -4.5629 0.1126
9 38 6 -0.2649 0.2931
9 38 7 -1.7432 0.5112
9 38 8 0.1630 0.3156
9 38 9 2.6908 -0.1696
9 38 10 12.0734 0.0598
9 39 0 4.7093 3.6926
9 39 1 -7.3766 -1.4530
9 39 2 -6.7857 2.0958
9 39 3 6.7150 1.1790
9 39 4 -2.0823 -1.5759
9 39 5 -5.6905 0.5146
9 39 6 -5.1982 -0.6015
9 39 7 -0.4850 -0.0046
9 39 8 2.8799 -0.2037
9 39 9 2.2334 1.2709
9 40 1 1.9677 -1.7936
9 40 2 -2.5632 -0.5582
9 40 3 -0.7655 0.0016
9 40 4 0.2307 -0.2627
9 40 5 -6.7727 -0.2792
9 40 6 -7.3216 0.4036
9 40 7 2.0258 -0.8331
9 40 8 -5.9114 0.0471
9 41 0 -0.2904 2.7768
9 41 1 -6.3654 -1.7772
9 41 2 5.2223 0.2670
9 41 3 1.1070 -0.6202
9 41 4 1.1519 -1.0168
9 41 5 1.5668 -0.1188
9 41 6 -3.5406 0.1189
9 41 7 -6.7256 0.8615
9 42 1 -14.9040 0.0440
9 42 2 -5.6457 -0.5245
9 42 3 2.9428 -1.9229
9 42 4 -2.7722 0.4602
9 42 5 -0.5202 0.8636
9 42 6 -2.1461 1.1812
9 43 0 17.0979 -0.9718
9 43 1 -4.2819 -2.3147
9 43 2 -4.2051 1.0746
9 43 3 3.3988 -1.0424
9 43 4 -0.0311 -1.9071
9 44 1 -2.7710 1.1743
9 44 2 9.2439 0.2957
9 44 3 2.4467 -0.7520
10 1 1 -5.9858 11.8431
10 1 2 -26.5891 0.2116
10 1 3 -23.0990 6.3078
10 1 4 7.3820 -0.5804
10 1 5 -6.9260 0.1430
10 1 6 8.7010 -1.1205
10 1 7 7.7219 -0.4843
10 1 8 -8.9557 -0.2738
10 1 9 -0.3593 -0.5270
10 1 10 4.9703 0.1556
10 1 11 3.8011 -0.5677
10 1 12 5.3145 -0.2400
10 1 13 -4.6827 -0.0249
10 1 14 1.8207 -0.3625
10 1 15 4.7241 -0.0704
10 1 16 -10.1823 -0.2241
10 1 17 -18.2763 -0.2036
10 1 18 -18.0824 0.2771
10 1 19 -2.2025 -0.3248
10 1 20 -8.2335 0.0495
10 2 0 47.9463 -4.5074
10 2 1 6.7787 -1.8386
10 2 2 38.0939 2.7324
10 2 3 -8.8327 -0.7319
10 2 4 -19.8705 1.0598
10 2 5 -5.8585 1.3917
10 2 6 3.1614 -1.4818
10 2 7 4.5224 -0.2153
10 2 8 5.1741 0.2518
10 2 9 -2.9774 -0.4267
10 2 10 -0.9206 1.0546
10 2 11 -0.9975 0.0914
10 2 12 0.8637 0.2871
10 2 13 5.6596 0.0243
10 2 14 7.4002 -0.4435
10 2 15 -4.3124 -0.0486
10 2 16 9.3285 -0.5198
10 2 17 7.4608 -0.0205
10 2 18 -0.5603 -0.0709
10 2 19 -4.9533 -0.3822
10 2 20 -6.5539 0.3229
10 3 1 22.1833 0.7888
10 3 2 24.7252 -6.8736
10 3 3 14.2675 -0.1391
10 3 4 7.6383 -3.0811
10 3 5 -16.8411 0.5897
10 3 6 5.0735 0.8578
10 3 7 0.8985 0.9143
10 3 8 -3.3308 0.1860
10 3 9 1.7845 0.4098
10 3 10 -6.1955 0.0027
10 3 11 0.0653 0.6009
10 3 12 5.6636 0.1722
10 3 13 0.1052 -0.3343
10 3 14 1.5461 0.2361
10 3 15 1.9195 0.0445
10 3 16 -5.3957 0.0305
10 3 17 3.8877 0.1266
10 3 18 -3.2513 0.4435
10 3 19 3.1755 0.2740
10 3 20 -0.4579 0.2847
10 4 0 22.1898 -17.6434
10 4 1 18.5721 -14.6086
10 4 2 23.2159 -2.9007
10 4 3 7.6053 -1.0033
10 4 4 8.7028 -0.3596
10 4 5 6.6484 3.3999
10 4 6 -0.3418 0.0004
10 4 7 3.3906 1.3464
10 4 8 -1.2545 -0.2686
10 4 9 0.3378 0.7108
10 4 10 0.1127 -0.3937
10 4 11 -4.5327 -1.0772
10 4 12 -4.4425 0.3110
10 4 13 4.3048 -0.3049
10 4 14 5.3218 0.2336
10 4 15 -0.0680 0.8934
10 4 16 -9.1478 -0.0393
10 4 17 -2.5613 0.8348
10 4 18 -8.6788 0.0186
10 4 19 2.2037 -0.6566
10 4 20 -3.5258 0.2876
10 5 1 10.0763 5.7041
10 5 2 24.5290 0.5106
10 5 3 -6.6182 2.4115
10 5 4 6.1594 0.1865
10 5 5 -9.4978 0.8660
10 5 6 -0.5498 -1.9122
10 5 7 6.3320 -1.2706
10 5 8 -3.1428 -0.7931
10 5 9 0.2556 -0.8360
10 5 10 2.3279 1.0231
10 5 11 -3.1518 0.0196
10 5 12 -2.4887 0.0053
10 5 13 -7.8230 0.3774
10 5 14 1.4328 -0.0223
10 5 15 -3.9147 0.2198
10 5 16 4.1307 0.0038
10 5 17 -3.4924 -0.4576
10 5 18 0.4290 -0.1347
10 5 19 -8.1650 -0.2698
10 6 0 5.7389 8.6810
10 6 1 0.0459 4.4269
10 6 2 0.6951 1.4984
10 6 3 -6.3412 1.4651
10 6 4 6.1712 0.4059
10 6 5 -6.1508 0.8502
10 6 6 -2.1301 -1.8047
10 6 7 1.0767 0.1816
10 6 8 1.1933 -2.2876
10 6 9 -0.0803 -0.7660
10 6 10 0.4729 0.9784
10 6 11 1.5588 0.0222
10 6 12 -1.7163 0.2743
10 6 13 0.9880 0.7416
10 6 14 -0.5248 -0.4353
10 6 15 4.0095 -0.0297
10 6 16 0.8965 -0.2816
10 6 17 -7.9783 -0.6422
10 6 18 0.6858 -0.2846
10 6 19 12.8239 -0.1220
10 7 1 3.1535 7.0968
10 7 2 7.1808 -1.0473
10 7 3 -3.8373 -0.7825
10 7 4 -1.5713 -0.5149
10 7 5 2.1319 -3.1822
10 7 6 7.3741 -0.2924
10 7 7 -7.2266 -0.4857
10 7 8 -0.3996 0.7850
10 7 9 6.3533 0.9168
10 7 10 -4.0935 0.1894
10 7 11 -2.1446 0.7852
10 7 12 5.6437 0.5666
10 7 13 4.8574 0.1173
10 7 14 -4.4655 0.2809
10 7 15 -3.4295 0.0633
10 7 16 0.2563 -0.2289
10 7 17 0.2376 -0.1437
10 7 18 -1.3268 -0.0125
10 7 19 3.9177 -0.0184
10 8 0 38.7499 1.7587
10 8 1 21.0504 -6.5085
10 8 2 1.4929 -1.2774
10 8 3 -0.6882 0.5670
10 8 4 1.4515 -0.8062
10 8 5 -1.7921 1.8431
10 8 6 -0.6490 -0.5443
10 8 7 2.5003 1.1933
10 8 8 -4.5103 0.7134
10 8 9 -3.2676 -0.0915
10 8 10 0.1982 -0.4514
10 8 11 -1.4728 -0.5085
10 8 12 -3.5885 -0.5489
10 8 13 10.6468 -0.5544
10 8 14 3.0956 -0.1498
10 8 15 3.6345 0.4648
10 8 16 1.3640 0.0302
10 8 17 -5.9356 0.9127
10 8 18 8.0095 0.1612
10 8 19 12.3806 0.1333
10 9 1 20.3337 0.0965
10 9 2 13.0531 4.1711
10 9 3 14.7927 -1.1954
10 9 4 -7.3414 1.4450
10 9 5 -1.6270 -1.6043
10 9 6 6.3820 0.1163
10 9 7 1.4704 -0.3032
10 9 8 -0.9400 0.5526
10 9 9 1.2672 0.4924
10 9 10 3.3634 -0.6947
10 9 11 -1.0693 0.4940
10 9 12 7.1036 -0.8178
10 9 13 -3.9788 -0.1378
10 9 14 6.9185 -0.0092
10 9 15 -11.8145 -0.5162
10 9 16 5.7301 -0.5675
10 9 17 3.0917 0.1400
10 9 18 -2.3909 -0.2338
10 9 19 4.4088 0.4380
10 10 0 35.8272 2.1148
10 10 1 3.9814 4.8492
10 10 2 -3.8780 -0.5689
10 10 3 13.4717 1.4074
10 10 4 13.5360 0.4704
10 10 5 2.4185 0.4057
10 10 6 4.2954 -0.2439
10 10 7 6.9440 -0.1693
10 10 8 8.5450 -0.8329
10 10 9 -6.4334 -1.1449
10 10 10 -8.1672 0.1124
10 10 11 1.9724 -0.4215
10 10 12 0.0372 0.9287
10 10 13 3.4674 0.0336
10 10 14 -1.0753 -0.3953
10 10 15 -0.9749 0.6159
10 10 16 -16.9204 -0.3107
10 10 17 -4.6135 0.0134
10 10 18 4.6443 -0.2347
10 10 19 7.7935 -0.3470
10 11 1 20.3313 5.7899
10 11 2 11.8829 4.4394
10 11 3 0.1589 -0.5242
10 11 4 -2.8828 1.0383
10 11 5 4.6574 -3.4716
10 11 6 -2.1197 0.0253
10 11 7 0.2400 0.6658
10 11 8 10.9297 0.6798
10 11 9 4.4439 0.7960
10 11 10 -1.2905 0.2229
10 11 11 -3.7988 0.1007
10 11 12 -3.3605 -0.4651
10 11 13 -0.1948 -0.0515
10 11 14 1.5175 -0.2571
10 11 15 1.9717 -0.2558
10 11 16 -4.7633 -0.0586
10 11 17 -0.4750 -0.2978
10 11 18 -1.1696 -0.0071
10 11 19 8.3794 -0.2629
10 12 0 21.9279 -23.1860
10 12 1 -23.8934 0.4266
10 12 2 -2.3506 -1.1228
10 12 3 6.1205 -1.4866
10 12 4 -2.1939 0.2755
10 12 5 -5.0847 2.1514
10 12 6 -2.4542 0.4440
10 12 7 0.7372 0.6311
10 12 8 0.0036 0.6713
10 12 9 0.0273 -0.2183
10 12 10 8.5240 0.2086
10 12 11 2.2118 -0.4975
10 12 12 -0.9315 0.4307
10 12 13 3.9777 -0.3189
10 12 14 1.0471 0.1937
10 12 15 -4.9246 0.2425
10 12 16 -0.2345 0.1779
10 12 17 -2.4956 0.4629
10 12 18 4.2531 -0.1251
10 12 19 -4.4675 0.4959
10 13 1 5.4731 -3.5715
10 13 2 -7.2721 9.0927
10 13 3 -3.8670 3.1039
10 13 4 -5.2526 0.5162
10 13 5 2.4075 0.5031
10 13 6 -6.6285 -1.5444
10 13 7 -2.8218 -1.3929
10 13 8 0.7195 -0.2154
10 13 9 -4.5894 -0.4912
10 13 10 1.7695 0.2673
10 13 11 -1.4301 -0.0587
10 13 12 2.1825 0.2042
10 13 13 0.1358 -0.2726
10 13 14 -0.6002 0.1391
10 13 15 -7.3015 0.0634
10 13 16 -10.7265 -0.2967
10 13 17 5.3923 -0.3185
10 13 18 1.7471 -0.3440
10 14 0 35.1481 13.7879
10 14 1 11.2985 7.6003
10 14 2 3.9331 -1.5400
10 14 3 4.8453 3.5282
10 14 4 -5.2738 -2.5587
10 14 5 -2.5241 -0.2619
10 14 6 0.2463 -0.8189
10 14 7 -0.9581 -1.8625
10 14 8 -0.1131 0.6894
10 14 9 -2.2505 -0.0078
10 14 10 -2.3089 0.4769
10 14 11 5.7178 0.2691
10 14 12 -1.4462 0.6938
10 14 13 9.9984 0.0553
10 14 14 0.6037 -0.1355
10 14 15 3.8809 -0.2000
10 14 16 -7.6008 -1.0542
10 14 17 2.3962 -0.6189
10 14 18 11.1855 -0.3864
10 15 1 13.2739 -0.8066
10 15 2 9.9885 -6.0572
10 15 3 12.5756 -1.6123
10 15 4 3.2370 -1.4273
10 15 5 0.7254 -1.2950
10 15 6 -0.7777 0.5272
10 15 7 1.0477 -0.4639
10 15 8 1.8309 1.5373
10 15 9 9.3888 1.5782
10 15 10 0.9489 0.9400
10 15 11 3.3044 -0.0801
10 15 12 -3.4559 0.3812
10 15 13 -0.8823 -0.5924
10 15 14 0.2115 -0.3317
10 15 15 -5.5171 -0.0484
10 15 16 0.8450 0.4378
10 15 17 -0.7885 -0.0399
10 15 18 -17.4021 0.1741
10 16 0 8.7807 -4.7859
10 16 1 0.9258 -8.2618
10 16 2 -1.1039 -3.3388
10 16 3 1.6579 -1.4135
10 16 4 5.6292 -0.3547
10 16 5 6.2177 -1.0595
10 16 6 1.7398 0.3781
10 16 7 -2.5968 0.3276
10 16 8 3.5902 0.5700
10 16 9 -3.2921 0.7777
10 16 10 -2.4773 0.1013
10 16 11 9.3703 -0.2418
10 16 12 3.9710 -0.0723
10 16 13 -2.4233 -0.3603
10 16 14 -3.2018 0.5690
10 16 15 -2.6787 0.0036
10 16 16 -0.9771 0.4089
10 16 17 -2.4180 0.6094
10 16 18 1.5341 0.3592
10 17 1 11.1443 -4.6136
10 17 2 -2.3044 -3.2941
10 17 3 3.7268 1.8398
10 17 4 -1.9420 1.0964
10 17 5 1.2740 2.1084
10 17 6 0.6594 -0.6708
10 17 7 -4.1535 -1.3886
10 17 8 -0.2353 -0.4985
10 17 9 0.2695 -0.4387
10 17 10 -3.7350 0.5379
10 17 11 -8.3138 -0.4430
10 17 12 6.3712 -0.1964
10 17 13 3.0782 -0.0296
10 17 14 -2.4013 -0.1129
10 17 15 3.2574 0.1988
10 17 16 -2.7039 0.3328
10 17 17 0.0088 0.4085
10 17 18 -2.1833 0.1105
10 18 0 -0.4142 14.6016
10 18 1 -1.6091 5.3706
10 18 2 0.9436 2.8754
10 18 3 3.8887 0.4052
10 18 4 -5.3241 2.3686
10 18 5 1.0515 -0.1726
10 18 6 -1.5820 0.5306
10 18 7 -0.5746 0.0047
10 18 8 -5.1714 -1.8827
10 18 9 2.3332 -0.4113
10 18 10 0.2496 0.2039
10 18 11 -6.5306 -0.0232
10 18 12 4.7480 0.2621
10 18 13 2.2344 -0.2885
10 18 14 2.6955 -0.4791
10 18 15 7.9558 -0.2309
10 18 16 -5.6906 -0.0574
10 18 17 -8.4042 -0.5399
10 18 18 6.2309 -0.0657
10 19 1 2.3359 -5.1665
10 19 2 -7.4288 -1.8261
10 19 3 8.2755 2.8106
10 19 4 -3.1308 -1.7974
10 19 5 2.1212 1.9999
10 19 6 -5.9436 -0.4945
10 19 7 2.1502 -0.3668
10 19 8 -2.6733 -0.5525
10 19 9 1.7175 -0.7498
10 19 10 3.0099 0.4958
10 19 11 2.3385 -0.0422
10 19 12 -6.9137 0.1266
10 19 13 -9.7136 0.2899
10 19 14 4.1408 -0.2926
10 19 15 0.0468 0.6333
10 19 16 0.2089 -0.1607
10 19 17 -6.7422 0.6518
10 20 0 4.6678 12.1834
10 20 1 8.7201 -2.4581
10 20 2 2.1184 -2.5848
10 20 3 -0.4682 -1.1208
10 20 4 1.7857 -2.0775
10 20 5 5.4528 -1.5102
10 20 6 -3.4103 0.3421
10 20 7 -1.2269 -0.4127
10 20 8 -0.9238 0.1467
10 20 9 -7.2797 0.5187
10 20 10 -1.5154 -0.4803
10 20 11 9.4173 0.3579
10 20 12 10.3130 0.2619
10 20 13 -3.2123 0.0532
10 20 14 -15.1274 0.3120
10 20 15 5.2215 -0.2085
10 20 16 -7.4124 -0.0548
10 20 17 -6.1360 0.1167
10 21 1 1.4591 1.1970
10 21 2 1.0275 -2.8630
10 21 3 5.9582 3.7434
10 21 4 -1.8862 -0.4227
10 21 5 -0.4223 1.4960
10 21 6 -1.5031 -0.4373
10 21 7 -3.0896 0.3733
10 21 8 -2.5438 0.6182
10 21 9 -4.4945 -0.3794
10 21 10 -7.6192 0.6854
10 21 11 -14.9179 -0.0123
10 21 12 10.9484 -0.9205
10 21 13 -2.8313 -0.3031
10 21 14 1.3148 -0.7630
10 21 15 -6.5093 0.0219
10 21 16 -7.7901 0.0837
10 21 17 -0.6815 0.6360
10 22 0 -2.1401 2.3101
10 22 1 0.4638 4.4662
10 22 2 -0.1446 1.6378
10 22 3 -5.3803 -1.6253
10 22 4 3.2390 1.3090
10 22 5 3.1978 -0.1550
10 22 6 -4.3796 -0.3991
10 22 7 6.5467 0.3681
10 22 8 -0.0156 -0.3082
10 22 9 5.1494 0.6007
10 22 10 -4.6827 0.3573
10 22 11 2.2506 -0.1497
10 22 12 -0.3151 -0.0473
10 22 13 14.4013 -0.3288
10 22 14 2.6225 0.0638
10 22 15 -10.0138 -0.4477
10 22 16 11.5392 0.6416
10 22 17 -13.8327 -0.0332
10 23 1 1.6012 1.3164
10 23 2 -2.1345 -5.3060
10 23 3 3.3795 2.4334
10 23 4 1.9518 0.3963
10 23 5 0.2829 1.7520
10 23 6 4.6187 1.0407
10 23 7 3.6301 0.3582
10 23 8 1.4622 0.3987
10 23 9 4.9014 -1.4239
10 23 10 0.6588 -0.5380
10 23 11 -2.4279 -0.6728
10 23 12 -0.1351 -0.1982
10 23 13 15.0958 0.4090
10 23 14 11.0790 -0.5563
10 23 15 6.5256 0.6881
10 23 16 -3.9010 0.3613
10 24 0 0.1413 -10.1214
10 24 1 2.5463 -4.2272
10 24 2 3.9427 2.9009
10 24 3 -2.0131 -1.4833
10 24 4 3.2339 0.3324
10 24 5 -1.4828 0.8084
10 24 6 -6.8695 0.9089
10 24 7 -1.2736 0.6993
10 24 8 3.5882 0.7082
10 24 9 -6.5327 -0.0109
10 24 10 -1.0340 -0.1589
10 24 11 -2.5593 -0.1361
10 24 12 -4.5539 -0.7150
10 24 13 10.4106 -0.3594
10 24 14 -1.5975 0.5184
10 24 15 3.7594 0.1455
10 24 16 1.1223 -0.3363
10 25 1 1.1630 -0.2074
10 25 2 -2.6055 -1.7284
10 25 3 3.2538 3.7021
10 25 4 -2.5995 -1.0419
10 25 5 0.7371 -0.0012
10 25 6 -4.1288 -0.6447
10 25 7 -3.8912 -1.2818
10 25 8 2.4210 0.8364
10 25 9 -5.5480 -0.4210
10 25 10 -5.2143 0.0028
10 25 11 -7.1280 0.5132
10 25 12 -4.0051 0.0223
10 25 13 -3.4567 0.6516
10 25 14 -2.9525 0.1773
10 25 15 4.7474 0.8445
10 25 16 4.9159 0.2929
10 26 0 10.9838 -1.4550
10 26 1 2.6218 1.6384
10 26 2 3.8592 0.0344
10 26 3 1.8702 0.8937
10 26 4 0.9743 0.7198
10 26 5 -0.8423 -1.5079
10 26 6 -1.6011 -0.1180
10 26 7 -5.8617 -0.2951
10 26 8 -0.9074 0.0629
10 26 9 7.6076 -0.0824
10 26 10 -2.7696 -0.0457
10 26 11 0.1743 0.4142
10 26 12 6.0589 0.4514
10 26 13 0.7278 -0.5347
10 26 14 -11.6175 -0.3359
10 26 15 -9.3082 -0.1883
10 26 16 0.9548 0.1073
10 27 1 2.4213 0.1660
10 27 2 0.1126 -2.4219
10 27 3 -0.2170 -0.2615
10 27 4 0.7374 -1.0603
10 27 5 -0.1947 0.4757
10 27 6 -2.1859 -0.0434
10 27 7 0.3249 0.1758
10 27 8 -8.5977 1.0155
10 27 9 -3.1910 -0.2240
10 27 10 3.9795 0.5128
10 27 11 -3.3075 -0.5773
10 27 12 -0.1150 -0.3294
10 27 13 2.5148 0.5283
10 27 14 -6.7116 -0.0702
10 27 15 1.3387 0.1858
10 28 0 2.0617 -14.2353
10 28 1 -1.1107 -1.4536
10 28 2 -0.7033 0.7475
10 28 3 0.3290 -0.8930
10 28 4 -0.1912 -0.6660
10 28 5 2.2208 -0.5353
10 28 6 1.1977 -0.9281
10 28 7 -0.6627 -0.0546
10 28 8 -0.9731 0.8867
10 28 9 -7.0855 -0.5027
10 28 10 -7.2921 -0.0810
10 28 11 -6.1080 -0.2806
10 28 12 4.5624 -0.4809
10 28 13 -0.3662 0.3489
10 28 14 1.6875 0.5092
10 29 1 -1.3819 -3.4667
10 29 2 5.2146 -2.3976
10 29 3 1.7350 1.5447
10 29 4 1.1302 -1.8541
10 29 5 5.2519 0.7167
10 29 6 -4.3632 0.2688
10 29 7 0.0531 -0.7893
10 29 8 -4.1376 0.4488
10 29 9 -4.9272 0.0015
10 29 10 3.2572 -0.1016
10 29 11 -0.6638 0.6266
10 29 12 -2.4206 -0.7670
10 29 13 -9.6551 0.2356
10 29 14 1.9722 0.2303
10 29 15 2.8984 0.1368
10 30 0 1.9522 -1.8805
10 30 1 -0.2357 6.6067
10 30 2 -1.3881 0.3716
10 30 3 -1.1330 1.6823
10 30 4 7.1180 0.9996
10 30 5 -1.3172 -0.1371
10 30 6 -3.9909 0.7669
10 30 7 -3.4276 -0.3502
10 30 8 -1.4496 -0.5918
10 30 9 -1.0740 0.4117
10 30 10 -13.9929 -0.2288
10 30 11 6.8145 -0.2116
10 30 12 6.2080 0.2786
10 30 13 -2.9480 0.0968
10 30 14 -7.8488 0.5228
10 31 1 3.9874 5.0279
10 31 2 -1.5884 0.3542
10 31 3 0.9275 1.1008
10 31 4 -3.5746 0.6904
10 31 5 3.1565 -0.4527
10 31 6 -2.0128 0.0350
10 31 7 -8.4840 -0.3426
10 31 8 0.8517 0.0301
10 31 9 -3.1681 -0.5074
10 31 10 1.7341 0.2898
10 31 11 1.8166 0.1330
10 31 12 -8.8872 0.7103
10 31 13 5.4933 -0.1187
10 31 14 5.3293 0.6114
10 32 0 1.9196 -8.5282
10 32 1 -2.4035 -1.7823
10 32 2 1.4609 -0.5765
10 32 3 3.4883 0.7199
10 32 4 5.2169 -0.3545
10 32 5 -1.8966 0.2583
10 32 6 3.9247 -0.2813
10 32 7 -8.4162 -0.6241
10 32 8 -3.3572 0.3193
10 32 9 1.0718 0.0528
10 32 10 -4.5805 -0.2690
10 32 11 8.9358 0.3538
10 32 12 8.6799 0.3647
10 32 13 -1.5001 -0.1875
10 32 14 -9.9770 -0.4889
10 33 1 -7.8671 0.3987
10 33 2 -0.9772 0.4815
10 33 3 -1.4724 -1.0141
10 33 4 0.8811 0.2418
10 33 5 1.7788 -0.0786
10 33 6 7.9416 0.3347
10 33 7 3.1771 -0.4208
10 33 8 -8.1706 1.2679
10 33 9 -4.0252 -0.3120
10 33 10 -10.9088 0.5713
10 33 11 -2.4422 -0.0754
10 33 12 -4.0747 0.3451
10 33 13 4.7449 0.9034
10 34 0 9.4366 3.3668
10 34 1 -2.2462 2.0766
10 34 2 -1.3880 0.1952
10 34 3 -2.2638 1.1089
10 34 4 4.6987 -0.1844
10 34 5 -2.1499 -0.7797
10 34 6 11.2459 -0.3752
10 34 7 10.6622 -0.1772
10 34 8 5.5801 0.5222
10 34 9 -5.8326 0.4561
10 34 10 -6.5952 -0.1323
10 34 11 -8.2627 0.6941
10 34 12 -10.5997 -0.1582
10 34 13 4.3168 0.6143
10 35 1 -1.7678 0.4792
10 35 2 2.0858 0.9123
10 35 3 0.4457 -1.2980
10 35 4 -4.1857 0.5149
10 35 5 -0.5165 -1.1356
10 35 6 0.2311 0.7793
10 35 7 1.9867 -0.7401
10 35 8 14.2602 0.4561
10 35 9 6.8643 0.5618
10 35 10 3.7276 1.1501
10 35 11 7.2973 0.1026
10 35 12 -10.7395 -0.2611
10 36 0 5.3585 -5.4615
10 36 1 -2.9248 -1.3919
10 36 2 1.9397 -0.9153
10 36 3 1.9197 -0.6076
10 36 4 4.9646 0.1838
10 36 5 -4.8545 0.3691
10 36 6 4.8335 0.2139
10 36 7 -4.4328 0.6348
10 36 8 5.5096 0.0877
10 36 9 -8.2757 0.0801
10 36 10 0.6871 -0.3261
10 36 11 5.7960 0.8320
10 37 1 2.2090 -0.9092
10 37 2 5.9567 2.8523
10 37 3 -0.6601 0.3420
10 37 4 -2.0088 0.6246
10 37 5 -2.1951 -0.8433
10 37 6 -8.9497 0.4024
10 37 7 -5.7410 -0.8541
10 37 8 -4.5055 -1.1056
10 37 9 3.4938 -0.2377
10 37 10 -7.3411 0.4954
10 37 11 -1.3476 -0.6903
10 38 0 -5.0451 4.2257
10 38 1 -5.0816 3.4720
10 38 2 -3.4958 0.0192
10 38 3 -1.5353 1.7774
10 38 4 0.6468 -0.7126
10 38 5 -0.8580 -0.1216
10 38 6 -4.7267 -0.3463
10 38 7 -2.4344 -0.6481
10 38 8 0.8431 -0.0327
10 38 9 -2.9336 -0.1822
10 38 10 -1.1008 0.5077
10 39 1 1.9198 1.2336
10 39 2 -3.8600 0.6320
10 39 3 -6.5294 0.1604
10 39 4 -4.1793 -0.4733
10 39 5 -4.0400 -1.1375
10 39 6 3.3301 -0.2164
10 39 7 -3.5689 0.0606
10 39 8 -6.8880 -0.3890
10 39 9 8.5778 0.5438
10 40 0 -9.7667 -5.3877
10 40 1 -0.6879 1.0299
10 40 2 -0.7671 -0.3985
10 40 3 -4.5752 -1.3955
10 40 4 2.8920 -0.7424
10 40 5 4.6974 -0.2502
10 40 6 -6.2971 -0.6918
10 40 7 6.5570 -0.4785
10 40 8 0.5228 0.4267
10 41 1 1.1257 -3.3096
10 41 2 -5.3224 1.3130
10 41 3 -0.5823 0.5354
10 41 4 1.5996 0.0574
10 41 5 3.6603 1.3878
10 41 6 8.1469 1.1754
10 41 7 -0.7596 0.1973
10 42 0 1.9852 4.9052
10 42 1 -0.0137 1.1976
10 42 2 -1.0545 0.5111
10 42 3 2.5435 -0.5294
10 42 4 3.8421 -0.0580
10 42 5 2.7736 0.0952
10 42 6 -1.0703 1.5525
10 43 1 2.3360 1.4792
10 43 2 -5.6993 1.6218
10 43 3 -8.8478 -1.0546
10 43 4 6.6913 -0.1803
10 44 0 6.9837 -3.5313
10 44 1 -0.4300 -0.9976
10 44 2 -0.6548 3.9865
11 1 0 -18.4376 -7.6443
11 1 1 -9.4025 -3.2432
11 1 2 27.8451 -1.5615
11 1 3 8.5017 -2.3628
11 1 4 23.6355 -0.5028
11 1 5 -0.1407 -1.2929
11 1 6 -13.3252 -1.1273
11 1 7 -3.4334 0.3533
11 1 8 -2.6987 -0.6992
11 1 9 -5.3518 -1.0125
11 1 10 -0.0536 -0.1403
11 1 11 1.0224 -0.4603
11 1 12 -2.2745 -0.0905
11 1 13 -1.5694 0.0324
11 1 14 3.2812 -0.0821
11 1 15 0.4048 -0.1462
11 1 16 2.4471 -0.3334
11 1 17 0.1126 0.7745
11 1 18 12.4956 -0.1591
11 1 19 -4.9834 0.8112
11 1 20 1.2034 0.0635
11 2 2 -14.1526 -3.8960
11 2 3 19.7424 -2.7393
11 2 4 2.5284 0.9752
11 2 5 5.0387 -0.0169
11 2 6 -1.3328 -0.0698
11 2 7 3.9469 1.2651
11 2 8 -1.4114 -1.4251
11 2 9 -0.5336 0.9694
11 2 10 -2.5102 -0.2244
11 2 11 1.3570 -0.5138
11 2 12 2.2588 0.6206
11 2 13 0.4787 -0.7303
11 2 14 -3.4886 0.8697
11 2 15 5.3279 0.3779
11 2 16 -10.3326 -0.0213
11 2 17 7.8305 0.4770
11 2 18 14.1866 0.0557
11 2 19 -4.9442 0.4107
11 2 20 -1.6005 -0.3461
11 3 0 13.6755 0.6536
11 3 1 15.4602 6.7070
11 3 2 8.4894 1.9530
11 3 3 -4.5127 0.1781
11 3 4 10.1331 0.6770
11 3 5 -3.2366 0.9217
11 3 6 -5.4484 -0.4049
11 3 7 6.5925 -0.2199
11 3 8 1.0241 -1.0192
11 3 9 -0.6799 -1.1826
11 3 10 4.0818 0.0209
11 3 11 3.0388 0.1344
11 3 12 3.1344 0.7901
11 3 13 3.9947 0.3657
11 3 14 3.1448 -0.3015
11 3 15 2.0341 0.3687
11 3 16 -10.2542 0.1810
11 3 17 -11.4853 -0.2307
11 3 18 2.6513 0.0539
11 3 19 7.1413 0.2562
11 4 1 3.9943 -5.0005
11 4 2 3.0709 4.4353
11 4 3 7.2739 -1.4365
11 4 4 0.3919 -1.9639
11 4 5 -0.4731 0.0196
11 4 6 -15.1101 -1.1118
11 4 7 1.1288 1.5372
11 4 8 9.1647 -0.6758
11 4 9 -0.9902 0.6813
11 4 10 -1.4038 0.0245
11 4 11 2.3857 0.4247
11 4 12 2.2773 -0.2677
11 4 13 -4.4905 -0.9443
11 4 14 1.5747 0.1401
11 4 15 5.2862 -1.4464
11 4 16 9.5017 0.0392
11 4 17 -0.7374 0.1278
11 4 18 -19.2757 -0.4532
11 4 19 -3.3390 0.7001
11 5 0 44.8107 -25.6942
11 5 1 -8.5221 -2.7515
11 5 2 5.2269 -4.0981
11 5 3 -17.2898 0.6655
11 5 4 9.9588 1.7311
11 5 5 -0.8585 0.7839
11 5 6 -1.9774 0.5159
11 5 7 -7.7699 -0.1481
11 5 8 1.3527 -0.3352
11 5 9 3.6644 0.0449
11 5 10 2.9116 -1.6532
11 5 11 -6.1781 -0.1185
11 5 12 2.6418 -0.1665
11 5 13 -3.9309 -0.3288
11 5 14 -3.9023 0.8281
11 5 15 -9.5378 0.0787
11 5 16 5.2010 -0.0177
11 5 17 6.0051 0.2195
11 5 18 13.1556 -0.2205
11 5 19 -5.7798 0.1773
11 6 1 27.9317 -4.9771
11 6 2 12.6376 4.2161
11 6 3 -13.5977 -0.8907
11 6 4 0.6915 2.1518
11 6 5 6.0855 2.9511
11 6 6 -4.0581 0.1333
11 6 7 -0.3252 1.6815
11 6 8 0.5363 -1.5765
11 6 9 -2.4200 -0.3426
11 6 10 4.2356 -0.3436
11 6 11 -2.6020 -0.7950
11 6 12 5.9106 0.6379
11 6 13 6.1547 -0.3785
11 6 14 -7.8509 0.4779
11 6 15 -2.6593 0.5761
11 6 16 -15.6664 -0.0607
11 6 17 -10.4104 -0.0036
11 6 18 -5.1495 -0.2896
11 6 19 4.1217 -0.0233
11 7 0 30.1194 -0.5497
11 7 1 14.9648 4.9495
11 7 2 24.4953 3.6348
11 7 3 2.4155 3.4594
11 7 4 2.3319 0.3625
11 7 5 -2.5942 0.1140
11 7 6 7.6725 -1.4561
11 7 7 -4.4931 -1.6676
11 7 8 -9.2276 0.0967
11 7 9 1.4709 0.5803
11 7 10 -4.5956 0.7993
11 7 11 -1.6962 1.4252
11 7 12 0.0016 0.2629
11 7 13 7.5011 1.1585
11 7 14 13.1183 -0.0156
11 7 15 3.7468 -0.1336
11 7 16 1.6061 0.0061
11 7 17 -4.0823 -1.0010
11 7 18 -7.2373 -0.3156
11 7 19 5.6090 -0.3516
11 8 1 34.5462 -5.9336
11 8 2 15.7762 -3.7916
11 8 3 9.0074 -4.1542
11 8 4 3.1787 -0.9982
11 8 5 6.3405 -0.5641
11 8 6 0.8664 1.1940
11 8 7 2.7427 0.1080
11 8 8 2.7275 0.5956
11 8 9 0.9535 1.1193
11 8 10 0.4399 -0.2914
11 8 11 -4.2638 0.2349
11 8 12 0.3879 -0.1504
11 8 13 -3.5291 -0.7156
11 8 14 -0.5900 -0.1499
11 8 15 -1.0630 -0.8193
11 8 16 11.1646 -0.1532
11 8 17 0.0494 0.1279
11 8 18 -17.3848 0.1821
11 8 19 -1.6862 0.3393
11 9 0 -16.5975 -17.6957
11 9 1 -5.6190 -7.1436
11 9 2 3.5091 0.8315
11 9 3 -2.4209 2.5849
11 9 4 5.9608 3.9357
11 9 5 -1.9850 0.8997
11 9 6 9.0238 0.7718
11 9 7 0.4306 0.0797
11 9 8 1.0327 -0.9552
11 9 9 3.4001 0.4070
11 9 10 -2.6764 -0.4456
11 9 11 -1.5429 0.1032
11 9 12 -2.7584 -0.4200
11 9 13 0.3223 -0.3098
11 9 14 3.3865 -0.0543
11 9 15 -8.1372 0.0382
11 9 16 -8.5997 0.0970
11 9 17 6.0679 0.0030
11 9 18 -6.8345 0.2240
11 9 19 -8.3698 -0.2752
11 10 1 15.7196 -6.8040
11 10 2 -7.9172 -0.2564
11 10 3 -4.1669 -1.2500
11 10 4 1.8219 1.8751
11 10 5 -3.0039 0.2632
11 10 6 -1.7522 0.6818
11 10 7 -1.8697 -0.3957
11 10 8 4.0493 0.4901
11 10 9 3.5545 -0.1009
11 10 10 0.1124 -0.5839
11 10 11 -0.6870 -0.0964
11 10 12 -1.5626 0.0380
11 10 13 3.2367 0.3531
11 10 14 -0.3307 -0.0132
11 10 15 6.1696 0.4656
11 10 16 3.5770 0.5409
11 10 17 -6.0608 0.2460
11 10 18 10.7395 0.5787
11 10 19 2.5155 -0.3957
11 11 0 2.8097 2.7104
11 11 1 8.4320 -4.7159
11 11 2 14.3637 0.2623
11 11 3 -3.3670 -0.5718
11 11 4 -3.9798 1.6134
11 11 5 -1.8074 -0.5637
11 11 6 3.6012 0.2714
11 11 7 -0.9974 -1.4712
11 11 8 1.6602 -0.5245
11 11 9 11.9441 -0.1471
11 11 10 0.7649 -0.5359
11 11 11 0.8701 0.6126
11 11 12 9.6267 0.4834
11 11 13 0.4053 0.0988
11 11 14 8.2123 0.1732
11 11 15 -0.0506 0.0052
11 11 16 -5.2552 0.1639
11 11 17 -6.5676 -0.1367
11 11 18 3.8658 -0.2010
11 11 19 6.2107 0.0447
11 12 1 6.4540 -1.3213
11 12 2 -7.2581 7.4831
11 12 3 12.2755 -0.3772
11 12 4 6.8674 0.3753
11 12 5 -3.0523 0.2637
11 12 6 -6.0898 -0.6039
11 12 7 -1.4112 -0.6214
11 12 8 2.4329 -0.1023
11 12 9 2.6543 -0.6651
11 12 10 -0.2705 0.1790
11 12 11 4.5201 -0.0016
11 12 12 2.4142 -0.1935
11 12 13 1.1885 0.9041
11 12 14 8.6698 -0.0389
11 12 15 6.6883 -0.0059
11 12 16 -7.6643 0.0129
11 12 17 -25.1393 -0.0823
11 12 18 -1.9955 0.0202
11 13 0 9.8190 6.0021
11 13 1 12.3120 -1.5161
11 13 2 -4.0536 1.1180
11 13 3 0.3085 1.3785
11 13 4 0.2183 -0.3552
11 13 5 9.9724 -1.1090
11 13 6 0.2952 -1.0789
11 13 7 -9.5640 -2.2982
11 13 8 -2.2863 0.0329
11 13 9 -0.6662 -1.0447
11 13 10 -0.0146 1.1556
11 13 11 3.8610 0.2390
11 13 12 1.0991 -0.0442
11 13 13 3.6127 0.2445
11 13 14 0.9404 -0.2933
11 13 15 9.7726 -0.3345
11 13 16 12.1204 0.2843
11 13 17 2.4862 -0.4264
11 13 18 -6.0050 0.0879
11 14 1 12.2300 2.9310
11 14 2 3.3547 -6.2679
11 14 3 1.7027 0.4846
11 14 4 5.7342 0.0985
11 14 5 2.4745 0.2624
11 14 6 8.7057 2.5384
11 14 7 2.0089 -0.9023
11 14 8 -4.0555 -0.0664
11 14 9 -4.2879 -0.0562
11 14 10 -5.0734 -0.6282
11 14 11 -2.5060 0.7161
11 14 12 -1.3651 -0.4893
11 14 13 1.0953 -0.2689
11 14 14 1.4545 0.1006
11 14 15 -11.9825 -0.3021
11 14 16 7.1312 -0.0228
11 14 17 -3.5227 -0.5003
11 14 18 14.4639 0.0634
11 15 0 -0.1851 8.5610
11 15 1 9.1817 0.8760
11 15 2 -0.2486 -0.5012
11 15 3 -5.3719 -3.3511
11 15 4 2.7256 -1.1395
11 15 5 -0.7354 1.1621
11 15 6 2.1221 1.6931
11 15 7 11.8726 -0.0322
11 15 8 1.0903 -0.2104
11 15 9 2.6562 0.1774
11 15 10 -4.3009 0.3811
11 15 11 -2.7206 -0.5279
11 15 12 -4.7163 0.8506
11 15 13 -8.1608 -0.9800
11 15 14 10.5527 0.0545
11 15 15 0.8376 0.1550
11 15 16 -8.0587 -0.0370
11 15 17 -1.5826 1.0996
11 15 18 7.7689 -0.2974
11 16 1 0.8873 9.3358
11 16 2 8.3330 0.2762
11 16 3 -5.6796 0.4354
11 16 4 -2.4072 -0.6765
11 16 5 -5.6166 -0.6733
11 16 6 -0.6328 0.3671
11 16 7 -1.0369 0.2966
11 16 8 3.1303 0.0918
11 16 9 8.0801 -0.5448
11 16 10 0.0636 -0.2010
11 16 11 1.0841 -0.1113
11 16 12 1.8153 -0.2843
11 16 13 3.4523 0.1696
11 16 14 -15.7059 -0.3348
11 16 15 9.9337 -0.0312
11 16 16 6.5017 0.0845
11 16 17 -11.0494 -0.1429
11 16 18 -7.3595 0.4402
11 17 0 -1.0227 5.1265
11 17 1 4.2162 -9.6850
11 17 2 0.1927 0.6906
11 17 3 3.6414 -0.4716
11 17 4 4.3063 0.1209
11 17 5 0.0623 2.1793
11 17 6 -2.9656 0.0811
11 17 7 -0.0547 0.6228
11 17 8 -0.3474 -0.1775
11 17 9 0.3512 -0.9866
11 17 10 2.0884 1.2090
11 17 11 -6.5153 -0.3467
11 17 12 -3.4608 0.3592
11 17 13 10.0937 -0.0367
11 17 14 -1.7226 -0.5329
11 17 15 -5.9229 -0.2061
11 17 16 4.7836 -0.9271
11 17 17 1.6368 0.4076
11 17 18 -9.6923 0.0599
11 18 1 3.6041 11.3734
11 18 2 -2.8582 -2.5782
11 18 3 0.3864 2.9085
11 18 4 1.8150 0.7134
11 18 5 -1.4664 -0.0148
11 18 6 3.6703 0.2325
11 18 7 -3.5937 -0.4631
11 18 8 -5.7902 0.1885
11 18 9 -1.1753 -0.8596
11 18 10 4.2482 -0.3315
11 18 11 0.9477 0.1981
11 18 12 -13.8817 -0.2812
11 18 13 2.3343 0.5449
11 18 14 -5.8103 0.0628
11 18 15 -6.2561 -0.3013
11 18 16 7.0645 0.6508
11 18 17 -4.0172 -0.9029
11 19 0 2.9251 15.8277
11 19 1 8.1121 -5.5833
11 19 2 -3.4055 1.2229
11 19 3 -0.7480 -2.6388
11 19 4 -2.2051 -1.4078
11 19 5 -4.2892 0.7607
11 19 6 -1.8033 -0.3464
11 19 7 -2.4637 1.8568
11 19 8 -0.5759 0.7224
11 19 9 -8.0608 -0.1178
11 19 10 5.1703 0.6588
11 19 11 1.2671 0.0142
11 19 12 4.0695 0.0990
11 19 13 -0.3608 -0.0187
11 19 14 7.5487 -0.2362
11 19 15 4.2814 -0.0007
11 19 16 -3.3088 -0.4831
11 19 17 0.9555 0.6127
11 20 1 -0.5054 0.2691
11 20 2 7.8432 -0.8851
11 20 3 -4.5771 0.4912
11 20 4 2.4853 -1.7999
11 20 5 3.1471 0.0697
11 20 6 -1.3349 -0.8275
11 20 7 -1.0888 -0.7195
11 20 8 2.1766 -0.0110
11 20 9 1.1938 0.3064
11 20 10 3.6132 0.3421
11 20 11 2.2200 0.3026
11 20 12 1.0736 0.4136
11 20 13 -6.8150 0.0913
11 20 14 -4.9429 0.4176
11 20 15 7.5008 -0.3022
11 20 16 3.6068 0.0332
11 20 17 -6.9309 0.3480
11 21 0 -0.8212 30.1732
11 21 1 5.3817 -2.9395
11 21 2 1.3850 -1.4432
11 21 3 -0.0774 1.0848
11 21 4 -2.5177 -3.1651
11 21 5 1.8235 1.2003
11 21 6 3.9648 -1.0579
11 21 7 2.0780 1.4596
11 21 8 2.5974 -0.5714
11 21 9 2.9213 0.1396
11 21 10 6.9499 0.5833
11 21 11 -1.3926 -0.5655
11 21 12 4.9145 0.1631
11 21 13 2.3493 -0.3323
11 21 14 3.8466 -0.8033
11 21 15 -2.1127 0.1041
11 21 16 2.2719 -0.7489
11 21 17 -8.0990 0.6103
11 22 1 -6.0944 7.2026
11 22 2 4.4491 -3.4669
11 22 3 1.1936 0.6245
11 22 4 0.4914 -0.4360
11 22 5 1.2951 -2.2291
11 22 6 -2.5644 -0.0162
11 22 7 -2.8653 0.9529
11 22 8 2.5093 -0.0069
11 22 9 -1.5365 0.1969
11 22 10 -4.3003 0.0261
11 22 11 0.2588 0.3141
11 22 12 -6.7068 0.0763
11 22 13 -3.3352 -0.0508
11 22 14 16.7527 0.1982
11 22 15 -1.0580 0.1496
11 22 16 8.9952 0.4168
11 22 17 8.1172 -0.0736
11 23 0 2.8896 -4.3715
11 23 1 5.6375 -2.9909
11 23 2 1.0865 -0.3376
11 23 3 -0.5156 -3.8723
11 23 4 0.8636 1.0369
11 23 5 1.1976 4.0264
11 23 6 -3.5399 -1.9164
11 23 7 -4.9545 2.1859
11 23 8 -2.8735 -0.4158
11 23 9 -0.6033 -0.1262
11 23 10 8.4218 -0.2458
11 23 11 -6.6681 -1.0215
11 23 12 -2.5120 -0.2146
11 23 13 -4.3919 -0.2794
11 23 14 6.9940 -0.4469
11 23 15 0.0693 -0.3027
11 23 16 -4.4851 0.2438
11 24 1 2.8826 -5.0380
11 24 2 1.6929 5.0586
11 24 3 -0.7233 1.8337
11 24 4 1.4067 -0.8335
11 24 5 -3.8455 1.0761
11 24 6 2.7026 -1.2570
11 24 7 -3.8259 -0.0805
11 24 8 -0.9297 0.4075
11 24 9 -4.0936 -0.4955
11 24 10 -0.1538 -0.1680
11 24 11 -1.0280 0.3321
11 24 12 -5.2917 0.0807
11 24 13 -9.6981 -0.0360
11 24 14 5.9676 0.7018
11 24 15 -0.9247 -0.4171
11 24 16 6.7755 -0.5136
11 25 0 -1.5413 12.2112
11 25 1 7.1732 -0.8679
11 25 2 5.4097 -2.5871
11 25 3 1.3285 0.0093
11 25 4 0.3722 -1.4855
11 25 5 -2.5902 0.7794
11 25 6 0.1104 -1.6207
11 25 7 -4.2892 -0.0433
11 25 8 -3.5786 -1.0158
11 25 9 1.7159 0.2324
11 25 10 -0.1855 0.3780
11 25 11 3.8521 -0.6988
11 25 12 -1.4171 0.4689
11 25 13 -5.5201 -0.0866
11 25 14 -1.7329 -0.0149
11 25 15 -7.6178 0.7887
11 25 16 4.9353 0.2188
11 26 1 -0.6574 -1.1139
11 26 2 -0.0482 -1.0044
11 26 3 2.8280 -0.2797
11 26 4 1.8470 1.0701
11 26 5 -5.0886 -0.1630
11 26 6 1.8077 -0.3560
11 26 7 -3.8465 0.0582
11 26 8 -5.1107 0.1252
11 26 9 1.9055 0.4090
11 26 10 5.8806 0.6957
11 26 11 -0.6094 -0.7904
11 26 12 7.8770 -0.2404
11 26 13 7.1705 -0.6692
11 26 14 -11.3567 -0.8172
11 26 15 -1.4327 -0.1938
11 27 0 4.2697 11.0247
11 27 1 -0.8090 -1.0749
11 27 2 -0.2575 -0.1354
11 27 3 -2.1990 0.1171
11 27 4 -4.9722 -1.7226
11 27 5 5.3231 0.8203
11 27 6 3.3729 -0.5494
11 27 7 -2.7173 0.0153
11 27 8 -3.9041 0.0221
11 27 9 -19.8080 -0.2949
11 27 10 -3.5065 0.5752
11 27 11 1.1483 0.1686
11 27 12 -8.2610 0.2815
11 27 13 8.0248 0.0154
11 27 14 7.5202 0.1739
11 27 15 13.1792 0.6667
11 28 1 4.9099 -4.1014
11 28 2 4.0342 0.8948
11 28 3 1.9157 -1.8778
11 28 4 3.0670 -0.1517
11 28 5 -5.9312 -0.2555
11 28 6 3.9723 0.0602
11 28 7 5.2648 -0.5138
11 28 8 0.3717 0.0174
11 28 9 -3.7047 0.3443
11 28 10 -10.1457 0.4406
11 28 11 -9.1628 0.1952
11 28 12 -6.0011 0.1589
11 28 13 -0.4966 -0.1199
11 28 14 -25.3911 0.2712
11 28 15 2.2817 -0.0346
11 29 0 -0.0116 -4.9044
11 29 1 -1.2295 -1.9384
11 29 2 6.3244 -0.0290
11 29 3 -3.6435 0.4330
11 29 4 3.6795 1.4591
11 29 5 -2.1783 0.4090
11 29 6 3.2736 0.1557
11 29 7 -8.3564 1.3063
11 29 8 2.5582 -0.3052
11 29 9 -4.2733 0.0267
11 29 10 3.1150 -0.0181
11 29 11 6.5555 -0.2045
11 29 12 6.8668 0.1664
11 29 13 -2.2999 -0.2243
11 29 14 2.4191 0.0149
11 30 1 1.3825 -6.1233
11 30 2 2.9440 0.7274
11 30 3 -2.6869 -0.9558
11 30 4 -4.7458 0.9502
11 30 5 -1.7305 1.3633
11 30 6 5.2589 0.3281
11 30 7 -2.7488 0.6402
11 30 8 -3.6156 -0.2246
11 30 9 -3.8533 -0.2544
11 30 10 -6.6796 0.1463
11 30 11 -13.4864 -0.5943
11 30 12 11.8535 0.3854
11 30 13 7.2572 0.1009
11 30 14 -1.9663 0.7784
11 31 0 4.5464 -0.8989
11 31 1 4.2383 0.0689
11 31 2 1.3941 0.3068
11 31 3 1.5543 0.5074
11 31 4 -6.1589 -0.8807
11 31 5 -3.8245 0.5706
11 31 6 2.6347 -1.0251
11 31 7 -2.3592 -0.4134
11 31 8 -1.3788 -0.6161
11 31 9 3.5437 -0.7946
11 31 10 0.4726 0.1948
11 31 11 -1.4764 -0.4748
11 31 12 -2.4653 0.8925
11 31 13 -3.1319 0.5836
11 31 14 11.5980 0.2766
11 32 1 6.6184 -0.4976
11 32 2 4.0881 -0.6474
11 32 3 -1.8423 0.4996
11 32 4 1.4810 -0.3022
11 32 5 -7.8638 -0.1475
11 32 6 1.0980 -1.0459
11 32 7 4.8413 0.1743
11 32 8 -6.0560 -0.1958
11 32 9 14.0168 0.7789
11 32 10 -3.1945 0.5500
11 32 11 4.0926 0.4692
11 32 12 -3.1825 0.5586
11 32 13 -2.2963 0.3979
11 33 0 -0.5070 -1.5903
11 33 1 -3.2577 5.2245
11 33 2 3.3697 0.5748
11 33 3 2.7301 0.4598
11 33 4 4.5961 0.3998
11 33 5 7.2156 -0.1961
11 33 6 4.0025 -0.1505
11 33 7 -0.9273 -0.4107
11 33 8 -3.5373 -0.1239
11 33 9 1.9712 0.5091
11 33 10 4.4960 0.8501
11 33 11 -1.7330 0.2726
11 33 12 2.0570 0.1676
11 33 13 -10.6978 0.2904
11 34 1 3.2492 -2.2324
11 34 2 3.1775 -1.3914
11 34 3 4.0010 -0.5323
11 34 4 -0.3258 -0.0576
11 34 5 -3.2658 1.2045
11 34 6 4.6807 -0.4664
11 34 7 0.8245 0.5244
11 34 8 -3.0489 -0.2933
11 34 9 -7.3635 -0.3288
11 34 10 -3.3936 -0.9311
11 34 11 2.9230 0.2027
11 34 12 -5.0916 -0.1608
11 35 0 0.1826 -2.3318
11 35 1 -5.2547 -3.3685
11 35 2 -2.4030 1.0159
11 35 3 13.9912 -0.3362
11 35 4 -0.0984 0.0643
11 35 5 -0.6865 0.7132
11 35 6 -2.1668 0.4300
11 35 7 -0.2918 -0.5158
11 35 8 -2.8516 0.8598
11 35 9 -2.7400 -0.3670
11 35 10 -3.0443 0.2171
11 35 11 -7.9981 0.2425
11 35 12 -8.6821 0.2994
11 36 1 1.7420 1.3893
11 36 2 -1.5577 0.6157
11 36 3 -1.3575 2.5867
11 36 4 -1.1500 -0.0511
11 36 5 -6.4765 0.8290
11 36 6 -10.8645 0.3649
11 36 7 -10.0234 -0.5289
11 36 8 1.4903 0.5027
11 36 9 2.4337 -0.1516
11 36 10 -5.0343 -0.3366
11 36 11 9.0934 -0.2731
11 37 0 -6.4392 -4.8281
11 37 1 -9.1583 -1.5419
11 37 2 2.7694 0.4951
11 37 3 -0.8553 0.1143
11 37 4 0.6129 2.0154
11 37 5 6.9246 -1.5694
11 37 6 -3.6584 0.1113
11 37 7 -8.6988 -0.4321
11 37 8 -6.6534 -1.3786
11 37 9 0.9433 0.0570
11 37 10 10.9515 1.0766
11 37 11 -9.5204 0.2699
11 38 1 -6.9601 0.9931
11 38 2 3.9579 -1.0034
11 38 3 -2.7637 0.3373
11 38 4 -8.6301 0.5517
11 38 5 6.8325 0.2439
11 38 6 16.3947 0.4008
11 38 7 0.4799 0.4702
11 38 8 1.2612 -0.2402
11 38 9 0.2752 0.0138
11 38 10 7.6730 -0.2575
11 39 0 -7.4648 -1.2302
11 39 1 0.8697 -1.5661
11 39 2 -4.0792 1.2465
11 39 3 2.3342 -0.3970
11 39 4 0.3439 -0.5064
11 39 5 -3.8997 -0.5543
11 39 6 6.1704 1.0442
11 39 7 10.8254 -0.3902
11 39 8 4.1932 0.6338
11 39 9 -6.0303 -0.0374
11 40 1 1.3374 0.8529
11 40 2 2.9501 -1.8727
11 40 3 2.0218 2.7570
11 40 4 -11.3557 -1.8623
11 40 5 5.4489 -0.3175
11 40 6 -0.0953 0.4317
11 40 7 -9.0936 -1.8368
11 40 8 10.2763 1.2212
11 41 0 -12.1379 -1.3277
11 41 1 -5.2746 1.1170
11 41 2 3.3735 -1.4631
11 41 3 -2.3234 0.2349
11 41 4 2.8262 0.2962
11 41 5 -5.3512 -0.1226
11 41 6 -3.2451 1.3524
11 41 7 -2.7937 0.6960
11 42 1 -6.8344 2.2227
11 42 2 -2.2893 -2.4525
11 42 3 -3.6475 0.1364
11 42 4 -7.9942 -1.0043
11 42 5 7.2620 0.4357
11 43 0 2.6440 -3.4967
11 43 1 6.0444 -1.1869
11 43 2 1.9335 1.7425
11 43 3 -3.1503 -0.4028
11 43 4 -4.3794 -0.2092
11 44 1 6.3181 5.6394
11 44 2 -0.2059 -1.3181
12 1 1 -1.2168 9.0611
12 1 2 -5.2738 1.2224
12 1 3 19.9472 -0.7242
12 1 4 8.4439 0.1118
12 1 5 20.4152 -2.3151
12 1 6 5.6483 0.9400
12 1 7 -5.5414 0.0341
12 1 8 -3.7761 1.2994
12 1 9 -3.5488 0.0237
12 1 10 6.0866 -0.5702
12 1 11 3.2147 -0.1767
12 1 12 10.3324 -1.0583
12 1 13 3.2725 0.3338
12 1 14 5.4730 -0.8408
12 1 15 -5.2309 -0.3778
12 1 16 1.0940 0.0926
12 1 17 -0.5695 -0.2729
12 1 18 -0.0507 0.3467
12 1 19 8.5383 -0.1838
12 2 0 -45.1108 -22.2092
12 2 1 2.3343 5.0687
12 2 2 -13.9482 -0.5902
12 2 3 0.5476 -2.9281
12 2 4 -14.5191 1.5758
12 2 5 5.6822 -2.5449
12 2 6 3.0907 -0.8698
12 2 7 5.9391 -0.3550
12 2 8 -6.0595 0.5873
12 2 9 -0.2344 0.4441
12 2 10 -3.5564 0.6866
12 2 11 1.6682 0.5927
12 2 12 1.4676 -0.1330
12 2 13 8.6306 0.0754
12 2 14 7.4858 -0.0048
12 2 15 6.1098 -0.5251
12 2 16 -13.2199 -0.2532
12 2 17 1.1701 -0.2486
12 2 18 -2.6492 0.0321
12 2 19 11.6083 0.2668
12 3 1 -20.4921 -10.3442
12 3 2 -23.3488 -3.7587
12 3 3 4.5130 -3.3994
12 3 4 -9.2257 -1.6903
12 3 5 -10.5863 0.7361
12 3 6 -5.3163 0.6869
12 3 7 -2.4313 0.1805
12 3 8 0.7203 1.6045
12 3 9 -0.4547 0.3143
12 3 10 -2.2508 0.2304
12 3 11 -5.8350 -0.3041
12 3 12 -1.7648 0.0947
12 3 13 -7.5913 0.1909
12 3 14 3.7250 0.5880
12 3 15 -2.0897 0.7526
12 3 16 -1.8095 0.6213
12 3 17 -11.1479 -0.0644
12 3 18 -14.1356 0.2853
12 3 19 6.3325 -0.8640
12 4 0 43.8713 8.5856
12 4 1 40.2231 -1.7471
12 4 2 4.3376 -1.3921
12 4 3 -4.2944 0.1549
12 4 4 5.3994 0.0040
12 4 5 4.3810 0.2165
12 4 6 -6.3973 1.1796
12 4 7 -3.9311 0.5417
12 4 8 -4.4432 1.7408
12 4 9 2.4243 -0.0145
12 4 10 3.2129 -0.5396
12 4 11 -3.8641 -0.4034
12 4 12 4.1879 -0.2196
12 4 13 3.2635 -0.4464
12 4 14 8.5874 0.2529
12 4 15 -0.6468 0.2570
12 4 16 -4.5003 0.5674
12 4 17 6.2758 0.2592
12 4 18 -3.3999 -0.0352
12 4 19 2.7151 0.2973
12 5 1 23.1018 -5.0693
12 5 2 11.3907 -1.7967
12 5 3 16.0102 1.7154
12 5 4 -2.5781 0.3612
12 5 5 0.1359 3.1258
12 5 6 9.1763 1.4110
12 5 7 2.5786 -0.8272
12 5 8 -0.8785 -0.9289
12 5 9 -0.6436 -0.7395
12 5 10 -0.7447 -0.1768
12 5 11 2.4039 -1.0031
12 5 12 -2.0203 0.1088
12 5 13 2.3291 0.2234
12 5 14 4.4614 0.2710
12 5 15 8.1838 0.2466
12 5 16 -14.5753 0.1709
12 5 17 -3.5645 -0.3461
12 5 18 -5.3044 0.0331
12 5 19 7.0541 -1.0461
12 6 0 0.8489 23.0168
12 6 1 15.8555 6.5360
12 6 2 -5.2696 -1.9807
12 6 3 7.0318 -0.8853
12 6 4 -4.1012 -3.5350
12 6 5 7.9340 -2.5949
12 6 6 -4.8178 -0.6821
12 6 7 -4.1095 -0.8612
12 6 8 3.5755 -0.6644
12 6 9 0.9987 -0.3021
12 6 10 -0.5713 0.7372
12 6 11 0.4231 0.6380
12 6 12 -1.0697 0.7981
12 6 13 3.8044 0.0604
12 6 14 1.8162 -0.3080
12 6 15 2.8596 -0.4039
12 6 16 -3.7155 -0.1814
12 6 17 -2.7583 -0.4878
12 6 18 -21.9510 0.0411
12 6 19 5.9115 0.0501
12 7 1 25.6680 -7.1997
12 7 2 19.6174 -3.8723
12 7 3 11.9437 -2.9640
12 7 4 -0.8906 -1.4531
12 7 5 -4.2720 1.1526
12 7 6 4.6897 0.2452
12 7 7 2.3146 1.2341
12 7 8 -10.1869 0.0949
12 7 9 0.1194 -0.4730
12 7 10 1.1012 0.2049
12 7 11 -3.6497 -0.0622
12 7 12 -3.7032 0.2458
12 7 13 0.3732 -0.0406
12 7 14 0.1113 0.4821
12 7 15 -5.1387 0.0863
12 7 16 6.6671 0.1606
12 7 17 13.1750 0.1673
12 7 18 -12.3027 0.0112
12 7 19 -10.9226 -0.1051
12 8 0 -24.7963 8.5929
12 8 1 7.5897 1.3040
12 8 2 -9.8027 -0.5162
12 8 3 11.0718 -2.3515
12 8 4 1.5132 -0.3849
12 8 5 -0.6647 2.4373
12 8 6 2.4308 0.6054
12 8 7 3.5956 1.6431
12 8 8 -4.5662 0.2340
12 8 9 -1.6331 -0.1654
12 8 10 4.4790 0.2240
12 8 11 -5.6360 -0.8037
12 8 12 -7.8197 -0.0993
12 8 13 6.6113 -0.4746
12 8 14 11.7437 -0.6207
12 8 15 -10.5121 -0.1604
12 8 16 -10.1133 0.1324
12 8 17 11.2302 0.0505
12 8 18 9.3557 0.5125
12 8 19 2.8518 0.3631
12 9 1 -1.0046 -1.3759
12 9 2 8.5702 2.6470
12 9 3 -1.6766 2.5476
12 9 4 -6.4033 0.4387
12 9 5 -6.7867 2.5086
12 9 6 1.6020 1.0181
12 9 7 6.4805 0.1578
12 9 8 -6.6195 0.0100
12 9 9 8.2384 -0.9702
12 9 10 5.1003 -0.7673
12 9 11 12.3189 -1.0654
12 9 12 -3.3725 -0.3417
12 9 13 4.7719 -0.0832
12 9 14 8.4943 -0.3874
12 9 15 21.0892 -0.0081
12 9 16 -1.7470 -0.0910
12 9 17 1.5439 -0.0483
12 9 18 3.6622 0.1001
12 9 19 2.3202 0.4136
12 10 0 0.2316 12.3605
12 10 1 11.0483 -5.6572
12 10 2 -6.0828 -1.9725
12 10 3 3.5170 -0.2641
12 10 4 4.0743 -2.1690
12 10 5 0.3424 -0.2497
12 10 6 -1.1475 -0.0393
12 10 7 5.8813 -0.1935
12 10 8 0.7688 -0.3454
12 10 9 -0.0648 0.3962
12 10 10 -3.2804 0.0514
12 10 11 1.7566 -0.3205
12 10 12 5.5454 0.1246
12 10 13 -0.2369 0.3763
12 10 14 8.7162 0.2394
12 10 15 -0.3421 0.3850
12 10 16 4.8269 -0.4616
12 10 17 -2.9215 -0.2325
12 10 18 -4.2351 0.2123
12 10 19 1.7354 -0.0933
12 11 1 -5.4677 0.8527
12 11 2 6.5735 -2.9426
12 11 3 4.4522 -2.1008
12 11 4 -1.5712 0.8875
12 11 5 -2.6407 -0.1318
12 11 6 4.9505 -0.0545
12 11 7 5.2810 0.6027
12 11 8 -5.4647 -0.7065
12 11 9 6.4614 0.0767
12 11 10 -5.8894 0.0757
12 11 11 -9.1205 0.1298
12 11 12 -2.0988 0.5119
12 11 13 1.1129 0.2474
12 11 14 -2.6817 -0.2094
12 11 15 -1.2951 0.0336
12 11 16 -0.5083 -0.1324
12 11 17 0.4791 0.2438
12 11 18 -11.1703 -0.0960
12 12 0 19.2253 2.4539
12 12 1 21.5933 -6.0350
12 12 2 -13.9423 1.6059
12 12 3 -0.4174 -0.2338
12 12 4 0.6040 -1.2275
12 12 5 -0.0426 0.9896
12 12 6 -3.9147 1.6341
12 12 7 -1.1761 1.4137
12 12 8 3.3806 1.7468
12 12 9 2.0253 -0.1066
12 12 10 1.2213 -0.4785
12 12 11 -0.3542 0.1100
12 12 12 -5.2544 -0.2313
12 12 13 1.5174 0.0495
12 12 14 0.1242 0.1485
12 12 15 0.0880 0.1331
12 12 16 5.3352 -0.1392
12 12 17 -4.9371 0.2451
12 12 18 12.9331 0.0647
12 13 1 16.3730 -1.6088
12 13 2 19.9937 5.1827
12 13 3 6.0030 0.1701
12 13 4 -3.8694 1.3321
12 13 5 -0.6374 0.4393
12 13 6 -1.9039 -0.1728
12 13 7 3.6369 0.3926
12 13 8 2.5879 -1.4371
12 13 9 4.1947 -0.4361
12 13 10 3.5771 -1.1312
12 13 11 6.8275 -0.5187
12 13 12 -2.7563 0.9444
12 13 13 -2.0380 0.3491
12 13 14 -7.5705 0.5867
12 13 15 -11.2816 -0.0380
12 13 16 -2.9721 -0.2023
12 13 17 1.1456 0.1904
12 13 18 -8.1592 -0.4404
12 14 0 -0.6486 1.6828
12 14 1 -3.0973 -1.0711
12 14 2 0.7359 2.1521
12 14 3 9.3103 1.9421
12 14 4 11.1547 -1.1085
12 14 5 2.5134 -1.7530
12 14 6 -0.0761 -0.8119
12 14 7 3.9497 -0.7903
12 14 8 1.5870 0.3147
12 14 9 1.0424 -0.6392
12 14 10 2.6386 0.7556
12 14 11 0.1482 -0.2110
12 14 12 6.8560 0.2696
12 14 13 -1.2723 0.4510
12 14 14 10.9435 -0.6884
12 14 15 -12.2524 -0.0131
12 14 16 -8.4724 -0.4734
12 14 17 -5.3402 -0.5986
12 14 18 8.8841 -0.2237
12 15 1 -2.0829 -3.3912
12 15 2 0.0845 -2.0400
12 15 3 -7.5694 -3.8934
12 15 4 1.0894 -2.3866
12 15 5 1.6375 -2.6415
12 15 6 0.5958 0.1989
12 15 7 1.0514 1.1745
12 15 8 1.1734 -0.3494
12 15 9 0.5833 1.8803
12 15 10 -3.5729 0.3268
12 15 11 -5.3455 0.8963
12 15 12 -1.5321 0.7136
12 15 13 -0.8990 -0.6110
12 15 14 -0.3236 0.4109
12 15 15 7.4062 -0.5097
12 15 16 -4.9949 -0.0530
12 15 17 -12.9962 -0.1455
12 15 18 -5.1923 0.6954
12 16 0 10.6003 -26.7523
12 16 1 -3.5882 -2.7530
12 16 2 -2.2228 -1.8916
12 16 3 -1.5979 -0.4668
12 16 4 -5.6423 1.9755
12 16 5 -3.4734 0.6950
12 16 6 -4.6305 1.2160
12 16 7 3.8421 1.4809
12 16 8 3.1110 0.2651
12 16 9 -6.6739 -0.0366
12 16 10 7.0604 -0.9705
12 16 11 -0.2695 -1.0210
12 16 12 -0.1836 -0.1908
12 16 13 6.3090 0.2032
12 16 14 -4.4771 0.0349
12 16 15 -0.6080 0.5195
12 16 16 12.0725 0.3770
12 16 17 1.9787 0.5163
12 16 18 -8.4346 0.0087
12 17 1 4.8980 1.9617
12 17 2 2.0561 4.9273
12 17 3 1.0223 0.4437
12 17 4 -2.7098 2.2896
12 17 5 0.0295 -0.2003
12 17 6 -4.1187 -1.2642
12 17 7 -3.6216 0.5443
12 17 8 3.9577 -1.6612
12 17 9 7.3445 0.3335
12 17 10 0.0446 -0.2205
12 17 11 6.8687 -0.4768
12 17 12 3.3424 0.4689
12 17 13 5.2658 -0.5531
12 17 14 6.0191 0.6460
12 17 15 -13.5381 -0.4679
12 17 16 -2.3727 -0.0898
12 17 17 19.2832 -0.4619
12 18 0 9.3491 0.9215
12 18 1 4.8637 7.7657
12 18 2 5.5756 3.1369
12 18 3 2.7309 2.1313
12 18 4 -0.2488 -0.1299
12 18 5 -1.6191 -0.3448
12 18 6 -0.9249 -0.8952
12 18 7 -4.8539 -2.0030
12 18 8 -4.9437 -0.5364
12 18 9 -5.8880 -0.6733
12 18 10 3.4838 -0.3206
12 18 11 5.5876 -0.0139
12 18 12 9.3620 -0.8666
12 18 13 1.2959 0.4538
12 18 14 9.0615 0.2296
12 18 15 -3.1432 -0.0829
12 18 16 -3.3348 0.2046
12 18 17 9.6638 -0.3156
12 19 1 3.4460 2.8579
12 19 2 3.7799 1.5776
12 19 3 3.1692 -3.1817
12 19 4 5.6522 0.2332
12 19 5 -0.0284 -1.8874
12 19 6 1.7481 -0.9765
12 19 7 2.8052 0.0078
12 19 8 -6.0627 -0.5515
12 19 9 -3.0620 0.3960
12 19 10 2.6054 0.0226
12 19 11 -0.9025 1.1655
12 19 12 -4.4127 0.7724
12 19 13 -6.4294 -0.6124
12 19 14 -3.5345 0.6470
12 19 15 0.0841 -1.0046
12 19 16 -0.6407 -0.2169
12 19 17 0.6257 -0.3563
12 20 0 6.9303 -6.9781
12 20 1 -2.9846 -1.6786
12 20 2 -0.8921 0.6212
12 20 3 -2.8933 1.1948
12 20 4 -4.4773 1.6439
12 20 5 4.1149 -0.1121
12 20 6 -0.0607 1.0228
12 20 7 2.5635 0.1540
12 20 8 4.2419 0.4630
12 20 9 -4.5046 0.3277
12 20 10 0.3256 -0.3813
12 20 11 10.4367 0.5026
12 20 12 9.6195 -0.5880
12 20 13 -1.2209 0.3755
12 20 14 -16.4888 -0.1338
12 20 15 -7.7585 -0.1487
12 20 16 -3.8060 0.1656
12 20 17 -3.0053 -0.2392
12 21 1 3.2721 6.0874
12 21 2 -0.0996 2.7987
12 21 3 3.3196 -2.3041
12 21 4 -6.5965 2.1823
12 21 5 3.7145 -1.8334
12 21 6 -0.8945 1.2582
12 21 7 -0.8645 0.9053
12 21 8 -6.3783 0.0596
12 21 9 -3.4521 1.3245
12 21 10 -5.5816 -0.5613
12 21 11 1.8470 -0.2539
12 21 12 -3.5474 0.0580
12 21 13 14.0159 -0.6814
12 21 14 0.2862 0.0227
12 21 15 -0.9777 -0.9562
12 21 16 -4.7417 -0.7130
12 21 17 2.4301 -0.5224
12 22 0 7.6704 -8.0985
12 22 1 -1.1637 -2.8756
12 22 2 4.2602 0.3433
12 22 3 3.8059 -0.0928
12 22 4 -2.1691 2.8134
12 22 5 1.0653 -0.7935
12 22 6 3.0265 -0.6165
12 22 7 -1.9141 -0.3335
12 22 8 0.6904 -0.7380
12 22 9 -1.4719 0.5133
12 22 10 2.9995 -0.4421
12 22 11 -7.4265 0.4801
12 22 12 11.6944 -0.0247
12 22 13 -5.5061 0.1874
12 22 14 -3.7338 -0.1034
12 22 15 11.7611 0.5450
12 22 16 -13.8973 0.1832
12 23 1 1.7254 0.3802
12 23 2 -0.0364 4.2251
12 23 3 5.2817 -4.8280
12 23 4 -0.5637 1.1992
12 23 5 0.2159 -1.4008
12 23 6 -1.0699 0.3267
12 23 7 3.4580 0.5099
12 23 8 -5.1311 -0.4481
12 23 9 -2.5719 0.4135
12 23 10 9.2669 0.2060
12 23 11 1.6702 -0.1763
12 23 12 3.7308 -0.0134
12 23 13 -6.0882 -0.1491
12 23 14 2.2159 0.0735
12 23 15 -4.5458 0.0902
12 23 16 8.6588 -0.4209
12 24 0 1.5140 -7.7013
12 24 1 3.0219 0.5333
12 24 2 3.0482 0.9246
12 24 3 -1.5537 -0.5762
12 24 4 3.3683 0.9890
12 24 5 2.4059 1.2401
12 24 6 -3.9827 -0.2139
12 24 7 -2.3077 -0.4638
12 24 8 -5.0054 0.4427
12 24 9 -4.6656 -0.1531
12 24 10 -8.2203 -0.3919
12 24 11 13.1615 1.0121
12 24 12 6.7086 -0.1681
12 24 13 6.9774 0.7330
12 24 14 -1.3694 0.2808
12 24 15 -0.4193 -0.1688
12 24 16 7.3493 0.4630
12 25 1 0.9721 -2.4614
12 25 2 -1.9376 4.2808
12 25 3 1.2645 -0.6024
12 25 4 -2.3354 0.1605
12 25 5 -0.9077 -0.9495
12 25 6 -2.8818 0.6410
12 25 7 0.1823 -0.8067
12 25 8 -0.5197 -0.5807
12 25 9 -1.6650 -0.2459
12 25 10 -5.9522 -0.7140
12 25 11 2.7473 0.9281
12 25 12 3.1536 -0.0459
12 25 13 7.7847 -0.2066
12 25 14 -2.7695 0.2179
12 25 15 0.4537 -0.4757
12 25 16 -6.2825 -0.2257
12 26 0 -2.3661 11.8144
12 26 1 -1.0050 5.9664
12 26 2 -1.0370 -2.8577
12 26 3 -0.4219 -0.6269
12 26 4 1.2419 -1.9048
12 26 5 2.6509 -1.2182
12 26 6 -4.6465 -0.3219
12 26 7 -6.0058 -1.2159
12 26 8 1.7404 -0.2959
12 26 9 -4.3736 0.0983
12 26 10 -0.5261 0.1611
12 26 11 -5.9969 0.0259
12 26 12 -4.9305 0.3034
12 26 13 12.0652 -0.2776
12 26 14 -1.5899 -0.0864
12 26 15 -0.5659 -0.0063
12 27 1 1.8018 2.5938
12 27 2 -6.0832 -1.0174
12 27 3 4.4787 -3.3129
12 27 4 2.4347 0.4798
12 27 5 1.6538 -1.5731
12 27 6 4.0028 0.4544
12 27 7 -6.3202 1.4471
12 27 8 -6.2792 0.2334
12 27 9 -12.2143 0.7019
12 27 10 -9.4285 -0.0554
12 27 11 -0.1560 0.0239
12 27 12 -10.1990 -0.0767
12 27 13 -3.2138 0.0824
12 27 14 7.7521 -0.2055
12 27 15 -11.3467 0.7858
12 28 0 2.2123 -3.0793
12 28 1 4.7862 -2.1258
12 28 2 2.7920 -0.0904
12 28 3 -1.3005 -0.8328
12 28 4 3.1152 0.1985
12 28 5 0.1626 0.4429
12 28 6 -4.4257 -0.1300
12 28 7 3.5400 -0.3209
12 28 8 -0.4615 -0.0615
12 28 9 -5.1344 -0.6801
12 28 10 -6.8421 0.5399
12 28 11 3.9678 0.0756
12 28 12 -5.7558 0.0323
12 28 13 0.8413 -0.0010
12 28 14 1.4854 -0.5540
12 28 15 -6.1396 0.3675
12 29 1 0.8503 -1.4998
12 29 2 -0.1897 -0.7672
12 29 3 4.0970 0.5294
12 29 4 -1.1943 0.4375
12 29 5 -0.6275 1.1447
12 29 6 -0.4068 0.7881
12 29 7 -0.3897 -0.0286
12 29 8 2.8819 0.2617
12 29 9 -2.7743 -0.2704
12 29 10 -3.3460 -0.8700
12 29 11 3.0578 -0.5357
12 29 12 13.2744 -0.3913
12 29 13 4.1825 0.8426
12 29 14 -8.4550 0.5832
12 30 0 2.9095 12.3433
12 30 1 0.8490 1.2488
12 30 2 1.8772 0.3165
12 30 3 0.6922 -0.5844
12 30 4 0.4354 0.1684
12 30 5 4.2105 -0.3655
12 30 6 -0.1526 0.4766
12 30 7 -1.3945 0.3600
12 30 8 -1.4082 -0.1049
12 30 9 -4.2853 -0.2752
12 30 10 -0.6415 0.0439
12 30 11 -5.1191 -0.5906
12 30 12 2.5317 0.4683
12 30 13 21.9525 -0.6505
12 30 14 6.1220 0.3795
12 31 1 0.7573 -0.3835
12 31 2 -2.1595 1.6710
12 31 3 1.7740 0.6846
12 31 4 -3.7094 -0.7205
12 31 5 -3.1581 1.0856
12 31 6 2.7411 -1.1200
12 31 7 6.8305 -0.4484
12 31 8 -1.6666 -0.5732
12 31 9 -4.7606 -0.3477
12 31 10 2.0584 0.6127
12 31 11 -2.0094 0.5317
12 31 12 -6.6191 -0.1250
12 31 13 -9.4644 0.5418
12 31 14 1.3590 -0.3951
12 32 0 -5.2886 8.1226
12 32 1 3.5298 -3.4477
12 32 2 -0.3696 -0.8298
12 32 3 -0.6059 -1.2926
12 32 4 6.2792 -1.2263
12 32 5 8.7675 0.3035
12 32 6 -4.4249 0.2170
12 32 7 4.3957 0.6458
12 32 8 -2.6464 1.0555
12 32 9 -3.1905 0.2175
12 32 10 -15.1356 0.3215
12 32 11 -1.0583 0.4342
12 32 12 4.1679 1.2489
12 32 13 -11.9968 0.4434
12 33 1 1.3921 0.4201
12 33 2 -8.3753 -2.4633
12 33 3 2.6418 1.5188
12 33 4 -4.2709 -0.6623
12 33 5 4.0643 1.2688
12 33 6 3.9260 0.7479
12 33 7 -5.0270 -0.0026
12 33 8 -6.8560 -0.3273
12 33 9 -8.5557 -0.3101
12 33 10 2.9383 -0.2694
12 33 11 -11.0741 0.1769
12 33 12 0.2372 -0.5214
12 33 13 3.3555 0.3042
12 34 0 3.7079 8.5085
12 34 1 3.3634 -1.1837
12 34 2 -1.4389 -0.4959
12 34 3 -3.6467 -0.2831
12 34 4 -1.3512 -0.8231
12 34 5 -0.8748 0.9089
12 34 6 -2.3694 -0.3579
12 34 7 6.6915 0.3961
12 34 8 -6.1863 0.2454
12 34 9 -8.2396 0.4766
12 34 10 -8.3771 -0.2500
12 34 11 4.3492 -0.2954
12 34 12 -6.0530 0.7104
12 35 1 3.0997 -0.5706
12 35 2 -3.4698 -3.6590
12 35 3 2.9294 0.1905
12 35 4 -2.1888 -1.0306
12 35 5 2.0692 0.8764
12 35 6 -3.7800 0.4390
12 35 7 7.0908 0.8203
12 35 8 7.5802 0.2667
12 35 9 -1.3295 -0.4806
12 35 10 -1.7694 0.6457
12 35 11 10.2106 -0.6109
12 36 0 3.4936 -1.7755
12 36 1 0.0493 -4.2153
12 36 2 0.7531 -0.4897
12 36 3 0.0212 -1.5100
12 36 4 -0.3578 0.1573
12 36 5 -0.7164 1.3869
12 36 6 1.9320 -0.3980
12 36 7 3.9935 1.1795
12 36 8 2.5799 -0.5003
12 36 9 9.1719 0.4882
12 36 10 -4.4855 -0.0034
12 36 11 4.3212 0.0008
12 37 1 4.6434 -1.7092
12 37 2 -2.9720 -0.0039
12 37 3 4.5975 2.0296
12 37 4 -3.5199 -0.9155
12 37 5 0.2542 0.5269
12 37 6 -4.8368 -0.3891
12 37 7 0.4167 -0.1721
12 37 8 1.3762 -0.6154
12 37 9 -5.3388 -0.9373
12 37 10 -0.2365 1.2692
12 38 0 -9.8492 12.1267
12 38 1 -7.3196 -1.5013
12 38 2 -4.2617 0.4259
12 38 3 5.5387 0.4133
12 38 4 -6.6834 -0.4473
12 38 5 -1.4568 0.8440
12 38 6 4.7789 -0.3171
12 38 7 1.4130 0.4147
12 38 8 -3.9732 -1.2150
12 38 9 -8.1504 -1.0065
12 38 10 -9.6293 -1.1557
12 39 1 -3.5766 0.8536
12 39 2 3.6533 -1.6209
12 39 3 3.0860 -0.7749
12 39 4 -5.1631 -0.5142
12 39 5 3.3470 -0.9732
12 39 6 -7.2321 1.1482
12 39 7 6.5084 0.0156
12 39 8 6.1486 1.2103
12 39 9 3.3920 -0.9877
12 40 0 -5.1746 -3.0101
12 40 1 -9.0123 -4.1831
12 40 2 1.6861 -0.2093
12 40 3 13.2616 -0.3642
12 40 4 0.5082 -0.9576
12 40 5 -6.1019 1.4216
12 40 6 1.4201 -0.4041
12 40 7 1.1522 1.2614
12 40 8 -0.1439 -0.1475
12 41 1 -8.3171 -4.1070
12 41 2 -3.8833 0.8259
12 41 3 -4.4746 -1.3770
12 41 4 1.8363 0.2966
12 41 5 9.3409 0.6568
12 41 6 -11.7226 0.4859
12 42 0 -6.2357 4.4219
12 42 1 3.9543 0.7586
12 42 2 -2.9297 1.2123
12 42 3 -1.3345 1.5202
12 42 4 -16.9544 -0.3429
12 42 5 6.4595 2.1392
12 43 1 -3.5016 2.9006
12 43 2 1.4360 3.0107
12 43 3 1.8597 -1.7531
12 44 0 0.9981 -8.9422
12 44 1 4.7222 -0.3970
13 1 0 -31.9351 -7.0778
13 1 1 1.8264 -0.2110
13 1 2 -15.4247 -0.2169
13 1 3 4.6532 -1.4947
13 1 4 1.9005 -1.4489
13 1 5 -4.9612 -0.9702
13 1 6 11.2481 -1.6850
13 1 7 2.3535 -1.4222
13 1 8 -4.0268 0.6252
13 1 9 -3.8400 -0.0150
13 1 10 0.1106 0.7500
13 1 11 3.1891 -0.1442
13 1 12 2.8801 0.0646
13 1 13 4.0771 -0.4813
13 1 14 7.6260 0.0262
13 1 15 14.2115 0.0199
13 1 16 -14.0058 0.2669
13 1 17 -0.4891 0.5366
13 1 18 9.6419 0.2407
13 1 19 2.4469 0.4688
13 2 2 -12.2331 -0.3794
13 2 3 -20.7944 -0.2735
13 2 4 -1.5887 0.7443
13 2 5 -13.2891 0.3037
13 2 6 -3.2489 0.8177
13 2 7 6.4009 -1.3071
13 2 8 3.4105 -0.5857
13 2 9 -0.7089 0.0393
13 2 10 -7.7788 -0.5365
13 2 11 -0.8094 0.0456
13 2 12 0.5484 0.1249
13 2 13 -0.5165 0.2108
13 2 14 -5.0834 -0.1397
13 2 15 17.3118 0.3628
13 2 16 0.3545 -0.2701
13 2 17 -9.4478 -0.1063
13 2 18 -5.7453 0.4857
13 2 19 -10.9038 -0.7936
13 3 0 61.7247 17.4026
13 3 1 48.3301 4.1010
13 3 2 -2.6206 3.4441
13 3 3 -13.4730 -2.7283
13 3 4 3.9305 -2.5853
13 3 5 -12.5206 -0.4568
13 3 6 -7.6261 0.3263
13 3 7 -0.8661 0.3272
13 3 8 0.2005 0.8729
13 3 9 0.1155 0.1638
13 3 10 2.9598 0.5350
13 3 11 -4.3914 -0.7259
13 3 12 -0.0674 -0.6134
13 3 13 -4.2653 -0.6038
13 3 14 -2.0304 0.2293
13 3 15 4.7975 0.2932
13 3 16 4.7099 0.1014
13 3 17 -7.3147 0.1979
13 3 18 0.7772 -0.1600
13 3 19 -11.9585 0.3310
13 4 1 29.5420 10.2718
13 4 2 42.2773 2.3489
13 4 3 5.8964 0.3955
13 4 4 14.1438 -0.9076
13 4 5 7.7824 -0.6595
13 4 6 -5.8404 -0.2601
13 4 7 0.9714 -0.8088
13 4 8 0.8638 0.5328
13 4 9 -4.8346 -0.0907
13 4 10 0.1637 0.2036
13 4 11 3.8837 0.6652
13 4 12 3.7966 -0.2340
13 4 13 2.5556 0.1142
13 4 14 -4.5578 -0.2306
13 4 15 7.1481 -1.1244
13 4 16 -5.6818 0.1085
13 4 17 0.4731 -0.4343
13 4 18 -0.9482 -0.4280
13 4 19 -16.8212 0.5163
13 5 0 -13.8168 -4.9600
13 5 1 0.6915 -6.8996
13 5 2 -5.4850 0.5547
13 5 3 0.4494 -2.5576
13 5 4 10.7425 0.8771
13 5 5 0.7964 -1.3061
13 5 6 1.8375 1.7013
13 5 7 0.3425 1.6414
13 5 8 3.6413 0.7225
13 5 9 6.0129 0.7084
13 5 10 -6.1453 0.2750
13 5 11 0.6194 -0.7129
13 5 12 7.4109 0.1050
13 5 13 0.1686 -1.1084
13 5 14 -2.6198 0.0661
13 5 15 8.1043 0.1026
13 5 16 -3.0156 -0.1962
13 5 17 -0.1025 0.6516
13 5 18 8.0873 0.1305
13 5 19 -6.0354 0.2388
13 6 1 23.1179 8.3013
13 6 2 17.1333 3.5388
13 6 3 -1.4982 2.3672
13 6 4 2.2350 0.4754
13 6 5 -3.0118 0.6928
13 6 6 -4.1084 -0.5014
13 6 7 -6.7053 0.0224
13 6 8 -1.6399 -0.9458
13 6 9 2.3376 -0.2484
13 6 10 7.2788 -0.2978
13 6 11 -3.3856 -0.9365
13 6 12 -0.9249 1.4263
13 6 13 -3.9675 0.1918
13 6 14 3.8846 0.4333
13 6 15 -6.5387 0.4611
13 6 16 -1.3981 -0.0839
13 6 17 -0.4493 -0.3456
13 6 18 -1.4652 -0.2579
13 6 19 -4.9582 -0.4145
13 7 0 -16.8748 21.9189
13 7 1 -14.6029 -0.0239
13 7 2 8.4698 2.2835
13 7 3 1.9511 2.1254
13 7 4 12.5011 -2.5319
13 7 5 3.0639 -1.2030
13 7 6 -1.7050 -0.3798
13 7 7 -0.2995 -0.1153
13 7 8 -2.1205 1.1406
13 7 9 -12.7585 0.7847
13 7 10 1.3277 0.7975
13 7 11 2.2092 0.4956
13 7 12 -1.8965 0.1949
13 7 13 -1.9575 0.3369
13 7 14 2.0946 0.0188
13 7 15 5.8108 -0.1716
13 7 16 -0.9036 -0.2581
13 7 17 -5.7971 -0.5828
13 7 18 11.7059 -0.2075
13 7 19 -10.7682 -0.3736
13 8 1 0.6283 5.4135
13 8 2 -8.3636 -1.6673
13 8 3 -14.2301 -2.3351
13 8 4 -0.1169 -3.7517
13 8 5 2.4946 -2.2388
13 8 6 1.5654 -1.1175
13 8 7 2.6373 0.3184
13 8 8 5.6907 0.5287
13 8 9 -1.7954 1.2647
13 8 10 3.7093 0.8973
13 8 11 0.9602 0.7223
13 8 12 8.9667 -0.4914
13 8 13 -9.3311 -0.5208
13 8 14 9.1427 -0.0850
13 8 15 12.1709 -0.5421
13 8 16 2.4734 0.4338
13 8 17 2.5638 -0.0883
13 8 18 12.8429 -0.1661
13 8 19 2.2730 0.7577
13 9 0 29.5049 -10.3421
13 9 1 -5.8493 0.9426
13 9 2 11.7200 -0.7137
13 9 3 -8.2937 -1.4003
13 9 4 -8.1407 -0.1810
13 9 5 -5.8928 -0.2818
13 9 6 -2.7302 0.7693
13 9 7 7.2239 2.0618
13 9 8 2.9393 0.1291
13 9 9 1.9264 0.3409
13 9 10 -1.2028 -1.1102
13 9 11 1.0132 -0.7088
13 9 12 6.2146 -1.0513
13 9 13 1.3784 -0.5656
13 9 14 0.9392 0.0685
13 9 15 1.7239 -0.0390
13 9 16 -0.2409 0.7124
13 9 17 1.2294 0.4652
13 9 18 -3.4304 0.2160
13 9 19 -1.7903 0.2164
13 10 1 15.1793 0.3624
13 10 2 11.8054 0.9771
13 10 3 2.8951 2.4412
13 10 4 5.2203 -0.0841
13 10 5 -0.6088 0.2621
13 10 6 -2.4341 -1.0577
13 10 7 -5.1671 0.2043
13 10 8 1.7848 -0.2079
13 10 9 -1.1213 -0.1575
13 10 10 7.1392 -0.3925
13 10 11 -6.8260 -0.3363
13 10 12 6.2195 0.4289
13 10 13 -5.3888 0.2338
13 10 14 7.6204 0.6748
13 10 15 -0.3311 0.8489
13 10 16 -3.6163 -0.0845
13 10 17 -4.8240 0.2849
13 10 18 -1.7691 0.0570
13 11 0 18.9817 4.3970
13 11 1 -0.7781 6.2276
13 11 2 8.7630 -1.9905
13 11 3 3.8626 0.5029
13 11 4 6.4083 -0.5573
13 11 5 4.6870 0.3986
13 11 6 -1.6853 0.1165
13 11 7 2.7719 -0.6110
13 11 8 4.0504 -0.7311
13 11 9 -1.7801 0.8199
13 11 10 0.3399 -1.1482
13 11 11 4.6161 0.0026
13 11 12 -4.3029 -0.6860
13 11 13 8.0041 0.4209
13 11 14 -1.9283 0.5509
13 11 15 -1.3344 0.0427
13 11 16 -5.7522 0.3564
13 11 17 2.4029 -0.1034
13 11 18 6.6949 -0.1719
13 12 1 15.2017 5.6628
13 12 2 8.3068 -0.0917
13 12 3 1.5317 0.8005
13 12 4 1.4259 0.2276
13 12 5 5.3717 -1.3357
13 12 6 1.3662 -0.7153
13 12 7 -4.7624 0.6741
13 12 8 5.0404 0.0863
13 12 9 5.0692 0.2823
13 12 10 8.5782 0.2496
13 12 11 -1.1841 -0.8103
13 12 12 0.7456 0.1455
13 12 13 -6.8087 -0.0788
13 12 14 3.3715 -0.3022
13 12 15 -2.3959 0.3171
13 12 16 -0.5746 -0.4846
13 12 17 -23.4959 -0.1820
13 12 18 -5.2004 -0.2605
13 13 0 -1.9396 -15.3224
13 13 1 -10.3998 0.7881
13 13 2 -1.7839 -1.6290
13 13 3 -0.6264 1.9040
13 13 4 -1.8980 0.3461
13 13 5 2.0981 -0.6587
13 13 6 0.1421 -1.1132
13 13 7 1.8435 -1.1316
13 13 8 -1.8710 -0.5522
13 13 9 8.4618 0.2515
13 13 10 -1.5361 -0.4368
13 13 11 0.1398 0.8418
13 13 12 7.1944 -0.5805
13 13 13 4.2689 0.6206
13 13 14 1.3752 -0.2264
13 13 15 10.8199 -0.4946
13 13 16 6.7287 -0.0898
13 13 17 7.0961 -0.7582
13 13 18 -8.2638 0.2725
13 14 1 5.2629 -6.5780
13 14 2 -5.8061 -2.9352
13 14 3 -6.9424 -0.2470
13 14 4 2.1504 0.5164
13 14 5 -3.1810 0.9560
13 14 6 -0.9248 0.5120
13 14 7 -3.6833 0.1961
13 14 8 -1.5290 1.5690
13 14 9 -0.6310 0.2016
13 14 10 -2.8993 0.2049
13 14 11 -0.6172 -0.5242
13 14 12 -6.0083 -0.7324
13 14 13 2.4106 -0.3508
13 14 14 6.6294 -0.2138
13 14 15 -3.1809 0.0354
13 14 16 1.4398 -0.4728
13 14 17 2.3007 0.2233
13 14 18 6.4739 -0.4786
13 15 0 9.6567 -8.8654
13 15 1 7.1109 6.0998
13 15 2 2.1890 -1.3141
13 15 3 -3.1435 1.5604
13 15 4 -3.7259 2.5963
13 15 5 0.3167 -0.7244
13 15 6 -0.8249 1.7517
13 15 7 -3.2374 -0.1289
13 15 8 4.2656 -0.1378
13 15 9 2.0178 0.1511
13 15 10 1.8353 -1.0498
13 15 11 0.2189 0.6753
13 15 12 -12.6147 -0.3433
13 15 13 8.0022 0.1804
13 15 14 1.9044 0.7427
13 15 15 10.5276 0.4410
13 15 16 -8.0813 0.5992
13 15 17 -8.9777 -0.3254
13 15 18 3.5240 0.0085
13 16 1 10.6599 -7.4407
13 16 2 2.4171 0.3536
13 16 3 3.3553 -1.8542
13 16 4 -1.8402 -0.5138
13 16 5 2.3063 1.3282
13 16 6 -2.5902 0.0738
13 16 7 -4.4714 0.1575
13 16 8 6.9299 0.2299
13 16 9 -4.2650 -0.4388
13 16 10 7.6408 1.2326
13 16 11 8.0845 -0.5150
13 16 12 3.7683 -0.4469
13 16 13 -5.2383 -0.2400
13 16 14 2.9470 -0.9022
13 16 15 -3.7014 0.5021
13 16 16 2.0572 -0.1209
13 16 17 -11.8106 0.4622
13 17 0 0.1839 -15.0152
13 17 1 6.5549 5.0033
13 17 2 -2.2832 -1.7503
13 17 3 3.9991 1.9493
13 17 4 -0.8216 0.6429
13 17 5 1.8011 -1.1199
13 17 6 -1.3028 1.5928
13 17 7 -0.2407 -0.5479
13 17 8 -4.3402 0.2967
13 17 9 -0.6818 -0.6912
13 17 10 -7.8808 -0.3372
13 17 11 -1.0300 0.6813
13 17 12 6.5541 0.1947
13 17 13 1.0303 0.6128
13 17 14 5.7807 0.1177
13 17 15 1.7888 -0.5325
13 17 16 -4.7969 0.2507
13 17 17 -0.1880 -1.2540
13 18 1 9.1741 -0.8398
13 18 2 2.8640 -3.3033
13 18 3 2.8717 1.2336
13 18 4 3.5475 0.8001
13 18 5 -2.8404 0.4933
13 18 6 1.9536 0.9367
13 18 7 -1.9993 0.2023
13 18 8 2.2241 -0.2670
13 18 9 7.3855 -0.8948
13 18 10 -4.4291 -0.1500
13 18 11 -2.2911 -0.3285
13 18 12 -5.8337 0.2894
13 18 13 3.2691 0.1716
13 18 14 -0.0875 0.4069
13 18 15 0.2258 0.6802
13 18 16 2.0896 -0.3489
13 18 17 -2.0726 0.2857
13 19 0 -6.1172 -22.1996
13 19 1 1.0771 11.8665
13 19 2 -1.6958 -0.3644
13 19 3 -0.6021 0.9250
13 19 4 1.2351 1.4818
13 19 5 -2.2191 -0.6792
13 19 6 -3.6986 0.1897
13 19 7 5.2963 -1.3671
13 19 8 -1.2090 0.3905
13 19 9 0.0225 0.0220
13 19 10 4.5016 -0.0989
13 19 11 10.1964 0.4231
13 19 12 -3.8336 -0.0783
13 19 13 8.2711 0.0384
13 19 14 -3.5097 0.5921
13 19 15 8.3173 -0.2878
13 19 16 -14.6106 -0.0980
13 19 17 -4.2859 -0.0684
13 20 1 2.6555 -8.7412
13 20 2 -4.7443 -2.3024
13 20 3 0.6876 -1.3099
13 20 4 -0.0317 -1.2693
13 20 5 1.4483 1.8935
13 20 6 -2.0916 -0.3515
13 20 7 -4.5062 0.2946
13 20 8 3.1178 0.6169
13 20 9 -5.4213 -0.8066
13 20 10 -3.3679 -0.0218
13 20 11 -1.7230 0.1200
13 20 12 0.3760 -0.0835
13 20 13 3.5583 -0.2452
13 20 14 2.0795 0.1402
13 20 15 11.5068 0.2248
13 20 16 3.4643 0.1295
13 20 17 -7.2721 0.4196
13 21 0 1.0936 -5.4824
13 21 1 4.9276 4.5422
13 21 2 2.4515 -0.8130
13 21 3 4.5389 2.1626
13 21 4 -2.4332 -0.3062
13 21 5 3.3057 -1.4626
13 21 6 7.3711 0.6139
13 21 7 1.5336 -1.2446
13 21 8 0.4685 0.0079
13 21 9 -5.4130 -0.1550
13 21 10 -5.6489 0.4167
13 21 11 0.9773 0.2252
13 21 12 -1.5801 0.3719
13 21 13 0.0581 0.4142
13 21 14 -2.2467 -0.0794
13 21 15 -5.5404 0.2215
13 21 16 7.4092 -0.1046
13 22 1 -0.3409 2.6259
13 22 2 0.8240 -2.2518
13 22 3 3.3022 1.5166
13 22 4 0.9598 0.4293
13 22 5 -11.2360 0.0038
13 22 6 4.0331 -0.0566
13 22 7 3.4330 0.2391
13 22 8 2.1812 0.3439
13 22 9 3.6055 -0.4921
13 22 10 0.8308 -0.0414
13 22 11 -9.5218 -0.6517
13 22 12 -2.0412 -0.2127
13 22 13 1.7642 0.0547
13 22 14 -8.9206 -0.2056
13 22 15 -6.0929 -0.0567
13 22 16 0.4168 0.4531
13 23 0 -2.1128 -13.2993
13 23 1 9.1373 0.6619
13 23 2 -0.7251 1.2383
13 23 3 -0.5044 -1.3391
13 23 4 4.8085 2.7011
13 23 5 -0.8132 -0.9286
13 23 6 -3.5277 -0.0515
13 23 7 -4.8208 0.1706
13 23 8 0.7709 0.3031
13 23 9 -1.8414 -0.3039
13 23 10 4.6699 -0.9624
13 23 11 12.6500 -0.2991
13 23 12 3.7707 -0.3071
13 23 13 8.4845 -0.3128
13 23 14 11.9369 0.4658
13 23 15 1.7115 -0.3941
13 23 16 -3.0919 0.1902
13 24 1 -1.9479 -3.5209
13 24 2 2.8565 5.7641
13 24 3 1.4318 1.0407
13 24 4 -3.6350 -0.4157
13 24 5 4.2406 2.2716
13 24 6 4.2969 0.0402
13 24 7 -1.3147 -0.6186
13 24 8 -0.3785 -0.7250
13 24 9 4.0700 -0.6627
13 24 10 1.0006 -0.7700
13 24 11 -0.1609 -0.0910
13 24 12 11.4589 0.0477
13 24 13 2.7814 0.4137
13 24 14 6.9762 0.1552
13 24 15 8.6652 -0.2788
13 24 16 7.8806 -0.0127
13 25 0 -12.0244 7.1835
13 25 1 2.2081 -3.8796
13 25 2 -4.0531 -0.2773
13 25 3 -2.4236 2.3888
13 25 4 -8.5552 -1.6517
13 25 5 1.1588 -2.1496
13 25 6 -1.7143 -1.1906
13 25 7 -1.0746 -1.3414
13 25 8 -7.3831 0.9538
13 25 9 -5.5117 0.8660
13 25 10 -2.1354 -0.2012
13 25 11 -16.3476 0.2796
13 25 12 -7.5884 0.5232
13 25 13 -10.0503 -0.4873
13 25 14 2.0939 0.2203
13 25 15 -8.4155 -0.3243
13 25 16 4.7114 -0.4755
13 26 1 -5.6612 0.9401
13 26 2 -3.5002 -0.7974
13 26 3 2.4682 -1.1291
13 26 4 2.4101 0.3542
13 26 5 -4.5889 -0.3805
13 26 6 4.6758 1.4043
13 26 7 0.3395 0.3370
13 26 8 -9.5260 -0.3227
13 26 9 -2.1563 0.9094
13 26 10 -4.8690 -0.2488
13 26 11 -5.3472 0.3399
13 26 12 -6.6766 -0.3175
13 26 13 -15.3746 0.1270
13 26 14 1.8177 0.0350
13 26 15 -13.4552 -0.1621
13 27 0 5.2902 -3.5993
13 27 1 14.5366 0.3789
13 27 2 0.7684 0.9633
13 27 3 -1.7624 -0.9519
13 27 4 2.4156 0.7482
13 27 5 -0.4768 -0.2113
13 27 6 -2.2994 0.6885
13 27 7 3.9194 0.3233
13 27 8 -1.4573 0.1926
13 27 9 5.7796 0.4803
13 27 10 1.1155 0.2448
13 27 11 5.7726 0.0304
13 27 12 13.1056 -0.5645
13 27 13 -1.7755 -0.7042
13 27 14 17.3595 0.1135
13 27 15 -4.3961 -0.4977
13 28 1 1.8105 2.4476
13 28 2 7.1207 1.4656
13 28 3 0.0773 -0.8776
13 28 4 -3.5781 -0.4733
13 28 5 0.2409 -1.7511
13 28 6 -0.7837 -0.9562
13 28 7 2.1346 0.0209
13 28 8 -3.2641 -0.7176
13 28 9 4.8019 0.1679
13 28 10 -6.0043 -0.1995
13 28 11 -4.0321 0.3678
13 28 12 8.4000 0.0708
13 28 13 -11.2768 0.7562
13 28 14 6.3829 0.0757
13 28 15 1.3068 0.2661
13 29 0 -4.0616 -1.0011
13 29 1 3.6892 -2.0524
13 29 2 -0.6712 0.8740
13 29 3 3.0571 -0.6894
13 29 4 -1.8533 -0.2019
13 29 5 4.1039 0.0597
13 29 6 -3.0676 1.0116
13 29 7 1.7607 0.7150
13 29 8 0.6104 0.2372
13 29 9 3.2630 -0.0746
13 29 10 -0.5245 0.5389
13 29 11 -4.4226 -0.2182
13 29 12 -1.2973 -0.3173
13 29 13 7.2274 -0.0627
13 29 14 6.1528 -0.2944
13 30 1 1.1031 2.6942
13 30 2 3.2288 1.6318
13 30 3 2.1344 0.3908
13 30 4 -8.7721 0.7832
13 30 5 -6.2125 -0.4860
13 30 6 -0.1200 -0.7319
13 30 7 2.9574 -0.2762
13 30 8 -2.5505 -0.2036
13 30 9 -0.3244 0.0510
13 30 10 0.8027 -0.2086
13 30 11 4.8271 -0.2607
13 30 12 -6.5668 0.6887
13 30 13 -0.8438 -0.1029
13 30 14 2.3999 0.2435
13 31 0 -1.4056 9.3348
13 31 1 2.1046 -0.3628
13 31 2 2.3332 0.5216
13 31 3 2.4054 -0.7681
13 31 4 3.6927 -1.1545
13 31 5 -4.1353 -0.2832
13 31 6 -8.2107 0.5082
13 31 7 -2.7439 -0.0037
13 31 8 0.9505 0.4820
13 31 9 -7.1475 -0.5438
13 31 10 -7.4498 -0.1145
13 31 11 -6.0772 0.3667
13 31 12 0.1877 0.1329
13 31 13 -7.0133 1.1176
13 32 1 1.0878 5.2830
13 32 2 7.2406 0.6438
13 32 3 2.1643 -1.1714
13 32 4 -1.5255 -0.1450
13 32 5 -1.1816 -1.7344
13 32 6 1.7802 0.4006
13 32 7 -7.3895 -0.2294
13 32 8 -4.4376 0.5564
13 32 9 4.3002 1.1158
13 32 10 4.8243 -0.1159
13 32 11 -12.2641 0.1993
13 32 12 8.5399 0.1111
13 33 0 -10.6469 4.6633
13 33 1 4.2594 0.5904
13 33 2 2.2714 0.4150
13 33 3 2.6411 -1.1018
13 33 4 4.5113 -0.7266
13 33 5 1.8181 -1.2220
13 33 6 0.1462 -0.2917
13 33 7 0.6694 0.3062
13 33 8 -2.6006 0.6946
13 33 9 -4.6886 0.3149
13 33 10 6.9386 0.4500
13 33 11 6.5812 0.3927
13 33 12 -1.7331 -0.1575
13 34 1 -3.5564 3.1429
13 34 2 7.0503 0.8503
13 34 3 -0.2275 -2.5322
13 34 4 -1.8981 0.1060
13 34 5 1.0307 -0.9679
13 34 6 3.4591 0.0625
13 34 7 -1.6536 1.1153
13 34 8 0.2349 0.3205
13 34 9 -2.4551 0.4006
13 34 10 -7.1967 0.4282
13 34 11 -2.4548 -0.8728
13 34 12 5.5863 1.0712
13 35 0 -5.9296 -3.2811
13 35 1 -1.4695 -0.8733
13 35 2 -4.1307 1.0148
13 35 3 -0.5467 -0.2917
13 35 4 -3.5274 0.1873
13 35 5 3.1577 1.5594
13 35 6 1.3970 -0.5496
13 35 7 -4.2400 0.8990
13 35 8 5.0007 0.4889
13 35 9 0.7219 -0.5824
13 35 10 -11.7075 -0.6134
13 35 11 -9.5325 -0.9960
13 36 1 -0.2214 0.2046
13 36 2 -1.3280 2.3870
13 36 3 -0.7470 -0.2568
13 36 4 -1.4449 -1.0203
13 36 5 -11.9117 -0.1288
13 36 6 -1.3459 0.5096
13 36 7 -0.5120 0.6002
13 36 8 2.2950 -0.0241
13 36 9 6.0792 1.1900
13 36 10 4.4335 0.2764
13 36 11 -1.4767 1.1023
13 37 0 -8.3876 0.4549
13 37 1 5.5346 -0.1911
13 37 2 -4.3943 -2.3454
13 37 3 8.1219 -0.3817
13 37 4 1.0642 -1.3093
13 37 5 13.7102 -1.6039
13 37 6 -3.4344 0.0954
13 37 7 -9.3881 0.0643
13 37 8 -2.2313 0.4704
13 37 9 2.9707 -0.4177
13 37 10 -11.0033 0.0483
13 38 1 -8.7578 -0.8733
13 38 2 0.9964 -0.5330
13 38 3 5.4221 -2.5287
13 38 4 5.3975 -0.1536
13 38 5 -2.8043 -0.6939
13 38 6 7.7525 -0.3801
13 38 7 6.1936 0.8970
13 38 8 -1.0429 0.5408
13 38 9 0.5813 -0.6583
13 39 0 11.5538 2.7189
13 39 1 -12.5405 2.2768
13 39 2 -7.3153 2.0719
13 39 3 -2.0428 1.1382
13 39 4 0.3427 -0.5218
13 39 5 2.4037 0.9024
13 39 6 -7.7444 -0.3570
13 39 7 -1.6199 0.3784
13 39 8 7.1795 -0.5648
13 40 1 3.0438 -2.6800
13 40 2 0.5154 -0.4350
13 40 3 -3.5819 -0.7875
13 40 4 2.8130 0.0196
13 40 5 -4.5118 -1.0649
13 40 6 -3.8741 1.4217
13 40 7 -9.5555 0.6258
13 41 0 -5.0796 -0.6648
13 41 1 -8.5926 0.1386
13 41 2 0.6621 -0.8902
13 41 3 6.2791 0.3880
13 41 4 -11.7248 -0.2197
13 41 5 6.2103 -0.8326
13 42 1 -13.0546 -1.1003
13 42 2 -0.4847 1.3176
13 42 3 3.3221 -0.6463
13 42 4 -4.1447 0.2116
13 43 0 18.4836 -2.8403
13 43 1 -6.3207 0.2331
13 43 2 -3.2480 1.1297
13 43 3 0.6376 0.2462
14 1 1 -5.1654 4.4975
14 1 2 5.8118 0.7870
14 1 3 -3.6062 1.2453
14 1 4 2.9113 0.1129
14 1 5 -6.9724 -2.2342
14 1 6 0.1237 1.1626
14 1 7 1.6415 -0.5172
14 1 8 -4.0534 -0.9133
14 1 9 0.2450 1.8781
14 1 10 0.5550 0.2786
14 1 11 -0.4224 0.6374
14 1 12 6.3998 0.7266
14 1 13 6.0876 -0.5418
14 1 14 -10.1497 -0.2532
14 1 15 -1.0289 -0.1943
14 1 16 -4.3224 0.2649
14 1 17 -17.0745 -0.0679
14 1 18 -7.5834 0.0244
14 1 19 -1.2899 0.7296
14 2 0 22.0690 -17.6626
14 2 1 -3.5247 -2.6066
14 2 2 8.4256 -1.4775
14 2 3 0.5764 -0.7606
14 2 4 -6.3067 -0.2837
14 2 5 0.0536 -0.3782
14 2 6 -4.4023 0.7137
14 2 7 1.7509 0.8451
14 2 8 -1.5031 -0.4204
14 2 9 -1.5317 -0.0192
14 2 10 -2.9272 -0.4841
14 2 11 -1.1020 -0.1156
14 2 12 -4.2457 0.1993
14 2 13 10.5197 0.0317
14 2 14 12.7586 0.5747
14 2 15 3.5719 -0.0013
14 2 16 2.1601 0.2487
14 2 17 -3.6972 0.5774
14 2 18 1.4315 -0.2171
14 2 19 -10.4178 0.1561
14 3 1 8.8291 -7.1006
14 3 2 12.6511 1.8581
14 3 3 5.3742 -1.5772
14 3 4 5.8170 -1.2704
14 3 5 -0.5493 -1.4212
14 3 6 -6.9815 -2.0282
14 3 7 -0.5461 -0.2671
14 3 8 -0.2221 -0.6055
14 3 9 -0.9061 0.8927
14 3 10 -0.0031 0.2640
14 3 11 -4.6830 0.9493
14 3 12 -0.5047 0.2644
14 3 13 -3.5809 -0.1266
14 3 14 -5.5358 -0.0534
14 3 15 6.0519 0.0960
14 3 16 10.7707 -0.0949
14 3 17 -1.7896 0.3185
14 3 18 4.1898 -0.0072
14 3 19 -1.9146 0.7447
14 4 0 4.4546 -20.6075
14 4 1 0.0936 1.6177
14 4 2 6.4238 1.7857
14 4 3 11.1849 3.6609
14 4 4 2.7142 3.0940
14 4 5 13.0843 2.5721
14 4 6 -2.0176 0.7210
14 4 7 -3.6410 -0.1474
14 4 8 -2.9341 -0.9689
14 4 9 3.6700 -0.7257
14 4 10 3.3841 -0.3874
14 4 11 5.9370 -0.3380
14 4 12 3.4939 -0.2665
14 4 13 9.3149 0.4692
14 4 14 -7.4132 -0.1527
14 4 15 -2.9544 0.2035
14 4 16 -9.9445 0.0217
14 4 17 2.9776 -0.0063
14 4 18 2.7397 -0.1012
14 4 19 11.3916 0.1408
14 5 1 1.5608 2.8018
14 5 2 5.9491 2.0870
14 5 3 -4.0140 5.5644
14 5 4 -1.9376 1.2869
14 5 5 1.3271 0.9205
14 5 6 2.5309 -0.2827
14 5 7 -1.6122 -1.6466
14 5 8 -1.0970 -0.5856
14 5 9 4.3417 0.3703
14 5 10 3.6409 0.3689
14 5 11 -2.9348 0.5479
14 5 12 4.7875 0.3256
14 5 13 5.9059 0.0191
14 5 14 1.9417 -0.0383
14 5 15 -4.6956 -0.0646
14 5 16 6.7995 0.0965
14 5 17 -6.7242 -0.4237
14 5 18 -4.4549 -0.3618
14 5 19 -2.2061 -0.0227
14 6 0 -6.6368 -2.3254
14 6 1 3.0996 2.3068
14 6 2 -12.1929 0.2268
14 6 3 -1.4087 0.9090
14 6 4 -2.9435 -0.7205
14 6 5 1.4035 -3.3554
14 6 6 -1.0019 -0.1822
14 6 7 -1.8750 -1.4221
14 6 8 -5.3077 -1.4400
14 6 9 -2.5506 0.3660
14 6 10 2.3422 -0.4500
14 6 11 -1.5143 0.8296
14 6 12 1.4863 -0.0302
14 6 13 1.1325 0.5219
14 6 14 0.2339 0.2321
14 6 15 10.5971 -0.0067
14 6 16 -16.5998 0.2878
14 6 17 10.9457 0.1843
14 6 18 0.6583 -0.1011
14 6 19 1.3428 0.1127
14 7 1 11.4162 3.8276
14 7 2 3.1802 -3.8288
14 7 3 -2.1495 0.1107
14 7 4 -9.8450 -0.4555
14 7 5 4.7549 -1.6813
14 7 6 3.5825 -2.4172
14 7 7 -2.3959 -0.4054
14 7 8 -0.4516 0.6706
14 7 9 1.4905 0.7752
14 7 10 -8.8923 1.1413
14 7 11 3.5170 0.1032
14 7 12 4.0662 -0.4532
14 7 13 4.6502 -0.6320
14 7 14 2.6725 -0.6708
14 7 15 5.3951 -0.8938
14 7 16 3.9366 0.4900
14 7 17 2.1652 0.0478
14 7 18 -0.8909 0.6684
14 7 19 15.0483 -0.0406
14 8 0 0.2121 -2.8249
14 8 1 14.0909 -1.2186
14 8 2 4.8951 4.6976
14 8 3 3.8262 2.4938
14 8 4 -6.8694 3.1377
14 8 5 -4.1400 1.2137
14 8 6 0.3211 0.8491
14 8 7 -1.1807 0.5446
14 8 8 0.8575 -0.3054
14 8 9 -4.0176 0.5908
14 8 10 -0.2944 -0.7409
14 8 11 -8.5259 0.4286
14 8 12 5.8396 -0.7861
14 8 13 0.8031 -0.1761
14 8 14 3.4949 -0.2839
14 8 15 6.3308 -0.4555
14 8 16 -10.6926 0.0762
14 8 17 5.4977 -0.3691
14 8 18 -22.9564 -0.0662
14 8 19 15.6163 -0.0708
14 9 1 13.6941 5.9607
14 9 2 9.1095 -0.8177
14 9 3 14.2168 4.5274
14 9 4 1.5789 0.4510
14 9 5 -0.8879 1.1305
14 9 6 0.6498 2.1640
14 9 7 -2.0031 -0.9353
14 9 8 2.2361 0.5123
14 9 9 0.4198 -0.3574
14 9 10 2.4774 -0.7947
14 9 11 0.3619 0.0101
14 9 12 -0.1271 -0.3073
14 9 13 2.6298 0.0784
14 9 14 3.8566 -0.0340
14 9 15 -1.2864 -0.0337
14 9 16 5.6016 0.0835
14 9 17 9.7424 -0.2303
14 9 18 -9.1891 0.4043
14 10 0 -11.1811 -9.0832
14 10 1 3.4240 -8.2174
14 10 2 -6.8156 0.5124
14 10 3 9.8802 -0.9420
14 10 4 6.0734 0.9144
14 10 5 2.0250 -2.0659
14 10 6 8.1936 -0.4719
14 10 7 3.4238 -0.0599
14 10 8 1.4572 -0.8023
14 10 9 -9.4196 1.5021
14 10 10 5.3624 -0.4568
14 10 11 1.5271 0.3299
14 10 12 7.5042 -0.0672
14 10 13 7.0425 -0.1747
14 10 14 -0.2056 0.6233
14 10 15 -5.8193 0.1023
14 10 16 -8.0109 0.7456
14 10 17 7.7528 0.1777
14 10 18 2.0720 -0.2519
14 11 1 12.3990 -0.8059
14 11 2 0.1290 -4.0483
14 11 3 6.0893 -0.5452
14 11 4 -6.9012 -0.9864
14 11 5 -1.4669 -0.4786
14 11 6 -0.7154 0.2835
14 11 7 0.9565 -0.6244
14 11 8 5.7246 0.9193
14 11 9 13.1971 -0.2187
14 11 10 -7.1285 1.0333
14 11 11 -2.6759 0.6184
14 11 12 -3.7825 -0.9997
14 11 13 3.3085 0.3283
14 11 14 5.1842 -0.4791
14 11 15 -0.7265 0.1404
14 11 16 -7.0691 0.0007
14 11 17 1.2436 -0.1416
14 11 18 -12.9092 0.0317
14 12 0 -12.9834 -5.7486
14 12 1 -0.4383 3.4132
14 12 2 -2.2210 2.5018
14 12 3 3.0412 -1.5982
14 12 4 -2.0135 1.5980
14 12 5 -4.5468 1.2034
14 12 6 -2.3998 -0.6387
14 12 7 -0.7527 0.4746
14 12 8 -4.6757 -0.4875
14 12 9 7.3597 0.7611
14 12 10 10.8860 0.7804
14 12 11 -2.5790 0.5840
14 12 12 4.8302 0.2502
14 12 13 -3.6084 -0.2564
14 12 14 11.6243 -0.1860
14 12 15 0.5572 -0.4458
14 12 16 3.3373 -0.0861
14 12 17 14.9734 -0.1110
14 12 18 -9.6700 -0.0576
14 13 1 -4.5556 1.2239
14 13 2 2.0872 -3.0992
14 13 3 0.1347 3.5625
14 13 4 0.8618 0.3533
14 13 5 -1.9001 0.4519
14 13 6 -0.8849 1.4403
14 13 7 -0.0034 -1.0948
14 13 8 -9.8823 0.2805
14 13 9 -0.0689 -1.1254
14 13 10 4.4284 -0.4978
14 13 11 -0.3791 -0.1298
14 13 12 -5.9376 -0.3734
14 13 13 -0.2593 1.0649
14 13 14 0.8811 -0.5919
14 13 15 -5.6105 1.4150
14 13 16 0.4511 -0.0966
14 13 17 0.2388 0.1014
14 13 18 -6.5037 -0.0110
14 14 0 10.9756 16.8135
14 14 1 7.0800 3.4387
14 14 2 0.7237 1.5129
14 14 3 -1.8673 -2.2505
14 14 4 2.1688 -3.9318
14 14 5 1.0946 -1.3767
14 14 6 1.7508 -1.7145
14 14 7 0.2413 -0.4423
14 14 8 -0.4291 -0.0933
14 14 9 -0.3799 0.0294
14 14 10 -8.1174 0.5032
14 14 11 8.8620 -0.0377
14 14 12 2.8470 0.0063
14 14 13 -3.4474 0.1145
14 14 14 3.4934 -0.0561
14 14 15 -0.9407 -0.1990
14 14 16 2.3083 -0.2499
14 14 17 -4.3489 0.4110
14 15 1 12.2607 -2.8446
14 15 2 11.1926 -6.2188
14 15 3 3.0003 -0.1693
14 15 4 -0.1649 -2.2604
14 15 5 1.6615 -1.2018
14 15 6 4.4936 0.7333
14 15 7 3.2792 -0.5404
14 15 8 1.5889 3.0119
14 15 9 2.0967 0.1126
14 15 10 -0.3031 0.2448
14 15 11 -5.5331 0.9744
14 15 12 3.4764 -1.3328
14 15 13 4.1757 0.6179
14 15 14 -0.8461 -0.5875
14 15 15 -6.0535 0.1571
14 15 16 0.4166 0.1439
14 15 17 6.3108 0.0383
14 16 0 -18.9931 5.1053
14 16 1 0.3363 -2.2671
14 16 2 0.3396 -1.2275
14 16 3 0.9955 -1.7779
14 16 4 3.3496 1.3483
14 16 5 -3.4920 0.1371
14 16 6 0.0276 1.2463
14 16 7 -0.6457 1.8852
14 16 8 0.5586 0.5757
14 16 9 7.3061 0.0318
14 16 10 4.0731 0.0097
14 16 11 -0.8052 -1.3910
14 16 12 2.0268 0.1986
14 16 13 -2.5084 -1.1911
14 16 14 9.4756 -0.0538
14 16 15 -6.7736 0.1896
14 16 16 4.2969 0.0195
14 16 17 2.3554 0.2807
14 17 1 -0.3347 1.3615
14 17 2 1.5113 1.6371
14 17 3 -4.3259 3.1956
14 17 4 0.8146 1.4827
14 17 5 -2.5336 3.1125
14 17 6 0.0399 0.7470
14 17 7 -5.4237 -0.4047
14 17 8 -1.5674 -0.4122
14 17 9 2.4509 -2.0902
14 17 10 7.1293 -0.7445
14 17 11 4.4554 -1.1835
14 17 12 5.7094 -0.4871
14 17 13 7.0317 0.5915
14 17 14 5.7102 0.0330
14 17 15 -4.5251 0.9337
14 17 16 11.6119 0.1395
14 17 17 1.1762 0.0799
14 18 0 -2.2456 15.3083
14 18 1 4.7552 2.2998
14 18 2 3.2212 1.9680
14 18 3 -2.6191 -1.1824
14 18 4 2.7557 -2.0884
14 18 5 -0.4161 -1.1843
14 18 6 0.0295 -1.6651
14 18 7 0.3380 -0.2236
14 18 8 -3.9926 0.8169
14 18 9 0.7197 -1.0106
14 18 10 0.7704 0.9068
14 18 11 -4.5453 -0.4793
14 18 12 -2.3181 0.7621
14 18 13 3.1278 -0.0579
14 18 14 0.6194 -0.1433
14 18 15 -0.0368 0.2146
14 18 16 -0.3207 -0.4763
14 18 17 -0.0528 0.5518
14 19 1 1.5074 -2.7920
14 19 2 2.5767 -2.4120
14 19 3 -1.8234 0.3756
14 19 4 -1.9693 -2.2270
14 19 5 1.2984 0.4724
14 19 6 0.6673 -0.8144
14 19 7 -0.5040 -0.3989
14 19 8 -0.3468 0.5703
14 19 9 -4.2422 -0.2174
14 19 10 -0.1583 0.8106
14 19 11 -8.6140 0.1819
14 19 12 -6.5978 -0.6560
14 19 13 -6.3227 0.1865
14 19 14 -2.5164 -0.1020
14 19 15 -6.9137 0.1210
14 19 16 1.9479 0.0585
14 19 17 -2.7252 -0.0891
14 20 0 -1.8549 4.9607
14 20 1 0.4947 1.5620
14 20 2 3.5273 -1.5435
14 20 3 2.4826 -0.6650
14 20 4 1.6303 -0.6456
14 20 5 -1.8938 2.2918
14 20 6 1.6612 1.0617
14 20 7 -1.0548 1.2556
14 20 8 2.1478 1.7827
14 20 9 0.1366 0.3370
14 20 10 6.6371 0.7963
14 20 11 5.7684 -0.5495
14 20 12 13.2985 0.4398
14 20 13 1.0415 -0.6523
14 20 14 -1.9888 -0.4925
14 20 15 -14.0036 0.0674
14 20 16 4.0876 -0.7510
14 21 1 0.4781 0.0407
14 21 2 2.8145 0.9917
14 21 3 -0.5729 3.7102
14 21 4 4.5123 -0.2604
14 21 5 -4.2828 2.5677
14 21 6 1.6857 0.0053
14 21 7 4.6539 -0.0983
14 21 8 -2.3813 -0.0174
14 21 9 4.5535 -0.4875
14 21 10 -5.9067 -0.0595
14 21 11 3.9990 -0.3924
14 21 12 6.2870 -0.0920
14 21 13 12.0681 -0.3732
14 21 14 19.1114 -0.1952
14 21 15 -15.6842 -0.0089
14 21 16 -5.0671 0.1534
14 22 0 -0.0273 4.0740
14 22 1 -0.8951 -4.0508
14 22 2 1.3762 -4.2002
14 22 3 -6.8432 -0.9281
14 22 4 3.7392 -2.6159
14 22 5 -5.0839 -0.5363
14 22 6 -3.4528 0.0741
14 22 7 3.7967 -0.2702
14 22 8 -2.6025 0.2157
14 22 9 -3.9708 -0.0361
14 22 10 -0.0569 -0.1496
14 22 11 0.9528 -0.7931
14 22 12 -9.4184 0.0278
14 22 13 8.0075 -0.0028
14 22 14 4.8768 0.4531
14 22 15 4.1075 0.1536
14 22 16 -2.9708 -0.4268
14 23 1 -2.2462 -0.9148
14 23 2 6.9052 -4.6184
14 23 3 -0.1211 -0.4115
14 23 4 -3.8223 -0.5749
14 23 5 -0.2028 1.1529
14 23 6 -4.9352 -1.7923
14 23 7 4.0488 -0.0901
14 23 8 4.3906 -0.3246
14 23 9 4.4753 0.1995
14 23 10 0.2414 1.0848
14 23 11 12.3741 -0.2887
14 23 12 -5.0628 0.3298
14 23 13 1.9202 0.4813
14 23 14 -1.3920 0.0422
14 23 15 10.1128 0.4212
14 23 16 3.0287 0.1398
14 24 0 5.4469 1.7051
14 24 1 -3.9970 -0.8702
14 24 2 -0.5489 0.7088
14 24 3 0.6132 0.4615
14 24 4 1.7945 0.8855
14 24 5 -2.5039 1.7197
14 24 6 -3.5583 -0.1136
14 24 7 -1.1897 0.3902
14 24 8 -5.2059 -0.4005
14 24 9 -3.0561 -0.5829
14 24 10 4.2078 0.4882
14 24 11 -4.1106 -0.0586
14 24 12 8.0587 -0.7610
14 24 13 11.0584 0.2970
14 24 14 -6.9984 -0.3365
14 24 15 -2.0916 0.3379
14 24 16 1.1619 0.1592
14 25 1 -0.3534 0.1935
14 25 2 -1.6136 0.3229
14 25 3 0.6351 1.9984
14 25 4 -2.3316 -0.0703
14 25 5 -1.0711 0.6628
14 25 6 1.5379 -0.1088
14 25 7 -3.3990 -1.0504
14 25 8 -10.6508 -1.1949
14 25 9 -8.8407 -0.1127
14 25 10 -5.3162 0.2081
14 25 11 -8.0685 0.2352
14 25 12 -13.2534 1.2046
14 25 13 0.1608 0.0268
14 25 14 11.3964 0.2057
14 25 15 0.5277 -0.3848
14 26 0 4.4465 3.8979
14 26 1 5.6671 -1.4085
14 26 2 8.3621 -1.7276
14 26 3 0.6101 0.7543
14 26 4 5.4590 -0.3484
14 26 5 -0.9701 -0.9712
14 26 6 -0.2099 -0.0681
14 26 7 9.7064 -0.1023
14 26 8 -1.4628 -0.8965
14 26 9 -3.1468 0.1726
14 26 10 2.6797 -0.9229
14 26 11 5.8601 0.0570
14 26 12 -3.4592 0.0759
14 26 13 -3.7839 -0.2060
14 26 14 -8.7268 0.2597
14 26 15 8.9643 -0.0103
14 27 1 -2.2104 -0.7074
14 27 2 4.5325 0.5211
14 27 3 -1.2631 -1.4748
14 27 4 1.2690 -0.5961
14 27 5 1.2276 -1.5142
14 27 6 -4.6937 -0.8158
14 27 7 2.3625 0.6114
14 27 8 -1.3884 -0.0450
14 27 9 0.1545 0.1735
14 27 10 4.1537 1.1284
14 27 11 3.0793 -0.0263
14 27 12 6.0436 0.0482
14 27 13 6.2500 -0.4435
14 27 14 -6.4312 -0.0212
14 27 15 2.5430 -0.2837
14 28 0 0.0467 -11.4852
14 28 1 0.2682 -0.6387
14 28 2 0.8167 -0.2274
14 28 3 1.6809 1.7452
14 28 4 -2.0583 1.3453
14 28 5 3.3394 1.4638
14 28 6 -3.5066 0.2177
14 28 7 -1.4816 0.4642
14 28 8 -0.0221 0.0635
14 28 9 -12.6523 -0.6994
14 28 10 -1.0576 -0.6651
14 28 11 -5.6233 0.1678
14 28 12 1.7041 -0.1582
14 28 13 7.5457 0.4053
14 28 14 0.1946 0.2585
14 29 1 0.6686 0.9397
14 29 2 0.1959 2.4476
14 29 3 1.0463 0.9879
14 29 4 -1.3631 0.7057
14 29 5 3.7511 0.3370
14 29 6 -1.6638 -0.3462
14 29 7 -4.1432 0.2106
14 29 8 7.0249 -0.2637
14 29 9 -1.0739 -0.2440
14 29 10 1.9109 -0.2472
14 29 11 3.4044 -0.0674
14 29 12 -3.6374 -0.0919
14 29 13 -4.9063 -0.0901
14 29 14 -0.1205 0.2288
14 30 0 -4.5881 -10.9218
14 30 1 6.1162 5.1676
14 30 2 -2.2426 1.1075
14 30 3 6.0025 1.4978
14 30 4 0.6860 0.4673
14 30 5 3.5106 -1.0211
14 30 6 -1.2755 -0.4359
14 30 7 -2.7878 -0.5914
14 30 8 -1.6333 -0.7391
14 30 9 -1.7433 0.4093
14 30 10 -4.2717 -0.1635
14 30 11 2.6260 0.2894
14 30 12 9.0608 0.1413
14 30 13 0.6681 0.8127
14 30 14 -4.7979 1.1965
14 31 1 -4.9798 -0.8713
14 31 2 -0.7000 0.6395
14 31 3 0.1184 -0.4130
14 31 4 -0.6500 0.4758
14 31 5 3.6158 -0.5113
14 31 6 0.6638 -1.4387
14 31 7 -3.1282 -0.1284
14 31 8 -5.8707 -0.1534
14 31 9 1.6080 0.3257
14 31 10 -5.7539 0.3537
14 31 11 -2.2810 0.4019
14 31 12 -0.0329 0.3363
14 31 13 4.4612 0.2441
14 32 0 0.1066 -10.8700
14 32 1 -0.4535 2.6517
14 32 2 -0.8410 0.9055
14 32 3 -2.7744 1.1898
14 32 4 0.8163 0.6977
14 32 5 -5.5664 -0.7566
14 32 6 2.6661 0.4196
14 32 7 2.5319 -0.4449
14 32 8 -4.1519 -0.0672
14 32 9 -11.4463 1.2649
14 32 10 2.9248 -0.0772
14 32 11 -3.2124 0.5973
14 32 12 -5.8920 0.0604
14 33 1 -2.8968 1.3689
14 33 2 6.6530 0.6493
14 33 3 2.6259 0.7576
14 33 4 -3.5104 0.3096
14 33 5 2.1935 -1.0967
14 33 6 -2.4495 0.0895
14 33 7 2.4057 -0.1510
14 33 8 5.5768 0.8371
14 33 9 -4.0045 1.2090
14 33 10 -7.2125 0.0231
14 33 11 -3.8400 0.0648
14 33 12 -2.3313 0.2882
14 34 0 3.8558 -13.1851
14 34 1 -3.6147 0.6263
14 34 2 0.2658 1.2672
14 34 3 1.5011 0.2894
14 34 4 -0.9765 1.0656
14 34 5 -0.3922 -1.7905
14 34 6 4.2729 -0.4778
14 34 7 0.2547 -0.8256
14 34 8 1.6119 -0.3514
14 34 9 3.1719 0.4921
14 34 10 2.0598 -1.0357
14 34 11 -6.1923 0.4934
14 34 12 -4.5816 0.4003
14 35 1 2.4836 -3.1085
14 35 2 1.6527 -0.8173
14 35 3 -1.1068 -0.8040
14 35 4 -10.6387 -0.0354
14 35 5 -6.1407 -0.0279
14 35 6 4.9887 -0.4305
14 35 7 -2.2082 0.2181
14 35 8 2.6480 0.4572
14 35 9 5.1675 0.6924
14 35 10 7.6252 0.2195
14 35 11 1.9243 -0.0616
14 36 0 0.1577 -5.2737
14 36 1 0.6992 3.0826
14 36 2 4.4295 1.0195
14 36 3 6.1603 0.2838
14 36 4 3.6453 0.9497
14 36 5 -0.5647 -1.0970
14 36 6 -1.3725 0.4019
14 36 7 2.6705 -0.7826
14 36 8 -2.5757 1.5936
14 36 9 -4.6075 0.4321
14 36 10 -4.5413 0.4072
14 37 1 2.1191 -0.8560
14 37 2 6.3687 1.3791
14 37 3 6.4489 0.9520
14 37 4 5.2517 -0.0814
14 37 5 -4.5692 0.4263
14 37 6 -1.4005 -0.0502
14 37 7 -2.7856 -0.4358
14 37 8 -5.8812 -1.1364
14 37 9 4.6788 -0.9919
14 37 10 0.7864 -0.5471
14 38 0 -10.3711 3.9364
14 38 1 -9.2012 4.7012
14 38 2 -4.9446 -0.1935
14 38 3 -8.3957 0.6556
14 38 4 15.1854 -0.0409
14 38 5 5.1119 -2.6359
14 38 6 -8.1025 0.3750
14 38 7 -7.1313 -0.5587
14 38 8 2.3192 0.3749
14 38 9 -8.4262 0.2848
14 39 1 3.1700 3.0178
14 39 2 -9.2374 -1.2245
14 39 3 -4.0722 0.1332
14 39 4 -5.8407 -0.2440
14 39 5 6.0203 -0.5988
14 39 6 14.2989 0.0241
14 39 7 -9.4980 2.2001
14 39 8 3.7994 0.3804
14 40 0 -6.5971 -7.9413
14 40 1 -2.2338 -0.2431
14 40 2 -4.6865 0.3902
14 40 3 2.1218 -1.4585
14 40 4 -10.1891 0.6016
14 40 5 -1.8858 -1.0029
14 40 6 1.6277 1.2508
14 40 7 0.1476 -0.2098
14 41 1 0.9744 -0.4936
14 41 2 -9.7013 -0.6822
14 41 3 4.9153 1.0636
14 41 4 3.9450 -0.4147
14 41 5 -3.9387 1.1532
14 42 0 2.0282 6.8617
14 42 1 -2.8795 0.6400
14 42 2 -2.4568 0.8223
14 42 3 -4.0907 -0.3591
14 42 4 0.1806 -1.3308
14 43 1 3.6610 1.7934
14 43 2 -1.8506 0.7406
15 1 0 4.3090 2.9504
15 1 1 2.8020 -6.8313
15 1 2 16.9012 -2.5923
15 1 3 9.3035 1.2395
15 1 4 2.7254 0.4558
15 1 5 -10.1674 1.2894
15 1 6 -4.0150 0.2259
15 1 7 1.1712 -0.7167
15 1 8 -4.8635 -0.2632
15 1 9 -4.5054 -0.4850
15 1 10 3.6102 -0.8539
15 1 11 -2.8530 0.3030
15 1 12 -3.3453 -0.2319
15 1 13 9.8468 0.3555
15 1 14 10.5277 0.0842
15 1 15 2.7017 0.1375
15 1 16 -1.5470 -0.0504
15 1 17 -3.8252 -0.0370
15 1 18 1.6564 0.1874
15 1 19 2.6505 0.0892
15 2 1 -8.6582 -1.0748
15 2 2 -4.8606 -0.5451
15 2 3 7.9693 -1.1109
15 2 4 10.4845 -0.8468
15 2 5 1.9375 0.4363
15 2 6 -9.4018 1.8735
15 2 7 5.2108 -0.0339
15 2 8 0.7881 1.0310
15 2 9 -2.4376 -0.1716
15 2 10 0.1725 -0.5206
15 2 11 5.3986 -0.4591
15 2 12 2.9879 -0.4666
15 2 13 -3.0511 0.2325
15 2 14 5.6350 -0.3412
15 2 15 8.7625 0.6551
15 2 16 4.8027 0.0806
15 2 17 -5.5860 0.2278
15 2 18 10.4899 0.1358
15 2 19 8.0941 -0.5497
15 3 0 16.4060 -9.0429
15 3 1 6.0265 -4.6325
15 3 2 7.8610 0.1365
15 3 3 -8.7931 3.7676
15 3 4 0.8958 2.5418
15 3 5 3.2486 1.5983
15 3 6 5.4263 0.5217
15 3 7 -3.8656 0.0040
15 3 8 -0.2603 -1.2856
15 3 9 0.9426 -1.0910
15 3 10 0.1565 0.6974
15 3 11 1.7300 0.1368
15 3 12 2.3128 0.7421
15 3 13 7.5106 0.9373
15 3 14 -0.4291 -0.4307
15 3 15 -4.3770 -0.0869
15 3 16 5.2428 -0.1768
15 3 17 -4.7976 -0.4180
15 3 18 1.4386 0.2348
15 3 19 0.7776 -0.3149
15 4 1 6.9920 -7.9000
15 4 2 9.4326 -4.5653
15 4 3 7.1306 -0.7049
15 4 4 3.5817 0.7093
15 4 5 -11.4293 1.1081
15 4 6 2.5567 1.6373
15 4 7 3.8228 0.1463
15 4 8 0.5702 0.6183
15 4 9 4.4325 -0.9131
15 4 10 -1.1967 0.1100
15 4 11 2.9298 -0.1461
15 4 12 -3.0274 -0.7465
15 4 13 7.1397 0.2670
15 4 14 -0.7442 -0.7198
15 4 15 2.0354 0.4387
15 4 16 -4.9357 -0.2163
15 4 17 -3.2977 -0.3029
15 4 18 6.2686 -0.0294
15 4 19 -8.7105 -0.3477
15 5 0 -4.4444 3.2530
15 5 1 -2.7174 1.5869
15 5 2 -5.2258 -3.2837
15 5 3 -6.7052 0.1703
15 5 4 0.1138 -2.4486
15 5 5 -3.2497 2.9037
15 5 6 0.8805 2.2440
15 5 7 -5.8467 0.3026
15 5 8 0.9513 0.6065
15 5 9 1.3145 -0.7101
15 5 10 -1.2813 0.0246
15 5 11 -0.0715 0.1171
15 5 12 -5.5410 0.0766
15 5 13 -2.2046 -0.0797
15 5 14 5.7020 -0.1094
15 5 15 0.9167 -0.0794
15 5 16 -1.5262 -0.4944
15 5 17 -2.7176 0.5298
15 5 18 10.0846 -0.3519
15 5 19 -9.2407 0.4558
15 6 1 11.4275 -2.9927
15 6 2 11.9614 2.2517
15 6 3 -7.5788 1.5959
15 6 4 2.4278 0.8032
15 6 5 -0.0837 0.4023
15 6 6 -2.5791 -0.0292
15 6 7 1.6832 -0.1302
15 6 8 -5.4797 -0.0330
15 6 9 -2.1686 -0.8570
15 6 10 -0.5120 0.0826
15 6 11 -0.6902 0.2604
15 6 12 -1.6075 0.0864
15 6 13 5.3515 0.6075
15 6 14 -10.5740 0.1782
15 6 15 7.5553 0.7118
15 6 16 -9.4128 0.1770
15 6 17 -9.2890 0.4524
15 6 18 15.3462 -0.0067
15 6 19 -5.5268 -0.1678
15 7 0 -9.9539 11.2314
15 7 1 4.0400 1.2435
15 7 2 9.9700 -2.0064
15 7 3 5.4987 2.5428
15 7 4 0.5009 -2.0631
15 7 5 0.0673 0.6083
15 7 6 6.1048 -1.1885
15 7 7 -1.4530 -1.4806
15 7 8 -2.2482 -0.5750
15 7 9 4.4282 -0.9916
15 7 10 -9.6051 1.9712
15 7 11 -0.6733 0.2703
15 7 12 4.7528 1.0724
15 7 13 2.0019 1.3506
15 7 14 12.6409 -0.5215
15 7 15 -0.1436 0.0534
15 7 16 -7.5091 -0.8747
15 7 17 -17.9511 -0.5022
15 7 18 -4.1773 -0.1635
15 7 19 -14.3988 -0.1033
15 8 1 1.8686 1.8343
15 8 2 5.7221 -12.4030
15 8 3 -2.7429 -2.1795
15 8 4 6.7658 0.5881
15 8 5 -2.3127 -1.8299
15 8 6 3.6624 1.3534
15 8 7 0.3675 0.6897
15 8 8 2.7265 0.2433
15 8 9 1.9321 0.4568
15 8 10 1.5868 -0.1257
15 8 11 -2.7376 0.0793
15 8 12 -0.7233 -0.0494
15 8 13 7.0305 -0.3525
15 8 14 4.8460 -0.1401
15 8 15 17.3421 -0.4911
15 8 16 10.5806 0.1890
15 8 17 4.2009 -0.1546
15 8 18 7.0032 0.1898
15 9 0 -13.0969 -5.7649
15 9 1 2.5617 -4.6523
15 9 2 -0.1467 1.0877
15 9 3 -3.4340 -3.5992
15 9 4 4.0809 1.7780
15 9 5 -3.7061 2.3379
15 9 6 4.7253 0.0082
15 9 7 -2.3757 1.7809
15 9 8 0.2972 -0.1293
15 9 9 3.5088 -0.7974
15 9 10 5.1200 0.0863
15 9 11 5.4398 -1.5931
15 9 12 3.9586 -0.0826
15 9 13 4.2976 -1.0101
15 9 14 3.6953 -0.2094
15 9 15 -4.1592 0.4347
15 9 16 -2.0230 -0.0072
15 9 17 6.5362 1.2888
15 9 18 29.0814 0.2271
15 10 1 6.2249 -4.7575
15 10 2 0.9904 5.3344
15 10 3 -1.8163 2.5044
15 10 4 2.0147 0.9434
15 10 5 -4.4478 1.8554
15 10 6 -2.0192 -1.1527
15 10 7 -0.3307 -0.0815
15 10 8 1.3706 -0.6884
15 10 9 -3.8074 -0.8860
15 10 10 0.3863 -0.4333
15 10 11 5.2327 0.1622
15 10 12 2.8800 0.7409
15 10 13 -1.6919 -0.2051
15 10 14 12.1706 0.7164
15 10 15 3.7498 -0.0276
15 10 16 -11.8010 0.1067
15 10 17 -10.7178 0.3562
15 10 18 6.2373 -0.0463
15 11 0 -2.9231 19.6870
15 11 1 3.6419 -5.1781
15 11 2 1.7282 -0.3758
15 11 3 -0.8587 0.5193
15 11 4 -1.9242 -1.1516
15 11 5 -3.9906 -0.1957
15 11 6 -1.5136 -2.7168
15 11 7 3.8075 -0.8248
15 11 8 1.7171 -0.3625
15 11 9 4.5131 -0.6129
15 11 10 0.8774 0.6712
15 11 11 -3.2409 -0.2168
15 11 12 2.1325 1.0829
15 11 13 -0.6792 0.2731
15 11 14 6.7422 -0.2670
15 11 15 6.0108 0.4754
15 11 16 -1.1715 -0.4813
15 11 17 4.7261 -0.2038
15 11 18 6.8600 0.0898
15 12 1 0.3773 1.1813
15 12 2 6.7314 4.4946
15 12 3 2.7256 0.4658
15 12 4 7.5411 0.9334
15 12 5 0.3467 -0.6499
15 12 6 -1.6827 -0.6775
15 12 7 -2.7766 0.0458
15 12 8 0.0886 -1.3826
15 12 9 -2.8874 0.6375
15 12 10 5.1381 0.0105
15 12 11 0.1096 0.6357
15 12 12 -2.6929 0.0279
15 12 13 -4.4715 -0.5127
15 12 14 5.9323 -0.0023
15 12 15 2.8038 -0.8223
15 12 16 -5.6525 -0.1938
15 12 17 -4.1084 -0.3769
15 12 18 13.2308 -0.0208
15 13 0 9.9876 11.3819
15 13 1 -8.6694 -4.9739
15 13 2 -1.4786 1.0026
15 13 3 -3.0126 -2.4140
15 13 4 3.0723 -0.5351
15 13 5 1.2496 1.3446
15 13 6 2.1106 -1.6361
15 13 7 0.0585 1.0951
15 13 8 2.5718 1.3135
15 13 9 -6.2688 0.6586
15 13 10 -2.2439 0.9607
15 13 11 2.8826 -0.4053
15 13 12 -0.7728 0.0315
15 13 13 0.6758 -0.7946
15 13 14 6.6554 -0.5895
15 13 15 6.6025 -0.1479
15 13 16 1.2005 -0.2416
15 13 17 -8.0519 0.1993
15 13 18 4.9084 -0.5675
15 14 1 6.6093 -2.2027
15 14 2 3.8358 3.6179
15 14 3 -2.4372 -1.1915
15 14 4 1.7367 0.2758
15 14 5 1.0188 -0.0287
15 14 6 0.3851 0.0745
15 14 7 -0.4338 0.1775
15 14 8 -1.1932 -0.7580
15 14 9 -2.2987 1.2890
15 14 10 2.7983 -0.4677
15 14 11 -2.8729 0.7732
15 14 12 1.2719 -0.0163
15 14 13 1.6635 -0.5175
15 14 14 -7.2462 0.4263
15 14 15 0.0824 -0.8490
15 14 16 -0.2537 0.0584
15 14 17 1.8245 -0.1387
15 15 0 0.9426 6.3675
15 15 1 0.2435 -4.0120
15 15 2 4.2236 0.8630
15 15 3 2.8974 -0.4204
15 15 4 -0.5862 0.4229
15 15 5 1.9363 0.4286
15 15 6 0.3762 -0.9413
15 15 7 3.6963 1.1916
15 15 8 5.6048 -0.4957
15 15 9 -2.4245 0.9379
15 15 10 2.9277 0.4303
15 15 11 -5.3895 -0.5761
15 15 12 -3.6170 0.2788
15 15 13 1.0379 -0.5227
15 15 14 7.2660 -0.0956
15 15 15 -0.7295 0.5879
15 15 16 -11.7768 0.0916
15 15 17 -4.6390 0.5158
15 16 1 -1.4203 0.0456
15 16 2 6.0652 0.9776
15 16 3 -6.0479 -1.5568
15 16 4 1.5896 1.6042
15 16 5 -2.0809 -0.8169
15 16 6 -4.2327 -1.6753
15 16 7 -0.7981 -0.6346
15 16 8 -3.6486 -0.9538
15 16 9 6.1518 1.1084
15 16 10 4.9246 -0.3076
15 16 11 20.1883 0.4974
15 16 12 -9.7075 0.6283
15 16 13 -3.1943 -0.0546
15 16 14 3.1693 0.3864
15 16 15 11.0036 0.0887
15 16 16 0.8531 0.1729
15 16 17 -6.6669 -0.1935
15 17 0 -1.1184 12.3994
15 17 1 -5.0376 -5.1077
15 17 2 2.1248 1.6464
15 17 3 2.4437 -1.5787
15 17 4 -0.9608 -0.4674
15 17 5 -4.5695 1.4540
15 17 6 0.2587 1.2171
15 17 7 -0.8577 1.4354
15 17 8 4.2838 -0.2482
15 17 9 -4.9583 0.5357
15 17 10 -5.9491 0.1873
15 17 11 8.7652 -0.0039
15 17 12 -0.2985 0.0791
15 17 13 7.9535 -0.8221
15 17 14 4.8978 -0.3163
15 17 15 10.9571 0.0784
15 17 16 5.3445 0.1741
15 17 17 3.6854 0.2830
15 18 1 -4.2068 6.1213
15 18 2 -2.2647 6.7621
15 18 3 -2.6675 0.7307
15 18 4 1.8777 0.8343
15 18 5 6.1344 -1.9459
15 18 6 -2.2340 -1.6894
15 18 7 -4.3029 -0.6101
15 18 8 3.1954 -0.3288
15 18 9 0.1690 0.5987
15 18 10 -1.5589 -0.1492
15 18 11 -6.0901 0.6190
15 18 12 -5.6097 0.1595
15 18 13 -3.5151 0.4313
15 18 14 0.2133 0.1546
15 18 15 9.5505 -0.2030
15 18 16 -1.8453 0.4795
15 18 17 10.5662 0.2430
15 19 0 1.6999 4.0534
15 19 1 4.3778 -2.3994
15 19 2 -1.1764 1.9575
15 19 3 2.0606 -2.2242
15 19 4 -4.4040 0.2236
15 19 5 -1.9636 -1.1202
15 19 6 -0.3250 -1.1138
15 19 7 -3.1870 0.3444
15 19 8 -2.0159 -0.3991
15 19 9 2.9336 -0.4873
15 19 10 2.2180 0.4022
15 19 11 -1.3358 -0.0091
15 19 12 -3.7645 0.0415
15 19 13 -6.1370 0.0392
15 19 14 8.2941 -0.4537
15 19 15 -7.5072 -0.1992
15 19 16 -1.0381 -0.2139
15 19 17 -9.0752 -0.4944
15 20 1 1.9404 -0.5069
15 20 2 2.3959 0.5577
15 20 3 2.9845 -2.0480
15 20 4 5.5626 -1.0453
15 20 5 -1.4409 -1.0187
15 20 6 -2.9767 0.0099
15 20 7 3.5695 -0.0561
15 20 8 0.4972 0.2883
15 20 9 1.2409 0.7009
15 20 10 3.4314 0.2294
15 20 11 5.0532 0.1882
15 20 12 -7.9380 0.0645
15 20 13 3.6750 -0.4044
15 20 14 0.2272 0.1365
15 20 15 6.6276 -0.3561
15 20 16 0.1039 0.1254
15 21 0 0.0112 13.2534
15 21 1 2.1168 -1.0352
15 21 2 -2.9932 0.4697
15 21 3 1.7208 0.6844
15 21 4 0.3856 -1.0543
15 21 5 4.0020 0.5049
15 21 6 -6.1489 0.9065
15 21 7 -3.6768 -0.3001
15 21 8 4.8607 0.2405
15 21 9 4.2674 -0.0937
15 21 10 3.1312 -0.5933
15 21 11 6.8283 -0.4822
15 21 12 3.1645 0.0029
15 21 13 -6.1796 -0.4480
15 21 14 -4.1215 0.0763
15 21 15 10.2652 0.6109
15 21 16 -3.4720 0.1279
15 22 1 0.0584 8.4113
15 22 2 0.1324 -0.6704
15 22 3 1.7955 0.0573
15 22 4 -1.7704 -0.5731
15 22 5 2.2814 -0.9558
15 22 6 -5.8269 1.3212
15 22 7 -1.4249 0.4494
15 22 8 2.4938 0.1584
15 22 9 0.9833 0.0105
15 22 10 4.4225 0.2357
15 22 11 0.1412 0.0023
15 22 12 5.3600 -0.3868
15 22 13 -6.6498 -0.5659
15 22 14 5.6770 -0.3491
15 22 15 -0.7835 -0.3746
15 22 16 -2.8885 0.2019
15 23 0 0.9890 -16.2599
15 23 1 1.0604 0.1983
15 23 2 -2.9686 -0.4282
15 23 3 6.9323 -0.6163
15 23 4 2.1306 1.4749
15 23 5 0.9440 0.4013
15 23 6 -0.4599 0.1909
15 23 7 -3.7114 0.2359
15 23 8 -4.9252 -1.4187
15 23 9 5.4434 -0.6379
15 23 10 -0.6611 -0.5406
15 23 11 6.1268 -0.2233
15 23 12 0.3812 0.1340
15 23 13 -0.6518 0.3707
15 23 14 1.2410 -0.0644
15 23 15 -0.3723 0.5950
15 23 16 7.4696 -0.1419
15 24 1 -3.2299 -0.7742
15 24 2 -0.9992 0.1884
15 24 3 1.8005 0.1692
15 24 4 4.8945 -1.0377
15 24 5 1.6202 1.1206
15 24 6 1.8202 -0.6238
15 24 7 1.1358 0.3063
15 24 8 2.9428 0.2539
15 24 9 -10.4029 -1.3455
15 24 10 1.8782 0.1887
15 24 11 -3.2419 -0.7979
15 24 12 -2.4518 0.4194
15 24 13 0.2520 0.1981
15 24 14 3.3295 0.2187
15 24 15 7.6657 -0.1438
15 25 0 -1.8842 5.5200
15 25 1 2.1296 -1.8295
15 25 2 1.1911 0.4760
15 25 3 -0.3632 1.5718
15 25 4 6.6998 -0.8288
15 25 5 -9.5308 0.7920
15 25 6 4.9399 -0.2012
15 25 7 -6.7508 -0.1574
15 25 8 2.7027 0.2322
15 25 9 -2.5406 -0.1690
15 25 10 -1.0504 0.1591
15 25 11 3.2764 0.5947
15 25 12 -9.1241 0.2205
15 25 13 -8.8422 0.3753
15 25 14 -4.0158 0.1494
15 25 15 -0.7014 0.1481
15 26 1 -8.4603 1.0560
15 26 2 0.1574 -5.3128
15 26 3 5.1265 1.0074
15 26 4 1.5494 -1.0766
15 26 5 -2.7638 0.2900
15 26 6 -4.8400 1.5734
15 26 7 -3.6844 0.0253
15 26 8 3.1725 2.2226
15 26 9 -8.6305 0.4809
15 26 10 2.3390 0.4567
15 26 11 2.9004 -0.7739
15 26 12 10.2417 -0.8522
15 26 13 -4.0966 -0.2983
15 26 14 -9.2945 -0.8746
15 26 15 -3.7780 -0.1759
15 27 0 4.6360 -1.7970
15 27 1 -0.2714 -1.3423
15 27 2 -0.6194 -0.5143
15 27 3 -4.3586 0.4353
15 27 4 3.9674 0.7702
15 27 5 2.5278 -0.3087
15 27 6 2.9959 0.2442
15 27 7 -2.7247 0.1817
15 27 8 1.3758 -0.8005
15 27 9 -3.0933 -0.2672
15 27 10 5.0007 -0.6372
15 27 11 3.6937 0.5172
15 27 12 2.8980 0.0453
15 27 13 19.4172 0.3343
15 27 14 10.9619 0.6876
15 27 15 -5.6359 0.8846
15 28 1 -2.1597 -3.9299
15 28 2 -1.5312 -3.8683
15 28 3 2.4431 -0.1640
15 28 4 -3.7928 -0.1667
15 28 5 -3.1247 0.0404
15 28 6 6.2678 0.0549
15 28 7 -3.2563 -0.6336
15 28 8 9.5375 0.0550
15 28 9 -4.5725 -1.1078
15 28 10 2.9336 -0.1770
15 28 11 -1.7036 -0.5744
15 28 12 1.1288 -0.1005
15 28 13 -0.0271 0.3483
15 28 14 1.5190 -0.2566
15 29 0 7.2508 4.4282
15 29 1 -0.8739 0.3068
15 29 2 4.3609 0.4858
15 29 3 0.1210 1.1277
15 29 4 0.8973 0.1862
15 29 5 0.0346 1.1528
15 29 6 7.3448 0.3707
15 29 7 -3.1795 -0.1091
15 29 8 -1.9244 0.2781
15 29 9 7.8041 -0.1295
15 29 10 0.7414 -0.0221
15 29 11 -1.6293 0.5236
15 29 12 3.4446 -0.0163
15 29 13 -4.0545 -0.3505
15 29 14 -1.6008 0.2051
15 30 1 -4.2802 -2.4121
15 30 2 5.4714 -0.3286
15 30 3 1.0666 2.4403
15 30 4 3.6691 0.4036
15 30 5 -7.5774 0.9689
15 30 6 0.9774 0.4565
15 30 7 -0.9078 -0.0029
15 30 8 -10.0750 0.5901
15 30 9 -1.4441 -0.8381
15 30 10 -1.6653 0.1460
15 30 11 -3.3180 0.1567
15 30 12 11.1683 -0.3801
15 30 13 6.7375 1.3431
15 31 0 1.5334 -4.6110
15 31 1 -3.1182 1.2310
15 31 2 -2.9352 -2.0171
15 31 3 -0.7978 -0.3115
15 31 4 5.5279 0.6228
15 31 5 -2.2834 -0.4163
15 31 6 -2.5453 -0.9686
15 31 7 -3.9072 -1.4301
15 31 8 -4.2107 -0.7233
15 31 9 -0.8080 -0.1666
15 31 10 -12.1334 0.1943
15 31 11 -7.7454 0.1649
15 31 12 -8.0024 0.1588
15 32 1 -2.4312 -3.9269
15 32 2 0.6364 -2.1103
15 32 3 -2.1376 1.7557
15 32 4 0.6021 -0.3753
15 32 5 -1.6859 1.4319
15 32 6 0.2283 -0.1814
15 32 7 2.7558 -0.7314
15 32 8 6.1859 0.2782
15 32 9 0.2138 -0.0718
15 32 10 8.1434 0.4517
15 32 11 -0.6058 -0.2208
15 32 12 -6.7227 0.4758
15 33 0 6.2047 2.4091
15 33 1 -5.2459 1.1706
15 33 2 2.1972 -1.4124
15 33 3 2.2452 -0.6612
15 33 4 4.9179 -0.3846
15 33 5 -0.7174 0.5544
15 33 6 3.1790 0.4046
15 33 7 -3.3036 -0.0083
15 33 8 3.2797 0.3757
15 33 9 4.5849 0.6556
15 33 10 4.9555 0.7344
15 33 11 5.3471 0.2302
15 33 12 1.9705 1.0717
15 34 1 -2.1413 -0.5776
15 34 2 -1.1025 -2.3777
15 34 3 1.9611 1.3097
15 34 4 -3.4013 0.3500
15 34 5 -8.6077 1.0733
15 34 6 1.8424 0.1862
15 34 7 -1.0763 -0.3527
15 34 8 -3.1596 -0.2120
15 34 9 -2.0196 0.1456
15 34 10 5.1168 0.1373
15 34 11 2.3748 -0.6499
15 34 12 2.4098 -0.3064
15 35 0 -2.3458 -0.4819
15 35 1 -3.2740 -1.0895
15 35 2 0.7912 0.6355
15 35 3 7.3764 -0.4012
15 35 4 10.5738 0.1791
15 35 5 -5.7105 0.3504
15 35 6 2.4235 -0.2151
15 35 7 -3.0374 -0.1492
15 35 8 -10.3511 0.6124
15 35 9 -9.6681 -0.7215
15 35 10 -3.7543 0.5905
15 35 11 -2.8217 0.6603
15 36 1 -7.9914 -0.1844
15 36 2 -3.0464 -0.5429
15 36 3 -1.8007 2.3396
15 36 4 2.9875 -0.0500
15 36 5 -2.3650 0.7732
15 36 6 4.2432 -0.0371
15 36 7 -2.6703 -1.9667
15 36 8 -1.8546 -0.7457
15 36 9 -4.6914 -0.4292
15 36 10 1.5962 0.1855
15 37 0 6.5487 4.1481
15 37 1 -0.8185 -3.0344
15 37 2 -2.3050 -1.0904
15 37 3 -10.0014 -0.0694
15 37 4 8.1898 -0.7184
15 37 5 -8.8667 -0.5607
15 37 6 3.7922 -0.9377
15 37 7 -3.5675 1.1959
15 37 8 4.9791 -0.6171
15 37 9 -7.0287 0.4514
15 38 1 1.7608 1.2856
15 38 2 10.7123 -0.2257
15 38 3 -2.5473 0.2262
15 38 4 -4.6570 0.7268
15 38 5 8.4862 -0.5064
15 38 6 16.3337 0.1671
15 38 7 -7.2558 0.7773
15 38 8 9.2474 0.6196
15 38 9 12.4341 1.6196
15 39 0 -16.6333 0.7900
15 39 1 -1.4908 -0.6649
15 39 2 -10.7337 2.0767
15 39 3 -1.4346 0.5788
15 39 4 -3.5614 0.0579
15 39 5 -13.2997 0.8279
15 39 6 6.6831 -1.4086
15 39 7 3.6461 0.8003
15 39 8 -1.6473 -0.1584
15 40 1 0.2679 0.9811
15 40 2 4.7302 -0.6059
15 40 3 -1.1154 1.4877
15 40 4 -2.3626 -1.3576
15 40 5 -5.7669 -0.8313
15 40 6 2.0885 -0.2568
15 40 7 -7.6500 -0.7822
15 41 0 -8.6367 -0.2052
15 41 1 3.7244 0.1749
15 41 2 1.8163 0.6155
15 41 3 -1.5556 0.0564
15 41 4 14.9992 -0.7108
15 41 5 -10.4209 0.6224
15 42 1 -3.8190 0.3039
15 42 2 -4.5557 0.7129
15 42 3 3.0699 0.1355
15 43 0 1.8936 -0.9402
15 43 1 3.4970 -2.5279
16 1 1 -14.0923 0.1254
16 1 2 -12.6087 -7.3564
16 1 3 9.4375 -2.4191
16 1 4 2.7373 -0.6069
16 1 5 5.0636 -1.7752
16 1 6 -4.5869 1.5924
16 1 7 2.9101 -0.1806
16 1 8 3.0556 0.8968
16 1 9 -0.2041 0.9315
16 1 10 -0.6941 -0.1194
16 1 11 3.3000 0.3910
16 1 12 0.0694 -0.0122
16 1 13 1.1691 0.1414
16 1 14 1.6449 0.0596
16 1 15 0.2537 0.3551
16 1 16 -1.0710 -0.0279
16 1 17 3.4949 -0.0259
16 1 18 5.4832 0.2753
16 1 19 11.3356 0.4790
16 2 0 16.3556 3.7366
16 2 1 -2.1147 1.0336
16 2 2 -3.1410 2.1731
16 2 3 -6.9371 -4.2811
16 2 4 -0.5104 -0.0178
16 2 5 2.1853 -1.0318
16 2 6 -5.7530 0.1668
16 2 7 -3.3727 1.7586
16 2 8 -0.9934 -0.5089
16 2 9 0.4195 0.8311
16 2 10 4.6339 0.1544
16 2 11 0.6436 -0.5295
16 2 12 -3.4706 0.1429
16 2 13 6.2668 -0.3518
16 2 14 8.3204 0.0373
16 2 15 1.0990 0.0508
16 2 16 -5.6117 0.6097
16 2 17 -19.8521 0.8558
16 2 18 6.8342 0.0816
16 2 19 16.4373 0.4428
16 3 1 -5.0156 -2.5717
16 3 2 0.9019 4.2350
16 3 3 7.8829 -2.0816
16 3 4 -6.0137 0.2858
16 3 5 -7.1005 -1.1135
16 3 6 -0.2539 -0.0589
16 3 7 -1.2947 2.1083
16 3 8 -3.3304 0.1840
16 3 9 0.6563 -0.7690
16 3 10 -0.6371 -0.2821
16 3 11 3.8940 -1.3433
16 3 12 -1.1008 0.0960
16 3 13 -8.1696 0.4036
16 3 14 -3.3749 0.2509
16 3 15 16.8693 0.8781
16 3 16 0.5320 -0.3032
16 3 17 -11.1613 0.3703
16 3 18 -12.0673 -0.2579
16 3 19 -5.7357 -0.3484
16 4 0 21.7084 11.5038
16 4 1 10.9268 -1.8321
16 4 2 -2.1110 1.9958
16 4 3 -4.6914 0.5991
16 4 4 13.3854 0.0738
16 4 5 0.5460 -0.5662
16 4 6 -5.1440 -0.0994
16 4 7 1.4628 0.2094
16 4 8 -1.1670 1.5345
16 4 9 1.6931 -0.8620
16 4 10 -0.4619 0.3794
16 4 11 0.9779 -0.8272
16 4 12 -2.5581 -0.6111
16 4 13 1.7305 -0.3454
16 4 14 -2.3611 -0.2834
16 4 15 -2.8710 -0.1756
16 4 16 1.4426 0.2226
16 4 17 -6.7963 -0.0623
16 4 18 -9.2509 0.0995
16 4 19 9.7360 0.0160
16 5 1 10.8127 1.0009
16 5 2 12.0041 1.9450
16 5 3 1.5633 -0.6065
16 5 4 -5.6353 0.6930
16 5 5 4.4154 -0.6979
16 5 6 3.3334 1.5424
16 5 7 0.9977 0.3034
16 5 8 -4.1271 -0.4764
16 5 9 1.1982 -0.3271
16 5 10 -2.6743 -1.3579
16 5 11 0.3059 0.3945
16 5 12 0.2104 0.3091
16 5 13 3.4140 0.0217
16 5 14 0.7814 0.8121
16 5 15 8.4960 0.0048
16 5 16 -0.0019 -0.5489
16 5 17 7.1030 0.0841
16 5 18 -1.2644 -0.5753
16 5 19 2.0722 0.2640
16 6 0 0.9176 5.8532
16 6 1 -9.1632 9.2169
16 6 2 3.9651 -2.6621
16 6 3 -1.5745 -1.2948
16 6 4 -2.6805 -1.9598
16 6 5 -3.3040 -2.8165
16 6 6 -3.2339 -0.4934
16 6 7 2.1390 -0.7776
16 6 8 0.7230 0.8023
16 6 9 1.5521 0.0093
16 6 10 -0.7185 0.6683
16 6 11 -0.8070 -0.1246
16 6 12 -2.2828 0.7023
16 6 13 10.3092 0.0135
16 6 14 5.4523 0.0686
16 6 15 2.6328 0.0774
16 6 16 -0.6134 -0.1548
16 6 17 -15.4381 -0.0228
16 6 18 4.0635 -0.1680
16 6 19 7.1183 -0.2241
16 7 1 7.0108 1.1369
16 7 2 9.5408 2.1652
16 7 3 7.2621 -4.9886
16 7 4 1.8421 0.9462
16 7 5 1.2695 -0.8266
16 7 6 -0.3623 0.2817
16 7 7 -2.4093 2.3987
16 7 8 -9.2729 -0.5880
16 7 9 4.4308 0.6675
16 7 10 5.4569 -0.3371
16 7 11 -8.6917 -0.6034
16 7 12 1.0173 -0.4326
16 7 13 4.7218 -0.5681
16 7 14 -0.3234 0.0897
16 7 15 18.7973 -0.0714
16 7 16 2.0410 -0.3429
16 7 17 -8.8450 0.2274
16 7 18 -1.9453 -0.2886
16 8 0 -3.3393 -14.6652
16 8 1 -4.4023 2.9587
16 8 2 6.7150 -1.0276
16 8 3 1.2556 0.1190
16 8 4 4.4449 1.4705
16 8 5 3.0000 2.2733
16 8 6 5.4106 1.4291
16 8 7 4.7803 -0.3736
16 8 8 -1.9533 1.5157
16 8 9 -1.0353 -1.0247
16 8 10 2.3943 0.2443
16 8 11 2.4195 -0.4897
16 8 12 2.7608 -0.3371
16 8 13 6.2438 -0.0901
16 8 14 -5.0205 -0.1922
16 8 15 6.0952 -0.1865
16 8 16 4.4956 -0.2074
16 8 17 9.7153 0.0586
16 8 18 3.4273 -0.0507
16 9 1 -3.5759 2.6479
16 9 2 4.9389 3.2387
16 9 3 2.1091 -0.7123
16 9 4 -8.1365 0.4865
16 9 5 0.0519 0.9865
16 9 6 -5.5205 -0.9891
16 9 7 2.3955 -0.3725
16 9 8 2.7630 -0.7090
16 9 9 7.0879 0.0103
16 9 10 2.4519 -0.4706
16 9 11 3.0925 -0.0681
16 9 12 3.5637 0.5771
16 9 13 8.1982 -0.3004
16 9 14 7.4163 0.8943
16 9 15 12.3917 0.0585
16 9 16 -6.8700 0.0104
16 9 17 15.9186 -0.1618
16 9 18 3.2025 0.3149
16 10 0 -4.5364 -14.0885
16 10 1 -4.4168 1.4038
16 10 2 -4.3041 -3.5965
16 10 3 -3.8916 -1.3239
16 10 4 -2.4723 0.8382
16 10 5 -1.7187 -0.5427
16 10 6 -0.6260 1.2361
16 10 7 -2.0027 -0.6011
16 10 8 1.9185 0.1591
16 10 9 3.1141 -0.1219
16 10 10 -6.9977 -0.3286
16 10 11 -1.5132 0.2852
16 10 12 1.6929 0.2155
16 10 13 -3.0181 1.1440
16 10 14 -2.8651 0.2526
16 10 15 1.1322 -0.0546
16 10 16 -14.6772 0.6610
16 10 17 6.7728 -0.5826
16 10 18 1.3018 0.5136
16 11 1 2.9783 -2.0839
16 11 2 0.6579 0.9627
16 11 3 6.3382 -2.5731
16 11 4 -3.9331 0.1774
16 11 5 2.2282 0.4572
16 11 6 -3.6772 -1.2890
16 11 7 1.2414 0.1941
16 11 8 2.8160 -0.8032
16 11 9 -3.5631 0.9181
16 11 10 1.0593 0.4466
16 11 11 -10.1207 -0.1143
16 11 12 -5.8688 0.9585
16 11 13 0.3795 -0.2899
16 11 14 2.1908 0.5203
16 11 15 -3.0629 -0.5802
16 11 16 -14.6865 -0.0182
16 11 17 -11.2373 -0.1585
16 11 18 -10.8157 0.5240
16 12 0 7.3823 7.7929
16 12 1 1.7118 -0.7152
16 12 2 4.9167 -2.9901
16 12 3 -1.6986 2.5900
16 12 4 6.1034 0.1778
16 12 5 -2.4689 0.2981
16 12 6 1.1405 1.7134
16 12 7 1.1782 -1.1302
16 12 8 2.3735 0.2591
16 12 9 0.8584 -0.6357
16 12 10 -4.4510 -0.9070
16 12 11 -0.7874 0.7670
16 12 12 7.4976 -0.3740
16 12 13 -2.8309 0.1868
16 12 14 10.9111 0.2632
16 12 15 4.2255 -0.1414
16 12 16 -2.0435 0.1185
16 12 17 0.3022 -0.8731
16 12 18 -2.1608 -0.1865
16 13 1 8.8412 2.8626
16 13 2 1.3356 2.1334
16 13 3 13.2411 -2.7024
16 13 4 -2.7601 0.6364
16 13 5 2.0955 -0.6464
16 13 6 -2.5346 -0.2104
16 13 7 -4.2637 -0.6470
16 13 8 5.3649 -1.5489
16 13 9 9.9675 0.3405
16 13 10 1.0860 -0.2365
16 13 11 -7.0127 0.4134
16 13 12 -1.5118 0.9970
16 13 13 2.0059 -0.4310
16 13 14 -4.9260 0.5037
16 13 15 7.0840 -0.5385
16 13 16 1.8025 0.1764
16 13 17 2.7386 0.3064
16 14 0 1.8846 -5.9609
16 14 1 -6.0275 4.5069
16 14 2 0.0791 0.3444
16 14 3 1.7463 1.9077
16 14 4 2.4183 1.5332
16 14 5 5.7471 0.4907
16 14 6 1.8941 0.4194
16 14 7 -3.9032 -1.2771
16 14 8 -0.8019 -1.5009
16 14 9 -0.0889 -1.4756
16 14 10 8.6851 -0.3729
16 14 11 8.1589 0.5059
16 14 12 10.1354 0.0316
16 14 13 1.3186 0.9935
16 14 14 -5.7255 -0.1370
16 14 15 -9.8894 -0.2894
16 14 16 11.4960 0.3014
16 14 17 19.1692 -0.3599
16 15 1 3.9691 -2.5962
16 15 2 -7.3321 2.2231
16 15 3 3.2352 -3.0022
16 15 4 -5.1717 -0.7945
16 15 5 0.4019 -1.1716
16 15 6 1.0826 0.4562
16 15 7 -3.3523 1.5909
16 15 8 0.8536 0.3340
16 15 9 -1.2668 0.7882
16 15 10 1.8352 0.2309
16 15 11 -1.9450 0.6895
16 15 12 6.8674 -0.0294
16 15 13 7.9757 -0.0847
16 15 14 4.6411 -0.1212
16 15 15 -20.5832 -0.7686
16 15 16 -0.1275 -0.3418
16 15 17 7.4900 -0.2039
16 16 0 2.6382 -16.9847
16 16 1 -3.7986 -2.8695
16 16 2 4.1834 -3.7407
16 16 3 -9.2381 1.6314
16 16 4 -5.0605 2.1357
16 16 5 -1.1666 1.9905
16 16 6 -2.1155 1.9946
16 16 7 4.3871 0.5598
16 16 8 -2.0379 -0.8702
16 16 9 7.0386 0.2303
16 16 10 -10.2584 -1.3015
16 16 11 3.4322 -0.5376
16 16 12 7.6846 -0.3116
16 16 13 -3.2348 0.0275
16 16 14 12.6936 0.2692
16 16 15 0.3044 0.1439
16 16 16 -4.8493 -0.0956
16 16 17 0.4651 0.1396
16 17 1 2.9697 2.9558
16 17 2 2.0220 7.3643
16 17 3 3.3581 0.9257
16 17 4 -0.5572 2.8052
16 17 5 -2.8320 0.3647
16 17 6 -1.9214 -1.4471
16 17 7 -7.4907 0.4063
16 17 8 0.1573 -1.0018
16 17 9 4.5150 -0.6095
16 17 10 3.1160 -0.0749
16 17 11 -1.1813 -0.0267
16 17 12 3.4927 0.0766
16 17 13 -2.1840 0.1659
16 17 14 4.3172 -0.1605
16 17 15 11.9583 0.2021
16 17 16 5.4291 -0.1147
16 17 17 9.2873 0.0910
16 18 0 2.0478 -0.9538
16 18 1 -1.4644 4.2567
16 18 2 5.3245 1.8405
16 18 3 -0.1015 3.2212
16 18 4 1.9590 -1.6019
16 18 5 -0.7766 -0.0833
16 18 6 1.7832 -1.2163
16 18 7 -3.1966 -1.5470
16 18 8 -7.2502 -0.8513
16 18 9 -1.4435 -0.1960
16 18 10 2.4099 0.0838
16 18 11 0.2881 1.3364
16 18 12 7.0880 0.5790
16 18 13 -5.7932 1.0982
16 18 14 -11.4355 0.0085
16 18 15 -8.3294 -0.1914
16 18 16 3.7735 -0.1933
16 18 17 -1.4187 -0.1181
16 19 1 7.3067 -3.2190
16 19 2 2.2672 -3.6403
16 19 3 3.8135 -2.5372
16 19 4 4.2573 -0.2790
16 19 5 1.8899 -1.6593
16 19 6 3.9553 0.3736
16 19 7 -5.7688 0.3434
16 19 8 -4.0841 0.8281
16 19 9 -6.1752 1.1570
16 19 10 3.9015 -0.2096
16 19 11 0.8280 0.3586
16 19 12 5.2722 -0.1776
16 19 13 0.4253 -0.2014
16 19 14 -2.8169 -0.1534
16 19 15 -13.4432 -0.9820
16 19 16 -0.7838 -0.0921
16 19 17 6.8780 -0.2853
16 20 0 -5.4449 -3.5017
16 20 1 -2.5876 -1.3594
16 20 2 1.6680 2.1659
16 20 3 -4.9205 -0.0674
16 20 4 1.2229 0.1903
16 20 5 2.1171 0.5009
16 20 6 0.2206 0.3579
16 20 7 2.9325 1.3836
16 20 8 0.5886 0.4501
16 20 9 -6.3008 0.5293
16 20 10 4.1117 -0.1232
16 20 11 7.1487 0.1295
16 20 12 13.0725 -0.3177
16 20 13 10.6505 -0.5683
16 20 14 -2.3847 0.2069
16 20 15 -7.0150 -0.4245
16 20 16 -3.8254 -0.1904
16 21 1 3.8776 -0.4015
16 21 2 -3.7200 1.6647
16 21 3 -3.9250 0.9426
16 21 4 0.3755 0.6389
16 21 5 -1.5345 -0.3410
16 21 6 1.6924 0.5227
16 21 7 -3.2546 0.0472
16 21 8 0.7867 -0.2113
16 21 9 2.6484 -0.1094
16 21 10 4.8047 -0.6311
16 21 11 -5.0321 -0.4406
16 21 12 11.9274 0.0778
16 21 13 17.6339 -0.1380
16 21 14 10.3954 0.3175
16 21 15 -4.0192 0.2132
16 21 16 -2.8360 0.3464
16 22 0 1.1640 -5.4459
16 22 1 -0.7702 -5.0314
16 22 2 3.9406 0.7595
16 22 3 0.0262 -0.2497
16 22 4 0.1662 -0.3795
16 22 5 7.7539 -1.6591
16 22 6 0.1550 -1.9060
16 22 7 -0.3828 -0.1775
16 22 8 -1.1208 -0.9947
16 22 9 -4.5582 0.4182
16 22 10 0.9234 0.1535
16 22 11 -9.0791 0.0129
16 22 12 -2.0362 0.7187
16 22 13 -1.6132 0.2368
16 22 14 6.2558 -0.0039
16 22 15 11.0435 -0.2059
16 22 16 7.7364 0.2328
16 23 1 0.8422 -3.2904
16 23 2 0.4774 -2.3933
16 23 3 -2.1463 -0.6250
16 23 4 7.1599 -0.0213
16 23 5 0.2892 -0.6839
16 23 6 -0.1991 0.5090
16 23 7 0.4797 1.3295
16 23 8 -6.5904 -0.1354
16 23 9 -4.5462 0.3515
16 23 10 -4.5508 0.3296
16 23 11 -2.0094 -0.5834
16 23 12 -11.1381 0.0389
16 23 13 -5.9648 0.0363
16 23 14 1.9511 -0.0566
16 23 15 -4.7552 0.0828
16 23 16 9.2137 0.4112
16 24 0 2.6183 7.3560
16 24 1 -2.4944 0.3499
16 24 2 -1.6751 2.2294
16 24 3 -1.0346 0.0064
16 24 4 1.9682 -0.0780
16 24 5 5.6764 1.1666
16 24 6 -0.8062 -1.2915
16 24 7 -5.7610 0.6790
16 24 8 0.9228 0.0493
16 24 9 -5.4478 0.4982
16 24 10 -6.2687 0.5122
16 24 11 0.1743 -0.1159
16 24 12 8.9833 -0.2808
16 24 13 -2.0438 -0.3997
16 24 14 -11.3669 0.2025
16 24 15 0.2888 -0.5664
16 25 1 -1.9709 -1.2066
16 25 2 -0.8072 0.2247
16 25 3 -11.5946 0.7405
16 25 4 -0.1303 -0.1882
16 25 5 -2.9468 1.0853
16 25 6 -0.9489 0.4553
16 25 7 8.2742 -0.3043
16 25 8 -1.9832 -0.2611
16 25 9 7.8488 -0.6726
16 25 10 -2.5109 -0.6905
16 25 11 5.5384 0.4160
16 25 12 -2.0478 -0.2204
16 25 13 16.2013 -0.2485
16 25 14 8.3844 0.4441
16 25 15 -3.8237 -0.4581
16 26 0 10.0105 15.3909
16 26 1 2.7085 2.5326
16 26 2 2.5195 0.5695
16 26 3 1.1575 -2.0825
16 26 4 4.0227 -2.0181
16 26 5 -0.9500 -1.1998
16 26 6 -0.0711 -1.3455
16 26 7 0.2254 0.3182
16 26 8 -0.0324 -0.1461
16 26 9 7.7554 0.7167
16 26 10 2.4849 0.8404
16 26 11 -0.7021 -0.0899
16 26 12 -2.0894 0.0114
16 26 13 7.3916 -0.1427
16 26 14 -0.3111 -0.1526
16 26 15 4.9851 -0.1910
16 27 1 2.1857 1.3540
16 27 2 -0.2461 -3.5785
16 27 3 3.6126 -0.8740
16 27 4 3.9224 0.1007
16 27 5 0.2234 -0.1194
16 27 6 4.3341 0.9526
16 27 7 2.4156 0.7550
16 27 8 -1.8720 -0.0413
16 27 9 -5.4789 0.2743
16 27 10 1.6016 -0.3350
16 27 11 6.4542 0.1326
16 27 12 -11.2684 -0.1429
16 27 13 -3.6460 0.0122
16 27 14 4.4459 0.0093
16 28 0 0.4400 8.8542
16 28 1 -0.5493 -6.0963
16 28 2 -0.9683 0.0770
16 28 3 -2.8774 -2.0039
16 28 4 1.7304 0.7027
16 28 5 3.1850 0.9393
16 28 6 2.8816 0.3833
16 28 7 3.0021 1.2007
16 28 8 0.9335 0.2455
16 28 9 3.4989 0.0226
16 28 10 -2.6735 0.0394
16 28 11 0.3457 -0.7105
16 28 12 -1.6462 -0.3972
16 28 13 6.7045 -0.5715
16 28 14 -3.2704 -0.5281
16 29 1 -1.4275 4.9603
16 29 2 -2.5735 0.8190
16 29 3 -0.1040 -0.0357
16 29 4 -3.4457 1.3673
16 29 5 -5.0389 -0.0900
16 29 6 3.7256 0.3760
16 29 7 2.5279 -0.6818
16 29 8 -5.4271 -0.2395
16 29 9 0.6809 -0.7933
16 29 10 5.3589 -0.9026
16 29 11 5.8683 -0.4229
16 29 12 -11.9067 -0.0272
16 29 13 7.5085 -0.0249
16 29 14 -2.1831 0.9077
16 30 0 9.5011 6.9180
16 30 1 1.0038 -2.9242
16 30 2 3.3318 0.8047
16 30 3 -1.6484 -2.3738
16 30 4 -1.9431 -0.7206
16 30 5 -2.8232 0.2699
16 30 6 -2.3602 -0.3118
16 30 7 -1.7439 0.2354
16 30 8 2.1697 -0.2179
16 30 9 -4.8386 -0.2211
16 30 10 -0.2889 0.8413
16 30 11 2.6894 -0.0255
16 30 12 -2.0410 0.4970
16 30 13 1.2422 0.0045
16 31 1 5.7010 -2.9925
16 31 2 3.8017 1.8287
16 31 3 -1.6753 -1.3788
16 31 4 1.5960 -0.2218
16 31 5 -0.7326 -0.3022
16 31 6 0.2232 -0.2762
16 31 7 0.3957 0.2023
16 31 8 1.4609 0.3419
16 31 9 0.5400 -0.0613
16 31 10 7.3422 0.0888
16 31 11 -2.5617 0.5031
16 31 12 4.5154 0.1336
16 32 0 -6.5955 14.5307
16 32 1 1.1080 -1.4341
16 32 2 -0.3651 -0.9545
16 32 3 0.6625 -0.7622
16 32 4 -1.5108 -1.6149
16 32 5 6.7400 1.4160
16 32 6 -3.7580 1.0176
16 32 7 -3.0531 0.3913
16 32 8 3.3790 1.4838
16 32 9 -5.0347 -0.2862
16 32 10 -0.6126 0.7550
16 32 11 -5.3703 -0.8269
16 32 12 -6.4989 0.5500
16 33 1 2.6696 3.0871
16 33 2 0.2188 1.8708
16 33 3 -2.4298 -0.0968
16 33 4 -6.2196 -0.5489
16 33 5 -2.8746 -0.8606
16 33 6 -2.5402 -0.2837
16 33 7 0.6583 -0.6725
16 33 8 -6.9682 -0.6784
16 33 9 0.0459 -0.1040
16 33 10 -7.6790 -0.2148
16 33 11 7.8733 -0.2317
16 33 12 -9.1816 -0.9295
16 34 0 -6.1502 -3.0448
16 34 1 2.5734 -2.0610
16 34 2 1.3799 -1.8703
16 34 3 5.9479 -1.0091
16 34 4 2.4785 -0.3644
16 34 5 0.5141 0.3513
16 34 6 -6.0621 0.5618
16 34 7 5.7523 0.1962
16 34 8 2.7221 -0.1780
16 34 9 -2.9085 -0.8970
16 34 10 0.5502 0.4107
16 34 11 3.5853 -1.0544
16 35 1 0.9077 -1.5901
16 35 2 -4.2316 -1.0604
16 35 3 1.5821 -1.0156
16 35 4 6.0428 0.2230
16 35 5 3.6133 0.3236
16 35 6 -11.9071 0.4675
16 35 7 5.9469 1.2345
16 35 8 3.2546 0.4718
16 35 9 3.0285 1.1134
16 35 10 -2.9034 -0.4347
16 35 11 16.8069 0.5045
16 36 0 -1.5557 2.0225
16 36 1 -7.1277 -0.9080
16 36 2 0.7851 -0.0496
16 36 3 -3.0335 0.6753
16 36 4 -5.6884 0.0461
16 36 5 2.0068 1.1086
16 36 6 5.5958 0.4637
16 36 7 0.6773 -0.9337
16 36 8 -1.4337 0.3282
16 36 9 -3.0073 -1.4545
16 36 10 -5.4907 -0.1583
16 37 1 4.4636 1.1155
16 37 2 1.7584 1.1711
16 37 3 5.9415 0.3619
16 37 4 0.9623 -0.1081
16 37 5 -4.5016 0.4260
16 37 6 -8.3754 -1.1905
16 37 7 10.0211 0.0268
16 37 8 11.0708 0.2608
16 37 9 3.2196 0.0274
16 38 0 -6.6292 4.5201
16 38 1 -12.3830 -0.5809
16 38 2 3.8156 0.2120
16 38 3 5.5961 1.0438
16 38 4 -0.5503 0.2421
16 38 5 2.6855 0.0436
16 38 6 -9.2283 1.2179
16 38 7 4.5552 -0.2128
16 38 8 -10.9221 1.4429
16 39 1 -5.3463 0.2716
16 39 2 3.5990 -1.1098
16 39 3 -5.4135 -0.9528
16 39 4 4.2388 -0.7450
16 39 5 8.6729 -0.4300
16 39 6 -7.1744 -2.2820
16 39 7 5.9063 0.8792
16 40 0 -6.3482 -4.0325
16 40 1 -4.3435 -3.6101
16 40 2 4.1595 0.0252
16 40 3 -2.0656 -0.4849
16 40 4 0.5736 1.2182
16 40 5 -4.9638 0.2045
16 41 1 -3.2236 -1.2898
16 41 2 -4.4373 -0.1130
16 41 3 -3.5902 0.8351
16 41 4 4.0688 -0.5231
16 42 0 -5.1270 1.4778
16 42 1 1.9248 -0.0227
16 42 2 -5.3098 1.5083
16 42 3 -13.8479 1.4408
17 1 0 13.1890 -4.2547
17 1 1 11.0373 0.0722
17 1 2 2.1098 -1.5288
17 1 3 2.3786 -0.6513
17 1 4 -4.8031 -0.3813
17 1 5 3.2767 -0.2106
17 1 6 2.2858 0.1046
17 1 7 1.5472 0.6618
17 1 8 -5.5225 1.4097
17 1 9 -2.8516 1.5348
17 1 10 2.0890 -0.6783
17 1 11 -4.0160 0.1165
17 1 12 5.5707 -0.9222
17 1 13 -1.2663 -0.5287
17 1 14 -3.8917 1.0031
17 1 15 -3.9906 0.0896
17 1 16 1.8743 0.5823
17 1 17 -15.0252 0.0137
17 1 18 17.8777 -0.1319
17 1 19 9.8126 0.0847
17 2 1 3.9926 0.9499
17 2 2 -1.6644 1.2227
17 2 3 0.8658 1.4385
17 2 4 -2.0977 0.4814
17 2 5 -2.3529 -0.1177
17 2 6 -5.6506 -1.8312
17 2 7 3.4213 -0.9373
17 2 8 4.5714 -0.8319
17 2 9 -6.8055 1.0602
17 2 10 5.5085 0.5596
17 2 11 1.9104 0.7187
17 2 12 -0.7770 -0.0769
17 2 13 -6.6163 -0.6072
17 2 14 12.1871 -0.3917
17 2 15 5.8202 0.1701
17 2 16 9.9290 0.1199
17 2 17 -14.7331 0.1707
17 2 18 -14.8274 0.1244
17 2 19 16.3639 -0.0423
17 3 0 6.3447 -5.3336
17 3 1 11.0393 3.7463
17 3 2 -2.3944 1.8082
17 3 3 -2.3677 0.0311
17 3 4 -5.3906 1.8315
17 3 5 0.6350 -2.1202
17 3 6 -3.5788 0.6104
17 3 7 -0.6573 0.5046
17 3 8 2.6388 0.0710
17 3 9 1.8613 1.7110
17 3 10 -3.0636 -0.8139
17 3 11 -1.6000 0.3714
17 3 12 0.9963 -0.3419
17 3 13 -4.2893 -0.2087
17 3 14 -6.5192 -0.0870
17 3 15 4.2336 -0.4550
17 3 16 12.7683 0.4221
17 3 17 -5.8490 -0.6287
17 3 18 -21.5222 -0.0740
17 3 19 -7.8122 -0.4663
17 4 1 13.4396 -1.2716
17 4 2 21.4042 -2.2124
17 4 3 9.6127 1.1999
17 4 4 -0.5840 1.6157
17 4 5 2.4053 0.8850
17 4 6 -5.3096 -1.2435
17 4 7 -1.0388 -0.4429
17 4 8 1.2858 -0.4273
17 4 9 -0.3453 0.0013
17 4 10 8.0742 0.2734
17 4 11 -1.2701 0.0805
17 4 12 0.8862 0.4966
17 4 13 -7.9480 0.3450
17 4 14 0.4756 0.0330
17 4 15 -10.1223 -0.0139
17 4 16 10.1665 -0.2466
17 4 17 12.6839 0.0004
17 4 18 -7.0923 -0.1291
17 4 19 -12.7986 -0.1447
17 5 0 -12.3394 -5.6795
17 5 1 -12.0984 3.6910
17 5 2 1.5123 3.1825
17 5 3 8.7191 -3.3556
17 5 4 7.8132 1.8901
17 5 5 5.5176 -1.7670
17 5 6 0.5826 1.1486
17 5 7 3.3759 0.3713
17 5 8 -5.1861 0.7375
17 5 9 2.7168 0.7407
17 5 10 6.0943 -0.6066
17 5 11 6.8193 0.4383
17 5 12 4.8239 -0.8044
17 5 13 9.7193 -0.3720
17 5 14 5.1418 0.3682
17 5 15 -0.0139 -0.2110
17 5 16 0.6344 0.8792
17 5 17 -7.7540 0.0454
17 5 18 18.5375 0.1179
17 6 1 2.8040 -0.7000
17 6 2 -2.8968 2.9014
17 6 3 0.1600 2.2095
17 6 4 -0.2341 -1.4108
17 6 5 -0.8794 -0.2023
17 6 6 -1.2467 -0.8528
17 6 7 -3.1971 -0.5940
17 6 8 -0.6755 -0.0989
17 6 9 -0.9243 -0.4021
17 6 10 4.6754 -0.0660
17 6 11 2.4722 0.2134
17 6 12 -0.6276 0.2725
17 6 13 3.7942 0.2809
17 6 14 5.5265 0.0504
17 6 15 4.6518 0.5877
17 6 16 3.7197 0.1914
17 6 17 -2.7563 0.4523
17 6 18 2.3228 0.8511
17 7 0 -5.0995 -3.5778
17 7 1 -7.1176 3.9274
17 7 2 2.2315 0.1399
17 7 3 -1.7329 0.8272
17 7 4 1.0123 0.4278
17 7 5 4.0535 -3.5401
17 7 6 4.5371 0.3572
17 7 7 -2.8316 -1.4211
17 7 8 -4.4315 -0.4417
17 7 9 -8.6362 0.4837
17 7 10 3.8699 -0.4184
17 7 11 1.5637 0.5962
17 7 12 -5.3392 0.4549
17 7 13 -0.8716 -0.1069
17 7 14 -2.1751 -0.0827
17 7 15 0.0858 0.0225
17 7 16 1.7606 -0.0055
17 7 17 -10.4912 -0.5080
17 7 18 0.2502 -0.1107
17 8 1 -2.6552 4.7668
17 8 2 -4.3450 -2.9652
17 8 3 -6.0720 -0.6955
17 8 4 -7.3173 -2.3999
17 8 5 -6.3291 -1.3440
17 8 6 3.0254 0.7936
17 8 7 0.5603 0.6258
17 8 8 5.5439 1.5682
17 8 9 1.3165 0.1195
17 8 10 4.8415 0.5141
17 8 11 3.6558 -0.0677
17 8 12 -0.4757 -1.0780
17 8 13 7.2228 0.0902
17 8 14 -0.3482 -0.6643
17 8 15 8.9886 -0.0822
17 8 16 2.5652 0.0642
17 8 17 -5.3119 -0.2091
17 8 18 8.2564 0.4800
17 9 0 9.2186 -31.8934
17 9 1 7.5791 5.3633
17 9 2 0.4440 1.5682
17 9 3 0.9561 -0.9886
17 9 4 -8.0772 2.8391
17 9 5 -2.2146 0.8958
17 9 6 -2.5419 1.4694
17 9 7 -1.4830 0.1109
17 9 8 -0.0836 0.3887
17 9 9 8.6516 0.1870
17 9 10 -1.3555 -1.2307
17 9 11 6.4093 -0.5484
17 9 12 -4.5920 -1.1746
17 9 13 3.7317 -0.4910
17 9 14 -0.4321 0.5834
17 9 15 8.3151 0.1955
17 9 16 0.7871 0.7351
17 9 17 -9.6033 0.2789
17 9 18 2.4180 -0.1172
17 10 1 8.9275 -5.4023
17 10 2 12.1099 1.3854
17 10 3 8.0498 0.5416
17 10 4 3.7191 -2.2482
17 10 5 -2.0315 4.0173
17 10 6 1.7046 1.1874
17 10 7 -2.3889 -0.1325
17 10 8 -6.3359 0.2385
17 10 9 -2.1677 -1.9083
17 10 10 -0.9165 -0.5157
17 10 11 -2.5896 -0.6661
17 10 12 -0.2533 -0.2695
17 10 13 5.6982 0.3412
17 10 14 -4.0858 0.2194
17 10 15 9.8985 0.8726
17 10 16 -7.2485 0.0960
17 10 17 -10.1128 0.3487
17 10 18 10.5698 0.0974
17 11 0 -7.0732 2.5488
17 11 1 -0.4413 8.3477
17 11 2 -3.0559 -0.6054
17 11 3 5.4660 3.2542
17 11 4 6.8419 -2.0415
17 11 5 -0.7762 -2.6305
17 11 6 0.5836 0.0911
17 11 7 -0.2526 -1.8076
17 11 8 3.2622 -0.3190
17 11 9 3.1890 0.0782
17 11 10 -7.9560 -0.4157
17 11 11 -0.5478 0.3824
17 11 12 0.8107 0.3959
17 11 13 3.0680 0.8168
17 11 14 11.8568 -0.0209
17 11 15 6.4829 0.1830
17 11 16 -4.0237 -0.2914
17 11 17 -8.7212 -0.9649
17 11 18 3.7292 0.0007
17 12 1 4.3220 8.8337
17 12 2 2.8723 -7.1467
17 12 3 -1.1828 0.5492
17 12 4 6.4665 -1.6313
17 12 5 2.1541 -0.0861
17 12 6 -0.5204 1.5283
17 12 7 -0.7170 0.3225
17 12 8 1.7314 1.8085
17 12 9 12.0923 -0.2110
17 12 10 0.2079 -0.1954
17 12 11 -6.1691 -0.6697
17 12 12 -0.3426 -0.2262
17 12 13 1.4398 0.1182
17 12 14 -0.2492 -0.2274
17 12 15 9.5698 -0.2433
17 12 16 -9.2927 -0.1836
17 12 17 -13.0171 -0.4870
17 13 0 -6.5884 -18.1425
17 13 1 3.2172 -1.3187
17 13 2 -5.4715 0.8888
17 13 3 1.4563 1.0759
17 13 4 3.0158 1.4885
17 13 5 2.7719 -0.0535
17 13 6 1.5692 0.3244
17 13 7 -1.3122 0.2960
17 13 8 -8.9675 0.4928
17 13 9 8.7445 0.5473
17 13 10 10.6425 -0.3784
17 13 11 5.2822 0.4295
17 13 12 -4.3865 -0.3710
17 13 13 13.1843 0.0514
17 13 14 5.8117 0.0477
17 13 15 6.4001 -0.0822
17 13 16 2.2998 -0.3564
17 13 17 8.9283 -0.1142
17 14 1 1.5662 -3.0074
17 14 2 -1.2012 -2.5338
17 14 3 -3.9117 -0.6270
17 14 4 -6.2235 -1.6256
17 14 5 -2.1450 1.2890
17 14 6 0.2885 1.8634
17 14 7 -0.5692 0.5626
17 14 8 -8.6576 1.7053
17 14 9 -8.8018 -0.8978
17 14 10 0.8641 -0.1606
17 14 11 2.0395 -1.0892
17 14 12 0.8934 -0.4474
17 14 13 8.3382 0.4267
17 14 14 13.1775 0.1009
17 14 15 -4.2487 1.1294
17 14 16 -1.3816 0.2641
17 14 17 -1.3556 -0.0474
17 15 0 -1.3142 -1.4697
17 15 1 2.6559 -3.4536
17 15 2 -3.2645 0.3020
17 15 3 -1.0246 3.5146
17 15 4 -0.0933 0.0081
17 15 5 -6.8168 -0.5445
17 15 6 -1.3432 0.1768
17 15 7 2.6919 -0.2886
17 15 8 3.8493 0.3213
17 15 9 -0.2937 -0.2336
17 15 10 -15.7164 -0.3026
17 15 11 0.7766 0.4303
17 15 12 -9.6707 -0.0210
17 15 13 -3.5642 0.7328
17 15 14 13.7205 0.2280
17 15 15 3.4541 0.3859
17 15 16 -7.9747 0.3684
17 15 17 1.3311 -0.5573
17 16 1 3.0321 -4.5649
17 16 2 5.7688 -2.2951
17 16 3 0.4300 -0.7342
17 16 4 2.4642 -0.4102
17 16 5 1.9312 -0.1705
17 16 6 -0.5509 0.3529
17 16 7 -1.0805 0.1606
17 16 8 2.2107 1.1600
17 16 9 8.9298 -0.7641
17 16 10 -2.9983 0.2091
17 16 11 -9.5876 -0.1802
17 16 12 -0.7027 -0.1635
17 16 13 2.2952 0.7321
17 16 14 -5.9876 0.1433
17 16 15 8.4937 0.1343
17 16 16 4.7960 -0.0915
17 16 17 1.3840 -0.1962
17 17 0 -2.9667 6.0844
17 17 1 -4.5716 3.7748
17 17 2 2.9194 -1.6571
17 17 3 1.4319 0.7424
17 17 4 0.0437 -1.0589
17 17 5 0.7953 0.5798
17 17 6 -1.2816 0.3887
17 17 7 -2.2542 -0.8616
17 17 8 -1.9996 0.6965
17 17 9 3.5372 0.3233
17 17 10 2.4929 -0.3409
17 17 11 -4.9319 -0.0320
17 17 12 6.5350 -0.8255
17 17 13 3.0106 0.3808
17 17 14 -1.2455 0.0799
17 17 15 1.5472 0.0360
17 17 16 -4.9639 0.4225
17 17 17 -2.7966 -0.2865
17 18 1 -0.9514 1.1920
17 18 2 3.8225 2.2170
17 18 3 -0.3759 1.3507
17 18 4 3.3207 1.0141
17 18 5 0.8872 -1.0064
17 18 6 -2.7916 0.2645
17 18 7 0.0287 -0.2490
17 18 8 -0.7680 -0.9778
17 18 9 -0.8037 -0.5628
17 18 10 -0.0975 -0.3154
17 18 11 5.1966 -0.5129
17 18 12 -4.9799 -0.1086
17 18 13 12.0310 0.4144
17 18 14 1.6492 0.1584
17 18 15 6.2224 0.7451
17 18 16 4.7947 -0.1849
17 18 17 5.8857 0.5716
17 19 0 0.4002 -0.6898
17 19 1 1.6397 2.1199
17 19 2 3.5651 -2.2455
17 19 3 1.5626 0.6622
17 19 4 1.4624 -1.1665
17 19 5 0.9645 -0.7956
17 19 6 2.8822 -1.3330
17 19 7 -2.3889 -1.1736
17 19 8 -2.4887 -0.2274
17 19 9 1.2403 0.0307
17 19 10 -2.9854 0.8588
17 19 11 -4.1965 0.4078
17 19 12 2.7665 0.1066
17 19 13 4.8477 0.2236
17 19 14 -2.7234 -0.3347
17 19 15 1.3640 -0.2328
17 19 16 -1.5566 0.0329
17 20 1 -4.3026 -3.7630
17 20 2 2.0995 -1.7069
17 20 3 -0.9081 -1.2902
17 20 4 0.4399 1.4555
17 20 5 2.7670 -0.0353
17 20 6 0.1179 0.3052
17 20 7 -2.3499 0.1240
17 20 8 -0.4392 0.4779
17 20 9 1.5408 0.5310
17 20 10 -2.9629 -0.5453
17 20 11 -3.8283 0.4047
17 20 12 -14.9158 -0.4532
17 20 13 -2.7281 0.1763
17 20 14 5.1243 -0.1531
17 20 15 -5.4946 -0.0436
17 20 16 -10.3259 -1.0543
17 21 0 -1.2966 0.0077
17 21 1 -2.1238 0.1505
17 21 2 -0.6966 -1.4541
17 21 3 -5.0804 -0.6929
17 21 4 -2.3710 0.6384
17 21 5 8.8986 0.3901
17 21 6 1.4397 0.7131
17 21 7 3.4277 -0.3764
17 21 8 0.3404 1.0897
17 21 9 4.8119 -0.1679
17 21 10 4.9125 0.3723
17 21 11 12.6896 -0.3847
17 21 12 -10.7096 -0.5081
17 21 13 -2.9950 -0.0383
17 21 14 7.2061 -0.0500
17 21 15 -3.5289 -0.0294
17 21 16 2.2965 0.1670
17 22 1 0.0392 1.4444
17 22 2 0.1977 1.7256
17 22 3 0.2357 0.4026
17 22 4 -4.0348 1.6014
17 22 5 -4.6135 0.3162
17 22 6 9.0209 -0.3382
17 22 7 -1.1586 -0.5598
17 22 8 5.1559 -1.0458
17 22 9 1.9536 0.3726
17 22 10 0.4681 0.0674
17 22 11 6.4226 0.2272
17 22 12 -4.7666 -0.3275
17 22 13 11.7305 -0.0563
17 22 14 -1.8937 -0.1935
17 22 15 6.9861 0.2575
17 22 16 2.4070 -0.2682
17 23 0 -1.4251 0.9154
17 23 1 4.3730 -0.1903
17 23 2 4.2500 -0.9159
17 23 3 4.3145 -1.4489
17 23 4 0.5910 -0.1835
17 23 5 1.9202 -1.5163
17 23 6 -14.3967 0.7451
17 23 7 -4.3606 0.2364
17 23 8 -4.2550 0.4709
17 23 9 -2.1059 -0.6767
17 23 10 6.9441 0.2317
17 23 11 -0.7264 -0.1227
17 23 12 -1.9276 0.2256
17 23 13 -13.5690 0.1194
17 23 14 4.4440 -0.2766
17 23 15 -1.1172 -0.2480
17 24 1 -2.3003 -0.8136
17 24 2 -2.2054 3.9512
17 24 3 0.2837 -0.3813
17 24 4 4.0743 1.7657
17 24 5 7.6672 -0.3446
17 24 6 2.2915 -1.7206
17 24 7 1.7549 0.3009
17 24 8 -6.8012 -1.8539
17 24 9 -1.5896 -0.0669
17 24 10 4.5747 0.6660
17 24 11 3.4852 0.6394
17 24 12 9.0626 1.1964
17 24 13 6.6298 0.2919
17 24 14 -0.0193 0.1886
17 24 15 -8.9219 -0.5593
17 25 0 -1.9562 9.4682
17 25 1 -2.0256 2.6335
17 25 2 -5.3195 0.7242
17 25 3 -3.6266 0.4263
17 25 4 -6.6781 -1.0139
17 25 5 4.5469 0.1940
17 25 6 -2.2251 0.1900
17 25 7 7.8564 0.0772
17 25 8 3.7642 1.6126
17 25 9 1.8982 -0.1314
17 25 10 -4.8412 0.3910
17 25 11 8.1764 0.4476
17 25 12 -7.3002 -0.0041
17 25 13 0.7301 -0.0999
17 25 14 8.0646 -0.4989
17 25 15 -6.2329 -0.2325
17 26 1 0.1737 2.1133
17 26 2 -0.5575 0.4276
17 26 3 -1.3223 -0.8033
17 26 4 0.9484 -0.6951
17 26 5 -7.2529 -0.7841
17 26 6 -5.8293 0.5624
17 26 7 -2.5916 0.4410
17 26 8 -6.5871 -0.5669
17 26 9 1.0844 0.8759
17 26 10 2.7390 -0.2961
17 26 11 -10.0244 0.7030
17 26 12 -6.0152 0.3763
17 26 13 -6.2292 -0.3263
17 26 14 -1.7525 0.1331
17 26 15 3.2785 -0.3230
17 27 0 -2.5807 -12.0085
17 27 1 8.5448 0.6955
17 27 2 1.1776 -1.6155
17 27 3 2.0728 -1.3424
17 27 4 11.1059 0.3239
17 27 5 5.6136 -0.5688
17 27 6 0.9640 0.3724
17 27 7 4.4842 0.5224
17 27 8 3.8248 -0.4254
17 27 9 -0.9638 0.3840
17 27 10 12.0539 -0.8262
17 27 11 17.1686 -0.8604
17 27 12 7.9770 -0.1514
17 27 13 -2.2646 -0.6837
17 27 14 2.0539 0.1381
17 28 1 -6.1255 0.0763
17 28 2 -0.6622 3.1682
17 28 3 3.5267 -2.0649
17 28 4 -4.1089 -0.0286
17 28 5 2.2462 -0.8910
17 28 6 2.7185 -2.1612
17 28 7 6.8187 0.8511
17 28 8 -0.8949 -1.2720
17 28 9 -1.5256 0.3624
17 28 10 4.3351 0.0302
17 28 11 10.9923 0.1986
17 28 12 6.0959 0.3691
17 28 13 11.0031 -0.6680
17 29 0 0.0262 -1.1647
17 29 1 3.3796 3.3305
17 29 2 -2.2419 2.7181
17 29 3 1.9978 0.9308
17 29 4 4.0619 0.6172
17 29 5 -8.4320 1.7528
17 29 6 -5.5823 -0.1957
17 29 7 3.8669 0.2046
17 29 8 4.5542 0.2854
17 29 9 -12.0063 0.2067
17 29 10 -14.1340 0.1145
17 29 11 2.1858 0.3620
17 29 12 -12.9628 0.3344
17 29 13 -15.1233 -0.0299
17 30 1 0.4953 2.1577
17 30 2 -3.3160 3.9267
17 30 3 7.4186 0.5864
17 30 4 -0.1389 -0.1188
17 30 5 -2.2493 -0.6487
17 30 6 -1.4570 -0.9196
17 30 7 -8.8014 0.5693
17 30 8 2.2079 -0.8057
17 30 9 3.4989 0.5408
17 30 10 1.5206 -0.3667
17 30 11 -4.5751 0.1287
17 30 12 8.7028 0.5079
17 30 13 -4.0044 0.3070
17 31 0 -2.4863 -3.6354
17 31 1 -2.8371 -1.2731
17 31 2 7.5789 -0.8288
17 31 3 0.1816 -0.2278
17 31 4 1.1695 -0.3251
17 31 5 3.7721 -1.4676
17 31 6 -2.1018 -0.3143
17 31 7 -0.0059 -0.3501
17 31 8 -1.7315 -0.0058
17 31 9 -2.0015 0.3053
17 31 10 4.1938 -0.6217
17 31 11 -1.9656 0.3015
17 31 12 -0.7596 0.0101
17 31 13 11.1932 0.9445
17 32 1 -9.6102 -1.6610
17 32 2 -1.5639 1.9003
17 32 3 2.4852 -2.1496
17 32 4 -8.9493 -0.1952
17 32 5 -2.2723 -0.6361
17 32 6 8.3439 -0.2331
17 32 7 -6.7891 0.4465
17 32 8 -3.3344 0.4404
17 32 9 11.2934 1.3035
17 32 10 3.8176 0.4188
17 32 11 2.3007 -0.2058
17 32 12 -4.6788 -0.4077
17 33 0 -7.2371 -1.6219
17 33 1 -2.8927 0.1932
17 33 2 -2.6764 0.3408
17 33 3 0.5775 0.9094
17 33 4 -1.9571 0.5224
17 33 5 1.4327 -0.9101
17 33 6 -5.5528 0.0531
17 33 7 7.4902 -0.5612
17 33 8 -8.0851 -0.7827
17 33 9 4.5684 0.9969
17 33 10 0.5639 -0.4087
17 33 11 9.6924 0.3044
17 33 12 5.9707 -0.9539
17 34 1 -8.8486 0.1312
17 34 2 0.2914 0.3058
17 34 3 3.4355 -1.3974
17 34 4 0.0445 0.0662
17 34 5 -0.5469 -0.5266
17 34 6 3.1679 1.8580
17 34 7 -6.4359 1.0378
17 34 8 4.4159 0.2746
17 34 9 -2.8576 0.8059
17 34 10 1.5737 0.0866
17 34 11 4.2445 -0.5713
17 35 0 1.2195 -10.2307
17 35 1 1.0979 1.0289
17 35 2 -2.0487 1.4900
17 35 3 -3.5977 0.2050
17 35 4 3.2554 1.2260
17 35 5 5.1611 0.2120
17 35 6 0.1866 -0.3415
17 35 7 -3.1401 0.2961
17 35 8 2.6381 -0.5964
17 35 9 6.3714 0.2087
17 35 10 -9.9647 -0.7146
17 36 1 -2.3530 -1.7699
17 36 2 -2.2117 0.6410
17 36 3 8.3547 -1.1068
17 36 4 -5.8456 -0.5312
17 36 5 -8.1360 -1.5576
17 36 6 2.6017 0.3310
17 36 7 2.0933 -0.3778
17 36 8 -1.0970 0.3293
17 36 9 2.8861 -0.1705
17 37 0 0.0738 0.1595
17 37 1 1.3842 2.5114
17 37 2 1.7080 -0.4264
17 37 3 1.6121 0.5104
17 37 4 8.3807 -0.9999
17 37 5 3.7103 -0.1718
17 37 6 -15.1343 -0.6114
17 37 7 0.6225 0.2511
17 37 8 -6.0271 0.3369
17 37 9 5.4341 0.4797
17 38 1 -4.9675 1.7774
17 38 2 1.6911 -1.5408
17 38 3 7.7280 -0.8068
17 38 4 1.9294 0.7644
17 38 5 4.7588 -0.5966
17 38 6 2.0288 1.4657
17 38 7 4.9443 0.3804
17 38 8 5.4694 0.1270
17 39 0 -0.6553 0.0995
17 39 1 -15.4493 1.1609
17 39 2 -6.5584 0.5257
17 39 3 -4.2372 0.5538
17 39 4 -1.0396 -0.7640
17 39 5 0.6730 0.2679
17 39 6 -2.4088 -0.4343
17 39 7 -5.4059 0.0815
17 40 1 -6.9427 -0.1801
17 40 2 3.9019 -1.4338
17 40 3 -0.2010 -1.2566
17 40 4 -4.4319 0.2689
17 40 5 1.6735 -0.5231
17 40 6 -4.5980 2.8622
17 41 0 1.1448 1.0832
17 41 1 -5.6871 1.0954
17 41 2 -1.8280 0.0258
17 41 3 -0.6199 0.3021
17 41 4 -4.5596 -0.9557
17 42 1 -6.8507 -0.4877
17 42 2 11.6607 0.6352
18 1 1 -11.2343 1.7818
18 1 2 -4.7787 -5.3415
18 1 3 3.4261 0.1068
18 1 4 2.4216 -2.4202
18 1 5 -4.1401 -0.7094
18 1 6 1.1825 0.4458
18 1 7 -0.2184 -1.2656
18 1 8 -2.6092 0.8887
18 1 9 0.2248 0.9775
18 1 10 1.4052 0.4202
18 1 11 3.4741 1.2167
18 1 12 6.7153 -0.6491
18 1 13 6.2472 -0.2708
18 1 14 5.8034 -0.5133
18 1 15 -7.6632 -0.6399
18 1 16 5.2331 0.5667
18 1 17 -3.3015 0.0471
18 1 18 -1.8639 0.8530
18 2 0 8.8592 2.2394
18 2 1 15.8981 5.3741
18 2 2 -2.6227 -2.8201
18 2 3 2.4615 -0.9038
18 2 4 1.3671 1.6971
18 2 5 1.3176 2.0246
18 2 6 -3.3298 1.1421
18 2 7 -0.9515 0.7065
18 2 8 0.2916 -1.8823
18 2 9 -2.9753 -0.5522
18 2 10 -1.2812 -0.6754
18 2 11 0.4436 -0.5966
18 2 12 6.3076 0.4092
18 2 13 -4.3931 0.0921
18 2 14 10.8612 0.0315
18 2 15 8.8503 0.2982
18 2 16 -6.0156 0.1492
18 2 17 1.7235 -0.1251
18 2 18 -15.1157 0.3251
18 3 1 1.6781 5.5060
18 3 2 13.2097 1.8965
18 3 3 6.4083 2.9768
18 3 4 0.5795 0.1134
18 3 5 -2.6373 0.6766
18 3 6 2.1738 0.3021
18 3 7 -2.2178 -0.3851
18 3 8 -3.2981 -0.8061
18 3 9 0.8664 -0.8415
18 3 10 -6.0424 0.2678
18 3 11 5.7283 -0.3429
18 3 12 -0.8140 -0.0695
18 3 13 -6.6363 0.5145
18 3 14 -2.5496 -0.2212
18 3 15 2.6992 0.5687
18 3 16 6.6509 0.1771
18 3 17 -1.0441 -0.2536
18 3 18 0.2541 -0.3018
18 4 0 -0.3655 1.0736
18 4 1 -6.8245 -4.5228
18 4 2 -7.2316 -0.5612
18 4 3 14.9772 1.4475
18 4 4 6.6496 -1.0396
18 4 5 5.4383 3.4921
18 4 6 -1.3788 -1.5601
18 4 7 -2.6924 0.9079
18 4 8 -0.3998 -0.4268
18 4 9 -0.6715 -1.3167
18 4 10 1.8825 -0.0028
18 4 11 2.3479 -0.1931
18 4 12 9.6458 -0.2810
18 4 13 3.1853 0.2113
18 4 14 -0.9580 -0.2612
18 4 15 -9.9408 -0.2014
18 4 16 -1.7277 -0.2557
18 4 17 -2.2634 0.2445
18 4 18 1.3141 0.1168
18 5 1 -1.5774 0.0032
18 5 2 -3.3400 1.3927
18 5 3 -6.2891 3.1675
18 5 4 -0.9971 0.0049
18 5 5 2.2554 0.5914
18 5 6 5.3210 -1.2126
18 5 7 4.3979 -1.3892
18 5 8 -4.4514 1.5842
18 5 9 2.0908 -0.0959
18 5 10 -1.5754 -0.0461
18 5 11 6.2228 0.8525
18 5 12 2.3821 -0.7397
18 5 13 -3.0602 -0.0696
18 5 14 11.6455 -0.3175
18 5 15 0.8955 -0.3974
18 5 16 -6.6156 0.0436
18 5 17 -7.9293 0.1578
18 5 18 8.6455 0.1550
18 6 0 -2.1033 7.2954
18 6 1 2.2634 0.2040
18 6 2 -5.4838 -0.4731
18 6 3 -2.0563 -0.7044
18 6 4 2.9465 -0.1627
18 6 5 -3.3878 -0.3374
18 6 6 -0.0148 -1.8663
18 6 7 0.0971 0.7903
18 6 8 -0.5588 -0.3262
18 6 9 -2.9328 1.0736
18 6 10 -2.4384 0.9047
18 6 11 -0.6218 -0.2432
18 6 12 8.4545 1.1302
18 6 13 -7.4089 -0.2873
18 6 14 6.1520 -0.4372
18 6 15 7.3730 0.0331
18 6 16 0.4898 -0.7683
18 6 17 1.4475 0.2452
18 6 18 -5.4281 -0.0851
18 7 1 2.4208 -4.1440
18 7 2 9.2635 -1.7592
18 7 3 -6.0911 -0.7007
18 7 4 -1.5927 0.3479
18 7 5 -2.7129 1.1462
18 7 6 3.7391 -0.2201
18 7 7 -2.3620 0.0513
18 7 8 -1.9738 0.7497
18 7 9 1.7798 -0.0014
18 7 10 -2.9290 0.8551
18 7 11 2.9062 -0.3470
18 7 12 -1.9459 -0.5603
18 7 13 -1.3954 -0.2070
18 7 14 -0.2677 -1.0288
18 7 15 0.2502 -0.0857
18 7 16 20.8525 0.2248
18 7 17 4.9643 -0.0273
18 7 18 7.5099 -0.5745
18 8 0 -0.7953 10.1879
18 8 1 3.5000 -8.9811
18 8 2 2.9101 2.8898
18 8 3 3.6650 -0.3855
18 8 4 -0.0497 -3.1605
18 8 5 -2.8651 0.9141
18 8 6 1.6911 -0.2683
18 8 7 3.4908 1.9400
18 8 8 3.2117 1.3567
18 8 9 1.7922 -0.5480
18 8 10 0.3990 -0.1430
18 8 11 2.8381 -0.5474
18 8 12 -4.5003 -0.1140
18 8 13 8.0799 -0.5219
18 8 14 -4.1100 0.0518
18 8 15 -16.8179 0.2553
18 8 16 -5.8429 -0.4772
18 8 17 -7.7929 0.6151
18 8 18 -6.8838 -0.5028
18 9 1 4.1133 -3.6838
18 9 2 6.9205 0.0466
18 9 3 6.3333 2.6799
18 9 4 0.9024 0.2019
18 9 5 -1.1305 -0.4150
18 9 6 2.4650 -0.6082
18 9 7 0.3636 -1.1515
18 9 8 -3.8428 -0.0072
18 9 9 9.5815 -0.0290
18 9 10 5.9291 0.1220
18 9 11 -1.8300 -0.0846
18 9 12 2.8046 0.1197
18 9 13 2.9971 0.0337
18 9 14 13.8427 0.0031
18 9 15 7.5137 0.6441
18 9 16 5.3908 0.2564
18 9 17 -3.7572 0.2836
18 9 18 -7.1182 -0.3345
18 10 0 -6.0421 2.2500
18 10 1 -3.0769 -0.0548
18 10 2 0.2528 2.2492
18 10 3 2.0999 -0.7262
18 10 4 5.3231 -1.1365
18 10 5 -0.1681 -0.2951
18 10 6 0.7736 -1.6974
18 10 7 0.5760 0.6190
18 10 8 -2.5489 -0.3631
18 10 9 -3.0493 1.1962
18 10 10 4.0114 0.9294
18 10 11 -4.8620 -0.5431
18 10 12 5.8192 0.4352
18 10 13 5.3394 -0.6620
18 10 14 9.3326 -0.3025
18 10 15 5.0255 0.4532
18 10 16 8.9953 0.0231
18 10 17 1.1103 0.9010
18 10 18 8.1569 0.0868
18 11 1 -3.6541 -9.6568
18 11 2 3.8868 0.1296
18 11 3 -1.1797 0.4133
18 11 4 0.9868 -0.4330
18 11 5 0.1578 2.2130
18 11 6 -0.9642 -0.1406
18 11 7 -0.8450 -0.1052
18 11 8 -4.9678 -0.3618
18 11 9 8.6109 -0.4048
18 11 10 -0.7166 0.8266
18 11 11 -9.0634 -0.1387
18 11 12 -4.7432 0.2688
18 11 13 -8.0910 0.0108
18 11 14 -0.9755 0.1315
18 11 15 6.1924 0.2389
18 11 16 -9.7052 -0.2562
18 11 17 -5.3363 0.1386
18 12 0 4.5660 11.1748
18 12 1 -2.2513 -3.1764
18 12 2 1.2411 1.1210
18 12 3 -3.1174 -0.3287
18 12 4 -2.4385 -2.7274
18 12 5 2.2818 -0.4991
18 12 6 -3.3148 -1.4985
18 12 7 1.6144 0.6443
18 12 8 -1.4388 0.2912
18 12 9 4.8095 0.7739
18 12 10 11.4421 0.6697
18 12 11 -1.3039 -0.8736
18 12 12 -3.5073 -0.2326
18 12 13 5.7476 -0.6529
18 12 14 -3.2263 0.0197
18 12 15 2.5842 0.1981
18 12 16 2.8008 -0.0341
18 12 17 11.1778 0.4236
18 13 1 0.3681 0.6228
18 13 2 1.7743 -4.3086
18 13 3 3.0608 1.1445
18 13 4 -2.3325 0.5716
18 13 5 4.2689 0.5001
18 13 6 -7.2698 -1.1943
18 13 7 -2.1406 -0.4079
18 13 8 -3.3848 0.4670
18 13 9 -6.3342 0.1146
18 13 10 13.8180 0.9113
18 13 11 -3.2833 -0.3702
18 13 12 0.1611 -0.2855
18 13 13 -2.6108 -0.4734
18 13 14 11.1736 -0.5411
18 13 15 1.7671 0.4547
18 13 16 -7.8656 0.4127
18 13 17 5.1093 0.3158
18 14 0 -0.5394 11.1046
18 14 1 1.6084 4.1490
18 14 2 -1.9489 4.8092
18 14 3 0.8073 -0.9154
18 14 4 -3.5988 0.3717
18 14 5 -0.7856 -0.5692
18 14 6 -1.3427 -1.2758
18 14 7 3.2954 0.3115
18 14 8 -0.9812 -0.4701
18 14 9 1.2256 1.1748
18 14 10 3.8463 0.4066
18 14 11 0.6101 -0.2968
18 14 12 -4.6958 -0.1519
18 14 13 -5.2786 -0.5600
18 14 14 10.0282 -0.0357
18 14 15 -5.4453 -0.3149
18 14 16 -2.7115 0.6300
18 14 17 3.3237 -0.3059
18 15 1 4.4649 -0.5023
18 15 2 0.4338 -3.1095
18 15 3 4.3561 1.2440
18 15 4 3.9471 -0.4457
18 15 5 0.5540 1.0708
18 15 6 0.4271 0.4291
18 15 7 -1.6421 -0.0221
18 15 8 -4.1356 -0.0232
18 15 9 9.7120 -0.3439
18 15 10 -1.9612 0.4456
18 15 11 -2.7984 -0.0266
18 15 12 1.4526 0.0817
18 15 13 2.3685 -0.2938
18 15 14 4.7289 -0.1237
18 15 15 -4.2090 -0.3705
18 15 16 -8.4676 0.0350
18 16 0 -2.7447 4.6277
18 16 1 -3.9207 -9.4157
18 16 2 3.7064 -0.8089
18 16 3 -0.1915 -1.3902
18 16 4 -0.4155 -0.1202
18 16 5 3.6781 -0.7232
18 16 6 0.5935 0.9784
18 16 7 0.1060 1.2748
18 16 8 -3.2873 0.7979
18 16 9 0.9648 0.4844
18 16 10 9.8955 -0.6136
18 16 11 -5.3579 -0.2735
18 16 12 -5.6519 -0.6369
18 16 13 3.0773 -0.9291
18 16 14 7.1435 0.8746
18 16 15 5.3618 -0.2515
18 16 16 -18.7693 0.3329
18 17 1 2.0779 4.3085
18 17 2 2.0718 1.8176
18 17 3 6.6724 2.7756
18 17 4 -4.7840 1.7376
18 17 5 0.0266 0.6822
18 17 6 -1.3265 -0.8440
18 17 7 -4.5361 -0.1813
18 17 8 -6.2114 -0.8651
18 17 9 -5.4384 -1.3244
18 17 10 13.4144 0.0271
18 17 11 -4.4772 -0.2507
18 17 12 10.5981 0.0274
18 17 13 5.6273 0.5766
18 17 14 1.5902 0.0386
18 17 15 2.1878 0.8168
18 17 16 11.7058 -0.2593
18 17 17 -6.8328 0.5554
18 18 0 -2.1189 4.8952
18 18 1 -3.2270 2.5654
18 18 2 1.6703 1.7287
18 18 3 5.4146 -0.9038
18 18 4 -0.2527 0.4945
18 18 5 3.4003 -1.2400
18 18 6 0.0858 -0.9050
18 18 7 2.1881 -1.2775
18 18 8 -2.5894 0.0748
18 18 9 -3.4676 0.3137
18 18 10 -4.7254 0.9486
18 18 11 4.4411 0.9980
18 18 12 10.3109 0.3525
18 18 13 6.6931 0.3437
18 18 14 -2.4200 -0.0849
18 18 15 -4.6420 0.3200
18 18 16 6.4440 0.0201
18 19 1 1.2745 2.2426
18 19 2 -6.0473 -2.6329
18 19 3 -2.5741 -1.3149
18 19 4 -1.7854 -2.3126
18 19 5 -0.0943 -1.9659
18 19 6 1.0330 0.4100
18 19 7 -1.0318 0.1247
18 19 8 -1.0062 0.4111
18 19 9 -0.1927 0.5954
18 19 10 -0.0694 0.4686
18 19 11 -7.8924 0.6873
18 19 12 -6.4076 -0.2526
18 19 13 11.3947 0.3426
18 19 14 9.5020 -0.5260
18 19 15 -12.8635 0.1752
18 19 16 -6.4858 -0.2044
18 20 0 0.4719 -18.3032
18 20 1 -1.6321 1.0969
18 20 2 5.4406 -0.5970
18 20 3 -0.2495 -1.5109
18 20 4 -5.0007 1.7926
18 20 5 -3.1813 0.6302
18 20 6 2.7840 1.9426
18 20 7 0.9253 0.3346
18 20 8 -3.8069 -0.0122
18 20 9 -0.8854 -0.2923
18 20 10 3.1990 -0.8415
18 20 11 4.9775 -0.3248
18 20 12 4.0991 -0.7632
18 20 13 -4.4227 -0.4126
18 20 14 -2.7697 -0.0192
18 20 15 19.1691 0.2993
18 20 16 -10.9483 -0.1859
18 21 1 -0.7254 0.5163
18 21 2 1.5570 2.3100
18 21 3 5.2013 2.1352
18 21 4 -2.0209 -0.5095
18 21 5 3.0531 -0.0453
18 21 6 1.8469 -0.1367
18 21 7 0.2019 -0.3605
18 21 8 3.7492 0.3789
18 21 9 -4.5711 -0.6093
18 21 10 -3.6918 -0.2437
18 21 11 6.9481 0.3295
18 21 12 9.1173 -0.2416
18 21 13 1.9893 0.7092
18 21 14 11.5021 -0.2073
18 21 15 1.5413 0.7101
18 21 16 0.5699 -0.3015
18 22 0 -0.8064 -7.8939
18 22 1 -1.8733 6.6266
18 22 2 1.4523 -2.6887
18 22 3 -1.6024 0.7605
18 22 4 0.1889 0.2210
18 22 5 -4.8648 -0.8338
18 22 6 -3.7525 0.9604
18 22 7 -0.6273 -1.5325
18 22 8 -2.6763 0.0220
18 22 9 -6.8407 -0.6492
18 22 10 -4.7675 -0.7600
18 22 11 -11.8179 0.4809
18 22 12 -3.2003 0.1598
18 22 13 -2.0679 1.0322
18 22 14 0.2461 0.1951
18 22 15 5.4692 0.3548
18 22 16 0.2130 -0.1100
18 23 1 1.1296 3.5674
18 23 2 -0.6213 -0.3910
18 23 3 3.1205 0.3861
18 23 4 -5.4719 -1.0547
18 23 5 3.8099 -0.6775
18 23 6 -5.3509 -0.1733
18 23 7 -5.1378 0.0270
18 23 8 2.0589 0.4302
18 23 9 -2.8993 0.4508
18 23 10 -2.5859 0.4838
18 23 11 -2.0194 0.3221
18 23 12 -0.2558 0.2646
18 23 13 -13.1217 0.5666
18 23 14 -0.2842 -0.1165
18 23 15 4.4860 -0.4049
18 24 0 3.7573 -12.9219
18 24 1 -1.6330 2.6874
18 24 2 6.9295 -1.0151
18 24 3 1.7561 2.0619
18 24 4 2.2030 2.5261
18 24 5 5.8328 -0.9019
18 24 6 4.3732 1.2605
18 24 7 -2.9998 -0.8141
18 24 8 0.4879 0.6485
18 24 9 1.8311 -1.4788
18 24 10 4.6932 -0.7440
18 24 11 8.7950 -0.1086
18 24 12 2.5433 -0.2685
18 24 13 6.5327 0.6172
18 24 14 -6.1276 0.7594
18 24 15 -2.6709 -0.1155
18 25 1 -1.4814 1.7433
18 25 2 1.2612 -1.8015
18 25 3 0.2354 0.6641
18 25 4 -0.3720 -0.2662
18 25 5 1.5889 0.7885
18 25 6 3.1612 -0.2962
18 25 7 2.2767 -0.4985
18 25 8 2.8482 0.2703
18 25 9 2.9192 -0.2712
18 25 10 -8.1511 0.2037
18 25 11 -0.9723 -0.3724
18 25 12 7.5107 -0.0818
18 25 13 0.5042 0.0665
18 25 14 8.2946 -0.3262
18 25 15 -3.6191 0.1406
18 26 0 -2.4909 -6.0360
18 26 1 1.2774 6.5567
18 26 2 1.7330 -0.0932
18 26 3 6.6640 1.2916
18 26 4 -0.0199 1.4007
18 26 5 9.5567 -1.3315
18 26 6 -2.3712 0.9378
18 26 7 3.8278 -0.8762
18 26 8 1.9067 -0.0685
18 26 9 3.1509 -0.2647
18 26 10 15.4366 -0.2708
18 26 11 -6.5601 0.6024
18 26 12 -8.5662 0.2823
18 26 13 -0.8544 0.0558
18 26 14 0.5702 0.2553
18 27 1 -6.9745 -0.5080
18 27 2 2.3677 0.5215
18 27 3 -1.6518 0.1577
18 27 4 3.1922 -1.4785
18 27 5 7.7923 0.1346
18 27 6 -6.1307 0.3618
18 27 7 0.9893 -0.1746
18 27 8 -1.6849 0.7121
18 27 9 -1.0696 -0.0819
18 27 10 -2.2564 0.3654
18 27 11 16.0617 -0.3201
18 27 12 -0.7492 -0.0895
18 27 13 -0.1694 -0.5472
18 27 14 1.6400 -0.6321
18 28 0 5.4494 -11.9218
18 28 1 1.9077 -2.1478
18 28 2 -3.9402 -2.5191
18 28 3 2.2759 1.7821
18 28 4 1.1311 0.8566
18 28 5 -0.8604 0.7589
18 28 6 -0.9234 1.4367
18 28 7 2.1111 -0.0778
18 28 8 -2.6453 0.0801
18 28 9 -2.5307 -0.2136
18 28 10 -4.3259 -0.9633
18 28 11 0.3789 -0.0356
18 28 12 1.3762 0.0913
18 28 13 -3.4856 0.3627
18 29 1 -6.3931 1.7427
18 29 2 -0.2783 0.9694
18 29 3 0.4326 1.5521
18 29 4 4.7853 0.7826
18 29 5 1.1180 0.4570
18 29 6 -5.6258 -0.2869
18 29 7 -0.3902 -0.4387
18 29 8 5.3098 -0.2052
18 29 9 5.4596 -0.4225
18 29 10 -9.7152 0.1686
18 29 11 1.8631 -0.3199
18 29 12 13.0443 -0.4084
18 29 13 -2.0910 0.3710
18 30 0 4.2396 -3.9501
18 30 1 4.5305 3.9810
18 30 2 -10.3141 0.3536
18 30 3 -2.3797 0.7630
18 30 4 2.8346 -0.4818
18 30 5 -3.8463 -0.3635
18 30 6 3.0852 -0.6410
18 30 7 -2.2308 -1.4014
18 30 8 -7.1978 -0.6105
18 30 9 8.0917 0.4934
18 30 10 5.4793 0.3792
18 30 11 -6.7718 0.8574
18 30 12 2.4642 -0.0956
18 30 13 11.1632 0.9335
18 31 1 1.3819 -4.0341
18 31 2 -1.4679 -2.8849
18 31 3 4.2261 -0.3543
18 31 4 -4.9992 -0.4414
18 31 5 -4.6655 0.4386
18 31 6 -3.9274 0.7188
18 31 7 1.2682 -0.0636
18 31 8 -0.4845 0.9824
18 31 9 -0.8354 -0.3742
18 31 10 1.6782 1.0747
18 31 11 5.6254 0.3182
18 31 12 -6.3117 0.4031
18 32 0 -3.7280 4.0057
18 32 1 -7.1987 0.3988
18 32 2 -3.6443 -0.2670
18 32 3 1.9660 1.2987
18 32 4 2.1600 -0.9058
18 32 5 1.4151 -0.3095
18 32 6 6.2128 -0.6571
18 32 7 5.8957 -0.0353
18 32 8 -7.3396 -0.1792
18 32 9 -0.5842 0.7983
18 32 10 3.0405 0.3659
18 32 11 -4.9091 0.3214
18 32 12 -3.6831 -0.5054
18 33 1 -5.8044 0.7028
18 33 2 4.6004 -1.0823
18 33 3 3.7438 0.6139
18 33 4 -2.5664 0.6213
18 33 5 -0.7851 -0.5981
18 33 6 -4.5883 -0.0537
18 33 7 3.1857 -0.6355
18 33 8 6.5314 -0.2262
18 33 9 -5.0019 -0.0907
18 33 10 7.3225 -0.1769
18 33 11 2.0735 -0.1820
18 34 0 -0.1237 -3.3213
18 34 1 -1.4314 -1.0745
18 34 2 -3.6626 0.4631
18 34 3 8.8477 -0.1401
18 34 4 3.8663 0.4785
18 34 5 -4.1287 -1.0322
18 34 6 4.3977 -0.4433
18 34 7 -2.0744 0.3742
18 34 8 6.2418 0.0355
18 34 9 4.0446 0.5968
18 34 10 4.0902 0.2588
18 34 11 2.0268 0.7273
18 35 1 -6.6228 -4.1028
18 35 2 -6.6254 0.5936
18 35 3 -3.8929 1.0897
18 35 4 1.4002 0.2512
18 35 5 -0.1097 0.9804
18 35 6 -8.2645 -0.5595
18 35 7 -1.1795 0.1028
18 35 8 -0.8085 0.4489
18 35 9 4.6025 0.2730
18 35 10 10.6956 0.9200
18 36 0 -2.4730 4.5065
18 36 1 8.7899 0.1257
18 36 2 -4.0536 1.6831
18 36 3 1.4034 0.6849
18 36 4 5.4578 -0.6038
18 36 5 9.5953 -0.3290
18 36 6 -7.6347 -1.0403
18 36 7 -2.5195 0.7809
18 36 8 -3.4375 0.5254
18 36 9 -8.4734 -0.1846
18 37 1 0.0537 -0.3222
18 37 2 3.0438 -0.5022
18 37 3 -1.4833 1.8546
18 37 4 1.2264 0.2786
18 37 5 8.8984 -0.0335
18 37 6 1.5096 -1.0488
18 37 7 5.6454 -0.2879
18 37 8 1.9820 0.0112
18 38 0 -13.3502 3.8208
18 38 1 -6.9059 3.5478
18 38 2 -12.8074 1.3758
18 38 3 3.2045 -1.0176
18 38 4 -7.7416 -1.7315
18 38 5 6.3501 -1.0652
18 38 6 -8.5690 -0.6824
18 38 7 -8.7024 -0.5898
18 38 8 10.8973 1.6639
18 39 1 -1.6115 1.1349
18 39 2 -9.2193 -0.1311
18 39 3 -1.3128 0.3072
18 39 4 -3.1691 -0.1570
18 39 5 12.5202 0.3334
18 39 7 -5.3838 1.5482
18 40 0 8.4180 -6.7640
18 40 1 -8.7663 -2.2371
18 40 2 -5.1462 1.1596
18 40 3 0.6829 -0.3741
18 40 4 -21.2962 -0.5583
18 41 1 1.5234 -1.2139
18 41 2 1.7457 0.6398
18 41 3 1.0159 0.0814
18 42 0 6.2070 2.1520
19 1 0 8.0136 -9.6796
19 1 1 2.6732 -11.6015
19 1 2 8.1811 -0.1804
19 1 3 -2.9979 1.3271
19 1 4 6.6597 -0.3176
19 1 5 -7.7096 1.2250
19 1 6 7.1684 -0.5387
19 1 7 -4.3843 0.7403
19 1 8 1.0824 -0.0365
19 1 9 -5.4165 -1.0630
19 1 10 4.3605 0.0836
19 1 11 -4.1314 0.0868
19 1 12 -1.5120 0.0284
19 1 13 -1.8967 0.3058
19 1 14 1.2736 -0.1829
19 1 15 10.5000 0.6054
19 1 16 -10.1778 -0.1230
19 1 17 -21.0980 0.8016
19 1 18 -0.5946 0.0159
19 2 1 -5.2226 0.5788
19 2 2 2.2231 -0.1626
19 2 3 -3.5001 -2.3635
19 2 4 7.8439 0.1167
19 2 5 -0.4208 -1.2487
19 2 6 0.0693 0.8894
19 2 7 2.2030 0.2378
19 2 8 6.1698 -0.1632
19 2 9 2.3573 0.0783
19 2 10 3.5835 -1.1542
19 2 11 -0.3436 -0.2404
19 2 12 -0.5167 0.6878
19 2 13 3.5051 -0.0833
19 2 14 -12.0150 0.8030
19 2 15 0.9712 0.0523
19 2 16 3.7567 0.0794
19 2 17 -1.9999 -0.0581
19 2 18 -15.4853 0.1232
19 3 0 12.9943 3.7599
19 3 1 0.7752 -3.5614
19 3 2 -1.0474 0.3924
19 3 3 -3.2469 1.2646
19 3 4 -0.1591 1.0103
19 3 5 -1.1074 2.2359
19 3 6 1.9523 0.1776
19 3 7 -3.7676 1.4031
19 3 8 2.8950 -0.4017
19 3 9 0.3094 0.4656
19 3 10 1.2942 0.3233
19 3 11 0.4191 -0.0881
19 3 12 6.8971 0.7707
19 3 13 4.8833 -0.3531
19 3 14 1.3514 -0.5379
19 3 15 3.8376 0.1134
19 3 16 12.8962 -0.3481
19 3 17 -21.5476 -0.2467
19 3 18 -1.5641 -0.2635
19 4 1 11.9731 0.1002
19 4 2 2.1379 6.8764
19 4 3 -2.7326 -3.9493
19 4 4 -0.3397 0.4229
19 4 5 -0.9111 -1.4647
19 4 6 -0.3489 -0.8824
19 4 7 -1.9468 0.6966
19 4 8 -2.0129 -0.0055
19 4 9 1.9402 0.7372
19 4 10 1.2452 0.2543
19 4 11 -3.4517 -0.1962
19 4 12 0.1980 0.1393
19 4 13 -5.7697 0.2063
19 4 14 1.5670 0.1277
19 4 15 -4.8714 -0.1306
19 4 16 4.4268 0.0279
19 4 17 17.3176 0.0413
19 4 18 6.7675 -0.4549
19 5 0 -11.7623 0.8330
19 5 1 -3.6055 -2.5232
19 5 2 1.1877 -0.3040
19 5 3 0.1098 0.9672
19 5 4 0.8986 -2.4216
19 5 5 -1.5121 2.2238
19 5 6 1.9706 -1.9503
19 5 7 1.6784 -0.6651
19 5 8 2.3855 -1.1051
19 5 9 -2.9352 -0.7081
19 5 10 5.5149 0.3409
19 5 11 -2.3459 0.3725
19 5 12 10.4981 -0.0128
19 5 13 -4.9337 0.5907
19 5 14 -8.3699 -0.3120
19 5 15 -2.9037 -0.1481
19 5 16 -5.8306 -0.0446
19 5 17 -22.9405 0.2793
19 5 18 14.9043 0.4521
19 6 1 2.2224 -5.4604
19 6 2 2.3865 4.1840
19 6 3 -8.4400 -1.7855
19 6 4 -0.3688 1.2423
19 6 5 3.4883 -1.8361
19 6 6 -2.8751 0.3071
19 6 7 0.2352 -1.0923
19 6 8 2.7337 0.0627
19 6 9 -1.7299 0.6637
19 6 10 7.5913 -1.3726
19 6 11 -1.5031 0.6883
19 6 12 6.6788 0.1047
19 6 13 4.9082 -0.0133
19 6 14 5.8808 0.7078
19 6 15 4.9537 -0.1586
19 6 16 13.2673 -0.3875
19 6 17 -12.8726 0.2202
19 6 18 -5.5485 -0.4031
19 7 0 3.7245 27.6576
19 7 1 1.7962 -0.6262
19 7 2 8.6093 -2.9908
19 7 3 8.0758 1.0110
19 7 4 -7.0673 -1.8773
19 7 5 1.3811 0.9875
19 7 6 0.6292 0.3283
19 7 7 1.1548 -0.9441
19 7 8 -2.2926 -0.1580
19 7 9 -2.0544 0.6087
19 7 10 0.4271 0.0365
19 7 11 1.2704 -0.1320
19 7 12 0.8651 0.6443
19 7 13 5.0297 -0.1558
19 7 14 -5.4962 0.0061
19 7 15 -3.1535 -0.1084
19 7 16 2.6259 -0.2420
19 7 17 -2.0989 -0.0808
19 7 18 3.8779 0.1151
19 8 1 4.9603 7.7984
19 8 2 3.2223 2.2402
19 8 3 4.6422 -3.1493
19 8 4 1.5976 2.5557
19 8 5 0.3203 -2.5969
19 8 6 -0.3207 0.1411
19 8 7 2.1857 0.4947
19 8 8 1.0072 -0.1405
19 8 9 1.4399 1.5270
19 8 10 -1.5073 0.2206
19 8 11 -0.9771 0.3447
19 8 12 -0.0833 -0.0463
19 8 13 -4.2521 -0.6390
19 8 14 13.7728 -0.5774
19 8 15 7.0142 -1.1887
19 8 16 -1.7477 0.0558
19 8 17 -5.7661 -0.0340
19 8 18 0.6115 -0.3541
19 9 0 -7.1868 -14.6629
19 9 1 1.3135 -9.5810
19 9 2 -2.3293 -0.3467
19 9 3 2.3898 -2.3674
19 9 4 3.2210 2.4143
19 9 5 -2.0888 1.0674
19 9 6 6.7471 0.0616
19 9 7 -0.5169 0.5185
19 9 8 2.1872 -1.0327
19 9 9 -5.2370 -1.2963
19 9 10 13.8147 -0.0831
19 9 11 1.0354 -0.4733
19 9 12 9.7674 0.3331
19 9 13 2.3476 -0.2221
19 9 14 2.3802 0.0810
19 9 15 6.6794 -0.4776
19 9 16 16.4573 0.3142
19 9 17 3.7887 0.7661
19 9 18 1.4936 0.1617
19 10 1 0.2554 -6.9185
19 10 2 8.2714 3.0363
19 10 3 -2.9733 0.9519
19 10 4 -1.5085 2.2083
19 10 5 -2.7414 0.9174
19 10 6 -2.3369 -0.3629
19 10 7 -3.2256 -1.3861
19 10 8 1.6115 -1.8518
19 10 9 -6.4537 -0.0619
19 10 10 2.1534 -0.6176
19 10 11 4.9161 0.3428
19 10 12 -1.8090 0.6857
19 10 13 -1.2753 0.0526
19 10 14 4.7027 0.5120
19 10 15 -1.1705 0.2097
19 10 16 -3.2791 -0.2490
19 10 17 -5.1111 0.1200
19 11 0 3.9967 35.0368
19 11 1 -3.0718 2.8452
19 11 2 -4.0700 0.1298
19 11 3 3.8331 1.2319
19 11 4 -2.3495 -2.3009
19 11 5 -0.1461 -0.0089
19 11 6 2.3079 1.2973
19 11 7 -2.2633 -0.7649
19 11 8 2.0353 -0.1460
19 11 9 -5.0302 -0.6598
19 11 10 4.6553 1.0906
19 11 11 -3.2851 0.4369
19 11 12 1.4156 1.2306
19 11 13 -0.0015 -0.0781
19 11 14 -15.1865 -0.3716
19 11 15 1.1772 -0.1186
19 11 16 -8.6462 -0.3759
19 11 17 -7.3448 -0.0803
19 12 1 3.7300 6.3284
19 12 2 -0.4868 1.8092
19 12 3 2.1417 0.3740
19 12 4 3.0749 0.5346
19 12 5 0.4141 -1.6375
19 12 6 2.3130 -0.5378
19 12 7 0.3634 -0.1081
19 12 8 0.0801 -0.4655
19 12 9 -5.9681 0.8387
19 12 10 9.5943 0.9865
19 12 11 7.6073 1.4678
19 12 12 -6.0560 -0.2862
19 12 13 1.6320 -0.3582
19 12 14 7.8919 -0.7522
19 12 15 15.2382 -1.3288
19 12 16 -10.4123 -0.0027
19 12 17 -16.0742 0.2655
19 13 0 -0.4694 -8.0226
19 13 1 9.1968 -0.7196
19 13 2 -9.0226 -2.2939
19 13 3 2.1911 -3.4594
19 13 4 -0.5319 -0.3610
19 13 5 -0.6797 0.6654
19 13 6 3.9592 1.1236
19 13 7 -2.6542 0.7906
19 13 8 10.6625 0.1193
19 13 9 -8.0573 -0.3598
19 13 10 -2.8382 -0.1032
19 13 11 1.9899 -0.2738
19 13 12 -1.6589 0.4208
19 13 13 -5.6049 -0.4358
19 13 14 -0.4326 0.1327
19 13 15 21.5259 -0.7600
19 13 16 12.0442 -0.4348
19 13 17 -11.8086 0.4280
19 14 1 3.8237 -0.0891
19 14 2 6.0079 -1.8420
19 14 3 -4.6060 1.3832
19 14 4 1.5856 -0.1260
19 14 5 -1.6807 0.2406
19 14 6 -6.1681 -0.8138
19 14 7 -1.4528 -0.2277
19 14 8 -2.5371 -1.3875
19 14 9 -2.2946 -0.1867
19 14 10 -0.0413 -0.2478
19 14 11 11.3967 0.1528
19 14 12 -6.5682 0.3533
19 14 13 -9.5653 -0.0413
19 14 14 -6.1427 0.4697
19 14 15 8.0338 0.5002
19 14 16 1.1285 0.2533
19 14 17 -3.5781 0.2470
19 15 0 -3.7343 8.1465
19 15 1 -1.6943 1.6149
19 15 2 -1.0037 1.0533
19 15 3 1.4214 0.2946
19 15 4 2.1438 0.9171
19 15 5 -1.2457 1.9263
19 15 6 0.0151 -0.0640
19 15 7 1.0584 0.3771
19 15 8 -0.5787 -0.2201
19 15 9 -2.3640 -0.3566
19 15 10 -3.9343 0.1141
19 15 11 0.9727 -0.1592
19 15 12 4.1116 0.2619
19 15 13 4.6944 0.0257
19 15 14 9.1635 0.3323
19 15 15 9.4350 0.0443
19 15 16 -5.3982 0.2685
19 16 1 -1.2965 4.0841
19 16 2 1.5838 -4.1805
19 16 3 0.6956 2.0509
19 16 4 2.7520 -0.5622
19 16 5 1.8919 0.4071
19 16 6 1.1556 -0.5254
19 16 7 0.5245 -0.0294
19 16 8 0.8951 0.2264
19 16 9 1.6712 0.0433
19 16 10 -1.2959 0.5722
19 16 11 1.6251 0.6142
19 16 12 1.2863 0.2728
19 16 13 1.6437 -0.2374
19 16 14 -1.2513 -0.2280
19 16 15 11.5622 -0.2826
19 16 16 7.4849 0.3152
19 17 0 1.7757 -4.7739
19 17 1 6.9878 -1.2370
19 17 2 -0.7710 -0.4469
19 17 3 3.2336 -1.8137
19 17 4 1.3786 1.0696
19 17 5 -4.7447 -0.2120
19 17 6 2.2647 -1.4138
19 17 7 -3.9087 0.2445
19 17 8 2.5945 -0.7563
19 17 9 4.3688 0.0131
19 17 10 -3.4038 -0.4474
19 17 11 1.0964 -0.6055
19 17 12 -9.3649 0.1429
19 17 13 10.2240 -0.4037
19 17 14 9.0349 0.1449
19 17 15 -6.4295 -0.0052
19 17 16 3.4561 0.2042
19 18 1 -0.6983 -1.4620
19 18 2 -2.7233 -0.2663
19 18 3 2.1141 2.4152
19 18 4 2.0486 -0.8118
19 18 5 -0.1147 1.0504
19 18 6 -0.7364 -0.8810
19 18 7 -5.2156 -0.6774
19 18 8 -2.8135 -0.0008
19 18 9 2.9441 -0.6146
19 18 10 0.6207 0.2803
19 18 11 -5.7385 -0.4159
19 18 12 -9.4021 -0.1294
19 18 13 5.1092 -0.2497
19 18 14 -3.0318 0.3099
19 18 15 -2.6479 0.2270
19 18 16 1.0706 0.7057
19 19 0 -2.4121 9.4160
19 19 1 1.2703 -1.5635
19 19 2 -0.6936 1.4065
19 19 3 -3.2540 0.2675
19 19 4 -0.7676 0.1797
19 19 5 -3.4585 -0.0934
19 19 6 2.6490 -1.4466
19 19 7 -5.6085 0.1183
19 19 8 2.4772 -0.0129
19 19 9 4.1727 -0.0244
19 19 10 -0.2351 0.2829
19 19 11 3.4609 0.0470
19 19 12 -5.4167 0.3097
19 19 13 -6.6046 -0.1847
19 19 14 1.0388 0.0610
19 19 15 -3.9901 -0.1420
19 19 16 -1.5996 -0.0723
19 20 1 -0.0638 -2.5854
19 20 2 4.0324 -0.7681
19 20 3 3.8101 1.0623
19 20 4 6.8456 -1.4772
19 20 5 -1.5030 1.0379
19 20 6 -0.9823 0.9565
19 20 7 -2.9406 0.5654
19 20 8 -0.8981 1.9694
19 20 9 -4.2539 0.2785
19 20 10 2.9508 0.6503
19 20 11 -3.2027 -0.3379
19 20 12 -3.8918 -0.9818
19 20 13 17.5363 -0.3329
19 20 14 -7.2160 -0.4261
19 20 15 1.2352 -0.6204
19 20 16 6.8455 0.7762
19 21 0 -1.0582 -9.4627
19 21 1 -3.1741 -5.1666
19 21 2 -4.6506 -0.3953
19 21 3 5.6945 0.0219
19 21 4 1.9511 1.1436
19 21 5 -3.5907 0.6250
19 21 6 3.6219 -0.8064
19 21 7 -7.7382 0.6385
19 21 8 0.3036 -0.5246
19 21 9 2.4940 0.5383
19 21 10 2.9787 -0.2434
19 21 11 -5.5643 -0.2677
19 21 12 11.2643 0.0348
19 21 13 -6.9214 -0.2872
19 21 14 5.6715 0.1548
19 21 15 -2.2972 0.5370
19 21 16 0.6953 0.1733
19 22 1 -0.5030 -5.3000
19 22 2 -6.7873 -3.2085
19 22 3 0.5742 0.2482
19 22 4 2.1440 -0.6608
19 22 5 3.2130 0.9524
19 22 6 2.7475 1.1035
19 22 7 2.1917 -0.9608
19 22 8 0.1587 -0.1326
19 22 9 2.1731 -0.2231
19 22 10 2.4665 -0.6090
19 22 11 -0.0873 -0.7036
19 22 12 1.4562 -0.4233
19 22 13 6.6593 0.2791
19 22 14 5.3445 0.3369
19 22 15 -1.0643 0.4392
19 23 0 5.5097 2.7327
19 23 1 2.9287 1.7546
19 23 2 0.6317 0.8465
19 23 3 0.1184 0.5659
19 23 4 7.1232 -0.6577
19 23 5 -1.5990 0.5238
19 23 6 5.8297 0.0012
19 23 7 -7.7149 0.1518
19 23 8 2.0896 -0.8459
19 23 9 2.5836 0.3091
19 23 10 2.0230 0.2437
19 23 11 1.1648 0.0471
19 23 12 -1.5341 0.4554
19 23 13 -2.2271 0.0383
19 23 14 1.3192 0.0762
19 23 15 1.0486 0.2164
19 24 1 -1.3383 0.4760
19 24 2 0.7879 -0.8173
19 24 3 -0.4975 0.2514
19 24 4 2.9648 0.1321
19 24 5 -0.8853 0.1350
19 24 6 4.7484 0.0386
19 24 7 -6.7292 0.3171
19 24 8 -7.0624 1.0793
19 24 9 -7.8938 -0.4728
19 24 10 -0.0041 0.5203
19 24 11 4.5077 -0.1368
19 24 12 -3.8076 -0.5296
19 24 13 0.7310 0.3226
19 24 14 -3.3534 0.0284
19 24 15 3.3240 0.0378
19 25 0 1.6263 -0.5442
19 25 1 -5.1809 -0.9076
19 25 2 -3.5744 2.1953
19 25 3 2.0368 0.9905
19 25 4 3.2878 -0.3006
19 25 5 6.0334 0.9514
19 25 6 7.6633 -0.9987
19 25 7 1.4726 0.2621
19 25 8 3.0271 0.4771
19 25 9 -4.7920 -0.2042
19 25 10 3.5035 0.7254
19 25 11 -7.2706 0.3527
19 25 12 5.4820 0.0052
19 25 13 -2.3020 0.4572
19 25 14 0.4165 -1.1811
19 26 1 -0.7187 -1.3177
19 26 2 -9.5402 -4.2931
19 26 3 -0.5011 0.3827
19 26 4 -0.5418 -0.9447
19 26 5 -0.1748 0.3936
19 26 6 0.5316 1.2680
19 26 7 1.4349 -0.1628
19 26 8 1.5485 1.3314
19 26 9 -3.7913 -0.3708
19 26 10 4.5617 -0.4846
19 26 11 5.4046 -0.2866
19 26 12 -6.3475 -0.7063
19 26 13 6.1688 0.1486
19 26 14 12.5393 0.0317
19 27 0 11.9681 1.9763
19 27 1 -0.9171 -3.7109
19 27 2 0.9309 -0.5823
19 27 3 -2.0485 -0.8640
19 27 4 2.2592 -0.2342
19 27 5 0.8695 -0.4494
19 27 6 0.1877 0.3110
19 27 7 -3.9415 0.7930
19 27 8 1.4424 -0.3784
19 27 9 2.9510 0.2431
19 27 10 3.8736 -0.7506
19 27 11 4.7447 -0.2200
19 27 12 -1.3035 0.2051
19 27 13 -3.7518 0.2255
19 28 1 0.9676 0.3203
19 28 2 -4.8454 -0.3337
19 28 3 -9.0466 0.2270
19 28 4 2.3184 0.3705
19 28 5 4.5583 0.6048
19 28 6 2.0962 0.6775
19 28 7 4.0936 0.2795
19 28 8 -0.0889 0.1621
19 28 9 -2.5564 -0.5796
19 28 10 4.9204 0.6790
19 28 11 1.2095 -0.2824
19 28 12 5.8345 0.1207
19 28 13 6.0667 0.4880
19 29 0 7.8495 9.5987
19 29 1 0.7439 -0.8218
19 29 2 -0.7570 1.8159
19 29 3 -2.4857 0.8599
19 29 4 3.6807 -1.4451
19 29 5 -1.0893 0.6860
19 29 6 2.0505 -0.8577
19 29 7 -4.8324 -0.1984
19 29 8 5.1854 0.1546
19 29 9 -0.1123 -0.3667
19 29 10 0.4601 0.1202
19 29 11 -8.4908 0.5033
19 29 12 -5.5361 0.7069
19 29 13 0.9169 -0.1885
19 30 1 6.1114 2.1262
19 30 2 -1.1909 -0.7994
19 30 3 -4.0280 1.7106
19 30 4 -0.7781 -0.9804
19 30 5 1.0102 -0.4093
19 30 6 -3.7762 0.5488
19 30 7 5.4253 -1.2982
19 30 8 -4.4254 -0.5616
19 30 9 0.5195 -0.6490
19 30 10 7.1210 -0.3362
19 30 11 -6.5652 0.5666
19 30 12 -8.4258 -0.0615
19 31 0 -8.1232 1.0866
19 31 1 -1.8851 -1.6902
19 31 2 -4.4013 -1.1697
19 31 3 -2.8170 -0.5722
19 31 4 4.2926 -1.1528
19 31 5 -1.8687 0.2727
19 31 6 -5.1551 -0.6317
19 31 7 -2.4935 -0.0371
19 31 8 2.7664 0.2488
19 31 9 0.2896 -0.3596
19 31 10 6.3419 0.7352
19 31 11 4.3276 0.1170
19 31 12 -5.8810 1.0111
19 32 1 -3.1737 -0.0208
19 32 2 -4.8647 0.9142
19 32 3 2.5550 0.9545
19 32 4 -3.2859 0.4857
19 32 5 -1.5632 0.8214
19 32 6 -1.9699 -1.0304
19 32 7 3.1670 0.5435
19 32 8 -3.3647 -0.3164
19 32 9 3.3886 0.0733
19 32 10 15.0613 -0.3735
19 32 11 5.1779 0.4636
19 33 0 11.3255 4.5516
19 33 1 2.1696 -3.3222
19 33 2 1.5546 -1.5080
19 33 3 3.0480 -0.3005
19 33 4 6.3407 0.2214
19 33 5 -3.4694 0.7825
19 33 6 3.7018 0.6070
19 33 7 -4.2218 -0.3586
19 33 8 5.7785 -0.0423
19 33 9 -3.5393 -0.2730
19 33 10 10.2202 0.4739
19 33 11 9.9345 -0.6366
19 34 1 -2.6488 1.6327
19 34 2 -8.6194 -0.9850
19 34 3 3.3144 0.9807
19 34 4 -5.2870 0.4041
19 34 5 -0.5118 -0.2687
19 34 6 0.0737 -0.7050
19 34 7 1.8320 -0.4066
19 34 8 -12.3453 -0.4917
19 34 9 -4.7326 0.4298
19 34 10 2.4156 0.4323
19 35 0 9.8026 3.3178
19 35 1 0.5561 -0.2220
19 35 2 0.7368 -0.0009
19 35 3 -3.7236 -0.6035
19 35 4 0.7872 1.3259
19 35 5 -4.2548 0.2164
19 35 6 1.4099 0.4910
19 35 7 5.1360 0.0149
19 35 8 4.5025 -0.6026
19 35 9 -8.6408 -0.2875
19 35 10 -9.1145 0.4564
19 36 1 1.0036 -0.7547
19 36 2 10.0212 1.6107
19 36 3 2.8628 1.7058
19 36 4 0.9460 0.5468
19 36 5 -0.7835 0.0789
19 36 6 1.3136 -0.2615
19 36 7 -4.4044 -1.1229
19 36 8 5.4456 -0.5469
19 36 9 7.7847 0.6029
19 37 0 -11.5692 5.0886
19 37 1 -11.2744 0.1313
19 37 2 -5.2201 -0.8124
19 37 3 -4.9360 -0.8158
19 37 4 -3.2742 -0.0759
19 37 5 -5.8848 -0.5398
19 37 6 3.5894 -0.2505
19 37 7 -7.5048 0.0525
19 37 8 -1.8731 0.3288
19 38 1 -5.4934 0.4104
19 38 2 -5.0237 0.3002
19 38 3 9.5170 0.9617
19 38 4 -5.5858 0.6038
19 38 5 2.4744 -0.7688
19 38 6 8.5225 -0.0218
19 38 7 1.5917 -0.6392
19 39 0 3.0351 -5.3405
19 39 1 1.8887 0.1876
19 39 2 -4.6944 -0.4217
19 39 3 -5.5077 -1.4817
19 39 4 0.5230 0.9188
19 39 5 -14.6640 1.0314
19 40 1 9.2648 0.2005
19 40 2 -1.8380 1.7332
19 40 3 8.5462 -0.7393
19 40 4 3.0394 -0.7669
19 40 5 -15.1002 -2.0043
19 41 0 -6.7439 -1.7098
19 41 1 -6.0878 1.2002
19 41 2 4.7885 1.3809
20 1 1 -4.7164 -8.8635
20 1 2 2.2230 -2.0973
20 1 3 11.9308 -2.9501
20 1 4 -2.0273 0.1072
20 1 5 -2.3749 1.6737
20 1 6 -1.5583 0.4309
20 1 7 1.3682 0.6620
20 1 8 1.4868 0.2190
20 1 9 0.6948 0.7519
20 1 10 -1.3160 -0.4819
20 1 11 -1.9317 -0.4613
20 1 12 -3.7500 0.5634
20 1 13 -4.0723 -0.6909
20 1 14 -4.2370 0.3524
20 1 15 14.2183 -0.1834
20 1 16 13.1124 0.1047
20 1 17 -6.1372 0.5753
20 1 18 -11.2713 0.3666
20 2 0 16.4286 -1.9680
20 2 1 -1.6071 -0.0661
20 2 2 1.3513 1.0498
20 2 3 2.5227 0.8737
20 2 4 -1.7226 2.0789
20 2 5 5.7057 -2.3783
20 2 6 -5.9718 1.4913
20 2 7 -1.8595 -0.4659
20 2 8 -8.4521 -0.3968
20 2 9 7.3071 1.0974
20 2 10 -2.2260 -0.7088
20 2 11 6.7230 -0.3726
20 2 12 -5.8555 -0.5372
20 2 13 -4.0395 -0.4276
20 2 14 -1.2405 0.3914
20 2 15 -6.2273 0.2201
20 2 16 -11.5536 0.4535
20 2 17 13.8462 -0.0877
20 2 18 -4.6005 0.2278
20 3 1 2.9014 -0.8143
20 3 2 2.6182 3.6146
20 3 3 4.5727 -0.8796
20 3 4 -4.4991 1.5809
20 3 5 3.9544 1.7936
20 3 6 -2.3108 -1.5809
20 3 7 -0.7927 0.9755
20 3 8 -5.8393 -0.8944
20 3 9 -2.0123 -0.9262
20 3 10 1.0962 0.4268
20 3 11 4.0833 -0.8898
20 3 12 7.1008 0.5087
20 3 13 -3.6121 -0.0879
20 3 14 3.8035 -0.2081
20 3 15 -11.2677 -0.0866
20 3 16 -1.1140 0.3043
20 3 17 -5.7474 -0.2188
20 3 18 -15.9968 -0.1079
20 4 0 -3.1210 -3.0980
20 4 1 -3.2301 -0.5065
20 4 2 2.0309 3.4412
20 4 3 -1.3557 1.1113
20 4 4 -0.4734 0.8171
20 4 5 3.2406 -1.4677
20 4 6 2.7498 0.4942
20 4 7 7.0228 -1.4973
20 4 8 -2.4290 0.5754
20 4 9 6.3674 -0.6475
20 4 10 -6.3677 -0.1018
20 4 11 1.1445 1.3222
20 4 12 6.8584 -0.8729
20 4 13 -1.7857 0.8470
20 4 14 7.1888 0.1880
20 4 15 5.7438 -0.7049
20 4 16 -9.4181 0.5343
20 4 17 -1.2453 -0.9549
20 4 18 -17.2868 -0.1414
20 5 1 0.1250 -0.2602
20 5 2 4.2434 0.0676
20 5 3 3.8211 1.1268
20 5 4 -1.7234 -0.4056
20 5 5 -0.6417 -0.1366
20 5 6 2.3469 1.2390
20 5 7 1.5880 0.4994
20 5 8 0.2502 -0.2019
20 5 9 4.0031 -0.1339
20 5 10 1.3431 -1.1153
20 5 11 0.2400 0.1385
20 5 12 -8.4614 0.0915
20 5 13 2.8766 0.0311
20 5 14 2.4033 0.3175
20 5 15 4.0737 0.1757
20 5 16 13.8858 -0.2187
20 5 17 10.8742 -0.2787
20 5 18 -12.8982 0.3060
20 6 0 -1.3055 -5.0836
20 6 1 -5.4221 -0.5294
20 6 2 4.7823 -2.0632
20 6 3 7.7336 0.9400
20 6 4 -0.4922 0.4484
20 6 5 2.9813 -1.7195
20 6 6 -1.5673 0.8816
20 6 7 2.6137 -1.2304
20 6 8 0.4454 -0.1407
20 6 9 9.4999 1.6721
20 6 10 -0.2654 -0.5038
20 6 11 6.0779 0.6999
20 6 12 4.9362 -0.1025
20 6 13 -1.2700 -0.0544
20 6 14 -6.5534 0.2005
20 6 15 -0.1399 -0.0679
20 6 16 9.2556 0.2477
20 6 17 11.2028 -0.2041
20 6 18 -1.3183 0.2706
20 7 1 -2.9243 1.9706
20 7 2 -0.9716 -2.9929
20 7 3 6.3122 -3.3930
20 7 4 -0.5774 -0.2123
20 7 5 1.3103 -0.6102
20 7 6 -1.0144 1.2728
20 7 7 0.8069 1.2762
20 7 8 -6.2399 0.1084
20 7 9 3.9077 0.0718
20 7 10 1.9817 -0.2741
20 7 11 2.7744 -0.1865
20 7 12 3.7140 -0.8314
20 7 13 13.4523 0.2890
20 7 14 10.5986 -0.2933
20 7 15 -11.2478 -0.0374
20 7 16 -6.2446 -0.4292
20 7 17 10.9593 -0.0075
20 7 18 5.9499 0.8421
20 8 0 -0.2814 -20.7001
20 8 1 1.6945 -0.1497
20 8 2 -1.9287 0.2884
20 8 3 0.7885 0.7745
20 8 4 4.5121 1.2859
20 8 5 3.0951 1.7646
20 8 6 5.9421 1.1609
20 8 7 -0.5515 -0.9397
20 8 8 -2.2337 -0.7823
20 8 9 1.6038 -0.5834
20 8 10 -5.8415 -0.8952
20 8 11 1.4819 0.4587
20 8 12 1.1285 -0.5046
20 8 13 -4.1127 0.5883
20 8 14 11.3758 0.4888
20 8 15 -5.0224 -0.2316
20 8 16 4.5300 -0.0052
20 8 17 -6.0235 -0.6122
20 8 18 -5.5481 0.0037
20 9 1 0.7046 5.3205
20 9 2 4.0223 -0.6449
20 9 3 -5.5079 1.2359
20 9 4 -3.1348 -0.3234
20 9 5 -7.8399 -2.2518
20 9 6 2.9389 0.3940
20 9 7 5.8420 0.1776
20 9 8 1.9385 -0.3433
20 9 9 4.4142 -0.2897
20 9 10 -4.0736 -1.3688
20 9 11 4.5878 0.4452
20 9 12 -2.1992 0.1258
20 9 13 3.3844 1.1553
20 9 14 8.6274 0.2665
20 9 15 -6.8993 0.5996
20 9 16 -9.2774 -0.1697
20 9 17 8.5506 -0.5194
20 10 0 4.8204 -6.5136
20 10 1 -4.5503 4.6780
20 10 2 4.1506 -0.2833
20 10 3 -0.3799 -0.0899
20 10 4 -0.0138 1.9528
20 10 5 -4.5963 -0.6104
20 10 6 -1.4265 0.7243
20 10 7 -2.9834 -0.1083
20 10 8 3.7236 0.4889
20 10 9 4.1480 -0.6213
20 10 10 -7.8796 -0.6093
20 10 11 0.6552 0.0585
20 10 12 -1.5667 -0.2016
20 10 13 -8.8836 0.9192
20 10 14 -13.5936 -0.0221
20 10 15 -5.4799 -0.0571
20 10 16 -2.4306 0.1661
20 10 17 -11.2450 -0.6089
20 11 1 3.8756 3.6637
20 11 2 4.1646 1.9687
20 11 3 5.8229 0.0860
20 11 4 2.1892 -0.9980
20 11 5 -3.1249 -0.4162
20 11 6 -2.1355 0.0784
20 11 7 -3.3161 0.8596
20 11 8 -1.1232 0.8030
20 11 9 7.2329 -0.1087
20 11 10 6.4498 -0.5433
20 11 11 -4.7170 -0.0176
20 11 12 1.7037 -0.1589
20 11 13 5.7505 0.4287
20 11 14 -5.4735 0.1478
20 11 15 -12.0201 -0.0847
20 11 16 -5.6894 -0.1914
20 11 17 -10.0042 -0.3807
20 12 0 -3.6157 2.6355
20 12 1 0.9722 -0.4680
20 12 2 -3.3414 -1.7423
20 12 3 0.5185 2.6667
20 12 4 7.2540 -0.4817
20 12 5 -1.3674 -0.6538
20 12 6 1.6630 0.3901
20 12 7 -5.2252 -0.7672
20 12 8 2.0605 0.7716
20 12 9 -3.6878 -1.2702
20 12 10 -1.8565 -0.4572
20 12 11 10.0578 0.3371
20 12 12 12.7880 -0.1408
20 12 13 8.5259 0.8585
20 12 14 4.9449 -0.4145
20 12 15 0.6781 0.2575
20 12 16 25.4827 -0.5722
20 12 17 -0.5914 -0.3223
20 13 1 5.9133 6.4025
20 13 2 2.4592 -3.4993
20 13 3 -2.1155 -0.8690
20 13 4 1.5296 -0.3189
20 13 5 0.8807 -1.6853
20 13 6 -0.8771 1.7318
20 13 7 -3.3302 -0.0368
20 13 8 -1.4418 0.2014
20 13 9 9.3448 0.3774
20 13 10 -5.9325 -0.7697
20 13 11 -8.5802 0.3499
20 13 12 -0.4812 -0.1309
20 13 13 5.5187 -0.1018
20 13 14 -0.0428 0.1992
20 13 15 -4.4651 -0.3977
20 13 16 5.6062 -0.0681
20 13 17 14.1526 -0.6113
20 14 0 1.2339 -2.1194
20 14 1 -5.4009 3.9879
20 14 2 10.5604 0.1794
20 14 3 -3.7068 -0.7034
20 14 4 1.2025 0.4420
20 14 5 1.1238 1.3560
20 14 6 4.5999 0.1713
20 14 7 -2.0569 0.5140
20 14 8 3.3546 0.2553
20 14 9 -0.7441 -0.8314
20 14 10 0.7719 -0.2986
20 14 11 3.5237 0.0254
20 14 12 8.5655 0.3003
20 14 13 -0.5311 0.0470
20 14 14 3.7413 -0.3901
20 14 15 -11.0783 0.2462
20 14 16 -4.6908 -0.1182
20 15 1 -2.8819 2.3055
20 15 2 1.3743 3.1965
20 15 3 6.5230 -1.8668
20 15 4 -0.9018 -0.8723
20 15 5 -0.2936 -0.2703
20 15 6 -4.7851 0.0348
20 15 7 0.9222 0.2004
20 15 8 -0.2005 0.1697
20 15 9 3.7194 0.3307
20 15 10 5.5648 -0.0799
20 15 11 -4.3700 -0.1150
20 15 12 3.7108 -0.0920
20 15 13 -0.6980 -0.3253
20 15 14 6.1995 0.4310
20 15 15 6.5378 -0.6952
20 15 16 -12.8917 0.1080
20 16 0 6.0728 -8.1891
20 16 1 1.9032 -2.8342
20 16 2 -1.0971 -2.3810
20 16 3 -1.0181 -0.9521
20 16 4 2.5946 -0.7735
20 16 5 -0.9485 1.9784
20 16 6 -0.0778 -0.4956
20 16 7 -2.3738 0.4663
20 16 8 -4.4052 -0.4325
20 16 9 -1.8852 -1.0470
20 16 10 3.1029 0.4967
20 16 11 1.0514 -0.3160
20 16 12 2.1719 0.1082
20 16 13 -3.3985 0.0462
20 16 14 7.5395 -0.6920
20 16 15 -3.7304 0.0444
20 16 16 11.4611 -0.0978
20 17 1 3.6183 1.5685
20 17 2 2.4583 3.0883
20 17 3 2.3543 1.6662
20 17 4 0.7329 1.2038
20 17 5 0.3178 0.6319
20 17 6 -3.7106 -0.2359
20 17 7 -1.4911 -0.0401
20 17 8 -13.8761 -0.2730
20 17 9 2.5701 -0.4413
20 17 10 1.0217 -0.2207
20 17 11 6.0683 -0.0539
20 17 12 3.9001 0.5991
20 17 13 3.0453 0.0471
20 17 14 3.2985 0.5029
20 17 15 9.3501 -0.3668
20 17 16 5.6650 -0.1824
20 18 0 -7.1740 21.6133
20 18 1 -3.0358 -0.1769
20 18 2 1.5596 -2.1503
20 18 3 -3.0170 0.1913
20 18 4 4.1203 -2.9232
20 18 5 -4.1015 0.7579
20 18 6 4.8336 -1.7298
20 18 7 3.8966 -0.5466
20 18 8 -2.1525 0.4219
20 18 9 -1.4552 0.6362
20 18 10 0.4971 0.9709
20 18 11 -1.1895 0.3183
20 18 12 -1.0179 0.5334
20 18 13 10.0559 -0.1865
20 18 14 1.7938 -0.0617
20 18 15 -12.0372 -0.1196
20 18 16 -1.6719 0.4168
20 19 1 -2.6848 -0.3354
20 19 2 0.3842 -2.3849
20 19 3 0.4560 -5.3285
20 19 4 2.4287 -1.0799
20 19 5 1.5911 -1.2195
20 19 6 -2.7634 0.1708
20 19 7 1.8752 -0.0419
20 19 8 -8.3840 0.3507
20 19 9 6.2551 1.1007
20 19 10 -0.5933 0.3282
20 19 11 -3.5674 0.3794
20 19 12 -2.8454 0.0003
20 19 13 3.0754 -0.5701
20 19 14 15.2946 -0.1145
20 19 15 -2.9228 -0.7586
20 19 16 -7.3338 0.3119
20 20 0 -1.5258 5.1786
20 20 1 1.4994 -5.4845
20 20 2 6.4127 0.8314
20 20 3 -1.3432 -1.0909
20 20 4 -1.6694 -0.4300
20 20 5 -3.3400 1.4685
20 20 6 -2.9652 -0.4389
20 20 7 -2.5462 1.2514
20 20 8 -7.8750 -0.7796
20 20 9 -4.1342 0.0018
20 20 10 -7.7210 0.5797
20 20 11 7.6560 -0.5316
20 20 12 -7.3188 -0.0868
20 20 13 3.1281 -0.9194
20 20 14 12.8870 -0.2248
20 20 15 7.7963 0.8617
20 20 16 10.6708 0.0945
20 21 1 -0.0874 -6.3692
20 21 2 -4.8303 2.6114
20 21 3 0.7704 -0.7424
20 21 4 8.6159 1.5389
20 21 5 -1.4380 0.8419
20 21 6 -1.9536 0.8941
20 21 7 5.8418 0.3255
20 21 8 1.2741 -1.0688
20 21 9 -2.8797 -0.5477
20 21 10 -4.5867 -0.7938
20 21 11 -5.7497 -0.1840
20 21 12 -5.1611 0.5930
20 21 13 7.0894 0.2721
20 21 14 -4.9796 -0.0334
20 21 15 0.5182 0.0339
20 22 0 2.2145 20.2394
20 22 1 1.7790 -1.2979
20 22 2 5.1839 0.3303
20 22 3 -3.9761 -0.7834
20 22 4 3.6877 -1.7041
20 22 5 7.0314 -0.3960
20 22 6 1.8778 -1.5241
20 22 7 -1.8678 0.7403
20 22 8 0.6279 -0.2768
20 22 9 3.0726 -0.1260
20 22 10 -2.4639 1.0210
20 22 11 0.6327 -0.0396
20 22 12 -3.2306 0.4628
20 22 13 -4.7595 -0.4625
20 22 14 -6.8373 -0.5232
20 22 15 8.6192 0.3306
20 23 1 3.3140 -2.0920
20 23 2 5.6093 4.3461
20 23 3 -3.1669 -2.0467
20 23 4 0.5454 0.8159
20 23 5 -0.5598 -0.8674
20 23 6 2.4692 -0.3304
20 23 7 -0.0681 0.2805
20 23 8 -4.5264 -0.2521
20 23 9 -0.5663 0.4933
20 23 10 -10.1919 0.3248
20 23 11 -1.2069 -0.1507
20 23 12 -2.6422 0.0958
20 23 13 -1.1265 0.0193
20 23 14 3.0037 0.2268
20 23 15 -9.0014 -0.5926
20 24 0 -4.0054 2.5751
20 24 1 -0.6314 -2.5828
20 24 2 2.6750 0.0132
20 24 3 4.3283 -0.0108
20 24 4 1.3779 -1.5198
20 24 5 -2.1536 0.7476
20 24 6 -0.0623 -0.7426
20 24 7 3.7648 1.1683
20 24 8 -3.9086 0.2568
20 24 9 3.6442 -0.0647
20 24 10 1.8991 0.5551
20 24 11 -1.6741 -0.3919
20 24 12 -1.5781 0.2400
20 24 13 -2.5186 -0.5703
20 24 14 -10.6748 -0.5471
20 24 15 0.5427 1.2474
20 25 1 0.4442 -3.6625
20 25 2 -6.4727 1.5385
20 25 3 -0.8950 -0.3633
20 25 4 3.7698 2.1427
20 25 5 -0.7793 0.4802
20 25 6 1.9236 -0.4930
20 25 7 3.4378 0.4991
20 25 8 1.4785 -0.4651
20 25 9 1.7533 0.2980
20 25 10 5.0227 -0.2310
20 25 11 9.5486 -0.2433
20 25 12 4.1260 0.1187
20 25 13 4.6425 0.6199
20 25 14 10.3049 0.3249
20 26 0 -0.6965 10.0059
20 26 1 1.2272 2.8353
20 26 2 7.5372 1.5029
20 26 3 -2.9249 -0.3902
20 26 4 1.0988 -1.5281
20 26 5 -1.8571 0.4484
20 26 6 5.1207 -0.3490
20 26 7 2.5374 -0.0076
20 26 8 3.5178 0.8191
20 26 9 7.3983 0.1127
20 26 10 2.4161 0.4798
20 26 11 8.1267 -0.3726
20 26 12 -1.2858 0.2372
20 26 13 -6.9563 -0.8185
20 26 14 1.7262 0.5606
20 27 1 -5.4855 -2.4961
20 27 2 -3.4490 0.0825
20 27 3 1.8601 -1.6291
20 27 4 6.0468 -0.0234
20 27 5 -1.8607 0.2966
20 27 6 2.6751 -0.8118
20 27 7 -0.0250 0.5620
20 27 8 -4.3707 -0.3596
20 27 9 -6.0974 0.4406
20 27 10 -2.9476 -0.4168
20 27 11 6.5442 -0.2268
20 27 12 1.2940 0.3150
20 27 13 -12.1718 -0.5672
20 28 0 -6.6602 -3.8481
20 28 1 1.4055 -6.2525
20 28 2 -2.5020 -0.3113
20 28 3 -3.5823 -0.9724
20 28 4 -5.6965 0.5796
20 28 5 1.8343 -0.3064
20 28 6 2.3266 0.9732
20 28 7 -5.6818 0.6272
20 28 8 -0.4942 -0.1460
20 28 9 -2.8353 0.1956
20 28 10 -1.3764 -0.2516
20 28 11 6.4511 -0.6899
20 28 12 -2.9161 0.1068
20 28 13 -0.8175 -0.7769
20 29 1 -2.7704 2.7198
20 29 2 0.2498 0.5737
20 29 3 -1.9002 2.0087
20 29 4 -0.1837 1.2918
20 29 5 -0.8814 -0.0106
20 29 6 1.6924 -0.6373
20 29 7 -0.3432 0.0620
20 29 8 -0.5380 -1.3188
20 29 9 -4.9286 0.1368
20 29 10 0.8275 -0.2707
20 29 11 8.5897 -0.3453
20 29 12 -0.9424 1.0091
20 29 13 3.0522 0.1378
20 30 0 2.0475 0.8435
20 30 1 4.3063 -1.4594
20 30 2 1.2416 1.7768
20 30 3 0.6533 0.0565
20 30 4 1.2866 1.3028
20 30 5 1.0284 0.2748
20 30 6 -2.7448 -0.6486
20 30 7 4.1351 -0.2824
20 30 8 -0.8861 -0.3396
20 30 9 -2.4016 0.0888
20 30 10 1.4600 0.1743
20 30 11 -2.8972 0.4420
20 30 12 -8.1329 0.5420
20 31 1 -0.1143 -2.9157
20 31 2 7.1577 -0.9011
20 31 3 -5.1765 -2.1833
20 31 4 5.9413 -1.2795
20 31 5 1.2514 -0.4226
20 31 6 -7.0169 0.0207
20 31 7 -3.3342 0.0809
20 31 8 -2.0616 0.0099
20 31 9 3.0673 0.6050
20 31 10 2.4402 0.2926
20 31 11 13.7021 0.1599
20 31 12 3.1216 -0.3059
20 32 0 -8.7360 0.2932
20 32 1 1.0694 -1.3425
20 32 2 3.0183 -0.7285
20 32 3 0.2063 0.6721
20 32 4 5.4690 0.5148
20 32 5 5.1123 0.3745
20 32 6 2.2218 0.4239
20 32 7 3.8938 -0.2559
20 32 8 5.5604 -0.8973
20 32 9 0.6214 0.2503
20 32 10 2.4966 -1.2052
20 32 11 2.2182 0.1258
20 33 1 -8.7966 3.0296
20 33 2 -4.9021 -0.4059
20 33 3 1.1223 0.5090
20 33 4 -2.8959 0.3188
20 33 5 -7.8042 -0.4938
20 33 6 -3.1698 0.6988
20 33 7 -3.6689 -0.0709
20 33 8 4.9210 0.1801
20 33 9 0.1669 -0.5381
20 33 10 -1.1239 0.4760
20 34 0 1.1099 -4.5944
20 34 1 -9.5748 1.3221
20 34 2 -6.3832 -1.0170
20 34 3 -0.7913 -0.1728
20 34 4 7.4455 1.2854
20 34 5 -3.0635 0.8699
20 34 6 -8.9476 0.1613
20 34 7 -7.1857 0.7733
20 34 8 0.3890 -0.1525
20 34 9 -1.0748 0.3753
20 34 10 -0.8173 -0.6211
20 35 1 0.1626 2.0379
20 35 2 -0.7985 0.4073
20 35 3 -6.0526 -0.1453
20 35 4 10.9229 0.2800
20 35 5 0.5167 -0.1338
20 35 6 -3.3400 0.4263
20 35 7 0.3025 0.2244
20 35 8 10.1899 0.7643
20 35 9 5.6165 0.7237
20 36 0 -5.0904 -3.6156
20 36 1 -8.2545 -1.1997
20 36 2 1.0589 -0.4794
20 36 3 -4.5247 1.5009
20 36 4 0.0274 1.2082
20 36 5 12.9913 0.3557
20 36 6 -0.8886 0.1938
20 36 7 -5.2824 -1.0952
20 36 8 -0.0745 -0.8271
20 37 1 -6.6126 2.1706
20 37 2 -0.6519 -2.6218
20 37 3 2.1345 0.7372
20 37 4 -2.5405 -0.9426
20 37 5 -2.1942 -0.7398
20 37 6 -0.8747 0.0497
20 37 8 7.9813 1.4965
20 38 0 5.7763 1.1654
20 38 1 2.8240 1.8009
20 38 2 -2.7089 0.5170
20 38 3 -0.4740 -0.3809
20 38 4 5.3651 0.3632
20 38 5 -6.2168 -0.0167
20 39 1 -1.0508 0.8496
20 39 2 -0.3043 -0.6197
20 39 3 -4.2509 -0.1556
20 39 4 13.6727 -1.7142
20 39 5 -6.0746 -0.2123
20 40 0 -13.2202 -4.6081
20 40 1 -0.9180 -3.5692
20 40 2 -8.5381 1.1475
20 40 3 -6.3047 0.4222
20 41 1 -2.4276 0.9415
21 1 0 5.4393 -1.7662
21 1 1 7.8844 -0.6594
21 1 2 -5.8468 -2.1438
21 1 3 -2.0090 -2.4064
21 1 4 -1.0500 -2.0933
21 1 5 0.1220 -0.1141
21 1 6 0.5974 2.0677
21 1 7 -0.4548 0.2892
21 1 8 -2.9046 0.1849
21 1 9 1.5297 -0.2230
21 1 10 5.5107 -0.0935
21 1 11 2.2013 -0.4004
21 1 12 -6.4431 -0.1047
21 1 13 -5.7257 -0.1218
21 1 14 -1.3069 0.1620
21 1 15 -1.8167 -0.1658
21 1 16 1.7497 0.1389
21 1 17 -4.7505 0.5247
21 1 18 -12.4479 0.4344
21 2 1 2.6520 4.5669
21 2 2 0.3255 -3.7875
21 2 3 1.4253 6.1656
21 2 4 -2.3037 -0.8460
21 2 5 -8.5206 0.5041
21 2 6 -1.4801 -0.4563
21 2 7 1.2776 -1.2441
21 2 8 -1.9636 0.4908
21 2 9 -0.0326 -1.2544
21 2 10 4.4448 -0.2995
21 2 11 3.1046 0.1292
21 2 12 6.3716 0.2372
21 2 13 -5.3738 0.3668
21 2 14 -11.6396 0.1754
21 2 15 6.4399 0.2031
21 2 16 -5.8468 0.0625
21 2 17 -0.3517 -0.1748
21 2 18 -0.2932 1.0465
21 3 0 3.5415 10.7410
21 3 1 2.6449 3.3240
21 3 2 -4.7414 -1.2447
21 3 3 -0.3432 -0.0844
21 3 4 4.5973 0.0078
21 3 5 -3.4534 -0.0202
21 3 6 4.7781 0.7926
21 3 7 -4.2431 0.2762
21 3 8 4.0324 1.2082
21 3 9 0.5455 1.2121
21 3 10 5.1249 -0.1329
21 3 11 2.8818 -0.5388
21 3 12 8.1993 -0.2209
21 3 13 11.0889 0.0436
21 3 14 3.5974 0.1895
21 3 15 9.9790 -0.1347
21 3 16 -3.0095 -0.1472
21 3 17 -4.1124 -0.2763
21 3 18 -10.2367 -0.4839
21 4 1 10.0345 2.0392
21 4 2 7.0522 -6.0367
21 4 3 2.0906 0.6344
21 4 4 3.6594 -0.9327
21 4 5 -0.9205 2.1676
21 4 6 1.6882 -0.9758
21 4 7 -4.9701 0.6088
21 4 8 -1.9457 -0.1976
21 4 9 2.7806 -1.0027
21 4 10 9.5936 0.9590
21 4 11 -1.8818 -0.6280
21 4 12 5.4146 0.2944
21 4 13 3.5216 0.2839
21 4 14 -13.1415 -0.4870
21 4 15 20.9211 0.6783
21 4 16 3.1411 0.2931
21 4 17 21.8003 0.5390
21 4 18 -4.8705 0.1846
21 5 0 -7.4374 2.2756
21 5 1 -7.6562 -1.8877
21 5 2 0.2139 1.8566
21 5 3 6.6381 -0.7368
21 5 4 6.8285 -1.4660
21 5 5 1.2805 -1.0414
21 5 6 7.6958 -1.6103
21 5 7 3.4157 -0.4375
21 5 8 -4.5474 0.7025
21 5 9 -1.8526 -0.8503
21 5 10 -0.6551 0.2180
21 5 11 0.5095 -0.1124
21 5 12 1.1131 -0.8614
21 5 13 3.5968 0.2983
21 5 14 -1.6897 -0.4645
21 5 15 10.7557 -0.0593
21 5 16 -14.0905 0.2843
21 5 17 3.3378 0.2561
21 5 18 17.4472 0.6071
21 6 1 2.1849 -4.5159
21 6 2 -5.0297 -5.3799
21 6 3 -6.9645 3.4630
21 6 4 -0.1905 -2.3545
21 6 5 -0.0528 1.7020
21 6 6 3.3767 0.6840
21 6 7 4.1634 -0.2986
21 6 8 6.4561 0.8217
21 6 9 1.7707 -0.7154
21 6 10 5.2591 -0.1936
21 6 11 -1.7122 0.1124
21 6 12 -3.3053 -0.3960
21 6 13 -0.6479 -0.4042
21 6 14 -6.2957 -0.0117
21 6 15 4.7978 0.0401
21 6 16 -3.5708 -0.4084
21 6 17 7.0391 0.1892
21 6 18 -11.5522 0.4718
21 7 0 -0.9288 4.4798
21 7 1 6.8896 2.1240
21 7 2 3.1953 -0.5919
21 7 3 3.0112 0.2697
21 7 4 -0.7409 0.9449
21 7 5 -3.3240 -1.2974
21 7 6 -1.0884 -0.3073
21 7 7 -3.0878 0.7656
21 7 8 2.1261 0.1117
21 7 9 -1.6778 1.2722
21 7 10 -0.7718 -0.3573
21 7 11 2.8908 -0.2784
21 7 12 -4.3767 -0.1410
21 7 13 -5.8851 -0.4672
21 7 14 -3.1801 -0.1309
21 7 15 -3.6939 0.5340
21 7 16 -13.0711 -0.3376
21 7 17 -17.3213 -0.3488
21 8 1 4.8340 1.4880
21 8 2 -1.2264 0.4433
21 8 3 -3.6380 0.5676
21 8 4 -0.1836 -0.2791
21 8 5 -4.3127 0.4528
21 8 6 0.6400 -0.2845
21 8 7 -2.4686 1.0735
21 8 8 -3.6490 0.1580
21 8 9 0.2889 0.2209
21 8 10 -0.4259 1.1716
21 8 11 1.2888 -1.1633
21 8 12 8.1322 -0.6374
21 8 13 4.7182 -0.1091
21 8 14 -2.2209 -0.7347
21 8 15 2.1257 0.8696
21 8 16 -13.6367 -0.1257
21 8 17 1.9448 -0.0079
21 9 0 2.0793 -25.2405
21 9 1 -0.0514 -4.3949
21 9 2 4.2955 0.2460
21 9 3 2.2393 0.2723
21 9 4 -0.1798 0.0736
21 9 5 3.1327 0.8714
21 9 6 -3.6322 -0.6975
21 9 7 5.9990 0.3646
21 9 8 -0.9476 0.6270
21 9 9 4.5065 0.1717
21 9 10 0.1354 -0.5123
21 9 11 -9.4793 -0.2697
21 9 12 1.8290 -1.0953
21 9 13 14.5605 0.1628
21 9 14 0.7252 0.2383
21 9 15 19.5726 0.2428
21 9 16 -9.2386 0.5527
21 9 17 -16.1072 -0.0242
21 10 1 5.1870 -9.5345
21 10 2 4.6105 0.5974
21 10 3 2.6421 0.4476
21 10 4 3.4691 0.3139
21 10 5 2.8525 1.9379
21 10 6 2.8092 -0.7669
21 10 7 3.0358 -0.6990
21 10 8 0.4905 0.1449
21 10 9 8.3810 -0.3088
21 10 10 3.0303 -0.2415
21 10 11 -2.2913 -0.4670
21 10 12 -4.4780 0.1292
21 10 13 -0.6348 -0.0193
21 10 14 7.2022 0.6907
21 10 15 7.0707 0.5204
21 10 16 7.6708 -0.3720
21 10 17 -0.2337 0.3500
21 11 0 -10.1644 9.7256
21 11 1 -1.3075 10.0585
21 11 2 -6.7595 1.9511
21 11 3 6.0781 3.1421
21 11 4 -0.8130 -0.3718
21 11 5 -2.2004 -0.9779
21 11 6 -2.4537 -0.4039
21 11 7 -2.3785 -1.2019
21 11 8 -0.2619 0.2755
21 11 9 6.1213 0.4629
21 11 10 7.8416 0.7055
21 11 11 5.1080 0.4861
21 11 12 -7.7134 -0.1480
21 11 13 10.6489 0.8091
21 11 14 -9.0365 -0.1063
21 11 15 -1.6572 -0.1066
21 11 16 -1.1581 0.2111
21 11 17 -1.4633 -0.3225
21 12 1 -1.0899 3.0148
21 12 2 -3.2177 -2.8101
21 12 3 -4.1824 -2.4896
21 12 4 0.4447 0.1023
21 12 5 0.6841 -1.2841
21 12 6 0.4004 0.4678
21 12 7 -3.1615 0.7184
21 12 8 -0.8231 0.7834
21 12 9 -3.0688 0.8851
21 12 10 -4.5056 0.0984
21 12 11 -3.9751 -0.1547
21 12 12 2.5939 0.0224
21 12 13 1.9865 -0.1832
21 12 14 10.8033 -0.1492
21 12 15 -2.8274 -0.1649
21 12 16 -8.2146 -0.1926
21 12 17 -7.7080 0.0040
21 13 0 9.9675 -25.9138
21 13 1 8.1832 -2.5722
21 13 2 1.3172 -0.2054
21 13 3 1.7432 -1.7550
21 13 4 1.0463 1.3566
21 13 5 1.4991 -1.7545
21 13 6 -1.7375 0.7887
21 13 7 1.2437 0.3991
21 13 8 1.1445 -0.2455
21 13 9 0.1659 0.4386
21 13 10 -1.6045 -0.5398
21 13 11 -7.5757 -0.0811
21 13 12 -5.6360 -0.5245
21 13 13 3.6964 -0.4231
21 13 14 3.3729 -0.1716
21 13 15 9.8138 0.0215
21 13 16 12.4805 -0.0041
21 14 1 2.8754 -2.6434
21 14 2 6.0271 3.7782
21 14 3 2.1007 -1.1403
21 14 4 2.6556 0.5012
21 14 5 0.9742 -0.7595
21 14 6 -1.7867 -0.6942
21 14 7 -3.0578 0.7257
21 14 8 3.0611 -0.3239
21 14 9 4.4295 -0.0857
21 14 10 0.1674 -0.6081
21 14 11 -3.5608 -0.6518
21 14 12 2.6435 0.3545
21 14 13 -0.4767 -0.1662
21 14 14 -1.2299 0.3101
21 14 15 0.3590 0.0936
21 14 16 0.2720 -0.6423
21 15 0 1.8776 -4.5858
21 15 1 -0.7373 4.2213
21 15 2 -14.9768 2.6224
21 15 3 5.8079 2.3816
21 15 4 -6.6580 2.0303
21 15 5 3.0356 -0.5867
21 15 6 0.5188 -0.1348
21 15 7 -2.9914 -1.0706
21 15 8 4.0782 0.1664
21 15 9 -0.6219 -0.4619
21 15 10 2.7880 -0.2369
21 15 11 7.9887 0.5503
21 15 12 -2.1979 -0.1251
21 15 13 3.0592 0.8167
21 15 14 -7.2551 0.3161
21 15 15 2.1049 0.3366
21 15 16 7.6905 -0.3116
21 16 1 4.7419 1.4972
21 16 2 -1.2331 4.1228
21 16 3 0.5821 -1.9781
21 16 4 2.2200 -0.2276
21 16 5 0.3741 -0.6677
21 16 6 -5.2287 0.5109
21 16 7 -1.7775 0.1123
21 16 8 2.7239 -0.3663
21 16 9 -2.5071 0.4226
21 16 10 2.6907 -0.0341
21 16 11 -0.1491 0.4407
21 16 12 9.3259 0.0545
21 16 13 -1.9839 -0.0403
21 16 14 -0.1090 0.0944
21 16 15 2.7981 -0.5317
21 16 16 -1.3741 -0.7561
21 17 0 6.3348 -11.7509
21 17 1 7.2558 3.3033
21 17 2 -3.3475 -1.2940
21 17 3 5.0975 -0.5658
21 17 4 1.9381 -1.2730
21 17 5 2.3719 -2.1513
21 17 6 -3.4731 0.0514
21 17 7 3.2426 -0.6615
21 17 8 -5.9766 0.2684
21 17 9 1.6480 0.1063
21 17 10 -3.1587 -0.5966
21 17 11 -4.1607 0.3974
21 17 12 5.0359 -0.7125
21 17 13 -1.6431 0.2785
21 17 14 1.1122 0.1785
21 17 15 -9.8256 0.2733
21 17 16 4.4526 0.4841
21 18 1 -0.5185 -0.2340
21 18 2 8.0223 3.6047
21 18 3 2.4290 -2.0928
21 18 4 5.4027 0.8397
21 18 5 4.5145 -0.5600
21 18 6 -2.3830 -0.2347
21 18 7 -0.6827 0.3665
21 18 8 -7.0070 -1.3580
21 18 9 0.9224 0.0340
21 18 10 1.3385 -0.3962
21 18 11 -9.6226 0.2087
21 18 12 -5.0604 0.5531
21 18 13 2.4286 -0.2938
21 18 14 8.2603 0.1999
21 18 15 0.7033 -0.5167
21 18 16 -5.2488 0.0542
21 19 0 -0.8627 3.0038
21 19 1 -2.8829 6.2576
21 19 2 -9.6800 -0.0320
21 19 3 5.4998 1.3822
21 19 4 -2.6443 -0.4809
21 19 5 6.7683 -0.5496
21 19 6 -1.7307 0.4113
21 19 7 3.3469 -0.8460
21 19 8 -2.2440 0.2588
21 19 9 2.9060 0.8144
21 19 10 2.2571 0.0109
21 19 11 3.7750 0.6593
21 19 12 -7.2735 0.0805
21 19 13 -4.1865 0.6549
21 19 14 9.3026 -0.0113
21 19 15 0.6863 -0.5121
21 19 16 6.4658 -0.6125
21 20 1 -3.5346 6.7257
21 20 2 -6.4364 1.8105
21 20 3 -1.3802 -1.0026
21 20 4 -3.4559 0.3457
21 20 5 4.1993 -1.6277
21 20 6 4.1510 0.2791
21 20 7 -1.0189 0.3404
21 20 8 -1.2038 -0.3326
21 20 9 -0.0768 0.8806
21 20 10 2.4148 -0.3058
21 20 11 -1.5680 0.1246
21 20 12 1.2021 -0.0469
21 20 13 0.8117 -0.2762
21 20 14 1.9605 -0.5357
21 20 15 -8.0583 -0.1428
21 21 0 1.5405 -16.3657
21 21 1 7.9939 -5.1807
21 21 2 0.1819 -1.6335
21 21 3 -1.6719 -0.4371
21 21 4 -3.9161 1.1229
21 21 5 4.2723 -0.6275
21 21 6 -4.6304 1.1306
21 21 7 -3.5431 -0.0255
21 21 8 0.8881 -0.2858
21 21 9 2.6281 0.1125
21 21 10 -3.0152 -0.7057
21 21 11 6.5349 -0.2237
21 21 12 2.1695 -0.5289
21 21 13 -7.1205 -0.4822
21 21 14 17.0482 0.1753
21 21 15 -2.6978 -1.0348
21 22 1 -0.3937 -2.8357
21 22 2 -0.2339 3.1657
21 22 3 4.9766 -0.0908
21 22 4 -0.1699 0.7958
21 22 5 3.5491 -0.0836
21 22 6 1.1169 -1.3304
21 22 7 -2.2541 -0.2266
21 22 8 0.9678 -0.3733
21 22 9 -2.9778 0.2771
21 22 10 2.2040 -0.6236
21 22 11 -8.1576 0.1239
21 22 12 8.1197 0.9058
21 22 13 9.8456 0.5226
21 22 14 -1.5661 0.4333
21 22 15 -0.6543 -0.3346
21 23 0 1.3017 14.1783
21 23 1 6.6548 3.9456
21 23 2 -4.2006 0.1576
21 23 3 3.2223 1.1814
21 23 4 -2.0792 0.7679
21 23 5 3.8479 -0.4549
21 23 6 -2.6214 1.4602
21 23 7 3.6476 -0.4448
21 23 8 -2.7772 0.4627
21 23 9 9.4544 -0.0214
21 23 10 1.9414 0.3446
21 23 11 -12.4273 -0.0420
21 23 12 -4.6657 -0.2715
21 23 13 -8.3292 0.4789
21 23 14 8.6850 0.9865
21 24 1 4.6370 3.6819
21 24 2 -2.9900 1.2342
21 24 3 -0.7314 -0.5649
21 24 4 0.4146 0.3670
21 24 5 1.3396 -1.4242
21 24 6 -8.6610 -0.4114
21 24 7 -3.5776 0.2064
21 24 8 -1.6441 -0.5961
21 24 9 -1.3872 0.8422
21 24 10 10.5856 0.3940
21 24 11 5.4045 0.6190
21 24 12 0.3103 0.1762
21 24 13 3.1967 0.4812
21 24 14 -3.7746 -0.8093
21 25 0 -8.2982 -0.1061
21 25 1 -1.1496 1.3000
21 25 2 -2.4195 -0.4802
21 25 3 -0.9749 -1.0605
21 25 4 -0.0046 -0.9942
21 25 5 6.1808 -0.4076
21 25 6 -2.9671 0.6767
21 25 7 1.9655 -0.3480
21 25 8 -2.7500 0.7531
21 25 9 -1.8113 -0.2666
21 25 10 2.2442 -0.5204
21 25 11 1.3809 0.1904
21 25 12 11.9775 -0.7312
21 25 13 -5.7566 -0.0360
21 25 14 5.0444 0.1660
21 26 1 -6.5596 -0.7561
21 26 2 -5.2679 -1.3941
21 26 3 -4.1467 0.0773
21 26 4 3.8595 0.0327
21 26 5 1.2215 -0.6227
21 26 6 1.9514 0.7365
21 26 7 7.1657 0.0590
21 26 8 -0.4117 0.2893
21 26 9 -5.1816 0.4180
21 26 10 -9.5783 -0.3919
21 26 11 -7.7685 -0.1593
21 26 12 2.7595 -0.3903
21 26 13 4.6495 -0.5757
21 26 14 6.3432 0.4283
21 27 0 7.6513 -5.9810
21 27 1 7.6902 2.9410
21 27 2 -2.6001 -2.3713
21 27 3 -2.2715 -1.0171
21 27 4 3.7771 1.0953
21 27 5 3.2737 0.4586
21 27 6 -8.0550 1.0757
21 27 7 0.5613 -0.0833
21 27 8 2.4818 -0.3137
21 27 9 -0.1443 0.0324
21 27 10 1.0797 -0.3127
21 27 11 1.2842 -0.1747
21 27 12 1.4880 0.5288
21 27 13 -6.5469 0.2611
21 28 1 1.6312 0.8653
21 28 2 1.7957 0.1460
21 28 3 -2.9664 -0.1191
21 28 4 -0.7548 0.2886
21 28 5 3.1663 1.2597
21 28 6 2.5953 -0.1818
21 28 7 0.1477 0.5057
21 28 8 0.2701 -0.3827
21 28 9 -0.5552 -0.4388
21 28 10 -1.9031 0.1045
21 28 11 1.2857 -0.1154
21 28 12 6.7758 0.3996
21 28 13 4.3223 0.4556
21 29 0 3.0909 -0.3066
21 29 1 2.3020 2.1216
21 29 2 1.3158 0.4093
21 29 3 3.3315 -0.3142
21 29 4 -2.7482 -0.9422
21 29 5 -0.1875 -0.0027
21 29 6 2.5802 0.4433
21 29 7 6.3806 -0.5966
21 29 8 -0.4808 -0.1908
21 29 9 -1.9117 -0.9499
21 29 10 -5.3571 -0.2745
21 29 11 -3.8198 -0.2514
21 29 12 -6.4631 -0.1877
21 30 1 -2.6221 0.8853
21 30 2 1.1966 -2.3120
21 30 3 -2.0069 0.0132
21 30 4 2.1418 -1.4989
21 30 5 -0.6035 -0.1254
21 30 6 -4.6907 -0.1133
21 30 7 -6.6806 -0.3628
21 30 8 1.8633 0.5440
21 30 9 4.6884 -0.4198
21 30 10 0.9739 0.4426
21 30 11 3.8854 -0.2270
21 30 12 0.0610 0.1653
21 31 0 5.5670 -0.1485
21 31 1 -2.7181 1.5900
21 31 2 -1.4521 0.3805
21 31 3 0.6759 -0.3051
21 31 4 -4.3605 0.1356
21 31 5 0.6231 -0.7816
21 31 6 -3.9923 0.5071
21 31 7 -2.8330 0.2670
21 31 8 -1.6845 -0.0519
21 31 9 5.2161 -0.0020
21 31 10 6.8962 0.0645
21 31 11 7.5146 0.1937
21 32 1 -6.3896 -1.6896
21 32 2 -6.8524 -0.9769
21 32 3 -7.5532 -0.3135
21 32 4 -6.2459 0.1104
21 32 5 7.5799 1.4146
21 32 6 4.3341 1.0030
21 32 7 -11.2688 0.8570
21 32 8 -3.0939 0.8116
21 32 9 -0.5144 -0.3428
21 32 10 8.4370 0.0512
21 32 11 6.3210 -0.2462
21 33 0 -2.9404 -0.7986
21 33 1 -0.0787 -3.6920
21 33 2 -5.9058 -0.7021
21 33 3 -0.5075 0.6570
21 33 4 -2.4680 -0.5393
21 33 5 -3.9244 0.2456
21 33 6 1.8371 -0.4081
21 33 7 -0.1766 0.0423
21 33 8 -7.4482 0.6926
21 33 9 -0.5619 -0.6088
21 33 10 -0.5039 0.1064
21 34 1 -2.0068 -1.7543
21 34 2 1.6716 -1.5568
21 34 3 2.5239 -1.3846
21 34 4 3.1539 -0.4266
21 34 5 0.1419 0.6384
21 34 6 13.7257 -0.2512
21 34 7 -2.2549 0.8129
21 34 8 -5.1594 0.4936
21 34 9 -0.2315 0.1084
21 35 0 -1.0540 -2.4167
21 35 1 0.3183 2.4440
21 35 2 -3.1934 1.2559
21 35 3 2.2382 0.3069
21 35 4 1.1194 1.7806
21 35 5 3.1924 0.4619
21 35 6 -3.4979 -0.8837
21 35 7 12.0763 0.1349
21 35 8 1.0854 -0.2797
21 35 9 3.2483 -0.0292
21 36 1 -0.3031 -2.8607
21 36 2 -5.1966 2.0555
21 36 3 8.3538 -0.8037
21 36 4 -6.7748 -0.0275
21 36 5 -0.3525 0.0634
21 36 6 -0.1044 -0.0701
21 36 7 -7.2944 -0.2045
21 36 8 -0.9238 -0.7578
21 37 0 4.7915 3.0327
21 37 1 -0.2343 -0.2935
21 37 2 -1.8549 -0.6913
21 37 3 0.5933 -0.5870
21 37 4 0.6108 -1.5004
21 37 5 -3.0557 -1.1775
21 37 6 -5.0320 -1.1182
21 38 1 -2.3795 -2.2664
21 38 2 -1.7287 0.4331
21 38 3 -2.4972 0.1473
21 38 4 2.2815 0.3951
21 38 5 -2.2784 -1.5513
21 38 6 7.1930 0.0886
21 39 0 0.4016 -0.8640
21 39 1 -9.7394 -1.0812
21 39 2 -4.5259 0.1343
21 39 3 -8.5115 -0.2499
21 39 4 -1.4263 0.0307
21 40 1 2.6185 -2.3850
21 40 2 5.5073 2.1892
22 1 1 -3.7495 0.8088
22 1 2 2.5559 1.3415
22 1 3 1.9967 0.5386
22 1 4 -0.0166 -1.2393
22 1 5 0.7902 -0.1256
22 1 6 1.9095 0.5594
22 1 7 1.6728 -0.6102
22 1 8 -2.2097 0.0863
22 1 9 -11.1526 0.2641
22 1 10 1.8398 0.2444
22 1 11 8.1945 0.4406
22 1 12 0.5006 -0.2306
22 1 13 -4.0609 -0.3824
22 1 14 11.1677 0.1249
22 1 15 4.7517 0.0257
22 1 16 0.6989 -0.1146
22 1 17 4.5088 -0.2695
22 1 18 6.3565 -0.1211
22 2 0 2.1888 9.9551
22 2 1 0.3660 -2.8602
22 2 2 -2.6779 -2.2566
22 2 3 3.4943 -0.7010
22 2 4 2.0274 -2.9699
22 2 5 1.5906 0.8311
22 2 6 2.1853 0.3923
22 2 7 2.9337 1.3507
22 2 8 3.8120 -0.4040
22 2 9 -2.7851 -0.3003
22 2 10 -0.6410 -0.1402
22 2 11 -1.0041 -1.1990
22 2 12 10.6547 0.5429
22 2 13 12.9273 -0.4482
22 2 14 -5.6819 0.0593
22 2 15 9.0921 0.3916
22 2 16 11.5864 -0.1225
22 2 17 -10.7578 0.4512
22 2 18 1.1542 0.0317
22 3 1 3.3885 11.4464
22 3 2 3.0950 0.5414
22 3 3 0.4328 1.5798
22 3 4 0.7195 1.3231
22 3 5 -2.5729 -1.1307
22 3 6 2.3824 -1.2579
22 3 7 2.1969 -0.1840
22 3 8 -0.4030 -0.5187
22 3 9 5.3090 0.0109
22 3 10 5.8898 0.9833
22 3 11 1.0326 -0.0400
22 3 12 -6.0936 -0.0173
22 3 13 -5.4125 -0.1148
22 3 14 -8.8915 -0.2071
22 3 15 -0.2326 -0.1727
22 3 16 -2.2093 -0.2813
22 3 17 -4.5290 -0.3258
22 3 18 -8.3579 -0.5692
22 4 0 -11.8815 0.2736
22 4 1 -6.8767 2.7625
22 4 2 2.6078 1.4601
22 4 3 4.2299 -1.0621
22 4 4 2.3885 -1.0922
22 4 5 5.0058 2.5357
22 4 6 -0.2779 -1.2210
22 4 7 0.1197 0.1261
22 4 8 -3.9745 -0.1005
22 4 9 -0.7039 0.1672
22 4 10 6.1925 0.6923
22 4 11 5.2852 0.2819
22 4 12 3.2689 0.2634
22 4 13 9.1974 -0.0951
22 4 14 -16.3436 -0.5239
22 4 15 3.7829 -0.2479
22 4 16 -10.3861 -0.7850
22 4 17 -2.9864 0.3976
22 5 1 -4.3726 2.5193
22 5 2 -3.5105 -1.1597
22 5 3 -4.2842 1.5419
22 5 4 1.1058 -1.2071
22 5 5 2.6488 -0.9057
22 5 6 4.1117 0.0711
22 5 7 7.2520 -1.3419
22 5 8 -1.0706 0.3534
22 5 9 -5.1871 0.3010
22 5 10 0.7505 0.0251
22 5 11 -2.0553 0.3051
22 5 12 -0.8549 0.3236
22 5 13 -4.6906 -0.7746
22 5 14 3.6108 0.0895
22 5 15 -0.4151 -0.2336
22 5 16 25.2666 -0.0607
22 5 17 -7.2476 -0.0611
22 6 0 1.4168 6.5740
22 6 1 6.8575 -5.2574
22 6 2 10.6254 -2.5096
22 6 3 -2.3641 -1.6567
22 6 4 -3.2036 -0.5586
22 6 5 2.4580 -0.3627
22 6 6 1.6104 -0.8095
22 6 7 1.9113 0.5113
22 6 8 3.8903 -0.0697
22 6 9 1.2265 0.5614
22 6 10 -7.6620 0.2379
22 6 11 2.8516 -0.0482
22 6 12 2.2575 0.4484
22 6 13 -0.4885 -0.7088
22 6 14 -12.0055 -0.2846
22 6 15 -5.1863 -0.0594
22 6 16 -4.3401 -0.2220
22 6 17 5.9176 0.5111
22 7 1 -4.5997 -2.2912
22 7 2 5.5157 -1.9573
22 7 3 3.2275 -1.1837
22 7 4 -2.3972 0.0194
22 7 5 -7.1184 0.5399
22 7 6 -1.1990 -0.8153
22 7 7 -3.7755 0.6241
22 7 8 -1.0055 0.7911
22 7 9 7.0765 0.0781
22 7 10 8.1033 1.2993
22 7 11 1.9016 -0.4255
22 7 12 -3.2650 -0.0306
22 7 13 15.0992 -0.4671
22 7 14 7.8173 -0.6371
22 7 15 -1.1959 -0.0741
22 7 16 -0.8364 0.0427
22 7 17 -0.7385 0.0857
22 8 0 5.1930 7.6679
22 8 1 -4.0847 -0.0818
22 8 2 2.5135 0.8096
22 8 3 -0.6865 -0.3834
22 8 4 2.7055 1.4827
22 8 5 1.6793 0.9138
22 8 6 -2.1026 -0.0658
22 8 7 1.7187 0.1704
22 8 8 -2.8583 -0.3924
22 8 9 -0.3950 0.0389
22 8 10 3.8092 -0.2202
22 8 11 0.6289 0.3197
22 8 12 -2.7285 -0.0205
22 8 13 -3.8782 -0.3972
22 8 14 -2.1731 0.3676
22 8 15 11.8430 0.0678
22 8 16 -8.0048 0.0226
22 8 17 -7.2296 0.2957
22 9 1 3.5807 -3.4154
22 9 2 4.0017 -0.5831
22 9 3 5.6097 0.6258
22 9 4 1.4718 0.0013
22 9 5 4.7425 -0.1398
22 9 6 4.7503 1.3109
22 9 7 -2.4786 -1.3142
22 9 8 1.5299 -1.3435
22 9 9 4.1288 -0.4067
22 9 10 9.4623 0.2963
22 9 11 6.6803 0.6541
22 9 12 -11.6514 0.6717
22 9 13 -5.0847 0.0146
22 9 14 3.9327 0.2082
22 9 15 -2.6366 0.4984
22 9 16 15.2207 -0.3953
22 9 17 -6.3202 0.1387
22 10 0 -7.1809 4.8773
22 10 1 -1.3655 5.0664
22 10 2 2.3944 -0.2585
22 10 3 -2.9734 -1.3751
22 10 4 2.2735 -0.7126
22 10 5 0.8601 -1.0352
22 10 6 -3.1209 -0.8912
22 10 7 4.2293 0.6412
22 10 8 -6.5328 -0.4370
22 10 9 6.0540 -0.1568
22 10 10 0.2310 0.0613
22 10 11 3.5993 0.2058
22 10 12 3.2285 0.3441
22 10 13 -1.5533 -0.4279
22 10 14 -9.8422 -0.0395
22 10 15 -8.6831 -0.3000
22 10 16 9.4561 -0.0023
22 10 17 9.1077 0.6454
22 11 1 2.0411 -7.3595
22 11 2 0.2351 2.3652
22 11 3 0.7131 -0.3161
22 11 4 -2.6624 1.2669
22 11 5 -4.2038 1.3812
22 11 6 0.3678 0.2489
22 11 7 -4.1122 -0.0050
22 11 8 -3.4256 0.8562
22 11 9 -0.9103 -0.5012
22 11 10 2.1943 0.0261
22 11 11 1.1368 -0.0034
22 11 12 -15.9476 -0.3484
22 11 13 6.5733 0.1057
22 11 14 8.3319 -0.1690
22 11 15 -14.9352 0.1077
22 11 16 -18.1413 -0.2709
22 12 0 7.5657 -3.5356
22 12 1 -5.4283 4.6487
22 12 2 2.8429 -1.4224
22 12 3 -1.9212 0.8561
22 12 4 1.7815 0.2422
22 12 5 1.2656 -0.1587
22 12 6 1.8992 0.0462
22 12 7 0.2521 -0.9267
22 12 8 1.0318 0.3485
22 12 9 8.2601 0.5603
22 12 10 4.7239 0.1803
22 12 11 0.6067 0.1007
22 12 12 -3.5917 0.2208
22 12 13 0.2553 -0.0073
22 12 14 4.5767 -0.1342
22 12 15 -1.5475 -0.0624
22 12 16 0.8686 -0.1440
22 13 1 9.0582 -2.9819
22 13 2 -0.1669 -0.7140
22 13 3 -0.6864 0.9495
22 13 4 1.5408 0.1405
22 13 5 -1.5630 0.7042
22 13 6 0.2872 -0.4913
22 13 7 -2.0731 -0.8798
22 13 8 -1.4406 0.3939
22 13 9 1.2627 -0.3940
22 13 10 7.4543 0.0278
22 13 11 5.9520 -0.0838
22 13 12 2.0657 -0.6981
22 13 13 4.8316 0.0897
22 13 14 14.5200 -0.5465
22 13 15 -4.9236 -0.1114
22 13 16 -14.6833 0.1897
22 14 0 2.1453 -11.8290
22 14 1 2.6860 1.5954
22 14 2 3.8363 -0.0056
22 14 3 -3.8388 -0.6558
22 14 4 0.3248 1.7783
22 14 5 5.0176 -1.7170
22 14 6 -1.2228 1.0643
22 14 7 -2.2809 -0.3392
22 14 8 -4.9481 0.3467
22 14 9 0.0380 -0.0948
22 14 10 1.1025 -0.8340
22 14 11 -2.3621 -0.1946
22 14 12 -3.6712 -0.1249
22 14 13 2.8668 -0.2361
22 14 14 -2.0336 0.7537
22 14 15 7.7280 0.2156
22 14 16 3.7431 -0.0194
22 15 1 12.2986 -4.8411
22 15 2 -2.8412 -1.3017
22 15 3 3.3779 1.1672
22 15 4 0.7719 -0.0513
22 15 5 -3.8621 1.8906
22 15 6 2.0829 -1.5851
22 15 7 -3.3203 -0.4078
22 15 8 5.3095 0.4562
22 15 9 -0.6058 -0.7720
22 15 10 1.1125 0.3115
22 15 11 0.3515 -0.7719
22 15 12 12.1090 0.2497
22 15 13 -4.0944 0.0342
22 15 14 -7.0792 -0.5606
22 15 15 -8.6206 0.7216
22 16 0 -0.8172 -4.8468
22 16 1 -3.8496 0.1604
22 16 2 4.1199 1.6600
22 16 3 -4.7161 0.9968
22 16 4 7.0065 0.7759
22 16 5 2.1111 -0.6252
22 16 6 1.0782 0.8478
22 16 7 -2.8468 -1.0509
22 16 8 1.1254 0.7130
22 16 9 3.4629 -0.0564
22 16 10 2.3469 -0.2995
22 16 11 -7.6168 0.2237
22 16 12 5.8024 -0.0213
22 16 13 10.3352 0.2850
22 16 14 1.2475 0.1367
22 16 15 -7.0527 0.2310
22 17 1 9.7163 -2.2130
22 17 2 -1.4424 -0.0030
22 17 3 -0.7996 4.3396
22 17 4 1.2246 -0.7666
22 17 5 3.5770 1.9284
22 17 6 -3.3974 0.5293
22 17 7 0.6858 -1.2321
22 17 8 -4.0021 -0.0378
22 17 9 -3.2186 -0.7665
22 17 10 7.5849 0.1074
22 17 11 -1.9332 0.4553
22 17 12 11.7316 0.2544
22 17 13 1.8063 0.2860
22 17 14 12.5687 0.3792
22 17 15 10.3386 -0.4041
22 18 0 4.5461 -3.0663
22 18 1 -3.2930 -1.5834
22 18 2 7.0956 -1.6617
22 18 3 2.8885 1.7953
22 18 4 -3.6609 0.7984
22 18 5 -0.7892 -2.6568
22 18 6 -0.5427 -0.2278
22 18 7 3.7441 -1.4206
22 18 8 -0.7903 -0.1819
22 18 9 -13.6355 0.2622
22 18 10 2.5344 -0.2697
22 18 11 1.6893 0.6054
22 18 12 -2.3094 -0.0378
22 18 13 8.9968 0.0035
22 18 14 1.0922 0.3541
22 18 15 5.4868 -0.5148
22 19 1 1.8589 0.9194
22 19 2 -6.2751 -6.5912
22 19 3 0.2618 -0.8754
22 19 4 2.3316 -1.8756
22 19 5 0.4637 0.3823
22 19 6 0.0037 -0.3424
22 19 7 0.8357 0.2066
22 19 8 3.6453 0.4939
22 19 9 -7.5652 0.3434
22 19 10 -5.1050 1.1848
22 19 11 -5.2257 -0.3023
22 19 12 -2.0349 -0.6968
22 19 13 -4.8940 0.0454
22 19 14 -7.8889 -0.1287
22 19 15 0.2603 0.2480
22 20 0 7.6789 -15.7672
22 20 1 4.0297 0.1805
22 20 2 3.6455 1.6651
22 20 3 -5.4068 0.6087
22 20 4 -0.8818 2.7833
22 20 5 -9.2054 1.4650
22 20 6 0.6017 1.2474
22 20 7 0.6360 0.1699
22 20 8 -4.3778 -0.9063
22 20 9 -2.2756 0.4738
22 20 10 -0.3684 -0.5876
22 20 11 -1.7536 -0.3502
22 20 12 9.0460 -0.6768
22 20 13 4.0459 -0.4214
22 20 14 4.5882 0.4841
22 20 15 12.6990 -0.1558
22 21 1 2.5551 0.6271
22 21 2 8.6137 -0.2878
22 21 3 10.5321 3.6929
22 21 4 -2.4612 -0.8302
22 21 5 1.5345 1.7526
22 21 6 -6.6721 0.0263
22 21 7 1.2214 -0.3548
22 21 8 -6.1594 -0.4267
22 21 9 8.9308 -0.8395
22 21 10 -2.0309 0.6695
22 21 11 -8.5766 -0.0817
22 21 12 8.6530 -0.1220
22 21 13 -6.5142 0.2463
22 21 14 0.2761 -0.2626
22 21 15 8.1232 -0.2173
22 22 0 0.0513 5.2690
22 22 1 -5.5028 1.7713
22 22 2 0.7493 -0.1126
22 22 3 1.6614 0.8477
22 22 4 5.8340 -0.6525
22 22 5 0.9428 -1.3518
22 22 6 2.2782 -0.1566
22 22 7 -7.1071 -0.6386
22 22 8 -4.7488 -1.0098
22 22 9 8.3923 0.1181
22 22 10 -6.2553 -0.5526
22 22 11 5.7814 0.6107
22 22 12 -17.2942 -0.3195
22 22 13 8.1386 0.3784
22 22 14 -15.8886 0.8289
22 23 1 1.5680 6.4710
22 23 2 -2.6366 -2.4020
22 23 3 2.3983 1.1166
22 23 4 4.0619 -0.6603
22 23 5 3.7266 -0.8189
22 23 6 5.3621 -0.5258
22 23 7 -1.1110 -0.1229
22 23 8 -7.5277 1.0740
22 23 9 -5.4375 -0.1064
22 23 10 8.1934 -0.3058
22 23 11 1.4311 0.3161
22 23 12 -3.5614 -0.4886
22 23 13 6.8341 -0.3459
22 23 14 -4.9005 -0.5085
22 24 0 0.4550 -4.7069
22 24 1 -3.8967 -2.4885
22 24 2 8.7208 0.2016
22 24 3 -3.1311 -0.3216
22 24 4 0.7875 0.6835
22 24 5 5.7905 0.2654
22 24 6 5.3901 0.6616
22 24 7 2.8262 0.3672
22 24 8 -0.1989 0.5278
22 24 9 6.9384 0.8787
22 24 10 -3.6355 0.1593
22 24 11 2.9096 0.5070
22 24 12 -3.3352 -0.6854
22 24 13 0.5229 -0.0434
22 24 14 -1.4024 -0.1564
22 25 1 -4.8748 4.9255
22 25 2 0.6327 -0.5086
22 25 3 -4.1103 1.2616
22 25 4 -0.6072 -0.2134
22 25 5 1.2234 -0.6326
22 25 6 -0.0354 0.5016
22 25 7 5.0152 0.1956
22 25 8 -0.8950 0.5349
22 25 9 -5.1551 -0.2821
22 25 10 3.0156 -0.1688
22 25 11 2.6939 -0.5726
22 25 12 -2.5125 -0.2387
22 25 13 -1.4502 -0.3733
22 25 14 4.5744 0.3216
22 26 0 1.0730 -4.2237
22 26 1 -6.9392 0.7532
22 26 2 5.5324 2.0300
22 26 3 0.9018 -0.1897
22 26 4 4.0410 0.6564
22 26 5 3.8162 -0.2626
22 26 6 -4.1234 -0.8504
22 26 7 -3.3388 -0.2702
22 26 8 -2.4975 -0.2130
22 26 9 4.1502 -0.2491
22 26 10 1.2346 -0.0294
22 26 11 5.8312 0.3601
22 26 12 -1.3244 -0.1894
22 26 13 9.6923 -0.0611
22 27 1 -3.4516 -0.2472
22 27 2 -0.5587 -0.4444
22 27 3 -0.6312 -0.7722
22 27 4 3.5794 -1.4810
22 27 5 3.7753 -1.1759
22 27 6 3.9841 0.3136
22 27 7 -3.4030 0.1091
22 27 8 0.5284 0.7650
22 27 9 -7.3669 0.1745
22 27 10 -5.7692 0.3782
22 27 11 1.0318 -0.5210
22 27 12 0.6585 -0.5977
22 27 13 2.4274 0.2977
22 28 0 7.7666 -4.4891
22 28 1 -2.9408 0.9659
22 28 2 -0.6551 -0.8049
22 28 3 -1.6761 -0.3574
22 28 4 -0.8456 -1.1685
22 28 5 -1.7851 0.3408
22 28 6 7.1835 0.7167
22 28 7 -2.4766 0.2807
22 28 8 -1.2538 0.4304
22 28 9 3.8246 0.4318
22 28 10 -0.7404 -0.7140
22 28 11 -10.4193 -0.5798
22 28 12 -8.3526 0.1239
22 29 1 -3.0340 1.6683
22 29 2 -3.0712 3.7413
22 29 3 -4.8064 2.0283
22 29 4 3.5369 0.5488
22 29 5 -7.7021 -0.5383
22 29 6 -2.1271 0.2777
22 29 7 0.7196 0.0111
22 29 8 -0.8765 -0.0555
22 29 9 0.4353 0.1516
22 29 10 -1.6450 0.5192
22 29 11 9.1589 0.3817
22 29 12 3.3799 -0.1320
22 30 0 5.4588 2.0173
22 30 1 2.0542 4.2855
22 30 2 -0.8707 -0.1064
22 30 3 -0.3408 0.2025
22 30 4 -8.9653 -1.4158
22 30 5 -2.8703 -0.9044
22 30 6 6.8653 -1.3411
22 30 7 -8.5568 -0.5177
22 30 8 1.2948 0.3403
22 30 9 2.7099 -0.2262
22 30 10 3.2990 0.3381
22 30 11 -2.7784 -0.4730
22 31 1 1.1015 -2.6713
22 31 2 -6.0207 -2.6529
22 31 3 -0.5385 -2.0387
22 31 4 -0.7717 -0.8155
22 31 5 -2.1855 -0.1905
22 31 6 -2.1566 0.1002
22 31 7 1.2559 0.0855
22 31 8 4.5434 0.3583
22 31 9 -4.6188 1.0066
22 31 10 7.7843 -0.4734
22 31 11 7.7095 0.1321
22 32 0 -12.3515 2.9831
22 32 1 -3.1772 0.6797
22 32 2 -2.0497 0.0718
22 32 3 1.2071 0.3113
22 32 4 -2.3804 -0.4457
22 32 5 -1.2527 0.3146
22 32 6 12.5130 0.7285
22 32 7 -8.4776 0.0209
22 32 8 0.9380 0.3990
22 32 9 -4.1764 0.9165
22 32 10 6.4881 0.8093
22 33 1 -7.2252 0.7540
22 33 2 -2.9084 0.9543
22 33 3 5.1281 -0.0144
22 33 4 -0.4265 1.1186
22 33 5 -0.1305 0.4471
22 33 6 -0.6367 -0.3957
22 33 7 5.5541 0.2678
22 33 8 -3.3756 -0.6190
22 33 9 2.1902 -0.6899
22 33 10 -2.1531 -0.5651
22 34 0 5.8078 2.1572
22 34 1 3.0597 1.6103
22 34 2 -6.5548 -0.3678
22 34 3 -1.4969 -0.4379
22 34 4 5.6840 0.2090
22 34 5 -2.5072 -1.0058
22 34 6 -3.5170 -0.6028
22 34 7 5.0556 -0.2095
22 34 8 -3.9972 0.2581
22 34 9 -2.2582 1.0549
22 35 1 -0.4805 -1.6994
22 35 2 -8.7981 2.5708
22 35 3 -3.4027 -0.7981
22 35 4 -2.4612 0.4466
22 35 5 4.8511 0.6896
22 35 6 -7.1664 -1.5704
22 35 7 -6.3224 -1.1797
22 36 0 0.0995 1.7811
22 36 1 6.6675 -0.4370
22 36 2 3.6142 -0.9703
22 36 3 -4.7679 0.6793
22 36 4 0.4526 0.5815
22 36 5 -1.5990 0.5398
22 36 6 3.6041 -0.1549
22 37 1 -5.9843 -1.6574
22 37 2 -6.2016 -0.5362
22 37 3 2.7564 -0.2207
22 37 4 0.9325 0.0177
22 37 5 3.1918 0.6153
22 37 6 8.0336 0.9116
22 38 0 -0.9808 0.3123
22 38 1 -7.9463 3.3393
22 38 2 -5.7212 -0.6786
22 38 3 -11.3262 -1.0345
22 38 4 -6.0305 -0.6216
22 38 5 -3.0317 -2.5022
22 39 1 5.6013 -1.2546
22 39 2 -2.5113 -0.3032
22 39 3 3.1395 2.1263
22 40 0 -1.1900 -3.6255
22 40 1 -1.7995 -2.7987
23 1 0 7.9992 -7.4788
23 1 1 -0.2858 -3.4743
23 1 2 -3.1200 1.5669
23 1 3 -0.4874 1.1194
23 1 4 -1.6410 1.2959
23 1 5 -0.5265 1.3719
23 1 6 -0.7427 1.1059
23 1 7 -4.2746 -0.2193
23 1 8 7.0183 0.1941
23 1 9 -5.0825 -0.8150
23 1 10 -4.1572 -0.5658
23 1 11 5.8527 0.2677
23 1 12 5.5865 -0.3300
23 1 13 -2.8094 0.0313
23 1 14 11.6240 0.3754
23 1 15 8.6640 0.0398
23 1 16 -4.3690 1.0352
23 1 17 -10.9446 -0.0615
23 2 1 0.5852 3.1667
23 2 2 -0.0855 5.1983
23 2 3 3.1052 1.6198
23 2 4 2.6669 1.1548
23 2 5 2.6373 -1.6176
23 2 6 2.7821 0.4269
23 2 7 1.6102 -0.0362
23 2 8 3.6207 -0.7257
23 2 9 3.9987 0.1056
23 2 10 3.6315 -0.5311
23 2 11 -6.1047 0.9225
23 2 12 -9.2805 0.2294
23 2 13 -7.5926 -0.2003
23 2 14 -6.0779 0.6217
23 2 15 -8.3431 -0.7257
23 2 16 12.6998 0.0316
23 2 17 -3.0956 0.0230
23 3 0 3.9257 -19.2264
23 3 1 1.6755 3.4365
23 3 2 -1.4617 -0.8646
23 3 3 -0.3932 0.1843
23 3 4 2.6189 3.1239
23 3 5 1.2729 -1.9838
23 3 6 -4.7626 -0.8667
23 3 7 5.4893 -0.3426
23 3 8 1.1104 -1.3751
23 3 9 0.8680 0.0644
23 3 10 6.7381 0.1462
23 3 11 9.9417 0.2846
23 3 12 9.4995 0.8636
23 3 13 -6.9495 -0.0232
23 3 14 -3.7810 -0.2023
23 3 15 -10.0836 -0.1239
23 3 16 2.1260 -0.0325
23 3 17 -8.4784 -0.3700
23 4 1 3.8327 0.5785
23 4 2 4.9866 0.2038
23 4 3 -0.8726 -2.6828
23 4 4 -1.7152 0.9372
23 4 5 1.6008 -1.3714
23 4 6 -0.2039 -0.0075
23 4 7 1.1132 0.1835
23 4 8 0.2999 -1.1803
23 4 9 -2.6379 0.0349
23 4 10 -3.8658 0.0600
23 4 11 0.2056 -0.3012
23 4 12 7.3304 -0.0994
23 4 13 14.3638 0.1198
23 4 14 5.3215 0.0824
23 4 15 -10.5235 -0.2310
23 4 16 25.7161 0.2377
23 4 17 0.6334 -0.7856
23 5 0 -1.9946 -2.8000
23 5 1 -3.0167 4.0049
23 5 2 2.6527 2.6782
23 5 3 3.1067 0.6509
23 5 4 -0.0184 -0.5983
23 5 5 1.8101 1.7236
23 5 6 1.0529 -0.8704
23 5 7 -0.9402 -0.7020
23 5 8 0.9820 0.3363
23 5 9 -2.1688 -0.9331
23 5 10 0.7932 0.1317
23 5 11 -10.1535 0.3441
23 5 12 0.5620 -0.4568
23 5 13 -6.9356 0.5808
23 5 14 15.2382 0.2408
23 5 15 -17.0625 -0.2692
23 5 16 10.2259 0.6140
23 5 17 1.8850 -0.5468
23 6 1 -0.2510 1.3888
23 6 2 -0.4652 -0.4008
23 6 3 2.5371 0.3677
23 6 4 -2.7485 -0.3889
23 6 5 0.9745 0.0522
23 6 6 -0.3766 1.9316
23 6 7 0.5092 -0.8487
23 6 8 -0.1309 1.1106
23 6 9 4.3653 0.6407
23 6 10 4.5230 -0.3475
23 6 11 1.0687 1.0215
23 6 12 1.0629 -0.3391
23 6 13 1.6537 -0.5177
23 6 14 -10.5904 0.4418
23 6 15 7.4473 -1.0193
23 6 16 -3.6850 0.2064
23 6 17 -6.1109 -0.4769
23 7 0 4.3398 2.8479
23 7 1 -0.3001 2.1476
23 7 2 3.3958 -2.1294
23 7 3 4.5188 -1.4135
23 7 4 2.1789 -0.4281
23 7 5 3.6616 -1.7913
23 7 6 1.8076 0.1510
23 7 7 -0.2611 0.8102
23 7 8 -7.2065 -0.9235
23 7 9 -1.2692 0.2932
23 7 10 3.4065 -0.3979
23 7 11 3.7011 -0.0068
23 7 12 11.3733 0.9175
23 7 13 -19.0570 -0.4422
23 7 14 -0.0692 0.0715
23 7 15 -12.0721 -0.1956
23 7 16 5.6611 -0.2246
23 7 17 -0.1880 0.0377
23 8 1 0.4012 4.4069
23 8 2 1.9331 0.4739
23 8 3 2.3264 -0.4795
23 8 4 -0.4656 1.0355
23 8 5 1.4092 -0.3792
23 8 6 3.1369 -0.5768
23 8 7 -0.1822 0.0823
23 8 8 0.9949 0.1429
23 8 9 -2.9029 -0.3115
23 8 10 -4.6559 -0.9984
23 8 11 3.2882 -0.2671
23 8 12 8.5056 0.4133
23 8 13 6.0055 0.4196
23 8 14 -1.9007 0.1204
23 8 15 -10.6004 -0.1698
23 8 16 3.6621 -0.3608
23 8 17 -3.5060 -0.5399
23 9 0 -7.4938 5.0354
23 9 1 -3.3081 -8.8753
23 9 2 -4.7397 1.4208
23 9 3 2.2126 -1.7516
23 9 4 0.6951 1.1235
23 9 5 -0.5212 1.7565
23 9 6 -1.7405 0.3431
23 9 7 5.9881 1.2046
23 9 8 1.9514 0.4319
23 9 9 7.9429 -0.5180
23 9 10 1.3769 0.1912
23 9 11 2.0843 -0.5200
23 9 12 7.3380 -0.1667
23 9 13 -11.2983 0.1359
23 9 14 14.8934 -0.0321
23 9 15 0.3333 0.3394
23 9 16 0.7604 -0.1942
23 9 17 1.9000 -0.5222
23 10 1 -0.0302 0.3767
23 10 2 4.1936 2.4202
23 10 3 -5.6125 2.0413
23 10 4 -1.2406 -0.4243
23 10 5 3.1410 0.4909
23 10 6 -4.1726 0.2711
23 10 7 0.9151 -0.8902
23 10 8 -1.9812 0.5131
23 10 9 -0.6068 -0.3048
23 10 10 5.0524 -0.2875
23 10 11 6.1821 0.2647
23 10 12 -4.4030 -0.3185
23 10 13 2.6170 0.3912
23 10 14 -1.1566 0.3461
23 10 15 3.1613 -0.0324
23 10 16 -5.7727 0.5430
23 11 0 0.1741 23.1123
23 11 1 4.6283 -1.0241
23 11 2 2.5026 0.7369
23 11 3 3.1530 0.4256
23 11 4 -2.1985 -0.5460
23 11 5 -0.5078 -0.5097
23 11 6 -0.1819 -0.6916
23 11 7 5.0782 0.2284
23 11 8 2.0077 -0.8305
23 11 9 -2.5753 0.3659
23 11 10 -2.6414 0.8451
23 11 11 -8.1821 0.1289
23 11 12 2.4239 0.5871
23 11 13 -24.3692 -0.2654
23 11 14 -1.8186 -0.7135
23 11 15 0.8442 -0.1995
23 11 16 -13.4718 -0.6229
23 12 1 2.3992 -0.8554
23 12 2 6.5853 -3.2485
23 12 3 -0.8877 -1.2353
23 12 4 0.4381 -1.0285
23 12 5 -2.1535 -0.9332
23 12 6 -2.3979 0.5824
23 12 7 3.7509 -0.7982
23 12 8 -6.4719 0.8886
23 12 9 5.4808 0.3309
23 12 10 1.1366 -0.1151
23 12 11 12.8462 0.3027
23 12 12 -3.8298 -1.1022
23 12 13 -7.1481 0.1910
23 12 14 1.9783 -0.3112
23 12 15 -7.0761 -0.1922
23 12 16 -12.4105 0.1946
23 13 0 -5.1295 12.2047
23 13 1 4.4155 -4.8818
23 13 2 -0.0799 -1.9997
23 13 3 2.0951 -3.7443
23 13 4 0.1172 -2.7479
23 13 5 -1.4071 2.0636
23 13 6 -5.7933 0.9497
23 13 7 1.2581 1.2847
23 13 8 0.2010 0.1462
23 13 9 -1.2258 -0.0212
23 13 10 -9.5533 -0.0627
23 13 11 0.9137 -0.7139
23 13 12 11.5124 -0.1024
23 13 13 7.0733 -0.5681
23 13 14 -1.7700 0.2480
23 13 15 33.5337 -0.3935
23 13 16 3.5824 0.6849
23 14 1 1.0844 0.3437
23 14 2 6.3836 2.7885
23 14 3 2.7829 2.1236
23 14 4 -2.7535 0.4586
23 14 5 3.5485 0.6656
23 14 6 0.6436 0.0599
23 14 7 -6.9296 -0.2311
23 14 8 1.9706 0.0344
23 14 9 9.8289 -0.8368
23 14 10 5.3558 0.0668
23 14 11 2.1489 -0.3041
23 14 12 -1.4198 -0.4749
23 14 13 6.1301 0.5452
23 14 14 -2.9853 -0.1386
23 14 15 -9.7459 0.7504
23 15 0 -7.1231 16.3101
23 15 1 -1.6308 -1.6741
23 15 2 -0.8862 -0.4778
23 15 3 -0.7733 -0.5246
23 15 4 2.6667 -1.0821
23 15 5 1.6787 1.6058
23 15 6 3.3619 -0.7226
23 15 7 0.4432 0.1506
23 15 8 1.2930 -0.4678
23 15 9 5.4138 -0.6650
23 15 10 -0.6773 0.6110
23 15 11 -7.2941 -0.2792
23 15 12 0.3945 0.8400
23 15 13 12.2309 0.1484
23 15 14 0.4714 -0.3081
23 15 15 -14.2888 -0.1897
23 16 1 1.8541 2.6494
23 16 2 2.9271 -5.5029
23 16 3 -0.8689 0.7290
23 16 4 3.4156 -0.6007
23 16 5 0.8295 0.7289
23 16 6 -0.0689 0.7364
23 16 7 -0.0936 -0.6378
23 16 8 -0.1476 0.3416
23 16 9 3.9297 -0.0184
23 16 10 -2.3583 0.1322
23 16 11 -2.7292 0.1561
23 16 12 -10.7457 -0.0443
23 16 13 0.7276 0.2851
23 16 14 16.2526 -0.4709
23 16 15 7.9808 0.0508
23 17 0 3.7592 7.0573
23 17 1 7.8388 -5.1683
23 17 2 4.1075 -0.7568
23 17 3 2.5097 -2.8072
23 17 4 -2.6175 -1.4572
23 17 5 7.2852 0.6391
23 17 6 -2.2963 0.3309
23 17 7 -3.7331 0.8169
23 17 8 4.2419 -0.7628
23 17 9 1.9722 -0.4427
23 17 10 -0.5671 0.5165
23 17 11 -4.2015 -0.4600
23 17 12 0.7587 0.3785
23 17 13 11.0886 -0.8407
23 17 14 -16.1226 -0.0884
23 17 15 11.6896 0.0841
23 18 1 1.7558 -1.1375
23 18 2 1.2935 -1.7199
23 18 3 0.8235 0.6718
23 18 4 1.1874 -0.6306
23 18 5 -3.5766 1.1019
23 18 6 1.4806 0.1497
23 18 7 -4.5174 0.3137
23 18 8 5.9960 0.4501
23 18 9 -6.7460 -0.8698
23 18 10 -4.3717 0.4921
23 18 11 -4.8150 -0.0515
23 18 12 -6.8945 -0.0794
23 18 13 11.7938 0.0331
23 18 14 4.0824 -0.3802
23 18 15 -13.3332 0.1908
23 19 0 0.2675 15.7759
23 19 1 -4.3061 -2.3787
23 19 2 -5.5941 1.0113
23 19 3 -1.8343 1.3244
23 19 4 1.5898 -1.1127
23 19 5 -2.6803 1.0468
23 19 6 -2.2135 -0.1448
23 19 7 0.5533 0.5910
23 19 8 1.1924 -0.1617
23 19 9 1.9941 -0.7650
23 19 10 5.2192 0.4899
23 19 11 -4.6311 0.2307
23 19 12 -2.4124 0.4227
23 19 13 5.3196 -0.0204
23 19 14 12.0802 -0.4456
23 19 15 -0.4997 0.5275
23 20 1 3.4231 2.6805
23 20 2 1.4820 -3.1305
23 20 3 -5.1651 0.2289
23 20 4 6.9453 -1.0707
23 20 5 0.6579 -0.4244
23 20 6 1.3858 0.2931
23 20 7 -0.5749 0.1632
23 20 8 2.5325 -0.0273
23 20 9 3.2486 -0.4888
23 20 10 7.3852 0.4723
23 20 11 -1.8997 -0.3020
23 20 12 0.4104 -0.1440
23 20 13 0.3251 -0.5367
23 20 14 5.9652 -0.6692
23 20 15 1.8902 -0.3869
23 21 0 7.6994 -9.8913
23 21 1 4.0862 -5.0911
23 21 2 -1.8231 0.0953
23 21 3 3.6384 -1.3173
23 21 4 -5.3044 -0.1579
23 21 5 -1.4479 1.6647
23 21 6 -0.1968 -0.4925
23 21 7 2.7412 1.3392
23 21 8 -0.9679 0.0230
23 21 9 -9.7098 -0.1053
23 21 10 8.0073 -0.4084
23 21 11 -2.1086 -0.1338
23 21 12 -1.8925 -0.2138
23 21 13 -0.2692 0.2601
23 21 14 -6.8992 -0.1100
23 22 1 2.9909 -5.6189
23 22 2 0.0173 0.4311
23 22 3 -1.9274 1.2249
23 22 4 6.0829 0.1850
23 22 5 -1.9739 1.1189
23 22 6 3.4542 0.3460
23 22 7 -0.9526 0.0005
23 22 8 3.0705 -0.2030
23 22 9 3.9400 -0.6630
23 22 10 -2.0258 0.2826
23 22 11 -5.4274 -0.2095
23 22 12 -1.7130 0.4850
23 22 13 12.1811 0.0843
23 22 14 -2.6178 0.2399
23 23 0 -3.2811 8.2636
23 23 1 5.9069 2.6543
23 23 2 1.3585 0.1600
23 23 3 0.6532 2.9090
23 23 4 0.1689 -0.1330
23 23 5 5.4983 0.9578
23 23 6 1.0503 -1.7934
23 23 7 -2.8292 -0.1018
23 23 8 9.1069 -0.6126
23 23 9 -6.1975 0.9988
23 23 10 12.4732 0.5536
23 23 11 -2.3769 0.0811
23 23 12 -6.1174 0.5979
23 23 13 -11.7464 0.4062
23 23 14 4.8058 -1.0440
23 24 1 -0.5240 0.4574
23 24 2 -3.2870 -2.6317
23 24 3 -0.5590 -0.9857
23 24 4 -2.8348 -0.1216
23 24 5 2.2170 -1.0125
23 24 6 2.2904 -0.1814
23 24 7 -0.2332 -0.7739
23 24 8 -8.5799 -0.0067
23 24 9 -5.2149 0.3389
23 24 10 6.8637 -0.0585
23 24 11 -2.7534 0.4297
23 24 12 9.1018 -0.0712
23 24 13 -0.1341 0.2141
23 24 14 3.7390 -0.4515
23 25 0 -3.5719 -9.5514
23 25 1 -2.9278 -1.2625
23 25 2 -0.4879 0.8956
23 25 3 1.1385 -0.6255
23 25 4 -3.0702 -0.2850
23 25 5 1.9866 0.3511
23 25 6 -2.6546 -1.1914
23 25 7 -2.3311 -0.1558
23 25 8 0.3576 -0.3098
23 25 9 -9.7201 -0.0134
23 25 10 3.0254 0.1433
23 25 11 8.2636 -0.1368
23 25 12 8.7344 -0.2559
23 25 13 1.7596 -0.6142
23 26 1 4.8446 -4.3579
23 26 2 -9.2138 3.1940
23 26 3 1.7686 0.7306
23 26 4 -3.7652 1.1656
23 26 5 8.4095 0.2988
23 26 6 2.2184 -0.2252
23 26 7 -0.1191 0.3556
23 26 8 -2.7310 0.3605
23 26 9 -5.1646 0.5670
23 26 10 -8.1368 -0.1830
23 26 11 -6.9720 -0.1871
23 26 12 -3.2340 -0.5039
23 26 13 3.8956 0.6569
23 27 0 2.7122 -3.0021
23 27 1 5.3853 -1.4759
23 27 2 1.6191 -0.3950
23 27 3 2.0897 0.6621
23 27 4 -8.2599 1.6530
23 27 5 1.2186 -0.6696
23 27 6 0.4384 -0.2261
23 27 7 5.0374 -0.3345
23 27 8 2.7907 -0.4740
23 27 9 5.3347 0.0832
23 27 10 0.8203 -0.6183
23 27 11 -7.8461 0.6600
23 27 12 -2.8504 -0.4596
23 28 1 1.2952 -1.5163
23 28 2 -7.8450 2.5034
23 28 3 -2.8705 0.0472
23 28 4 3.3733 1.1552
23 28 5 -2.3800 0.6871
23 28 6 -0.5028 -0.4505
23 28 7 2.3897 -0.5881
23 28 8 -3.9514 -0.3315
23 28 9 6.4862 0.1691
23 28 10 3.2339 0.2586
23 28 11 7.3492 -0.3432
23 28 12 2.2358 0.2244
23 29 0 5.4023 -0.9501
23 29 1 -0.3847 0.0929
23 29 2 -1.2182 0.1820
23 29 3 -3.5662 0.8506
23 29 4 -6.9626 -0.0493
23 29 5 -1.4001 -0.7386
23 29 6 -8.7447 0.5335
23 29 7 0.6497 -0.4221
23 29 8 -2.1818 -0.3797
23 29 9 6.0636 0.5535
23 29 10 1.7859 -0.3057
23 29 11 -4.6872 0.2821
23 29 12 0.1623 -0.1402
23 30 1 1.8363 0.4861
23 30 2 -7.9519 -0.2877
23 30 3 0.7385 -0.1988
23 30 4 1.8033 -0.0798
23 30 5 -7.2031 -1.1966
23 30 6 0.7138 0.1931
23 30 7 1.8035 -0.6515
23 30 8 -12.2710 -0.3065
23 30 9 2.1638 0.0575
23 30 10 3.7767 0.2275
23 30 11 4.6124 0.2560
23 31 0 -1.9841 -4.7952
23 31 1 6.1378 3.8070
23 31 2 -2.3893 0.8686
23 31 3 2.3829 0.2282
23 31 4 4.7943 1.0878
23 31 5 -5.3766 -0.5245
23 31 6 -3.1358 0.5676
23 31 7 -2.5320 0.2731
23 31 8 -6.2858 -0.7580
23 31 9 -4.7843 1.3608
23 31 10 2.9495 -0.4123
23 31 11 3.1102 1.2196
23 32 1 2.7831 1.3262
23 32 2 -0.4673 0.6255
23 32 3 3.3397 0.6096
23 32 4 4.4279 0.1009
23 32 5 -2.8343 -0.0111
23 32 6 4.5327 -0.4596
23 32 7 0.9700 -0.6076
23 32 8 -7.2770 -0.4769
23 32 9 -2.0747 -1.4966
23 32 10 -4.2944 0.0838
23 33 0 3.3204 -4.9572
23 33 1 3.9885 -1.8529
23 33 2 -5.4893 -0.8082
23 33 3 0.7326 -1.0646
23 33 4 0.8529 -0.0088
23 33 5 -3.8738 -0.3735
23 33 6 2.5483 0.4804
23 33 7 13.8907 -0.5329
23 33 8 1.3932 0.1577
23 33 9 -3.7580 -0.4085
23 34 1 -1.1544 3.6966
23 34 2 2.0586 -1.1868
23 34 3 -0.3219 1.4133
23 34 4 -3.5406 0.4078
23 34 5 1.9364 0.3913
23 34 6 -9.3547 -0.2785
23 34 7 1.9927 -0.3334
23 34 8 4.4416 1.1507
23 34 9 -0.7050 1.6360
23 35 0 -2.9379 3.0612
23 35 1 6.2690 2.4203
23 35 2 -14.0318 0.3136
23 35 3 -1.8903 0.1452
23 35 4 -2.0295 1.3312
23 35 5 -14.5848 0.7085
23 35 6 -3.3127 1.0526
23 35 7 -1.8606 -0.4177
23 36 1 1.5072 1.5356
23 36 2 2.6530 0.4941
23 36 3 3.2864 0.0466
23 36 4 1.7879 -0.5613
23 36 5 1.5571 1.2966
23 36 6 -8.4830 -1.4256
23 36 7 -0.2084 0.1664
23 37 0 -14.3675 2.4144
23 37 1 0.7129 -1.3274
23 37 2 -8.6505 -0.9999
23 37 3 -2.5619 -1.7208
23 37 4 6.7485 0.4688
23 37 5 1.7260 -1.3572
23 37 6 -1.6523 0.6797
23 38 1 -3.6699 1.1985
23 38 2 -3.0698 -1.8972
23 38 3 1.7857 0.2712
23 38 4 -5.6773 -1.6811
23 39 0 -6.6358 -2.8176
23 39 1 13.4323 0.5004
23 39 2 -4.4172 -0.9381
24 1 1 2.0848 -8.0053
24 1 2 0.9856 -0.1801
24 1 3 4.7797 -0.7352
24 1 4 0.1684 0.0455
24 1 5 4.9994 2.1690
24 1 6 -0.1286 0.1486
24 1 7 -1.2181 0.1122
24 1 8 -2.9661 0.7679
24 1 9 12.7382 -0.5033
24 1 10 -8.8434 -0.9994
24 1 11 5.7202 -0.8718
24 1 12 3.6265 -0.1738
24 1 13 -1.7349 -0.2363
24 1 14 -10.5807 0.0544
24 1 15 11.0688 -0.1038
24 1 16 -7.1808 -0.0418
24 1 17 -14.7175 0.8689
24 2 0 0.7571 -4.4673
24 2 1 -2.4044 -0.5555
24 2 2 -0.4376 -1.8117
24 2 3 -1.0267 0.9518
24 2 4 -2.7845 0.7072
24 2 5 1.2547 -0.6579
24 2 6 0.3982 0.9133
24 2 7 -0.8851 -0.9268
24 2 8 -2.1411 0.6100
24 2 9 3.1754 -0.7178
24 2 10 -3.2236 0.2185
24 2 11 13.7687 -0.0394
24 2 12 2.9207 0.1931
24 2 13 1.8699 0.3175
24 2 14 8.0814 -0.3418
24 2 15 6.2473 0.6219
24 2 16 5.0505 -0.4170
24 2 17 4.1943 -0.1922
24 3 1 1.9914 -2.4504
24 3 2 1.6890 1.0766
24 3 3 0.7220 0.3193
24 3 4 0.4915 1.1972
24 3 5 2.1587 1.2916
24 3 6 -0.6629 -0.5661
24 3 7 3.6589 0.4597
24 3 8 -6.1735 -0.2310
24 3 9 1.7809 -0.8731
24 3 10 -11.3538 -0.0932
24 3 11 0.9280 -0.1767
24 3 12 8.9671 0.0086
24 3 13 -4.7572 0.4596
24 3 14 -5.5119 -0.0329
24 3 15 -6.6312 0.0322
24 3 16 4.4658 0.2010
24 3 17 7.5429 0.0103
24 4 0 3.1732 1.4695
24 4 1 -1.0871 2.4186
24 4 2 3.6088 0.9314
24 4 3 2.8378 -0.7742
24 4 4 2.3913 -0.7253
24 4 5 3.2660 -0.8059
24 4 6 8.5406 0.2329
24 4 7 5.0936 -1.1429
24 4 8 -0.3721 1.7899
24 4 9 3.5831 -1.1879
24 4 10 -2.0125 0.2648
24 4 11 -5.8046 0.3978
24 4 12 0.2094 -0.3565
24 4 13 10.1207 0.2403
24 4 14 5.1295 0.0042
24 4 15 -10.6488 0.0377
24 4 16 -6.9922 0.2642
24 4 17 -0.9442 -0.4536
24 5 1 -2.3868 -5.1169
24 5 2 1.6050 1.8454
24 5 3 2.6799 -1.2906
24 5 4 -4.6494 -1.7132
24 5 5 -2.3303 0.0680
24 5 6 0.5442 -0.0601
24 5 7 3.9635 0.1035
24 5 8 -7.4010 -0.2974
24 5 9 -0.8812 0.5832
24 5 10 3.9285 -0.2188
24 5 11 8.5704 0.0983
24 5 12 1.7955 0.2638
24 5 13 3.1957 -0.6202
24 5 14 10.7312 0.4250
24 5 15 13.0662 -0.1985
24 5 16 -8.4802 0.2217
24 5 17 13.5682 0.3099
24 6 0 -5.9217 -4.6262
24 6 1 -0.8424 -1.0861
24 6 2 -1.3054 -0.7281
24 6 3 2.6623 0.4398
24 6 4 5.3739 0.6004
24 6 5 0.4328 -0.4488
24 6 6 3.2740 -0.0890
24 6 7 -1.7818 -0.1487
24 6 8 -0.0882 0.4324
24 6 9 -4.1789 0.2967
24 6 10 -11.2512 0.6283
24 6 11 3.0984 -0.3942
24 6 12 -5.3410 -0.1046
24 6 13 8.3152 0.0912
24 6 14 -8.3848 -0.3630
24 6 15 7.1508 -0.0050
24 6 16 5.8266 -0.2438
24 6 17 8.4489 -0.7426
24 7 1 -3.3212 -1.6903
24 7 2 -2.3834 -1.3605
24 7 3 0.8309 -0.9913
24 7 4 -2.7691 0.5072
24 7 5 2.9551 1.1641
24 7 6 6.6034 0.8265
24 7 7 4.1468 0.5523
24 7 8 -1.7084 -0.4798
24 7 9 1.7876 0.7370
24 7 10 11.9222 -0.0426
24 7 11 -6.7924 0.0299
24 7 12 10.7351 0.3762
24 7 13 -5.5398 -0.3497
24 7 14 -0.3637 0.2365
24 7 15 -14.5823 0.0190
24 7 16 8.2781 -0.2935
24 7 17 1.1718 0.0951
24 8 0 4.8168 2.1765
24 8 1 -1.7862 -3.4413
24 8 2 1.6686 -0.4141
24 8 3 0.9829 0.7341
24 8 4 -0.3460 0.0063
24 8 5 -2.2443 1.3807
24 8 6 4.3953 0.1483
24 8 7 1.9190 -0.4096
24 8 8 5.9068 0.0320
24 8 9 0.8583 0.3310
24 8 10 -3.9393 -0.5390
24 8 11 6.3818 -0.5321
24 8 12 -8.1045 -0.4326
24 8 13 2.1701 0.0741
24 8 14 -11.0383 0.1174
24 8 15 -7.9137 0.5206
24 8 16 -24.7336 0.0613
24 9 1 5.5138 4.1832
24 9 2 3.1745 3.2845
24 9 3 0.7271 -1.2226
24 9 4 -0.9379 0.0230
24 9 5 -3.3228 -0.2573
24 9 6 -5.1655 -2.2109
24 9 7 -0.4244 -0.7150
24 9 8 -0.0500 -1.4358
24 9 9 1.3943 0.2680
24 9 10 6.0735 0.3449
24 9 11 -7.1671 0.2346
24 9 12 4.5894 0.5442
24 9 13 -6.1947 -0.2270
24 9 14 -14.4150 0.5375
24 9 15 0.8981 -0.4626
24 9 16 -3.1290 -0.0725
24 10 0 -4.5882 7.5343
24 10 1 -5.6772 -1.4119
24 10 2 5.5002 2.0518
24 10 3 3.2819 -0.0439
24 10 4 2.3407 -0.1419
24 10 5 1.5954 -0.1981
24 10 6 4.5725 -0.6343
24 10 7 -7.3492 0.8675
24 10 8 -1.5281 -0.7048
24 10 9 -5.4447 0.2052
24 10 10 -1.2504 0.8064
24 10 11 -2.3108 0.0033
24 10 12 7.4908 0.0850
24 10 13 8.6612 -0.4005
24 10 14 -12.3263 -0.2323
24 10 15 1.3315 -0.1551
24 10 16 -12.6581 -0.1926
24 11 1 -4.9452 4.0998
24 11 2 2.3523 3.3355
24 11 3 0.3573 -0.4538
24 11 4 0.0218 1.2289
24 11 5 0.9876 -0.6566
24 11 6 1.4993 -0.6397
24 11 7 2.0881 1.3068
24 11 8 6.3882 0.1072
24 11 9 -0.1239 0.4781
24 11 10 12.5654 -0.5215
24 11 11 -6.7683 0.3899
24 11 12 -0.6939 0.3270
24 11 13 6.9453 -0.0094
24 11 14 4.7346 0.1255
24 11 15 -0.1105 -0.3533
24 11 16 -0.4566 -0.4852
24 12 0 1.5194 11.9668
24 12 1 -4.7825 -6.9663
24 12 2 0.4582 0.5895
24 12 3 0.1547 0.0079
24 12 4 -0.4287 -1.7675
24 12 5 0.3741 0.4153
24 12 6 -3.6714 -0.3703
24 12 7 -0.5926 0.2991
24 12 8 -2.4114 0.4712
24 12 9 -3.8220 0.2544
24 12 10 4.3884 -0.2886
24 12 11 9.7824 -0.1055
24 12 12 6.4462 -0.1614
24 12 13 -6.0308 -0.0335
24 12 14 -4.8812 0.2689
24 12 15 20.4362 0.0387
24 12 16 6.5817 0.7650
24 13 1 3.3294 6.9816
24 13 2 -1.1118 3.3135
24 13 3 0.4325 -2.0935
24 13 4 2.8266 -0.3640
24 13 5 -5.1509 -3.5867
24 13 6 -0.4456 0.0103
24 13 7 -4.6240 0.1059
24 13 8 0.3301 -0.4701
24 13 9 3.8860 1.1649
24 13 10 2.3673 -0.7928
24 13 11 0.2348 0.5189
24 13 12 -1.9794 0.0149
24 13 13 11.8401 -0.1124
24 13 14 -11.3561 0.3527
24 13 15 -2.0332 -1.3482
24 14 0 -0.4854 -7.7951
24 14 1 -0.1222 -4.2140
24 14 2 2.3648 0.0437
24 14 3 4.0963 0.3589
24 14 4 4.6929 0.5103
24 14 5 -2.1467 0.3873
24 14 6 4.7213 -0.1520
24 14 7 -3.5892 0.9508
24 14 8 -1.2819 -0.6115
24 14 9 1.2116 0.5155
24 14 10 5.0640 -0.1892
24 14 11 0.0579 -0.2623
24 14 12 -4.1206 -0.0011
24 14 13 -5.6719 -0.3662
24 14 14 -3.6575 0.0535
24 14 15 -3.8943 0.0026
24 15 1 1.6606 1.2443
24 15 2 3.4759 2.9710
24 15 3 -3.4213 -2.8647
24 15 4 4.5582 1.2251
24 15 5 1.7900 -1.8589
24 15 6 -0.3218 0.3453
24 15 7 3.4954 1.3831
24 15 8 -4.2089 -0.4194
24 15 9 2.5597 0.3152
24 15 10 8.4378 -0.2286
24 15 11 -0.1984 0.1952
24 15 12 -9.0251 0.5033
24 15 13 4.5622 0.2647
24 15 14 3.6288 -0.0622
24 15 15 11.8760 0.1546
24 16 0 -2.7079 -0.7163
24 16 1 5.5041 3.2411
24 16 2 3.0898 2.5355
24 16 3 -0.7476 0.1435
24 16 4 -1.1781 -1.2926
24 16 5 0.9698 1.4493
24 16 6 -1.0043 -1.4277
24 16 7 1.6263 -0.4840
24 16 8 -0.4982 0.3805
24 16 9 1.2326 -0.7522
24 16 10 5.9191 -0.1131
24 16 11 2.5040 -0.2663
24 16 12 0.2692 -0.0383
24 16 13 -2.0487 0.6691
24 16 14 -7.9961 -0.5295
24 16 15 8.0669 0.1824
24 17 1 6.1797 0.0537
24 17 2 4.2148 3.5373
24 17 3 2.0969 -0.6616
24 17 4 -0.2946 -0.5215
24 17 5 -4.6399 -1.6747
24 17 6 1.7601 0.3665
24 17 7 -4.2112 -0.0327
24 17 8 0.3223 0.0776
24 17 9 -3.5851 0.3819
24 17 10 4.8067 -0.3081
24 17 11 6.8943 0.2574
24 17 12 -5.6799 -0.0308
24 17 13 12.4083 0.3032
24 17 14 2.0265 -0.0426
24 17 15 -9.9827 -0.8746
24 18 0 -7.3080 3.0116
24 18 1 0.5918 1.9412
24 18 2 4.7633 -1.7590
24 18 3 -0.7234 0.0220
24 18 4 3.5196 -1.4729
24 18 5 -4.6169 -2.0544
24 18 6 -3.8198 -0.2276
24 18 7 -4.2065 0.3370
24 18 8 0.3042 0.3150
24 18 9 0.3060 0.4985
24 18 10 -3.2282 0.3409
24 18 11 7.3683 0.1719
24 18 12 7.9589 0.5757
24 18 13 -0.6307 0.4803
24 18 14 5.3960 -0.1721
24 18 15 11.4869 1.0991
24 19 1 2.3176 2.0589
24 19 2 1.9465 -2.8314
24 19 3 4.9304 -2.6164
24 19 4 5.6209 1.4419
24 19 5 4.2369 -1.3913
24 19 6 -6.3788 0.4346
24 19 7 1.7057 1.0047
24 19 8 -2.5188 0.5337
24 19 9 -2.3958 0.5151
24 19 10 -9.6173 -0.3773
24 19 11 -2.6715 -0.3871
24 19 12 4.6188 -0.1166
24 19 13 -8.9342 -0.2309
24 19 14 0.3117 0.0554
24 19 15 -9.3240 0.3854
24 20 0 0.7005 -0.2803
24 20 1 1.4200 0.0965
24 20 2 2.7452 0.9483
24 20 3 -0.2986 -0.0810
24 20 4 -3.8540 0.9055
24 20 5 1.5380 1.5169
24 20 6 -2.8184 0.6551
24 20 7 -0.0418 0.5194
24 20 8 1.9728 0.6111
24 20 9 -0.6064 -0.6941
24 20 10 -6.5937 -0.4596
24 20 11 -7.5087 -0.4221
24 20 12 -7.7644 -0.4832
24 20 13 4.9094 -0.0520
24 20 14 -7.3398 -0.0790
24 21 1 1.8932 -2.7510
24 21 2 3.1218 1.6458
24 21 3 3.6326 -1.1819
24 21 4 5.9889 0.1604
24 21 5 2.1437 0.9618
24 21 6 -0.2608 0.5613
24 21 7 0.7058 -0.9545
24 21 8 11.1131 -0.9010
24 21 9 0.1047 -0.5472
24 21 10 4.9683 -0.3489
24 21 11 8.4023 -0.0947
24 21 12 -5.9482 -0.0980
24 21 13 12.5479 0.1163
24 21 14 -0.4946 0.0227
24 22 0 -7.1697 8.0975
24 22 1 0.3388 2.7070
24 22 2 -0.1159 -0.8685
24 22 3 3.7915 0.0678
24 22 4 0.7653 -0.4845
24 22 5 2.3593 -1.5568
24 22 6 2.1335 0.0059
24 22 7 4.9508 -0.5710
24 22 8 -1.2030 -0.7260
24 22 9 1.4967 -0.5520
24 22 10 6.4733 1.0550
24 22 11 -0.0791 0.5529
24 22 12 -2.4571 0.6277
24 22 13 -3.9048 0.1103
24 22 14 4.8435 -0.3672
24 23 1 -5.9202 -0.3525
24 23 2 -1.1360 -0.1641
24 23 3 4.7001 -0.2946
24 23 4 -2.6077 0.4919
24 23 5 -1.9581 0.3349
24 23 6 -2.1961 0.5876
24 23 7 -0.6091 0.5138
24 23 8 -9.7916 0.0422
24 23 9 -3.9741 -0.4594
24 23 10 -16.0710 -0.1524
24 23 11 1.3759 0.1880
24 23 12 11.8299 -0.2038
24 23 13 -8.3228 0.8489
24 23 14 -2.4418 -0.3644
24 24 0 -1.8246 -0.8409
24 24 1 5.5970 -1.2013
24 24 2 -3.2932 -2.1316
24 24 3 1.0206 -1.6189
24 24 4 5.4654 0.2062
24 24 5 1.3864 1.2066
24 24 6 2.8586 0.6726
24 24 7 5.9843 0.1924
24 24 8 -0.8486 0.2650
24 24 9 -0.0690 0.4452
24 24 10 -1.4482 -0.2974
24 24 11 -2.0737 -0.3773
24 24 12 -1.2227 -0.0521
24 24 13 17.1548 -0.3668
24 25 1 1.4248 -1.4170
24 25 2 0.5793 0.1870
24 25 3 5.5366 -0.3349
24 25 4 -6.6643 0.3314
24 25 5 -0.6867 0.3203
24 25 6 4.3595 0.4366
24 25 7 7.4278 -0.2777
24 25 8 3.7046 -0.1882
24 25 9 6.1449 -0.5334
24 25 10 5.7396 -0.1599
24 25 11 1.7257 -0.2825
24 25 12 -0.6276 -0.4327
24 25 13 2.1152 0.0235
24 26 0 -13.3290 1.7064
24 26 1 -0.1098 -0.2199
24 26 2 -3.2051 -0.1480
24 26 3 1.3948 -0.0559
24 26 4 -5.1406 0.0321
24 26 5 -4.4926 0.6883
24 26 6 -0.5481 0.0906
24 26 7 7.3607 -0.8555
24 26 8 -3.8810 -0.1551
24 26 9 2.3775 -0.4411
24 26 10 4.0478 0.1405
24 26 11 7.1519 0.2983
24 26 12 -2.4023 -0.9185
24 26 13 -6.2724 0.0780
24 27 1 -7.1239 -3.9286
24 27 2 -9.7574 -3.5530
24 27 3 -0.8032 -0.5713
24 27 4 4.4693 0.0302
24 27 5 -1.3889 0.9029
24 27 6 -4.3038 0.8328
24 27 7 4.0854 0.1615
24 27 8 -3.5499 0.0625
24 27 9 -8.8340 0.0556
24 27 10 -1.8544 0.0253
24 27 11 0.1080 0.8833
24 27 12 5.3803 0.5148
24 28 0 4.5413 3.8685
24 28 1 8.9548 -1.0268
24 28 2 -0.1528 -0.3941
24 28 3 -10.6190 -0.6192
24 28 4 0.4958 0.4215
24 28 5 0.6172 1.4999
24 28 6 -6.2843 1.3384
24 28 7 0.5844 -0.0074
24 28 8 -11.5987 0.3491
24 28 9 4.9146 -0.6131
24 28 10 -5.2273 -0.0318
24 28 11 -6.0970 0.0521
24 28 12 -2.7187 -0.1060
24 29 1 5.3881 -0.0653
24 29 2 -0.9505 1.7093
24 29 3 -5.4950 1.4951
24 29 4 -1.3406 0.2216
24 29 5 1.5890 0.7429
24 29 6 -0.5811 -0.0955
24 29 7 2.9955 -0.1970
24 29 8 -9.6448 -1.3237
24 29 9 -7.2881 -0.7869
24 29 10 6.6673 -0.0734
24 29 11 -1.1718 -1.0756
24 30 0 -7.1612 3.1310
24 30 1 2.0687 -1.8563
24 30 2 6.0996 -0.6775
24 30 3 -1.2739 0.4915
24 30 4 5.9076 -0.4822
24 30 5 4.5404 -1.1058
24 30 6 -3.6268 -0.6425
24 30 7 5.3254 -0.4829
24 30 8 -5.6255 -1.1425
24 30 9 3.6824 -0.4505
24 30 10 2.4882 0.1745
24 30 11 2.3309 0.2778
24 31 1 -2.7653 -1.8023
24 31 2 3.4289 -1.6184
24 31 3 -4.3483 -0.5735
24 31 4 4.9529 -0.6534
24 31 5 0.4006 0.1150
24 31 6 -0.6321 -0.0370
24 31 7 0.8378 0.0376
24 31 8 1.1517 0.6152
24 31 9 -0.5299 0.5246
24 31 10 4.6082 0.2834
24 32 0 -4.4170 -1.6839
24 32 1 -4.3519 -2.7784
24 32 2 -3.9893 0.1857
24 32 3 -5.7263 0.8283
24 32 4 -2.4635 0.6523
24 32 5 4.9008 1.9095
24 32 6 -5.8411 0.9855
24 32 7 -3.6540 -0.2946
24 32 8 -2.5294 0.5806
24 32 9 4.0874 -1.5400
24 33 1 -3.9488 0.0784
24 33 2 0.7649 0.1292
24 33 3 -16.8944 1.0031
24 33 4 0.8068 0.0658
24 33 5 4.7332 0.9207
24 33 6 -5.3092 0.3705
24 33 7 -6.5449 0.3159
24 33 8 4.2104 -0.6593
24 34 0 -8.0969 2.0720
24 34 1 0.8795 -0.7742
24 34 2 -1.1956 -0.3891
24 34 3 2.1239 0.5436
24 34 4 -11.3530 -0.7947
24 34 5 3.1102 1.2372
24 34 6 -1.1981 -0.0197
24 34 7 -18.8677 -0.1814
24 35 1 -5.4030 0.7754
24 35 2 -4.0128 0.0449
24 35 3 -4.8977 -1.3716
24 35 4 -1.1929 -0.3386
24 35 5 15.0796 0.0156
24 35 6 0.2674 -1.6707
24 35 7 2.5358 0.4177
24 36 0 5.6209 1.1292
24 36 1 -0.1526 -2.9793
24 36 2 3.1435 1.4418
24 36 3 -2.8603 0.9265
24 36 4 -4.6297 0.0651
24 36 5 6.5834 0.5885
24 36 6 1.0104 -0.1714
24 37 1 -3.6905 0.4919
24 37 2 3.4687 -1.0903
24 37 3 -3.7977 0.3688
24 37 4 -4.1188 0.0180
24 38 0 6.6469 1.4657
24 38 1 6.3112 0.0832
24 38 2 0.0103 -1.6417
24 38 3 -3.0730 -1.3590
25 1 0 4.3424 3.7291
25 1 1 4.0576 0.8266
25 1 2 -3.0803 0.6220
25 1 3 0.9484 -2.1587
25 1 4 3.2112 0.1186
25 1 5 4.4719 1.4668
25 1 6 -0.3731 0.0573
25 1 7 0.0495 0.4121
25 1 8 -4.9764 0.2578
25 1 9 7.4246 0.1365
25 1 10 4.6157 -0.2452
25 1 11 2.5631 -0.8228
25 1 12 3.0431 -0.6980
25 1 13 24.0513 -0.2308
25 1 14 -1.7728 0.3695
25 1 15 -1.6349 0.1674
25 1 16 -4.3525 0.6922
25 1 17 2.3684 0.4857
25 2 1 7.4773 1.9017
25 2 2 1.3226 4.3931
25 2 3 2.6551 2.9912
25 2 4 -3.7951 0.4905
25 2 5 -4.9136 1.3756
25 2 6 4.3854 -0.0763
25 2 7 -0.0738 -0.6871
25 2 8 -1.2348 -0.2958
25 2 9 -1.4759 -0.1902
25 2 10 -4.4475 -0.5010
25 2 11 -9.8291 -0.1839
25 2 12 9.3004 0.1363
25 2 13 -7.3875 0.4132
25 2 14 6.6048 0.1520
25 2 15 13.8310 0.6493
25 2 16 4.2584 -0.2982
25 2 17 5.3096 0.3586
25 3 0 0.2443 7.9190
25 3 1 -1.9859 1.6396
25 3 2 -1.4020 -3.1121
25 3 3 1.2494 -1.8409
25 3 4 3.3567 -1.9345
25 3 5 1.7977 -2.8547
25 3 6 -0.3143 0.3672
25 3 7 5.5921 -0.1306
25 3 8 -1.8428 0.0893
25 3 9 -0.2146 0.6685
25 3 10 4.1163 -0.0504
25 3 11 -15.8806 0.1701
25 3 12 14.2709 0.1533
25 3 13 11.4664 -0.2177
25 3 14 -4.0801 -0.4414
25 3 15 15.4496 0.1335
25 3 16 4.6340 -0.3566
25 3 17 6.3846 0.3803
25 4 1 2.2338 -0.2412
25 4 2 -1.8245 0.1259
25 4 3 1.5908 -2.6141
25 4 4 -1.8824 -0.0290
25 4 5 2.9962 -0.0683
25 4 6 -2.7023 -1.8813
25 4 7 4.0462 0.6856
25 4 8 8.1504 -0.0408
25 4 9 2.9989 -0.0155
25 4 10 10.2240 0.4347
25 4 11 -0.7275 -0.3222
25 4 12 0.8467 0.3291
25 4 13 0.5622 -0.1081
25 4 14 6.0299 -0.5348
25 4 15 1.8281 -0.0511
25 4 16 2.4239 -0.1345
25 4 17 16.8008 0.0274
25 5 0 -1.5154 1.2310
25 5 1 -0.3777 0.2478
25 5 2 -2.0676 1.5152
25 5 3 4.1128 1.2450
25 5 4 0.1562 0.8506
25 5 5 3.4905 1.3214
25 5 6 -0.9537 1.0232
25 5 7 4.4047 -0.3353
25 5 8 -1.8395 0.5740
25 5 9 -0.5323 -1.2750
25 5 10 -6.3552 0.2565
25 5 11 3.9800 0.4100
25 5 12 0.6240 -0.3298
25 5 13 -5.0839 0.4692
25 5 14 -10.5018 -0.1856
25 5 15 -6.1776 -0.3327
25 5 16 -12.0013 0.1725
25 5 17 1.5823 -0.0617
25 6 1 -0.7546 0.5556
25 6 2 -3.7168 -0.9037
25 6 3 -1.3055 -0.3066
25 6 4 2.1091 -1.4933
25 6 5 -2.8190 0.6543
25 6 6 -0.6859 1.2260
25 6 7 0.3503 0.2797
25 6 8 -0.3701 -0.2174
25 6 9 1.1130 0.6051
25 6 10 -3.9582 -0.0687
25 6 11 -6.6712 0.4610
25 6 12 0.9356 -0.0361
25 6 13 -6.1723 -0.6288
25 6 14 1.1240 0.3114
25 6 15 -5.0222 -0.2205
25 6 16 -0.3109 -0.0002
25 7 0 3.0064 -14.0500
25 7 1 3.1621 2.1170
25 7 2 4.1696 -2.3714
25 7 3 3.1597 0.3538
25 7 4 -0.2114 0.8464
25 7 5 -1.7738 -2.0844
25 7 6 -3.5272 2.2059
25 7 7 2.0693 0.1087
25 7 8 -0.0888 -1.4862
25 7 9 -3.5661 -0.1271
25 7 10 0.8359 -0.6653
25 7 11 0.5688 0.3799
25 7 12 0.4403 0.1447
25 7 13 -0.2134 -0.2793
25 7 14 -6.7944 0.0542
25 7 15 -20.5279 0.2725
25 7 16 -2.7647 -0.3225
25 8 1 -2.7992 -1.3596
25 8 2 -0.4220 2.4981
25 8 3 4.8971 -1.3530
25 8 4 -2.3870 0.0858
25 8 5 -0.7868 0.2419
25 8 6 -1.7322 -1.7513
25 8 7 4.2936 1.4304
25 8 8 0.4453 -0.5903
25 8 9 3.7539 -0.8998
25 8 10 -11.6459 0.7777
25 8 11 -2.2020 -0.6636
25 8 12 2.1518 0.5755
25 8 13 6.7332 -0.3394
25 8 14 2.5959 -0.3772
25 8 15 2.2276 0.6184
25 8 16 -13.5473 0.1966
25 9 0 -3.2560 -12.6493
25 9 1 1.0804 2.8634
25 9 2 -6.1936 -0.7075
25 9 3 1.7821 3.2077
25 9 4 3.3161 0.1943
25 9 5 -1.0396 1.8960
25 9 6 -2.5826 0.9393
25 9 7 3.1306 -0.8483
25 9 8 1.9621 0.4894
25 9 9 6.9149 -0.2976
25 9 10 2.0432 -0.7151
25 9 11 -4.0015 0.2879
25 9 12 -0.9918 -0.1045
25 9 13 0.5330 0.8283
25 9 14 11.6779 0.5304
25 9 15 -3.0642 -0.0887
25 9 16 16.6151 0.0722
25 10 1 1.7881 1.3321
25 10 2 -0.4257 0.8011
25 10 3 2.8357 1.2693
25 10 4 3.4763 0.1071
25 10 5 1.6548 -0.2976
25 10 6 6.5441 -0.2139
25 10 7 -0.5542 -0.0180
25 10 8 0.6473 -0.1789
25 10 9 1.5513 0.1952
25 10 10 3.2610 0.4336
25 10 11 8.0766 -0.1314
25 10 12 3.4833 0.3260
25 10 13 2.4168 -0.1690
25 10 14 -4.4239 0.4145
25 10 15 -6.2229 0.1267
25 10 16 6.4938 -0.6655
25 11 0 0.1850 -10.7430
25 11 1 -0.2408 5.3280
25 11 2 -0.8257 -0.3099
25 11 3 1.0929 3.3882
25 11 4 -4.0088 0.5193
25 11 5 1.7637 -1.4015
25 11 6 -3.7711 -0.6449
25 11 7 0.3972 -1.8092
25 11 8 -0.0669 -0.3215
25 11 9 -2.3796 0.3990
25 11 10 -8.1630 -0.5506
25 11 11 7.3713 1.0680
25 11 12 -1.4627 -0.3735
25 11 13 -1.4917 0.4065
25 11 14 -7.8185 0.6125
25 11 15 -20.6455 -0.2244
25 11 16 10.4396 0.0041
25 12 1 -3.7470 -4.9586
25 12 2 3.1990 -5.0138
25 12 3 1.9867 -3.0015
25 12 4 -1.7000 0.4239
25 12 5 -1.1766 -0.1957
25 12 6 -3.3181 -0.5297
25 12 7 -3.3401 1.0867
25 12 8 -1.3616 0.4652
25 12 9 -3.4139 0.7476
25 12 10 -7.9143 0.2956
25 12 11 2.1215 -0.0408
25 12 12 2.2118 0.0413
25 12 13 10.4169 -0.7399
25 12 14 -0.8523 0.1386
25 12 15 -12.5544 -0.3228
25 13 0 -2.8707 -16.9869
25 13 1 2.8254 1.3423
25 13 2 -3.8742 -0.3200
25 13 3 5.3680 -0.3532
25 13 4 3.6427 2.4215
25 13 5 -0.2679 -0.7829
25 13 6 -0.6968 0.4757
25 13 7 3.0372 -0.5421
25 13 8 7.6092 -0.2771
25 13 9 1.3896 0.2567
25 13 10 -4.2579 -0.8836
25 13 11 -0.2770 0.4637
25 13 12 -3.8160 -0.3695
25 13 13 -10.2148 0.4509
25 13 14 2.1856 0.2734
25 13 15 -9.0092 -0.1105
25 14 1 -0.9925 -0.2412
25 14 2 4.1808 4.1760
25 14 3 -3.1096 2.4500
25 14 4 8.1146 1.7099
25 14 5 2.8117 0.3448
25 14 6 -6.4419 -0.2484
25 14 7 2.7633 -0.3929
25 14 8 -1.4743 -0.9413
25 14 9 11.3708 -0.0817
25 14 10 0.1509 -0.3767
25 14 11 6.7305 -0.7829
25 14 12 12.9748 0.1808
25 14 13 5.1089 0.1410
25 14 14 -6.8956 0.4406
25 14 15 -11.3799 0.5368
25 15 0 -8.3811 -7.9400
25 15 1 1.2765 1.2727
25 15 2 -4.5793 0.1797
25 15 3 -1.2136 2.6009
25 15 4 -0.9441 0.8192
25 15 5 4.2328 -1.7274
25 15 6 3.7012 -0.3497
25 15 7 2.0232 -1.2451
25 15 8 -0.0020 0.0338
25 15 9 0.5063 0.0353
25 15 10 1.0660 -0.3161
25 15 11 3.1202 0.8907
25 15 12 -1.5588 -0.2508
25 15 13 7.4780 0.2338
25 15 14 13.0474 0.6418
25 16 1 -1.7295 -2.7168
25 16 2 1.8338 1.4457
25 16 3 3.3443 -0.3156
25 16 4 -7.4971 0.7169
25 16 5 -0.7229 -0.8720
25 16 6 -2.7209 -0.3559
25 16 7 -0.2893 -0.2825
25 16 8 -1.1050 0.3389
25 16 9 0.4061 0.8192
25 16 10 -10.4062 0.2481
25 16 11 2.8915 -0.0554
25 16 12 -4.8636 -0.2486
25 16 13 1.3599 -0.2595
25 16 14 4.0636 -0.1357
25 16 15 -7.4815 -0.6640
25 17 0 2.2762 -11.8575
25 17 1 5.5542 4.9333
25 17 2 1.7869 0.2133
25 17 3 3.9214 -0.1711
25 17 4 7.6369 1.0921
25 17 5 -1.1236 -0.5490
25 17 6 -1.4053 0.2566
25 17 7 -8.6517 -0.4501
25 17 8 3.8462 1.1015
25 17 9 1.8321 0.5858
25 17 10 -8.2212 0.3596
25 17 11 -0.6271 0.2754
25 17 12 -8.3954 -0.4365
25 17 13 -6.7208 -0.3191
25 17 14 9.5942 0.4802
25 17 15 2.0855 -0.3157
25 18 1 -3.8406 -3.1495
25 18 2 4.9638 -0.1500
25 18 3 2.8085 -0.3119
25 18 4 0.4815 0.2892
25 18 5 10.3644 0.4720
25 18 6 1.7619 0.5807
25 18 7 0.8381 -0.2768
25 18 8 -4.7943 -0.6132
25 18 9 11.5933 -0.1483
25 18 10 3.7111 -0.1747
25 18 11 -0.6049 0.0257
25 18 12 5.3026 -0.2324
25 18 13 5.0561 0.1355
25 18 14 -2.9013 -0.0660
25 18 15 -11.8164 0.2562
25 19 0 4.3865 2.4377
25 19 1 0.8107 5.1006
25 19 2 -10.5192 0.9707
25 19 3 -0.0518 0.4968
25 19 4 -4.3124 -0.5182
25 19 5 -3.0404 -1.6100
25 19 6 -0.4760 0.8976
25 19 7 2.8263 -0.3761
25 19 8 7.0721 0.6365
25 19 9 3.7044 -0.1778
25 19 10 -0.9535 0.0527
25 19 11 -7.0967 -0.2925
25 19 12 -1.9026 0.0386
25 19 13 1.0144 -0.5815
25 19 14 12.4529 0.2787
25 20 1 4.9839 5.8765
25 20 2 -3.4838 -2.9064
25 20 3 0.0732 -0.0087
25 20 4 0.5255 0.4692
25 20 5 2.8301 -1.3634
25 20 6 -5.9486 -0.2183
25 20 7 -5.3339 0.3268
25 20 8 6.4072 0.0539
25 20 9 10.1076 0.3792
25 20 10 3.0963 -0.0694
25 20 11 4.3613 0.1036
25 20 12 -14.0098 0.5253
25 20 13 -1.5399 -0.4702
25 20 14 4.9980 0.5808
25 21 0 5.6872 -12.5916
25 21 1 5.6502 0.3949
25 21 2 3.8506 1.3296
25 21 3 0.6856 -2.8285
25 21 4 2.9186 1.3458
25 21 5 -1.4218 -0.6311
25 21 6 2.1912 0.8166
25 21 7 -4.9241 0.6725
25 21 8 -3.2546 0.9491
25 21 9 2.7847 0.1151
25 21 10 -1.3120 0.2496
25 21 11 7.8122 -0.4438
25 21 12 3.5566 0.1829
25 21 13 -3.6184 -0.1615
25 21 14 5.1765 0.3051
25 22 1 1.3590 -0.4177
25 22 2 5.7574 2.7582
25 22 3 -0.4409 1.5598
25 22 4 5.3776 -0.6739
25 22 5 -2.9584 1.5478
25 22 6 -2.2720 -0.1608
25 22 7 -2.5167 0.0887
25 22 8 9.7136 -0.1406
25 22 9 -1.8325 -0.1654
25 22 10 -4.6762 -0.3751
25 22 11 -5.4900 -0.4673
25 22 12 4.8275 0.3232
25 22 13 1.9783 0.2896
25 22 14 6.7452 1.0234
25 23 0 3.4157 16.8830
25 23 1 -5.3073 0.3109
25 23 2 -3.3791 -0.2636
25 23 3 1.1413 0.4068
25 23 4 5.2272 -2.1084
25 23 5 -1.3951 -1.6270
25 23 6 -3.5941 -0.2810
25 23 7 -5.9133 -0.3177
25 23 8 3.2590 0.6673
25 23 9 10.2686 -0.5024
25 23 10 14.0898 -0.0079
25 23 11 -7.1638 0.0720
25 23 12 0.6989 -0.3880
25 23 13 5.4658 -0.1039
25 24 1 2.4259 4.4294
25 24 2 7.7168 -1.4114
25 24 3 -5.3804 -1.6488
25 24 4 5.9616 -1.7944
25 24 5 2.6376 -1.1912
25 24 6 1.0752 -0.4977
25 24 7 -7.1837 0.0575
25 24 8 1.3995 0.5739
25 24 9 -2.4351 0.0966
25 24 10 8.1292 0.0769
25 24 11 13.0612 -0.3093
25 24 12 -5.5101 0.0961
25 24 13 6.7356 -0.8336
25 25 0 -4.2436 -0.4340
25 25 1 -2.3502 -0.0930
25 25 2 -2.2813 0.1057
25 25 3 -1.1998 -2.1099
25 25 4 1.3952 -0.1490
25 25 5 -1.2530 0.4016
25 25 6 0.5731 0.2769
25 25 7 4.8181 1.4041
25 25 8 3.8307 0.8353
25 25 9 -18.7532 0.4081
25 25 10 6.0626 -0.3085
25 25 11 -3.3837 -0.8733
25 25 12 1.5828 -0.2653
25 25 13 -2.5174 -0.0988
25 26 1 -4.1272 0.5453
25 26 2 -1.4630 1.9162
25 26 3 -13.0045 0.1983
25 26 4 3.6171 -0.8099
25 26 5 -1.9169 0.2576
25 26 6 -1.5816 1.3248
25 26 7 0.2247 0.7102
25 26 8 11.5518 0.0481
25 26 9 -17.1855 -0.0128
25 26 10 -12.5666 -0.9262
25 26 11 -9.3253 -0.1156
25 26 12 1.3891 -0.1487
25 27 0 -0.3039 5.0251
25 27 1 5.1538 -2.7072
25 27 2 12.2195 -0.8683
25 27 3 -3.5309 0.7693
25 27 4 -1.8944 -1.5969
25 27 5 -6.5687 0.4803
25 27 6 -3.1655 -0.6415
25 27 7 -1.6287 0.2398
25 27 8 9.2865 0.4773
25 27 9 0.7618 -0.3938
25 27 10 6.4892 0.2108
25 27 11 -10.5852 -0.9459
25 27 12 -2.3446 1.1608
25 28 1 -4.4196 0.8370
25 28 2 2.9663 1.7654
25 28 3 2.8654 -0.8844
25 28 4 0.3375 0.3631
25 28 5 6.0146 0.0604
25 28 6 -3.2403 -0.3270
25 28 7 1.9303 0.6277
25 28 8 -6.6357 -0.0146
25 28 9 -5.1742 -0.2900
25 28 10 8.0412 -0.2651
25 28 11 -2.0826 -0.4100
25 29 0 -1.8189 4.1119
25 29 1 -7.1134 -1.7425
25 29 2 2.1005 -1.0487
25 29 3 -1.4415 0.2493
25 29 4 -2.6506 -1.0733
25 29 5 0.2041 0.4554
25 29 6 0.1366 0.5650
25 29 7 6.5933 -0.3367
25 29 8 0.2860 -0.5151
25 29 9 -6.3619 -0.4722
25 29 10 2.2546 -0.2482
25 29 11 3.6511 -1.0130
25 30 1 -0.4663 -0.3703
25 30 2 -2.8188 -0.9620
25 30 3 -6.6382 -2.4938
25 30 4 -2.3976 -0.5629
25 30 5 -3.4025 -0.7825
25 30 6 6.0305 -0.3554
25 30 7 -3.8638 1.2515
25 30 8 -1.5573 0.1592
25 30 9 -2.0255 -0.1874
25 30 10 6.1966 0.8641
25 31 0 13.8283 6.2244
25 31 1 -3.4538 -0.0538
25 31 2 7.7295 0.8211
25 31 3 -4.2531 -0.4513
25 31 4 -6.7074 -0.0843
25 31 5 -10.0649 -0.2038
25 31 6 0.4898 1.2670
25 31 7 8.1535 0.4694
25 31 8 -8.1898 0.2619
25 31 9 -2.5364 -0.4250
25 31 10 -5.8641 0.5255
25 32 1 -2.3225 -0.5939
25 32 2 -3.0983 -0.1890
25 32 3 -3.3607 -1.5751
25 32 4 4.0894 0.0637
25 32 5 -4.3410 -0.2661
25 32 6 8.9144 0.1541
25 32 7 -0.3800 -0.1572
25 32 8 -3.4130 0.5279
25 33 0 3.3170 -1.1114
25 33 1 -7.5544 -1.3798
25 33 2 1.5852 -0.5501
25 33 3 -5.4578 0.2296
25 33 4 -11.6098 -0.5442
25 33 5 -11.7345 1.1876
25 33 6 3.5581 -0.3932
25 33 7 2.9849 1.3551
25 33 8 -7.3167 -1.0140
25 34 1 -4.2197 -0.6514
25 34 2 -0.0967 1.2351
25 34 3 9.9989 -0.6966
25 34 4 7.3347 1.3388
25 34 5 -12.3200 0.1482
25 34 6 14.2211 1.5624
25 34 7 -4.3094 -0.9604
25 35 0 15.6265 -1.0599
25 35 1 -9.3719 1.2781
25 35 2 0.5924 -0.4829
25 35 3 -0.1462 0.0202
25 35 4 5.0190 0.0849
25 35 5 -10.3914 1.2599
25 35 6 6.3421 -1.5456
25 36 1 1.6587 0.7805
25 36 2 1.1555 0.6970
25 36 3 -2.7025 -1.8046
25 36 4 3.9105 0.0175
25 36 5 -17.0562 -0.9531
25 37 0 2.6917 -1.8323
25 37 1 2.1948 0.9962
25 37 2 1.3677 -0.7821
25 37 3 0.7477 1.0110
25 38 1 -3.7257 -2.8020
25 38 2 1.3033 0.6053
26 1 1 2.9492 -1.6217
26 1 2 1.0689 4.9827
26 1 3 -3.6097 0.0499
26 1 4 -2.6607 -0.1943
26 1 5 1.8065 0.0071
26 1 6 6.5907 -0.7867
26 1 7 3.6488 -0.0208
26 1 8 1.5355 0.5001
26 1 9 2.8056 -0.2309
26 1 10 4.3992 -0.0956
26 1 11 -0.3547 0.2033
26 1 12 -3.8380 -0.1963
26 1 13 -3.9938 -0.0633
26 1 14 1.8171 0.0531
26 1 15 2.5831 -0.4290
26 1 16 -1.3088 -0.1590
26 2 0 0.8508 -0.6093
26 2 1 0.5848 0.2386
26 2 2 2.8147 1.3557
26 2 3 2.4405 2.1911
26 2 4 1.0111 0.6833
26 2 5 -0.4149 1.0944
26 2 6 0.0869 -0.1833
26 2 7 1.7531 -0.0720
26 2 8 -0.7535 -0.4717
26 2 9 -1.1333 1.5056
26 2 10 14.0823 0.0578
26 2 11 -0.7425 -0.0334
26 2 12 23.4180 0.1149
26 2 13 8.0699 -0.0121
26 2 14 3.2330 0.2084
26 2 15 6.1450 -0.1002
26 2 16 3.5702 -0.4662
26 3 1 1.1223 2.7238
26 3 2 3.4493 -1.5568
26 3 3 -0.5160 0.2909
26 3 4 0.9801 -0.2906
26 3 5 2.0747 -0.6633
26 3 6 -1.7565 1.3280
26 3 7 0.9362 -1.0126
26 3 8 -4.5229 0.0912
26 3 9 -5.8619 -0.4218
26 3 10 0.1454 0.2363
26 3 11 -3.7663 0.6678
26 3 12 -6.9976 -0.1982
26 3 13 20.2711 0.8619
26 3 14 2.8482 -0.2289
26 3 15 -1.1254 -0.6251
26 3 16 3.4206 0.0413
26 4 0 -6.9075 -6.8430
26 4 1 4.9049 2.0864
26 4 2 -2.4573 1.6110
26 4 3 1.2599 -0.3611
26 4 4 2.7837 -1.1144
26 4 5 8.0017 -1.3207
26 4 6 4.6697 -1.2267
26 4 7 -1.9372 -0.1141
26 4 8 3.0084 -0.6840
26 4 9 -3.9843 0.4360
26 4 10 -2.7838 -0.7693
26 4 11 -4.5557 0.1020
26 4 12 -8.7866 0.0429
26 4 13 -16.0171 -0.4945
26 4 14 -13.1938 0.5047
26 4 15 4.5618 -0.5773
26 4 16 -14.6083 -0.1206
26 5 1 -1.7153 -1.1729
26 5 2 2.4150 -4.3865
26 5 3 -4.2769 -0.1528
26 5 4 2.7198 -1.1520
26 5 5 -1.6486 -0.8600
26 5 6 3.2701 0.3210
26 5 7 2.9899 -0.0698
26 5 8 -2.3034 1.4166
26 5 9 2.0199 -0.1925
26 5 10 0.0171 -0.1136
26 5 11 -6.2852 0.0692
26 5 12 5.1679 -0.4418
26 5 13 4.7709 0.3840
26 5 14 -4.7435 -0.1050
26 5 15 -1.1483 0.1357
26 5 16 9.7345 0.8070
26 6 0 4.5922 -2.7420
26 6 1 2.6935 2.0849
26 6 2 -0.8090 2.1951
26 6 3 0.7913 1.5066
26 6 4 3.9312 0.9334
26 6 5 -3.0870 -0.3393
26 6 6 -0.4276 -0.0138
26 6 7 -3.6873 0.7569
26 6 8 0.6481 0.1262
26 6 9 -0.3602 0.6343
26 6 10 4.8003 -0.1930
26 6 11 -8.8333 0.1544
26 6 12 1.5673 0.4433
26 6 13 5.5490 0.1983
26 6 14 1.0226 0.1015
26 6 15 12.7702 -0.1579
26 6 16 -4.9254 -0.0841
26 7 1 1.5413 -1.2492
26 7 2 1.5308 -1.9056
26 7 3 -3.5665 2.5862
26 7 4 -1.6040 -0.4021
26 7 5 1.7453 1.8902
26 7 6 -2.8300 1.2347
26 7 7 -0.6504 0.0950
26 7 8 -2.3609 1.3886
26 7 9 6.4437 -0.6771
26 7 10 -5.5868 -0.2421
26 7 11 0.4995 -0.2699
26 7 12 -5.2312 -1.2338
26 7 13 -8.5637 0.5241
26 7 14 2.9420 -0.2261
26 7 15 -2.0479 0.5930
26 7 16 -4.8620 0.7196
26 8 0 -6.7128 -0.0876
26 8 1 2.3110 -2.3293
26 8 2 -3.8315 -1.0814
26 8 3 0.5463 0.2754
26 8 4 1.2106 -0.5549
26 8 5 -0.8238 -1.8603
26 8 6 5.0829 0.2445
26 8 7 -1.0907 -0.4702
26 8 8 -0.0788 -0.2223
26 8 9 4.0929 -0.3558
26 8 10 3.0597 -0.8193
26 8 11 -4.7025 0.0709
26 8 12 -5.1763 -0.4300
26 8 13 -3.3837 -0.1182
26 8 14 -13.0012 0.3274
26 8 15 -0.2284 -0.0518
26 8 16 -10.5227 0.7600
26 9 1 2.9746 -0.2103
26 9 2 2.5471 -5.2795
26 9 3 3.8027 1.4277
26 9 4 6.8068 -0.7515
26 9 5 0.5791 0.6254
26 9 6 4.6240 0.1339
26 9 7 -0.2159 -0.7422
26 9 8 1.0876 -0.1326
26 9 9 -1.8697 -1.0116
26 9 10 9.1528 0.2869
26 9 11 3.3965 -0.5900
26 9 12 8.8343 -0.2035
26 9 13 0.5509 0.4094
26 9 14 4.0608 0.0009
26 9 15 -12.3272 0.5092
26 9 16 -9.1491 0.0278
26 10 0 -3.5512 7.9778
26 10 1 -3.2294 6.3319
26 10 2 0.4106 0.2539
26 10 3 -1.2513 0.5176
26 10 4 5.9782 -0.4555
26 10 5 -1.6066 0.4239
26 10 6 2.5244 0.3685
26 10 7 -0.4249 -0.1186
26 10 8 2.4589 0.1300
26 10 9 -4.1176 0.8756
26 10 10 -4.5086 0.5222
26 10 11 -0.1147 0.8230
26 10 12 1.7444 -0.0653
26 10 13 7.8887 -0.0509
26 10 14 -0.7630 -0.2317
26 10 15 -3.6116 0.0127
26 10 16 -9.1496 -0.2504
26 11 1 -2.0824 0.8876
26 11 2 -5.8792 -4.1546
26 11 3 -0.8001 2.5653
26 11 4 -2.6902 -0.6000
26 11 5 0.7791 2.0003
26 11 6 -7.7788 1.8428
26 11 7 -3.6316 0.1622
26 11 8 1.1763 1.0439
26 11 9 4.6097 -1.0948
26 11 10 3.8209 0.1719
26 11 11 -5.7640 -0.2332
26 11 12 -2.0046 -0.7088
26 11 13 6.3591 0.2763
26 11 14 21.1819 0.1259
26 11 15 -10.8894 0.4694
26 12 0 6.4746 -5.0250
26 12 1 -3.3885 -2.7700
26 12 2 -2.6904 -2.3402
26 12 3 1.4738 -1.6519
26 12 4 0.6749 -0.9140
26 12 5 -0.4383 0.7207
26 12 6 6.2864 -0.5361
26 12 7 -6.4485 -0.8210
26 12 8 2.0735 -0.1981
26 12 9 2.2639 -0.2789
26 12 10 5.8361 -0.1104
26 12 11 -2.9962 0.1322
26 12 12 -8.6631 -0.4417
26 12 13 -12.2608 -0.0084
26 12 14 -3.5772 0.2149
26 12 15 10.9770 -0.4298
26 13 1 6.6693 -1.7843
26 13 2 -0.8808 -4.6524
26 13 3 -0.8318 1.9470
26 13 4 0.3123 -0.9894
26 13 5 -0.9624 0.5298
26 13 6 0.9710 0.1304
26 13 7 -3.8385 -1.0039
26 13 8 -0.0004 0.4666
26 13 9 -1.1324 -0.7340
26 13 10 5.2267 -0.1079
26 13 11 2.3844 -0.2337
26 13 12 12.2322 -0.3459
26 13 13 -15.7061 -0.0220
26 13 14 -9.1469 0.0762
26 13 15 -12.6325 -0.1277
26 14 0 -4.7903 2.1976
26 14 1 -1.6394 -0.7996
26 14 2 3.9796 -2.2267
26 14 3 -2.0024 -0.9616
26 14 4 -0.5134 1.3298
26 14 5 2.3491 1.0400
26 14 6 -2.2789 1.4382
26 14 7 -0.3344 0.4696
26 14 8 -1.8039 0.2593
26 14 9 -5.1528 0.7896
26 14 10 -1.3385 0.6557
26 14 11 -11.7636 -0.3138
26 14 12 15.3231 0.0565
26 14 13 13.1421 -0.3733
26 14 14 3.9590 0.3742
26 15 1 1.4268 -0.2650
26 15 2 1.5710 -1.1790
26 15 3 -0.3134 1.8425
26 15 4 0.4135 0.3273
26 15 5 -1.5364 1.5878
26 15 6 1.2597 -0.5585
26 15 7 -0.5622 0.4093
26 15 8 2.5930 -0.4543
26 15 9 4.3391 -0.6048
26 15 10 10.1203 0.9773
26 15 11 1.4476 0.0542
26 15 12 0.6596 0.3165
26 15 13 -4.9797 0.2394
26 15 14 5.8272 -0.7379
26 16 0 5.9304 7.7334
26 16 1 1.1228 0.5809
26 16 2 -0.9609 0.9450
26 16 3 6.5084 -0.4154
26 16 4 2.6093 -0.3310
26 16 5 0.7501 0.1125
26 16 6 3.9761 -0.3158
26 16 7 -4.1522 -0.9359
26 16 8 -1.0187 0.2377
26 16 9 -9.9103 -1.7185
26 16 10 1.0997 -0.2190
26 16 11 4.9533 0.3721
26 16 12 5.1798 -0.0905
26 16 13 -1.3077 0.5426
26 16 14 -12.0110 0.0963
26 17 1 10.0274 -4.0356
26 17 2 7.8379 -1.0345
26 17 3 -6.0655 1.5131
26 17 4 7.1320 -1.4561
26 17 5 6.7479 0.0193
26 17 6 -2.3979 0.3569
26 17 7 0.9831 -1.4949
26 17 8 -2.5971 0.1460
26 17 9 -2.6832 0.1771
26 17 10 -6.0038 -0.0031
26 17 11 -0.9297 0.7514
26 17 12 11.1217 0.1115
26 17 13 -7.1456 0.5783
26 17 14 -0.5767 -0.4042
26 18 0 -7.2970 4.1718
26 18 1 2.0528 1.7314
26 18 2 0.8379 -2.6862
26 18 3 2.1828 -0.5940
26 18 4 -4.7487 -0.1983
26 18 5 -5.1069 -0.8400
26 18 6 5.0291 0.8101
26 18 7 0.9913 0.4894
26 18 8 0.2623 0.3012
26 18 9 2.8080 0.4278
26 18 10 1.7842 0.3696
26 18 11 -4.3773 0.3115
26 18 12 12.9776 0.3378
26 18 13 1.6717 -0.3315
26 18 14 -4.1935 -0.5080
26 19 1 4.3284 1.6275
26 19 2 -0.4468 3.2692
26 19 3 -1.1140 0.6317
26 19 4 5.9124 0.8877
26 19 5 -1.4957 0.3655
26 19 6 -2.2918 -0.8533
26 19 7 -5.4640 0.5955
26 19 8 1.9552 0.0495
26 19 9 -3.7883 0.2582
26 19 10 2.1282 0.8961
26 19 11 -5.0925 0.0448
26 19 12 -1.0969 0.2459
26 19 13 7.9575 0.0405
26 19 14 -9.6696 0.1145
26 20 0 -1.2981 -14.6024
26 20 1 -1.6156 -1.1466
26 20 2 -3.3166 0.1786
26 20 3 1.0311 0.0026
26 20 4 3.7991 1.5044
26 20 5 1.9206 1.4032
26 20 6 3.3706 0.1259
26 20 7 -1.0733 0.2726
26 20 8 -6.3938 0.0654
26 20 9 -0.4139 -0.7801
26 20 10 -8.2068 -0.3366
26 20 11 -1.6393 -0.5639
26 20 12 4.6491 -0.2399
26 20 13 4.4327 0.1066
26 20 14 0.8983 0.0228
26 21 1 7.5077 -0.9882
26 21 2 1.1854 2.2251
26 21 3 -3.1882 0.5075
26 21 4 4.4668 -0.0907
26 21 5 2.1824 -0.0210
26 21 6 0.3383 -2.3321
26 21 7 6.9547 -1.2234
26 21 8 6.0719 -0.3321
26 21 9 7.6683 0.0706
26 21 10 -1.2045 0.1737
26 21 11 -4.7658 -0.3896
26 21 12 3.0803 0.1146
26 21 13 1.4437 -0.6613
26 21 14 8.4676 -0.7223
26 22 0 0.8111 4.1362
26 22 1 -5.8117 3.6287
26 22 2 2.8430 1.0079
26 22 3 2.1402 1.8094
26 22 4 -0.2105 -0.9961
26 22 5 2.3075 -0.4060
26 22 6 5.0128 0.1748
26 22 7 -8.3017 -0.5450
26 22 8 0.7446 -0.3655
26 22 9 13.5016 1.0038
26 22 10 2.4972 0.7043
26 22 11 4.5921 0.1694
26 22 12 -3.0614 -0.2891
26 22 13 -10.0488 0.1962
26 23 1 3.4865 1.8117
26 23 2 -1.0890 0.6952
26 23 3 -0.6201 -0.1538
26 23 4 1.7175 0.4454
26 23 5 -0.1343 -0.1876
26 23 6 1.0338 -0.7935
26 23 7 -1.1682 0.3753
26 23 8 -4.6859 -0.0056
26 23 9 -7.1458 0.8716
26 23 10 8.1317 0.7428
26 23 11 9.9207 0.3626
26 23 12 -2.3811 0.2565
26 23 13 5.3559 -1.6497
26 24 0 7.7223 -6.5317
26 24 1 -1.8904 -3.2276
26 24 2 3.5264 0.0112
26 24 3 2.9906 -0.3387
26 24 4 0.1342 -0.0937
26 24 5 4.7216 -1.1382
26 24 6 4.7331 0.2016
26 24 7 9.5221 -0.0747
26 24 8 -2.2920 0.8765
26 24 9 -1.4068 0.4225
26 24 10 -11.1174 0.1413
26 24 11 1.2950 0.0861
26 24 12 2.5691 0.6879
26 24 13 -0.5385 -0.4517
26 25 1 -2.5400 0.4881
26 25 2 0.3166 0.9163
26 25 3 -3.3808 -0.3506
26 25 4 0.0514 0.1115
26 25 5 1.0151 -0.4018
26 25 6 -1.0313 -1.0816
26 25 7 1.5455 -0.4841
26 25 8 15.8959 -0.4345
26 25 9 -3.6335 0.6307
26 25 10 -8.4816 -0.2010
26 25 11 -0.2274 -0.8683
26 25 12 -12.3525 0.0216
26 26 0 -6.5620 -3.2903
26 26 1 -6.2438 -0.3838
26 26 2 -2.4737 2.0886
26 26 3 -0.7622 0.9464
26 26 4 -2.2756 1.4219
26 26 5 -4.8600 -0.7810
26 26 6 -4.8763 -0.6110
26 26 7 -8.7464 -0.6465
26 26 8 5.6352 -0.4199
26 26 9 12.4865 0.8135
26 26 10 7.4322 -0.0538
26 26 11 5.6056 -0.2045
26 26 12 1.0012 -0.4379
26 27 1 -9.3213 0.3757
26 27 2 -1.6209 0.1983
26 27 3 0.9732 -1.0515
26 27 4 0.3113 -0.0055
26 27 5 3.8099 -0.4668
26 27 6 -7.6344 0.1846
26 27 7 -1.3459 1.1038
26 27 8 -4.2671 0.2463
26 27 9 -12.2333 0.9402
26 27 10 -2.8782 1.3709
26 27 11 8.8171 0.1287
26 28 0 3.1625 -5.6687
26 28 1 3.1579 2.6824
26 28 2 -1.1944 1.1266
26 28 3 0.7502 0.0013
26 28 4 -2.6891 0.4742
26 28 5 5.7203 -0.6762
26 28 6 0.7470 -0.8121
26 28 7 0.8117 0.0024
26 28 8 8.8163 -0.6109
26 28 9 -5.1325 -0.1095
26 28 10 -1.6869 -1.3842
26 28 11 -3.5153 0.1989
26 29 1 -1.3406 0.7073
26 29 2 2.0937 2.0183
26 29 3 -3.5769 0.3140
26 29 4 -3.2635 0.1293
26 29 5 -3.2502 -0.9316
26 29 6 -6.1263 -0.0944
26 29 7 5.1941 -0.4574
26 29 8 5.6178 -0.8813
26 29 9 1.5412 -0.4463
26 29 10 8.4030 -0.1349
26 30 0 -9.4790 1.3940
26 30 1 4.4213 4.2404
26 30 2 -0.0438 0.2981
26 30 3 -5.5560 0.9941
26 30 4 -3.3942 -1.4639
26 30 5 -9.2547 -1.1457
26 30 6 -2.5935 0.4987
26 30 7 1.6110 0.2816
26 30 8 -3.2225 0.7885
26 30 9 -5.9171 0.9153
26 31 1 -4.3131 2.3463
26 31 2 -6.2630 -1.1950
26 31 3 -1.5312 -0.9699
26 31 4 2.6565 0.2739
26 31 5 1.8105 -0.7578
26 31 6 -7.1647 0.3921
26 31 7 8.5008 1.7102
26 31 8 -0.0347 1.1913
26 32 0 -4.0269 -12.1905
26 32 1 8.6494 1.5897
26 32 2 -6.1521 0.6432
26 32 3 -7.4745 0.3199
26 32 4 -0.8932 0.3877
26 32 5 -0.8136 -0.7514
26 32 6 -4.7095 0.1595
26 32 7 -2.3736 0.2162
26 32 8 -5.8491 -0.3283
26 33 1 1.2081 -1.8536
26 33 2 3.5112 0.2890
26 33 3 -3.2741 0.1754
26 33 4 -2.4785 0.1557
26 33 5 1.6637 0.3428
26 33 6 -0.8123 -0.2677
26 33 7 0.7427 -1.5962
26 33 8 -11.0151 -0.2496
26 34 0 -4.0071 0.7348
26 34 1 1.2157 3.6415
26 34 2 -0.6803 0.1379
26 34 3 -0.8394 0.2563
26 34 4 3.0145 -0.4285
26 34 5 -2.3207 -1.3928
26 34 6 0.7787 0.6325
26 34 7 -0.1840 -1.2729
26 35 1 -5.9600 0.7420
26 35 2 2.7031 -0.5728
26 35 3 -8.8497 -0.3349
26 35 4 5.3934 -0.9167
26 35 5 0.3597 1.2212
26 36 0 4.1262 -3.6110
26 36 1 13.7784 0.8978
26 36 2 -8.1626 -0.0967
26 36 3 -1.1451 0.3154
26 36 4 -6.8384 -1.5010
26 37 1 1.6764 -2.1910
26 37 2 3.0436 0.4589
27 1 0 4.8972 0.5522
27 1 1 -3.7245 -6.9570
27 1 2 0.5959 0.8437
27 1 3 1.6168 1.2430
27 1 4 3.4472 -0.0004
27 1 5 -2.5467 1.7516
27 1 6 0.2654 -0.7192
27 1 7 0.2690 0.2936
27 1 8 6.5146 -0.4372
27 1 9 -1.4654 -1.3108
27 1 10 9.3360 -0.4700
27 1 11 -1.1757 -0.2868
27 1 12 -0.4545 -0.1090
27 1 13 3.7976 0.1636
27 1 14 0.8330 -0.0297
27 1 15 -5.7092 0.4688
27 1 16 -4.0573 -0.3389
27 2 1 2.5685 -3.8413
27 2 2 1.8841 2.1198
27 2 3 -0.5343 2.8408
27 2 4 5.3315 2.0755
27 2 5 2.5870 1.4735
27 2 6 2.1006 0.9036
27 2 7 -0.4833 -1.1477
27 2 8 2.2463 -0.7792
27 2 9 -3.8937 -0.3939
27 2 10 5.4615 -0.8484
27 2 11 5.7406 0.3323
27 2 12 -1.2562 -0.2145
27 2 13 8.6565 0.0487
27 2 14 -2.8922 0.0364
27 2 15 0.5521 0.0985
27 2 16 8.2961 -0.8439
27 3 0 -0.4849 15.0087
27 3 1 1.6208 -1.7703
27 3 2 2.8135 -0.7091
27 3 3 -0.6545 -0.8040
27 3 4 -4.6036 -2.2117
27 3 5 2.0428 -0.5426
27 3 6 5.4048 -1.1339
27 3 7 3.4546 -0.0788
27 3 8 0.0890 -0.4360
27 3 9 -4.2191 0.6145
27 3 10 4.8079 1.1675
27 3 11 9.2497 0.0978
27 3 12 -7.2677 0.5862
27 3 13 6.9652 -0.1692
27 3 14 4.9327 0.0254
27 3 15 -2.5995 0.2346
27 3 16 1.9916 -0.0409
27 4 1 -2.7548 -3.4176
27 4 2 7.5257 2.1106
27 4 3 -1.8234 -1.2609
27 4 4 -1.3330 0.8070
27 4 5 -9.1328 -0.5255
27 4 6 3.5888 -0.7355
27 4 7 -1.8868 0.2464
27 4 8 1.1951 -0.0049
27 4 9 -5.5245 -0.0657
27 4 10 -6.0092 0.8198
27 4 11 2.0359 0.1207
27 4 12 -0.2943 -0.6067
27 4 13 5.5512 0.2202
27 4 14 -20.2922 -0.3635
27 4 15 11.0076 0.1310
27 4 16 13.5046 0.6057
27 5 0 1.0277 5.7049
27 5 1 -3.3502 -5.0421
27 5 2 4.9038 1.6043
27 5 3 3.7145 0.0033
27 5 4 -0.0431 -0.6278
27 5 5 -0.7665 2.1180
27 5 6 -1.3364 -0.8989
27 5 7 -0.9612 0.8069
27 5 8 -1.7748 0.7895
27 5 9 -4.1655 -0.0347
27 5 10 4.8995 0.8171
27 5 11 -15.4320 -0.3462
27 5 12 -4.3862 -0.3743
27 5 13 7.6561 -0.3468
27 5 14 -3.3243 -0.3873
27 5 15 -8.7989 -0.0159
27 5 16 1.1495 -0.2740
27 6 1 -1.2588 0.1128
27 6 2 -1.2018 -4.1099
27 6 3 3.9706 1.7328
27 6 4 -0.0351 1.0027
27 6 5 -1.4733 -0.6778
27 6 6 -4.2897 0.9999
27 6 7 1.7989 -1.1827
27 6 8 -5.6443 0.0615
27 6 9 -3.5058 0.4020
27 6 11 5.3320 0.5149
27 6 12 -8.9208 -0.2116
27 6 13 -2.6396 -0.0831
27 6 14 -5.7251 -0.3192
27 6 15 -2.7488 -0.0996
27 6 16 -2.0671 -0.5608
27 7 0 -3.0070 12.5331
27 7 1 2.4727 -0.8527
27 7 2 -1.4791 1.7136
27 7 3 -4.4894 -2.9741
27 7 4 0.5383 -1.3852
27 7 5 11.4520 -0.3796
27 7 6 -0.5491 -0.2164
27 7 7 1.6478 1.1132
27 7 8 -1.8883 0.0623
27 7 9 -0.8825 0.3186
27 7 10 1.2177 0.5149
27 7 11 -5.2995 -0.7613
27 7 12 3.4326 0.1370
27 7 13 -4.3652 -1.0272
27 7 14 -1.3926 -0.3318
27 7 15 -3.1581 0.1947
27 7 16 -1.3851 -0.5581
27 8 1 -3.2222 -0.8379
27 8 2 6.9343 -0.1258
27 8 3 -1.0923 0.1954
27 8 4 0.8087 1.0281
27 8 5 -2.7450 0.2209
27 8 6 6.7441 -1.0359
27 8 7 4.8781 0.9010
27 8 8 -0.2742 -0.6456
27 8 9 -2.9081 -0.7702
27 8 10 1.4478 0.5478
27 8 11 12.5315 -0.0230
27 8 12 4.3102 0.5645
27 8 13 8.1286 0.0398
27 8 14 -5.1091 0.0488
27 8 15 4.6278 0.5041
27 8 16 -7.6707 0.2885
27 9 0 0.1380 16.0780
27 9 1 -3.0628 -4.5117
27 9 2 -1.7284 1.5285
27 9 3 1.0431 -1.7985
27 9 4 3.4966 -1.5439
27 9 5 -1.0132 0.4463
27 9 6 1.3286 -0.9188
27 9 7 1.1381 1.0280
27 9 8 7.2723 1.3835
27 9 9 2.5967 -0.4713
27 9 10 -5.6081 0.9565
27 9 11 0.2932 -0.3663
27 9 12 1.7384 0.4499
27 9 13 -1.8667 -0.6899
27 9 14 2.1007 -0.8411
27 9 15 -1.7864 0.1408
27 10 1 -3.9258 6.5382
27 10 2 -0.5481 -0.6576
27 10 3 0.8002 2.4578
27 10 4 1.8248 -0.4229
27 10 5 4.6573 -1.0962
27 10 6 -8.0864 -0.1664
27 10 7 -2.8497 -0.8219
27 10 8 -2.0384 -0.7273
27 10 9 6.2694 0.1374
27 10 10 -3.0340 -0.1812
27 10 11 5.8762 0.5300
27 10 12 1.2688 0.2071
27 10 13 -4.7205 0.5626
27 10 14 -7.0072 -0.3256
27 10 15 5.1331 -0.1891
27 11 0 -1.5280 7.1219
27 11 1 4.5688 -0.8381
27 11 2 -1.4374 1.0076
27 11 3 -3.8264 -3.3476
27 11 4 1.5588 0.0495
27 11 5 2.7767 -0.6967
27 11 6 0.7652 -1.6248
27 11 7 0.0885 0.8953
27 11 8 -7.7419 -0.1265
27 11 9 -3.9475 0.0730
27 11 10 -2.8380 0.7368
27 11 11 -0.9132 -0.2188
27 11 12 4.4612 0.4385
27 11 13 -6.4636 -0.6213
27 11 14 0.7268 0.3565
27 11 15 -9.8264 0.1675
27 12 1 2.2707 -0.8194
27 12 2 0.4270 0.1228
27 12 3 1.8561 -1.8650
27 12 4 -2.7144 -1.8446
27 12 5 -7.9818 -0.1832
27 12 6 3.7415 0.2407
27 12 7 -0.6001 0.8643
27 12 8 4.2007 0.6292
27 12 9 -3.5116 0.3576
27 12 10 -10.3446 0.3252
27 12 11 -2.2099 0.1324
27 12 12 -0.4224 -0.4031
27 12 13 4.8066 -0.5510
27 12 14 -4.0723 0.2236
27 12 15 2.4263 0.9236
27 13 0 -7.1526 3.1959
27 13 1 -6.5927 -3.1094
27 13 2 0.8081 -0.7817
27 13 3 3.3323 -1.0845
27 13 4 0.6467 0.0855
27 13 5 0.5166 1.9324
27 13 6 -0.5551 -0.8334
27 13 7 2.8700 1.3812
27 13 8 0.1229 0.0671
27 13 9 1.7913 0.0159
27 13 10 -11.8649 -0.4181
27 13 11 -4.0336 -0.5954
27 13 12 -1.5896 0.1087
27 13 13 1.3124 -0.6626
27 13 14 4.3550 -0.0666
27 14 1 -5.5062 3.5850
27 14 2 -1.1019 3.1228
27 14 3 2.4730 1.1444
27 14 4 -2.5665 -0.3262
27 14 5 -2.4043 0.7424
27 14 6 2.2866 0.0532
27 14 7 -0.8747 -0.5208
27 14 8 15.2003 -0.3334
27 14 9 7.2723 -0.3339
27 14 10 5.8933 -0.7831
27 14 11 -1.1866 -0.0421
27 14 12 7.0730 0.0439
27 14 13 14.6576 0.5258
27 14 14 3.9635 0.3768
27 15 0 3.0751 7.2020
27 15 1 -6.0896 -0.7630
27 15 2 4.4281 -0.4009
27 15 3 1.9041 0.1231
27 15 4 -1.1913 -0.6654
27 15 5 4.1472 0.3505
27 15 6 -2.0019 -0.6307
27 15 7 -2.6141 0.2927
27 15 8 -1.5955 -0.5914
27 15 9 0.1083 0.1421
27 15 10 0.0274 -0.2604
27 15 11 -1.4080 0.2867
27 15 12 -3.7112 0.0242
27 15 13 8.5729 0.7146
27 15 14 -5.1655 0.5667
27 16 1 -1.6566 2.2940
27 16 2 0.5224 0.0549
27 16 3 -2.9354 -1.1496
27 16 4 2.0833 -0.2955
27 16 5 -4.1044 -0.9190
27 16 6 3.2860 -0.1033
27 16 7 -0.9114 0.8951
27 16 8 0.7076 0.4452
27 16 9 -10.5359 0.8369
27 16 10 -10.3027 0.0222
27 16 11 -16.7425 0.0475
27 16 12 -4.9220 0.1972
27 16 13 0.7557 0.6386
27 16 14 6.1827 -0.2872
27 17 0 0.7767 -4.6042
27 17 1 4.0892 -4.7239
27 17 2 12.0182 -0.1385
27 17 3 -2.7485 0.9158
27 17 4 -7.6447 2.2812
27 17 5 -2.3273 0.9972
27 17 6 -1.5104 0.0944
27 17 7 1.3670 0.5349
27 17 8 9.8131 -0.2859
27 17 9 10.2004 -0.1476
27 17 10 1.5518 -0.2739
27 17 11 -12.0685 0.0332
27 17 12 -0.9394 -0.0847
27 17 13 -2.5646 0.1847
27 17 14 -1.5933 -0.4175
27 18 1 0.7489 -3.2711
27 18 2 4.4826 -0.7884
27 18 3 9.2370 -1.2345
27 18 4 -2.8938 -0.8937
27 18 5 -0.3573 0.7766
27 18 6 0.2360 0.3569
27 18 7 -0.2209 -0.7381
27 18 8 7.7802 0.4988
27 18 9 7.6405 0.3645
27 18 10 13.7639 -0.3199
27 18 11 -1.4819 -0.1361
27 18 12 -2.2603 -0.1200
27 18 13 8.0631 0.4831
27 18 14 1.6340 -0.0241
27 19 0 -3.4472 5.4985
27 19 1 -9.2916 -0.5478
27 19 2 5.0194 -0.4723
27 19 3 -0.6697 1.7666
27 19 4 -0.8369 0.2185
27 19 5 0.3022 0.3866
27 19 6 -3.3464 1.3868
27 19 7 -8.8771 -0.2396
27 19 8 2.8444 -1.0197
27 19 9 3.3051 0.0421
27 19 10 -1.0237 -0.3894
27 19 11 4.1337 0.5761
27 19 12 -9.1577 0.5399
27 19 13 4.4616 -0.1605
27 19 14 10.9026 1.2512
27 20 1 5.5808 1.2810
27 20 2 -2.9007 0.0103
27 20 3 -1.3018 -0.8365
27 20 4 -0.5176 0.2588
27 20 5 2.9096 -1.0663
27 20 6 -0.5854 -0.1108
27 20 7 0.0644 0.3163
27 20 8 3.0820 0.3134
27 20 9 0.2513 -0.0144
27 20 10 7.6873 0.5406
27 20 11 -6.3010 0.2025
27 20 12 -0.5711 -0.5273
27 20 13 0.4419 -0.0816
27 21 0 0.0330 -10.8710
27 21 1 7.7446 1.2772
27 21 2 9.7534 -0.7699
27 21 3 -2.6613 -0.8219
27 21 4 -1.6413 0.9750
27 21 5 -0.7443 0.9170
27 21 6 -0.2803 0.4320
27 21 7 -7.9363 -0.2600
27 21 8 2.7266 -0.5646
27 21 9 5.9175 -0.5363
27 21 10 7.0268 -0.0613
27 21 11 -2.4757 0.2442
27 21 12 1.2445 0.7172
27 21 13 -8.2248 0.2353
27 22 1 10.4843 -2.5215
27 22 2 2.0910 1.0623
27 22 3 13.5488 1.7752
27 22 4 -1.3913 0.4115
27 22 5 5.6055 1.3943
27 22 6 -2.2360 0.2067
27 22 7 6.5614 -0.5087
27 22 8 -7.0335 -0.2973
27 22 9 0.8774 -0.8353
27 22 10 10.0295 0.0438
27 22 11 4.7899 -0.2647
27 22 12 11.1689 0.3447
27 22 13 14.1277 0.2530
27 23 0 -9.6484 2.4211
27 23 1 -5.7456 2.2461
27 23 2 0.4817 -1.3006
27 23 3 -0.8457 1.6811
27 23 4 1.4856 -0.9495
27 23 5 2.8447 -0.3712
27 23 6 2.1422 0.0307
27 23 7 4.9150 -1.6196
27 23 8 4.7114 -0.9391
27 23 9 -0.8563 0.2312
27 23 10 -7.3102 0.6266
27 23 11 7.3527 0.8304
27 23 12 -7.8935 0.9267
27 24 1 3.1817 2.2124
27 24 2 -10.0657 -5.3621
27 24 3 1.2366 -0.1727
27 24 4 -4.3097 -0.6162
27 24 5 0.6253 -0.5971
27 24 6 -5.1077 0.7942
27 24 7 -8.5109 -0.2941
27 24 8 2.0473 0.4017
27 24 9 -7.9104 0.0048
27 24 10 -8.2290 0.6164
27 24 11 -9.6867 0.1907
27 24 12 2.3800 0.6260
27 25 0 -1.2928 -10.5258
27 25 1 -3.6520 0.2644
27 25 2 2.0726 -0.0494
27 25 3 0.4411 -0.0441
27 25 4 -1.8576 1.0324
27 25 5 3.3821 0.3700
27 25 6 6.0609 0.3717
27 25 7 -10.0379 -0.0005
27 25 8 3.7582 -0.4568
27 25 9 14.1485 0.1916
27 25 10 -4.6677 -0.9060
27 25 11 9.2459 0.1378
27 25 12 1.7927 -1.5106
27 26 1 2.4087 -1.4673
27 26 2 -0.2242 0.1634
27 26 3 -1.3178 1.5910
27 26 4 -7.6915 0.2138
27 26 5 6.6696 1.7429
27 26 6 -0.9971 -0.2952
27 26 7 -1.2087 -0.3566
27 26 8 -1.4990 0.2335
27 26 9 -3.6703 -0.6627
27 26 10 -1.1666 -0.1516
27 26 11 -0.3557 -0.5844
27 27 0 3.0298 2.4681
27 27 1 -9.1519 -0.9780
27 27 2 3.6213 1.1466
27 27 3 6.0637 1.2953
27 27 4 -6.7237 -0.2204
27 27 5 0.7951 0.1930
27 27 6 0.1784 -0.6672
27 27 7 -6.0373 -0.1017
27 27 8 12.6498 0.2620
27 27 9 1.1957 -0.2376
27 27 10 -6.5357 0.5930
27 27 11 -0.4610 0.6841
27 28 1 -3.3464 -1.1655
27 28 2 -3.6857 -1.7747
27 28 3 -0.0205 2.6777
27 28 4 4.5661 0.6432
27 28 5 1.3871 0.2888
27 28 6 0.9292 -0.0335
27 28 7 -5.6896 -0.6268
27 28 8 10.2352 0.3650
27 28 9 7.0136 0.0329
27 28 10 8.0407 -0.0283
27 29 0 12.7196 1.7824
27 29 1 -0.4426 -0.7271
27 29 2 -2.7419 -0.4123
27 29 3 -4.7752 0.1315
27 29 4 -4.5132 -0.0250
27 29 5 -2.9955 -0.0597
27 29 6 1.6234 -0.4071
27 29 7 -5.3572 -0.1852
27 29 8 -0.7084 0.9628
27 29 9 -6.9240 -0.2639
27 30 1 4.9996 -1.3062
27 30 2 -3.5587 -1.5684
27 30 3 -3.6587 0.7912
27 30 4 -6.6897 0.4213
27 30 5 1.5235 -0.3596
27 30 6 -8.2383 -0.6515
27 30 7 1.1318 -0.8069
27 30 8 -2.9275 -1.2120
27 30 9 -8.5932 -0.1008
27 31 0 -1.4929 1.8967
27 31 1 -0.9723 0.6726
27 31 2 5.2789 0.4096
27 31 3 2.7351 -0.5288
27 31 4 -1.4109 -0.2515
27 31 5 -3.2184 0.2215
27 31 6 -0.9792 0.2164
27 31 7 1.7251 0.1211
27 31 8 3.7862 0.2052
27 32 1 2.0257 -0.6764
27 32 2 3.8495 -0.3617
27 32 3 0.8343 0.9939
27 32 4 3.5536 0.1780
27 32 5 4.8956 -0.4018
27 32 6 -0.8334 -1.1350
27 32 7 6.1497 0.8933
27 32 8 -2.3925 -0.7198
27 33 0 0.5963 0.3781
27 33 1 -9.7944 -0.8141
27 33 2 -4.6860 0.5114
27 33 3 -1.4167 -1.5585
27 33 4 -4.3315 0.4848
27 33 5 -15.9136 -0.9881
27 33 6 -0.4868 0.4700
27 33 7 5.8634 -2.0631
27 34 1 6.6729 1.3374
27 34 2 -0.8737 0.5460
27 34 3 1.4913 3.1134
27 34 4 1.0685 0.5417
27 34 5 -1.2822 2.1556
27 35 0 5.3670 3.6359
27 35 1 -2.3944 -1.7541
27 35 2 -2.0875 -0.4221
27 35 3 7.0144 -1.4992
27 35 4 0.4343 0.6372
27 36 1 2.3049 1.6259
27 36 2 -9.6979 -1.2961
27 36 3 -5.8437 -1.1895
28 1 1 4.0334 -0.4117
28 1 2 -3.7618 -0.2617
28 1 3 4.6169 -0.0798
28 1 4 5.5249 1.2952
28 1 5 1.2967 0.4289
28 1 6 -3.8738 0.1097
28 1 7 2.1132 1.3451
28 1 8 5.2530 -0.7845
28 1 9 -3.6264 -0.0812
28 1 10 1.5435 -0.1666
28 1 11 0.9634 -0.1730
28 1 12 -3.4920 0.6187
28 1 13 0.7263 0.0588
28 1 14 -1.4144 -0.0154
28 1 15 -5.0507 1.1558
28 2 0 6.4412 11.0372
28 2 1 0.8002 -3.3649
28 2 2 -1.7997 -1.1287
28 2 3 1.5781 1.0112
28 2 4 4.1759 -0.7039
28 2 5 0.7721 0.5806
28 2 6 0.4460 0.4931
28 2 7 -1.4216 -0.9251
28 2 8 3.5684 0.7800
28 2 9 -1.4408 -0.5479
28 2 10 -1.9665 0.0676
28 2 11 3.9972 0.2297
28 2 12 11.5336 0.3800
28 2 13 10.4790 0.7475
28 2 14 6.0674 -0.1727
28 2 15 -9.1366 0.2410
28 3 1 1.0128 1.5687
28 3 2 0.6614 1.9280
28 3 3 4.3484 -1.1854
28 3 4 -0.2376 0.0962
28 3 5 -4.2136 -1.1706
28 3 6 1.6424 -0.6875
28 3 7 -6.7129 -0.3408
28 3 8 2.8601 -0.9952
28 3 9 -10.0555 0.6684
28 3 10 -10.1252 0.4011
28 3 11 -3.7173 0.7290
28 3 12 1.0251 0.2338
28 3 13 -7.7821 0.0401
28 3 14 14.2491 0.4137
28 3 15 9.7693 -0.3113
28 4 0 5.8412 4.8411
28 4 1 -8.5195 1.9686
28 4 2 2.6615 -2.2678
28 4 3 2.7818 -0.3951
28 4 4 10.5543 -0.8333
28 4 5 2.7596 -0.7090
28 4 6 3.1138 0.7371
28 4 7 3.0512 -0.1227
28 4 8 0.7688 -0.2399
28 4 9 -4.7974 -1.0357
28 4 10 -11.8196 0.0945
28 4 11 -12.5324 0.2901
28 4 12 -0.7039 0.0660
28 4 13 -2.6584 -0.0492
28 4 14 -1.5482 0.0625
28 4 15 0.4058 -0.2873
28 4 16 14.3647 -0.6559
28 5 1 -4.1415 -0.8696
28 5 2 -3.7580 2.2445
28 5 3 -0.7396 -2.4063
28 5 4 -9.2411 0.9871
28 5 5 0.6421 -1.9585
28 5 6 1.1124 -0.3417
28 5 7 5.0937 1.0196
28 5 8 5.8081 -1.2531
28 5 9 -3.5981 1.1052
28 5 10 4.8936 0.0783
28 5 11 -5.0774 0.6886
28 5 12 -5.6090 0.8726
28 5 13 -6.9927 -0.2003
28 5 14 5.3176 0.0934
28 5 15 -14.4731 0.1505
28 5 16 16.2377 -1.1440
28 6 0 6.9757 0.7497
28 6 1 -3.4855 4.6046
28 6 2 -3.5415 -1.0556
28 6 3 -0.4489 -0.8472
28 6 4 1.3593 0.5333
28 6 5 1.4128 1.4408
28 6 6 -3.3569 0.7486
28 6 7 0.4087 0.4732
28 6 8 4.8732 0.5038
28 6 9 -0.7033 -1.4235
28 6 10 -1.4882 -0.4380
28 6 11 0.9819 -0.2481
28 6 12 7.2741 0.0049
28 6 13 -6.3590 0.6373
28 6 14 -2.0243 -0.0746
28 6 15 -7.9958 0.2951
28 7 1 -1.2223 3.2514
28 7 2 5.6277 6.4728
28 7 3 -3.5128 0.0399
28 7 4 0.9998 1.3218
28 7 5 3.1248 -1.1710
28 7 6 8.0834 -0.5799
28 7 7 -2.2821 -0.3328
28 7 8 -0.4182 -0.9136
28 7 9 -3.5819 0.6446
28 7 10 12.1156 -0.6654
28 7 11 -2.5435 0.0469
28 7 12 6.2348 0.0129
28 7 13 0.4373 -0.3266
28 7 14 2.5598 0.2763
28 7 15 -4.8894 -1.0571
28 8 0 6.3142 -13.8479
28 8 1 -2.2779 0.6530
28 8 2 2.8471 -2.9242
28 8 3 -0.5066 0.0953
28 8 4 2.4930 0.9800
28 8 5 -4.1352 -0.1771
28 8 6 5.9690 0.3088
28 8 7 2.8030 -0.4364
28 8 8 -1.8108 -0.5981
28 8 9 -0.3900 -0.6929
28 8 10 -5.2385 0.1761
28 8 11 1.1669 -0.2520
28 8 12 10.8991 0.4583
28 8 13 0.5337 0.3643
28 8 14 -12.9230 0.4618
28 8 15 -3.0430 0.3395
28 9 1 -1.5749 0.9048
28 9 2 1.1262 2.4536
28 9 3 4.6384 -1.1153
28 9 4 -2.3853 1.5931
28 9 5 1.2599 -1.0301
28 9 6 -2.0746 -1.5445
28 9 7 -1.8636 -0.2555
28 9 8 -1.9613 -1.3581
28 9 9 4.9293 0.8227
28 9 10 -2.1236 -0.2408
28 9 11 -10.5434 0.5600
28 9 12 2.6297 1.0858
28 9 13 -6.3061 -0.2558
28 9 14 6.5156 0.5189
28 9 15 -2.8948 0.1527
28 10 0 3.2347 1.8379
28 10 1 -6.6512 3.2709
28 10 2 1.0368 0.8969
28 10 3 1.5191 0.6170
28 10 4 1.5028 0.5495
28 10 5 3.4226 0.2686
28 10 6 -2.8048 0.6197
28 10 7 -2.7899 -0.5696
28 10 8 -10.2556 0.7934
28 10 9 6.3768 -0.2744
28 10 10 0.4718 0.3141
28 10 11 -6.7657 0.1394
28 10 12 4.3675 -0.0375
28 10 13 0.7689 0.1195
28 10 14 -10.6966 -0.5797
28 10 15 7.4769 0.1462
28 11 1 -3.2149 0.8622
28 11 2 -1.6876 2.2958
28 11 3 -2.0478 -2.2938
28 11 4 1.2689 -0.1435
28 11 5 -1.7182 0.2437
28 11 6 3.3267 -0.5090
28 11 7 1.8468 0.4528
28 11 8 3.7378 -0.0520
28 11 9 -1.1589 0.7991
28 11 10 5.5350 0.2492
28 11 11 -1.8705 0.1177
28 11 12 2.6956 -0.0979
28 11 13 6.0378 -0.6938
28 11 14 -4.9428 -0.2163
28 11 15 5.9423 -0.6305
28 12 0 0.7831 -9.4090
28 12 1 -5.9811 -2.4129
28 12 2 0.5038 1.2014
28 12 3 -1.1477 -0.7167
28 12 4 2.4322 0.8223
28 12 5 0.7227 -1.4777
28 12 6 -3.2212 0.2600
28 12 7 -4.8767 -0.6341
28 12 8 -3.8375 -0.2030
28 12 9 7.3089 -0.2716
28 12 10 -3.2668 -0.3141
28 12 11 -8.9278 0.1218
28 12 12 -7.1763 -0.3105
28 12 13 -3.8977 -0.1258
28 12 14 -0.3420 0.4002
28 13 1 -1.5282 -2.7402
28 13 2 -4.3268 -0.3396
28 13 3 -0.2024 -0.1617
28 13 4 0.3810 -0.3258
28 13 5 -3.1043 0.3945
28 13 6 -2.1045 0.9374
28 13 7 -0.5372 -0.0989
28 13 8 -7.0221 -0.2496
28 13 9 -2.3777 0.6102
28 13 10 4.2990 -0.3514
28 13 11 1.4767 0.3832
28 13 12 -4.8749 0.6429
28 13 13 -0.0272 -0.7514
28 13 14 -5.2083 1.2522
28 14 0 5.2888 1.0415
28 14 1 -7.2621 -0.8172
28 14 2 1.1650 -0.3854
28 14 3 0.5871 0.2690
28 14 4 3.8699 1.0447
28 14 5 -7.3216 0.1526
28 14 6 -3.9769 0.4096
28 14 7 2.6484 0.5682
28 14 8 -5.8906 -0.3430
28 14 9 7.8107 1.2124
28 14 10 2.4537 -0.1582
28 14 11 1.9338 -0.2588
28 14 12 3.5776 -0.0523
28 14 13 -2.8748 -0.5774
28 14 14 -11.9506 0.3575
28 15 1 -0.1028 0.0246
28 15 2 -3.0765 0.5889
28 15 3 7.9728 -2.2436
28 15 4 7.8507 0.4260
28 15 5 2.1722 0.1013
28 15 6 -1.2940 0.6282
28 15 7 -5.0517 0.0762
28 15 8 -4.4640 -0.4503
28 15 9 4.2345 -0.1859
28 15 10 -1.9788 0.3020
28 15 11 2.6452 -0.4998
28 15 12 0.6779 -0.0372
28 15 13 11.0186 -0.4581
28 15 14 2.7534 0.4085
28 16 0 2.9982 -1.0311
28 16 1 -3.7479 1.3981
28 16 2 2.2441 2.6185
28 16 3 2.5087 1.0837
28 16 4 2.9379 -0.5170
28 16 5 1.7595 0.4201
28 16 6 1.2924 -1.3731
28 16 7 4.3059 -0.4997
28 16 8 -2.0320 -0.9234
28 16 9 0.5731 -0.5598
28 16 10 3.3764 0.4526
28 16 11 3.1561 0.4943
28 16 12 -5.8594 -0.3364
28 16 13 -0.7826 0.6276
28 16 14 -0.1278 0.4446
28 17 1 -1.0766 -2.7352
28 17 2 -1.2149 -2.6035
28 17 3 6.1707 -1.1498
28 17 4 1.0608 -0.7929
28 17 5 -3.6822 -0.3533
28 17 6 2.2209 1.0343
28 17 7 -2.3924 0.2898
28 17 8 -1.0938 0.9706
28 17 9 -1.9826 0.1283
28 17 10 -3.4238 -0.7655
28 17 11 0.4032 0.5924
28 17 12 -1.3788 -0.0192
28 17 13 -5.8914 0.3385
28 17 14 -5.5451 0.8698
28 18 0 -6.5672 7.2135
28 18 1 -7.0122 0.0620
28 18 2 1.6876 0.2192
28 18 3 8.9027 -0.3319
28 18 4 -1.2588 -0.4207
28 18 5 0.6776 -0.5611
28 18 6 -6.0745 0.2652
28 18 7 -0.2386 1.1718
28 18 8 1.8078 -0.1014
28 18 9 4.8927 1.4130
28 18 10 -12.1870 0.0664
28 18 11 6.3655 -0.1459
28 18 12 -3.1875 0.1106
28 18 13 3.5841 -0.8319
28 18 14 -6.8996 0.7470
28 19 1 -8.7980 2.2503
28 19 2 -0.0222 0.7687
28 19 3 0.4395 -0.4294
28 19 4 1.3173 1.1714
28 19 5 3.1347 0.6754
28 19 6 1.8532 0.9296
28 19 7 2.0672 1.3239
28 19 8 -7.3477 0.3106
28 19 9 14.2509 -0.7812
28 19 10 8.8815 -1.0846
28 19 11 3.5050 -1.1190
28 19 12 8.4582 -0.9810
28 19 13 6.6013 0.3144
28 20 0 5.1439 -1.8934
28 20 1 2.2022 -5.7455
28 20 2 -3.5234 1.0044
28 20 3 1.9206 0.1464
28 20 4 1.4893 -0.6628
28 20 5 -9.8607 0.3527
28 20 6 1.0633 -0.2049
28 20 7 -0.2463 0.2965
28 20 8 -1.1131 0.1922
28 20 9 -7.4048 -0.3060
28 20 10 -12.7189 -0.0739
28 20 11 0.2516 0.0129
28 20 12 -9.5403 0.1004
28 20 13 0.7665 0.5329
28 21 1 11.5863 -2.1252
28 21 2 3.0560 -2.2749
28 21 3 -1.9664 0.0759
28 21 4 5.9932 -0.0108
28 21 5 1.5121 0.0460
28 21 6 -3.1958 0.3836
28 21 7 -1.4614 -0.2687
28 21 8 0.5514 0.1816
28 21 9 5.8152 -0.3317
28 21 10 7.6323 -0.6686
28 21 11 -6.3321 0.9388
28 21 12 -0.9496 0.2468
28 21 13 -5.5013 1.6417
28 22 0 -16.3805 10.1488
28 22 1 0.6081 1.8537
28 22 2 5.6915 1.4899
28 22 3 1.7338 0.0983
28 22 4 1.6099 -1.2572
28 22 5 7.3294 0.7465
28 22 6 1.2332 -0.5705
28 22 7 10.9356 0.0779
28 22 8 2.0627 0.5448
28 22 9 -1.0372 0.3344
28 22 10 -1.7905 0.5881
28 22 11 11.1724 -0.1237
28 22 12 0.3554 0.6260
28 23 1 -7.8262 -0.7185
28 23 2 -2.4327 -1.0314
28 23 3 0.4745 -0.6896
28 23 4 -3.5097 -0.3693
28 23 5 -9.1852 -0.2287
28 23 6 0.3414 0.8849
28 23 7 -2.5850 0.5951
28 23 8 0.9010 0.2726
28 23 9 5.3711 0.0156
28 23 10 -15.8285 0.4060
28 23 11 -6.5152 0.3423
28 23 12 1.6600 -0.8784
28 24 0 -3.5198 -1.2736
28 24 1 1.0026 -2.6824
28 24 2 -3.1946 -1.6370
28 24 3 6.0170 -1.5156
28 24 4 6.1362 -1.5993
28 24 5 -3.4200 0.1113
28 24 6 -0.2305 -0.7830
28 24 7 -5.5070 0.9922
28 24 8 2.6479 -0.1696
28 24 9 10.0802 -0.5051
28 24 10 6.3221 0.0255
28 24 11 3.0637 0.0979
28 24 12 -0.1805 -0.2647
28 25 1 3.3604 -0.6091
28 25 2 -0.7806 -0.9877
28 25 3 1.5415 1.4898
28 25 4 5.0040 -0.2107
28 25 5 2.6014 0.1089
28 25 6 10.6080 0.3927
28 25 7 5.3676 -0.2044
28 25 8 -4.9406 0.1268
28 25 9 4.6598 0.3311
28 25 10 4.8869 -1.7745
28 25 11 4.0530 -0.0078
28 26 0 -6.5831 10.5795
28 26 1 -5.3453 -1.2410
28 26 2 -2.2972 -0.7511
28 26 3 0.3570 0.2299
28 26 4 -10.3224 -0.1991
28 26 5 -0.8843 1.6004
28 26 6 4.2403 0.3856
28 26 7 1.6632 0.3312
28 26 8 0.8313 0.7496
28 26 9 2.2337 0.3304
28 26 10 1.0432 1.0938
28 27 1 2.5091 2.2705
28 27 2 -6.6479 -0.9693
28 27 3 -1.5456 0.1422
28 27 4 -6.9923 0.1484
28 27 5 -10.5844 0.2728
28 27 6 3.9448 -0.2207
28 27 7 -1.9426 -0.2082
28 27 8 -5.4026 -0.0647
28 27 9 0.9984 0.3923
28 27 10 -6.8057 -0.1900
28 28 0 -4.4070 5.0867
28 28 1 5.9144 -3.0293
28 28 2 5.8696 -0.4480
28 28 3 3.3635 -1.0456
28 28 4 -4.7992 0.2636
28 28 5 1.8465 1.1373
28 28 6 0.3169 -0.2668
28 28 7 0.1237 -0.3558
28 28 8 -6.4381 -0.0336
28 28 9 4.3736 -0.8464
28 29 1 -4.5772 0.0628
28 29 2 -4.2040 0.3183
28 29 3 1.3519 0.0282
28 29 4 -0.4322 -0.3239
28 29 5 1.0515 0.7042
28 29 6 1.8163 -0.9137
28 29 7 1.9056 -0.2247
28 29 8 -4.3578 -1.0850
28 29 9 -8.9718 -0.4472
28 30 0 -8.1186 12.2561
28 30 1 -3.5709 -1.7239
28 30 2 -1.6694 -0.9127
28 30 3 -6.5228 -1.1596
28 30 4 -8.3780 -0.2096
28 30 5 6.9146 -0.3422
28 30 6 -1.9547 0.4112
28 30 7 -1.0153 0.2048
28 30 8 5.0115 0.0358
28 30 9 -3.6185 -0.0000
28 31 1 -1.7752 4.2912
28 31 2 5.0292 0.4842
28 31 3 -5.0851 -0.5595
28 31 4 -2.3994 0.1469
28 31 5 5.8142 -0.9163
28 31 6 -4.4516 0.5784
28 31 7 4.7987 1.7422
28 31 8 -1.1505 0.2885
28 32 0 -8.8488 -6.7042
28 32 1 2.4602 -4.2403
28 32 2 6.1403 -0.2275
28 32 3 -4.3298 -0.8762
28 32 4 -6.2263 0.2972
28 32 5 1.5021 1.4548
28 32 6 -1.7995 0.1324
28 32 7 -0.2398 0.2096
28 33 1 -1.7033 -2.0893
28 33 2 -4.0011 1.5792
28 33 3 -5.3680 -0.0315
28 33 4 -4.8546 -0.3519
28 33 5 5.4070 -0.7579
28 33 6 -3.6976 -1.0658
28 34 0 -1.0113 6.5283
28 34 1 4.8575 1.8908
28 34 2 4.7698 0.0256
28 34 3 -5.1952 0.6638
28 34 4 -13.0526 -0.3719
28 35 1 0.4158 1.1296
28 35 2 -1.6097 1.2330
28 35 3 5.2001 -0.9572
28 36 0 2.3007 -4.2537
28 36 1 5.9262 -0.7480
29 1 0 1.7498 -19.9922
29 1 1 6.8160 2.1216
29 1 2 -0.7592 -0.0802
29 1 3 -0.0438 0.4753
29 1 4 2.9401 1.8967
29 1 5 3.4253 0.1940
29 1 6 -0.1941 -0.1537
29 1 7 -6.2743 -0.2780
29 1 8 -0.4249 -0.2926
29 1 9 4.1157 0.0134
29 1 10 -1.3961 -1.0426
29 1 11 4.1473 0.2692
29 1 12 -5.4929 -0.7473
29 1 13 10.0111 -0.4119
29 1 14 10.7003 0.6973
29 1 15 -0.2690 0.2036
29 2 1 7.4057 2.3315
29 2 2 -1.9489 0.1308
29 2 3 -0.5231 2.8018
29 2 4 -0.9363 -0.1300
29 2 5 0.0892 1.3787
29 2 6 3.7900 -0.0970
29 2 7 -3.5866 0.1423
29 2 8 1.2474 0.4876
29 2 9 4.4370 -0.5745
29 2 10 -5.8088 -0.1551
29 2 11 -5.4596 -0.2768
29 2 12 -8.1341 0.6412
29 2 13 -2.4909 0.3220
29 2 14 1.7334 0.3436
29 2 15 12.6740 -0.4832
29 3 0 -2.8554 -2.5448
29 3 1 -1.1800 7.4744
29 3 2 -0.6670 -0.4817
29 3 3 0.6884 1.1079
29 3 4 1.0142 0.5437
29 3 5 1.0481 -1.8215
29 3 6 2.1214 -0.3706
29 3 7 5.2453 -1.1419
29 3 8 -3.8017 0.1679
29 3 9 9.4093 0.4686
29 3 10 -0.0115 -0.4359
29 3 11 3.7411 0.6991
29 3 12 1.4300 0.0911
29 3 13 1.4053 0.4707
29 3 14 -4.2690 0.3963
29 3 15 3.4386 -1.1812
29 4 1 3.2479 3.4108
29 4 2 -6.2879 -1.9800
29 4 3 1.6779 -0.6393
29 4 4 -4.7425 -2.1998
29 4 5 -2.5423 -0.4453
29 4 6 -3.6793 0.0000
29 4 7 5.4849 0.8774
29 4 8 1.1334 0.4089
29 4 9 -2.8489 -0.1085
29 4 10 -2.8367 -0.4502
29 4 11 -4.4376 -0.8059
29 4 12 6.7116 -0.3259
29 4 13 7.6063 -0.1850
29 4 14 -8.1952 0.1350
29 4 15 -8.6574 0.0891
29 5 0 12.1110 -15.2088
29 5 1 1.5963 -3.8792
29 5 2 -2.4427 -0.7488
29 5 3 2.9355 3.3343
29 5 4 -3.0018 2.0221
29 5 5 2.9653 0.2457
29 5 6 -0.2588 1.7154
29 5 7 4.9091 -0.1963
29 5 8 -2.9849 1.0273
29 5 9 0.5434 -0.1849
29 5 10 -4.4111 -1.2356
29 5 11 -5.1508 0.4333
29 5 12 -4.8180 -0.7321
29 5 13 -2.7860 0.0301
29 5 14 0.9237 0.8789
29 5 15 -17.0185 -0.1571
29 6 1 3.9136 0.6835
29 6 2 4.6811 -1.5716
29 6 3 2.4042 0.0322
29 6 4 4.1633 -0.6360
29 6 5 -6.0807 -0.1533
29 6 6 2.5696 0.7568
29 6 7 0.8223 -0.0752
29 6 8 -0.0762 0.9247
29 6 9 -4.6659 0.4020
29 6 10 -8.6429 -0.3552
29 6 11 -5.0501 0.1787
29 6 12 -0.3199 -0.0992
29 6 13 12.9737 -0.1354
29 6 14 -7.7680 0.2839
29 6 15 8.3891 0.5141
29 7 0 2.0428 -17.8883
29 7 1 -2.3334 6.6002
29 7 2 -5.6454 -0.0220
29 7 3 -0.8135 -0.3297
29 7 4 0.3124 3.0848
29 7 5 -2.3934 -0.7032
29 7 6 -2.3963 0.6338
29 7 7 0.7959 -0.6128
29 7 8 -2.8810 -0.7745
29 7 9 -2.0879 -0.4790
29 7 10 4.7118 -0.3214
29 7 11 5.5712 0.1577
29 7 12 -4.7087 0.0952
29 7 13 3.3751 0.6382
29 7 14 5.9102 0.3644
29 7 15 2.9344 -0.7125
29 8 1 -2.0189 -4.1633
29 8 2 0.7323 2.1300
29 8 3 1.9653 -0.9996
29 8 4 -2.6990 -0.9954
29 8 5 0.1055 0.2468
29 8 6 0.0279 0.0925
29 8 7 3.4877 0.2421
29 8 8 -1.6336 0.0521
29 8 9 -2.0899 -0.5763
29 8 10 -4.0795 0.3739
29 8 11 5.4897 -0.7522
29 8 12 4.4904 0.0788
29 8 13 -6.9476 -0.0776
29 8 14 -10.4654 0.2258
29 8 15 -4.4816 0.2077
29 9 0 4.6492 -1.2713
29 9 1 -1.2593 3.1837
29 9 2 -2.2441 -2.6717
29 9 3 9.4343 2.0925
29 9 4 3.0285 -2.0912
29 9 5 3.5220 -0.2770
29 9 6 3.3658 0.5883
29 9 7 3.6200 -1.2678
29 9 8 -0.6460 0.2249
29 9 9 -3.6381 -0.7578
29 9 10 1.3971 -0.6592
29 9 11 -4.8132 0.8617
29 9 12 6.9174 -0.2614
29 9 13 0.2885 1.0169
29 9 14 -7.3480 -0.0545
29 10 1 -2.4715 5.0587
29 10 2 -5.7005 -0.3173
29 10 3 1.4695 1.4809
29 10 4 6.0802 0.1991
29 10 5 -2.1715 -0.9426
29 10 6 3.8671 0.5781
29 10 7 8.6644 -0.5135
29 10 8 -6.3507 0.8498
29 10 9 -7.2555 0.1232
29 10 10 2.9209 -0.1768
29 10 11 -1.0178 0.1874
29 10 12 4.2564 0.0194
29 10 13 17.0997 0.3313
29 10 14 -2.5867 -0.1989
29 11 0 0.0745 -8.5952
29 11 1 3.0865 5.2167
29 11 2 -7.3730 -0.8702
29 11 3 -3.9018 0.0852
29 11 4 -1.2303 0.2299
29 11 5 -3.5657 -0.5862
29 11 6 0.9724 0.1006
29 11 7 -2.8636 -0.5003
29 11 8 7.3778 0.1724
29 11 9 -6.6504 0.0482
29 11 10 -5.6869 0.0343
29 11 11 -6.4572 0.1465
29 11 12 -16.2446 -0.1730
29 11 13 4.0660 0.4384
29 11 14 -1.0598 0.2098
29 12 1 -3.7014 -3.7755
29 12 2 -0.3466 -1.4497
29 12 3 3.2176 -2.6955
29 12 4 -5.2074 -0.5287
29 12 5 2.8851 1.0260
29 12 6 -8.0613 0.6194
29 12 7 -4.0838 0.8323
29 12 8 -7.3204 0.3473
29 12 9 -4.3478 0.0334
29 12 10 6.5966 -0.1154
29 12 11 8.9884 -0.4657
29 12 12 0.2469 -0.2944
29 12 13 2.3679 -0.6779
29 12 14 5.7446 -0.1497
29 13 0 -4.3562 0.0436
29 13 1 -4.1644 -3.6051
29 13 2 -4.3619 -0.4922
29 13 3 -5.7489 1.2370
29 13 4 5.3522 -0.6719
29 13 5 4.7376 0.0538
29 13 6 5.6556 0.3315
29 13 7 3.1477 0.1971
29 13 8 -2.4049 0.2569
29 13 9 -8.9621 -0.7246
29 13 10 -5.8077 0.0045
29 13 11 1.8853 -0.1494
29 13 12 0.4587 0.0202
29 13 13 -7.2753 -0.2582
29 13 14 9.9664 -0.0121
29 14 1 -1.3515 0.4031
29 14 2 -9.3853 1.1838
29 14 3 0.5402 1.0942
29 14 4 -1.0949 0.8858
29 14 5 -1.6732 1.4232
29 14 6 -0.3702 -0.2159
29 14 7 6.6614 -0.3976
29 14 8 -0.3252 -0.6116
29 14 9 1.2929 -0.7325
29 14 10 -5.6849 -0.3405
29 14 11 -2.3713 0.4826
29 14 12 0.7944 0.5385
29 14 13 -1.3566 0.0804
29 14 14 -14.7236 0.0367
29 15 0 0.5292 7.7748
29 15 1 4.7575 3.2110
29 15 2 -1.9179 1.0237
29 15 3 -2.9084 0.0736
29 15 4 0.0524 -1.0364
29 15 5 -1.2741 -1.2160
29 15 6 -3.4102 0.1859
29 15 7 -1.1048 0.5123
29 15 8 1.2419 0.7088
29 15 9 3.7213 1.0156
29 15 10 6.8290 0.4426
29 15 11 -4.1115 0.0533
29 15 12 -3.7900 0.2503
29 15 13 5.0401 0.1970
29 16 1 -1.4923 -1.6981
29 16 2 -5.4157 1.3926
29 16 3 4.3037 -0.5590
29 16 4 1.8120 0.3966
29 16 5 3.2466 -0.6825
29 16 6 0.4622 -0.3538
29 16 7 1.9287 0.3764
29 16 8 -0.4556 -0.6424
29 16 9 0.2140 0.0784
29 16 10 1.8412 0.6483
29 16 11 9.6210 -0.1939
29 16 12 -1.0283 0.1339
29 16 13 -10.1074 -0.2627
29 17 0 5.5333 4.5765
29 17 1 3.7532 -3.6790
29 17 2 3.9129 0.0152
29 17 3 -3.2261 -0.3641
29 17 4 1.1533 -2.1612
29 17 5 1.9230 0.3837
29 17 6 -7.4465 -1.0286
29 17 7 0.7687 1.1322
29 17 8 0.2549 1.2898
29 17 9 -7.3308 0.3767
29 17 10 -10.0153 -0.0827
29 17 11 -4.9198 -0.4470
29 17 12 -0.3427 -1.7707
29 17 13 -3.1942 0.0014
29 18 1 -4.1939 -3.7654
29 18 2 7.3659 0.3393
29 18 3 2.2188 -0.3298
29 18 4 2.4139 1.2488
29 18 5 0.0104 0.0608
29 18 6 3.8937 -0.6180
29 18 7 -9.2751 -0.1878
29 18 8 3.7049 -0.1471
29 18 9 15.9882 0.4171
29 18 10 -1.1227 -0.1570
29 18 11 -2.0560 0.2875
29 18 12 2.6334 0.1411
29 18 13 1.2107 -0.3077
29 19 0 1.6560 8.6767
29 19 1 -3.6946 1.6977
29 19 2 -1.2244 0.3298
29 19 3 1.1949 -0.5363
29 19 4 -5.3685 -0.2783
29 19 5 -4.7896 -0.0911
29 19 6 4.3227 0.4523
29 19 7 -3.0497 -0.2359
29 19 8 -4.7242 0.4403
29 19 9 -6.7852 1.0875
29 19 10 16.8076 0.2627
29 19 11 -1.0255 -0.2033
29 19 12 5.5938 -0.4151
29 19 13 -5.7321 0.7308
29 20 1 3.0351 0.7972
29 20 2 -0.0352 0.2865
29 20 3 0.5363 -0.8472
29 20 4 5.4875 1.2441
29 20 5 -2.0341 -1.0515
29 20 6 -4.8509 -0.5922
29 20 7 -0.1072 0.2528
29 20 8 -3.6380 -1.1976
29 20 9 5.5136 0.7501
29 20 10 -1.6317 0.7967
29 20 11 -1.7830 0.4641
29 20 12 8.5808 0.4578
29 20 13 -3.7874 0.8313
29 21 0 -12.2972 0.0896
29 21 1 -2.1100 -2.3426
29 21 2 11.6280 0.8063
29 21 3 -6.8058 -2.4047
29 21 4 -2.6851 -0.5971
29 21 5 12.9084 -0.3158
29 21 6 -1.2170 -0.7671
29 21 7 -2.9402 0.1671
29 21 8 0.8918 0.0769
29 21 9 -9.1966 -0.4049
29 21 10 5.8832 0.0803
29 21 11 3.1833 -0.4267
29 21 12 2.6174 0.1782
29 22 1 -11.3977 -0.9188
29 22 2 9.5956 4.0380
29 22 3 -1.4746 0.1220
29 22 4 -3.8276 1.2259
29 22 5 3.7510 0.2018
29 22 6 3.2170 -0.9639
29 22 7 -4.2712 -0.0202
29 22 8 8.1191 -0.3273
29 22 9 1.3524 0.6402
29 22 10 -12.0991 -0.5270
29 22 11 -2.9661 0.4561
29 22 12 1.2868 -0.7708
29 23 0 -0.2160 5.8807
29 23 1 -6.1080 0.7971
29 23 2 0.8125 0.5502
29 23 3 2.5227 -0.1975
29 23 4 5.1873 0.1748
29 23 5 -2.5197 -1.0167
29 23 6 2.5957 0.4202
29 23 7 -3.1408 -0.7965
29 23 8 3.3691 0.6456
29 23 9 14.7848 0.5608
29 23 10 11.6844 0.9819
29 23 11 -11.3610 -0.3507
29 23 12 3.2935 0.2123
29 24 1 1.9926 0.8572
29 24 2 0.8963 -0.5677
29 24 3 -4.6592 -2.0280
29 24 4 0.0929 -0.2666
29 24 5 -0.2256 -1.0965
29 24 6 -2.4675 0.3685
29 24 7 0.7561 0.5286
29 24 8 -6.1905 -0.2105
29 24 9 -0.8507 0.9228
29 24 10 0.2164 0.1324
29 24 11 4.8020 0.6678
29 25 0 -4.0185 -9.0636
29 25 1 -0.6401 -0.4680
29 25 2 7.0594 -0.4126
29 25 3 1.1180 -0.9567
29 25 4 1.0801 1.3945
29 25 5 -6.2195 -0.0463
29 25 6 -1.5585 1.4692
29 25 7 6.6255 0.4735
29 25 8 0.2954 0.3172
29 25 9 0.2740 0.3996
29 25 10 -1.9648 -0.0428
29 26 1 -3.1133 1.1779
29 26 2 -3.0331 1.5766
29 26 3 4.7099 -1.5840
29 26 4 -1.1148 0.0823
29 26 5 -7.9248 -0.0906
29 26 6 -0.5158 -0.4222
29 26 7 1.8484 0.6651
29 26 8 1.0234 -1.0105
29 26 9 0.4153 -0.5324
29 26 10 -5.6099 0.2619
29 27 0 -1.1197 -3.2169
29 27 1 -5.4760 4.6516
29 27 2 -2.6817 1.4999
29 27 3 2.5358 0.8624
29 27 4 -0.6975 0.0223
29 27 5 -5.8716 -0.2096
29 27 6 -3.2144 -0.3187
29 27 7 6.7478 -1.0235
29 27 8 1.2299 0.4750
29 27 9 7.8583 1.0408
29 27 10 -8.4202 -1.4066
29 28 1 -0.7882 2.7655
29 28 2 -0.7929 0.1020
29 28 3 2.6541 -0.5007
29 28 4 2.6062 -0.4911
29 28 5 -0.6688 -0.6493
29 28 6 0.8537 0.9108
29 28 7 -0.8479 0.3777
29 28 8 0.8032 0.3405
29 28 9 -2.4268 0.5537
29 29 0 2.2280 -8.4609
29 29 1 -12.1417 0.4085
29 29 2 0.8273 -1.0758
29 29 3 2.5960 -0.1930
29 29 4 -2.8116 0.3137
29 29 5 0.7636 -0.2725
29 29 6 0.9298 -0.8200
29 29 7 4.4424 -0.4320
29 29 8 7.9308 0.5917
29 30 1 -1.8804 0.7700
29 30 2 -0.8461 -0.1004
29 30 3 -6.1930 -2.6138
29 30 4 -4.5583 -0.6082
29 30 5 -7.4678 -0.6808
29 30 6 2.1846 0.3385
29 30 7 1.1576 0.4309
29 30 8 3.6783 0.2278
29 31 0 8.2427 -1.7458
29 31 1 -3.4931 1.5950
29 31 2 6.4536 0.5217
29 31 3 6.6172 1.7904
29 31 4 -10.3516 -0.0521
29 31 5 -6.7698 0.9738
29 31 6 -4.3196 0.3564
29 31 7 6.1926 1.6324
29 32 1 -2.0300 0.2557
29 32 2 3.5798 0.6597
29 32 3 4.9777 -0.7204
29 32 4 1.7065 0.0159
29 32 5 -4.1461 -1.4604
29 32 6 -3.4319 0.5258
29 33 0 7.7202 -3.6115
29 33 1 -12.2814 0.2547
29 33 2 0.1044 -1.0996
29 33 3 -1.4150 0.7444
29 33 4 -4.2072 -0.4253
29 34 1 -0.0110 -1.3595
29 34 2 3.2013 1.6300
29 34 3 -3.6829 -0.3090
29 35 0 1.7815 0.3270
29 35 1 -0.8990 0.7937
30 1 1 0.5538 -2.8469
30 1 2 1.2299 -0.4718
30 1 3 0.3678 2.5904
30 1 4 -1.2241 -0.5674
30 1 5 1.3052 2.1955
30 1 6 -0.4476 0.6079
30 1 7 4.0365 -0.4306
30 1 8 -3.3622 0.3683
30 1 9 3.5083 -0.3626
30 1 10 -5.8850 1.2306
30 1 11 -2.5072 -0.0548
30 1 12 -7.0856 0.2892
30 1 13 -3.8073 0.3102
30 1 14 1.8575 0.4644
30 1 15 8.8739 -0.5306
30 2 0 -1.0169 2.8509
30 2 1 4.0202 -1.0906
30 2 2 2.0744 0.6340
30 2 3 1.9791 -0.4920
30 2 4 7.8714 -0.8661
30 2 5 2.6028 0.2362
30 2 6 -0.8174 -1.7811
30 2 7 9.0849 -0.0368
30 2 8 1.7828 -0.0628
30 2 9 5.9683 -0.1022
30 2 10 0.0236 0.2070
30 2 11 -5.9548 0.1356
30 2 12 -3.8942 -0.3378
30 2 13 -6.8776 0.2131
30 2 14 1.3977 0.4844
30 2 15 -3.2013 0.1718
30 3 1 9.0187 -3.8414
30 3 2 2.7291 -5.8103
30 3 3 -0.6144 0.4984
30 3 4 0.7317 -1.0774
30 3 5 0.3708 1.0441
30 3 6 -5.4876 0.4228
30 3 7 6.9580 -1.3576
30 3 8 -0.4144 0.7345
30 3 9 -1.6981 -0.1646
30 3 10 -1.7195 0.1236
30 3 11 -0.4619 -0.3835
30 3 12 -0.7794 -0.5061
30 3 13 5.7335 -0.2194
30 3 14 2.0221 0.1514
30 3 15 2.4362 -0.2336
30 4 0 -10.2802 6.6941
30 4 1 -0.2269 1.7262
30 4 2 -0.8722 0.4137
30 4 3 -1.7412 -0.8430
30 4 4 4.8029 0.3999
30 4 5 -4.5039 -0.5260
30 4 6 -5.7927 -0.4581
30 4 7 1.3919 0.6662
30 4 8 3.6536 -0.8379
30 4 9 -0.1091 1.4931
30 4 10 4.4163 0.4955
30 4 11 -17.3731 -0.0802
30 4 12 -0.5435 0.2039
30 4 13 3.8458 -0.3024
30 4 14 -1.9305 0.0127
30 4 15 3.3328 0.1770
30 5 1 0.4486 -0.4394
30 5 2 -1.5113 -2.7438
30 5 3 -0.8123 0.0943
30 5 4 -0.7548 -0.1960
30 5 5 0.3553 0.9458
30 5 6 -0.8388 0.6420
30 5 7 -2.5469 0.4446
30 5 8 -1.5262 0.9560
30 5 9 -1.8196 -0.1424
30 5 10 -5.4455 0.5093
30 5 11 -1.6709 -0.4708
30 5 12 -9.3943 -0.4684
30 5 13 -9.2028 0.1532
30 5 14 0.1108 -0.2011
30 5 15 -0.1153 1.5688
30 6 0 4.0773 -0.6074
30 6 1 -1.2593 -4.6614
30 6 2 2.0526 2.7235
30 6 3 -1.4213 -0.2666
30 6 4 4.4872 0.7771
30 6 5 -2.2090 0.0189
30 6 6 -1.5370 -1.1779
30 6 7 -0.7358 0.9429
30 6 8 3.2345 -0.6778
30 6 9 -2.9835 -0.2763
30 6 10 1.2874 0.2282
30 6 11 -1.1663 -0.0585
30 6 12 3.8819 -0.1398
30 6 13 13.0038 0.1969
30 6 14 -5.6645 -0.3913
30 6 15 0.5813 -0.1449
30 7 1 4.8839 -3.3783
30 7 2 -5.4284 1.3553
30 7 3 2.2895 1.2812
30 7 4 2.3271 -0.2049
30 7 5 -1.1228 0.9941
30 7 6 2.0783 -0.2235
30 7 7 4.1233 -0.0827
30 7 8 -0.2814 0.8509
30 7 9 3.1102 -1.0649
30 7 10 -7.7361 -0.5863
30 7 11 4.3009 -0.8929
30 7 12 1.8284 -0.6642
30 7 13 -7.7497 -0.3044
30 7 14 7.8900 0.3006
30 8 0 4.7543 3.7900
30 8 1 -6.1016 -2.5005
30 8 2 1.9419 0.5153
30 8 3 -2.7583 -0.0677
30 8 4 2.9650 -0.7716
30 8 5 0.6203 -1.2783
30 8 6 -2.3584 -0.9862
30 8 7 4.2440 0.4326
30 8 8 8.1116 -0.2802
30 8 9 2.4068 1.1944
30 8 10 -4.6504 0.1486
30 8 11 -10.5939 0.3521
30 8 12 3.5731 0.1070
30 8 13 -5.2868 -0.3006
30 8 14 -13.0477 0.4082
30 9 1 -1.0878 -1.8030
30 9 2 1.6780 2.0933
30 9 3 0.2517 0.1528
30 9 4 8.3555 0.4709
30 9 5 -2.3765 0.1193
30 9 6 -2.5018 -0.2727
30 9 7 3.6178 0.2158
30 9 8 -2.4088 0.0597
30 9 9 3.5068 -0.3406
30 9 10 4.8818 0.2972
30 9 11 8.0575 0.0974
30 9 12 9.6652 -0.3226
30 9 13 4.5397 0.7042
30 9 14 2.9694 -0.0010
30 10 0 0.1964 -0.2829
30 10 1 2.0096 -0.2122
30 10 2 -4.7745 0.9072
30 10 3 -2.3938 0.5515
30 10 4 8.9452 -0.6431
30 10 5 1.9754 -0.2670
30 10 6 3.1368 -0.2868
30 10 7 1.0293 0.1766
30 10 8 0.2523 0.4974
30 10 9 -11.6535 0.4913
30 10 10 -9.5611 0.5927
30 10 11 -1.0189 0.0876
30 10 12 3.5935 -0.2483
30 10 13 12.0956 -0.5198
30 10 14 2.3137 -0.6582
30 11 1 -1.8909 -0.9974
30 11 2 -6.9627 -2.8437
30 11 3 -1.1101 -1.4354
30 11 4 -3.6191 -0.1481
30 11 5 -6.8466 -1.1658
30 11 6 0.3887 0.4064
30 11 7 0.6613 -0.1718
30 11 8 -3.8185 0.4355
30 11 9 4.8714 0.1121
30 11 10 -14.4735 -0.0560
30 11 11 -1.1902 -0.3255
30 11 12 -6.7400 0.1434
30 11 13 -10.1848 -0.1078
30 11 14 17.3958 -0.0527
30 12 0 -0.3638 -6.2866
30 12 1 -3.8571 1.2026
30 12 2 -5.9176 0.5105
30 12 3 -6.6409 -0.2940
30 12 4 1.5309 -0.3277
30 12 5 -5.5658 0.1948
30 12 6 -1.2116 0.5176
30 12 7 0.8926 -0.2797
30 12 8 -4.5267 -0.1907
30 12 9 -4.9467 0.4507
30 12 10 -4.3126 -0.7262
30 12 11 10.9562 -0.0550
30 12 12 4.3783 0.2541
30 12 13 -10.5914 0.0344
30 12 14 -8.2943 0.8643
30 13 1 -1.9629 0.0862
30 13 2 2.1323 2.6020
30 13 3 -1.2521 2.1193
30 13 4 0.7522 0.1770
30 13 5 -2.7353 0.3537
30 13 6 0.0218 -0.8365
30 13 7 -1.1267 -0.3019
30 13 8 -0.7089 0.0841
30 13 9 0.0327 0.1356
30 13 10 -12.5147 0.2039
30 13 11 -1.0364 0.3784
30 13 12 7.4535 0.3255
30 13 13 -3.8637 -0.1142
30 14 0 -8.6228 0.1775
30 14 1 1.8574 -1.0570
30 14 2 -0.1134 -1.7924
30 14 3 2.4827 0.3641
30 14 4 0.4574 0.9157
30 14 5 -0.4499 -0.8550
30 14 6 1.5813 1.0935
30 14 7 -1.8726 0.1025
30 14 8 -0.9826 0.4127
30 14 9 -9.8588 0.0481
30 14 10 0.2686 -0.5177
30 14 11 2.4680 -0.1629
30 14 12 3.4488 0.2825
30 14 13 8.5372 -0.0957
30 15 1 -5.8988 4.4119
30 15 2 4.6053 0.3259
30 15 3 -3.6935 0.8779
30 15 4 2.9920 0.2835
30 15 5 1.3942 -0.2294
30 15 6 2.2320 -1.9211
30 15 7 12.3525 -0.4143
30 15 8 7.9157 -0.8201
30 15 9 -2.0196 0.0077
30 15 10 -4.9447 0.5659
30 15 11 5.4825 -0.2814
30 15 12 9.1948 -0.2513
30 15 13 5.8826 0.1902
30 16 0 -5.2666 5.5006
30 16 1 1.1415 1.2867
30 16 2 2.1069 0.7449
30 16 3 5.0198 0.9518
30 16 4 6.6215 0.6449
30 16 5 -6.0142 -0.1717
30 16 6 1.7462 0.8182
30 16 7 3.0120 -1.0190
30 16 8 2.4371 -0.0235
30 16 9 1.1465 -0.9316
30 16 10 -9.8602 -0.5384
30 16 11 -11.8602 0.1085
30 16 12 7.0500 -0.7194
30 16 13 1.9130 0.5246
30 17 1 -5.4830 3.7470
30 17 2 2.2990 -1.8325
30 17 3 -1.5729 0.5858
30 17 4 1.3113 -0.7117
30 17 5 -4.2639 -1.1648
30 17 6 -1.5979 0.2593
30 17 7 -6.8466 -0.2116
30 17 8 -0.2232 -0.0379
30 17 9 8.0120 1.0252
30 17 10 -23.6630 0.4824
30 17 11 -3.9321 1.0804
30 17 12 -7.1092 0.3149
30 17 13 8.0338 -1.1241
30 18 0 0.2482 -5.6394
30 18 1 -3.6096 1.3211
30 18 2 -8.3965 -2.1038
30 18 3 0.8455 -0.3980
30 18 4 -0.1996 0.9943
30 18 5 -15.5451 0.0704
30 18 6 4.9756 0.8823
30 18 7 -4.6156 0.0259
30 18 8 -5.3083 -0.3686
30 18 9 5.1055 0.2776
30 18 10 5.4441 -0.7906
30 18 11 -5.3134 0.5911
30 18 12 1.7629 0.1167
30 18 13 2.9638 0.0249
30 19 1 -3.2470 2.6382
30 19 2 -0.7546 2.1206
30 19 3 -1.4975 1.1070
30 19 4 3.0975 1.0010
30 19 5 -7.2215 0.3924
30 19 6 4.3130 -0.1381
30 19 7 6.0393 0.0471
30 19 8 5.9100 -0.1930
30 19 9 6.5836 -0.4112
30 19 10 -0.0978 0.1504
30 19 11 5.5678 -0.4571
30 19 12 8.7650 -0.5859
30 20 0 4.4256 -9.1095
30 20 1 0.7396 0.8154
30 20 2 -2.4661 -1.7173
30 20 3 11.0787 0.0826
30 20 4 -2.7845 0.3377
30 20 5 -1.1368 0.8902
30 20 6 -4.5409 0.8057
30 20 7 -2.5429 -0.3966
30 20 8 -0.1488 -0.3151
30 20 9 -4.0665 -0.2909
30 20 10 -5.2844 -0.4231
30 20 11 -0.6484 0.7268
30 20 12 -10.5404 -0.4611
30 21 1 -4.3018 1.2720
30 21 2 2.6307 0.7328
30 21 3 0.9118 0.7476
30 21 4 -2.6109 -0.5723
30 21 5 -1.2284 -1.0420
30 21 6 2.4052 -0.8623
30 21 7 -1.1203 -0.4548
30 21 8 -5.6103 0.1391
30 21 9 7.0961 0.1941
30 21 10 -11.2381 0.9381
30 21 11 4.3460 1.2490
30 22 0 0.5481 -4.3470
30 22 1 -2.5914 5.6993
30 22 2 2.5273 0.0905
30 22 3 11.3692 -0.0125
30 22 4 4.5833 1.0643
30 22 5 -11.9910 -0.2832
30 22 6 6.6041 0.8316
30 22 7 -3.2268 -0.6143
30 22 8 1.5702 0.0887
30 22 9 9.0651 0.2253
30 22 10 -0.1264 -0.5308
30 22 11 5.0494 0.5625
30 23 1 -1.3078 -1.2481
30 23 2 -0.5034 -2.0142
30 23 3 0.3038 -0.3612
30 23 4 6.7749 -0.8005
30 23 5 -0.2929 -0.2937
30 23 6 -2.6203 0.6575
30 23 7 1.6158 -0.0825
30 23 8 -4.9527 0.7278
30 23 9 0.7790 -0.1589
30 23 10 9.4933 0.4864
30 23 11 -5.3654 -0.3916
30 24 0 1.3267 -5.8478
30 24 1 -2.3232 1.7302
30 24 2 -2.3193 -0.3283
30 24 3 2.0993 -0.1920
30 24 4 3.8131 -0.1034
30 24 5 -4.0817 -0.7549
30 24 6 -0.1821 0.0949
30 24 7 3.1727 -0.4845
30 24 8 0.4167 0.5117
30 24 9 2.8099 -0.3481
30 24 10 3.8332 0.0533
30 25 1 5.4403 -2.1582
30 25 2 -1.4969 0.8740
30 25 3 1.0123 1.1760
30 25 4 5.9909 0.2125
30 25 5 2.2171 0.5604
30 25 6 -8.5031 0.5787
30 25 7 2.4976 -0.2323
30 25 8 -3.1384 0.6409
30 25 9 -3.2274 0.0340
30 25 10 -2.5607 0.3069
30 26 0 -18.0279 -5.2959
30 26 1 -8.1892 2.1806
30 26 2 -3.4351 -0.2722
30 26 3 -4.1692 1.4079
30 26 4 4.7618 0.8672
30 26 5 -1.1332 -1.6828
30 26 6 -0.1465 -0.9862
30 26 7 -2.2758 0.2278
30 26 8 8.2838 -0.1826
30 26 9 4.0333 -0.3234
30 26 10 -0.1011 -0.1484
30 27 1 -7.4471 -2.1082
30 27 2 -10.5589 -0.9010
30 27 3 -6.2142 -0.3476
30 27 4 2.9383 -0.2086
30 27 5 -5.7748 -0.0628
30 27 6 -0.7256 -0.0202
30 27 7 -5.1677 -1.3016
30 27 8 2.2357 0.6517
30 27 9 1.5416 1.3163
30 28 0 -3.3515 -5.7772
30 28 1 2.0988 2.4154
30 28 2 1.2756 1.7833
30 28 3 1.1115 0.9032
30 28 4 1.0828 -0.0923
30 28 5 -2.3620 0.0759
30 28 6 1.3692 -0.5039
30 28 7 -5.2431 0.0315
30 28 8 9.3189 1.2071
30 29 1 -0.5519 -3.6259
30 29 2 -8.8762 0.0329
30 29 3 7.6669 0.7980
30 29 4 -0.0543 -0.0065
30 29 5 -0.7854 1.3181
30 29 6 -0.9814 0.2390
30 29 7 -2.9116 -1.3679
30 29 8 0.2132 0.5375
30 30 0 -1.2997 4.1575
30 30 1 7.1175 1.6895
30 30 2 -4.0954 -0.1365
30 30 3 1.9331 0.9996
30 30 4 -5.7098 -1.1581
30 30 5 4.3800 -0.9235
30 30 6 -2.6805 -0.4809
30 30 7 -1.1865 0.3795
30 31 1 2.9918 1.1396
30 31 2 -6.3353 -1.8646
30 31 3 1.6459 -0.3028
30 31 4 -4.1904 0.3648
30 31 5 -3.9447 0.8943
30 32 0 -2.3904 -6.4524
30 32 1 -1.9456 -2.2958
30 32 2 2.7570 1.1258
30 32 3 -2.4804 -1.6506
30 32 4 -10.7160 0.6290
30 33 1 -1.8446 -1.3798
30 33 2 4.1668 -0.5514
30 33 3 2.5232 2.3537
30 34 0 -4.9550 8.1020
30 34 1 -1.2423 0.5870
30 34 2 -1.1655 -0.3469
31 1 0 -4.6658 6.4440
31 1 1 -4.7762 -3.1319
31 1 2 -0.5544 0.8421
31 1 3 1.7110 -0.9044
31 1 4 -2.2168 -0.0221
31 1 5 0.5991 1.5437
31 1 6 5.8100 0.4723
31 1 7 0.8510 1.0272
31 1 8 2.7584 0.3273
31 1 9 5.0597 -0.5988
31 1 10 6.1065 0.3449
31 1 11 9.8499 -0.3912
31 1 12 -3.5929 0.0993
31 1 13 0.2374 0.1204
31 1 14 -4.8693 -0.4899
31 1 15 3.0948 1.3536
31 2 1 0.8521 -1.3602
31 2 2 1.8121 3.8533
31 2 3 0.5886 -0.7825
31 2 4 1.1197 1.0982
31 2 5 -3.2214 1.1847
31 2 6 -6.2784 0.8393
31 2 7 -1.2698 -0.2807
31 2 8 2.6838 -1.1279
31 2 9 -2.6827 -0.2465
31 2 10 2.7621 -0.0578
31 2 11 -3.1131 0.5503
31 2 12 7.6949 0.4114
31 2 13 3.5651 0.0835
31 2 14 -8.3260 0.1276
31 3 0 -0.1587 15.3744
31 3 1 1.4708 1.8839
31 3 2 3.6553 0.1004
31 3 3 1.0360 -0.9249
31 3 4 4.3215 -2.7056
31 3 5 2.5919 -0.3834
31 3 6 -3.5554 -1.6683
31 3 7 -2.3392 0.4364
31 3 8 -2.6485 -0.1467
31 3 9 1.3703 0.2236
31 3 10 6.5624 1.2597
31 3 11 -2.0629 0.0744
31 3 12 -0.2397 0.5325
31 3 13 9.6633 0.0314
31 3 14 4.5253 -0.7884
31 4 1 -6.2480 -3.0863
31 4 2 0.3063 1.1006
31 4 3 -0.6942 -2.6963
31 4 4 1.2653 0.2350
31 4 5 8.6128 -0.1698
31 4 6 -9.0713 0.0166
31 4 7 -4.5461 -0.7300
31 4 8 1.2906 -0.0734
31 4 9 -6.6872 0.2051
31 4 10 -1.3719 0.2604
31 4 11 -1.8791 0.9388
31 4 12 -21.6756 -0.3848
31 4 13 3.1396 0.2235
31 4 14 -5.1997 0.0794
31 5 0 -2.8577 6.3508
31 5 1 1.5565 -4.9427
31 5 2 -6.5786 -0.7436
31 5 3 -5.4089 -0.8337
31 5 4 -5.9597 -0.8565
31 5 5 6.4796 1.8809
31 5 6 0.1611 0.8337
31 5 7 1.9587 1.5305
31 5 8 -10.6469 0.3647
31 5 9 -2.3705 0.7686
31 5 10 -1.1198 -0.0379
31 5 11 -1.5969 -0.4072
31 5 12 -1.7149 0.1098
31 5 13 -3.6393 -0.4993
31 5 14 0.0125 -0.7231
31 6 1 -0.7928 0.1302
31 6 2 1.5388 2.3077
31 6 3 4.6499 0.8340
31 6 4 -4.9725 2.0915
31 6 5 -5.8037 -0.2928
31 6 6 -2.7946 -0.7451
31 6 7 4.2127 -0.5619
31 6 8 3.2804 -0.7167
31 6 9 -2.9815 0.1443
31 6 10 -1.7833 0.2584
31 6 11 3.7122 0.2538
31 6 12 -7.5076 0.7391
31 6 13 8.8893 0.4438
31 6 14 -1.7869 0.0769
31 7 0 -0.1862 7.2773
31 7 1 4.1307 -1.4504
31 7 2 -6.8623 0.9997
31 7 3 1.2608 -1.3820
31 7 4 11.0582 0.5001
31 7 5 2.8679 -0.0452
31 7 6 -8.2031 -1.0061
31 7 7 12.0049 0.0295
31 7 8 0.3278 -0.8415
31 7 9 12.0606 0.1222
31 7 10 0.3508 -0.0422
31 7 11 -10.5579 -0.6133
31 7 12 8.0715 0.3132
31 7 13 -6.6262 -0.4151
31 7 14 -2.4989 0.3398
31 8 1 0.7925 -6.9558
31 8 2 3.7048 0.0300
31 8 3 -4.9583 -1.0749
31 8 4 0.4810 -0.0455
31 8 5 7.0456 0.9266
31 8 6 -1.9343 -1.0147
31 8 7 -2.3845 -0.7282
31 8 8 4.5381 -0.3722
31 8 9 3.8849 0.0575
31 8 10 3.5224 -0.2064
31 8 11 1.3768 1.0140
31 8 12 7.0445 0.0948
31 8 13 13.1618 0.5726
31 8 14 -13.5316 -0.8695
31 9 0 -1.0111 16.0399
31 9 1 7.8896 -4.0537
31 9 2 -8.1298 0.3683
31 9 3 1.1035 -0.0810
31 9 4 2.0072 -1.0046
31 9 5 7.3030 -0.0577
31 9 6 -3.9855 0.3942
31 9 7 2.1093 -0.9599
31 9 8 -6.2518 0.2188
31 9 9 -0.8311 -0.1935
31 9 10 -0.9753 0.4541
31 9 11 -11.4688 0.1058
31 9 12 8.6742 0.1899
31 9 13 14.8481 0.4591
31 9 14 -0.2984 0.3447
31 10 1 -0.1177 3.0778
31 10 2 -1.0853 0.2350
31 10 3 -4.0152 1.8438
31 10 4 0.8184 1.0331
31 10 5 0.9448 -0.7213
31 10 6 3.6254 0.3515
31 10 7 -1.1167 -0.2211
31 10 8 -1.0949 -0.3708
31 10 9 -8.0854 0.0797
31 10 10 -15.7415 0.0544
31 10 11 -6.7096 0.2114
31 10 12 -1.6611 0.0358
31 10 13 6.4293 -0.0295
31 10 14 13.7490 0.0147
31 11 0 -2.3420 -8.7278
31 11 1 8.0136 -1.1210
31 11 2 -8.1592 0.4707
31 11 3 -8.3222 -1.2456
31 11 4 0.2215 2.5760
31 11 5 -2.7683 -0.3826
31 11 6 -3.9615 0.3306
31 11 7 4.9133 -0.2542
31 11 8 -1.2642 -1.0146
31 11 9 -4.7232 0.8622
31 11 10 -5.3771 -0.1898
31 11 11 -15.7032 -0.4032
31 11 12 -1.0937 0.4322
31 11 13 -7.6523 -0.2715
31 12 1 -6.7904 -4.1315
31 12 2 4.4486 -1.9856
31 12 3 -3.8467 -0.6347
31 12 4 0.5565 -0.8015
31 12 5 -5.7374 1.3263
31 12 6 -4.2940 0.2301
31 12 7 2.2638 0.4277
31 12 8 16.0298 0.1587
31 12 9 -4.0088 0.1121
31 12 10 -5.4411 0.4728
31 12 11 -2.6586 -0.4601
31 12 12 7.7939 -1.1201
31 12 13 -3.9459 -0.2233
31 13 0 -5.8174 -4.1857
31 13 1 1.3142 -1.7774
31 13 2 -11.6556 0.4965
31 13 3 10.0553 1.5253
31 13 4 1.7623 0.3848
31 13 5 -1.2122 1.9491
31 13 6 -0.4487 0.7687
31 13 7 -10.1615 -0.2668
31 13 8 6.0370 -0.4920
31 13 9 6.7101 -0.4832
31 13 10 0.2051 -0.2795
31 13 11 -16.1288 -0.1123
31 13 12 -2.5846 0.2028
31 13 13 9.8394 0.0486
31 14 1 -8.3819 3.4524
31 14 2 -9.7083 -2.7896
31 14 3 4.6406 2.4959
31 14 4 -1.8809 0.2421
31 14 5 4.5023 0.7185
31 14 6 -0.3800 0.5846
31 14 7 3.4093 -0.6989
31 14 8 4.6235 0.2645
31 14 9 -2.1541 -0.9065
31 14 10 0.9235 -0.1007
31 14 11 0.3369 0.2451
31 14 12 4.5339 -0.2679
31 14 13 -6.6959 0.6669
31 15 0 3.1319 -2.7757
31 15 1 -0.4493 4.8154
31 15 2 0.9739 0.1216
31 15 3 0.8648 0.1289
31 15 4 0.3093 0.0323
31 15 5 -2.8451 -0.4424
31 15 6 -6.7838 0.0184
31 15 7 -5.2293 -0.6991
31 15 8 6.0487 -0.0255
31 15 9 6.7580 -0.1875
31 15 10 2.8114 -0.0107
31 15 11 -14.4795 -0.0897
31 15 12 -2.8232 0.6304
31 15 13 9.8300 -0.9069
31 16 1 -4.5855 2.3109
31 16 2 -4.9867 -4.1889
31 16 3 9.6236 -0.1721
31 16 4 5.3218 -1.6330
31 16 5 4.1114 -0.3374
31 16 6 0.9385 0.2446
31 16 7 -7.6264 0.4523
31 16 8 -3.0190 0.4728
31 16 9 -5.4548 -0.4181
31 16 10 4.3198 0.2225
31 16 11 -8.3805 -0.6725
31 16 12 -14.5470 -0.0449
31 16 13 -0.1466 -0.1558
31 17 0 3.1163 -9.6987
31 17 1 -0.8696 -3.7862
31 17 2 -7.0548 0.6202
31 17 3 -2.6017 0.2193
31 17 4 -4.9409 1.3838
31 17 5 -1.8958 0.8083
31 17 6 -3.8006 -0.4369
31 17 7 -1.1831 0.5273
31 17 8 -3.4257 0.0898
31 17 9 7.6797 -0.8098
31 17 10 7.8557 0.5895
31 17 11 -9.9557 -0.2032
31 17 12 0.6901 -0.0495
31 17 13 -8.8143 -0.5588
31 18 1 5.6579 2.1191
31 18 2 -4.8895 -2.8478
31 18 3 2.4847 2.5883
31 18 4 0.5901 -1.1462
31 18 5 9.0718 0.2398
31 18 6 -7.3635 1.0650
31 18 7 2.4769 -0.1494
31 18 8 -2.3771 1.4652
31 18 9 6.7743 -0.9105
31 18 10 15.9203 0.2574
31 18 11 0.8006 0.0737
31 18 12 7.4705 0.0697
31 19 0 -0.8441 -2.2390
31 19 1 -3.5018 -0.3926
31 19 2 2.9588 -0.1021
31 19 3 4.6513 0.9500
31 19 4 -1.3338 1.6951
31 19 5 2.9775 -0.0586
31 19 6 -2.0458 -0.6272
31 19 7 -2.7463 -0.5110
31 19 8 -12.5161 -0.5132
31 19 9 -0.8042 0.1228
31 19 10 0.4426 -1.1031
31 19 11 -5.4563 -0.0259
31 19 12 -0.9109 0.3124
31 20 1 0.2309 0.2425
31 20 2 -14.6368 -0.5354
31 20 3 -1.2410 -0.4482
31 20 4 0.0296 -1.3588
31 20 5 -4.9504 0.0423
31 20 6 1.6856 0.1328
31 20 7 -1.9586 -0.5254
31 20 8 -0.0643 -0.0555
31 20 9 -3.6550 -0.5334
31 20 10 3.7849 0.4942
31 20 11 0.7739 -1.0812
31 21 0 -3.0902 0.5495
31 21 1 6.3587 -1.1448
31 21 2 -0.7905 -0.0527
31 21 3 0.6051 0.6674
31 21 4 1.5765 -1.1925
31 21 5 -0.8862 0.5773
31 21 6 -7.9488 -0.5749
31 21 7 3.3531 0.1787
31 21 8 1.3301 0.1634
31 21 9 -3.8937 0.1492
31 21 10 1.5271 -0.1920
31 21 11 -3.1842 0.2711
31 22 1 7.3001 -0.0658
31 22 2 2.9153 0.8847
31 22 3 2.6147 1.4919
31 22 4 1.3006 0.3874
31 22 5 4.9181 0.8751
31 22 6 -4.2101 1.2974
31 22 7 -6.2593 -0.2262
31 22 8 -0.7761 1.3838
31 22 9 0.7328 -0.6004
31 22 10 -0.7671 0.6206
31 22 11 -11.7810 -0.5093
31 23 0 -17.2884 5.1768
31 23 1 -3.0134 0.6736
31 23 2 3.3786 -0.4567
31 23 3 4.7785 0.5327
31 23 4 -8.7987 -1.1887
31 23 5 11.0172 0.1155
31 23 6 0.8145 -1.5209
31 23 7 -1.8808 -0.4107
31 23 8 2.2372 -0.7709
31 23 9 -3.5097 0.6151
31 23 10 7.3217 0.3312
31 23 11 0.9969 0.4163
31 24 1 -4.7727 -1.0028
31 24 2 -6.9970 -1.9171
31 24 3 -0.9598 -0.3700
31 24 4 -0.9374 -0.0803
31 24 5 0.8747 -0.0757
31 24 6 -6.7226 0.0508
31 24 7 2.7175 -0.2710
31 24 8 -2.3561 0.0200
31 24 9 -7.9762 0.7107
31 24 10 1.3919 -0.5888
31 25 0 -10.5902 0.9871
31 25 1 -0.0984 -3.7980
31 25 2 1.3460 -1.3040
31 25 3 -8.8428 -1.1309
31 25 4 -1.4041 0.8289
31 25 5 8.6880 0.9228
31 25 6 -5.7300 0.7297
31 25 7 -7.5451 0.9236
31 25 8 7.0642 -0.6142
31 25 9 5.7279 -0.0535
31 25 10 -3.4687 1.0527
31 26 1 -8.7215 -0.8701
31 26 2 0.2513 0.4436
31 26 3 -4.3292 0.0698
31 26 4 -1.2567 0.5166
31 26 5 5.1382 0.1086
31 26 6 2.6095 -0.2596
31 26 7 -7.8683 -0.8741
31 26 8 -2.0542 -0.0283
31 26 9 6.3818 -0.4977
31 27 0 5.1679 14.1574
31 27 1 1.7443 1.3904
31 27 2 -2.2582 1.4036
31 27 3 -4.6775 0.5215
31 27 4 4.5350 -0.9905
31 27 5 3.8980 0.3556
31 27 6 6.7832 0.5485
31 27 7 -5.2097 0.3222
31 27 8 -5.9391 0.4914
31 28 1 11.5498 0.4342
31 28 2 1.1763 0.5726
31 28 3 -2.3831 1.0032
31 28 4 -5.3541 0.3264
31 28 5 -0.4596 0.6353
31 28 6 11.6466 -0.2319
31 28 7 3.5665 -0.1461
31 29 0 -13.8500 1.8867
31 29 1 0.8971 -1.9717
31 29 2 5.0482 -1.0347
31 29 3 2.0851 -2.2137
31 29 4 -1.4568 -0.3630
31 29 5 -11.6313 -0.4732
31 29 6 1.2978 0.5263
31 29 7 7.9575 -0.3213
31 30 1 -2.7143 -0.3104
31 30 2 -9.2441 0.2586
31 30 3 0.1761 0.2454
31 30 4 1.1350 0.6248
31 30 5 -12.3586 1.3750
31 31 0 -1.2142 3.8400
31 31 1 -1.5661 0.0578
31 31 2 -3.5877 0.6241
31 31 3 -7.4085 -1.7116
31 31 4 8.8214 -0.3730
31 32 1 6.5788 1.0127
31 32 2 1.5833 -0.8492
31 32 3 0.9296 -0.4037
31 33 0 -6.7966 -0.9717
31 33 1 -0.1077 0.3787
31 33 2 -3.9334 0.1809
32 1 1 3.6561 3.5341
32 1 2 -1.8202 4.6247
32 1 3 1.5099 -0.6008
32 1 4 -0.4249 0.7834
32 1 5 -5.5939 -0.7949
32 1 6 7.5294 -0.6173
32 1 7 -1.2992 0.0963
32 1 8 -3.4847 -0.1052
32 1 9 -7.5360 0.6983
32 1 10 -6.5123 -0.0783
32 1 11 -7.8418 0.0816
32 1 12 3.9108 0.9278
32 1 13 -10.2177 0.2580
32 1 14 1.3171 1.4421
32 2 0 5.1020 -6.4859
32 2 1 4.1488 -0.5068
32 2 2 2.0528 0.8366
32 2 3 -1.7094 0.5765
32 2 4 4.0495 1.0525
32 2 5 7.0931 -1.2262
32 2 6 -2.1215 0.5384
32 2 7 1.9871 -0.8186
32 2 8 0.4092 0.1084
32 2 9 -4.6206 -1.3266
32 2 10 -3.4061 0.2095
32 2 11 -0.5357 0.2800
32 2 12 -11.8557 0.2725
32 2 13 8.4260 0.6021
32 2 14 -4.4814 0.9738
32 3 1 2.1988 0.8530
32 3 2 1.0923 0.2607
32 3 3 -1.6072 -0.0763
32 3 4 -5.2612 -0.5746
32 3 5 5.6908 -0.6109
32 3 6 -1.2668 0.1102
32 3 7 2.5090 0.0305
32 3 8 5.3111 0.2423
32 3 9 -1.8581 0.6919
32 3 10 2.9790 -0.8235
32 3 11 0.3527 0.3073
32 3 12 -11.9737 0.0217
32 3 13 -8.3510 -0.5390
32 3 14 8.1779 1.0854
32 4 0 -1.6911 8.9986
32 4 1 -3.8348 0.3315
32 4 2 -5.2233 -1.6642
32 4 3 -0.1132 1.0066
32 4 4 -3.5403 0.0886
32 4 5 4.4498 -0.3954
32 4 6 -1.3144 1.7309
32 4 7 -8.0554 -0.1696
32 4 8 0.1865 0.1020
32 4 9 0.4147 0.5463
32 4 10 -3.7735 -0.5150
32 4 11 16.0753 -0.3666
32 4 12 -3.7724 0.0829
32 4 13 -9.5463 -0.0848
32 4 14 7.2448 -0.1883
32 5 1 -0.2123 6.0542
32 5 2 -0.0759 1.4304
32 5 3 -3.8917 -1.7439
32 5 4 -1.0987 0.4293
32 5 5 2.5282 -0.7483
32 5 6 -1.0832 -0.2331
32 5 7 -1.7091 0.4962
32 5 8 0.1149 -0.5221
32 5 9 -10.7968 0.1366
32 5 10 3.0988 0.2907
32 5 11 1.5840 -0.1927
32 5 12 -6.9282 -0.4602
32 5 13 -3.6677 0.0214
32 5 14 -8.5987 0.7252
32 6 0 2.7046 -3.8613
32 6 1 -0.7286 -1.3386
32 6 2 -8.3001 -0.1553
32 6 3 0.4509 -0.1003
32 6 4 1.4181 -0.2171
32 6 5 -0.7669 1.3660
32 6 6 8.2919 0.8166
32 6 7 4.9377 0.2548
32 6 8 5.7013 -0.7526
32 6 9 9.4922 -1.1410
32 6 10 -3.0604 -0.2154
32 6 11 4.7919 -0.2837
32 6 12 0.6070 0.0590
32 6 13 -6.2748 0.7268
32 6 14 -6.3419 1.3652
32 7 1 9.3098 3.3025
32 7 2 7.9671 -0.4894
32 7 3 -1.9402 1.2331
32 7 4 -0.2779 0.1807
32 7 5 4.9909 -0.7141
32 7 6 -2.9564 0.4073
32 7 7 3.3121 0.5281
32 7 8 5.8122 -0.3368
32 7 9 -0.4763 -0.1083
32 7 10 13.0505 -1.0376
32 7 11 -0.1882 0.4827
32 7 12 2.5749 -0.1995
32 7 13 12.4355 -0.0702
32 7 14 1.1718 0.7110
32 8 0 -7.8084 7.0755
32 8 1 0.5099 0.0807
32 8 2 4.4634 -2.2372
32 8 3 2.4761 -0.5465
32 8 4 -0.5404 -0.9054
32 8 5 2.0917 0.7694
32 8 6 -4.8642 -0.1414
32 8 7 -7.5770 0.1473
32 8 8 -2.0879 0.0874
32 8 9 -3.6133 0.2938
32 8 10 1.0587 -0.0816
32 8 11 -5.4349 0.0409
32 8 12 -3.8504 0.6421
32 8 13 12.0616 0.5572
32 8 14 6.4673 -0.7997
32 9 1 -3.1231 3.4851
32 9 2 -2.2436 -0.3955
32 9 3 -0.5504 0.1851
32 9 4 -1.3330 -0.4663
32 9 5 5.6350 -0.4297
32 9 6 0.7905 0.3237
32 9 7 -0.8123 0.7629
32 9 8 -7.7271 0.0971
32 9 9 0.5374 -0.1820
32 9 10 -0.1556 0.2182
32 9 11 -4.6063 -0.2301
32 9 12 -21.3084 -0.1462
32 9 13 -5.2518 0.1603
32 10 0 9.9324 3.9483
32 10 1 -5.4448 -3.0686
32 10 2 -1.1898 -0.9381
32 10 3 -3.2707 0.1603
32 10 4 -3.1296 -0.9927
32 10 5 1.8608 1.0211
32 10 6 6.0869 -0.4251
32 10 7 -1.7658 0.7476
32 10 8 -2.4673 0.4378
32 10 9 3.8334 -0.3221
32 10 10 -8.3199 0.4933
32 10 11 4.4037 0.3506
32 10 12 5.1371 0.3816
32 10 13 -5.7035 -0.2544
32 11 1 -3.1436 -1.1408
32 11 2 1.0254 -3.2726
32 11 3 -8.9222 -1.1917
32 11 4 1.0473 -0.8134
32 11 5 -6.4410 -1.0684
32 11 6 -5.3621 0.8796
32 11 7 0.6348 0.8499
32 11 8 0.1751 0.1662
32 11 9 1.7255 -0.0326
32 11 10 0.5530 -0.3612
32 11 11 -2.1012 0.1053
32 11 12 -2.7414 -0.4761
32 11 13 9.3222 0.2922
32 12 0 -1.2312 6.5079
32 12 1 2.1723 0.9185
32 12 2 -6.0372 1.1464
32 12 3 -1.0429 -0.3330
32 12 4 4.1952 -0.3929
32 12 5 -1.3978 1.5469
32 12 6 -3.6252 -0.2295
32 12 7 -7.1989 0.7314
32 12 8 -7.1516 0.1701
32 12 9 11.4400 -0.8692
32 12 10 -6.2925 -0.5060
32 12 11 -7.4853 -0.5541
32 12 12 -0.1618 0.0456
32 12 13 -6.2941 -0.6280
32 13 1 0.5638 -2.6165
32 13 2 -7.9590 2.1809
32 13 3 -0.7289 -0.3891
32 13 4 6.5878 -0.2295
32 13 5 3.3827 0.5776
32 13 6 -0.1922 1.1282
32 13 7 5.0832 0.8322
32 13 8 -14.5484 -0.4105
32 13 9 2.6753 -0.1045
32 13 10 -0.5058 -0.3798
32 13 11 4.6333 -0.5152
32 13 12 -4.6614 0.4104
32 13 13 -3.0214 0.5016
32 14 0 -3.3640 2.5143
32 14 1 -0.1026 -0.0763
32 14 2 -7.5540 -0.9810
32 14 3 -3.2673 -0.1009
32 14 4 -0.0776 -1.7041
32 14 5 0.9363 -0.8453
32 14 6 4.4148 -1.1531
32 14 7 4.1961 0.2746
32 14 8 -3.2395 0.6622
32 14 9 6.3765 0.0047
32 14 10 -5.6833 0.5216
32 14 11 8.9221 -0.6633
32 14 12 0.7919 0.5173
32 15 1 -2.0433 -3.1932
32 15 2 -6.9793 -0.6491
32 15 3 9.6475 -0.6526
32 15 4 6.0258 0.4353
32 15 5 -1.0639 0.6507
32 15 6 8.2102 0.1485
32 15 7 0.1622 -0.6863
32 15 8 -1.4524 0.1843
32 15 9 -5.0862 -0.5135
32 15 11 7.2129 -0.4510
32 15 12 -0.2786 -0.0508
32 16 0 -1.5925 5.3480
32 16 1 4.9143 0.8859
32 16 2 -10.2386 0.8098
32 16 3 -0.3593 0.8066
32 16 4 -0.9448 -0.3710
32 16 5 -1.2329 1.7061
32 16 6 1.8619 -1.2108
32 16 7 5.0070 0.3909
32 16 8 -2.2883 0.3054
32 16 9 -2.5735 0.1582
32 16 10 -10.9036 -0.1627
32 16 11 3.9211 -0.1953
32 16 12 -0.1973 0.5631
32 17 1 -2.4412 -2.5196
32 17 2 -11.4254 -1.1753
32 17 3 -7.2705 -1.8924
32 17 4 -1.9704 0.1087
32 17 5 2.1669 0.6941
32 17 6 -6.0670 0.2708
32 17 7 6.9632 0.0644
32 17 8 3.5780 -0.1427
32 17 9 -0.3304 0.9618
32 17 10 11.2662 -0.2635
32 17 11 -4.6900 -0.2167
32 17 12 0.9306 -0.6711
32 18 0 -3.8233 -1.1763
32 18 1 8.1882 -2.8890
32 18 2 6.8921 0.6172
32 18 3 0.3313 -2.0156
32 18 4 -10.4344 -0.2962
32 18 5 -7.1106 -0.4131
32 18 6 -4.1792 -0.6572
32 18 7 -8.3547 0.6342
32 18 8 -8.9558 -0.1483
32 18 9 -5.5569 -0.2031
32 18 10 1.7304 0.7411
32 18 11 2.5880 -0.5878
32 18 12 -3.9295 -0.1419
32 19 1 -4.9372 -3.5360
32 19 2 -8.0083 0.7416
32 19 3 4.5787 -0.1139
32 19 4 -0.3318 1.4674
32 19 5 -1.9062 1.4593
32 19 6 -2.0691 -0.0672
32 19 7 0.7540 0.2664
32 19 8 -4.7583 -0.8268
32 19 9 0.9813 -0.3488
32 19 10 3.6440 -0.4075
32 19 11 8.2332 -0.6909
32 20 0 -1.7571 10.7487
32 20 1 6.1608 -3.9578
32 20 2 1.1129 0.4174
32 20 3 1.8833 0.1584
32 20 4 6.8168 -1.2700
32 20 5 -4.9884 0.6214
32 20 6 -1.4809 -0.5153
32 20 7 0.2317 -0.1262
32 20 8 -2.7463 0.1663
32 20 9 -10.6482 0.4273
32 20 10 -7.0121 0.1925
32 20 11 -0.3482 -0.3132
32 21 1 4.4618 0.4614
32 21 2 3.2636 1.4108
32 21 3 2.7899 -0.7806
32 21 4 2.1831 0.8198
32 21 5 1.4831 -0.6276
32 21 6 1.2382 0.0609
32 21 7 -11.7093 -0.3901
32 21 8 3.2617 -0.5673
32 21 9 1.7953 0.7037
32 21 10 -17.7231 0.7444
32 21 11 -10.5643 0.9274
32 22 0 -17.8425 1.4028
32 22 1 -6.1218 -2.2723
32 22 2 -3.3268 0.9493
32 22 3 3.8757 0.1469
32 22 4 -5.4530 0.5161
32 22 5 0.9089 0.0884
32 22 6 1.0612 -0.8296
32 22 7 -1.2655 -0.0859
32 22 8 0.6432 -0.9754
32 22 9 -2.7415 0.3097
32 22 10 7.5669 -0.0974
32 23 1 -13.4487 -3.1352
32 23 2 -3.6846 0.2809
32 23 3 4.3023 -2.2137
32 23 4 -5.7749 -0.1837
32 23 5 1.7729 -0.3428
32 23 6 7.7370 -0.0806
32 23 7 2.2978 -0.0478
32 23 8 -0.3512 -0.1943
32 23 9 6.4353 0.2104
32 23 10 -13.6897 0.0284
32 24 0 6.2365 0.7090
32 24 1 2.2250 -0.3468
32 24 2 -3.0044 0.6424
32 24 3 2.2073 -0.8198
32 24 4 0.2898 0.8815
32 24 5 0.1262 0.3462
32 24 6 -0.2770 0.4935
32 24 7 1.6992 0.2885
32 24 8 6.0221 -0.4506
32 24 9 -2.1454 -0.1119
32 25 1 -3.7684 2.1424
32 25 2 4.0631 2.7328
32 25 3 -0.4251 0.4396
32 25 4 -9.6596 0.3351
32 25 5 -1.9681 -0.4744
32 25 6 9.9875 0.1784
32 25 7 -3.0033 -0.0992
32 25 8 -4.2871 1.2702
32 25 9 2.4231 -0.6925
32 26 0 -4.5782 -1.0190
32 26 1 -4.7070 -1.5347
32 26 2 -2.7472 -1.0996
32 26 3 6.0183 0.4758
32 26 4 -2.9287 0.6088
32 26 5 -6.6054 -0.6880
32 26 6 -3.5552 0.2939
32 26 7 2.7027 0.4515
32 26 8 -0.2140 0.1253
32 27 1 -3.8888 4.0618
32 27 2 1.6700 -0.1652
32 27 3 -2.0514 0.0477
32 27 4 -10.5880 1.1398
32 27 5 0.5464 -0.9568
32 27 6 0.4269 -0.8249
32 27 7 6.8139 -0.1246
32 28 0 -7.4853 -1.1655
32 28 1 -2.5705 -0.4441
32 28 2 6.3229 0.7485
32 28 3 0.8882 0.6633
32 28 4 -2.9949 0.1836
32 28 5 -9.0357 0.6733
32 28 6 -3.4635 -0.3321
32 29 1 -8.8851 0.4268
32 29 2 4.1015 0.7801
32 29 3 2.1330 0.5993
32 29 4 4.3759 0.4664
32 29 5 -3.6099 -1.4048
32 30 0 -7.0333 0.9254
32 30 1 -1.4895 -0.6615
32 30 2 -0.7627 -1.1596
32 30 3 -10.1733 1.2919
32 30 4 7.3748 -1.7005
32 31 1 -0.8927 1.1462
32 31 2 5.2703 0.1059
32 31 3 -5.8142 -1.8796
32 32 0 -8.2254 -5.7377
32 32 1 5.5895 -0.1667
32 32 2 7.0876 -0.3198
33 1 0 -3.2817 -12.4218
33 1 1 9.5964 1.5983
33 1 2 3.5208 1.1747
33 1 3 3.1196 1.2736
33 1 4 -0.3467 1.9201
33 1 5 -7.0395 0.9851
33 1 6 -0.1695 1.4179
33 1 7 -0.6898 -0.0463
33 1 8 -2.7223 0.4026
33 1 9 -4.5977 0.5692
33 1 10 0.2106 -0.2126
33 1 11 14.6659 -0.0692
33 1 12 7.3668 -0.2196
33 1 13 4.2272 0.5200
33 1 14 -13.5293 0.5810
33 2 1 0.1087 -0.4556
33 2 2 1.4785 -1.2491
33 2 3 0.4510 1.3639
33 2 4 -3.7591 -0.1934
33 2 5 -0.1750 1.5538
33 2 6 -2.6551 -0.2681
33 2 7 -1.9605 -0.2368
33 2 8 8.5284 -0.4250
33 2 9 -2.9790 -0.3574
33 2 10 -16.7444 0.6304
33 2 11 -5.8110 -0.6611
33 2 12 3.8459 -0.3944
33 2 13 3.7405 0.5432
33 2 14 -1.8774 -0.3370
33 3 0 -13.6888 2.6938
33 3 1 -1.5927 2.0777
33 3 2 -5.7071 0.8415
33 3 3 -1.2695 1.0171
33 3 4 -1.4685 -1.7408
33 3 5 -2.6852 -1.3519
33 3 6 12.4830 -0.0995
33 3 7 0.6222 -1.1832
33 3 8 4.4101 -0.0079
33 3 9 4.8578 -0.4777
33 3 10 4.0763 0.0921
33 3 11 -2.6236 0.5155
33 3 12 -3.2521 -1.0090
33 3 13 -0.1990 0.3030
33 3 14 4.6025 -1.0365
33 4 1 3.7143 2.8640
33 4 2 1.7477 -4.3979
33 4 3 -1.0588 -0.2008
33 4 4 -2.6027 -1.6569
33 4 5 -6.3427 -0.2287
33 4 6 2.9350 -0.0805
33 4 7 -3.9365 0.6764
33 4 8 7.2321 1.1718
33 4 9 0.6970 0.0199
33 4 10 2.0886 0.3821
33 4 11 0.6311 0.4071
33 4 12 10.1321 -0.7464
33 4 13 -14.1640 -0.0146
33 4 14 -6.8592 -0.6673
33 5 0 -5.1842 -10.9129
33 5 1 0.9666 -1.6659
33 5 2 3.0739 0.0321
33 5 3 -1.8627 0.6284
33 5 4 -2.5383 0.9970
33 5 5 -5.0256 0.9360
33 5 6 1.5493 1.5310
33 5 7 -6.1014 0.4167
33 5 8 0.0997 0.7593
33 5 9 3.0468 0.6312
33 5 10 -2.7162 -0.4197
33 5 11 12.6096 0.2398
33 5 12 2.1781 0.0142
33 5 13 -4.3930 0.4664
33 6 1 3.8378 5.5002
33 6 2 5.8696 1.8695
33 6 3 6.2123 1.4868
33 6 4 1.1007 -0.1436
33 6 5 -0.4825 -0.5738
33 6 6 -0.9061 -0.0161
33 6 7 -0.3358 0.6199
33 6 8 -3.7196 -0.8469
33 6 9 -8.6181 0.0617
33 6 10 -6.0042 0.5217
33 6 11 -7.6436 -0.8039
33 6 12 17.4225 0.7651
33 6 13 1.2630 -0.0870
33 7 0 -3.6598 -8.6060
33 7 1 -3.7416 0.2530
33 7 2 -1.6075 0.7945
33 7 3 1.6405 1.2383
33 7 4 2.7871 -0.3420
33 7 5 8.3509 -0.2936
33 7 6 -4.7038 -2.1692
33 7 7 0.3392 -0.4568
33 7 8 -2.0801 -0.4934
33 7 9 -2.7833 -0.4188
33 7 10 0.9979 -0.1496
33 7 11 -2.8778 -0.3280
33 7 12 3.2354 -0.3983
33 7 13 2.8255 1.1293
33 8 1 -4.7701 -2.5981
33 8 2 -2.5534 1.2052
33 8 3 -6.9384 -2.1718
33 8 4 -1.6463 -1.1369
33 8 5 5.9939 0.1363
33 8 6 1.2045 -0.6732
33 8 7 5.9706 0.2872
33 8 8 -5.3334 0.8472
33 8 9 -0.0085 0.3126
33 8 10 2.5397 0.3723
33 8 11 -0.7729 -0.2431
33 8 12 2.2419 -0.3091
33 8 13 -1.3425 0.0663
33 9 0 8.5595 0.7835
33 9 1 3.4691 3.4643
33 9 2 2.1742 0.3437
33 9 3 -2.4662 1.5312
33 9 4 -1.6675 -0.5716
33 9 5 7.1104 0.3562
33 9 6 1.6409 -0.3608
33 9 7 6.2598 -0.3985
33 9 8 -11.6410 1.0594
33 9 9 -3.1018 1.0443
33 9 10 -2.9387 0.4256
33 9 11 -2.4557 0.2081
33 9 12 -3.4766 -0.0701
33 9 13 -6.1862 0.2464
33 10 1 -2.1313 4.5369
33 10 2 1.1728 1.4105
33 10 3 -0.8188 -0.2763
33 10 4 -1.9835 1.2100
33 10 5 -4.8176 -1.4589
33 10 6 6.7493 1.0251
33 10 7 5.1766 -0.0303
33 10 8 -8.8650 -0.3941
33 10 9 -9.4242 0.7738
33 10 10 1.6500 -0.3259
33 10 11 -0.3023 -0.1301
33 10 12 14.2573 0.6110
33 10 13 2.6912 -0.4122
33 11 0 -0.0643 -4.2676
33 11 1 0.0371 0.4155
33 11 2 -3.8957 -0.1897
33 11 3 -10.9617 -0.8414
33 11 4 -2.1260 -0.8351
33 11 5 -0.2181 -1.4917
33 11 6 -11.4492 -0.5776
33 11 7 14.2600 0.3300
33 11 8 -2.7605 0.4915
33 11 9 1.3976 0.2858
33 11 10 -7.3305 -0.7348
33 11 11 -12.8332 -0.2722
33 11 12 5.4679 -0.7283
33 11 13 1.5740 0.5326
33 12 1 -2.4879 -2.4651
33 12 2 7.1391 2.1083
33 12 3 -0.9292 -2.3284
33 12 4 -3.2820 1.0106
33 12 5 -0.7230 -0.5703
33 12 6 -6.5147 -0.9026
33 12 7 9.6062 0.6105
33 12 8 -7.0863 -0.2834
33 12 9 4.9367 0.6178
33 12 10 6.3171 -0.2382
33 12 11 -8.8276 -0.7880
33 12 12 1.5732 -0.1663
33 13 0 4.1861 1.6555
33 13 1 -4.3481 0.1658
33 13 2 -1.1067 1.3137
33 13 3 -3.8834 0.5922
33 13 4 5.3034 0.8511
33 13 5 15.1973 0.3912
33 13 6 -7.3617 1.0381
33 13 7 8.9387 0.0273
33 13 8 -0.7830 0.7134
33 13 9 -2.8588 0.0851
33 13 10 -0.6315 0.2197
33 13 11 1.4723 0.1330
33 13 12 5.2459 -0.6559
33 14 1 -1.1577 0.9000
33 14 2 6.7512 2.4947
33 14 3 -4.1541 0.0503
33 14 4 9.3636 0.7430
33 14 5 -4.2447 -0.4361
33 14 6 9.5481 0.1736
33 14 7 4.9370 -0.6480
33 14 8 3.8716 -0.8246
33 14 9 -8.6890 0.1757
33 14 10 -3.5240 -0.1643
33 14 11 -8.8839 0.0670
33 14 12 5.5309 0.6827
33 15 0 -6.7989 4.4731
33 15 1 5.0921 4.7621
33 15 2 -7.6589 -0.9145
33 15 3 -14.4949 -1.8402
33 15 4 0.1227 -1.3157
33 15 5 -1.6696 -2.2629
33 15 6 -10.8166 0.2089
33 15 7 4.8672 0.0048
33 15 8 -6.6224 -0.3399
33 15 9 0.6882 0.6622
33 15 10 -3.0971 0.0513
33 15 11 -11.2323 0.2229
33 15 12 11.4362 -0.1075
33 16 1 -11.4470 -0.7857
33 16 2 1.7977 2.6086
33 16 3 -2.4100 -2.7386
33 16 4 -5.5266 0.2467
33 16 5 3.3598 -1.0272
33 16 6 4.0734 -0.8820
33 16 7 10.0220 0.6475
33 16 8 3.4928 -1.1202
33 16 9 3.5281 0.2719
33 16 10 -0.5097 -0.7693
33 16 11 8.2038 -0.1928
33 16 12 1.0369 0.1877
33 17 0 14.3388 -1.7961
33 17 1 3.0540 2.7257
33 17 2 4.7332 -0.5170
33 17 3 -1.5406 -0.4576
33 17 4 -1.7670 -0.4365
33 17 5 -3.0414 0.0353
33 17 6 -3.5942 1.0116
33 17 7 1.4393 0.4468
33 17 8 -0.4910 0.6651
33 17 9 -4.9773 -0.7795
33 17 10 -8.0879 -0.4421
33 17 11 -4.7615 -0.8035
33 18 1 -5.4531 0.8896
33 18 2 -2.0106 2.0763
33 18 3 -0.5405 0.9592
33 18 4 1.4587 0.7609
33 18 5 -12.1699 0.3719
33 18 6 1.9654 0.7740
33 18 7 -8.5076 0.1904
33 18 8 0.0708 -0.2723
33 18 9 -0.8859 -0.5995
33 18 10 -1.8800 -0.2224
33 18 11 -5.3670 1.1158
33 19 0 -8.5435 -3.0219
33 19 1 -4.1145 2.3838
33 19 2 1.3762 -1.2512
33 19 3 -6.7758 -0.5607
33 19 4 -3.7623 0.1723
33 19 5 5.4519 -1.1345
33 19 6 -4.7616 0.0710
33 19 7 5.7552 0.0772
33 19 8 -13.9048 0.0870
33 19 9 -0.4383 -0.7024
33 19 10 7.6205 -0.8539
33 19 11 -5.7243 -0.5630
33 20 1 -6.8712 -1.8635
33 20 2 2.9810 -0.3413
33 20 3 -1.7783 -2.0177
33 20 4 -4.9758 -0.0613
33 20 5 -1.2348 0.1415
33 20 6 -1.8421 -1.0673
33 20 7 6.5839 0.0026
33 20 8 6.0708 -1.2223
33 20 9 -1.9352 -0.0438
33 20 10 -8.9497 -0.2000
33 21 0 2.6738 1.6893
33 21 1 -4.2992 0.9934
33 21 2 3.9253 0.6509
33 21 3 -2.1219 0.4303
33 21 4 2.9513 0.2586
33 21 5 -4.6691 0.1591
33 21 6 -4.2051 0.9837
33 21 7 -4.9921 -0.3634
33 21 8 -10.8249 -0.7808
33 21 9 16.5170 -0.0945
33 21 10 0.5015 -0.2950
33 22 1 -0.5666 0.9427
33 22 2 -0.4672 0.3674
33 22 3 -8.9728 1.1829
33 22 4 -1.0315 0.1040
33 22 5 5.7591 0.6221
33 22 6 9.2282 0.4908
33 22 7 -5.8891 0.9261
33 22 8 1.3003 -0.3436
33 22 9 -5.8822 0.1295
33 22 10 -6.8415 1.0662
33 23 0 -0.9788 -1.6684
33 23 1 -2.5491 -1.1900
33 23 2 9.7191 -0.5294
33 23 3 9.6608 0.2644
33 23 4 -3.8253 -0.2349
33 23 5 -15.3675 -0.7285
33 23 6 -3.8358 0.7501
33 23 7 11.3929 -0.7773
33 23 8 -11.8766 -0.4873
33 23 9 17.4467 -0.1189
33 24 1 -4.9637 -3.3510
33 24 2 -15.2977 0.0007
33 24 3 3.8800 -1.4053
33 24 4 5.5682 -0.5228
33 24 5 -1.4725 0.3556
33 24 6 -7.2989 -0.1729
33 24 7 -13.6776 0.5781
33 24 8 8.0102 0.4011
33 25 0 -0.4346 -5.0674
33 25 1 0.6477 -1.1302
33 25 2 -7.2704 -1.1911
33 25 3 1.3849 0.9181
33 25 4 -1.9744 0.9691
33 25 5 1.8604 1.6758
33 25 6 -6.5363 0.4653
33 25 7 -2.6725 0.8771
33 25 8 -9.9997 0.1939
33 26 1 9.9680 -0.0802
33 26 2 1.8031 0.4319
33 26 3 -1.9105 -0.0156
33 26 4 -0.7603 0.2527
33 26 5 5.2345 0.9495
33 26 6 4.2092 -0.1679
33 26 7 -4.0659 0.3336
33 27 0 -11.3119 0.3543
33 27 1 -13.0808 2.5012
33 27 2 2.7346 1.1856
33 27 3 11.6736 0.5270
33 27 4 -8.4634 0.6577
33 27 5 -3.3410 -0.0245
33 27 6 0.2042 -1.0878
33 28 1 -3.7134 0.0606
33 28 2 -12.0874 -2.7329
33 28 3 5.0709 -1.2353
33 28 4 1.8598 -0.4261
33 28 5 -4.0913 -1.2575
33 29 0 -2.2836 -5.7910
33 29 1 -5.5479 -0.5429
33 29 2 1.3255 0.1582
33 29 3 3.1783 0.8024
33 29 4 0.7151 -0.5579
33 30 1 -9.0958 -0.7983
33 30 2 -6.0062 0.2618
33 30 3 -1.8027 0.9395
33 31 0 9.3020 0.3633
33 31 1 0.0466 -1.3093
33 31 2 5.0080 -0.2053
34 1 1 -4.2111 0.5077
34 1 2 6.2326 -0.0206
34 1 3 0.5814 -0.0716
34 1 4 5.6545 -0.1348
34 1 5 -4.6449 -0.0731
34 1 6 -4.6284 -0.6585
34 1 7 10.0044 0.6362
34 1 8 3.4702 -0.2678
34 1 9 2.8005 -0.4762
34 1 10 -6.0871 0.3241
34 1 11 -9.3559 -0.6301
34 1 12 -0.9715 0.5139
34 1 13 3.8440 -0.4329
34 2 0 -5.4875 -0.3743
34 2 1 -8.2778 3.0700
34 2 2 -1.1574 0.4128
34 2 3 4.5874 0.4272
34 2 4 5.9858 -1.4746
34 2 5 -0.8812 0.5384
34 2 6 4.0824 -0.9943
34 2 7 -4.1199 -0.1566
34 2 8 4.9064 0.1002
34 2 9 11.7597 0.0957
34 2 10 11.3171 0.1467
34 2 11 -22.3139 0.4339
34 2 12 -5.7134 0.5552
34 2 13 -8.3067 -0.1685
34 3 1 -8.9923 -3.5457
34 3 2 2.6208 -0.0194
34 3 3 2.1362 0.8294
34 3 4 5.1889 -0.3351
34 3 5 -0.8562 0.8420
34 3 6 -1.7437 0.4263
34 3 7 -4.6366 0.0254
34 3 8 -0.4800 0.8373
34 3 9 1.6783 -0.0972
34 3 10 10.2970 -0.3501
34 3 11 4.7014 -0.0271
34 3 12 -3.4208 -0.2261
34 4 0 -0.7489 -5.3736
34 4 1 -5.8271 0.4969
34 4 2 -2.3687 -1.0890
34 4 3 -2.8381 0.8283
34 4 4 -4.9733 0.9031
34 4 5 -3.7365 -0.3551
34 4 6 -1.8379 -0.3222
34 4 7 -3.0355 0.0426
34 4 8 -4.3811 0.0016
34 4 9 2.2986 0.4479
34 4 10 10.6822 0.0983
34 4 11 4.9988 0.0927
34 4 12 8.5300 1.0124
34 4 13 12.9944 -0.0619
34 5 1 -3.5043 -0.7929
34 5 2 3.2737 -3.2376
34 5 3 5.2506 -0.3118
34 5 4 -1.3541 1.0167
34 5 5 3.2221 0.9050
34 5 6 2.4429 -0.9915
34 5 7 -0.5130 0.4093
34 5 8 -3.5759 -0.4728
34 5 9 -8.3570 -0.3255
34 5 10 -2.6572 0.7907
34 5 11 -10.0478 -1.5107
34 5 12 3.3388 -0.1559
34 5 13 2.0972 -0.8986
34 6 0 4.9413 -8.7512
34 6 1 -9.2633 0.0039
34 6 2 -0.0995 1.3599
34 6 3 0.0862 -0.0367
34 6 4 -0.6342 1.1209
34 6 5 6.0955 0.0935
34 6 6 5.3907 0.5693
34 6 7 3.9650 -0.4455
34 6 8 0.1307 -0.4125
34 6 9 -9.3167 -0.0688
34 6 10 2.4805 -0.2080
34 6 11 -18.7873 0.0820
34 6 12 1.2125 0.1067
34 6 13 3.0824 -0.7693
34 7 1 -1.9479 -3.0189
34 7 2 -4.4470 0.7146
34 7 3 0.0211 2.5362
34 7 4 -7.5630 -0.2823
34 7 5 1.5326 0.8350
34 7 6 2.6493 -0.5171
34 7 7 8.4727 -0.1158
34 7 8 5.2901 -0.3718
34 7 9 -3.9208 0.0308
34 7 10 12.9153 0.7999
34 7 11 0.2457 0.4362
34 7 12 -6.4982 0.4844
34 7 13 6.4814 0.3731
34 8 0 11.4802 -3.1288
34 8 1 -8.1042 1.7041
34 8 2 -0.9624 0.0882
34 8 3 -0.6149 0.7463
34 8 4 -4.6707 1.0156
34 8 5 -0.9603 -1.2684
34 8 6 -7.7935 -0.1857
34 8 7 8.1104 -0.5915
34 8 8 7.1305 0.0069
34 8 9 -6.4728 0.1515
34 8 10 -0.5434 0.5103
34 8 11 -3.4256 0.6901
34 8 12 9.1901 0.7158
34 8 13 3.4026 0.3695
34 9 1 -3.8927 -2.7982
34 9 2 -4.6309 -0.1179
34 9 3 0.0493 0.4300
34 9 4 -6.5048 0.4165
34 9 5 0.4357 0.1899
34 9 6 -1.4219 -0.0635
34 9 7 -14.0352 -0.0874
34 9 8 6.8947 -0.3277
34 9 9 -5.5856 0.0393
34 9 10 6.3345 0.3322
34 9 11 -4.4325 -1.2982
34 9 12 -5.2551 0.5267
34 9 13 3.8545 -0.8479
34 10 0 14.0307 -6.8163
34 10 1 -1.7300 1.4680
34 10 2 1.1778 -0.4613
34 10 3 -1.5193 0.4138
34 10 4 4.1950 1.7153
34 10 5 -0.2076 -0.4889
34 10 6 -4.0056 0.6420
34 10 7 5.4492 -0.4432
34 10 8 2.6590 0.0136
34 10 9 -7.4511 0.9213
34 10 10 10.6342 -0.4890
34 10 11 -9.3741 0.5660
34 10 12 11.5461 -0.9315
34 11 1 5.0512 -0.0528
34 11 2 2.8249 -1.3505
34 11 3 1.6905 0.4593
34 11 4 -4.3871 -0.6277
34 11 5 4.8672 -0.5478
34 11 6 -5.4295 0.1306
34 11 7 3.2619 -0.8043
34 11 8 -4.5204 0.0262
34 11 9 -5.0679 0.4677
34 11 10 2.9589 0.0167
34 11 11 -6.3313 0.1889
34 11 12 -6.2092 0.1779
34 12 0 1.5288 -10.9002
34 12 1 -14.4874 3.4102
34 12 2 0.5427 1.3922
34 12 3 3.8794 0.3529
34 12 4 1.5170 3.0177
34 12 5 3.8258 -0.3654
34 12 6 -4.5780 0.4302
34 12 7 -2.2113 -0.0675
34 12 8 5.5771 -0.8251
34 12 9 -15.9390 0.1525
34 12 10 -1.1901 -1.0848
34 12 11 -3.2070 0.0110
34 12 12 -4.6347 -0.2605
34 13 1 -4.7157 0.7535
34 13 2 2.9045 1.4217
34 13 3 -2.6895 1.4869
34 13 4 0.2337 0.5278
34 13 5 4.8833 -0.1154
34 13 6 5.1267 -0.0535
34 13 7 6.4059 -0.7896
34 13 8 18.6366 0.5032
34 13 9 -8.0563 -0.2321
34 13 10 -6.2188 0.5233
34 13 11 -4.0026 -0.6759
34 13 12 -1.6190 0.5666
34 14 0 3.8056 -2.4782
34 14 1 -5.1198 1.0545
34 14 2 2.7254 0.1227
34 14 3 -2.3913 -0.0011
34 14 4 4.6688 -0.4714
34 14 5 -9.0907 -1.6290
34 14 6 -9.9957 0.1814
34 14 7 -8.6797 -0.6094
34 14 8 11.7723 0.2396
34 14 9 11.0485 0.2814
34 14 10 -0.2777 -0.0245
34 14 11 -6.5006 -0.1177
34 14 12 0.3462 -0.3501
34 15 1 -9.3133 1.7513
34 15 2 -1.7545 2.1992
34 15 3 -5.1161 1.6020
34 15 4 1.6454 0.2297
34 15 5 9.5853 0.0042
34 15 6 -0.2747 -0.8537
34 15 7 0.4094 -0.5549
34 15 8 1.3868 0.7387
34 15 9 2.2277 0.1673
34 15 10 3.0972 -0.4488
34 15 11 8.1898 0.1510
34 16 0 7.5731 -2.6042
34 16 1 -0.7825 0.1483
34 16 2 -2.9515 -0.0608
34 16 3 5.8531 0.6221
34 16 4 -1.0634 1.0119
34 16 5 -10.8493 -1.0364
34 16 6 2.3662 1.3761
34 16 7 -2.5948 -0.7490
34 16 8 1.1705 0.6395
34 16 9 7.0620 0.2844
34 16 10 -9.7930 -1.2934
34 16 11 -6.7848 -0.3791
34 17 1 -3.3738 3.1390
34 17 2 -7.5565 -2.0629
34 17 3 -2.5693 0.3328
34 17 4 3.5846 -0.8735
34 17 5 -10.6204 -0.5652
34 17 6 -9.1298 -0.3766
34 17 7 -1.3712 -0.9548
34 17 8 -2.4949 0.7438
34 17 9 -4.3267 0.7301
34 17 10 2.2674 -0.1062
34 17 11 -9.7587 -0.8246
34 18 0 0.7481 -7.3274
34 18 1 0.6551 -0.0686
34 18 2 1.2425 0.6762
34 18 3 -0.4272 -0.7644
34 18 4 -0.6309 0.5640
34 18 5 -2.4865 -0.3857
34 18 6 -13.5702 0.4129
34 18 7 -3.5229 0.0431
34 18 8 -3.2804 -0.2133
34 18 9 0.7814 0.3310
34 18 10 -5.6841 0.4644
34 19 1 -7.3555 0.1640
34 19 2 4.6247 -0.0664
34 19 3 8.8325 2.0235
34 19 4 1.4502 -1.1790
34 19 5 8.2168 0.8582
34 19 6 1.0064 -0.3755
34 19 7 2.4720 0.4350
34 19 8 5.2000 0.0489
34 19 9 -5.1172 -0.2270
34 19 10 4.0617 -0.5570
34 20 0 7.7376 3.1295
34 20 1 -3.5502 0.6111
34 20 2 -1.9476 -0.3773
34 20 3 6.8505 0.6128
34 20 4 -2.3376 -0.2786
34 20 5 -3.8262 -0.6418
34 20 6 4.7643 -0.5333
34 20 7 -8.0192 -1.1581
34 20 8 -1.3822 -0.3647
34 20 9 -0.3455 -0.3837
34 20 10 -11.2120 -1.7337
34 21 1 -6.0198 4.1689
34 21 2 -7.7228 -1.9864
34 21 3 -8.0709 1.0391
34 21 4 0.1264 -0.7220
34 21 5 2.9416 -0.5064
34 21 6 -2.8478 -0.2478
34 21 7 5.2446 -0.3099
34 21 8 -13.7459 -0.2426
34 21 9 -4.7344 0.0726
34 22 0 -0.6090 1.9823
34 22 1 -1.0015 -0.6511
34 22 2 9.5380 -0.4990
34 22 3 -2.6212 0.0377
34 22 4 -10.2809 -0.8692
34 22 5 -9.3645 0.2806
34 22 6 -0.0351 0.4276
34 22 7 5.0999 0.5059
34 22 8 -4.5348 0.8454
34 22 9 0.5452 -0.0347
34 23 1 -11.5426 -0.0043
34 23 2 -5.4201 -2.4874
34 23 3 8.9237 -0.6836
34 23 4 6.8153 -0.1817
34 23 5 1.1913 0.4716
34 23 6 -14.6050 -0.3272
34 23 7 3.0047 0.8528
34 23 8 1.6578 0.0438
34 24 0 -4.2568 5.3041
34 24 1 -1.2443 0.1988
34 24 2 -7.1779 0.4605
34 24 3 -4.9329 0.6794
34 24 4 6.7494 -0.1320
34 24 5 4.4965 0.2380
34 24 6 7.0049 -0.1528
34 24 7 -10.7049 -0.5065
34 25 1 -4.2063 -0.1116
34 25 2 -0.4945 0.0433
34 25 3 -5.3072 -0.1556
34 25 4 3.3056 -0.2523
34 25 5 0.8693 0.5829
34 25 6 0.5644 0.2385
34 26 0 -10.2855 1.1201
34 26 1 -1.4909 0.2053
34 26 2 -0.2453 -0.1214
34 26 3 -8.6359 -0.8050
34 26 4 -3.2839 0.1589
34 26 5 -6.0726 -1.3676
34 27 1 -12.4784 -0.7526
34 27 2 -10.2700 0.6685
34 27 3 4.5320 0.1149
34 27 4 0.2965 -0.4192
34 27 5 -3.0335 1.2368
34 28 0 8.6229 -2.7809
34 28 1 9.3896 1.8415
34 28 2 -11.3186 0.8301
34 28 3 -2.7300 -0.3280
34 28 4 8.6478 1.6155
34 29 1 -0.4381 -0.8984
34 29 2 0.3483 -1.5274
34 29 3 -4.7356 2.3186
34 30 0 0.6537 0.1225
34 30 1 2.0470 0.4201
34 30 2 -0.3803 0.9633
35 1 0 11.1864 -0.9164
35 1 1 -6.5858 -1.1585
35 1 2 -2.9960 0.4450
35 1 3 -5.9316 -0.1978
35 1 4 1.8787 0.6360
35 1 5 3.8983 0.2373
35 1 6 3.1501 0.4242
35 1 7 -5.0295 0.1013
35 1 8 6.4812 0.2808
35 1 9 0.3152 0.4383
35 1 10 15.2822 -0.3483
35 1 11 4.1862 -0.1532
35 1 12 4.6949 0.6132
35 2 1 4.9414 -1.8593
35 2 2 -5.2477 -1.1515
35 2 3 4.8724 0.2920
35 2 4 -3.0505 0.2721
35 2 5 -2.7990 -0.3713
35 2 6 -2.2164 0.8241
35 2 7 3.0748 -0.7520
35 2 8 -4.9718 -0.8114
35 2 9 -2.4297 0.6501
35 2 10 5.9424 -0.8512
35 2 11 9.9249 0.0843
35 2 12 1.9553 0.0246
35 3 0 6.0514 9.4822
35 3 1 -4.9253 3.1534
35 3 2 -3.1659 0.4637
35 3 3 -2.4854 -0.8822
35 3 4 -3.7294 -1.1984
35 3 5 -1.1062 0.1373
35 3 6 -1.3563 -0.5771
35 3 7 0.5989 -0.5125
35 3 8 -8.8106 -0.9466
35 3 9 2.6459 -0.1998
35 3 10 -5.5205 0.6194
35 3 11 10.8061 0.2924
35 3 12 -2.6024 -0.1748
35 4 1 2.5087 0.3244
35 4 2 -1.2365 -2.4365
35 4 3 6.2545 -0.0886
35 4 4 0.9063 -0.2621
35 4 5 -5.5935 -0.3544
35 4 6 -2.6547 1.9831
35 4 7 8.5843 -0.3691
35 4 8 5.2693 1.2087
35 4 9 -10.5627 -0.1959
35 4 10 -2.0821 0.0071
35 4 11 1.4279 0.6460
35 4 12 -17.5031 -0.9119
35 5 0 9.2190 -4.1880
35 5 1 -1.9782 0.6817
35 5 2 -6.7736 -1.7622
35 5 3 -2.7400 -2.3702
35 5 4 5.2721 0.6214
35 5 5 -7.8483 0.9051
35 5 6 3.5762 1.4784
35 5 7 -2.4393 0.4062
35 5 8 -2.8892 0.0559
35 5 9 -4.2677 0.2827
35 5 10 -1.0034 -0.7001
35 5 11 5.6081 -0.1338
35 5 12 -1.2755 0.2371
35 5 13 -12.0538 -0.9165
35 6 1 8.7538 1.6244
35 6 2 0.1076 0.2152
35 6 3 -0.5870 1.8644
35 6 4 -1.8700 0.4921
35 6 5 -2.4390 0.8686
35 6 6 -5.0931 0.1881
35 6 7 -8.1597 -0.6843
35 6 8 10.2799 -0.8789
35 6 9 -4.7497 -1.0292
35 6 10 -1.9916 -0.3901
35 6 11 2.5025 0.2212
35 6 12 0.3171 0.0582
35 7 0 -3.8492 8.4207
35 7 1 -2.3871 0.5974
35 7 2 -2.8801 -0.1842
35 7 3 -1.3817 -0.8950
35 7 4 4.3224 -0.2870
35 7 5 1.1397 0.3212
35 7 6 12.9514 -0.3652
35 7 7 -1.2421 0.1176
35 7 8 0.9856 0.0041
35 7 9 -1.0356 -1.0257
35 7 10 1.5588 0.7609
35 7 11 7.7904 -0.0611
35 7 12 -7.8800 -0.1431
35 8 1 8.8014 -1.2567
35 8 2 -11.0893 -3.9324
35 8 3 -2.3637 0.6620
35 8 4 0.4027 -1.1388
35 8 5 0.7258 1.0995
35 8 6 8.5715 0.8526
35 8 7 -8.7213 -0.0958
35 8 8 8.4554 1.3516
35 8 9 -6.4489 -0.8560
35 8 10 5.8873 0.2164
35 8 11 0.0018 0.3463
35 9 0 1.7481 9.0027
35 9 1 5.9135 -1.9918
35 9 2 5.5127 -0.9650
35 9 3 -11.3721 0.5278
35 9 4 -2.7880 0.0477
35 9 5 -6.5338 0.8430
35 9 6 5.6111 0.4314
35 9 7 -0.6465 0.1839
35 9 8 0.7566 -0.1139
35 9 9 -14.0611 -0.0909
35 9 10 -4.5681 -0.1662
35 9 11 1.9443 -0.3257
35 9 12 0.4309 0.0110
35 10 1 3.1610 -0.6790
35 10 2 7.3771 -1.3752
35 10 3 1.6513 1.1218
35 10 4 -0.9486 -1.1861
35 10 5 6.4664 1.1199
35 10 6 -1.1851 0.3064
35 10 7 -1.7869 -0.6712
35 10 8 4.2093 -0.1187
35 10 9 -3.1779 0.0304
35 10 10 -4.8728 -0.9300
35 10 11 -6.3850 0.4273
35 10 12 -8.5123 -1.4077
35 11 0 -1.6972 1.7339
35 11 1 -1.6646 -4.1771
35 11 2 -0.2344 -0.7640
35 11 3 2.2441 -0.9898
35 11 4 0.1770 -0.0467
35 11 5 2.2092 0.8748
35 11 6 3.5717 -0.3411
35 11 7 4.0005 0.7153
35 11 8 5.8789 -0.6344
35 11 9 -9.0505 -0.3402
35 11 10 -6.0118 0.3761
35 11 12 0.8872 0.6144
35 12 1 -6.0669 -2.0706
35 12 2 -7.0643 0.7837
35 12 3 -2.1504 0.5319
35 12 4 5.0389 -0.2278
35 12 5 2.1850 1.0130
35 12 6 4.8954 -0.7559
35 12 7 -5.2914 0.9023
35 12 8 9.4528 0.9862
35 12 9 11.4178 0.0831
35 12 10 -1.4767 0.3686
35 12 11 -4.1719 -0.5497
35 12 12 -1.6790 -0.1063
35 13 0 10.5272 3.4009
35 13 1 -2.3872 -3.6385
35 13 2 -3.2841 -0.1286
35 13 3 -12.9040 1.4910
35 13 4 -0.4731 0.5023
35 13 5 0.6129 1.8619
35 13 6 -1.2358 -0.0226
35 13 7 -7.5667 -0.6024
35 13 8 5.0048 -0.2278
35 13 9 7.1868 0.0936
35 13 10 1.2350 0.3024
35 13 11 -0.6510 0.0163
35 14 1 -0.6817 -0.6292
35 14 2 -4.9607 -0.6833
35 14 3 2.8611 1.6359
35 14 4 2.3784 -0.4711
35 14 5 7.3475 0.1956
35 14 6 8.0950 -0.2891
35 14 7 -6.8446 -1.0982
35 14 8 -19.4469 -0.0754
35 14 9 8.7795 -0.7407
35 14 10 0.5725 -0.4271
35 14 11 3.2962 0.1788
35 15 0 1.5106 6.1188
35 15 1 -5.1842 -1.4983
35 15 2 1.0127 -0.3041
35 15 3 -6.1179 0.2975
35 15 4 -0.8733 -1.0324
35 15 5 6.9928 -0.0363
35 15 6 3.4178 -0.6048
35 15 7 0.3948 -0.1848
35 15 8 3.0659 -1.1925
35 15 9 -4.1277 1.2838
35 15 10 -4.5565 -0.0741
35 15 11 -7.7135 0.9468
35 16 1 -11.8645 -1.0744
35 16 2 -2.0191 -1.8841
35 16 3 -5.0312 -0.8732
35 16 4 7.3012 0.0206
35 16 5 -3.6773 0.0527
35 16 6 8.7246 -0.0255
35 16 7 5.6791 0.5375
35 16 8 -3.3376 0.3117
35 16 9 1.5821 -0.7820
35 16 10 13.3135 1.0072
35 17 0 10.0005 0.3908
35 17 1 -1.5544 -3.7019
35 17 2 -7.4792 2.2616
35 17 3 -8.2815 0.1102
35 17 4 0.3978 0.4116
35 17 5 -0.7971 1.0036
35 17 6 -8.0105 -0.3962
35 17 7 0.9440 0.2420
35 17 8 2.9410 -0.1789
35 17 9 -7.5227 -0.5931
35 17 10 2.5295 -0.2079
35 18 1 4.4627 2.3602
35 18 2 -5.3262 0.9868
35 18 3 -3.7068 1.8205
35 18 4 -3.8696 0.3831
35 18 5 -0.8273 -0.2036
35 18 6 -2.0359 -0.5174
35 18 7 -0.7729 -0.3334
35 18 8 -0.0494 -0.7797
35 18 9 12.8398 -0.5603
35 18 10 -5.1460 -0.5596
35 19 0 1.8752 -4.0318
35 19 1 9.1352 -1.4290
35 19 2 9.0194 0.0941
35 19 3 -1.1996 -0.2905
35 19 4 -1.8404 0.1528
35 19 5 -7.9490 -1.2184
35 19 6 6.4027 -0.7654
35 19 7 -14.0305 0.0511
35 19 8 -4.6805 -0.7953
35 19 9 -6.9008 -0.2169
35 20 1 -12.4653 -1.8763
35 20 2 -4.7754 0.3084
35 20 3 -0.4317 -0.5169
35 20 4 1.2275 0.0474
35 20 5 -19.1023 -0.6979
35 20 6 9.0724 -1.1955
35 20 7 1.7527 0.1646
35 20 8 -5.0821 -0.0417
35 20 9 -6.3651 -0.0060
35 21 0 6.1363 4.1631
35 21 1 -0.8196 1.4104
35 21 2 -5.9768 1.2208
35 21 3 0.7057 0.8839
35 21 4 -0.3986 -0.5213
35 21 5 0.8950 0.7638
35 21 6 -7.9870 -0.0079
35 21 7 -4.5627 -0.5826
35 21 8 6.2584 0.4636
35 22 1 4.1827 3.9971
35 22 2 -2.2442 -0.3881
35 22 3 -2.7098 0.9438
35 22 4 -0.7490 0.3953
35 22 5 3.9154 -0.4244
35 22 6 0.0023 1.2421
35 22 7 -0.6397 0.6066
35 22 8 -4.2859 -0.7216
35 23 0 -11.2122 -5.7582
35 23 1 -4.8108 1.5433
35 23 2 3.8269 1.7350
35 23 3 -4.6841 -0.9816
35 23 4 -1.3004 -0.3578
35 23 5 -4.9235 -1.0994
35 23 6 6.5704 -0.6192
35 23 7 -19.5043 -0.6308
35 24 1 -8.3016 -0.2717
35 24 2 2.0405 -0.0023
35 24 3 -7.7429 -0.1351
35 24 4 12.0425 -0.0049
35 24 5 0.4455 -0.9489
35 24 6 6.3674 0.4420
35 25 0 8.6674 -0.5569
35 25 1 4.8385 -1.4540
35 25 2 0.4069 0.4671
35 25 3 -18.5105 0.2559
35 25 4 -1.0223 1.2282
35 25 5 6.6384 0.1602
35 26 1 5.8202 1.2839
35 26 2 3.9137 2.0507
35 26 3 -8.5690 0.9072
35 26 4 -23.7021 -0.4488
35 26 5 2.6617 0.7714
35 27 0 -4.5547 4.1520
35 27 1 -1.0081 1.6969
35 27 2 6.7941 -0.9213
35 27 3 4.8271 0.3631
35 27 4 -1.2360 0.4921
35 28 1 7.9291 0.0778
35 28 2 -4.2981 -0.0256
35 28 3 -9.1320 -1.0131
35 29 0 -13.3904 -0.9335
35 29 1 -3.3761 1.3658
35 29 2 6.1321 1.2169
36 1 1 4.4513 3.1827
36 1 2 -0.3077 -0.4465
36 1 3 -0.9212 -0.2672
36 1 4 -2.1562 1.2153
36 1 5 -0.3420 -0.6361
36 1 6 3.7039 0.1557
36 1 7 5.4152 -0.0376
36 1 8 0.9155 -0.0255
36 1 9 6.2776 -0.1159
36 1 10 -5.5717 0.4013
36 1 11 0.2348 0.1900
36 1 12 -1.1740 0.9955
36 2 0 -6.6121 2.2388
36 2 1 10.5222 -0.3355
36 2 2 -0.9833 1.1636
36 2 3 2.7307 -1.7551
36 2 4 1.5265 -0.2211
36 2 5 1.3095 0.3238
36 2 6 -9.9046 -0.8370
36 2 7 3.6487 0.5866
36 2 8 -3.3468 0.8847
36 2 9 5.3431 -0.8396
36 2 10 -3.5951 0.3563
36 2 11 1.7689 -0.5971
36 2 12 -4.7143 -0.4214
36 3 1 1.4014 0.4366
36 3 2 3.1303 3.5575
36 3 3 -1.1409 0.0016
36 3 4 3.2148 -0.3755
36 3 5 -0.5978 -0.6278
36 3 6 -1.2134 -0.0578
36 3 7 6.8166 -0.3038
36 3 8 -2.0386 0.0696
36 3 9 4.0624 0.1017
36 3 10 3.7254 -0.6851
36 3 11 -2.2979 -0.5434
36 3 12 0.4167 -1.3190
36 4 0 -13.1738 1.5041
36 4 1 -5.1625 -2.6281
36 4 2 -11.3718 -0.6593
36 4 3 -5.4087 -0.4938
36 4 4 2.5745 -0.2255
36 4 5 -4.2951 -0.6512
36 4 6 2.5621 0.5276
36 4 7 -8.3586 0.4787
36 4 8 -0.9562 0.6252
36 4 9 -1.4836 -0.3515
36 4 10 3.2186 0.5928
36 4 11 10.5479 -0.7002
36 4 12 3.2756 0.2049
36 5 1 2.3728 1.5404
36 5 2 -0.2940 2.0359
36 5 3 -3.9682 -1.0550
36 5 4 -0.4350 0.0391
36 5 5 0.1832 -0.4736
36 5 6 -9.6295 -0.3940
36 5 7 7.1280 0.3279
36 5 8 -0.0494 0.0082
36 5 9 -2.1722 0.2897
36 5 10 -9.6793 -0.3285
36 5 11 0.2410 0.2972
36 6 0 -16.5950 2.8995
36 6 1 0.4354 -1.2988
36 6 2 -2.6118 1.2873
36 6 3 0.7308 -0.5278
36 6 4 -5.6756 -0.7593
36 6 5 7.2237 2.0144
36 6 6 5.6352 -0.3424
36 6 7 -2.9281 0.3117
36 6 8 -0.1996 0.7088
36 6 9 13.8455 -0.3095
36 6 10 2.4438 -0.0711
36 6 11 4.0150 -0.5667
36 7 1 -4.0851 1.5234
36 7 2 0.7377 2.4496
36 7 3 4.5946 -1.3891
36 7 4 1.3598 -0.4976
36 7 5 -6.4889 -0.4740
36 7 6 -0.5190 -0.1140
36 7 7 4.9480 0.1602
36 7 8 -2.0317 -0.3977
36 7 9 -1.4895 0.1419
36 7 10 -0.6437 -0.2152
36 7 11 4.9890 -0.6365
36 8 0 -3.0016 6.1450
36 8 1 7.7190 0.0095
36 8 2 0.2175 0.6001
36 8 3 -5.0430 -0.4989
36 8 4 2.1113 -0.6814
36 8 5 -3.2141 -0.5894
36 8 6 -1.2361 -0.8973
36 8 7 -4.2018 0.3431
36 8 8 -6.3639 -0.7957
36 8 9 1.8859 -0.0167
36 8 10 -2.4543 1.0126
36 8 11 7.5919 -0.6576
36 9 1 -4.1764 1.5821
36 9 2 3.0743 -0.6899
36 9 3 -1.8679 -1.2390
36 9 4 -9.3465 -0.1363
36 9 5 0.0495 -0.2485
36 9 6 -6.0125 0.6064
36 9 7 1.0258 1.0792
36 9 8 9.4320 0.7643
36 9 9 4.3070 0.5987
36 9 10 -6.2845 -1.1537
36 9 11 -5.5522 0.2071
36 10 0 3.1595 7.6769
36 10 1 5.8179 -4.8150
36 10 2 -2.5320 0.0347
36 10 3 5.1524 0.0660
36 10 4 -6.1089 -0.3388
36 10 5 5.2493 0.6826
36 10 6 5.5553 0.0173
36 10 7 0.3515 0.4068
36 10 8 -16.6019 0.1856
36 10 9 6.3463 0.9494
36 10 10 8.5355 0.7398
36 11 1 -1.2880 1.7207
36 11 2 1.1956 0.2534
36 11 3 7.8564 -2.2041
36 11 4 -2.7015 -0.5372
36 11 5 -4.2453 -0.2953
36 11 6 0.2376 -0.2794
36 11 7 -0.9682 0.6276
36 11 8 6.2940 -0.9208
36 11 9 -7.6510 0.5317
36 11 10 -1.7255 -0.6684
36 12 0 7.0071 4.7872
36 12 1 0.5551 -2.1109
36 12 2 -6.8682 0.2316
36 12 3 -9.2823 0.2674
36 12 4 2.5932 0.1217
36 12 5 1.4374 0.2539
36 12 6 -2.3986 0.4384
36 12 7 4.3417 -0.0581
36 12 8 -7.6506 -0.9246
36 12 9 1.6963 0.6130
36 12 10 0.9097 -0.0197
36 13 1 3.5565 -0.3148
36 13 2 -0.2184 0.6862
36 13 3 -1.2835 -1.7028
36 13 4 -1.0986 0.7381
36 13 5 5.4802 0.1369
36 13 6 7.7255 0.3789
36 13 7 -0.8842 1.1889
36 13 8 2.8684 -0.6496
36 13 9 0.7869 0.0342
36 13 11 -4.4621 -0.0277
36 14 0 -8.2302 5.4036
36 14 1 5.0747 0.9961
36 14 2 -6.0838 0.0557
36 14 3 0.1755 -0.2151
36 14 4 -0.5311 -1.4652
36 14 5 -1.4350 1.1050
36 14 6 2.7037 -0.9369
36 14 7 5.6216 0.3978
36 14 8 2.5091 -0.6362
36 14 9 1.2447 0.3363
36 15 1 -3.7580 -0.2482
36 15 2 -0.6012 0.9200
36 15 3 3.9702 -1.0732
36 15 4 1.4549 0.2642
36 15 5 5.6474 -0.9940
36 15 6 3.8006 0.9260
36 15 7 -1.5439 0.4952
36 15 8 1.1037 -0.2012
36 15 9 -3.8114 -0.0088
36 16 0 8.4709 -3.7824
36 16 1 0.3017 -0.6177
36 16 2 -3.2025 -1.3387
36 16 3 -8.3035 0.9247
36 16 4 5.7564 -0.5533
36 16 5 -7.0850 -0.0650
36 16 6 -2.2818 -0.1953
36 16 7 -3.6273 -0.5377
36 16 8 0.8428 -0.2119
36 16 9 -12.3364 0.4224
36 16 10 -7.8857 0.3975
36 17 1 1.8436 -0.7569
36 17 2 -5.9905 -0.1704
36 17 3 -5.4482 -1.2288
36 17 4 -3.3967 0.7700
36 17 5 2.2163 -1.1130
36 17 6 -2.4993 -0.0006
36 17 7 -3.1979 -0.4938
36 17 8 7.0252 -0.2045
36 17 9 -9.2263 -0.3208
36 17 10 3.0579 -0.1593
36 18 0 1.1008 -5.2629
36 18 1 18.9463 1.4679
36 18 2 4.4440 0.3040
36 18 3 -1.1779 0.1596
36 18 4 1.5830 0.2621
36 18 5 -7.6767 1.2552
36 18 6 -3.6690 -0.7454
36 18 7 -11.5029 -0.6348
36 18 8 4.2786 -0.5008
36 18 9 -7.0473 -0.5799
36 19 1 -7.8525 -4.8380
36 19 2 0.0025 1.3221
36 19 3 2.5120 -0.0367
36 19 4 2.6786 0.6758
36 19 5 0.3724 0.7923
36 19 6 5.3294 0.6583
36 19 7 -2.6685 -0.2914
36 19 8 -1.3114 0.0410
36 20 0 -8.5351 4.0344
36 20 1 -6.6517 1.4465
36 20 2 -10.1224 -1.0089
36 20 3 -0.1554 0.6879
36 20 4 8.0658 -0.2252
36 20 5 0.6646 -1.3624
36 20 6 -0.6785 -0.9641
36 20 7 8.6476 -0.5765
36 20 8 1.6540 1.0257
36 21 1 -2.8768 0.6348
36 21 2 -9.9706 -1.7701
36 21 3 -3.2813 1.6432
36 21 4 -6.5640 0.8159
36 21 5 0.4784 0.2364
36 21 6 0.7799 -0.3353
36 21 7 2.5441 -1.5067
36 22 0 -10.1641 -2.9633
36 22 1 1.2438 -0.0969
36 22 2 -0.1026 0.4961
36 22 3 -1.6877 -0.2236
36 22 4 -4.4871 1.1861
36 22 5 -9.3360 0.2603
36 22 6 -8.0637 0.5700
36 23 1 -9.9780 -1.5538
36 23 2 6.3430 -0.8763
36 23 3 3.7114 0.0253
36 23 4 1.7343 0.1979
36 23 5 4.1684 -0.4504
36 24 0 5.1606 -0.3816
36 24 1 5.5968 -0.7644
36 24 2 2.4646 0.2544
36 24 3 3.7848 0.8240
36 24 4 -7.8072 -0.2301
36 24 5 1.6826 1.4573
36 25 1 -11.5545 0.5629
36 25 2 -1.7009 0.5379
36 25 3 -1.8477 0.7524
36 25 4 -20.3333 0.2792
36 26 0 -4.9866 2.4291
36 26 1 -2.6094 -1.4992
36 26 2 0.9525 -2.2566
36 26 3 1.9705 1.5797
36 26 4 -7.5598 -0.7962
36 27 1 -11.4910 2.4832
36 27 2 5.4572 1.4996
36 27 3 4.6691 -1.5185
36 28 0 -11.4239 0.3722
37 1 0 -5.8027 -7.4396
37 1 1 4.2600 -1.4356
37 1 2 5.3552 -1.5181
37 1 3 0.8525 0.1616
37 1 4 -2.2803 0.1591
37 1 5 -9.1777 0.4576
37 1 6 -5.8201 0.3314
37 1 7 -6.3321 -0.3775
37 1 8 -10.0501 -0.2862
37 1 9 3.2588 0.5346
37 1 10 6.2710 -1.1932
37 1 11 1.6984 0.8047
37 1 12 -2.2594 -0.5545
37 2 1 -10.2118 -2.1164
37 2 2 6.4944 2.4212
37 2 3 -0.9583 -1.4908
37 2 4 3.3943 -0.0081
37 2 5 -3.4662 -0.6036
37 2 6 -0.5971 -1.3904
37 2 7 4.2991 -0.4218
37 2 8 0.9809 -0.4200
37 2 9 -8.3337 0.6309
37 2 10 -3.2103 -0.6297
37 2 11 3.0907 -0.0157
37 2 12 -0.5530 -0.5121
37 3 0 -4.8261 0.2836
37 3 1 -9.9241 2.6826
37 3 2 -9.9039 0.8178
37 3 3 -7.9910 1.2115
37 3 4 2.7494 1.2402
37 3 5 0.0748 -0.8736
37 3 6 6.2078 -0.0000
37 3 7 -3.1206 -1.3417
37 3 8 8.8763 -0.6289
37 3 9 -3.3600 -0.3947
37 3 10 5.9906 0.0359
37 3 11 1.7412 -0.2994
37 3 12 -1.5317 -0.5263
37 4 1 -0.4287 -0.1465
37 4 2 5.6208 0.1171
37 4 3 2.1148 -0.8896
37 4 4 0.4559 0.2182
37 4 5 -0.2426 0.1946
37 4 6 -8.7223 0.1733
37 4 7 3.2633 0.5032
37 4 8 -5.4399 -0.4461
37 4 9 -0.4980 0.6407
37 4 10 -3.1239 -0.1009
37 4 11 2.2029 1.3848
37 5 0 -3.3386 -10.7494
37 5 1 3.4505 -1.2522
37 5 2 -1.2943 -0.4389
37 5 3 -0.4182 -0.2404
37 5 4 1.9328 0.9753
37 5 5 11.3139 -1.1947
37 5 6 -4.1970 1.5381
37 5 7 -12.4619 -0.1877
37 5 8 -4.8109 -0.7332
37 5 9 8.0224 0.8216
37 5 10 3.4157 -1.0176
37 5 11 6.7267 0.6715
37 6 1 -1.0341 -0.6747
37 6 2 2.6259 4.6729
37 6 3 -2.4902 0.0636
37 6 4 -1.0236 1.2293
37 6 5 1.7211 -0.2766
37 6 6 7.8582 -0.7663
37 6 7 4.0079 -0.0289
37 6 8 -18.4993 -1.7487
37 6 9 -17.4479 -0.7936
37 6 10 5.5465 -1.0420
37 6 11 12.1073 -0.3227
37 7 0 -0.7937 -4.2951
37 7 1 -3.5337 4.2144
37 7 2 -3.8435 1.4901
37 7 3 -1.7284 1.3609
37 7 4 2.5030 -0.2249
37 7 5 -2.5398 -0.5500
37 7 6 6.5173 -0.3550
37 7 7 -1.1935 -0.8440
37 7 8 -3.8328 -0.0792
37 7 9 -0.8357 0.0885
37 7 10 -18.8711 0.0816
37 7 11 -0.2134 -1.1973
37 8 1 1.4700 0.2714
37 8 2 1.8178 0.4676
37 8 3 -9.3009 -1.3943
37 8 4 -6.9839 0.1696
37 8 5 2.4580 -0.9137
37 8 6 10.7688 0.2324
37 8 7 13.7911 0.3937
37 8 8 5.5995 0.4850
37 8 9 -5.3854 -0.0121
37 8 10 9.7471 1.0739
37 8 11 2.9181 1.1337
37 9 0 -5.6805 -10.4252
37 9 1 7.6203 2.9863
37 9 2 -0.7757 0.2772
37 9 3 -0.8146 0.3448
37 9 4 -2.9001 0.5465
37 9 5 -5.9493 -1.2882
37 9 6 1.0554 0.6428
37 9 7 0.5750 -0.1790
37 9 8 5.5464 0.3687
37 9 9 -3.5773 0.6931
37 9 10 -4.3106 -0.9980
37 9 11 -1.3621 0.4461
37 10 1 1.9201 0.2173
37 10 2 3.4435 -0.4616
37 10 3 3.9419 -0.7998
37 10 4 -6.9323 0.0584
37 10 5 -2.8162 -0.6906
37 10 6 -4.3865 -0.6773
37 10 7 -3.2560 0.4797
37 10 8 0.0619 -0.2914
37 10 9 -10.9878 -0.4229
37 10 10 -0.1925 -0.4066
37 11 0 9.3818 -2.7184
37 11 1 0.5515 3.6078
37 11 2 -5.8544 0.5958
37 11 3 -1.3388 0.3971
37 11 4 1.6723 0.1553
37 11 5 -1.6406 -1.2630
37 11 6 7.0124 -0.2064
37 11 7 -4.4299 -0.1751
37 11 8 5.3047 0.4651
37 11 9 7.9812 0.3997
37 11 10 -2.1614 0.3403
37 12 1 9.3381 2.0344
37 12 2 5.1006 -0.3779
37 12 3 0.7077 0.5257
37 12 4 -1.0102 0.3853
37 12 5 6.8018 -0.0457
37 12 6 1.4062 0.5414
37 12 7 4.5210 0.5121
37 12 8 0.0048 0.5274
37 12 9 -1.9716 -0.1801
37 12 10 14.0575 -0.0497
37 13 0 -14.0692 -3.5833
37 13 1 0.9001 -0.7529
37 13 2 -4.2520 1.4150
37 13 3 1.5208 0.8472
37 13 4 3.9779 -0.3845
37 13 5 10.8145 0.1289
37 13 6 7.5660 -0.8549
37 13 7 6.9215 -0.7346
37 13 8 1.9994 1.5591
37 13 9 -8.2899 -0.3766
37 14 1 -0.7766 -0.7503
37 14 2 3.9278 -0.0638
37 14 3 -3.6444 0.3293
37 14 4 -8.7737 0.3406
37 14 5 6.9924 0.3385
37 14 6 5.4578 -0.8648
37 14 7 6.7001 0.2751
37 14 8 3.4310 -0.6964
37 14 9 9.5944 0.7148
37 15 0 1.2376 1.9048
37 15 1 -2.0264 3.4016
37 15 2 -2.4878 -0.1980
37 15 3 -4.2884 -0.7846
37 15 4 -9.3033 -0.1348
37 15 5 -13.2206 -2.1747
37 15 6 -8.6598 -0.1859
37 15 7 -3.4073 -1.0251
37 15 8 -6.4905 1.1619
37 15 9 -1.4970 0.0143
37 16 1 0.3040 -0.8490
37 16 2 -5.9132 -0.4291
37 16 3 -1.0478 -0.5467
37 16 4 -3.2856 -0.2420
37 16 5 7.7787 -0.2226
37 16 6 0.4299 0.2272
37 16 7 1.3741 0.4629
37 16 8 -5.6036 0.4963
37 17 0 10.4493 -0.1237
37 17 1 11.7162 -0.3396
37 17 2 3.7889 -0.8108
37 17 3 -0.9473 0.4585
37 17 4 -7.8810 -1.1091
37 17 5 7.0062 0.3099
37 17 6 2.0845 0.3556
37 17 7 2.7239 0.6125
37 17 8 0.9900 0.7920
37 18 1 -2.0193 0.5393
37 18 2 -2.6417 0.9580
37 18 3 -10.7394 1.4840
37 18 4 -7.4568 0.6178
37 18 5 -6.4300 -0.6382
37 18 6 1.6644 -0.2045
37 18 7 -6.4444 -1.0353
37 19 0 -1.8831 0.6077
37 19 1 -2.4244 1.3344
37 19 2 2.6512 -0.8375
37 19 3 0.0491 -1.0478
37 19 4 -3.8366 -0.6911
37 19 5 0.8421 0.2335
37 19 6 -5.6370 -0.1941
37 20 1 -5.6115 -1.0638
37 20 2 -0.7623 -0.1862
37 20 3 4.6227 -0.7409
37 20 4 -2.1331 0.3619
37 20 5 10.6298 -0.4947
37 20 6 -6.1239 -0.6939
37 21 0 5.5140 5.7526
37 21 1 -1.9069 -0.1531
37 21 2 -8.1365 -0.3553
37 21 3 2.7220 0.6628
37 21 4 2.3710 -0.2922
37 21 5 -1.3432 1.0611
37 21 6 -10.3432 0.0846
37 22 1 2.7105 1.8686
37 22 2 -6.8169 -0.1547
37 22 3 -10.0600 -0.8326
37 22 4 4.2770 -0.5523
37 22 5 11.4737 -0.7861
37 23 0 2.5348 -1.3830
37 23 1 10.8497 0.2771
37 23 2 5.6172 0.0879
37 23 3 2.9234 -1.5216
37 23 4 -22.8494 -0.7495
37 23 5 -6.3740 -0.1502
37 24 1 -10.6520 -1.4258
37 24 2 -6.1446 1.4450
37 24 3 6.3474 0.7578
37 24 4 -5.6153 -1.2580
37 25 0 9.3932 1.3869
37 25 1 -6.8926 -2.3042
37 25 2 -10.0846 -0.2469
37 25 3 3.5356 0.9932
37 26 1 0.8872 1.9594
37 26 2 0.5474 0.5418
38 1 1 -0.3122 2.6767
38 1 2 1.7791 -0.8086
38 1 3 -0.2260 -0.3679
38 1 4 -2.8055 -0.3707
38 1 5 1.4012 -0.3138
38 1 6 1.5792 0.0672
38 1 7 -3.7771 -0.5243
38 1 8 3.4633 0.2845
38 1 9 -0.6031 -0.3859
38 1 10 5.8204 0.2872
38 1 11 3.3753 -0.7009
38 2 0 11.8147 -7.9053
38 2 1 -10.8090 0.6800
38 2 2 -6.5722 -0.0036
38 2 3 2.3445 -0.1259
38 2 4 1.7732 0.2005
38 2 5 1.5923 0.3195
38 2 6 3.6746 0.0940
38 2 7 -5.6166 -0.4045
38 2 8 5.9006 -0.5435
38 2 9 -9.2835 -0.7464
38 2 10 3.4505 -0.3968
38 2 11 2.0633 0.0062
38 3 1 1.9894 -1.4581
38 3 2 -1.1911 -1.7948
38 3 3 0.2560 0.2865
38 3 4 0.0110 -0.2136
38 3 5 2.1556 0.1680
38 3 6 2.3037 1.2094
38 3 7 0.9441 -0.6828
38 3 8 -9.2640 1.1743
38 3 9 0.7972 -1.4010
38 3 10 -1.9641 -0.0085
38 3 11 1.6148 -1.1494
38 4 0 -0.2224 -3.6004
38 4 1 -1.8186 0.7350
38 4 2 -11.1054 -0.7529
38 4 3 -2.2001 1.0676
38 4 4 -8.3217 0.1903
38 4 5 -2.8304 0.0210
38 4 6 0.6049 0.0641
38 4 7 -0.0298 -0.2291
38 4 8 3.5677 -0.4473
38 4 9 -10.4928 0.2499
38 4 10 8.1048 -0.7375
38 4 11 3.6107 -0.3593
38 5 1 -1.9301 -1.0939
38 5 2 1.3499 -0.6915
38 5 3 -2.5806 0.7429
38 5 4 -2.5129 0.2109
38 5 5 -4.2277 0.3018
38 5 6 5.5425 -0.4683
38 5 7 4.9595 -0.0145
38 5 8 -5.1737 0.0436
38 5 9 -1.1391 -0.7772
38 5 10 -0.7201 -0.1645
38 5 11 4.3195 -1.1328
38 6 0 -0.8898 -5.2196
38 6 1 -2.0145 -0.7642
38 6 2 0.6284 -0.3391
38 6 3 1.9042 0.9484
38 6 4 -0.6698 0.3529
38 6 5 -11.0653 0.1507
38 6 6 3.9878 0.1025
38 6 7 -2.0276 -0.7792
38 6 8 11.3164 -0.0482
38 6 9 -11.9232 -0.9023
38 6 10 -11.2339 -0.2478
38 6 11 0.9393 -0.6901
38 7 1 -1.0963 -2.2100
38 7 2 -8.0632 -1.6376
38 7 3 1.6067 1.4474
38 7 4 -2.4037 -0.4728
38 7 5 1.5991 0.5592
38 7 6 -5.5485 -0.1786
38 7 7 2.7553 -0.5729
38 7 8 -6.4029 -0.1744
38 7 9 13.6301 -0.2303
38 7 10 2.4434 1.4700
38 8 0 -3.8383 4.9473
38 8 1 5.0387 3.7783
38 8 2 0.1831 0.3914
38 8 3 -1.6480 1.1809
38 8 4 -7.2461 -1.3716
38 8 5 -3.5303 -0.6843
38 8 6 7.3871 0.4403
38 8 7 1.9012 -0.5416
38 8 8 2.9851 0.2379
38 8 9 -9.2781 -0.3598
38 8 10 12.2707 0.0388
38 9 1 1.1533 -2.2561
38 9 2 -1.3044 -0.4573
38 9 3 2.3397 1.4542
38 9 4 -3.9773 -0.4691
38 9 5 -4.7448 1.0669
38 9 6 -12.0972 -0.5735
38 9 7 4.2040 0.4532
38 9 8 -6.4877 0.0056
38 9 9 9.7212 -0.2303
38 9 10 -1.9578 -0.3413
38 10 0 -0.2898 -2.8681
38 10 1 4.1763 -0.8974
38 10 2 4.9634 -1.6612
38 10 3 4.4672 -0.5254
38 10 4 3.9896 -0.8846
38 10 5 -0.5984 -0.0007
38 10 6 2.9532 -0.1422
38 10 7 -5.2246 0.2795
38 10 8 -5.8626 0.1242
38 10 9 0.9481 0.3449
38 10 10 -1.7750 0.3152
38 11 1 1.1008 0.3987
38 11 2 3.1361 -0.9259
38 11 3 3.2981 1.6481
38 11 4 7.8844 0.7591
38 11 5 4.4137 -0.0543
38 11 6 1.0026 -0.5455
38 11 7 6.3983 -0.9070
38 11 8 -8.4222 -0.5989
38 11 9 -3.6425 0.0056
38 11 10 0.9760 0.7576
38 12 0 -13.9437 1.2452
38 12 1 0.4351 0.9253
38 12 2 -4.6408 -0.5028
38 12 3 2.0300 -0.4579
38 12 4 5.5212 0.1575
38 12 5 2.6925 0.6555
38 12 6 0.1640 0.9785
38 12 7 1.5845 -0.3102
38 12 8 2.2915 -0.6722
38 12 9 -4.7084 0.8761
38 12 10 2.1349 0.5180
38 13 1 -1.6442 1.5741
38 13 2 -2.7040 -0.1122
38 13 3 -1.1335 1.2159
38 13 4 -4.9739 -0.3803
38 13 5 10.9081 0.4104
38 13 6 2.2582 -0.8343
38 13 7 5.8863 0.4635
38 13 8 5.5836 -1.2732
38 13 9 7.9050 1.7455
38 14 0 -0.3895 3.4029
38 14 1 -0.6937 -0.2676
38 14 2 4.8784 1.1125
38 14 3 -1.5856 -1.7133
38 14 4 -12.1335 -0.6580
38 14 5 -12.3796 -0.5302
38 14 6 -5.6816 -0.3917
38 14 7 -1.1004 -1.2152
38 14 8 -11.9257 -0.5045
38 14 9 8.2091 0.2102
38 15 1 -3.7529 -0.0103
38 15 2 -2.2647 -0.2767
38 15 3 5.8429 0.6823
38 15 4 13.2430 -1.9905
38 15 5 -4.5911 -0.0635
38 15 6 -7.3130 -0.5869
38 15 8 -7.2243 0.0044
38 15 9 -8.3431 -0.3833
38 16 0 -4.2612 3.3566
38 16 1 15.9405 -1.5239
38 16 2 1.4662 0.0887
38 16 3 -5.8417 -1.0580
38 16 4 1.0176 0.5817
38 16 5 14.8848 -0.3640
38 16 6 -3.1435 -0.0362
38 16 8 -6.2570 -0.5760
38 17 1 -2.0639 2.0998
38 17 2 4.3233 1.2915
38 17 3 0.1046 0.7382
38 17 4 -9.9970 0.3794
38 17 5 0.9254 -0.2751
38 17 6 5.9941 -1.0404
38 17 8 -2.5868 -1.5540
38 18 0 -7.6230 -4.8990
38 18 1 -7.2894 0.6692
38 18 2 8.1361 1.0298
38 18 3 2.3493 -0.8316
38 18 4 0.4500 1.5778
38 18 5 -5.3923 0.1385
38 18 6 5.6621 -1.2539
38 18 8 -2.0907 -1.5174
38 19 1 -5.2809 -2.5167
38 19 2 -2.3906 1.2590
38 19 3 2.4434 -0.0236
38 19 4 1.9355 -1.1724
38 19 5 1.2981 0.1088
38 19 6 2.2182 -0.0572
38 20 0 0.0016 1.4441
38 20 1 -0.7733 2.7351
38 20 2 -2.3810 -0.1616
38 20 3 -0.1246 0.0699
38 20 4 -6.8265 -0.2676
38 20 5 -0.8342 -1.1197
38 21 1 0.4213 1.9276
38 21 2 -4.1024 2.0901
38 21 3 -4.7931 -1.0504
38 21 4 -0.1896 -0.1302
38 21 5 -0.0767 -0.8622
38 22 0 3.8064 -6.8232
38 22 1 7.0341 1.2707
38 22 2 3.8864 0.0166
38 22 3 -3.4123 -0.5841
38 22 4 -11.1150 1.0401
38 23 1 -6.9180 -0.7217
38 23 2 -1.9863 -0.1163
38 23 3 0.0470 0.2411
38 23 4 -3.4124 -0.5427
38 24 0 3.7783 -1.0265
38 24 1 -6.9448 1.3776
38 24 2 -5.5143 1.6226
38 24 3 0.6921 0.3604
38 25 1 -0.1132 0.2006
39 1 0 -12.8971 6.4439
39 1 1 -2.2939 -4.1172
39 1 2 5.4306 0.5693
39 1 3 1.4391 -1.1792
39 1 4 -2.7262 -1.4480
39 1 5 -0.2510 -0.4379
39 1 6 1.8898 -1.4101
39 1 7 4.3288 -0.0344
39 1 8 -5.2561 -0.0362
39 1 9 -4.4729 0.0643
39 1 10 -0.4060 -0.3625
39 2 1 2.0275 -1.3735
39 2 2 -6.3059 -1.3786
39 2 3 3.3240 0.5427
39 2 4 7.9417 0.0974
39 2 5 -9.2318 -0.0868
39 2 6 -4.0521 0.0857
39 2 7 2.8498 0.1230
39 2 8 12.5072 -0.0259
39 2 9 -0.9424 0.0121
39 2 10 -3.9527 0.3713
39 3 0 1.4900 8.9340
39 3 1 1.1597 -1.9218
39 3 2 -8.8292 1.1569
39 3 3 -6.8844 0.1646
39 3 4 0.3829 -0.0849
39 3 5 0.9883 0.2304
39 3 6 -6.8491 -1.2275
39 3 7 3.0168 -0.4642
39 3 8 -9.0105 -0.7498
39 3 9 2.4367 0.5287
39 3 10 2.3762 0.3553
39 4 1 8.2355 -1.0325
39 4 2 6.3111 -1.5234
39 4 3 -5.4436 -0.2157
39 4 4 4.1362 -0.2071
39 4 5 -10.9774 0.3446
39 4 6 2.8267 0.1331
39 4 7 -3.5319 -0.8151
39 4 8 7.4912 -0.1075
39 4 9 -10.6497 -0.8965
39 4 10 -11.9910 -2.3477
39 5 0 -0.8133 1.3852
39 5 1 -2.8206 -4.1815
39 5 2 5.3802 -0.4400
39 5 3 0.3137 -1.8773
39 5 4 3.2910 -0.8495
39 5 5 2.9464 0.7720
39 5 6 -5.2622 -0.1867
39 5 7 0.3555 0.3498
39 5 8 -7.0603 -0.7014
39 5 9 1.3956 0.2673
39 5 10 1.1172 -0.5769
39 6 1 -7.0887 -0.7941
39 6 2 -1.5595 1.8569
39 6 3 -3.3798 1.3133
39 6 4 3.5106 1.4205
39 6 5 -1.5591 -0.1885
39 6 6 3.0711 -0.9274
39 6 7 9.5843 0.1678
39 6 8 3.5545 -0.5580
39 6 9 -1.9047 -1.0738
39 6 10 5.3622 1.0724
39 7 0 -2.7695 13.8424
39 7 1 3.4309 -1.1514
39 7 2 -5.2808 0.4912
39 7 3 -14.8787 0.0650
39 7 4 -5.7911 -0.1052
39 7 5 8.7213 0.1752
39 7 6 1.3950 0.3128
39 7 7 8.9673 -0.2389
39 7 8 -4.1078 0.4679
39 7 9 -14.2703 -0.8325
39 8 1 0.1594 3.5601
39 8 2 6.2920 -2.3402
39 8 3 2.9513 0.8003
39 8 4 -0.8510 -0.7509
39 8 5 -7.9579 -1.6115
39 8 6 -1.8247 -0.1273
39 8 7 9.2433 -0.3203
39 8 8 5.3081 0.4251
39 8 9 -11.0287 -0.0294
39 8 10 -11.5946 -1.4066
39 9 0 1.3940 -3.0707
39 9 1 1.8957 -3.6354
39 9 2 2.6559 -0.6576
39 9 3 -6.0627 -1.3647
39 9 4 -3.7412 0.3388
39 9 5 8.9362 0.6564
39 9 6 -3.9343 -0.5728
39 9 7 11.2444 -0.1698
39 9 8 -6.0568 -0.0641
39 9 9 3.6673 -1.0344
39 10 1 -10.5521 -0.5178
39 10 2 9.0399 -0.2479
39 10 3 -4.4343 -0.2454
39 10 4 -4.5891 0.1569
39 10 5 -1.9095 -0.8516
39 10 6 0.4073 -0.7412
39 10 7 -0.4776 0.5482
39 10 8 10.3305 0.8061
39 10 9 -6.5902 -0.9055
39 11 0 13.0734 3.8456
39 11 1 -1.4924 1.2443
39 11 2 1.5300 -1.4447
39 11 3 0.6838 -0.0654
39 11 4 -0.8263 1.2774
39 11 5 7.9571 0.6707
39 11 6 -5.9374 -0.5548
39 11 7 4.3582 -0.2974
39 11 8 0.9649 -0.0821
39 11 9 -2.1211 -0.0164
39 12 1 -0.4023 4.3991
39 12 2 3.9688 1.2498
39 12 3 -2.4829 0.4568
39 12 4 -0.8740 -0.1718
39 12 5 5.7327 -0.2231
39 12 6 6.2951 -0.2673
39 12 7 -4.7294 -0.3306
39 12 8 1.3023 0.7110
39 12 9 3.3362 -0.5325
39 13 0 7.1805 -6.7115
39 13 1 -5.4252 -0.4498
39 13 2 -6.5702 -1.1387
39 13 3 -5.8749 -0.1232
39 13 4 -8.7938 0.0490
39 13 5 2.4982 0.4439
39 13 6 2.0417 -0.8177
39 13 7 6.4041 -0.0896
39 13 8 -3.7780 -0.6233
39 14 1 -1.6024 0.1910
39 14 2 8.0718 -0.4053
39 14 3 0.0893 -0.3214
39 14 4 -0.6829 -0.6504
39 14 5 -1.5608 -1.0703
39 14 6 -2.1495 0.9083
39 14 7 5.1992 -0.7898
39 14 8 4.2599 0.6050
39 15 0 6.7017 2.5552
39 15 1 -0.8316 0.5537
39 15 2 3.7466 -0.3455
39 15 3 -2.1852 0.4778
39 15 4 2.9151 -0.0164
39 15 5 6.1201 0.1782
39 15 6 -13.0461 -0.0331
39 15 8 -0.5179 0.7863
39 16 1 -16.5241 0.8596
39 16 2 2.3205 0.5480
39 16 3 -0.0214 -0.9459
39 16 4 -4.5543 -0.4944
39 16 5 5.2717 0.4763
39 16 6 5.9413 -0.1764
39 17 0 10.0340 -4.4637
39 17 1 -4.0093 -2.9458
39 17 2 -2.4197 0.4604
39 17 3 -0.2344 1.5994
39 17 4 7.3440 1.3105
39 17 5 -7.2832 -0.7416
39 17 6 6.0019 0.3935
39 18 1 -6.5735 -1.3292
39 18 2 -2.8928 0.8071
39 18 3 0.3140 0.6450
39 18 4 0.5474 0.2380
39 18 5 -5.8274 -0.5319
39 19 0 12.0607 -0.1267
39 19 1 3.6631 0.4069
39 19 2 6.7387 0.2485
39 19 3 -0.1889 0.2726
39 19 4 3.1530 1.3747
39 19 5 -2.3150 -2.0693
39 20 1 1.2414 -2.6630
39 20 2 -3.0371 -0.2550
39 20 3 1.6325 0.4126
39 20 4 10.3949 -0.6419
39 21 0 -0.5366 1.1330
39 21 1 -8.8964 -0.6564
39 21 2 1.4314 0.1385
39 21 3 -10.3795 0.3630
39 21 4 -1.2137 -0.6565
39 22 1 -1.9573 0.1832
39 22 2 -8.3980 -1.5094
39 22 3 -8.3483 0.3490
39 23 0 8.0551 -0.9828
39 23 1 -1.9872 2.6072
39 23 2 12.8373 1.0847
40 1 1 -6.0398 2.5303
40 1 2 5.5657 -0.5260
40 1 3 4.0487 -2.0469
40 1 4 -9.0641 0.5296
40 1 5 4.4932 -1.2171
40 1 6 -9.1995 -1.3414
40 1 7 2.6714 -0.5184
40 1 8 2.3041 -1.0748
40 1 9 9.4579 -0.7639
40 2 0 0.2699 -0.3602
40 2 1 -0.0094 -2.5803
40 2 2 -4.0432 -0.4420
40 2 3 1.2264 -1.4795
40 2 4 -1.9848 -0.4192
40 2 5 -3.4364 0.3232
40 2 6 -9.3470 0.1377
40 2 7 -9.6228 -0.3813
40 2 8 -8.9331 -0.0227
40 2 9 8.8956 -0.7941
40 3 1 -3.6843 -0.3911
40 3 2 -0.7227 -0.0397
40 3 3 -1.9393 0.0883
40 3 4 -0.0879 -0.4607
40 3 5 4.5808 -0.1308
40 3 6 -2.9299 -0.1592
40 3 7 2.0620 0.6071
40 3 8 0.1788 -0.5493
40 3 9 -5.1898 -0.2183
40 4 0 4.4705 3.2888
40 4 1 -6.5365 0.6919
40 4 2 -3.0250 0.2059
40 4 3 -6.5240 -0.5113
40 4 4 -2.0734 0.3107
40 4 5 2.1595 0.6085
40 4 6 -9.9939 -0.4800
40 4 7 -5.1942 0.2488
40 4 8 4.2918 -0.7924
40 4 9 8.1691 0.5091
40 5 1 2.4774 -0.4776
40 5 2 5.5503 1.6093
40 5 3 0.7352 -1.0853
40 5 4 -2.6539 0.2507
40 5 5 5.4624 -0.6307
40 5 6 -0.6742 -0.1010
40 5 7 3.2637 -0.1485
40 5 8 -4.4427 -0.8897
40 5 9 -3.8667 -0.6955
40 6 0 6.6898 -3.1148
40 6 1 -6.1486 0.1673
40 6 2 -4.9875 -0.6761
40 6 3 -1.1604 -0.3428
40 6 4 2.3842 -1.1315
40 6 5 7.8308 0.1673
40 6 6 3.4721 -0.8144
40 6 7 -0.6969 -0.1354
40 6 8 12.5089 -0.7052
40 6 9 -0.1767 -1.3523
40 7 1 1.2148 -0.0206
40 7 2 8.0871 0.3117
40 7 3 -3.9566 -0.5120
40 7 4 -8.8991 0.4965
40 7 5 -9.2442 -1.2692
40 7 6 1.6878 0.0651
40 7 7 -4.2019 -0.5991
40 7 8 5.9396 -0.2730
40 7 9 -0.4036 -0.5519
40 8 0 7.5615 -0.1587
40 8 1 0.5541 4.1893
40 8 2 0.8614 0.8012
40 8 3 4.0549 0.0604
40 8 4 3.8362 0.1920
40 8 5 -7.0207 0.3168
40 8 6 -3.3141 -0.8313
40 8 7 -14.0230 -0.4991
40 8 8 -2.1373 -0.7850
40 8 9 1.5136 0.3721
40 9 1 -2.3806 -0.2115
40 9 2 -2.0683 0.2725
40 9 3 -4.1792 -1.6340
40 9 4 -3.3465 -0.7523
40 9 5 -4.7121 -0.4487
40 9 6 3.9178 0.7632
40 9 7 4.2600 0.8083
40 9 8 7.1884 0.3411
40 10 0 10.7267 -9.8137
40 10 1 -3.2698 -1.8620
40 10 2 5.1647 -1.2121
40 10 3 0.6221 -0.3840
40 10 4 3.8501 0.5738
40 10 5 -5.8885 -0.9829
40 10 6 6.9422 0.3101
40 10 7 -9.8859 -0.3901
40 10 8 11.5832 -0.2614
40 11 1 8.1472 0.1923
40 11 2 -0.1922 0.8053
40 11 3 6.3749 0.1077
40 11 4 3.4708 -0.9595
40 11 5 2.7190 0.0231
40 11 6 2.3241 0.3035
40 11 7 -8.4699 -0.8682
40 11 8 -0.8908 0.6625
40 12 0 3.7073 -0.9679
40 12 1 -3.7466 1.1799
40 12 2 -3.9420 0.5703
40 12 3 -2.4149 1.2502
40 12 4 -4.3205 -0.0492
40 12 5 -6.1662 0.1967
40 12 6 15.5640 -0.2309
40 12 7 -5.8976 -0.4549
40 12 8 -7.6004 -0.4784
40 13 1 9.7601 -0.2089
40 13 2 0.9336 -1.2716
40 13 3 -6.7765 -2.5086
40 13 4 9.4215 -0.9621
40 13 5 -3.7140 -0.5264
40 13 6 0.3992 0.6430
40 13 7 4.3072 0.7775
40 14 0 0.9958 -2.5588
40 14 1 2.2089 1.0593
40 14 2 5.5421 1.8250
40 14 3 -6.0398 -0.0614
40 14 4 4.4906 -1.0073
40 14 5 -0.1126 -0.8399
40 14 6 6.7350 0.0985
40 14 7 -10.2578 -0.6663
40 15 1 2.3883 -1.5287
40 15 2 0.9345 -2.3675
40 15 3 -1.6286 0.3706
40 15 4 0.8792 -0.5216
40 15 5 9.0511 -0.2922
40 15 7 -7.7581 0.2032
40 16 0 4.0015 2.9078
40 16 1 0.8434 0.5411
40 16 2 0.4318 -0.6368
40 16 3 -4.3243 0.5552
40 16 4 7.3901 -0.9380
40 16 5 -1.5543 -0.5358
40 17 1 -0.9580 1.6080
40 17 2 4.1213 -0.2350
40 17 3 -8.7674 0.5467
40 17 4 1.1720 0.6805
40 17 5 8.0456 0.6673
40 18 0 0.4431 3.7148
40 18 1 3.7212 -3.1137
40 18 2 -2.5871 0.5946
40 18 3 -2.7218 -1.2183
40 18 4 -5.0519 -0.5164
40 19 1 1.0094 -0.6011
40 19 2 -4.0181 -2.0514
40 19 3 -1.1017 0.4531
40 19 4 1.6953 -0.2667
40 20 0 -11.3377 11.6064
40 20 1 2.3756 0.1356
40 20 2 1.9142 -1.8461
40 20 3 -13.0364 -0.9984
40 21 1 -8.7029 2.1350
40 21 2 -2.0955 0.3176
40 22 0 -0.8247 -0.3970
41 1 0 3.3810 -7.0224
41 1 1 -5.6519 3.5046
41 1 2 -11.8867 -1.6601
41 1 3 2.3931 0.0049
41 1 4 -3.6921 0.4818
41 1 5 -4.8259 -0.5727
41 1 6 0.1279 -0.4204
41 1 7 -7.0509 -1.1997
41 1 8 -7.9509 -0.1794
41 1 9 -0.8480 0.1841
41 2 1 0.0593 3.4954
41 2 2 -1.8104 -0.9220
41 2 3 -5.3189 0.2322
41 2 4 1.2873 -0.5943
41 2 5 -2.9229 -0.7551
41 2 6 -0.3606 0.0087
41 2 7 2.8958 -0.1026
41 2 8 -4.5009 0.2028
41 3 0 -1.6871 -4.1695
41 3 1 -4.6025 1.1524
41 3 2 -6.8266 -1.2711
41 3 3 0.9856 0.8034
41 3 4 -0.0159 0.6059
41 3 5 9.0419 0.0548
41 3 6 2.4986 -0.4606
41 3 7 -0.9250 -0.4198
41 3 8 1.6564 -0.6974
41 4 1 6.6510 0.3540
41 4 2 -0.2382 -0.6462
41 4 3 -4.0526 -0.7071
41 4 4 1.9534 -0.4047
41 4 5 7.0720 0.0914
41 4 6 7.4694 -0.6856
41 4 7 4.0128 0.1990
41 4 8 -8.3824 -0.2588
41 5 0 -0.4520 -5.1869
41 5 1 3.8575 1.0203
41 5 2 7.8546 -0.0176
41 5 3 -0.7376 0.2334
41 5 4 -3.6828 0.2610
41 5 5 0.6161 -0.2457
41 5 6 2.3404 -0.2788
41 5 7 3.8650 -1.0973
41 5 8 -3.5878 0.3208
41 6 1 2.2170 -2.1460
41 6 2 -3.1575 0.8472
41 6 3 -4.1356 1.0002
41 6 4 -2.6339 0.3683
41 6 5 -2.9637 0.2937
41 6 6 4.9875 0.0435
41 6 7 0.1020 -1.4622
41 6 8 0.7202 -0.4622
41 7 0 -6.2886 5.5333
41 7 1 0.0673 1.2637
41 7 2 1.0751 -0.7238
41 7 3 -5.2737 1.0347
41 7 4 -7.2045 -1.2641
41 7 5 -4.9946 -0.0591
41 7 6 -6.6585 -0.8706
41 7 7 2.7732 -0.6387
41 7 8 1.5780 0.5433
41 8 1 -0.7268 -2.1918
41 8 2 0.7250 -1.5996
41 8 3 -3.4354 -1.3808
41 8 4 2.9222 0.0224
41 8 5 0.5831 -0.4033
41 8 6 -1.4747 -0.8627
41 8 7 4.4721 0.4553
41 8 8 -4.2303 0.8927
41 9 0 -1.8304 -5.6561
41 9 1 0.6632 -0.3284
41 9 2 6.3462 -0.4253
41 9 3 -10.6037 -0.6857
41 9 4 2.6299 0.5382
41 9 5 4.3816 -0.8354
41 9 6 2.6708 -0.5037
41 9 7 4.4078 -0.7438
41 10 1 -1.5632 -4.9685
41 10 2 0.4379 0.0936
41 10 3 2.6402 -0.7169
41 10 4 -6.3574 1.4351
41 10 5 -8.2778 0.1337
41 10 6 -4.2841 -0.0105
41 10 7 5.7440 -1.1136
41 11 0 5.0855 8.9471
41 11 1 9.7044 0.4140
41 11 2 -3.6152 -0.1103
41 11 3 -2.0217 0.0056
41 11 4 -2.5924 -1.3376
41 11 5 4.8930 -0.6491
41 11 6 -1.5913 -0.6282
41 11 7 2.3676 -0.6627
41 12 1 10.9328 0.2948
41 12 2 5.9330 -0.1117
41 12 3 6.3518 -0.5910
41 12 4 -1.9978 0.1520
41 12 5 -3.5539 0.7451
41 12 6 -0.3893 -2.0871
41 13 0 -9.0871 -0.7804
41 13 1 -6.2072 -0.6104
41 13 2 10.0075 0.0767
41 13 3 -4.3399 -1.4508
41 13 4 0.0611 -0.1952
41 13 5 14.0065 -0.4256
41 13 6 -7.9172 0.2251
41 14 1 -7.0870 -1.9575
41 14 2 1.0537 1.0012
41 14 3 -3.7119 0.6519
41 14 4 -6.9320 -0.1943
41 14 5 1.7290 -0.1746
41 14 6 10.7206 0.7454
41 15 0 -0.1967 2.6169
41 15 1 4.1271 0.2396
41 15 2 0.5977 0.0321
41 15 3 1.8948 0.2183
41 15 4 -21.5703 -1.8924
41 15 5 -3.5644 -0.2879
41 16 1 -2.6451 -1.3056
41 16 2 3.4580 1.0770
41 16 3 8.2228 -1.0065
41 16 4 -1.7009 -0.5259
41 17 0 9.8645 -1.5952
41 17 1 3.7813 -0.8771
41 17 2 -2.1475 1.2613
41 17 3 4.4631 1.2622
41 17 4 -1.3983 -0.5868
41 18 1 2.1706 0.6088
41 18 2 2.8788 1.6823
41 18 3 -4.2725 -0.0667
41 19 0 -5.7124 2.0327
41 19 1 4.6241 -0.6853
41 19 2 -0.7454 -1.1246
41 20 1 -5.2379 -2.4013
42 1 1 9.0675 -0.8418
42 1 2 0.7032 -3.9372
42 1 3 -8.6484 -0.8578
42 1 4 1.8871 -1.3584
42 1 5 -5.0735 0.0296
42 1 6 -0.8363 -0.1135
42 1 7 -4.5670 -0.2791
42 2 0 4.8329 -3.6997
42 2 1 -6.2790 0.3582
42 2 2 5.0938 0.0065
42 2 3 1.6529 -0.6111
42 2 4 -3.4173 -0.9647
42 2 5 0.1546 0.1722
42 2 6 4.1939 0.0117
42 2 7 -6.1501 -0.6049
42 3 1 -1.4323 0.0493
42 3 2 -2.3259 -1.3371
42 3 3 3.8746 0.5198
42 3 4 5.3034 -0.3528
42 3 5 1.1887 0.1100
42 3 6 4.2609 0.2333
42 3 7 9.9933 0.1084
42 4 0 9.9315 1.1429
42 4 1 1.4912 1.8581
42 4 2 -2.9012 0.4941
42 4 3 -8.1660 -0.5356
42 4 4 -8.1352 -0.0596
42 4 5 4.3297 -1.2521
42 4 6 0.1656 -0.5202
42 4 7 -0.5942 -0.8937
42 5 1 -2.1374 -0.5394
42 5 2 8.6040 0.0588
42 5 3 5.7262 0.5559
42 5 4 -11.0783 -0.9857
42 5 5 -1.5103 0.0411
42 5 6 -6.0496 -0.3833
42 6 0 -11.5908 5.1193
42 6 1 4.2382 -1.2790
42 6 2 -3.0280 -0.8260
42 6 3 6.2080 -1.8030
42 6 4 -3.8181 -0.8354
42 6 5 5.5596 -1.7270
42 6 6 -1.5273 0.7246
42 6 7 -4.1721 -0.4556
42 7 1 -9.0511 0.8288
42 7 2 -4.5662 0.6164
42 7 3 0.2232 1.4468
42 7 4 -3.1063 -0.6480
42 7 5 3.6917 0.1315
42 7 6 -2.1562 -0.9512
42 7 7 4.9464 0.9174
42 8 0 3.7602 6.4576
42 8 1 6.6346 1.5362
42 8 2 -2.1604 0.3822
42 8 3 -3.1434 -1.0413
42 8 4 -3.2499 -0.4541
42 8 5 8.9907 0.3982
42 8 6 -3.1082 0.4341
42 8 7 -1.0301 0.1187
42 9 1 -1.3381 0.7036
42 9 2 9.3172 1.0438
42 9 3 -0.5935 -1.6249
42 9 4 -8.9429 0.6233
42 9 5 1.3087 -2.8325
42 9 6 2.2243 0.1014
42 10 0 -4.5851 -1.3708
42 10 1 10.5358 -1.4555
42 10 2 -10.4202 -0.8599
42 10 3 7.6872 -1.8877
42 10 4 2.6674 -0.6001
42 10 5 4.4238 -1.0121
42 11 1 6.0150 0.5223
42 11 2 4.7399 2.6570
42 11 3 -0.7151 0.1208
42 11 4 -3.2866 0.4237
42 11 5 4.4342 0.2271
42 12 0 -8.7125 1.1458
42 12 1 3.2093 1.2953
42 12 2 -1.9107 -1.1473
42 12 3 -0.0050 0.0479
42 12 4 2.0444 1.0124
42 12 5 -5.8253 -1.4385
42 13 1 0.3099 -0.3844
42 13 2 -2.8944 -0.4973
42 13 3 2.0744 -1.1413
42 13 4 -1.4269 0.4683
42 14 0 -4.0773 -0.6176
42 14 1 7.9409 1.3816
42 14 2 -0.3129 -0.3051
42 14 3 0.5077 -0.4572
42 14 4 -5.2567 0.0720
42 15 1 4.2526 -1.7582
42 15 2 7.1267 0.1803
42 15 3 10.1722 0.4896
42 16 0 -9.9506 -1.2839
42 16 1 -1.5545 1.5720
42 16 2 1.4872 -0.0811
42 16 3 5.7294 0.5143
42 17 1 -3.6628 0.9697
42 17 2 -1.5100 0.0745
42 18 0 -4.9393 -4.5516
43 1 0 -10.8080 5.5170
43 1 1 2.7388 -0.0985
43 1 2 -5.6535 -0.1519
43 1 3 3.2289 -0.5844
43 1 4 0.8684 -1.1024
43 1 5 -0.7364 0.5628
43 1 6 2.1636 -0.5535
43 2 1 6.2557 -0.1263
43 2 2 -6.2724 0.1292
43 2 3 3.8735 -0.4349
43 2 4 -2.3203 0.0625
43 2 5 -8.9941 -0.1321
43 2 6 6.3203 -0.8539
43 3 0 5.1609 -4.1078
43 3 1 -3.1364 -1.1246
43 3 2 -2.5435 0.3592
43 3 3 -1.6173 -1.2185
43 3 4 2.5684 1.2393
43 3 5 1.7400 -0.3282
43 3 6 -2.2322 -0.8430
43 4 1 1.4226 -1.0635
43 4 2 -3.3370 0.2281
43 4 3 0.3370 -1.3964
43 4 4 -5.0251 1.0757
43 4 5 -1.2823 -0.6262
43 4 6 12.7806 -0.1937
43 5 0 12.5259 -0.0402
43 5 1 10.5066 -0.5752
43 5 2 -2.3077 0.2192
43 5 3 2.1337 0.4558
43 5 4 -7.1591 0.4821
43 5 5 -8.9751 -0.5150
43 5 6 2.9646 -0.2777
43 6 1 0.4288 -0.5330
43 6 2 6.8285 0.3747
43 6 3 3.2106 0.9328
43 6 4 1.1253 -0.5798
43 6 5 -5.3455 0.6867
43 7 0 -2.2320 3.2236
43 7 1 -8.4158 -1.6794
43 7 2 -1.0636 -0.0022
43 7 3 -6.6548 0.7194
43 7 4 1.8642 -0.7560
43 7 5 8.3486 0.8458
43 8 1 -3.6485 1.7160
43 8 2 7.7323 -1.2196
43 8 3 -3.5087 -0.0766
43 8 4 -15.2438 0.3357
43 9 0 2.7099 -6.1848
43 9 1 -1.6169 -2.1785
43 9 2 0.6840 -0.4147
43 9 3 5.4262 -1.5164
43 9 4 -8.1009 0.9481
43 10 1 1.5587 0.2396
43 10 2 -3.1772 -0.7548
43 10 3 -4.8060 0.6568
43 10 4 -6.3019 -0.9586
43 11 0 11.1976 1.3218
43 11 1 0.8235 -0.2845
43 11 2 12.3161 -1.4489
43 11 3 -2.1994 0.6963
43 11 4 -0.3573 -0.5221
43 12 1 1.0352 3.6204
43 12 2 6.0659 -0.9227
43 12 3 -0.2279 -2.2468
43 13 0 -3.9185 -3.9527
43 13 1 -4.6545 0.4395
43 13 2 0.1634 -0.7511
43 13 3 -3.4646 0.4326
43 14 1 -3.9180 1.4434
43 14 2 -1.6703 -1.9020
43 15 0 15.2993 -0.7981
43 15 1 -4.8605 1.5142
44 1 1 3.7271 -1.6487
44 1 2 0.6685 -1.8781
44 1 3 -0.8908 0.2729
44 1 4 3.3587 -1.7676
44 1 5 1.8602 -2.1900
44 2 0 1.6653 1.9430
44 2 1 -1.5169 -0.3307
44 2 2 2.4227 -0.3975
44 2 3 -9.5620 -0.7998
44 2 4 -0.4373 0.1708
44 2 5 -3.9857 -0.0740
44 3 1 3.4434 -0.1948
44 3 2 0.7638 0.3768
44 3 3 2.1455 -0.3829
44 3 4 -0.1363 0.0387
44 3 5 -1.2622 -0.4673
44 4 0 8.8136 1.6008
44 4 1 0.8286 0.3438
44 4 2 -0.1809 -0.3554
44 4 3 3.1170 -0.0267
44 4 4 6.5551 -0.6441
44 4 5 -6.8486 -0.6011
44 5 1 6.3135 -0.0716
44 5 2 -0.8921 -1.7730
44 5 3 1.9248 0.4943
44 5 4 5.9557 -0.9111
44 5 5 -2.0849 0.0451
44 6 0 4.9890 3.2696
44 6 1 -14.7785 -1.1547
44 6 2 1.0264 -1.7934
44 6 3 -0.4012 1.6889
44 6 4 3.8172 -2.0008
44 7 1 -9.7629 0.1796
44 7 2 -3.1012 -0.5346
44 7 3 -2.4942 0.6860
44 8 0 12.9995 0.6968
44 8 1 5.4949 -0.7722
44 8 2 -0.2811 0.3515
44 8 3 6.5888 0.4966
44 9 1 0.5840 -2.6985
44 9 2 -7.1093 -3.6580
44 9 3 6.7503 0.4600
44 10 0 3.3164 -0.4824
44 10 1 4.0578 -2.2100
44 10 2 -1.4389 -0.3773
44 11 1 5.0128 0.8501
44 11 2 4.2655 1.2953
44 12 0 -3.3923 1.0496
44 12 1 2.6490 -0.2675
45 1 0 -3.6421 2.7625
45 1 1 -5.1165 -1.3455
45 1 2 -6.3414 0.6410
45 1 3 -3.0242 0.2088
45 2 1 0.9579 0.3368
45 2 2 -6.2469 -0.9469
45 3 0 0.0729 -1.7649
45 3 1 9.9350 0.2483
45 3 2 -4.2346 0.3878
45 4 1 7.1971 -0.4699
45 4 2 -3.5011 -0.4927
45 5 0 5.9120 3.0791
45 5 1 6.5355 1.4071
45 5 2 3.1585 0.6683
45 6 1 4.7236 -1.1348
45 6 2 1.5666 -0.5256
45 7 0 0.5390 2.1557
45 7 1 -3.1914 2.3342
0 0 0 0.0 0.0
;
_shelx_fab_checksum              18549
_olex2_submission_special_instructions 'No special instructions were received'
_oxdiff_exptl_absorpt_empirical_details
;
Empirical correction (ABSPACK) includes:
- Absorption correction using spherical harmonics
- Frame scaling
;
_oxdiff_exptl_absorpt_empirical_full_max 2.046
_oxdiff_exptl_absorpt_empirical_full_min 0.590
loop_
_space_group_symop_operation_xyz
'x, y, z'
'-x+1/2, -y+1/2, z'
'-y, x+1/2, z+1/2'
'y+1/2, -x, z+1/2'
'-x, -y, -z'
'x-1/2, y-1/2, -z'
'y, -x-1/2, -z-1/2'
'-y-1/2, x, -z-1/2'
loop_
_atom_site_label
_atom_site_type_symbol
_atom_site_fract_x
_atom_site_fract_y
_atom_site_fract_z
_atom_site_U_iso_or_equiv
_atom_site_adp_type
_atom_site_occupancy
_atom_site_site_symmetry_order
_atom_site_calc_flag
_atom_site_refinement_flags_posn
_atom_site_refinement_flags_adp
_atom_site_refinement_flags_occupancy
_atom_site_disorder_assembly
_atom_site_disorder_group
In01 In 0.48907(2) 0.75598(2) 0.75791(4) 0.05471(16) Uani 1 1 d . . . . .
In02 In 0.53497(2) 0.65832(2) 0.74962(4) 0.05484(16) Uani 1 1 d . . . . .
In03 In 0.54646(2) 0.83418(2) 0.65019(4) 0.06099(17) Uani 1 1 d . . . . .
In04 In 0.54525(2) 0.73687(2) 0.59733(4) 0.05909(17) Uani 1 1 d . . . . .
In05 In 0.46079(2) 0.69207(2) 0.62034(5) 0.06524(18) Uani 1 1 d . . . . .
In06 In 0.46245(2) 0.78425(2) 0.56836(5) 0.06868(19) Uani 1 1 d . . . . .
In07 In 0.38589(2) 0.75690(2) 0.69363(6) 0.0946(3) Uani 1 1 d . . . . .
Fe08 Fe 0.57169(4) 0.58612(4) 0.48731(10) 0.0734(4) Uani 1 1 d . . . . .
Fe09 Fe 0.63972(4) 0.75673(4) 0.89460(10) 0.0792(4) Uani 1 1 d . . . . .
Fe0A Fe 0.42878(4) 0.90514(4) 0.80743(12) 0.0844(5) Uani 1 1 d . . . . .
Fe0B Fe 0.39795(5) 0.64784(5) 0.94065(14) 0.1042(6) Uani 1 1 d . . . . .
Fe0C Fe 0.56386(6) 0.84999(6) 0.33359(13) 0.1160(7) Uani 1 1 d . . . . .
Fe0D Fe 0.33172(7) 0.71088(6) 0.4202(2) 0.1829(15) Uani 1 1 d . . . . .
O00E O 0.51141(13) 0.70618(12) 0.6895(3) 0.0516(12) Uani 1 1 d . . . . .
O00F O 0.44332(13) 0.74718(12) 0.6667(4) 0.0553(13) Uani 1 1 d . . . . .
O00G O 0.51370(13) 0.78429(13) 0.6458(3) 0.0540(13) Uani 1 1 d . . . . .
O00H O 0.58457(14) 0.65950(15) 0.6647(4) 0.0590(14) Uani 1 1 d . . . . .
O00I O 0.53716(15) 0.75415(15) 0.8398(4) 0.0644(15) Uani 1 1 d . . . . .
O00J O 0.48993(15) 0.73001(15) 0.5278(4) 0.0612(14) Uani 1 1 d . . . . .
O00K O 0.47383(15) 0.80872(15) 0.8117(4) 0.0651(15) Uani 1 1 d . . . . .
O00L O 0.57042(16) 0.68848(16) 0.5428(4) 0.0686(15) Uani 1 1 d . . . . .
O00M O 0.59261(14) 0.74971(15) 0.6785(4) 0.0613(14) Uani 1 1 d . . . . .
O00N O 0.51518(17) 0.85134(17) 0.7605(4) 0.0776(18) Uani 1 1 d . . . . .
O00O O 0.55736(18) 0.69389(16) 0.8474(4) 0.0739(17) Uani 1 1 d . . . . .
O00P O 0.48397(15) 0.64381(16) 0.8173(4) 0.0707(16) Uani 1 1 d . . . . .
O00Q O 0.56467(18) 0.76469(18) 0.4874(4) 0.0752(17) Uani 1 1 d . . . . .
O00R O 0.43896(17) 0.83348(16) 0.6250(4) 0.0715(16) Uani 1 1 d . . . . .
O00S O 0.51271(16) 0.61741(16) 0.6574(5) 0.0661(15) Uani 1 1 d . . . . .
O00T O 0.48509(16) 0.64733(16) 0.5500(4) 0.0710(16) Uani 1 1 d . . . . .
O00U O 0.51366(17) 0.86025(17) 0.5455(5) 0.0764(18) Uani 1 1 d . . . . .
O00V O 0.45681(18) 0.72824(17) 0.8529(4) 0.0765(18) Uani 1 1 d . . . . .
O00W O 0.43976(16) 0.65882(17) 0.7215(5) 0.0763(18) Uani 1 1 d . . . . .
O00X O 0.59045(15) 0.80936(16) 0.7262(4) 0.0658(15) Uani 1 1 d . . . . .
O00Y O 0.58517(19) 0.8192(2) 0.5457(5) 0.085(2) Uani 1 1 d . . . . .
O00Z O 0.48624(19) 0.81511(18) 0.4691(4) 0.0784(17) Uani 1 1 d . . . . .
N010 N 0.56391(17) 0.61174(16) 0.8083(4) 0.0559(16) Uani 1 1 d . . . . .
O011 O 0.39470(17) 0.81560(16) 0.7187(5) 0.084(2) Uani 1 1 d . . . . .
N012 N 0.61059(18) 0.57249(19) 0.8404(5) 0.068(2) Uani 1 1 d . . . . .
O013 O 0.3729(2) 0.7778(2) 0.5684(7) 0.101(3) Uani 1 1 d . . . . .
O014 O 0.32210(18) 0.76189(18) 0.7227(5) 0.098(2) Uani 1 1 d . . . . .
H01A H 0.310958 0.761908 0.772875 0.148 Uiso 1 1 d R U . . .
H01B H 0.303108 0.764010 0.686335 0.148 Uiso 1 1 d R U . . .
O015 O 0.41267(18) 0.68211(18) 0.5479(5) 0.090(2) Uani 1 1 d . . . . .
O016 O 0.37179(17) 0.70181(19) 0.6470(6) 0.092(2) Uani 1 1 d . . . . .
O017 O 0.4196(2) 0.77031(19) 0.4789(5) 0.099(2) Uani 1 1 d . . . . .
C018 C 0.5851(2) 0.6611(2) 0.5866(7) 0.059(2) Uani 1 1 d . . . . .
O019 O 0.3947(2) 0.7401(2) 0.8182(6) 0.101(2) Uani 1 1 d . . . . .
C01A C 0.4875(2) 0.8418(2) 0.8057(6) 0.059(2) Uani 1 1 d . . . . .
C01B C 0.4707(3) 0.8722(2) 0.8573(6) 0.071(3) Uani 1 1 d . . . . .
C01C C 0.5589(2) 0.7281(2) 0.8692(5) 0.059(2) Uani 1 1 d . . . . .
C01D C 0.6023(2) 0.6301(3) 0.5394(6) 0.070(2) Uani 1 1 d . . . . .
C01E C 0.6011(2) 0.6059(2) 0.8130(5) 0.058(2) Uani 1 1 d . . . . .
H01E H 0.618901 0.624229 0.797862 0.069 Uiso 1 1 calc R U . . .
C01F C 0.4152(3) 0.8399(2) 0.6808(7) 0.068(2) Uani 1 1 d . . . . .
C01G C 0.5044(2) 0.6205(2) 0.5819(7) 0.062(2) Uani 1 1 d . . . . .
C01H C 0.5871(3) 0.7392(2) 0.9299(6) 0.070(2) Uani 1 1 d . . . . .
C01I C 0.5047(3) 0.8451(3) 0.4774(7) 0.072(3) Uani 1 1 d . . . . .
C01J C 0.6044(2) 0.7771(3) 0.7204(6) 0.060(2) Uani 1 1 d . . . . .
C01K C 0.5164(2) 0.5904(2) 0.5215(6) 0.062(2) Uani 1 1 d . . . . .
C01L C 0.4075(3) 0.8803(3) 0.7029(7) 0.078(3) Uani 1 1 d . . . . .
C01M C 0.4203(3) 0.7264(3) 0.8644(8) 0.086(3) Uani 1 1 d . . . . .
C01N C 0.4086(3) 0.7053(3) 0.9409(8) 0.097(4) Uani 1 1 d . . . . .
C01O C 0.3776(4) 0.8930(3) 0.7522(9) 0.108(4) Uani 1 1 d . . . . .
H01O H 0.358173 0.878026 0.774111 0.129 Uiso 1 1 calc R U . . .
C01P C 0.5945(3) 0.7762(3) 0.9606(8) 0.088(3) Uani 1 1 d . . . . .
H01P H 0.580733 0.797903 0.947405 0.106 Uiso 1 1 calc R U . . .
C01Q C 0.4510(2) 0.6436(2) 0.7889(7) 0.070(2) Uani 1 1 d . . . . .
C01R C 0.6076(3) 0.6284(3) 0.4488(7) 0.086(3) Uani 1 1 d . . . . .
H01R H 0.602160 0.647249 0.409482 0.104 Uiso 1 1 calc R U . . .
C01S C 0.6158(3) 0.7148(3) 0.9650(7) 0.096(3) Uani 1 1 d . . . . .
H01S H 0.618126 0.688756 0.955941 0.116 Uiso 1 1 calc R U . . .
C01T C 0.6399(2) 0.7706(3) 0.7695(7) 0.074(3) Uani 1 1 d . . . . .
C01U C 0.5488(3) 0.5793(3) 0.8349(9) 0.104(4) Uani 1 1 d . . . . .
H01U H 0.522917 0.574238 0.837791 0.125 Uiso 1 1 calc R U . . .
C01V C 0.5193(2) 0.5940(3) 0.4336(7) 0.076(3) Uani 1 1 d . . . . .
H01V H 0.512000 0.614841 0.401307 0.091 Uiso 1 1 calc R U . . .
C01W C 0.4376(3) 0.8694(3) 0.9090(7) 0.081(3) Uani 1 1 d . . . . .
H01W H 0.424168 0.847499 0.922313 0.097 Uiso 1 1 calc R U . . .
C01X C 0.4825(3) 0.9105(3) 0.8537(7) 0.083(3) Uani 1 1 d . . . . .
H01X H 0.503109 0.919820 0.823425 0.099 Uiso 1 1 calc R U . . .
C01Y C 0.3849(4) 0.7703(3) 0.5003(11) 0.091(4) Uani 1 1 d . . . . .
C01Z C 0.6154(3) 0.5947(3) 0.5743(8) 0.086(3) Uani 1 1 d . . . . .
H01Z H 0.616351 0.588315 0.631249 0.103 Uiso 1 1 calc R U . . .
C020 C 0.6576(3) 0.7360(4) 0.7811(7) 0.093(3) Uani 1 1 d . . . . .
H020 H 0.650418 0.712688 0.758340 0.111 Uiso 1 1 calc R U . . .
C021 C 0.6898(3) 0.7434(6) 0.8362(9) 0.135(6) Uani 1 1 d . . . . .
H021 H 0.707360 0.725302 0.853675 0.162 Uiso 1 1 calc R U . . .
C022 C 0.5803(3) 0.7971(3) 0.4849(8) 0.084(3) Uani 1 1 d . . . . .
C023 C 0.3796(3) 0.6875(3) 0.5757(9) 0.086(3) Uani 1 1 d . . . . .
C024 C 0.6163(4) 0.8416(4) 0.3837(8) 0.112(4) Uani 1 1 d . . . . .
H024 H 0.627930 0.857728 0.422308 0.134 Uiso 1 1 calc R U . . .
C025 C 0.6393(4) 0.7370(4) 1.0148(7) 0.104(4) Uani 1 1 d . . . . .
H025 H 0.660525 0.728142 1.043921 0.124 Uiso 1 1 calc R U . . .
C026 C 0.4224(3) 0.6239(3) 0.8404(8) 0.089(3) Uani 1 1 d . . . . .
C027 C 0.5766(3) 0.5550(3) 0.8569(10) 0.119(5) Uani 1 1 d . . . . .
H027 H 0.573298 0.530728 0.879164 0.142 Uiso 1 1 calc R U . . .
C028 C 0.5936(3) 0.8111(3) 0.4018(7) 0.090(3) Uani 1 1 d . U . . .
C029 C 0.5314(2) 0.5545(3) 0.5449(7) 0.073(2) Uani 1 1 d . . . . .
H029 H 0.532821 0.544723 0.599265 0.087 Uiso 1 1 calc R U . . .
C02A C 0.5361(3) 0.5587(3) 0.4030(8) 0.090(3) Uani 1 1 d . . . . .
H02A H 0.540740 0.552475 0.346944 0.108 Uiso 1 1 calc R U . . .
C02B C 0.4296(4) 0.6023(3) 0.9147(9) 0.110(4) Uani 1 1 d . . . . .
H02B H 0.453171 0.597016 0.938497 0.132 Uiso 1 1 calc R U . . .
C02C C 0.6593(3) 0.7994(4) 0.8191(7) 0.091(3) Uani 1 1 d . . . . .
H02C H 0.652159 0.824785 0.823086 0.109 Uiso 1 1 calc R U . . .
C02D C 0.3824(3) 0.6255(3) 0.8276(9) 0.106(4) Uani 1 1 d . . . . .
H02D H 0.369824 0.637854 0.783958 0.127 Uiso 1 1 calc R U . . .
C02E C 0.6267(3) 0.5712(4) 0.5059(11) 0.110(4) Uani 1 1 d . . . . .
H02E H 0.635181 0.546246 0.510189 0.132 Uiso 1 1 calc R U . . .
C02F C 0.3932(4) 0.5904(4) 0.9454(11) 0.123(5) Uani 1 1 d . . . . .
H02F H 0.388944 0.575444 0.992771 0.148 Uiso 1 1 calc R U . . .
C02G C 0.5438(3) 0.5365(3) 0.4711(8) 0.089(3) Uani 1 1 d . . . . .
H02G H 0.555613 0.512890 0.469019 0.106 Uiso 1 1 calc R U . . .
C02H C 0.4313(4) 0.6866(4) 1.0008(8) 0.112(4) Uani 1 1 d . . . . .
H02H H 0.457776 0.686308 1.000602 0.134 Uiso 1 1 calc R U . . .
C02I C 0.3814(5) 0.9326(4) 0.7635(12) 0.140(7) Uani 1 1 d . . . . .
H02I H 0.365448 0.948239 0.794738 0.168 Uiso 1 1 calc R U . . .
C02J C 0.6230(3) 0.5915(4) 0.4327(11) 0.116(5) Uani 1 1 d . . . . .
H02J H 0.629601 0.582424 0.379509 0.140 Uiso 1 1 calc R U . . .
C02K C 0.6903(4) 0.7831(6) 0.8597(9) 0.123(5) Uani 1 1 d . . . . .
H02K H 0.707776 0.795176 0.894707 0.148 Uiso 1 1 calc R U . . .
C02L C 0.3481(4) 0.6756(3) 0.5176(10) 0.122(4) Uani 1 1 d . U . . .
C02M C 0.6186(4) 0.8439(5) 0.2929(10) 0.128(5) Uani 1 1 d . U . . .
H02M H 0.632305 0.862464 0.264093 0.153 Uiso 1 1 calc R U . . .
C02N C 0.3697(3) 0.6973(3) 0.9635(10) 0.118(5) Uani 1 1 d . . . . .
H02N H 0.348227 0.705906 0.935155 0.142 Uiso 1 1 calc R U . . .
C02O C 0.4294(4) 0.9121(3) 0.6824(10) 0.113(4) Uani 1 1 d . . . . .
H02O H 0.451094 0.911133 0.648992 0.136 Uiso 1 1 calc R U . . .
C02P C 0.4574(4) 0.9322(4) 0.9045(9) 0.110(4) Uani 1 1 d . . . . .
H02P H 0.458925 0.958198 0.915010 0.132 Uiso 1 1 calc R U . . .
C02Q C 0.6265(4) 0.7746(5) 1.0149(8) 0.109(4) Uani 1 1 d . . . . .
H02Q H 0.636931 0.794741 1.044914 0.131 Uiso 1 1 calc R U . . .
C02R C 0.4916(3) 0.7194(3) 0.4397(8) 0.090(3) Uani 1 1 d . . . . .
H02L H 0.507654 0.736833 0.409912 0.135 Uiso 1 1 calc R U . . .
H02R H 0.466460 0.720084 0.416096 0.135 Uiso 1 1 calc R U . . .
H02S H 0.501681 0.694125 0.434778 0.135 Uiso 1 1 calc R U . . .
C02S C 0.3656(4) 0.6048(4) 0.8934(13) 0.144(7) Uani 1 1 d . . . . .
H02T H 0.339550 0.601435 0.900717 0.173 Uiso 1 1 calc R U . . .
C02T C 0.4295(4) 0.9069(4) 0.9360(10) 0.118(5) Uani 1 1 d . . . . .
H02U H 0.408963 0.913891 0.969477 0.142 Uiso 1 1 calc R U . . .
C02U C 0.5838(4) 0.7958(4) 0.3251(9) 0.122(4) Uani 1 1 d . U . . .
H02V H 0.568924 0.774175 0.318306 0.147 Uiso 1 1 calc R U . . .
C02V C 0.5170(4) 0.8650(4) 0.3971(8) 0.110(4) Uani 1 1 d . U . . .
C02W C 0.3550(5) 0.6583(4) 0.4377(10) 0.143(5) Uani 1 1 d . U . . .
H02W H 0.378049 0.650053 0.415664 0.171 Uiso 1 1 calc R U . . .
C02X C 0.4156(6) 0.9445(3) 0.7162(12) 0.150(7) Uani 1 1 d . . . . .
H02X H 0.425489 0.968913 0.710975 0.180 Uiso 1 1 calc R U . . .
C02Y C 0.5997(5) 0.8175(5) 0.2566(11) 0.139(5) Uani 1 1 d . U . . .
H02Y H 0.596792 0.813212 0.199040 0.167 Uiso 1 1 calc R U . . .
C02Z C 0.5424(4) 0.8967(4) 0.3926(9) 0.117(4) Uani 1 1 d . U . . .
H02Z H 0.553667 0.909877 0.436840 0.140 Uiso 1 1 calc R U . . .
C030 C 0.4091(6) 0.6691(4) 1.0593(11) 0.147(6) Uani 1 1 d . . . . .
H030 H 0.417680 0.656050 1.106611 0.177 Uiso 1 1 calc R U . . .
C031 C 0.3701(5) 0.6744(4) 1.0353(11) 0.142(6) Uani 1 1 d . . . . .
H031 H 0.347752 0.664765 1.065472 0.170 Uiso 1 1 calc R U . . .
C032 C 0.5463(5) 0.9032(5) 0.3043(10) 0.140(5) Uani 1 1 d . U . . .
H032 H 0.561374 0.922298 0.281389 0.168 Uiso 1 1 calc R U . . .
C034 C 0.3112(6) 0.7512(5) 0.3460(11) 0.160(4) Uani 1 1 d . U . . .
H034 H 0.284474 0.750085 0.328685 0.193 Uiso 1 1 calc R U . . .
C035 C 0.2939(6) 0.6706(5) 0.4508(12) 0.154(5) Uani 1 1 d . U . . .
H035 H 0.267135 0.673726 0.435410 0.185 Uiso 1 1 calc R U . . .
C036 C 0.3171(5) 0.6564(5) 0.3979(13) 0.177(6) Uani 1 1 d . U . . .
H036 H 0.310818 0.645131 0.343153 0.212 Uiso 1 1 calc R U . . .
C037 C 0.3591(5) 0.7620(4) 0.4277(12) 0.142(4) Uani 1 1 d . U . . .
C038 C 0.5065(4) 0.8518(4) 0.3174(9) 0.130(5) Uani 1 1 d . U . . .
H038 H 0.491149 0.831071 0.304024 0.157 Uiso 1 1 calc R U . . .
C039 C 0.3207(6) 0.7673(5) 0.4282(12) 0.163(4) Uani 1 1 d . U . . .
H039 H 0.305140 0.778071 0.469055 0.196 Uiso 1 1 calc R U . . .
C21 C 0.3079(5) 0.6858(5) 0.5305(12) 0.160(5) Uani 1 1 d . U . . .
H21 H 0.295480 0.697897 0.574851 0.192 Uiso 1 1 calc R U . . .
C22 C 0.3380(6) 0.7373(6) 0.2942(14) 0.175(5) Uani 1 1 d . U . . .
H22 H 0.336941 0.726462 0.240733 0.211 Uiso 1 1 calc R U . . .
C24 C 0.3697(6) 0.7455(6) 0.3525(13) 0.177(5) Uani 1 1 d . U . . .
H24 H 0.394850 0.739936 0.339483 0.212 Uiso 1 1 calc R U . . .
C0AA C 0.5259(5) 0.8791(5) 0.2583(12) 0.151(6) Uani 1 1 d . U . . .
H0AA H 0.524006 0.879130 0.199783 0.181 Uiso 1 1 calc R U . . .
loop_
_atom_site_aniso_label
_atom_site_aniso_U_11
_atom_site_aniso_U_22
_atom_site_aniso_U_33
_atom_site_aniso_U_23
_atom_site_aniso_U_13
_atom_site_aniso_U_12
In01 0.0415(3) 0.0380(3) 0.0847(4) 0.0070(2) 0.0074(3) 0.00241(19)
In02 0.0432(3) 0.0401(3) 0.0813(4) 0.0049(2) 0.0056(3) 0.0077(2)
In03 0.0469(3) 0.0428(3) 0.0933(5) 0.0077(3) -0.0022(3) -0.0116(2)
In04 0.0467(3) 0.0498(3) 0.0808(4) 0.0041(3) 0.0035(3) -0.0041(2)
In05 0.0453(3) 0.0435(3) 0.1069(5) 0.0038(3) -0.0013(3) 0.0005(2)
In06 0.0573(3) 0.0478(3) 0.1009(5) 0.0105(3) -0.0129(3) -0.0048(2)
In07 0.0540(4) 0.0564(4) 0.1732(8) 0.0011(4) 0.0080(4) 0.0038(3)
Fe08 0.0528(7) 0.0704(9) 0.0970(10) -0.0215(8) 0.0012(7) 0.0032(6)
Fe09 0.0595(8) 0.0797(10) 0.0983(11) -0.0023(8) -0.0165(8) 0.0109(7)
Fe0A 0.0729(9) 0.0470(7) 0.1335(14) -0.0154(8) -0.0236(9) 0.0131(6)
Fe0B 0.0822(11) 0.0719(10) 0.1585(17) 0.0358(11) 0.0520(11) 0.0029(8)
Fe0C 0.1328(16) 0.1059(14) 0.1094(14) 0.0426(11) 0.0288(12) -0.0009(12)
Fe0D 0.1294(18) 0.0836(13) 0.336(4) -0.0240(18) -0.136(2) -0.0038(12)
O00E 0.038(2) 0.033(2) 0.084(4) 0.007(2) 0.007(2) 0.0042(19)
O00F 0.040(3) 0.030(2) 0.096(4) 0.007(2) 0.000(3) 0.0032(19)
O00G 0.044(3) 0.036(2) 0.082(4) 0.012(2) -0.006(3) -0.005(2)
O00H 0.042(3) 0.055(3) 0.080(4) -0.006(3) 0.010(3) 0.000(2)
O00I 0.056(3) 0.048(3) 0.089(4) 0.005(3) -0.001(3) 0.011(2)
O00J 0.051(3) 0.054(3) 0.079(4) 0.008(3) -0.006(3) -0.008(2)
O00K 0.053(3) 0.045(3) 0.097(4) 0.006(3) 0.012(3) 0.006(2)
O00L 0.068(4) 0.055(3) 0.083(4) 0.004(3) 0.004(3) 0.010(3)
O00M 0.045(3) 0.055(3) 0.084(4) -0.003(3) -0.004(3) -0.002(2)
O00N 0.057(4) 0.064(4) 0.111(5) -0.007(3) 0.011(3) -0.013(3)
O00O 0.083(4) 0.043(3) 0.096(5) -0.003(3) -0.006(4) 0.011(3)
O00P 0.046(3) 0.067(4) 0.100(5) 0.018(3) 0.013(3) 0.003(3)
O00Q 0.077(4) 0.070(4) 0.078(4) 0.015(3) 0.014(3) -0.008(3)
O00R 0.062(4) 0.049(3) 0.104(5) 0.011(3) 0.000(4) 0.000(3)
O00S 0.056(3) 0.052(3) 0.090(5) -0.003(3) 0.001(3) -0.002(3)
O00T 0.055(3) 0.050(3) 0.108(5) 0.001(3) 0.001(3) 0.009(3)
O00U 0.067(4) 0.055(3) 0.107(5) 0.019(4) -0.007(4) -0.018(3)
O00V 0.067(4) 0.060(4) 0.103(5) 0.013(3) 0.026(4) -0.001(3)
O00W 0.048(3) 0.063(4) 0.119(5) 0.019(4) 0.008(3) -0.004(3)
O00X 0.054(3) 0.053(3) 0.090(4) 0.005(3) -0.006(3) -0.012(3)
O00Y 0.075(4) 0.077(5) 0.104(5) 0.004(4) 0.025(4) -0.018(3)
O00Z 0.083(4) 0.062(4) 0.090(4) 0.008(3) -0.015(4) -0.017(3)
N010 0.041(3) 0.038(3) 0.088(5) 0.006(3) 0.005(3) 0.010(3)
O011 0.055(4) 0.048(3) 0.151(6) -0.005(4) 0.017(4) -0.001(3)
N012 0.040(3) 0.052(4) 0.111(6) 0.017(4) 0.012(4) 0.008(3)
O013 0.061(4) 0.060(4) 0.181(9) 0.008(5) -0.019(5) 0.003(3)
O014 0.058(4) 0.069(4) 0.169(7) -0.024(5) 0.022(4) 0.013(3)
O015 0.053(4) 0.065(4) 0.150(6) -0.005(4) -0.011(4) 0.004(3)
O016 0.051(4) 0.058(4) 0.167(8) -0.001(4) 0.005(4) -0.013(3)
O017 0.093(6) 0.071(4) 0.132(6) -0.003(4) -0.047(5) -0.008(4)
C018 0.031(4) 0.058(5) 0.090(7) -0.018(5) 0.011(4) -0.006(3)
O019 0.068(4) 0.077(5) 0.160(7) 0.024(5) 0.028(5) 0.022(4)
C01A 0.048(4) 0.053(5) 0.076(6) -0.002(4) -0.009(4) 0.008(4)
C01B 0.057(5) 0.056(5) 0.101(7) -0.022(5) -0.018(5) 0.013(4)
C01C 0.059(5) 0.054(5) 0.063(5) 0.007(4) -0.001(4) 0.004(4)
C01D 0.045(4) 0.082(6) 0.083(7) -0.019(5) -0.003(4) -0.003(4)
C01E 0.050(4) 0.043(4) 0.080(6) 0.006(4) -0.004(4) 0.007(3)
C01F 0.060(5) 0.043(4) 0.101(7) -0.006(5) -0.014(5) 0.005(4)
C01G 0.039(4) 0.048(5) 0.097(8) -0.003(5) 0.008(4) -0.008(3)
C01H 0.073(6) 0.052(5) 0.085(7) -0.001(5) -0.004(5) 0.017(4)
C01I 0.060(5) 0.070(6) 0.086(7) 0.023(6) -0.012(5) 0.002(5)
C01J 0.046(4) 0.058(5) 0.076(6) 0.010(4) 0.002(4) -0.004(4)
C01K 0.041(4) 0.051(4) 0.094(7) -0.008(5) -0.005(4) 0.000(3)
C01L 0.058(5) 0.053(5) 0.124(8) -0.008(5) -0.020(5) 0.011(4)
C01M 0.083(7) 0.050(5) 0.125(9) 0.009(5) 0.054(7) -0.012(5)
C01N 0.079(7) 0.073(7) 0.137(10) 0.021(7) 0.042(7) 0.017(5)
C01O 0.097(9) 0.072(7) 0.154(11) -0.027(7) -0.039(8) 0.026(6)
C01P 0.071(6) 0.077(7) 0.116(9) -0.005(6) 0.004(6) 0.015(5)
C01Q 0.050(5) 0.050(5) 0.109(8) 0.013(5) 0.016(5) 0.012(4)
C01R 0.063(6) 0.102(8) 0.094(8) 0.000(6) 0.012(5) -0.006(5)
C01S 0.103(9) 0.089(8) 0.097(8) 0.023(6) -0.019(7) 0.015(6)
C01T 0.034(4) 0.075(6) 0.114(8) 0.001(5) -0.004(4) 0.005(4)
C01U 0.040(5) 0.067(6) 0.206(13) 0.049(7) 0.026(6) 0.011(4)
C01V 0.051(5) 0.068(6) 0.108(9) -0.001(6) -0.010(5) 0.006(4)
C01W 0.068(6) 0.065(6) 0.110(8) -0.008(5) 0.003(6) 0.014(5)
C01X 0.066(6) 0.052(5) 0.130(9) -0.022(5) -0.016(6) 0.001(4)
C01Y 0.072(8) 0.052(6) 0.150(12) 0.001(7) -0.038(8) -0.006(5)
C01Z 0.058(5) 0.067(6) 0.132(9) -0.038(6) -0.018(6) 0.022(4)
C020 0.072(7) 0.109(9) 0.097(8) -0.017(7) -0.014(6) 0.030(6)
C021 0.056(7) 0.214(18) 0.135(12) 0.012(12) -0.018(7) 0.055(9)
C022 0.059(6) 0.080(7) 0.112(9) 0.039(7) 0.011(6) 0.002(5)
C023 0.068(7) 0.043(5) 0.147(11) -0.004(6) -0.005(7) -0.001(4)
C024 0.118(10) 0.111(10) 0.106(9) 0.039(8) 0.023(8) -0.010(8)
C025 0.096(9) 0.127(11) 0.088(8) 0.011(8) -0.032(7) 0.009(8)
C026 0.069(6) 0.051(5) 0.147(10) 0.028(6) 0.031(6) 0.006(4)
C027 0.052(6) 0.071(7) 0.232(15) 0.066(8) 0.018(7) 0.009(5)
C028 0.090(3) 0.090(3) 0.090(3) 0.0006(10) 0.0004(10) -0.0003(10)
C029 0.062(5) 0.058(5) 0.099(7) 0.000(5) 0.011(5) 0.011(4)
C02A 0.071(6) 0.086(8) 0.112(9) -0.027(7) -0.009(6) -0.016(5)
C02B 0.102(9) 0.076(7) 0.151(11) 0.037(7) 0.040(8) 0.017(6)
C02C 0.055(6) 0.108(8) 0.110(8) 0.011(7) -0.004(6) -0.018(6)
C02D 0.069(7) 0.083(7) 0.166(12) 0.017(8) 0.047(7) 0.005(6)
C02E 0.065(7) 0.084(8) 0.182(14) -0.027(9) 0.006(8) 0.019(6)
C02F 0.106(10) 0.083(8) 0.180(14) 0.045(9) 0.057(10) -0.012(7)
C02G 0.080(7) 0.056(6) 0.130(10) 0.002(6) 0.003(7) 0.000(5)
C02H 0.106(9) 0.105(9) 0.123(10) 0.033(8) 0.038(8) 0.025(7)
C02I 0.128(12) 0.088(10) 0.203(17) -0.054(10) -0.074(12) 0.064(9)
C02J 0.074(7) 0.113(10) 0.163(13) -0.081(10) 0.060(9) -0.022(7)
C02K 0.066(8) 0.182(16) 0.122(11) -0.015(11) -0.017(7) -0.011(9)
C02L 0.119(7) 0.062(6) 0.183(11) -0.024(7) -0.020(7) -0.004(6)
C02M 0.127(5) 0.128(5) 0.128(5) 0.0007(10) 0.0009(10) -0.0002(10)
C02N 0.083(8) 0.080(7) 0.193(13) 0.041(8) 0.075(8) 0.015(6)
C02O 0.105(9) 0.052(6) 0.182(13) -0.001(7) -0.032(9) 0.003(6)
C02P 0.090(8) 0.078(8) 0.160(12) -0.043(8) -0.036(8) 0.018(7)
C02Q 0.103(9) 0.132(12) 0.092(9) -0.014(8) -0.017(7) -0.017(8)
C02R 0.067(6) 0.083(7) 0.120(9) -0.006(6) -0.013(6) -0.003(5)
C02S 0.088(9) 0.083(9) 0.26(2) 0.014(11) 0.069(12) -0.016(7)
C02T 0.096(9) 0.100(9) 0.159(13) -0.038(9) -0.009(8) 0.033(8)
C02U 0.123(4) 0.122(4) 0.122(4) 0.0008(10) 0.0005(10) 0.0003(10)
C02V 0.110(4) 0.109(4) 0.110(4) 0.0004(10) -0.0002(10) -0.0001(10)
C02W 0.146(8) 0.094(9) 0.189(12) -0.057(9) -0.064(8) 0.012(8)
C02X 0.199(18) 0.048(7) 0.202(17) -0.006(8) -0.102(15) 0.025(9)
C02Y 0.139(5) 0.139(5) 0.139(5) 0.0000(10) 0.0005(10) 0.0002(10)
C02Z 0.117(4) 0.117(4) 0.117(4) 0.0008(10) 0.0003(10) -0.0003(10)
C030 0.159(15) 0.117(12) 0.166(14) 0.063(11) 0.072(13) 0.021(10)
C031 0.134(13) 0.097(10) 0.195(16) 0.028(10) 0.101(12) -0.001(9)
C032 0.140(5) 0.140(5) 0.140(5) 0.0005(10) 0.0003(10) 0.0000(10)
C034 0.160(4) 0.160(5) 0.161(4) 0.0000(10) -0.0007(10) -0.0001(10)
C035 0.154(5) 0.155(5) 0.155(5) -0.0002(10) -0.0008(10) -0.0003(10)
C036 0.131(10) 0.167(13) 0.233(13) -0.096(12) -0.035(8) -0.044(10)
C037 0.137(7) 0.122(8) 0.168(7) 0.010(6) -0.006(6) -0.002(7)
C038 0.130(5) 0.131(5) 0.130(5) 0.0005(10) 0.0001(10) -0.0001(10)
C039 0.163(5) 0.163(5) 0.164(5) 0.0001(10) -0.0004(10) 0.0001(10)
C21 0.160(5) 0.160(5) 0.161(5) -0.0004(10) -0.0001(10) 0.0003(10)
C22 0.176(5) 0.176(5) 0.175(5) -0.0004(10) -0.0004(10) -0.0001(10)
C24 0.176(5) 0.177(5) 0.177(5) 0.0001(10) -0.0004(10) -0.0001(10)
C0AA 0.151(6) 0.151(6) 0.151(6) 0.0006(10) 0.0001(10) 0.0003(10)
loop_
_atom_type_symbol
_atom_type_description
_atom_type_scat_dispersion_real
_atom_type_scat_dispersion_imag
_atom_type_scat_source
C C 0.0147 0.0070 'International Tables Vol C Tables 4.2.6.8 and 6.1.1.4'
H H 0.0000 0.0000 'International Tables Vol C Tables 4.2.6.8 and 6.1.1.4'
N N 0.0253 0.0135 'International Tables Vol C Tables 4.2.6.8 and 6.1.1.4'
O O 0.0412 0.0250 'International Tables Vol C Tables 4.2.6.8 and 6.1.1.4'
Fe Fe -0.2758 2.5767 'International Tables Vol C Tables 4.2.6.8 and 6.1.1.4'
In In 0.1337 3.9104 'International Tables Vol C Tables 4.2.6.8 and 6.1.1.4'
loop_
_geom_angle_atom_site_label_1
_geom_angle_atom_site_label_2
_geom_angle_atom_site_label_3
_geom_angle
_geom_angle_site_symmetry_1
_geom_angle_site_symmetry_3
_geom_angle_publ_flag
O00E In01 O00G 79.82(18) . . ?
O00F In01 O00E 79.90(18) . . ?
O00F In01 O00G 79.67(18) . . ?
O00I In01 O00E 89.6(2) . . ?
O00I In01 O00F 169.19(19) . . ?
O00I In01 O00G 101.1(2) . . ?
O00K In01 O00E 170.86(19) . . ?
O00K In01 O00F 101.8(2) . . ?
O00K In01 O00G 91.6(2) . . ?
O00K In01 O00I 89.0(2) . . ?
O00K In01 O00V 89.0(2) . . ?
O00V In01 O00E 100.0(2) . . ?
O00V In01 O00F 90.6(2) . . ?
O00V In01 O00G 170.2(2) . . ?
O00V In01 O00I 88.8(2) . . ?
O00E In02 O00H 91.2(2) . . ?
O00E In02 O00O 90.3(2) . . ?
O00E In02 O00P 95.0(2) . . ?
O00E In02 O00S 94.7(2) . . ?
O00E In02 N010 174.8(2) . . ?
O00O In02 O00H 98.0(2) . . ?
O00O In02 O00P 94.9(3) . . ?
O00O In02 O00S 174.7(2) . . ?
O00O In02 N010 87.6(2) . . ?
O00P In02 O00H 165.7(2) . . ?
O00P In02 O00S 83.1(2) . . ?
O00S In02 O00H 83.6(2) . . ?
N010 In02 O00H 84.5(2) . . ?
N010 In02 O00P 89.9(2) . . ?
N010 In02 O00S 87.6(2) . . ?
O00G In03 O00N 88.9(2) . . ?
O00G In03 O00U 92.0(2) . . ?
O00G In03 O00X 94.27(19) . . ?
O00G In03 O00Y 96.6(2) . . ?
O00G In03 N012 171.7(2) . 7_577 ?
O00N In03 O00U 103.1(3) . . ?
O00N In03 O00Y 172.6(3) . . ?
O00N In03 N012 84.7(3) . 7_577 ?
O00X In03 O00N 91.5(2) . . ?
O00X In03 O00U 164.2(2) . . ?
O00X In03 O00Y 83.1(3) . . ?
O00X In03 N012 91.2(2) . 7_577 ?
O00Y In03 O00U 81.9(3) . . ?
N012 In03 O00U 84.3(2) 7_577 . ?
N012 In03 O00Y 90.3(3) 7_577 . ?
O00E In04 O00J 78.57(19) . . ?
O00G In04 O00E 82.08(17) . . ?
O00G In04 O00J 79.1(2) . . ?
O00G In04 O00M 91.3(2) . . ?
O00L In04 O00E 96.0(2) . . ?
O00L In04 O00G 173.4(2) . . ?
O00L In04 O00J 94.4(2) . . ?
O00L In04 O00M 95.2(2) . . ?
O00L In04 O00Q 84.2(2) . . ?
O00M In04 O00E 97.3(2) . . ?
O00M In04 O00J 170.0(2) . . ?
O00Q In04 O00E 164.3(2) . . ?
O00Q In04 O00G 95.9(2) . . ?
O00Q In04 O00J 85.7(2) . . ?
O00Q In04 O00M 98.3(2) . . ?
O00E In05 O00F 81.67(18) . . ?
O00E In05 O00J 79.43(19) . . ?
O00F In05 O00J 79.5(2) . . ?
O00T In05 O00E 96.1(2) . . ?
O00T In05 O00F 164.5(2) . . ?
O00T In05 O00J 85.0(2) . . ?
O00T In05 O00W 97.5(2) . . ?
O00W In05 O00E 91.8(2) . . ?
O00W In05 O00F 98.0(2) . . ?
O00W In05 O00J 171.1(2) . . ?
O015 In05 O00E 175.6(2) . . ?
O015 In05 O00F 96.2(2) . . ?
O015 In05 O00J 96.4(3) . . ?
O015 In05 O00T 85.0(3) . . ?
O015 In05 O00W 92.3(3) . . ?
O00F In06 O00G 81.41(18) . . ?
O00F In06 O00J 79.92(19) . . ?
O00G In06 O00J 78.74(19) . . ?
O00R In06 O00F 93.8(2) . . ?
O00R In06 O00G 94.8(2) . . ?
O00R In06 O00J 171.5(2) . . ?
O00R In06 O017 101.2(3) . . ?
O00Z In06 O00F 172.7(2) . . ?
O00Z In06 O00G 95.3(2) . . ?
O00Z In06 O00J 93.1(2) . . ?
O00Z In06 O00R 92.9(3) . . ?
O00Z In06 O017 84.3(3) . . ?
O017 In06 O00F 97.0(3) . . ?
O017 In06 O00G 164.0(3) . . ?
O017 In06 O00J 85.3(3) . . ?
O00F In07 O011 93.2(2) . . ?
O00F In07 O013 94.1(3) . . ?
O00F In07 O014 175.0(2) . . ?
O00F In07 O016 90.3(2) . . ?
O011 In07 O013 82.7(3) . . ?
O011 In07 O014 91.8(2) . . ?
O011 In07 O016 169.0(3) . . ?
O013 In07 O014 87.2(3) . . ?
O016 In07 O013 86.6(3) . . ?
O016 In07 O014 84.9(2) . . ?
O019 In07 O00F 90.2(2) . . ?
O019 In07 O011 94.4(3) . . ?
O019 In07 O013 174.9(3) . . ?
O019 In07 O014 88.6(3) . . ?
O019 In07 O016 96.0(3) . . ?
C01D Fe08 C01Z 40.7(4) . . ?
C01D Fe08 C02A 157.8(5) . . ?
C01K Fe08 C01D 109.8(3) . . ?
C01K Fe08 C01R 128.3(4) . . ?
C01K Fe08 C01V 40.3(4) . . ?
C01K Fe08 C01Z 121.4(4) . . ?
C01K Fe08 C02A 68.0(4) . . ?
C01K Fe08 C02E 153.8(6) . . ?
C01R Fe08 C01D 41.4(4) . . ?
C01R Fe08 C01V 109.4(4) . . ?
C01R Fe08 C01Z 68.7(5) . . ?
C01R Fe08 C02A 121.3(5) . . ?
C01V Fe08 C01D 122.3(4) . . ?
C01V Fe08 C01Z 156.6(4) . . ?
C01V Fe08 C02A 41.5(4) . . ?
C029 Fe08 C01D 126.8(4) . . ?
C029 Fe08 C01K 41.0(3) . . ?
C029 Fe08 C01R 165.8(4) . . ?
C029 Fe08 C01V 68.4(4) . . ?
C029 Fe08 C01Z 107.3(5) . . ?
C029 Fe08 C02A 67.1(5) . . ?
C029 Fe08 C02E 117.5(6) . . ?
C02A Fe08 C01Z 159.9(4) . . ?
C02E Fe08 C01D 68.7(4) . . ?
C02E Fe08 C01R 69.0(5) . . ?
C02E Fe08 C01V 162.7(6) . . ?
C02E Fe08 C01Z 40.3(5) . . ?
C02E Fe08 C02A 123.4(5) . . ?
C02G Fe08 C01D 162.8(5) . . ?
C02G Fe08 C01K 68.3(4) . . ?
C02G Fe08 C01R 153.0(5) . . ?
C02G Fe08 C01V 68.1(4) . . ?
C02G Fe08 C01Z 124.5(5) . . ?
C02G Fe08 C029 40.5(4) . . ?
C02G Fe08 C02A 38.8(4) . . ?
C02G Fe08 C02E 105.0(5) . . ?
C02J Fe08 C01D 68.5(4) . . ?
C02J Fe08 C01K 166.1(7) . . ?
C02J Fe08 C01R 41.3(5) . . ?
C02J Fe08 C01V 128.0(7) . . ?
C02J Fe08 C01Z 67.0(6) . . ?
C02J Fe08 C029 151.1(5) . . ?
C02J Fe08 C02A 107.9(5) . . ?
C02J Fe08 C02E 39.6(5) . . ?
C02J Fe08 C02G 117.5(5) . . ?
C01H Fe09 C01S 41.4(4) . . ?
C01H Fe09 C01T 110.0(4) . . ?
C01H Fe09 C020 114.5(4) . . ?
C01H Fe09 C021 147.2(7) . . ?
C01H Fe09 C02C 134.0(4) . . ?
C01H Fe09 C02K 171.3(6) . . ?
C01H Fe09 C02Q 68.4(5) . . ?
C01P Fe09 C01H 40.8(4) . . ?
C01P Fe09 C01S 68.6(5) . . ?
C01P Fe09 C01T 115.1(4) . . ?
C01P Fe09 C020 145.0(4) . . ?
C01P Fe09 C021 171.6(7) . . ?
C01P Fe09 C025 67.9(5) . . ?
C01P Fe09 C02C 108.7(5) . . ?
C01P Fe09 C02K 131.2(6) . . ?
C01P Fe09 C02Q 40.6(5) . . ?
C01S Fe09 C01T 135.0(4) . . ?
C01S Fe09 C020 110.6(5) . . ?
C01S Fe09 C021 116.0(6) . . ?
C01S Fe09 C02C 175.1(4) . . ?
C01S Fe09 C02K 145.4(6) . . ?
C01S Fe09 C02Q 67.6(6) . . ?
C01T Fe09 C021 67.2(4) . . ?
C01T Fe09 C02K 68.5(5) . . ?
C01T Fe09 C02Q 145.7(5) . . ?
C020 Fe09 C01T 39.6(4) . . ?
C020 Fe09 C021 41.7(5) . . ?
C020 Fe09 C02K 70.2(6) . . ?
C020 Fe09 C02Q 173.8(5) . . ?
C021 Fe09 C02K 41.0(6) . . ?
C021 Fe09 C02Q 133.1(6) . . ?
C025 Fe09 C01H 68.3(5) . . ?
C025 Fe09 C01S 39.9(5) . . ?
C025 Fe09 C01T 173.8(5) . . ?
C025 Fe09 C020 135.0(5) . . ?
C025 Fe09 C021 110.6(5) . . ?
C025 Fe09 C02C 143.7(5) . . ?
C025 Fe09 C02K 114.1(6) . . ?
C025 Fe09 C02Q 40.0(5) . . ?
C02C Fe09 C01T 41.7(4) . . ?
C02C Fe09 C020 69.0(5) . . ?
C02C Fe09 C021 67.2(6) . . ?
C02C Fe09 C02K 39.4(5) . . ?
C02C Fe09 C02Q 113.3(5) . . ?
C02Q Fe09 C02K 107.7(6) . . ?
C01B Fe0A C01O 133.2(4) . . ?
C01B Fe0A C01W 40.7(4) . . ?
C01B Fe0A C02I 171.9(7) . . ?
C01B Fe0A C02P 67.8(4) . . ?
C01B Fe0A C02T 67.7(4) . . ?
C01B Fe0A C02X 145.1(7) . . ?
C01L Fe0A C01B 109.9(3) . . ?
C01L Fe0A C01O 39.8(4) . . ?
C01L Fe0A C01W 115.6(4) . . ?
C01L Fe0A C01X 132.9(4) . . ?
C01L Fe0A C02I 67.9(5) . . ?
C01L Fe0A C02P 171.9(6) . . ?
C01L Fe0A C02T 147.0(6) . . ?
C01L Fe0A C02X 68.3(5) . . ?
C01O Fe0A C01W 109.9(5) . . ?
C01O Fe0A C02P 147.2(5) . . ?
C01O Fe0A C02X 69.0(7) . . ?
C01W Fe0A C02P 68.1(5) . . ?
C01X Fe0A C01B 40.5(3) . . ?
C01X Fe0A C01O 171.8(4) . . ?
C01X Fe0A C01W 68.6(4) . . ?
C01X Fe0A C02I 146.6(5) . . ?
C01X Fe0A C02P 40.4(4) . . ?
C01X Fe0A C02T 68.0(5) . . ?
C01X Fe0A C02X 113.6(7) . . ?
C02I Fe0A C01O 40.2(5) . . ?
C02I Fe0A C01W 132.4(7) . . ?
C02I Fe0A C02P 115.5(5) . . ?
C02I Fe0A C02X 42.2(7) . . ?
C02O Fe0A C01B 116.6(5) . . ?
C02O Fe0A C01L 40.8(4) . . ?
C02O Fe0A C01O 67.1(6) . . ?
C02O Fe0A C01W 147.9(4) . . ?
C02O Fe0A C01X 109.7(5) . . ?
C02O Fe0A C02I 67.2(7) . . ?
C02O Fe0A C02P 132.5(6) . . ?
C02O Fe0A C02T 171.0(5) . . ?
C02O Fe0A C02X 38.8(6) . . ?
C02T Fe0A C01O 116.4(6) . . ?
C02T Fe0A C01W 40.3(4) . . ?
C02T Fe0A C02I 109.6(6) . . ?
C02T Fe0A C02P 40.3(5) . . ?
C02T Fe0A C02X 133.3(6) . . ?
C02X Fe0A C01W 172.8(7) . . ?
C02X Fe0A C02P 108.8(6) . . ?
C01N Fe0B C030 66.8(5) . . ?
C026 Fe0B C01N 109.8(4) . . ?
C026 Fe0B C02D 41.3(4) . . ?
C026 Fe0B C02F 69.2(5) . . ?
C026 Fe0B C02H 114.1(5) . . ?
C026 Fe0B C02N 135.5(5) . . ?
C026 Fe0B C02S 68.5(5) . . ?
C026 Fe0B C030 143.0(6) . . ?
C026 Fe0B C031 175.0(7) . . ?
C02B Fe0B C01N 133.5(4) . . ?
C02B Fe0B C026 41.9(5) . . ?
C02B Fe0B C02D 70.0(5) . . ?
C02B Fe0B C02F 41.8(5) . . ?
C02B Fe0B C02H 108.2(6) . . ?
C02B Fe0B C02N 174.7(5) . . ?
C02B Fe0B C02S 68.9(6) . . ?
C02B Fe0B C030 111.9(7) . . ?
C02B Fe0B C031 142.7(6) . . ?
C02D Fe0B C01N 115.6(5) . . ?
C02D Fe0B C02H 145.8(5) . . ?
C02D Fe0B C02N 110.9(6) . . ?
C02D Fe0B C02S 40.3(6) . . ?
C02D Fe0B C030 175.0(6) . . ?
C02F Fe0B C01N 173.8(6) . . ?
C02F Fe0B C02D 68.0(6) . . ?
C02F Fe0B C02H 134.2(7) . . ?
C02F Fe0B C02N 143.5(5) . . ?
C02F Fe0B C02S 39.4(6) . . ?
C02F Fe0B C030 110.1(6) . . ?
C02H Fe0B C01N 40.1(5) . . ?
C02H Fe0B C030 38.7(5) . . ?
C02N Fe0B C01N 41.3(4) . . ?
C02N Fe0B C02H 68.0(6) . . ?
C02N Fe0B C02S 115.3(6) . . ?
C02N Fe0B C030 67.7(7) . . ?
C02S Fe0B C01N 146.4(7) . . ?
C02S Fe0B C02H 172.8(7) . . ?
C02S Fe0B C030 135.4(7) . . ?
C031 Fe0B C01N 68.5(5) . . ?
C031 Fe0B C02D 134.6(7) . . ?
C031 Fe0B C02F 113.1(5) . . ?
C031 Fe0B C02H 67.8(6) . . ?
C031 Fe0B C02N 40.2(6) . . ?
C031 Fe0B C02S 110.1(6) . . ?
C031 Fe0B C030 41.2(6) . . ?
C024 Fe0C C028 39.4(4) . . ?
C024 Fe0C C02M 41.5(5) . . ?
C024 Fe0C C02U 64.9(6) . . ?
C024 Fe0C C02Y 66.5(6) . . ?
C024 Fe0C C02Z 106.0(6) . . ?
C024 Fe0C C038 162.7(5) . . ?
C024 Fe0C C0AA 152.4(6) . . ?
C028 Fe0C C02M 67.2(6) . . ?
C028 Fe0C C02U 39.4(5) . . ?
C028 Fe0C C02Y 68.4(6) . . ?
C028 Fe0C C02Z 119.3(5) . . ?
C028 Fe0C C038 126.7(6) . . ?
C028 Fe0C C0AA 167.1(6) . . ?
C02M Fe0C C02Y 36.1(5) . . ?
C02M Fe0C C0AA 118.6(7) . . ?
C02U Fe0C C02M 63.6(6) . . ?
C02U Fe0C C02Y 40.7(5) . . ?
C02U Fe0C C0AA 130.6(7) . . ?
C02V Fe0C C024 126.2(5) . . ?
C02V Fe0C C028 109.5(5) . . ?
C02V Fe0C C02M 164.3(6) . . ?
C02V Fe0C C02U 124.3(6) . . ?
C02V Fe0C C02Y 158.8(7) . . ?
C02V Fe0C C02Z 41.5(5) . . ?
C02V Fe0C C032 67.7(6) . . ?
C02V Fe0C C038 40.4(5) . . ?
C02V Fe0C C0AA 68.1(6) . . ?
C02Z Fe0C C02M 125.4(6) . . ?
C02Z Fe0C C02U 156.1(6) . . ?
C02Z Fe0C C02Y 158.8(6) . . ?
C02Z Fe0C C038 70.4(6) . . ?
C02Z Fe0C C0AA 68.0(7) . . ?
C032 Fe0C C024 120.1(6) . . ?
C032 Fe0C C028 154.3(6) . . ?
C032 Fe0C C02M 108.2(7) . . ?
C032 Fe0C C02U 162.8(6) . . ?
C032 Fe0C C02Y 123.7(7) . . ?
C032 Fe0C C02Z 41.1(5) . . ?
C032 Fe0C C038 68.9(7) . . ?
C032 Fe0C C0AA 37.9(6) . . ?
C038 Fe0C C02M 154.0(6) . . ?
C038 Fe0C C02U 111.3(6) . . ?
C038 Fe0C C02Y 122.7(7) . . ?
C038 Fe0C C0AA 43.2(6) . . ?
C0AA Fe0C C02Y 108.9(7) . . ?
C02L Fe0D C21 41.1(6) . . ?
C02L Fe0D C22 154.2(7) . . ?
C02L Fe0D C24 123.6(7) . . ?
C02W Fe0D C02L 40.7(6) . . ?
C02W Fe0D C037 126.9(7) . . ?
C02W Fe0D C21 70.8(7) . . ?
C02W Fe0D C22 117.6(8) . . ?
C02W Fe0D C24 109.9(8) . . ?
C034 Fe0D C02L 167.9(7) . . ?
C034 Fe0D C02W 151.2(7) . . ?
C034 Fe0D C035 114.2(8) . . ?
C034 Fe0D C036 118.9(8) . . ?
C034 Fe0D C037 64.9(7) . . ?
C034 Fe0D C039 42.7(7) . . ?
C034 Fe0D C21 129.8(8) . . ?
C034 Fe0D C22 36.8(6) . . ?
C034 Fe0D C24 60.9(8) . . ?
C035 Fe0D C02L 65.1(7) . . ?
C035 Fe0D C02W 65.9(7) . . ?
C035 Fe0D C036 36.8(6) . . ?
C035 Fe0D C037 157.2(8) . . ?
C035 Fe0D C039 123.5(8) . . ?
C035 Fe0D C21 41.1(6) . . ?
C035 Fe0D C22 125.5(8) . . ?
C035 Fe0D C24 162.8(8) . . ?
C036 Fe0D C02L 68.4(7) . . ?
C036 Fe0D C02W 42.7(6) . . ?
C036 Fe0D C037 165.3(8) . . ?
C036 Fe0D C039 153.3(8) . . ?
C036 Fe0D C21 69.5(8) . . ?
C036 Fe0D C22 105.4(8) . . ?
C036 Fe0D C24 128.6(9) . . ?
C037 Fe0D C02L 110.8(6) . . ?
C037 Fe0D C21 120.2(8) . . ?
C037 Fe0D C22 68.6(8) . . ?
C037 Fe0D C24 38.8(6) . . ?
C039 Fe0D C02L 126.6(7) . . ?
C039 Fe0D C02W 162.9(7) . . ?
C039 Fe0D C037 39.1(6) . . ?
C039 Fe0D C21 106.2(8) . . ?
C039 Fe0D C22 70.3(8) . . ?
C039 Fe0D C24 65.5(8) . . ?
C21 Fe0D C22 162.4(8) . . ?
C24 Fe0D C21 155.4(8) . . ?
C24 Fe0D C22 39.9(7) . . ?
In02 O00E In01 123.6(2) . . ?
In02 O00E In04 119.1(2) . . ?
In02 O00E In05 111.9(2) . . ?
In04 O00E In01 97.54(17) . . ?
In05 O00E In01 97.99(17) . . ?
In05 O00E In04 103.0(2) . . ?
In05 O00F In01 98.18(18) . . ?
In06 O00F In01 99.43(19) . . ?
In06 O00F In05 102.1(2) . . ?
In07 O00F In01 123.5(3) . . ?
In07 O00F In05 119.4(2) . . ?
In07 O00F In06 110.6(2) . . ?
In03 O00G In01 124.3(3) . . ?
In03 O00G In04 112.2(2) . . ?
In03 O00G In06 118.2(2) . . ?
In04 O00G In01 98.04(18) . . ?
In04 O00G In06 103.1(2) . . ?
In06 O00G In01 97.35(18) . . ?
C018 O00H In02 128.6(5) . . ?
C01C O00I In01 135.7(5) . . ?
In05 O00J In04 98.0(2) . . ?
In05 O00J In06 97.1(2) . . ?
In06 O00J In04 98.2(2) . . ?
C02R O00J In04 117.8(5) . . ?
C02R O00J In05 119.8(5) . . ?
C02R O00J In06 121.1(5) . . ?
C01A O00K In01 133.1(5) . . ?
C018 O00L In04 123.3(6) . . ?
C01J O00M In04 137.9(5) . . ?
C01A O00N In03 141.8(6) . . ?
C01C O00O In02 141.0(6) . . ?
C01Q O00P In02 126.8(6) . . ?
C022 O00Q In04 125.7(7) . . ?
C01F O00R In06 135.7(6) . . ?
C01G O00S In02 132.1(5) . . ?
C01G O00T In05 124.1(6) . . ?
C01I O00U In03 127.2(6) . . ?
C01M O00V In01 130.7(7) . . ?
C01Q O00W In05 140.1(6) . . ?
C01J O00X In03 128.1(6) . . ?
C022 O00Y In03 129.9(6) . . ?
C01I O00Z In06 124.8(7) . . ?
C01E N010 In02 127.7(5) . . ?
C01U N010 In02 127.2(6) . . ?
C01U N010 C01E 104.1(6) . . ?
C01F O011 In07 130.4(6) . . ?
C01E N012 In03 129.9(6) . 8_757 ?
C01E N012 C027 104.3(7) . . ?
C027 N012 In03 125.7(6) . 8_757 ?
C01Y O013 In07 133.0(8) . . ?
In07 O014 H01A 127.7 . . ?
In07 O014 H01B 127.7 . . ?
H01A O014 H01B 104.5 . . ?
C023 O015 In05 122.3(8) . . ?
C023 O016 In07 128.3(7) . . ?
C01Y O017 In06 120.3(9) . . ?
O00H C018 O00L 124.4(7) . . ?
O00H C018 C01D 119.1(9) . . ?
O00L C018 C01D 116.6(9) . . ?
C01M O019 In07 140.0(7) . . ?
O00K C01A C01B 118.4(8) . . ?
O00N C01A O00K 125.7(8) . . ?
O00N C01A C01B 115.9(8) . . ?
C01A C01B Fe0A 119.3(6) . . ?
C01W C01B Fe0A 70.8(5) . . ?
C01W C01B C01A 126.8(8) . . ?
C01X C01B Fe0A 69.7(5) . . ?
C01X C01B C01A 123.6(9) . . ?
C01X C01B C01W 109.1(8) . . ?
O00I C01C C01H 117.5(8) . . ?
O00O C01C O00I 124.1(8) . . ?
O00O C01C C01H 118.4(8) . . ?
C018 C01D Fe08 123.7(6) . . ?
C01R C01D Fe08 68.8(5) . . ?
C01R C01D C018 126.5(10) . . ?
C01Z C01D Fe08 70.8(5) . . ?
C01Z C01D C018 125.8(10) . . ?
C01Z C01D C01R 107.6(9) . . ?
N010 C01E H01E 122.8 . . ?
N012 C01E N010 114.4(7) . . ?
N012 C01E H01E 122.8 . . ?
O00R C01F O011 126.8(8) . . ?
O00R C01F C01L 117.8(9) . . ?
O011 C01F C01L 115.3(9) . . ?
O00S C01G O00T 125.5(8) . . ?
O00S C01G C01K 119.4(8) . . ?
O00T C01G C01K 115.1(9) . . ?
C01C C01H Fe09 121.9(7) . . ?
C01C C01H C01S 125.6(9) . . ?
C01P C01H Fe09 69.3(6) . . ?
C01P C01H C01C 127.4(8) . . ?
C01P C01H C01S 106.7(9) . . ?
C01S C01H Fe09 69.4(6) . . ?
O00U C01I O00Z 125.9(9) . . ?
O00U C01I C02V 117.4(10) . . ?
O00Z C01I C02V 116.8(11) . . ?
O00M C01J C01T 116.3(8) . . ?
O00X C01J O00M 128.0(8) . . ?
O00X C01J C01T 115.7(8) . . ?
C01G C01K Fe08 119.8(5) . . ?
C01V C01K Fe08 70.7(5) . . ?
C01V C01K C01G 126.4(8) . . ?
C01V C01K C029 108.3(8) . . ?
C029 C01K Fe08 69.2(5) . . ?
C029 C01K C01G 124.9(9) . . ?
C01F C01L Fe0A 122.7(7) . . ?
C01O C01L Fe0A 71.3(7) . . ?
C01O C01L C01F 125.5(10) . . ?
C01O C01L C02O 106.8(10) . . ?
C02O C01L Fe0A 68.8(7) . . ?
C02O C01L C01F 127.6(10) . . ?
O00V C01M C01N 114.5(11) . . ?
O019 C01M O00V 127.5(9) . . ?
O019 C01M C01N 118.0(9) . . ?
C01M C01N Fe0B 122.8(8) . . ?
C02H C01N Fe0B 69.3(7) . . ?
C02H C01N C01M 129.1(10) . . ?
C02H C01N C02N 106.4(11) . . ?
C02N C01N Fe0B 68.6(6) . . ?
C02N C01N C01M 124.4(12) . . ?
Fe0A C01O H01O 127.1 . . ?
C01L C01O Fe0A 68.9(7) . . ?
C01L C01O H01O 125.7 . . ?
C01L C01O C02I 108.6(14) . . ?
C02I C01O Fe0A 69.9(7) . . ?
C02I C01O H01O 125.7 . . ?
Fe09 C01P H01P 124.9 . . ?
C01H C01P Fe09 69.9(6) . . ?
C01H C01P H01P 125.7 . . ?
C01H C01P C02Q 108.6(10) . . ?
C02Q C01P Fe09 71.2(7) . . ?
C02Q C01P H01P 125.7 . . ?
O00P C01Q O00W 126.7(8) . . ?
O00P C01Q C026 116.2(9) . . ?
O00W C01Q C026 117.1(9) . . ?
Fe08 C01R H01R 126.3 . . ?
C01D C01R Fe08 69.8(6) . . ?
C01D C01R H01R 127.3 . . ?
C02J C01R Fe08 68.1(6) . . ?
C02J C01R C01D 105.3(11) . . ?
C02J C01R H01R 127.3 . . ?
Fe09 C01S H01S 126.3 . . ?
C01H C01S Fe09 69.2(6) . . ?
C01H C01S H01S 126.1 . . ?
C025 C01S Fe09 69.9(7) . . ?
C025 C01S C01H 107.7(11) . . ?
C025 C01S H01S 126.1 . . ?
C01J C01T Fe09 122.9(6) . . ?
C020 C01T Fe09 70.2(6) . . ?
C020 C01T C01J 125.7(9) . . ?
C020 C01T C02C 109.3(9) . . ?
C02C C01T Fe09 69.1(6) . . ?
C02C C01T C01J 124.8(9) . . ?
N010 C01U H01U 125.1 . . ?
N010 C01U C027 109.9(8) . . ?
C027 C01U H01U 125.1 . . ?
Fe08 C01V H01V 125.8 . . ?
C01K C01V Fe08 69.0(5) . . ?
C01K C01V H01V 126.8 . . ?
C01K C01V C02A 106.4(9) . . ?
C02A C01V Fe08 70.0(5) . . ?
C02A C01V H01V 126.8 . . ?
Fe0A C01W H01W 127.2 . . ?
C01B C01W Fe0A 68.5(6) . . ?
C01B C01W H01W 127.0 . . ?
C02T C01W Fe0A 68.8(8) . . ?
C02T C01W C01B 106.0(10) . . ?
C02T C01W H01W 127.0 . . ?
Fe0A C01X H01X 124.8 . . ?
C01B C01X Fe0A 69.8(5) . . ?
C01B C01X H01X 126.0 . . ?
C01B C01X C02P 108.1(10) . . ?
C02P C01X Fe0A 71.1(6) . . ?
C02P C01X H01X 126.0 . . ?
O013 C01Y O017 125.8(12) . . ?
O013 C01Y C037 121.7(14) . . ?
O017 C01Y C037 112.4(15) . . ?
Fe08 C01Z H01Z 129.2 . . ?
C01D C01Z Fe08 68.6(5) . . ?
C01D C01Z H01Z 126.3 . . ?
C02E C01Z Fe08 67.5(7) . . ?
C02E C01Z C01D 107.5(11) . . ?
C02E C01Z H01Z 126.3 . . ?
Fe09 C020 H020 125.0 . . ?
C01T C020 Fe09 70.2(6) . . ?
C01T C020 H020 127.1 . . ?
C01T C020 C021 105.9(12) . . ?
C021 C020 Fe09 69.3(7) . . ?
C021 C020 H020 127.1 . . ?
Fe09 C021 H021 126.6 . . ?
C020 C021 Fe09 69.0(6) . . ?
C020 C021 H021 125.1 . . ?
C02K C021 Fe09 70.9(8) . . ?
C02K C021 C020 109.8(11) . . ?
C02K C021 H021 125.1 . . ?
O00Q C022 C028 117.7(12) . . ?
O00Y C022 O00Q 126.6(10) . . ?
O00Y C022 C028 115.7(10) . . ?
O015 C023 O016 124.9(10) . . ?
O015 C023 C02L 115.2(12) . . ?
O016 C023 C02L 119.8(11) . . ?
Fe0C C024 H024 124.7 . . ?
C028 C024 Fe0C 70.5(8) . . ?
C028 C024 H024 126.7 . . ?
C028 C024 C02M 106.7(14) . . ?
C02M C024 Fe0C 69.8(8) . . ?
C02M C024 H024 126.7 . . ?
Fe09 C025 H025 125.1 . . ?
C01S C025 Fe09 70.2(6) . . ?
C01S C025 H025 125.0 . . ?
C01S C025 C02Q 109.9(11) . . ?
C02Q C025 Fe09 71.2(7) . . ?
C02Q C025 H025 125.0 . . ?
C01Q C026 Fe0B 122.5(7) . . ?
C02B C026 Fe0B 69.1(7) . . ?
C02B C026 C01Q 126.0(10) . . ?
C02D C026 Fe0B 70.8(7) . . ?
C02D C026 C01Q 125.5(10) . . ?
C02D C026 C02B 108.4(10) . . ?
N012 C027 H027 126.4 . . ?
C01U C027 N012 107.3(8) . . ?
C01U C027 H027 126.4 . . ?
C022 C028 Fe0C 122.3(8) . . ?
C024 C028 Fe0C 70.2(8) . . ?
C024 C028 C022 129.2(12) . . ?
C024 C028 C02U 105.6(12) . . ?
C02U C028 Fe0C 70.4(8) . . ?
C02U C028 C022 125.2(12) . . ?
Fe08 C029 H029 125.9 . . ?
C01K C029 Fe08 69.8(5) . . ?
C01K C029 H029 126.3 . . ?
C02G C029 Fe08 69.7(6) . . ?
C02G C029 C01K 107.5(9) . . ?
C02G C029 H029 126.3 . . ?
Fe08 C02A H02A 128.4 . . ?
C01V C02A Fe08 68.5(5) . . ?
C01V C02A H02A 126.1 . . ?
C02G C02A Fe08 68.5(6) . . ?
C02G C02A C01V 107.8(10) . . ?
C02G C02A H02A 126.1 . . ?
Fe0B C02B H02B 125.1 . . ?
C026 C02B Fe0B 69.1(6) . . ?
C026 C02B H02B 127.0 . . ?
C026 C02B C02F 106.0(12) . . ?
C02F C02B Fe0B 70.4(7) . . ?
C02F C02B H02B 127.0 . . ?
Fe09 C02C H02C 125.1 . . ?
C01T C02C Fe09 69.2(6) . . ?
C01T C02C H02C 125.3 . . ?
C02K C02C Fe09 71.9(8) . . ?
C02K C02C C01T 109.4(12) . . ?
C02K C02C H02C 125.3 . . ?
Fe0B C02D H02D 127.1 . . ?
C026 C02D Fe0B 67.9(8) . . ?
C026 C02D H02D 126.5 . . ?
C02S C02D Fe0B 70.0(10) . . ?
C02S C02D C026 107.0(13) . . ?
C02S C02D H02D 126.5 . . ?
Fe08 C02E H02E 124.2 . . ?
C01Z C02E Fe08 72.2(6) . . ?
C01Z C02E H02E 125.7 . . ?
C02J C02E Fe08 69.6(7) . . ?
C02J C02E C01Z 108.6(11) . . ?
C02J C02E H02E 125.7 . . ?
Fe0B C02F H02F 127.5 . . ?
C02B C02F Fe0B 67.8(6) . . ?
C02B C02F H02F 125.6 . . ?
C02S C02F Fe0B 70.7(8) . . ?
C02S C02F C02B 108.8(12) . . ?
C02S C02F H02F 125.6 . . ?
Fe08 C02G H02G 124.2 . . ?
C029 C02G Fe08 69.8(6) . . ?
C029 C02G H02G 125.0 . . ?
C02A C02G Fe08 72.6(6) . . ?
C02A C02G C029 110.0(10) . . ?
C02A C02G H02G 125.0 . . ?
Fe0B C02H H02H 124.5 . . ?
C01N C02H Fe0B 70.6(8) . . ?
C01N C02H H02H 124.9 . . ?
C030 C02H Fe0B 71.6(11) . . ?
C030 C02H C01N 110.2(13) . . ?
C030 C02H H02H 124.9 . . ?
Fe0A C02I H02I 126.1 . . ?
C01O C02I Fe0A 69.9(7) . . ?
C01O C02I H02I 126.4 . . ?
C01O C02I C02X 107.1(13) . . ?
C02X C02I Fe0A 69.1(7) . . ?
C02X C02I H02I 126.4 . . ?
Fe08 C02J H02J 125.6 . . ?
C01R C02J Fe08 70.6(6) . . ?
C01R C02J H02J 124.5 . . ?
C02E C02J Fe08 70.8(7) . . ?
C02E C02J C01R 110.9(11) . . ?
C02E C02J H02J 124.5 . . ?
Fe09 C02K H02K 127.6 . . ?
C021 C02K Fe09 68.1(8) . . ?
C021 C02K H02K 127.2 . . ?
C02C C02K Fe09 68.6(7) . . ?
C02C C02K C021 105.6(12) . . ?
C02C C02K H02K 127.2 . . ?
C023 C02L Fe0D 119.9(8) . . ?
C02W C02L Fe0D 68.9(8) . . ?
C02W C02L C023 122.5(13) . . ?
C02W C02L C21 113.0(14) . . ?
C21 C02L Fe0D 72.0(8) . . ?
C21 C02L C023 123.9(14) . . ?
Fe0C C02M H02M 124.7 . . ?
C024 C02M Fe0C 68.7(8) . . ?
C024 C02M H02M 123.9 . . ?
C02Y C02M Fe0C 74.1(11) . . ?
C02Y C02M C024 112.1(16) . . ?
C02Y C02M H02M 123.9 . . ?
Fe0B C02N H02N 126.1 . . ?
C01N C02N Fe0B 70.1(6) . . ?
C01N C02N H02N 126.1 . . ?
C031 C02N Fe0B 69.3(7) . . ?
C031 C02N C01N 107.8(13) . . ?
C031 C02N H02N 126.1 . . ?
Fe0A C02O H02O 124.7 . . ?
C01L C02O Fe0A 70.4(8) . . ?
C01L C02O H02O 123.6 . . ?
C02X C02O Fe0A 72.9(10) . . ?
C02X C02O C01L 112.8(15) . . ?
C02X C02O H02O 123.6 . . ?
Fe0A C02P H02P 127.9 . . ?
C01X C02P Fe0A 68.5(6) . . ?
C01X C02P H02P 126.5 . . ?
C02T C02P Fe0A 68.7(8) . . ?
C02T C02P C01X 107.0(10) . . ?
C02T C02P H02P 126.5 . . ?
Fe09 C02Q H02Q 128.0 . . ?
C01P C02Q Fe09 68.2(6) . . ?
C01P C02Q H02Q 126.5 . . ?
C025 C02Q Fe09 68.8(8) . . ?
C025 C02Q C01P 107.0(11) . . ?
C025 C02Q H02Q 126.5 . . ?
O00J C02R H02L 109.5 . . ?
O00J C02R H02R 109.5 . . ?
O00J C02R H02S 109.5 . . ?
H02L C02R H02R 109.5 . . ?
H02L C02R H02S 109.5 . . ?
H02R C02R H02S 109.5 . . ?
Fe0B C02S H02T 126.9 . . ?
C02D C02S Fe0B 69.7(8) . . ?
C02D C02S H02T 125.1 . . ?
C02F C02S Fe0B 69.9(10) . . ?
C02F C02S C02D 109.8(12) . . ?
C02F C02S H02T 125.1 . . ?
Fe0A C02T H02U 124.6 . . ?
C01W C02T Fe0A 70.8(7) . . ?
C01W C02T H02U 125.1 . . ?
C02P C02T Fe0A 71.1(9) . . ?
C02P C02T C01W 109.9(12) . . ?
C02P C02T H02U 125.1 . . ?
Fe0C C02U H02V 125.3 . . ?
C028 C02U Fe0C 70.1(8) . . ?
C028 C02U H02V 124.4 . . ?
C028 C02U C02Y 111.3(14) . . ?
C02Y C02U Fe0C 71.8(9) . . ?
C02Y C02U H02V 124.4 . . ?
C01I C02V Fe0C 122.3(9) . . ?
C02Z C02V Fe0C 70.5(8) . . ?
C02Z C02V C01I 125.4(12) . . ?
C038 C02V Fe0C 71.1(9) . . ?
C038 C02V C01I 122.1(13) . . ?
C038 C02V C02Z 112.4(13) . . ?
Fe0D C02W H02W 125.6 . . ?
C02L C02W Fe0D 70.4(8) . . ?
C02L C02W H02W 127.9 . . ?
C02L C02W C036 104.1(15) . . ?
C036 C02W Fe0D 67.7(8) . . ?
C036 C02W H02W 127.9 . . ?
Fe0A C02X H02X 127.0 . . ?
C02I C02X Fe0A 68.6(9) . . ?
C02I C02X H02X 127.6 . . ?
C02O C02X Fe0A 68.3(8) . . ?
C02O C02X C02I 104.7(13) . . ?
C02O C02X H02X 127.6 . . ?
Fe0C C02Y H02Y 126.4 . . ?
C02M C02Y Fe0C 69.8(10) . . ?
C02M C02Y C02U 104.3(16) . . ?
C02M C02Y H02Y 127.8 . . ?
C02U C02Y Fe0C 67.5(9) . . ?
C02U C02Y H02Y 127.8 . . ?
Fe0C C02Z H02Z 126.2 . . ?
C02V C02Z Fe0C 68.0(8) . . ?
C02V C02Z H02Z 128.2 . . ?
C032 C02Z Fe0C 69.1(9) . . ?
C032 C02Z C02V 103.5(14) . . ?
C032 C02Z H02Z 128.2 . . ?
Fe0B C030 H030 128.1 . . ?
C02H C030 Fe0B 69.7(10) . . ?
C02H C030 H030 126.0 . . ?
C02H C030 C031 108.1(14) . . ?
C031 C030 Fe0B 67.9(11) . . ?
C031 C030 H030 126.0 . . ?
Fe0B C031 H031 126.3 . . ?
C02N C031 Fe0B 70.5(8) . . ?
C02N C031 C030 107.4(11) . . ?
C02N C031 H031 126.3 . . ?
C030 C031 Fe0B 70.9(9) . . ?
C030 C031 H031 126.3 . . ?
Fe0C C032 H032 125.5 . . ?
C02Z C032 Fe0C 69.8(9) . . ?
C02Z C032 H032 123.7 . . ?
C0AA C032 Fe0C 72.6(11) . . ?
C0AA C032 C02Z 112.6(17) . . ?
C0AA C032 H032 123.7 . . ?
Fe0D C034 H034 119.1 . . ?
C039 C034 Fe0D 70.3(9) . . ?
C039 C034 H034 119.1 . . ?
C22 C034 Fe0D 81.2(12) . . ?
C22 C034 H034 119.1 . . ?
C22 C034 C039 122(2) . . ?
Fe0D C035 H035 119.8 . . ?
C036 C035 Fe0D 72.0(10) . . ?
C036 C035 H035 119.8 . . ?
C036 C035 C21 120.0(19) . . ?
C21 C035 Fe0D 74.1(10) . . ?
C21 C035 H035 119.8 . . ?
Fe0D C036 H036 126.8 . . ?
C02W C036 Fe0D 69.6(7) . . ?
C02W C036 H036 126.8 . . ?
C035 C036 Fe0D 71.1(10) . . ?
C035 C036 C02W 106.3(17) . . ?
C035 C036 H036 126.8 . . ?
C01Y C037 Fe0D 120.2(10) . . ?
C039 C037 Fe0D 69.8(10) . . ?
C039 C037 C01Y 124.8(18) . . ?
C039 C037 C24 109.3(19) . . ?
C24 C037 Fe0D 72.9(11) . . ?
C24 C037 C01Y 125.7(18) . . ?
Fe0C C038 H038 125.4 . . ?
C02V C038 Fe0C 68.5(9) . . ?
C02V C038 H038 128.4 . . ?
C02V C038 C0AA 103.2(14) . . ?
C0AA C038 Fe0C 69.4(9) . . ?
C0AA C038 H038 128.4 . . ?
Fe0D C039 H039 123.7 . . ?
C034 C039 Fe0D 67.0(9) . . ?
C034 C039 H039 130.1 . . ?
C037 C039 Fe0D 71.1(10) . . ?
C037 C039 C034 99.8(19) . . ?
C037 C039 H039 130.1 . . ?
Fe0D C21 H21 127.9 . . ?
C02L C21 Fe0D 66.9(9) . . ?
C02L C21 H21 131.7 . . ?
C035 C21 Fe0D 64.7(9) . . ?
C035 C21 C02L 96.5(16) . . ?
C035 C21 H21 131.7 . . ?
Fe0D C22 H22 130.2 . . ?
C034 C22 Fe0D 62.0(11) . . ?
C034 C22 H22 132.8 . . ?
C034 C22 C24 94.4(19) . . ?
C24 C22 Fe0D 65.9(11) . . ?
C24 C22 H22 132.8 . . ?
Fe0D C24 H24 126.6 . . ?
C037 C24 Fe0D 68.3(11) . . ?
C037 C24 C22 115(2) . . ?
C037 C24 H24 122.6 . . ?
C22 C24 Fe0D 74.2(12) . . ?
C22 C24 H24 122.6 . . ?
Fe0C C0AA H0AA 128.6 . . ?
C032 C0AA Fe0C 69.6(11) . . ?
C032 C0AA C038 108.1(16) . . ?
C032 C0AA H0AA 125.9 . . ?
C038 C0AA Fe0C 67.5(9) . . ?
C038 C0AA H0AA 125.9 . . ?
loop_
_geom_bond_atom_site_label_1
_geom_bond_atom_site_label_2
_geom_bond_distance
_geom_bond_site_symmetry_2
_geom_bond_publ_flag
In01 O00E 2.205(5) . ?
In01 O00F 2.186(5) . ?
In01 O00G 2.215(5) . ?
In01 O00I 2.134(6) . ?
In01 O00K 2.112(5) . ?
In01 O00V 2.123(6) . ?
In02 O00E 2.105(5) . ?
In02 O00H 2.204(6) . ?
In02 O00O 2.142(6) . ?
In02 O00P 2.152(5) . ?
In02 O00S 2.196(6) . ?
In02 N010 2.142(6) . ?
In03 O00G 2.101(5) . ?
In03 O00N 2.153(7) . ?
In03 O00U 2.220(7) . ?
In03 O00X 2.147(6) . ?
In03 O00Y 2.208(7) . ?
In03 N012 2.153(6) 7_577 ?
In04 O00E 2.172(5) . ?
In04 O00G 2.146(5) . ?
In04 O00J 2.250(5) . ?
In04 O00L 2.105(6) . ?
In04 O00M 2.153(5) . ?
In04 O00Q 2.112(6) . ?
In05 O00E 2.150(5) . ?
In05 O00F 2.163(5) . ?
In05 O00J 2.232(5) . ?
In05 O00T 2.110(6) . ?
In05 O00W 2.119(7) . ?
In05 O015 2.076(7) . ?
In06 O00F 2.141(5) . ?
In06 O00G 2.181(5) . ?
In06 O00J 2.234(6) . ?
In06 O00R 2.119(6) . ?
In06 O00Z 2.087(6) . ?
In06 O017 2.127(7) . ?
In07 O00F 2.093(5) . ?
In07 O011 2.126(6) . ?
In07 O013 2.165(10) . ?
In07 O014 2.298(6) . ?
In07 O016 2.133(7) . ?
In07 O019 2.084(9) . ?
Fe08 C01D 2.059(9) . ?
Fe08 C01K 2.026(8) . ?
Fe08 C01R 2.045(11) . ?
Fe08 C01V 2.049(9) . ?
Fe08 C01Z 2.088(10) . ?
Fe08 C029 2.019(10) . ?
Fe08 C02A 2.069(10) . ?
Fe08 C02E 2.027(12) . ?
Fe08 C02G 2.018(10) . ?
Fe08 C02J 2.011(10) . ?
Fe09 C01H 2.031(10) . ?
Fe09 C01P 2.023(10) . ?
Fe09 C01S 2.034(12) . ?
Fe09 C01T 2.042(11) . ?
Fe09 C020 2.041(11) . ?
Fe09 C021 2.044(13) . ?
Fe09 C025 2.029(12) . ?
Fe09 C02C 2.040(11) . ?
Fe09 C02K 2.082(14) . ?
Fe09 C02Q 2.061(13) . ?
Fe0A C01B 2.037(9) . ?
Fe0A C01L 2.018(10) . ?
Fe0A C01O 2.049(12) . ?
Fe0A C01W 2.066(11) . ?
Fe0A C01X 2.036(9) . ?
Fe0A C02I 2.048(12) . ?
Fe0A C02O 1.998(15) . ?
Fe0A C02P 2.071(12) . ?
Fe0A C02T 2.040(15) . ?
Fe0A C02X 2.055(15) . ?
Fe0B C01N 2.056(11) . ?
Fe0B C026 1.994(12) . ?
Fe0B C02B 1.994(11) . ?
Fe0B C02D 2.032(15) . ?
Fe0B C02F 2.028(12) . ?
Fe0B C02H 2.038(15) . ?
Fe0B C02N 2.036(11) . ?
Fe0B C02S 2.037(16) . ?
Fe0B C030 2.06(2) . ?
Fe0B C031 2.021(14) . ?
Fe0C C024 2.029(14) . ?
Fe0C C028 2.033(12) . ?
Fe0C C02M 2.043(15) . ?
Fe0C C02U 2.037(15) . ?
Fe0C C02V 2.004(14) . ?
Fe0C C02Y 2.095(17) . ?
Fe0C C02Z 2.036(14) . ?
Fe0C C032 2.027(16) . ?
Fe0C C038 2.037(16) . ?
Fe0C C0AA 2.064(18) . ?
Fe0D C02L 2.062(15) . ?
Fe0D C02W 2.042(14) . ?
Fe0D C034 1.980(17) . ?
Fe0D C035 2.004(17) . ?
Fe0D C036 2.015(15) . ?
Fe0D C037 2.043(16) . ?
Fe0D C039 2.026(18) . ?
Fe0D C21 2.131(18) . ?
Fe0D C22 2.22(2) . ?
Fe0D C24 2.10(2) . ?
O00H C018 1.239(10) . ?
O00I C01C 1.283(9) . ?
O00J C02R 1.447(12) . ?
O00K C01A 1.264(9) . ?
O00L C018 1.295(10) . ?
O00M C01J 1.242(10) . ?
O00N C01A 1.254(10) . ?
O00O C01C 1.253(9) . ?
O00P C01Q 1.243(10) . ?
O00Q C022 1.265(12) . ?
O00R C01F 1.238(11) . ?
O00S C01G 1.237(11) . ?
O00T C01G 1.266(10) . ?
O00U C01I 1.244(12) . ?
O00V C01M 1.298(11) . ?
O00W C01Q 1.259(11) . ?
O00X C01J 1.242(10) . ?
O00Y C022 1.252(13) . ?
O00Z C01I 1.247(11) . ?
N010 C01E 1.327(9) . ?
N010 C01U 1.326(10) . ?
O011 C01F 1.271(11) . ?
N012 C01E 1.297(9) . ?
N012 C027 1.372(11) . ?
O013 C01Y 1.190(15) . ?
O014 H01A 0.8861 . ?
O014 H01B 0.8861 . ?
O015 C023 1.259(12) . ?
O016 C023 1.268(13) . ?
O017 C01Y 1.267(15) . ?
C018 C01D 1.453(12) . ?
O019 C01M 1.260(14) . ?
C01A C01B 1.468(11) . ?
C01B C01W 1.427(14) . ?
C01B C01X 1.411(12) . ?
C01C C01H 1.436(13) . ?
C01D C01R 1.451(14) . ?
C01D C01Z 1.442(14) . ?
C01E H01E 0.9300 . ?
C01F C01L 1.487(12) . ?
C01G C01K 1.491(12) . ?
C01H C01P 1.414(13) . ?
C01H C01S 1.437(13) . ?
C01I C02V 1.515(16) . ?
C01J C01T 1.487(12) . ?
C01K C01V 1.402(13) . ?
C01K C029 1.418(12) . ?
C01L C01O 1.386(16) . ?
C01L C02O 1.399(15) . ?
C01M C01N 1.480(15) . ?
C01N C02H 1.404(16) . ?
C01N C02N 1.443(14) . ?
C01O H01O 0.9300 . ?
C01O C02I 1.410(17) . ?
C01P H01P 0.9300 . ?
C01P C02Q 1.417(15) . ?
C01Q C026 1.471(13) . ?
C01R H01R 0.9300 . ?
C01R C02J 1.431(17) . ?
C01S H01S 0.9300 . ?
C01S C025 1.385(16) . ?
C01T C020 1.382(13) . ?
C01T C02C 1.454(14) . ?
C01U H01U 0.9300 . ?
C01U C027 1.346(13) . ?
C01V H01V 0.9300 . ?
C01V C02A 1.460(14) . ?
C01W H01W 0.9300 . ?
C01W C02T 1.416(14) . ?
C01X H01X 0.9300 . ?
C01X C02P 1.420(15) . ?
C01Y C037 1.50(2) . ?
C01Z H01Z 0.9300 . ?
C01Z C02E 1.419(16) . ?
C020 H020 0.9300 . ?
C020 C021 1.453(17) . ?
C021 H021 0.9300 . ?
C021 C02K 1.45(2) . ?
C022 C028 1.484(15) . ?
C023 C02L 1.500(17) . ?
C024 H024 0.9300 . ?
C024 C028 1.368(16) . ?
C024 C02M 1.444(18) . ?
C025 H025 0.9300 . ?
C025 C02Q 1.399(17) . ?
C026 C02B 1.424(16) . ?
C026 C02D 1.422(15) . ?
C027 H027 0.9300 . ?
C028 C02U 1.373(16) . ?
C029 H029 0.9300 . ?
C029 C02G 1.399(14) . ?
C02A H02A 0.9300 . ?
C02A C02G 1.359(15) . ?
C02B H02B 0.9300 . ?
C02B C02F 1.433(16) . ?
C02C H02C 0.9300 . ?
C02C C02K 1.391(17) . ?
C02D H02D 0.9300 . ?
C02D C02S 1.402(18) . ?
C02E H02E 0.9300 . ?
C02E C02J 1.369(19) . ?
C02F H02F 0.9300 . ?
C02F C02S 1.37(2) . ?
C02G H02G 0.9300 . ?
C02H H02H 0.9300 . ?
C02H C030 1.360(17) . ?
C02I H02I 0.9300 . ?
C02I C02X 1.48(2) . ?
C02J H02J 0.9300 . ?
C02K H02K 0.9300 . ?
C02L C02W 1.43(2) . ?
C02L C21 1.47(2) . ?
C02M H02M 0.9300 . ?
C02M C02Y 1.282(19) . ?
C02N H02N 0.9300 . ?
C02N C031 1.39(2) . ?
C02O H02O 0.9300 . ?
C02O C02X 1.348(18) . ?
C02P H02P 0.9300 . ?
C02P C02T 1.415(18) . ?
C02Q H02Q 0.9300 . ?
C02R H02L 0.9600 . ?
C02R H02R 0.9600 . ?
C02R H02S 0.9600 . ?
C02S H02T 0.9300 . ?
C02T H02U 0.9300 . ?
C02U H02V 0.9300 . ?
C02U C02Y 1.439(19) . ?
C02V C02Z 1.431(18) . ?
C02V C038 1.396(18) . ?
C02W H02W 0.9300 . ?
C02W C036 1.48(2) . ?
C02X H02X 0.9300 . ?
C02Y H02Y 0.9300 . ?
C02Z H02Z 0.9300 . ?
C02Z C032 1.426(19) . ?
C030 H030 0.9300 . ?
C030 C031 1.44(2) . ?
C031 H031 0.9800 . ?
C032 H032 0.9300 . ?
C032 C0AA 1.33(2) . ?
C034 H034 0.9800 . ?
C034 C039 1.46(2) . ?
C034 C22 1.34(2) . ?
C035 H035 0.9800 . ?
C035 C036 1.27(2) . ?
C035 C21 1.46(2) . ?
C036 H036 0.9800 . ?
C037 C039 1.36(2) . ?
C037 C24 1.38(2) . ?
C038 H038 0.9300 . ?
C038 C0AA 1.51(2) . ?
C039 H039 0.9300 . ?
C21 H21 0.9300 . ?
C22 H22 0.9300 . ?
C22 C24 1.48(2) . ?
C24 H24 0.9300 . ?
C0AA H0AA 0.9300 . ?
loop_
_geom_torsion_atom_site_label_1
_geom_torsion_atom_site_label_2
_geom_torsion_atom_site_label_3
_geom_torsion_atom_site_label_4
_geom_torsion
_geom_torsion_site_symmetry_1
_geom_torsion_site_symmetry_2
_geom_torsion_site_symmetry_3
_geom_torsion_site_symmetry_4
_geom_torsion_publ_flag
In01 O00I C01C O00O 6.2(13) . . . . ?
In01 O00I C01C C01H -174.9(6) . . . . ?
In01 O00K C01A O00N 1.9(13) . . . . ?
In01 O00K C01A C01B -176.2(5) . . . . ?
In01 O00V C01M O019 2.7(16) . . . . ?
In01 O00V C01M C01N -177.6(7) . . . . ?
In02 O00H C018 O00L 59.6(10) . . . . ?
In02 O00H C018 C01D -118.4(7) . . . . ?
In02 O00O C01C O00I 16.5(15) . . . . ?
In02 O00O C01C C01H -162.4(7) . . . . ?
In02 O00P C01Q O00W -15.4(14) . . . . ?
In02 O00P C01Q C026 165.4(6) . . . . ?
In02 O00S C01G O00T -46.0(12) . . . . ?
In02 O00S C01G C01K 135.9(6) . . . . ?
In02 N010 C01E N012 -169.6(6) . . . . ?
In02 N010 C01U C027 171.0(9) . . . . ?
In03 O00N C01A O00K 23.0(15) . . . . ?
In03 O00N C01A C01B -158.9(7) . . . . ?
In03 O00U C01I O00Z 56.8(13) . . . . ?
In03 O00U C01I C02V -123.8(8) . . . . ?
In03 O00X C01J O00M -12.1(13) . . . . ?
In03 O00X C01J C01T 167.6(6) . . . . ?
In03 O00Y C022 O00Q -41.9(15) . . . . ?
In03 O00Y C022 C028 136.8(8) . . . . ?
In03 N012 C01E N010 174.0(6) 8_757 . . . ?
In03 N012 C027 C01U -173.4(9) 8_757 . . . ?
In04 O00L C018 O00H 3.4(10) . . . . ?
In04 O00L C018 C01D -178.5(5) . . . . ?
In04 O00M C01J O00X -1.9(15) . . . . ?
In04 O00M C01J C01T 178.4(6) . . . . ?
In04 O00Q C022 O00Y -4.1(15) . . . . ?
In04 O00Q C022 C028 177.3(7) . . . . ?
In05 O00T C01G O00S -2.6(11) . . . . ?
In05 O00T C01G C01K 175.6(5) . . . . ?
In05 O00W C01Q O00P -1.8(17) . . . . ?
In05 O00W C01Q C026 177.3(7) . . . . ?
In05 O015 C023 O016 5.4(14) . . . . ?
In05 O015 C023 C02L -174.9(7) . . . . ?
In06 O00R C01F O011 -5.7(15) . . . . ?
In06 O00R C01F C01L 178.7(6) . . . . ?
In06 O00Z C01I O00U 4.3(14) . . . . ?
In06 O00Z C01I C02V -175.2(7) . . . . ?
In06 O017 C01Y O013 0.4(16) . . . . ?
In06 O017 C01Y C037 176.7(8) . . . . ?
In07 O011 C01F O00R -9.8(14) . . . . ?
In07 O011 C01F C01L 165.9(6) . . . . ?
In07 O013 C01Y O017 -52.9(17) . . . . ?
In07 O013 C01Y C037 131.2(11) . . . . ?
In07 O016 C023 O015 60.9(14) . . . . ?
In07 O016 C023 C02L -118.8(9) . . . . ?
In07 O019 C01M O00V 23.8(18) . . . . ?
In07 O019 C01M C01N -155.8(8) . . . . ?
Fe08 C01D C01R C02J -59.1(7) . . . . ?
Fe08 C01D C01Z C02E 56.3(7) . . . . ?
Fe08 C01K C01V C02A 60.3(6) . . . . ?
Fe08 C01K C029 C02G -59.7(7) . . . . ?
Fe08 C01R C02J C02E -59.5(9) . . . . ?
Fe08 C01V C02A C02G 57.4(7) . . . . ?
Fe08 C01Z C02E C02J 60.3(9) . . . . ?
Fe08 C029 C02G C02A -61.8(8) . . . . ?
Fe08 C02A C02G C029 60.0(7) . . . . ?
Fe08 C02E C02J C01R 59.4(9) . . . . ?
Fe09 C01H C01P C02Q -60.9(8) . . . . ?
Fe09 C01H C01S C025 59.5(8) . . . . ?
Fe09 C01P C02Q C025 -58.0(9) . . . . ?
Fe09 C01S C025 C02Q 60.4(10) . . . . ?
Fe09 C01T C020 C021 -60.5(8) . . . . ?
Fe09 C01T C02C C02K 61.0(9) . . . . ?
Fe09 C020 C021 C02K -59.3(10) . . . . ?
Fe09 C021 C02K C02C -58.7(9) . . . . ?
Fe09 C025 C02Q C01P 57.7(9) . . . . ?
Fe09 C02C C02K C021 58.3(10) . . . . ?
Fe0A C01B C01W C02T -58.9(8) . . . . ?
Fe0A C01B C01X C02P 61.1(8) . . . . ?
Fe0A C01L C01O C02I 58.7(9) . . . . ?
Fe0A C01L C02O C02X -60.8(11) . . . . ?
Fe0A C01O C02I C02X 59.4(10) . . . . ?
Fe0A C01W C02T C02P -60.6(10) . . . . ?
Fe0A C01X C02P C02T 58.1(9) . . . . ?
Fe0A C02I C02X C02O 59.1(10) . . . . ?
Fe0A C02O C02X C02I -59.3(10) . . . . ?
Fe0A C02P C02T C01W 60.5(9) . . . . ?
Fe0B C01N C02H C030 -60.9(11) . . . . ?
Fe0B C01N C02N C031 59.3(10) . . . . ?
Fe0B C026 C02B C02F 61.1(9) . . . . ?
Fe0B C026 C02D C02S -59.4(10) . . . . ?
Fe0B C02B C02F C02S 58.9(11) . . . . ?
Fe0B C02D C02S C02F -58.5(12) . . . . ?
Fe0B C02F C02S C02D 58.3(11) . . . . ?
Fe0B C02H C030 C031 -57.0(12) . . . . ?
Fe0B C02N C031 C030 61.7(11) . . . . ?
Fe0B C030 C031 C02N -61.4(11) . . . . ?
Fe0C C024 C028 C022 -116.0(12) . . . . ?
Fe0C C024 C028 C02U 62.0(9) . . . . ?
Fe0C C024 C02M C02Y -61.7(13) . . . . ?
Fe0C C028 C02U C02Y 60.1(11) . . . . ?
Fe0C C02M C02Y C02U -59.0(11) . . . . ?
Fe0C C02U C02Y C02M 60.5(12) . . . . ?
Fe0C C02V C02Z C032 60.5(10) . . . . ?
Fe0C C02V C038 C0AA -61.2(10) . . . . ?
Fe0C C02Z C032 C0AA 60.1(13) . . . . ?
Fe0C C032 C0AA C038 56.5(12) . . . . ?
Fe0C C038 C0AA C032 -57.8(13) . . . . ?
Fe0D C02L C02W C036 -59.6(9) . . . . ?
Fe0D C02L C21 C035 59.0(8) . . . . ?
Fe0D C02W C036 C035 -62.1(11) . . . . ?
Fe0D C034 C039 C037 64.5(9) . . . . ?
Fe0D C034 C22 C24 -59.8(12) . . . . ?
Fe0D C035 C036 C02W 61.1(10) . . . . ?
Fe0D C035 C21 C02L -60.7(8) . . . . ?
Fe0D C037 C039 C034 -61.4(9) . . . . ?
Fe0D C037 C24 C22 59.5(15) . . . . ?
Fe0D C22 C24 C037 -56.3(14) . . . . ?
O00H C018 C01D Fe08 96.9(9) . . . . ?
O00H C018 C01D C01R -175.8(8) . . . . ?
O00H C018 C01D C01Z 7.4(12) . . . . ?
O00I C01C C01H Fe09 -88.6(9) . . . . ?
O00I C01C C01H C01P -1.4(15) . . . . ?
O00I C01C C01H C01S -175.0(9) . . . . ?
O00K C01A C01B Fe0A -93.5(9) . . . . ?
O00K C01A C01B C01W -6.5(13) . . . . ?
O00K C01A C01B C01X -177.5(9) . . . . ?
O00L C018 C01D Fe08 -81.2(10) . . . . ?
O00L C018 C01D C01R 6.0(12) . . . . ?
O00L C018 C01D C01Z -170.8(8) . . . . ?
O00M C01J C01T Fe09 -97.1(9) . . . . ?
O00M C01J C01T C020 -8.9(14) . . . . ?
O00M C01J C01T C02C 176.8(9) . . . . ?
O00N C01A C01B Fe0A 88.3(9) . . . . ?
O00N C01A C01B C01W 175.2(9) . . . . ?
O00N C01A C01B C01X 4.3(13) . . . . ?
O00O C01C C01H Fe09 90.3(9) . . . . ?
O00O C01C C01H C01P 177.5(9) . . . . ?
O00O C01C C01H C01S 4.0(15) . . . . ?
O00P C01Q C026 Fe0B 80.3(10) . . . . ?
O00P C01Q C026 C02B -6.2(16) . . . . ?
O00P C01Q C026 C02D 168.9(11) . . . . ?
O00Q C022 C028 Fe0C 101.7(11) . . . . ?
O00Q C022 C028 C024 -168.5(12) . . . . ?
O00Q C022 C028 C02U 13.9(17) . . . . ?
O00R C01F C01L Fe0A -102.7(10) . . . . ?
O00R C01F C01L C01O 167.9(10) . . . . ?
O00R C01F C01L C02O -15.5(16) . . . . ?
O00S C01G C01K Fe08 -73.1(10) . . . . ?
O00S C01G C01K C01V -160.2(8) . . . . ?
O00S C01G C01K C029 11.2(12) . . . . ?
O00T C01G C01K Fe08 108.6(8) . . . . ?
O00T C01G C01K C01V 21.5(12) . . . . ?
O00T C01G C01K C029 -167.1(8) . . . . ?
O00U C01I C02V Fe0C 97.2(12) . . . . ?
O00U C01I C02V C02Z 9.2(18) . . . . ?
O00U C01I C02V C038 -176.0(12) . . . . ?
O00V C01M C01N Fe0B -90.4(11) . . . . ?
O00V C01M C01N C02H -1.5(18) . . . . ?
O00V C01M C01N C02N -175.6(11) . . . . ?
O00W C01Q C026 Fe0B -98.9(11) . . . . ?
O00W C01Q C026 C02B 174.6(11) . . . . ?
O00W C01Q C026 C02D -10.3(16) . . . . ?
O00X C01J C01T Fe09 83.2(9) . . . . ?
O00X C01J C01T C020 171.3(10) . . . . ?
O00X C01J C01T C02C -2.9(14) . . . . ?
O00Y C022 C028 Fe0C -77.1(12) . . . . ?
O00Y C022 C028 C024 12.7(18) . . . . ?
O00Y C022 C028 C02U -164.9(12) . . . . ?
O00Z C01I C02V Fe0C -83.3(12) . . . . ?
O00Z C01I C02V C02Z -171.3(12) . . . . ?
O00Z C01I C02V C038 3.5(17) . . . . ?
N010 C01U C027 N012 -2.3(17) . . . . ?
O011 C01F C01L Fe0A 81.2(10) . . . . ?
O011 C01F C01L C01O -8.2(15) . . . . ?
O011 C01F C01L C02O 168.4(11) . . . . ?
O013 C01Y C037 Fe0D -75.5(17) . . . . ?
O013 C01Y C037 C039 10(2) . . . . ?
O013 C01Y C037 C24 -165.4(15) . . . . ?
O015 C023 C02L Fe0D -80.6(12) . . . . ?
O015 C023 C02L C02W 2.1(16) . . . . ?
O015 C023 C02L C21 -168.1(11) . . . . ?
O016 C023 C02L Fe0D 99.1(13) . . . . ?
O016 C023 C02L C02W -178.1(11) . . . . ?
O016 C023 C02L C21 11.6(17) . . . . ?
O017 C01Y C037 Fe0D 108.1(13) . . . . ?
O017 C01Y C037 C039 -166.6(13) . . . . ?
O017 C01Y C037 C24 18(2) . . . . ?
C018 C01D C01R Fe08 -116.9(8) . . . . ?
C018 C01D C01R C02J -176.0(8) . . . . ?
C018 C01D C01Z Fe08 118.2(8) . . . . ?
C018 C01D C01Z C02E 174.5(9) . . . . ?
O019 C01M C01N Fe0B 89.3(11) . . . . ?
O019 C01M C01N C02H 178.2(12) . . . . ?
O019 C01M C01N C02N 4.1(17) . . . . ?
C01A C01B C01W Fe0A -112.7(9) . . . . ?
C01A C01B C01W C02T -171.6(9) . . . . ?
C01A C01B C01X Fe0A 112.3(9) . . . . ?
C01A C01B C01X C02P 173.4(9) . . . . ?
C01B C01W C02T Fe0A 58.7(7) . . . . ?
C01B C01W C02T C02P -1.9(14) . . . . ?
C01B C01X C02P Fe0A -60.2(7) . . . . ?
C01B C01X C02P C02T -2.2(13) . . . . ?
C01C C01H C01P Fe09 -114.9(10) . . . . ?
C01C C01H C01P C02Q -175.8(10) . . . . ?
C01C C01H C01S Fe09 115.1(10) . . . . ?
C01C C01H C01S C025 174.6(10) . . . . ?
C01D C01R C02J Fe08 60.3(7) . . . . ?
C01D C01R C02J C02E 0.8(13) . . . . ?
C01D C01Z C02E Fe08 -57.0(7) . . . . ?
C01D C01Z C02E C02J 3.3(13) . . . . ?
C01E N010 C01U C027 1.5(14) . . . . ?
C01E N012 C027 C01U 2.1(15) . . . . ?
C01F C01L C01O Fe0A 117.3(10) . . . . ?
C01F C01L C01O C02I 176.0(10) . . . . ?
C01F C01L C02O Fe0A -115.6(11) . . . . ?
C01F C01L C02O C02X -176.4(11) . . . . ?
C01G C01K C01V Fe08 113.3(8) . . . . ?
C01G C01K C01V C02A 173.7(8) . . . . ?
C01G C01K C029 Fe08 -112.5(8) . . . . ?
C01G C01K C029 C02G -172.2(8) . . . . ?
C01H C01P C02Q Fe09 60.1(8) . . . . ?
C01H C01P C02Q C025 2.1(14) . . . . ?
C01H C01S C025 Fe09 -59.1(8) . . . . ?
C01H C01S C025 C02Q 1.4(14) . . . . ?
C01I C02V C02Z Fe0C 116.4(13) . . . . ?
C01I C02V C02Z C032 176.9(12) . . . . ?
C01I C02V C038 Fe0C -116.9(12) . . . . ?
C01I C02V C038 C0AA -178.1(12) . . . . ?
C01J C01T C020 Fe09 -116.9(10) . . . . ?
C01J C01T C020 C021 -177.4(10) . . . . ?
C01J C01T C02C Fe09 116.3(9) . . . . ?
C01J C01T C02C C02K 177.2(10) . . . . ?
C01K C01V C02A Fe08 -59.7(6) . . . . ?
C01K C01V C02A C02G -2.3(11) . . . . ?
C01K C029 C02G Fe08 59.8(6) . . . . ?
C01K C029 C02G C02A -2.0(11) . . . . ?
C01L C01O C02I Fe0A -58.1(9) . . . . ?
C01L C01O C02I C02X 1.2(15) . . . . ?
C01L C02O C02X Fe0A 59.3(10) . . . . ?
C01L C02O C02X C02I 0.0(16) . . . . ?
C01M C01N C02H Fe0B -116.0(13) . . . . ?
C01M C01N C02H C030 -177.0(13) . . . . ?
C01M C01N C02N Fe0B 115.9(12) . . . . ?
C01M C01N C02N C031 175.2(12) . . . . ?
C01N C02H C030 Fe0B 60.3(10) . . . . ?
C01N C02H C030 C031 3.3(18) . . . . ?
C01N C02N C031 Fe0B -59.7(9) . . . . ?
C01N C02N C031 C030 2.0(17) . . . . ?
C01O C01L C02O Fe0A 61.5(8) . . . . ?
C01O C01L C02O C02X 0.7(15) . . . . ?
C01O C02I C02X Fe0A -59.8(9) . . . . ?
C01O C02I C02X C02O -0.7(16) . . . . ?
C01P C01H C01S Fe09 -59.5(7) . . . . ?
C01P C01H C01S C025 0.0(13) . . . . ?
C01Q C026 C02B Fe0B 115.7(11) . . . . ?
C01Q C026 C02B C02F 176.8(11) . . . . ?
C01Q C026 C02D Fe0B -116.8(11) . . . . ?
C01Q C026 C02D C02S -176.2(11) . . . . ?
C01R C01D C01Z Fe08 -59.1(6) . . . . ?
C01R C01D C01Z C02E -2.8(11) . . . . ?
C01S C01H C01P Fe09 59.6(7) . . . . ?
C01S C01H C01P C02Q -1.3(13) . . . . ?
C01S C025 C02Q Fe09 -59.8(9) . . . . ?
C01S C025 C02Q C01P -2.2(15) . . . . ?
C01T C020 C021 Fe09 61.1(8) . . . . ?
C01T C020 C021 C02K 1.8(15) . . . . ?
C01T C02C C02K Fe09 -59.3(8) . . . . ?
C01T C02C C02K C021 -1.0(15) . . . . ?
C01U N010 C01E N012 -0.1(12) . . . . ?
C01V C01K C029 Fe08 60.2(6) . . . . ?
C01V C01K C029 C02G 0.5(10) . . . . ?
C01V C02A C02G Fe08 -57.3(7) . . . . ?
C01V C02A C02G C029 2.7(12) . . . . ?
C01W C01B C01X Fe0A -60.0(7) . . . . ?
C01W C01B C01X C02P 1.1(12) . . . . ?
C01X C01B C01W Fe0A 59.4(7) . . . . ?
C01X C01B C01W C02T 0.5(12) . . . . ?
C01X C02P C02T Fe0A -57.9(8) . . . . ?
C01X C02P C02T C01W 2.5(15) . . . . ?
C01Y C037 C039 Fe0D -113.3(14) . . . . ?
C01Y C037 C039 C034 -174.8(14) . . . . ?
C01Y C037 C24 Fe0D 115.3(15) . . . . ?
C01Y C037 C24 C22 174.8(14) . . . . ?
C01Z C01D C01R Fe08 60.4(6) . . . . ?
C01Z C01D C01R C02J 1.3(10) . . . . ?
C01Z C02E C02J Fe08 -62.0(8) . . . . ?
C01Z C02E C02J C01R -2.6(15) . . . . ?
C020 C01T C02C Fe09 -58.8(8) . . . . ?
C020 C01T C02C C02K 2.2(13) . . . . ?
C020 C021 C02K Fe09 58.2(9) . . . . ?
C020 C021 C02K C02C -0.5(16) . . . . ?
C022 C028 C02U Fe0C 116.3(12) . . . . ?
C022 C028 C02U C02Y 176.4(12) . . . . ?
C023 C02L C02W Fe0D -112.8(11) . . . . ?
C023 C02L C02W C036 -172.5(12) . . . . ?
C023 C02L C21 Fe0D 114.4(11) . . . . ?
C023 C02L C21 C035 173.4(12) . . . . ?
C024 C028 C02U Fe0C -61.8(9) . . . . ?
C024 C028 C02U C02Y -1.7(16) . . . . ?
C024 C02M C02Y Fe0C 58.5(11) . . . . ?
C024 C02M C02Y C02U -0.5(18) . . . . ?
C026 C02B C02F Fe0B -60.2(8) . . . . ?
C026 C02B C02F C02S -1.3(16) . . . . ?
C026 C02D C02S Fe0B 58.0(9) . . . . ?
C026 C02D C02S C02F -0.5(17) . . . . ?
C027 N012 C01E N010 -1.3(12) . . . . ?
C028 C024 C02M Fe0C 61.2(9) . . . . ?
C028 C024 C02M C02Y -0.5(18) . . . . ?
C028 C02U C02Y Fe0C -59.2(10) . . . . ?
C028 C02U C02Y C02M 1.3(18) . . . . ?
C029 C01K C01V Fe08 -59.2(6) . . . . ?
C029 C01K C01V C02A 1.1(10) . . . . ?
C02B C026 C02D Fe0B 59.0(9) . . . . ?
C02B C026 C02D C02S -0.4(15) . . . . ?
C02B C02F C02S Fe0B -57.2(10) . . . . ?
C02B C02F C02S C02D 1.1(18) . . . . ?
C02C C01T C020 Fe09 58.1(7) . . . . ?
C02C C01T C020 C021 -2.4(13) . . . . ?
C02D C026 C02B Fe0B -60.1(8) . . . . ?
C02D C026 C02B C02F 1.0(14) . . . . ?
C02H C01N C02N Fe0B -59.3(9) . . . . ?
C02H C01N C02N C031 0.0(15) . . . . ?
C02H C030 C031 Fe0B 58.1(12) . . . . ?
C02H C030 C031 C02N -3.2(19) . . . . ?
C02L C02W C036 Fe0D 61.5(8) . . . . ?
C02L C02W C036 C035 -0.6(16) . . . . ?
C02M C024 C028 Fe0C -60.7(9) . . . . ?
C02M C024 C028 C022 -176.7(12) . . . . ?
C02M C024 C028 C02U 1.3(15) . . . . ?
C02N C01N C02H Fe0B 58.9(9) . . . . ?
C02N C01N C02H C030 -2.0(16) . . . . ?
C02O C01L C01O Fe0A -59.9(8) . . . . ?
C02O C01L C01O C02I -1.2(14) . . . . ?
C02V C02Z C032 Fe0C -59.8(9) . . . . ?
C02V C02Z C032 C0AA 0.3(18) . . . . ?
C02V C038 C0AA Fe0C 60.6(10) . . . . ?
C02V C038 C0AA C032 2.8(18) . . . . ?
C02W C02L C21 Fe0D -56.7(9) . . . . ?
C02W C02L C21 C035 2.3(13) . . . . ?
C02Z C02V C038 Fe0C 58.5(10) . . . . ?
C02Z C02V C038 C0AA -2.7(17) . . . . ?
C02Z C032 C0AA Fe0C -58.5(12) . . . . ?
C02Z C032 C0AA C038 -2(2) . . . . ?
C034 C22 C24 Fe0D 56.7(11) . . . . ?
C034 C22 C24 C037 0(2) . . . . ?
C036 C035 C21 Fe0D 57.7(14) . . . . ?
C036 C035 C21 C02L -3.0(17) . . . . ?
C038 C02V C02Z Fe0C -58.8(11) . . . . ?
C038 C02V C02Z C032 1.7(16) . . . . ?
C039 C034 C22 Fe0D 60.2(12) . . . . ?
C039 C034 C22 C24 0.5(19) . . . . ?
C039 C037 C24 Fe0D -60.6(11) . . . . ?
C039 C037 C24 C22 -1(2) . . . . ?
C21 C02L C02W Fe0D 58.4(9) . . . . ?
C21 C02L C02W C036 -1.3(14) . . . . ?
C21 C035 C036 Fe0D -58.7(13) . . . . ?
C21 C035 C036 C02W 2.5(19) . . . . ?
C22 C034 C039 Fe0D -65.6(14) . . . . ?
C22 C034 C039 C037 -1.1(17) . . . . ?
C24 C037 C039 Fe0D 62.6(12) . . . . ?
C24 C037 C039 C034 1.2(14) . . . . ?
loop_
_smtbx_masks_void_nr
_smtbx_masks_void_average_x
_smtbx_masks_void_average_y
_smtbx_masks_void_average_z
_smtbx_masks_void_volume
_smtbx_masks_void_count_electrons
_smtbx_masks_void_content
1 -0.893 -0.385 -0.294 6123.3 885.2 ?
