#------------------------------------------------------------------------------
#$Date: 2024-02-04 13:33:11 +0200 (Sun, 04 Feb 2024) $
#$Revision: 289424 $
#$URL: file:///home/coder/svn-repositories/cod/cif/1/57/01/1570196.cif $
#------------------------------------------------------------------------------
#
# This file is available in the Crystallography Open Database (COD),
# http://www.crystallography.net/
#
# All data on this site have been placed in the public domain by the
# contributors.
#
data_1570196
loop_
_publ_author_name
'Appiarius, Yannik'
'M&#xed;guez-Lago, Sandra'
'Puylaert, Pim'
'Wolf, Noah'
'Kumar, Sourabh'
'Molkenthin, Martin'
'Miguel, Delia'
'Neudecker, Tim'
'Jur&#xed;&#x10d;ek, Michal'
'Campa&#xf1;a, Araceli G'
'Staubitz, Anne'
_publ_section_title
;
 Boosting quantum yields and circularly polarized luminescence of penta-
 and hexahelicenes by doping with two BN-groups.
;
_journal_issue                   2
_journal_name_full               'Chemical science'
_journal_page_first              466
_journal_page_last               476
_journal_paper_doi               10.1039/d3sc02685j
_journal_volume                  15
_journal_year                    2024
_chemical_formula_moiety         '0.5(C H2 Cl2), C38 H32 B2 N4'
_chemical_formula_sum            'C38.5 H33 B2 Cl N4'
_chemical_formula_weight         608.76
_space_group_crystal_system      triclinic
_space_group_IT_number           2
_space_group_name_Hall           '-P 1'
_space_group_name_H-M_alt        'P -1'
_atom_sites_solution_hydrogens   mixed
_audit_creation_date             2022-10-07
_audit_creation_method
;
Olex2 1.5
(compiled 2022.04.07 svn.rca3783a0 for OlexSys, GUI svn.r6498)
;
_audit_update_record
;
2022-10-10 deposited with the CCDC.	2023-10-23 downloaded from the CCDC.
;
_cell_angle_alpha                86.550(4)
_cell_angle_beta                 86.961(4)
_cell_angle_gamma                69.776(4)
_cell_formula_units_Z            4
_cell_length_a                   13.0913(14)
_cell_length_b                   14.9897(16)
_cell_length_c                   19.698(2)
_cell_measurement_reflns_used    9916
_cell_measurement_temperature    100.00
_cell_measurement_theta_max      28.37
_cell_measurement_theta_min      2.48
_cell_volume                     3618.4(7)
_computing_cell_refinement       'SAINT V8.40B (?, 2016)'
_computing_data_reduction        'SAINT V8.40B (?, 2016)'
_computing_molecular_graphics    'Olex2 1.5 (Dolomanov et al., 2009)'
_computing_publication_material  'Olex2 1.5 (Dolomanov et al., 2009)'
_computing_structure_refinement  'SHELXL 2018/3 (Sheldrick, 2015)'
_computing_structure_solution    'SHELXT 2018/2 (Sheldrick, 2018)'
_diffrn_ambient_temperature      100.00
_diffrn_measured_fraction_theta_full 0.999
_diffrn_measured_fraction_theta_max 0.997
_diffrn_measurement_device_type  'Bruker APEX-II CCD'
_diffrn_measurement_method       '\f and \w scans'
_diffrn_radiation_type           MoK\a
_diffrn_radiation_wavelength     0.71073
_diffrn_reflns_av_R_equivalents  0.0673
_diffrn_reflns_av_unetI/netI     0.0497
_diffrn_reflns_Laue_measured_fraction_full 0.999
_diffrn_reflns_Laue_measured_fraction_max 0.997
_diffrn_reflns_limit_h_max       17
_diffrn_reflns_limit_h_min       -17
_diffrn_reflns_limit_k_max       19
_diffrn_reflns_limit_k_min       -20
_diffrn_reflns_limit_l_max       26
_diffrn_reflns_limit_l_min       -26
_diffrn_reflns_number            112802
_diffrn_reflns_point_group_measured_fraction_full 0.999
_diffrn_reflns_point_group_measured_fraction_max 0.997
_diffrn_reflns_theta_full        25.242
_diffrn_reflns_theta_max         28.590
_diffrn_reflns_theta_min         2.005
_diffrn_source_current           1.0
_diffrn_source_power             0.05
_diffrn_source_voltage           50.0
_diffrn_standards_number         0
_exptl_absorpt_coefficient_mu    0.136
_exptl_absorpt_correction_T_max  1.0000
_exptl_absorpt_correction_T_min  0.9539
_exptl_absorpt_correction_type   numerical
_exptl_absorpt_process_details
;
SADABS-2016/2 (Bruker,2016/2) was used for absorption correction.
wR2(int) was 0.1295 before and 0.0539 after correction.
The Ratio of minimum to maximum transmission is 0.9539.
The \l/2 correction factor is Not present.
;
_exptl_crystal_colour            colourless
_exptl_crystal_colour_primary    colourless
_exptl_crystal_density_diffrn    1.117
_exptl_crystal_description       plate
_exptl_crystal_F_000             1276
_exptl_crystal_size_max          0.403
_exptl_crystal_size_mid          0.129
_exptl_crystal_size_min          0.038
_refine_diff_density_max         0.455
_refine_diff_density_min         -0.813
_refine_diff_density_rms         0.071
_refine_ls_extinction_method     none
_refine_ls_goodness_of_fit_ref   1.026
_refine_ls_hydrogen_treatment    mixed
_refine_ls_matrix_type           full
_refine_ls_number_parameters     848
_refine_ls_number_reflns         18466
_refine_ls_number_restraints     0
_refine_ls_restrained_S_all      1.026
_refine_ls_R_factor_all          0.0950
_refine_ls_R_factor_gt           0.0610
_refine_ls_shift/su_max          0.000
_refine_ls_shift/su_mean         0.000
_refine_ls_structure_factor_coef Fsqd
_refine_ls_weighting_details
'w=1/[\s^2^(Fo^2^)+(0.0607P)^2^+3.0237P] where P=(Fo^2^+2Fc^2^)/3'
_refine_ls_weighting_scheme      calc
_refine_ls_wR_factor_gt          0.1369
_refine_ls_wR_factor_ref         0.1527
_reflns_Friedel_coverage         0.000
_reflns_number_gt                12747
_reflns_number_total             18466
_reflns_threshold_expression     'I > 2\s(I)'
_cod_data_source_file            d3sc02685j3.cif
_cod_data_source_block           appiariusy220926_0m
_cod_depositor_comments
'Adding full bibliography for 1570192--1570197.cif.'
_cod_original_cell_volume        3618.3(7)
_cod_original_formula_sum        'C38.50 H33 B2 Cl N4'
_cod_database_code               1570196
_shelx_shelxl_version_number     2018/3
_shelx_space_group_comment
;
The symmetry employed for this shelxl refinement is uniquely defined
by the following loop, which should always be used as a source of
symmetry information in preference to the above space-group names.
They are only intended as comments.
;
_shelx_estimated_absorpt_t_max   0.995
_shelx_estimated_absorpt_t_min   0.947
_olex2_refinement_description
;
1. Fixed Uiso
 At 1.2 times of:
  All C(H) groups, All C(H,H) groups
 At 1.5 times of:
  All C(H,H,H) groups
2.a Secondary CH2 refined with riding coordinates:
 C77(H77A,H77B)
2.b Aromatic/amide H refined with riding coordinates:
 C55(H55), C61(H61), C6(H6), C53(H53), C52(H52), C59(H59), C30(H30), C50(H50),
 C17(H17), C15(H15), C32(H32), C14(H14), C49(H49), C47(H47), C44(H44), C12(H12),
  C46(H46), C21(H21), C11(H11), C8(H8), C9(H9), C70(H70), C23(H23), C68(H68)
2.c Idealised Me refined as rotating group:
 C65(H65A,H65B,H65C), C36(H36A,H36B,H36C), C34(H34A,H34B,H34C), C63(H63A,H63B,
 H63C), C25(H25A,H25B,H25C), C74(H74A,H74B,H74C), C64(H64A,H64B,H64C), C27(H27A,
 H27B,H27C), C72(H72A,H72B,H72C), C35(H35A,H35B,H35C), C73(H73A,H73B,H73C),
 C26(H26A,H26B,H26C)
;
_smtbx_masks_void_probe_radius   1.2
_smtbx_masks_void_truncation_radius 1.2
_shelx_res_file
;
TITL appiariusy220926_0m_a.res in P-1
    appiariusy220926_0m.res
    created by SHELXL-2018/3 at 17:05:44 on 07-Oct-2022
REM Old TITL appiariusy220926_0m_b.res in P-1
REM SHELXT solution in P-1: R1 0.241, Rweak 0.020, Alpha 0.056
REM <I/s> 0.000 for 0 systematic absences, Orientation as input
REM Formula found by SHELXT: C83 B Cl3 N13
CELL 0.71073 13.0913 14.9897 19.6975 86.55 86.961 69.776
ZERR 4 0.0014 0.0016 0.0021 0.004 0.004 0.004
LATT 1
SFAC C H B Cl N
UNIT 154 132 8 4 16

L.S. 10
PLAN  18
SIZE 0.038 0.129 0.403
TEMP -173.15
CONF
BOND
list 4
MORE -1
ABIN
BOND $H
fmap 2
acta
OMIT 1 0 1
REM <olex2.extras>
REM <HklSrc "%.\\AppiariusY220926_0m.hkl">
REM </olex2.extras>

WGHT    0.060700    3.023700
FVAR       0.40846
CL2   4    0.776329    0.194639    0.948703    11.00000    0.05253    0.05866 =
         0.03708   -0.00103    0.00598    0.00301
CL1   4    0.658965    0.070922    1.002400    11.00000    0.07532    0.03555 =
         0.11748   -0.00187   -0.04238   -0.01726
N1    5    0.671828    0.206322    0.724511    11.00000    0.01295    0.01804 =
         0.02013   -0.00282   -0.00165   -0.00226
N5    5   -0.013713    0.663069    0.860814    11.00000    0.01564    0.01240 =
         0.01722   -0.00025   -0.00025   -0.00307
N2    5    0.499414    0.371012    0.767293    11.00000    0.01448    0.01486 =
         0.02284    0.00004   -0.00068   -0.00336
N6    5   -0.107056    0.664305    0.729686    11.00000    0.01724    0.01543 =
         0.01755   -0.00086   -0.00043   -0.00451
N3    5    0.822240   -0.131847    0.809057    11.00000    0.02316    0.02242 =
         0.02900   -0.00262   -0.00296   -0.00400
N4    5    0.097547    0.474800    0.753668    11.00000    0.01838    0.03606 =
         0.02109   -0.00485   -0.00040   -0.00452
N7    5    0.356680    0.624831    0.924978    11.00000    0.02164    0.03014 =
         0.04169   -0.00248   -0.00649   -0.00437
C62   1    0.041706    0.860365    0.903799    11.00000    0.01219    0.01749 =
         0.01971   -0.00019   -0.00265   -0.00337
C39   1   -0.026802    0.575598    0.876497    11.00000    0.01990    0.01281 =
         0.01348   -0.00122    0.00332   -0.00568
C40   1   -0.126040    0.559160    0.864372    11.00000    0.02069    0.01360 =
         0.01557   -0.00318    0.00421   -0.00572
C28   1    0.376807    0.320560    0.857069    11.00000    0.01113    0.01372 =
         0.02423   -0.00392    0.00252   -0.00082
C29   1    0.423552    0.332171    0.917941    11.00000    0.01217    0.01349 =
         0.02737   -0.00087   -0.00026   -0.00136
C38   1    0.189396    0.461436    0.751104    11.00000    0.02090    0.01953 =
         0.01656   -0.00306   -0.00143   -0.00200
C54   1    0.059211    0.503303    0.908871    11.00000    0.02169    0.01400 =
         0.01417   -0.00287    0.00343   -0.00197
C57   1    0.092984    0.785720    0.859987    11.00000    0.01384    0.01572 =
         0.01827   -0.00081   -0.00266   -0.00354
C33   1    0.314486    0.260440    0.859977    11.00000    0.01402    0.01850 =
         0.02540   -0.00407    0.00231   -0.00342
C5    1    0.304122    0.445490    0.743915    11.00000    0.01460    0.01609 =
         0.02210   -0.00386    0.00103   -0.00264
C55   1    0.159018    0.517064    0.920286    11.00000    0.02021    0.01683 =
         0.01564   -0.00179   -0.00125    0.00094
AFIX  43
H55   2    0.216319    0.466399    0.940698    11.00000   -1.20000
AFIX   0
C42   1   -0.206133    0.678933    0.764855    11.00000    0.01892    0.01509 =
         0.01953   -0.00357   -0.00197   -0.00708
C61   1    0.069014    0.943111    0.898309    11.00000    0.01677    0.01515 =
         0.02148   -0.00288   -0.00416   -0.00385
AFIX  43
H61   2    0.034126    0.992899    0.928265    11.00000   -1.20000
AFIX   0

C2    1    0.733433    0.344685    0.731645    11.00000    0.01679    0.02091 =
         0.02049   -0.00724    0.00666   -0.00685
C6    1    0.333764    0.500121    0.693831    11.00000    0.02036    0.01642 =
         0.02402   -0.00155   -0.00282   -0.00071
AFIX  43
H6    2    0.278570    0.543787    0.666962    11.00000   -1.20000
AFIX   0
C1    1    0.744083    0.246732    0.746995    11.00000    0.01371    0.02030 =
         0.02097   -0.00654    0.00326   -0.00521

C58   1    0.169823    0.797643    0.810408    11.00000    0.01774    0.01938 =
         0.02114   -0.00087    0.00042   -0.00562
C53   1    0.046149    0.416340    0.932410    11.00000    0.03057    0.01228 =
         0.01743   -0.00066    0.00200   -0.00051
AFIX  43
H53   2    0.106279    0.365812    0.950295    11.00000   -1.20000
AFIX   0
C60   1    0.145806    0.954277    0.850188    11.00000    0.01896    0.01671 =
         0.02662    0.00265   -0.00621   -0.00705
C56   1    0.174906    0.601093    0.902735    11.00000    0.01581    0.02013 =
         0.01825   -0.00341    0.00014   -0.00383
C52   1   -0.051924    0.405319    0.929401    11.00000    0.03788    0.01289 =
         0.01797    0.00051    0.00456   -0.00842
AFIX  43
H52   2   -0.061449    0.348609    0.947932    11.00000   -1.20000
AFIX   0
C41   1   -0.216048    0.621978    0.824639    11.00000    0.01957    0.01394 =
         0.02095   -0.00456    0.00137   -0.00725
C59   1    0.193944    0.881223    0.805864    11.00000    0.01770    0.02357 =
         0.02432    0.00081    0.00233   -0.00767
AFIX  43
H59   2    0.244616    0.888660    0.771603    11.00000   -1.20000
AFIX   0

C20   1    0.521785    0.040363    0.745831    11.00000    0.01541    0.01503 =
         0.02978   -0.00189   -0.00448   -0.00044
C37   1    0.800541   -0.052612    0.793917    11.00000    0.01475    0.02389 =
         0.02155   -0.00347   -0.00262   -0.00250
C19   1    0.592853    0.072558    0.703495    11.00000    0.01686    0.01420 =
         0.02433   -0.00269   -0.00431   -0.00125
C75   1    0.276478    0.612596    0.916109    11.00000    0.01891    0.02037 =
         0.02647   -0.00327   -0.00157   -0.00032
C4    1    0.528270    0.425468    0.715721    11.00000    0.02036    0.01630 =
         0.02135   -0.00345    0.00384   -0.00590
C51   1   -0.140448    0.477716    0.898826    11.00000    0.02936    0.01737 =
         0.01712   -0.00267    0.00462   -0.01105
C16   1    0.834710    0.185913    0.782193    11.00000    0.01419    0.02590 =
         0.02413   -0.00603    0.00120   -0.00517
C65   1   -0.039694    0.852339    0.958976    11.00000    0.02186    0.01829 =
         0.02791   -0.00628    0.00569   -0.00682
AFIX 137
H65A  2   -0.071061    0.804908    0.947139    11.00000   -1.50000
H65B  2   -0.097814    0.914177    0.963301    11.00000   -1.50000
H65C  2   -0.003023    0.832724    1.002287    11.00000   -1.50000
AFIX   0

C18   1    0.776040    0.047567    0.776442    11.00000    0.01740    0.01966 =
         0.02106   -0.00248   -0.00057   -0.00201
C66   1    0.020392    0.691195    0.625989    11.00000    0.02966    0.02469 =
         0.01541    0.00476    0.00043   -0.00836
C7    1    0.443557    0.494261    0.680353    11.00000    0.02244    0.01867 =
         0.02560    0.00006    0.00147   -0.00489
C45   1   -0.300445    0.745608    0.736237    11.00000    0.02339    0.02072 =
         0.02271   -0.00228   -0.00403   -0.00666
C30   1    0.404147    0.287036    0.978562    11.00000    0.01681    0.02007 =
         0.02191    0.00056   -0.00278   -0.00408
AFIX  43
H30   2    0.433473    0.297508    1.019210    11.00000   -1.20000
AFIX   0
C3    1    0.639372    0.418520    0.702549    11.00000    0.01947    0.02072 =
         0.02257   -0.00453    0.00464   -0.00872
C36   1    0.266394    0.240062    0.797197    11.00000    0.02385    0.02279 =
         0.03285   -0.00537    0.00002   -0.01144
AFIX 137
H36A  2    0.186817    0.268455    0.800610    11.00000   -1.50000
H36B  2    0.287435    0.171095    0.793410    11.00000   -1.50000
H36C  2    0.293716    0.267410    0.756823    11.00000   -1.50000
AFIX   0
C13   1    0.827463    0.369189    0.740674    11.00000    0.01943    0.02601 =
         0.02644   -0.01147    0.00645   -0.00945
C34   1    0.495419    0.392445    0.920304    11.00000    0.02540    0.02171 =
         0.02710    0.00112   -0.00423   -0.01170
AFIX 137
H34A  2    0.570637    0.354350    0.907626    11.00000   -1.50000
H34B  2    0.492602    0.414367    0.966472    11.00000   -1.50000
H34C  2    0.469446    0.447557    0.888339    11.00000   -1.50000
AFIX   0

C50   1   -0.246889    0.471377    0.906956    11.00000    0.03421    0.02154 =
         0.02570   -0.00350    0.00686   -0.01743
AFIX  43
H50   2   -0.255878    0.415906    0.928314    11.00000   -1.20000
AFIX   0

C31   1    0.342866    0.226808    0.981456    11.00000    0.01942    0.02273 =
         0.02770    0.00104    0.00384   -0.00726
C17   1    0.847539    0.088338    0.796561    11.00000    0.01613    0.02433 =
         0.02422   -0.00133   -0.00386    0.00013
AFIX  43
H17   2    0.908781    0.049734    0.821335    11.00000   -1.20000
AFIX   0
C15   1    0.917654    0.219951    0.800071    11.00000    0.01510    0.03061 =
         0.03598   -0.00868   -0.00404   -0.00552
AFIX  43
H15   2    0.974529    0.181144    0.828074    11.00000   -1.20000
AFIX   0
C32   1    0.299363    0.214370    0.921712    11.00000    0.01708    0.02030 =
         0.03210   -0.00133    0.00380   -0.01042
AFIX  43
H32   2    0.257927    0.173287    0.922586    11.00000   -1.20000
AFIX   0
C14   1    0.916325    0.307086    0.777572    11.00000    0.01646    0.03454 =
         0.03631   -0.01448    0.00256   -0.01131
AFIX  43
H14   2    0.975534    0.327029    0.786544    11.00000   -1.20000
AFIX   0

C49   1   -0.334591    0.543291    0.884631    11.00000    0.02714    0.02968 =
         0.03143   -0.00706    0.00857   -0.01889
AFIX  43
H49   2   -0.405613    0.543399    0.897471    11.00000   -1.20000
AFIX   0

C10   1    0.655839    0.496980    0.665196    11.00000    0.02609    0.02277 =
         0.02830   -0.00387    0.00846   -0.01039
C47   1   -0.415470    0.687533    0.812735    11.00000    0.01621    0.02879 =
         0.03671   -0.00619    0.00033   -0.00965
AFIX  43
H47   2   -0.485915    0.688156    0.827647    11.00000   -1.20000
AFIX   0
C63   1    0.228534    0.719205    0.762519    11.00000    0.03113    0.02572 =
         0.02646   -0.00614    0.00855   -0.00880
AFIX 137
H63A  2    0.254084    0.746574    0.721464    11.00000   -1.50000
H63B  2    0.178523    0.687591    0.749945    11.00000   -1.50000
H63C  2    0.290979    0.672707    0.785167    11.00000   -1.50000
AFIX   0
C48   1   -0.321809    0.619663    0.841686    11.00000    0.02201    0.02054 =
         0.02622   -0.00604    0.00235   -0.01027
C44   1   -0.292632    0.801817    0.676610    11.00000    0.02596    0.02325 =
         0.02495   -0.00038   -0.00766   -0.00078
AFIX  43
H44   2   -0.356766    0.849401    0.660408    11.00000   -1.20000
AFIX   0

C12   1    0.835920    0.454699    0.708511    11.00000    0.02533    0.02856 =
         0.03765   -0.01240    0.01118   -0.01813
AFIX  43
H12   2    0.897856    0.471709    0.715771    11.00000   -1.20000
AFIX   0

C71   1    0.065105    0.608820    0.587860    11.00000    0.02780    0.02764 =
         0.01731    0.00244   -0.00086   -0.00752
C24   1    0.588998    0.068240    0.632549    11.00000    0.03106    0.02454 =
         0.02571   -0.00113   -0.00662   -0.00853
C46   1   -0.404836    0.751789    0.763664    11.00000    0.01915    0.02733 =
         0.03354   -0.00385   -0.00436   -0.00456
AFIX  43
H46   2   -0.467733    0.801114    0.747667    11.00000   -1.20000
AFIX   0

C25   1    0.524983    0.040630    0.822286    11.00000    0.02258    0.02769 =
         0.02906   -0.00309    0.00311   -0.00852
AFIX 137
H25A  2    0.589222   -0.011459    0.838261    11.00000   -1.50000
H25B  2    0.459024    0.032074    0.842925    11.00000   -1.50000
H25C  2    0.528779    0.101449    0.835324    11.00000   -1.50000
AFIX   0

C74   1    0.014432    0.531942    0.591825    11.00000    0.03302    0.03124 =
         0.02289   -0.00423    0.00212   -0.01084
AFIX 137
H74A  2    0.048731    0.485884    0.556943    11.00000   -1.50000
H74B  2   -0.063786    0.560672    0.584172    11.00000   -1.50000
H74C  2    0.025510    0.499445    0.636929    11.00000   -1.50000
AFIX   0
C64   1    0.178793    1.041374    0.846178    11.00000    0.02291    0.01968 =
         0.04422    0.00129   -0.00151   -0.01014
AFIX 137
H64A  2    0.256997    1.022470    0.853636    11.00000   -1.50000
H64B  2    0.137978    1.084915    0.881165    11.00000   -1.50000
H64C  2    0.162854    1.073377    0.801124    11.00000   -1.50000
AFIX   0
C43   1   -0.196344    0.789582    0.642115    11.00000    0.03355    0.02461 =
         0.01878    0.00154   -0.00217   -0.00473

C21   1    0.446821    0.007643    0.717143    11.00000    0.01931    0.02392 =
         0.04057   -0.00140   -0.00547   -0.00688
AFIX  43
H21   2    0.397971   -0.012445    0.746282    11.00000   -1.20000
AFIX   0

C67   1    0.070259    0.761059    0.618628    11.00000    0.03852    0.02946 =
         0.02045    0.00393    0.00239   -0.01409
C11   1    0.757383    0.511379    0.668120    11.00000    0.03037    0.02649 =
         0.03364   -0.00581    0.01021   -0.01623
AFIX  43
H11   2    0.769924    0.561610    0.641239    11.00000   -1.20000
AFIX   0

N8    5   -0.197699    0.887079    0.529498    11.00000    0.06878    0.04916 =
         0.02853    0.01485    0.01074    0.01489
C8    1    0.467854    0.561838    0.634716    11.00000    0.02988    0.02430 =
         0.03286    0.00581    0.00005   -0.00671
AFIX  43
H8    2    0.412298    0.604764    0.607698    11.00000   -1.20000
AFIX   0
C9    1    0.569908    0.565191    0.629650    11.00000    0.03630    0.02399 =
         0.03472    0.00529    0.00581   -0.01341
AFIX  43
H9    2    0.584094    0.613940    0.601886    11.00000   -1.20000
AFIX   0

C70   1    0.155722    0.597894    0.544490    11.00000    0.03399    0.03517 =
         0.01920   -0.00333    0.00573   -0.00954
AFIX  43
H70   2    0.185244    0.541726    0.519635    11.00000   -1.20000
AFIX   0

C22   1    0.441637    0.003635    0.647497    11.00000    0.03264    0.03353 =
         0.04285   -0.00101   -0.01695   -0.01359
C23   1    0.514041    0.033491    0.606011    11.00000    0.05092    0.04030 =
         0.02711    0.00062   -0.01562   -0.02059
AFIX  43
H23   2    0.512436    0.030130    0.558090    11.00000   -1.20000
AFIX   0
C27   1    0.665313    0.100676    0.585359    11.00000    0.05197    0.04317 =
         0.02191   -0.00331   -0.00131   -0.02304
AFIX 137
H27A  2    0.667391    0.075742    0.540247    11.00000   -1.50000
H27B  2    0.738604    0.076955    0.603533    11.00000   -1.50000
H27C  2    0.639457    0.170377    0.581679    11.00000   -1.50000
AFIX   0

C68   1    0.161040    0.747758    0.574515    11.00000    0.04465    0.03890 =
         0.02732    0.00366    0.00486   -0.02360
AFIX  43
H68   2    0.194147    0.795196    0.570359    11.00000   -1.20000
AFIX   0
C69   1    0.203981    0.667523    0.536775    11.00000    0.04024    0.04635 =
         0.02047    0.00231    0.00724   -0.01827
B3    3    0.080915    0.684787    0.872425    11.00000    0.01573    0.01574 =
         0.01456   -0.00297    0.00182   -0.00291
C72   1    0.024894    0.852400    0.656481    11.00000    0.04861    0.03112 =
         0.03628   -0.00071    0.00684   -0.01950
AFIX 137
H72A  2    0.082557    0.879218    0.660966    11.00000   -1.50000
H72B  2   -0.002383    0.838873    0.701813    11.00000   -1.50000
H72C  2   -0.034826    0.898171    0.631140    11.00000   -1.50000
AFIX   0
C76   1   -0.197171    0.844789    0.579772    11.00000    0.04148    0.03208 =
         0.02526    0.00421    0.00191    0.00634

B2    3    0.392068    0.376560    0.789659    11.00000    0.01568    0.01569 =
         0.02107   -0.00543    0.00194   -0.00400
B1    3    0.678558    0.109327    0.734927    11.00000    0.01477    0.01838 =
         0.01791   -0.00461    0.00211   -0.00145
C35   1    0.326349    0.177293    1.047852    11.00000    0.04122    0.04091 =
         0.03079    0.00628    0.00293   -0.02415
AFIX 137
H35A  2    0.394375    0.155169    1.072467    11.00000   -1.50000
H35B  2    0.305009    0.122715    1.038756    11.00000   -1.50000
H35C  2    0.268924    0.221802    1.075499    11.00000   -1.50000
AFIX   0

C77   1    0.690873    0.173392    1.014839    11.00000    0.03409    0.02834 =
         0.03970   -0.00147   -0.00888   -0.00329
AFIX  23
H77A  2    0.622727    0.229041    1.017432    11.00000   -1.20000
H77B  2    0.727392    0.165693    1.058648    11.00000   -1.20000
AFIX   0

B4    3   -0.091087    0.713146    0.667875    11.00000    0.02579    0.02037 =
         0.01969   -0.00102   -0.00199   -0.00701
C73   1    0.298512    0.656653    0.486110    11.00000    0.04939    0.06631 =
         0.03147   -0.00208    0.01681   -0.02640
AFIX 137
H73A  2    0.346596    0.589949    0.486632    11.00000   -1.50000
H73B  2    0.339442    0.696635    0.498587    11.00000   -1.50000
H73C  2    0.270540    0.676357    0.440393    11.00000   -1.50000
AFIX   0

C26   1    0.361508   -0.035107    0.618052    11.00000    0.05861    0.07133 =
         0.06057   -0.00411   -0.02762   -0.03783
AFIX 137
H26A  2    0.398049   -0.102537    0.609026    11.00000   -1.50000
H26B  2    0.334376    0.000466    0.575483    11.00000   -1.50000
H26C  2    0.300322   -0.028283    0.650622    11.00000   -1.50000
AFIX   0

H5    2   -0.069923    0.707781    0.843660    11.00000    0.01707
H1    2    0.616723    0.246061    0.698561    11.00000    0.02212
H6A   2   -0.049364    0.617771    0.746513    11.00000    0.02720
H2    2    0.553705    0.334692    0.792443    11.00000    0.02555
HKLF 4




REM  appiariusy220926_0m_a.res in P-1
REM wR2 = 0.1527, GooF = S = 1.026, Restrained GooF = 1.026 for all data
REM R1 = 0.0610 for 12747 Fo > 4sig(Fo) and 0.0950 for all 18466 data
REM 848 parameters refined using 0 restraints

END

WGHT      0.0607      3.0244

REM Highest difference peak  0.455,  deepest hole -0.813,  1-sigma level  0.071
Q1    1   0.7596  0.1364  0.9517  11.00000  0.05    0.46
Q2    1   0.5528 -0.2108  0.5299  11.00000  0.05    0.44
Q3    1   0.3576  0.1953  1.0927  11.00000  0.05    0.32
Q4    1   0.4396  0.0464  0.6309  11.00000  0.05    0.32
Q5    1  -0.2354  0.6682  0.4979  11.00000  0.05    0.32
Q6    1  -0.0251  0.7002  0.6538  11.00000  0.05    0.29
Q7    1   0.0570  0.7133  0.6233  11.00000  0.05    0.29
Q8    1  -0.1580  0.5790  0.8323  11.00000  0.05    0.29
Q9    1  -0.0381  0.7775  0.9711  11.00000  0.05    0.28
Q10   1   0.7196  0.0737  0.7608  11.00000  0.05    0.27
Q11   1   0.1401  0.6314  0.8701  11.00000  0.05    0.27
Q12   1   0.0217  0.7241  0.4182  11.00000  0.05    0.27
Q13   1  -0.2837  0.4895  0.8727  11.00000  0.05    0.27
Q14   1  -0.1526  0.7433  0.6440  11.00000  0.05    0.27
Q15   1   0.2194  0.2832  0.7683  11.00000  0.05    0.26
Q16   1   0.8759  0.2017  0.7878  11.00000  0.05    0.26
Q17   1   0.6154  0.1632  1.0793  11.00000  0.05    0.26
Q18   1   0.0620  0.8248  0.8785  11.00000  0.05    0.26
;
_shelx_res_checksum              39670
_shelx_fab_file
;
-17 -11 1 0.7620 0.0051
-17 -11 2 -1.4887 -0.0003
-17 -10 1 3.2245 -0.0063
-17 -10 2 -1.5213 0.0092
-17 -10 3 -0.1307 -0.0082
-17 -9 1 -0.2161 -0.0102
-17 -9 2 1.7065 0.0069
-17 -9 3 -0.9807 -0.0019
-17 -9 4 -0.6686 -0.0026
-17 -8 1 -1.7925 -0.0040
-17 -8 2 0.9160 -0.0006
-17 -8 3 0.8250 0.0038
-17 -8 4 -1.4206 -0.0037
-17 -8 5 0.5183 0.0003
-17 -7 1 -0.6142 0.0059
-17 -7 2 -0.4126 -0.0088
-17 -7 3 0.6945 0.0070
-17 -7 4 0.4750 -0.0019
-17 -7 5 -2.1252 -0.0025
-17 -6 1 1.1896 0.0134
-17 -6 2 -1.8787 -0.0081
-17 -6 3 1.3560 -0.0002
-17 -6 4 0.1390 0.0059
-17 -6 5 -1.3834 -0.0055
-17 -5 1 1.7210 -0.0019
-17 -5 2 -1.9143 0.0096
-17 -5 3 1.2285 -0.0108
-17 -5 4 -0.3508 0.0052
-17 -5 5 -0.0390 0.0031
-17 -4 1 -0.7642 -0.0149
-17 -4 2 0.5058 0.0120
-17 -4 3 -0.5219 -0.0039
-17 -4 4 0.6333 -0.0036
-17 -3 1 1.3737 -0.0023
-17 -3 2 -2.2790 -0.0033
-17 -3 3 2.3210 0.0063
-17 -2 1 0.9547 0.0065
-16 -14 1 -2.9086 0.0056
-16 -13 1 0.0879 -0.0011
-16 -13 2 -0.4477 0.0026
-16 -13 3 -0.2290 -0.0028
-16 -13 4 1.6119 0.0008
-16 -12 1 0.1384 0.0016
-16 -12 2 -0.9573 -0.0016
-16 -12 3 0.2315 0.0028
-16 -12 4 0.1098 -0.0050
-16 -12 5 1.1478 0.0059
-16 -12 6 -2.9226 -0.0035
-16 -11 1 5.2656 0.0014
-16 -11 2 -4.0678 -0.0029
-16 -11 3 2.4751 0.0035
-16 -11 4 -3.1045 -0.0024
-16 -11 5 4.8979 -0.0005
-16 -11 6 -5.2055 0.0041
-16 -11 7 3.3432 -0.0060
-16 -10 1 0.2215 0.0052
-16 -10 2 3.4268 -0.0044
-16 -10 3 -3.4496 0.0012
-16 -10 4 0.7886 0.0022
-16 -10 5 0.8388 -0.0035
-16 -10 6 0.0624 0.0030
-16 -10 7 -1.6137 -0.0015
-16 -10 8 1.8580 -0.0007
-16 -9 1 -6.7831 0.0032
-16 -9 2 5.6423 0.0016
-16 -9 3 -2.0613 -0.0051
-16 -9 4 -0.2239 0.0048
-16 -9 5 -0.4217 -0.0021
-16 -9 6 2.0066 -0.0003
-16 -9 7 -2.0843 0.0019
-16 -9 8 0.7638 -0.0029
-16 -8 1 0.9163 -0.0076
-16 -8 2 -3.5589 0.0082
-16 -8 3 4.7323 -0.0046
-16 -8 4 -2.8343 -0.0003
-16 -8 5 -0.4622 0.0035
-16 -8 6 2.4462 -0.0046
-16 -8 7 -2.3778 0.0044
-16 -8 8 1.5102 -0.0029
-16 -8 9 -0.8894 -0.0002
-16 -7 1 0.8888 -0.0080
-16 -7 2 -1.6348 0.0013
-16 -7 3 0.5026 0.0045
-16 -7 4 2.1877 -0.0065
-16 -7 5 -3.9993 0.0056
-16 -7 6 3.4354 -0.0037
-16 -7 7 -1.4221 0.0010
-16 -7 8 -0.2093 0.0023
-16 -7 9 0.6690 -0.0037
-16 -6 1 0.3297 0.0031
-16 -6 2 -1.1975 -0.0066
-16 -6 3 0.4097 0.0061
-16 -6 4 0.3352 -0.0032
-16 -6 5 0.9383 0.0006
-16 -6 6 -3.6563 0.0010
-16 -6 7 5.3526 -0.0027
-16 -6 8 -4.6936 0.0035
-16 -6 9 2.6340 -0.0016
-16 -5 1 1.0230 0.0080
-16 -5 2 -0.4706 -0.0036
-16 -5 3 -0.5136 -0.0015
-16 -5 4 0.5134 0.0047
-16 -5 5 0.4135 -0.0048
-16 -5 6 -0.7302 0.0032
-16 -5 7 -0.5134 -0.0014
-16 -5 8 2.1431 -0.0003
-16 -5 9 -2.3811 0.0022
-16 -4 1 -1.8130 0.0006
-16 -4 2 1.6795 0.0061
-16 -4 3 -1.3392 -0.0091
-16 -4 4 1.5712 0.0083
-16 -4 5 -2.7787 -0.0051
-16 -4 6 4.2718 0.0015
-16 -4 7 -4.9027 0.0006
-16 -4 8 3.8784 -0.0012
-16 -4 9 -1.5697 0.0011
-16 -3 1 1.3452 -0.0135
-16 -3 2 -3.0874 0.0137
-16 -3 3 2.9018 -0.0078
-16 -3 4 -0.6392 0.0001
-16 -3 5 -1.8988 0.0056
-16 -3 6 2.8671 -0.0078
-16 -3 7 -2.3008 0.0063
-16 -3 8 1.3767 -0.0028
-16 -3 9 -0.7380 -0.0000
-16 -2 1 3.5290 -0.0183
-16 -2 2 -3.7172 0.0094
-16 -2 3 1.2902 0.0009
-16 -2 4 1.4435 -0.0068
-16 -2 5 -2.2000 0.0073
-16 -2 6 0.9825 -0.0041
-16 -2 7 0.4539 -0.0012
-16 -2 8 -0.8300 0.0059
-16 -1 1 3.0471 0.0044
-16 -1 2 -2.1672 -0.0119
-16 -1 3 -0.1199 0.0124
-16 -1 4 0.9849 -0.0066
-16 -1 5 0.1907 -0.0006
-16 -1 6 -1.6859 0.0066
-16 -1 7 2.0433 -0.0106
-16 0 1 2.5842 0.0171
-16 0 2 -0.4757 -0.0143
-16 0 3 -1.0314 0.0071
-16 0 4 0.6021 -0.0008
-16 0 5 0.6582 -0.0020
-16 1 1 -0.4846 0.0085
-16 1 2 1.9524 -0.0021
-16 1 3 -1.6938 -0.0012
-15 -15 2 2.4878 -0.0033
-15 -15 3 -1.1642 -0.0022
-15 -14 1 -0.7680 0.0020
-15 -14 2 -0.2122 0.0024
-15 -14 3 0.0821 -0.0045
-15 -14 4 1.4511 0.0034
-15 -14 5 -3.0452 -0.0012
-15 -14 6 3.0512 0.0002
-15 -13 1 0.0901 0.0004
-15 -13 2 -0.7089 0.0031
-15 -13 3 -0.1352 -0.0045
-15 -13 4 0.8831 0.0031
-15 -13 5 0.2395 -0.0005
-15 -13 6 -2.6590 -0.0007
-15 -13 7 4.1099 -0.0002
-15 -13 8 -3.3445 0.0012
-15 -12 1 2.4783 -0.0057
-15 -12 2 -2.1192 0.0070
-15 -12 3 1.2351 -0.0051
-15 -12 4 -2.0852 0.0008
-15 -12 5 4.6684 0.0025
-15 -12 6 -6.4158 -0.0023
-15 -12 7 5.5552 -0.0001
-15 -12 8 -3.2646 0.0012
-15 -12 9 1.7237 0.0001
-15 -11 1 0.7279 -0.0042
-15 -11 2 2.5987 -0.0002
-15 -11 3 -3.4791 0.0041
-15 -11 4 1.2756 -0.0058
-15 -11 5 1.1922 0.0042
-15 -11 6 -1.2025 -0.0002
-15 -11 7 -0.8431 -0.0033
-15 -11 8 2.4846 0.0036
-15 -11 9 -2.5149 -0.0017
-15 -11 10 1.7589 0.0009
-15 -10 1 -4.9210 0.0064
-15 -10 2 5.3175 -0.0085
-15 -10 3 -2.3307 0.0065
-15 -10 4 -0.5921 -0.0027
-15 -10 5 0.2833 -0.0011
-15 -10 6 2.6302 0.0038
-15 -10 7 -5.0443 -0.0038
-15 -10 8 5.0476 0.0006
-15 -10 9 -3.2194 0.0030
-15 -10 10 1.1278 -0.0029
-15 -10 11 0.4074 0.0000
-15 -9 1 0.9241 0.0083
-15 -9 2 -4.1517 -0.0049
-15 -9 3 6.7282 0.0005
-15 -9 4 -5.7889 0.0026
-15 -9 5 2.3407 -0.0042
-15 -9 6 0.3594 0.0038
-15 -9 7 -0.4904 -0.0010
-15 -9 8 -0.9961 -0.0022
-15 -9 9 2.3916 0.0018
-15 -9 10 -2.8401 0.0021
-15 -9 11 2.3103 -0.0052
-15 -8 1 -0.3062 0.0024
-15 -8 2 -1.5401 0.0021
-15 -8 3 0.9770 -0.0048
-15 -8 4 1.4073 0.0054
-15 -8 5 -2.6893 -0.0035
-15 -8 6 1.5086 -0.0006
-15 -8 7 0.8278 0.0037
-15 -8 8 -2.2942 -0.0024
-15 -8 9 2.2354 -0.0023
-15 -8 10 -1.1905 0.0051
-15 -8 11 -0.1772 -0.0034
-15 -8 12 1.1922 -0.0001
-15 -7 1 -2.1504 -0.0079
-15 -7 2 1.4706 0.0083
-15 -7 3 -2.6342 -0.0064
-15 -7 4 3.4687 0.0021
-15 -7 5 -1.8510 0.0034
-15 -7 6 -1.3519 -0.0064
-15 -7 7 3.6649 0.0037
-15 -7 8 -3.9348 0.0022
-15 -7 9 2.9759 -0.0050
-15 -7 10 -2.0475 0.0028
-15 -7 11 1.5063 -0.0001
-15 -7 12 -1.1782 0.0005
-15 -6 1 2.4385 -0.0055
-15 -6 2 -0.9915 0.0004
-15 -6 3 -0.7446 0.0050
-15 -6 4 0.8191 -0.0088
-15 -6 5 0.7435 0.0087
-15 -6 6 -1.6800 -0.0036
-15 -6 7 0.5078 -0.0027
-15 -6 8 1.4787 0.0045
-15 -6 9 -2.0605 -0.0009
-15 -6 10 0.7995 -0.0027
-15 -6 11 0.6581 0.0020
-15 -6 12 -0.9273 0.0007
-15 -5 1 -3.0564 0.0033
-15 -5 2 3.4612 -0.0079
-15 -5 3 -2.3993 0.0100
-15 -5 4 0.7661 -0.0074
-15 -5 5 -0.4208 0.0013
-15 -5 6 2.1649 0.0038
-15 -5 7 -4.4916 -0.0039
-15 -5 8 4.9499 -0.0006
-15 -5 9 -3.0259 0.0047
-15 -5 10 0.6722 -0.0048
-15 -5 11 -0.0231 0.0027
-15 -5 12 0.8901 -0.0023
-15 -4 1 0.2901 0.0061
-15 -4 2 -3.7197 -0.0069
-15 -4 3 5.7042 0.0046
-15 -4 4 -4.8832 0.0005
-15 -4 5 1.9907 -0.0045
-15 -4 6 0.7643 0.0036
-15 -4 7 -1.6911 0.0009
-15 -4 8 0.8946 -0.0038
-15 -4 9 -0.0114 0.0027
-15 -4 10 0.4256 -0.0005
-15 -4 11 -1.9582 0.0009
-15 -4 12 3.1331 -0.0036
-15 -3 1 6.4320 0.0002
-15 -3 2 -7.0627 0.0042
-15 -3 3 4.2007 -0.0083
-15 -3 4 0.0963 0.0101
-15 -3 5 -2.6565 -0.0067
-15 -3 6 2.1339 -0.0009
-15 -3 7 0.2920 0.0062
-15 -3 8 -2.6822 -0.0049
-15 -3 9 3.7999 0.0004
-15 -3 10 -3.5132 0.0014
-15 -3 11 2.4203 0.0008
-15 -3 12 -1.2316 -0.0027
-15 -2 1 -0.7644 -0.0115
-15 -2 2 2.3153 0.0128
-15 -2 3 -5.4135 -0.0106
-15 -2 4 6.9673 0.0051
-15 -2 5 -5.3048 0.0025
-15 -2 6 1.5791 -0.0071
-15 -2 7 1.8457 0.0037
-15 -2 8 -3.6585 0.0047
-15 -2 9 3.8111 -0.0092
-15 -2 10 -2.8377 0.0057
-15 -2 11 1.6007 0.0003
-15 -1 1 1.5761 -0.0163
-15 -1 2 -0.2637 0.0085
-15 -1 3 -1.4507 0.0007
-15 -1 4 1.3159 -0.0078
-15 -1 5 0.4593 0.0099
-15 -1 6 -1.8625 -0.0046
-15 -1 7 1.3149 -0.0051
-15 -1 8 0.8267 0.0098
-15 -1 9 -2.9577 -0.0043
-15 -1 10 3.8002 -0.0061
-15 -1 11 -3.0143 0.0119
-15 0 1 5.7098 -0.0030
-15 0 2 -2.2692 -0.0065
-15 0 3 0.1342 0.0119
-15 0 4 -0.0912 -0.0112
-15 0 5 0.4339 0.0047
-15 0 6 0.5367 0.0037
-15 0 7 -2.7875 -0.0074
-15 0 8 4.6981 0.0025
-15 0 9 -4.6466 0.0066
-15 0 10 2.7991 -0.0108
-15 1 1 -1.1958 0.0136
-15 1 2 2.4339 -0.0122
-15 1 3 -1.8212 0.0056
-15 1 4 0.5841 0.0032
-15 1 5 -0.4487 -0.0101
-15 1 6 1.4714 0.0110
-15 1 7 -2.4078 -0.0053
-15 1 8 2.2414 -0.0028
-15 1 9 -0.8638 0.0063
-15 2 1 -2.9033 0.0078
-15 2 2 1.2738 0.0010
-15 2 3 0.3705 -0.0080
-15 2 4 -1.0925 0.0097
-15 2 5 0.7607 -0.0063
-15 2 6 -0.1615 -0.0000
-15 2 7 0.0600 0.0056
-15 3 1 1.4655 -0.0038
-15 3 2 -1.7366 0.0096
-15 3 3 1.3901 -0.0073
-15 3 4 -0.7406 0.0001
-15 3 5 0.0868 0.0062
-14 -16 1 1.8806 0.0015
-14 -16 2 -1.6610 -0.0000
-14 -16 3 1.2747 -0.0032
-14 -16 4 -0.4550 0.0038
-14 -15 1 0.1614 0.0046
-14 -15 2 -0.2139 -0.0008
-14 -15 3 0.3763 -0.0006
-14 -15 4 0.2629 -0.0018
-14 -15 5 -1.3600 0.0041
-14 -15 6 1.8025 -0.0030
-14 -15 7 -1.3028 -0.0003
-14 -14 1 -2.1636 -0.0014
-14 -14 2 0.6660 0.0010
-14 -14 3 -0.0716 0.0012
-14 -14 4 0.7396 -0.0027
-14 -14 5 -1.0061 0.0016
-14 -14 6 -0.4468 0.0012
-14 -14 7 2.2859 -0.0028
-14 -14 8 -2.5399 0.0017
-14 -14 9 1.2803 0.0013
-14 -13 1 1.9802 0.0055
-14 -13 2 -1.7600 -0.0046
-14 -13 3 -0.0572 0.0014
-14 -13 4 1.5525 0.0021
-14 -13 5 -0.6849 -0.0038
-14 -13 6 -1.6804 0.0030
-14 -13 7 2.6929 -0.0005
-14 -13 8 -1.5356 -0.0032
-14 -13 9 0.3605 0.0066
-14 -13 10 -0.6833 -0.0075
-14 -12 1 1.3456 0.0039
-14 -12 2 1.9937 0.0022
-14 -12 3 -4.7697 -0.0065
-14 -12 4 4.2721 0.0062
-14 -12 5 -0.9597 -0.0025
-14 -12 6 -1.6383 -0.0009
-14 -12 7 1.3082 0.0026
-14 -12 8 0.4843 -0.0032
-14 -12 9 -1.2206 0.0026
-14 -12 10 0.7317 0.0004
-14 -12 11 -0.4786 -0.0045
-14 -11 1 -2.4673 -0.0098
-14 -11 2 4.1074 0.0102
-14 -11 3 -2.0131 -0.0067
-14 -11 4 -2.5786 0.0010
-14 -11 5 5.6329 0.0034
-14 -11 6 -4.2178 -0.0040
-14 -11 7 -0.3482 0.0018
-14 -11 8 4.1633 0.0003
-14 -11 9 -5.1135 -0.0019
-14 -11 10 3.9899 0.0036
-14 -11 11 -2.3765 -0.0040
-14 -11 12 0.8499 0.0014
-14 -10 1 -0.2262 -0.0072
-14 -10 2 -2.1294 0.0018
-14 -10 3 6.5120 0.0031
-14 -10 4 -8.5232 -0.0060
-14 -10 5 6.1579 0.0052
-14 -10 6 -1.4711 -0.0012
-14 -10 7 -1.7900 -0.0025
-14 -10 8 1.3061 0.0031
-14 -10 9 1.9384 -0.0016
-14 -10 10 -5.1732 -0.0003
-14 -10 11 6.4508 0.0028
-14 -10 12 -5.5726 -0.0060
-14 -10 13 3.5166 0.0074
-14 -9 1 -4.1138 0.0047
-14 -9 2 0.5658 -0.0088
-14 -9 3 0.6240 0.0090
-14 -9 4 1.3493 -0.0054
-14 -9 5 -3.8809 -0.0002
-14 -9 6 3.9032 0.0042
-14 -9 7 -1.0767 -0.0041
-14 -9 8 -2.8960 0.0014
-14 -9 9 5.7762 0.0007
-14 -9 10 -5.9102 -0.0012
-14 -9 11 3.4683 0.0010
-14 -9 12 -0.2299 0.0003
-14 -9 13 -1.8048 -0.0033
-14 -8 1 -1.7779 0.0112
-14 -8 2 0.8535 -0.0099
-14 -8 3 -2.7444 0.0031
-14 -8 4 4.4695 0.0043
-14 -8 5 -3.9654 -0.0071
-14 -8 6 1.6710 0.0044
-14 -8 7 0.3093 0.0000
-14 -8 8 -0.7246 -0.0027
-14 -8 9 -0.1483 0.0030
-14 -8 10 1.7810 -0.0022
-14 -8 11 -3.2463 0.0001
-14 -8 12 3.3885 0.0033
-14 -8 13 -2.0017 -0.0048
-14 -8 14 0.2893 0.0015
-14 -7 1 6.3770 0.0090
-14 -7 2 -3.4526 -0.0003
-14 -7 3 0.8400 -0.0074
-14 -7 4 -0.5174 0.0086
-14 -7 5 1.4730 -0.0039
-14 -7 6 -1.4848 -0.0009
-14 -7 7 -0.1998 0.0021
-14 -7 8 2.3969 -0.0011
-14 -7 9 -3.3544 0.0001
-14 -7 10 2.7533 0.0016
-14 -7 11 -1.3250 -0.0046
-14 -7 12 -0.2022 0.0055
-14 -7 13 1.1373 -0.0011
-14 -7 14 -1.0863 -0.0051
-14 -6 1 -1.9064 -0.0096
-14 -6 2 2.6015 0.0130
-14 -6 3 -1.0146 -0.0091
-14 -6 4 -1.8779 0.0012
-14 -6 5 3.5675 0.0045
-14 -6 6 -2.6698 -0.0050
-14 -6 7 0.7462 0.0027
-14 -6 8 -0.1196 -0.0007
-14 -6 9 1.4059 -0.0016
-14 -6 10 -2.8998 0.0044
-14 -6 11 2.6485 -0.0047
-14 -6 12 -0.7166 -0.0002
-14 -6 13 -1.3170 0.0061
-14 -6 14 2.0790 -0.0058
-14 -5 1 -4.1836 -0.0161
-14 -5 2 -0.1392 0.0061
-14 -5 3 3.7912 0.0043
-14 -5 4 -4.9544 -0.0089
-14 -5 5 3.3467 0.0070
-14 -5 6 -0.7225 -0.0027
-14 -5 7 -0.0984 -0.0009
-14 -5 8 -1.5129 0.0041
-14 -5 9 3.2418 -0.0066
-14 -5 10 -2.4641 0.0058
-14 -5 11 -0.8849 -0.0006
-14 -5 12 4.0633 -0.0044
-14 -5 13 -4.6326 0.0030
-14 -5 14 2.8404 0.0039
-14 -4 1 3.2453 0.0043
-14 -4 2 -4.8470 -0.0131
-14 -4 3 3.0185 0.0142
-14 -4 4 1.2477 -0.0081
-14 -4 5 -4.7756 0.0008
-14 -4 6 5.0957 0.0030
-14 -4 7 -2.1651 -0.0035
-14 -4 8 -1.4818 0.0028
-14 -4 9 2.9349 -0.0004
-14 -4 10 -1.7451 -0.0040
-14 -4 11 -0.0131 0.0063
-14 -4 12 0.0535 -0.0017
-14 -4 13 1.5833 -0.0068
-14 -4 14 -2.8567 0.0104
-14 -3 1 -0.0677 0.0131
-14 -3 2 1.8314 -0.0126
-14 -3 3 -5.4071 0.0055
-14 -3 4 8.0590 0.0037
-14 -3 5 -7.3936 -0.0081
-14 -3 6 3.9917 0.0059
-14 -3 7 -0.4901 -0.0017
-14 -3 8 -1.0136 -0.0014
-14 -3 9 0.3644 0.0037
-14 -3 10 0.7702 -0.0046
-14 -3 11 -0.6909 0.0015
-14 -3 12 -0.7964 0.0043
-14 -3 13 2.2726 -0.0059
-14 -3 14 -2.3000 -0.0003
-14 -2 1 2.6592 0.0063
-14 -2 2 -1.3299 -0.0008
-14 -2 3 -0.5618 -0.0066
-14 -2 4 0.8794 0.0105
-14 -2 5 0.6353 -0.0072
-14 -2 6 -2.0336 0.0007
-14 -2 7 1.3407 0.0024
-14 -2 8 1.3307 -0.0015
-14 -2 9 -4.2578 0.0005
-14 -2 10 5.6267 -0.0004
-14 -2 11 -4.9737 0.0001
-14 -2 12 3.3377 -0.0014
-14 -2 13 -2.0941 0.0067
-14 -2 14 1.6757 -0.0121
-14 -1 1 7.1571 -0.0095
-14 -1 2 -4.9556 0.0131
-14 -1 3 3.1461 -0.0128
-14 -1 4 -3.2374 0.0066
-14 -1 5 4.3283 0.0025
-14 -1 6 -4.4574 -0.0071
-14 -1 7 2.7016 0.0046
-14 -1 8 -0.2284 -0.0000
-14 -1 9 -1.1214 -0.0014
-14 -1 10 0.7116 0.0003
-14 -1 11 0.3668 0.0013
-14 -1 12 -0.6284 -0.0038
-14 -1 13 -0.0484 0.0061
-14 0 1 -0.5854 -0.0128
-14 0 2 2.4104 0.0075
-14 0 3 -2.6133 0.0000
-14 0 4 1.2088 -0.0073
-14 0 5 0.0385 0.0095
-14 0 6 0.0066 -0.0048
-14 0 7 -0.8156 -0.0019
-14 0 8 0.8232 0.0039
-14 0 9 0.7248 -0.0006
-14 0 10 -2.7935 -0.0036
-14 0 11 3.6685 0.0061
-14 0 12 -2.8161 -0.0067
-14 0 13 1.4247 0.0046
-14 1 1 -3.7614 0.0003
-14 1 2 4.1387 -0.0071
-14 1 3 -3.1044 0.0112
-14 1 4 1.8633 -0.0105
-14 1 5 -1.5468 0.0042
-14 1 6 1.9258 0.0033
-14 1 7 -2.0317 -0.0054
-14 1 8 1.1896 0.0010
-14 1 9 0.3370 0.0045
-14 1 10 -1.5194 -0.0060
-14 1 11 1.6269 0.0042
-14 1 12 -0.8104 -0.0012
-14 2 1 -0.8103 0.0104
-14 2 2 0.4509 -0.0099
-14 2 3 0.1574 0.0073
-14 2 4 -0.3214 -0.0025
-14 2 5 -0.0679 -0.0027
-14 2 6 0.6300 0.0043
-14 2 7 -0.9542 -0.0005
-14 2 8 0.7048 -0.0041
-14 2 9 0.1536 0.0038
-14 2 10 -1.0588 0.0008
-14 2 11 1.3713 -0.0043
-14 3 1 1.7947 0.0021
-14 3 2 -2.1045 0.0045
-14 3 3 1.9000 -0.0072
-14 3 4 -1.3266 0.0069
-14 3 5 0.3352 -0.0049
-14 3 6 0.8372 0.0005
-14 3 7 -1.6239 0.0044
-14 3 8 1.5293 -0.0052
-14 3 9 -0.6675 0.0002
-14 3 10 -0.1034 0.0051
-14 4 1 2.3638 -0.0127
-14 4 2 -1.7605 0.0145
-14 4 3 1.6832 -0.0099
-14 4 4 -1.5118 0.0041
-14 4 5 0.6661 -0.0004
-14 4 6 0.3289 -0.0017
-14 4 7 -0.7598 0.0021
-14 4 8 0.6192 0.0012
-14 5 1 0.3902 -0.0179
-14 5 2 -0.3945 0.0132
-14 5 3 0.8344 -0.0044
-14 5 4 -0.4459 -0.0018
-14 5 5 -0.6706 0.0028
-14 5 6 1.3627 -0.0016
-13 -17 1 2.9583 -0.0012
-13 -17 2 -3.3077 0.0011
-13 -17 3 3.6068 -0.0026
-13 -17 4 -3.1382 0.0032
-13 -16 1 0.1649 0.0037
-13 -16 2 -1.3823 -0.0005
-13 -16 3 2.2464 -0.0020
-13 -16 4 -1.8843 0.0013
-13 -16 5 0.4389 0.0009
-13 -16 6 0.6362 -0.0015
-13 -16 7 -0.4795 0.0009
-13 -15 1 -2.9676 -0.0039
-13 -15 2 0.9925 0.0065
-13 -15 3 -0.5365 -0.0047
-13 -15 4 2.3984 0.0009
-13 -15 5 -4.5667 0.0011
-13 -15 6 4.3488 -0.0004
-13 -15 7 -1.6620 -0.0007
-13 -15 8 -0.7493 0.0008
-13 -15 9 1.0315 -0.0006
-13 -14 1 4.7022 -0.0064
-13 -14 2 -3.9441 0.0024
-13 -14 3 -0.0904 0.0019
-13 -14 4 4.8319 -0.0033
-13 -14 5 -5.8909 0.0021
-13 -14 6 2.5644 -0.0003
-13 -14 7 1.0889 -0.0008
-13 -14 8 -1.3174 0.0010
-13 -14 9 -0.9947 -0.0006
-13 -14 10 2.2230 -0.0002
-13 -14 11 -1.1257 0.0014
-13 -13 1 5.4595 0.0058
-13 -13 2 -1.1877 -0.0083
-13 -13 3 -3.7119 0.0067
-13 -13 4 4.4152 -0.0034
-13 -13 5 0.1677 0.0008
-13 -13 6 -5.3954 0.0012
-13 -13 7 6.0702 -0.0028
-13 -13 8 -2.6622 0.0027
-13 -13 9 -0.1624 -0.0004
-13 -13 10 -0.1167 -0.0021
-13 -13 11 1.6400 0.0026
-13 -13 12 -1.8160 -0.0009
-13 -12 1 -2.9863 0.0075
-13 -12 2 6.1501 -0.0038
-13 -12 3 -5.1728 -0.0008
-13 -12 4 -0.9291 0.0032
-13 -12 5 7.3301 -0.0038
-13 -12 6 -8.3546 0.0037
-13 -12 7 3.6878 -0.0025
-13 -12 8 1.6762 -0.0007
-13 -12 9 -3.4459 0.0037
-13 -12 10 2.3022 -0.0028
-13 -12 11 -1.1158 -0.0016
-13 -12 12 0.8500 0.0056
-13 -12 13 -0.6138 -0.0061
-13 -11 1 -4.8155 -0.0007
-13 -11 2 3.7738 0.0044
-13 -11 3 1.4277 -0.0069
-13 -11 4 -6.7560 0.0063
-13 -11 5 7.1958 -0.0034
-13 -11 6 -2.1812 -0.0002
-13 -11 7 -3.4391 0.0034
-13 -11 8 4.8485 -0.0054
-13 -11 9 -1.5899 0.0044
-13 -11 10 -2.9742 -0.0008
-13 -11 11 5.7646 -0.0014
-13 -11 12 -6.3837 -0.0010
-13 -11 13 5.6231 0.0062
-13 -11 14 -4.0441 -0.0094
-13 -10 1 -4.7195 -0.0057
-13 -10 2 0.3036 0.0073
-13 -10 3 2.8713 -0.0065
-13 -10 4 -1.9951 0.0025
-13 -10 5 -2.3145 0.0022
-13 -10 6 6.5807 -0.0043
-13 -10 7 -6.8314 0.0034
-13 -10 8 2.6199 -0.0012
-13 -10 9 2.8678 -0.0012
-13 -10 10 -6.0274 0.0022
-13 -10 11 5.4965 -0.0004
-13 -10 12 -2.8266 -0.0028
-13 -10 13 0.2478 0.0035
-13 -10 14 1.2466 -0.0003
-13 -10 15 -1.6851 -0.0037
-13 -9 1 0.5465 -0.0072
-13 -9 2 -2.0777 0.0024
-13 -9 3 0.0931 0.0027
-13 -9 4 3.3506 -0.0063
-13 -9 5 -5.2873 0.0066
-13 -9 6 4.8447 -0.0038
-13 -9 7 -2.5542 0.0007
-13 -9 8 0.0521 0.0006
-13 -9 9 0.4679 -0.0001
-13 -9 10 1.6531 -0.0017
-13 -9 11 -5.0153 0.0033
-13 -9 12 7.1454 -0.0029
-13 -9 13 -6.7738 0.0005
-13 -9 14 4.9603 0.0014
-13 -9 15 -3.1677 -0.0007
-13 -8 1 5.8878 0.0061
-13 -8 2 -3.5069 -0.0113
-13 -8 3 1.6260 0.0106
-13 -8 4 -1.8214 -0.0062
-13 -8 5 3.4682 0.0014
-13 -8 6 -4.2645 0.0023
-13 -8 7 3.3000 -0.0039
-13 -8 8 -1.4969 0.0032
-13 -8 9 -0.6247 -0.0005
-13 -8 10 2.5386 -0.0022
-13 -8 11 -3.2880 0.0029
-13 -8 12 2.4698 -0.0020
-13 -8 13 -0.9350 0.0019
-13 -8 14 0.1979 -0.0029
-13 -8 15 -0.4608 0.0027
-13 -8 16 0.6410 0.0002
-13 -7 1 -0.5174 0.0172
-13 -7 2 0.8629 -0.0120
-13 -7 3 1.2497 0.0035
-13 -7 4 -3.9024 0.0023
-13 -7 5 4.7368 -0.0041
-13 -7 6 -3.1825 0.0037
-13 -7 7 1.0092 -0.0019
-13 -7 8 -0.6801 -0.0013
-13 -7 9 2.1892 0.0037
-13 -7 10 -3.8245 -0.0029
-13 -7 11 4.4693 0.0000
-13 -7 12 -3.7978 0.0012
-13 -7 13 2.1954 -0.0001
-13 -7 14 -0.5462 -0.0003
-13 -7 15 -0.1727 -0.0014
-13 -7 16 -0.2255 0.0026
-13 -6 1 -6.3254 0.0043
-13 -6 2 3.8900 0.0042
-13 -6 3 -1.2859 -0.0095
-13 -6 4 0.8363 0.0097
-13 -6 5 -3.0023 -0.0066
-13 -6 6 5.3494 0.0020
-13 -6 7 -5.1329 0.0025
-13 -6 8 1.7329 -0.0046
-13 -6 9 2.1638 0.0024
-13 -6 10 -3.1561 0.0019
-13 -6 11 0.9879 -0.0039
-13 -6 12 1.8393 0.0026
-13 -6 13 -2.7848 -0.0014
-13 -6 14 1.4007 0.0018
-13 -6 15 0.6625 -0.0009
-13 -6 16 -1.6239 -0.0028
-13 -5 1 -0.7373 -0.0093
-13 -5 2 -1.0267 0.0110
-13 -5 3 0.6525 -0.0088
-13 -5 4 2.2707 0.0042
-13 -5 5 -5.7113 0.0011
-13 -5 6 6.2711 -0.0052
-13 -5 7 -3.1650 0.0057
-13 -5 8 -0.8162 -0.0019
-13 -5 9 1.9957 -0.0025
-13 -5 10 0.6570 0.0032
-13 -5 11 -3.9773 -0.0009
-13 -5 12 4.1768 0.0001
-13 -5 13 -1.0886 -0.0019
-13 -5 14 -2.1091 0.0020
-13 -5 15 2.5941 0.0016
-13 -5 16 -0.8055 -0.0042
-13 -4 1 4.1108 -0.0122
-13 -4 2 -5.2370 0.0055
-13 -4 3 3.1359 0.0017
-13 -4 4 -0.2279 -0.0062
-13 -4 5 -0.5578 0.0071
-13 -4 6 -1.6894 -0.0045
-13 -4 7 4.3910 -0.0007
-13 -4 8 -3.9557 0.0051
-13 -4 9 -0.0185 -0.0048
-13 -4 10 4.4332 0.0007
-13 -4 11 -5.5476 0.0017
-13 -4 12 2.6808 -0.0001
-13 -4 13 0.9855 -0.0013
-13 -4 14 -2.1214 -0.0013
-13 -4 15 0.7381 0.0037
-13 -4 16 0.5045 -0.0007
-13 -3 1 6.9945 0.0005
-13 -3 2 -5.2231 -0.0113
-13 -3 3 1.6166 0.0143
-13 -3 4 0.0292 -0.0096
-13 -3 5 1.2331 0.0024
-13 -3 6 -3.0951 0.0033
-13 -3 7 2.7367 -0.0066
-13 -3 8 0.4535 0.0063
-13 -3 9 -3.9064 -0.0023
-13 -3 10 4.7168 -0.0015
-13 -3 11 -2.5679 0.0010
-13 -3 12 -0.3289 0.0015
-13 -3 13 1.3737 -0.0009
-13 -3 14 -0.2075 -0.0019
-13 -3 15 -1.1725 0.0012
-13 -3 16 1.0202 0.0035
-13 -2 1 1.7675 0.0185
-13 -2 2 1.7379 -0.0182
-13 -2 3 -3.5844 0.0077
-13 -2 4 2.1287 0.0039
-13 -2 5 1.0889 -0.0084
-13 -2 6 -3.2886 0.0068
-13 -2 7 3.6626 -0.0035
-13 -2 8 -3.3038 -0.0001
-13 -2 9 3.7626 0.0030
-13 -2 10 -5.2519 -0.0021
-13 -2 11 6.1373 -0.0026
-13 -2 12 -4.8890 0.0056
-13 -2 13 1.7547 -0.0038
-13 -2 14 1.3590 0.0013
-13 -2 15 -2.6163 -0.0024
-13 -2 16 1.9568 0.0043
-13 -1 1 -5.6698 0.0150
-13 -1 2 5.8745 -0.0024
-13 -1 3 -4.2194 -0.0102
-13 -1 4 1.3928 0.0134
-13 -1 5 0.9794 -0.0079
-13 -1 6 -1.6285 0.0014
-13 -1 7 1.1410 0.0018
-13 -1 8 -0.7975 -0.0028
-13 -1 9 1.1153 0.0020
-13 -1 10 -1.6307 0.0014
-13 -1 11 1.2861 -0.0041
-13 -1 12 0.0583 0.0021
-13 -1 13 -1.1553 0.0022
-13 -1 14 0.8704 -0.0029
-13 -1 15 0.4655 0.0002
-13 -1 16 -1.4837 0.0004
-13 0 1 1.1538 -0.0070
-13 0 2 -0.9276 0.0157
-13 0 3 0.6604 -0.0145
-13 0 4 0.1472 0.0054
-13 0 5 -1.6962 0.0030
-13 0 6 3.9349 -0.0052
-13 0 7 -6.0980 0.0034
-13 0 8 7.2028 -0.0013
-13 0 9 -7.1124 -0.0007
-13 0 10 6.2247 0.0019
-13 0 11 -4.9912 0.0002
-13 0 12 3.4347 -0.0050
-13 0 13 -1.3723 0.0068
-13 0 14 -0.6608 -0.0034
-13 0 15 1.6638 -0.0003
-13 1 1 4.5612 -0.0204
-13 1 2 -2.1266 0.0144
-13 1 3 0.4837 -0.0021
-13 1 4 0.4053 -0.0075
-13 1 5 -0.5952 0.0086
-13 1 6 0.4965 -0.0041
-13 1 7 -0.5190 -0.0001
-13 1 8 0.3847 0.0023
-13 1 9 0.1145 -0.0039
-13 1 10 -0.8711 0.0038
-13 1 11 1.5443 -0.0001
-13 1 12 -1.6574 -0.0037
-13 1 13 1.0048 0.0027
-13 1 14 0.1494 0.0014
-13 1 15 -1.0602 -0.0027
-13 2 1 -2.4089 -0.0059
-13 2 2 1.9989 -0.0037
-13 2 3 -0.4637 0.0107
-13 2 4 -1.5924 -0.0104
-13 2 5 3.1726 0.0043
-13 2 6 -3.4891 0.0009
-13 2 7 2.5289 -0.0016
-13 2 8 -1.5488 0.0005
-13 2 9 1.5558 0.0001
-13 2 10 -2.1568 -0.0018
-13 2 11 2.1834 0.0047
-13 2 12 -0.9178 -0.0039
-13 2 13 -1.0039 -0.0026
-13 2 14 2.1771 0.0088
-13 3 1 -2.2288 0.0074
-13 3 2 0.6971 -0.0112
-13 3 3 1.0469 0.0110
-13 3 4 -2.0752 -0.0053
-13 3 5 1.3760 -0.0022
-13 3 6 0.5852 0.0052
-13 3 7 -2.3143 -0.0027
-13 3 8 2.3920 -0.0007
-13 3 9 -0.8076 0.0022
-13 3 10 -0.9005 -0.0029
-13 3 11 1.2634 0.0030
-13 3 12 -0.2169 0.0002
-13 3 13 -0.9124 -0.0053
-13 4 1 1.7579 0.0057
-13 4 2 -0.7361 -0.0034
-13 4 3 0.3409 -0.0003
-13 4 4 0.4963 0.0058
-13 4 5 -1.9798 -0.0087
-13 4 6 2.8173 0.0049
-13 4 7 -2.0289 0.0025
-13 4 8 -0.0798 -0.0059
-13 4 9 2.4541 0.0035
-13 4 10 -3.8990 -0.0009
-13 4 11 3.7693 0.0014
-13 4 12 -2.4029 -0.0028
-13 5 1 -1.6563 -0.0060
-13 5 2 1.7676 0.0098
-13 5 3 -1.2293 -0.0085
-13 5 4 1.3557 0.0044
-13 5 5 -1.7919 0.0019
-13 5 6 1.6401 -0.0088
-13 5 7 -0.9243 0.0107
-13 5 8 0.0729 -0.0042
-13 5 9 0.8362 -0.0050
-13 5 10 -1.4530 0.0075
-13 6 1 -1.0444 -0.0178
-13 6 3 2.7931 -0.0024
-13 6 5 0.4759 0.0054
-13 6 6 0.7372 -0.0019
-13 6 7 -1.4745 -0.0043
-13 6 8 1.4473 0.0104
-13 7 1 3.6600 -0.0141
-13 7 2 -4.2200 0.0029
-13 7 5 -1.2843 -0.0041
-12 -18 1 -0.1231 -0.0065
-12 -18 2 -0.1689 0.0065
-12 -18 3 0.8668 -0.0053
-12 -17 1 -0.9355 -0.0053
-12 -17 2 -0.5769 0.0037
-12 -17 3 1.9322 -0.0013
-12 -17 4 -1.4571 -0.0005
-12 -17 5 -0.4259 -0.0008
-12 -17 6 1.8057 0.0049
-12 -17 7 -1.5946 -0.0074
-12 -16 1 -0.1932 0.0020
-12 -16 2 -2.0562 -0.0022
-12 -16 3 2.0731 0.0016
-12 -16 4 0.8910 0.0001
-12 -16 5 -4.3893 -0.0029
-12 -16 6 5.3476 0.0048
-12 -16 7 -3.4879 -0.0036
-12 -16 8 0.9906 0.0007
-12 -16 9 0.0879 0.0008
-12 -15 1 7.5199 0.0034
-12 -15 2 -7.9219 -0.0014
-12 -15 3 3.8583 -0.0001
-12 -15 4 1.9798 0.0013
-12 -15 5 -4.6584 -0.0018
-12 -15 6 2.1374 0.0007
-12 -15 7 2.3483 0.0010
-12 -15 8 -4.1103 -0.0015
-12 -15 9 2.0763 0.0002
-12 -15 10 1.0120 0.0014
-12 -15 11 -2.1692 -0.0020
-12 -14 1 8.2691 -0.0059
-12 -14 2 -4.7718 0.0057
-12 -14 3 -1.0411 -0.0050
-12 -14 4 3.3400 0.0034
-12 -14 5 0.8472 -0.0004
-12 -14 6 -7.6961 -0.0024
-12 -14 7 10.6301 0.0027
-12 -14 8 -7.4852 -0.0009
-12 -14 9 2.3255 -0.0005
-12 -14 10 0.0111 0.0005
-12 -14 11 1.0557 0.0004
-12 -14 12 -2.7848 -0.0014
-12 -13 1 -2.7892 -0.0026
-12 -13 2 8.4769 0.0003
-12 -13 3 -10.4096 0.0016
-12 -13 4 5.7144 -0.0043
-12 -13 5 2.1593 0.0061
-12 -13 6 -5.9745 -0.0042
-12 -13 7 2.8465 -0.0004
-12 -13 8 2.8660 0.0031
-12 -13 9 -5.3221 -0.0021
-12 -13 10 3.3005 0.0002
-12 -13 11 0.0067 0.0002
-12 -13 12 -1.7222 0.0007
-12 -13 13 1.5678 -0.0020
-12 -13 14 -0.5964 0.0029
-12 -12 1 -6.6272 0.0015
-12 -12 2 9.5056 -0.0046
-12 -12 3 -6.0883 0.0061
-12 -12 4 -0.3616 -0.0056
-12 -12 5 3.7249 0.0023
-12 -12 6 -0.7849 0.0026
-12 -12 7 -5.1891 -0.0047
-12 -12 8 7.9731 0.0021
-12 -12 9 -5.5297 0.0018
-12 -12 10 0.8259 -0.0025
-12 -12 11 2.5708 0.0000
-12 -12 12 -3.4394 0.0020
-12 -12 13 2.4951 -0.0018
-12 -12 14 -0.8421 0.0004
-12 -12 15 -0.3114 0.0011
-12 -11 1 -3.3986 0.0085
-12 -11 2 -0.5478 -0.0084
-12 -11 3 6.3450 0.0033
-12 -11 4 -9.0323 0.0026
-12 -11 5 6.1137 -0.0060
-12 -11 6 -0.2034 0.0062
-12 -11 7 -3.7370 -0.0033
-12 -11 8 2.7317 -0.0003
-12 -11 9 1.3595 0.0014
-12 -11 10 -4.3892 0.0006
-12 -11 11 4.4317 -0.0026
-12 -11 12 -2.2490 0.0018
-12 -11 13 -0.3141 0.0002
-12 -11 14 1.7742 -0.0009
-12 -11 15 -1.6769 0.0000
-12 -10 1 2.2597 0.0124
-12 -10 2 -5.7326 -0.0032
-12 -10 3 6.1119 -0.0050
-12 -10 4 -2.9943 0.0067
-12 -10 5 -1.7214 -0.0035
-12 -10 6 4.5372 -0.0000
-12 -10 7 -3.7938 0.0021
-12 -10 8 0.6653 -0.0027
-12 -10 9 1.9503 0.0014
-12 -10 10 -1.6252 0.0006
-12 -10 11 -0.9462 -0.0012
-12 -10 12 3.2500 0.0002
-12 -10 13 -3.9046 0.0004
-12 -10 14 3.3071 0.0003
-12 -10 15 -2.5116 -0.0008
-12 -10 16 1.8017 0.0004
-12 -9 1 0.7541 -0.0069
-12 -9 2 1.0574 0.0124
-12 -9 3 -3.3642 -0.0109
-12 -9 4 3.9847 0.0044
-12 -9 5 -2.8100 0.0015
-12 -9 6 0.4855 -0.0038
-12 -9 7 1.9482 0.0036
-12 -9 8 -3.3412 -0.0023
-12 -9 9 3.3195 0.0004
-12 -9 10 -2.0927 0.0007
-12 -9 11 0.9340 0.0003
-12 -9 12 -0.9884 -0.0026
-12 -9 13 1.3726 0.0039
-12 -9 14 -0.8254 -0.0033
-12 -9 15 -0.2011 0.0013
-12 -9 16 0.2736 0.0018
-12 -9 17 0.6952 -0.0046
-12 -8 1 -3.4117 -0.0128
-12 -8 2 3.6523 0.0070
-12 -8 3 -1.1575 -0.0004
-12 -8 4 -2.7816 -0.0051
-12 -8 5 4.8259 0.0074
-12 -8 6 -3.8115 -0.0060
-12 -8 7 1.7011 0.0026
-12 -8 8 -0.5031 0.0005
-12 -8 9 0.9414 -0.0015
-12 -8 10 -2.2667 0.0003
-12 -8 11 3.2995 0.0019
-12 -8 12 -3.5049 -0.0033
-12 -8 13 2.6079 0.0026
-12 -8 14 -1.3769 -0.0003
-12 -8 15 1.4789 -0.0017
-12 -8 16 -3.0426 0.0011
-12 -8 17 4.0672 0.0027
-12 -7 1 -3.8727 0.0086
-12 -7 2 1.1486 -0.0126
-12 -7 3 1.8277 0.0121
-12 -7 4 -1.8030 -0.0097
-12 -7 5 -2.3436 0.0052
-12 -7 6 7.8161 0.0003
-12 -7 7 -10.0721 -0.0036
-12 -7 8 8.0034 0.0025
-12 -7 9 -4.2886 0.0012
-12 -7 10 2.1212 -0.0041
-12 -7 11 -2.7170 0.0045
-12 -7 12 4.4304 -0.0027
-12 -7 13 -4.8183 0.0000
-12 -7 14 2.8621 0.0014
-12 -7 15 0.5364 0.0005
-12 -7 16 -2.9724 -0.0050
-12 -7 17 2.7850 0.0076
-12 -7 18 -0.9083 -0.0046
-12 -6 1 1.6588 0.0169
-12 -6 2 -3.9482 -0.0123
-12 -6 3 3.4913 0.0053
-12 -6 4 0.6975 0.0013
-12 -6 5 -5.7672 -0.0060
-12 -6 6 7.6362 0.0072
-12 -6 7 -4.4559 -0.0041
-12 -6 8 -0.7920 -0.0008
-12 -6 9 3.0966 0.0035
-12 -6 10 -0.8662 -0.0032
-12 -6 11 -3.2042 0.0013
-12 -6 12 5.0393 0.0011
-12 -6 13 -3.0852 -0.0025
-12 -6 14 -0.2546 0.0013
-12 -6 15 1.6436 0.0015
-12 -6 16 -0.1299 -0.0013
-12 -6 17 -2.3511 -0.0045
-12 -6 18 3.2464 0.0109
-12 -5 1 5.2102 0.0065
-12 -5 2 -7.8396 0.0017
-12 -5 3 6.4219 -0.0085
-12 -5 4 -3.0636 0.0109
-12 -5 5 2.0130 -0.0080
-12 -5 6 -4.9749 0.0021
-12 -5 7 9.5221 0.0027
-12 -5 8 -11.1229 -0.0035
-12 -5 9 7.3510 0.0013
-12 -5 10 -1.0281 0.0009
-12 -5 11 -2.7754 -0.0022
-12 -5 12 1.9924 0.0025
-12 -5 13 0.9834 -0.0005
-12 -5 14 -2.0763 -0.0033
-12 -5 15 0.0541 0.0042
-12 -5 16 2.4865 0.0014
-12 -5 17 -2.7686 -0.0085
-12 -5 18 0.9501 0.0081
-12 -4 1 3.6235 -0.0056
-12 -4 2 -2.1756 0.0120
-12 -4 3 -2.0245 -0.0128
-12 -4 4 4.5820 0.0075
-12 -4 5 -2.8796 0.0007
-12 -4 6 -1.1306 -0.0063
-12 -4 7 3.1565 0.0061
-12 -4 8 -1.1906 -0.0019
-12 -4 9 -2.9363 -0.0017
-12 -4 10 5.1040 0.0029
-12 -4 11 -2.9700 -0.0029
-12 -4 12 -1.3815 0.0019
-12 -4 13 4.0123 0.0012
-12 -4 14 -3.2361 -0.0035
-12 -4 15 0.9111 0.0010
-12 -4 16 0.0504 0.0039
-12 -4 17 0.7357 -0.0034
-12 -4 18 -1.2736 -0.0042
-12 -3 1 -0.3547 -0.0165
-12 -3 2 5.9792 0.0116
-12 -3 3 -9.3829 -0.0038
-12 -3 4 8.3700 -0.0038
-12 -3 5 -4.5956 0.0083
-12 -3 6 1.7181 -0.0071
-12 -3 7 -1.8712 0.0015
-12 -3 8 3.4589 0.0032
-12 -3 9 -3.5561 -0.0032
-12 -3 10 0.9780 0.0011
-12 -3 11 2.8929 -0.0002
-12 -3 12 -5.0331 0.0000
-12 -3 13 3.7428 0.0009
-12 -3 14 -0.4569 -0.0010
-12 -3 15 -2.0427 -0.0008
-12 -3 16 2.4028 0.0001
-12 -3 17 -1.6023 0.0058
-12 -3 18 1.1403 -0.0112
-12 -2 1 -1.2732 0.0000
-12 -2 2 3.2617 -0.0090
-12 -2 3 -2.0597 0.0122
-12 -2 4 -0.7644 -0.0106
-12 -2 5 2.3923 0.0054
-12 -2 6 -1.7387 0.0020
-12 -2 7 -0.2170 -0.0073
-12 -2 8 1.4223 0.0065
-12 -2 9 -0.9269 -0.0014
-12 -2 10 -0.1018 -0.0017
-12 -2 11 0.1129 0.0009
-12 -2 12 1.4425 0.0002
-12 -2 13 -3.5948 -0.0000
-12 -2 14 4.3119 0.0008
-12 -2 15 -2.6635 -0.0021
-12 -2 16 -0.1240 0.0003
-12 -2 17 2.1190 0.0035
-12 -2 18 -2.4853 -0.0035
-12 -1 1 0.9331 0.0198
-12 -1 2 -2.1895 -0.0167
-12 -1 3 3.3842 0.0089
-12 -1 4 -3.5309 -0.0010
-12 -1 5 2.1892 -0.0051
-12 -1 6 -0.2597 0.0081
-12 -1 7 -1.4851 -0.0058
-12 -1 8 2.9686 -0.0003
-12 -1 9 -4.3145 0.0042
-12 -1 10 5.8914 -0.0027
-12 -1 11 -7.3065 -0.0005
-12 -1 12 7.2372 0.0015
-12 -1 13 -4.9103 -0.0017
-12 -1 14 0.9232 0.0033
-12 -1 15 2.8288 -0.0031
-12 -1 16 -4.3984 -0.0004
-12 -1 17 3.5652 0.0027
-12 0 1 3.7701 0.0075
-12 0 2 -3.9195 0.0019
-12 0 3 3.1435 -0.0084
-12 0 4 -2.5824 0.0106
-12 0 5 2.6779 -0.0096
-12 0 6 -3.2374 0.0054
-12 0 7 3.5129 0.0006
-12 0 8 -2.7745 -0.0040
-12 0 9 1.5970 0.0015
-12 0 10 -0.9988 0.0035
-12 0 11 1.6081 -0.0051
-12 0 12 -3.4845 0.0032
-12 0 13 5.3042 -0.0014
-12 0 14 -5.2320 -0.0002
-12 0 15 2.9251 0.0037
-12 0 16 0.1667 -0.0059
-12 0 17 -2.1442 0.0021
-12 1 1 0.5228 -0.0045
-12 1 2 1.4418 0.0085
-12 1 3 -2.4021 -0.0078
-12 1 4 1.1983 0.0050
-12 1 5 1.3147 -0.0013
-12 1 6 -3.1634 -0.0027
-12 1 7 3.4466 0.0052
-12 1 8 -2.6771 -0.0028
-12 1 9 2.5911 -0.0028
-12 1 10 -4.2350 0.0053
-12 1 11 6.4046 -0.0022
-12 1 12 -7.0689 -0.0013
-12 1 13 5.0777 0.0003
-12 1 14 -1.2240 0.0030
-12 1 15 -1.9419 -0.0056
-12 1 16 2.5609 0.0090
-12 1 17 -1.2351 -0.0130
-12 2 1 -7.7950 -0.0161
-12 2 2 8.8868 0.0119
-12 2 3 -7.2450 -0.0036
-12 2 4 4.0404 -0.0032
-12 2 5 -1.8052 0.0064
-12 2 6 2.4825 -0.0064
-12 2 7 -4.8983 0.0032
-12 2 8 6.3082 0.0024
-12 2 9 -5.0606 -0.0059
-12 2 10 1.9608 0.0030
-12 2 11 0.0919 0.0030
-12 2 12 0.6367 -0.0038
-12 2 13 -2.8005 -0.0019
-12 2 14 3.7776 0.0066
-12 2 15 -2.3475 -0.0056
-12 2 16 -0.2024 0.0027
-12 3 1 -2.5740 -0.0134
-12 3 2 0.5820 -0.0000
-12 3 3 2.4766 0.0110
-12 3 4 -3.8165 -0.0131
-12 3 5 2.1834 0.0077
-12 3 6 1.3177 -0.0009
-12 3 7 -3.6282 -0.0037
-12 3 8 2.6926 0.0057
-12 3 9 0.3144 -0.0042
-12 3 10 -2.5657 -0.0012
-12 3 11 1.9818 0.0059
-12 3 12 0.7993 -0.0050
-12 3 13 -2.9447 0.0024
-12 3 14 2.7098 -0.0056
-12 3 15 -1.0275 0.0129
-12 4 1 6.0003 0.0102
-12 4 2 -6.7124 -0.0166
-12 4 3 6.5827 0.0144
-12 4 4 -4.0843 -0.0044
-12 4 5 0.6441 -0.0052
-12 4 6 1.3566 0.0070
-12 4 7 -0.9169 -0.0030
-12 4 8 -1.1632 -0.0004
-12 4 9 2.7640 0.0018
-12 4 10 -2.3915 -0.0033
-12 4 11 0.2110 0.0035
-12 4 12 2.2355 0.0003
-12 4 13 -3.1425 -0.0042
-12 4 14 2.2757 0.0029
-12 5 1 -3.4462 0.0143
-12 5 2 2.2160 -0.0081
-12 5 3 -1.4296 -0.0002
-12 5 4 1.8989 0.0078
-12 5 5 -2.3091 -0.0092
-12 5 6 1.8032 0.0038
-12 5 7 -1.0544 0.0019
-12 5 8 0.4446 -0.0025
-12 5 9 0.0160 0.0010
-12 5 10 -0.0125 -0.0012
-12 5 11 -0.7076 0.0005
-12 5 12 1.6530 0.0044
-12 5 13 -1.7918 -0.0086
-12 6 1 -2.9843 -0.0066
-12 6 2 -0.5713 0.0093
-12 6 3 1.6862 -0.0087
-12 6 4 -0.8788 0.0073
-12 6 5 -0.0524 -0.0038
-12 6 6 0.1964 -0.0018
-12 6 7 0.3607 0.0051
-12 6 8 -1.7746 -0.0039
-12 6 9 3.6159 0.0019
-12 6 10 -4.3147 -0.0018
-12 6 11 3.0558 0.0013
-12 7 1 5.3608 -0.0175
-12 7 2 -4.7085 0.0116
-12 7 3 1.5381 -0.0052
-12 7 4 1.2119 0.0015
-12 7 5 -1.8551 0.0019
-12 7 6 0.8338 -0.0052
-12 7 7 0.7721 0.0046
-12 7 8 -2.3108 0.0011
-12 7 9 2.9885 -0.0065
-12 7 10 -2.0163 0.0067
-12 8 1 3.6747 -0.0088
-12 8 2 0.1839 0.0017
-12 8 3 -2.7548 0.0029
-12 8 4 2.7291 -0.0038
-12 8 5 -1.3052 0.0032
-12 8 7 -0.1921 -0.0029
-12 9 1 -1.3399 -0.0004
-12 9 2 2.0978 -0.0038
-11 -18 1 1.3105 -0.0045
-11 -18 2 -2.3081 0.0063
-11 -18 3 2.8916 -0.0036
-11 -18 4 -2.2405 -0.0016
-11 -18 5 0.3489 0.0039
-11 -18 6 1.0646 -0.0010
-11 -17 1 2.3351 -0.0075
-11 -17 2 -4.1390 0.0034
-11 -17 3 4.2510 0.0009
-11 -17 4 -2.1082 -0.0027
-11 -17 5 -0.6873 0.0010
-11 -17 6 1.8574 0.0015
-11 -17 7 -1.0846 -0.0016
-11 -17 8 0.2235 -0.0007
-11 -17 9 -0.3835 0.0024
-11 -16 1 2.0425 0.0031
-11 -16 2 -3.7810 -0.0051
-11 -16 3 2.1790 0.0053
-11 -16 4 1.3816 -0.0042
-11 -16 5 -3.5036 0.0029
-11 -16 6 2.2056 -0.0021
-11 -16 7 1.2509 0.0020
-11 -16 8 -3.8484 -0.0020
-11 -16 9 3.9870 0.0020
-11 -16 10 -2.5547 -0.0020
-11 -16 11 1.0450 0.0018
-11 -15 1 5.2474 -0.0032
-11 -15 2 -3.7406 0.0015
-11 -15 3 -0.9386 -0.0013
-11 -15 4 4.4431 0.0022
-11 -15 5 -3.2250 -0.0031
-11 -15 6 -2.0287 0.0036
-11 -15 7 6.7956 -0.0031
-11 -15 8 -7.2779 0.0014
-11 -15 9 3.8555 0.0012
-11 -15 10 -0.0736 -0.0023
-11 -15 11 -1.3277 0.0008
-11 -15 12 0.5426 0.0012
-11 -14 1 3.1988 0.0063
-11 -14 2 3.7014 -0.0046
-11 -14 3 -9.5124 -0.0001
-11 -14 4 9.6838 0.0033
-11 -14 5 -4.7091 -0.0031
-11 -14 6 -0.3744 0.0013
-11 -14 7 0.5941 0.0002
-11 -14 8 3.9176 -0.0014
-11 -14 9 -8.4184 0.0017
-11 -14 10 8.8715 -0.0001
-11 -14 11 -5.3362 -0.0020
-11 -14 12 0.8790 0.0013
-11 -14 13 1.8095 0.0023
-11 -14 14 -2.1587 -0.0048
-11 -13 1 -1.0880 -0.0001
-11 -13 2 7.6543 0.0061
-11 -13 3 -8.4811 -0.0078
-11 -13 4 3.4124 0.0036
-11 -13 5 2.1329 0.0021
-11 -13 6 -2.8586 -0.0040
-11 -13 7 -1.2633 0.0023
-11 -13 8 5.7063 -0.0004
-11 -13 9 -6.0970 -0.0008
-11 -13 10 2.3852 0.0019
-11 -13 11 2.1318 -0.0021
-11 -13 12 -4.3300 0.0007
-11 -13 13 3.1763 0.0005
-11 -13 14 -0.0169 0.0007
-11 -13 15 -2.6720 -0.0029
-11 -12 1 -2.8151 -0.0150
-11 -12 2 0.8071 0.0101
-11 -12 3 5.7465 -0.0026
-11 -12 4 -12.3430 -0.0039
-11 -12 5 13.9138 0.0054
-11 -12 6 -9.9945 -0.0018
-11 -12 7 5.1535 -0.0020
-11 -12 8 -3.3868 0.0028
-11 -12 9 4.9424 -0.0018
-11 -12 10 -7.1967 0.0011
-11 -12 11 7.2820 -0.0006
-11 -12 12 -4.4735 -0.0004
-11 -12 13 0.2062 0.0008
-11 -12 14 2.9129 -0.0000
-11 -12 15 -2.9380 -0.0004
-11 -12 16 0.5704 -0.0004
-11 -11 1 -3.3581 0.0060
-11 -11 2 -2.1837 -0.0090
-11 -11 3 6.2990 0.0083
-11 -11 4 -6.2765 -0.0057
-11 -11 5 2.6197 0.0016
-11 -11 6 1.5520 0.0027
-11 -11 7 -2.8256 -0.0044
-11 -11 8 1.0475 0.0030
-11 -11 9 1.3104 -0.0010
-11 -11 10 -2.3907 0.0006
-11 -11 11 1.7990 -0.0011
-11 -11 12 -0.6287 0.0014
-11 -11 13 0.4620 -0.0020
-11 -11 14 -1.7154 0.0028
-11 -11 15 3.3981 -0.0021
-11 -11 16 -3.8870 -0.0005
-11 -11 17 2.6112 0.0030
-11 -10 1 -4.0221 0.0091
-11 -10 2 4.2797 -0.0040
-11 -10 3 -6.3031 -0.0001
-11 -10 4 8.5607 0.0018
-11 -10 5 -9.2033 -0.0035
-11 -10 6 8.0918 0.0053
-11 -10 7 -6.0020 -0.0043
-11 -10 8 3.9077 0.0007
-11 -10 9 -2.6198 0.0016
-11 -10 10 1.5850 -0.0009
-11 -10 11 -0.0044 -0.0010
-11 -10 12 -1.9021 0.0019
-11 -10 13 3.1841 -0.0019
-11 -10 14 -2.7246 0.0010
-11 -10 15 0.8198 0.0009
-11 -10 16 0.7487 -0.0022
-11 -10 17 -0.8421 0.0010
-11 -9 1 0.8543 0.0021
-11 -9 2 1.8897 0.0031
-11 -9 3 -1.7136 -0.0057
-11 -9 4 -0.8783 0.0070
-11 -9 5 3.2812 -0.0078
-11 -9 6 -3.1724 0.0064
-11 -9 7 0.9641 -0.0022
-11 -9 8 0.7082 -0.0013
-11 -9 9 -0.4003 0.0008
-11 -9 10 -1.5294 0.0021
-11 -9 11 3.5614 -0.0035
-11 -9 12 -3.5218 0.0023
-11 -9 13 0.8432 -0.0003
-11 -9 14 2.4515 -0.0007
-11 -9 15 -3.3263 0.0001
-11 -9 16 0.7290 0.0016
-11 -9 17 2.6710 -0.0029
-11 -9 18 -3.5806 0.0014
-11 -8 1 -2.5636 -0.0023
-11 -8 2 0.1538 0.0062
-11 -8 3 5.2763 -0.0082
-11 -8 4 -8.4991 0.0066
-11 -8 5 6.1898 -0.0021
-11 -8 6 -0.2141 -0.0022
-11 -8 7 -4.5745 0.0037
-11 -8 8 4.7534 -0.0017
-11 -8 9 -1.6677 -0.0019
-11 -8 10 -0.5892 0.0038
-11 -8 11 -0.4411 -0.0024
-11 -8 12 4.3768 -0.0003
-11 -8 13 -8.1987 0.0016
-11 -8 14 8.2618 -0.0005
-11 -8 15 -4.0683 -0.0011
-11 -8 16 -0.9629 0.0007
-11 -8 17 2.7570 0.0023
-11 -8 18 -0.9156 -0.0052
-11 -7 1 -2.4898 -0.0044
-11 -7 2 -4.8161 0.0051
-11 -7 3 8.7102 -0.0013
-11 -7 4 -5.5844 -0.0056
-11 -7 5 -2.0427 0.0096
-11 -7 6 7.4914 -0.0077
-11 -7 7 -6.4928 0.0023
-11 -7 8 0.7074 0.0021
-11 -7 9 4.2414 -0.0036
-11 -7 10 -4.0165 0.0020
-11 -7 11 -0.3446 0.0014
-11 -7 12 4.3716 -0.0036
-11 -7 13 -4.5684 0.0027
-11 -7 14 0.8428 0.0001
-11 -7 15 3.2025 -0.0018
-11 -7 16 -3.6403 0.0020
-11 -7 17 0.3414 -0.0034
-11 -7 18 3.2180 0.0071
-11 -7 19 -3.8951 -0.0097
-11 -6 1 7.1300 -0.0006
-11 -6 2 -10.2421 -0.0045
-11 -6 3 6.3458 0.0097
-11 -6 4 1.4425 -0.0113
-11 -6 5 -6.5260 0.0072
-11 -6 6 4.3967 -0.0006
-11 -6 7 3.1094 -0.0037
-11 -6 8 -9.5869 0.0039
-11 -6 9 10.1236 -0.0016
-11 -6 10 -5.2555 -0.0015
-11 -6 11 0.2248 0.0035
-11 -6 12 0.2350 -0.0025
-11 -6 13 3.4684 -0.0001
-11 -6 14 -7.1023 0.0011
-11 -6 15 6.9465 0.0001
-11 -6 16 -3.0253 0.0001
-11 -6 17 -1.0505 -0.0027
-11 -6 18 2.1754 0.0036
-11 -6 19 -0.7115 0.0009
-11 -5 1 2.3700 0.0172
-11 -5 2 2.0702 -0.0148
-11 -5 3 -9.2979 0.0085
-11 -5 4 13.3354 -0.0008
-11 -5 5 -10.6799 -0.0052
-11 -5 6 3.2932 0.0070
-11 -5 7 2.9845 -0.0046
-11 -5 8 -3.4193 0.0003
-11 -5 9 -1.2960 0.0032
-11 -5 10 6.0598 -0.0042
-11 -5 11 -6.1593 0.0017
-11 -5 12 1.3710 0.0018
-11 -5 13 3.7856 -0.0023
-11 -5 14 -4.9178 -0.0008
-11 -5 15 2.2655 0.0031
-11 -5 16 0.5132 -0.0020
-11 -5 17 -0.5315 0.0018
-11 -5 18 -1.5349 -0.0066
-11 -5 19 2.8717 0.0122
-11 -4 1 -1.9219 0.0111
-11 -4 2 6.6817 -0.0005
-11 -4 3 -9.1320 -0.0076
-11 -4 4 6.6083 0.0105
-11 -4 5 -1.0540 -0.0085
-11 -4 6 -2.7345 0.0036
-11 -4 7 1.4705 0.0013
-11 -4 8 3.8707 -0.0043
-11 -4 9 -8.8294 0.0045
-11 -4 10 9.4247 -0.0021
-11 -4 11 -5.7010 -0.0009
-11 -4 12 1.2390 0.0013
-11 -4 13 0.1690 0.0015
-11 -4 14 1.9162 -0.0032
-11 -4 15 -4.1176 0.0009
-11 -4 16 3.5231 0.0015
-11 -4 17 -0.9069 0.0016
-11 -4 18 -0.9820 -0.0074
-11 -4 19 0.8265 0.0075
-11 -3 1 8.2882 -0.0083
-11 -3 2 -6.6023 0.0146
-11 -3 3 7.3556 -0.0139
-11 -3 4 -9.4561 0.0081
-11 -3 5 9.8080 -0.0008
-11 -3 6 -6.6108 -0.0043
-11 -3 7 1.4219 0.0053
-11 -3 8 2.4663 -0.0033
-11 -3 9 -2.9289 0.0005
-11 -3 10 0.5324 0.0016
-11 -3 11 1.9481 -0.0015
-11 -3 12 -2.1441 -0.0009
-11 -3 13 0.2120 0.0030
-11 -3 14 1.7320 -0.0018
-11 -3 15 -1.6594 -0.0013
-11 -3 16 -0.0844 0.0010
-11 -3 17 1.1493 0.0027
-11 -3 18 -0.4848 -0.0027
-11 -3 19 -0.6850 -0.0039
-11 -2 1 -0.0740 -0.0174
-11 -2 2 0.7669 0.0126
-11 -2 3 -0.3759 -0.0034
-11 -2 4 0.3106 -0.0060
-11 -2 5 -1.1108 0.0114
-11 -2 6 1.7390 -0.0107
-11 -2 7 -0.6845 0.0059
-11 -2 8 -1.9825 -0.0012
-11 -2 9 4.4097 -0.0011
-11 -2 10 -4.9771 0.0010
-11 -2 11 3.4885 0.0008
-11 -2 12 -1.2123 -0.0030
-11 -2 13 0.0997 0.0028
-11 -2 14 -0.7536 -0.0000
-11 -2 15 1.8923 -0.0014
-11 -2 16 -1.9409 -0.0005
-11 -2 17 0.4908 0.0013
-11 -2 18 1.1361 0.0034
-11 -2 19 -1.5643 -0.0087
-11 -1 1 -9.0840 -0.0055
-11 -1 2 7.3857 -0.0042
-11 -1 3 -5.8833 0.0111
-11 -1 4 4.3549 -0.0125
-11 -1 5 -1.8206 0.0081
-11 -1 6 -1.6923 -0.0010
-11 -1 7 4.6255 -0.0038
-11 -1 8 -5.1804 0.0039
-11 -1 9 2.8938 -0.0010
-11 -1 10 0.3715 -0.0024
-11 -1 11 -1.9361 0.0044
-11 -1 12 0.8156 -0.0035
-11 -1 13 1.8683 -0.0002
-11 -1 14 -3.6919 0.0024
-11 -1 15 2.8649 0.0006
-11 -1 16 -0.3676 -0.0047
-11 -1 17 -1.3738 0.0032
-11 -1 18 1.2357 0.0020
-11 -1 19 -0.1384 -0.0022
-11 0 1 3.9777 0.0124
-11 0 2 -2.9686 -0.0164
-11 0 3 1.5755 0.0143
-11 0 4 -1.3397 -0.0067
-11 0 5 2.3760 -0.0022
-11 0 6 -2.7871 0.0067
-11 0 7 0.6182 -0.0049
-11 0 8 3.3207 -0.0000
-11 0 9 -6.1306 0.0033
-11 0 10 5.2670 -0.0034
-11 0 11 -0.6548 0.0010
-11 0 12 -4.5143 0.0030
-11 0 13 6.5214 -0.0051
-11 0 14 -4.4433 0.0015
-11 0 15 0.4801 0.0049
-11 0 16 1.8476 -0.0059
-11 0 17 -1.0527 0.0003
-11 0 18 -0.9311 0.0021
-11 0 19 1.6801 0.0043
-11 1 1 2.4687 0.0082
-11 1 2 2.6549 -0.0055
-11 1 3 -4.8769 -0.0018
-11 1 4 4.2288 0.0096
-11 1 5 -3.2225 -0.0122
-11 1 6 4.2683 0.0075
-11 1 7 -7.4386 -0.0003
-11 1 8 9.6596 -0.0031
-11 1 9 -8.0434 0.0013
-11 1 10 3.3508 0.0021
-11 1 11 0.9388 -0.0040
-11 1 12 -1.4045 0.0045
-11 1 13 -2.2345 -0.0030
-11 1 14 6.3335 -0.0004
-11 1 15 -7.1679 0.0017
-11 1 16 4.3783 0.0026
-11 1 17 -0.6221 -0.0069
-11 1 18 -1.1410 0.0032
-11 2 1 -6.9467 0.0039
-11 2 2 5.9858 0.0046
-11 2 3 -1.3259 -0.0114
-11 2 4 -3.6272 0.0123
-11 2 5 5.2960 -0.0066
-11 2 6 -3.5361 -0.0014
-11 2 7 1.0142 0.0049
-11 2 8 -0.7264 -0.0013
-11 2 9 3.0402 -0.0041
-11 2 10 -4.6302 0.0055
-11 2 11 2.5058 -0.0034
-11 2 12 2.5438 0.0021
-11 2 13 -6.8872 -0.0014
-11 2 14 7.1258 -0.0010
-11 2 15 -3.4911 0.0034
-11 2 16 -0.4711 -0.0030
-11 2 17 2.0009 0.0026
-11 2 18 -1.2304 -0.0062
-11 3 1 0.9889 -0.0152
-11 3 2 -6.5028 0.0150
-11 3 3 11.1050 -0.0090
-11 3 4 -11.8125 0.0010
-11 3 5 8.5045 0.0048
-11 3 6 -4.5323 -0.0061
-11 3 7 3.1417 0.0021
-11 3 8 -4.4550 0.0038
-11 3 9 6.2848 -0.0060
-11 3 10 -5.9122 0.0025
-11 3 11 3.0906 0.0012
-11 3 12 -0.7689 -0.0003
-11 3 13 1.3403 -0.0021
-11 3 14 -4.1712 0.0017
-11 3 15 6.5455 -0.0014
-11 3 16 -6.3512 0.0050
-11 3 17 4.1281 -0.0078
-11 4 1 -2.7775 -0.0132
-11 4 2 0.7881 0.0005
-11 4 3 -1.4660 0.0095
-11 4 4 4.4756 -0.0109
-11 4 5 -7.1921 0.0060
-11 4 6 7.3109 -0.0000
-11 4 7 -4.8466 -0.0044
-11 4 8 2.0680 0.0060
-11 4 9 -0.5195 -0.0030
-11 4 10 0.2210 -0.0028
-11 4 11 -0.3610 0.0048
-11 4 12 -0.3528 -0.0000
-11 4 13 1.9254 -0.0057
-11 4 14 -2.9294 0.0072
-11 4 15 2.4988 -0.0078
-11 4 16 -1.1823 0.0108
-11 5 1 -4.3530 0.0073
-11 5 2 3.3006 -0.0143
-11 5 3 -4.2214 0.0129
-11 5 4 5.4367 -0.0045
-11 5 5 -4.9930 -0.0031
-11 5 6 3.3243 0.0046
-11 5 7 -1.6195 -0.0024
-11 5 8 0.5245 -0.0001
-11 5 9 0.1858 0.0029
-11 5 10 -0.6269 -0.0048
-11 5 11 0.1557 0.0022
-11 5 12 1.1045 0.0032
-11 5 13 -2.3084 -0.0031
-11 5 14 2.9504 -0.0044
-11 5 15 -2.8062 0.0106
-11 6 1 5.3751 0.0102
-11 6 2 -5.7836 -0.0074
-11 6 3 3.9172 -0.0006
-11 6 4 -1.9478 0.0087
-11 6 5 1.2004 -0.0097
-11 6 6 -0.8422 0.0036
-11 6 7 0.6072 0.0021
-11 6 8 -1.0072 -0.0025
-11 6 9 1.5357 -0.0002
-11 6 10 -0.9910 0.0029
-11 6 11 -1.0663 -0.0049
-11 6 12 3.2568 0.0040
-11 6 13 -3.8624 0.0025
-11 6 14 2.7726 -0.0100
-11 7 1 5.2032 0.0058
-11 7 2 -2.6169 0.0018
-11 7 3 -0.3509 -0.0085
-11 7 4 1.8532 0.0100
-11 7 5 -1.8775 -0.0042
-11 7 6 1.5826 -0.0033
-11 7 7 -1.1835 0.0045
-11 7 8 0.3864 0.0011
-11 7 9 -0.0359 -0.0062
-11 7 10 0.8718 0.0055
-11 7 11 -2.2050 -0.0020
-11 7 12 2.6115 0.0000
-11 7 13 -1.6290 -0.0006
-11 8 1 0.3170 -0.0126
-11 8 2 2.2310 0.0140
-11 8 3 -2.6471 -0.0096
-11 8 4 1.3177 0.0017
-11 8 5 0.2868 0.0055
-11 8 6 -1.3622 -0.0071
-11 8 7 2.1145 0.0022
-11 8 8 -2.7508 0.0030
-11 8 9 2.6938 -0.0013
-11 8 10 -1.6898 -0.0058
-11 8 11 0.4595 0.0099
-11 9 1 -2.7776 -0.0139
-11 9 2 2.3190 0.0041
-11 9 3 -0.1841 0.0062
-11 9 4 -1.9881 -0.0112
-11 9 5 3.1708 0.0092
-11 9 6 -3.4991 -0.0031
-11 9 7 3.3820 -0.0015
-11 9 8 -2.8717 0.0011
-11 10 1 -3.3514 0.0011
-11 10 2 1.7695 -0.0062
-11 10 3 -0.1827 0.0079
-11 10 4 -0.4140 -0.0037
-10 -19 1 0.3341 0.0020
-10 -19 2 -1.0011 -0.0008
-10 -19 3 1.5800 0.0012
-10 -18 1 -0.2825 -0.0036
-10 -18 2 -1.3044 0.0033
-10 -18 3 2.3964 -0.0029
-10 -18 4 -1.8600 0.0026
-10 -18 5 0.0380 -0.0031
-10 -18 6 1.2696 0.0035
-10 -18 7 -0.9908 -0.0021
-10 -17 1 -1.1987 0.0027
-10 -17 2 -0.3033 -0.0010
-10 -17 3 -0.4847 -0.0012
-10 -17 4 3.3938 0.0019
-10 -17 5 -5.9800 -0.0011
-10 -17 6 5.8632 -0.0001
-10 -17 7 -3.3258 0.0011
-10 -17 8 0.6355 -0.0018
-10 -17 9 0.5901 0.0019
-10 -17 10 -0.6229 -0.0013
-10 -16 1 5.1095 -0.0067
-10 -16 2 -3.9432 0.0068
-10 -16 3 -0.7695 -0.0043
-10 -16 4 5.5612 0.0006
-10 -16 5 -6.8265 0.0017
-10 -16 6 3.7998 -0.0009
-10 -16 7 0.8596 -0.0015
-10 -16 8 -3.4833 0.0028
-10 -16 9 2.8071 -0.0026
-10 -16 10 -0.5362 0.0025
-10 -16 11 -0.9559 -0.0036
-10 -16 12 0.9289 0.0045
-10 -15 1 7.6029 -0.0022
-10 -15 2 -2.4338 -0.0026
-10 -15 3 -3.2585 0.0054
-10 -15 4 5.2950 -0.0055
-10 -15 5 -2.4106 0.0032
-10 -15 6 -2.3968 0.0003
-10 -15 7 4.5602 -0.0023
-10 -15 8 -1.8968 0.0016
-10 -15 9 -3.3561 0.0002
-10 -15 10 6.7967 -0.0003
-10 -15 11 -6.3777 -0.0007
-10 -15 12 3.6808 -0.0001
-10 -15 13 -1.3599 0.0036
-10 -14 1 1.1052 0.0137
-10 -14 2 3.8500 -0.0109
-10 -14 3 -5.2496 0.0052
-10 -14 4 1.9423 -0.0008
-10 -14 5 3.5420 -0.0013
-10 -14 6 -6.5159 0.0021
-10 -14 7 4.5997 -0.0016
-10 -14 8 -0.0491 -0.0004
-10 -14 9 -2.8569 0.0021
-10 -14 10 1.7503 -0.0016
-10 -14 11 1.8224 0.0006
-10 -14 12 -4.4824 -0.0014
-10 -14 13 4.6352 0.0027
-10 -14 14 -3.1378 -0.0017
-10 -14 15 1.5629 -0.0009
-10 -13 1 -3.0182 0.0019
-10 -13 2 4.4300 0.0047
-10 -13 3 -0.8133 -0.0076
-10 -13 4 -4.9990 0.0056
-10 -13 5 8.8687 -0.0025
-10 -13 6 -8.7095 0.0009
-10 -13 7 5.9171 0.0006
-10 -13 8 -3.9250 -0.0028
-10 -13 9 4.3922 0.0036
-10 -13 10 -6.2766 -0.0019
-10 -13 11 7.5292 -0.0002
-10 -13 12 -6.6276 0.0006
-10 -13 13 3.9157 -0.0001
-10 -13 14 -1.1087 0.0001
-10 -13 15 -0.3827 0.0004
-10 -13 16 0.4105 -0.0020
-10 -12 1 -7.1581 -0.0028
-10 -12 2 4.8578 0.0070
-10 -12 3 -0.6285 -0.0055
-10 -12 4 -1.9233 0.0011
-10 -12 5 1.3454 0.0018
-10 -12 6 0.7247 -0.0024
-10 -12 7 -2.4506 0.0026
-10 -12 8 3.0208 -0.0028
-10 -12 9 -2.6282 0.0015
-10 -12 10 1.8822 0.0008
-10 -12 11 -1.0438 -0.0015
-10 -12 12 0.5301 -0.0002
-10 -12 13 -0.3587 0.0020
-10 -12 14 -0.2972 -0.0021
-10 -12 15 1.5821 0.0009
-10 -12 16 -2.5409 0.0003
-10 -12 17 2.2728 -0.0013
-10 -11 1 -5.2803 -0.0134
-10 -11 2 3.8091 0.0104
-10 -11 3 -3.6802 -0.0029
-10 -11 4 4.5894 -0.0044
-10 -11 5 -5.6291 0.0070
-10 -11 6 6.2241 -0.0050
-10 -11 7 -7.1620 0.0021
-10 -11 8 8.6839 -0.0002
-10 -11 9 -9.2383 -0.0008
-10 -11 10 7.8018 0.0009
-10 -11 11 -4.9653 0.0006
-10 -11 12 2.2586 -0.0023
-10 -11 13 -0.9607 0.0016
-10 -11 14 1.0139 0.0011
-10 -11 15 -1.8478 -0.0025
-10 -11 16 2.8067 0.0008
-10 -11 17 -2.9653 0.0020
-10 -11 18 2.0374 -0.0030
-10 -10 1 9.0371 -0.0045
-10 -10 2 -6.6029 -0.0028
-10 -10 3 5.3493 0.0100
-10 -10 4 -6.1707 -0.0119
-10 -10 5 6.9353 0.0073
-10 -10 6 -5.2953 -0.0007
-10 -10 7 1.4927 -0.0023
-10 -10 8 1.6174 0.0013
-10 -10 9 -1.0353 0.0007
-10 -10 10 -2.7237 -0.0020
-10 -10 11 6.1517 0.0027
-10 -10 12 -6.4056 -0.0023
-10 -10 13 2.9462 0.0006
-10 -10 14 2.0001 0.0001
-10 -10 15 -4.9064 0.0017
-10 -10 16 4.1079 -0.0037
-10 -10 17 -0.9926 0.0023
-10 -10 18 -1.3816 0.0019
-10 -9 1 -1.0522 0.0045
-10 -9 2 1.6300 -0.0079
-10 -9 3 2.6538 0.0069
-10 -9 4 -7.4271 -0.0013
-10 -9 5 7.8702 -0.0051
-10 -9 6 -3.7510 0.0074
-10 -9 7 -0.2442 -0.0047
-10 -9 8 -0.2025 0.0006
-10 -9 9 4.9769 0.0014
-10 -9 10 -9.7980 -0.0010
-10 -9 11 9.9830 -0.0001
-10 -9 12 -4.8766 0.0010
-10 -9 13 -2.0194 -0.0012
-10 -9 14 5.8826 0.0003
-10 -9 15 -4.0605 0.0007
-10 -9 16 -0.9380 -0.0001
-10 -9 17 3.9175 -0.0015
-10 -9 18 -2.7071 0.0011
-10 -9 19 -0.1531 0.0022
-10 -8 1 -17.8133 0.0113
-10 -8 2 8.4166 -0.0050
-10 -8 3 0.9555 -0.0033
-10 -8 4 -3.4770 0.0088
-10 -8 5 -1.4209 -0.0096
-10 -8 6 7.7811 0.0066
-10 -8 7 -8.8502 -0.0022
-10 -8 8 3.5669 -0.0005
-10 -8 9 3.0353 0.0002
-10 -8 10 -5.2780 0.0020
-10 -8 11 1.5518 -0.0033
-10 -8 12 4.4459 0.0027
-10 -8 13 -6.9417 -0.0015
-10 -8 14 3.4560 0.0011
-10 -8 15 3.2496 -0.0014
-10 -8 16 -7.4293 0.0009
-10 -8 17 5.8063 0.0007
-10 -8 18 -1.1308 -0.0022
-10 -8 19 -1.7368 0.0016
-10 -7 1 4.2915 -0.0022
-10 -7 2 -12.5174 0.0119
-10 -7 3 11.4752 -0.0144
-10 -7 4 -1.6446 0.0099
-10 -7 5 -9.3352 -0.0035
-10 -7 6 13.1262 -0.0010
-10 -7 7 -7.8748 0.0028
-10 -7 8 -0.7379 -0.0016
-10 -7 9 5.0661 -0.0020
-10 -7 10 -2.4909 0.0046
-10 -7 11 -3.1162 -0.0035
-10 -7 12 5.5998 0.0005
-10 -7 13 -1.7907 0.0008
-10 -7 14 -5.4599 -0.0001
-10 -7 15 10.0882 0.0002
-10 -7 16 -8.7551 -0.0011
-10 -7 17 3.4684 0.0003
-10 -7 18 0.6879 0.0027
-10 -7 19 -1.0813 -0.0047
-10 -7 20 -0.3812 0.0029
-10 -6 1 16.1350 -0.0136
-10 -6 2 -10.8650 0.0127
-10 -6 3 -1.4398 -0.0050
-10 -6 4 12.3261 -0.0031
-10 -6 5 -14.3949 0.0060
-10 -6 6 7.0490 -0.0041
-10 -6 7 3.0289 0.0002
-10 -6 8 -7.6564 0.0037
-10 -6 9 4.0273 -0.0056
-10 -6 10 3.4560 0.0036
-10 -6 11 -7.6360 0.0003
-10 -6 12 5.2414 -0.0019
-10 -6 13 0.8812 0.0002
-10 -6 14 -4.8238 0.0012
-10 -6 15 3.0911 -0.0008
-10 -6 16 1.9852 0.0008
-10 -6 17 -5.3637 -0.0017
-10 -6 18 4.5266 0.0001
-10 -6 19 -1.2169 0.0057
-10 -6 20 -1.0448 -0.0109
-10 -5 1 -0.0435 -0.0068
-10 -5 2 7.1926 -0.0010
-10 -5 3 -11.8980 0.0084
-10 -5 4 8.7358 -0.0101
-10 -5 5 0.7914 0.0054
-10 -5 6 -9.8316 0.0013
-10 -5 7 12.0004 -0.0055
-10 -5 8 -6.1963 0.0058
-10 -5 9 -2.6799 -0.0030
-10 -5 10 8.0775 -0.0007
-10 -5 11 -7.1529 0.0021
-10 -5 12 2.8209 -0.0008
-10 -5 13 -0.5065 -0.0007
-10 -5 14 2.6643 0.0009
-10 -5 15 -6.9689 -0.0012
-10 -5 16 8.8911 0.0021
-10 -5 17 -6.5400 -0.0002
-10 -5 18 2.4463 -0.0053
-10 -5 19 0.0480 0.0091
-10 -5 20 -0.0326 -0.0055
-10 -4 1 2.9125 0.0097
-10 -4 2 -2.3049 -0.0126
-10 -4 3 5.6092 0.0113
-10 -4 4 -11.5534 -0.0046
-10 -4 5 15.2545 -0.0035
-10 -4 6 -12.9593 0.0075
-10 -4 7 6.0011 -0.0063
-10 -4 8 0.8994 0.0025
-10 -4 9 -3.6039 0.0005
-10 -4 10 1.4653 -0.0014
-10 -4 11 2.6359 0.0006
-10 -4 12 -4.9470 -0.0000
-10 -4 13 3.9558 0.0004
-10 -4 14 -1.7576 -0.0006
-10 -4 15 1.2926 -0.0001
-10 -4 16 -2.8916 -0.0004
-10 -4 17 4.2887 0.0030
-10 -4 18 -3.2598 -0.0035
-10 -4 19 0.4700 -0.0021
-10 -4 20 1.6740 0.0099
-10 -3 1 -1.4893 0.0110
-10 -3 2 1.8041 -0.0044
-10 -3 3 -0.8324 -0.0042
-10 -3 4 0.9849 0.0113
-10 -3 5 -3.3917 -0.0121
-10 -3 6 6.4926 0.0064
-10 -3 7 -7.0230 0.0006
-10 -3 8 3.7201 -0.0041
-10 -3 9 1.3573 0.0033
-10 -3 10 -5.2738 -0.0005
-10 -3 11 6.6604 -0.0019
-10 -3 12 -6.2910 0.0023
-10 -3 13 5.7631 -0.0012
-10 -3 14 -6.0987 -0.0002
-10 -3 15 6.6056 0.0020
-10 -3 16 -5.3457 -0.0043
-10 -3 17 2.0932 0.0049
-10 -3 18 1.0716 -0.0011
-10 -3 19 -2.0657 -0.0043
-10 -3 20 1.0542 0.0045
-10 -3 21 -0.0964 0.0017
-10 -2 1 -9.9872 -0.0012
-10 -2 2 9.3223 0.0084
-10 -2 3 -9.3027 -0.0125
-10 -2 4 10.0590 0.0102
-10 -2 5 -9.6501 -0.0024
-10 -2 6 6.6909 -0.0052
-10 -2 7 -2.2838 0.0075
-10 -2 8 -0.5842 -0.0045
-10 -2 9 -0.1494 0.0001
-10 -2 10 3.2339 0.0024
-10 -2 11 -5.4645 -0.0019
-10 -2 12 4.8468 -0.0003
-10 -2 13 -2.4038 0.0019
-10 -2 14 0.8287 -0.0020
-10 -2 15 -1.6139 0.0018
-10 -2 16 3.8849 -0.0013
-10 -2 17 -4.7817 -0.0012
-10 -2 18 2.5227 0.0045
-10 -2 19 1.0292 -0.0041
-10 -2 20 -2.7240 -0.0011
-10 -1 1 7.2018 -0.0094
-10 -1 2 -5.9933 0.0083
-10 -1 3 3.6353 -0.0020
-10 -1 4 -2.6170 -0.0067
-10 -1 5 4.1457 0.0128
-10 -1 6 -6.0842 -0.0125
-10 -1 7 4.8544 0.0070
-10 -1 8 0.3722 -0.0009
-10 -1 9 -6.3940 -0.0016
-10 -1 10 8.8166 0.0001
-10 -1 11 -6.2235 0.0026
-10 -1 12 1.2946 -0.0030
-10 -1 13 1.6086 0.0006
-10 -1 14 -0.2076 0.0012
-10 -1 15 -3.3674 -0.0004
-10 -1 16 5.1237 -0.0004
-10 -1 17 -3.2246 -0.0004
-10 -1 18 -0.4903 -0.0006
-10 -1 19 2.2677 0.0062
-10 -1 20 -0.9971 -0.0110
-10 0 1 7.3740 -0.0168
-10 0 2 -3.2537 0.0027
-10 0 3 1.6337 0.0090
-10 0 4 -3.4610 -0.0139
-10 0 5 5.9767 0.0119
-10 0 6 -5.3357 -0.0060
-10 0 7 0.8152 0.0005
-10 0 8 3.9187 0.0013
-10 0 9 -4.3909 0.0010
-10 0 10 -0.1271 -0.0045
-10 0 11 5.6953 0.0049
-10 0 12 -7.5240 -0.0013
-10 0 13 4.1897 -0.0019
-10 0 14 1.6537 0.0008
-10 0 15 -5.2375 0.0021
-10 0 16 4.0876 -0.0014
-10 0 17 -0.5160 -0.0009
-10 0 18 -1.5868 -0.0017
-10 0 19 0.6431 0.0074
-10 0 20 1.4207 -0.0065
-10 1 1 -8.1035 0.0204
-10 1 2 8.3680 -0.0272
-10 1 3 -4.4727 0.0217
-10 1 4 -0.4492 -0.0103
-10 1 5 2.4927 0.0002
-10 1 6 -0.7276 0.0046
-10 1 7 -1.7190 -0.0039
-10 1 8 0.9883 -0.0002
-10 1 9 3.2621 0.0047
-10 1 10 -7.4847 -0.0063
-10 1 11 7.4899 0.0034
-10 1 12 -2.6268 0.0015
-10 1 13 -3.2374 -0.0032
-10 1 14 5.6860 0.0007
-10 1 15 -3.3110 0.0003
-10 1 16 -1.5646 0.0035
-10 1 17 4.6338 -0.0064
-10 1 18 -3.9724 0.0032
-10 1 19 1.3251 -0.0002
-10 1 20 0.6828 0.0051
-10 2 1 -6.4589 0.0277
-10 2 2 3.1367 -0.0138
-10 2 3 1.4765 -0.0016
-10 2 4 -3.6082 0.0104
-10 2 5 2.4426 -0.0107
-10 2 6 -0.2511 0.0052
-10 2 7 0.1518 0.0013
-10 2 8 -2.9454 -0.0052
-10 2 9 5.9215 0.0053
-10 2 10 -6.0048 -0.0025
-10 2 11 2.9816 -0.0019
-10 2 12 0.2927 0.0046
-10 2 13 -0.1788 -0.0024
-10 2 14 -3.7457 -0.0027
-10 2 15 8.1711 0.0037
-10 2 16 -9.8545 0.0008
-10 2 17 7.9127 -0.0030
-10 2 18 -4.0613 -0.0013
-10 2 19 0.9127 0.0047
-10 3 1 -5.5492 -0.0134
-10 3 2 1.4180 0.0214
-10 3 3 0.6605 -0.0213
-10 3 4 0.7072 0.0150
-10 3 5 -3.3563 -0.0061
-10 3 6 4.6233 -0.0017
-10 3 7 -3.8745 0.0049
-10 3 8 2.3424 -0.0026
-10 3 9 -2.1160 -0.0016
-10 3 10 3.6196 0.0038
-10 3 11 -4.7811 -0.0033
-10 3 12 3.7225 0.0007
-10 3 13 -0.5898 0.0037
-10 3 14 -2.3413 -0.0064
-10 3 15 2.5591 0.0027
-10 3 16 -0.3539 0.0042
-10 3 17 -2.0325 -0.0047
-10 3 18 3.1345 -0.0022
-10 3 19 -2.8176 0.0055
-10 4 1 3.3306 -0.0153
-10 4 2 -5.8586 0.0125
-10 4 3 4.2993 -0.0059
-10 4 4 -0.5120 -0.0006
-10 4 5 -2.3726 0.0055
-10 4 6 3.2138 -0.0070
-10 4 7 -3.4235 0.0032
-10 4 8 4.0054 0.0033
-10 4 9 -4.8913 -0.0062
-10 4 10 5.5753 0.0033
-10 4 11 -5.2446 0.0004
-10 4 12 4.2363 -0.0012
-10 4 13 -3.7688 0.0009
-10 4 14 4.2607 -0.0011
-10 4 15 -5.1453 0.0005
-10 4 16 5.2147 -0.0011
-10 4 17 -3.9755 0.0067
-10 4 18 2.3644 -0.0135
-10 5 1 11.0439 -0.0142
-10 5 2 -8.5473 0.0041
-10 5 3 4.2684 0.0046
-10 5 4 -1.2718 -0.0080
-10 5 5 0.6550 0.0065
-10 5 6 -1.3793 -0.0018
-10 5 7 1.9122 -0.0040
-10 5 8 -2.4467 0.0066
-10 5 9 3.6472 -0.0030
-10 5 10 -4.5715 -0.0027
-10 5 11 4.3784 0.0033
-10 5 12 -3.2717 0.0005
-10 5 13 1.9533 -0.0010
-10 5 14 -1.4258 -0.0034
-10 5 15 1.8740 0.0065
-10 5 16 -2.4606 -0.0058
-10 5 17 2.2918 0.0058
-10 6 1 -4.8027 0.0055
-10 6 2 6.2154 -0.0162
-10 6 3 -6.2227 0.0176
-10 6 4 3.9200 -0.0103
-10 6 5 -0.9793 0.0012
-10 6 6 -1.1566 0.0040
-10 6 7 2.5747 -0.0048
-10 6 8 -3.8808 0.0027
-10 6 9 4.8798 0.0005
-10 6 10 -4.2958 -0.0016
-10 6 11 2.2878 -0.0009
-10 6 12 -0.7691 0.0032
-10 6 13 0.7726 -0.0016
-10 6 14 -1.8138 0.0001
-10 6 15 2.6225 -0.0052
-10 6 16 -2.3226 0.0129
-10 7 1 -4.2399 0.0159
-10 7 2 3.0582 -0.0123
-10 7 3 -1.8884 0.0016
-10 7 4 0.8988 0.0083
-10 7 5 -0.9277 -0.0102
-10 7 6 1.4963 0.0057
-10 7 7 -1.3709 -0.0018
-10 7 8 0.8263 0.0016
-10 7 9 -0.9194 -0.0020
-10 7 10 2.0776 0.0008
-10 7 11 -3.3722 0.0003
-10 7 12 3.4130 -0.0001
-10 7 13 -2.2986 -0.0008
-10 7 14 1.0893 0.0028
-10 7 15 -0.4948 -0.0056
-10 8 1 6.6616 0.0021
-10 8 2 -4.2881 0.0089
-10 8 3 1.6563 -0.0145
-10 8 4 0.4107 0.0120
-10 8 5 -1.3087 -0.0047
-10 8 6 0.8046 -0.0005
-10 8 7 0.6582 -0.0001
-10 8 8 -1.5651 0.0031
-10 8 9 1.0475 -0.0029
-10 8 10 0.2633 0.0007
-10 8 11 -1.3185 -0.0022
-10 8 12 1.4634 0.0075
-10 8 13 -0.9422 -0.0102
-10 9 1 -2.5612 -0.0162
-10 9 2 4.7903 0.0161
-10 9 3 -4.9526 -0.0087
-10 9 4 3.3089 0.0008
-10 9 5 -0.6544 0.0022
-10 9 6 -1.5121 -0.0005
-10 9 7 2.0968 -0.0022
-10 9 8 -1.1152 0.0029
-10 9 9 -0.4184 -0.0016
-10 9 10 1.3652 0.0020
-10 9 11 -1.4348 -0.0065
-10 9 12 0.9070 0.0110
-10 10 1 -4.8038 -0.0113
-10 10 2 1.9530 0.0048
-10 10 3 1.3513 0.0034
-10 10 4 -3.7624 -0.0052
-10 10 5 4.4290 0.0021
-10 10 6 -3.0598 -0.0009
-10 10 7 0.5751 0.0034
-10 10 8 1.2727 -0.0064
-10 10 9 -1.5593 0.0076
-10 11 1 1.8270 -0.0056
-10 11 2 -4.0136 -0.0036
-10 11 3 4.8752 0.0091
-10 11 4 -4.3650 -0.0063
-10 11 5 2.7783 0.0023
-10 11 6 -0.7908 -0.0039
-9 -19 1 -1.9073 0.0029
-9 -19 2 0.9880 -0.0046
-9 -19 3 0.4349 0.0049
-9 -19 4 -1.0739 -0.0043
-9 -19 5 0.0763 0.0019
-9 -18 1 -0.2372 0.0068
-9 -18 2 -1.6160 -0.0052
-9 -18 3 2.0893 0.0024
-9 -18 4 -0.0393 0.0003
-9 -18 5 -3.0212 -0.0032
-9 -18 6 4.2697 0.0055
-9 -18 7 -2.8988 -0.0049
-9 -18 8 0.8843 0.0014
-9 -17 1 6.6778 0.0042
-9 -17 2 -7.7295 -0.0013
-9 -17 3 4.6873 -0.0007
-9 -17 4 0.4723 0.0014
-9 -17 5 -3.7397 -0.0016
-9 -17 6 2.8844 0.0016
-9 -17 7 0.4165 -0.0006
-9 -17 8 -2.7278 -0.0008
-9 -17 9 2.4676 0.0002
-9 -17 10 -0.8660 0.0029
-9 -17 11 -0.2265 -0.0056
-9 -16 1 7.2782 -0.0018
-9 -16 2 -3.8592 0.0050
-9 -16 3 -1.6207 -0.0058
-9 -16 4 4.6861 0.0046
-9 -16 5 -2.8760 -0.0027
-9 -16 6 -2.3419 0.0010
-9 -16 7 6.4427 0.0004
-9 -16 8 -6.1392 -0.0010
-9 -16 9 2.4078 0.0001
-9 -16 10 1.0514 0.0018
-9 -16 11 -1.7861 -0.0024
-9 -16 12 0.6576 0.0007
-9 -16 13 0.1635 0.0013
-9 -15 1 -3.7827 -0.0044
-9 -15 2 8.0395 0.0043
-9 -15 3 -9.5008 -0.0027
-9 -15 4 6.0389 0.0002
-9 -15 5 0.3425 0.0017
-9 -15 6 -5.5171 -0.0016
-9 -15 7 6.0862 0.0002
-9 -15 8 -2.4969 0.0007
-9 -15 9 -1.0346 -0.0010
-9 -15 10 1.2249 0.0012
-9 -15 11 1.0587 -0.0006
-9 -15 12 -2.6071 -0.0012
-9 -15 13 2.0098 0.0028
-9 -15 14 -0.9179 -0.0028
-9 -14 1 -2.0009 -0.0018
-9 -14 2 4.9704 -0.0016
-9 -14 3 -4.1318 0.0047
-9 -14 4 0.4425 -0.0065
-9 -14 5 2.6821 0.0049
-9 -14 6 -2.8146 -0.0007
-9 -14 7 0.4242 -0.0024
-9 -14 8 2.0361 0.0022
-9 -14 9 -2.1723 -0.0007
-9 -14 10 0.3226 -0.0000
-9 -14 11 1.0124 0.0004
-9 -14 12 -0.7361 -0.0010
-9 -14 13 0.1348 0.0009
-9 -14 14 -0.6727 0.0007
-9 -14 15 1.6856 -0.0024
-9 -14 16 -1.4210 0.0024
-9 -13 1 0.2337 0.0105
-9 -13 2 1.1407 -0.0079
-9 -13 3 -0.1267 0.0055
-9 -13 4 -1.1232 -0.0026
-9 -13 5 0.8338 -0.0015
-9 -13 6 0.9558 0.0042
-9 -13 7 -2.8098 -0.0029
-9 -13 8 4.0964 -0.0007
-9 -13 9 -4.8226 0.0028
-9 -13 10 4.8562 -0.0024
-9 -13 11 -4.2628 0.0017
-9 -13 12 2.9290 -0.0019
-9 -13 13 -1.0482 0.0020
-9 -13 14 -0.3135 -0.0017
-9 -13 15 0.2296 0.0019
-9 -13 16 1.0484 -0.0028
-9 -13 17 -1.9036 0.0028
-9 -12 1 -4.2106 -0.0032
-9 -12 2 2.5117 0.0072
-9 -12 3 -1.0957 -0.0080
-9 -12 4 0.4906 0.0076
-9 -12 5 -0.1346 -0.0066
-9 -12 6 0.0932 0.0038
-9 -12 7 -1.0517 0.0002
-9 -12 8 3.2060 -0.0026
-9 -12 9 -5.1339 0.0019
-9 -12 10 4.7249 0.0001
-9 -12 11 -2.2995 -0.0008
-9 -12 12 0.2105 -0.0001
-9 -12 13 0.0388 0.0010
-9 -12 14 1.5194 -0.0013
-9 -12 15 -3.6023 0.0016
-9 -12 16 4.6486 -0.0023
-9 -12 17 -3.8942 0.0022
-9 -12 18 1.8825 -0.0011
-9 -11 1 5.1471 -0.0057
-9 -11 2 -4.5885 0.0054
-9 -11 3 4.6193 -0.0032
-9 -11 4 -6.3161 0.0009
-9 -11 5 8.6218 0.0013
-9 -11 6 -8.6678 -0.0033
-9 -11 7 5.3236 0.0043
-9 -11 8 -1.3955 -0.0036
-9 -11 9 0.5750 0.0015
-9 -11 10 -3.5578 0.0001
-9 -11 11 7.2309 0.0000
-9 -11 12 -7.9930 -0.0008
-9 -11 13 5.5919 0.0003
-9 -11 14 -2.1207 0.0008
-9 -11 15 -0.2717 -0.0006
-9 -11 16 0.3090 -0.0010
-9 -11 17 1.3524 0.0011
-9 -11 18 -2.7131 0.0014
-9 -11 19 2.2788 -0.0039
-9 -10 1 -2.4666 -0.0114
-9 -10 2 5.0490 0.0092
-9 -10 3 -2.0046 -0.0040
-9 -10 4 -3.4570 -0.0013
-9 -10 5 5.8550 0.0045
-9 -10 6 -2.8172 -0.0050
-9 -10 7 -2.3434 0.0037
-9 -10 8 3.7230 -0.0017
-9 -10 9 0.7215 0.0004
-9 -10 10 -7.3198 -0.0007
-9 -10 11 10.9834 0.0019
-9 -10 12 -9.4329 -0.0020
-9 -10 13 4.7212 0.0007
-9 -10 14 -0.9603 -0.0001
-9 -10 15 0.5819 0.0016
-9 -10 16 -3.0099 -0.0024
-9 -10 17 5.0610 -0.0000
-9 -10 18 -4.0784 0.0033
-9 -10 19 1.0386 -0.0028
-9 -9 1 -20.7315 -0.0070
-9 -9 2 14.4768 -0.0035
-9 -9 3 -4.9359 0.0120
-9 -9 4 0.1264 -0.0144
-9 -9 5 -3.6923 0.0106
-9 -9 6 11.4073 -0.0038
-9 -9 7 -15.3380 -0.0014
-9 -9 8 11.5697 0.0026
-9 -9 9 -3.4959 -0.0010
-9 -9 10 -1.9198 -0.0012
-9 -9 11 0.9227 0.0019
-9 -9 12 4.6194 -0.0010
-9 -9 13 -9.4811 -0.0002
-9 -9 14 9.0694 0.0002
-9 -9 15 -3.7573 0.0003
-9 -9 16 -1.6621 0.0002
-9 -9 17 2.9919 -0.0009
-9 -9 18 -0.5266 -0.0009
-9 -9 19 -1.7148 0.0047
-9 -9 20 1.3787 -0.0063
-9 -8 1 -0.4726 0.0132
-9 -8 2 -10.7467 -0.0165
-9 -8 3 14.5427 0.0132
-9 -8 4 -7.4755 -0.0054
-9 -8 5 -4.7610 -0.0031
-9 -8 6 12.5339 0.0077
-9 -8 7 -10.4047 -0.0058
-9 -8 8 1.8517 0.0006
-9 -8 9 4.7150 0.0027
-9 -8 10 -3.7571 -0.0022
-9 -8 11 -3.1410 0.0001
-9 -8 12 9.4442 0.0012
-9 -8 13 -9.8008 -0.0019
-9 -8 14 4.0133 0.0024
-9 -8 15 2.8236 -0.0022
-9 -8 16 -4.9657 0.0008
-9 -8 17 2.0928 0.0005
-9 -8 18 1.4267 -0.0003
-9 -8 19 -2.0090 -0.0018
-9 -8 20 0.3270 0.0046
-9 -7 1 21.0492 0.0105
-9 -7 2 -23.9444 -0.0027
-9 -7 3 15.4769 -0.0044
-9 -7 4 -2.3260 0.0087
-9 -7 5 -4.9052 -0.0092
-9 -7 6 1.5406 0.0051
-9 -7 7 8.1621 0.0014
-9 -7 8 -15.1728 -0.0049
-9 -7 9 13.4714 0.0030
-9 -7 10 -5.0278 0.0005
-9 -7 11 -2.9765 -0.0012
-9 -7 12 4.6122 0.0003
-9 -7 13 -0.0658 -0.0005
-9 -7 14 -5.2480 0.0007
-9 -7 15 6.0340 0.0012
-9 -7 16 -1.4246 -0.0032
-9 -7 17 -4.2576 0.0017
-9 -7 18 6.3488 0.0018
-9 -7 19 -4.6396 -0.0020
-9 -7 20 1.9927 -0.0025
-9 -7 21 -0.6177 0.0072
-9 -6 1 7.2574 -0.0061
-9 -6 2 0.0369 0.0122
-9 -6 3 -9.9409 -0.0124
-9 -6 4 13.4440 0.0092
-9 -6 5 -7.0152 -0.0044
-9 -6 6 -3.9527 -0.0009
-9 -6 7 10.7105 0.0037
-9 -6 8 -9.1349 -0.0020
-9 -6 9 1.8712 -0.0018
-9 -6 10 4.4400 0.0026
-9 -6 11 -5.0518 -0.0006
-9 -6 12 0.8220 -0.0005
-9 -6 13 3.3614 -0.0001
-9 -6 14 -3.1171 -0.0006
-9 -6 15 -1.2785 0.0023
-9 -6 16 5.8997 -0.0015
-9 -6 17 -7.1313 -0.0011
-9 -6 18 4.5796 -0.0000
-9 -6 19 -1.1794 0.0062
-9 -6 20 -0.5332 -0.0109
-9 -6 21 0.4725 0.0081
-9 -5 1 -3.7026 -0.0166
-9 -5 2 12.2338 0.0145
-9 -5 3 -13.7537 -0.0063
-9 -5 4 7.5293 -0.0019
-9 -5 5 0.9458 0.0067
-9 -5 6 -5.1811 -0.0077
-9 -5 7 2.9158 0.0047
-9 -5 8 2.0576 0.0002
-9 -5 9 -4.7756 -0.0032
-9 -5 10 3.3837 0.0023
-9 -5 11 0.5285 -0.0001
-9 -5 12 -3.5782 -0.0007
-9 -5 13 3.7963 0.0010
-9 -5 14 -2.0764 -0.0019
-9 -5 15 1.2293 0.0015
-9 -5 16 -2.9555 0.0007
-9 -5 17 5.7934 -0.0014
-9 -5 18 -7.3194 -0.0008
-9 -5 19 6.3668 0.0013
-9 -5 20 -3.7870 0.0038
-9 -5 21 1.3713 -0.0109
-9 -4 1 -7.1264 -0.0151
-9 -4 2 7.4279 0.0020
-9 -4 3 -2.2627 0.0089
-9 -4 4 -3.0236 -0.0116
-9 -4 5 3.7756 0.0076
-9 -4 6 -0.7396 -0.0018
-9 -4 7 -2.5175 -0.0030
-9 -4 8 3.1525 0.0051
-9 -4 9 -1.5033 -0.0035
-9 -4 10 0.1428 0.0001
-9 -4 11 -0.1616 0.0019
-9 -4 12 0.6813 -0.0013
-9 -4 13 -0.1305 0.0002
-9 -4 14 -2.2420 0.0006
-9 -4 15 5.3419 -0.0013
-9 -4 16 -7.0426 0.0015
-9 -4 17 5.7351 -0.0002
-9 -4 18 -2.5057 -0.0004
-9 -4 19 0.0084 -0.0023
-9 -4 20 0.6868 0.0059
-9 -4 21 -0.2973 -0.0057
-9 -3 1 -1.5167 0.0117
-9 -3 2 -3.6179 -0.0206
-9 -3 3 5.8640 0.0179
-9 -3 4 -3.8384 -0.0071
-9 -3 5 -0.5789 -0.0029
-9 -3 6 3.2229 0.0073
-9 -3 7 -3.0103 -0.0069
-9 -3 8 2.7641 0.0035
-9 -3 9 -4.8203 0.0005
-9 -3 10 8.5293 -0.0025
-9 -3 11 -10.5751 0.0012
-9 -3 12 8.6077 0.0013
-9 -3 13 -3.8963 -0.0023
-9 -3 14 0.0153 0.0022
-9 -3 15 -0.1024 -0.0019
-9 -3 16 3.8593 0.0012
-9 -3 17 -7.8450 0.0000
-9 -3 18 8.5111 -0.0003
-9 -3 19 -5.3794 -0.0007
-9 -3 20 1.6644 0.0007
-9 -3 21 -0.0266 0.0007
-9 -3 22 0.0873 -0.0006
-9 -2 1 13.9477 0.0200
-9 -2 2 -11.5338 -0.0129
-9 -2 3 5.2734 -0.0005
-9 -2 4 -0.1487 0.0106
-9 -2 5 -0.6703 -0.0121
-9 -2 6 -2.0692 0.0073
-9 -2 7 4.1918 -0.0017
-9 -2 8 -2.1070 -0.0016
-9 -2 9 -2.3145 0.0017
-9 -2 10 4.1548 0.0007
-9 -2 11 -0.9602 -0.0030
-9 -2 12 -4.8484 0.0029
-9 -2 13 7.9186 -0.0011
-9 -2 14 -4.9952 0.0001
-9 -2 15 -2.3991 -0.0002
-9 -2 16 8.8131 0.0004
-9 -2 17 -9.5426 -0.0010
-9 -2 18 5.2985 0.0022
-9 -2 19 -0.7442 -0.0027
-9 -2 20 -0.3239 0.0017
-9 -2 21 -1.2663 -0.0012
-9 -2 22 2.1067 0.0029
-9 -1 1 0.5611 -0.0012
-9 -1 2 4.9530 0.0119
-9 -1 3 -6.9401 -0.0188
-9 -1 4 2.2988 0.0164
-9 -1 5 5.7881 -0.0067
-9 -1 6 -10.8279 -0.0027
-9 -1 7 9.7076 0.0061
-9 -1 8 -4.9973 -0.0035
-9 -1 9 2.6740 -0.0012
-9 -1 10 -5.9040 0.0039
-9 -1 11 11.5669 -0.0029
-9 -1 12 -13.8579 0.0002
-9 -1 13 9.6684 0.0014
-9 -1 14 -1.5630 -0.0015
-9 -1 15 -4.5221 0.0012
-9 -1 16 4.2883 -0.0004
-9 -1 17 1.3113 -0.0006
-9 -1 18 -6.3701 -0.0007
-9 -1 19 6.3808 0.0048
-9 -1 20 -2.5601 -0.0077
-9 -1 21 -0.6616 0.0056
-9 0 1 -13.8221 -0.0085
-9 0 2 13.1036 0.0128
-9 0 3 -7.0816 -0.0113
-9 0 4 -0.7358 0.0026
-9 0 5 4.2658 0.0065
-9 0 6 -0.5356 -0.0088
-9 0 7 -6.3106 0.0037
-9 0 8 9.5094 0.0029
-9 0 9 -6.3346 -0.0049
-9 0 10 0.1035 0.0021
-9 0 11 3.2334 0.0015
-9 0 12 -0.9927 -0.0023
-9 0 13 -4.2534 0.0014
-9 0 14 7.1102 -0.0010
-9 0 15 -4.1774 0.0006
-9 0 16 -2.7010 0.0009
-9 0 17 8.4627 -0.0011
-9 0 18 -8.9165 -0.0022
-9 0 19 4.7119 0.0042
-9 0 20 -0.4937 0.0014
-9 0 21 -0.7761 -0.0112
-9 1 1 -0.6583 -0.0018
-9 1 2 -0.3010 -0.0013
-9 1 3 2.4803 0.0087
-9 1 4 -1.4061 -0.0159
-9 1 5 -4.0093 0.0158
-9 1 6 10.3892 -0.0077
-9 1 7 -12.3452 -0.0014
-9 1 8 7.9899 0.0045
-9 1 9 -1.2377 -0.0014
-9 1 10 -2.2996 -0.0025
-9 1 11 0.4623 0.0024
-9 1 12 3.9004 0.0004
-9 1 13 -6.2490 -0.0013
-9 1 14 4.2668 -0.0009
-9 1 15 0.6093 0.0021
-9 1 16 -4.1781 -0.0012
-9 1 17 3.7768 0.0020
-9 1 18 -0.3880 -0.0050
-9 1 19 -2.9278 0.0034
-9 1 20 3.6133 0.0050
-9 1 21 -2.1608 -0.0106
-9 2 1 -0.0339 -0.0003
-9 2 2 -2.0922 -0.0085
-9 2 3 3.0225 0.0138
-9 2 4 -1.2905 -0.0114
-9 2 5 -0.7276 0.0025
-9 2 6 0.0779 0.0052
-9 2 7 3.6442 -0.0058
-9 2 8 -7.6185 0.0006
-9 2 9 8.0483 0.0046
-9 2 10 -3.8832 -0.0052
-9 2 11 -2.0669 0.0016
-9 2 12 5.5364 0.0016
-9 2 13 -4.8689 -0.0008
-9 2 14 2.1234 -0.0016
-9 2 15 -0.2784 0.0006
-9 2 16 1.0829 0.0020
-9 2 17 -3.6442 0.0001
-9 2 18 5.4491 -0.0061
-9 2 19 -5.3810 0.0073
-9 2 20 3.8645 -0.0020
-9 2 21 -2.0360 -0.0002
-9 3 1 -2.4481 0.0220
-9 3 2 -3.2953 -0.0164
-9 3 3 5.5773 0.0054
-9 3 4 -5.6545 0.0060
-9 3 5 5.8586 -0.0108
-9 3 6 -6.6282 0.0065
-9 3 7 6.4122 0.0017
-9 3 8 -3.6865 -0.0067
-9 3 9 -1.1814 0.0065
-9 3 10 5.7376 -0.0031
-9 3 11 -7.3856 -0.0004
-9 3 12 5.3079 0.0017
-9 3 13 -1.4467 -0.0004
-9 3 14 -0.9756 -0.0001
-9 3 15 1.0162 -0.0026
-9 3 16 0.0397 0.0043
-9 3 17 -0.8407 0.0003
-9 3 18 0.7914 -0.0060
-9 3 19 -0.4736 0.0030
-9 3 20 0.3492 0.0069
-9 4 1 7.5577 0.0005
-9 4 2 -7.7328 0.0105
-9 4 3 4.9815 -0.0160
-9 4 4 -2.2314 0.0134
-9 4 5 0.8592 -0.0046
-9 4 6 0.0403 -0.0040
-9 4 7 -1.2693 0.0065
-9 4 8 2.1871 -0.0033
-9 4 9 -1.4706 0.0001
-9 4 10 -1.5925 0.0002
-9 4 11 5.8924 0.0006
-9 4 12 -9.3757 -0.0011
-9 4 13 10.6409 0.0021
-9 4 14 -9.4202 -0.0025
-9 4 15 7.1747 0.0007
-9 4 16 -5.4742 0.0006
-9 4 17 4.0748 0.0012
-9 4 18 -2.4493 -0.0016
-9 4 19 0.8707 -0.0049
-9 5 1 -1.2070 -0.0176
-9 5 2 5.0157 0.0149
-9 5 3 -7.6984 -0.0062
-9 5 4 7.7244 -0.0029
-9 5 5 -5.8956 0.0078
-9 5 6 3.9855 -0.0069
-9 5 7 -1.9858 0.0020
-9 5 8 -1.1031 0.0019
-9 5 9 4.6992 -0.0013
-9 5 10 -7.1604 -0.0012
-9 5 11 7.2190 0.0016
-9 5 12 -5.0755 -0.0008
-9 5 13 2.5427 0.0019
-9 5 14 -0.9478 -0.0033
-9 5 15 0.3713 0.0011
-9 5 16 -0.2637 0.0027
-9 5 17 -0.1360 -0.0033
-9 5 18 0.5468 0.0026
-9 5 19 -0.1732 -0.0050
-9 6 1 -5.6494 -0.0144
-9 6 2 6.0093 0.0019
-9 6 3 -5.0152 0.0074
-9 6 4 3.5488 -0.0097
-9 6 5 -2.8471 0.0070
-9 6 6 3.1009 -0.0027
-9 6 7 -3.2286 -0.0011
-9 6 8 2.7384 0.0028
-9 6 9 -3.2096 -0.0019
-9 6 10 5.5642 0.0004
-9 6 11 -8.3848 -0.0004
-9 6 12 9.7843 0.0003
-9 6 13 -8.8339 0.0014
-9 6 14 6.4150 -0.0018
-9 6 15 -4.3066 -0.0012
-9 6 16 3.1216 0.0031
-9 6 17 -2.3024 0.0006
-9 6 18 1.1137 -0.0051
-9 7 1 7.6661 0.0127
-9 7 2 -7.6723 -0.0196
-9 7 3 6.7123 0.0177
-9 7 4 -4.4198 -0.0101
-9 7 5 1.7381 0.0025
-9 7 6 -0.2037 0.0022
-9 7 7 0.0109 -0.0045
-9 7 8 -0.1687 0.0041
-9 7 9 -0.5886 -0.0008
-9 7 10 2.0057 -0.0027
-9 7 11 -2.3425 0.0022
-9 7 12 1.0946 0.0017
-9 7 13 0.7591 -0.0049
-9 7 14 -2.0192 0.0058
-9 7 15 2.0408 -0.0050
-9 7 16 -1.3833 0.0014
-9 7 17 0.9457 0.0047
-9 8 1 3.4147 0.0138
-9 8 2 -1.1595 -0.0094
-9 8 3 -0.9154 0.0024
-9 8 4 1.7451 0.0040
-9 8 5 -0.5096 -0.0069
-9 8 6 -2.3894 0.0058
-9 8 7 4.8440 -0.0030
-9 8 8 -5.4869 -0.0002
-9 8 9 4.7217 0.0029
-9 8 10 -3.6148 -0.0020
-9 8 11 3.1813 -0.0039
-9 8 12 -3.3653 0.0098
-9 8 13 3.4006 -0.0088
-9 8 14 -2.8290 0.0018
-9 8 15 1.6217 0.0041
-9 8 16 -0.3970 -0.0057
-9 9 1 -7.1730 0.0001
-9 9 2 7.6408 0.0061
-9 9 3 -6.4369 -0.0090
-9 9 4 3.3928 0.0092
-9 9 5 0.1740 -0.0065
-9 9 6 -2.3670 0.0016
-9 9 7 2.0458 0.0023
-9 9 8 -0.0802 -0.0031
-9 9 9 -1.5901 0.0021
-9 9 10 2.1936 0.0001
-9 9 11 -1.8868 -0.0025
-9 9 12 1.0753 0.0015
-9 9 13 -0.3709 0.0051
-9 9 14 0.1593 -0.0118
-9 10 1 -2.4222 -0.0130
-9 10 2 0.9573 0.0138
-9 10 3 1.1912 -0.0091
-9 10 4 -3.3550 0.0047
-9 10 5 4.0262 -0.0010
-9 10 6 -2.4360 -0.0024
-9 10 7 -0.2247 0.0029
-9 10 8 1.9926 -0.0004
-9 10 9 -2.0431 -0.0020
-9 10 10 1.2419 0.0033
-9 10 11 -0.5494 -0.0050
-9 10 12 0.1173 0.0058
-9 11 1 0.8728 -0.0228
-9 11 2 -1.5205 0.0123
-9 11 3 2.0242 -0.0030
-9 11 4 -1.8145 0.0005
-9 11 5 0.2758 -0.0002
-9 11 6 1.9925 -0.0011
-9 11 7 -3.0982 0.0010
-9 11 8 2.1082 0.0013
-9 11 9 -0.2154 -0.0032
-9 11 10 -0.9372 0.0047
-9 12 1 0.7949 -0.0071
-9 12 2 -1.3312 -0.0031
-9 12 3 1.1735 0.0059
-9 12 4 -0.0592 -0.0038
-9 12 5 -1.6861 0.0044
-9 12 6 2.7233 -0.0076
-8 -19 1 -0.0027 -0.0066
-8 -19 2 -1.5319 0.0063
-8 -19 3 2.4704 -0.0026
-8 -19 4 -1.7507 -0.0009
-8 -19 5 0.0241 0.0001
-8 -19 6 0.9887 0.0037
-8 -18 1 1.4763 -0.0022
-8 -18 2 -4.4507 -0.0017
-8 -18 3 4.8754 0.0045
-8 -18 4 -2.6467 -0.0041
-8 -18 5 0.1166 0.0010
-8 -18 6 0.3757 0.0015
-8 -18 7 1.0930 -0.0002
-8 -18 8 -2.6116 -0.0029
-8 -18 9 2.8199 0.0033
-8 -17 1 3.4034 0.0044
-8 -17 2 -4.0458 -0.0045
-8 -17 3 0.6279 0.0032
-8 -17 4 3.6620 -0.0008
-8 -17 5 -4.8491 -0.0016
-8 -17 6 1.9981 0.0021
-8 -17 7 2.1759 -0.0005
-8 -17 8 -4.0312 -0.0009
-8 -17 9 2.4754 0.0002
-8 -17 10 0.4608 0.0014
-8 -17 11 -2.1369 -0.0009
-8 -16 1 0.5483 0.0038
-8 -16 2 4.2124 -0.0016
-8 -16 3 -9.5414 -0.0013
-8 -16 4 10.8431 0.0038
-8 -16 5 -6.7551 -0.0052
-8 -16 6 0.7801 0.0048
-8 -16 7 2.1679 -0.0030
-8 -16 8 -0.3465 0.0013
-8 -16 9 -3.4128 -0.0010
-8 -16 10 4.6958 0.0014
-8 -16 11 -2.3451 -0.0010
-8 -16 12 -0.8494 0.0001
-8 -16 13 1.9389 -0.0003
-8 -15 1 2.2255 -0.0020
-8 -15 2 3.5136 0.0052
-8 -15 3 -5.3731 -0.0065
-8 -15 4 2.7561 0.0055
-8 -15 5 1.4995 -0.0035
-8 -15 6 -3.1801 0.0015
-8 -15 7 0.7533 -0.0002
-8 -15 8 2.8562 0.0003
-8 -15 9 -3.7958 -0.0020
-8 -15 10 1.4226 0.0039
-8 -15 11 1.1080 -0.0043
-8 -15 12 -0.7354 0.0031
-8 -15 13 -1.5223 -0.0022
-8 -15 14 2.5051 0.0028
-8 -15 15 -1.2828 -0.0038
-8 -14 1 3.9885 -0.0075
-8 -14 2 -3.0041 0.0067
-8 -14 3 5.1725 -0.0029
-8 -14 4 -7.6510 -0.0012
-8 -14 5 7.8675 0.0034
-8 -14 6 -5.4789 -0.0037
-8 -14 7 2.1873 0.0027
-8 -14 8 -0.3880 -0.0009
-8 -14 9 0.3237 -0.0013
-8 -14 10 -0.0174 0.0022
-8 -14 11 -1.5904 -0.0010
-8 -14 12 3.1847 -0.0008
-8 -14 13 -2.5390 0.0008
-8 -14 14 -0.1892 0.0006
-8 -14 15 1.9926 -0.0007
-8 -14 16 -1.1480 -0.0016
-8 -13 1 -3.9128 -0.0041
-8 -13 2 2.1018 -0.0004
-8 -13 3 -0.5521 0.0041
-8 -13 4 0.2904 -0.0044
-8 -13 5 -0.7580 0.0021
-8 -13 6 0.5622 0.0005
-8 -13 7 0.1972 -0.0021
-8 -13 8 -0.5445 0.0027
-8 -13 9 0.1724 -0.0021
-8 -13 10 0.3310 0.0006
-8 -13 11 0.3430 0.0004
-8 -13 12 -2.5020 0.0002
-8 -13 13 4.5076 -0.0015
-8 -13 14 -4.3501 0.0008
-8 -13 15 1.5259 0.0025
-8 -13 16 1.7237 -0.0059
-8 -13 17 -2.5448 0.0064
-8 -12 1 -2.6734 0.0046
-8 -12 2 5.1018 -0.0093
-8 -12 3 -6.5962 0.0090
-8 -12 4 5.3582 -0.0043
-8 -12 5 -1.4033 -0.0008
-8 -12 6 -2.8859 0.0033
-8 -12 7 4.3890 -0.0031
-8 -12 8 -2.7375 0.0009
-8 -12 9 1.0117 0.0014
-8 -12 10 -1.5665 -0.0019
-8 -12 11 3.6856 0.0003
-8 -12 12 -5.1649 0.0015
-8 -12 13 4.3809 -0.0014
-8 -12 14 -1.9132 -0.0000
-8 -12 15 -0.1930 0.0007
-8 -12 16 0.2644 0.0006
-8 -12 17 1.7095 -0.0035
-8 -12 18 -3.4533 0.0060
-8 -11 1 -3.0049 0.0081
-8 -11 2 7.0571 -0.0056
-8 -11 3 -4.7616 -0.0012
-8 -11 4 -2.0124 0.0073
-8 -11 5 7.6884 -0.0087
-8 -11 6 -7.2383 0.0057
-8 -11 7 1.0500 -0.0013
-8 -11 8 5.3616 -0.0020
-8 -11 9 -6.8034 0.0024
-8 -11 10 3.4164 -0.0006
-8 -11 11 0.5560 -0.0007
-8 -11 12 -2.1884 -0.0001
-8 -11 13 1.5173 0.0012
-8 -11 14 -0.2866 -0.0007
-8 -11 15 0.5165 -0.0010
-8 -11 16 -2.4875 0.0023
-8 -11 17 4.5184 -0.0030
-8 -11 18 -4.3595 0.0036
-8 -11 19 1.7534 -0.0028
-8 -10 1 -10.4726 0.0000
-8 -10 2 6.2025 0.0073
-8 -10 3 3.1995 -0.0115
-8 -10 4 -9.2129 0.0095
-8 -10 5 5.8500 -0.0033
-8 -10 6 5.1127 -0.0027
-8 -10 7 -15.3310 0.0051
-8 -10 8 17.3204 -0.0039
-8 -10 9 -11.1768 0.0013
-8 -10 10 3.2134 0.0001
-8 -10 11 0.4117 0.0005
-8 -10 12 1.3605 -0.0017
-8 -10 13 -5.2418 0.0013
-8 -10 14 7.5163 -0.0006
-8 -10 15 -6.3392 0.0013
-8 -10 16 3.3206 -0.0025
-8 -10 17 -1.9049 0.0021
-8 -10 18 3.1300 -0.0011
-8 -10 19 -4.7219 0.0026
-8 -10 20 3.9778 -0.0054
-8 -9 1 -2.6529 -0.0156
-8 -9 2 -7.7946 0.0148
-8 -9 3 14.3041 -0.0088
-8 -9 4 -10.0837 0.0005
-8 -9 5 -2.0859 0.0051
-8 -9 6 12.0475 -0.0057
-8 -9 7 -11.8479 0.0030
-8 -9 8 2.2411 -0.0005
-8 -9 9 8.4340 -0.0001
-8 -9 10 -12.1059 -0.0007
-8 -9 11 7.3756 0.0016
-8 -9 12 0.9139 -0.0015
-8 -9 13 -6.2558 0.0005
-8 -9 14 5.9386 -0.0001
-8 -9 15 -2.3426 0.0005
-8 -9 16 -0.0226 -0.0001
-8 -9 17 -1.1860 -0.0011
-8 -9 18 3.5023 0.0013
-8 -9 19 -3.4397 -0.0002
-8 -9 20 1.0491 0.0006
-8 -9 21 0.9756 -0.0039
-8 -8 1 6.2441 -0.0074
-8 -8 2 -15.4617 -0.0021
-8 -8 3 14.3333 0.0107
-8 -8 4 -5.5511 -0.0142
-8 -8 5 -1.6200 0.0108
-8 -8 6 -0.6894 -0.0041
-8 -8 7 10.9749 -0.0004
-8 -8 8 -20.5214 0.0011
-8 -8 9 21.8131 -0.0001
-8 -8 10 -14.2823 -0.0010
-8 -8 11 4.1459 0.0018
-8 -8 12 1.5469 -0.0018
-8 -8 13 -0.1981 0.0005
-8 -8 14 -4.9661 0.0008
-8 -8 15 8.0906 -0.0004
-8 -8 16 -6.5942 -0.0008
-8 -8 17 2.6349 0.0007
-8 -8 18 -0.0959 0.0010
-8 -8 19 0.2687 -0.0032
-8 -8 20 -0.9975 0.0045
-8 -8 21 0.7625 -0.0044
-8 -7 1 6.2831 0.0097
-8 -7 2 -5.9190 -0.0159
-8 -7 3 -3.0552 0.0161
-8 -7 4 10.8183 -0.0093
-8 -7 5 -11.0046 -0.0003
-8 -7 6 4.5412 0.0056
-8 -7 7 1.7781 -0.0044
-8 -7 8 -1.8238 0.0008
-8 -7 9 -3.7287 0.0013
-8 -7 10 9.4497 -0.0023
-8 -7 11 -10.3117 0.0026
-8 -7 12 5.5395 -0.0011
-8 -7 13 1.0856 -0.0015
-8 -7 14 -4.9350 0.0014
-8 -7 15 3.9942 0.0017
-8 -7 16 -0.5712 -0.0034
-8 -7 17 -1.5254 0.0006
-8 -7 18 1.1008 0.0026
-8 -7 19 0.5378 -0.0010
-8 -7 20 -1.5743 -0.0042
-8 -7 21 1.7679 0.0071
-8 -7 22 -1.7380 -0.0051
-8 -6 1 8.4500 0.0175
-8 -6 2 5.4927 -0.0129
-8 -6 3 -17.4138 0.0043
-8 -6 4 20.5722 0.0043
-8 -6 5 -16.8896 -0.0073
-8 -6 6 12.3798 0.0029
-8 -6 7 -10.5191 0.0036
-8 -6 8 11.0420 -0.0059
-8 -6 9 -10.8604 0.0044
-8 -6 10 7.9873 -0.0024
-8 -6 11 -3.7453 0.0007
-8 -6 12 0.5923 0.0015
-8 -6 13 -0.2208 -0.0023
-8 -6 14 2.0049 -0.0003
-8 -6 15 -3.6773 0.0027
-8 -6 16 3.3130 -0.0006
-8 -6 17 -0.6874 -0.0032
-8 -6 18 -2.2229 0.0020
-8 -6 19 3.8017 0.0039
-8 -6 20 -3.9200 -0.0064
-8 -6 21 3.0222 0.0011
-8 -6 22 -1.7046 0.0065
-8 -5 1 -0.0362 -0.0002
-8 -5 2 7.1475 0.0082
-8 -5 3 -5.8776 -0.0125
-8 -5 4 -0.6803 0.0112
-8 -5 5 6.8315 -0.0045
-8 -5 6 -9.4473 -0.0032
-8 -5 7 10.3517 0.0061
-8 -5 8 -11.0855 -0.0037
-8 -5 9 10.6854 0.0006
-8 -5 10 -7.9036 0.0001
-8 -5 11 2.6069 -0.0001
-8 -5 12 2.9655 0.0005
-8 -5 13 -5.9612 0.0002
-8 -5 14 5.1774 -0.0017
-8 -5 15 -1.5964 0.0012
-8 -5 16 -1.9276 0.0014
-8 -5 17 3.2215 -0.0015
-8 -5 18 -2.0137 -0.0020
-8 -5 19 -0.2109 0.0034
-8 -5 20 1.6766 0.0019
-8 -5 21 -2.2019 -0.0091
-8 -5 22 2.0861 0.0105
-8 -4 1 -6.0491 -0.0199
-8 -4 2 -3.5722 0.0165
-8 -4 3 12.3896 -0.0080
-8 -4 4 -16.2046 -0.0015
-8 -4 5 15.7628 0.0087
-8 -4 6 -13.7048 -0.0103
-8 -4 7 11.9594 0.0059
-8 -4 8 -9.0337 -0.0003
-8 -4 9 2.2126 -0.0019
-8 -4 10 6.6672 0.0011
-8 -4 11 -12.6573 -0.0004
-8 -4 12 12.2127 0.0002
-8 -4 13 -5.8522 0.0007
-8 -4 14 -1.8168 -0.0013
-8 -4 15 5.7530 0.0001
-8 -4 16 -3.5831 0.0010
-8 -4 17 -2.4825 0.0007
-8 -4 18 7.6086 -0.0030
-8 -4 19 -8.9825 0.0020
-8 -4 20 7.1471 0.0009
-8 -4 21 -4.5555 -0.0003
-8 -4 22 2.5373 -0.0044
-8 -3 1 5.7002 -0.0174
-8 -3 2 -7.9820 0.0020
-8 -3 3 3.6805 0.0096
-8 -3 4 2.9744 -0.0143
-8 -3 5 -6.0725 0.0122
-8 -3 6 4.8586 -0.0051
-8 -3 7 -3.3337 -0.0027
-8 -3 8 4.9070 0.0061
-8 -3 9 -9.0864 -0.0044
-8 -3 10 10.5303 0.0015
-8 -3 11 -4.8361 -0.0002
-8 -3 12 -5.8323 -0.0006
-8 -3 13 14.9533 0.0015
-8 -3 14 -16.4369 -0.0008
-8 -3 15 9.3625 -0.0012
-8 -3 16 1.2976 0.0015
-8 -3 17 -8.4289 0.0003
-8 -3 18 8.1779 -0.0008
-8 -3 19 -3.3965 -0.0010
-8 -3 20 -0.6073 0.0013
-8 -3 21 1.5896 0.0021
-8 -3 22 -0.9440 -0.0054
-8 -2 1 2.0921 0.0154
-8 -2 2 7.9531 -0.0244
-8 -2 3 -14.9027 0.0211
-8 -2 4 13.7855 -0.0109
-8 -2 5 -5.6367 0.0001
-8 -2 6 -2.6234 0.0069
-8 -2 7 4.4573 -0.0078
-8 -2 8 -1.0712 0.0037
-8 -2 9 -1.2444 0.0003
-8 -2 10 -2.3674 -0.0006
-8 -2 11 10.8853 -0.0011
-8 -2 12 -17.3441 0.0020
-8 -2 13 15.7462 -0.0022
-8 -2 14 -6.3493 0.0026
-8 -2 15 -4.3981 -0.0021
-8 -2 16 8.6225 0.0000
-8 -2 17 -3.8981 0.0011
-8 -2 18 -5.0606 0.0004
-8 -2 19 10.5554 -0.0014
-8 -2 20 -9.4550 -0.0009
-8 -2 21 5.3131 0.0039
-8 -2 22 -2.3826 -0.0030
-8 -1 1 -10.9826 0.0318
-8 -1 2 14.6765 -0.0197
-8 -1 3 -9.3078 0.0013
-8 -1 4 -1.3763 0.0117
-8 -1 5 8.6573 -0.0150
-8 -1 6 -6.8018 0.0108
-8 -1 7 -2.5313 -0.0039
-8 -1 8 10.7501 -0.0006
-8 -1 9 -10.9988 0.0004
-8 -1 10 4.9044 0.0021
-8 -1 11 0.7784 -0.0031
-8 -1 12 -0.2236 0.0021
-8 -1 13 -6.3905 -0.0012
-8 -1 14 13.0057 0.0007
-8 -1 15 -13.1654 -0.0002
-8 -1 16 5.3894 0.0002
-8 -1 17 4.6976 -0.0011
-8 -1 18 -9.7060 0.0007
-8 -1 19 7.3698 0.0017
-8 -1 20 -1.8567 -0.0019
-8 -1 21 -1.0573 -0.0034
-8 -1 22 0.4840 0.0104
-8 0 1 -0.2054 0.0082
-8 0 2 -3.8653 0.0127
-8 0 3 10.8068 -0.0236
-8 0 4 -13.2962 0.0202
-8 0 5 6.6039 -0.0096
-8 0 6 5.1793 0.0007
-8 0 7 -13.4557 0.0024
-8 0 8 12.5741 -0.0006
-8 0 9 -4.5461 -0.0023
-8 0 10 -2.4342 0.0029
-8 0 11 2.5908 -0.0012
-8 0 12 3.0279 -0.0002
-8 0 13 -8.9432 0.0003
-8 0 14 9.9401 0.0001
-8 0 15 -5.4349 -0.0007
-8 0 16 -0.5831 0.0011
-8 0 17 2.7104 0.0005
-8 0 18 0.6175 -0.0037
-8 0 19 -5.3742 0.0030
-8 0 20 7.0463 0.0052
-8 0 21 -4.8789 -0.0144
-8 0 22 1.9071 0.0144
-8 1 1 7.9168 -0.0312
-8 1 2 -12.4017 0.0346
-8 1 3 13.3237 -0.0227
-8 1 4 -8.5309 0.0053
-8 1 5 1.0561 0.0058
-8 1 6 2.0943 -0.0073
-8 1 7 2.6639 0.0032
-8 1 8 -11.3604 0.0010
-8 1 9 16.9173 -0.0023
-8 1 10 -14.9429 0.0008
-8 1 11 7.3882 0.0008
-8 1 12 -0.2451 -0.0007
-8 1 13 -2.2951 -0.0001
-8 1 14 0.2929 0.0010
-8 1 15 2.7346 -0.0023
-8 1 16 -3.4029 0.0031
-8 1 17 0.9321 -0.0011
-8 1 18 2.7501 -0.0012
-8 1 19 -4.5262 -0.0015
-8 1 20 3.8256 0.0070
-8 1 21 -2.4473 -0.0055
-8 1 22 1.7762 -0.0061
-8 2 1 -6.3605 -0.0194
-8 2 2 4.7385 0.0058
-8 2 3 -6.5567 0.0085
-8 2 4 8.4550 -0.0141
-8 2 5 -6.6557 0.0100
-8 2 6 0.4702 -0.0024
-8 2 7 6.6306 -0.0027
-8 2 8 -9.1458 0.0033
-8 2 9 5.2809 -0.0005
-8 2 10 1.6221 -0.0025
-8 2 11 -6.3544 0.0030
-8 2 12 5.8646 -0.0017
-8 2 13 -1.4490 0.0009
-8 2 14 -3.3621 -0.0005
-8 2 15 5.6708 -0.0013
-8 2 16 -5.2298 0.0026
-8 2 17 3.8578 -0.0010
-8 2 18 -2.7311 -0.0005
-8 2 19 2.2012 -0.0031
-8 2 20 -1.8420 0.0074
-8 2 21 1.2154 -0.0034
-8 2 22 -0.7963 -0.0071
-8 3 1 -8.4064 0.0116
-8 3 2 8.7457 -0.0194
-8 3 3 -9.2774 0.0185
-8 3 4 7.0036 -0.0098
-8 3 5 -2.4097 0.0002
-8 3 6 -0.7523 0.0046
-8 3 7 -0.0980 -0.0040
-8 3 8 4.4242 0.0008
-8 3 9 -8.7182 0.0020
-8 3 10 9.2181 -0.0024
-8 3 11 -5.1460 0.0004
-8 3 12 -0.9853 0.0010
-8 3 13 5.3849 -0.0000
-8 3 14 -6.3087 -0.0010
-8 3 15 4.7372 -0.0003
-8 3 16 -2.7230 0.0009
-8 3 17 1.7445 0.0014
-8 3 18 -1.2313 -0.0017
-8 3 19 0.4362 -0.0042
-8 3 20 0.1996 0.0096
-8 3 21 -0.2742 -0.0053
-8 4 1 6.4064 0.0232
-8 4 2 -6.6675 -0.0182
-8 4 3 7.0025 0.0075
-8 4 4 -7.5903 0.0024
-8 4 5 6.5523 -0.0062
-8 4 6 -2.3660 0.0040
-8 4 7 -2.9738 0.0002
-8 4 8 5.7520 -0.0030
-8 4 9 -4.2061 0.0034
-8 4 10 -0.1395 -0.0020
-8 4 11 3.9009 0.0001
-8 4 12 -4.5913 0.0007
-8 4 13 2.0390 -0.0002
-8 4 14 1.4073 0.0009
-8 4 15 -3.1648 -0.0027
-8 4 16 3.0685 0.0019
-8 4 17 -2.3338 0.0025
-8 4 18 2.0708 -0.0045
-8 4 19 -2.1399 0.0007
-8 4 20 1.4623 0.0019
-8 4 21 -0.1764 0.0036
-8 5 1 8.9126 0.0015
-8 5 2 -6.6917 0.0102
-8 5 3 4.2556 -0.0170
-8 5 4 -1.3683 0.0160
-8 5 5 -2.4218 -0.0090
-8 5 6 5.9759 0.0009
-8 5 7 -6.7549 0.0036
-8 5 8 3.9854 -0.0040
-8 5 9 -0.2484 0.0026
-8 5 10 -0.9107 -0.0013
-8 5 11 -1.5802 -0.0002
-8 5 12 5.4215 0.0013
-8 5 13 -7.7142 -0.0011
-8 5 14 7.1778 0.0005
-8 5 15 -4.6849 -0.0002
-8 5 16 2.7395 -0.0017
-8 5 17 -2.4402 0.0050
-8 5 18 2.6399 -0.0045
-8 5 19 -2.1366 -0.0015
-8 5 20 0.8952 0.0055
-8 6 1 -1.4014 -0.0151
-8 6 2 3.0681 0.0147
-8 6 3 -3.3511 -0.0088
-8 6 4 3.0468 0.0010
-8 6 5 -2.3284 0.0046
-8 6 6 0.1885 -0.0061
-8 6 7 3.6892 0.0036
-8 6 8 -7.1305 -0.0001
-8 6 9 7.4404 -0.0011
-8 6 10 -4.5008 0.0002
-8 6 11 0.9243 0.0005
-8 6 12 0.2009 -0.0012
-8 6 13 1.5322 0.0029
-8 6 14 -3.8002 -0.0038
-8 6 15 4.4973 0.0018
-8 6 16 -3.1282 0.0008
-8 6 17 1.1215 -0.0020
-8 6 18 -0.2911 0.0043
-8 6 19 0.5040 -0.0085
-8 7 1 -4.5111 -0.0057
-8 7 2 1.7775 -0.0016
-8 7 3 0.6889 0.0076
-8 7 4 -2.5112 -0.0092
-8 7 5 4.3767 0.0071
-8 7 6 -6.6182 -0.0034
-8 7 7 8.3128 -0.0005
-8 7 8 -7.8141 0.0027
-8 7 9 5.1595 -0.0016
-8 7 10 -2.6882 -0.0010
-8 7 11 2.2936 0.0018
-8 7 12 -4.0030 -0.0014
-8 7 13 6.1443 0.0019
-8 7 14 -6.5474 -0.0021
-8 7 15 4.8714 0.0004
-8 7 16 -2.4778 0.0009
-8 7 17 0.8406 0.0006
-8 7 18 -0.3661 -0.0018
-8 8 1 0.8381 0.0045
-8 8 2 0.0363 -0.0108
-8 8 3 -2.4794 0.0123
-8 8 4 4.7212 -0.0089
-8 8 5 -5.5092 0.0039
-8 8 6 5.6078 -0.0000
-8 8 7 -6.0417 -0.0027
-8 8 8 6.7937 0.0033
-8 8 9 -7.0456 -0.0012
-8 8 10 5.8371 -0.0010
-8 8 11 -3.4940 -0.0001
-8 8 12 1.1922 0.0020
-8 8 13 0.1659 -0.0004
-8 8 14 0.0960 -0.0035
-8 8 15 -1.5064 0.0056
-8 8 16 2.6007 -0.0063
-8 8 17 -2.4774 0.0077
-8 9 1 2.4207 0.0145
-8 9 2 1.9434 -0.0139
-8 9 3 -4.7060 0.0095
-8 9 4 4.8447 -0.0028
-8 9 5 -3.0821 -0.0019
-8 9 6 1.4876 0.0025
-8 9 7 -0.8916 -0.0012
-8 9 8 0.5591 -0.0007
-8 9 9 -0.2898 0.0026
-8 9 10 0.2649 -0.0019
-8 9 11 -0.4869 -0.0028
-8 9 12 0.9785 0.0061
-8 9 13 -1.6960 -0.0035
-8 9 14 2.6649 -0.0012
-8 9 15 -3.2898 0.0013
-8 9 16 2.6706 0.0020
-8 10 1 -2.0836 -0.0009
-8 10 2 1.3004 0.0028
-8 10 3 1.8947 -0.0048
-8 10 4 -5.9209 0.0065
-8 10 5 8.3770 -0.0041
-8 10 6 -7.9816 -0.0016
-8 10 7 5.7043 0.0053
-8 10 8 -3.4840 -0.0052
-8 10 9 1.8333 0.0032
-8 10 10 -0.5318 0.0004
-8 10 11 -0.1099 -0.0048
-8 10 12 0.1060 0.0051
-8 10 13 0.0527 0.0008
-8 10 14 -0.0570 -0.0055
-8 11 1 -2.4004 -0.0130
-8 11 2 -0.9697 0.0118
-8 11 3 3.8218 -0.0102
-8 11 4 -4.3397 0.0069
-8 11 5 1.6908 0.0005
-8 11 6 2.2403 -0.0074
-8 11 7 -4.5661 0.0081
-8 11 8 4.1735 -0.0044
-8 11 9 -2.3189 0.0012
-8 11 10 0.4945 0.0013
-8 11 11 1.0430 -0.0035
-8 11 12 -2.1944 0.0019
-8 11 13 2.5742 0.0032
-8 12 1 0.1709 -0.0144
-8 12 2 -0.4865 0.0075
-8 12 3 -0.2343 -0.0015
-8 12 4 2.3767 -0.0041
-8 12 5 -4.6784 0.0086
-8 12 6 4.7974 -0.0078
-8 12 7 -2.0997 0.0013
-8 12 8 -1.2909 0.0047
-8 12 9 3.0145 -0.0064
-8 12 10 -2.8784 0.0065
-8 13 1 0.4425 -0.0037
-8 13 2 0.3258 -0.0019
-8 13 3 -1.4608 0.0048
-8 13 4 2.3470 -0.0043
-8 13 5 -1.8311 0.0009
-8 13 6 -0.1814 0.0044
-8 13 7 2.2395 -0.0085
-7 -20 1 -1.0022 -0.0058
-7 -19 1 -2.7657 0.0030
-7 -19 2 0.4866 -0.0030
-7 -19 3 0.8175 0.0017
-7 -19 4 -0.6576 0.0006
-7 -19 5 -0.0856 -0.0034
-7 -19 6 0.2417 0.0043
-7 -19 7 0.2990 -0.0021
-7 -18 1 -0.6023 -0.0015
-7 -18 2 -1.5375 0.0036
-7 -18 3 0.9940 -0.0036
-7 -18 4 1.5333 0.0018
-7 -18 5 -3.5960 -0.0003
-7 -18 6 3.4155 -0.0007
-7 -18 7 -1.4309 0.0015
-7 -18 8 -0.5856 -0.0016
-7 -18 9 1.2644 0.0003
-7 -18 10 -0.5364 0.0010
-7 -17 1 7.1564 -0.0061
-7 -17 2 -5.9248 0.0020
-7 -17 3 1.0883 0.0030
-7 -17 4 3.4185 -0.0053
-7 -17 5 -4.3860 0.0037
-7 -17 6 1.8312 -0.0009
-7 -17 7 1.1026 -0.0003
-7 -17 8 -1.3695 0.0002
-7 -17 9 -1.1138 -0.0001
-7 -17 10 3.8191 0.0001
-7 -17 11 -4.1744 0.0006
-7 -17 12 2.0913 -0.0014
-7 -16 1 8.2195 0.0076
-7 -16 2 -2.5088 -0.0109
-7 -16 3 -2.4330 0.0100
-7 -16 4 3.0895 -0.0052
-7 -16 5 -0.1795 0.0002
-7 -16 6 -2.8697 0.0016
-7 -16 7 3.0146 -0.0006
-7 -16 8 -0.3247 -0.0005
-7 -16 9 -1.9453 0.0003
-7 -16 10 1.2183 0.0003
-7 -16 11 1.5926 -0.0004
-7 -16 12 -3.4346 0.0006
-7 -16 13 2.5874 -0.0018
-7 -16 14 -0.4888 0.0032
-7 -15 1 -1.0786 0.0063
-7 -15 2 2.8776 -0.0040
-7 -15 3 -1.1038 -0.0001
-7 -15 4 -3.1554 0.0033
-7 -15 5 6.7069 -0.0035
-7 -15 6 -7.5434 0.0011
-7 -15 7 6.4227 0.0012
-7 -15 8 -5.3197 -0.0016
-7 -15 9 5.5492 0.0005
-7 -15 10 -6.1488 0.0005
-7 -15 11 4.9453 -0.0008
-7 -15 12 -2.0025 0.0007
-7 -15 13 -0.2561 -0.0005
-7 -15 14 0.1158 -0.0002
-7 -15 15 1.3078 0.0012
-7 -14 1 -6.5542 0.0006
-7 -14 2 4.4659 0.0016
-7 -14 3 -2.3631 -0.0036
-7 -14 4 1.1397 0.0038
-7 -14 5 -0.7575 -0.0015
-7 -14 6 0.4944 -0.0015
-7 -14 7 0.3178 0.0028
-7 -14 8 -1.0106 -0.0017
-7 -14 9 0.5107 0.0001
-7 -14 10 0.9673 0.0005
-7 -14 11 -2.1034 -0.0005
-7 -14 12 1.1993 0.0003
-7 -14 13 1.7645 -0.0000
-7 -14 14 -4.1003 -0.0003
-7 -14 15 3.4972 0.0003
-7 -14 16 -0.8128 -0.0001
-7 -14 17 -0.8806 0.0004
-7 -13 1 0.6071 -0.0059
-7 -13 2 3.5996 0.0052
-7 -13 3 -7.8078 -0.0032
-7 -13 4 9.6794 -0.0002
-7 -13 5 -8.1623 0.0041
-7 -13 6 4.9285 -0.0056
-7 -13 7 -2.8642 0.0035
-7 -13 8 3.3628 -0.0004
-7 -13 9 -5.1494 -0.0005
-7 -13 10 5.4270 -0.0001
-7 -13 11 -3.1778 0.0002
-7 -13 12 0.1346 0.0002
-7 -13 13 1.3635 -0.0001
-7 -13 14 -0.1108 -0.0002
-7 -13 15 -2.4155 -0.0003
-7 -13 16 3.1706 0.0011
-7 -13 17 -1.1433 -0.0007
-7 -13 18 -1.4972 -0.0005
-7 -12 1 3.6330 -0.0092
-7 -12 2 2.7901 0.0026
-7 -12 3 -3.5571 0.0023
-7 -12 4 -1.2752 -0.0049
-7 -12 5 7.5999 0.0047
-7 -12 6 -10.0075 -0.0016
-7 -12 7 6.3877 -0.0020
-7 -12 8 -0.0760 0.0027
-7 -12 9 -3.9449 -0.0010
-7 -12 10 3.8500 0.0004
-7 -12 11 -1.7217 -0.0012
-7 -12 12 0.7541 0.0008
-7 -12 13 -1.7385 0.0013
-7 -12 14 3.2430 -0.0022
-7 -12 15 -3.4423 0.0010
-7 -12 16 1.2889 -0.0003
-7 -12 17 1.8207 0.0012
-7 -12 18 -3.2111 -0.0017
-7 -12 19 1.9315 0.0001
-7 -11 1 -6.6780 0.0099
-7 -11 2 4.0673 -0.0140
-7 -11 3 5.0841 0.0110
-7 -11 4 -14.3551 -0.0051
-7 -11 5 16.3231 -0.0002
-7 -11 6 -9.0535 0.0031
-7 -11 7 -1.8866 -0.0027
-7 -11 8 8.4775 0.0005
-7 -11 9 -7.4852 0.0003
-7 -11 10 2.4862 0.0014
-7 -11 11 1.2901 -0.0027
-7 -11 12 -1.5258 0.0018
-7 -11 13 -0.6028 -0.0011
-7 -11 14 2.3396 0.0021
-7 -11 15 -2.1049 -0.0024
-7 -11 16 0.2300 0.0003
-7 -11 17 1.0765 0.0011
-7 -11 18 0.1962 0.0012
-7 -11 19 -2.8862 -0.0051
-7 -11 20 4.0787 0.0063
-7 -10 1 -12.5228 0.0132
-7 -10 2 2.6390 -0.0059
-7 -10 3 7.1884 -0.0045
-7 -10 4 -8.8032 0.0111
-7 -10 5 0.6018 -0.0116
-7 -10 6 10.5290 0.0083
-7 -10 7 -14.7572 -0.0041
-7 -10 8 8.8001 0.0012
-7 -10 9 1.9901 -0.0005
-7 -10 10 -9.5454 0.0008
-7 -10 11 10.2053 -0.0006
-7 -10 12 -6.2896 0.0005
-7 -10 13 2.2168 -0.0015
-7 -10 14 -1.1707 0.0017
-7 -10 15 2.7845 0.0001
-7 -10 16 -3.8376 -0.0014
-7 -10 17 1.9927 -0.0005
-7 -10 18 1.8730 0.0034
-7 -10 19 -4.2450 -0.0025
-7 -10 20 3.2647 -0.0014
-7 -10 21 -0.8417 0.0037
-7 -9 1 -4.9135 -0.0022
-7 -9 2 -5.6698 0.0120
-7 -9 3 8.5970 -0.0164
-7 -9 4 -1.9805 0.0132
-7 -9 5 -6.8523 -0.0063
-7 -9 6 9.0622 0.0009
-7 -9 7 -1.6248 0.0014
-7 -9 8 -9.5882 -0.0013
-7 -9 9 15.7390 0.0000
-7 -9 10 -13.5173 0.0012
-7 -9 11 6.4370 -0.0017
-7 -9 12 -0.7438 0.0016
-7 -9 13 -0.0784 -0.0009
-7 -9 14 -2.8098 -0.0002
-7 -9 15 5.5085 0.0006
-7 -9 16 -4.8158 0.0006
-7 -9 17 1.8731 -0.0016
-7 -9 18 -0.2051 -0.0001
-7 -9 19 1.1796 0.0037
-7 -9 20 -2.8898 -0.0045
-7 -9 21 2.8026 0.0008
-7 -8 1 6.4558 -0.0180
-7 -8 2 -11.0222 0.0180
-7 -8 3 5.2716 -0.0106
-7 -8 4 4.5363 0.0010
-7 -8 5 -9.3327 0.0046
-7 -8 6 6.7530 -0.0050
-7 -8 7 -1.4220 0.0029
-7 -8 8 -0.5239 -0.0004
-7 -8 9 -3.4205 -0.0015
-7 -8 10 9.6735 0.0019
-7 -8 11 -12.9341 -0.0005
-7 -8 12 11.0692 -0.0008
-7 -8 13 -6.0663 0.0004
-7 -8 14 2.0541 0.0010
-7 -8 15 -1.1749 -0.0014
-7 -8 16 2.2875 0.0003
-7 -8 17 -2.4491 0.0012
-7 -8 18 0.3686 -0.0020
-7 -8 19 1.8296 0.0014
-7 -8 20 -2.2665 0.0005
-7 -8 21 1.5130 -0.0021
-7 -8 22 -1.1575 0.0016
-7 -7 1 15.8499 -0.0114
-7 -7 2 -8.2645 0.0002
-7 -7 3 -2.9019 0.0093
-7 -7 4 10.6308 -0.0116
-7 -7 5 -11.9763 0.0079
-7 -7 6 9.9210 -0.0031
-7 -7 7 -8.9361 0.0002
-7 -7 8 9.5982 0.0014
-7 -7 9 -10.2188 -0.0015
-7 -7 10 9.0768 -0.0002
-7 -7 11 -6.0394 0.0018
-7 -7 12 3.2806 -0.0006
-7 -7 13 -2.6926 -0.0023
-7 -7 14 4.4194 0.0029
-7 -7 15 -6.4915 -0.0004
-7 -7 16 6.6860 -0.0014
-7 -7 17 -5.0417 0.0003
-7 -7 18 3.0863 0.0010
-7 -7 19 -2.2812 0.0008
-7 -7 20 2.1421 -0.0044
-7 -7 21 -1.3670 0.0062
-7 -7 22 0.3486 -0.0054
-7 -6 1 13.6786 0.0173
-7 -6 2 -5.1864 -0.0239
-7 -6 3 1.5002 0.0209
-7 -6 4 -2.5106 -0.0118
-7 -6 5 5.5215 0.0033
-7 -6 6 -8.8303 0.0011
-7 -6 7 11.9285 -0.0027
-7 -6 8 -15.4783 0.0028
-7 -6 9 18.3734 -0.0011
-7 -6 10 -17.8058 -0.0017
-7 -6 11 13.2574 0.0022
-7 -6 12 -6.5165 0.0002
-7 -6 13 0.6538 -0.0017
-7 -6 14 1.7880 -0.0002
-7 -6 15 -0.7054 0.0022
-7 -6 16 -1.8921 -0.0006
-7 -6 17 2.9828 -0.0019
-7 -6 18 -1.6916 0.0005
-7 -6 19 -0.3577 0.0034
-7 -6 20 1.5415 -0.0033
-7 -6 21 -1.5351 -0.0020
-7 -6 22 1.4060 0.0071
-7 -6 23 -1.4742 -0.0072
-7 -5 1 -7.2723 0.0221
-7 -5 2 5.5675 -0.0154
-7 -5 3 -1.5403 0.0048
-7 -5 4 -1.6473 0.0032
-7 -5 5 3.7698 -0.0054
-7 -5 6 -7.5942 0.0035
-7 -5 7 13.0953 -0.0011
-7 -5 8 -16.5667 -0.0011
-7 -5 9 14.2796 0.0033
-7 -5 10 -5.6927 -0.0037
-7 -5 11 -4.0869 0.0010
-7 -5 12 8.7077 0.0021
-7 -5 13 -6.0743 -0.0021
-7 -5 14 -1.3088 0.0001
-7 -5 15 7.9828 -0.0002
-7 -5 16 -9.7312 0.0023
-7 -5 17 6.2408 -0.0022
-7 -5 18 -1.0086 -0.0005
-7 -5 19 -1.8557 0.0009
-7 -5 20 1.8715 0.0032
-7 -5 21 -0.8566 -0.0064
-7 -5 22 0.2220 0.0033
-7 -5 23 -0.0215 0.0038
-7 -4 1 -16.5582 -0.0034
-7 -4 2 13.6499 0.0125
-7 -4 3 -15.1036 -0.0167
-7 -4 4 17.3230 0.0139
-7 -4 5 -15.8233 -0.0062
-7 -4 6 9.5061 -0.0010
-7 -4 7 -3.4186 0.0045
-7 -4 8 4.2471 -0.0051
-7 -4 9 -11.8680 0.0039
-7 -4 10 19.7383 -0.0015
-7 -4 11 -20.3684 -0.0009
-7 -4 12 11.3407 0.0008
-7 -4 13 1.8648 0.0015
-7 -4 14 -11.2059 -0.0025
-7 -4 15 11.7447 0.0005
-7 -4 16 -4.8618 0.0013
-7 -4 17 -2.9007 -0.0006
-7 -4 18 5.7730 -0.0001
-7 -4 19 -2.9547 -0.0019
-7 -4 20 -1.3198 0.0034
-7 -4 21 3.2526 0.0005
-7 -4 22 -2.9210 -0.0079
-7 -4 23 1.8387 0.0110
-7 -3 1 10.8733 -0.0138
-7 -3 2 -3.7233 0.0134
-7 -3 3 -4.4223 -0.0082
-7 -3 4 5.4325 -0.0006
-7 -3 5 0.8827 0.0078
-7 -3 6 -7.4587 -0.0089
-7 -3 7 6.8531 0.0056
-7 -3 8 2.3438 -0.0022
-7 -3 9 -12.4286 0.0008
-7 -3 10 14.0548 -0.0007
-7 -3 11 -5.5343 0.0017
-7 -3 12 -7.0734 -0.0033
-7 -3 13 14.4087 0.0035
-7 -3 14 -11.3641 -0.0014
-7 -3 15 1.0563 -0.0004
-7 -3 16 8.2595 -0.0007
-7 -3 17 -9.5083 0.0025
-7 -3 18 3.2353 -0.0010
-7 -3 19 4.0435 -0.0021
-7 -3 20 -6.7678 0.0014
-7 -3 21 4.9475 0.0031
-7 -3 22 -2.4380 -0.0043
-7 -3 23 1.1053 -0.0017
-7 -2 1 13.1663 -0.0086
-7 -2 2 -2.6984 0.0008
-7 -2 3 1.3919 0.0085
-7 -2 4 -9.3501 -0.0146
-7 -2 5 17.3580 0.0129
-7 -2 6 -15.9241 -0.0056
-7 -2 7 4.9510 -0.0005
-7 -2 8 7.3878 0.0014
-7 -2 9 -11.5464 0.0006
-7 -2 10 4.5614 -0.0022
-7 -2 11 6.4030 0.0029
-7 -2 12 -11.7460 -0.0027
-7 -2 13 7.1555 0.0011
-7 -2 14 3.9936 0.0002
-7 -2 15 -12.9633 0.0007
-7 -2 16 13.3344 -0.0022
-7 -2 17 -6.0905 0.0004
-7 -2 18 -1.3153 0.0033
-7 -2 19 2.7005 -0.0036
-7 -2 20 0.6670 -0.0001
-7 -2 21 -3.6002 0.0008
-7 -2 22 3.2715 0.0062
-7 -2 23 -1.5297 -0.0151
-7 -1 1 -17.5779 0.0065
-7 -1 2 13.8013 -0.0157
-7 -1 3 -1.3354 0.0188
-7 -1 4 -9.8827 -0.0135
-7 -1 5 10.8876 0.0029
-7 -1 6 -1.3718 0.0052
-7 -1 7 -9.0125 -0.0058
-7 -1 8 10.4564 0.0020
-7 -1 9 -2.1283 0.0007
-7 -1 10 -9.0162 -0.0009
-7 -1 11 13.7006 0.0007
-7 -1 12 -8.2657 -0.0006
-7 -1 13 -2.5445 0.0005
-7 -1 14 10.8666 -0.0009
-7 -1 15 -11.2579 0.0013
-7 -1 16 5.0933 0.0003
-7 -1 17 1.0437 -0.0028
-7 -1 18 -1.7979 0.0019
-7 -1 19 -2.0979 0.0022
-7 -1 20 5.0098 -0.0029
-7 -1 21 -3.9889 -0.0036
-7 -1 22 1.2644 0.0107
-7 -1 23 -0.0198 -0.0096
-7 0 1 -8.2766 0.0272
-7 0 2 -5.1649 -0.0184
-7 0 3 14.7542 0.0052
-7 0 4 -13.5969 0.0073
-7 0 5 4.0334 -0.0136
-7 0 6 5.0536 0.0108
-7 0 7 -5.2825 -0.0033
-7 0 8 -3.7065 -0.0013
-7 0 9 13.3728 0.0004
-7 0 10 -15.9303 0.0021
-7 0 11 10.4106 -0.0030
-7 0 12 -1.5914 0.0024
-7 0 13 -3.7211 -0.0014
-7 0 14 2.4202 0.0005
-7 0 15 3.5213 -0.0007
-7 0 16 -8.9915 0.0016
-7 0 17 9.8663 -0.0005
-7 0 18 -6.7618 -0.0027
-7 0 19 3.2590 0.0029
-7 0 20 -2.1523 0.0022
-7 0 21 2.4513 -0.0055
-7 0 22 -1.5830 -0.0010
-7 0 23 -0.4143 0.0134
-7 1 1 8.4178 -0.0012
-7 1 2 -8.4005 0.0149
-7 1 3 0.6693 -0.0214
-7 1 4 11.1574 0.0198
-7 1 5 -18.5184 -0.0116
-7 1 6 16.3411 0.0013
-7 1 7 -7.4990 0.0041
-7 1 8 -0.7827 -0.0023
-7 1 9 2.3287 -0.0021
-7 1 10 2.2326 0.0038
-7 1 11 -6.8623 -0.0027
-7 1 12 7.2937 0.0014
-7 1 13 -3.1872 -0.0006
-7 1 14 -2.6761 0.0004
-7 1 15 6.9181 -0.0009
-7 1 16 -7.8734 0.0008
-7 1 17 6.0594 0.0014
-7 1 18 -3.9148 -0.0023
-7 1 19 2.8284 -0.0016
-7 1 20 -2.3750 0.0061
-7 1 21 1.6949 -0.0023
-7 1 22 -0.5238 -0.0093
-7 1 23 -0.1721 0.0167
-7 2 1 -3.3162 -0.0259
-7 2 2 11.8348 0.0243
-7 2 3 -19.0205 -0.0158
-7 2 4 19.7209 0.0055
-7 2 5 -12.7091 0.0028
-7 2 6 2.7964 -0.0057
-7 2 7 2.4814 0.0026
-7 2 8 -0.6637 0.0022
-7 2 9 -4.8869 -0.0036
-7 2 10 9.0353 0.0019
-7 2 11 -8.6344 -0.0007
-7 2 12 5.3165 0.0011
-7 2 13 -2.5472 -0.0016
-7 2 14 2.0602 0.0017
-7 2 15 -3.3056 -0.0020
-7 2 16 4.5269 0.0007
-7 2 17 -4.9115 0.0024
-7 2 18 4.4493 -0.0028
-7 2 19 -3.8669 -0.0021
-7 2 20 3.7014 0.0057
-7 2 21 -3.1814 -0.0014
-7 2 22 2.0023 -0.0058
-7 2 23 -0.6696 0.0053
-7 3 1 1.2928 -0.0164
-7 3 2 -3.1440 0.0039
-7 3 3 9.1296 0.0061
-7 3 4 -17.8378 -0.0105
-7 3 5 23.4637 0.0092
-7 3 6 -21.7889 -0.0041
-7 3 7 13.3231 -0.0011
-7 3 8 -3.8190 0.0028
-7 3 9 -0.9569 -0.0014
-7 3 10 0.6588 0.0001
-7 3 11 1.4103 -0.0004
-7 3 12 -1.7271 0.0008
-7 3 13 -0.5795 -0.0004
-7 3 14 3.4001 0.0011
-7 3 15 -4.3704 -0.0026
-7 3 16 2.9226 0.0017
-7 3 17 -1.1326 0.0014
-7 3 18 0.9912 -0.0015
-7 3 19 -2.1941 -0.0019
-7 3 20 3.1741 0.0015
-7 3 21 -2.4561 0.0066
-7 3 22 0.6650 -0.0138
-7 4 1 8.3067 0.0097
-7 4 2 -11.0496 -0.0140
-7 4 3 13.7238 0.0115
-7 4 4 -13.4545 -0.0050
-7 4 5 7.4045 -0.0019
-7 4 6 1.6768 0.0059
-7 4 7 -7.8707 -0.0062
-7 4 8 7.5016 0.0039
-7 4 9 -1.9252 -0.0017
-7 4 10 -3.3981 0.0007
-7 4 11 4.5202 0.0001
-7 4 12 -2.0467 -0.0011
-7 4 13 -0.5347 0.0014
-7 4 14 0.2291 -0.0000
-7 4 15 2.5862 -0.0014
-7 4 16 -5.0862 0.0005
-7 4 17 4.4566 0.0011
-7 4 18 -0.8896 0.0005
-7 4 19 -2.1887 -0.0042
-7 4 20 2.4958 0.0031
-7 4 21 -0.6974 0.0044
-7 4 22 -0.8958 -0.0096
-7 5 1 -7.5047 0.0171
-7 5 2 9.7314 -0.0099
-7 5 3 -11.5937 0.0002
-7 5 4 14.0048 0.0074
-7 5 5 -16.4676 -0.0103
-7 5 6 15.5916 0.0084
-7 5 7 -9.0586 -0.0045
-7 5 8 -0.2731 0.0019
-7 5 9 6.9441 -0.0012
-7 5 10 -7.6590 0.0013
-7 5 11 4.1120 -0.0015
-7 5 12 -0.9502 0.0018
-7 5 13 1.2404 -0.0017
-7 5 14 -4.2315 0.0015
-7 5 15 6.1778 -0.0013
-7 5 16 -4.5620 0.0003
-7 5 17 0.5241 0.0007
-7 5 18 2.6267 0.0009
-7 5 19 -2.3057 -0.0043
-7 5 20 -0.3226 0.0036
-7 5 21 2.1174 0.0030
-7 6 1 -6.0949 0.0068
-7 6 2 4.2731 0.0047
-7 6 3 -2.7047 -0.0121
-7 6 4 1.6962 0.0136
-7 6 5 -0.0747 -0.0095
-7 6 6 -3.3847 0.0028
-7 6 7 7.7008 0.0017
-7 6 8 -9.3478 -0.0020
-7 6 9 6.3017 0.0006
-7 6 10 -0.6681 0.0002
-7 6 11 -3.1633 -0.0006
-7 6 12 2.7170 0.0007
-7 6 13 0.5328 -0.0002
-7 6 14 -3.2558 0.0001
-7 6 15 2.9975 -0.0011
-7 6 16 -0.5644 0.0010
-7 6 17 -0.8364 0.0008
-7 6 18 -0.3193 -0.0005
-7 6 19 2.7031 -0.0025
-7 6 20 -3.7887 0.0023
-7 7 1 7.0823 -0.0147
-7 7 2 -7.8641 0.0179
-7 7 3 6.1997 -0.0132
-7 7 4 -3.4892 0.0042
-7 7 5 1.4114 0.0050
-7 7 6 -0.0250 -0.0099
-7 7 7 -1.9929 0.0083
-7 7 8 5.5060 -0.0032
-7 7 9 -9.2761 0.0005
-7 7 10 10.9980 -0.0013
-7 7 11 -9.4194 0.0021
-7 7 12 5.6278 -0.0016
-7 7 13 -2.3716 0.0009
-7 7 14 1.3318 0.0000
-7 7 15 -2.2323 -0.0009
-7 7 16 3.3878 -0.0001
-7 7 17 -3.0302 0.0023
-7 7 18 1.5524 -0.0014
-7 7 19 -0.5571 -0.0021
-7 7 20 0.5864 0.0015
-7 8 1 5.6629 -0.0129
-7 8 2 -2.3067 0.0056
-7 8 3 -1.0671 0.0039
-7 8 4 2.8262 -0.0097
-7 8 5 -2.9076 0.0101
-7 8 6 2.3725 -0.0063
-7 8 7 -1.9906 0.0008
-7 8 8 1.6324 0.0018
-7 8 9 -0.7606 0.0010
-7 8 10 -0.4324 -0.0050
-7 8 11 1.4227 0.0048
-7 8 12 -1.9057 -0.0021
-7 8 13 1.1599 0.0013
-7 8 14 0.9465 -0.0021
-7 8 15 -3.3637 0.0016
-7 8 16 4.7791 -0.0002
-7 8 17 -4.4133 -0.0014
-7 8 18 2.9695 0.0047
-7 8 19 -1.6654 -0.0081
-7 9 1 -1.6279 -0.0005
-7 9 2 2.4526 -0.0095
-7 9 3 -1.0269 0.0136
-7 9 4 -2.3483 -0.0105
-7 9 5 5.7960 0.0053
-7 9 6 -8.0271 -0.0018
-7 9 7 9.1576 0.0000
-7 9 8 -9.3116 -0.0007
-7 9 9 8.4426 0.0035
-7 9 10 -6.7347 -0.0045
-7 9 11 4.8597 0.0019
-7 9 12 -3.6051 -0.0005
-7 9 13 2.5199 0.0038
-7 9 14 -1.0321 -0.0070
-7 9 15 -0.1506 0.0047
-7 9 16 0.3048 0.0005
-7 9 17 0.3799 -0.0040
-7 9 18 -0.9211 0.0060
-7 10 1 -6.9784 0.0163
-7 10 2 5.0868 -0.0177
-7 10 3 -2.2256 0.0117
-7 10 4 -0.1510 -0.0035
-7 10 5 0.4413 -0.0004
-7 10 6 1.0233 0.0009
-7 10 7 -2.3439 -0.0019
-7 10 8 2.8775 0.0022
-7 10 9 -3.0000 -0.0003
-7 10 10 2.5382 -0.0005
-7 10 11 -1.2448 -0.0012
-7 10 12 -0.6229 0.0008
-7 10 13 2.1152 0.0033
-7 10 14 -2.5922 -0.0045
-7 10 15 2.5218 -0.0004
-7 10 16 -2.2527 0.0053
-7 11 1 -1.2987 0.0048
-7 11 2 0.1214 -0.0008
-7 11 3 0.2933 -0.0035
-7 11 4 1.4033 0.0041
-7 11 5 -4.5219 -0.0010
-7 11 6 6.6170 -0.0011
-7 11 7 -5.9749 0.0004
-7 11 8 3.8192 -0.0004
-7 11 9 -2.2971 0.0016
-7 11 10 1.5462 0.0003
-7 11 12 -0.0650 0.0051
-7 11 13 0.5039 -0.0012
-7 11 14 -0.2873 0.0009
-7 11 15 -0.1720 -0.0058
-7 12 1 6.8362 -0.0083
-7 12 2 -6.2564 0.0078
-7 12 3 3.9980 -0.0046
-7 12 4 -0.5991 0.0001
-7 12 5 -1.3683 0.0037
-7 12 6 0.3528 -0.0044
-7 12 7 2.1627 0.0031
-7 12 8 -3.3678 -0.0022
-7 12 9 2.4000 0.0006
-7 12 10 -1.0317 0.0035
-7 12 11 0.7309 -0.0060
-7 12 12 -0.9725 0.0025
-7 12 13 0.7721 0.0027
-7 13 1 1.6004 -0.0087
-7 13 2 -0.4399 0.0056
-7 13 3 -1.2030 -0.0012
-7 13 4 1.7929 -0.0027
-7 13 5 -0.4034 0.0052
-7 13 6 -1.8228 -0.0055
-7 13 7 2.6898 0.0043
-7 13 8 -1.6194 -0.0024
-7 13 9 0.2376 -0.0001
-7 13 10 -0.0557 0.0026
-7 14 1 -4.8254 -0.0086
-7 14 2 4.3834 0.0039
-7 14 3 -3.1742 0.0009
-7 14 4 1.2611 -0.0026
-7 14 5 0.4729 0.0015
-7 14 6 -1.1079 0.0006
-6 -20 1 -2.2293 0.0128
-6 -19 1 0.1698 0.0063
-6 -19 2 -1.2415 0.0001
-6 -19 3 0.6675 -0.0041
-6 -19 4 0.8932 0.0040
-6 -19 5 -2.0350 -0.0028
-6 -19 6 2.1298 0.0024
-6 -19 7 -1.5593 -0.0021
-6 -18 1 6.3243 -0.0062
-6 -18 2 -7.3600 0.0081
-6 -18 3 5.6866 -0.0059
-6 -18 4 -3.0720 0.0029
-6 -18 5 1.3428 -0.0020
-6 -18 6 -1.0924 0.0019
-6 -18 7 1.8993 -0.0005
-6 -18 8 -2.7542 -0.0013
-6 -18 9 2.6023 0.0019
-6 -18 10 -1.2544 -0.0015
-6 -17 1 4.0464 -0.0014
-6 -17 2 -2.2072 0.0006
-6 -17 3 -0.5993 0.0006
-6 -17 4 2.1226 -0.0005
-6 -17 5 -1.3363 0.0003
-6 -17 6 -0.8970 -0.0012
-6 -17 7 2.8565 0.0024
-6 -17 8 -3.1103 -0.0019
-6 -17 9 1.4773 0.0006
-6 -17 10 0.3639 -0.0008
-6 -17 11 -0.5131 0.0026
-6 -17 12 -0.9150 -0.0040
-6 -16 1 -4.5899 -0.0044
-6 -16 2 6.7547 0.0009
-6 -16 3 -7.0268 0.0020
-6 -16 4 5.3436 -0.0042
-6 -16 5 -2.4508 0.0054
-6 -16 6 -0.3844 -0.0047
-6 -16 7 1.9731 0.0018
-6 -16 8 -2.2047 0.0010
-6 -16 9 1.8574 -0.0011
-6 -16 10 -2.0371 -0.0012
-6 -16 11 2.9445 0.0027
-6 -16 12 -3.3709 -0.0017
-6 -16 13 2.5609 0.0002
-6 -16 14 -1.2718 -0.0004
-6 -15 1 -2.0801 0.0083
-6 -15 2 2.1752 -0.0111
-6 -15 3 -2.1565 0.0109
-6 -15 4 2.2279 -0.0082
-6 -15 5 -1.7400 0.0041
-6 -15 6 0.3219 -0.0000
-6 -15 7 0.9672 -0.0022
-6 -15 8 -1.1456 0.0016
-6 -15 9 0.1773 0.0004
-6 -15 10 1.2636 -0.0007
-6 -15 11 -2.0762 -0.0013
-6 -15 12 1.7790 0.0029
-6 -15 13 -0.6157 -0.0019
-6 -15 14 -0.6862 -0.0002
-6 -15 15 1.1125 -0.0000
-6 -15 16 -0.5746 0.0026
-6 -14 1 6.8900 0.0130
-6 -14 2 -3.7553 -0.0104
-6 -14 3 -0.1840 0.0046
-6 -14 4 2.3881 0.0004
-6 -14 5 -1.7427 -0.0017
-6 -14 6 -0.3085 0.0000
-6 -14 7 0.6187 0.0021
-6 -14 8 2.1075 -0.0028
-6 -14 9 -5.8279 0.0018
-6 -14 10 7.7846 0.0003
-6 -14 11 -6.7328 -0.0016
-6 -14 12 3.8707 0.0009
-6 -14 13 -1.9093 0.0005
-6 -14 14 2.2381 0.0005
-6 -14 15 -3.8813 -0.0043
-6 -14 16 4.4662 0.0066
-6 -14 17 -2.8456 -0.0041
-6 -13 1 7.2092 0.0033
-6 -13 2 -1.7505 0.0014
-6 -13 3 -0.3909 -0.0049
-6 -13 4 -2.2468 0.0034
-6 -13 5 6.9371 0.0017
-6 -13 6 -9.1466 -0.0052
-6 -13 7 6.6319 0.0042
-6 -13 8 -1.6237 -0.0016
-6 -13 9 -1.2951 0.0002
-6 -13 10 0.2697 0.0001
-6 -13 11 2.4728 -0.0002
-6 -13 12 -3.8207 -0.0003
-6 -13 13 2.2921 0.0011
-6 -13 14 0.7398 -0.0008
-6 -13 15 -2.4458 0.0005
-6 -13 16 1.5130 -0.0027
-6 -13 17 0.8056 0.0069
-6 -13 18 -1.8370 -0.0087
-6 -12 1 -7.2520 -0.0056
-6 -12 2 9.5110 0.0065
-6 -12 3 -4.5549 -0.0038
-6 -12 4 -3.8531 -0.0023
-6 -12 5 9.4981 0.0071
-6 -12 6 -8.7132 -0.0068
-6 -12 7 3.7331 0.0037
-6 -12 8 -0.2123 -0.0024
-6 -12 9 1.3161 0.0026
-6 -12 10 -5.0705 -0.0012
-6 -12 11 7.2171 -0.0012
-6 -12 12 -6.1716 0.0017
-6 -12 13 3.4154 -0.0007
-6 -12 14 -1.1723 0.0005
-6 -12 15 1.1350 -0.0007
-6 -12 16 -2.8921 -0.0009
-6 -12 17 4.2830 0.0024
-6 -12 18 -3.4191 -0.0005
-6 -12 19 0.7039 -0.0039
-6 -11 1 -21.9894 -0.0096
-6 -11 2 17.1537 0.0029
-6 -11 3 -6.7314 0.0036
-6 -11 4 -0.8108 -0.0080
-6 -11 5 0.3368 0.0081
-6 -11 6 5.9349 -0.0046
-6 -11 7 -11.0783 0.0020
-6 -11 8 10.0560 -0.0020
-6 -11 9 -4.5829 0.0022
-6 -11 10 -0.0592 -0.0010
-6 -11 11 0.9241 0.0005
-6 -11 12 0.6775 -0.0015
-6 -11 13 -1.6068 0.0016
-6 -11 14 0.2948 0.0001
-6 -11 15 3.0016 -0.0010
-6 -11 16 -6.1828 -0.0000
-6 -11 17 6.3339 0.0003
-6 -11 18 -2.9989 0.0009
-6 -11 19 -1.1799 -0.0008
-6 -11 20 2.9637 -0.0022
-6 -10 1 -5.0314 0.0086
-6 -10 2 -5.3917 -0.0131
-6 -10 3 12.8251 0.0116
-6 -10 4 -10.6521 -0.0066
-6 -10 5 0.8719 0.0005
-6 -10 6 7.7708 0.0039
-6 -10 7 -9.1481 -0.0046
-6 -10 8 4.4677 0.0029
-6 -10 9 0.2071 -0.0015
-6 -10 10 -0.5843 0.0015
-6 -10 11 -2.0189 -0.0016
-6 -10 12 3.8761 0.0014
-6 -10 13 -2.6751 -0.0013
-6 -10 14 -0.7331 0.0008
-6 -10 15 3.4477 0.0002
-6 -10 16 -3.2012 -0.0004
-6 -10 17 -0.0972 -0.0003
-6 -10 18 3.4476 -0.0004
-6 -10 19 -3.7088 0.0036
-6 -10 20 1.1289 -0.0058
-6 -10 21 1.4493 0.0046
-6 -9 1 15.0418 0.0159
-6 -9 2 -22.0398 -0.0079
-6 -9 3 18.9785 -0.0022
-6 -9 4 -8.4676 0.0091
-6 -9 5 -1.7094 -0.0109
-6 -9 6 4.6833 0.0084
-6 -9 7 -1.2926 -0.0038
-6 -9 8 -2.2704 0.0002
-6 -9 9 2.0864 0.0004
-6 -9 10 1.0861 0.0015
-6 -9 11 -3.6379 -0.0028
-6 -9 12 3.4772 0.0019
-6 -9 13 -1.8090 0.0000
-6 -9 14 1.1759 -0.0009
-6 -9 15 -3.2460 0.0000
-6 -9 16 6.5270 0.0010
-6 -9 17 -7.9080 -0.0003
-6 -9 18 5.8974 -0.0016
-6 -9 19 -1.9691 0.0012
-6 -9 20 -0.6771 0.0030
-6 -9 21 0.9386 -0.0075
-6 -9 22 -0.1978 0.0078
-6 -8 1 4.0419 -0.0048
-6 -8 2 -3.7813 0.0130
-6 -8 3 -2.4167 -0.0168
-6 -8 4 7.5139 0.0151
-6 -8 5 -7.7798 -0.0097
-6 -8 6 3.9927 0.0038
-6 -8 7 0.2246 -0.0000
-6 -8 8 -1.6338 -0.0004
-6 -8 9 1.1222 -0.0015
-6 -8 10 -0.9076 0.0027
-6 -8 11 1.4644 -0.0014
-6 -8 12 -1.8375 -0.0008
-6 -8 13 0.4781 0.0010
-6 -8 14 2.5003 0.0008
-6 -8 15 -5.2574 -0.0015
-6 -8 16 5.5850 -0.0006
-6 -8 17 -3.1844 0.0030
-6 -8 18 0.8569 -0.0024
-6 -8 19 -0.8224 -0.0016
-6 -8 20 2.4294 0.0052
-6 -8 21 -3.3141 -0.0050
-6 -8 22 2.3751 0.0014
-6 -7 1 3.4696 -0.0133
-6 -7 2 -2.8493 0.0138
-6 -7 3 2.3331 -0.0105
-6 -7 4 -3.4051 0.0047
-6 -7 5 4.5951 0.0004
-6 -7 6 -4.7351 -0.0024
-6 -7 7 5.2821 0.0008
-6 -7 8 -7.1232 0.0022
-6 -7 9 9.7806 -0.0034
-6 -7 10 -11.6943 0.0017
-6 -7 11 10.7503 0.0008
-6 -7 12 -7.3141 -0.0011
-6 -7 13 3.6200 -0.0007
-6 -7 14 -2.0751 0.0013
-6 -7 15 3.7232 0.0008
-6 -7 16 -6.7564 -0.0029
-6 -7 17 8.2111 0.0017
-6 -7 18 -6.2176 0.0014
-6 -7 19 2.4326 -0.0027
-6 -7 20 -0.2560 0.0011
-6 -7 21 0.3823 0.0013
-6 -7 22 -1.0478 -0.0022
-6 -7 23 0.6920 0.0012
-6 -6 1 10.0087 -0.0124
-6 -6 2 -8.0272 0.0050
-6 -6 3 3.8903 0.0027
-6 -6 4 3.2474 -0.0078
-6 -6 5 -10.3874 0.0081
-6 -6 6 12.9041 -0.0041
-6 -6 7 -8.0204 -0.0009
-6 -6 8 -0.9114 0.0031
-6 -6 9 6.7935 -0.0016
-6 -6 10 -6.2317 -0.0009
-6 -6 11 0.8758 0.0012
-6 -6 12 4.2351 0.0006
-6 -6 13 -4.6760 -0.0020
-6 -6 14 0.4171 0.0009
-6 -6 15 5.2439 0.0005
-6 -6 16 -7.9235 0.0003
-6 -6 17 6.1776 -0.0020
-6 -6 18 -2.6468 0.0015
-6 -6 19 0.9513 0.0015
-6 -6 20 -2.3207 -0.0032
-6 -6 21 4.1342 0.0017
-6 -6 22 -3.9853 0.0010
-6 -6 23 2.3831 -0.0028
-6 -5 1 -7.3887 0.0088
-6 -5 2 12.0345 -0.0159
-6 -5 3 -21.9289 0.0155
-6 -5 4 31.3401 -0.0090
-6 -5 5 -31.8015 0.0001
-6 -5 6 20.9648 0.0065
-6 -5 7 -5.4376 -0.0078
-6 -5 8 -4.1350 0.0047
-6 -5 9 1.1556 -0.0006
-6 -5 10 10.1663 -0.0011
-6 -5 11 -19.7774 0.0001
-6 -5 12 21.1043 0.0012
-6 -5 13 -14.2430 -0.0011
-6 -5 14 5.3255 0.0002
-6 -5 15 -0.7708 -0.0005
-6 -5 16 2.4344 0.0018
-6 -5 17 -6.6943 -0.0018
-6 -5 18 7.8651 0.0001
-6 -5 19 -4.5769 0.0005
-6 -5 20 0.0589 0.0018
-6 -5 21 1.8883 -0.0046
-6 -5 22 -0.8603 0.0046
-6 -5 23 -0.5384 -0.0023
-6 -4 1 8.0765 0.0292
-6 -4 2 -2.8534 -0.0200
-6 -4 3 -4.4394 0.0046
-6 -4 4 2.9431 0.0080
-6 -4 5 10.2754 -0.0128
-6 -4 6 -26.4247 0.0106
-6 -4 7 32.0258 -0.0055
-6 -4 8 -21.4037 0.0011
-6 -4 9 1.0121 0.0005
-6 -4 10 15.4531 0.0002
-6 -4 11 -17.9484 -0.0012
-6 -4 12 8.5392 0.0014
-6 -4 13 3.3408 -0.0009
-6 -4 14 -8.8100 0.0011
-6 -4 15 5.3139 -0.0017
-6 -4 16 2.0470 0.0013
-6 -4 17 -6.2139 0.0002
-6 -4 18 4.2940 -0.0008
-6 -4 19 -0.2092 -0.0006
-6 -4 20 -0.8102 0.0020
-6 -4 21 -1.4944 -0.0003
-6 -4 22 3.8026 -0.0033
-6 -4 23 -3.6203 0.0046
-6 -4 24 1.9438 -0.0013
-6 -3 1 20.4046 0.0100
-6 -3 2 -9.8797 0.0102
-6 -3 3 7.9902 -0.0197
-6 -3 4 -18.5022 0.0160
-6 -3 5 31.8321 -0.0062
-6 -3 6 -34.4023 -0.0014
-6 -3 7 20.9213 0.0040
-6 -3 8 0.0347 -0.0032
-6 -3 9 -13.5500 0.0012
-6 -3 10 11.2729 0.0004
-6 -3 11 3.6200 -0.0008
-6 -3 12 -18.9019 0.0006
-6 -3 13 23.8902 -0.0008
-6 -3 14 -17.3099 0.0014
-6 -3 15 5.6254 -0.0008
-6 -3 16 2.3024 -0.0009
-6 -3 17 -2.9630 0.0015
-6 -3 18 0.1141 -0.0001
-6 -3 19 0.3841 -0.0004
-6 -3 20 2.7919 -0.0027
-6 -3 21 -5.3185 0.0073
-6 -3 22 4.2836 -0.0077
-6 -3 23 -1.3679 0.0014
-6 -3 24 -0.4024 0.0070
-6 -2 1 -27.1662 -0.0340
-6 -2 2 30.7280 0.0351
-6 -2 3 -19.9469 -0.0200
-6 -2 4 5.0132 0.0015
-6 -2 5 0.6743 0.0086
-6 -2 6 7.0874 -0.0094
-6 -2 7 -20.0221 0.0066
-6 -2 8 25.0565 -0.0042
-6 -2 9 -15.5121 0.0027
-6 -2 10 -2.5410 -0.0020
-6 -2 11 17.1869 0.0022
-6 -2 12 -19.8117 -0.0020
-6 -2 13 10.2205 0.0008
-6 -2 14 3.1747 -0.0002
-6 -2 15 -11.2399 0.0010
-6 -2 16 10.4570 -0.0008
-6 -2 17 -4.7008 -0.0019
-6 -2 18 0.6725 0.0038
-6 -2 19 -0.5290 -0.0013
-6 -2 20 1.3340 -0.0040
-6 -2 21 0.2582 0.0055
-6 -2 22 -3.0275 -0.0010
-6 -2 23 3.5578 -0.0046
-6 -2 24 -1.6968 0.0048
-6 -1 1 -25.6183 -0.0218
-6 -1 2 13.3463 0.0041
-6 -1 3 0.7954 0.0136
-6 -1 4 -5.3097 -0.0195
-6 -1 5 -2.1290 0.0139
-6 -1 6 13.2460 -0.0064
-6 -1 7 -17.0726 0.0032
-6 -1 8 9.9639 -0.0027
-6 -1 9 2.6209 0.0023
-6 -1 10 -10.6087 -0.0022
-6 -1 11 8.4301 0.0022
-6 -1 12 0.8635 -0.0012
-6 -1 13 -10.3783 0.0002
-6 -1 14 13.4614 -0.0010
-6 -1 15 -8.4389 0.0022
-6 -1 16 -0.3598 -0.0007
-6 -1 17 6.9289 -0.0022
-6 -1 18 -8.3997 0.0022
-6 -1 19 7.3012 0.0009
-6 -1 20 -6.8286 -0.0021
-6 -1 21 6.9202 -0.0007
-6 -1 22 -5.4770 0.0027
-6 -1 23 1.9805 0.0010
-6 -1 24 0.9659 -0.0085
-6 0 1 16.6387 0.0073
-6 0 2 -24.2729 -0.0222
-6 0 3 21.8304 0.0250
-6 0 4 -10.1471 -0.0154
-6 0 5 -2.5541 0.0038
-6 0 6 7.8544 0.0009
-6 0 7 -4.2003 -0.0001
-6 0 8 -2.0025 -0.0009
-6 0 9 4.0425 0.0010
-6 0 10 -0.3383 -0.0014
-6 0 11 -5.7501 0.0015
-6 0 12 8.7547 -0.0006
-6 0 13 -6.7854 0.0004
-6 0 14 1.4744 -0.0015
-6 0 15 4.1563 0.0010
-6 0 16 -6.8694 0.0017
-6 0 17 5.9462 -0.0029
-6 0 18 -3.1912 0.0006
-6 0 19 1.3299 0.0014
-6 0 20 -0.9164 0.0005
-6 0 21 0.3187 -0.0030
-6 0 22 0.9416 0.0012
-6 0 23 -1.9246 0.0035
-6 0 24 1.5707 -0.0057
-6 1 1 12.6065 0.0279
-6 1 2 -7.7856 -0.0253
-6 1 3 -2.0955 0.0118
-6 1 4 9.0815 0.0031
-6 1 5 -8.3024 -0.0091
-6 1 6 1.8293 0.0064
-6 1 7 4.1884 -0.0026
-6 1 8 -4.7366 0.0014
-6 1 9 1.0364 -0.0010
-6 1 10 1.7033 0.0002
-6 1 11 -1.4453 -0.0004
-6 1 12 -0.3820 0.0009
-6 1 13 0.9706 0.0001
-6 1 14 1.0331 -0.0010
-6 1 15 -4.1560 -0.0004
-6 1 16 6.7497 0.0018
-6 1 17 -7.8000 0.0005
-6 1 18 7.5463 -0.0038
-6 1 19 -6.9033 0.0024
-6 1 20 6.4395 0.0027
-6 1 21 -6.2527 -0.0048
-6 1 22 5.3915 0.0020
-6 1 23 -3.6781 0.0000
-6 1 24 1.9646 0.0027
-6 2 1 0.8625 0.0099
-6 2 2 4.5295 0.0040
-6 2 3 -5.3060 -0.0156
-6 2 4 -1.2561 0.0169
-6 2 5 10.4899 -0.0087
-6 2 6 -14.9566 0.0003
-6 2 7 12.7798 0.0022
-6 2 8 -7.9998 -0.0009
-6 2 9 5.7190 -0.0005
-6 2 10 -7.5029 0.0017
-6 2 11 9.0972 -0.0026
-6 2 12 -6.5410 0.0014
-6 2 13 0.9312 0.0013
-6 2 14 3.8335 -0.0020
-6 2 15 -4.4404 0.0002
-6 2 16 1.3683 -0.0002
-6 2 17 2.2398 0.0030
-6 2 18 -3.3509 -0.0029
-6 2 19 1.3370 -0.0020
-6 2 20 1.3243 0.0045
-6 2 21 -2.4194 0.0022
-6 2 22 1.7081 -0.0126
-6 2 23 -0.6248 0.0157
-6 3 1 -8.6860 -0.0152
-6 3 2 9.4523 0.0190
-6 3 3 -3.3513 -0.0142
-6 3 4 -4.0383 0.0032
-6 3 5 6.0872 0.0055
-6 3 6 -1.1098 -0.0069
-6 3 7 -4.8795 0.0036
-6 3 8 5.2819 -0.0008
-6 3 9 -0.6184 -0.0010
-6 3 10 -4.0287 0.0023
-6 3 11 4.1858 -0.0017
-6 3 12 -0.4197 -0.0010
-6 3 13 -2.0318 0.0029
-6 3 14 -0.4420 -0.0017
-6 3 15 6.8703 0.0004
-6 3 16 -12.5703 -0.0021
-6 3 17 13.2556 0.0037
-6 3 18 -8.7570 -0.0002
-6 3 19 2.6520 -0.0050
-6 3 20 0.4585 0.0029
-6 3 21 0.2395 0.0069
-6 3 22 -1.8016 -0.0132
-6 3 23 1.8221 0.0077
-6 4 1 -16.2230 -0.0185
-6 4 2 10.8697 0.0104
-6 4 3 -4.7115 0.0003
-6 4 4 4.3363 -0.0073
-6 4 5 -9.9283 0.0073
-6 4 6 16.0378 -0.0038
-6 4 7 -16.5181 0.0016
-6 4 8 10.4418 -0.0012
-6 4 9 -3.9710 0.0005
-6 4 10 2.4610 -0.0002
-6 4 11 -5.1606 0.0012
-6 4 12 7.5039 -0.0017
-6 4 13 -5.3560 0.0002
-6 4 14 -0.7137 0.0018
-6 4 15 6.1520 -0.0013
-6 4 16 -6.3631 -0.0013
-6 4 17 0.8590 0.0021
-6 4 18 5.5610 0.0002
-6 4 19 -7.6924 -0.0017
-6 4 20 4.3358 -0.0016
-6 4 21 0.7660 0.0063
-6 4 22 -2.9861 -0.0050
-6 4 23 1.9486 -0.0032
-6 5 1 10.2837 0.0003
-6 5 2 -14.5068 -0.0075
-6 5 3 13.5115 0.0098
-6 5 4 -6.6164 -0.0056
-6 5 5 -0.9795 -0.0014
-6 5 6 3.3420 0.0055
-6 5 7 0.0534 -0.0057
-6 5 8 -4.8796 0.0045
-6 5 9 5.5284 -0.0030
-6 5 10 -1.0306 0.0004
-6 5 11 -3.9583 0.0018
-6 5 12 5.0602 -0.0017
-6 5 13 -1.9422 0.0001
-6 5 14 -1.6538 0.0012
-6 5 15 1.5918 -0.0018
-6 5 16 2.6932 0.0015
-6 5 17 -7.5446 -0.0005
-6 5 18 7.8383 -0.0002
-6 5 19 -2.8186 0.0003
-6 5 20 -3.1612 -0.0018
-6 5 21 5.5704 0.0050
-6 5 22 -3.7167 -0.0055
-6 6 1 13.8231 0.0148
-6 6 2 -10.8133 -0.0106
-6 6 3 5.5936 0.0028
-6 6 4 -0.9641 0.0057
-6 6 5 0.2890 -0.0101
-6 6 6 -4.4815 0.0088
-6 6 7 9.4296 -0.0054
-6 6 8 -10.4106 0.0034
-6 6 9 6.3333 -0.0022
-6 6 10 -0.2972 0.0007
-6 6 11 -3.1180 -0.0001
-6 6 12 2.5122 0.0004
-6 6 13 -0.2619 -0.0006
-6 6 14 -0.1848 0.0013
-6 6 15 -2.1911 -0.0026
-6 6 16 4.8698 0.0024
-6 6 17 -4.8609 -0.0007
-6 6 18 1.5289 0.0016
-6 6 19 2.1989 -0.0052
-6 6 20 -2.8065 0.0051
-6 6 21 0.5301 0.0010
-6 7 1 -10.2812 0.0045
-6 7 2 10.6500 0.0054
-6 7 3 -9.4245 -0.0117
-6 7 4 5.7559 0.0132
-6 7 5 -0.6015 -0.0090
-6 7 6 -3.9499 0.0026
-6 7 7 5.1962 0.0006
-6 7 8 -2.5695 0.0004
-6 7 9 -1.4290 -0.0018
-6 7 10 3.7197 0.0015
-6 7 11 -2.9269 -0.0009
-6 7 12 0.3213 0.0008
-6 7 13 1.7993 -0.0007
-6 7 14 -1.9718 0.0012
-6 7 15 0.6138 -0.0014
-6 7 16 0.3144 -0.0007
-6 7 17 -0.0672 0.0030
-6 7 18 -0.4209 -0.0009
-6 7 19 0.0112 -0.0027
-6 7 20 1.3495 -0.0002
-6 7 21 -2.1641 0.0086
-6 8 1 -1.3483 -0.0185
-6 8 2 -0.7349 0.0187
-6 8 3 2.3783 -0.0140
-6 8 4 -3.3631 0.0073
-6 8 5 2.8515 -0.0001
-6 8 6 -0.8618 -0.0041
-6 8 7 -1.5225 0.0026
-6 8 8 2.9254 0.0012
-6 8 9 -2.5348 -0.0019
-6 8 10 0.4597 0.0000
-6 8 11 2.6899 0.0004
-6 8 12 -5.6731 0.0010
-6 8 13 7.3178 -0.0021
-6 8 14 -7.1033 0.0020
-6 8 15 5.3136 -0.0007
-6 8 16 -3.3522 -0.0013
-6 8 17 2.1197 0.0015
-6 8 18 -1.5057 0.0022
-6 8 19 1.3056 -0.0052
-6 8 20 -1.2044 0.0016
-6 9 1 6.4194 -0.0121
-6 9 2 -2.9132 0.0031
-6 9 3 -0.8446 0.0048
-6 9 4 4.4746 -0.0089
-6 9 5 -7.3501 0.0098
-6 9 6 8.2637 -0.0069
-6 9 7 -6.6726 0.0009
-6 9 8 3.6422 0.0027
-6 9 9 -1.0530 -0.0008
-6 9 10 -0.2556 -0.0022
-6 9 11 1.0118 0.0013
-6 9 12 -1.4348 0.0011
-6 9 13 0.9541 -0.0006
-6 9 14 0.4704 -0.0015
-6 9 15 -2.2890 0.0020
-6 9 16 3.3023 -0.0006
-6 9 17 -2.7963 -0.0017
-6 9 18 1.3339 0.0040
-6 9 19 0.0856 -0.0034
-6 10 1 -4.3568 0.0024
-6 10 2 5.2471 -0.0086
-6 10 3 -4.7536 0.0099
-6 10 4 3.6915 -0.0075
-6 10 5 -2.1068 0.0044
-6 10 6 -0.4331 -0.0007
-6 10 7 2.7843 -0.0025
-6 10 8 -2.8652 0.0013
-6 10 9 0.0652 0.0034
-6 10 10 3.9848 -0.0048
-6 10 11 -6.7444 0.0012
-6 10 12 7.5747 0.0009
-6 10 13 -7.6997 0.0018
-6 10 14 7.7248 -0.0034
-6 10 15 -7.4633 -0.0005
-6 10 16 6.3654 0.0057
-6 10 17 -4.1656 -0.0071
-6 10 18 1.6596 0.0061
-6 11 1 3.0923 0.0104
-6 11 2 -6.5113 -0.0111
-6 11 3 8.5809 0.0074
-6 11 4 -8.8388 -0.0025
-6 11 5 8.1493 -0.0005
-6 11 6 -7.5182 0.0023
-6 11 7 5.9951 -0.0024
-6 11 8 -2.5030 -0.0003
-6 11 9 -1.3681 0.0029
-6 11 10 2.9961 -0.0011
-6 11 11 -1.5387 -0.0020
-6 11 12 -1.1900 0.0002
-6 11 13 2.5438 0.0041
-6 11 14 -1.9768 -0.0025
-6 11 15 0.7298 -0.0044
-6 11 16 -0.1014 0.0077
-6 12 1 4.4155 0.0109
-6 12 2 -2.8968 -0.0072
-6 12 3 -0.1904 0.0018
-6 12 4 2.9255 0.0017
-6 12 5 -3.7697 -0.0020
-6 12 6 2.8250 0.0009
-6 12 7 -1.6528 0.0004
-6 12 8 0.9222 -0.0018
-6 12 9 0.8412 0.0015
-6 12 10 -4.2913 0.0010
-6 12 11 7.4817 -0.0023
-6 12 12 -8.1611 0.0003
-6 12 13 6.0701 0.0003
-6 12 14 -3.0799 0.0040
-6 12 15 1.0919 -0.0080
-6 13 1 -8.6306 -0.0023
-6 13 2 10.6772 0.0049
-6 13 3 -10.9660 -0.0045
-6 13 4 8.8815 0.0015
-6 13 5 -5.2505 0.0021
-6 13 6 1.9075 -0.0038
-6 13 7 0.1009 0.0035
-6 13 8 -1.1623 -0.0023
-6 13 9 2.0441 0.0004
-6 13 10 -2.4018 0.0019
-6 13 11 1.3533 -0.0031
-6 13 12 0.5589 0.0023
-6 13 13 -1.7507 -0.0016
-6 14 1 -1.3847 -0.0172
-6 14 2 -0.2997 0.0117
-6 14 3 2.3145 -0.0046
-6 14 4 -3.8180 -0.0001
-6 14 5 4.1841 0.0023
-6 14 6 -3.3648 -0.0031
-6 14 7 2.0028 0.0028
-6 14 8 -0.7373 -0.0016
-6 14 9 -0.4354 -0.0006
-6 14 10 1.5777 0.0031
-6 15 1 6.4739 -0.0063
-6 15 2 -6.6623 -0.0015
-6 15 3 5.6615 0.0051
-6 15 4 -3.9089 -0.0053
-6 15 5 2.1016 0.0063
-5 -20 1 0.5687 0.0046
-5 -19 1 2.0887 0.0035
-5 -19 2 -2.8356 -0.0009
-5 -19 3 2.2275 0.0004
-5 -19 4 -1.4611 -0.0009
-5 -19 5 1.2072 0.0002
-5 -19 6 -1.2805 0.0008
-5 -19 7 1.4350 -0.0007
-5 -18 1 -2.0560 0.0062
-5 -18 2 3.0475 -0.0026
-5 -18 3 -4.1569 0.0002
-5 -18 4 4.3215 0.0017
-5 -18 5 -3.6025 -0.0029
-5 -18 6 2.3372 0.0026
-5 -18 7 -0.7585 -0.0020
-5 -18 8 -0.4950 0.0023
-5 -18 9 0.5418 -0.0028
-5 -18 10 0.4254 0.0017
-5 -17 1 -2.9676 -0.0037
-5 -17 2 4.2111 0.0060
-5 -17 3 -4.6808 -0.0063
-5 -17 4 4.3537 0.0044
-5 -17 5 -3.7089 -0.0012
-5 -17 6 2.6767 -0.0009
-5 -17 7 -1.3886 0.0004
-5 -17 8 0.8960 0.0009
-5 -17 9 -1.6330 -0.0003
-5 -17 10 2.3505 -0.0020
-5 -17 11 -1.5393 0.0034
-5 -17 12 -0.3144 -0.0025
-5 -16 1 6.7751 -0.0063
-5 -16 2 -6.7435 0.0072
-5 -16 3 5.4908 -0.0047
-5 -16 4 -3.3897 0.0006
-5 -16 5 1.6716 0.0021
-5 -16 6 -1.3989 -0.0016
-5 -16 7 2.1635 -0.0002
-5 -16 8 -2.1855 -0.0000
-5 -16 9 0.9845 0.0023
-5 -16 10 0.0124 -0.0036
-5 -16 11 0.0955 0.0022
-5 -16 12 -0.5720 -0.0000
-5 -16 13 0.2954 -0.0004
-5 -16 14 0.5009 -0.0005
-5 -15 1 5.9747 -0.0058
-5 -15 2 -5.0819 0.0017
-5 -15 3 2.4905 0.0028
-5 -15 4 -0.8256 -0.0048
-5 -15 5 2.1594 0.0034
-5 -15 6 -5.3868 -0.0007
-5 -15 7 7.4450 -0.0008
-5 -15 8 -6.1628 0.0001
-5 -15 9 2.5521 0.0010
-5 -15 10 0.1978 -0.0008
-5 -15 11 -0.6448 -0.0000
-5 -15 12 -0.0135 -0.0003
-5 -15 13 0.0484 0.0012
-5 -15 14 1.1113 -0.0005
-5 -15 15 -2.4725 -0.0021
-5 -15 16 2.9018 0.0037
-5 -14 1 -1.0023 0.0052
-5 -14 2 3.4320 -0.0098
-5 -14 3 -4.7038 0.0089
-5 -14 4 2.0899 -0.0047
-5 -14 5 3.2859 0.0008
-5 -14 6 -6.9281 0.0014
-5 -14 7 5.7890 -0.0024
-5 -14 8 -1.4593 0.0025
-5 -14 9 -1.8374 -0.0016
-5 -14 10 1.1704 0.0005
-5 -14 11 2.2774 0.0005
-5 -14 12 -4.7446 -0.0013
-5 -14 13 4.2723 0.0014
-5 -14 14 -1.9134 -0.0004
-5 -14 15 0.2309 -0.0004
-5 -14 16 -0.6472 -0.0006
-5 -14 17 1.8986 0.0029
-5 -13 1 -2.3859 0.0166
-5 -13 2 7.7846 -0.0099
-5 -13 3 -7.9628 0.0010
-5 -13 4 3.6701 0.0037
-5 -13 5 0.2963 -0.0032
-5 -13 6 -0.0308 0.0020
-5 -13 7 -3.5200 -0.0022
-5 -13 8 5.6424 0.0021
-5 -13 9 -3.3573 -0.0008
-5 -13 10 -1.6709 0.0004
-5 -13 11 5.5670 -0.0016
-5 -13 12 -5.8422 0.0023
-5 -13 13 3.6461 -0.0016
-5 -13 14 -1.9845 0.0009
-5 -13 15 2.4035 -0.0009
-5 -13 16 -4.1820 0.0001
-5 -13 17 5.0178 0.0014
-5 -13 18 -3.6367 -0.0024
-5 -13 19 1.1985 0.0025
-5 -12 1 -11.7366 0.0037
-5 -12 2 14.4740 0.0063
-5 -12 3 -10.0300 -0.0100
-5 -12 4 3.9579 0.0060
-5 -12 5 -1.9442 -0.0004
-5 -12 6 4.5074 -0.0012
-5 -12 7 -7.2879 0.0001
-5 -12 8 6.5832 -0.0001
-5 -12 9 -3.2431 0.0006
-5 -12 10 1.1698 0.0005
-5 -12 11 -2.2421 -0.0016
-5 -12 12 4.9689 0.0001
-5 -12 13 -6.8354 0.0020
-5 -12 14 6.1851 -0.0015
-5 -12 15 -3.4871 -0.0002
-5 -12 16 0.4354 0.0002
-5 -12 17 1.1896 0.0014
-5 -12 18 -0.6335 -0.0024
-5 -12 19 -0.8370 0.0025
-5 -12 20 1.6480 -0.0030
-5 -11 1 -6.9862 -0.0102
-5 -11 2 -1.4032 0.0105
-5 -11 3 11.3628 -0.0040
-5 -11 4 -15.5525 -0.0043
-5 -11 5 12.1568 0.0079
-5 -11 6 -5.4144 -0.0060
-5 -11 7 1.2163 0.0031
-5 -11 8 -0.5696 -0.0020
-5 -11 9 0.2130 0.0011
-5 -11 10 2.2225 0.0007
-5 -11 11 -5.6665 -0.0010
-5 -11 12 7.4847 -0.0005
-5 -11 13 -6.8552 0.0014
-5 -11 14 4.3824 -0.0006
-5 -11 15 -1.3665 0.0004
-5 -11 16 -0.3231 -0.0016
-5 -11 17 -0.2920 0.0019
-5 -11 18 2.5706 -0.0006
-5 -11 19 -4.2559 -0.0009
-5 -11 20 3.7851 0.0019
-5 -11 21 -1.8568 -0.0035
-5 -10 1 8.0883 -0.0098
-5 -10 2 -19.3245 -0.0003
-5 -10 3 23.3226 0.0092
-5 -10 4 -18.0907 -0.0129
-5 -10 5 9.0910 0.0109
-5 -10 6 -2.7320 -0.0065
-5 -10 7 1.6231 0.0034
-5 -10 8 -3.0774 -0.0026
-5 -10 9 3.3034 0.0019
-5 -10 10 -2.3781 -0.0003
-5 -10 11 2.2857 -0.0010
-5 -10 12 -3.8268 0.0012
-5 -10 13 5.8126 -0.0006
-5 -10 14 -6.5804 -0.0002
-5 -10 15 5.4636 0.0009
-5 -10 16 -2.3092 -0.0011
-5 -10 17 -1.5526 0.0004
-5 -10 18 3.9786 0.0007
-5 -10 19 -4.0371 -0.0028
-5 -10 20 2.5007 0.0064
-5 -10 21 -1.1196 -0.0099
-5 -9 1 -6.7266 0.0105
-5 -9 2 4.2784 -0.0166
-5 -9 3 -7.6857 0.0149
-5 -9 4 13.0606 -0.0087
-5 -9 5 -14.7032 0.0021
-5 -9 6 11.4415 0.0019
-5 -9 7 -6.2255 -0.0021
-5 -9 8 1.7706 -0.0002
-5 -9 9 0.9788 0.0017
-5 -9 10 -3.3089 -0.0007
-5 -9 11 5.8643 -0.0006
-5 -9 12 -7.3298 0.0001
-5 -9 13 6.6947 0.0013
-5 -9 14 -4.0354 -0.0012
-5 -9 15 0.8966 -0.0003
-5 -9 16 1.0836 0.0006
-5 -9 17 -1.2839 0.0012
-5 -9 18 0.2571 -0.0025
-5 -9 19 0.2732 0.0012
-5 -9 20 0.2100 0.0014
-5 -9 21 -0.8017 -0.0015
-5 -9 22 0.7364 -0.0015
-5 -8 1 -8.2683 0.0231
-5 -8 2 8.2147 -0.0153
-5 -8 3 -7.0373 0.0035
-5 -8 4 5.0463 0.0049
-5 -8 5 -3.2691 -0.0077
-5 -8 6 2.7197 0.0063
-5 -8 7 -3.4870 -0.0025
-5 -8 8 3.4034 -0.0010
-5 -8 9 -1.6556 0.0013
-5 -8 10 -0.1946 0.0008
-5 -8 11 0.6224 -0.0015
-5 -8 12 1.0904 -0.0002
-5 -8 13 -3.5150 0.0011
-5 -8 14 4.4480 0.0008
-5 -8 15 -2.6650 -0.0021
-5 -8 16 -1.2595 -0.0001
-5 -8 17 4.5760 0.0031
-5 -8 18 -5.3385 -0.0032
-5 -8 19 3.9947 0.0006
-5 -8 20 -2.7776 0.0005
-5 -8 21 3.0680 0.0015
-5 -8 22 -3.5099 -0.0042
-5 -8 23 2.7581 0.0045
-5 -7 1 18.8010 0.0018
-5 -7 2 -23.1725 0.0097
-5 -7 3 23.8028 -0.0161
-5 -7 4 -16.7145 0.0146
-5 -7 5 4.0193 -0.0090
-5 -7 6 6.8956 0.0034
-5 -7 7 -10.5298 0.0006
-5 -7 8 6.8984 -0.0019
-5 -7 9 -1.0401 0.0002
-5 -7 10 -1.0092 0.0019
-5 -7 11 -1.4560 -0.0013
-5 -7 12 5.1408 -0.0002
-5 -7 13 -6.5543 -0.0004
-5 -7 14 4.1948 0.0020
-5 -7 15 0.0659 -0.0009
-5 -7 16 -3.0859 -0.0022
-5 -7 17 2.6394 0.0027
-5 -7 18 -0.0132 0.0003
-5 -7 19 -1.1780 -0.0027
-5 -7 20 -0.2797 0.0012
-5 -7 21 2.4213 0.0028
-5 -7 22 -2.5790 -0.0057
-5 -7 23 0.9587 0.0056
-5 -6 1 15.2760 -0.0157
-5 -6 2 -16.7487 0.0168
-5 -6 3 5.2104 -0.0120
-5 -6 4 13.5041 0.0043
-5 -6 5 -26.5755 0.0015
-5 -6 6 24.5717 -0.0041
-5 -6 7 -9.8790 0.0045
-5 -6 8 -5.4925 -0.0033
-5 -6 9 11.3274 0.0010
-5 -6 10 -5.8317 -0.0000
-5 -6 11 -4.1226 0.0009
-5 -6 12 10.1006 -0.0009
-5 -6 13 -9.6765 -0.0009
-5 -6 14 5.6084 0.0016
-5 -6 15 -2.9382 0.0004
-5 -6 16 4.4721 -0.0018
-5 -6 17 -8.4250 0.0001
-5 -6 18 10.6109 0.0020
-5 -6 19 -8.4992 -0.0005
-5 -6 20 4.6593 -0.0032
-5 -6 21 -2.8671 0.0046
-5 -6 22 3.4362 -0.0016
-5 -6 23 -3.9214 -0.0039
-5 -6 24 2.5936 0.0083
-5 -5 1 8.7233 -0.0107
-5 -5 2 1.3557 0.0045
-5 -5 3 -18.6146 0.0023
-5 -5 4 26.9420 -0.0065
-5 -5 5 -15.9243 0.0068
-5 -5 6 -8.9288 -0.0047
-5 -5 7 30.8753 0.0022
-5 -5 8 -35.1486 -0.0001
-5 -5 9 21.5504 -0.0005
-5 -5 10 -2.5466 -0.0009
-5 -5 11 -8.9038 0.0025
-5 -5 12 7.9266 -0.0017
-5 -5 13 -0.1001 -0.0003
-5 -5 14 -5.9586 0.0007
-5 -5 15 5.8284 -0.0001
-5 -5 16 -1.1936 0.0010
-5 -5 17 -2.2708 -0.0027
-5 -5 18 1.5451 0.0016
-5 -5 19 1.2263 0.0019
-5 -5 20 -1.5171 -0.0028
-5 -5 21 -1.7815 -0.0013
-5 -5 22 4.8168 0.0063
-5 -5 23 -4.6492 -0.0074
-5 -5 24 2.1827 0.0035
-5 -4 1 5.6633 0.0072
-5 -4 2 12.3351 -0.0102
-5 -4 3 -19.5482 0.0103
-5 -4 4 6.8543 -0.0071
-5 -4 5 18.5890 0.0015
-5 -4 6 -37.8294 0.0035
-5 -4 7 36.4610 -0.0056
-5 -4 8 -16.4753 0.0046
-5 -4 9 -6.2513 -0.0018
-5 -4 10 15.3051 -0.0010
-5 -4 11 -7.7074 0.0017
-5 -4 12 -7.6127 -0.0003
-5 -4 13 18.7646 -0.0009
-5 -4 14 -19.6577 0.0011
-5 -4 15 13.6020 -0.0017
-5 -4 16 -7.7265 0.0030
-5 -4 17 6.6986 -0.0026
-5 -4 18 -8.5722 -0.0002
-5 -4 19 8.1457 0.0019
-5 -4 20 -3.9945 -0.0001
-5 -4 21 -0.4169 -0.0018
-5 -4 22 0.9989 -0.0010
-5 -4 23 1.3976 0.0074
-5 -4 24 -2.9373 -0.0111
-5 -3 1 -22.4079 0.0082
-5 -3 2 31.2516 -0.0012
-5 -3 3 -21.6680 -0.0055
-5 -3 4 2.0610 0.0113
-5 -3 5 10.1013 -0.0145
-5 -3 6 -3.8984 0.0133
-5 -3 7 -16.5179 -0.0083
-5 -3 8 34.8367 0.0032
-5 -3 9 -37.3538 -0.0005
-5 -3 10 22.8740 -0.0000
-5 -3 11 -3.0679 -0.0000
-5 -3 12 -8.8513 -0.0003
-5 -3 13 8.5832 0.0004
-5 -3 14 -0.3553 0.0004
-5 -3 15 -7.2108 -0.0014
-5 -3 16 8.7602 0.0013
-5 -3 17 -5.6066 -0.0001
-5 -3 18 2.6883 -0.0002
-5 -3 19 -2.8476 -0.0015
-5 -3 20 3.3664 0.0027
-5 -3 21 -1.1149 -0.0000
-5 -3 22 -2.9087 -0.0049
-5 -3 23 4.9312 0.0060
-5 -3 24 -3.3309 -0.0005
-5 -2 1 -11.0105 -0.0066
-5 -2 2 7.1434 0.0170
-5 -2 3 4.4924 -0.0203
-5 -2 4 -10.3573 0.0188
-5 -2 5 2.1396 -0.0138
-5 -2 6 14.2382 0.0070
-5 -2 7 -26.3487 -0.0019
-5 -2 8 25.0808 0.0012
-5 -2 9 -12.4788 -0.0029
-5 -2 10 -1.4116 0.0027
-5 -2 11 7.1855 -0.0003
-5 -2 12 -2.3583 -0.0008
-5 -2 13 -7.0565 -0.0008
-5 -2 14 13.8590 0.0021
-5 -2 15 -14.3541 -0.0005
-5 -2 16 9.8015 -0.0020
-5 -2 17 -4.9576 0.0018
-5 -2 18 2.6760 0.0012
-5 -2 19 -2.0758 -0.0034
-5 -2 20 0.4063 0.0022
-5 -2 21 2.2220 0.0001
-5 -2 22 -2.9026 0.0014
-5 -2 23 0.8764 -0.0083
-5 -2 24 1.5592 0.0156
-5 -1 1 8.3543 -0.0313
-5 -1 2 -17.7218 0.0269
-5 -1 3 22.8733 -0.0150
-5 -1 4 -19.9625 0.0038
-5 -1 5 12.0924 0.0037
-5 -1 6 -7.5855 -0.0065
-5 -1 7 10.3490 0.0042
-5 -1 8 -17.1302 0.0004
-5 -1 9 21.2521 -0.0022
-5 -1 10 -18.6637 -0.0002
-5 -1 11 11.3761 0.0021
-5 -1 12 -3.5348 -0.0000
-5 -1 13 -0.8041 -0.0024
-5 -1 14 0.6924 0.0006
-5 -1 15 1.5311 0.0032
-5 -1 16 -3.3452 -0.0028
-5 -1 17 3.0529 -0.0019
-5 -1 18 -1.5151 0.0046
-5 -1 19 0.4724 -0.0020
-5 -1 20 -0.3043 -0.0024
-5 -1 21 -0.0983 0.0023
-5 -1 22 1.6274 0.0037
-5 -1 23 -2.7360 -0.0107
-5 -1 24 2.0267 0.0121
-5 0 1 -7.4066 -0.0170
-5 0 2 -3.3396 -0.0016
-5 0 3 5.5631 0.0152
-5 0 4 -4.8040 -0.0189
-5 0 5 5.4724 0.0160
-5 0 6 -8.2563 -0.0101
-5 0 7 10.2061 0.0032
-5 0 8 -8.3993 0.0012
-5 0 9 3.9391 -0.0006
-5 0 10 -0.3676 -0.0015
-5 0 11 0.6828 0.0004
-5 0 12 -3.1881 0.0021
-5 0 13 4.4950 -0.0006
-5 0 14 -3.5200 -0.0040
-5 0 15 0.8377 0.0046
-5 0 16 1.4759 0.0006
-5 0 17 -2.2067 -0.0047
-5 0 18 1.5139 0.0017
-5 0 19 -0.5921 0.0043
-5 0 20 0.8528 -0.0057
-5 0 21 -1.9621 0.0011
-5 0 22 2.7679 0.0039
-5 0 23 -2.2984 -0.0033
-5 0 24 1.0338 -0.0031
-5 1 1 8.5652 0.0150
-5 1 2 -2.4287 -0.0244
-5 1 3 -5.8672 0.0213
-5 1 4 9.5476 -0.0124
-5 1 5 -9.4990 0.0050
-5 1 6 10.5343 -0.0001
-5 1 7 -14.2422 -0.0027
-5 1 8 17.0371 0.0019
-5 1 9 -13.7550 0.0011
-5 1 10 4.7594 -0.0015
-5 1 11 4.4182 -0.0012
-5 1 12 -7.4816 0.0017
-5 1 13 3.2113 0.0022
-5 1 14 2.7123 -0.0045
-5 1 15 -4.7597 0.0007
-5 1 16 1.6005 0.0040
-5 1 17 3.7494 -0.0025
-5 1 18 -6.9297 -0.0029
-5 1 19 6.2041 0.0041
-5 1 20 -2.9467 -0.0000
-5 1 21 0.3897 -0.0021
-5 1 22 0.1367 -0.0036
-5 1 23 0.1647 0.0138
-5 1 24 -0.0527 -0.0200
-5 2 1 4.6940 0.0282
-5 2 2 11.5681 -0.0208
-5 2 3 -16.1139 0.0082
-5 2 4 12.4045 0.0006
-5 2 5 -8.9995 -0.0045
-5 2 6 10.0889 0.0063
-5 2 7 -11.6810 -0.0053
-5 2 8 7.6297 0.0014
-5 2 9 2.6289 0.0012
-5 2 10 -11.3260 0.0006
-5 2 11 11.0690 -0.0026
-5 2 12 -2.7476 0.0003
-5 2 13 -6.3404 0.0027
-5 2 14 8.2330 -0.0009
-5 2 15 -1.8680 -0.0034
-5 2 16 -6.9263 0.0027
-5 2 17 11.4579 0.0029
-5 2 18 -9.1667 -0.0051
-5 2 19 3.5197 0.0006
-5 2 20 0.3548 0.0036
-5 2 21 -0.1893 -0.0001
-5 2 22 -1.8556 -0.0078
-5 2 23 2.3232 0.0100
-5 2 24 -0.9818 -0.0026
-5 3 1 -26.5015 0.0114
-5 3 2 17.5264 0.0017
-5 3 3 -1.4903 -0.0091
-5 3 4 -9.5178 0.0098
-5 3 5 9.4910 -0.0079
-5 3 6 -3.5850 0.0050
-5 3 7 1.0924 -0.0001
-5 3 8 -4.5077 -0.0038
-5 3 9 8.2790 0.0027
-5 3 10 -4.9227 0.0005
-5 3 11 -5.9144 -0.0002
-5 3 12 15.8763 -0.0026
-5 3 13 -17.5579 0.0022
-5 3 14 10.3821 0.0015
-5 3 15 -0.5005 -0.0019
-5 3 16 -4.2272 -0.0028
-5 3 17 0.9534 0.0058
-5 3 18 6.6634 -0.0020
-5 3 19 -11.4411 -0.0042
-5 3 20 9.7312 0.0045
-5 3 21 -4.3218 0.0006
-5 3 22 0.2881 -0.0024
-5 3 23 0.1523 -0.0046
-5 3 24 0.6643 0.0147
-5 4 1 8.0886 -0.0101
-5 4 2 -25.5128 0.0131
-5 4 3 31.8399 -0.0079
-5 4 4 -24.4128 0.0005
-5 4 5 10.0406 0.0042
-5 4 6 0.0098 -0.0069
-5 4 7 -0.0508 0.0077
-5 4 8 -4.4961 -0.0047
-5 4 9 5.3170 -0.0001
-5 4 10 0.0154 0.0012
-5 4 11 -6.9681 0.0016
-5 4 12 8.3896 -0.0031
-5 4 13 -2.7205 0.0016
-5 4 14 -4.9797 -0.0011
-5 4 15 8.1495 0.0034
-5 4 16 -3.6122 -0.0047
-5 4 17 -5.2525 0.0018
-5 4 18 11.4971 0.0027
-5 4 19 -10.3364 -0.0030
-5 4 20 3.7911 -0.0024
-5 4 21 1.4780 0.0089
-5 4 22 -1.9867 -0.0098
-5 4 23 -0.2530 0.0039
-5 5 1 21.2277 -0.0114
-5 5 2 -16.0827 0.0023
-5 5 3 3.0782 0.0091
-5 5 4 10.1494 -0.0148
-5 5 5 -15.1176 0.0137
-5 5 6 9.1217 -0.0101
-5 5 7 3.1894 0.0061
-5 5 8 -12.2062 -0.0020
-5 5 9 12.6503 -0.0002
-5 5 10 -8.0669 -0.0001
-5 5 11 4.7720 0.0002
-5 5 12 -6.3330 0.0011
-5 5 13 10.7167 -0.0010
-5 5 14 -12.5489 -0.0011
-5 5 15 8.7570 0.0021
-5 5 16 -1.1994 -0.0003
-5 5 17 -4.2053 -0.0017
-5 5 18 3.2510 0.0021
-5 5 19 2.3769 -0.0016
-5 5 20 -6.9172 0.0003
-5 5 21 6.0689 0.0015
-5 5 22 -1.7262 -0.0004
-5 5 23 -1.3977 -0.0054
-5 6 1 -19.1427 -0.0036
-5 6 2 24.8233 -0.0100
-5 6 3 -26.9112 0.0171
-5 6 4 22.4941 -0.0139
-5 6 5 -11.5941 0.0069
-5 6 6 -0.3994 -0.0035
-5 6 7 7.2997 0.0035
-5 6 8 -5.9194 -0.0039
-5 6 9 -1.3174 0.0033
-5 6 10 7.3855 -0.0018
-5 6 11 -7.8722 -0.0003
-5 6 12 3.8581 0.0009
-5 6 13 0.4221 0.0002
-5 6 14 -1.3529 -0.0002
-5 6 15 -0.7569 -0.0016
-5 6 16 2.6343 0.0013
-5 6 17 -1.1039 0.0024
-5 6 18 -3.1588 -0.0044
-5 6 19 6.0225 0.0027
-5 6 20 -4.9834 -0.0024
-5 6 21 1.3679 0.0057
-5 6 22 1.1991 -0.0059
-5 7 1 -5.2931 0.0132
-5 7 2 0.3785 -0.0168
-5 7 3 4.4130 0.0094
-5 7 4 -7.6753 0.0031
-5 7 5 8.5454 -0.0098
-5 7 6 -5.3722 0.0077
-5 7 7 -1.5984 -0.0029
-5 7 8 9.2053 0.0007
-5 7 9 -13.8293 -0.0002
-5 7 10 13.1082 -0.0007
-5 7 11 -8.1526 0.0021
-5 7 12 2.5597 -0.0028
-5 7 13 0.8491 0.0010
-5 7 14 -1.5303 0.0033
-5 7 15 1.1167 -0.0055
-5 7 16 -1.1388 0.0023
-5 7 17 1.9291 0.0020
-5 7 18 -2.6030 -0.0012
-5 7 19 1.9425 -0.0022
-5 7 20 -0.5911 0.0000
-5 7 21 -0.0243 0.0058
-5 7 22 -0.4749 -0.0057
-5 8 1 20.0621 0.0117
-5 8 2 -18.5923 -0.0026
-5 8 3 14.2429 -0.0087
-5 8 4 -7.9391 0.0148
-5 8 5 1.8506 -0.0115
-5 8 6 2.2852 0.0042
-5 8 7 -3.7279 -0.0010
-5 8 8 2.4421 0.0027
-5 8 9 0.2327 -0.0035
-5 8 10 -2.7519 0.0012
-5 8 11 4.1350 0.0010
-5 8 12 -4.0853 -0.0005
-5 8 13 2.8418 -0.0017
-5 8 14 -0.5969 0.0030
-5 8 15 -1.9998 -0.0010
-5 8 16 4.2472 -0.0027
-5 8 17 -5.4263 0.0026
-5 8 18 4.9126 0.0023
-5 8 19 -3.3716 -0.0050
-5 8 20 1.7950 -0.0002
-5 8 21 -0.7392 0.0071
-5 9 1 -1.0321 -0.0128
-5 9 2 4.3615 0.0166
-5 9 3 -6.8393 -0.0166
-5 9 4 7.2026 0.0116
-5 9 5 -4.5427 -0.0035
-5 9 6 -0.5776 -0.0014
-5 9 7 5.5318 -0.0004
-5 9 8 -7.4844 0.0041
-5 9 9 5.5817 -0.0036
-5 9 10 -1.7560 0.0006
-5 9 11 -1.4516 -0.0005
-5 9 12 3.0907 0.0027
-5 9 13 -3.9216 -0.0032
-5 9 14 5.3738 0.0009
-5 9 15 -7.2764 0.0017
-5 9 16 8.0649 -0.0022
-5 9 17 -6.6957 -0.0001
-5 9 18 3.5516 0.0028
-5 9 19 -0.7457 -0.0012
-5 9 20 -0.1653 -0.0053
-5 10 1 -6.8894 -0.0125
-5 10 2 5.5346 0.0075
-5 10 3 -3.4411 -0.0034
-5 10 4 0.2548 -0.0006
-5 10 5 3.6323 0.0041
-5 10 6 -6.4628 -0.0034
-5 10 7 6.1122 -0.0012
-5 10 8 -2.4019 0.0036
-5 10 9 -1.9557 -0.0012
-5 10 10 3.2532 -0.0003
-5 10 11 -0.7170 -0.0021
-5 10 12 -2.9486 0.0038
-5 10 13 4.9245 -0.0013
-5 10 14 -4.2458 -0.0016
-5 10 15 2.4514 0.0010
-5 10 16 -1.9349 0.0015
-5 10 17 3.0763 -0.0031
-5 10 18 -4.3074 0.0035
-5 10 19 3.8318 -0.0024
-5 11 1 2.0199 -0.0014
-5 11 2 -1.1216 -0.0013
-5 11 3 0.1110 0.0015
-5 11 4 0.5555 -0.0016
-5 11 5 -0.7734 0.0012
-5 11 6 1.5296 0.0020
-5 11 7 -3.3458 -0.0054
-5 11 8 4.5998 0.0042
-5 11 9 -3.0595 0.0000
-5 11 10 -1.6449 -0.0013
-5 11 11 6.7588 -0.0003
-5 11 12 -8.6227 -0.0003
-5 11 13 6.7380 0.0026
-5 11 14 -3.4232 -0.0010
-5 11 15 1.2600 -0.0044
-5 11 16 -1.4085 0.0078
-5 11 17 2.6127 -0.0078
-5 11 18 -2.8810 0.0078
-5 12 1 -1.0548 0.0034
-5 12 2 3.4294 -0.0022
-5 12 3 -4.6181 0.0001
-5 12 4 4.7443 0.0017
-5 12 5 -4.1209 -0.0031
-5 12 6 3.7701 0.0042
-5 12 7 -4.1369 -0.0033
-5 12 8 3.9205 -0.0006
-5 12 9 -2.5337 0.0037
-5 12 10 1.4677 -0.0026
-5 12 11 -2.4524 0.0001
-5 12 12 5.4511 0.0000
-5 12 13 -8.0651 0.0001
-5 12 14 8.0808 0.0026
-5 12 15 -5.7228 -0.0058
-5 12 16 2.6120 0.0054
-5 13 1 -0.0125 0.0026
-5 13 2 -0.4254 0.0005
-5 13 3 2.0332 -0.0043
-5 13 4 -3.6969 0.0068
-5 13 5 4.3579 -0.0066
-5 13 6 -3.5718 0.0047
-5 13 7 1.8124 -0.0022
-5 13 8 -0.3210 0.0003
-5 13 9 -0.7237 -0.0005
-5 13 10 2.2376 0.0026
-5 13 11 -3.9451 -0.0033
-5 13 12 4.5047 0.0010
-5 13 13 -3.3223 0.0016
-5 13 14 1.3356 -0.0019
-5 14 1 3.1224 0.0036
-5 14 2 -5.1395 0.0015
-5 14 3 6.5354 -0.0052
-5 14 4 -6.5023 0.0052
-5 14 5 5.0229 -0.0017
-5 14 6 -3.2256 -0.0016
-5 14 7 2.2263 0.0019
-5 14 8 -2.1636 0.0003
-5 14 9 2.3761 -0.0027
-5 14 10 -2.4088 0.0042
-5 14 11 2.6409 -0.0035
-5 14 12 -3.1893 0.0008
-5 15 1 -2.7797 -0.0145
-5 15 2 1.6490 0.0125
-5 15 3 -1.6929 -0.0070
-5 15 4 2.5484 -0.0013
-5 15 5 -3.1565 0.0091
-5 15 6 2.6324 -0.0112
-5 15 7 -1.2158 0.0069
-5 15 8 0.0059 -0.0015
-5 15 9 0.3724 -0.0013
-5 16 1 0.7156 -0.0058
-5 16 2 -0.1285 -0.0030
-5 16 3 -0.7471 0.0103
-5 16 4 1.3268 -0.0154
-4 -19 1 -0.0557 -0.0009
-4 -19 2 1.5274 -0.0002
-4 -19 3 -3.2949 0.0031
-4 -19 4 4.0205 -0.0046
-4 -19 5 -3.5473 0.0032
-4 -19 6 2.5939 -0.0006
-4 -18 1 -0.1998 0.0059
-4 -18 2 1.0405 -0.0070
-4 -18 3 -0.8460 0.0062
-4 -18 4 -0.2720 -0.0032
-4 -18 5 1.1563 0.0004
-4 -18 6 -1.2343 0.0006
-4 -18 7 0.9854 -0.0000
-4 -18 8 -0.7096 -0.0015
-4 -18 9 0.1697 0.0034
-4 -18 10 0.5082 -0.0041
-4 -17 1 5.9520 0.0071
-4 -17 2 -7.1860 -0.0043
-4 -17 3 7.8200 -0.0002
-4 -17 4 -6.9333 0.0034
-4 -17 5 4.9583 -0.0040
-4 -17 6 -3.4723 0.0028
-4 -17 7 3.2261 -0.0014
-4 -17 8 -3.3110 0.0003
-4 -17 9 2.5963 0.0002
-4 -17 10 -1.5713 0.0006
-4 -17 11 1.3612 -0.0021
-4 -17 12 -1.7056 0.0024
-4 -16 1 0.1631 0.0016
-4 -16 2 0.0058 0.0040
-4 -16 3 -1.4158 -0.0071
-4 -16 4 2.9067 0.0068
-4 -16 5 -2.5326 -0.0048
-4 -16 6 -0.3232 0.0032
-4 -16 7 3.4580 -0.0026
-4 -16 8 -4.3681 0.0023
-4 -16 9 3.0713 -0.0018
-4 -16 10 -1.7806 0.0010
-4 -16 11 2.1485 0.0004
-4 -16 12 -3.2446 -0.0017
-4 -16 13 3.3027 0.0016
-4 -16 14 -2.1565 0.0005
-4 -15 1 -6.9163 -0.0100
-4 -15 2 8.8813 0.0094
-4 -15 3 -10.3591 -0.0057
-4 -15 4 8.9814 0.0014
-4 -15 5 -4.8366 0.0012
-4 -15 6 0.5566 -0.0014
-4 -15 7 0.5853 0.0000
-4 -15 8 1.7497 0.0011
-4 -15 9 -4.2541 -0.0005
-4 -15 10 3.9205 -0.0012
-4 -15 11 -0.9467 0.0022
-4 -15 12 -1.8752 -0.0011
-4 -15 13 2.2242 -0.0011
-4 -15 14 -0.7701 0.0023
-4 -15 15 -0.2985 -0.0010
-4 -15 16 -0.0996 -0.0015
-4 -14 1 4.6637 -0.0064
-4 -14 2 -0.3452 0.0013
-4 -14 3 -1.3949 0.0023
-4 -14 4 -0.3113 -0.0037
-4 -14 5 2.3896 0.0037
-4 -14 6 -1.5493 -0.0022
-4 -14 7 -2.3332 -0.0001
-4 -14 8 6.2283 0.0008
-4 -14 9 -6.7028 0.0007
-4 -14 10 3.7259 -0.0021
-4 -14 11 -0.6114 0.0014
-4 -14 12 0.0837 -0.0001
-4 -14 13 -2.0302 0.0007
-4 -14 14 3.7812 -0.0029
-4 -14 15 -2.9917 0.0041
-4 -14 16 0.3459 -0.0028
-4 -14 17 1.6413 0.0001
-4 -13 1 4.5191 0.0061
-4 -13 2 -0.5330 -0.0070
-4 -13 3 1.6967 0.0042
-4 -13 4 -4.6704 -0.0018
-4 -13 5 5.0911 0.0006
-4 -13 6 -2.0744 0.0013
-4 -13 7 -1.3036 -0.0033
-4 -13 8 1.9261 0.0025
-4 -13 9 0.1343 0.0001
-4 -13 10 -2.1717 -0.0011
-4 -13 11 1.5312 0.0002
-4 -13 12 1.5026 -0.0005
-4 -13 13 -4.5165 0.0020
-4 -13 14 5.6359 -0.0015
-4 -13 15 -4.5747 -0.0014
-4 -13 16 3.0062 0.0031
-4 -13 17 -2.6262 -0.0010
-4 -13 18 3.2721 -0.0032
-4 -13 19 -3.4834 0.0055
-4 -12 1 -8.6046 0.0115
-4 -12 2 5.4086 -0.0025
-4 -12 3 1.6203 -0.0046
-4 -12 4 -6.4722 0.0066
-4 -12 5 6.6970 -0.0064
-4 -12 6 -4.7809 0.0071
-4 -12 7 4.2221 -0.0070
-4 -12 8 -5.7440 0.0042
-4 -12 9 6.9292 -0.0013
-4 -12 10 -5.8760 0.0010
-4 -12 11 3.0754 -0.0013
-4 -12 12 -0.2102 0.0000
-4 -12 13 -1.3420 0.0009
-4 -12 14 1.6107 0.0005
-4 -12 15 -1.0161 -0.0014
-4 -12 16 0.1955 -0.0006
-4 -12 17 -0.1001 0.0028
-4 -12 18 0.7166 -0.0011
-4 -12 19 -1.4116 -0.0036
-4 -12 20 1.6405 0.0073
-4 -11 1 -10.7023 -0.0125
-4 -11 2 2.4335 0.0189
-4 -11 3 4.4934 -0.0182
-4 -11 4 -6.3075 0.0125
-4 -11 5 4.1098 -0.0067
-4 -11 6 -2.3230 0.0036
-4 -11 7 2.7505 -0.0016
-4 -11 8 -3.7500 -0.0003
-4 -11 9 3.3899 0.0009
-4 -11 10 -1.8928 -0.0002
-4 -11 11 1.1163 0.0001
-4 -11 12 -1.6575 -0.0010
-4 -11 13 3.1629 0.0009
-4 -11 14 -5.2683 0.0002
-4 -11 15 7.3873 -0.0002
-4 -11 16 -8.6202 -0.0006
-4 -11 17 7.6668 -0.0003
-4 -11 18 -4.7054 0.0023
-4 -11 19 1.4234 -0.0023
-4 -11 20 0.7150 -0.0001
-4 -11 21 -1.2542 0.0021
-4 -10 1 -7.9895 -0.0158
-4 -10 2 3.4807 0.0141
-4 -10 3 -3.2621 -0.0086
-4 -10 4 6.1724 0.0012
-4 -10 5 -9.4281 0.0036
-4 -10 6 10.2945 -0.0037
-4 -10 7 -9.3705 0.0014
-4 -10 8 8.9519 -0.0003
-4 -10 9 -8.7926 0.0004
-4 -10 10 7.5133 -0.0002
-4 -10 11 -4.6844 -0.0002
-4 -10 12 1.4041 0.0002
-4 -10 13 1.1480 0.0002
-4 -10 14 -2.9564 -0.0006
-4 -10 15 3.6186 0.0009
-4 -10 16 -2.7679 -0.0008
-4 -10 17 0.6763 0.0007
-4 -10 18 1.6698 -0.0012
-4 -10 19 -2.8438 0.0023
-4 -10 20 2.4761 -0.0027
-4 -10 21 -1.0700 0.0021
-4 -10 22 -0.2404 -0.0016
-4 -9 1 2.8506 -0.0031
-4 -9 2 -1.5201 -0.0014
-4 -9 3 -0.2712 0.0070
-4 -9 4 1.5861 -0.0120
-4 -9 5 -3.1408 0.0122
-4 -9 6 5.4839 -0.0073
-4 -9 7 -7.9127 0.0030
-4 -9 8 9.5669 -0.0029
-4 -9 9 -8.8694 0.0035
-4 -9 10 6.0909 -0.0010
-4 -9 11 -3.8263 -0.0019
-4 -9 12 3.5483 0.0012
-4 -9 13 -4.9836 0.0018
-4 -9 14 6.6114 -0.0031
-4 -9 15 -7.4541 0.0018
-4 -9 16 7.3816 -0.0001
-4 -9 17 -6.3963 -0.0008
-4 -9 18 5.1582 0.0014
-4 -9 19 -3.6758 -0.0017
-4 -9 20 1.5906 0.0006
-4 -9 21 0.7003 0.0019
-4 -9 22 -2.0861 -0.0041
-4 -8 1 11.7159 0.0038
-4 -8 2 -17.6051 -0.0085
-4 -8 3 23.0376 0.0108
-4 -8 4 -22.8656 -0.0099
-4 -8 5 16.1905 0.0047
-4 -8 6 -7.1382 0.0009
-4 -8 7 2.2152 -0.0010
-4 -8 8 -3.3914 -0.0026
-4 -8 9 7.2605 0.0026
-4 -8 10 -9.2934 0.0015
-4 -8 11 6.7615 -0.0028
-4 -8 12 -1.5056 -0.0009
-4 -8 13 -2.7890 0.0038
-4 -8 14 4.1028 -0.0019
-4 -8 15 -2.6558 -0.0008
-4 -8 16 0.7330 0.0001
-4 -8 17 -0.1409 0.0023
-4 -8 18 1.1076 -0.0030
-4 -8 19 -1.9946 0.0023
-4 -8 20 1.1761 -0.0012
-4 -8 21 0.2230 -0.0002
-4 -8 22 -0.4047 0.0020
-4 -8 23 -0.6249 -0.0026
-4 -7 1 -0.1919 0.0198
-4 -7 2 -15.3307 -0.0147
-4 -7 3 17.6985 0.0070
-4 -7 4 -6.5005 0.0010
-4 -7 5 -7.7766 -0.0074
-4 -7 6 13.3590 0.0083
-4 -7 7 -6.5333 -0.0032
-4 -7 8 -5.9121 -0.0010
-4 -7 9 13.1748 -0.0004
-4 -7 10 -11.4736 0.0031
-4 -7 11 4.6934 -0.0012
-4 -7 12 0.7672 -0.0019
-4 -7 13 -0.9918 -0.0000
-4 -7 14 -2.4870 0.0043
-4 -7 15 5.7723 -0.0040
-4 -7 16 -5.5696 -0.0008
-4 -7 17 1.9944 0.0035
-4 -7 18 1.5898 -0.0014
-4 -7 19 -2.6170 -0.0020
-4 -7 20 1.4673 0.0036
-4 -7 21 -1.0157 -0.0033
-4 -7 22 2.3279 0.0015
-4 -7 23 -3.3745 0.0015
-4 -6 1 11.2475 0.0118
-4 -6 2 -8.6070 0.0012
-4 -6 3 -11.4405 -0.0096
-4 -6 4 32.8243 0.0120
-4 -6 5 -38.8409 -0.0098
-4 -6 6 25.2102 0.0038
-4 -6 7 -3.4724 0.0022
-4 -6 8 -10.7135 -0.0031
-4 -6 9 10.0452 -0.0000
-4 -6 10 -0.5380 0.0008
-4 -6 11 -6.3731 0.0017
-4 -6 12 5.4868 -0.0016
-4 -6 13 1.0406 -0.0024
-4 -6 14 -6.9150 0.0039
-4 -6 15 7.5911 -0.0001
-4 -6 16 -3.7431 -0.0030
-4 -6 17 -0.3737 0.0009
-4 -6 18 0.6901 0.0026
-4 -6 19 1.8301 -0.0020
-4 -6 20 -3.1881 -0.0018
-4 -6 21 1.4353 0.0044
-4 -6 22 1.4641 -0.0042
-4 -6 23 -2.2479 0.0021
-4 -6 24 0.9798 0.0009
-4 -5 1 25.7633 -0.0128
-4 -5 2 2.4452 0.0160
-4 -5 3 -29.2272 -0.0101
-4 -5 4 34.7350 0.0014
-4 -5 5 -16.9242 0.0052
-4 -5 6 -9.3813 -0.0085
-4 -5 7 24.3869 0.0078
-4 -5 8 -19.6761 -0.0039
-4 -5 9 3.6589 0.0009
-4 -5 10 8.8706 -0.0015
-4 -5 11 -9.1605 0.0023
-4 -5 12 1.1058 -0.0001
-4 -5 13 6.1583 -0.0021
-4 -5 14 -7.1945 -0.0001
-4 -5 15 2.7868 0.0033
-4 -5 16 1.2613 -0.0020
-4 -5 17 -0.5250 -0.0018
-4 -5 18 -4.2387 0.0021
-4 -5 19 7.8901 0.0010
-4 -5 20 -6.8553 -0.0016
-4 -5 21 3.5136 -0.0023
-4 -5 22 -1.8908 0.0064
-4 -5 23 2.9727 -0.0070
-4 -5 24 -4.1521 0.0048
-4 -4 1 -5.0821 -0.0201
-4 -4 2 23.7473 0.0049
-4 -4 3 -24.3003 0.0099
-4 -4 4 3.8697 -0.0158
-4 -4 5 20.9554 0.0137
-4 -4 6 -30.3160 -0.0090
-4 -4 7 18.3746 0.0052
-4 -4 8 4.7924 -0.0030
-4 -4 9 -21.6821 0.0028
-4 -4 10 23.5219 -0.0031
-4 -4 11 -14.5512 0.0017
-4 -4 12 5.5660 0.0004
-4 -4 13 -3.8490 -0.0001
-4 -4 14 7.5863 -0.0019
-4 -4 15 -11.1115 0.0016
-4 -4 16 10.0187 0.0012
-4 -4 17 -5.1106 -0.0017
-4 -4 18 1.3162 -0.0013
-4 -4 19 -1.7790 0.0024
-4 -4 20 4.7089 0.0012
-4 -4 21 -5.1933 -0.0046
-4 -4 22 1.9956 0.0028
-4 -4 23 1.4907 0.0018
-4 -4 24 -2.3792 -0.0040
-4 -4 25 1.0800 0.0027
-4 -3 1 -14.8100 0.0073
-4 -3 2 12.0869 -0.0211
-4 -3 3 3.8472 0.0226
-4 -3 4 -20.5858 -0.0135
-4 -3 5 24.1696 0.0033
-4 -3 6 -10.0476 0.0012
-4 -3 7 -10.3618 -0.0012
-4 -3 8 22.7936 0.0005
-4 -3 9 -20.7630 -0.0006
-4 -3 10 9.5560 0.0009
-4 -3 11 0.2278 -0.0006
-4 -3 12 -3.0440 -0.0003
-4 -3 13 -0.0661 0.0005
-4 -3 14 3.5649 0.0012
-4 -3 15 -3.9438 -0.0035
-4 -3 16 2.2133 0.0033
-4 -3 17 -1.4946 0.0004
-4 -3 18 4.0447 -0.0035
-4 -3 19 -7.7998 0.0027
-4 -3 20 9.0499 -0.0006
-4 -3 21 -6.6056 0.0017
-4 -3 22 3.1669 -0.0044
-4 -3 23 -1.8971 0.0032
-4 -3 24 2.1354 0.0033
-4 -3 25 -1.8001 -0.0095
-4 -2 1 -3.9349 0.0189
-4 -2 2 -3.6107 -0.0158
-4 -2 3 13.3821 0.0033
-4 -2 4 -14.9771 0.0090
-4 -2 5 9.5005 -0.0133
-4 -2 6 -2.3064 0.0104
-4 -2 7 1.2197 -0.0069
-4 -2 8 -8.3897 0.0060
-4 -2 9 18.4082 -0.0053
-4 -2 10 -24.8408 0.0019
-4 -2 11 24.5180 0.0022
-4 -2 12 -20.1863 -0.0029
-4 -2 13 15.3237 -0.0003
-4 -2 14 -11.6905 0.0036
-4 -2 15 9.2626 -0.0037
-4 -2 16 -6.4623 0.0012
-4 -2 17 3.1895 0.0004
-4 -2 18 -0.5490 0.0007
-4 -2 19 0.1375 -0.0019
-4 -2 20 -1.7323 0.0004
-4 -2 21 2.8901 0.0028
-4 -2 22 -2.2110 -0.0028
-4 -2 23 0.4955 -0.0021
-4 -2 24 0.1836 0.0076
-4 -2 25 0.3740 -0.0079
-4 -1 1 -23.2288 0.0018
-4 -1 2 14.3330 0.0101
-4 -1 3 -8.5855 -0.0196
-4 -1 4 6.8915 0.0210
-4 -1 5 -3.8126 -0.0148
-4 -1 6 -1.0704 0.0077
-4 -1 7 4.9014 -0.0054
-4 -1 8 -6.0803 0.0061
-4 -1 9 3.8609 -0.0043
-4 -1 10 -0.7620 -0.0003
-4 -1 11 -0.9328 0.0026
-4 -1 12 0.5079 -0.0001
-4 -1 13 0.3063 -0.0030
-4 -1 14 0.6779 0.0021
-4 -1 15 -2.4444 0.0011
-4 -1 16 3.1634 -0.0018
-4 -1 17 -1.3485 -0.0008
-4 -1 18 -2.5515 0.0032
-4 -1 19 6.1740 -0.0022
-4 -1 20 -7.3933 -0.0008
-4 -1 21 5.6553 0.0016
-4 -1 22 -3.0733 0.0013
-4 -1 23 1.5934 -0.0046
-4 -1 24 -1.1946 0.0031
-4 -1 25 0.8182 0.0037
-4 0 1 -1.2820 -0.0220
-4 0 2 4.9618 0.0242
-4 0 3 -8.1237 -0.0196
-4 0 4 8.2599 0.0098
-4 0 5 -7.5318 -0.0001
-4 0 6 10.6333 -0.0031
-4 0 7 -19.9075 -0.0001
-4 0 8 29.5861 0.0027
-4 0 9 -32.8855 -0.0001
-4 0 10 27.0514 -0.0035
-4 0 11 -16.4219 0.0024
-4 0 12 8.3556 0.0013
-4 0 13 -6.3870 -0.0012
-4 0 14 8.9061 -0.0027
-4 0 15 -10.1006 0.0048
-4 0 16 6.6103 -0.0021
-4 0 17 -0.2736 -0.0014
-4 0 18 -4.5789 0.0016
-4 0 19 4.7528 0.0006
-4 0 20 -1.4594 -0.0010
-4 0 21 -1.8389 -0.0018
-4 0 22 2.5884 0.0045
-4 0 23 -1.2982 -0.0026
-4 0 24 0.1892 -0.0043
-4 0 25 0.1016 0.0107
-4 1 1 21.1377 -0.0209
-4 1 2 -7.8521 0.0083
-4 1 3 6.5292 0.0041
-4 1 4 -10.7699 -0.0131
-4 1 5 9.1365 0.0144
-4 1 6 0.6404 -0.0073
-4 1 7 -12.0452 -0.0007
-4 1 8 14.2819 0.0017
-4 1 9 -4.0388 0.0023
-4 1 10 -11.0745 -0.0031
-4 1 11 19.2090 -0.0005
-4 1 12 -14.5063 0.0018
-4 1 13 2.8288 0.0023
-4 1 14 6.0371 -0.0058
-4 1 15 -6.3163 0.0036
-4 1 16 0.2553 0.0013
-4 1 17 4.5980 -0.0027
-4 1 18 -3.5397 -0.0003
-4 1 19 -2.0099 0.0030
-4 1 20 6.3069 -0.0023
-4 1 21 -5.7606 0.0001
-4 1 22 2.0405 -0.0004
-4 1 23 1.0499 0.0039
-4 1 24 -1.5131 -0.0063
-4 1 25 0.6826 0.0031
-4 2 1 -14.4103 0.0045
-4 2 2 5.1006 -0.0134
-4 2 3 11.5727 0.0171
-4 2 4 -20.9194 -0.0154
-4 2 5 15.2932 0.0077
-4 2 6 -3.6780 0.0013
-4 2 7 0.1733 -0.0034
-4 2 8 -10.3762 -0.0008
-4 2 9 25.4970 0.0025
-4 2 10 -30.9665 0.0016
-4 2 11 20.8156 -0.0043
-4 2 12 -1.9448 0.0004
-4 2 13 -11.6057 0.0048
-4 2 14 12.3602 -0.0040
-4 2 15 -4.3554 -0.0014
-4 2 16 -3.1067 0.0039
-4 2 17 3.1180 -0.0012
-4 2 18 2.9936 -0.0022
-4 2 19 -8.5108 0.0016
-4 2 20 8.2112 0.0016
-4 2 21 -3.2931 -0.0032
-4 2 22 -0.6348 0.0013
-4 2 23 0.7932 0.0008
-4 2 24 0.9999 0.0014
-4 2 25 -1.6392 -0.0075
-4 3 1 -13.6197 0.0185
-4 3 2 -5.3014 -0.0129
-4 3 3 13.7863 0.0059
-4 3 4 -6.5197 0.0009
-4 3 5 -8.4359 -0.0064
-4 3 6 15.4450 0.0063
-4 3 7 -7.0991 -0.0004
-4 3 8 -8.6317 -0.0033
-4 3 9 16.3282 -0.0000
-4 3 10 -8.4725 0.0039
-4 3 11 -7.0634 -0.0018
-4 3 12 16.9578 -0.0028
-4 3 13 -13.7898 0.0024
-4 3 14 1.4540 0.0022
-4 3 15 9.1780 -0.0043
-4 3 16 -10.9067 0.0015
-4 3 17 4.4329 0.0017
-4 3 18 3.1089 -0.0010
-4 3 19 -5.1306 -0.0025
-4 3 20 1.5649 0.0040
-4 3 21 2.3380 -0.0006
-4 3 22 -1.9476 -0.0054
-4 3 23 -1.3127 0.0080
-4 3 24 3.1647 -0.0042
-4 4 1 11.2435 0.0117
-4 4 2 -11.0483 0.0016
-4 4 3 -0.4450 -0.0080
-4 4 4 15.6241 0.0103
-4 4 5 -22.2098 -0.0094
-4 4 6 14.2224 0.0044
-4 4 7 1.2667 0.0007
-4 4 8 -10.8642 -0.0009
-4 4 9 7.3330 -0.0013
-4 4 10 4.3279 0.0004
-4 4 11 -11.4264 0.0020
-4 4 12 7.2217 -0.0006
-4 4 13 4.4285 -0.0035
-4 4 14 -14.7094 0.0043
-4 4 15 16.4355 -0.0007
-4 4 16 -9.8667 -0.0025
-4 4 17 1.4139 0.0022
-4 4 18 1.8550 0.0009
-4 4 19 1.7133 -0.0041
-4 4 20 -6.9416 0.0046
-4 4 21 8.2376 -0.0016
-4 4 22 -4.9426 -0.0010
-4 4 23 1.2267 -0.0023
-4 4 24 -0.3250 0.0106
-4 5 1 4.8668 -0.0198
-4 5 2 3.3070 0.0186
-4 5 3 -12.5128 -0.0103
-4 5 4 15.6965 0.0038
-4 5 5 -9.8337 0.0000
-4 5 6 -0.9704 -0.0031
-4 5 7 7.1715 0.0043
-4 5 8 -3.1927 -0.0032
-4 5 9 -6.9139 0.0024
-4 5 10 14.5732 -0.0021
-4 5 11 -13.4728 -0.0002
-4 5 12 5.2983 0.0031
-4 5 13 2.4044 -0.0025
-4 5 14 -4.1543 -0.0013
-4 5 15 -0.4759 0.0033
-4 5 16 6.8004 -0.0022
-4 5 17 -8.9607 0.0006
-4 5 18 5.0295 0.0010
-4 5 19 1.4300 -0.0026
-4 5 20 -4.5403 0.0018
-4 5 21 2.8415 0.0021
-4 5 22 0.1733 -0.0030
-4 5 23 -0.9310 -0.0039
-4 5 24 -0.5657 0.0129
-4 6 1 3.3800 -0.0115
-4 6 2 -0.4318 -0.0054
-4 6 3 -0.4707 0.0156
-4 6 4 -2.1885 -0.0153
-4 6 5 6.1074 0.0105
-4 6 6 -7.9260 -0.0069
-4 6 7 4.7722 0.0047
-4 6 8 2.3531 -0.0026
-4 6 9 -7.8029 0.0006
-4 6 10 7.9622 0.0016
-4 6 11 -3.8575 -0.0026
-4 6 12 -0.5047 0.0004
-4 6 13 1.0439 0.0035
-4 6 14 2.4165 -0.0041
-4 6 15 -6.9219 0.0006
-4 6 16 8.8778 0.0021
-4 6 17 -6.9007 -0.0016
-4 6 18 3.2157 0.0010
-4 6 19 -1.0587 -0.0009
-4 6 20 1.8869 -0.0024
-4 6 21 -3.6057 0.0069
-4 6 22 3.3433 -0.0042
-4 6 23 -1.1828 -0.0062
-4 7 1 4.9263 0.0217
-4 7 2 -6.6615 -0.0304
-4 7 3 8.3857 0.0261
-4 7 4 -10.5912 -0.0153
-4 7 5 12.2024 0.0075
-4 7 6 -12.5445 -0.0058
-4 7 7 11.6440 0.0058
-4 7 8 -9.8447 -0.0035
-4 7 9 8.8711 -0.0006
-4 7 10 -8.9773 0.0035
-4 7 11 8.6335 -0.0024
-4 7 12 -7.1380 -0.0014
-4 7 13 4.6972 0.0036
-4 7 14 -2.3165 -0.0017
-4 7 15 0.6861 -0.0004
-4 7 16 0.0699 -0.0016
-4 7 17 -0.1555 0.0045
-4 7 18 0.3469 -0.0033
-4 7 19 -0.7217 -0.0000
-4 7 20 0.9519 0.0007
-4 7 21 -0.6353 -0.0010
-4 7 22 -0.3326 0.0063
-4 7 23 1.0535 -0.0132
-4 8 1 -4.8549 0.0221
-4 8 2 2.7722 -0.0176
-4 8 3 -2.5159 0.0063
-4 8 4 2.0531 0.0033
-4 8 5 -0.7931 -0.0049
-4 8 6 -0.3421 0.0006
-4 8 7 0.5365 0.0019
-4 8 8 0.9929 0.0004
-4 8 9 -3.3297 -0.0034
-4 8 10 4.6344 0.0027
-4 8 11 -3.9013 0.0004
-4 8 12 1.0354 -0.0016
-4 8 13 2.4654 -0.0010
-4 8 14 -4.4877 0.0041
-4 8 15 3.8670 -0.0029
-4 8 16 -1.6450 -0.0022
-4 8 17 0.3628 0.0050
-4 8 18 -0.8952 -0.0024
-4 8 19 2.2652 -0.0004
-4 8 20 -2.9889 -0.0017
-4 8 21 2.4879 0.0054
-4 8 22 -1.6144 -0.0051
-4 9 1 0.8755 0.0143
-4 9 2 2.6186 -0.0041
-4 9 3 -7.2133 -0.0076
-4 9 4 9.9761 0.0134
-4 9 5 -10.1971 -0.0100
-4 9 6 9.7695 0.0036
-4 9 7 -10.2497 -0.0017
-4 9 8 11.5195 0.0029
-4 9 9 -11.4597 -0.0010
-4 9 10 7.9563 -0.0036
-4 9 11 -1.6020 0.0046
-4 9 12 -4.5477 -0.0002
-4 9 13 6.9607 -0.0048
-4 9 14 -4.7302 0.0055
-4 9 15 0.3057 -0.0017
-4 9 16 2.5394 -0.0022
-4 9 17 -1.5058 0.0020
-4 9 18 -1.6231 0.0009
-4 9 19 3.4131 -0.0005
-4 9 20 -2.7543 -0.0049
-4 9 21 1.0877 0.0095
-4 10 1 4.8047 -0.0030
-4 10 2 1.0922 0.0115
-4 10 3 -4.1418 -0.0161
-4 10 4 3.1386 0.0126
-4 10 5 0.3259 -0.0040
-4 10 6 -3.0761 -0.0010
-4 10 7 3.4253 -0.0009
-4 10 8 -2.5696 0.0027
-4 10 9 3.0520 0.0005
-4 10 10 -5.3955 -0.0036
-4 10 11 7.1039 0.0015
-4 10 12 -5.5328 0.0018
-4 10 13 0.3282 -0.0007
-4 10 14 5.6110 -0.0030
-4 10 15 -8.2746 0.0046
-4 10 16 6.2516 -0.0028
-4 10 17 -1.4537 -0.0006
-4 10 18 -2.1771 0.0028
-4 10 19 2.3118 -0.0014
-4 10 20 -0.5000 -0.0028
-4 11 1 -2.2057 -0.0127
-4 11 2 1.3849 0.0122
-4 11 3 2.5047 -0.0071
-4 11 4 -7.7471 -0.0010
-4 11 5 11.0358 0.0066
-4 11 6 -10.0187 -0.0045
-4 11 7 5.3987 -0.0012
-4 11 8 -0.2717 0.0027
-4 11 9 -2.6094 -0.0002
-4 11 10 3.6870 -0.0001
-4 11 11 -5.5335 -0.0025
-4 11 12 8.7320 0.0019
-4 11 13 -11.4694 0.0020
-4 11 14 11.4817 -0.0036
-4 11 15 -7.8907 0.0012
-4 11 16 2.6811 0.0014
-4 11 17 1.0676 -0.0022
-4 11 18 -1.6523 0.0021
-4 11 19 -0.0293 -0.0008
-4 12 1 -0.4496 -0.0100
-4 12 2 -1.4769 0.0040
-4 12 3 3.6763 0.0017
-4 12 4 -4.5530 -0.0052
-4 12 5 2.5090 0.0047
-4 12 6 2.1098 -0.0006
-4 12 7 -6.2087 -0.0025
-4 12 8 6.9364 0.0015
-4 12 9 -4.2421 0.0004
-4 12 10 0.7551 0.0003
-4 12 11 0.7941 -0.0014
-4 12 12 -0.7247 -0.0009
-4 12 13 0.9295 0.0039
-4 12 14 -1.9573 -0.0030
-4 12 15 3.1909 0.0001
-4 12 16 -3.4570 0.0009
-4 12 17 2.1844 -0.0003
-4 13 1 -2.8433 0.0032
-4 13 2 2.6013 -0.0046
-4 13 3 -1.9200 0.0036
-4 13 4 1.8995 -0.0015
-4 13 5 -2.6715 -0.0005
-4 13 6 3.0112 0.0022
-4 13 7 -0.7546 -0.0023
-4 13 8 -4.0611 0.0007
-4 13 9 8.5761 0.0003
-4 13 10 -10.2889 0.0008
-4 13 11 9.0144 -0.0019
-4 13 12 -6.6754 0.0016
-4 13 13 5.0391 -0.0023
-4 13 14 -4.0246 0.0059
-4 13 15 3.1336 -0.0093
-4 13 16 -2.2583 0.0092
-4 14 1 -7.1086 -0.0013
-4 14 2 3.9525 0.0064
-4 14 3 -1.7117 -0.0098
-4 14 4 1.3529 0.0094
-4 14 5 -1.8628 -0.0058
-4 14 6 1.7871 0.0020
-4 14 7 -0.5851 0.0003
-4 14 8 -0.4755 -0.0018
-4 14 9 -0.3905 0.0020
-4 14 10 2.8326 -0.0006
-4 14 11 -4.9015 -0.0007
-4 14 12 5.3079 0.0009
-4 14 13 -4.1599 -0.0015
-4 14 14 2.4372 0.0032
-4 15 1 4.8264 -0.0090
-4 15 2 -5.7867 0.0107
-4 15 3 4.4623 -0.0089
-4 15 4 -1.6279 0.0030
-4 15 5 -0.7927 0.0034
-4 15 6 1.8278 -0.0049
-4 15 7 -2.1871 0.0021
-4 15 8 2.9463 0.0004
-4 15 9 -4.1359 -0.0009
-4 15 10 4.6996 0.0006
-4 15 11 -3.9429 0.0001
-4 16 1 6.6183 -0.0053
-4 16 2 -5.0529 0.0055
-4 16 3 2.9040 -0.0007
-4 16 4 -1.2419 -0.0060
-4 16 5 0.8888 0.0071
-4 16 6 -1.4352 -0.0008
-4 16 7 1.7972 -0.0064
-4 16 8 -1.5025 0.0082
-3 -19 1 -0.5975 0.0093
-3 -19 2 1.1703 -0.0080
-3 -19 3 -1.1669 0.0047
-3 -19 4 -0.0128 -0.0005
-3 -19 5 1.5109 -0.0017
-3 -19 6 -2.1127 0.0013
-3 -18 1 -1.8099 0.0031
-3 -18 2 1.0476 -0.0025
-3 -18 3 0.4043 0.0020
-3 -18 4 -1.6773 -0.0028
-3 -18 5 1.7751 0.0044
-3 -18 6 -1.0955 -0.0050
-3 -18 7 0.7949 0.0039
-3 -18 8 -1.0303 -0.0026
-3 -18 9 0.8673 0.0025
-3 -17 1 -0.4654 0.0020
-3 -17 2 0.3046 -0.0047
-3 -17 3 -1.1811 0.0051
-3 -17 4 2.6424 -0.0042
-3 -17 5 -3.7188 0.0025
-3 -17 6 3.4521 -0.0009
-3 -17 7 -2.1465 0.0006
-3 -17 8 1.5107 -0.0019
-3 -17 9 -2.2660 0.0026
-3 -17 10 2.9701 -0.0012
-3 -17 11 -2.0520 -0.0012
-3 -17 12 0.1161 0.0018
-3 -16 1 -0.5148 0.0104
-3 -16 2 3.2011 -0.0053
-3 -16 3 -6.0236 -0.0011
-3 -16 4 7.1497 0.0054
-3 -16 5 -5.9825 -0.0062
-3 -16 6 3.8255 0.0039
-3 -16 7 -2.6202 -0.0009
-3 -16 8 3.3779 -0.0004
-3 -16 9 -4.8454 -0.0003
-3 -16 10 4.5792 0.0010
-3 -16 11 -2.2214 -0.0004
-3 -16 12 -0.0706 -0.0008
-3 -16 13 0.4715 0.0007
-3 -16 14 0.4651 0.0004
-3 -15 1 6.1367 -0.0006
-3 -15 2 -3.2407 0.0078
-3 -15 3 2.1925 -0.0112
-3 -15 4 -3.5453 0.0105
-3 -15 5 5.8481 -0.0068
-3 -15 6 -6.6709 0.0031
-3 -15 7 5.0301 -0.0017
-3 -15 8 -2.2908 0.0015
-3 -15 9 0.6255 -0.0000
-3 -15 10 -1.1901 -0.0024
-3 -15 11 2.5713 0.0031
-3 -15 12 -2.0847 -0.0010
-3 -15 13 -0.7689 -0.0013
-3 -15 14 3.8885 0.0004
-3 -15 15 -5.0131 0.0033
-3 -15 16 3.9880 -0.0059
-3 -14 1 3.0403 -0.0112
-3 -14 2 -2.6263 0.0096
-3 -14 3 5.4527 -0.0069
-3 -14 4 -9.2099 0.0042
-3 -14 5 10.8473 -0.0017
-3 -14 6 -9.2216 0.0007
-3 -14 7 5.8152 -0.0009
-3 -14 8 -3.5056 -0.0003
-3 -14 9 3.6870 0.0035
-3 -14 10 -5.2902 -0.0049
-3 -14 11 6.0572 0.0026
-3 -14 12 -4.2497 0.0002
-3 -14 13 0.8396 0.0000
-3 -14 14 1.4133 -0.0017
-3 -14 15 -1.2645 0.0010
-3 -14 16 -0.0850 0.0026
-3 -14 17 0.5440 -0.0055
-3 -13 1 -8.8876 -0.0013
-3 -13 2 7.4701 -0.0023
-3 -13 3 -3.7204 0.0031
-3 -13 4 1.5508 -0.0032
-3 -13 5 -2.6654 0.0032
-3 -13 6 5.1217 -0.0014
-3 -13 7 -5.8540 -0.0007
-3 -13 8 3.6145 0.0005
-3 -13 9 0.2757 0.0011
-3 -13 10 -3.2110 -0.0010
-3 -13 11 3.8771 -0.0001
-3 -13 12 -2.7334 -0.0009
-3 -13 13 1.3830 0.0022
-3 -13 14 -1.5930 -0.0003
-3 -13 15 3.0165 -0.0036
-3 -13 16 -3.8110 0.0050
-3 -13 17 2.9702 -0.0026
-3 -13 18 -1.2895 -0.0001
-3 -13 19 0.3479 -0.0004
-3 -12 1 -9.5933 0.0007
-3 -12 2 8.4987 -0.0021
-3 -12 3 -7.2265 0.0017
-3 -12 4 7.9124 -0.0019
-3 -12 5 -9.3076 0.0017
-3 -12 6 8.8237 0.0008
-3 -12 7 -5.5229 -0.0032
-3 -12 8 1.5728 0.0032
-3 -12 9 0.4714 -0.0024
-3 -12 10 -0.0277 0.0023
-3 -12 11 -1.6635 -0.0013
-3 -12 12 2.8727 -0.0008
-3 -12 13 -2.8612 0.0014
-3 -12 14 1.3406 0.0004
-3 -12 15 1.0890 -0.0010
-3 -12 16 -2.9343 -0.0008
-3 -12 17 3.6386 0.0012
-3 -12 18 -3.4782 0.0018
-3 -12 19 2.9031 -0.0041
-3 -12 20 -1.8977 0.0017
-3 -11 1 -2.0624 0.0052
-3 -11 2 -0.6657 -0.0006
-3 -11 3 2.5833 -0.0051
-3 -11 4 -2.9400 0.0075
-3 -11 5 3.3252 -0.0077
-3 -11 6 -4.1186 0.0081
-3 -11 7 4.0745 -0.0081
-3 -11 8 -1.7060 0.0068
-3 -11 9 -2.6375 -0.0050
-3 -11 10 6.4516 0.0033
-3 -11 11 -8.2892 -0.0012
-3 -11 12 8.3479 -0.0006
-3 -11 13 -7.3387 0.0006
-3 -11 14 5.6293 0.0002
-3 -11 15 -3.4339 0.0002
-3 -11 16 1.9578 -0.0007
-3 -11 17 -1.8424 -0.0004
-3 -11 18 2.6796 0.0009
-3 -11 19 -3.7825 0.0024
-3 -11 20 4.2546 -0.0072
-3 -11 21 -3.6464 0.0075
-3 -10 1 5.1052 0.0010
-3 -10 2 -8.5948 0.0121
-3 -10 3 11.4627 -0.0171
-3 -10 4 -12.1237 0.0127
-3 -10 5 10.6550 -0.0061
-3 -10 6 -6.8623 0.0037
-3 -10 7 0.9694 -0.0042
-3 -10 8 4.5054 0.0033
-3 -10 9 -7.1193 -0.0009
-3 -10 10 6.1660 -0.0006
-3 -10 11 -3.5533 0.0005
-3 -10 12 1.8174 0.0003
-3 -10 13 -1.2811 -0.0010
-3 -10 14 1.3624 0.0010
-3 -10 15 -1.6736 -0.0002
-3 -10 16 2.5956 -0.0001
-3 -10 17 -4.3796 -0.0008
-3 -10 18 6.1464 0.0017
-3 -10 19 -6.9905 -0.0019
-3 -10 20 6.0790 0.0028
-3 -10 21 -3.6347 -0.0054
-3 -10 22 1.1538 0.0074
-3 -9 1 1.6461 -0.0278
-3 -9 2 -5.3675 0.0269
-3 -9 3 9.9651 -0.0153
-3 -9 4 -10.7748 0.0011
-3 -9 5 6.8954 0.0052
-3 -9 6 -1.5432 -0.0023
-3 -9 7 -1.3772 -0.0009
-3 -9 8 -1.1682 -0.0011
-3 -9 9 7.7148 0.0040
-3 -9 10 -13.1884 -0.0030
-3 -9 11 14.2977 0.0004
-3 -9 12 -11.2927 -0.0001
-3 -9 13 7.3749 0.0016
-3 -9 14 -4.9925 -0.0027
-3 -9 15 4.1454 0.0025
-3 -9 16 -3.7395 -0.0014
-3 -9 17 2.4023 -0.0004
-3 -9 18 -0.3839 0.0012
-3 -9 19 -0.9473 0.0001
-3 -9 20 0.6452 -0.0020
-3 -9 21 0.7040 0.0017
-3 -9 22 -1.2259 0.0006
-3 -8 1 -19.0773 -0.0137
-3 -8 2 6.6064 0.0041
-3 -8 3 0.8476 0.0077
-3 -8 4 1.4112 -0.0141
-3 -8 5 -8.9415 0.0107
-3 -8 6 12.2786 -0.0039
-3 -8 7 -7.0908 0.0026
-3 -8 8 -2.9290 -0.0052
-3 -8 9 10.3511 0.0039
-3 -8 10 -9.8160 0.0014
-3 -8 11 3.6486 -0.0033
-3 -8 12 1.8901 -0.0001
-3 -8 13 -2.8286 0.0031
-3 -8 14 -0.5878 -0.0025
-3 -8 15 4.7273 0.0007
-3 -8 16 -6.5841 0.0002
-3 -8 17 5.4218 -0.0001
-3 -8 18 -3.2416 -0.0013
-3 -8 19 2.8780 0.0032
-3 -8 20 -4.2902 -0.0023
-3 -8 21 5.2715 -0.0027
-3 -8 22 -4.1754 0.0074
-3 -8 23 2.0657 -0.0069
-3 -7 1 -0.0584 0.0016
-3 -7 2 -10.4652 -0.0087
-3 -7 3 3.9249 0.0142
-3 -7 4 12.9666 -0.0138
-3 -7 5 -25.7390 0.0078
-3 -7 6 25.2599 -0.0036
-3 -7 7 -15.0604 0.0047
-3 -7 8 6.8899 -0.0048
-3 -7 9 -7.4830 -0.0006
-3 -7 10 14.2186 0.0056
-3 -7 11 -19.0589 -0.0039
-3 -7 12 16.3421 -0.0002
-3 -7 13 -8.2285 0.0003
-3 -7 14 0.4056 0.0020
-3 -7 15 2.6039 -0.0019
-3 -7 16 -0.5929 -0.0002
-3 -7 17 -2.6386 0.0013
-3 -7 18 3.2983 -0.0011
-3 -7 19 -0.4811 0.0001
-3 -7 20 -2.5999 0.0019
-3 -7 21 2.8861 -0.0032
-3 -7 22 -1.0339 -0.0003
-3 -7 23 -0.4816 0.0072
-3 -7 24 0.4958 -0.0112
-3 -6 1 50.7739 0.0125
-3 -6 2 -36.5291 -0.0122
-3 -6 3 8.7461 0.0087
-3 -6 4 13.5258 -0.0011
-3 -6 5 -16.6415 -0.0056
-3 -6 6 4.4585 0.0051
-3 -6 7 8.4282 -0.0000
-3 -6 8 -10.2972 -0.0014
-3 -6 9 2.3768 -0.0014
-3 -6 10 5.0592 0.0021
-3 -6 11 -5.3346 0.0002
-3 -6 12 -0.4928 0.0002
-3 -6 13 5.6136 -0.0041
-3 -6 14 -4.8675 0.0054
-3 -6 15 -0.9362 -0.0022
-3 -6 16 7.1651 -0.0005
-3 -6 17 -8.8307 -0.0001
-3 -6 18 5.5814 0.0013
-3 -6 19 -1.2838 -0.0013
-3 -6 20 -0.1431 0.0006
-3 -6 21 -1.4681 0.0012
-3 -6 22 2.7167 -0.0045
-3 -6 23 -1.8868 0.0061
-3 -6 24 0.2100 -0.0029
-3 -5 1 31.0832 0.0053
-3 -5 2 -1.5150 0.0013
-3 -5 3 -18.4660 -0.0077
-3 -5 4 16.4017 0.0126
-3 -5 5 3.7299 -0.0117
-3 -5 6 -24.3984 0.0046
-3 -5 7 30.3113 0.0017
-3 -5 8 -21.4492 -0.0026
-3 -5 9 8.6627 0.0017
-3 -5 10 -2.7437 -0.0029
-3 -5 11 3.9451 0.0034
-3 -5 12 -5.7711 0.0001
-3 -5 13 3.3401 -0.0034
-3 -5 14 3.2447 0.0020
-3 -5 15 -8.9866 0.0013
-3 -5 16 9.7600 -0.0013
-3 -5 17 -5.5584 -0.0004
-3 -5 18 0.7535 -0.0000
-3 -5 19 0.0707 0.0020
-3 -5 20 2.6599 -0.0027
-3 -5 21 -5.1666 0.0026
-3 -5 22 4.5246 -0.0028
-3 -5 23 -1.8525 0.0019
-3 -5 24 -0.0432 0.0002
-3 -5 25 0.4800 -0.0006
-3 -4 1 -40.3789 -0.0115
-3 -4 2 53.2140 0.0088
-3 -4 3 -41.3870 -0.0057
-3 -4 4 14.1601 0.0031
-3 -4 5 9.5001 0.0010
-3 -4 6 -17.1226 -0.0047
-3 -4 7 7.9688 0.0050
-3 -4 8 5.4839 -0.0036
-3 -4 9 -11.7354 0.0039
-3 -4 10 8.8521 -0.0049
-3 -4 11 -2.9925 0.0033
-3 -4 12 0.6050 -0.0002
-3 -4 13 -1.4682 0.0001
-3 -4 14 2.4061 -0.0024
-3 -4 15 -0.5146 0.0026
-3 -4 16 -3.8707 0.0002
-3 -4 17 7.0773 -0.0014
-3 -4 18 -6.0463 -0.0006
-3 -4 19 1.1299 0.0025
-3 -4 20 3.2943 -0.0021
-3 -4 21 -4.1380 0.0012
-3 -4 22 2.4888 -0.0016
-3 -4 23 -1.0346 0.0022
-3 -4 24 0.9707 -0.0031
-3 -4 25 -1.1132 0.0054
-3 -3 1 -29.2202 -0.0008
-3 -3 2 18.5362 -0.0132
-3 -3 3 1.0090 0.0177
-3 -3 4 -15.2193 -0.0154
-3 -3 5 13.9747 0.0114
-3 -3 6 -3.1173 -0.0078
-3 -3 7 -7.9983 0.0054
-3 -3 8 11.5272 -0.0047
-3 -3 9 -6.3647 0.0046
-3 -3 10 -1.4282 -0.0032
-3 -3 11 6.9800 0.0012
-3 -3 12 -9.0072 -0.0014
-3 -3 13 10.0349 0.0036
-3 -3 14 -11.4365 -0.0041
-3 -3 15 12.1816 0.0013
-3 -3 16 -11.2808 0.0012
-3 -3 17 8.0398 -0.0005
-3 -3 18 -3.9765 -0.0014
-3 -3 19 1.5238 0.0009
-3 -3 20 -1.9668 0.0015
-3 -3 21 3.8171 -0.0024
-3 -3 22 -4.2344 0.0007
-3 -3 23 3.0247 0.0020
-3 -3 24 -1.6648 -0.0041
-3 -3 25 1.0104 0.0048
-3 -2 1 22.9004 0.0259
-3 -2 2 -23.2494 -0.0330
-3 -2 3 14.7761 0.0256
-3 -2 4 -3.8265 -0.0131
-3 -2 5 -6.4895 0.0039
-3 -2 6 10.8530 -0.0001
-3 -2 7 -9.1707 -0.0003
-3 -2 8 6.0713 0.0008
-3 -2 9 -3.6155 -0.0025
-3 -2 10 2.9534 0.0034
-3 -2 11 -2.5050 -0.0013
-3 -2 12 1.4299 -0.0020
-3 -2 13 -0.6952 0.0027
-3 -2 14 1.5620 -0.0002
-3 -2 15 -4.6010 -0.0020
-3 -2 16 7.3008 0.0009
-3 -2 17 -7.3122 0.0018
-3 -2 18 4.1418 -0.0020
-3 -2 19 0.5783 -0.0010
-3 -2 20 -4.0166 0.0039
-3 -2 21 4.9533 -0.0035
-3 -2 22 -4.1007 0.0013
-3 -2 23 3.4609 -0.0005
-3 -2 24 -3.4680 0.0028
-3 -2 25 2.8102 -0.0064
-3 -1 1 1.5224 0.0334
-3 -1 2 18.2441 -0.0233
-3 -1 3 -30.8695 0.0063
-3 -1 4 25.5077 0.0066
-3 -1 5 -11.1883 -0.0100
-3 -1 6 1.3062 0.0072
-3 -1 7 -0.8405 -0.0051
-3 -1 8 8.7755 0.0063
-3 -1 9 -16.7797 -0.0068
-3 -1 10 18.8001 0.0031
-3 -1 11 -14.9833 0.0020
-3 -1 12 10.1827 -0.0027
-3 -1 13 -9.5842 -0.0014
-3 -1 14 12.5719 0.0048
-3 -1 15 -15.2328 -0.0034
-3 -1 16 13.5591 -0.0005
-3 -1 17 -7.6868 0.0023
-3 -1 18 2.0395 -0.0004
-3 -1 19 -0.2739 -0.0022
-3 -1 20 2.5395 0.0023
-3 -1 21 -5.2502 -0.0012
-3 -1 22 5.4828 0.0027
-3 -1 23 -3.5585 -0.0078
-3 -1 24 1.6622 0.0127
-3 -1 25 -1.1548 -0.0126
-3 0 1 -33.4104 0.0053
-3 0 2 28.7232 0.0106
-3 0 3 -3.0580 -0.0228
-3 0 4 -29.8311 0.0232
-3 0 5 47.6301 -0.0143
-3 0 6 -39.0719 0.0065
-3 0 7 16.8761 -0.0061
-3 0 8 1.1322 0.0079
-3 0 9 -4.0395 -0.0044
-3 0 10 -5.9188 -0.0027
-3 0 11 16.7408 0.0052
-3 0 12 -18.8897 -0.0011
-3 0 13 11.4369 -0.0033
-3 0 14 -2.6178 0.0022
-3 0 15 -0.0310 0.0020
-3 0 16 -3.6005 -0.0033
-3 0 17 7.9055 0.0002
-3 0 18 -6.8481 0.0027
-3 0 19 0.6265 -0.0017
-3 0 20 5.6290 -0.0014
-3 0 21 -7.2982 0.0019
-3 0 22 4.6835 0.0013
-3 0 23 -1.7056 -0.0037
-3 0 24 0.4915 0.0007
-3 0 25 -0.3450 0.0062
-3 1 1 -14.5576 -0.0173
-3 1 2 -16.3830 0.0257
-3 1 3 48.2061 -0.0235
-3 1 4 -56.8604 0.0102
-3 1 5 36.8577 0.0021
-3 1 6 -1.8619 -0.0031
-3 1 7 -21.3452 -0.0024
-3 1 8 18.0679 0.0027
-3 1 9 4.0781 0.0030
-3 1 10 -25.7652 -0.0059
-3 1 11 31.1450 0.0019
-3 1 12 -20.5834 0.0027
-3 1 13 5.9662 -0.0011
-3 1 14 0.5229 -0.0040
-3 1 15 3.3997 0.0055
-3 1 16 -9.6835 -0.0013
-3 1 17 10.5170 -0.0031
-3 1 18 -4.7962 0.0026
-3 1 19 -1.6168 0.0013
-3 1 20 2.8789 -0.0027
-3 1 21 0.7641 0.0001
-3 1 22 -4.5917 0.0015
-3 1 23 4.8301 0.0028
-3 1 24 -2.6527 -0.0100
-3 1 25 0.9819 0.0129
-3 2 1 -0.3686 -0.0154
-3 2 2 -11.1643 0.0109
-3 2 3 8.1257 0.0024
-3 2 4 17.6855 -0.0146
-3 2 5 -49.6285 0.0138
-3 2 6 64.7788 -0.0040
-3 2 7 -50.8777 -0.0008
-3 2 8 17.2238 -0.0026
-3 2 9 11.4333 0.0050
-3 2 10 -17.5273 -0.0007
-3 2 11 2.7013 -0.0041
-3 2 12 15.5854 0.0026
-3 2 13 -21.8883 0.0027
-3 2 14 14.4646 -0.0046
-3 2 15 -2.2733 0.0012
-3 2 16 -3.9065 0.0028
-3 2 17 1.6908 -0.0024
-3 2 18 3.2293 -0.0015
-3 2 19 -4.1498 0.0033
-3 2 20 -0.1168 -0.0003
-3 2 21 4.5571 -0.0028
-3 2 22 -4.8206 0.0002
-3 2 23 1.4900 0.0062
-3 2 24 1.3760 -0.0083
-3 2 25 -1.5668 0.0024
-3 3 1 -0.1682 -0.0028
-3 3 2 1.4706 -0.0088
-3 3 3 -13.0287 0.0195
-3 3 4 29.8351 -0.0186
-3 3 5 -34.8953 0.0074
-3 3 6 18.7792 0.0006
-3 3 7 9.2002 0.0002
-3 3 8 -28.8150 -0.0017
-3 3 9 25.1100 -0.0024
-3 3 10 -2.7388 0.0066
-3 3 11 -20.0534 -0.0042
-3 3 12 27.2792 -0.0015
-3 3 13 -17.7189 0.0035
-3 3 14 3.1231 -0.0005
-3 3 15 5.4527 -0.0032
-3 3 16 -4.6184 0.0037
-3 3 17 -0.7957 -0.0009
-3 3 18 3.5029 -0.0016
-3 3 19 -0.8428 0.0004
-3 3 20 -3.9705 0.0028
-3 3 21 5.6221 -0.0028
-3 3 22 -3.2558 -0.0016
-3 3 23 0.4327 0.0039
-3 3 24 -0.0335 0.0015
-3 3 25 1.3049 -0.0110
-3 4 1 20.0949 0.0003
-3 4 2 -23.4073 -0.0070
-3 4 3 17.8432 0.0076
-3 4 4 -12.5950 -0.0012
-3 4 5 16.0568 -0.0034
-3 4 6 -26.2810 0.0014
-3 4 7 31.1944 0.0009
-3 4 8 -21.6623 0.0028
-3 4 9 1.0380 -0.0078
-3 4 10 16.2757 0.0068
-3 4 11 -19.2113 -0.0020
-3 4 12 8.9271 0.0001
-3 4 13 4.6712 -0.0020
-3 4 14 -11.1140 0.0038
-3 4 15 8.0990 -0.0035
-3 4 16 -0.4121 0.0016
-3 4 17 -5.3694 0.0011
-3 4 18 5.4501 -0.0018
-3 4 19 -1.7857 -0.0009
-3 4 20 -0.9667 0.0035
-3 4 21 0.0564 -0.0014
-3 4 22 2.4636 -0.0030
-3 4 23 -2.9658 0.0018
-3 4 24 1.2136 0.0063
-3 4 25 0.4758 -0.0132
-3 5 1 19.8769 0.0048
-3 5 2 -10.1480 0.0037
-3 5 3 -1.5227 -0.0119
-3 5 4 7.0687 0.0139
-3 5 5 -4.9820 -0.0082
-3 5 6 0.6616 0.0017
-3 5 7 -0.5415 -0.0007
-3 5 8 4.9277 0.0030
-3 5 9 -8.5003 -0.0025
-3 5 10 5.4061 -0.0001
-3 5 11 3.4476 -0.0003
-3 5 12 -11.1425 0.0034
-3 5 13 12.7581 -0.0047
-3 5 14 -7.6965 0.0034
-3 5 15 -0.3128 -0.0016
-3 5 16 6.2178 -0.0002
-3 5 17 -7.4485 0.0014
-3 5 18 4.9081 0.0003
-3 5 19 -2.4775 -0.0041
-3 5 20 2.7438 0.0041
-3 5 21 -4.7793 0.0017
-3 5 22 5.6952 -0.0054
-3 5 23 -4.0044 0.0001
-3 5 24 1.5368 0.0099
-3 6 1 -14.2359 -0.0082
-3 6 2 23.0242 0.0180
-3 6 3 -23.6502 -0.0171
-3 6 4 16.3280 0.0085
-3 6 5 -4.7455 -0.0006
-3 6 6 -5.4428 -0.0018
-3 6 7 10.5786 0.0019
-3 6 8 -11.6335 -0.0040
-3 6 9 10.7611 0.0065
-3 6 10 -9.5921 -0.0047
-3 6 11 8.2420 -0.0005
-3 6 12 -5.5628 0.0030
-3 6 13 2.4385 -0.0009
-3 6 14 -0.2308 -0.0019
-3 6 15 -0.5082 0.0028
-3 6 16 -0.4032 -0.0031
-3 6 17 2.2404 0.0025
-3 6 18 -3.9286 0.0007
-3 6 19 4.2102 -0.0036
-3 6 20 -3.3308 0.0019
-3 6 21 2.7826 0.0015
-3 6 22 -3.0849 0.0015
-3 6 23 3.5889 -0.0111
-3 6 24 -3.0688 0.0179
-3 7 1 -15.9611 -0.0168
-3 7 2 9.3852 0.0084
-3 7 3 -1.3543 0.0038
-3 7 4 -5.3902 -0.0092
-3 7 5 9.3717 0.0056
-3 7 6 -9.1696 -0.0015
-3 7 7 3.9032 0.0028
-3 7 8 4.0164 -0.0061
-3 7 9 -11.3788 0.0050
-3 7 10 15.5555 -0.0000
-3 7 11 -14.5753 -0.0022
-3 7 12 9.2369 -0.0011
-3 7 13 -2.0403 0.0049
-3 7 14 -3.7782 -0.0045
-3 7 15 5.8787 0.0019
-3 7 16 -4.9253 -0.0011
-3 7 17 3.2441 0.0015
-3 7 18 -2.9011 -0.0008
-3 7 19 3.7802 0.0004
-3 7 20 -4.5957 -0.0023
-3 7 21 4.7794 0.0031
-3 7 22 -4.1194 0.0012
-3 7 23 2.9424 -0.0073
-3 8 1 12.7479 0.0095
-3 8 2 -12.6278 -0.0190
-3 8 3 7.7934 0.0203
-3 8 4 -1.2678 -0.0112
-3 8 5 -4.8617 0.0018
-3 8 6 10.1292 -0.0010
-3 8 7 -15.4009 0.0046
-3 8 8 19.2279 -0.0036
-3 8 9 -18.9790 -0.0018
-3 8 10 13.7739 0.0042
-3 8 11 -4.8026 -0.0004
-3 8 12 -3.8482 -0.0040
-3 8 13 7.5001 0.0034
-3 8 14 -4.2934 0.0010
-3 8 15 -3.2271 -0.0034
-3 8 16 9.3474 0.0017
-3 8 17 -10.2350 0.0002
-3 8 18 6.5116 0.0007
-3 8 19 -2.0739 -0.0020
-3 8 20 0.0951 0.0011
-3 8 21 -0.0838 -0.0001
-3 8 22 0.2959 0.0023
-3 8 23 -0.0197 -0.0054
-3 9 1 14.9601 0.0138
-3 9 2 -5.8836 -0.0136
-3 9 3 -0.9670 0.0063
-3 9 4 1.9264 0.0023
-3 9 5 1.4976 -0.0028
-3 9 6 -5.7765 -0.0025
-3 9 7 7.9909 0.0033
-3 9 8 -8.6406 0.0023
-3 9 9 10.2507 -0.0059
-3 9 10 -13.1235 0.0028
-3 9 11 14.8605 0.0018
-3 9 12 -12.1219 -0.0022
-3 9 13 3.9930 -0.0002
-3 9 14 6.2229 0.0014
-3 9 15 -12.9312 0.0004
-3 9 16 12.1557 -0.0027
-3 9 17 -5.6951 0.0025
-3 9 18 -0.7212 0.0004
-3 9 19 2.9732 -0.0020
-3 9 20 -1.4147 0.0000
-3 9 21 -0.4757 0.0023
-3 9 22 0.8287 -0.0016
-3 10 1 -6.4683 0.0108
-3 10 2 8.3899 -0.0035
-3 10 3 -3.9600 -0.0057
-3 10 4 -5.1263 0.0089
-3 10 5 12.9647 -0.0037
-3 10 6 -14.9417 -0.0016
-3 10 7 11.1585 0.0005
-3 10 8 -5.8333 0.0017
-3 10 9 3.0817 0.0008
-3 10 10 -2.8536 -0.0042
-3 10 11 2.2033 0.0028
-3 10 12 0.9750 0.0016
-3 10 13 -5.2274 -0.0038
-3 10 14 6.7998 0.0032
-3 10 15 -3.5861 -0.0016
-3 10 16 -3.0263 -0.0003
-3 10 17 8.3512 0.0014
-3 10 18 -8.4854 -0.0012
-3 10 19 4.4263 0.0018
-3 10 20 -0.2001 -0.0047
-3 10 21 -1.3259 0.0072
-3 11 1 -10.4282 0.0006
-3 11 2 7.8918 0.0096
-3 11 3 -2.8477 -0.0141
-3 11 4 -0.6937 0.0099
-3 11 5 -0.9504 -0.0021
-3 11 6 7.3737 -0.0012
-3 11 7 -13.8127 0.0004
-3 11 8 15.0140 -0.0017
-3 11 9 -10.2121 0.0055
-3 11 10 3.6324 -0.0056
-3 11 11 0.4413 0.0013
-3 11 12 -1.1348 0.0015
-3 11 13 0.8257 -0.0005
-3 11 14 -2.1871 -0.0015
-3 11 15 4.9334 0.0032
-3 11 16 -6.7799 -0.0047
-3 11 17 5.6664 0.0044
-3 11 18 -1.7342 -0.0016
-3 11 19 -2.0167 -0.0001
-3 11 20 3.0616 -0.0018
-3 12 1 -1.0724 -0.0157
-3 12 2 0.8879 0.0126
-3 12 3 -0.2938 -0.0047
-3 12 4 1.6823 -0.0027
-3 12 5 -5.1556 0.0045
-3 12 6 7.7785 -0.0009
-3 12 7 -6.3259 -0.0020
-3 12 8 0.3556 0.0001
-3 12 9 6.4807 0.0029
-3 12 10 -9.2774 -0.0021
-3 12 11 7.0958 -0.0002
-3 12 12 -2.9350 -0.0005
-3 12 13 0.0763 0.0026
-3 12 14 0.0933 -0.0021
-3 12 15 1.1243 -0.0010
-3 12 16 -1.7396 0.0043
-3 12 17 1.0841 -0.0073
-3 12 18 0.1816 0.0087
-3 12 19 -0.6197 -0.0062
-3 13 1 0.5486 -0.0020
-3 13 2 -2.3800 -0.0086
-3 13 3 3.9549 0.0129
-3 13 4 -4.0390 -0.0098
-3 13 5 2.9824 0.0032
-3 13 6 -2.6456 0.0022
-3 13 7 3.5613 -0.0035
-3 13 8 -4.1013 0.0021
-3 13 9 2.2369 -0.0017
-3 13 10 2.5172 0.0031
-3 13 11 -7.6404 -0.0025
-3 13 12 9.9039 -0.0012
-3 13 13 -8.6979 0.0034
-3 13 14 5.4260 -0.0010
-3 13 15 -2.1343 -0.0027
-3 13 16 0.3024 0.0033
-3 13 17 0.0692 -0.0013
-3 14 1 2.1339 0.0095
-3 14 2 -4.9317 -0.0109
-3 14 3 5.7553 0.0059
-3 14 4 -4.4916 -0.0004
-3 14 5 1.9862 -0.0016
-3 14 6 0.1809 0.0020
-3 14 7 -1.5397 -0.0033
-3 14 8 2.8865 0.0047
-3 14 9 -4.3090 -0.0047
-3 14 10 5.1449 0.0025
-3 14 11 -4.6685 0.0016
-3 14 12 2.7514 -0.0052
-3 14 13 -0.5077 0.0049
-3 14 14 -0.8994 -0.0020
-3 14 15 1.0497 0.0014
-3 15 1 3.3445 0.0019
-3 15 2 -4.0967 0.0020
-3 15 3 2.9281 -0.0046
-3 15 4 -0.8753 0.0023
-3 15 5 -0.5303 0.0012
-3 15 6 0.3258 -0.0005
-3 15 7 1.2766 -0.0028
-3 15 8 -3.2132 0.0033
-3 15 9 4.8287 -0.0008
-3 15 10 -5.7664 -0.0004
-3 15 11 5.6799 -0.0018
-3 15 12 -4.7610 0.0058
-3 15 13 3.4520 -0.0089
-3 16 1 -0.5416 -0.0069
-3 16 2 0.9836 0.0081
-3 16 3 -2.4111 -0.0039
-3 16 4 3.4802 -0.0023
-3 16 5 -3.0651 0.0039
-3 16 6 1.4638 -0.0008
-3 16 7 0.2661 -0.0006
-3 16 8 -1.2949 -0.0019
-3 16 9 1.3408 0.0030
-3 16 10 -0.4937 0.0011
-3 16 11 -0.6782 -0.0064
-3 17 1 -0.9617 -0.0054
-3 17 2 1.8374 0.0014
-3 17 3 -2.9420 0.0045
-3 17 4 3.2245 -0.0052
-3 17 5 -2.5550 0.0005
-3 17 6 1.6893 0.0032
-2 -19 1 -2.8447 0.0020
-2 -19 2 3.7304 0.0030
-2 -19 3 -3.9898 -0.0049
-2 -19 4 3.3021 0.0016
-2 -19 5 -2.4634 0.0034
-2 -18 1 2.1369 -0.0088
-2 -18 2 -1.8717 0.0093
-2 -18 3 1.7655 -0.0051
-2 -18 4 -1.6533 -0.0002
-2 -18 5 1.1926 0.0014
-2 -18 6 -0.7248 0.0016
-2 -18 7 0.6922 -0.0031
-2 -18 8 -0.4589 -0.0015
-2 -18 9 -0.5663 0.0086
-2 -17 1 4.2060 -0.0002
-2 -17 2 -3.9321 -0.0008
-2 -17 3 2.8459 0.0022
-2 -17 4 -1.6783 -0.0013
-2 -17 5 0.9203 -0.0012
-2 -17 6 -0.8767 0.0011
-2 -17 7 0.9134 0.0034
-2 -17 8 -0.0804 -0.0084
-2 -17 9 -1.3270 0.0076
-2 -17 10 1.6711 -0.0007
-2 -17 11 -0.4133 -0.0062
-2 -17 12 -0.8708 0.0075
-2 -16 1 2.2684 0.0100
-2 -16 2 0.3549 -0.0096
-2 -16 3 -1.8429 0.0072
-2 -16 4 1.2830 -0.0034
-2 -16 5 0.5521 0.0014
-2 -16 6 -2.5392 -0.0029
-2 -16 7 3.3928 0.0045
-2 -16 8 -2.8542 -0.0024
-2 -16 9 2.3848 -0.0025
-2 -16 10 -3.2886 0.0061
-2 -16 11 4.8397 -0.0059
-2 -16 12 -4.9382 0.0040
-2 -16 13 2.9465 -0.0037
-2 -16 14 -0.5383 0.0046
-2 -15 1 -3.9746 0.0086
-2 -15 2 5.3546 -0.0053
-2 -15 3 -3.3994 0.0013
-2 -15 4 -0.5598 0.0019
-2 -15 5 3.7469 -0.0017
-2 -15 6 -4.6703 -0.0005
-2 -15 7 3.5534 0.0011
-2 -15 8 -1.7510 -0.0001
-2 -15 9 1.2948 0.0002
-2 -15 10 -2.6778 -0.0015
-2 -15 11 4.0878 0.0014
-2 -15 12 -3.7217 0.0009
-2 -15 13 1.8333 -0.0030
-2 -15 14 -0.4569 0.0027
-2 -15 15 0.7422 -0.0008
-2 -15 16 -1.6950 0.0003
-2 -14 1 -8.0837 -0.0045
-2 -14 2 7.0299 0.0053
-2 -14 3 -3.9733 -0.0068
-2 -14 4 1.9282 0.0064
-2 -14 5 -2.8052 -0.0031
-2 -14 6 5.8063 0.0003
-2 -14 7 -8.4352 0.0000
-2 -14 8 9.0032 -0.0001
-2 -14 9 -7.2431 0.0015
-2 -14 10 4.3805 -0.0021
-2 -14 11 -2.7284 0.0009
-2 -14 12 3.0099 -0.0007
-2 -14 13 -3.5975 0.0025
-2 -14 14 2.6308 -0.0039
-2 -14 15 -0.0939 0.0028
-2 -14 16 -1.9458 -0.0001
-2 -14 17 2.0950 -0.0022
-2 -13 1 1.3786 0.0008
-2 -13 2 -1.9279 -0.0013
-2 -13 3 1.5869 0.0000
-2 -13 4 1.2206 -0.0004
-2 -13 5 -5.2339 0.0021
-2 -13 6 7.7569 -0.0020
-2 -13 7 -7.2896 0.0012
-2 -13 8 4.7410 -0.0025
-2 -13 9 -2.2801 0.0045
-2 -13 10 1.2500 -0.0044
-2 -13 11 -2.0466 0.0032
-2 -13 12 3.8122 -0.0031
-2 -13 13 -4.6124 0.0029
-2 -13 14 3.8527 -0.0012
-2 -13 15 -2.6349 0.0001
-2 -13 16 2.3105 -0.0011
-2 -13 17 -2.8012 0.0022
-2 -13 18 2.5575 -0.0010
-2 -13 19 -1.1383 -0.0008
-2 -12 1 7.3229 0.0024
-2 -12 2 -7.4291 -0.0057
-2 -12 3 7.0402 0.0056
-2 -12 4 -6.3556 -0.0048
-2 -12 5 6.6551 0.0032
-2 -12 6 -8.6849 -0.0012
-2 -12 7 10.9113 0.0012
-2 -12 8 -11.3201 -0.0035
-2 -12 9 9.4593 0.0047
-2 -12 10 -6.4681 -0.0033
-2 -12 11 3.5261 0.0019
-2 -12 12 -0.7447 -0.0013
-2 -12 13 -1.5344 0.0000
-2 -12 14 3.1199 0.0016
-2 -12 15 -4.3060 -0.0011
-2 -12 16 4.7672 -0.0003
-2 -12 17 -4.1004 -0.0004
-2 -12 18 2.4018 0.0014
-2 -12 19 -0.8658 0.0018
-2 -12 20 0.6339 -0.0079
-2 -11 1 -7.7408 0.0150
-2 -11 2 4.7580 -0.0162
-2 -11 3 -0.4036 0.0119
-2 -11 4 -4.3116 -0.0067
-2 -11 5 7.7694 0.0026
-2 -11 6 -8.9691 -0.0000
-2 -11 7 7.3650 -0.0010
-2 -11 8 -3.8258 0.0013
-2 -11 9 0.9706 -0.0018
-2 -11 10 -0.0315 0.0011
-2 -11 11 0.1013 0.0014
-2 -11 12 0.2472 -0.0033
-2 -11 13 -0.8539 0.0022
-2 -11 14 0.3644 0.0002
-2 -11 15 1.2144 -0.0011
-2 -11 16 -3.0868 0.0014
-2 -11 17 4.1191 -0.0021
-2 -11 18 -3.2631 0.0006
-2 -11 19 0.8556 0.0032
-2 -11 20 1.5292 -0.0040
-2 -11 21 -2.0435 -0.0019
-2 -10 1 -12.0398 0.0059
-2 -10 2 7.0915 -0.0020
-2 -10 3 -1.9107 -0.0029
-2 -10 4 -0.5399 0.0039
-2 -10 5 -1.3606 -0.0021
-2 -10 6 6.0894 0.0022
-2 -10 7 -9.7402 -0.0048
-2 -10 8 9.7231 0.0068
-2 -10 9 -5.7216 -0.0056
-2 -10 10 0.5643 0.0019
-2 -10 11 2.2725 0.0014
-2 -10 12 -2.7095 -0.0017
-2 -10 13 2.9997 -0.0003
-2 -10 14 -4.9166 0.0015
-2 -10 15 7.4259 -0.0005
-2 -10 16 -8.3063 -0.0001
-2 -10 17 6.7582 -0.0010
-2 -10 18 -3.3441 0.0020
-2 -10 19 0.2886 -0.0022
-2 -10 20 0.4052 0.0040
-2 -10 21 0.9712 -0.0074
-2 -10 22 -2.2074 0.0082
-2 -9 1 -2.6790 -0.0053
-2 -9 2 -1.8973 0.0132
-2 -9 3 3.6366 -0.0155
-2 -9 4 0.9431 0.0097
-2 -9 5 -9.0989 -0.0035
-2 -9 6 14.9348 0.0033
-2 -9 7 -13.4712 -0.0054
-2 -9 8 6.1787 0.0040
-2 -9 9 0.7967 -0.0001
-2 -9 10 -2.8543 -0.0017
-2 -9 11 -0.2379 0.0007
-2 -9 12 4.0474 0.0008
-2 -9 13 -4.6963 -0.0007
-2 -9 14 2.4324 -0.0014
-2 -9 15 0.0037 0.0033
-2 -9 16 -0.1465 -0.0018
-2 -9 17 -1.5287 -0.0022
-2 -9 18 2.9377 0.0043
-2 -9 19 -2.2141 -0.0028
-2 -9 20 -0.7016 0.0015
-2 -9 21 3.2465 -0.0027
-2 -9 22 -3.3484 0.0038
-2 -8 1 -1.2896 -0.0195
-2 -8 2 -7.9863 0.0243
-2 -8 3 8.1378 -0.0176
-2 -8 4 0.4078 0.0054
-2 -8 5 -8.3926 0.0003
-2 -8 6 8.5785 0.0012
-2 -8 7 -1.8744 -0.0013
-2 -8 8 -4.1305 -0.0026
-2 -8 9 2.2020 0.0044
-2 -8 10 6.2227 -0.0017
-2 -8 11 -14.1185 -0.0013
-2 -8 12 15.9998 0.0009
-2 -8 13 -11.7995 0.0015
-2 -8 14 6.4706 -0.0034
-2 -8 15 -4.1826 0.0030
-2 -8 16 5.6279 -0.0001
-2 -8 17 -8.1565 -0.0021
-2 -8 18 8.4573 0.0001
-2 -8 19 -6.0349 0.0037
-2 -8 20 2.8006 -0.0039
-2 -8 21 -1.3020 0.0007
-2 -8 22 1.7251 -0.0001
-2 -8 23 -2.0414 0.0036
-2 -7 1 23.1587 -0.0223
-2 -7 2 -30.8041 0.0122
-2 -7 3 22.0475 0.0031
-2 -7 4 -8.7138 -0.0108
-2 -7 5 3.5733 0.0064
-2 -7 6 -8.9194 0.0001
-2 -7 7 15.5971 0.0001
-2 -7 8 -14.7776 -0.0029
-2 -7 9 5.9338 0.0012
-2 -7 10 3.0454 0.0025
-2 -7 11 -4.4528 -0.0027
-2 -7 12 -0.9308 -0.0000
-2 -7 13 7.2149 0.0014
-2 -7 14 -8.8292 -0.0004
-2 -7 15 4.9123 -0.0014
-2 -7 16 0.8228 0.0029
-2 -7 17 -4.3217 -0.0021
-2 -7 18 3.9277 -0.0014
-2 -7 19 -1.9367 0.0035
-2 -7 20 1.2477 -0.0011
-2 -7 21 -2.1882 -0.0017
-2 -7 22 3.1231 -0.0000
-2 -7 23 -2.6350 0.0041
-2 -7 24 1.5471 -0.0050
-2 -6 1 39.5603 -0.0049
-2 -6 2 -23.2160 -0.0118
-2 -6 3 -0.3133 0.0196
-2 -6 4 12.0155 -0.0139
-2 -6 5 -7.3281 0.0035
-2 -6 6 -4.8646 0.0002
-2 -6 7 11.7967 0.0016
-2 -6 8 -9.3932 -0.0001
-2 -6 9 4.4912 -0.0055
-2 -6 10 -4.5796 0.0078
-2 -6 11 10.8675 -0.0043
-2 -6 12 -17.0722 0.0007
-2 -6 13 17.3583 -0.0003
-2 -6 14 -11.8391 0.0013
-2 -6 15 4.5991 -0.0018
-2 -6 16 -0.6725 0.0019
-2 -6 17 1.4178 -0.0010
-2 -6 18 -4.3280 -0.0003
-2 -6 19 5.7238 -0.0003
-2 -6 20 -4.2610 0.0031
-2 -6 21 2.0701 -0.0037
-2 -6 22 -0.8114 -0.0000
-2 -6 23 0.2869 0.0036
-2 -6 24 0.3596 -0.0033
-2 -5 1 -22.5509 0.0141
-2 -5 2 50.4410 -0.0157
-2 -5 3 -61.0498 0.0059
-2 -5 4 49.4790 0.0053
-2 -5 5 -27.8055 -0.0076
-2 -5 6 12.0612 0.0027
-2 -5 7 -7.8659 -0.0005
-2 -5 8 10.5781 0.0046
-2 -5 9 -10.8031 -0.0082
-2 -5 10 5.8526 0.0064
-2 -5 11 -0.0912 -0.0030
-2 -5 12 -1.5801 0.0028
-2 -5 13 -1.7016 -0.0041
-2 -5 14 5.5959 0.0030
-2 -5 15 -6.2505 -0.0005
-2 -5 16 2.7106 -0.0009
-2 -5 17 2.5726 0.0014
-2 -5 18 -5.7172 -0.0011
-2 -5 19 5.5169 -0.0005
-2 -5 20 -3.5594 0.0022
-2 -5 21 2.3283 -0.0010
-2 -5 22 -1.9980 -0.0020
-2 -5 23 1.3764 0.0022
-2 -5 24 -0.6283 0.0017
-2 -5 25 0.4197 -0.0061
-2 -4 1 -35.1969 0.0124
-2 -4 2 31.8055 0.0035
-2 -4 3 -14.4811 -0.0175
-2 -4 4 -4.6361 0.0193
-2 -4 5 15.2902 -0.0113
-2 -4 6 -12.2699 0.0037
-2 -4 7 2.7248 -0.0016
-2 -4 8 5.0158 0.0009
-2 -4 9 -7.5281 0.0021
-2 -4 10 6.9874 -0.0041
-2 -4 11 -7.6353 0.0014
-2 -4 12 9.3295 0.0033
-2 -4 13 -10.1275 -0.0043
-2 -4 14 8.1401 0.0012
-2 -4 15 -3.7568 0.0016
-2 -4 16 -0.5187 -0.0019
-2 -4 17 2.7346 0.0012
-2 -4 18 -2.1494 -0.0008
-2 -4 19 0.6369 0.0002
-2 -4 20 -0.1775 0.0002
-2 -4 21 0.7727 0.0005
-2 -4 22 -1.2087 -0.0008
-2 -4 23 0.8354 -0.0011
-2 -4 24 -0.6758 0.0035
-2 -4 25 0.9221 -0.0036
-2 -3 1 51.6262 -0.0088
-2 -3 2 -58.7585 0.0159
-2 -3 3 55.0899 -0.0143
-2 -3 4 -40.4089 0.0066
-2 -3 5 24.9480 -0.0013
-2 -3 6 -12.3699 0.0005
-2 -3 7 4.7503 0.0008
-2 -3 8 -1.7880 -0.0054
-2 -3 9 -0.3181 0.0083
-2 -3 10 2.3245 -0.0057
-2 -3 11 -3.6600 0.0005
-2 -3 12 2.6748 0.0013
-2 -3 13 -0.1090 0.0010
-2 -3 14 -1.4248 -0.0031
-2 -3 15 1.0434 0.0023
-2 -3 16 1.0541 -0.0007
-2 -3 17 -3.1791 0.0007
-2 -3 18 4.0983 -0.0020
-2 -3 19 -3.5382 0.0025
-2 -3 20 2.2977 -0.0020
-2 -3 21 -1.8123 0.0018
-2 -3 22 1.7303 -0.0025
-2 -3 23 -0.9396 0.0036
-2 -3 24 -0.7770 -0.0047
-2 -3 25 2.0131 0.0047
-2 -2 1 19.8719 -0.0041
-2 -2 2 12.4117 -0.0035
-2 -2 3 -35.4592 0.0105
-2 -2 4 40.7578 -0.0106
-2 -2 5 -27.2703 0.0052
-2 -2 6 8.7525 -0.0030
-2 -2 7 0.9386 0.0069
-2 -2 8 -1.7225 -0.0102
-2 -2 9 -1.7091 0.0072
-2 -2 10 2.6791 -0.0017
-2 -2 11 0.8244 0.0005
-2 -2 12 -5.2114 -0.0033
-2 -2 13 6.1031 0.0048
-2 -2 14 -1.7463 -0.0027
-2 -2 15 -3.9675 -0.0005
-2 -2 16 6.9159 0.0016
-2 -2 17 -6.1213 -0.0006
-2 -2 18 3.7017 -0.0001
-2 -2 19 -2.8037 -0.0007
-2 -2 20 4.0306 0.0014
-2 -2 21 -5.7195 -0.0003
-2 -2 22 5.3496 -0.0021
-2 -2 23 -2.7522 0.0031
-2 -2 24 0.3766 -0.0009
-2 -2 25 0.1028 -0.0030
-2 -1 1 -86.4132 0.0302
-2 -1 2 98.0078 -0.0359
-2 -1 3 -67.8025 0.0272
-2 -1 4 16.6027 -0.0105
-2 -1 5 24.8635 0.0003
-2 -1 6 -38.8416 -0.0017
-2 -1 7 25.9384 0.0054
-2 -1 8 -6.8019 -0.0022
-2 -1 9 -1.9275 -0.0041
-2 -1 10 -2.1563 0.0044
-2 -1 11 11.1331 0.0013
-2 -1 12 -14.5226 -0.0047
-2 -1 13 9.9884 0.0022
-2 -1 14 -2.4394 0.0019
-2 -1 15 -0.6998 -0.0029
-2 -1 16 -2.8202 0.0012
-2 -1 17 8.1579 -0.0001
-2 -1 18 -9.9059 0.0007
-2 -1 19 6.5680 -0.0017
-2 -1 20 -1.8018 0.0012
-2 -1 21 -0.3963 0.0003
-2 -1 22 -0.3339 -0.0007
-2 -1 23 1.3511 -0.0012
-2 -1 24 -0.3685 0.0033
-2 -1 25 -1.4881 -0.0025
-2 -1 26 2.0740 -0.0019
-2 0 1 -42.2322 0.0605
-2 0 2 7.2926 -0.0463
-2 0 3 45.5503 0.0183
-2 0 4 -77.4991 0.0010
-2 0 5 64.7102 -0.0023
-2 0 6 -23.4045 -0.0024
-2 0 7 -16.9440 -0.0005
-2 0 8 32.4941 0.0082
-2 0 9 -21.0084 -0.0087
-2 0 10 0.3630 0.0008
-2 0 11 11.8585 0.0053
-2 0 12 -9.6305 -0.0029
-2 0 13 1.1555 -0.0028
-2 0 14 2.4675 0.0040
-2 0 15 2.3511 -0.0007
-2 0 16 -10.6295 -0.0017
-2 0 17 13.9590 0.0008
-2 0 18 -10.1251 0.0012
-2 0 19 3.8174 -0.0017
-2 0 20 -0.9527 0.0012
-2 0 21 2.6861 -0.0015
-2 0 22 -5.1213 0.0024
-2 0 23 5.1682 -0.0017
-2 0 24 -3.2622 -0.0022
-2 0 25 1.8945 0.0077
-2 0 26 -1.8574 -0.0111
-2 1 1 13.3652 0.0316
-2 1 2 -39.6379 -0.0037
-2 1 3 48.5272 -0.0121
-2 1 4 -23.1789 0.0059
-2 1 5 -27.7075 0.0062
-2 1 6 67.7771 -0.0059
-2 1 7 -72.4586 -0.0037
-2 1 8 46.1695 0.0071
-2 1 9 -11.4548 -0.0000
-2 1 10 -7.2065 -0.0069
-2 1 11 3.6098 0.0049
-2 1 12 10.6906 0.0017
-2 1 13 -19.3391 -0.0040
-2 1 14 15.7028 0.0004
-2 1 15 -6.6677 0.0031
-2 1 16 1.7216 -0.0025
-2 1 17 -4.6509 0.0001
-2 1 18 10.6966 0.0001
-2 1 19 -12.5989 0.0014
-2 1 20 8.4559 -0.0016
-2 1 21 -2.2344 0.0001
-2 1 22 -1.0255 0.0004
-2 1 23 0.9291 0.0018
-2 1 24 -0.2419 -0.0046
-2 1 25 0.5635 0.0045
-2 1 26 -1.1329 -0.0013
-2 2 1 6.7526 -0.0344
-2 2 2 -22.5284 0.0373
-2 2 3 12.7069 -0.0182
-2 2 4 14.7279 -0.0045
-2 2 5 -37.9624 0.0103
-2 2 6 34.8792 -0.0021
-2 2 7 -5.2260 -0.0026
-2 2 8 -26.7469 -0.0025
-2 2 9 38.4694 0.0080
-2 2 10 -24.7360 -0.0059
-2 2 11 0.2304 0.0000
-2 2 12 15.8628 0.0022
-2 2 13 -16.2367 0.0008
-2 2 14 7.3503 -0.0041
-2 2 15 -1.3500 0.0036
-2 2 16 2.9891 -0.0003
-2 2 17 -8.2054 -0.0014
-2 2 18 10.4520 -0.0000
-2 2 19 -6.9208 0.0019
-2 2 20 1.1643 -0.0012
-2 2 21 1.8821 -0.0001
-2 2 22 -0.7634 -0.0010
-2 2 23 -1.5093 0.0037
-2 2 24 1.8290 -0.0038
-2 2 25 -0.5841 0.0004
-2 3 1 28.0462 -0.0370
-2 3 2 -38.2668 0.0168
-2 3 3 25.7818 0.0037
-2 3 4 -9.3482 -0.0097
-2 3 5 7.3322 0.0037
-2 3 6 -22.5209 -0.0001
-2 3 7 42.3137 0.0040
-2 3 8 -47.1331 -0.0068
-2 3 9 31.7632 0.0028
-2 3 10 -8.5578 0.0029
-2 3 11 -5.3347 -0.0040
-2 3 12 3.2835 0.0008
-2 3 13 6.8250 0.0025
-2 3 14 -14.1893 -0.0032
-2 3 15 13.4865 0.0011
-2 3 16 -7.7593 0.0014
-2 3 17 3.4530 -0.0011
-2 3 18 -3.4134 -0.0015
-2 3 19 5.9154 0.0024
-2 3 20 -6.6148 -0.0003
-2 3 21 3.6775 -0.0010
-2 3 22 0.6081 -0.0010
-2 3 23 -2.7743 0.0033
-2 3 24 1.8734 -0.0016
-2 3 25 -0.2555 -0.0028
-2 4 1 15.4641 0.0176
-2 4 2 -0.8545 -0.0213
-2 4 3 -19.3960 0.0148
-2 4 4 28.9781 -0.0049
-2 4 5 -21.2719 0.0002
-2 4 6 5.8403 -0.0016
-2 4 7 3.9226 0.0015
-2 4 8 -0.9595 0.0035
-2 4 9 -8.7311 -0.0077
-2 4 10 13.5582 0.0063
-2 4 11 -8.4805 -0.0022
-2 4 12 -1.9357 -0.0003
-2 4 13 8.7273 0.0005
-2 4 14 -8.7385 0.0009
-2 4 15 4.7608 -0.0029
-2 4 16 -1.0621 0.0032
-2 4 17 0.4854 -0.0002
-2 4 18 -2.0348 -0.0028
-2 4 19 2.9355 0.0012
-2 4 20 -1.0913 0.0027
-2 4 21 -2.4151 -0.0029
-2 4 22 4.3821 -0.0007
-2 4 23 -3.5218 0.0016
-2 4 24 1.3096 0.0033
-2 4 25 -0.1616 -0.0097
-2 5 1 -13.4725 0.0197
-2 5 2 29.7289 -0.0033
-2 5 3 -35.3410 -0.0056
-2 5 4 28.4544 0.0039
-2 5 5 -14.3538 0.0003
-2 5 6 3.0320 0.0015
-2 5 7 -0.1636 -0.0080
-2 5 8 4.2258 0.0112
-2 5 9 -8.8553 -0.0074
-2 5 10 9.6953 0.0016
-2 5 11 -7.8758 0.0008
-2 5 12 5.8650 -0.0002
-2 5 13 -5.4185 -0.0009
-2 5 14 5.5599 0.0022
-2 5 15 -4.5672 -0.0032
-2 5 16 2.5897 0.0016
-2 5 17 -0.2457 0.0011
-2 5 18 -1.2849 -0.0003
-2 5 19 1.4395 -0.0043
-2 5 20 -0.7812 0.0064
-2 5 21 0.6665 -0.0025
-2 5 22 -2.0728 -0.0016
-2 5 23 3.7261 -0.0011
-2 5 24 -3.9342 0.0087
-2 5 25 2.4524 -0.0138
-2 6 1 0.1811 -0.0386
-2 6 2 -2.1896 0.0426
-2 6 3 7.5537 -0.0262
-2 6 4 -12.6765 0.0070
-2 6 5 14.9134 -0.0015
-2 6 6 -12.9811 0.0069
-2 6 7 7.6079 -0.0100
-2 6 8 -0.3623 0.0058
-2 6 9 -6.2215 -0.0004
-2 6 10 9.9440 -0.0001
-2 6 11 -10.4296 -0.0024
-2 6 12 7.1890 0.0030
-2 6 13 -1.6482 -0.0013
-2 6 14 -3.0565 0.0001
-2 6 15 4.8046 0.0008
-2 6 16 -3.1990 -0.0023
-2 6 17 0.3273 0.0025
-2 6 18 1.5407 0.0002
-2 6 19 -1.3944 -0.0025
-2 6 20 -0.3158 0.0003
-2 6 21 2.0465 0.0037
-2 6 22 -2.8653 -0.0029
-2 6 23 2.3436 -0.0043
-2 6 24 -0.9509 0.0118
-2 7 1 6.6547 -0.0547
-2 7 2 -8.6394 0.0431
-2 7 3 6.7252 -0.0189
-2 7 4 -4.1405 0.0058
-2 7 5 3.3320 -0.0072
-2 7 6 -3.3620 0.0080
-2 7 7 2.3078 -0.0003
-2 7 8 0.9899 -0.0075
-2 7 9 -4.6011 0.0066
-2 7 10 4.5561 0.0000
-2 7 11 0.0385 -0.0035
-2 7 12 -6.8048 0.0017
-2 7 13 10.9671 0.0011
-2 7 14 -8.4401 -0.0017
-2 7 15 0.4086 0.0013
-2 7 16 7.9505 -0.0016
-2 7 17 -11.4421 0.0015
-2 7 18 9.2078 -0.0004
-2 7 19 -4.6091 -0.0001
-2 7 20 1.3076 -0.0010
-2 7 21 -0.8046 0.0011
-2 7 22 1.6220 0.0029
-2 7 23 -1.9483 -0.0094
-2 7 24 1.4537 0.0133
-2 8 1 0.1732 -0.0349
-2 8 2 2.4538 0.0191
-2 8 3 -3.9520 -0.0045
-2 8 4 0.2541 0.0048
-2 8 5 7.1582 -0.0089
-2 8 6 -12.0964 0.0030
-2 8 7 11.2609 0.0074
-2 8 8 -6.5745 -0.0091
-2 8 9 2.9002 0.0020
-2 8 10 -4.3880 0.0037
-2 8 11 9.3911 -0.0031
-2 8 12 -12.3451 0.0000
-2 8 13 9.1263 0.0008
-2 8 14 -0.4747 0.0002
-2 8 15 -7.5305 -0.0005
-2 8 16 9.0364 -0.0007
-2 8 17 -3.5394 0.0016
-2 8 18 -3.7324 -0.0005
-2 8 19 6.9326 -0.0013
-2 8 20 -5.3140 0.0016
-2 8 21 2.0104 -0.0011
-2 8 22 -0.1022 0.0019
-2 8 23 -0.1064 -0.0034
-2 9 1 1.3234 0.0009
-2 9 2 3.2505 -0.0147
-2 9 3 -2.5503 0.0149
-2 9 4 -2.4706 -0.0027
-2 9 5 6.4604 -0.0036
-2 9 6 -4.1021 -0.0011
-2 9 7 -3.4288 0.0048
-2 9 8 9.4784 -0.0008
-2 9 9 -8.9875 -0.0036
-2 9 10 2.1860 0.0025
-2 9 11 5.2802 0.0009
-2 9 12 -7.4847 -0.0020
-2 9 13 3.8652 0.0003
-2 9 14 0.8671 0.0020
-2 9 15 -0.9260 -0.0030
-2 9 16 -4.5584 0.0022
-2 9 17 10.8641 -0.0012
-2 9 18 -12.5969 0.0017
-2 9 19 8.6964 -0.0023
-2 9 20 -3.3567 0.0004
-2 9 21 0.4945 0.0032
-2 9 22 -0.1181 -0.0052
-2 10 1 -8.0361 0.0244
-2 10 2 11.9214 -0.0280
-2 10 3 -10.2478 0.0169
-2 10 4 7.7209 -0.0038
-2 10 5 -9.0573 0.0013
-2 10 6 14.5698 -0.0043
-2 10 7 -19.3021 0.0025
-2 10 8 17.4644 0.0021
-2 10 9 -9.0277 -0.0023
-2 10 10 -0.2702 -0.0011
-2 10 11 4.0234 0.0028
-2 10 12 -0.7021 -0.0018
-2 10 13 -5.2890 -0.0004
-2 10 14 8.2032 0.0025
-2 10 15 -5.5988 -0.0031
-2 10 16 0.4931 0.0010
-2 10 17 2.0813 0.0009
-2 10 18 -0.5776 0.0004
-2 10 19 -2.4778 -0.0021
-2 10 20 3.5259 0.0002
-2 10 21 -2.0476 0.0035
-2 10 22 0.3304 -0.0042
-2 11 1 -4.1385 0.0135
-2 11 2 1.5302 -0.0106
-2 11 3 3.3705 0.0036
-2 11 4 -6.0505 -0.0009
-2 11 5 4.8103 0.0034
-2 11 6 -2.1523 -0.0034
-2 11 7 2.0594 -0.0007
-2 11 8 -5.6821 0.0026
-2 11 9 9.3969 -0.0001
-2 11 10 -8.4795 -0.0021
-2 11 11 1.8926 0.0013
-2 11 12 6.3583 0.0001
-2 11 13 -10.7277 -0.0006
-2 11 14 9.2674 0.0007
-2 11 15 -4.2033 0.0006
-2 11 16 -0.1824 -0.0025
-2 11 17 0.9759 0.0019
-2 11 18 0.6969 0.0010
-2 11 19 -1.9840 -0.0009
-2 11 20 1.4579 -0.0038
-2 11 21 -0.0788 0.0075
-2 12 1 5.9197 -0.0049
-2 12 2 -10.8518 0.0013
-2 12 3 14.3002 -0.0003
-2 12 4 -14.4087 -0.0003
-2 12 5 11.7350 0.0009
-2 12 6 -8.4662 -0.0004
-2 12 7 6.6573 0.0006
-2 12 8 -6.0391 -0.0032
-2 12 9 4.3401 0.0048
-2 12 10 -0.7402 -0.0025
-2 12 11 -2.9840 -0.0010
-2 12 12 4.1690 0.0018
-2 12 13 -1.6430 -0.0007
-2 12 14 -2.5767 0.0003
-2 12 15 5.4494 -0.0005
-2 12 16 -5.3666 0.0006
-2 12 17 2.6473 -0.0010
-2 12 18 0.3908 0.0006
-2 12 19 -1.7005 0.0023
-2 13 1 -2.3338 0.0056
-2 13 2 1.3102 -0.0090
-2 13 3 -1.7690 0.0056
-2 13 4 3.9955 -0.0016
-2 13 5 -6.6347 0.0013
-2 13 6 8.0966 -0.0034
-2 13 7 -7.2741 0.0052
-2 13 8 4.4953 -0.0054
-2 13 9 -1.6236 0.0033
-2 13 10 -0.3776 -0.0002
-2 13 11 1.8058 -0.0010
-2 13 12 -2.8576 -0.0003
-2 13 13 3.6353 0.0010
-2 13 14 -3.6714 0.0003
-2 13 15 2.4468 -0.0005
-2 13 16 -0.3555 -0.0019
-2 13 17 -1.7414 0.0044
-2 13 18 2.6766 -0.0049
-2 14 1 -7.5350 0.0148
-2 14 2 6.6419 -0.0142
-2 14 3 -6.0281 0.0078
-2 14 4 6.0810 -0.0033
-2 14 5 -5.5973 0.0028
-2 14 6 3.6743 -0.0024
-2 14 7 -0.5572 0.0009
-2 14 8 -2.8437 -0.0003
-2 14 9 4.8636 0.0012
-2 14 10 -4.6270 -0.0016
-2 14 11 2.8980 0.0008
-2 14 12 -0.9068 0.0009
-2 14 13 -0.1434 -0.0031
-2 14 14 0.0384 0.0043
-2 14 15 0.2621 -0.0027
-2 14 16 -0.1609 -0.0001
-2 14 17 -0.1502 0.0003
-2 15 1 2.4749 0.0199
-2 15 2 -3.8249 -0.0169
-2 15 3 3.6180 0.0083
-2 15 4 -2.1882 -0.0025
-2 15 5 0.9220 0.0003
-2 15 6 -0.5353 0.0014
-2 15 7 0.5442 -0.0017
-2 15 8 -0.4778 -0.0009
-2 15 9 -0.2732 0.0033
-2 15 10 2.0130 -0.0028
-2 15 11 -3.7097 0.0014
-2 15 12 4.0332 -0.0022
-2 15 13 -2.6908 0.0045
-2 15 14 0.7809 -0.0059
-2 15 15 0.2719 0.0053
-2 16 1 5.2255 0.0132
-2 16 2 -4.2275 -0.0043
-2 16 3 1.6525 -0.0018
-2 16 4 0.8645 0.0014
-2 16 5 -2.2121 0.0006
-2 16 6 2.3282 -0.0003
-2 16 7 -1.8103 -0.0010
-2 16 8 1.2281 0.0016
-2 16 9 -1.2578 -0.0026
-2 16 10 2.1703 0.0032
-2 16 11 -3.0117 -0.0006
-2 16 12 2.7228 -0.0041
-2 17 1 2.2135 -0.0166
-2 17 2 -1.1323 0.0146
-2 17 3 0.1271 -0.0070
-2 17 4 -0.2914 0.0001
-2 17 5 1.4802 0.0011
-2 17 6 -2.8918 0.0020
-2 17 7 3.9189 -0.0047
-2 17 8 -4.1347 0.0054
-2 17 9 3.1410 -0.0050
-2 18 1 -0.0604 -0.0135
-1 -19 1 3.3013 -0.0110
-1 -19 2 -2.2632 0.0133
-1 -19 3 1.5388 -0.0091
-1 -18 1 0.1561 -0.0192
-1 -18 2 -1.0753 0.0175
-1 -18 3 1.8626 -0.0092
-1 -18 4 -2.4013 0.0014
-1 -18 5 2.6987 0.0004
-1 -18 6 -3.2142 0.0015
-1 -18 7 3.6911 -0.0010
-1 -18 8 -3.2204 -0.0033
-1 -17 1 -4.2913 -0.0190
-1 -17 2 4.7967 0.0136
-1 -17 3 -5.1067 -0.0051
-1 -17 4 4.4281 0.0007
-1 -17 5 -2.8014 -0.0010
-1 -17 6 1.0798 0.0010
-1 -17 7 -0.4894 0.0017
-1 -17 8 1.5294 -0.0041
-1 -17 9 -2.7547 0.0025
-1 -17 10 2.3333 0.0015
-1 -17 11 -0.4784 -0.0035
-1 -16 1 0.4428 -0.0075
-1 -16 2 2.7547 0.0024
-1 -16 3 -3.8617 0.0014
-1 -16 4 3.1982 -0.0006
-1 -16 5 -2.1325 -0.0008
-1 -16 6 2.1074 -0.0013
-1 -16 7 -3.3288 0.0047
-1 -16 8 4.5554 -0.0056
-1 -16 9 -4.2268 0.0038
-1 -16 10 2.0657 -0.0023
-1 -16 11 0.0607 0.0026
-1 -16 12 -0.3151 -0.0035
-1 -16 13 -0.7777 0.0031
-1 -15 1 -0.1617 -0.0058
-1 -15 2 1.4518 0.0026
-1 -15 3 -0.2796 -0.0035
-1 -15 4 -1.0836 0.0067
-1 -15 5 1.2089 -0.0061
-1 -15 6 -0.1605 0.0020
-1 -15 7 -1.1802 0.0005
-1 -15 8 1.6379 0.0000
-1 -15 9 -1.0606 -0.0011
-1 -15 10 0.3975 0.0011
-1 -15 11 -0.8306 -0.0008
-1 -15 12 2.6021 0.0010
-1 -15 13 -4.1536 -0.0013
-1 -15 14 3.9568 0.0009
-1 -15 15 -2.4435 0.0007
-1 -14 1 -0.5792 0.0083
-1 -14 2 -1.9085 -0.0086
-1 -14 3 4.6549 0.0021
-1 -14 4 -5.6302 0.0040
-1 -14 5 4.7897 -0.0048
-1 -14 6 -3.5152 0.0036
-1 -14 7 2.4657 -0.0035
-1 -14 8 -1.8374 0.0031
-1 -14 9 1.5771 -0.0013
-1 -14 10 -1.1413 0.0004
-1 -14 11 0.2759 -0.0016
-1 -14 12 0.8566 0.0034
-1 -14 13 -1.5214 -0.0041
-1 -14 14 1.0987 0.0032
-1 -14 15 -0.4593 -0.0003
-1 -14 16 0.6654 -0.0031
-1 -14 17 -1.4515 0.0041
-1 -13 1 3.4100 0.0068
-1 -13 2 -5.2942 -0.0041
-1 -13 3 6.1663 -0.0019
-1 -13 4 -5.6843 0.0051
-1 -13 5 4.7288 -0.0047
-1 -13 6 -4.3548 0.0039
-1 -13 7 4.5413 -0.0025
-1 -13 8 -4.9468 -0.0003
-1 -13 9 5.8659 0.0022
-1 -13 10 -7.0131 -0.0012
-1 -13 11 7.6079 -0.0009
-1 -13 12 -7.3285 0.0018
-1 -13 13 6.2540 -0.0020
-1 -13 14 -4.8572 0.0017
-1 -13 15 3.0489 -0.0007
-1 -13 16 -0.7877 0.0007
-1 -13 17 -0.7353 -0.0036
-1 -13 18 0.6805 0.0067
-1 -12 1 -7.0151 0.0019
-1 -12 2 8.2419 -0.0046
-1 -12 3 -8.4515 0.0035
-1 -12 4 7.9519 -0.0013
-1 -12 5 -6.6657 -0.0002
-1 -12 6 5.0087 0.0001
-1 -12 7 -3.4812 0.0018
-1 -12 8 2.0911 -0.0035
-1 -12 9 -0.3314 0.0030
-1 -12 10 -1.5339 -0.0019
-1 -12 11 2.1550 0.0025
-1 -12 12 -1.3028 -0.0037
-1 -12 13 -0.1158 0.0032
-1 -12 14 1.0195 -0.0017
-1 -12 15 -0.7537 0.0008
-1 -12 16 -0.4486 0.0009
-1 -12 17 2.3697 -0.0038
-1 -12 18 -4.0928 0.0036
-1 -12 19 4.2116 0.0018
-1 -12 20 -2.7211 -0.0065
-1 -11 1 -12.6385 0.0207
-1 -11 2 11.1516 -0.0233
-1 -11 3 -7.9248 0.0150
-1 -11 4 5.5529 -0.0050
-1 -11 5 -4.9134 0.0013
-1 -11 6 5.8873 -0.0032
-1 -11 7 -7.5086 0.0048
-1 -11 8 8.0244 -0.0032
-1 -11 9 -7.0286 0.0002
-1 -11 10 5.8475 0.0005
-1 -11 11 -6.2780 0.0009
-1 -11 12 7.9386 -0.0013
-1 -11 13 -8.4596 0.0001
-1 -11 14 6.6643 -0.0001
-1 -11 15 -3.0169 0.0014
-1 -11 16 -0.7056 -0.0013
-1 -11 17 2.7278 -0.0003
-1 -11 18 -2.4900 -0.0002
-1 -11 19 0.6095 0.0024
-1 -11 20 0.9037 -0.0009
-1 -11 21 -0.8410 -0.0048
-1 -10 1 8.9932 0.0465
-1 -10 2 -13.9501 -0.0385
-1 -10 3 17.3849 0.0194
-1 -10 4 -15.3713 -0.0071
-1 -10 5 8.8778 0.0063
-1 -10 6 -2.1674 -0.0074
-1 -10 7 -1.5841 0.0036
-1 -10 8 1.2635 0.0016
-1 -10 9 0.6999 -0.0027
-1 -10 10 -0.5487 0.0000
-1 -10 11 -2.4189 0.0019
-1 -10 12 5.5680 -0.0006
-1 -10 13 -5.6800 -0.0019
-1 -10 14 2.9978 0.0025
-1 -10 15 -0.2894 -0.0022
-1 -10 16 -0.3984 0.0031
-1 -10 17 -1.3244 -0.0036
-1 -10 18 3.6434 0.0012
-1 -10 19 -4.3858 0.0016
-1 -10 20 2.8098 -0.0002
-1 -10 21 -0.3421 -0.0040
-1 -10 22 -0.6304 0.0047
-1 -9 1 6.1617 0.0400
-1 -9 2 -12.5072 -0.0245
-1 -9 3 12.9393 0.0082
-1 -9 4 -6.5397 -0.0051
-1 -9 5 -0.9645 0.0071
-1 -9 6 2.4734 -0.0023
-1 -9 7 2.4981 -0.0064
-1 -9 8 -8.7905 0.0090
-1 -9 9 10.8800 -0.0040
-1 -9 10 -6.8137 -0.0016
-1 -9 11 0.7845 0.0028
-1 -9 12 1.9022 -0.0007
-1 -9 13 -0.1993 -0.0012
-1 -9 14 -2.5923 0.0013
-1 -9 15 2.5716 -0.0010
-1 -9 16 0.4056 0.0014
-1 -9 17 -4.0318 -0.0011
-1 -9 18 5.7808 -0.0008
-1 -9 19 -4.6844 0.0008
-1 -9 20 2.4182 0.0039
-1 -9 21 -1.1619 -0.0086
-1 -9 22 1.6208 0.0071
-1 -8 1 -9.9901 0.0084
-1 -8 2 1.9091 0.0033
-1 -8 3 -4.2645 -0.0041
-1 -8 4 10.0547 -0.0048
-1 -8 5 -9.9138 0.0072
-1 -8 6 0.9505 0.0007
-1 -8 7 10.2550 -0.0074
-1 -8 8 -14.3362 0.0055
-1 -8 9 9.6169 -0.0007
-1 -8 10 -1.6416 -0.0005
-1 -8 11 -2.3928 -0.0009
-1 -8 12 -0.1558 0.0013
-1 -8 13 5.0894 0.0003
-1 -8 14 -7.3483 -0.0025
-1 -8 15 5.4379 0.0030
-1 -8 16 -2.0622 -0.0014
-1 -8 17 0.5396 0.0002
-1 -8 18 -1.3083 -0.0006
-1 -8 19 2.8946 0.0004
-1 -8 20 -3.2182 0.0014
-1 -8 21 1.8986 -0.0007
-1 -8 22 -0.4196 -0.0046
-1 -8 23 0.0293 0.0086
-1 -7 1 14.8303 -0.0300
-1 -7 2 -10.5957 0.0295
-1 -7 3 -1.5618 -0.0153
-1 -7 4 8.9517 0.0003
-1 -7 5 -5.6117 0.0034
-1 -7 6 -2.4797 -0.0011
-1 -7 7 5.5501 0.0023
-1 -7 8 0.4796 -0.0055
-1 -7 9 -9.3920 0.0044
-1 -7 10 12.0887 0.0000
-1 -7 11 -6.6281 -0.0022
-1 -7 12 -2.4032 0.0005
-1 -7 13 8.2825 0.0026
-1 -7 14 -8.4482 -0.0044
-1 -7 15 5.7231 0.0033
-1 -7 16 -3.9759 -0.0005
-1 -7 17 4.9472 -0.0006
-1 -7 18 -6.7986 -0.0009
-1 -7 19 7.4215 0.0018
-1 -7 20 -6.6550 -0.0007
-1 -7 21 5.5184 0.0003
-1 -7 22 -4.8719 -0.0013
-1 -7 23 4.0666 -0.0006
-1 -7 24 -2.5622 0.0063
-1 -6 1 11.3436 -0.0268
-1 -6 2 8.0137 0.0150
-1 -6 3 -20.7320 -0.0022
-1 -6 4 21.5305 -0.0039
-1 -6 5 -14.6857 0.0039
-1 -6 6 10.3416 -0.0050
-1 -6 7 -13.8328 0.0084
-1 -6 8 20.4556 -0.0081
-1 -6 9 -22.1609 0.0029
-1 -6 10 15.3945 0.0016
-1 -6 11 -5.5460 -0.0018
-1 -6 12 -0.3563 -0.0002
-1 -6 13 0.1562 0.0013
-1 -6 14 3.8258 -0.0010
-1 -6 15 -6.9911 -0.0003
-1 -6 16 7.1846 0.0012
-1 -6 17 -5.2366 0.0004
-1 -6 18 3.3299 -0.0027
-1 -6 19 -2.4258 0.0022
-1 -6 20 1.3355 0.0006
-1 -6 21 0.1539 -0.0013
-1 -6 22 -0.9613 -0.0004
-1 -6 23 0.3019 0.0007
-1 -6 24 0.8437 0.0015
-1 -5 1 0.5761 0.0180
-1 -5 2 6.3683 -0.0157
-1 -5 3 -3.7429 0.0080
-1 -5 4 -3.3181 -0.0012
-1 -5 5 7.4934 -0.0008
-1 -5 6 -6.3979 -0.0011
-1 -5 7 1.6832 0.0020
-1 -5 8 0.5546 0.0004
-1 -5 9 1.7619 -0.0027
-1 -5 10 -5.1934 0.0017
-1 -5 11 4.9445 0.0008
-1 -5 12 0.3961 -0.0015
-1 -5 13 -6.9577 0.0001
-1 -5 14 11.3262 0.0016
-1 -5 15 -12.1337 -0.0026
-1 -5 16 10.2676 0.0023
-1 -5 17 -8.0046 -0.0008
-1 -5 18 6.4737 -0.0001
-1 -5 19 -5.5101 -0.0011
-1 -5 20 4.1395 0.0019
-1 -5 21 -2.9403 0.0002
-1 -5 22 2.9934 -0.0028
-1 -5 23 -3.3937 0.0014
-1 -5 24 2.5822 0.0033
-1 -5 25 -0.5319 -0.0068
-1 -4 1 31.8446 0.0075
-1 -4 2 -32.0546 0.0075
-1 -4 3 29.3713 -0.0135
-1 -4 4 -25.5462 0.0090
-1 -4 5 20.5810 -0.0030
-1 -4 6 -18.6836 0.0026
-1 -4 7 19.3825 -0.0063
-1 -4 8 -20.4620 0.0087
-1 -4 9 19.7611 -0.0069
-1 -4 10 -15.3542 0.0028
-1 -4 11 9.3549 -0.0001
-1 -4 12 -4.5001 -0.0002
-1 -4 13 2.7080 -0.0004
-1 -4 14 -3.2254 0.0006
-1 -4 15 4.0894 -0.0006
-1 -4 16 -4.7954 0.0010
-1 -4 17 4.8810 -0.0015
-1 -4 18 -4.6226 0.0019
-1 -4 19 4.2352 -0.0018
-1 -4 20 -3.3893 0.0007
-1 -4 21 1.5276 0.0011
-1 -4 22 1.1028 -0.0012
-1 -4 23 -2.4547 -0.0009
-1 -4 24 1.7417 0.0025
-1 -4 25 -0.4944 -0.0011
-1 -3 1 -10.6198 -0.0319
-1 -3 2 26.7479 0.0395
-1 -3 3 -40.3418 -0.0291
-1 -3 4 38.7363 0.0140
-1 -3 5 -26.1318 -0.0076
-1 -3 6 10.5079 0.0083
-1 -3 7 -0.3747 -0.0072
-1 -3 8 0.2325 0.0022
-1 -3 9 -4.4815 0.0022
-1 -3 10 6.8096 -0.0026
-1 -3 11 -3.6881 0.0003
-1 -3 12 -2.7880 0.0016
-1 -3 13 7.7189 -0.0013
-1 -3 14 -9.0270 -0.0006
-1 -3 15 7.4387 0.0018
-1 -3 16 -5.8947 -0.0011
-1 -3 17 5.5789 -0.0004
-1 -3 18 -5.6354 0.0013
-1 -3 19 4.7942 -0.0015
-1 -3 20 -2.1497 0.0019
-1 -3 21 -1.2196 -0.0020
-1 -3 22 3.3250 0.0008
-1 -3 23 -2.8070 0.0016
-1 -3 24 0.8115 -0.0040
-1 -3 25 0.2908 0.0048
-1 -2 1 -51.9634 -0.0380
-1 -2 2 70.2032 0.0336
-1 -2 3 -67.0282 -0.0186
-1 -2 4 39.0023 0.0110
-1 -2 5 -8.2721 -0.0122
-1 -2 6 -4.1851 0.0097
-1 -2 7 -1.5202 0.0002
-1 -2 8 15.0135 -0.0087
-1 -2 9 -21.4331 0.0084
-1 -2 10 15.6223 -0.0029
-1 -2 11 -4.2486 -0.0014
-1 -2 12 -3.5366 0.0018
-1 -2 13 3.0471 0.0003
-1 -2 14 1.6544 -0.0025
-1 -2 15 -4.5945 0.0029
-1 -2 16 3.0972 -0.0015
-1 -2 17 0.9408 0.0005
-1 -2 18 -3.3432 -0.0008
-1 -2 19 2.5804 0.0006
-1 -2 20 -0.0867 0.0004
-1 -2 21 -1.0444 -0.0001
-1 -2 22 -0.5120 -0.0022
-1 -2 23 3.0036 0.0034
-1 -2 24 -3.9429 -0.0008
-1 -2 25 2.5799 -0.0044
-1 -2 26 -0.7257 0.0080
-1 -1 1 1.0081 -0.0188
-1 -1 2 5.9020 -0.0074
-1 -1 3 17.4452 0.0166
-1 -1 4 -46.8078 -0.0065
-1 -1 5 54.2054 -0.0031
-1 -1 6 -31.0632 -0.0006
-1 -1 7 0.6810 0.0085
-1 -1 8 15.1518 -0.0081
-1 -1 9 -11.4408 0.0013
-1 -1 10 -1.9194 0.0028
-1 -1 11 9.1631 -0.0016
-1 -1 12 -4.7313 -0.0007
-1 -1 13 -5.8045 0.0013
-1 -1 14 11.9398 -0.0002
-1 -1 15 -8.8419 -0.0015
-1 -1 16 0.9321 0.0022
-1 -1 17 4.8760 -0.0014
-1 -1 18 -4.7670 0.0002
-1 -1 19 1.2507 -0.0004
-1 -1 20 0.8158 0.0007
-1 -1 21 0.6413 0.0007
-1 -1 22 -3.6410 -0.0025
-1 -1 23 4.7164 0.0013
-1 -1 24 -3.2631 0.0024
-1 -1 25 1.1267 -0.0045
-1 -1 26 -0.0440 0.0028
-1 0 2 8.3511 -0.0507
-1 0 3 38.6988 0.0274
-1 0 4 -54.4623 -0.0043
-1 0 5 33.4911 0.0012
-1 0 6 3.5240 -0.0086
-1 0 7 -24.5045 0.0082
-1 0 8 18.1866 0.0010
-1 0 9 -0.2745 -0.0070
-1 0 10 -10.5002 0.0046
-1 0 11 5.6368 -0.0000
-1 0 12 7.2371 -0.0007
-1 0 13 -14.9636 -0.0014
-1 0 14 11.5992 0.0028
-1 0 15 -1.8432 -0.0026
-1 0 16 -3.8234 0.0016
-1 0 17 0.8780 -0.0008
-1 0 18 6.8581 0.0007
-1 0 19 -12.1352 -0.0009
-1 0 20 11.2318 0.0002
-1 0 21 -6.8113 0.0011
-1 0 22 3.2317 -0.0011
-1 0 23 -2.2511 -0.0006
-1 0 24 2.1813 0.0016
-1 0 25 -1.3870 -0.0001
-1 0 26 0.2837 -0.0027
-1 1 1 -57.0121 0.0772
-1 1 2 -15.5288 -0.0361
-1 1 3 53.7686 0.0007
-1 1 4 -37.4795 0.0061
-1 1 5 -1.3627 0.0031
-1 1 6 26.2430 -0.0047
-1 1 7 -22.7222 -0.0048
-1 1 8 0.6808 0.0115
-1 1 9 15.5337 -0.0078
-1 1 10 -14.6814 0.0003
-1 1 11 3.3133 0.0022
-1 1 12 4.4884 0.0007
-1 1 13 -1.2572 -0.0036
-1 1 14 -7.3103 0.0033
-1 1 15 11.5143 -0.0012
-1 1 16 -6.3704 -0.0003
-1 1 17 -3.5886 0.0005
-1 1 18 9.8339 -0.0003
-1 1 19 -8.7198 0.0005
-1 1 20 3.2520 -0.0005
-1 1 21 0.6263 -0.0002
-1 1 22 -0.6300 0.0011
-1 1 23 -1.1758 -0.0007
-1 1 24 2.0904 -0.0016
-1 1 25 -1.6178 0.0043
-1 1 26 0.9524 -0.0056
-1 2 1 60.4595 0.0312
-1 2 2 -77.2273 0.0024
-1 2 3 49.4761 -0.0084
-1 2 4 1.3022 -0.0012
-1 2 5 -34.8514 0.0023
-1 2 6 31.6660 0.0082
-1 2 7 -5.9754 -0.0153
-1 2 8 -19.1474 0.0106
-1 2 9 27.0132 -0.0008
-1 2 10 -19.7290 -0.0040
-1 2 11 11.2636 0.0019
-1 2 12 -10.6517 0.0021
-1 2 13 15.8392 -0.0030
-1 2 14 -17.7153 0.0000
-1 2 15 12.6729 0.0034
-1 2 16 -4.8565 -0.0041
-1 2 17 0.7509 0.0026
-1 2 18 -3.3732 -0.0016
-1 2 19 9.1092 0.0014
-1 2 20 -12.3271 -0.0006
-1 2 21 10.2779 -0.0005
-1 2 22 -5.2578 -0.0001
-1 2 23 1.4106 0.0026
-1 2 24 -0.1923 -0.0047
-1 2 25 0.4678 0.0046
-1 2 26 -0.6678 -0.0030
-1 3 1 38.8073 -0.0180
-1 3 2 -1.1552 0.0130
-1 3 3 -40.5429 0.0035
-1 3 4 62.7620 -0.0104
-1 3 5 -54.4950 0.0025
-1 3 6 23.2568 0.0063
-1 3 7 6.0248 -0.0055
-1 3 8 -16.8758 -0.0005
-1 3 9 9.7424 0.0037
-1 3 10 3.2852 -0.0020
-1 3 11 -10.2608 -0.0016
-1 3 12 10.0890 0.0033
-1 3 13 -7.9943 -0.0009
-1 3 14 8.5202 -0.0031
-1 3 15 -10.0909 0.0041
-1 3 16 8.4651 -0.0012
-1 3 17 -3.1058 -0.0010
-1 3 18 -3.2709 -0.0004
-1 3 19 6.5511 0.0025
-1 3 20 -5.1047 -0.0021
-1 3 21 0.9862 0.0009
-1 3 22 2.0409 -0.0013
-1 3 23 -1.7185 0.0024
-1 3 24 -0.4728 -0.0013
-1 3 25 2.0204 -0.0016
-1 3 26 -1.9640 0.0037
-1 4 1 -13.4091 -0.0200
-1 4 2 25.8215 -0.0006
-1 4 3 -26.8518 0.0154
-1 4 4 13.5681 -0.0174
-1 4 5 5.0572 0.0127
-1 4 6 -18.9103 -0.0102
-1 4 7 18.3252 0.0103
-1 4 8 -3.8506 -0.0086
-1 4 9 -14.0550 0.0041
-1 4 10 25.5017 0.0004
-1 4 11 -27.3177 -0.0022
-1 4 12 23.8940 0.0001
-1 4 13 -19.2193 0.0038
-1 4 14 14.4606 -0.0049
-1 4 15 -9.3818 0.0014
-1 4 16 3.9431 0.0023
-1 4 17 -0.2901 -0.0014
-1 4 18 -0.1242 -0.0022
-1 4 19 -2.3708 0.0025
-1 4 20 5.5790 0.0004
-1 4 21 -6.6635 -0.0020
-1 4 22 4.6968 0.0004
-1 4 23 -1.0068 0.0007
-1 4 24 -1.6140 0.0009
-1 4 25 1.8663 -0.0032
-1 5 1 24.7537 -0.0002
-1 5 2 -29.7910 -0.0028
-1 5 3 31.5814 0.0054
-1 5 4 -30.1684 -0.0084
-1 5 5 24.2952 0.0108
-1 5 6 -15.8891 -0.0114
-1 5 7 6.9401 0.0094
-1 5 8 0.4525 -0.0048
-1 5 9 -3.6562 0.0001
-1 5 10 2.4258 0.0019
-1 5 11 1.9856 -0.0002
-1 5 12 -6.9496 -0.0030
-1 5 13 11.2460 0.0038
-1 5 14 -14.1896 -0.0008
-1 5 15 13.9451 -0.0028
-1 5 16 -10.1809 0.0023
-1 5 17 3.9719 0.0012
-1 5 18 2.1132 -0.0024
-1 5 19 -5.5614 -0.0007
-1 5 20 5.5915 0.0039
-1 5 21 -3.0871 -0.0037
-1 5 22 0.4624 0.0021
-1 5 23 0.6372 -0.0030
-1 5 24 -0.1170 0.0063
-1 5 25 -0.9237 -0.0086
-1 6 1 6.4437 0.0021
-1 6 2 2.7214 0.0149
-1 6 3 -13.8451 -0.0125
-1 6 4 19.8967 0.0033
-1 6 5 -16.4887 0.0003
-1 6 6 4.9999 0.0014
-1 6 7 7.8266 -0.0031
-1 6 8 -15.4221 0.0028
-1 6 9 16.4617 -0.0012
-1 6 10 -13.7799 -0.0013
-1 6 11 12.1597 0.0036
-1 6 12 -12.9516 -0.0032
-1 6 13 13.7938 0.0000
-1 6 14 -11.8949 0.0028
-1 6 15 5.8382 -0.0022
-1 6 16 1.7341 -0.0009
-1 6 17 -6.6297 0.0030
-1 6 18 6.5964 -0.0018
-1 6 19 -2.8332 -0.0009
-1 6 20 -0.9059 0.0019
-1 6 21 2.0778 -0.0004
-1 6 22 -0.5917 -0.0009
-1 6 23 -1.5093 -0.0005
-1 6 24 2.2999 0.0044
-1 6 25 -1.7301 -0.0077
-1 7 1 -30.9787 -0.0456
-1 7 2 34.8731 0.0405
-1 7 3 -31.7882 -0.0152
-1 7 4 18.1743 0.0015
-1 7 5 1.5030 -0.0056
-1 7 6 -16.7807 0.0116
-1 7 7 18.6721 -0.0095
-1 7 8 -7.5958 0.0038
-1 7 9 -6.8630 0.0002
-1 7 10 15.1205 -0.0018
-1 7 11 -13.3724 0.0017
-1 7 12 5.9449 -0.0000
-1 7 13 -0.8118 -0.0016
-1 7 14 1.3304 0.0015
-1 7 15 -5.0163 -0.0003
-1 7 16 6.3856 -0.0007
-1 7 17 -2.5800 0.0005
-1 7 18 -3.9811 0.0008
-1 7 19 8.5624 -0.0018
-1 7 20 -8.1413 0.0006
-1 7 21 4.3581 0.0029
-1 7 22 -0.8808 -0.0050
-1 7 23 -0.3713 0.0024
-1 7 24 0.0224 0.0034
-1 8 1 7.7646 -0.0730
-1 8 2 -7.9550 0.0319
-1 8 3 11.9418 0.0025
-1 8 4 -18.2320 -0.0054
-1 8 5 19.0077 -0.0053
-1 8 6 -8.8330 0.0063
-1 8 7 -9.7171 0.0011
-1 8 8 26.5096 -0.0046
-1 8 9 -30.6761 0.0022
-1 8 10 20.6714 0.0007
-1 8 11 -4.3324 -0.0019
-1 8 12 -7.7847 0.0020
-1 8 13 9.5602 -0.0014
-1 8 14 -4.0889 0.0007
-1 8 15 -0.8766 -0.0005
-1 8 16 0.3178 0.0003
-1 8 17 4.2153 0.0003
-1 8 18 -7.2720 -0.0005
-1 8 19 6.0358 0.0003
-1 8 20 -2.0780 -0.0015
-1 8 21 -0.8804 0.0029
-1 8 22 1.1320 -0.0007
-1 8 23 -0.1976 -0.0053
-1 8 24 -0.2089 0.0096
-1 9 1 11.0433 -0.0596
-1 9 2 -3.6089 0.0127
-1 9 3 0.8427 0.0050
-1 9 4 0.4051 0.0025
-1 9 5 -5.6359 -0.0053
-1 9 6 14.4340 -0.0049
-1 9 7 -20.1964 0.0125
-1 9 8 16.7200 -0.0087
-1 9 9 -3.4282 0.0012
-1 9 10 -12.0045 0.0025
-1 9 11 19.3355 -0.0026
-1 9 12 -14.4074 0.0012
-1 9 13 1.4932 0.0003
-1 9 14 9.9428 -0.0004
-1 9 15 -13.2184 -0.0005
-1 9 16 9.2212 0.0005
-1 9 17 -3.9802 0.0001
-1 9 18 2.4323 0.0009
-1 9 19 -3.8141 -0.0028
-1 9 20 4.7461 0.0031
-1 9 21 -3.6999 -0.0024
-1 9 22 1.7405 0.0030
-1 9 23 -0.5464 -0.0040
-1 10 1 -13.0242 -0.0000
-1 10 2 10.8903 -0.0191
-1 10 3 -3.4656 0.0085
-1 10 4 -3.6031 0.0058
-1 10 5 6.4402 -0.0032
-1 10 6 -6.5418 -0.0071
-1 10 7 8.4998 0.0088
-1 10 8 -13.6065 -0.0031
-1 10 9 18.3717 -0.0008
-1 10 10 -17.1953 0.0007
-1 10 11 7.7568 0.0005
-1 10 12 5.4642 -0.0014
-1 10 13 -14.6808 0.0012
-1 10 14 14.7333 0.0009
-1 10 15 -7.3700 -0.0023
-1 10 16 -0.6884 0.0010
-1 10 17 4.0641 0.0007
-1 10 18 -2.3445 -0.0001
-1 10 19 -0.5871 -0.0001
-1 10 20 1.6175 -0.0035
-1 10 21 -1.0591 0.0088
-1 10 22 0.3274 -0.0112
-1 11 1 -4.0245 0.0330
-1 11 2 -5.1031 -0.0186
-1 11 3 12.8239 -0.0052
-1 11 4 -15.3076 0.0155
-1 11 5 12.4736 -0.0097
-1 11 6 -7.5241 0.0026
-1 11 7 4.2934 -0.0022
-1 11 8 -3.4779 0.0032
-1 11 9 2.8501 -0.0014
-1 11 10 -0.4609 -0.0008
-1 11 11 -2.5793 0.0011
-1 11 12 2.7580 -0.0002
-1 11 13 1.6840 -0.0018
-1 11 14 -8.8294 0.0040
-1 11 15 14.1058 -0.0037
-1 11 16 -13.9072 0.0010
-1 11 17 9.0588 0.0006
-1 11 18 -3.2743 -0.0002
-1 11 19 -0.0780 0.0013
-1 11 20 0.4899 -0.0050
-1 11 21 0.1305 0.0072
-1 12 1 -1.0512 0.0171
-1 12 2 0.3632 -0.0030
-1 12 3 -2.6459 -0.0091
-1 12 4 7.9050 0.0114
-1 12 5 -13.9182 -0.0080
-1 12 6 17.3533 0.0070
-1 12 7 -16.1473 -0.0084
-1 12 8 11.2858 0.0073
-1 12 9 -5.5768 -0.0038
-1 12 10 1.3183 0.0012
-1 12 11 1.2253 -0.0006
-1 12 12 -3.0695 0.0006
-1 12 13 4.1739 -0.0012
-1 12 14 -3.9211 0.0019
-1 12 15 2.1779 -0.0009
-1 12 16 0.5479 -0.0011
-1 12 17 -2.6135 0.0015
-1 12 18 2.7882 0.0002
-1 12 19 -1.3603 -0.0015
-1 12 20 -0.3464 0.0017
-1 13 1 -3.3615 0.0076
-1 13 2 4.9872 -0.0045
-1 13 3 -6.6991 -0.0005
-1 13 4 7.9105 0.0031
-1 13 5 -7.7651 -0.0036
-1 13 6 5.4016 0.0045
-1 13 7 -1.2451 -0.0047
-1 13 8 -2.4382 0.0023
-1 13 9 3.5893 0.0005
-1 13 10 -1.5893 -0.0007
-1 13 11 -2.5144 -0.0009
-1 13 12 6.2745 0.0020
-1 13 13 -7.9431 -0.0022
-1 13 14 7.1540 0.0019
-1 13 15 -4.6106 -0.0004
-1 13 16 2.0241 -0.0016
-1 13 17 -0.4228 0.0014
-1 13 18 -0.2435 0.0009
-1 13 19 0.3110 -0.0022
-1 14 1 5.5038 0.0078
-1 14 2 -7.9273 -0.0105
-1 14 3 9.6683 0.0061
-1 14 4 -10.5694 -0.0024
-1 14 5 10.4824 0.0018
-1 14 6 -9.4783 -0.0018
-1 14 7 8.0067 0.0017
-1 14 8 -5.8753 -0.0021
-1 14 9 2.9660 0.0010
-1 14 10 0.2558 0.0019
-1 14 11 -2.8767 -0.0030
-1 14 12 3.3024 -0.0001
-1 14 13 -1.0987 0.0045
-1 14 14 -1.9602 -0.0069
-1 14 15 3.6319 0.0070
-1 14 16 -2.8581 -0.0052
-1 14 17 0.6893 0.0016
-1 15 1 3.2899 0.0254
-1 15 2 -5.4402 -0.0200
-1 15 3 5.0380 0.0078
-1 15 4 -2.9477 -0.0022
-1 15 5 0.4957 0.0034
-1 15 6 1.2056 -0.0046
-1 15 7 -1.0171 0.0036
-1 15 8 -0.6043 -0.0016
-1 15 9 1.8718 -0.0011
-1 15 10 -1.8193 0.0026
-1 15 11 1.0087 0.0001
-1 15 12 -0.8244 -0.0052
-1 15 13 1.4342 0.0070
-1 15 14 -1.3820 -0.0036
-1 15 15 -0.0179 -0.0010
-1 15 16 1.7298 0.0033
-1 16 1 -1.8360 0.0319
-1 16 2 2.7684 -0.0133
-1 16 3 -4.7155 0.0010
-1 16 4 5.8000 -0.0013
-1 16 5 -4.8088 0.0051
-1 16 6 2.0366 -0.0041
-1 16 7 1.4739 0.0005
-1 16 8 -3.8485 0.0016
-1 16 9 3.4526 -0.0018
-1 16 10 -0.9754 0.0010
-1 16 11 -1.2161 0.0001
-1 16 12 1.5817 0.0013
-1 16 13 -0.7848 -0.0066
-1 16 14 0.3249 0.0117
-1 17 1 -0.1393 0.0112
-1 17 2 2.0715 -0.0011
-1 17 3 -3.2318 -0.0004
-1 17 4 2.6812 -0.0022
-1 17 5 -0.9472 0.0011
-1 17 6 -0.6479 0.0030
-1 17 7 1.1888 -0.0042
-1 17 8 -0.3179 0.0008
-1 17 9 -1.4872 0.0030
-1 17 10 2.7294 -0.0044
-1 17 11 -2.2484 0.0032
-1 18 1 0.5732 0.0070
-1 18 2 0.4317 -0.0052
-1 18 3 -0.7525 0.0045
-1 18 4 0.3670 -0.0035
-1 18 5 -0.1148 0.0014
-1 18 6 0.4110 -0.0002
-1 18 7 -0.8397 0.0013
0 -18 1 -3.5351 -0.0029
0 -18 2 4.1455 0.0032
0 -18 3 -4.4219 0.0002
0 -18 4 3.6825 -0.0029
0 -18 5 -1.8252 0.0016
0 -18 6 -0.3554 0.0025
0 -18 7 1.5879 -0.0056
0 -17 1 4.3212 -0.0129
0 -17 2 -2.8207 0.0101
0 -17 3 2.2075 -0.0013
0 -17 4 -2.5663 -0.0039
0 -17 5 2.7566 0.0026
0 -17 6 -1.7427 0.0008
0 -17 7 -0.6580 -0.0016
0 -17 8 3.2293 -0.0006
0 -17 9 -4.2335 0.0034
0 -17 10 3.0177 -0.0049
0 -16 1 5.8776 -0.0339
0 -16 2 -4.8761 0.0162
0 -16 3 4.8165 -0.0010
0 -16 4 -4.8651 -0.0031
0 -16 5 3.8703 0.0017
0 -16 6 -2.2264 -0.0021
0 -16 7 1.1380 0.0053
0 -16 8 -1.3950 -0.0075
0 -16 9 2.9928 0.0063
0 -16 10 -4.6806 -0.0025
0 -16 11 4.9042 -0.0013
0 -16 12 -3.2603 0.0034
0 -16 13 1.0338 -0.0042
0 -15 1 -7.1546 -0.0147
0 -15 2 6.3330 -0.0034
0 -15 3 -4.2393 0.0065
0 -15 4 1.9053 -0.0011
0 -15 5 0.0898 -0.0002
0 -15 6 -1.9545 -0.0039
0 -15 7 3.8591 0.0068
0 -15 8 -5.0257 -0.0055
0 -15 9 5.0368 0.0020
0 -15 10 -4.0593 0.0008
0 -15 11 2.2866 -0.0017
0 -15 12 -0.4300 0.0017
0 -15 13 -0.5907 -0.0019
0 -15 14 0.3992 0.0025
0 -15 15 0.3581 -0.0019
0 -14 1 -6.1954 0.0083
0 -14 2 4.6743 -0.0070
0 -14 3 -2.6935 -0.0032
0 -14 4 1.1421 0.0083
0 -14 5 -0.1859 -0.0038
0 -14 6 0.1428 -0.0020
0 -14 7 -1.0232 0.0028
0 -14 8 2.5256 -0.0008
0 -14 9 -3.7279 -0.0004
0 -14 10 3.5410 0.0003
0 -14 11 -2.3312 0.0000
0 -14 12 0.8920 0.0001
0 -14 13 0.7162 -0.0009
0 -14 14 -2.2827 0.0014
0 -14 15 3.1972 -0.0004
0 -14 16 -2.8732 -0.0004
0 -13 1 1.3643 0.0079
0 -13 2 -0.8894 0.0003
0 -13 3 0.2240 -0.0081
0 -13 4 1.2524 0.0084
0 -13 5 -3.3296 -0.0040
0 -13 6 5.8078 0.0019
0 -13 7 -8.0800 -0.0026
0 -13 8 8.9040 0.0027
0 -13 9 -7.6790 -0.0014
0 -13 10 4.8943 0.0002
0 -13 11 -2.1769 0.0005
0 -13 12 0.8793 -0.0005
0 -13 13 -0.4833 -0.0002
0 -13 14 0.4153 0.0002
0 -13 15 -0.8357 0.0007
0 -13 16 1.4675 0.0002
0 -13 17 -1.5703 -0.0041
0 -13 18 0.6221 0.0074
0 -12 1 0.0971 0.0089
0 -12 2 0.1108 -0.0030
0 -12 3 -0.2032 -0.0045
0 -12 4 0.8245 0.0090
0 -12 5 -2.0306 -0.0098
0 -12 6 3.3011 0.0085
0 -12 7 -3.9391 -0.0056
0 -12 8 3.0622 0.0019
0 -12 9 -0.8507 0.0013
0 -12 10 -0.9215 -0.0028
0 -12 11 0.6469 0.0023
0 -12 12 1.8725 -0.0003
0 -12 13 -4.9224 -0.0012
0 -12 14 6.7688 -0.0004
0 -12 15 -7.2184 0.0035
0 -12 16 6.1353 -0.0039
0 -12 17 -3.7970 0.0019
0 -12 18 1.4494 -0.0020
0 -12 19 -0.2914 0.0052
0 -11 1 1.2431 0.0067
0 -11 2 -4.6021 -0.0113
0 -11 3 8.2363 0.0054
0 -11 4 -10.2245 0.0015
0 -11 5 10.1067 -0.0025
0 -11 6 -9.0319 -0.0002
0 -11 7 8.7518 0.0025
0 -11 8 -9.8214 -0.0035
0 -11 9 11.0581 0.0040
0 -11 10 -9.9096 -0.0037
0 -11 11 5.5350 0.0018
0 -11 12 -0.1539 0.0005
0 -11 13 -3.2721 -0.0007
0 -11 14 3.3512 -0.0013
0 -11 15 -1.4553 0.0023
0 -11 16 -0.5062 -0.0007
0 -11 17 1.4925 0.0002
0 -11 18 -0.9149 -0.0044
0 -11 19 -0.3518 0.0094
0 -11 20 0.8602 -0.0089
0 -10 1 -4.5257 0.0264
0 -10 2 -3.5851 -0.0290
0 -10 3 7.7076 0.0134
0 -10 4 -6.1579 -0.0026
0 -10 5 2.1228 0.0032
0 -10 6 0.3946 -0.0057
0 -10 7 1.0291 0.0040
0 -10 8 -4.6369 -0.0014
0 -10 9 6.4936 0.0011
0 -10 10 -4.5835 -0.0019
0 -10 11 0.7271 0.0022
0 -10 12 0.7487 -0.0023
0 -10 13 1.7537 0.0026
0 -10 14 -5.8841 -0.0019
0 -10 15 8.2184 -0.0007
0 -10 16 -7.2215 0.0032
0 -10 17 4.3857 -0.0022
0 -10 18 -1.7030 -0.0010
0 -10 19 0.5609 0.0003
0 -10 20 -1.1092 0.0060
0 -10 21 1.8012 -0.0111
0 -9 1 -5.3524 0.0624
0 -9 2 1.2178 -0.0363
0 -9 3 -6.7172 0.0070
0 -9 4 16.7175 -0.0005
0 -9 5 -21.9862 0.0072
0 -9 6 19.0605 -0.0081
0 -9 7 -11.1091 0.0017
0 -9 8 4.4236 0.0031
0 -9 9 -3.3839 -0.0033
0 -9 10 5.8651 0.0020
0 -9 11 -6.8154 -0.0012
0 -9 12 3.6250 0.0008
0 -9 13 1.4212 -0.0007
0 -9 14 -3.8792 0.0011
0 -9 15 2.7249 -0.0013
0 -9 16 -0.2624 0.0005
0 -9 17 -0.5901 0.0011
0 -9 18 -0.9034 -0.0010
0 -9 19 3.0781 -0.0028
0 -9 20 -4.2870 0.0069
0 -9 21 3.5863 -0.0048
0 -9 22 -1.6048 -0.0034
0 -8 1 13.3645 0.0639
0 -8 2 -4.6692 -0.0178
0 -8 3 -8.3021 -0.0058
0 -8 4 15.4624 0.0018
0 -8 5 -11.1452 0.0036
0 -8 6 0.3782 0.0030
0 -8 7 6.6722 -0.0111
0 -8 8 -5.2432 0.0107
0 -8 9 -2.2026 -0.0051
0 -8 10 8.6388 0.0011
0 -8 11 -9.3546 -0.0003
0 -8 12 6.2727 0.0013
0 -8 13 -3.7009 -0.0025
0 -8 14 3.8597 0.0025
0 -8 15 -4.7781 -0.0013
0 -8 16 3.6389 0.0000
0 -8 17 -0.5912 0.0007
0 -8 18 -2.2737 -0.0004
0 -8 19 2.9438 -0.0010
0 -8 20 -1.7232 0.0013
0 -8 21 0.1776 0.0026
0 -8 22 0.7277 -0.0072
0 -8 23 -0.7443 0.0055
0 -7 1 7.4853 0.0191
0 -7 2 -1.7483 0.0110
0 -7 3 0.5059 -0.0102
0 -7 4 -7.7016 -0.0012
0 -7 5 18.5572 -0.0010
0 -7 6 -23.7497 0.0125
0 -7 7 17.4283 -0.0163
0 -7 8 -4.0199 0.0095
0 -7 9 -7.0997 -0.0019
0 -7 10 10.6479 -0.0007
0 -7 11 -7.4638 0.0001
0 -7 12 3.0519 0.0009
0 -7 13 -1.1818 -0.0009
0 -7 14 1.4676 -0.0003
0 -7 15 -2.0152 0.0010
0 -7 16 1.8417 -0.0006
0 -7 17 -2.3935 0.0001
0 -7 18 4.5343 0.0001
0 -7 19 -6.9815 -0.0011
0 -7 20 7.6388 0.0015
0 -7 21 -5.7621 0.0003
0 -7 22 3.1640 -0.0013
0 -7 23 -1.5074 -0.0026
0 -7 24 0.8860 0.0080
0 -6 1 2.3297 -0.0313
0 -6 2 -7.8180 0.0213
0 -6 3 12.9115 0.0031
0 -6 4 -16.8683 -0.0152
0 -6 5 15.6008 0.0086
0 -6 6 -7.2252 0.0007
0 -6 7 -4.1404 -0.0008
0 -6 8 11.1738 -0.0031
0 -6 9 -9.0403 0.0032
0 -6 10 1.0482 -0.0007
0 -6 11 6.5470 0.0000
0 -6 12 -9.7873 -0.0017
0 -6 13 8.3266 0.0037
0 -6 14 -4.8914 -0.0040
0 -6 15 1.3242 0.0022
0 -6 16 1.7777 0.0001
0 -6 17 -4.5999 -0.0008
0 -6 18 6.6398 0.0002
0 -6 19 -6.2074 -0.0001
0 -6 20 3.3525 -0.0002
0 -6 21 -0.2906 0.0012
0 -6 22 -0.4711 -0.0001
0 -6 23 -0.8192 -0.0048
0 -6 24 1.6859 0.0086
0 -5 1 19.3305 -0.0317
0 -5 2 -11.3659 0.0069
0 -5 3 0.5247 0.0125
0 -5 4 9.7412 -0.0175
0 -5 5 -15.7349 0.0145
0 -5 6 16.7032 -0.0137
0 -5 7 -11.1413 0.0146
0 -5 8 0.5738 -0.0109
0 -5 9 10.8397 0.0033
0 -5 10 -18.0576 0.0016
0 -5 11 18.7966 -0.0008
0 -5 12 -15.6289 -0.0021
0 -5 13 11.1278 0.0035
0 -5 14 -7.1922 -0.0028
0 -5 15 4.6723 0.0010
0 -5 16 -3.6427 0.0004
0 -5 17 4.3225 -0.0003
0 -5 18 -6.4184 -0.0004
0 -5 19 9.4836 0.0004
0 -5 20 -11.4315 -0.0001
0 -5 21 9.9044 -0.0005
0 -5 22 -5.3856 0.0026
0 -5 23 1.0464 -0.0057
0 -5 24 0.4203 0.0063
0 -5 25 0.0693 -0.0029
0 -4 1 -23.3143 -0.0019
0 -4 2 37.5443 0.0027
0 -4 3 -44.0040 -0.0026
0 -4 4 40.6120 -0.0012
0 -4 5 -26.1010 0.0070
0 -4 6 8.8016 -0.0113
0 -4 7 3.3510 0.0103
0 -4 8 -7.1527 -0.0041
0 -4 9 3.3354 -0.0017
0 -4 10 2.8826 0.0027
0 -4 11 -7.2368 -0.0010
0 -4 12 7.7291 0.0005
0 -4 13 -6.0649 -0.0016
0 -4 14 4.5436 0.0024
0 -4 15 -2.7549 -0.0023
0 -4 16 0.0539 0.0019
0 -4 17 3.7068 -0.0013
0 -4 18 -7.3263 0.0004
0 -4 19 9.1608 -0.0000
0 -4 20 -7.9352 0.0004
0 -4 21 3.7558 -0.0006
0 -4 22 0.4152 0.0002
0 -4 23 -1.7592 0.0006
0 -4 24 0.5036 -0.0019
0 -4 25 0.6767 0.0025
0 -3 1 -7.9516 -0.0027
0 -3 2 13.2196 0.0230
0 -3 3 -10.4247 -0.0213
0 -3 4 0.3155 0.0103
0 -3 5 11.7876 -0.0046
0 -3 6 -14.5528 0.0058
0 -3 7 2.5596 -0.0082
0 -3 8 14.8956 0.0079
0 -3 9 -27.0110 -0.0046
0 -3 10 27.8009 0.0006
0 -3 11 -20.3398 0.0006
0 -3 12 12.3982 0.0015
0 -3 13 -8.6687 -0.0033
0 -3 14 8.9945 0.0028
0 -3 15 -9.1323 -0.0019
0 -3 16 7.0035 0.0019
0 -3 17 -3.9220 -0.0014
0 -3 18 2.1428 0.0000
0 -3 19 -3.0596 0.0004
0 -3 20 5.6509 0.0007
0 -3 21 -7.6098 -0.0011
0 -3 22 6.5531 0.0003
0 -3 23 -2.7012 -0.0003
0 -3 24 -0.9555 0.0031
0 -3 25 2.1845 -0.0072
0 -2 1 69.5809 -0.0689
0 -2 2 -34.7047 0.0539
0 -2 3 23.9975 -0.0218
0 -2 4 -28.3997 0.0053
0 -2 5 28.6636 -0.0085
0 -2 6 -17.5474 0.0143
0 -2 7 -0.2673 -0.0124
0 -2 8 8.6942 0.0061
0 -2 9 -1.4704 -0.0012
0 -2 10 -12.8362 -0.0004
0 -2 11 21.7647 -0.0007
0 -2 12 -18.5347 0.0021
0 -2 13 7.9250 -0.0013
0 -2 14 1.4394 -0.0003
0 -2 15 -4.1803 0.0001
0 -2 16 1.5160 0.0014
0 -2 17 1.1264 -0.0011
0 -2 18 -0.6147 -0.0005
0 -2 19 -2.5355 0.0005
0 -2 20 5.0975 0.0003
0 -2 21 -4.6493 0.0009
0 -2 22 1.6731 -0.0032
0 -2 23 1.2961 0.0024
0 -2 24 -1.9328 0.0015
0 -2 25 0.6832 -0.0042
0 -2 26 0.5467 0.0031
0 -1 2 83.4987 0.0256
0 -1 3 -42.6276 0.0032
0 -1 4 -1.9738 0.0010
0 -1 5 17.6358 -0.0105
0 -1 6 -13.2019 0.0061
0 -1 7 8.0788 0.0049
0 -1 8 -14.1768 -0.0096
0 -1 9 27.2442 0.0065
0 -1 10 -32.1840 -0.0016
0 -1 11 23.1498 -0.0015
0 -1 12 -6.5653 0.0014
0 -1 13 -5.0368 0.0010
0 -1 14 5.1011 -0.0031
0 -1 15 2.3501 0.0026
0 -1 16 -9.1202 -0.0015
0 -1 17 9.1370 0.0014
0 -1 18 -3.5499 -0.0011
0 -1 19 -2.2442 -0.0005
0 -1 20 4.1928 0.0008
0 -1 21 -2.5039 0.0018
0 -1 22 0.5276 -0.0042
0 -1 23 -0.3089 0.0031
0 -1 24 1.3931 -0.0008
0 -1 25 -2.1093 0.0007
0 -1 26 1.7922 -0.0019
0 0 2 67.8260 -0.0585
0 0 3 12.8911 0.0275
0 0 4 -41.8914 0.0014
0 0 5 22.2896 -0.0035
0 0 6 6.1989 -0.0096
0 0 7 -16.9726 0.0162
0 0 8 13.2329 -0.0116
0 0 9 -7.9734 0.0045
0 0 10 11.4700 -0.0008
0 0 11 -19.7470 0.0001
0 0 12 21.8636 -0.0009
0 0 13 -12.5305 0.0021
0 0 14 -3.2034 -0.0024
0 0 15 13.9039 0.0015
0 0 16 -13.7908 -0.0005
0 0 17 5.8062 0.0001
0 0 18 2.0915 0.0004
0 0 19 -4.0291 -0.0008
0 0 20 0.9558 -0.0002
0 0 21 2.5324 0.0017
0 0 22 -3.1180 -0.0015
0 0 23 1.6124 -0.0006
0 0 24 -0.2654 0.0022
0 0 25 -0.2549 -0.0024
0 0 26 0.4155 0.0026
0 1 2 -121.2303 -0.0480
0 1 3 101.1353 0.0046
0 1 4 -38.7875 0.0038
0 1 5 -21.8457 0.0063
0 1 6 48.9581 -0.0105
0 1 7 -41.0346 0.0044
0 1 8 22.5883 0.0019
0 1 9 -10.5983 -0.0025
0 1 10 7.1956 0.0002
0 1 11 -4.8354 0.0015
0 1 12 -3.0217 -0.0017
0 1 13 13.0871 0.0010
0 1 14 -17.6970 0.0000
0 1 15 12.1883 -0.0007
0 1 16 -1.1307 0.0007
0 1 17 -6.3768 -0.0002
0 1 18 5.6652 -0.0004
0 1 19 1.0548 0.0012
0 1 20 -7.2757 -0.0016
0 1 21 8.9548 0.0010
0 1 22 -6.8744 0.0002
0 1 23 4.1202 -0.0012
0 1 24 -2.3854 0.0015
0 1 25 1.1304 -0.0016
0 1 26 -0.1290 0.0011
0 2 0 -101.5301 -0.0421
0 2 1 102.1461 -0.0073
0 2 2 -62.9955 0.0364
0 2 3 0.1893 -0.0293
0 2 4 45.1618 0.0092
0 2 5 -51.8286 -0.0022
0 2 6 29.5488 0.0085
0 2 7 1.7058 -0.0140
0 2 8 -20.5194 0.0126
0 2 9 21.7497 -0.0080
0 2 10 -14.4833 0.0039
0 2 11 7.8162 -0.0015
0 2 12 -4.4237 0.0011
0 2 13 -0.2478 -0.0017
0 2 14 8.4735 0.0016
0 2 15 -17.0189 -0.0006
0 2 16 20.1357 0.0002
0 2 17 -15.0292 -0.0005
0 2 18 5.7225 0.0003
0 2 19 1.6426 0.0002
0 2 20 -3.5446 0.0005
0 2 21 1.3310 -0.0020
0 2 22 1.1794 0.0025
0 2 23 -1.8565 -0.0017
0 2 24 1.0102 0.0005
0 2 25 -0.0440 0.0009
0 2 26 -0.6523 -0.0030
0 3 0 7.2788 0.0281
0 3 1 -16.8593 -0.0412
0 3 2 25.2326 0.0269
0 3 3 -25.8059 -0.0058
0 3 4 13.0190 0.0011
0 3 5 10.0500 -0.0106
0 3 6 -27.8513 0.0171
0 3 7 32.3839 -0.0141
0 3 8 -22.9803 0.0075
0 3 9 6.1127 -0.0029
0 3 10 7.7387 0.0007
0 3 11 -14.7323 -0.0010
0 3 12 16.9194 0.0032
0 3 13 -18.1718 -0.0042
0 3 14 18.1620 0.0022
0 3 15 -14.2370 0.0000
0 3 16 7.0508 -0.0001
0 3 17 0.0503 -0.0003
0 3 18 -2.8813 -0.0003
0 3 19 0.4029 0.0002
0 3 20 4.8124 0.0017
0 3 21 -8.9606 -0.0030
0 3 22 9.4955 0.0011
0 3 23 -7.0721 0.0026
0 3 24 3.7654 -0.0054
0 3 25 -1.2453 0.0068
0 3 26 -0.1298 -0.0075
0 4 0 6.0144 -0.0065
0 4 1 7.2837 0.0176
0 4 2 -17.3433 -0.0256
0 4 3 21.2608 0.0198
0 4 4 -17.9606 -0.0041
0 4 5 13.6064 -0.0067
0 4 6 -8.8298 0.0050
0 4 7 4.1208 0.0025
0 4 8 -1.0836 -0.0070
0 4 9 0.1972 0.0069
0 4 10 -2.3937 -0.0046
0 4 11 5.8752 0.0012
0 4 12 -9.1713 0.0011
0 4 13 12.1585 -0.0003
0 4 14 -15.4715 -0.0021
0 4 15 18.8736 0.0026
0 4 16 -19.2908 -0.0009
0 4 17 15.1576 -0.0001
0 4 18 -7.8990 0.0002
0 4 19 0.8689 -0.0013
0 4 20 2.9631 0.0029
0 4 21 -3.1676 -0.0025
0 4 22 1.0397 0.0001
0 4 23 1.1068 0.0013
0 4 24 -1.9011 0.0001
0 4 25 1.5168 -0.0021
0 4 26 -0.7322 0.0025
0 5 0 -22.8603 -0.0466
0 5 1 16.6734 0.0458
0 5 2 -1.2149 -0.0350
0 5 3 -17.5369 0.0225
0 5 4 31.8005 -0.0144
0 5 5 -31.8053 0.0127
0 5 6 18.3922 -0.0145
0 5 7 -1.1628 0.0145
0 5 8 -11.3081 -0.0106
0 5 9 14.8608 0.0060
0 5 10 -11.9662 -0.0038
0 5 11 7.3194 0.0035
0 5 12 -5.3103 -0.0037
0 5 13 6.9859 0.0037
0 5 14 -9.1595 -0.0027
0 5 15 8.8447 0.0003
0 5 16 -4.8804 0.0018
0 5 17 -0.3683 -0.0017
0 5 18 3.1293 0.0001
0 5 19 -1.9227 0.0008
0 5 20 -1.7359 -0.0004
0 5 21 4.5070 0.0000
0 5 22 -4.7946 0.0003
0 5 23 3.2508 -0.0013
0 5 24 -1.4082 0.0023
0 5 25 0.3771 -0.0018
0 6 0 4.6387 -0.0158
0 6 1 -16.0449 -0.0060
0 6 2 29.9408 0.0110
0 6 3 -37.0103 -0.0001
0 6 4 30.4648 -0.0108
0 6 5 -11.3063 0.0133
0 6 6 -8.9129 -0.0099
0 6 7 16.1412 0.0043
0 6 8 -6.5796 0.0012
0 6 9 -12.0392 -0.0036
0 6 10 26.5530 0.0019
0 6 11 -29.3486 0.0008
0 6 12 21.9853 -0.0017
0 6 13 -11.7304 0.0012
0 6 14 6.2981 -0.0005
0 6 15 -6.9702 -0.0005
0 6 16 9.7776 0.0009
0 6 17 -10.0347 0.0004
0 6 18 6.1168 -0.0023
0 6 19 -0.7849 0.0017
0 6 20 -2.3253 0.0010
0 6 21 1.6921 -0.0022
0 6 22 0.6131 0.0006
0 6 23 -1.6205 0.0016
0 6 24 0.8669 -0.0020
0 6 25 0.2984 0.0015
0 7 0 -10.3176 0.0598
0 7 1 7.6043 -0.0703
0 7 2 -4.1910 0.0423
0 7 3 7.9141 -0.0076
0 7 4 -19.3000 -0.0064
0 7 5 29.3071 0.0035
0 7 6 -26.6453 0.0013
0 7 7 8.8192 -0.0036
0 7 8 13.8046 0.0059
0 7 9 -27.0040 -0.0065
0 7 10 23.0326 0.0043
0 7 11 -6.9640 -0.0021
0 7 12 -8.2949 0.0019
0 7 13 13.5698 -0.0023
0 7 14 -8.1250 0.0024
0 7 15 -1.0077 -0.0024
0 7 16 6.1166 0.0015
0 7 17 -5.1125 0.0009
0 7 18 1.2079 -0.0022
0 7 19 0.7864 0.0006
0 7 20 0.5046 0.0008
0 7 21 -2.9369 0.0007
0 7 22 3.7252 -0.0023
0 7 23 -2.1439 -0.0005
0 7 24 0.1489 0.0061
0 7 25 0.6470 -0.0089
0 8 0 -12.1815 0.0896
0 8 1 5.3373 -0.0675
0 8 2 -2.3618 0.0237
0 8 3 7.4628 -0.0011
0 8 4 -15.1523 0.0058
0 8 5 16.5695 -0.0132
0 8 6 -8.2671 0.0100
0 8 7 -3.3243 -0.0045
0 8 8 6.9358 0.0029
0 8 9 1.8932 -0.0016
0 8 10 -17.5511 -0.0008
0 8 11 28.6914 0.0009
0 8 12 -26.6768 0.0016
0 8 13 13.5401 -0.0032
0 8 14 1.1841 0.0028
0 8 15 -8.5404 -0.0017
0 8 16 6.6185 -0.0001
0 8 17 -0.7837 0.0019
0 8 18 -2.7920 -0.0018
0 8 19 1.7810 0.0004
0 8 20 1.4098 -0.0004
0 8 21 -3.3988 0.0013
0 8 22 3.2674 0.0007
0 8 23 -1.9231 -0.0051
0 8 24 0.7691 0.0069
0 9 0 14.9143 0.0514
0 9 1 -20.9311 -0.0101
0 9 2 17.2224 -0.0188
0 9 3 -6.6814 0.0136
0 9 4 -1.5664 0.0042
0 9 5 2.3081 -0.0083
0 9 6 2.0457 0.0011
0 9 7 -4.7635 0.0029
0 9 8 0.6331 -0.0021
0 9 9 7.7471 0.0024
0 9 10 -12.7510 -0.0027
0 9 11 9.3315 0.0001
0 9 12 1.0998 0.0022
0 9 13 -10.7055 -0.0014
0 9 14 12.1530 -0.0005
0 9 15 -5.0738 0.0010
0 9 16 -4.2948 -0.0016
0 9 17 8.8560 0.0023
0 9 18 -7.1461 -0.0019
0 9 19 2.5902 0.0008
0 9 20 0.8117 -0.0011
0 9 21 -1.5799 0.0024
0 9 22 0.8627 -0.0034
0 9 23 0.1614 0.0049
0 10 0 9.8374 -0.0019
0 10 1 -7.9038 0.0306
0 10 2 0.5611 -0.0320
0 10 3 5.9288 0.0126
0 10 4 -5.6174 0.0002
0 10 5 -1.0293 0.0031
0 10 6 8.1523 -0.0088
0 10 7 -10.7066 0.0077
0 10 8 7.6047 -0.0044
0 10 9 -2.6972 0.0034
0 10 10 0.9265 -0.0023
0 10 11 -2.7959 0.0008
0 10 12 4.7116 -0.0017
0 10 13 -2.5668 0.0036
0 10 14 -3.7298 -0.0030
0 10 15 9.7160 0.0011
0 10 16 -10.9089 -0.0013
0 10 17 6.8094 0.0021
0 10 18 -1.5511 -0.0010
0 10 19 -0.9282 -0.0006
0 10 20 0.4617 -0.0001
0 10 21 0.9860 0.0026
0 10 22 -1.7443 -0.0041
0 10 23 1.6686 0.0037
0 11 0 -0.8287 -0.0052
0 11 1 3.2557 0.0096
0 11 2 -5.0668 -0.0013
0 11 3 3.3025 -0.0071
0 11 4 2.3274 0.0037
0 11 5 -8.7637 0.0055
0 11 6 11.6023 -0.0082
0 11 7 -9.3314 0.0036
0 11 8 4.0833 0.0010
0 11 9 0.2081 -0.0027
0 11 10 -0.9892 0.0032
0 11 11 -0.6571 -0.0022
0 11 12 2.2088 -0.0004
0 11 13 -2.4014 0.0016
0 11 14 2.2263 -0.0002
0 11 15 -3.2352 -0.0007
0 11 16 4.9624 -0.0003
0 11 17 -5.6772 0.0006
0 11 18 4.0374 0.0007
0 11 19 -0.8425 -0.0009
0 11 20 -1.4539 -0.0014
0 11 21 1.8119 0.0036
0 11 22 -1.0225 -0.0034
0 12 0 -1.0555 0.0113
0 12 1 2.4855 -0.0131
0 12 2 -3.1821 0.0156
0 12 3 2.5625 -0.0147
0 12 4 -1.2257 0.0083
0 12 5 0.4617 -0.0020
0 12 6 -1.3288 0.0012
0 12 7 3.2966 -0.0035
0 12 8 -4.5287 0.0042
0 12 9 3.3622 -0.0030
0 12 10 0.1508 0.0020
0 12 11 -4.2072 -0.0008
0 12 12 7.2585 -0.0007
0 12 13 -8.4520 0.0006
0 12 14 7.5628 0.0013
0 12 15 -5.1611 -0.0022
0 12 16 1.9793 0.0012
0 12 17 0.6998 -0.0004
0 12 18 -1.7539 0.0005
0 12 19 1.1090 -0.0000
0 12 20 0.5251 -0.0018
0 12 21 -1.7195 0.0035
0 13 0 -2.5468 0.0093
0 13 1 4.5097 -0.0070
0 13 2 -6.7024 0.0073
0 13 3 8.3018 -0.0090
0 13 4 -8.6389 0.0076
0 13 5 7.9040 -0.0044
0 13 6 -6.8191 0.0030
0 13 7 5.9601 -0.0023
0 13 8 -5.6669 0.0001
0 13 9 5.5714 0.0019
0 13 10 -5.0992 -0.0017
0 13 11 4.5060 0.0007
0 13 12 -4.3314 0.0000
0 13 13 5.2492 -0.0019
0 13 14 -7.2614 0.0045
0 13 15 8.5868 -0.0049
0 13 16 -7.5035 0.0029
0 13 17 3.9887 -0.0018
0 13 18 0.2117 0.0032
0 13 19 -2.8660 -0.0041
0 13 20 3.2283 0.0019
0 14 0 5.9518 -0.0023
0 14 1 -4.3174 0.0112
0 14 2 2.7603 -0.0083
0 14 3 -2.4553 -0.0001
0 14 4 3.9298 0.0041
0 14 5 -6.0265 -0.0039
0 14 6 6.5385 0.0031
0 14 7 -4.3349 -0.0012
0 14 8 0.0886 -0.0024
0 14 9 3.7080 0.0045
0 14 10 -4.6762 -0.0034
0 14 11 3.3457 0.0021
0 14 12 -1.9562 -0.0021
0 14 13 1.8003 0.0016
0 14 14 -2.2578 -0.0008
0 14 15 1.5047 0.0015
0 14 16 0.7971 -0.0025
0 14 17 -2.9275 0.0007
0 14 18 3.2554 0.0029
0 15 0 6.0360 -0.0340
0 15 1 -4.3924 0.0351
0 15 2 4.3899 -0.0189
0 15 3 -6.1753 0.0035
0 15 4 8.3955 0.0008
0 15 5 -9.0892 0.0006
0 15 6 6.8132 -0.0014
0 15 7 -2.7555 0.0023
0 15 8 -0.0132 -0.0036
0 15 9 -0.8181 0.0029
0 15 10 4.7365 -0.0006
0 15 11 -8.1937 0.0004
0 15 12 8.2830 -0.0020
0 15 13 -5.6885 0.0020
0 15 14 2.9569 0.0001
0 15 15 -1.6779 -0.0018
0 15 16 1.3241 0.0029
0 15 17 -0.7279 -0.0046
0 16 0 -7.1524 -0.0366
0 16 1 6.9916 0.0200
0 16 2 -4.5498 -0.0003
0 16 3 1.5744 -0.0063
0 16 4 -0.2933 0.0022
0 16 5 1.1111 0.0008
0 16 6 -2.9046 0.0007
0 16 7 3.5233 -0.0018
0 16 8 -1.4507 0.0011
0 16 9 -2.3430 -0.0008
0 16 10 5.1068 0.0002
0 16 11 -4.6299 0.0023
0 16 12 1.5088 -0.0042
0 16 13 1.4301 0.0024
0 16 14 -2.3552 0.0013
0 16 15 1.7078 -0.0030
0 17 0 -5.1999 -0.0045
0 17 1 4.4040 -0.0084
0 17 2 -2.6274 0.0132
0 17 3 1.7205 -0.0078
0 17 4 -2.4162 0.0012
0 17 5 3.4889 -0.0006
0 17 6 -3.6278 0.0029
0 17 7 2.5461 -0.0035
0 17 8 -0.8730 0.0030
0 17 9 -0.2447 -0.0036
0 17 10 0.0689 0.0038
0 17 11 1.0777 -0.0025
0 17 12 -1.8937 0.0016
0 18 0 3.4159 0.0016
0 18 1 -3.8648 -0.0057
0 18 2 3.9174 0.0049
0 18 3 -2.7577 -0.0005
0 18 4 0.9171 -0.0022
0 18 5 0.4695 0.0008
0 18 6 -1.1338 0.0017
0 18 7 1.3848 -0.0029
0 18 8 -1.3775 0.0030
0 18 9 1.0973 -0.0031
1 -18 0 -1.2955 0.0091
1 -18 1 1.0831 -0.0095
1 -18 2 -0.4926 0.0066
1 -18 3 0.4719 -0.0006
1 -18 4 -1.1130 -0.0060
1 -17 0 -1.0668 0.0229
1 -17 1 1.2303 -0.0254
1 -17 2 -1.4814 0.0167
1 -17 3 2.3584 -0.0045
1 -17 4 -3.1115 -0.0029
1 -17 5 2.9335 0.0029
1 -17 6 -1.8484 0.0012
1 -17 7 0.5526 -0.0039
1 -17 8 0.3734 0.0027
1 -17 9 -0.4264 0.0002
1 -16 0 2.6590 0.0388
1 -16 1 -4.3878 -0.0269
1 -16 2 5.3292 0.0090
1 -16 3 -5.1439 -0.0002
1 -16 4 4.9381 0.0018
1 -16 5 -4.9310 -0.0057
1 -16 6 4.5224 0.0063
1 -16 7 -3.3885 -0.0038
1 -16 8 1.7924 0.0005
1 -16 9 -0.3480 0.0014
1 -16 10 -0.5944 -0.0013
1 -16 11 0.7009 0.0010
1 -16 12 -0.0494 -0.0022
1 -15 0 0.2428 0.0140
1 -15 1 -3.3114 0.0042
1 -15 2 4.8402 -0.0111
1 -15 3 -4.9911 0.0045
1 -15 4 4.8245 0.0025
1 -15 5 -4.3098 -0.0019
1 -15 6 3.0247 -0.0016
1 -15 7 -1.8601 0.0025
1 -15 8 1.6741 -0.0020
1 -15 9 -2.4107 0.0025
1 -15 10 3.3871 -0.0043
1 -15 11 -3.9474 0.0064
1 -15 12 4.0343 -0.0076
1 -15 13 -3.5179 0.0066
1 -15 14 2.3737 -0.0038
1 -14 0 -3.6901 -0.0017
1 -14 1 3.5769 0.0066
1 -14 2 -4.7240 -0.0013
1 -14 3 6.3384 -0.0051
1 -14 4 -7.5809 0.0027
1 -14 5 7.9033 0.0042
1 -14 6 -7.1077 -0.0060
1 -14 7 4.5521 0.0029
1 -14 8 -0.8195 -0.0010
1 -14 9 -1.9490 0.0019
1 -14 10 2.7169 -0.0022
1 -14 11 -2.1001 0.0006
1 -14 12 1.3323 0.0016
1 -14 13 -1.0099 -0.0032
1 -14 14 0.7679 0.0034
1 -14 15 -0.5994 -0.0017
1 -14 16 0.7126 -0.0002
1 -13 0 1.5526 0.0082
1 -13 1 0.9793 -0.0099
1 -13 2 -3.7440 0.0127
1 -13 3 5.8951 -0.0111
1 -13 4 -6.7450 0.0040
1 -13 5 5.6002 0.0014
1 -13 6 -2.7835 -0.0011
1 -13 7 -0.3125 -0.0008
1 -13 8 1.8101 0.0004
1 -13 9 -0.2822 0.0006
1 -13 10 -2.9233 0.0004
1 -13 11 4.9064 -0.0022
1 -13 12 -4.6839 0.0031
1 -13 13 3.1572 -0.0027
1 -13 14 -1.6347 0.0010
1 -13 15 0.5015 0.0012
1 -13 16 0.5275 -0.0021
1 -13 17 -1.0755 0.0015
1 -12 0 2.8559 0.0239
1 -12 1 -3.7964 -0.0231
1 -12 2 3.4114 0.0193
1 -12 3 -2.8028 -0.0146
1 -12 4 3.0175 0.0093
1 -12 5 -3.9895 -0.0061
1 -12 6 4.4742 0.0060
1 -12 7 -2.6975 -0.0064
1 -12 8 -1.6976 0.0052
1 -12 9 6.9268 -0.0036
1 -12 10 -10.0191 0.0030
1 -12 11 9.0886 -0.0034
1 -12 12 -5.8054 0.0038
1 -12 13 2.9896 -0.0037
1 -12 14 -1.4471 0.0027
1 -12 15 0.7633 -0.0017
1 -12 16 -0.4262 0.0021
1 -12 17 0.4865 -0.0022
1 -12 18 -0.8153 -0.0001
1 -12 19 0.7759 0.0031
1 -11 0 9.3380 0.0248
1 -11 1 -9.0475 -0.0073
1 -11 2 5.6603 -0.0003
1 -11 3 -2.9715 -0.0037
1 -11 4 2.9588 0.0088
1 -11 5 -4.2530 -0.0099
1 -11 6 4.3779 0.0090
1 -11 7 -2.3025 -0.0071
1 -11 8 -0.8671 0.0037
1 -11 9 2.3785 -0.0005
1 -11 10 -0.6839 -0.0001
1 -11 11 -2.9302 -0.0014
1 -11 12 5.3637 0.0025
1 -11 13 -4.7143 -0.0017
1 -11 14 2.4247 0.0002
1 -11 15 -0.2775 -0.0004
1 -11 16 -1.3964 0.0021
1 -11 17 2.4841 -0.0033
1 -11 18 -2.8336 0.0036
1 -11 19 2.3552 -0.0057
1 -11 20 -1.6726 0.0093
1 -10 0 7.0058 -0.0379
1 -10 1 2.9780 0.0557
1 -10 2 -8.8699 -0.0376
1 -10 3 7.0429 0.0077
1 -10 4 0.0189 0.0069
1 -10 5 -6.8071 -0.0053
1 -10 6 9.2999 0.0005
1 -10 7 -8.3440 0.0023
1 -10 8 7.1441 -0.0045
1 -10 9 -8.0556 0.0053
1 -10 10 10.7091 -0.0031
1 -10 11 -12.0820 0.0003
1 -10 12 10.2851 0.0002
1 -10 13 -6.3625 0.0015
1 -10 14 3.0737 -0.0028
1 -10 15 -1.6635 0.0025
1 -10 16 0.8688 -0.0016
1 -10 17 -0.1255 0.0008
1 -10 18 -0.2781 0.0008
1 -10 19 0.4025 -0.0040
1 -10 20 -0.5160 0.0052
1 -10 21 0.6044 -0.0005
1 -9 0 -20.0640 -0.0938
1 -9 1 23.4805 0.0790
1 -9 2 -16.3956 -0.0328
1 -9 3 3.1802 0.0012
1 -9 4 6.6335 0.0003
1 -9 5 -7.8563 0.0075
1 -9 6 1.9539 -0.0073
1 -9 7 4.7961 0.0033
1 -9 8 -7.0286 -0.0030
1 -9 9 4.8893 0.0042
1 -9 10 -1.5342 -0.0036
1 -9 11 -0.0003 0.0026
1 -9 12 -0.3766 -0.0024
1 -9 13 0.2885 0.0021
1 -9 14 1.2983 -0.0009
1 -9 15 -3.2492 0.0000
1 -9 16 3.6928 -0.0004
1 -9 17 -2.8569 0.0018
1 -9 18 2.3359 -0.0030
1 -9 19 -2.2392 0.0032
1 -9 20 2.0909 -0.0044
1 -9 21 -1.8389 0.0077
1 -9 22 1.8679 -0.0089
1 -8 0 -6.5883 -0.0757
1 -8 1 0.8196 0.0357
1 -8 2 7.2809 0.0030
1 -8 3 -10.3844 -0.0077
1 -8 4 2.9673 -0.0064
1 -8 5 11.1701 0.0100
1 -8 6 -22.9510 -0.0008
1 -8 7 26.3307 -0.0054
1 -8 8 -21.1777 0.0038
1 -8 9 13.1076 -0.0014
1 -8 10 -7.3659 0.0012
1 -8 11 4.8169 -0.0008
1 -8 12 -3.9337 -0.0001
1 -8 13 2.8007 -0.0001
1 -8 14 -1.6404 0.0010
1 -8 15 1.5675 -0.0010
1 -8 16 -2.2721 -0.0001
1 -8 17 2.2521 0.0016
1 -8 18 -0.3420 -0.0018
1 -8 19 -2.0764 0.0001
1 -8 20 3.1991 0.0013
1 -8 21 -3.0580 -0.0005
1 -8 22 2.5457 0.0004
1 -8 23 -2.0714 -0.0043
1 -7 0 25.7833 -0.0138
1 -7 1 -21.2369 -0.0266
1 -7 2 14.9816 0.0366
1 -7 3 -5.0389 -0.0162
1 -7 4 -6.3522 -0.0021
1 -7 5 13.0136 0.0004
1 -7 6 -9.9721 0.0085
1 -7 7 -0.1375 -0.0103
1 -7 8 10.3955 0.0077
1 -7 9 -15.1692 -0.0071
1 -7 10 13.0154 0.0070
1 -7 11 -7.4425 -0.0048
1 -7 12 1.7756 0.0027
1 -7 13 2.6322 -0.0024
1 -7 14 -5.5868 0.0024
1 -7 15 7.3830 -0.0014
1 -7 16 -7.2955 -0.0003
1 -7 17 5.1391 0.0014
1 -7 18 -2.1152 -0.0009
1 -7 19 0.5146 -0.0004
1 -7 20 -1.5037 -0.0003
1 -7 21 3.1992 0.0032
1 -7 22 -3.5314 -0.0031
1 -7 23 2.4891 -0.0026
1 -6 0 -11.0392 0.0286
1 -6 1 11.5869 -0.0384
1 -6 2 -8.8624 0.0222
1 -6 3 3.9881 -0.0009
1 -6 4 3.4908 -0.0030
1 -6 5 -13.2080 -0.0067
1 -6 6 22.8882 0.0120
1 -6 7 -28.2782 -0.0077
1 -6 8 25.9367 0.0021
1 -6 9 -17.6560 0.0002
1 -6 10 7.4637 -0.0013
1 -6 11 0.7431 0.0020
1 -6 12 -5.2903 -0.0006
1 -6 13 7.0252 -0.0017
1 -6 14 -6.4277 0.0018
1 -6 15 4.3038 -0.0000
1 -6 16 -1.5329 -0.0015
1 -6 17 -0.6509 0.0016
1 -6 18 0.4733 -0.0005
1 -6 19 2.4759 -0.0003
1 -6 20 -6.4117 -0.0004
1 -6 21 7.8445 0.0008
1 -6 22 -5.5325 0.0022
1 -6 23 2.0143 -0.0072
1 -6 24 -0.0821 0.0071
1 -5 0 -17.6514 -0.0071
1 -5 1 9.8761 0.0194
1 -5 2 0.2975 -0.0298
1 -5 3 -9.8536 0.0278
1 -5 4 14.7260 -0.0142
1 -5 5 -14.0024 0.0025
1 -5 6 8.3142 -0.0016
1 -5 7 -0.9388 0.0069
1 -5 8 -5.2753 -0.0094
1 -5 9 7.9542 0.0084
1 -5 10 -6.7611 -0.0070
1 -5 11 3.9350 0.0056
1 -5 12 -0.5806 -0.0034
1 -5 13 -2.8636 0.0023
1 -5 14 6.6375 -0.0031
1 -5 15 -10.0958 0.0036
1 -5 16 11.3794 -0.0024
1 -5 17 -9.6107 0.0010
1 -5 18 4.9877 -0.0008
1 -5 19 0.2328 0.0015
1 -5 20 -2.8997 -0.0021
1 -5 21 1.5882 0.0023
1 -5 22 1.6803 -0.0017
1 -5 23 -3.0294 0.0019
1 -5 24 1.5770 -0.0052
1 -5 25 0.2710 0.0099
1 -4 0 1.3790 -0.0331
1 -4 1 4.9800 0.0345
1 -4 2 -4.0498 -0.0292
1 -4 3 2.2947 0.0229
1 -4 4 -7.6767 -0.0182
1 -4 5 16.1414 0.0163
1 -4 6 -20.7768 -0.0161
1 -4 7 17.4876 0.0139
1 -4 8 -7.7834 -0.0086
1 -4 9 -1.9063 0.0041
1 -4 10 7.2494 -0.0032
1 -4 11 -7.5183 0.0040
1 -4 12 6.4657 -0.0041
1 -4 13 -7.5583 0.0037
1 -4 14 10.0972 -0.0028
1 -4 15 -11.4884 0.0005
1 -4 16 9.5751 0.0019
1 -4 17 -5.4310 -0.0018
1 -4 18 1.8343 -0.0004
1 -4 19 -1.0975 0.0015
1 -4 20 3.7224 -0.0007
1 -4 21 -7.1852 -0.0005
1 -4 22 8.1510 0.0017
1 -4 23 -5.4501 -0.0033
1 -4 24 1.6061 0.0047
1 -4 25 0.2469 -0.0054
1 -3 0 -48.0119 -0.0033
1 -3 1 32.7879 -0.0137
1 -3 2 -12.9101 0.0140
1 -3 3 2.7136 0.0000
1 -3 4 -7.0442 -0.0128
1 -3 5 12.8895 0.0162
1 -3 6 -8.8608 -0.0126
1 -3 7 -0.9495 0.0056
1 -3 8 7.2635 0.0017
1 -3 9 -3.2645 -0.0052
1 -3 10 -7.7388 0.0042
1 -3 11 16.7477 -0.0019
1 -3 12 -17.9918 0.0009
1 -3 13 12.4914 -0.0004
1 -3 14 -7.0719 0.0004
1 -3 15 6.0746 -0.0017
1 -3 16 -8.6044 0.0028
1 -3 17 10.7884 -0.0015
1 -3 18 -9.4761 -0.0005
1 -3 19 5.0411 0.0005
1 -3 20 0.0256 0.0008
1 -3 21 -2.7158 -0.0009
1 -3 22 2.1597 0.0010
1 -3 23 -0.3081 -0.0029
1 -3 24 -0.3669 0.0050
1 -3 25 -0.6214 -0.0046
1 -2 0 -5.0746 0.0690
1 -2 1 -50.3891 -0.0767
1 -2 2 67.7804 0.0517
1 -2 3 -50.7678 -0.0214
1 -2 4 22.9814 0.0068
1 -2 5 -6.5185 -0.0052
1 -2 6 7.1339 0.0066
1 -2 7 -8.8024 -0.0080
1 -2 8 0.5606 0.0093
1 -2 9 13.8896 -0.0086
1 -2 10 -23.6597 0.0060
1 -2 11 21.2834 -0.0045
1 -2 12 -10.9753 0.0044
1 -2 13 1.9206 -0.0036
1 -2 14 -0.6130 0.0026
1 -2 15 5.8044 -0.0030
1 -2 16 -11.0024 0.0034
1 -2 17 11.8580 -0.0019
1 -2 18 -8.3162 0.0005
1 -2 19 3.8942 -0.0013
1 -2 20 -1.7469 0.0022
1 -2 21 2.3088 -0.0012
1 -2 22 -3.7046 0.0001
1 -2 23 3.6633 -0.0008
1 -2 24 -2.0607 0.0010
1 -2 25 0.3486 0.0010
1 -2 26 0.2184 -0.0030
1 -1 0 113.8344 0.0867
1 -1 1 -118.7233 -0.0585
1 -1 2 70.6002 0.0233
1 -1 3 -14.8151 -0.0093
1 -1 4 -9.2663 0.0136
1 -1 5 3.3677 -0.0181
1 -1 6 12.9234 0.0158
1 -1 7 -18.9156 -0.0113
1 -1 8 12.3311 0.0070
1 -1 9 -7.2012 -0.0024
1 -1 10 11.6615 -0.0002
1 -1 11 -22.5500 -0.0006
1 -1 12 29.1582 0.0020
1 -1 13 -25.0583 -0.0011
1 -1 14 13.4229 -0.0003
1 -1 15 -2.1967 0.0003
1 -1 16 -1.9003 -0.0004
1 -1 17 -0.7116 0.0018
1 -1 18 4.8474 -0.0018
1 -1 19 -5.7698 -0.0002
1 -1 20 2.7620 0.0016
1 -1 21 1.0595 -0.0010
1 -1 22 -2.9593 0.0006
1 -1 23 2.6221 -0.0017
1 -1 24 -1.6218 0.0025
1 -1 25 1.0072 -0.0027
1 -1 26 -0.6306 0.0034
1 0 2 -80.5637 -0.0331
1 0 3 88.7712 0.0186
1 0 4 -53.3445 -0.0037
1 0 5 12.1513 -0.0009
1 0 6 8.3263 -0.0007
1 0 7 -8.7020 0.0035
1 0 8 2.0422 -0.0063
1 0 9 -2.7653 0.0076
1 0 10 10.6478 -0.0054
1 0 11 -16.2709 0.0021
1 0 12 12.8804 -0.0017
1 0 13 -2.4500 0.0036
1 0 14 -5.8695 -0.0040
1 0 15 6.1453 0.0021
1 0 16 0.6790 -0.0008
1 0 17 -8.0543 0.0007
1 0 18 9.9196 -0.0002
1 0 19 -6.2040 -0.0007
1 0 20 1.1941 0.0002
1 0 21 0.9808 0.0015
1 0 22 -0.3740 -0.0023
1 0 23 -0.5944 0.0012
1 0 24 0.7569 0.0009
1 0 25 -0.7303 -0.0031
1 0 26 1.0607 0.0045
1 1 1 74.7533 0.0308
1 1 2 -73.3695 -0.0112
1 1 3 45.0778 -0.0023
1 1 4 -12.2417 0.0038
1 1 5 -0.4214 0.0010
1 1 6 -9.0873 -0.0070
1 1 7 21.1186 0.0118
1 1 8 -24.5918 -0.0121
1 1 9 18.9970 0.0068
1 1 10 -11.8914 -0.0007
1 1 11 11.1053 -0.0004
1 1 12 -15.6161 -0.0031
1 1 13 18.6678 0.0057
1 1 14 -13.8745 -0.0051
1 1 15 3.1174 0.0033
1 1 16 6.0721 -0.0022
1 1 17 -8.4115 0.0014
1 1 18 4.4461 -0.0004
1 1 19 0.2768 -0.0003
1 1 20 -1.5174 -0.0002
1 1 21 -0.4242 0.0013
1 1 22 2.3133 -0.0016
1 1 23 -2.2620 0.0005
1 1 24 1.4773 0.0017
1 1 25 -1.2203 -0.0033
1 1 26 1.1013 0.0027
1 2 0 25.4509 -0.0213
1 2 1 -10.2553 -0.0036
1 2 2 14.7328 0.0183
1 2 3 -21.2306 -0.0196
1 2 4 20.4088 0.0150
1 2 5 -13.6329 -0.0080
1 2 6 4.4825 -0.0008
1 2 7 -1.9952 0.0055
1 2 8 5.2830 -0.0016
1 2 9 -7.3962 -0.0054
1 2 10 4.6430 0.0066
1 2 11 2.3011 -0.0023
1 2 12 -7.0289 -0.0003
1 2 13 5.1781 -0.0010
1 2 14 1.6331 0.0024
1 2 15 -6.8964 -0.0019
1 2 16 5.5952 0.0012
1 2 17 -0.0258 -0.0015
1 2 18 -4.3658 0.0015
1 2 19 4.1080 -0.0008
1 2 20 -0.4288 0.0005
1 2 21 -3.0533 -0.0004
1 2 22 4.3578 0.0002
1 2 23 -3.9927 -0.0004
1 2 24 3.5444 0.0009
1 2 25 -3.1147 -0.0005
1 2 26 2.0069 -0.0014
1 3 0 1.5306 -0.0117
1 3 1 0.1418 -0.0048
1 3 2 8.2618 0.0107
1 3 3 -19.0038 -0.0118
1 3 4 26.4445 0.0119
1 3 5 -31.4642 -0.0093
1 3 6 29.5444 0.0060
1 3 7 -21.8443 -0.0076
1 3 8 11.5944 0.0119
1 3 9 0.0796 -0.0108
1 3 10 -9.1042 0.0040
1 3 11 11.9532 -0.0003
1 3 12 -7.5170 0.0035
1 3 13 0.3522 -0.0071
1 3 14 2.8140 0.0061
1 3 15 0.2452 -0.0034
1 3 16 -6.6032 0.0026
1 3 17 10.4878 -0.0024
1 3 18 -9.5532 0.0011
1 3 19 5.9828 -0.0003
1 3 20 -3.0700 0.0014
1 3 21 2.3231 -0.0022
1 3 22 -2.6603 0.0013
1 3 23 2.8761 -0.0005
1 3 24 -2.5864 0.0009
1 3 25 2.1643 -0.0010
1 3 26 -1.8513 -0.0005
1 4 0 -27.1469 0.0191
1 4 1 21.8070 -0.0175
1 4 2 -11.7245 0.0069
1 4 3 -2.5838 0.0015
1 4 4 11.7129 -0.0032
1 4 5 -11.7901 0.0006
1 4 6 1.3967 0.0035
1 4 7 13.5972 -0.0068
1 4 8 -22.7333 0.0058
1 4 9 21.6507 0.0000
1 4 10 -10.8709 -0.0043
1 4 11 -3.7576 0.0017
1 4 12 14.4596 0.0036
1 4 13 -15.8542 -0.0045
1 4 14 8.5149 0.0016
1 4 15 0.3862 -0.0003
1 4 16 -4.8230 0.0016
1 4 17 3.8661 -0.0019
1 4 18 -1.0286 0.0007
1 4 19 0.1254 -0.0004
1 4 20 -1.5751 0.0010
1 4 21 3.6755 -0.0002
1 4 22 -4.5829 -0.0016
1 4 23 4.2234 0.0018
1 4 24 -3.3979 -0.0010
1 4 25 2.3998 0.0028
1 4 26 -1.3211 -0.0070
1 5 0 -11.2063 0.0106
1 5 1 18.3679 0.0042
1 5 2 -15.6639 -0.0161
1 5 3 4.7102 0.0162
1 5 4 1.0470 -0.0067
1 5 5 3.9307 -0.0015
1 5 6 -13.6848 0.0020
1 5 7 17.6649 0.0026
1 5 8 -8.0863 -0.0072
1 5 9 -11.0294 0.0087
1 5 10 28.6383 -0.0065
1 5 11 -34.4478 0.0023
1 5 12 26.2883 -0.0002
1 5 13 -11.4636 0.0022
1 5 14 -0.2887 -0.0051
1 5 15 2.5811 0.0049
1 5 16 2.8920 -0.0025
1 5 17 -9.4721 0.0015
1 5 18 12.1783 -0.0021
1 5 19 -10.5886 0.0019
1 5 20 7.9676 -0.0008
1 5 21 -6.6027 0.0004
1 5 22 6.2816 -0.0008
1 5 23 -5.5266 0.0016
1 5 24 3.6844 -0.0037
1 5 25 -1.7896 0.0079
1 6 0 -23.0073 -0.0321
1 6 1 18.1577 0.0315
1 6 2 -2.1776 -0.0246
1 6 3 -11.6162 0.0118
1 6 4 10.5836 -0.0004
1 6 5 2.8768 -0.0005
1 6 6 -13.9461 -0.0070
1 6 7 12.1946 0.0119
1 6 8 0.3396 -0.0092
1 6 9 -11.0374 0.0037
1 6 10 9.5499 -0.0004
1 6 11 3.8038 -0.0011
1 6 12 -19.1615 0.0012
1 6 13 24.8423 0.0005
1 6 14 -18.0092 -0.0020
1 6 15 4.6087 0.0010
1 6 16 6.4686 0.0008
1 6 17 -9.8615 -0.0000
1 6 18 6.9909 -0.0021
1 6 19 -2.7143 0.0020
1 6 20 1.1177 -0.0002
1 6 21 -2.0283 -0.0001
1 6 22 2.6330 -0.0015
1 6 23 -1.5196 0.0029
1 6 24 -0.4283 -0.0036
1 6 25 1.4275 0.0041
1 7 0 -3.5997 -0.0211
1 7 1 -17.1773 0.0150
1 7 2 30.8843 -0.0123
1 7 3 -25.8386 0.0072
1 7 4 4.9603 -0.0028
1 7 5 16.4591 0.0048
1 7 6 -24.1893 -0.0082
1 7 7 17.9787 0.0049
1 7 8 -8.9048 0.0022
1 7 9 8.3235 -0.0043
1 7 10 -16.7282 0.0013
1 7 11 24.8777 0.0005
1 7 12 -24.2073 0.0001
1 7 13 13.4179 -0.0001
1 7 14 -0.1881 -0.0002
1 7 15 -6.3673 -0.0008
1 7 16 3.5478 0.0013
1 7 17 4.5845 0.0003
1 7 18 -11.1801 -0.0015
1 7 19 12.4742 -0.0000
1 7 20 -9.1267 0.0019
1 7 21 4.6752 -0.0017
1 7 22 -2.2889 0.0015
1 7 23 1.9091 -0.0029
1 7 24 -1.9213 0.0036
1 7 25 1.3113 -0.0020
1 8 0 24.1929 0.0138
1 8 1 -31.7142 -0.0045
1 8 2 23.5773 -0.0068
1 8 3 -3.8229 0.0086
1 8 4 -13.5318 -0.0063
1 8 5 16.1199 0.0064
1 8 6 -3.7646 -0.0040
1 8 7 -12.1987 -0.0041
1 8 8 20.5669 0.0096
1 8 9 -18.1592 -0.0062
1 8 10 11.0332 0.0004
1 8 11 -7.7958 0.0005
1 8 12 10.2333 0.0012
1 8 13 -13.7171 -0.0010
1 8 14 12.2721 0.0005
1 8 15 -4.5269 -0.0017
1 8 16 -4.6163 0.0024
1 8 17 9.4405 -0.0009
1 8 18 -7.9737 -0.0003
1 8 19 3.0989 -0.0004
1 8 20 1.1438 0.0014
1 8 21 -2.8219 -0.0021
1 8 22 1.9477 0.0030
1 8 23 -0.1118 -0.0022
1 8 24 -1.1643 -0.0016
1 9 0 -0.9195 0.0362
1 9 1 3.7155 -0.0171
1 9 2 -12.6131 0.0021
1 9 3 17.8475 0.0020
1 9 4 -11.9944 -0.0033
1 9 5 -3.7970 0.0046
1 9 6 20.4561 -0.0004
1 9 7 -27.7823 -0.0065
1 9 8 23.5182 0.0067
1 9 9 -13.0783 -0.0002
1 9 10 3.9540 -0.0036
1 9 11 -0.8233 0.0018
1 9 12 1.8304 -0.0002
1 9 13 -2.4050 0.0012
1 9 14 0.6015 -0.0009
1 9 15 1.5893 -0.0009
1 9 16 -0.7823 0.0004
1 9 17 -3.0328 0.0024
1 9 18 6.7940 -0.0034
1 9 19 -7.6362 0.0012
1 9 20 5.5158 0.0016
1 9 21 -2.6286 -0.0026
1 9 22 0.1825 0.0014
1 9 23 1.4777 0.0011
1 9 24 -1.9509 -0.0026
1 10 0 -6.7129 0.0348
1 10 1 8.2378 -0.0160
1 10 2 -10.1837 0.0052
1 10 3 7.8450 -0.0023
1 10 4 -1.7611 0.0002
1 10 5 -3.0904 0.0011
1 10 6 2.4651 0.0007
1 10 7 4.4965 -0.0013
1 10 8 -13.5394 -0.0029
1 10 9 18.6688 0.0067
1 10 10 -17.3184 -0.0048
1 10 11 10.8408 0.0010
1 10 12 -3.3904 -0.0007
1 10 13 -1.6630 0.0020
1 10 14 4.1430 -0.0013
1 10 15 -5.4968 0.0001
1 10 16 6.5403 -0.0010
1 10 17 -6.0584 0.0017
1 10 18 3.3877 0.0003
1 10 19 -0.2167 -0.0020
1 10 20 -1.3602 0.0000
1 10 21 0.9072 0.0048
1 10 22 -0.1082 -0.0085
1 10 23 0.0058 0.0083
1 11 0 10.9523 0.0089
1 11 1 -6.9397 0.0006
1 11 2 2.2503 -0.0008
1 11 3 1.4504 -0.0036
1 11 4 -4.1695 0.0053
1 11 5 6.8257 -0.0038
1 11 6 -9.0122 0.0012
1 11 7 9.9123 0.0023
1 11 8 -8.6506 -0.0054
1 11 9 4.8646 0.0046
1 11 10 -0.0894 -0.0007
1 11 11 -3.6388 -0.0013
1 11 12 5.0499 -0.0002
1 11 13 -4.2398 0.0016
1 11 14 2.2001 -0.0005
1 11 15 0.4532 -0.0006
1 11 16 -3.0577 0.0003
1 11 17 5.0018 -0.0001
1 11 18 -5.3530 0.0002
1 11 19 3.3220 0.0015
1 11 20 -0.1102 -0.0048
1 11 21 -2.0302 0.0068
1 11 22 1.8889 -0.0053
1 12 0 4.3962 -0.0029
1 12 1 -0.8583 0.0040
1 12 2 -2.6050 0.0010
1 12 3 4.3779 -0.0061
1 12 4 -3.1475 0.0055
1 12 5 -0.6555 -0.0010
1 12 6 5.1608 -0.0021
1 12 7 -7.8714 0.0025
1 12 8 7.3059 -0.0012
1 12 9 -3.9334 -0.0010
1 12 10 -0.6883 0.0026
1 12 11 4.5460 -0.0015
1 12 12 -6.5738 -0.0011
1 12 13 7.2284 0.0012
1 12 14 -7.5151 0.0014
1 12 15 7.9365 -0.0030
1 12 16 -7.4207 0.0020
1 12 17 5.0126 -0.0009
1 12 18 -1.4684 0.0017
1 12 19 -1.6171 -0.0034
1 12 20 2.7438 0.0043
1 12 21 -1.8808 -0.0044
1 13 0 -1.7439 0.0045
1 13 1 0.9409 -0.0028
1 13 2 -0.0618 0.0046
1 13 3 -2.5361 -0.0050
1 13 4 7.1004 0.0011
1 13 5 -11.5589 0.0020
1 13 6 12.8220 -0.0000
1 13 7 -9.1550 -0.0037
1 13 8 2.1672 0.0046
1 13 9 4.0827 -0.0029
1 13 10 -6.1735 0.0005
1 13 11 3.3694 0.0023
1 13 12 1.5528 -0.0040
1 13 13 -4.5854 0.0019
1 13 14 4.3472 0.0016
1 13 15 -2.4452 -0.0021
1 13 16 1.4132 0.0002
1 13 17 -1.9016 -0.0004
1 13 18 2.3309 0.0035
1 13 19 -1.6562 -0.0047
1 13 20 0.3148 0.0016
1 14 0 1.2078 0.0039
1 14 1 -0.2554 -0.0037
1 14 2 -0.3233 0.0073
1 14 3 -1.2235 -0.0071
1 14 4 4.0431 0.0025
1 14 5 -5.4593 -0.0007
1 14 6 3.6937 0.0033
1 14 7 0.5033 -0.0042
1 14 8 -3.5120 0.0014
1 14 9 1.6450 0.0009
1 14 10 4.8161 -0.0007
1 14 11 -11.7435 0.0004
1 14 12 14.3448 -0.0005
1 14 13 -11.0114 -0.0002
1 14 14 4.9616 0.0002
1 14 15 -0.6019 0.0022
1 14 16 -0.4141 -0.0040
1 14 17 -0.4604 0.0022
1 14 18 1.0081 -0.0002
1 14 19 -0.7669 0.0021
1 15 0 -3.5090 -0.0061
1 15 1 6.9731 -0.0001
1 15 2 -7.9805 0.0056
1 15 3 6.3106 -0.0037
1 15 4 -4.2537 -0.0005
1 15 5 4.4366 -0.0004
1 15 6 -6.7657 0.0035
1 15 7 8.7529 -0.0024
1 15 8 -7.6116 -0.0011
1 15 9 2.9004 0.0011
1 15 10 1.9195 0.0012
1 15 11 -2.7493 -0.0011
1 15 12 -0.9462 -0.0006
1 15 13 5.9056 0.0009
1 15 14 -7.9661 -0.0001
1 15 15 5.9002 -0.0007
1 15 16 -1.9622 0.0024
1 15 17 -0.9570 -0.0048
1 16 0 -3.8227 -0.0071
1 16 1 4.6046 0.0022
1 16 2 -2.6025 0.0001
1 16 3 0.1534 0.0012
1 16 4 0.2651 -0.0002
1 16 5 1.9730 -0.0038
1 16 6 -4.8049 0.0043
1 16 7 5.7054 0.0004
1 16 8 -4.1790 -0.0036
1 16 9 1.8922 0.0010
1 16 10 -1.3460 0.0023
1 16 11 3.2048 -0.0020
1 16 12 -5.3444 0.0007
1 16 13 5.3544 -0.0019
1 16 14 -2.8925 0.0042
1 16 15 -0.1865 -0.0053
1 17 0 4.8467 -0.0164
1 17 1 -7.0353 0.0091
1 17 2 9.2520 -0.0036
1 17 3 -9.2024 0.0012
1 17 4 6.6308 0.0002
1 17 5 -3.3472 -0.0004
1 17 6 1.5330 -0.0020
1 17 7 -1.8681 0.0037
1 17 8 3.2260 -0.0008
1 17 9 -4.1113 -0.0041
1 17 10 3.7430 0.0052
1 17 11 -2.5598 -0.0019
1 17 12 1.6411 -0.0005
1 17 13 -1.3864 -0.0003
1 18 0 1.1413 -0.0133
1 18 1 -2.6307 0.0063
1 18 2 3.1521 -0.0039
1 18 3 -1.9683 0.0056
1 18 4 0.0920 -0.0067
1 18 5 0.7980 0.0048
1 18 6 -0.0745 -0.0014
1 18 7 -1.4270 -0.0012
1 18 8 2.5429 0.0020
1 18 9 -2.7862 0.0002
1 18 10 2.1038 -0.0047
1 19 0 -3.7534 -0.0056
1 19 1 3.4046 0.0026
1 19 2 -3.1879 -0.0033
1 19 3 3.4381 0.0036
1 19 4 -3.3199 0.0002
1 19 5 2.2513 -0.0059
2 -17 0 -2.2301 -0.0112
2 -17 1 1.5470 0.0025
2 -17 2 -1.1739 0.0036
2 -17 3 1.1615 -0.0032
2 -17 4 -0.7444 -0.0011
2 -17 5 -0.2512 0.0023
2 -17 6 1.1246 0.0024
2 -17 7 -1.4839 -0.0080
2 -16 0 -4.1145 0.0162
2 -16 1 2.4264 -0.0106
2 -16 2 -1.3977 0.0013
2 -16 3 0.5131 0.0062
2 -16 4 0.7318 -0.0095
2 -16 5 -1.7927 0.0070
2 -16 6 1.7082 -0.0007
2 -16 7 -0.6044 -0.0033
2 -16 8 -0.3611 0.0010
2 -16 9 0.6883 0.0038
2 -16 10 -0.5792 -0.0054
2 -15 0 -0.4220 0.0128
2 -15 1 -0.7125 -0.0018
2 -15 2 0.3178 -0.0049
2 -15 3 0.5886 0.0074
2 -15 4 -1.8645 -0.0086
2 -15 5 4.0444 0.0070
2 -15 6 -6.4416 -0.0023
2 -15 7 7.6249 -0.0007
2 -15 8 -6.7636 -0.0010
2 -15 9 4.9142 0.0028
2 -15 10 -3.7756 -0.0002
2 -15 11 3.4513 -0.0040
2 -15 12 -3.0710 0.0053
2 -15 13 2.0999 -0.0039
2 -14 0 7.7519 0.0081
2 -14 1 -6.7375 -0.0013
2 -14 2 4.2314 -0.0017
2 -14 3 -0.9877 0.0038
2 -14 4 -2.1498 -0.0061
2 -14 5 4.4294 0.0053
2 -14 6 -4.3326 -0.0019
2 -14 7 1.8274 0.0017
2 -14 8 0.8520 -0.0051
2 -14 9 -1.5715 0.0062
2 -14 10 0.1356 -0.0032
2 -14 11 1.3646 0.0011
2 -14 12 -1.3128 -0.0027
2 -14 13 0.5487 0.0043
2 -14 14 -0.4434 -0.0029
2 -14 15 1.1294 0.0003
2 -13 0 3.4825 -0.0025
2 -13 1 -3.8059 0.0070
2 -13 2 2.9301 -0.0055
2 -13 3 -1.8914 0.0029
2 -13 4 2.6004 -0.0024
2 -13 5 -5.4619 0.0022
2 -13 6 9.2747 -0.0021
2 -13 7 -11.6612 0.0037
2 -13 8 10.4022 -0.0054
2 -13 9 -6.4721 0.0043
2 -13 10 2.9629 -0.0022
2 -13 11 -1.6695 0.0027
2 -13 12 1.8463 -0.0046
2 -13 13 -1.3054 0.0038
2 -13 14 -0.3238 -0.0008
2 -13 15 1.3490 -0.0009
2 -13 16 -0.9739 0.0003
2 -13 17 0.0798 0.0005
2 -12 0 -2.5147 -0.0081
2 -12 1 1.9862 0.0055
2 -12 2 -2.8646 0.0015
2 -12 3 2.4683 -0.0047
2 -12 4 0.5607 0.0012
2 -12 5 -4.5676 0.0031
2 -12 6 6.5500 -0.0034
2 -12 7 -5.3751 0.0009
2 -12 8 2.2461 0.0015
2 -12 9 0.0955 -0.0028
2 -12 10 0.3059 0.0029
2 -12 11 -2.1691 -0.0019
2 -12 12 3.3042 0.0012
2 -12 13 -3.3171 -0.0011
2 -12 14 3.3325 0.0004
2 -12 15 -4.1739 0.0013
2 -12 16 4.5596 -0.0017
2 -12 17 -3.2014 -0.0001
2 -12 18 0.9988 0.0028
2 -11 0 1.8019 0.0116
2 -11 1 3.7577 -0.0120
2 -11 2 -7.9553 0.0146
2 -11 3 7.7869 -0.0119
2 -11 4 -4.7527 0.0037
2 -11 5 2.3872 0.0009
2 -11 6 -2.5799 0.0020
2 -11 7 4.2590 -0.0056
2 -11 8 -4.9827 0.0047
2 -11 9 3.5451 -0.0021
2 -11 10 -0.4653 0.0018
2 -11 11 -2.3344 -0.0033
2 -11 12 3.5826 0.0041
2 -11 13 -4.1707 -0.0032
2 -11 14 4.6180 0.0016
2 -11 15 -4.1391 -0.0006
2 -11 16 2.1355 0.0005
2 -11 17 0.3646 -0.0002
2 -11 18 -1.1531 -0.0005
2 -11 19 0.0373 0.0007
2 -10 0 -0.1283 0.0146
2 -10 1 6.4902 -0.0128
2 -10 2 -6.8438 0.0160
2 -10 3 2.1737 -0.0124
2 -10 4 2.2874 0.0039
2 -10 5 -2.4740 -0.0018
2 -10 6 -0.7208 0.0058
2 -10 7 4.2333 -0.0058
2 -10 8 -5.7276 0.0002
2 -10 9 4.9387 0.0032
2 -10 10 -3.3848 -0.0012
2 -10 11 2.5328 -0.0015
2 -10 12 -2.8678 0.0013
2 -10 13 3.3706 0.0002
2 -10 14 -3.4848 -0.0008
2 -10 15 3.8778 0.0007
2 -10 16 -4.0896 -0.0011
2 -10 17 2.9241 0.0020
2 -10 18 -0.2127 -0.0019
2 -10 19 -2.2329 0.0005
2 -10 20 2.4999 -0.0006
2 -9 0 -6.1315 -0.0065
2 -9 1 4.8216 -0.0019
2 -9 2 2.1086 0.0111
2 -9 3 -8.6137 -0.0085
2 -9 4 9.5521 0.0027
2 -9 5 -4.3849 -0.0039
2 -9 6 -2.2104 0.0057
2 -9 7 5.8882 0.0002
2 -9 8 -6.3622 -0.0079
2 -9 9 5.2903 0.0081
2 -9 10 -4.7815 -0.0033
2 -9 11 5.4586 0.0018
2 -9 12 -6.2404 -0.0041
2 -9 13 5.9989 0.0054
2 -9 14 -4.7030 -0.0041
2 -9 15 3.6815 0.0023
2 -9 16 -2.9953 -0.0008
2 -9 17 1.6511 -0.0008
2 -9 18 -0.0352 0.0028
2 -9 19 -0.5699 -0.0034
2 -9 20 -0.3134 0.0001
2 -9 21 1.1857 0.0059
2 -8 0 1.0224 -0.0311
2 -8 1 -7.6497 0.0114
2 -8 2 14.8802 0.0028
2 -8 3 -16.2327 -0.0046
2 -8 4 11.4050 0.0041
2 -8 5 -4.9336 -0.0051
2 -8 6 1.7789 0.0005
2 -8 7 -3.6043 0.0087
2 -8 8 7.0899 -0.0117
2 -8 9 -9.1747 0.0056
2 -8 10 9.4548 -0.0002
2 -8 11 -8.6966 0.0010
2 -8 12 8.0942 -0.0034
2 -8 13 -7.4202 0.0030
2 -8 14 5.7302 -0.0015
2 -8 15 -2.7103 0.0015
2 -8 16 -0.4318 -0.0024
2 -8 17 1.8098 0.0027
2 -8 18 -1.8990 -0.0022
2 -8 19 2.3198 0.0024
2 -8 20 -3.3235 -0.0045
2 -8 21 3.6203 0.0067
2 -8 22 -2.3982 -0.0037
2 -7 0 -1.2069 -0.0408
2 -7 1 -4.0947 0.0160
2 -7 2 5.4634 -0.0004
2 -7 3 -1.7615 -0.0040
2 -7 4 -3.2238 0.0060
2 -7 5 4.5325 -0.0066
2 -7 6 -1.3507 0.0030
2 -7 7 -4.2208 0.0002
2 -7 8 8.7622 0.0022
2 -7 9 -10.6262 -0.0058
2 -7 10 11.2609 0.0043
2 -7 11 -11.0835 -0.0007
2 -7 12 9.6441 0.0013
2 -7 13 -6.8477 -0.0049
2 -7 14 3.3275 0.0061
2 -7 15 -0.8470 -0.0041
2 -7 16 0.5810 0.0020
2 -7 17 -2.4014 -0.0014
2 -7 18 4.1200 0.0025
2 -7 19 -3.5458 -0.0038
2 -7 20 1.4844 0.0040
2 -7 21 -0.2014 -0.0045
2 -7 22 0.6151 0.0083
2 -7 23 -1.2580 -0.0128
2 -6 0 -3.4221 -0.0177
2 -6 1 10.4213 0.0001
2 -6 2 -17.6818 0.0028
2 -6 3 21.9566 0.0011
2 -6 4 -22.1823 -0.0010
2 -6 5 18.6454 -0.0032
2 -6 6 -13.5072 0.0072
2 -6 7 9.0573 -0.0103
2 -6 8 -5.9216 0.0121
2 -6 9 4.4880 -0.0097
2 -6 10 -4.1568 0.0046
2 -6 11 5.0521 -0.0023
2 -6 12 -7.3125 0.0043
2 -6 13 8.7068 -0.0060
2 -6 14 -7.2869 0.0042
2 -6 15 2.7865 -0.0013
2 -6 16 2.9404 0.0000
2 -6 17 -7.1368 -0.0000
2 -6 18 8.0062 0.0004
2 -6 19 -5.5970 -0.0008
2 -6 20 2.7563 0.0008
2 -6 21 -2.0567 -0.0012
2 -6 22 2.9647 0.0035
2 -6 23 -3.1397 -0.0051
2 -6 24 1.7316 0.0016
2 -5 0 -4.6558 0.0297
2 -5 1 14.0468 -0.0231
2 -5 2 -12.8392 0.0057
2 -5 3 6.1220 0.0070
2 -5 4 -0.2450 -0.0071
2 -5 5 -1.9079 0.0002
2 -5 6 2.0843 0.0053
2 -5 7 -1.7574 -0.0069
2 -5 8 1.3606 0.0057
2 -5 9 0.3027 -0.0028
2 -5 10 -4.1519 0.0002
2 -5 11 8.6261 -0.0003
2 -5 12 -11.3673 0.0019
2 -5 13 9.6515 -0.0018
2 -5 14 -3.8551 0.0002
2 -5 15 -2.1224 0.0005
2 -5 16 4.8070 -0.0003
2 -5 17 -3.2113 0.0008
2 -5 18 -0.5858 -0.0013
2 -5 19 3.6154 0.0008
2 -5 20 -3.6492 -0.0000
2 -5 21 0.8919 -0.0007
2 -5 22 1.6704 0.0022
2 -5 23 -1.8608 -0.0034
2 -5 24 0.4679 0.0013
2 -4 0 -13.8662 0.0049
2 -4 1 -4.6772 0.0101
2 -4 2 26.3225 -0.0188
2 -4 3 -35.7033 0.0158
2 -4 4 31.3839 -0.0051
2 -4 5 -20.7810 -0.0027
2 -4 6 12.9932 0.0021
2 -4 7 -10.2663 0.0026
2 -4 8 8.2367 -0.0055
2 -4 9 -3.5154 0.0058
2 -4 10 -3.5115 -0.0048
2 -4 11 8.1520 0.0028
2 -4 12 -7.1716 -0.0010
2 -4 13 1.9950 0.0013
2 -4 14 2.7554 -0.0027
2 -4 15 -2.3295 0.0034
2 -4 16 -3.0843 -0.0034
2 -4 17 9.4417 0.0037
2 -4 18 -12.6463 -0.0036
2 -4 19 11.3638 0.0027
2 -4 20 -7.3811 -0.0028
2 -4 21 3.4050 0.0040
2 -4 22 -1.5588 -0.0042
2 -4 23 1.5423 0.0033
2 -4 24 -1.4465 -0.0043
2 -4 25 0.3928 0.0071
2 -3 0 -0.6123 -0.0434
2 -3 1 -25.1860 0.0367
2 -3 2 32.3900 -0.0242
2 -3 3 -16.6264 0.0110
2 -3 4 -4.6097 -0.0023
2 -3 5 13.9829 0.0025
2 -3 6 -9.4969 -0.0081
2 -3 7 -0.1569 0.0107
2 -3 8 4.1133 -0.0075
2 -3 9 -1.1938 0.0036
2 -3 10 -2.3448 -0.0021
2 -3 11 0.8914 0.0016
2 -3 12 5.0842 -0.0013
2 -3 13 -9.3081 0.0021
2 -3 14 7.5840 -0.0027
2 -3 15 -0.8067 0.0012
2 -3 16 -6.0038 0.0008
2 -3 17 8.2509 -0.0010
2 -3 18 -5.9141 0.0001
2 -3 19 2.1339 0.0003
2 -3 20 -0.2747 -0.0009
2 -3 21 1.0033 0.0016
2 -3 22 -2.7329 -0.0008
2 -3 23 3.5672 -0.0009
2 -3 24 -2.7564 0.0002
2 -3 25 1.2793 0.0024
2 -2 0 13.2465 -0.0159
2 -2 1 -12.4317 0.0011
2 -2 2 -7.0063 0.0025
2 -2 3 28.1911 -0.0007
2 -2 4 -30.9144 -0.0025
2 -2 5 11.3688 0.0061
2 -2 6 11.3807 -0.0062
2 -2 7 -21.3660 0.0003
2 -2 8 16.8159 0.0060
2 -2 9 -7.8045 -0.0065
2 -2 10 5.2086 0.0030
2 -2 11 -9.6064 -0.0008
2 -2 12 14.7019 0.0005
2 -2 13 -14.2408 -0.0002
2 -2 14 8.7751 0.0011
2 -2 15 -3.8856 -0.0033
2 -2 16 3.5301 0.0036
2 -2 17 -7.5154 -0.0005
2 -2 18 11.7106 -0.0021
2 -2 19 -12.4351 0.0016
2 -2 20 9.3598 0.0002
2 -2 21 -5.1147 -0.0014
2 -2 22 2.4729 0.0025
2 -2 23 -1.6991 -0.0032
2 -2 24 1.5757 0.0018
2 -2 25 -1.0931 0.0010
2 -1 0 2.0703 0.0463
2 -1 1 8.4875 -0.0378
2 -1 2 -23.3119 0.0185
2 -1 3 20.6336 -0.0034
2 -1 4 -2.4759 -0.0038
2 -1 5 -16.2532 0.0043
2 -1 6 16.8509 0.0013
2 -1 7 0.4888 -0.0090
2 -1 8 -18.6062 0.0118
2 -1 9 24.4727 -0.0083
2 -1 10 -16.7347 0.0042
2 -1 11 5.1815 -0.0029
2 -1 12 0.9044 0.0023
2 -1 13 -0.0126 -0.0015
2 -1 14 -3.0848 0.0025
2 -1 15 2.6329 -0.0043
2 -1 16 1.6355 0.0034
2 -1 17 -6.0939 -0.0004
2 -1 18 7.1664 -0.0004
2 -1 19 -4.6475 -0.0013
2 -1 20 1.8189 0.0018
2 -1 21 -1.5192 -0.0004
2 -1 22 3.5392 -0.0004
2 -1 23 -5.1078 -0.0000
2 -1 24 4.6057 -0.0001
2 -1 25 -2.9189 0.0011
2 -1 26 1.5097 -0.0015
2 0 0 45.1153 0.0505
2 0 1 -24.0675 -0.0265
2 0 2 5.8760 0.0047
2 0 3 -3.7343 0.0074
2 0 4 1.2143 -0.0105
2 0 5 11.7550 0.0074
2 0 6 -31.2157 -0.0021
2 0 7 45.2039 -0.0007
2 0 8 -41.7060 -0.0006
2 0 9 24.6046 0.0027
2 0 10 -7.0117 -0.0028
2 0 11 -0.2611 0.0022
2 0 12 -4.0725 -0.0028
2 0 13 12.1043 0.0030
2 0 14 -16.1807 -0.0016
2 0 15 13.8893 0.0005
2 0 16 -9.2500 -0.0015
2 0 17 7.3205 0.0021
2 0 18 -8.6567 -0.0004
2 0 19 9.9925 -0.0018
2 0 20 -7.9997 0.0017
2 0 21 3.5052 -0.0003
2 0 22 -0.1072 -0.0002
2 0 23 -0.1090 -0.0003
2 0 24 -1.3364 0.0005
2 0 25 1.7752 0.0000
2 0 26 -0.9472 -0.0003
2 1 0 51.1150 0.0160
2 1 1 -17.9347 -0.0022
2 1 2 -0.2055 -0.0057
2 1 3 1.8766 0.0060
2 1 4 -1.5150 -0.0013
2 1 5 2.1876 -0.0018
2 1 6 4.8894 -0.0014
2 1 7 -19.3308 0.0082
2 1 8 35.3626 -0.0120
2 1 9 -43.0015 0.0107
2 1 10 35.6532 -0.0076
2 1 11 -17.4146 0.0057
2 1 12 -1.2658 -0.0044
2 1 13 10.3223 0.0031
2 1 14 -8.8235 -0.0028
2 1 15 3.2797 0.0039
2 1 16 -0.4262 -0.0043
2 1 17 2.0513 0.0027
2 1 18 -4.3158 -0.0004
2 1 19 3.7900 -0.0005
2 1 20 -1.0956 -0.0004
2 1 21 -0.2428 0.0019
2 1 22 -1.4617 -0.0025
2 1 23 3.7905 0.0016
2 1 24 -3.7077 0.0003
2 1 25 1.1923 -0.0020
2 1 26 0.9863 0.0027
2 2 0 -40.2852 -0.0083
2 2 1 36.9572 0.0089
2 2 2 -20.4086 -0.0049
2 2 3 -2.2166 -0.0038
2 2 4 23.6220 0.0102
2 2 5 -38.2390 -0.0065
2 2 6 47.9990 -0.0042
2 2 7 -48.4594 0.0105
2 2 8 36.7290 -0.0082
2 2 9 -16.8751 0.0038
2 2 10 -3.6116 -0.0025
2 2 11 14.8701 0.0026
2 2 12 -12.4760 -0.0016
2 2 13 0.1913 0.0015
2 2 14 11.9689 -0.0029
2 2 15 -15.9507 0.0030
2 2 16 12.5496 -0.0007
2 2 17 -7.4034 -0.0012
2 2 18 4.9530 0.0004
2 2 19 -4.6183 0.0014
2 2 20 3.3717 -0.0021
2 2 21 -0.2928 0.0018
2 2 22 -2.5443 -0.0006
2 2 23 2.5173 -0.0020
2 2 24 -0.1270 0.0054
2 2 25 -1.8589 -0.0067
2 2 26 1.7566 0.0052
2 3 0 -40.0589 0.0001
2 3 1 26.4639 -0.0052
2 3 2 -17.8350 0.0078
2 3 3 12.5114 -0.0089
2 3 4 -7.2018 0.0043
2 3 5 8.3642 0.0052
2 3 6 -16.7322 -0.0106
2 3 7 29.6426 0.0059
2 3 8 -42.1292 0.0028
2 3 9 45.4342 -0.0062
2 3 10 -35.4963 0.0046
2 3 11 14.8713 -0.0037
2 3 12 6.7410 0.0036
2 3 13 -18.8803 -0.0020
2 3 14 18.0657 0.0006
2 3 15 -9.0010 -0.0023
2 3 16 0.8184 0.0050
2 3 17 1.8902 -0.0043
2 3 18 -1.0320 0.0016
2 3 19 0.4482 -0.0010
2 3 20 -1.3860 0.0021
2 3 21 2.0007 -0.0018
2 3 22 -1.1073 0.0004
2 3 23 -0.5489 -0.0007
2 3 24 1.2465 0.0020
2 3 25 -0.4527 -0.0011
2 3 26 -0.6147 -0.0022
2 4 0 18.3624 0.0183
2 4 1 4.6541 -0.0142
2 4 2 -19.3285 0.0080
2 4 3 21.6692 -0.0040
2 4 4 -15.5533 0.0005
2 4 5 13.6902 0.0027
2 4 6 -19.0885 -0.0020
2 4 7 23.4095 -0.0026
2 4 8 -19.6221 0.0059
2 4 9 5.4482 -0.0049
2 4 10 12.6581 0.0031
2 4 11 -24.1946 -0.0035
2 4 12 22.0185 0.0040
2 4 13 -8.1142 -0.0028
2 4 14 -6.9181 0.0017
2 4 15 14.0342 -0.0021
2 4 16 -11.4089 0.0019
2 4 17 4.1780 -0.0002
2 4 18 1.4989 -0.0002
2 4 19 -3.8952 -0.0016
2 4 20 4.6962 0.0025
2 4 21 -5.7561 -0.0008
2 4 22 6.4074 -0.0007
2 4 23 -5.4094 -0.0007
2 4 24 3.2461 0.0019
2 4 25 -1.3549 0.0007
2 4 26 0.5612 -0.0044
2 5 0 -6.5975 0.0028
2 5 1 15.8576 0.0073
2 5 2 0.7505 -0.0079
2 5 3 -25.4275 0.0009
2 5 4 38.9689 0.0051
2 5 5 -33.5296 -0.0057
2 5 6 17.5670 0.0039
2 5 7 -7.2425 -0.0033
2 5 8 8.0926 0.0026
2 5 9 -13.9118 -0.0002
2 5 10 13.9474 -0.0016
2 5 11 -3.3963 0.0004
2 5 12 -12.2610 0.0020
2 5 13 22.9776 -0.0021
2 5 14 -21.6833 0.0002
2 5 15 11.1094 0.0014
2 5 16 0.1229 -0.0018
2 5 17 -5.6374 0.0018
2 5 18 4.8606 -0.0014
2 5 19 -1.7585 0.0006
2 5 20 -0.3173 -0.0007
2 5 21 0.6798 0.0015
2 5 22 -0.7403 -0.0015
2 5 23 1.4373 0.0013
2 5 24 -1.7923 -0.0034
2 5 25 1.1512 0.0077
2 5 26 -0.1745 -0.0093
2 6 0 -32.9174 -0.0183
2 6 1 4.1243 0.0205
2 6 2 29.0476 -0.0120
2 6 3 -42.1906 -0.0003
2 6 4 28.2166 0.0080
2 6 5 -1.6005 -0.0086
2 6 6 -17.6258 0.0065
2 6 7 19.2583 -0.0051
2 6 8 -10.0109 0.0024
2 6 9 2.8546 0.0028
2 6 10 -4.5734 -0.0057
2 6 11 11.2149 0.0029
2 6 12 -13.4212 0.0009
2 6 13 7.5854 -0.0005
2 6 14 2.2301 -0.0020
2 6 15 -8.3725 0.0021
2 6 16 6.5080 -0.0003
2 6 17 0.8753 0.0002
2 6 18 -8.3440 -0.0015
2 6 19 11.6943 0.0017
2 6 20 -10.8354 -0.0010
2 6 21 8.2629 0.0007
2 6 22 -6.1203 -0.0007
2 6 23 4.9304 0.0010
2 6 24 -3.6268 -0.0023
2 6 25 1.9428 0.0038
2 7 0 -0.7302 -0.0219
2 7 1 -20.0791 0.0141
2 7 2 22.7697 -0.0026
2 7 3 -4.3263 -0.0081
2 7 4 -20.6618 0.0119
2 7 5 32.2454 -0.0079
2 7 6 -22.9560 0.0024
2 7 7 1.4358 -0.0001
2 7 8 16.4904 -0.0015
2 7 9 -22.2351 0.0035
2 7 10 18.6486 -0.0025
2 7 11 -13.7196 -0.0015
2 7 12 13.1994 0.0025
2 7 13 -15.0226 0.0012
2 7 14 14.0296 -0.0036
2 7 15 -8.6057 0.0014
2 7 16 1.6566 0.0014
2 7 17 2.2632 -0.0011
2 7 18 -1.6981 -0.0001
2 7 19 -1.6579 -0.0003
2 7 20 4.7493 0.0012
2 7 21 -5.4507 -0.0012
2 7 22 4.1082 0.0013
2 7 23 -2.0475 -0.0010
2 7 24 0.5677 -0.0014
2 7 25 0.0337 0.0046
2 8 0 10.0029 -0.0095
2 8 1 -7.6281 0.0005
2 8 2 -6.4485 0.0070
2 8 3 21.3545 -0.0107
2 8 4 -23.9364 0.0065
2 8 5 10.9075 0.0017
2 8 6 8.4116 -0.0045
2 8 7 -21.3371 0.0006
2 8 8 21.0199 0.0026
2 8 9 -11.1233 -0.0023
2 8 10 0.9087 0.0022
2 8 11 3.9281 -0.0029
2 8 12 -3.1291 0.0012
2 8 13 0.6050 0.0018
2 8 14 0.4870 -0.0011
2 8 15 -1.1128 -0.0028
2 8 16 3.3147 0.0046
2 8 17 -7.1470 -0.0026
2 8 18 9.9598 0.0006
2 8 19 -9.9023 -0.0006
2 8 20 7.7471 0.0014
2 8 21 -4.9587 -0.0018
2 8 22 2.6004 0.0009
2 8 23 -0.7203 0.0023
2 8 24 -0.5500 -0.0068
2 9 0 3.1213 0.0005
2 9 1 2.4262 -0.0029
2 9 2 -8.9221 0.0043
2 9 3 10.4093 -0.0032
2 9 4 -5.5630 -0.0013
2 9 5 -0.3359 0.0033
2 9 6 0.2883 0.0012
2 9 7 6.8318 -0.0066
2 9 8 -16.8151 0.0055
2 9 9 23.7043 -0.0012
2 9 10 -23.4548 0.0002
2 9 11 17.6278 -0.0018
2 9 12 -10.4328 0.0013
2 9 13 5.1957 0.0000
2 9 14 -2.7734 0.0011
2 9 15 1.6715 -0.0027
2 9 16 -1.2359 0.0013
2 9 17 2.0966 0.0015
2 9 18 -4.5728 -0.0018
2 9 19 6.8308 -0.0005
2 9 20 -6.3122 0.0023
2 9 21 3.6677 -0.0013
2 9 22 -1.5535 -0.0020
2 9 23 1.2223 0.0054
2 9 24 -1.3967 -0.0060
2 10 0 13.5104 0.0044
2 10 1 -11.5416 0.0004
2 10 2 9.0119 -0.0048
2 10 3 -6.8429 0.0077
2 10 4 4.3768 -0.0079
2 10 5 -1.3211 0.0033
2 10 6 -1.9511 0.0033
2 10 7 3.4029 -0.0056
2 10 8 -1.9264 0.0021
2 10 9 -1.0656 0.0009
2 10 10 3.8445 -0.0003
2 10 11 -4.6615 -0.0004
2 10 12 3.0299 -0.0008
2 10 13 -0.1360 0.0012
2 10 14 -2.7267 0.0007
2 10 15 4.7967 -0.0016
2 10 16 -6.4973 -0.0002
2 10 17 7.8470 0.0017
2 10 18 -7.6881 -0.0007
2 10 19 5.0749 -0.0007
2 10 20 -0.8180 0.0001
2 10 21 -1.9007 0.0018
2 10 22 1.2466 -0.0028
2 10 23 0.8672 0.0019
2 11 0 8.4218 0.0068
2 11 1 -6.4274 0.0039
2 11 2 3.2676 -0.0106
2 11 3 -0.6699 0.0110
2 11 4 0.4683 -0.0066
2 11 5 -4.2597 0.0003
2 11 6 10.5224 0.0039
2 11 7 -15.7011 -0.0030
2 11 8 16.8173 -0.0012
2 11 9 -12.8864 0.0040
2 11 10 6.3073 -0.0039
2 11 11 -0.7878 0.0031
2 11 12 -1.2973 -0.0022
2 11 13 0.1289 0.0004
2 11 14 1.8829 0.0012
2 11 15 -2.8536 -0.0004
2 11 16 2.5060 -0.0020
2 11 17 -2.0484 0.0030
2 11 18 2.6700 -0.0021
2 11 19 -3.6586 0.0012
2 11 20 3.4802 -0.0007
2 11 21 -1.3481 -0.0007
2 11 22 -1.3911 0.0031
2 12 0 -7.7231 -0.0049
2 12 1 9.6248 0.0110
2 12 2 -11.6255 -0.0110
2 12 3 10.8742 0.0073
2 12 4 -6.0471 -0.0042
2 12 5 -1.1208 0.0031
2 12 6 6.0245 -0.0030
2 12 7 -5.0644 0.0040
2 12 8 -0.8555 -0.0050
2 12 9 7.3125 0.0034
2 12 10 -9.2513 0.0001
2 12 11 4.7646 -0.0017
2 12 12 3.3757 0.0003
2 12 13 -9.8433 0.0013
2 12 14 10.7292 -0.0014
2 12 15 -7.0325 0.0010
2 12 16 2.6156 -0.0006
2 12 17 -0.0876 -0.0005
2 12 18 -0.5197 0.0016
2 12 19 0.8064 -0.0007
2 12 20 -1.4885 -0.0016
2 12 21 2.0506 0.0033
2 13 0 -2.3513 -0.0016
2 13 1 5.0758 0.0015
2 13 2 -6.9359 0.0010
2 13 3 5.3123 -0.0004
2 13 4 -0.8208 -0.0040
2 13 5 -2.8404 0.0073
2 13 6 2.0597 -0.0070
2 13 7 3.0179 0.0053
2 13 8 -8.2503 -0.0034
2 13 9 9.0010 0.0002
2 13 10 -3.6419 0.0020
2 13 11 -4.5131 -0.0003
2 13 12 9.4146 -0.0029
2 13 13 -7.4826 0.0026
2 13 14 0.5045 0.0005
2 13 15 5.6511 -0.0020
2 13 16 -6.7623 0.0014
2 13 17 3.9028 -0.0008
2 13 18 -0.5592 0.0002
2 13 19 -1.1260 0.0021
2 13 20 1.4405 -0.0047
2 14 0 5.6895 -0.0025
2 14 1 -1.8373 -0.0018
2 14 2 0.0951 0.0036
2 14 3 -1.5727 0.0005
2 14 4 3.9258 -0.0054
2 14 5 -3.7332 0.0046
2 14 6 -0.4128 -0.0006
2 14 7 6.0149 -0.0010
2 14 8 -8.7304 0.0007
2 14 9 6.6140 -0.0013
2 14 10 -1.7478 0.0013
2 14 11 -1.0706 0.0004
2 14 12 -1.4568 -0.0010
2 14 13 7.2955 -0.0012
2 14 14 -11.0819 0.0023
2 14 15 9.1776 0.0002
2 14 16 -3.0240 -0.0026
2 14 17 -2.4777 0.0017
2 14 18 4.3088 -0.0003
2 14 19 -3.2414 0.0008
2 15 0 0.6509 0.0114
2 15 1 1.4693 -0.0114
2 15 2 -0.1032 0.0053
2 15 3 -3.3094 0.0031
2 15 4 5.0493 -0.0053
2 15 5 -3.0960 0.0005
2 15 6 -1.3693 0.0031
2 15 7 4.7590 -0.0012
2 15 8 -4.2043 -0.0014
2 15 9 0.7687 0.0009
2 15 10 1.8901 -0.0001
2 15 11 -1.1482 0.0011
2 15 12 -2.2588 -0.0015
2 15 13 4.6879 0.0006
2 15 14 -3.5170 -0.0003
2 15 15 -0.2070 -0.0001
2 15 16 3.1771 0.0032
2 15 17 -3.1090 -0.0075
2 15 18 0.9367 0.0085
2 16 0 -3.4175 0.0087
2 16 1 1.3334 -0.0044
2 16 2 3.1518 -0.0019
2 16 3 -6.7676 0.0044
2 16 4 6.7832 -0.0001
2 16 5 -4.1649 -0.0051
2 16 6 2.1449 0.0043
2 16 7 -2.9908 0.0000
2 16 8 6.3478 -0.0009
2 16 9 -9.4481 -0.0018
2 16 10 9.8862 0.0026
2 16 11 -7.7711 -0.0001
2 16 12 4.9250 -0.0017
2 16 13 -3.1286 0.0010
2 16 14 2.6533 0.0007
2 16 15 -2.4869 -0.0026
2 16 16 1.7303 0.0045
2 17 0 -2.6252 0.0003
2 17 1 -0.3859 -0.0010
2 17 2 2.5956 0.0018
2 17 3 -2.0982 -0.0038
2 17 4 -0.5995 0.0061
2 17 5 2.7212 -0.0053
2 17 6 -2.2712 0.0012
2 17 7 -0.0847 0.0018
2 17 8 2.3994 -0.0010
2 17 9 -3.1820 -0.0003
2 17 10 2.2701 -0.0016
2 17 11 -0.5223 0.0047
2 17 12 -1.0818 -0.0048
2 17 13 1.7636 0.0017
2 17 14 -1.3709 0.0013
2 18 0 -2.1876 -0.0047
2 18 1 2.2288 0.0009
2 18 2 -3.1779 0.0008
2 18 3 5.0466 -0.0013
2 18 4 -6.3878 0.0021
2 18 5 5.8691 -0.0028
2 18 6 -4.0059 0.0029
2 18 7 2.3665 -0.0027
2 18 8 -1.6786 0.0027
2 18 9 1.7656 -0.0018
2 18 10 -2.1724 -0.0003
2 18 11 2.4972 0.0017
2 19 0 2.1663 0.0060
2 19 1 -1.6748 -0.0063
2 19 2 0.8857 0.0036
2 19 3 0.0330 -0.0012
2 19 4 -0.3349 0.0012
2 19 5 -0.2215 -0.0020
2 19 6 0.7913 0.0011
2 19 7 -0.7137 0.0007
3 -17 0 0.7405 -0.0026
3 -17 1 -0.4702 -0.0041
3 -17 2 -0.2267 0.0067
3 -17 3 0.6617 -0.0016
3 -17 4 -0.2822 -0.0052
3 -16 0 0.9051 -0.0024
3 -16 1 -1.2294 -0.0016
3 -16 2 1.4859 0.0027
3 -16 3 -2.0628 -0.0016
3 -16 4 2.7007 0.0014
3 -16 5 -2.3528 -0.0048
3 -16 6 0.8384 0.0084
3 -16 7 0.6339 -0.0063
3 -16 8 -1.1117 -0.0005
3 -16 9 0.7850 0.0040
3 -15 0 -1.3673 0.0033
3 -15 1 -0.6665 -0.0030
3 -15 2 2.4081 0.0023
3 -15 3 -3.2843 -0.0006
3 -15 4 2.8175 -0.0005
3 -15 5 -1.4278 -0.0015
3 -15 6 0.2384 0.0036
3 -15 7 -0.3711 -0.0011
3 -15 8 1.2896 -0.0039
3 -15 9 -1.5302 0.0044
3 -15 10 0.8275 -0.0004
3 -15 11 -0.1348 -0.0011
3 -15 12 0.3725 -0.0021
3 -14 0 1.1789 0.0028
3 -14 1 -2.9247 0.0030
3 -14 2 2.5252 -0.0052
3 -14 3 -0.5668 0.0055
3 -14 4 -1.5356 -0.0033
3 -14 5 1.8062 -0.0020
3 -14 6 -0.0085 0.0061
3 -14 7 -2.3925 -0.0047
3 -14 8 3.8023 0.0014
3 -14 9 -3.6773 -0.0014
3 -14 10 3.4011 0.0023
3 -14 11 -4.1504 0.0011
3 -14 12 5.1678 -0.0065
3 -14 13 -4.9958 0.0077
3 -14 14 3.2818 -0.0048
3 -13 0 -0.2124 -0.0110
3 -13 1 2.7308 0.0118
3 -13 2 -6.8463 -0.0073
3 -13 3 9.4463 0.0037
3 -13 4 -8.7961 -0.0022
3 -13 5 5.3273 0.0004
3 -13 6 -1.5336 0.0007
3 -13 7 -0.0816 0.0005
3 -13 8 -0.2147 -0.0014
3 -13 9 0.7666 0.0002
3 -13 10 -0.4910 0.0003
3 -13 11 -0.2513 0.0022
3 -13 12 -0.0705 -0.0048
3 -13 13 1.5134 0.0047
3 -13 14 -2.4223 -0.0049
3 -13 15 1.7049 0.0078
3 -13 16 -0.1050 -0.0106
3 -12 0 -0.8254 -0.0107
3 -12 1 4.2004 0.0006
3 -12 2 -6.3856 0.0057
3 -12 3 5.0676 -0.0031
3 -12 4 -1.4687 -0.0031
3 -12 5 -1.0540 0.0048
3 -12 6 0.5929 -0.0021
3 -12 7 2.3980 -0.0000
3 -12 8 -5.5250 0.0006
3 -12 9 6.9962 -0.0013
3 -12 10 -7.3893 0.0019
3 -12 11 7.6524 -0.0012
3 -12 12 -7.8940 0.0000
3 -12 13 7.2212 0.0002
3 -12 14 -4.8735 0.0002
3 -12 15 2.1755 -0.0015
3 -12 16 -0.8964 0.0043
3 -12 17 1.0315 -0.0068
3 -11 0 9.5627 0.0113
3 -11 1 -7.8802 -0.0172
3 -11 2 8.2061 0.0136
3 -11 3 -10.3608 -0.0028
3 -11 4 11.5347 -0.0052
3 -11 5 -9.4836 0.0036
3 -11 6 5.1476 0.0021
3 -11 7 -1.0871 -0.0039
3 -11 8 -1.1220 0.0025
3 -11 9 1.3584 -0.0028
3 -11 10 -0.9429 0.0043
3 -11 11 0.8045 -0.0034
3 -11 12 -0.5299 0.0009
3 -11 13 -0.0883 -0.0005
3 -11 14 0.6392 0.0031
3 -11 15 -0.1527 -0.0063
3 -11 16 -1.3896 0.0067
3 -11 17 2.2385 -0.0032
3 -11 18 -1.5174 -0.0014
3 -11 19 0.2989 0.0027
3 -10 0 1.4503 0.0133
3 -10 1 1.8906 -0.0111
3 -10 2 -1.1845 0.0030
3 -10 3 -1.3822 0.0072
3 -10 4 2.5682 -0.0103
3 -10 5 -1.9712 0.0044
3 -10 6 1.3270 0.0014
3 -10 7 -2.2373 -0.0015
3 -10 8 4.3687 0.0011
3 -10 9 -6.2738 -0.0043
3 -10 10 6.7944 0.0069
3 -10 11 -5.6852 -0.0048
3 -10 12 4.2967 0.0016
3 -10 13 -3.5840 -0.0016
3 -10 14 3.0189 0.0032
3 -10 15 -1.9263 -0.0025
3 -10 16 0.4696 -0.0006
3 -10 17 0.0836 0.0020
3 -10 18 0.4317 0.0014
3 -10 19 -0.6671 -0.0076
3 -10 20 0.1730 0.0104
3 -9 0 -19.7404 0.0098
3 -9 1 17.4053 -0.0039
3 -9 2 -10.0929 -0.0044
3 -9 3 2.8862 0.0103
3 -9 4 0.5566 -0.0076
3 -9 5 -1.5592 0.0005
3 -9 6 2.6192 0.0014
3 -9 7 -4.1217 0.0022
3 -9 8 5.0898 -0.0030
3 -9 9 -4.4450 -0.0003
3 -9 10 2.7805 0.0016
3 -9 11 -1.7004 0.0005
3 -9 12 2.3936 -0.0011
3 -9 13 -4.3217 -0.0005
3 -9 14 5.0793 0.0000
3 -9 15 -3.7899 0.0035
3 -9 16 2.0579 -0.0058
3 -9 17 -1.7963 0.0037
3 -9 18 2.8745 0.0005
3 -9 19 -3.1990 -0.0017
3 -9 20 2.1288 -0.0032
3 -9 21 -0.8711 0.0103
3 -8 0 -6.0608 0.0005
3 -8 1 -3.9887 0.0051
3 -8 2 11.0255 -0.0081
3 -8 3 -11.6609 0.0065
3 -8 4 6.5415 -0.0006
3 -8 5 0.0040 -0.0022
3 -8 6 -4.4164 -0.0025
3 -8 7 7.1952 0.0085
3 -8 8 -8.9545 -0.0088
3 -8 9 9.0147 0.0060
3 -8 10 -6.5432 -0.0054
3 -8 11 1.7813 0.0056
3 -8 12 2.8465 -0.0036
3 -8 13 -4.8809 0.0018
3 -8 14 3.6399 -0.0031
3 -8 15 -1.2850 0.0048
3 -8 16 1.0665 -0.0034
3 -8 17 -3.2374 0.0005
3 -8 18 5.2089 0.0006
3 -8 19 -4.5792 0.0016
3 -8 20 2.1020 -0.0052
3 -8 21 -0.4566 0.0057
3 -8 22 0.3925 0.0005
3 -7 0 18.8238 -0.0155
3 -7 1 -16.0507 0.0089
3 -7 2 7.0745 -0.0027
3 -7 3 4.5788 -0.0016
3 -7 4 -14.4308 0.0030
3 -7 5 19.9029 0.0007
3 -7 6 -20.2003 -0.0071
3 -7 7 17.3607 0.0095
3 -7 8 -12.9319 -0.0062
3 -7 9 6.9668 0.0025
3 -7 10 -1.4188 -0.0016
3 -7 11 -1.0853 0.0012
3 -7 12 -0.7255 -0.0003
3 -7 13 5.2105 0.0008
3 -7 14 -8.6912 -0.0019
3 -7 15 8.8392 0.0011
3 -7 16 -5.7781 0.0014
3 -7 17 2.2601 -0.0021
3 -7 18 -0.9664 0.0007
3 -7 19 1.7327 0.0011
3 -7 20 -2.3559 -0.0022
3 -7 21 1.1380 0.0012
3 -7 22 0.7778 0.0030
3 -7 23 -1.3819 -0.0069
3 -6 0 1.5413 0.0063
3 -6 1 8.8237 -0.0165
3 -6 2 -13.3404 0.0188
3 -6 3 11.9250 -0.0154
3 -6 4 -6.3800 0.0091
3 -6 5 -0.5347 -0.0014
3 -6 6 7.5800 -0.0040
3 -6 7 -13.7219 0.0038
3 -6 8 17.0363 0.0004
3 -6 9 -16.8184 -0.0037
3 -6 10 12.1071 0.0043
3 -6 11 -3.4395 -0.0041
3 -6 12 -5.2594 0.0039
3 -6 13 9.9391 -0.0032
3 -6 14 -9.2037 0.0029
3 -6 15 5.5867 -0.0035
3 -6 16 -2.5747 0.0034
3 -6 17 1.8109 -0.0021
3 -6 18 -3.0829 0.0016
3 -6 19 4.5279 -0.0025
3 -6 20 -4.6195 0.0030
3 -6 21 3.2960 -0.0034
3 -6 22 -1.8854 0.0057
3 -6 23 1.4862 -0.0077
3 -5 0 -19.0428 0.0098
3 -5 1 6.3261 -0.0109
3 -5 2 11.5209 0.0098
3 -5 3 -25.0788 -0.0082
3 -5 4 30.2075 0.0065
3 -5 5 -29.3286 -0.0043
3 -5 6 26.4567 0.0028
3 -5 7 -23.4683 -0.0034
3 -5 8 18.7132 0.0045
3 -5 9 -11.4954 -0.0037
3 -5 10 3.6220 0.0016
3 -5 11 2.2570 -0.0012
3 -5 12 -2.8230 0.0028
3 -5 13 -1.8782 -0.0040
3 -5 14 7.7808 0.0036
3 -5 15 -10.4786 -0.0021
3 -5 16 8.6274 -0.0000
3 -5 17 -4.5773 0.0012
3 -5 18 0.7525 -0.0001
3 -5 19 1.6166 -0.0019
3 -5 20 -2.3068 0.0019
3 -5 21 1.9631 -0.0009
3 -5 22 -1.3702 0.0015
3 -5 23 1.0528 -0.0016
3 -5 24 -0.6485 -0.0028
3 -4 0 -5.7284 -0.0055
3 -4 1 -9.6674 0.0076
3 -4 2 14.0060 -0.0070
3 -4 3 -4.8821 0.0041
3 -4 4 -10.1776 0.0007
3 -4 5 19.9218 -0.0048
3 -4 6 -20.2982 0.0065
3 -4 7 15.5105 -0.0060
3 -4 8 -11.5050 0.0034
3 -4 9 10.2648 0.0011
3 -4 10 -8.5554 -0.0044
3 -4 11 3.8287 0.0037
3 -4 12 3.6086 -0.0008
3 -4 13 -10.4433 -0.0002
3 -4 14 12.2545 -0.0009
3 -4 15 -8.6303 0.0023
3 -4 16 3.1535 -0.0031
3 -4 17 0.0274 0.0031
3 -4 18 -0.0608 -0.0019
3 -4 19 -1.0547 0.0006
3 -4 20 1.8007 -0.0008
3 -4 21 -1.7434 0.0013
3 -4 22 1.2699 -0.0002
3 -4 23 -0.7453 -0.0001
3 -4 24 0.3999 -0.0034
3 -3 0 2.9352 -0.0090
3 -3 1 1.7825 0.0126
3 -3 2 -18.6162 -0.0142
3 -3 3 35.8471 0.0103
3 -3 4 -40.3350 -0.0024
3 -3 5 29.1484 -0.0024
3 -3 6 -10.9870 0.0018
3 -3 7 -1.1116 0.0011
3 -3 8 2.7560 -0.0043
3 -3 9 1.1628 0.0074
3 -3 10 -2.9999 -0.0085
3 -3 11 0.4016 0.0061
3 -3 12 2.7497 -0.0034
3 -3 13 -2.6873 0.0032
3 -3 14 -1.2295 -0.0039
3 -3 15 5.3498 0.0036
3 -3 16 -5.4460 -0.0035
3 -3 17 1.2382 0.0041
3 -3 18 3.8931 -0.0038
3 -3 19 -6.3621 0.0025
3 -3 20 6.1309 -0.0022
3 -3 21 -5.2496 0.0025
3 -3 22 4.9639 -0.0018
3 -3 23 -4.8920 0.0018
3 -3 24 4.1153 -0.0048
3 -3 25 -2.6989 0.0083
3 -2 0 8.7390 -0.0142
3 -2 1 -7.2282 0.0118
3 -2 2 0.4483 -0.0057
3 -2 3 -2.6290 -0.0047
3 -2 4 18.0290 0.0110
3 -2 5 -33.4532 -0.0076
3 -2 6 35.7385 0.0003
3 -2 7 -21.8801 0.0031
3 -2 8 1.9145 -0.0030
3 -2 9 10.9903 0.0028
3 -2 10 -12.6820 -0.0021
3 -2 11 8.3504 0.0003
3 -2 12 -6.0259 0.0000
3 -2 13 7.6196 0.0014
3 -2 14 -9.6231 -0.0017
3 -2 15 8.6038 0.0001
3 -2 16 -4.3004 0.0007
3 -2 17 0.1510 -0.0004
3 -2 18 0.8048 0.0010
3 -2 19 1.1709 -0.0015
3 -2 20 -2.7947 -0.0003
3 -2 21 1.5895 0.0027
3 -2 22 1.2315 -0.0026
3 -2 23 -2.9486 0.0012
3 -2 24 2.4240 -0.0017
3 -2 25 -0.9900 0.0035
3 -1 0 24.7134 -0.0065
3 -1 1 -21.7942 -0.0040
3 -1 2 19.7624 0.0140
3 -1 3 -23.9963 -0.0184
3 -1 4 28.7162 0.0125
3 -1 5 -20.1801 -0.0022
3 -1 6 -1.1514 -0.0013
3 -1 7 21.0997 -0.0032
3 -1 8 -27.4172 0.0077
3 -1 9 18.3907 -0.0079
3 -1 10 -4.2882 0.0064
3 -1 11 -3.9741 -0.0052
3 -1 12 3.1624 0.0033
3 -1 13 1.8123 -0.0019
3 -1 14 -4.4633 0.0031
3 -1 15 3.9215 -0.0052
3 -1 16 -3.0764 0.0052
3 -1 17 4.7221 -0.0037
3 -1 18 -8.4881 0.0030
3 -1 19 11.2405 -0.0021
3 -1 20 -10.5080 0.0003
3 -1 21 6.9977 0.0000
3 -1 22 -4.2243 0.0028
3 -1 23 4.1229 -0.0054
3 -1 24 -5.1437 0.0036
3 -1 25 4.7637 0.0008
3 0 0 17.6049 0.0164
3 0 1 -1.9587 -0.0191
3 0 2 -1.2372 0.0131
3 0 3 1.2585 -0.0009
3 0 4 -5.5100 -0.0099
3 0 5 14.3743 0.0111
3 0 6 -18.8380 -0.0030
3 0 7 8.8368 -0.0057
3 0 8 11.0646 0.0079
3 0 9 -28.2348 -0.0052
3 0 10 32.5818 0.0027
3 0 11 -24.1264 -0.0022
3 0 12 11.6272 0.0024
3 0 13 -3.4592 -0.0033
3 0 14 2.3174 0.0046
3 0 15 -4.0691 -0.0044
3 0 16 4.0168 0.0021
3 0 17 -1.6671 0.0001
3 0 18 -0.4255 -0.0005
3 0 19 -0.0641 -0.0004
3 0 20 2.1485 0.0015
3 0 21 -2.8104 -0.0031
3 0 22 0.2546 0.0041
3 0 23 3.5858 -0.0024
3 0 24 -5.0488 -0.0025
3 0 25 3.2521 0.0071
3 0 26 -0.6050 -0.0083
3 1 0 -16.8146 0.0281
3 1 1 20.8299 -0.0087
3 1 2 -15.0404 -0.0132
3 1 3 12.4289 0.0243
3 1 4 -12.7904 -0.0203
3 1 5 7.2367 0.0082
3 1 6 5.2983 0.0020
3 1 7 -20.1904 -0.0052
3 1 8 27.2503 0.0029
3 1 9 -21.0119 0.0010
3 1 10 6.6857 -0.0033
3 1 11 5.5521 0.0035
3 1 12 -7.7766 -0.0025
3 1 13 1.0631 0.0017
3 1 14 7.7325 -0.0012
3 1 15 -12.1899 0.0011
3 1 16 11.1400 -0.0012
3 1 17 -8.7889 0.0013
3 1 18 8.6798 -0.0009
3 1 19 -10.4137 -0.0001
3 1 20 10.7016 0.0006
3 1 21 -7.7946 0.0000
3 1 22 3.6401 -0.0012
3 1 23 -1.4937 0.0021
3 1 24 2.4130 -0.0026
3 1 25 -3.9743 0.0026
3 1 26 3.6456 -0.0014
3 2 0 -17.1184 0.0031
3 2 1 16.8653 0.0222
3 2 2 -20.9262 -0.0324
3 2 3 25.6546 0.0237
3 2 4 -25.5028 -0.0087
3 2 5 16.7812 0.0004
3 2 6 -8.9843 0.0001
3 2 7 10.1975 0.0011
3 2 8 -19.9712 -0.0016
3 2 9 31.5592 0.0022
3 2 10 -35.4014 -0.0024
3 2 11 27.9838 0.0017
3 2 12 -13.5847 -0.0016
3 2 13 1.5870 0.0033
3 2 14 1.6923 -0.0048
3 2 15 1.8756 0.0042
3 2 16 -6.2135 -0.0028
3 2 17 6.5410 0.0023
3 2 18 -3.5455 -0.0019
3 2 19 1.0037 0.0010
3 2 20 -1.0270 -0.0010
3 2 21 2.2049 0.0022
3 2 22 -1.7505 -0.0029
3 2 23 -0.5759 0.0014
3 2 24 2.6669 0.0006
3 2 25 -2.6668 -0.0014
3 2 26 1.0775 0.0020
3 3 0 24.8311 -0.0170
3 3 1 -7.1980 0.0215
3 3 2 -6.2891 -0.0102
3 3 3 3.8842 -0.0044
3 3 4 7.2958 0.0077
3 3 5 -16.5444 0.0000
3 3 6 14.4682 -0.0073
3 3 7 -1.8639 0.0075
3 3 8 -10.3500 -0.0041
3 3 9 13.7832 0.0012
3 3 10 -7.2107 0.0015
3 3 11 -2.2928 -0.0036
3 3 12 6.0833 0.0027
3 3 13 -0.9865 0.0005
3 3 14 -8.7318 -0.0018
3 3 15 14.7923 0.0002
3 3 16 -13.7012 0.0012
3 3 17 8.4755 -0.0008
3 3 18 -4.3415 0.0007
3 3 19 3.5546 -0.0013
3 3 20 -4.2391 0.0008
3 3 21 4.0240 0.0009
3 3 22 -2.4137 -0.0006
3 3 23 0.9581 -0.0026
3 3 24 -0.6936 0.0057
3 3 25 0.9415 -0.0064
3 3 26 -0.8164 0.0058
3 4 0 17.4214 -0.0078
3 4 1 -4.3450 -0.0054
3 4 2 12.5687 0.0197
3 4 3 -35.6912 -0.0227
3 4 4 50.8209 0.0124
3 4 5 -46.2396 0.0003
3 4 6 28.2025 -0.0049
3 4 7 -10.3710 0.0021
3 4 8 4.3646 0.0015
3 4 9 -9.9326 -0.0028
3 4 10 18.1803 0.0031
3 4 11 -19.5828 -0.0029
3 4 12 12.1599 0.0017
3 4 13 -2.6914 -0.0008
3 4 14 -1.6422 0.0018
3 4 15 -1.0789 -0.0033
3 4 16 6.1794 0.0028
3 4 17 -7.9512 -0.0007
3 4 18 5.2535 -0.0003
3 4 19 -0.9756 0.0001
3 4 20 -1.5064 -0.0001
3 4 21 1.8927 0.0001
3 4 22 -1.5959 0.0018
3 4 23 1.3883 -0.0045
3 4 24 -0.9391 0.0044
3 4 25 -0.1517 -0.0008
3 4 26 1.0518 -0.0029
3 5 0 -45.9893 0.0135
3 5 1 34.3309 -0.0198
3 5 2 -8.5038 0.0182
3 5 3 -10.1140 -0.0082
3 5 4 6.6408 -0.0027
3 5 5 12.7448 0.0066
3 5 6 -28.0534 -0.0024
3 5 7 27.2203 -0.0039
3 5 8 -12.4824 0.0059
3 5 9 -3.8450 -0.0033
3 5 10 11.1921 0.0001
3 5 11 -8.2238 0.0009
3 5 12 1.5965 -0.0004
3 5 13 0.5028 0.0001
3 5 14 2.7302 0.0001
3 5 15 -6.3139 -0.0006
3 5 16 5.9728 0.0005
3 5 17 -1.8594 0.0001
3 5 18 -2.3172 -0.0003
3 5 19 3.8378 -0.0001
3 5 20 -2.5927 0.0000
3 5 21 0.7695 0.0005
3 5 22 -0.1156 -0.0008
3 5 23 0.1341 0.0012
3 5 24 0.1229 -0.0030
3 5 25 -0.6921 0.0053
3 6 0 -41.8347 0.0103
3 6 1 18.3825 -0.0041
3 6 2 -2.2226 -0.0042
3 6 3 5.4679 0.0095
3 6 4 -21.5046 -0.0088
3 6 5 33.1107 0.0044
3 6 6 -27.9121 0.0002
3 6 7 10.1143 -0.0020
3 6 8 6.6486 0.0000
3 6 9 -11.7505 0.0033
3 6 10 5.5603 -0.0036
3 6 11 3.1373 0.0010
3 6 12 -6.9897 0.0004
3 6 13 4.5149 0.0013
3 6 14 -0.3081 -0.0029
3 6 15 -1.1277 0.0022
3 6 16 0.2414 -0.0010
3 6 17 0.0978 0.0010
3 6 18 1.8604 -0.0010
3 6 19 -4.8056 0.0005
3 6 20 6.6006 -0.0007
3 6 21 -6.1282 0.0020
3 6 22 3.7764 -0.0027
3 6 23 -1.5226 0.0021
3 6 24 0.5154 -0.0017
3 6 25 -0.3115 0.0012
3 7 0 19.5977 -0.0048
3 7 1 -32.7075 0.0090
3 7 2 29.2979 -0.0076
3 7 3 -14.2242 0.0011
3 7 4 1.6075 0.0039
3 7 5 -0.5275 -0.0031
3 7 6 8.1428 -0.0009
3 7 7 -13.5799 0.0046
3 7 8 9.9542 -0.0072
3 7 9 0.7123 0.0078
3 7 10 -10.6700 -0.0050
3 7 11 12.9994 0.0010
3 7 12 -8.3528 -0.0000
3 7 13 1.9229 0.0021
3 7 14 1.9809 -0.0031
3 7 15 -2.8296 0.0021
3 7 16 3.2511 -0.0015
3 7 17 -4.4898 0.0018
3 7 18 5.5670 -0.0012
3 7 19 -4.8684 -0.0001
3 7 20 2.5012 0.0002
3 7 21 -0.2812 0.0006
3 7 22 -0.7662 -0.0011
3 7 23 0.5182 0.0019
3 7 24 0.2822 -0.0041
3 7 25 -0.7119 0.0059
3 8 0 26.8160 -0.0169
3 8 1 -23.4894 0.0119
3 8 2 11.9237 -0.0001
3 8 3 -1.0768 -0.0108
3 8 4 -3.1501 0.0129
3 8 5 2.3021 -0.0076
3 8 6 -1.6704 0.0021
3 8 7 4.9617 0.0013
3 8 8 -9.9017 -0.0044
3 8 9 11.7081 0.0061
3 8 10 -8.7797 -0.0037
3 8 11 2.8073 -0.0004
3 8 12 1.6740 0.0014
3 8 13 -1.5351 0.0003
3 8 14 -1.9791 -0.0010
3 8 15 5.7290 0.0002
3 8 16 -7.6793 0.0001
3 8 17 8.8513 0.0003
3 8 18 -10.5505 -0.0002
3 8 19 12.0009 -0.0005
3 8 20 -11.4179 0.0010
3 8 21 8.1522 -0.0011
3 8 22 -4.3353 0.0006
3 8 23 2.1246 0.0011
3 8 24 -1.4567 -0.0025
3 9 0 -1.6942 -0.0182
3 9 1 4.7701 0.0034
3 9 2 -7.7384 0.0093
3 9 3 7.6190 -0.0136
3 9 4 -4.9947 0.0093
3 9 5 2.0821 -0.0032
3 9 6 1.1363 0.0006
3 9 7 -5.1510 0.0002
3 9 8 9.9423 -0.0011
3 9 9 -14.2696 0.0003
3 9 10 15.0421 0.0030
3 9 11 -11.2012 -0.0047
3 9 12 4.3789 0.0024
3 9 13 2.4177 0.0001
3 9 14 -6.0655 0.0009
3 9 15 6.0858 -0.0033
3 9 16 -4.4931 0.0035
3 9 17 3.8701 -0.0016
3 9 18 -4.2145 0.0001
3 9 19 3.1385 0.0003
3 9 20 -0.1309 -0.0005
3 9 21 -2.5669 0.0011
3 9 22 2.4089 -0.0016
3 9 23 0.0090 0.0014
3 9 24 -1.6160 0.0001
3 10 0 -2.0799 0.0135
3 10 1 -0.2827 -0.0184
3 10 2 1.1560 0.0148
3 10 3 -0.9349 -0.0066
3 10 4 1.1527 -0.0007
3 10 5 -3.2029 0.0028
3 10 6 8.0560 -0.0001
3 10 7 -13.3865 -0.0029
3 10 8 14.8962 0.0039
3 10 9 -11.0483 -0.0037
3 10 10 3.6180 0.0024
3 10 11 2.7618 0.0001
3 10 12 -3.8020 -0.0021
3 10 13 -0.7820 0.0009
3 10 14 7.8132 0.0024
3 10 15 -12.8632 -0.0036
3 10 16 13.7367 0.0019
3 10 17 -11.4344 -0.0003
3 10 18 8.7688 0.0004
3 10 19 -7.8671 -0.0008
3 10 20 7.3802 0.0005
3 10 21 -4.9027 -0.0006
3 10 22 0.6882 0.0018
3 10 23 2.3711 -0.0031
3 11 0 2.9091 0.0032
3 11 1 -0.1822 0.0037
3 11 2 -6.1365 -0.0098
3 11 3 12.7679 0.0113
3 11 4 -14.9343 -0.0084
3 11 5 11.7156 0.0026
3 11 6 -6.4695 0.0031
3 11 7 4.1746 -0.0054
3 11 8 -7.3684 0.0038
3 11 9 12.8753 -0.0011
3 11 10 -15.0414 0.0000
3 11 11 10.4555 -0.0004
3 11 12 -0.7194 0.0010
3 11 13 -8.1626 -0.0009
3 11 14 10.9570 -0.0001
3 11 15 -7.0200 0.0017
3 11 16 0.4603 -0.0021
3 11 17 3.9348 0.0010
3 11 18 -4.7172 -0.0003
3 11 19 3.3106 0.0013
3 11 20 -2.3174 -0.0025
3 11 21 2.8194 0.0022
3 11 22 -3.4623 -0.0013
3 11 23 2.7340 0.0020
3 12 0 6.8020 -0.0038
3 12 1 0.2933 0.0077
3 12 2 -7.8527 -0.0075
3 12 3 10.5734 0.0044
3 12 4 -6.1725 -0.0009
3 12 5 -1.2660 -0.0026
3 12 6 5.1039 0.0043
3 12 7 -2.3985 -0.0023
3 12 8 -4.2486 -0.0015
3 12 9 8.9440 0.0026
3 12 10 -7.8083 -0.0005
3 12 11 2.2104 -0.0008
3 12 12 2.3824 -0.0005
3 12 13 -0.8605 0.0016
3 12 14 -6.1698 -0.0009
3 12 15 13.0888 -0.0005
3 12 16 -14.6895 0.0011
3 12 17 10.6040 -0.0008
3 12 18 -4.9156 -0.0000
3 12 19 1.0822 0.0004
3 12 20 0.3047 0.0010
3 12 21 -0.3716 -0.0033
3 12 22 0.3478 0.0040
3 13 0 5.9896 -0.0061
3 13 1 -1.5568 0.0077
3 13 2 0.7902 -0.0053
3 13 3 -5.9565 0.0014
3 13 4 13.7577 0.0025
3 13 5 -17.7895 -0.0059
3 13 6 14.5119 0.0061
3 13 7 -6.3491 -0.0024
3 13 8 -0.9669 -0.0007
3 13 9 2.9586 -0.0001
3 13 10 0.0987 0.0017
3 13 11 -3.7831 -0.0004
3 13 12 3.5598 -0.0011
3 13 13 1.2032 -0.0001
3 13 14 -5.8638 0.0016
3 13 15 5.4813 0.0001
3 13 16 -0.4326 -0.0029
3 13 17 -4.6441 0.0032
3 13 18 5.9347 -0.0014
3 13 19 -4.0851 -0.0004
3 13 20 1.9723 0.0020
3 13 21 -0.9573 -0.0033
3 14 0 -5.3726 -0.0090
3 14 1 5.6966 0.0032
3 14 2 -1.8252 0.0019
3 14 3 -4.1902 -0.0034
3 14 4 7.6577 0.0034
3 14 5 -5.4208 -0.0035
3 14 6 -0.8459 0.0021
3 14 7 6.1517 -0.0003
3 14 8 -6.5601 0.0011
3 14 9 1.7894 -0.0036
3 14 10 4.4975 0.0033
3 14 11 -7.6698 -0.0003
3 14 12 6.2813 -0.0007
3 14 13 -2.8040 -0.0008
3 14 14 1.2295 0.0009
3 14 15 -2.7523 0.0002
3 14 16 4.3766 0.0012
3 14 17 -3.2184 -0.0041
3 14 18 -0.0314 0.0036
3 14 19 2.2967 0.0005
3 14 20 -2.0983 -0.0034
3 15 0 -8.3134 0.0074
3 15 1 7.2409 -0.0102
3 15 2 -3.5848 0.0052
3 15 3 0.5560 0.0023
3 15 4 -0.5834 -0.0053
3 15 5 3.3353 0.0035
3 15 6 -5.7102 -0.0014
3 15 7 4.6470 -0.0001
3 15 8 -0.1953 0.0022
3 15 9 -5.0043 -0.0033
3 15 10 7.7615 0.0013
3 15 11 -6.5435 0.0012
3 15 12 2.8931 -0.0010
3 15 13 0.3160 -0.0005
3 15 14 -1.3157 0.0009
3 15 15 0.5783 -0.0014
3 15 16 -0.0355 0.0026
3 15 17 0.4837 -0.0014
3 15 18 -0.9775 -0.0032
3 16 0 -0.4346 0.0103
3 16 1 -0.7269 -0.0033
3 16 2 2.1935 -0.0057
3 16 3 -1.6776 0.0091
3 16 4 -0.7466 -0.0056
3 16 5 3.1589 0.0012
3 16 6 -3.8062 -0.0006
3 16 7 2.5119 0.0017
3 16 8 -0.9014 -0.0012
3 16 9 0.4977 0.0002
3 16 10 -1.5421 -0.0005
3 16 11 3.4551 0.0009
3 16 12 -5.0595 -0.0003
3 16 13 5.2037 -0.0000
3 16 14 -3.4649 -0.0008
3 16 15 0.6072 0.0017
3 16 16 1.6361 -0.0025
3 16 17 -2.2448 0.0041
3 17 0 1.3416 -0.0030
3 17 1 -2.1204 0.0083
3 17 2 1.7876 -0.0105
3 17 3 -0.0206 0.0082
3 17 4 -1.9699 -0.0043
3 17 5 3.0210 0.0026
3 17 6 -3.3647 -0.0027
3 17 7 3.6769 0.0015
3 17 8 -4.0934 0.0015
3 17 9 4.1967 -0.0032
3 17 10 -3.9093 0.0019
3 17 11 3.7547 0.0005
3 17 12 -3.6855 -0.0019
3 17 13 2.9061 0.0021
3 17 14 -1.0473 -0.0015
3 17 15 -0.8909 0.0001
3 18 0 2.0295 0.0032
3 18 1 -2.1391 -0.0024
3 18 2 2.1768 0.0005
3 18 3 -2.0753 0.0016
3 18 4 2.0567 -0.0027
3 18 5 -2.0906 0.0024
3 18 6 1.9774 -0.0015
3 18 7 -2.0955 0.0007
3 18 8 2.9005 -0.0004
3 18 9 -4.0043 0.0012
3 18 10 4.2239 -0.0028
3 18 11 -2.9996 0.0033
3 18 12 1.4057 -0.0017
3 19 0 0.6720 0.0087
3 19 1 -1.5956 -0.0060
3 19 2 2.3553 0.0016
3 19 3 -2.2335 0.0011
3 19 4 1.6085 -0.0001
3 19 5 -1.0633 -0.0019
3 19 6 0.9933 0.0010
3 19 7 -1.6289 0.0023
3 19 8 2.4454 -0.0044
3 19 9 -2.5801 0.0042
4 -16 0 -7.1424 -0.0014
4 -16 1 6.5758 -0.0032
4 -16 2 -5.0671 0.0061
4 -16 3 3.1122 -0.0059
4 -16 4 -1.5400 0.0037
4 -16 5 0.7426 -0.0014
4 -16 6 -0.4020 -0.0017
4 -15 0 -2.2811 -0.0048
4 -15 1 -0.4863 -0.0009
4 -15 2 2.0093 0.0050
4 -15 3 -1.8205 -0.0042
4 -15 4 0.5255 0.0009
4 -15 5 0.8797 0.0006
4 -15 6 -1.5526 -0.0008
4 -15 7 1.6629 0.0013
4 -15 8 -1.7298 0.0001
4 -15 9 1.7536 -0.0057
4 -15 10 -1.3905 0.0105
4 -14 0 8.9899 0.0037
4 -14 1 -8.3025 -0.0067
4 -14 2 5.0246 0.0049
4 -14 3 -0.7695 0.0007
4 -14 4 -2.1609 -0.0037
4 -14 5 3.2246 0.0011
4 -14 6 -3.2318 0.0028
4 -14 7 3.1180 -0.0041
4 -14 8 -3.2245 0.0049
4 -14 9 2.8881 -0.0066
4 -14 10 -1.8866 0.0051
4 -14 11 0.8723 0.0012
4 -14 12 -0.6524 -0.0065
4 -14 13 1.3976 0.0059
4 -13 0 1.2458 -0.0006
4 -13 1 1.8296 0.0057
4 -13 2 -4.5048 -0.0106
4 -13 3 5.0648 0.0125
4 -13 4 -2.9471 -0.0085
4 -13 5 -0.0152 0.0014
4 -13 6 1.5464 0.0022
4 -13 7 -1.5494 -0.0003
4 -13 8 0.8992 -0.0026
4 -13 9 -0.3541 0.0037
4 -13 10 -0.1397 -0.0050
4 -13 11 1.3733 0.0068
4 -13 12 -3.1964 -0.0058
4 -13 13 4.5802 0.0017
4 -13 14 -4.5026 0.0009
4 -13 15 2.9910 -0.0001
4 -12 0 1.0655 -0.0142
4 -12 1 -1.0813 0.0150
4 -12 2 2.4473 -0.0126
4 -12 3 -5.4997 0.0080
4 -12 4 8.7165 -0.0016
4 -12 5 -10.1763 -0.0035
4 -12 6 9.1333 0.0037
4 -12 7 -7.2042 -0.0002
4 -12 8 5.9038 -0.0018
4 -12 9 -5.0101 0.0008
4 -12 10 3.9707 -0.0003
4 -12 11 -2.4397 0.0024
4 -12 12 1.0955 -0.0047
4 -12 13 -1.0847 0.0057
4 -12 14 2.2101 -0.0062
4 -12 15 -3.2560 0.0062
4 -12 16 3.1062 -0.0048
4 -11 0 0.6114 -0.0093
4 -11 1 1.1428 0.0038
4 -11 2 -1.1227 0.0008
4 -11 3 -0.1266 -0.0032
4 -11 4 0.5368 0.0045
4 -11 5 0.4311 -0.0047
4 -11 6 -1.6330 0.0024
4 -11 7 1.6037 0.0004
4 -11 8 -0.0284 -0.0001
4 -11 9 -1.6320 -0.0025
4 -11 10 2.4556 0.0023
4 -11 11 -2.8873 0.0014
4 -11 12 3.7876 -0.0043
4 -11 13 -5.7203 0.0039
4 -11 14 7.4821 -0.0022
4 -11 15 -7.3713 0.0017
4 -11 16 5.4288 -0.0028
4 -11 17 -3.0679 0.0051
4 -11 18 1.5370 -0.0064
4 -10 0 -10.2600 0.0052
4 -10 1 12.3481 -0.0096
4 -10 2 -11.2930 0.0085
4 -10 3 9.5930 -0.0039
4 -10 4 -9.0731 0.0005
4 -10 5 9.1264 0.0005
4 -10 6 -8.0691 -0.0009
4 -10 7 5.8341 0.0003
4 -10 8 -3.7008 0.0027
4 -10 9 2.9380 -0.0054
4 -10 10 -3.4322 0.0039
4 -10 11 3.4263 -0.0006
4 -10 12 -1.9860 0.0005
4 -10 13 -0.0147 -0.0037
4 -10 14 0.5946 0.0058
4 -10 15 1.2423 -0.0048
4 -10 16 -3.4811 0.0026
4 -10 17 3.6769 -0.0014
4 -10 18 -1.7897 0.0027
4 -10 19 -0.3526 -0.0052
4 -9 0 -1.0420 0.0180
4 -9 1 -2.2818 -0.0135
4 -9 2 6.1845 0.0030
4 -9 3 -7.5303 0.0064
4 -9 4 6.5899 -0.0090
4 -9 5 -5.1747 0.0062
4 -9 6 4.0801 -0.0023
4 -9 7 -2.3767 -0.0015
4 -9 8 -0.9508 0.0051
4 -9 9 4.7912 -0.0054
4 -9 10 -7.0735 0.0016
4 -9 11 6.5803 0.0018
4 -9 12 -4.4833 -0.0012
4 -9 13 3.6360 -0.0007
4 -9 14 -5.1119 0.0007
4 -9 15 7.0988 0.0002
4 -9 16 -6.4429 0.0002
4 -9 17 2.4525 -0.0018
4 -9 18 1.6927 0.0032
4 -9 19 -3.0356 -0.0028
4 -9 20 1.7955 -0.0003
4 -8 0 8.4661 0.0161
4 -8 1 -11.7153 -0.0023
4 -8 2 12.8142 -0.0111
4 -8 3 -10.8901 0.0167
4 -8 4 7.9098 -0.0136
4 -8 5 -5.5412 0.0078
4 -8 6 2.9538 -0.0036
4 -8 7 0.2246 0.0007
4 -8 8 -2.8953 0.0012
4 -8 9 3.0714 -0.0005
4 -8 10 -0.3082 -0.0018
4 -8 11 -2.9191 0.0024
4 -8 12 3.8449 -0.0017
4 -8 13 -1.7116 0.0025
4 -8 14 -1.1337 -0.0047
4 -8 15 1.6286 0.0053
4 -8 16 0.4787 -0.0038
4 -8 17 -2.6217 0.0023
4 -8 18 1.8482 -0.0014
4 -8 19 1.4498 0.0015
4 -8 20 -3.9622 -0.0035
4 -8 21 3.6851 0.0056
4 -7 0 -3.4486 0.0043
4 -7 1 3.0009 0.0108
4 -7 2 -2.8123 -0.0155
4 -7 3 2.7920 0.0106
4 -7 4 -2.8282 -0.0037
4 -7 5 2.2104 0.0014
4 -7 6 -1.3592 -0.0033
4 -7 7 -0.5303 0.0054
4 -7 8 4.6844 -0.0056
4 -7 9 -9.8274 0.0046
4 -7 10 13.1566 -0.0028
4 -7 11 -12.1997 0.0008
4 -7 12 7.7846 -0.0006
4 -7 13 -3.4350 0.0027
4 -7 14 1.6276 -0.0045
4 -7 15 -2.1077 0.0041
4 -7 16 2.3392 -0.0025
4 -7 17 -0.7574 0.0011
4 -7 18 -1.8329 0.0004
4 -7 19 3.4832 -0.0011
4 -7 20 -2.8459 -0.0010
4 -7 21 0.9352 0.0033
4 -7 22 0.2797 -0.0013
4 -6 0 -5.1014 -0.0219
4 -6 1 4.5210 0.0175
4 -6 2 -2.2745 -0.0032
4 -6 3 0.5490 -0.0089
4 -6 4 -0.9168 0.0113
4 -6 5 1.1911 -0.0055
4 -6 6 0.6285 -0.0015
4 -6 7 -4.2834 0.0044
4 -6 8 8.4119 -0.0030
4 -6 9 -9.9271 0.0002
4 -6 10 7.4008 0.0019
4 -6 11 -2.8395 -0.0028
4 -6 12 -0.2963 0.0024
4 -6 13 -0.2440 -0.0015
4 -6 14 2.9126 0.0016
4 -6 15 -4.9067 -0.0025
4 -6 16 5.2714 0.0029
4 -6 17 -5.0524 -0.0027
4 -6 18 5.4698 0.0026
4 -6 19 -5.9826 -0.0016
4 -6 20 5.7453 -0.0009
4 -6 21 -4.6115 0.0014
4 -6 22 2.9918 0.0031
4 -6 23 -1.5916 -0.0080
4 -5 0 -6.9370 -0.0074
4 -5 1 4.6323 -0.0116
4 -5 2 -3.4870 0.0228
4 -5 3 6.2641 -0.0203
4 -5 4 -10.9875 0.0103
4 -5 5 12.8643 -0.0016
4 -5 6 -10.2036 -0.0013
4 -5 7 6.9086 -0.0008
4 -5 8 -6.3184 0.0041
4 -5 9 8.9119 -0.0053
4 -5 10 -12.6336 0.0046
4 -5 11 13.6660 -0.0038
4 -5 12 -10.6551 0.0035
4 -5 13 5.4737 -0.0035
4 -5 14 -1.4856 0.0040
4 -5 15 0.2396 -0.0044
4 -5 16 0.0181 0.0038
4 -5 17 -0.9180 -0.0028
4 -5 18 2.1125 0.0026
4 -5 19 -2.1564 -0.0026
4 -5 20 1.0182 0.0023
4 -5 21 -0.2149 -0.0037
4 -5 22 0.2886 0.0079
4 -5 23 -0.6200 -0.0101
4 -4 0 -3.2688 0.0262
4 -4 1 -3.5194 -0.0299
4 -4 2 2.7493 0.0195
4 -4 3 3.3031 -0.0052
4 -4 4 -7.2086 -0.0028
4 -4 5 5.3279 0.0036
4 -4 6 -0.7644 -0.0012
4 -4 7 -0.1627 -0.0021
4 -4 8 -4.2378 0.0043
4 -4 9 9.6343 -0.0042
4 -4 10 -11.9501 0.0029
4 -4 11 9.6684 -0.0026
4 -4 12 -5.0568 0.0027
4 -4 13 2.2646 -0.0023
4 -4 14 -2.9830 0.0020
4 -4 15 5.5701 -0.0017
4 -4 16 -6.7521 0.0007
4 -4 17 5.8031 -0.0001
4 -4 18 -4.7583 0.0011
4 -4 19 4.9049 -0.0017
4 -4 20 -5.2359 0.0002
4 -4 21 3.8957 0.0010
4 -4 22 -1.2315 0.0004
4 -4 23 -0.8746 -0.0010
4 -4 24 1.4224 -0.0032
4 -3 0 28.6694 0.0163
4 -3 1 -30.1660 -0.0045
4 -3 2 22.0054 -0.0071
4 -3 3 -14.5472 0.0092
4 -3 4 14.7709 -0.0051
4 -3 5 -19.8713 0.0031
4 -3 6 21.6649 -0.0041
4 -3 7 -16.5572 0.0044
4 -3 8 8.5257 -0.0043
4 -3 9 -4.7667 0.0056
4 -3 10 6.8606 -0.0062
4 -3 11 -10.4574 0.0041
4 -3 12 10.9415 -0.0018
4 -3 13 -6.6791 0.0015
4 -3 14 0.7377 -0.0024
4 -3 15 2.7507 0.0033
4 -3 16 -2.6146 -0.0042
4 -3 17 1.3583 0.0038
4 -3 18 -2.1006 -0.0018
4 -3 19 4.2957 0.0009
4 -3 20 -5.0470 -0.0025
4 -3 21 2.9097 0.0031
4 -3 22 0.1703 -0.0006
4 -3 23 -1.3233 -0.0004
4 -3 24 0.3160 -0.0037
4 -2 0 8.6065 -0.0090
4 -2 1 7.4450 0.0188
4 -2 2 -18.1479 -0.0162
4 -2 3 14.9174 0.0050
4 -2 4 -3.4575 0.0022
4 -2 5 -5.4026 -0.0015
4 -2 6 5.3972 -0.0009
4 -2 7 -0.8342 0.0019
4 -2 8 -0.1682 -0.0045
4 -2 9 -5.0580 0.0085
4 -2 10 11.3731 -0.0084
4 -2 11 -11.8022 0.0041
4 -2 12 6.2911 -0.0012
4 -2 13 -0.0584 0.0021
4 -2 14 -2.0816 -0.0038
4 -2 15 -0.2654 0.0042
4 -2 16 3.1786 -0.0042
4 -2 17 -3.1854 0.0034
4 -2 18 0.2592 -0.0014
4 -2 19 2.2615 0.0006
4 -2 20 -1.8646 -0.0017
4 -2 21 -0.1422 0.0020
4 -2 22 0.6911 -0.0007
4 -2 23 1.3322 0.0021
4 -2 24 -3.6084 -0.0074
4 -2 25 3.7186 0.0112
4 -1 0 -36.6127 -0.0281
4 -1 1 41.6398 0.0233
4 -1 2 -30.3948 -0.0079
4 -1 3 10.5983 -0.0062
4 -1 4 1.3044 0.0105
4 -1 5 0.1112 -0.0084
4 -1 6 -7.5635 0.0063
4 -1 7 10.8988 -0.0037
4 -1 8 -6.6193 -0.0010
4 -1 9 0.5368 0.0034
4 -1 10 0.7078 -0.0001
4 -1 11 3.6261 -0.0043
4 -1 12 -7.4113 0.0043
4 -1 13 5.2308 -0.0018
4 -1 14 1.3436 0.0015
4 -1 15 -7.1004 -0.0027
4 -1 16 8.3688 0.0027
4 -1 17 -6.1411 -0.0021
4 -1 18 3.9576 0.0023
4 -1 19 -4.2076 -0.0017
4 -1 20 6.1858 -0.0003
4 -1 21 -6.8241 0.0011
4 -1 22 4.5980 -0.0004
4 -1 23 -1.0838 0.0013
4 -1 24 -0.9065 -0.0049
4 -1 25 0.6491 0.0076
4 0 0 7.1532 -0.0125
4 0 1 -22.4549 -0.0021
4 0 2 34.1366 0.0145
4 0 3 -32.1040 -0.0176
4 0 4 14.8743 0.0122
4 0 5 5.6089 -0.0054
4 0 6 -15.2335 0.0016
4 0 7 12.7757 -0.0001
4 0 8 -6.2478 0.0003
4 0 9 3.8437 -0.0026
4 0 10 -6.0486 0.0050
4 0 11 7.5314 -0.0042
4 0 12 -4.1238 0.0011
4 0 13 -3.0776 -0.0004
4 0 14 8.0924 0.0034
4 0 15 -7.3300 -0.0062
4 0 16 2.8038 0.0059
4 0 17 0.7940 -0.0044
4 0 18 -0.5231 0.0034
4 0 19 -2.6293 -0.0020
4 0 20 5.7048 0.0004
4 0 21 -6.1760 -0.0008
4 0 22 4.3057 0.0035
4 0 23 -2.4295 -0.0047
4 0 24 2.0118 0.0021
4 0 25 -2.3944 0.0017
4 1 0 30.8755 0.0105
4 1 1 -29.4431 -0.0134
4 1 2 11.4351 0.0104
4 1 3 13.6817 -0.0033
4 1 4 -29.8446 -0.0041
4 1 5 29.0686 0.0067
4 1 6 -14.4523 -0.0029
4 1 7 -0.5644 -0.0037
4 1 8 5.9890 0.0078
4 1 9 -2.4451 -0.0070
4 1 10 -2.9614 0.0030
4 1 11 4.4216 0.0011
4 1 12 -2.8116 -0.0025
4 1 13 2.2320 0.0006
4 1 14 -5.8594 0.0021
4 1 15 12.2761 -0.0025
4 1 16 -16.4296 0.0006
4 1 17 15.2272 0.0012
4 1 18 -10.0066 -0.0016
4 1 19 5.0900 0.0014
4 1 20 -3.4139 -0.0010
4 1 21 4.6091 -0.0005
4 1 22 -6.0095 0.0025
4 1 23 5.2040 -0.0017
4 1 24 -2.5144 -0.0031
4 1 25 -0.0804 0.0079
4 1 26 1.1742 -0.0081
4 2 0 -1.6841 0.0116
4 2 1 16.5537 -0.0007
4 2 2 -29.6500 -0.0077
4 2 3 27.1528 0.0125
4 2 4 -5.4678 -0.0133
4 2 5 -20.7865 0.0085
4 2 6 35.9634 0.0002
4 2 7 -33.7575 -0.0062
4 2 8 19.4410 0.0047
4 2 9 -4.6407 0.0011
4 2 10 -3.0805 -0.0043
4 2 11 3.7408 0.0030
4 2 12 -3.2195 -0.0008
4 2 13 5.6016 0.0004
4 2 14 -9.6513 -0.0015
4 2 15 11.4447 0.0033
4 2 16 -8.1381 -0.0049
4 2 17 1.7678 0.0053
4 2 18 2.6827 -0.0039
4 2 19 -1.8733 0.0021
4 2 20 -2.7975 -0.0011
4 2 21 6.9050 0.0008
4 2 22 -7.5993 -0.0015
4 2 23 5.1698 0.0041
4 2 24 -2.0837 -0.0078
4 2 25 0.2674 0.0082
4 2 26 0.1104 -0.0031
4 3 0 3.4711 -0.0092
4 3 1 4.3300 0.0182
4 3 2 4.8707 -0.0182
4 3 3 -26.4665 0.0137
4 3 4 45.5757 -0.0072
4 3 5 -46.3710 -0.0008
4 3 6 28.0752 0.0064
4 3 7 -4.3565 -0.0048
4 3 8 -10.5982 -0.0022
4 3 9 10.5343 0.0066
4 3 10 -0.1762 -0.0050
4 3 11 -11.0630 0.0017
4 3 12 16.1559 -0.0014
4 3 13 -15.2881 0.0029
4 3 14 14.0810 -0.0028
4 3 15 -15.6605 0.0015
4 3 16 18.3684 -0.0010
4 3 17 -18.1106 0.0013
4 3 18 13.0789 -0.0007
4 3 19 -5.7821 -0.0002
4 3 20 0.4913 0.0003
4 3 21 0.4041 0.0002
4 3 22 1.3848 -0.0006
4 3 23 -2.8561 0.0005
4 3 24 2.7331 0.0004
4 3 25 -1.5740 -0.0028
4 3 26 0.3840 0.0053
4 4 0 -15.7681 -0.0254
4 4 1 21.3999 0.0194
4 4 2 -10.9022 -0.0093
4 4 3 2.3216 0.0012
4 4 4 -8.6094 0.0040
4 4 5 27.1908 -0.0064
4 4 6 -43.9568 0.0048
4 4 7 45.1452 -0.0002
4 4 8 -29.6655 -0.0027
4 4 9 7.2617 0.0010
4 4 10 9.1955 0.0018
4 4 11 -13.5374 -0.0013
4 4 12 9.1163 -0.0018
4 4 13 -3.3417 0.0031
4 4 14 1.5151 -0.0012
4 4 15 -2.2831 -0.0009
4 4 16 1.6694 0.0013
4 4 17 1.3379 -0.0010
4 4 18 -4.1695 0.0016
4 4 19 3.7661 -0.0021
4 4 20 -0.2948 0.0012
4 4 21 -3.5995 -0.0003
4 4 22 5.1344 0.0012
4 4 23 -3.9156 -0.0039
4 4 24 1.9274 0.0062
4 4 25 -0.6099 -0.0063
4 4 26 -0.0386 0.0043
4 5 0 -37.0377 -0.0010
4 5 1 29.5161 -0.0106
4 5 2 -16.1322 0.0146
4 5 3 13.0984 -0.0113
4 5 4 -21.2664 0.0049
4 5 5 27.7880 0.0016
4 5 6 -22.6085 -0.0057
4 5 7 7.0261 0.0048
4 5 8 7.8128 0.0004
4 5 9 -11.8288 -0.0054
4 5 10 3.0613 0.0063
4 5 11 11.4211 -0.0038
4 5 12 -21.2908 0.0010
4 5 13 22.5865 -0.0001
4 5 14 -18.2624 0.0007
4 5 15 13.6082 -0.0014
4 5 16 -10.9213 0.0015
4 5 17 8.5332 -0.0015
4 5 18 -4.8813 0.0019
4 5 19 0.5663 -0.0017
4 5 20 1.9014 0.0008
4 5 21 -1.2254 -0.0005
4 5 22 -1.2276 0.0020
4 5 23 3.1244 -0.0040
4 5 24 -3.0394 0.0042
4 5 25 1.8082 -0.0023
4 6 0 5.2686 0.0222
4 6 1 -26.8558 -0.0230
4 6 2 38.5725 0.0152
4 6 3 -36.2845 -0.0051
4 6 4 28.3482 -0.0031
4 6 5 -24.9627 0.0077
4 6 6 26.5685 -0.0072
4 6 7 -26.2105 0.0024
4 6 8 17.8711 0.0022
4 6 9 -3.6986 -0.0030
4 6 10 -8.5085 0.0013
4 6 11 12.5479 -0.0003
4 6 12 -7.4466 0.0004
4 6 13 -0.9777 -0.0008
4 6 14 6.2287 0.0012
4 6 15 -6.8267 -0.0012
4 6 16 5.2267 0.0002
4 6 17 -4.0419 0.0010
4 6 18 3.0441 -0.0011
4 6 19 -1.1586 0.0003
4 6 20 -1.7420 0.0001
4 6 21 4.3905 0.0002
4 6 22 -4.8023 -0.0007
4 6 23 2.7673 0.0018
4 6 24 0.0835 -0.0036
4 6 25 -1.7471 0.0046
4 7 0 18.1248 0.0179
4 7 1 -26.5770 -0.0093
4 7 2 22.5729 0.0003
4 7 3 -12.4461 0.0043
4 7 4 4.4020 -0.0049
4 7 5 -1.0534 0.0031
4 7 6 -0.9423 0.0007
4 7 7 3.8429 -0.0038
4 7 8 -6.3172 0.0027
4 7 9 4.6638 0.0012
4 7 10 2.7827 -0.0033
4 7 11 -11.9517 0.0020
4 7 12 17.4168 -0.0002
4 7 13 -16.0447 -0.0005
4 7 14 9.1625 0.0006
4 7 15 -1.7871 -0.0003
4 7 16 -2.5241 -0.0006
4 7 17 3.8356 0.0012
4 7 18 -4.5895 -0.0006
4 7 19 5.7454 0.0000
4 7 20 -6.0551 -0.0008
4 7 21 4.7003 0.0021
4 7 22 -2.0054 -0.0026
4 7 23 -0.4475 0.0018
4 7 24 1.3458 -0.0001
4 7 25 -0.8568 -0.0023
4 8 0 -10.8783 -0.0036
4 8 1 15.5353 0.0109
4 8 2 -21.3448 -0.0133
4 8 3 24.4195 0.0104
4 8 4 -23.6698 -0.0058
4 8 5 20.2918 0.0018
4 8 6 -15.7736 0.0009
4 8 7 9.1004 -0.0010
4 8 8 -0.1220 -0.0015
4 8 9 -8.2796 0.0032
4 8 10 12.6459 -0.0014
4 8 11 -10.2156 -0.0014
4 8 12 2.3628 0.0015
4 8 13 5.7841 0.0004
4 8 14 -9.5715 -0.0015
4 8 15 7.4325 0.0011
4 8 16 -2.2226 -0.0004
4 8 17 -1.8364 -0.0001
4 8 18 2.6627 0.0001
4 8 19 -1.6910 0.0008
4 8 20 1.7088 -0.0025
4 8 21 -2.6850 0.0037
4 8 22 2.8302 -0.0030
4 8 23 -1.4566 0.0006
4 8 24 -0.2731 0.0025
4 9 0 -3.1612 -0.0067
4 9 1 2.4809 0.0073
4 9 2 -1.1711 -0.0031
4 9 3 1.0882 -0.0028
4 9 4 -2.6043 0.0055
4 9 5 3.1201 -0.0040
4 9 6 -0.9402 0.0004
4 9 7 -3.5260 0.0030
4 9 8 7.1008 -0.0042
4 9 9 -5.5218 0.0021
4 9 10 -1.0116 0.0016
4 9 11 8.2683 -0.0030
4 9 12 -11.1338 0.0012
4 9 13 6.9229 0.0008
4 9 14 1.9954 -0.0007
4 9 15 -10.4182 -0.0005
4 9 16 13.7253 0.0010
4 9 17 -11.4357 -0.0012
4 9 18 7.1655 0.0016
4 9 19 -4.7349 -0.0015
4 9 20 5.1165 0.0005
4 9 21 -5.5577 0.0002
4 9 22 3.7150 0.0006
4 9 23 -0.8295 -0.0023
4 9 24 -0.6655 0.0028
4 10 0 14.1136 -0.0128
4 10 1 -16.4506 0.0047
4 10 2 12.3784 0.0059
4 10 3 -3.6012 -0.0125
4 10 4 -4.6461 0.0109
4 10 5 6.7040 -0.0039
4 10 6 -2.9452 -0.0022
4 10 7 -1.1797 0.0040
4 10 8 1.0374 -0.0025
4 10 9 4.1480 -0.0004
4 10 10 -9.8732 0.0024
4 10 11 10.6251 -0.0025
4 10 12 -5.3666 0.0015
4 10 13 -1.9646 -0.0006
4 10 14 5.5363 -0.0001
4 10 15 -2.8677 0.0009
4 10 16 -3.7581 -0.0013
4 10 17 9.3702 0.0006
4 10 18 -10.0091 0.0003
4 10 19 6.3081 -0.0003
4 10 20 -2.0351 0.0003
4 10 21 0.5244 -0.0019
4 10 22 -1.6475 0.0041
4 10 23 2.4719 -0.0043
4 11 0 14.4504 -0.0015
4 11 1 -9.5716 -0.0097
4 11 2 -1.0738 0.0156
4 11 3 9.2077 -0.0127
4 11 4 -8.6984 0.0042
4 11 5 0.1239 0.0021
4 11 6 9.0878 -0.0023
4 11 7 -11.2341 -0.0003
4 11 8 5.6751 0.0015
4 11 9 2.3598 -0.0008
4 11 10 -6.6313 0.0001
4 11 11 4.9010 0.0002
4 11 12 -0.8451 -0.0004
4 11 13 -0.0138 0.0006
4 11 14 -4.4648 -0.0001
4 11 15 10.6954 -0.0008
4 11 16 -13.4265 0.0012
4 11 17 10.9684 -0.0007
4 11 18 -5.5289 -0.0007
4 11 19 1.1321 0.0012
4 11 20 -0.0266 0.0009
4 11 21 1.2935 -0.0041
4 11 22 -2.4467 0.0046
4 11 23 1.7620 -0.0014
4 12 0 4.4841 0.0164
4 12 1 4.3886 -0.0143
4 12 2 -10.2366 0.0066
4 12 3 6.4015 0.0016
4 12 4 5.3054 -0.0042
4 12 5 -16.2042 -0.0000
4 12 6 18.5799 0.0054
4 12 7 -11.8450 -0.0056
4 12 8 2.5476 0.0015
4 12 9 2.1877 0.0017
4 12 10 0.0200 -0.0023
4 12 11 -5.9674 0.0021
4 12 12 9.8225 -0.0020
4 12 13 -8.7072 0.0007
4 12 14 4.8969 0.0008
4 12 15 -3.1452 -0.0007
4 12 16 5.1532 -0.0008
4 12 17 -7.6476 0.0017
4 12 18 7.3287 -0.0007
4 12 19 -4.2340 -0.0019
4 12 20 0.7404 0.0046
4 12 21 1.1682 -0.0053
4 12 22 -1.3628 0.0031
4 13 0 -11.7026 0.0003
4 13 1 15.8876 0.0068
4 13 2 -12.3122 -0.0104
4 13 3 2.6418 0.0080
4 13 4 5.6148 -0.0013
4 13 5 -6.1109 -0.0043
4 13 6 -0.5951 0.0041
4 13 7 8.2901 0.0000
4 13 8 -10.6525 -0.0021
4 13 9 6.1549 0.0005
4 13 10 1.9016 0.0008
4 13 11 -8.3156 0.0001
4 13 12 9.4333 -0.0008
4 13 13 -6.3424 0.0001
4 13 14 3.1762 -0.0002
4 13 15 -2.4772 0.0015
4 13 16 2.9627 -0.0010
4 13 17 -1.7426 -0.0015
4 13 18 -1.0163 0.0021
4 13 19 2.5977 0.0006
4 13 20 -1.8679 -0.0041
4 13 21 0.3377 0.0060
4 14 0 -7.4906 -0.0102
4 14 1 5.8123 0.0101
4 14 2 -0.7832 -0.0069
4 14 3 -2.9512 0.0027
4 14 4 1.4670 0.0005
4 14 5 4.4403 -0.0006
4 14 6 -10.3184 -0.0015
4 14 7 12.2217 0.0022
4 14 8 -9.3130 0.0001
4 14 9 4.1797 -0.0018
4 14 10 -0.4895 0.0003
4 14 11 0.4274 0.0016
4 14 12 -3.7763 -0.0008
4 14 13 7.5667 -0.0004
4 14 14 -8.7026 -0.0004
4 14 15 7.1064 0.0009
4 14 16 -4.8422 0.0005
4 14 17 3.3554 -0.0002
4 14 18 -1.9250 -0.0040
4 14 19 -0.2656 0.0077
4 14 20 2.0598 -0.0060
4 15 0 6.7517 -0.0070
4 15 1 -7.9634 0.0030
4 15 2 8.4202 -0.0004
4 15 3 -6.6354 -0.0010
4 15 4 2.9426 0.0019
4 15 5 0.4512 -0.0015
4 15 6 -1.6283 0.0001
4 15 7 0.7847 0.0006
4 15 8 0.7263 -0.0002
4 15 9 -1.3477 0.0002
4 15 10 0.1718 -0.0007
4 15 11 2.2838 -0.0004
4 15 12 -4.7547 0.0021
4 15 13 5.6433 -0.0014
4 15 14 -4.0550 -0.0012
4 15 15 1.0649 0.0025
4 15 16 1.4065 -0.0027
4 15 17 -2.3142 0.0046
4 15 18 2.1353 -0.0062
4 16 0 0.9181 0.0062
4 16 1 -2.1167 -0.0068
4 16 2 2.4736 0.0042
4 16 3 -2.2635 -0.0015
4 16 4 2.0292 -0.0001
4 16 5 -2.0491 0.0014
4 16 6 2.1459 -0.0021
4 16 7 -1.6859 0.0008
4 16 8 0.8170 0.0017
4 16 9 -0.3255 -0.0028
4 16 10 0.3841 0.0021
4 16 11 -0.5857 -0.0008
4 16 12 0.5067 -0.0003
4 16 13 -0.4812 0.0011
4 16 14 1.1728 -0.0008
4 16 15 -2.0916 -0.0006
4 16 16 2.0147 0.0013
4 16 17 -0.6217 -0.0001
4 17 0 -4.6282 0.0062
4 17 1 3.0910 -0.0023
4 17 2 -1.3103 -0.0023
4 17 3 -0.6130 0.0047
4 17 4 2.0483 -0.0039
4 17 5 -2.2203 0.0010
4 17 6 1.3058 0.0022
4 17 7 -0.4973 -0.0043
4 17 8 1.2412 0.0040
4 17 9 -3.6234 -0.0012
4 17 10 5.7315 -0.0018
4 17 11 -5.6872 0.0026
4 17 12 3.6586 -0.0007
4 17 13 -1.5984 -0.0019
4 17 14 0.8959 0.0034
4 17 15 -0.8484 -0.0030
4 18 0 -0.4180 0.0042
4 18 1 -0.0957 -0.0018
4 18 2 1.0563 -0.0010
4 18 3 -1.1425 0.0022
4 18 4 -0.3124 -0.0003
4 18 5 2.6404 -0.0024
4 18 6 -4.0476 0.0024
4 18 7 3.1106 0.0003
4 18 8 -0.2193 -0.0025
4 18 9 -2.3399 0.0022
4 18 10 2.4441 0.0000
4 18 11 -0.4654 -0.0029
4 18 12 -1.3801 0.0049
4 18 13 1.4405 -0.0048
4 19 0 -0.0791 -0.0004
4 19 1 -0.4104 0.0022
4 19 2 -0.0288 -0.0061
4 19 3 1.8500 0.0070
4 19 4 -4.0388 -0.0033
4 19 5 5.0119 -0.0005
4 19 6 -3.9808 0.0008
4 19 7 1.8343 -0.0007
4 19 8 -0.2582 0.0034
4 20 1 0.0788 0.0060
4 20 2 -0.8885 -0.0112
5 -16 0 -0.6555 -0.0132
5 -16 1 0.0449 0.0147
5 -16 2 0.5248 -0.0099
5 -15 0 4.6086 -0.0112
5 -15 1 -6.0723 0.0030
5 -15 2 6.3685 0.0046
5 -15 3 -5.5860 -0.0059
5 -15 4 4.5157 0.0019
5 -15 5 -3.7466 0.0023
5 -15 6 2.9396 -0.0040
5 -15 7 -1.6948 0.0026
5 -15 8 0.3310 0.0024
5 -14 0 -1.4378 0.0086
5 -14 1 1.0726 -0.0123
5 -14 2 -1.8956 0.0120
5 -14 3 2.6043 -0.0081
5 -14 4 -2.4462 0.0041
5 -14 5 1.6719 -0.0020
5 -14 6 -1.0873 0.0005
5 -14 7 0.9097 0.0009
5 -14 8 -0.4047 -0.0011
5 -14 9 -0.6198 0.0019
5 -14 10 1.5799 -0.0059
5 -14 11 -1.7843 0.0101
5 -13 0 -1.0544 0.0047
5 -13 1 3.3795 -0.0064
5 -13 2 -5.7280 0.0073
5 -13 3 6.2608 -0.0070
5 -13 4 -4.9654 0.0060
5 -13 5 3.1161 -0.0041
5 -13 6 -1.2966 0.0013
5 -13 7 -0.4913 0.0008
5 -13 8 2.4554 -0.0011
5 -13 9 -4.0524 0.0015
5 -13 10 4.3387 -0.0036
5 -13 11 -3.3809 0.0049
5 -13 12 1.9092 -0.0026
5 -13 13 -0.8457 0.0000
5 -12 0 -1.8662 0.0032
5 -12 1 3.8808 -0.0023
5 -12 2 -3.9018 0.0012
5 -12 3 1.8389 -0.0001
5 -12 4 0.6343 -0.0003
5 -12 5 -1.6239 -0.0003
5 -12 6 1.4469 0.0010
5 -12 7 -0.9468 -0.0015
5 -12 8 0.1463 0.0014
5 -12 9 1.1378 0.0001
5 -12 10 -3.0004 -0.0027
5 -12 11 4.5473 0.0040
5 -12 12 -4.6839 -0.0032
5 -12 13 3.3320 0.0030
5 -12 14 -1.2864 -0.0051
5 -12 15 -0.1767 0.0067
5 -11 0 -2.0990 -0.0061
5 -11 1 0.5521 0.0092
5 -11 2 1.8558 -0.0084
5 -11 3 -3.1039 0.0045
5 -11 4 1.9819 0.0008
5 -11 5 1.0474 -0.0047
5 -11 6 -4.0120 0.0054
5 -11 7 5.7606 -0.0035
5 -11 8 -7.0520 0.0013
5 -11 9 8.1949 0.0005
5 -11 10 -8.6509 -0.0018
5 -11 11 7.6969 0.0021
5 -11 12 -5.0161 -0.0016
5 -11 13 1.9113 0.0017
5 -11 14 -0.1413 -0.0019
5 -11 15 0.2913 0.0006
5 -11 16 -1.3313 0.0017
5 -11 17 1.7377 -0.0023
5 -10 0 7.8474 -0.0155
5 -10 1 -8.1936 0.0129
5 -10 2 7.0903 -0.0063
5 -10 3 -4.1900 0.0000
5 -10 4 1.1129 0.0032
5 -10 5 -0.0156 -0.0031
5 -10 6 1.1791 0.0011
5 -10 7 -3.0749 0.0001
5 -10 8 3.8038 0.0010
5 -10 9 -3.3050 -0.0022
5 -10 10 3.0063 0.0014
5 -10 11 -3.3999 0.0007
5 -10 12 3.8736 -0.0024
5 -10 13 -2.9800 0.0027
5 -10 14 -0.0494 -0.0014
5 -10 15 3.5575 -0.0010
5 -10 16 -5.1478 0.0022
5 -10 17 4.1217 -0.0013
5 -10 18 -2.1597 0.0005
5 -9 0 -1.7810 -0.0058
5 -9 1 3.6128 -0.0025
5 -9 2 -4.2983 0.0079
5 -9 3 3.0183 -0.0079
5 -9 4 0.7735 0.0044
5 -9 5 -6.1649 -0.0008
5 -9 6 10.3916 -0.0005
5 -9 7 -11.2687 -0.0016
5 -9 8 9.3863 0.0049
5 -9 9 -7.0320 -0.0060
5 -9 10 6.1131 0.0044
5 -9 11 -6.2103 -0.0026
5 -9 12 5.6241 0.0026
5 -9 13 -3.6808 -0.0036
5 -9 14 1.2657 0.0042
5 -9 15 -0.6108 -0.0036
5 -9 16 2.5966 0.0015
5 -9 17 -5.1049 0.0006
5 -9 18 5.4648 -0.0001
5 -9 19 -3.4165 -0.0020
5 -8 0 -18.1572 0.0153
5 -8 1 13.4548 -0.0139
5 -8 2 -7.7493 0.0086
5 -8 3 2.1626 -0.0020
5 -8 4 1.8080 -0.0025
5 -8 5 -2.3964 0.0029
5 -8 6 -0.5217 0.0003
5 -8 7 5.0168 -0.0042
5 -8 8 -7.6724 0.0055
5 -8 9 6.6397 -0.0034
5 -8 10 -3.2174 0.0004
5 -8 11 0.0794 0.0003
5 -8 12 1.0901 0.0008
5 -8 13 -1.2650 -0.0017
5 -8 14 2.2420 0.0017
5 -8 15 -4.4623 -0.0008
5 -8 16 6.5692 -0.0007
5 -8 17 -6.2821 0.0017
5 -8 18 3.4000 -0.0011
5 -8 19 -0.3027 0.0009
5 -8 20 -0.7014 -0.0033
5 -7 0 9.1611 0.0032
5 -7 1 -11.5518 0.0063
5 -7 2 10.8652 -0.0126
5 -7 3 -6.4908 0.0151
5 -7 4 -0.5426 -0.0125
5 -7 5 8.6040 0.0058
5 -7 6 -14.3760 0.0012
5 -7 7 15.2328 -0.0045
5 -7 8 -11.3788 0.0030
5 -7 9 5.4526 0.0006
5 -7 10 -1.2356 -0.0030
5 -7 11 0.2269 0.0034
5 -7 12 -1.0150 -0.0032
5 -7 13 1.3672 0.0034
5 -7 14 -0.5670 -0.0035
5 -7 15 0.0123 0.0035
5 -7 16 -0.5769 -0.0038
5 -7 17 1.7033 0.0038
5 -7 18 -2.0691 -0.0029
5 -7 19 0.7612 0.0031
5 -7 20 1.4337 -0.0056
5 -7 21 -2.8920 0.0073
5 -6 0 12.3521 -0.0145
5 -6 1 -6.4023 0.0191
5 -6 2 0.7176 -0.0199
5 -6 3 5.3477 0.0178
5 -6 4 -9.2743 -0.0120
5 -6 5 8.9122 0.0047
5 -6 6 -4.1058 -0.0005
5 -6 7 -2.8926 0.0006
5 -6 8 7.6568 -0.0021
5 -6 9 -7.7255 0.0027
5 -6 10 3.7074 -0.0021
5 -6 11 1.5641 0.0017
5 -6 12 -4.9508 -0.0025
5 -6 13 5.9710 0.0039
5 -6 14 -6.0903 -0.0042
5 -6 15 6.5515 0.0031
5 -6 16 -6.6085 -0.0016
5 -6 17 4.9453 -0.0003
5 -6 18 -2.3122 0.0020
5 -6 19 0.3116 -0.0014
5 -6 20 0.3123 -0.0021
5 -6 21 -0.0841 0.0040
5 -6 22 -0.2555 -0.0006
5 -5 0 -18.1105 -0.0129
5 -5 1 10.9416 0.0101
5 -5 2 -4.1883 -0.0071
5 -5 3 -0.4405 0.0036
5 -5 4 5.5894 -0.0000
5 -5 5 -12.2819 -0.0004
5 -5 6 17.0106 -0.0031
5 -5 7 -16.6615 0.0058
5 -5 8 10.7595 -0.0043
5 -5 9 -2.4303 0.0003
5 -5 10 -3.7545 0.0028
5 -5 11 5.8651 -0.0032
5 -5 12 -4.6215 0.0013
5 -5 13 2.6853 0.0009
5 -5 14 -2.0775 -0.0012
5 -5 15 2.2679 -0.0003
5 -5 16 -1.8032 0.0018
5 -5 17 0.5591 -0.0029
5 -5 18 -0.5710 0.0034
5 -5 19 2.7308 -0.0015
5 -5 20 -5.0992 -0.0024
5 -5 21 5.6410 0.0031
5 -5 22 -4.4120 0.0021
5 -5 23 2.9666 -0.0076
5 -4 0 10.0255 -0.0008
5 -4 1 -19.7232 -0.0075
5 -4 2 20.2235 0.0119
5 -4 3 -16.4119 -0.0128
5 -4 4 13.2659 0.0089
5 -4 5 -11.3746 -0.0004
5 -4 6 7.2981 -0.0064
5 -4 7 -1.0110 0.0058
5 -4 8 -3.3866 -0.0003
5 -4 9 2.8014 -0.0040
5 -4 10 2.7800 0.0049
5 -4 11 -9.5561 -0.0042
5 -4 12 13.4286 0.0030
5 -4 13 -13.1313 -0.0023
5 -4 14 10.2226 0.0030
5 -4 15 -7.8613 -0.0041
5 -4 16 7.1793 0.0041
5 -4 17 -6.5072 -0.0041
5 -4 18 3.8318 0.0046
5 -4 19 0.1089 -0.0040
5 -4 20 -2.0782 0.0023
5 -4 21 0.9342 -0.0039
5 -4 22 1.2036 0.0096
5 -4 23 -1.9086 -0.0118
5 -3 0 20.9343 0.0216
5 -3 1 -4.1559 -0.0234
5 -3 2 -13.0503 0.0191
5 -3 3 21.9850 -0.0116
5 -3 4 -22.3250 0.0022
5 -3 5 18.8956 0.0052
5 -3 6 -15.8190 -0.0051
5 -3 7 12.3482 -0.0003
5 -3 8 -5.2859 0.0030
5 -3 9 -3.9739 -0.0008
5 -3 10 10.7021 -0.0015
5 -3 11 -11.3088 0.0010
5 -3 12 6.1752 0.0001
5 -3 13 0.0087 -0.0006
5 -3 14 -2.8611 0.0012
5 -3 15 1.3937 -0.0013
5 -3 16 1.5442 0.0001
5 -3 17 -2.3547 0.0009
5 -3 18 0.8509 -0.0008
5 -3 19 0.1144 0.0014
5 -3 20 1.9584 -0.0026
5 -3 21 -5.5649 0.0008
5 -3 22 6.9281 0.0026
5 -3 23 -4.8644 -0.0009
5 -3 24 1.6774 -0.0068
5 -2 0 -25.8206 0.0237
5 -2 1 38.8311 -0.0115
5 -2 2 -36.6985 0.0005
5 -2 3 23.5071 0.0061
5 -2 4 -9.6306 -0.0088
5 -2 5 2.4352 0.0065
5 -2 6 -1.3240 -0.0003
5 -2 7 1.8411 -0.0029
5 -2 8 -1.2578 -0.0004
5 -2 9 2.1210 0.0046
5 -2 10 -7.7467 -0.0041
5 -2 11 15.9772 0.0016
5 -2 12 -21.3223 -0.0018
5 -2 13 19.5805 0.0031
5 -2 14 -12.0440 -0.0025
5 -2 15 4.3312 0.0018
5 -2 16 -0.8567 -0.0028
5 -2 17 1.5835 0.0034
5 -2 18 -2.4811 -0.0023
5 -2 19 0.4363 0.0021
5 -2 20 3.6553 -0.0031
5 -2 21 -6.2411 0.0023
5 -2 22 5.0115 -0.0004
5 -2 23 -1.7506 0.0019
5 -2 24 -0.3084 -0.0065
5 -1 0 -4.6753 -0.0019
5 -1 1 -11.4655 0.0135
5 -1 2 31.2777 -0.0141
5 -1 3 -41.2461 0.0085
5 -1 4 36.1620 -0.0028
5 -1 5 -21.7851 -0.0015
5 -1 6 8.4715 0.0027
5 -1 7 -1.5147 0.0006
5 -1 8 -1.2695 -0.0050
5 -1 9 4.4013 0.0049
5 -1 10 -9.0780 -0.0010
5 -1 11 10.8208 -0.0007
5 -1 12 -6.1977 -0.0010
5 -1 13 -2.1025 0.0016
5 -1 14 7.8370 -0.0005
5 -1 15 -6.7986 0.0010
5 -1 16 1.0144 -0.0031
5 -1 17 4.1086 0.0026
5 -1 18 -4.8295 0.0001
5 -1 19 1.9428 -0.0005
5 -1 20 0.7824 -0.0016
5 -1 21 -1.0061 0.0020
5 -1 22 -0.6848 -0.0004
5 -1 23 1.8888 0.0012
5 -1 24 -1.3709 -0.0047
5 -1 25 0.1659 0.0062
5 0 0 23.6751 -0.0275
5 0 1 -34.9858 0.0218
5 0 2 32.4968 -0.0061
5 0 3 -15.6108 -0.0069
5 0 4 -3.9540 0.0110
5 0 5 12.7658 -0.0084
5 0 6 -7.8854 0.0030
5 0 7 -3.0881 0.0023
5 0 8 10.4759 -0.0045
5 0 9 -11.5886 0.0023
5 0 10 9.9864 0.0009
5 0 11 -10.3691 -0.0019
5 0 12 12.9086 0.0016
5 0 13 -12.6924 -0.0020
5 0 14 6.7705 0.0019
5 0 15 2.3674 -0.0001
5 0 16 -8.9974 -0.0007
5 0 17 9.7504 -0.0019
5 0 18 -6.3498 0.0045
5 0 19 3.0073 -0.0033
5 0 20 -2.8264 0.0004
5 0 21 5.2010 -0.0003
5 0 22 -7.4153 0.0016
5 0 23 7.4755 0.0003
5 0 24 -5.4011 -0.0052
5 0 25 2.7670 0.0075
5 1 0 -4.7600 -0.0215
5 1 1 14.3605 0.0014
5 1 2 -30.4320 0.0157
5 1 3 39.4896 -0.0199
5 1 4 -32.4135 0.0133
5 1 5 11.8971 -0.0048
5 1 6 8.3007 -0.0002
5 1 7 -16.5894 0.0019
5 1 8 12.1772 -0.0016
5 1 9 -3.5344 -0.0000
5 1 10 -1.2949 0.0020
5 1 11 1.1300 -0.0028
5 1 12 0.3984 0.0025
5 1 13 1.0145 -0.0021
5 1 14 -4.9303 0.0018
5 1 15 6.8867 -0.0016
5 1 16 -3.8850 0.0022
5 1 17 -2.4170 -0.0032
5 1 18 7.0279 0.0028
5 1 19 -6.7084 -0.0008
5 1 20 2.2310 0.0001
5 1 21 2.5845 -0.0024
5 1 22 -4.3080 0.0043
5 1 23 2.8031 -0.0018
5 1 24 -0.2000 -0.0032
5 1 25 -1.3004 0.0053
5 2 0 2.3757 0.0092
5 2 1 11.9766 -0.0220
5 2 2 -17.0103 0.0230
5 2 3 5.8290 -0.0131
5 2 4 12.0314 0.0025
5 2 5 -22.0633 0.0008
5 2 6 16.4136 0.0019
5 2 7 -0.1150 -0.0043
5 2 8 -14.3833 0.0040
5 2 9 17.8704 -0.0031
5 2 10 -10.5990 0.0025
5 2 11 0.6642 -0.0013
5 2 12 5.2845 -0.0000
5 2 13 -6.2173 -0.0005
5 2 14 5.6869 0.0024
5 2 15 -7.7275 -0.0032
5 2 16 12.0051 0.0019
5 2 17 -14.7422 0.0004
5 2 18 12.8038 -0.0023
5 2 19 -7.5145 0.0030
5 2 20 3.2169 -0.0016
5 2 21 -2.7211 -0.0012
5 2 22 5.1752 0.0023
5 2 23 -7.0510 0.0000
5 2 24 6.0847 -0.0029
5 2 25 -2.9883 0.0023
5 3 0 5.7109 0.0127
5 3 1 3.1199 -0.0100
5 3 2 1.8315 0.0004
5 3 3 -12.2459 0.0085
5 3 4 13.0980 -0.0085
5 3 5 -0.1468 0.0007
5 3 6 -17.3668 0.0063
5 3 7 26.7736 -0.0070
5 3 8 -22.4248 0.0039
5 3 9 9.1986 -0.0011
5 3 10 3.1810 -0.0008
5 3 11 -6.8906 0.0027
5 3 12 2.4241 -0.0033
5 3 13 3.4981 0.0015
5 3 14 -5.8401 0.0005
5 3 15 4.3760 -0.0002
5 3 16 -2.6859 -0.0018
5 3 17 3.4365 0.0027
5 3 18 -5.7177 -0.0018
5 3 19 6.3174 0.0005
5 3 20 -3.3828 0.0002
5 3 21 -0.8351 0.0001
5 3 22 2.8753 -0.0013
5 3 23 -1.6427 0.0025
5 3 24 -0.8509 -0.0018
5 3 25 2.0484 -0.0009
5 4 0 -16.3055 0.0012
5 4 1 11.2911 0.0074
5 4 2 0.2183 -0.0142
5 4 3 -4.9192 0.0132
5 4 4 -1.7832 -0.0046
5 4 5 11.7378 -0.0037
5 4 6 -13.8982 0.0056
5 4 7 5.8702 -0.0026
5 4 8 5.4687 -0.0000
5 4 9 -10.3728 0.0006
5 4 10 5.2173 -0.0011
5 4 11 6.1761 0.0018
5 4 12 -16.0620 -0.0016
5 4 13 18.5440 0.0008
5 4 14 -15.1436 -0.0011
5 4 15 11.0623 0.0025
5 4 16 -9.3809 -0.0029
5 4 17 9.2227 0.0011
5 4 18 -8.3460 0.0013
5 4 19 6.4869 -0.0020
5 4 20 -5.0207 0.0009
5 4 21 5.5410 0.0008
5 4 22 -7.3399 -0.0014
5 4 23 7.6735 0.0007
5 4 24 -5.2335 0.0000
5 4 25 1.5981 0.0007
5 5 0 -3.5458 -0.0151
5 5 1 -10.6470 0.0166
5 5 2 19.9178 -0.0130
5 5 3 -18.5415 0.0046
5 5 4 12.6294 0.0030
5 5 5 -11.2067 -0.0041
5 5 6 16.2475 0.0001
5 5 7 -21.6299 0.0034
5 5 8 21.2356 -0.0038
5 5 9 -13.9291 0.0029
5 5 10 5.0782 -0.0021
5 5 11 -1.4297 0.0011
5 5 12 4.4059 0.0002
5 5 13 -10.4701 -0.0005
5 5 14 13.9869 0.0001
5 5 15 -12.6300 0.0002
5 5 16 8.8268 0.0003
5 5 17 -5.5791 -0.0009
5 5 18 3.4929 0.0008
5 5 19 -1.0466 -0.0002
5 5 20 -1.9532 -0.0004
5 5 21 3.9170 0.0000
5 5 22 -3.3690 0.0012
5 5 23 0.3816 -0.0017
5 5 24 2.6266 -0.0002
5 6 0 -6.0038 -0.0105
5 6 1 -1.0470 0.0041
5 6 2 0.5490 0.0019
5 6 3 3.6214 -0.0054
5 6 4 -4.7615 0.0040
5 6 5 1.2932 0.0011
5 6 6 2.5471 -0.0045
5 6 7 -2.3113 0.0035
5 6 8 -0.3435 -0.0005
5 6 9 0.9458 -0.0013
5 6 10 3.0412 0.0014
5 6 11 -10.4118 -0.0011
5 6 12 15.7430 0.0003
5 6 13 -15.2248 0.0002
5 6 14 9.9843 0.0006
5 6 15 -4.3622 -0.0020
5 6 16 2.0222 0.0023
5 6 17 -2.6376 -0.0012
5 6 18 3.9113 -0.0001
5 6 19 -4.2389 0.0010
5 6 20 4.1655 -0.0014
5 6 21 -4.9487 0.0012
5 6 22 5.9988 -0.0002
5 6 23 -5.8318 -0.0008
5 6 24 3.6982 0.0013
5 6 25 -0.7195 -0.0019
5 7 0 -15.7595 0.0107
5 7 1 15.9206 -0.0126
5 7 2 -17.1256 0.0087
5 7 3 16.2696 -0.0022
5 7 4 -14.1165 -0.0042
5 7 5 13.8997 0.0069
5 7 6 -16.3545 -0.0038
5 7 7 19.1401 -0.0024
5 7 8 -18.0747 0.0065
5 7 9 12.4713 -0.0064
5 7 10 -7.0086 0.0039
5 7 11 5.7731 -0.0011
5 7 12 -9.4717 -0.0008
5 7 13 14.5795 0.0011
5 7 14 -15.9127 0.0001
5 7 15 11.6343 -0.0010
5 7 16 -4.2243 0.0007
5 7 17 -1.6624 -0.0000
5 7 18 3.7428 -0.0000
5 7 19 -3.0915 0.0001
5 7 20 1.8150 -0.0005
5 7 21 -1.2093 0.0006
5 7 22 0.5527 0.0004
5 7 23 0.8769 -0.0025
5 7 24 -2.3019 0.0048
5 7 25 2.4503 -0.0061
5 8 0 9.2043 0.0209
5 8 1 -12.2647 -0.0107
5 8 2 15.1033 -0.0000
5 8 3 -14.3687 0.0065
5 8 4 8.2073 -0.0080
5 8 5 1.1994 0.0053
5 8 6 -7.5091 -0.0003
5 8 7 7.1730 -0.0036
5 8 8 -2.1619 0.0039
5 8 9 -2.3535 -0.0019
5 8 10 1.4141 0.0003
5 8 11 3.9413 -0.0002
5 8 12 -8.2372 0.0005
5 8 13 7.3789 -0.0007
5 8 14 -1.5938 0.0003
5 8 15 -4.6861 0.0008
5 8 16 7.0238 -0.0018
5 8 17 -4.0475 0.0018
5 8 18 -1.4440 -0.0007
5 8 19 4.9468 -0.0003
5 8 20 -4.8387 0.0004
5 8 21 2.6549 0.0000
5 8 22 -0.9596 -0.0001
5 8 23 0.5749 -0.0006
5 8 24 -0.3609 0.0011
5 9 0 14.2317 -0.0014
5 9 1 -21.5068 0.0116
5 9 2 21.5110 -0.0141
5 9 3 -13.1163 0.0101
5 9 4 2.6488 -0.0045
5 9 5 2.3096 0.0005
5 9 6 2.0886 0.0013
5 9 7 -11.9210 -0.0007
5 9 8 18.6868 -0.0014
5 9 9 -17.8247 0.0030
5 9 10 10.8940 -0.0026
5 9 11 -3.8964 0.0009
5 9 12 1.8582 0.0002
5 9 13 -3.9163 -0.0001
5 9 14 5.4636 -0.0006
5 9 15 -2.7655 0.0013
5 9 16 -3.4635 -0.0016
5 9 17 9.3478 0.0008
5 9 18 -11.2218 0.0006
5 9 19 7.9771 -0.0015
5 9 20 -2.7314 0.0015
5 9 21 -0.3997 -0.0014
5 9 22 0.3490 0.0023
5 9 23 0.7627 -0.0039
5 9 24 -0.7345 0.0043
5 10 0 1.9086 -0.0156
5 10 1 -3.4909 0.0139
5 10 2 -4.3147 -0.0066
5 10 3 14.3120 -0.0005
5 10 4 -16.2760 0.0030
5 10 5 7.4930 -0.0015
5 10 6 5.8150 -0.0007
5 10 7 -14.3602 0.0025
5 10 8 12.5591 -0.0036
5 10 9 -3.4452 0.0036
5 10 10 -5.2337 -0.0023
5 10 11 7.9103 0.0009
5 10 12 -4.8184 -0.0003
5 10 13 1.0245 0.0007
5 10 14 -0.5404 -0.0010
5 10 15 2.9869 0.0007
5 10 16 -4.7559 0.0002
5 10 17 3.1767 -0.0010
5 10 18 0.7167 0.0011
5 10 19 -4.1163 -0.0001
5 10 20 4.4004 -0.0008
5 10 21 -1.3941 0.0004
5 10 22 -2.0118 0.0011
5 10 23 2.9878 -0.0021
5 11 0 6.1611 -0.0036
5 11 1 3.9869 -0.0047
5 11 2 -15.4888 0.0095
5 11 3 18.8443 -0.0084
5 11 4 -10.6206 0.0033
5 11 5 -2.2534 0.0013
5 11 6 9.0987 -0.0031
5 11 7 -5.7038 0.0028
5 11 8 -3.8244 -0.0019
5 11 9 11.1821 0.0005
5 11 10 -10.6848 0.0012
5 11 11 3.3089 -0.0016
5 11 12 5.2641 0.0005
5 11 13 -9.6543 0.0009
5 11 14 9.5959 -0.0014
5 11 15 -8.5179 0.0008
5 11 16 8.8524 0.0002
5 11 17 -9.9630 -0.0007
5 11 18 9.3791 0.0005
5 11 19 -6.4248 -0.0001
5 11 20 2.5409 0.0002
5 11 21 0.5045 -0.0003
5 11 22 -1.5346 -0.0003
5 12 0 1.3948 0.0129
5 12 1 9.9534 -0.0158
5 12 2 -13.5660 0.0123
5 12 3 7.0528 -0.0061
5 12 4 3.3545 0.0010
5 12 5 -8.2620 0.0013
5 12 6 3.8060 -0.0016
5 12 7 5.0609 0.0013
5 12 8 -10.5928 0.0000
5 12 9 8.8089 -0.0020
5 12 10 -1.5403 0.0029
5 12 11 -5.7422 -0.0019
5 12 12 8.3871 0.0004
5 12 13 -5.6368 0.0001
5 12 14 1.1412 -0.0001
5 12 15 1.3646 0.0002
5 12 16 -1.9910 0.0003
5 12 17 2.5375 -0.0012
5 12 18 -3.4550 0.0017
5 12 19 3.3590 -0.0012
5 12 20 -1.5575 0.0003
5 12 21 -0.5419 0.0009
5 12 22 1.5646 -0.0019
5 13 0 -3.8580 0.0162
5 13 1 5.1271 -0.0100
5 13 2 0.2815 0.0030
5 13 3 -7.6283 0.0009
5 13 4 10.1344 -0.0016
5 13 5 -5.4171 0.0012
5 13 6 -2.5786 -0.0011
5 13 7 7.8117 0.0005
5 13 8 -7.8732 0.0008
5 13 9 4.6202 -0.0013
5 13 10 -1.6722 -0.0001
5 13 11 1.9150 0.0010
5 13 12 -5.3998 0.0001
5 13 13 9.7286 -0.0013
5 13 14 -11.8423 0.0005
5 13 15 10.8162 0.0008
5 13 16 -8.6811 -0.0003
5 13 17 6.7482 -0.0003
5 13 18 -4.2684 -0.0010
5 13 19 0.8161 0.0025
5 13 20 2.0824 -0.0020
5 13 21 -2.5798 0.0002
5 14 0 0.9194 -0.0023
5 14 1 -4.2410 0.0081
5 14 2 8.4375 -0.0092
5 14 3 -9.8753 0.0062
5 14 4 7.5644 -0.0021
5 14 5 -3.6326 -0.0004
5 14 6 1.0945 0.0009
5 14 7 -1.3265 -0.0008
5 14 8 3.0630 0.0002
5 14 9 -4.4935 0.0014
5 14 10 4.7128 -0.0023
5 14 11 -3.4328 0.0006
5 14 12 1.5644 0.0018
5 14 13 -0.4938 -0.0016
5 14 14 0.7802 -0.0004
5 14 15 -1.8419 0.0004
5 14 16 2.4226 0.0016
5 14 17 -2.4091 -0.0018
5 14 18 2.4901 0.0007
5 14 19 -2.4086 -0.0022
5 14 20 1.3611 0.0063
5 15 0 -4.7893 -0.0069
5 15 1 2.6767 0.0050
5 15 2 -0.9699 -0.0012
5 15 3 0.3820 -0.0026
5 15 4 -0.3556 0.0046
5 15 5 0.1549 -0.0038
5 15 6 0.3776 0.0015
5 15 7 -1.3686 0.0003
5 15 8 2.6140 -0.0013
5 15 9 -3.9245 0.0017
5 15 10 5.3418 -0.0014
5 15 11 -6.2405 0.0004
5 15 12 6.0879 -0.0001
5 15 13 -5.1139 0.0007
5 15 14 3.8676 0.0001
5 15 15 -2.8879 -0.0025
5 15 16 2.1219 0.0033
5 15 17 -1.3952 -0.0009
5 15 18 0.7747 -0.0013
5 16 0 -6.2896 -0.0033
5 16 1 5.6092 0.0001
5 16 2 -4.4658 0.0024
5 16 3 3.2968 -0.0040
5 16 4 -2.7611 0.0043
5 16 5 3.1003 -0.0032
5 16 6 -4.1463 0.0019
5 16 7 4.8672 -0.0015
5 16 8 -4.2502 0.0015
5 16 9 2.3024 -0.0010
5 16 10 0.0130 0.0001
5 16 11 -0.9807 -0.0000
5 16 12 -0.1490 0.0010
5 16 13 1.9749 -0.0021
5 16 14 -2.5387 0.0024
5 16 15 1.4037 -0.0008
5 16 16 0.0136 -0.0028
5 16 17 -0.5413 0.0056
5 17 0 1.7434 -0.0005
5 17 1 -1.3857 -0.0019
5 17 2 1.9584 0.0025
5 17 3 -2.1864 -0.0016
5 17 4 0.8381 0.0000
5 17 5 1.8003 0.0014
5 17 6 -4.3009 -0.0023
5 17 7 4.9561 0.0021
5 17 8 -3.2566 -0.0009
5 17 9 0.8005 -0.0006
5 17 10 0.1050 0.0023
5 17 11 1.4372 -0.0041
5 17 12 -3.7790 0.0049
5 17 13 4.2542 -0.0029
5 17 14 -2.2255 -0.0015
5 17 15 -0.3378 0.0058
5 18 0 2.4838 0.0097
5 18 1 -4.1558 -0.0094
5 18 2 5.4085 0.0047
5 18 3 -4.5494 0.0004
5 18 4 1.5972 -0.0022
5 18 5 1.4231 0.0018
5 18 6 -2.2954 -0.0011
5 18 7 0.5855 0.0002
5 18 8 1.7968 0.0016
5 18 9 -2.2994 -0.0029
5 18 10 0.3540 0.0023
5 18 11 2.1876 -0.0005
5 18 12 -2.9374 -0.0016
5 18 13 1.4346 0.0039
5 19 0 0.1373 0.0039
5 19 1 -2.3092 0.0013
5 19 2 2.6429 -0.0080
5 19 3 -0.9393 0.0087
5 19 4 -0.9524 -0.0036
5 19 5 0.9225 -0.0007
5 19 6 1.1874 0.0010
5 19 7 -3.5526 -0.0005
5 19 8 4.0812 0.0009
5 19 9 -2.4836 -0.0004
5 19 10 0.5522 -0.0015
5 20 0 0.5612 0.0022
5 20 1 -0.7613 0.0038
5 20 2 -0.3827 -0.0057
5 20 3 1.9251 0.0004
5 20 4 -2.3598 0.0053
6 -15 0 -5.3043 -0.0117
6 -15 1 4.0970 0.0093
6 -15 2 -3.4608 -0.0028
6 -15 3 3.0285 -0.0010
6 -15 4 -2.1344 0.0004
6 -14 0 1.8526 -0.0155
6 -14 1 -0.7994 0.0067
6 -14 2 -1.0491 0.0025
6 -14 3 2.6094 -0.0060
6 -14 4 -3.4095 0.0038
6 -14 5 3.8956 -0.0001
6 -14 6 -4.2928 -0.0012
6 -14 7 4.0015 -0.0015
6 -14 8 -2.7482 0.0057
6 -14 9 1.1866 -0.0066
6 -13 0 5.6778 0.0027
6 -13 1 -2.8271 -0.0073
6 -13 2 1.2127 0.0075
6 -13 3 -0.8467 -0.0022
6 -13 4 0.9868 -0.0048
6 -13 5 -1.1811 0.0079
6 -13 6 1.4580 -0.0049
6 -13 7 -2.0192 -0.0015
6 -13 8 2.2079 0.0054
6 -13 9 -1.2657 -0.0036
6 -13 10 -0.3540 -0.0010
6 -13 11 1.6246 0.0025
6 -13 12 -1.9764 0.0002
6 -12 0 -3.7600 0.0114
6 -12 1 1.4992 -0.0097
6 -12 2 1.6840 0.0061
6 -12 3 -4.4794 -0.0011
6 -12 4 5.8527 -0.0032
6 -12 5 -6.2801 0.0040
6 -12 6 6.1227 -0.0021
6 -12 7 -5.0295 0.0008
6 -12 8 2.7111 -0.0022
6 -12 9 0.3440 0.0048
6 -12 10 -2.5530 -0.0044
6 -12 11 3.0245 -0.0002
6 -12 12 -2.2882 0.0053
6 -12 13 1.3072 -0.0061
6 -12 14 -0.6877 0.0035
6 -11 0 0.3951 0.0068
6 -11 1 -2.4846 -0.0039
6 -11 2 2.6300 0.0021
6 -11 3 -1.2246 0.0003
6 -11 4 -0.7275 -0.0026
6 -11 5 1.6285 0.0030
6 -11 6 -1.3273 -0.0021
6 -11 7 1.1389 0.0019
6 -11 8 -1.2430 -0.0029
6 -11 9 0.8313 0.0033
6 -11 10 0.7577 -0.0016
6 -11 11 -3.1688 -0.0007
6 -11 12 5.0052 0.0011
6 -11 13 -5.3966 0.0008
6 -11 14 4.3845 -0.0020
6 -11 15 -2.8453 0.0007
6 -11 16 1.7451 0.0008
6 -10 0 1.9114 -0.0041
6 -10 1 1.5897 0.0063
6 -10 2 -5.1389 -0.0052
6 -10 3 7.1115 0.0037
6 -10 4 -6.5049 -0.0018
6 -10 5 3.7328 -0.0005
6 -10 6 -0.5164 0.0010
6 -10 7 -1.3342 0.0015
6 -10 8 2.2180 -0.0048
6 -10 9 -3.4878 0.0062
6 -10 10 5.1635 -0.0051
6 -10 11 -6.5117 0.0031
6 -10 12 6.5573 -0.0018
6 -10 13 -4.9663 0.0011
6 -10 14 2.5882 -0.0003
6 -10 15 -0.7933 -0.0000
6 -10 16 0.4998 -0.0013
6 -10 17 -0.9329 0.0030
6 -9 0 -8.9689 -0.0157
6 -9 1 9.7990 0.0112
6 -9 2 -8.6304 -0.0030
6 -9 3 5.6533 -0.0037
6 -9 4 -1.8738 0.0070
6 -9 5 -0.6784 -0.0066
6 -9 6 0.6389 0.0029
6 -9 7 1.5504 0.0015
6 -9 8 -3.9671 -0.0037
6 -9 9 4.9270 0.0030
6 -9 10 -4.8279 -0.0016
6 -9 11 4.7547 0.0010
6 -9 12 -5.2633 -0.0012
6 -9 13 6.3320 0.0012
6 -9 14 -6.7180 -0.0003
6 -9 15 5.2076 -0.0012
6 -9 16 -2.2042 0.0024
6 -9 17 -0.2580 -0.0035
6 -9 18 0.6898 0.0044
6 -8 0 3.8617 -0.0107
6 -8 1 -6.3822 -0.0015
6 -8 2 8.4343 0.0101
6 -8 3 -9.1686 -0.0111
6 -8 4 7.8382 0.0073
6 -8 5 -4.2754 -0.0032
6 -8 6 -0.6203 0.0014
6 -8 7 4.7639 -0.0020
6 -8 8 -6.6564 0.0037
6 -8 9 6.3695 -0.0042
6 -8 10 -5.4134 0.0026
6 -8 11 5.2614 -0.0002
6 -8 12 -5.7767 -0.0009
6 -8 13 6.0634 -0.0001
6 -8 14 -5.0769 0.0025
6 -8 15 2.7134 -0.0046
6 -8 16 -0.6762 0.0045
6 -8 17 0.5655 -0.0025
6 -8 18 -1.9689 0.0002
6 -8 19 2.6496 0.0016
6 -8 20 -1.4801 -0.0027
6 -7 0 9.6916 0.0153
6 -7 1 -8.8259 -0.0209
6 -7 2 7.5367 0.0170
6 -7 3 -5.7063 -0.0076
6 -7 4 3.3943 0.0008
6 -7 5 -1.8234 0.0003
6 -7 6 1.9770 0.0021
6 -7 7 -3.9809 -0.0044
6 -7 8 6.9060 0.0050
6 -7 9 -8.9860 -0.0038
6 -7 10 9.1798 0.0017
6 -7 11 -7.6932 -0.0004
6 -7 12 5.9931 0.0001
6 -7 13 -5.1774 -0.0002
6 -7 14 4.7982 0.0001
6 -7 15 -3.9687 0.0011
6 -7 16 2.0195 -0.0031
6 -7 17 0.5010 0.0039
6 -7 18 -2.0587 -0.0021
6 -7 19 1.7601 -0.0003
6 -7 20 -0.2530 0.0001
6 -7 21 -0.7455 0.0020
6 -6 0 -13.2563 0.0137
6 -6 1 10.9026 -0.0066
6 -6 2 -8.9035 -0.0032
6 -6 3 7.2144 0.0083
6 -6 4 -5.1280 -0.0057
6 -6 5 1.6727 -0.0001
6 -6 6 2.6630 0.0035
6 -6 7 -5.7813 -0.0037
6 -6 8 6.7303 0.0022
6 -6 9 -5.8285 -0.0001
6 -6 10 4.3076 -0.0016
6 -6 11 -3.4208 0.0020
6 -6 12 3.4093 -0.0017
6 -6 13 -3.5945 0.0014
6 -6 14 2.8005 -0.0014
6 -6 15 -1.3059 0.0016
6 -6 16 0.4682 -0.0023
6 -6 17 -0.7060 0.0024
6 -6 18 1.3781 -0.0023
6 -6 19 -1.5315 0.0042
6 -6 20 1.0542 -0.0089
6 -6 21 -0.3271 0.0117
6 -5 0 -4.4460 -0.0083
6 -5 1 0.9532 0.0152
6 -5 2 -1.3107 -0.0162
6 -5 3 2.6176 0.0098
6 -5 4 -2.6235 -0.0008
6 -5 5 2.0717 -0.0045
6 -5 6 -2.5536 0.0049
6 -5 7 4.9519 -0.0033
6 -5 8 -7.3468 0.0011
6 -5 9 7.3154 0.0014
6 -5 10 -4.9235 -0.0027
6 -5 11 1.7932 0.0023
6 -5 12 0.1197 -0.0019
6 -5 13 -0.2578 0.0020
6 -5 14 -0.3113 -0.0016
6 -5 15 -0.2428 0.0012
6 -5 16 2.7258 -0.0017
6 -5 17 -5.1168 0.0022
6 -5 18 5.2545 -0.0019
6 -5 19 -3.5350 0.0025
6 -5 20 2.0330 -0.0042
6 -5 21 -1.7761 0.0021
6 -5 22 1.7542 0.0051
6 -4 0 15.5555 -0.0212
6 -4 1 -9.7562 0.0182
6 -4 2 2.8332 -0.0105
6 -4 3 1.0711 0.0017
6 -4 4 -1.8699 0.0030
6 -4 5 3.2594 -0.0027
6 -4 6 -6.1836 0.0012
6 -4 7 8.3925 -0.0007
6 -4 8 -7.5401 0.0003
6 -4 9 3.7147 0.0000
6 -4 10 -0.3817 0.0010
6 -4 11 0.1871 -0.0019
6 -4 12 -2.6857 0.0010
6 -4 13 5.2844 0.0000
6 -4 14 -5.3039 0.0011
6 -4 15 2.5710 -0.0025
6 -4 16 0.6626 0.0026
6 -4 17 -1.3450 -0.0029
6 -4 18 -0.8341 0.0035
6 -4 19 2.5641 -0.0016
6 -4 20 -1.3586 -0.0019
6 -4 21 -1.6087 0.0013
6 -4 22 3.2763 0.0038
6 -4 23 -2.6902 -0.0057
6 -3 0 2.0701 -0.0068
6 -3 1 3.6012 -0.0020
6 -3 2 -4.1548 0.0082
6 -3 3 1.2410 -0.0088
6 -3 4 1.0690 0.0036
6 -3 5 0.0979 0.0020
6 -3 6 -2.5764 -0.0032
6 -3 7 2.3783 0.0011
6 -3 8 0.2609 0.0011
6 -3 9 -2.1339 -0.0032
6 -3 10 0.1831 0.0050
6 -3 11 5.0745 -0.0041
6 -3 12 -9.4997 0.0006
6 -3 13 9.8642 0.0010
6 -3 14 -6.3818 0.0011
6 -3 15 2.7649 -0.0031
6 -3 16 -2.6272 0.0034
6 -3 17 5.9568 -0.0040
6 -3 18 -9.1947 0.0044
6 -3 19 8.3143 -0.0019
6 -3 20 -3.6805 -0.0009
6 -3 21 -0.4810 -0.0019
6 -3 22 1.1912 0.0078
6 -3 23 0.4402 -0.0084
6 -2 0 -4.1265 0.0185
6 -2 1 0.8865 -0.0201
6 -2 2 6.2211 0.0150
6 -2 3 -10.5170 -0.0045
6 -2 4 9.4345 -0.0058
6 -2 5 -6.0001 0.0092
6 -2 6 5.0412 -0.0057
6 -2 7 -8.6080 0.0011
6 -2 8 12.6922 0.0017
6 -2 9 -12.5120 -0.0036
6 -2 10 7.9113 0.0042
6 -2 11 -2.7400 -0.0015
6 -2 12 1.5926 -0.0018
6 -2 13 -4.6048 0.0016
6 -2 14 7.4721 0.0005
6 -2 15 -6.0589 -0.0000
6 -2 16 0.5923 -0.0020
6 -2 17 4.2094 0.0017
6 -2 18 -4.4730 -0.0001
6 -2 19 0.6960 0.0005
6 -2 20 2.8361 -0.0008
6 -2 21 -2.4311 -0.0022
6 -2 22 -0.9432 0.0043
6 -2 23 3.5525 0.0001
6 -2 24 -3.2514 -0.0079
6 -1 0 -8.8641 0.0201
6 -1 1 0.7920 -0.0080
6 -1 2 4.0293 -0.0040
6 -1 3 -2.1135 0.0123
6 -1 4 -2.2045 -0.0132
6 -1 5 1.8473 0.0071
6 -1 6 4.6396 -0.0004
6 -1 7 -12.5569 -0.0016
6 -1 8 15.2226 0.0005
6 -1 9 -10.5571 -0.0002
6 -1 10 3.9237 0.0003
6 -1 11 -1.4452 0.0004
6 -1 12 4.3794 -0.0002
6 -1 13 -8.4112 -0.0017
6 -1 14 8.3301 0.0015
6 -1 15 -4.0876 0.0023
6 -1 16 0.2076 -0.0050
6 -1 17 -0.8066 0.0034
6 -1 18 4.7535 -0.0010
6 -1 19 -7.2688 0.0016
6 -1 20 5.4938 -0.0026
6 -1 21 -0.7256 0.0015
6 -1 22 -3.0940 -0.0016
6 -1 23 3.6418 0.0062
6 -1 24 -1.9854 -0.0103
6 0 0 -6.1903 -0.0093
6 0 1 2.0184 0.0186
6 0 2 -6.9096 -0.0192
6 0 3 14.6200 0.0133
6 0 4 -16.5986 -0.0041
6 0 5 10.7048 -0.0031
6 0 6 -3.8256 0.0041
6 0 7 3.8513 0.0001
6 0 8 -11.3579 -0.0036
6 0 9 20.0232 0.0037
6 0 10 -21.7498 -0.0023
6 0 11 14.9355 0.0017
6 0 12 -5.6702 -0.0012
6 0 13 0.5501 0.0008
6 0 14 -1.0548 -0.0019
6 0 15 2.8801 0.0035
6 0 16 -1.6683 -0.0023
6 0 17 -2.3570 -0.0011
6 0 18 5.3341 0.0023
6 0 19 -4.3306 -0.0003
6 0 20 0.9788 -0.0010
6 0 21 1.2273 -0.0005
6 0 22 -0.7095 0.0017
6 0 23 -1.2306 -0.0008
6 0 24 2.2902 0.0010
6 1 0 25.5178 -0.0268
6 1 1 -13.3157 0.0183
6 1 2 -1.1473 -0.0047
6 1 3 7.4202 -0.0056
6 1 4 -4.1319 0.0094
6 1 5 -0.7494 -0.0067
6 1 6 -1.2571 0.0005
6 1 7 10.3259 0.0046
6 1 8 -17.9063 -0.0051
6 1 9 16.8203 0.0022
6 1 10 -7.4785 0.0000
6 1 11 -3.2159 -0.0000
6 1 12 7.4991 -0.0008
6 1 13 -4.2806 0.0012
6 1 14 -1.4445 -0.0015
6 1 15 4.2417 0.0016
6 1 16 -2.9527 -0.0004
6 1 17 0.6021 -0.0012
6 1 18 0.1078 0.0009
6 1 19 0.7156 0.0009
6 1 20 -0.5300 -0.0015
6 1 21 -2.0223 0.0002
6 1 22 5.1843 0.0006
6 1 23 -6.5158 0.0003
6 1 24 5.2896 -0.0009
6 1 25 -2.9754 0.0000
6 2 0 11.7399 -0.0166
6 2 1 1.9674 -0.0043
6 2 2 -3.0045 0.0158
6 2 3 -7.0598 -0.0152
6 2 4 17.3708 0.0079
6 2 5 -18.9839 0.0002
6 2 6 12.8957 -0.0055
6 2 7 -6.9243 0.0066
6 2 8 7.8970 -0.0040
6 2 9 -14.3814 0.0006
6 2 10 18.6248 0.0009
6 2 11 -15.4784 -0.0007
6 2 12 5.7295 0.0006
6 2 13 4.6883 -0.0012
6 2 14 -9.9119 0.0012
6 2 15 9.1005 -0.0010
6 2 16 -5.5715 0.0019
6 2 17 3.2508 -0.0034
6 2 18 -2.9812 0.0035
6 2 19 3.1926 -0.0020
6 2 20 -2.4055 0.0009
6 2 21 0.8928 -0.0006
6 2 22 -0.5154 -0.0004
6 2 23 1.7444 0.0027
6 2 24 -3.0518 -0.0039
6 2 25 2.8499 0.0029
6 3 0 -26.5921 0.0281
6 3 1 18.9825 -0.0323
6 3 2 -1.4665 0.0226
6 3 3 -12.7663 -0.0085
6 3 4 14.9889 -0.0014
6 3 5 -7.9025 0.0054
6 3 6 0.9928 -0.0057
6 3 7 0.1225 0.0042
6 3 8 2.9625 -0.0018
6 3 9 -4.7699 0.0001
6 3 10 0.8083 0.0003
6 3 11 6.7696 -0.0003
6 3 12 -12.1046 0.0009
6 3 13 11.5455 -0.0014
6 3 14 -5.8429 0.0010
6 3 15 -0.5762 -0.0004
6 3 16 3.9416 0.0003
6 3 17 -3.4123 -0.0002
6 3 18 0.8251 -0.0006
6 3 19 1.7273 0.0012
6 3 20 -3.9330 -0.0005
6 3 21 6.0361 -0.0007
6 3 22 -7.7814 0.0010
6 3 23 7.8422 -0.0008
6 3 24 -5.3785 0.0011
6 3 25 1.7633 -0.0010
6 4 0 -3.8242 0.0256
6 4 1 -6.1994 -0.0118
6 4 2 11.3258 -0.0022
6 4 3 -5.3924 0.0081
6 4 4 -6.7213 -0.0063
6 4 5 15.3333 0.0022
6 4 6 -15.1022 0.0005
6 4 7 9.0317 -0.0015
6 4 8 -3.5480 0.0015
6 4 9 1.1859 -0.0004
6 4 10 -0.8687 -0.0007
6 4 11 -0.9331 0.0006
6 4 12 6.5503 0.0007
6 4 13 -13.3525 -0.0019
6 4 14 17.1147 0.0017
6 4 15 -15.8942 -0.0005
6 4 16 11.4639 -0.0011
6 4 17 -6.8141 0.0025
6 4 18 3.3975 -0.0030
6 4 19 -1.2310 0.0021
6 4 20 -0.4408 -0.0004
6 4 21 1.2810 -0.0012
6 4 22 -0.3268 0.0032
6 4 23 -2.1388 -0.0050
6 4 24 4.2367 0.0044
6 4 25 -3.9509 -0.0006
6 5 0 6.1068 -0.0025
6 5 1 -2.1725 0.0114
6 5 2 -6.9219 -0.0120
6 5 3 16.3800 0.0052
6 5 4 -18.5937 0.0027
6 5 5 12.1687 -0.0067
6 5 6 -2.4724 0.0067
6 5 7 -4.2620 -0.0046
6 5 8 5.4877 0.0014
6 5 9 -4.5278 0.0016
6 5 10 5.0279 -0.0030
6 5 11 -7.0648 0.0023
6 5 12 8.5977 -0.0006
6 5 13 -6.7141 -0.0004
6 5 14 1.5745 0.0005
6 5 15 3.1554 -0.0001
6 5 16 -4.1792 -0.0004
6 5 17 1.6350 0.0007
6 5 18 1.5192 -0.0007
6 5 19 -3.6368 0.0013
6 5 20 5.0561 -0.0022
6 5 21 -6.6700 0.0020
6 5 22 8.3899 -0.0007
6 5 23 -8.4559 0.0006
6 5 24 5.6985 -0.0032
6 5 25 -1.3530 0.0061
6 6 0 -12.4821 -0.0164
6 6 1 14.9211 0.0145
6 6 2 -13.7195 -0.0067
6 6 3 6.8912 -0.0023
6 6 4 3.0901 0.0075
6 6 5 -9.3264 -0.0078
6 6 6 6.9274 0.0053
6 6 7 1.3270 -0.0024
6 6 8 -9.5684 0.0001
6 6 9 13.4629 0.0011
6 6 10 -13.3200 -0.0011
6 6 11 13.6093 0.0006
6 6 12 -16.3940 -0.0007
6 6 13 19.7049 0.0010
6 6 14 -19.8102 -0.0010
6 6 15 14.8998 0.0006
6 6 16 -7.5626 0.0001
6 6 17 2.1187 -0.0010
6 6 18 -0.9863 0.0016
6 6 19 2.4099 -0.0012
6 6 20 -3.1704 0.0005
6 6 21 2.4596 -0.0002
6 6 22 -1.5736 -0.0006
6 6 23 2.0133 0.0028
6 6 24 -3.3323 -0.0050
6 6 25 3.6472 0.0045
6 7 0 -1.1879 -0.0089
6 7 1 -6.4374 0.0017
6 7 2 17.8182 0.0056
6 7 3 -25.7220 -0.0094
6 7 4 23.9265 0.0082
6 7 5 -12.6818 -0.0042
6 7 6 -1.5284 0.0008
6 7 7 9.3101 0.0002
6 7 8 -7.3686 0.0006
6 7 9 0.6878 -0.0016
6 7 10 4.1550 0.0021
6 7 11 -3.8507 -0.0018
6 7 12 1.1782 0.0013
6 7 13 -1.0222 -0.0008
6 7 14 4.3374 0.0005
6 7 15 -7.7536 -0.0002
6 7 16 6.9915 0.0001
6 7 17 -1.5666 -0.0003
6 7 18 -5.2825 0.0006
6 7 19 9.4945 -0.0008
6 7 20 -9.2450 0.0010
6 7 21 6.6261 -0.0010
6 7 22 -4.5519 0.0003
6 7 23 3.8195 0.0003
6 7 24 -3.1285 0.0002
6 8 0 4.2150 0.0035
6 8 1 -15.5983 -0.0081
6 8 2 21.5462 0.0078
6 8 3 -16.2247 -0.0036
6 8 4 2.8389 -0.0017
6 8 5 7.6699 0.0047
6 8 6 -7.2263 -0.0036
6 8 7 -4.1428 0.0000
6 8 8 18.5270 0.0028
6 8 9 -25.8394 -0.0030
6 8 10 23.4602 0.0017
6 8 11 -16.4432 -0.0005
6 8 12 11.3618 0.0003
6 8 13 -10.4789 -0.0006
6 8 14 10.5701 0.0009
6 8 15 -8.1280 -0.0010
6 8 16 2.9841 0.0006
6 8 17 1.6138 0.0004
6 8 18 -2.5757 -0.0013
6 8 19 0.0575 0.0014
6 8 20 3.4377 -0.0009
6 8 21 -4.7345 0.0003
6 8 22 2.9724 0.0008
6 8 23 -0.3856 -0.0028
6 8 24 -0.6132 0.0045
6 9 0 -3.9115 0.0167
6 9 1 -0.5157 -0.0096
6 9 2 -6.4492 -0.0002
6 9 3 19.4144 0.0070
6 9 4 -27.7399 -0.0084
6 9 5 23.3773 0.0051
6 9 6 -9.0522 0.0003
6 9 7 -4.6476 -0.0044
6 9 8 9.0747 0.0048
6 9 9 -2.7560 -0.0022
6 9 10 -7.5228 -0.0008
6 9 11 13.1759 0.0020
6 9 12 -11.5802 -0.0018
6 9 13 6.4229 0.0010
6 9 14 -2.6894 -0.0002
6 9 15 1.3031 -0.0001
6 9 16 -0.1821 -0.0000
6 9 17 -2.3309 0.0002
6 9 18 5.9114 0.0004
6 9 19 -8.2194 -0.0011
6 9 20 7.5382 0.0009
6 9 21 -4.1628 -0.0002
6 9 22 0.3516 0.0007
6 9 23 1.3345 -0.0024
6 10 0 9.2355 -0.0015
6 10 1 -2.1366 0.0122
6 10 2 -11.4277 -0.0167
6 10 3 20.1874 0.0134
6 10 4 -17.5764 -0.0064
6 10 5 6.5148 0.0003
6 10 6 3.2553 0.0031
6 10 7 -3.4716 -0.0035
6 10 8 -5.0691 0.0019
6 10 9 14.9256 0.0001
6 10 10 -18.4975 -0.0009
6 10 11 13.6097 0.0004
6 10 12 -4.8784 0.0002
6 10 13 -1.5112 0.0000
6 10 14 3.1486 -0.0008
6 10 15 -2.4605 0.0014
6 10 16 2.2326 -0.0011
6 10 17 -2.4548 -0.0002
6 10 18 2.2721 0.0012
6 10 19 -1.1939 -0.0007
6 10 20 -0.3301 -0.0012
6 10 21 1.2471 0.0029
6 10 22 -0.8797 -0.0031
6 10 23 -0.4915 0.0023
6 11 0 17.2340 -0.0147
6 11 1 -6.4075 0.0152
6 11 2 -1.6995 -0.0100
6 11 3 -0.0293 0.0028
6 11 4 9.2854 0.0013
6 11 5 -16.9182 -0.0011
6 11 6 16.2011 -0.0007
6 11 7 -8.0251 0.0020
6 11 8 -0.6044 -0.0024
6 11 9 3.4836 0.0021
6 11 10 0.0998 -0.0013
6 11 11 -5.8850 0.0001
6 11 12 8.3572 0.0004
6 11 13 -5.7426 -0.0001
6 11 14 0.6366 -0.0004
6 11 15 3.1627 0.0001
6 11 16 -4.4318 0.0011
6 11 17 4.8108 -0.0023
6 11 18 -4.9422 0.0026
6 11 19 4.1475 -0.0021
6 11 20 -2.3725 0.0017
6 11 21 0.4426 -0.0015
6 11 22 0.7626 0.0016
6 12 0 -0.0505 -0.0033
6 12 1 5.7077 0.0002
6 12 2 -4.2521 0.0028
6 12 3 -3.5286 -0.0036
6 12 4 10.6060 0.0015
6 12 5 -10.7841 0.0016
6 12 6 4.9680 -0.0030
6 12 7 1.0782 0.0025
6 12 8 -2.8423 -0.0016
6 12 9 0.5474 0.0011
6 12 10 2.5175 -0.0007
6 12 11 -3.2698 -0.0000
6 12 12 0.6985 0.0008
6 12 13 3.0160 -0.0009
6 12 14 -4.9930 0.0004
6 12 15 4.7310 -0.0003
6 12 16 -3.7708 0.0008
6 12 17 3.5204 -0.0010
6 12 18 -3.1555 0.0003
6 12 19 1.6283 0.0004
6 12 20 -0.0118 -0.0007
6 12 21 -0.2668 0.0009
6 12 22 -0.5830 -0.0010
6 13 0 -11.5522 0.0057
6 13 1 11.0242 -0.0055
6 13 2 -5.8421 0.0039
6 13 3 0.1928 -0.0015
6 13 4 1.6023 -0.0011
6 13 5 0.5136 0.0030
6 13 6 -2.9380 -0.0032
6 13 7 2.9670 0.0022
6 13 8 -0.8218 -0.0012
6 13 9 -1.5791 0.0008
6 13 10 3.0309 -0.0003
6 13 11 -3.7408 -0.0008
6 13 12 4.0169 0.0015
6 13 13 -4.4174 -0.0006
6 13 14 5.0453 -0.0006
6 13 15 -4.8271 0.0002
6 13 16 3.5383 0.0012
6 13 17 -2.4360 -0.0013
6 13 18 2.7760 0.0004
6 13 19 -3.8213 -0.0005
6 13 20 3.4414 0.0018
6 13 21 -1.3894 -0.0023
6 14 0 -7.2337 0.0114
6 14 1 5.0220 -0.0074
6 14 2 -2.0299 0.0034
6 14 3 -0.0214 -0.0002
6 14 4 0.2758 -0.0019
6 14 5 0.5719 0.0032
6 14 6 -1.2799 -0.0030
6 14 7 1.5967 0.0016
6 14 8 -1.3632 -0.0001
6 14 9 0.2139 -0.0007
6 14 10 1.7610 0.0010
6 14 11 -3.9994 -0.0012
6 14 12 5.1238 0.0005
6 14 13 -4.2532 0.0007
6 14 14 2.0613 -0.0008
6 14 15 0.1290 -0.0005
6 14 16 -0.7453 0.0006
6 14 17 -0.7523 0.0011
6 14 18 2.9685 -0.0017
6 14 19 -3.8088 -0.0003
6 14 20 2.5443 0.0017
6 15 0 1.8238 0.0035
6 15 1 -1.6849 0.0009
6 15 2 1.8399 -0.0027
6 15 3 -2.0463 0.0021
6 15 4 1.0874 -0.0006
6 15 5 1.6814 -0.0005
6 15 6 -5.0025 0.0015
6 15 7 7.3010 -0.0025
6 15 8 -7.5595 0.0027
6 15 9 5.7458 -0.0018
6 15 10 -3.3651 0.0006
6 15 11 2.1984 -0.0000
6 15 12 -3.2510 0.0001
6 15 13 5.7857 -0.0004
6 15 14 -7.2633 0.0003
6 15 15 5.9728 0.0009
6 15 16 -2.6327 -0.0028
6 15 17 -0.4222 0.0028
6 15 18 1.4691 0.0001
6 16 0 2.3362 -0.0069
6 16 1 -2.0386 0.0067
6 16 2 3.4291 -0.0037
6 16 3 -4.5350 0.0001
6 16 4 3.6450 0.0017
6 16 5 -0.9956 -0.0015
6 16 6 -1.1245 0.0007
6 16 7 1.1440 -0.0003
6 16 8 0.5395 0.0001
6 16 9 -2.5821 0.0003
6 16 10 3.1619 -0.0001
6 16 11 -1.2542 -0.0011
6 16 12 -2.1677 0.0019
6 16 13 4.5695 -0.0008
6 16 14 -3.8962 -0.0020
6 16 15 1.0584 0.0038
6 16 16 1.0561 -0.0024
6 16 17 -0.9144 -0.0017
6 17 0 -2.9487 -0.0000
6 17 1 -0.9874 -0.0027
6 17 2 4.9761 0.0042
6 17 3 -6.2532 -0.0034
6 17 4 4.6806 0.0012
6 17 5 -2.3228 0.0013
6 17 6 1.6452 -0.0031
6 17 7 -3.3241 0.0039
6 17 8 5.8010 -0.0040
6 17 9 -7.0293 0.0038
6 17 10 5.8494 -0.0036
6 17 11 -2.9211 0.0032
6 17 12 0.4740 -0.0033
6 17 13 -0.2680 0.0040
6 17 14 1.7927 -0.0037
6 17 15 -2.6703 0.0009
6 18 0 -2.6984 -0.0018
6 18 1 -1.2639 -0.0006
6 18 2 2.7693 0.0002
6 18 3 -0.9943 -0.0000
6 18 4 -2.0590 0.0011
6 18 5 3.5318 -0.0012
6 18 6 -2.1582 -0.0005
6 18 7 -0.7618 0.0018
6 18 8 2.7147 -0.0015
6 18 9 -2.4490 0.0010
6 18 10 0.8165 -0.0015
6 18 11 0.2942 0.0017
6 18 12 0.1196 -0.0010
6 18 13 -1.3038 -0.0002
6 19 0 1.4699 0.0093
6 19 1 -1.6678 -0.0069
6 19 2 -0.5403 0.0041
6 19 3 3.8086 -0.0043
6 19 4 -5.6270 0.0039
6 19 5 4.7552 0.0003
6 19 6 -2.3429 -0.0044
6 19 7 0.8177 0.0034
6 19 8 -1.3004 0.0009
6 19 9 2.5550 -0.0033
6 19 10 -2.9237 0.0029
6 20 0 2.9337 0.0080
6 20 1 -2.1073 -0.0020
6 20 2 0.2071 -0.0002
6 20 3 1.0797 0.0006
6 20 4 -0.5969 -0.0041
7 -14 0 4.8375 -0.0091
7 -14 1 -4.8526 0.0053
7 -14 2 5.0046 -0.0016
7 -14 3 -4.8751 0.0024
7 -14 4 3.9565 -0.0071
7 -14 5 -2.3931 0.0106
7 -13 0 -1.6395 -0.0079
7 -13 1 1.0124 0.0033
7 -13 2 -0.6870 0.0007
7 -13 3 1.0468 -0.0002
7 -13 4 -1.3984 -0.0034
7 -13 5 0.6153 0.0046
7 -13 6 1.5487 -0.0014
7 -13 7 -3.6279 -0.0014
7 -13 8 4.0086 -0.0013
7 -13 9 -2.7970 0.0077
7 -12 0 -6.9200 -0.0052
7 -12 1 7.3568 -0.0005
7 -12 2 -8.2378 0.0042
7 -12 3 8.7069 -0.0028
7 -12 4 -7.4562 -0.0007
7 -12 5 4.5699 0.0012
7 -12 6 -1.7641 0.0009
7 -12 7 0.9315 -0.0013
7 -12 8 -2.0924 -0.0014
7 -12 9 3.1511 0.0033
7 -12 10 -2.6529 -0.0012
7 -12 11 1.1434 -0.0032
7 -12 12 -0.0199 0.0049
7 -11 0 1.8129 0.0068
7 -11 1 -1.7954 -0.0067
7 -11 2 1.7630 0.0030
7 -11 3 -1.9424 0.0037
7 -11 4 2.6502 -0.0082
7 -11 5 -3.0133 0.0068
7 -11 6 1.5694 -0.0022
7 -11 7 1.3962 -0.0006
7 -11 8 -3.8963 0.0008
7 -11 9 3.9835 -0.0011
7 -11 10 -1.8706 0.0026
7 -11 11 -0.4968 -0.0038
7 -11 12 1.7860 0.0034
7 -11 13 -1.7668 -0.0027
7 -11 14 1.0019 0.0033
7 -10 0 7.4208 0.0101
7 -10 1 -6.8332 -0.0034
7 -10 2 5.8045 -0.0022
7 -10 3 -4.6077 0.0058
7 -10 4 3.6465 -0.0052
7 -10 5 -2.5948 0.0012
7 -10 6 0.7092 0.0014
7 -10 7 0.9961 -0.0004
7 -10 8 -1.0024 -0.0014
7 -10 9 -0.5732 0.0009
7 -10 10 2.2844 0.0015
7 -10 11 -2.5850 -0.0034
7 -10 12 1.1858 0.0036
7 -10 13 1.2972 -0.0023
7 -10 14 -3.7665 0.0002
7 -10 15 4.7903 0.0023
7 -10 16 -4.0310 -0.0039
7 -9 0 -0.4775 -0.0088
7 -9 1 2.7313 0.0107
7 -9 2 -4.0133 -0.0081
7 -9 3 3.7895 0.0042
7 -9 4 -2.3381 -0.0003
7 -9 5 0.4418 -0.0016
7 -9 6 1.0477 0.0002
7 -9 7 -2.3684 0.0022
7 -9 8 3.8425 -0.0023
7 -9 9 -4.4222 0.0003
7 -9 10 3.3485 0.0015
7 -9 11 -0.8612 -0.0021
7 -9 12 -2.3280 0.0017
7 -9 13 5.0679 -0.0011
7 -9 14 -6.0615 0.0013
7 -9 15 4.4657 -0.0031
7 -9 16 -1.4526 0.0061
7 -9 17 -0.5272 -0.0081
7 -8 0 -7.2304 -0.0121
7 -8 1 6.4099 0.0044
7 -8 2 -3.6363 0.0037
7 -8 3 -0.1202 -0.0080
7 -8 4 3.5501 0.0077
7 -8 5 -5.7675 -0.0042
7 -8 6 6.5398 -0.0004
7 -8 7 -6.0916 0.0032
7 -8 8 4.9774 -0.0031
7 -8 9 -3.3968 0.0018
7 -8 10 1.8595 -0.0006
7 -8 11 -1.2134 -0.0007
7 -8 12 1.5144 0.0016
7 -8 13 -2.8111 -0.0018
7 -8 14 5.1927 0.0021
7 -8 15 -7.7594 -0.0030
7 -8 16 8.5783 0.0031
7 -8 17 -6.4111 -0.0008
7 -8 18 2.8431 -0.0026
7 -7 0 -4.2937 -0.0042
7 -7 1 0.9950 -0.0074
7 -7 2 1.1975 0.0135
7 -7 3 -1.4520 -0.0128
7 -7 4 0.0089 0.0079
7 -7 5 2.4649 -0.0019
7 -7 6 -5.1522 -0.0025
7 -7 7 7.3784 0.0037
7 -7 8 -8.3079 -0.0029
7 -7 9 7.2646 0.0020
7 -7 10 -4.4625 -0.0014
7 -7 11 0.6391 0.0007
7 -7 12 2.8555 -0.0001
7 -7 13 -4.9821 -0.0005
7 -7 14 5.6540 0.0018
7 -7 15 -4.7773 -0.0027
7 -7 16 2.5645 0.0008
7 -7 17 -0.0369 0.0034
7 -7 18 -1.2043 -0.0064
7 -7 19 0.4888 0.0064
7 -6 0 6.2268 0.0173
7 -6 1 -3.6478 -0.0208
7 -6 2 -0.8421 0.0163
7 -6 3 5.6835 -0.0077
7 -6 4 -9.0386 0.0001
7 -6 5 10.4027 0.0038
7 -6 6 -10.5343 -0.0034
7 -6 7 9.8052 0.0007
7 -6 8 -7.9355 0.0005
7 -6 9 4.7671 0.0008
7 -6 10 -1.5335 -0.0024
7 -6 11 -0.0346 0.0024
7 -6 12 -0.9008 -0.0016
7 -6 13 3.9106 0.0003
7 -6 14 -6.9447 0.0013
7 -6 15 8.0896 -0.0012
7 -6 16 -6.9545 -0.0018
7 -6 17 4.4460 0.0045
7 -6 18 -1.9454 -0.0037
7 -6 19 0.1131 0.0013
7 -6 20 0.8636 -0.0012
7 -5 0 4.0578 0.0174
7 -5 1 -0.3544 -0.0099
7 -5 2 -0.8009 -0.0005
7 -5 3 -1.5948 0.0075
7 -5 4 6.0632 -0.0085
7 -5 5 -9.8545 0.0045
7 -5 6 10.8000 0.0009
7 -5 7 -9.7744 -0.0037
7 -5 8 8.7705 0.0021
7 -5 9 -8.0601 0.0006
7 -5 10 6.1111 -0.0011
7 -5 11 -1.7500 0.0001
7 -5 12 -3.6930 -0.0002
7 -5 13 7.6042 0.0006
7 -5 14 -7.7760 -0.0003
7 -5 15 4.2908 0.0009
7 -5 16 -0.2903 -0.0028
7 -5 17 -1.1382 0.0027
7 -5 18 -0.2557 -0.0001
7 -5 19 2.0021 0.0002
7 -5 20 -2.0506 -0.0045
7 -5 21 0.9400 0.0070
7 -4 0 -5.3390 -0.0003
7 -4 1 0.7972 0.0102
7 -4 2 6.1233 -0.0137
7 -4 3 -12.7163 0.0097
7 -4 4 14.5638 -0.0020
7 -4 5 -10.8791 -0.0046
7 -4 6 4.7324 0.0071
7 -4 7 -0.6295 -0.0048
7 -4 8 0.4425 0.0006
7 -4 9 -1.6345 0.0010
7 -4 10 1.2393 0.0002
7 -4 11 0.8798 -0.0006
7 -4 12 -2.0016 -0.0005
7 -4 13 -0.1449 0.0003
7 -4 14 4.6990 0.0010
7 -4 15 -8.4146 -0.0004
7 -4 16 7.6877 -0.0015
7 -4 17 -2.4543 0.0007
7 -4 18 -3.0908 0.0011
7 -4 19 4.8857 0.0006
7 -4 20 -2.8960 -0.0032
7 -4 21 0.5276 -0.0003
7 -4 22 -0.0101 0.0080
7 -3 0 -0.1175 -0.0247
7 -3 1 -1.8952 0.0230
7 -3 2 2.6432 -0.0129
7 -3 3 0.8873 0.0013
7 -3 4 -9.0605 0.0061
7 -3 5 16.4944 -0.0082
7 -3 6 -17.1393 0.0062
7 -3 7 10.4227 -0.0022
7 -3 8 -0.8531 -0.0004
7 -3 9 -5.5688 -0.0005
7 -3 10 6.8293 0.0020
7 -3 11 -5.7751 -0.0012
7 -3 12 6.0681 -0.0004
7 -3 13 -8.5178 -0.0001
7 -3 14 10.1610 0.0008
7 -3 15 -8.0097 0.0003
7 -3 16 2.2444 -0.0005
7 -3 17 3.3382 -0.0026
7 -3 18 -4.1994 0.0048
7 -3 19 0.2744 -0.0028
7 -3 20 4.0144 0.0012
7 -3 21 -4.6348 -0.0043
7 -3 22 1.9711 0.0067
7 -3 23 0.6027 -0.0021
7 -2 0 -1.6752 -0.0174
7 -2 1 4.0650 0.0026
7 -2 2 -8.0003 0.0094
7 -2 3 13.6120 -0.0126
7 -2 4 -16.7828 0.0093
7 -2 5 12.7073 -0.0044
7 -2 6 -1.3988 0.0002
7 -2 7 -10.0542 0.0023
7 -2 8 14.4936 -0.0017
7 -2 9 -10.3629 -0.0010
7 -2 10 2.0688 0.0018
7 -2 11 3.7808 0.0004
7 -2 12 -4.4727 -0.0020
7 -2 13 2.3962 0.0008
7 -2 14 -1.9024 0.0008
7 -2 15 4.2263 -0.0010
7 -2 16 -6.0596 0.0019
7 -2 17 3.8763 -0.0032
7 -2 18 2.2941 0.0012
7 -2 19 -8.0690 0.0037
7 -2 20 9.0056 -0.0055
7 -2 21 -5.3754 0.0023
7 -2 22 1.1549 -0.0001
7 -2 23 0.4426 0.0016
7 -1 0 -3.4476 0.0144
7 -1 1 -0.6391 -0.0229
7 -1 2 0.2874 0.0190
7 -1 3 1.2243 -0.0078
7 -1 4 1.1036 -0.0018
7 -1 5 -7.0981 0.0056
7 -1 6 11.5297 -0.0051
7 -1 7 -7.9494 0.0022
7 -1 8 -4.0344 0.0018
7 -1 9 17.2287 -0.0038
7 -1 10 -23.8414 0.0012
7 -1 11 21.0619 0.0031
7 -1 12 -12.9826 -0.0040
7 -1 13 6.3866 0.0014
7 -1 14 -4.4888 0.0007
7 -1 15 5.1050 -0.0010
7 -1 16 -3.8583 0.0015
7 -1 17 0.0938 -0.0020
7 -1 18 2.9204 0.0003
7 -1 19 -2.3386 0.0019
7 -1 20 -1.1584 -0.0008
7 -1 21 3.8391 -0.0024
7 -1 22 -3.3259 0.0027
7 -1 23 0.7397 0.0001
7 -1 24 1.1899 -0.0015
7 0 0 16.2421 0.0271
7 0 1 -15.3864 -0.0164
7 0 2 9.3959 0.0006
7 0 3 -5.2469 0.0106
7 0 4 6.0285 -0.0118
7 0 5 -7.1832 0.0063
7 0 6 3.3528 0.0002
7 0 7 5.4558 -0.0048
7 0 8 -13.4417 0.0066
7 0 9 13.3455 -0.0047
7 0 10 -4.5765 0.0008
7 0 11 -6.4209 0.0015
7 0 12 12.2908 -0.0007
7 0 13 -10.2977 -0.0003
7 0 14 4.0227 -0.0011
7 0 15 1.2246 0.0032
7 0 16 -3.0527 -0.0029
7 0 17 3.3246 0.0011
7 0 18 -4.6904 -0.0003
7 0 19 6.5424 0.0001
7 0 20 -6.6158 0.0005
7 0 21 3.9897 -0.0002
7 0 22 -0.3886 -0.0029
7 0 23 -1.7212 0.0063
7 0 24 1.8031 -0.0063
7 1 0 10.2533 -0.0058
7 1 1 0.6204 0.0175
7 1 2 -5.5724 -0.0227
7 1 3 1.7300 0.0183
7 1 4 6.2653 -0.0080
7 1 5 -10.7747 -0.0008
7 1 6 9.7058 0.0039
7 1 7 -8.2463 -0.0029
7 1 8 11.1834 0.0007
7 1 9 -18.4049 0.0006
7 1 10 24.4046 -0.0003
7 1 11 -23.2705 -0.0013
7 1 12 15.1463 0.0025
7 1 13 -5.0829 -0.0013
7 1 14 -1.5059 -0.0016
7 1 15 2.9969 0.0033
7 1 16 -1.5042 -0.0019
7 1 17 -0.1795 -0.0005
7 1 18 0.6490 0.0015
7 1 19 -0.7654 -0.0013
7 1 20 1.2303 0.0012
7 1 21 -1.3362 -0.0012
7 1 22 0.3802 0.0010
7 1 23 1.2449 -0.0020
7 1 24 -2.1445 0.0050
7 2 0 -23.9920 -0.0132
7 2 1 25.3259 0.0136
7 2 2 -15.6458 -0.0084
7 2 3 3.2308 -0.0005
7 2 4 3.2654 0.0071
7 2 5 -1.8511 -0.0071
7 2 6 -2.8569 0.0024
7 2 7 4.4469 0.0019
7 2 8 -2.4101 -0.0027
7 2 9 0.9029 0.0011
7 2 10 -2.7787 0.0008
7 2 11 7.4976 -0.0017
7 2 12 -10.9913 0.0012
7 2 13 9.9853 0.0004
7 2 14 -4.9736 -0.0016
7 2 15 -1.1076 0.0011
7 2 16 5.3808 0.0006
7 2 17 -7.0101 -0.0014
7 2 18 6.2984 0.0005
7 2 19 -4.3241 0.0006
7 2 20 2.1751 -0.0003
7 2 21 -0.1032 -0.0009
7 2 22 -1.4889 0.0028
7 2 23 2.1115 -0.0056
7 2 24 -1.6243 0.0085
7 3 0 -9.8153 -0.0104
7 3 1 1.6125 0.0038
7 3 2 5.6602 0.0044
7 3 3 -4.1630 -0.0094
7 3 4 -5.4627 0.0075
7 3 5 15.5256 -0.0004
7 3 6 -20.3514 -0.0056
7 3 7 19.1723 0.0066
7 3 8 -15.5156 -0.0038
7 3 9 13.2837 0.0009
7 3 10 -11.9833 0.0003
7 3 11 9.5385 -0.0003
7 3 12 -5.0467 -0.0001
7 3 13 -0.3907 0.0003
7 3 14 4.2081 0.0001
7 3 15 -5.1851 -0.0009
7 3 16 3.9271 0.0013
7 3 17 -2.1799 -0.0007
7 3 18 1.0906 -0.0000
7 3 19 -0.8291 0.0004
7 3 20 1.4089 -0.0006
7 3 21 -2.2276 0.0007
7 3 22 2.8855 0.0004
7 3 23 -3.2650 -0.0028
7 3 24 3.0835 0.0039
7 4 0 21.7258 0.0065
7 4 1 -22.4913 -0.0138
7 4 2 15.6540 0.0151
7 4 3 -4.7936 -0.0092
7 4 4 -2.9548 -0.0007
7 4 5 2.8206 0.0079
7 4 6 2.3675 -0.0086
7 4 7 -7.0019 0.0049
7 4 8 8.6847 -0.0011
7 4 9 -7.5603 -0.0004
7 4 10 6.0884 0.0004
7 4 11 -5.7637 -0.0004
7 4 12 5.2438 0.0006
7 4 13 -3.0966 -0.0008
7 4 14 -0.6511 0.0007
7 4 15 3.9203 -0.0002
7 4 16 -4.8218 -0.0003
7 4 17 3.4174 0.0002
7 4 18 -1.2952 0.0002
7 4 19 0.2370 0.0004
7 4 20 -0.1475 -0.0020
7 4 21 -0.0041 0.0025
7 4 22 0.8097 -0.0009
7 4 23 -1.8866 0.0003
7 4 24 2.1411 -0.0037
7 5 0 4.3261 0.0210
7 5 1 2.4699 -0.0126
7 5 2 -7.6022 0.0008
7 5 3 5.5125 0.0089
7 5 4 2.7095 -0.0122
7 5 5 -11.3106 0.0090
7 5 6 14.3026 -0.0032
7 5 7 -10.2418 -0.0005
7 5 8 3.9713 0.0008
7 5 9 0.3419 0.0001
7 5 10 -2.0922 -0.0002
7 5 11 2.7967 -0.0006
7 5 12 -4.7607 0.0012
7 5 13 7.5795 -0.0011
7 5 14 -8.6723 0.0000
7 5 15 6.3713 0.0012
7 5 16 -2.3218 -0.0015
7 5 17 0.3575 0.0006
7 5 18 -2.1708 -0.0001
7 5 19 6.1632 0.0007
7 5 20 -8.7444 -0.0010
7 5 21 7.6984 -0.0002
7 5 22 -4.2924 0.0005
7 5 23 1.3151 0.0032
7 5 24 -0.3531 -0.0091
7 6 0 -21.1374 0.0049
7 6 1 21.0006 0.0063
7 6 2 -11.7428 -0.0109
7 6 3 -1.8098 0.0083
7 6 4 10.2353 -0.0018
7 6 5 -8.3922 -0.0034
7 6 6 0.0538 0.0041
7 6 7 7.3877 -0.0012
7 6 8 -7.9903 -0.0016
7 6 9 2.4882 0.0021
7 6 10 3.0729 -0.0009
7 6 11 -5.0231 -0.0003
7 6 12 4.1073 0.0009
7 6 13 -3.7965 -0.0004
7 6 14 6.0518 -0.0008
7 6 15 -8.7768 0.0021
7 6 16 8.3105 -0.0024
7 6 17 -3.2347 0.0019
7 6 18 -3.1681 -0.0017
7 6 19 6.2740 0.0013
7 6 20 -4.5365 0.0002
7 6 21 0.2733 -0.0016
7 6 22 2.4078 0.0009
7 6 23 -1.7240 0.0015
7 6 24 -0.6408 -0.0022
7 7 0 -12.8675 -0.0175
7 7 1 -0.2482 0.0158
7 7 2 13.7559 -0.0081
7 7 3 -17.8964 -0.0012
7 7 4 10.0876 0.0072
7 7 5 3.1237 -0.0073
7 7 6 -10.3287 0.0033
7 7 7 6.5317 0.0004
7 7 8 3.9967 -0.0016
7 7 9 -12.9542 0.0014
7 7 10 14.3484 -0.0012
7 7 11 -10.0966 0.0007
7 7 12 6.2798 0.0002
7 7 13 -6.0815 -0.0007
7 7 14 7.6825 0.0006
7 7 15 -7.4172 -0.0005
7 7 16 4.7981 0.0010
7 7 17 -2.3935 -0.0011
7 7 18 3.1552 0.0004
7 7 19 -7.3333 0.0002
7 7 20 11.5413 -0.0001
7 7 21 -12.2091 0.0000
7 7 22 8.5418 -0.0002
7 7 23 -3.2248 -0.0007
7 7 24 -0.2597 0.0029
7 8 0 5.8428 -0.0110
7 8 1 -16.1725 0.0013
7 8 2 14.3090 0.0075
7 8 3 0.0237 -0.0127
7 8 4 -16.4665 0.0121
7 8 5 24.1111 -0.0067
7 8 6 -18.8608 0.0009
7 8 7 6.8351 0.0018
7 8 8 1.0551 -0.0021
7 8 9 0.3497 0.0024
7 8 10 -7.8990 -0.0029
7 8 11 13.9082 0.0023
7 8 12 -13.6436 -0.0012
7 8 13 9.2184 0.0006
7 8 14 -5.2556 -0.0002
7 8 15 3.7206 -0.0008
7 8 16 -2.6821 0.0019
7 8 17 0.3419 -0.0019
7 8 18 2.6181 0.0012
7 8 19 -4.6011 -0.0008
7 8 20 4.1352 0.0005
7 8 21 -1.4279 0.0001
7 8 22 -1.5047 -0.0003
7 8 23 2.4661 -0.0007
7 8 24 -1.1932 0.0014
7 9 0 12.9757 0.0064
7 9 1 -10.3263 -0.0103
7 9 2 -2.5565 0.0102
7 9 3 16.3340 -0.0074
7 9 4 -20.0051 0.0023
7 9 5 11.8301 0.0027
7 9 6 0.5218 -0.0040
7 9 7 -7.4511 0.0016
7 9 8 4.2931 0.0008
7 9 9 4.6989 -0.0009
7 9 10 -11.1983 0.0001
7 9 11 10.5905 -0.0001
7 9 12 -5.1868 0.0003
7 9 13 0.9538 -0.0002
7 9 14 -0.7792 0.0004
7 9 15 3.2393 -0.0011
7 9 16 -5.6133 0.0013
7 9 17 6.9655 -0.0009
7 9 18 -8.0616 0.0007
7 9 19 8.7726 -0.0010
7 9 20 -8.6163 0.0008
7 9 21 7.4439 -0.0002
7 9 22 -5.1938 0.0003
7 9 23 2.3121 -0.0007
7 10 0 14.1724 0.0124
7 10 1 -7.2667 -0.0056
7 10 2 -0.3495 -0.0010
7 10 3 0.4508 0.0048
7 10 4 8.7111 -0.0061
7 10 5 -20.2193 0.0051
7 10 6 25.1048 -0.0014
7 10 7 -20.9107 -0.0023
7 10 8 12.0782 0.0028
7 10 9 -5.6151 -0.0006
7 10 10 5.2891 -0.0012
7 10 11 -8.8185 0.0010
7 10 12 10.8553 -0.0001
7 10 13 -8.2808 -0.0005
7 10 14 3.3014 0.0008
7 10 15 0.2994 -0.0009
7 10 16 -1.3537 0.0004
7 10 17 0.8695 0.0004
7 10 18 -0.2108 -0.0006
7 10 19 -0.4562 0.0000
7 10 20 1.0984 0.0008
7 10 21 -1.2545 -0.0015
7 10 22 0.9639 0.0019
7 10 23 -0.4795 -0.0017
7 11 0 1.6323 0.0001
7 11 1 5.8507 0.0086
7 11 2 -8.2613 -0.0106
7 11 3 3.3329 0.0074
7 11 4 4.1251 -0.0033
7 11 5 -7.3309 0.0000
7 11 6 4.0878 0.0028
7 11 7 1.5284 -0.0041
7 11 8 -4.3492 0.0028
7 11 9 2.6684 -0.0005
7 11 10 1.2592 -0.0002
7 11 11 -3.7801 -0.0007
7 11 12 3.3246 0.0013
7 11 13 -1.3756 -0.0010
7 11 14 1.1253 0.0005
7 11 15 -3.4952 0.0001
7 11 16 5.9380 -0.0010
7 11 17 -6.4829 0.0018
7 11 18 5.4405 -0.0017
7 11 19 -4.0777 0.0007
7 11 20 2.8034 -0.0004
7 11 21 -1.2788 0.0017
7 11 22 -0.1370 -0.0032
7 12 0 -11.8907 -0.0141
7 12 1 16.7548 0.0129
7 12 2 -15.5303 -0.0064
7 12 3 10.8086 -0.0002
7 12 4 -7.7481 0.0031
7 12 5 8.5430 -0.0037
7 12 6 -10.7818 0.0037
7 12 7 11.1121 -0.0031
7 12 8 -9.1521 0.0014
7 12 9 6.5284 0.0002
7 12 10 -4.5192 -0.0004
7 12 11 3.2584 -0.0003
7 12 12 -1.7453 0.0005
7 12 13 -0.4843 0.0001
7 12 14 2.7102 -0.0007
7 12 15 -3.3807 0.0008
7 12 16 1.4006 -0.0008
7 12 17 1.4059 0.0009
7 12 18 -2.2093 -0.0006
7 12 19 0.7185 0.0008
7 12 20 1.0039 -0.0029
7 12 21 -1.3427 0.0059
7 13 0 -2.7314 -0.0048
7 13 1 1.6754 0.0013
7 13 2 1.5758 0.0024
7 13 3 -4.4256 -0.0039
7 13 4 5.2617 0.0031
7 13 5 -4.4657 -0.0019
7 13 6 3.1641 0.0015
7 13 7 -1.7235 -0.0015
7 13 8 -0.3079 0.0011
7 13 9 2.1612 -0.0008
7 13 10 -2.2519 0.0009
7 13 11 0.6998 -0.0009
7 13 12 1.0102 0.0002
7 13 13 -1.0128 0.0007
7 13 14 -1.5856 -0.0009
7 13 15 5.2946 0.0004
7 13 16 -7.3667 -0.0006
7 13 17 5.6640 0.0013
7 13 18 -1.0206 -0.0016
7 13 19 -2.9291 0.0017
7 13 20 3.6868 -0.0027
7 14 0 7.4598 0.0023
7 14 1 -7.5071 -0.0034
7 14 2 7.8450 0.0034
7 14 3 -8.4774 -0.0021
7 14 4 8.5525 0.0000
7 14 5 -6.9805 0.0016
7 14 6 3.3510 -0.0018
7 14 7 0.8252 0.0009
7 14 8 -3.4330 -0.0002
7 14 9 3.1935 0.0003
7 14 10 -0.4961 -0.0008
7 14 11 -1.8892 0.0012
7 14 12 1.3793 -0.0013
7 14 13 2.0174 0.0007
7 14 14 -5.9051 -0.0001
7 14 15 6.9129 0.0004
7 14 16 -3.8666 -0.0015
7 14 17 -0.9328 0.0011
7 14 18 3.7656 0.0018
7 14 19 -2.8430 -0.0043
7 15 0 -2.4729 0.0059
7 15 1 4.2657 -0.0036
7 15 2 -2.2837 0.0007
7 15 3 -1.2220 0.0023
7 15 4 2.5410 -0.0045
7 15 5 -0.6680 0.0049
7 15 6 -2.3811 -0.0033
7 15 7 3.3532 0.0010
7 15 8 -0.8956 0.0003
7 15 9 -3.3486 -0.0002
7 15 10 6.7949 0.0000
7 15 11 -7.0901 -0.0007
7 15 12 3.7794 0.0013
7 15 13 0.5098 -0.0007
7 15 14 -2.3118 -0.0015
7 15 15 0.3892 0.0033
7 15 16 2.8952 -0.0020
7 15 17 -4.0927 -0.0030
7 15 18 2.4126 0.0079
7 16 0 -10.0331 0.0024
7 16 1 6.5330 0.0019
7 16 2 -0.5476 -0.0044
7 16 3 -3.0052 0.0049
7 16 4 1.8138 -0.0039
7 16 5 1.4765 0.0021
7 16 6 -2.9843 -0.0005
7 16 7 1.1878 -0.0002
7 16 8 2.7062 0.0001
7 16 9 -6.0097 0.0002
7 16 10 6.7503 0.0001
7 16 11 -4.5128 -0.0006
7 16 12 0.7969 -0.0000
7 16 13 1.3280 0.0015
7 16 14 -0.2364 -0.0016
7 16 15 -2.3763 -0.0015
7 16 16 3.4166 0.0068
7 16 17 -2.0787 -0.0100
7 17 0 -3.6711 -0.0072
7 17 1 -1.4256 0.0062
7 17 2 3.9181 -0.0043
7 17 3 -2.1344 0.0019
7 17 4 -2.0870 0.0000
7 17 5 5.0186 -0.0000
7 17 6 -4.6393 -0.0016
7 17 7 2.0207 0.0028
7 17 8 0.5623 -0.0024
7 17 9 -1.3011 0.0016
7 17 10 -0.1395 -0.0018
7 17 11 2.4578 0.0027
7 17 12 -3.5435 -0.0026
7 17 13 2.0926 0.0004
7 17 14 0.7061 0.0038
7 17 15 -2.3406 -0.0076
7 18 0 3.6730 0.0007
7 18 1 -4.9726 -0.0015
7 18 2 3.3304 0.0025
7 18 3 -0.0426 -0.0044
7 18 4 -2.4867 0.0045
7 18 5 2.5850 -0.0015
7 18 6 -0.6336 -0.0012
7 18 7 -1.2602 -0.0001
7 18 8 1.2800 0.0031
7 18 9 0.6704 -0.0032
7 18 10 -3.0919 0.0003
7 18 11 4.3106 0.0011
7 18 12 -3.7430 0.0013
7 18 13 2.0868 -0.0049
7 19 0 4.5302 0.0026
7 19 1 -4.6663 -0.0034
7 19 2 3.3751 0.0058
7 19 3 -1.8870 -0.0061
7 19 4 1.5236 0.0013
7 19 5 -2.6008 0.0053
7 19 6 3.9058 -0.0068
7 19 7 -3.9319 0.0032
7 19 8 2.5362 -0.0013
7 19 9 -0.8695 0.0044
7 19 10 0.0918 -0.0070
7 20 0 1.7659 -0.0034
7 20 1 -1.5238 -0.0001
7 20 2 0.6384 0.0007
7 20 3 0.0573 0.0040
7 20 4 -0.0594 -0.0106
8 -13 0 -1.0654 -0.0087
8 -13 1 2.0978 0.0096
8 -13 2 -3.8982 -0.0075
8 -13 3 5.8278 0.0050
8 -13 4 -6.4257 -0.0019
8 -13 5 4.9585 -0.0033
8 -13 6 -2.5352 0.0085
8 -12 0 0.4393 -0.0182
8 -12 1 -0.9305 0.0150
8 -12 2 1.3855 -0.0073
8 -12 3 -2.4131 0.0011
8 -12 4 4.3844 0.0014
8 -12 5 -6.3945 -0.0018
8 -12 6 6.5074 0.0011
8 -12 7 -4.0888 0.0003
8 -12 8 1.0002 -0.0003
8 -12 9 0.5587 -0.0026
8 -11 0 5.4495 -0.0094
8 -11 1 -7.6634 -0.0006
8 -11 2 8.7464 0.0091
8 -11 3 -9.2632 -0.0089
8 -11 4 9.4639 0.0024
8 -11 5 -8.5440 0.0028
8 -11 6 5.8215 -0.0035
8 -11 7 -2.3462 0.0015
8 -11 8 0.4910 0.0008
8 -11 9 -1.0231 -0.0023
8 -11 10 2.4182 0.0027
8 -11 11 -3.0605 -0.0026
8 -11 12 2.5910 0.0034
8 -10 0 0.6987 0.0039
8 -10 1 2.0237 -0.0089
8 -10 2 -5.1475 0.0074
8 -10 3 7.1468 0.0005
8 -10 4 -7.6383 -0.0066
8 -10 5 7.7114 0.0054
8 -10 6 -7.5176 -0.0006
8 -10 7 5.9589 -0.0025
8 -10 8 -2.4857 0.0022
8 -10 9 -1.4546 -0.0007
8 -10 10 3.6194 -0.0001
8 -10 11 -3.4977 -0.0011
8 -10 12 1.9376 0.0034
8 -10 13 0.0642 -0.0050
8 -10 14 -1.5358 0.0052
8 -9 0 -6.4968 0.0124
8 -9 1 8.7763 -0.0068
8 -9 2 -8.9816 -0.0021
8 -9 3 7.3922 0.0092
8 -9 4 -4.9133 -0.0097
8 -9 5 2.7715 0.0053
8 -9 6 -0.7705 -0.0015
8 -9 7 -1.5584 0.0006
8 -9 8 3.1964 -0.0011
8 -9 9 -2.9933 0.0012
8 -9 10 1.1635 0.0000
8 -9 11 0.8075 -0.0025
8 -9 12 -1.9165 0.0040
8 -9 13 2.2369 -0.0030
8 -9 14 -1.5745 0.0010
8 -9 15 -0.1088 -0.0011
8 -9 16 1.8161 0.0030
8 -8 0 0.2665 -0.0030
8 -8 1 -2.6628 0.0088
8 -8 2 5.0992 -0.0113
8 -8 3 -6.6676 0.0095
8 -8 4 7.2683 -0.0048
8 -8 5 -6.7682 0.0010
8 -8 6 5.1081 0.0000
8 -8 7 -2.3139 0.0008
8 -8 8 -1.6189 -0.0017
8 -8 9 5.2507 0.0013
8 -8 10 -6.5686 0.0012
8 -8 11 5.4557 -0.0041
8 -8 12 -3.4856 0.0042
8 -8 13 2.0246 -0.0017
8 -8 14 -0.8705 0.0007
8 -8 15 -0.3328 -0.0030
8 -8 16 0.7793 0.0046
8 -8 17 -0.0167 -0.0017
8 -7 0 6.1492 -0.0094
8 -7 1 -5.9929 0.0081
8 -7 2 4.4600 -0.0032
8 -7 3 -2.3714 -0.0021
8 -7 4 0.4501 0.0051
8 -7 5 1.4227 -0.0045
8 -7 6 -3.8288 0.0019
8 -7 7 6.2264 0.0004
8 -7 8 -7.1842 -0.0011
8 -7 9 5.5238 0.0001
8 -7 10 -1.7265 0.0021
8 -7 11 -1.4109 -0.0028
8 -7 12 1.7090 0.0008
8 -7 13 0.1899 0.0010
8 -7 14 -2.1752 0.0008
8 -7 15 3.0043 -0.0035
8 -7 16 -3.1905 0.0015
8 -7 17 3.2307 0.0039
8 -7 18 -2.7970 -0.0062
8 -6 0 -1.3802 -0.0091
8 -6 1 3.7731 -0.0000
8 -6 2 -4.3864 0.0074
8 -6 3 2.9426 -0.0094
8 -6 4 -0.3682 0.0060
8 -6 5 -1.8893 -0.0006
8 -6 6 3.0332 -0.0029
8 -6 7 -4.0657 0.0032
8 -6 8 6.4761 -0.0019
8 -6 9 -9.7128 -0.0002
8 -6 10 11.5175 0.0019
8 -6 11 -9.8351 -0.0017
8 -6 12 5.1555 -0.0002
8 -6 13 -0.7447 0.0006
8 -6 14 -0.8097 0.0009
8 -6 15 -0.2893 -0.0006
8 -6 16 1.7697 -0.0029
8 -6 17 -1.7484 0.0040
8 -6 18 0.4755 0.0008
8 -6 19 0.7420 -0.0064
8 -5 0 -9.6618 0.0128
8 -5 1 7.4368 -0.0185
8 -5 2 -2.7261 0.0166
8 -5 3 -2.2545 -0.0088
8 -5 4 4.9933 0.0001
8 -5 5 -4.4360 0.0048
8 -5 6 2.2104 -0.0051
8 -5 7 -1.2627 0.0037
8 -5 8 2.8702 -0.0029
8 -5 9 -4.8721 0.0017
8 -5 10 4.3913 -0.0004
8 -5 11 -1.3714 0.0004
8 -5 12 -1.5473 -0.0009
8 -5 13 1.2012 -0.0004
8 -5 14 2.6275 0.0021
8 -5 15 -6.5741 -0.0009
8 -5 16 7.1938 -0.0020
8 -5 17 -4.1271 0.0018
8 -5 18 0.4594 0.0001
8 -5 19 0.8077 0.0022
8 -5 20 0.2407 -0.0082
8 -4 0 -4.7357 0.0201
8 -4 1 1.0900 -0.0108
8 -4 2 1.9616 -0.0002
8 -4 3 -0.9435 0.0083
8 -4 4 -4.5553 -0.0102
8 -4 5 11.2586 0.0068
8 -4 6 -14.3981 -0.0028
8 -4 7 12.0737 0.0014
8 -4 8 -7.1617 -0.0016
8 -4 9 4.3013 0.0012
8 -4 10 -5.2087 -0.0008
8 -4 11 6.9595 0.0014
8 -4 12 -5.9579 -0.0010
8 -4 13 1.6362 -0.0015
8 -4 14 3.1523 0.0028
8 -4 15 -4.3536 -0.0004
8 -4 16 1.2450 -0.0022
8 -4 17 2.6472 0.0018
8 -4 18 -3.2292 -0.0019
8 -4 19 0.0861 0.0054
8 -4 20 3.2163 -0.0075
8 -4 21 -3.6853 0.0032
8 -3 0 9.8602 0.0002
8 -3 1 -11.3417 0.0086
8 -3 2 9.1646 -0.0121
8 -3 3 -2.0732 0.0100
8 -3 4 -5.4734 -0.0044
8 -3 5 7.6980 -0.0009
8 -3 6 -3.2971 0.0024
8 -3 7 -3.4286 -0.0006
8 -3 8 6.3533 -0.0008
8 -3 9 -3.4941 0.0007
8 -3 10 -1.8159 -0.0005
8 -3 11 4.5786 0.0006
8 -3 12 -3.1061 0.0008
8 -3 13 0.3196 -0.0027
8 -3 14 0.0986 0.0021
8 -3 15 3.0924 0.0005
8 -3 16 -7.2153 -0.0008
8 -3 17 7.9519 -0.0013
8 -3 18 -4.2929 0.0013
8 -3 19 -0.5218 0.0006
8 -3 20 2.5218 0.0006
8 -3 21 -1.2900 -0.0048
8 -3 22 -0.4425 0.0054
8 -2 0 9.5195 -0.0236
8 -2 1 -9.4894 0.0180
8 -2 2 4.8415 -0.0079
8 -2 3 0.9409 -0.0019
8 -2 4 -1.8663 0.0086
8 -2 5 -3.8983 -0.0101
8 -2 6 11.1045 0.0065
8 -2 7 -13.2836 -0.0020
8 -2 8 8.5602 -0.0001
8 -2 9 -0.9571 0.0006
8 -2 10 -3.7453 -0.0015
8 -2 11 3.2804 0.0022
8 -2 12 0.0563 -0.0015
8 -2 13 -1.7682 0.0007
8 -2 14 -0.1273 -0.0013
8 -2 15 3.6775 0.0015
8 -2 16 -5.4854 0.0007
8 -2 17 3.7040 -0.0030
8 -2 18 -0.4057 0.0024
8 -2 19 -0.8570 -0.0010
8 -2 20 -0.8271 0.0022
8 -2 21 3.1453 -0.0034
8 -2 22 -3.5418 0.0011
8 -1 0 -5.1794 -0.0147
8 -1 1 7.3468 -0.0032
8 -1 2 -10.9582 0.0140
8 -1 3 10.4409 -0.0168
8 -1 4 -4.0319 0.0143
8 -1 5 -4.4453 -0.0087
8 -1 6 8.2217 0.0031
8 -1 7 -5.0482 -0.0004
8 -1 8 -0.8611 0.0006
8 -1 9 3.7911 -0.0008
8 -1 10 -1.3088 -0.0001
8 -1 11 -3.9200 0.0007
8 -1 12 7.3796 -0.0003
8 -1 13 -6.5411 0.0003
8 -1 14 2.8127 -0.0010
8 -1 15 -0.0735 0.0003
8 -1 16 0.1948 0.0016
8 -1 17 -1.9287 -0.0020
8 -1 18 2.4958 -0.0003
8 -1 19 -0.5471 0.0022
8 -1 20 -2.2049 -0.0021
8 -1 21 3.4672 0.0021
8 -1 22 -2.7524 -0.0035
8 -1 23 1.4294 0.0036
8 0 0 -1.3771 0.0252
8 0 1 5.8925 -0.0281
8 0 2 -7.1532 0.0191
8 0 3 2.2193 -0.0077
8 0 4 4.9244 -0.0003
8 0 5 -8.4689 0.0039
8 0 6 5.7537 -0.0041
8 0 7 0.0776 0.0020
8 0 8 -2.8151 0.0001
8 0 9 0.2020 -0.0004
8 0 10 4.9492 -0.0004
8 0 11 -8.1042 0.0009
8 0 12 7.1795 -0.0009
8 0 13 -3.9921 0.0009
8 0 14 1.7193 -0.0001
8 0 15 -2.3039 -0.0015
8 0 16 4.4741 0.0021
8 0 17 -5.6526 -0.0002
8 0 18 4.9811 -0.0025
8 0 19 -3.3290 0.0027
8 0 20 2.2414 -0.0006
8 0 21 -2.0646 -0.0010
8 0 22 2.0157 0.0015
8 0 23 -1.5377 -0.0030
8 1 0 3.1139 0.0283
8 1 1 1.9761 -0.0122
8 1 2 -1.2721 -0.0040
8 1 3 -2.5006 0.0113
8 1 4 2.8843 -0.0103
8 1 5 2.5274 0.0061
8 1 6 -9.9426 -0.0018
8 1 7 14.1687 -0.0014
8 1 8 -12.5806 0.0028
8 1 9 7.8787 -0.0019
8 1 10 -4.6722 -0.0002
8 1 11 4.3977 0.0019
8 1 12 -5.3267 -0.0020
8 1 13 5.0381 0.0008
8 1 14 -3.2652 0.0007
8 1 15 1.2872 -0.0009
8 1 16 -0.3183 -0.0009
8 1 17 0.5817 0.0030
8 1 18 -0.8287 -0.0033
8 1 19 0.3166 0.0019
8 1 20 0.6770 -0.0012
8 1 21 -1.4972 0.0026
8 1 22 1.6976 -0.0042
8 1 23 -1.4766 0.0032
8 2 0 -7.5350 -0.0032
8 2 1 5.7061 0.0196
8 2 2 -1.3238 -0.0241
8 2 3 0.0500 0.0177
8 2 4 -4.0045 -0.0086
8 2 5 9.7765 0.0021
8 2 6 -11.6171 0.0017
8 2 7 8.5895 -0.0037
8 2 8 -3.8747 0.0036
8 2 9 1.0127 -0.0015
8 2 10 -1.3585 -0.0005
8 2 11 2.9419 0.0008
8 2 12 -3.9273 0.0002
8 2 13 4.4643 -0.0007
8 2 14 -5.6299 -0.0003
8 2 15 7.3965 0.0017
8 2 16 -8.2266 -0.0015
8 2 17 7.3481 -0.0012
8 2 18 -4.9849 0.0046
8 2 19 2.1696 -0.0057
8 2 20 -0.0226 0.0034
8 2 21 -1.2583 0.0001
8 2 22 1.8216 -0.0012
8 2 23 -1.9539 -0.0011
8 2 24 1.6713 0.0033
8 3 0 2.5230 -0.0278
8 3 1 -11.6647 0.0260
8 3 2 15.5908 -0.0138
8 3 3 -14.0019 0.0011
8 3 4 11.5686 0.0053
8 3 5 -11.8117 -0.0064
8 3 6 15.0600 0.0055
8 3 7 -17.7157 -0.0038
8 3 8 16.5949 0.0014
8 3 9 -12.7715 0.0002
8 3 10 8.5550 0.0004
8 3 11 -5.4942 -0.0017
8 3 12 3.3655 0.0013
8 3 13 -1.1312 0.0011
8 3 14 -0.8697 -0.0035
8 3 15 1.3505 0.0037
8 3 16 0.4663 -0.0014
8 3 17 -3.0615 -0.0014
8 3 18 4.1747 0.0027
8 3 19 -3.0894 -0.0014
8 3 20 0.4861 -0.0006
8 3 21 1.9577 0.0003
8 3 22 -3.0492 0.0036
8 3 23 2.6847 -0.0077
8 3 24 -1.6453 0.0078
8 4 0 10.4625 -0.0150
8 4 1 -8.2913 0.0038
8 4 2 2.6540 0.0059
8 4 3 1.0882 -0.0087
8 4 4 0.2797 0.0061
8 4 5 -3.5954 -0.0028
8 4 6 4.5606 0.0008
8 4 7 -2.2063 0.0003
8 4 8 -1.5762 -0.0002
8 4 9 3.1659 -0.0017
8 4 10 -1.6625 0.0037
8 4 11 -0.8218 -0.0037
8 4 12 2.4403 0.0017
8 4 13 -2.9932 0.0001
8 4 14 3.9993 -0.0002
8 4 15 -6.1565 -0.0008
8 4 16 8.2072 0.0018
8 4 17 -7.7613 -0.0022
8 4 18 3.6656 0.0015
8 4 19 1.9722 -0.0001
8 4 20 -5.9720 0.0000
8 4 21 6.4451 -0.0028
8 4 22 -4.0252 0.0062
8 4 23 1.1240 -0.0061
8 4 24 0.4163 0.0020
8 5 0 -13.0485 0.0088
8 5 1 23.8480 -0.0147
8 5 2 -25.8746 0.0140
8 5 3 20.4485 -0.0082
8 5 4 -13.4559 0.0021
8 5 5 10.9826 0.0018
8 5 6 -13.5958 -0.0037
8 5 7 15.8102 0.0035
8 5 8 -13.7366 -0.0014
8 5 9 7.7172 -0.0012
8 5 10 -1.3131 0.0018
8 5 11 -1.6847 -0.0004
8 5 12 1.3268 -0.0006
8 5 13 -0.3087 0.0002
8 5 14 0.8950 0.0005
8 5 15 -2.4018 -0.0005
8 5 16 2.2861 0.0005
8 5 17 0.3852 -0.0004
8 5 18 -3.9067 -0.0004
8 5 19 4.8202 0.0014
8 5 20 -1.5625 -0.0012
8 5 21 -3.6888 0.0001
8 5 22 7.1447 -0.0008
8 5 23 -6.6026 0.0038
8 5 24 3.4237 -0.0060
8 6 0 -15.0319 0.0172
8 6 1 9.5827 -0.0117
8 6 2 3.6874 0.0031
8 6 3 -13.7580 0.0045
8 6 4 13.8979 -0.0081
8 6 5 -6.5279 0.0083
8 6 6 -1.0343 -0.0066
8 6 7 2.1961 0.0037
8 6 8 2.3323 -0.0006
8 6 9 -6.4292 -0.0003
8 6 10 5.8421 -0.0009
8 6 11 -0.9950 0.0016
8 6 12 -3.6681 -0.0003
8 6 13 4.5733 -0.0012
8 6 14 -2.2787 0.0009
8 6 15 0.0207 0.0000
8 6 16 -0.0504 -0.0002
8 6 17 0.8777 0.0000
8 6 18 0.1791 -0.0003
8 6 19 -3.9791 0.0004
8 6 20 8.5603 0.0003
8 6 21 -10.4528 -0.0002
8 6 22 8.2188 -0.0014
8 6 23 -3.6746 0.0026
8 6 24 0.2392 -0.0015
8 7 0 5.0806 0.0003
8 7 1 -20.4355 0.0088
8 7 2 28.6032 -0.0135
8 7 3 -23.2998 0.0118
8 7 4 8.8274 -0.0065
8 7 5 3.5154 0.0023
8 7 6 -6.8624 -0.0007
8 7 7 2.5842 0.0002
8 7 8 2.3329 -0.0006
8 7 9 -1.5577 0.0022
8 7 10 -4.0589 -0.0029
8 7 11 8.8384 0.0011
8 7 12 -8.4493 0.0014
8 7 13 3.9015 -0.0014
8 7 14 0.2187 -0.0007
8 7 15 -1.1247 0.0019
8 7 16 -0.5601 -0.0012
8 7 17 2.1532 0.0005
8 7 18 -2.1911 -0.0004
8 7 19 1.5456 0.0004
8 7 20 -1.5010 -0.0008
8 7 21 2.6483 0.0024
8 7 22 -4.0324 -0.0040
8 7 23 4.1114 0.0040
8 8 0 6.5736 -0.0141
8 8 1 -11.5953 0.0147
8 8 2 4.2965 -0.0084
8 8 3 9.3076 -0.0004
8 8 4 -18.7944 0.0050
8 8 5 17.1852 -0.0036
8 8 6 -7.2058 0.0007
8 8 7 -2.3426 0.0005
8 8 8 5.2652 -0.0008
8 8 9 -1.8031 0.0011
8 8 10 -2.1587 -0.0001
8 8 11 1.5918 -0.0022
8 8 12 2.6085 0.0028
8 8 13 -5.5503 -0.0006
8 8 14 3.8731 -0.0013
8 8 15 0.8224 0.0007
8 8 16 -5.3048 0.0008
8 8 17 7.8800 -0.0009
8 8 18 -8.4159 0.0001
8 8 19 7.7515 0.0001
8 8 20 -6.5507 -0.0004
8 8 21 5.3530 0.0009
8 8 22 -4.1821 -0.0005
8 8 23 2.7705 -0.0008
8 9 0 7.6715 -0.0109
8 9 1 -2.9071 0.0021
8 9 2 -6.7381 0.0073
8 9 3 11.4387 -0.0117
8 9 4 -6.4564 0.0090
8 9 5 -4.8378 -0.0036
8 9 6 14.5507 0.0005
8 9 7 -16.7584 -0.0000
8 9 8 12.4926 -0.0007
8 9 9 -7.3001 0.0014
8 9 10 5.8937 -0.0004
8 9 11 -8.0194 -0.0014
8 9 12 9.3814 0.0013
8 9 13 -7.1589 -0.0000
8 9 14 2.7846 0.0001
8 9 15 -0.2056 -0.0013
8 9 16 1.0725 0.0010
8 9 17 -3.7269 0.0008
8 9 18 6.4407 -0.0015
8 9 19 -8.0821 0.0004
8 9 20 7.9546 0.0011
8 9 21 -6.0640 -0.0023
8 9 22 3.4986 0.0034
8 9 23 -1.5828 -0.0035
8 10 0 6.2056 0.0065
8 10 1 2.6176 -0.0104
8 10 2 -8.5807 0.0111
8 10 3 7.0350 -0.0079
8 10 4 -0.5952 0.0021
8 10 5 -4.1923 0.0027
8 10 6 3.5984 -0.0042
8 10 7 1.0211 0.0036
8 10 8 -5.2551 -0.0028
8 10 9 5.9701 0.0014
8 10 10 -3.5643 0.0007
8 10 11 1.0792 -0.0017
8 10 12 -0.9218 0.0007
8 10 13 1.7626 0.0002
8 10 14 -0.7542 0.0004
8 10 15 -2.9578 -0.0008
8 10 16 7.2256 -0.0004
8 10 17 -9.1366 0.0020
8 10 18 8.4482 -0.0016
8 10 19 -6.4983 -0.0001
8 10 20 4.2516 0.0010
8 10 21 -2.3146 -0.0002
8 10 22 1.1534 -0.0013
8 11 0 -4.5565 0.0058
8 11 1 10.2971 -0.0029
8 11 2 -10.8381 0.0013
8 11 3 7.4758 0.0004
8 11 4 -4.6639 -0.0031
8 11 5 5.2721 0.0044
8 11 6 -8.0322 -0.0027
8 11 7 10.0636 0.0001
8 11 8 -10.0863 0.0009
8 11 9 9.0490 0.0000
8 11 10 -8.1667 -0.0017
8 11 11 7.7377 0.0029
8 11 12 -7.3062 -0.0029
8 11 13 5.5806 0.0012
8 11 14 -2.7350 0.0010
8 11 15 1.1320 -0.0012
8 11 16 -2.3855 -0.0005
8 11 17 5.5346 0.0016
8 11 18 -7.6058 -0.0005
8 11 19 6.9354 -0.0009
8 11 20 -4.5989 -0.0004
8 11 21 2.2903 0.0035
8 11 22 -0.8408 -0.0051
8 12 0 1.3956 -0.0006
8 12 1 -2.4497 0.0026
8 12 2 5.3533 -0.0025
8 12 3 -8.0082 0.0032
8 12 4 8.7179 -0.0039
8 12 5 -8.1078 0.0019
8 12 6 7.4734 0.0020
8 12 7 -6.5292 -0.0039
8 12 8 4.4988 0.0020
8 12 9 -1.6951 0.0011
8 12 10 -0.2667 -0.0024
8 12 11 0.1305 0.0015
8 12 12 1.1328 0.0001
8 12 13 -1.8247 -0.0008
8 12 14 0.6266 0.0001
8 12 15 2.8595 0.0016
8 12 16 -6.4959 -0.0027
8 12 17 7.2877 0.0016
8 12 18 -4.4958 0.0006
8 12 19 0.6033 -0.0008
8 12 20 1.2771 -0.0022
8 12 21 -0.8355 0.0049
8 13 0 4.9453 -0.0060
8 13 1 -4.9187 0.0052
8 13 2 4.5389 -0.0036
8 13 3 -4.8572 0.0022
8 13 4 5.9977 0.0001
8 13 5 -7.2758 -0.0033
8 13 6 7.3400 0.0050
8 13 7 -5.0800 -0.0037
8 13 8 2.0502 0.0012
8 13 9 -1.1538 -0.0002
8 13 10 3.2782 0.0009
8 13 11 -6.6840 -0.0013
8 13 12 8.0977 0.0004
8 13 13 -5.8273 0.0006
8 13 14 1.4104 -0.0007
8 13 15 2.1418 -0.0000
8 13 16 -2.1518 0.0009
8 13 17 -1.2755 -0.0020
8 13 18 4.8653 0.0024
8 13 19 -5.4291 -0.0012
8 13 20 2.9546 -0.0009
8 14 0 -7.8037 -0.0048
8 14 1 11.2744 0.0006
8 14 2 -11.3656 0.0032
8 14 3 7.5693 -0.0058
8 14 4 -3.0550 0.0065
8 14 5 1.6437 -0.0050
8 14 6 -3.7807 0.0022
8 14 7 6.8386 0.0004
8 14 8 -7.1569 -0.0016
8 14 9 3.1795 0.0015
8 14 10 2.5125 -0.0015
8 14 11 -5.9822 0.0018
8 14 12 5.0220 -0.0013
8 14 13 -0.7302 -0.0001
8 14 14 -2.8897 0.0011
8 14 15 2.7228 0.0001
8 14 16 0.8145 -0.0022
8 14 17 -4.3041 0.0027
8 14 18 4.6626 -0.0012
8 14 19 -2.3233 0.0003
8 15 0 -7.4710 0.0015
8 15 1 7.5191 -0.0036
8 15 2 -2.3684 0.0041
8 15 3 -3.4137 -0.0031
8 15 4 4.7433 0.0015
8 15 5 -0.5015 -0.0001
8 15 6 -5.1013 -0.0003
8 15 7 7.3508 -0.0002
8 15 8 -5.1376 0.0008
8 15 9 0.5805 -0.0005
8 15 10 2.4424 -0.0002
8 15 11 -1.3216 0.0002
8 15 12 -3.0627 0.0006
8 15 13 7.0564 -0.0013
8 15 14 -6.9496 0.0005
8 15 15 2.8047 0.0005
8 15 16 1.5796 0.0007
8 15 17 -2.8200 -0.0040
8 15 18 1.1385 0.0059
8 16 0 -0.7790 0.0041
8 16 1 -3.7684 -0.0025
8 16 2 8.6297 0.0001
8 16 3 -8.8065 0.0016
8 16 4 3.8727 -0.0022
8 16 5 2.2546 0.0020
8 16 6 -4.9418 -0.0013
8 16 7 2.9238 0.0004
8 16 8 1.0473 0.0002
8 16 9 -3.5698 0.0000
8 16 10 2.6474 -0.0010
8 16 11 1.3079 0.0015
8 16 12 -5.1254 -0.0009
8 16 13 5.3699 -0.0007
8 16 14 -1.6567 0.0027
8 16 15 -2.5442 -0.0052
8 16 16 3.6735 0.0075
8 17 0 0.7054 0.0026
8 17 1 -4.9199 0.0004
8 17 2 5.8817 -0.0027
8 17 3 -2.9172 0.0030
8 17 4 -1.0904 -0.0021
8 17 5 2.6657 0.0015
8 17 6 -0.8207 -0.0004
8 17 7 -2.6662 -0.0019
8 17 8 4.8712 0.0040
8 17 9 -4.2063 -0.0034
8 17 10 1.2682 0.0007
8 17 11 1.7892 0.0011
8 17 12 -2.5715 -0.0005
8 17 13 0.6754 -0.0009
8 17 14 1.7564 0.0004
8 18 0 1.7777 -0.0055
8 18 1 -3.2327 0.0067
8 18 2 2.4839 -0.0051
8 18 3 -0.5680 0.0020
8 18 4 -0.7211 -0.0002
8 18 5 0.1486 -0.0003
8 18 6 1.7752 0.0019
8 18 7 -3.3136 -0.0047
8 18 8 3.1452 0.0055
8 18 9 -1.6025 -0.0024
8 18 10 0.1082 -0.0007
8 18 11 0.2165 -0.0003
8 18 12 0.6163 0.0039
8 19 0 0.8859 -0.0038
8 19 1 -0.7568 0.0001
8 19 2 -0.1760 0.0022
8 19 3 1.3228 -0.0015
8 19 4 -1.8213 -0.0014
8 19 5 1.3105 0.0034
8 19 6 -0.4904 -0.0024
8 19 7 0.4333 0.0010
8 19 8 -1.2144 -0.0030
8 19 9 1.7388 0.0066
8 20 1 -0.6716 -0.0051
8 20 2 0.0427 0.0006
9 -12 0 0.0926 -0.0152
9 -12 1 -0.6031 0.0132
9 -12 2 0.4359 -0.0051
9 -12 3 -0.5374 -0.0000
9 -12 4 1.7687 0.0001
9 -12 5 -3.2793 0.0012
9 -12 6 3.4180 -0.0017
9 -11 0 -0.5957 -0.0229
9 -11 1 1.1864 0.0113
9 -11 2 -2.2234 0.0002
9 -11 3 2.5020 -0.0036
9 -11 4 -1.8704 0.0024
9 -11 5 1.9142 -0.0029
9 -11 6 -3.5212 0.0047
9 -11 7 5.0830 -0.0045
9 -11 8 -4.6900 0.0023
9 -11 9 2.6880 -0.0000
9 -10 0 2.8015 -0.0033
9 -10 1 -1.9608 -0.0084
9 -10 2 0.8257 0.0122
9 -10 3 -0.1040 -0.0083
9 -10 4 -0.8573 0.0040
9 -10 5 2.7631 -0.0029
9 -10 6 -4.5364 0.0025
9 -10 7 4.0348 -0.0016
9 -10 8 -1.2557 0.0019
9 -10 9 -1.3359 -0.0037
9 -10 10 2.0694 0.0055
9 -10 11 -1.5045 -0.0061
9 -10 12 0.7976 0.0055
9 -9 0 5.7615 0.0077
9 -9 1 -3.9314 -0.0112
9 -9 2 2.6080 0.0079
9 -9 3 -2.1894 -0.0021
9 -9 4 2.2296 -0.0012
9 -9 5 -3.0007 0.0012
9 -9 6 5.0495 0.0003
9 -9 7 -7.5741 -0.0021
9 -9 8 8.4709 0.0033
9 -9 9 -6.5583 -0.0028
9 -9 10 3.4146 0.0019
9 -9 11 -1.1898 -0.0020
9 -9 12 0.0340 0.0027
9 -9 13 0.9815 -0.0028
9 -9 14 -1.8711 0.0030
9 -8 0 -4.8881 0.0130
9 -8 1 5.3309 -0.0065
9 -8 2 -4.5193 -0.0023
9 -8 3 2.2989 0.0077
9 -8 4 0.6391 -0.0075
9 -8 5 -3.4847 0.0037
9 -8 6 5.1163 -0.0000
9 -8 7 -4.1972 -0.0008
9 -8 8 1.2411 -0.0013
9 -8 9 1.3709 0.0036
9 -8 10 -1.7578 -0.0032
9 -8 11 0.5892 0.0014
9 -8 12 -0.1299 -0.0013
9 -8 13 0.8845 0.0021
9 -8 14 -1.3186 -0.0001
9 -8 15 0.4622 -0.0043
9 -7 0 -6.7701 -0.0002
9 -7 1 5.0046 0.0122
9 -7 2 -2.7853 -0.0170
9 -7 3 0.5823 0.0138
9 -7 4 0.5029 -0.0069
9 -7 5 0.5373 0.0014
9 -7 6 -3.4035 0.0006
9 -7 7 6.5449 -0.0003
9 -7 8 -7.3749 -0.0000
9 -7 9 4.5513 -0.0014
9 -7 10 -0.1004 0.0034
9 -7 11 -2.7500 -0.0029
9 -7 12 2.8299 -0.0002
9 -7 13 -1.8996 0.0016
9 -7 14 2.1045 0.0009
9 -7 15 -3.2173 -0.0022
9 -7 16 3.6111 -0.0020
9 -7 17 -2.5661 0.0075
9 -6 0 4.7179 -0.0220
9 -6 1 -4.1779 0.0195
9 -6 2 3.6190 -0.0093
9 -6 3 -2.3278 -0.0005
9 -6 4 -0.1955 0.0046
9 -6 5 3.8295 -0.0035
9 -6 6 -6.6969 0.0012
9 -6 7 6.4790 0.0001
9 -6 8 -2.6506 -0.0000
9 -6 9 -2.6427 -0.0012
9 -6 10 5.5639 0.0023
9 -6 11 -4.4130 -0.0018
9 -6 12 1.3260 0.0007
9 -6 13 0.5294 -0.0014
9 -6 14 0.0260 0.0026
9 -6 15 -1.4003 -0.0006
9 -6 16 1.5305 -0.0031
9 -6 17 -0.2159 0.0028
9 -6 18 -1.1092 0.0024
9 -5 0 -1.2946 -0.0116
9 -5 1 1.6233 0.0006
9 -5 2 -1.2122 0.0077
9 -5 3 1.7079 -0.0090
9 -5 4 -3.3525 0.0058
9 -5 5 4.9780 -0.0028
9 -5 6 -4.3536 0.0018
9 -5 7 0.5737 -0.0015
9 -5 8 3.7145 0.0017
9 -5 9 -4.6329 -0.0029
9 -5 10 0.6897 0.0035
9 -5 11 5.5777 -0.0018
9 -5 12 -9.3885 -0.0006
9 -5 13 8.5191 0.0008
9 -5 14 -4.9448 -0.0000
9 -5 15 2.3206 0.0003
9 -5 16 -2.5319 -0.0004
9 -5 17 4.0161 -0.0018
9 -5 18 -4.0616 0.0031
9 -5 19 1.9562 0.0002
9 -4 0 -3.2148 0.0116
9 -4 1 -3.0566 -0.0171
9 -4 2 7.3060 0.0147
9 -4 3 -7.5563 -0.0075
9 -4 4 5.4753 0.0008
9 -4 5 -4.3710 0.0028
9 -4 6 5.8747 -0.0040
9 -4 7 -8.1086 0.0035
9 -4 8 6.9823 -0.0010
9 -4 9 -1.0848 -0.0015
9 -4 10 -5.9244 0.0013
9 -4 11 9.0461 0.0010
9 -4 12 -6.2434 -0.0014
9 -4 13 0.3249 -0.0010
9 -4 14 3.4721 0.0026
9 -4 15 -2.6266 -0.0013
9 -4 16 -0.9502 -0.0004
9 -4 17 3.1988 0.0009
9 -4 18 -2.1522 -0.0021
9 -4 19 -0.2729 0.0041
9 -4 20 1.1753 -0.0031
9 -3 0 9.4181 0.0205
9 -3 1 -12.9047 -0.0129
9 -3 2 10.0808 0.0025
9 -3 3 -3.3796 0.0058
9 -3 4 -1.6227 -0.0092
9 -3 5 1.5766 0.0084
9 -3 6 1.6571 -0.0058
9 -3 7 -3.5963 0.0028
9 -3 8 2.0590 -0.0009
9 -3 9 0.5780 0.0012
9 -3 10 0.2015 -0.0028
9 -3 11 -5.5005 0.0023
9 -3 12 11.7825 0.0011
9 -3 13 -14.5790 -0.0036
9 -3 14 11.8587 0.0021
9 -3 15 -5.9662 0.0008
9 -3 16 1.4114 -0.0016
9 -3 17 -0.5403 0.0008
9 -3 18 1.9140 -0.0011
9 -3 19 -2.2903 0.0012
9 -3 20 0.5951 0.0011
9 -3 21 1.3376 -0.0031
9 -2 0 -0.7035 -0.0087
9 -2 1 6.6295 0.0155
9 -2 2 -15.2985 -0.0189
9 -2 3 20.4711 0.0169
9 -2 4 -18.0074 -0.0105
9 -2 5 10.0749 0.0040
9 -2 6 -2.6248 -0.0006
9 -2 7 -0.4513 0.0004
9 -2 8 0.3963 -0.0019
9 -2 9 -0.7939 0.0031
9 -2 10 3.4418 -0.0021
9 -2 11 -6.5924 -0.0009
9 -2 12 6.9151 0.0029
9 -2 13 -3.6056 -0.0016
9 -2 14 -1.2631 -0.0009
9 -2 15 4.4890 0.0015
9 -2 16 -3.9406 -0.0003
9 -2 17 0.8178 0.0006
9 -2 18 1.7762 -0.0025
9 -2 19 -1.8977 0.0032
9 -2 20 0.3988 -0.0022
9 -2 21 0.6242 0.0026
9 -1 0 -2.6342 -0.0025
9 -1 1 7.9388 0.0034
9 -1 2 -10.1213 -0.0026
9 -1 3 5.8349 -0.0013
9 -1 4 2.8739 0.0055
9 -1 5 -9.5615 -0.0061
9 -1 6 9.6902 0.0028
9 -1 7 -4.3297 0.0008
9 -1 8 -1.8053 -0.0024
9 -1 9 5.1602 0.0014
9 -1 10 -5.8333 0.0007
9 -1 11 5.8452 -0.0019
9 -1 12 -6.8947 0.0010
9 -1 13 8.3849 0.0005
9 -1 14 -8.3337 -0.0003
9 -1 15 5.9271 -0.0014
9 -1 16 -1.9244 0.0021
9 -1 17 -1.4302 -0.0013
9 -1 18 2.3522 0.0016
9 -1 19 -1.3474 -0.0044
9 -1 20 0.2325 0.0069
9 -1 21 -0.2182 -0.0062
9 -1 22 0.7881 0.0034
9 0 0 10.5911 -0.0034
9 0 1 -8.4867 -0.0011
9 0 2 10.5962 0.0069
9 0 3 -14.7670 -0.0125
9 0 4 16.1644 0.0135
9 0 5 -11.2801 -0.0087
9 0 6 1.8144 0.0024
9 0 7 6.5970 0.0012
9 0 8 -9.8639 -0.0013
9 0 9 8.1742 0.0000
9 0 10 -4.7752 0.0006
9 0 11 2.2273 -0.0001
9 0 12 -0.9683 -0.0005
9 0 13 0.1760 -0.0001
9 0 14 0.9366 0.0017
9 0 15 -1.5336 -0.0023
9 0 16 0.6191 0.0012
9 0 17 1.5984 -0.0003
9 0 18 -3.9418 0.0009
9 0 19 4.8399 -0.0013
9 0 20 -3.9468 -0.0013
9 0 21 2.1688 0.0065
9 0 22 -0.7135 -0.0101
9 1 0 -4.6656 0.0069
9 1 1 4.5126 -0.0112
9 1 2 -1.5564 0.0128
9 1 3 0.4337 -0.0105
9 1 4 -3.2314 0.0039
9 1 5 7.6924 0.0032
9 1 6 -9.5662 -0.0060
9 1 7 6.1426 0.0040
9 1 8 0.5834 -0.0007
9 1 9 -6.3358 -0.0006
9 1 10 8.6125 -0.0000
9 1 11 -7.9652 0.0009
9 1 12 6.1737 -0.0005
9 1 13 -3.6542 -0.0010
9 1 14 0.2104 0.0020
9 1 15 3.9005 -0.0018
9 1 16 -7.2237 0.0015
9 1 17 7.7934 -0.0020
9 1 18 -5.6636 0.0021
9 1 19 2.6391 -0.0004
9 1 20 -0.6643 -0.0027
9 1 21 0.2823 0.0038
9 1 22 -0.5807 -0.0006
9 1 23 0.7045 -0.0056
9 2 0 -11.1049 0.0175
9 2 1 5.9154 -0.0098
9 2 2 -1.8152 0.0021
9 2 3 0.6188 0.0041
9 2 4 -0.3897 -0.0076
9 2 5 -2.3142 0.0067
9 2 6 7.5396 -0.0018
9 2 7 -12.4701 -0.0026
9 2 8 13.9550 0.0029
9 2 9 -11.4556 -0.0001
9 2 10 7.6031 -0.0022
9 2 11 -4.6936 0.0024
9 2 12 2.8036 -0.0013
9 2 13 -0.6469 0.0005
9 2 14 -1.5009 -0.0005
9 2 15 1.5481 0.0006
9 2 16 1.4538 -0.0007
9 2 17 -6.0907 0.0011
9 2 18 9.0081 -0.0021
9 2 19 -8.0179 0.0027
9 2 20 4.2142 -0.0013
9 2 21 -0.4115 -0.0026
9 2 22 -1.3116 0.0075
9 2 23 1.2382 -0.0103
9 3 0 5.9211 -0.0022
9 3 1 -6.2822 0.0120
9 3 2 3.5951 -0.0147
9 3 3 -1.0845 0.0128
9 3 4 0.6942 -0.0081
9 3 5 -2.0040 0.0015
9 3 6 1.7599 0.0038
9 3 7 1.7619 -0.0045
9 3 8 -6.2580 0.0016
9 3 9 8.4423 0.0009
9 3 10 -6.8883 -0.0012
9 3 11 3.5188 0.0009
9 3 12 -1.0851 -0.0011
9 3 13 0.0334 0.0015
9 3 14 1.4828 -0.0013
9 3 15 -5.0289 0.0012
9 3 16 8.8781 -0.0018
9 3 17 -9.9382 0.0025
9 3 18 7.0400 -0.0021
9 3 19 -2.0367 0.0007
9 3 20 -1.5199 0.0008
9 3 21 1.8764 -0.0015
9 3 22 -0.0829 0.0010
9 3 23 -1.3919 0.0008
9 4 0 1.0896 -0.0212
9 4 1 6.8605 0.0178
9 4 2 -11.5209 -0.0099
9 4 3 10.9736 0.0024
9 4 4 -8.9139 0.0034
9 4 5 9.2604 -0.0069
9 4 6 -12.5966 0.0065
9 4 7 15.9253 -0.0031
9 4 8 -15.0882 0.0002
9 4 9 10.0788 0.0003
9 4 10 -4.7157 -0.0000
9 4 11 2.5991 0.0005
9 4 12 -3.9777 -0.0009
9 4 13 5.8178 0.0005
9 4 14 -5.6616 -0.0000
9 4 15 3.7854 0.0004
9 4 16 -2.7914 -0.0003
9 4 17 4.2483 -0.0010
9 4 18 -6.4053 0.0026
9 4 19 6.5092 -0.0023
9 4 20 -3.3837 -0.0001
9 4 21 -1.1965 0.0032
9 4 22 4.1893 -0.0058
9 4 23 -4.0937 0.0072
9 5 0 -3.9826 -0.0100
9 5 1 4.0958 -0.0006
9 5 2 2.7558 0.0085
9 5 3 -10.4815 -0.0115
9 5 4 12.3654 0.0107
9 5 5 -7.9882 -0.0072
9 5 6 3.0750 0.0025
9 5 7 -2.2649 0.0006
9 5 8 5.6515 -0.0004
9 5 9 -8.8533 -0.0011
9 5 10 7.5446 0.0015
9 5 11 -2.1556 -0.0009
9 5 12 -3.2368 0.0006
9 5 13 4.8002 -0.0002
9 5 14 -2.7636 -0.0008
9 5 15 0.3634 0.0012
9 5 16 -0.1500 0.0002
9 5 17 1.8816 -0.0020
9 5 18 -2.7650 0.0019
9 5 19 1.1055 -0.0002
9 5 20 1.9957 -0.0011
9 5 21 -3.9702 0.0013
9 5 22 3.2648 -0.0011
9 5 23 -1.0114 0.0004
9 6 0 -4.5820 0.0035
9 6 1 -6.6965 -0.0105
9 6 2 16.9802 0.0114
9 6 3 -18.6935 -0.0080
9 6 4 12.2472 0.0035
9 6 5 -4.4624 0.0002
9 6 6 2.4030 -0.0015
9 6 7 -6.0669 -0.0000
9 6 8 10.0122 0.0024
9 6 9 -9.5568 -0.0027
9 6 10 4.6410 0.0010
9 6 11 0.0701 0.0002
9 6 12 -0.3791 -0.0004
9 6 13 -3.5281 0.0006
9 6 14 7.4531 -0.0008
9 6 15 -7.5262 -0.0001
9 6 16 4.1047 0.0014
9 6 17 -0.1313 -0.0012
9 6 18 -1.7360 -0.0003
9 6 19 1.3484 0.0010
9 6 20 -0.6729 -0.0008
9 6 21 1.1673 0.0011
9 6 22 -2.5352 -0.0018
9 6 23 3.0448 0.0012
9 7 0 -9.7951 0.0144
9 7 1 -0.3948 -0.0114
9 7 2 1.2266 0.0040
9 7 3 6.5640 0.0030
9 7 4 -14.6023 -0.0069
9 7 5 16.0301 0.0076
9 7 6 -10.4007 -0.0052
9 7 7 3.3399 0.0013
9 7 8 -0.7365 0.0010
9 7 9 2.8698 -0.0004
9 7 10 -5.4474 -0.0004
9 7 11 4.1354 -0.0002
9 7 12 0.7384 0.0009
9 7 13 -4.7925 -0.0001
9 7 14 4.4860 -0.0007
9 7 15 -0.2306 0.0004
9 7 16 -4.0579 -0.0000
9 7 17 5.4199 0.0004
9 7 18 -3.9232 -0.0002
9 7 19 1.3015 -0.0009
9 7 20 0.4836 0.0010
9 7 21 -0.7890 0.0005
9 7 22 0.2205 -0.0014
9 7 23 0.0961 0.0005
9 8 0 9.2514 0.0042
9 8 1 -8.6758 0.0058
9 8 2 0.0249 -0.0116
9 8 3 9.1412 0.0121
9 8 4 -11.5557 -0.0096
9 8 5 6.9982 0.0055
9 8 6 -0.8507 -0.0007
9 8 7 -1.7122 -0.0024
9 8 8 -0.3025 0.0020
9 8 9 3.1717 -0.0001
9 8 10 -2.9634 -0.0000
9 8 11 -0.4659 -0.0012
9 8 12 3.4352 0.0011
9 8 13 -2.7279 0.0004
9 8 14 -0.3878 -0.0008
9 8 15 2.4227 0.0002
9 8 16 -1.2198 -0.0002
9 8 17 -2.4328 0.0004
9 8 18 6.0760 0.0008
9 8 19 -8.1086 -0.0025
9 8 20 7.8863 0.0029
9 8 21 -5.8759 -0.0022
9 8 22 3.3881 0.0027
9 9 0 18.1086 -0.0142
9 9 1 -8.4445 0.0146
9 9 2 -0.9291 -0.0094
9 9 3 4.2097 0.0032
9 9 4 -1.2132 0.0009
9 9 5 -3.4439 -0.0029
9 9 6 5.1596 0.0032
9 9 7 -3.2860 -0.0012
9 9 8 0.3647 -0.0016
9 9 9 0.6583 0.0021
9 9 10 0.5216 0.0002
9 9 11 -1.6476 -0.0022
9 9 12 0.7284 0.0018
9 9 13 1.6063 -0.0007
9 9 14 -2.3103 0.0006
9 9 15 0.2554 -0.0005
9 9 16 2.4982 -0.0005
9 9 17 -3.7935 0.0007
9 9 18 3.1078 0.0008
9 9 19 -1.4117 -0.0018
9 9 20 -0.3486 0.0009
9 9 21 1.3955 0.0005
9 9 22 -1.1724 -0.0006
9 10 0 -3.8479 -0.0089
9 10 1 8.8151 0.0027
9 10 2 -8.5732 0.0039
9 10 3 3.8973 -0.0072
9 10 4 1.0937 0.0066
9 10 5 -3.1795 -0.0038
9 10 6 2.3955 0.0008
9 10 7 -0.7214 0.0012
9 10 8 -0.4955 -0.0014
9 10 9 1.1357 0.0000
9 10 10 -2.0888 0.0012
9 10 11 3.9285 -0.0006
9 10 12 -5.6969 -0.0008
9 10 13 6.1184 0.0011
9 10 14 -4.8049 -0.0000
9 10 15 3.4085 -0.0007
9 10 16 -4.0851 0.0007
9 10 17 6.1989 -0.0012
9 10 18 -7.4683 0.0021
9 10 19 6.6600 -0.0016
9 10 20 -4.4448 -0.0003
9 10 21 2.0562 0.0018
9 10 22 -0.1737 -0.0017
9 11 0 -4.3578 -0.0025
9 11 1 1.2449 -0.0035
9 11 2 2.9383 0.0079
9 11 3 -5.8170 -0.0074
9 11 4 6.2783 0.0029
9 11 5 -5.3921 0.0013
9 11 6 4.8916 -0.0024
9 11 7 -4.8079 0.0015
9 11 8 3.7697 -0.0005
9 11 9 -1.8238 0.0001
9 11 10 0.2997 -0.0000
9 11 11 -0.0827 0.0000
9 11 12 1.4355 0.0002
9 11 13 -3.3161 -0.0008
9 11 14 4.1178 0.0009
9 11 15 -3.0439 0.0001
9 11 16 0.7223 -0.0016
9 11 17 0.5573 0.0017
9 11 18 0.4722 -0.0006
9 11 19 -2.4188 0.0001
9 11 20 3.0806 -0.0007
9 11 21 -1.8415 0.0013
9 12 0 4.7093 0.0038
9 12 1 -3.4255 -0.0092
9 12 2 0.7621 0.0082
9 12 3 1.8967 -0.0018
9 12 4 -2.4011 -0.0043
9 12 5 0.2523 0.0057
9 12 6 2.4896 -0.0039
9 12 7 -3.3203 0.0022
9 12 8 1.8073 -0.0016
9 12 9 -0.6152 0.0008
9 12 10 2.1864 0.0006
9 12 11 -5.4925 -0.0012
9 12 12 8.1599 0.0006
9 12 13 -8.5334 0.0001
9 12 14 6.3980 -0.0005
9 12 15 -3.4161 0.0008
9 12 16 1.6851 -0.0009
9 12 17 -2.2881 -0.0002
9 12 18 4.0204 0.0015
9 12 19 -4.4506 -0.0012
9 12 20 2.8984 -0.0004
9 13 0 -4.8399 0.0110
9 13 1 10.4662 -0.0068
9 13 2 -13.4044 -0.0002
9 13 3 11.7489 0.0048
9 13 4 -6.5203 -0.0043
9 13 5 1.7468 0.0013
9 13 6 -1.4945 0.0002
9 13 7 5.2723 0.0005
9 13 8 -8.9295 -0.0012
9 13 9 8.8418 0.0010
9 13 10 -5.0456 -0.0010
9 13 11 1.3125 0.0016
9 13 12 -0.6653 -0.0012
9 13 13 2.8827 -0.0010
9 13 14 -5.8478 0.0030
9 13 15 6.9340 -0.0023
9 13 16 -5.0857 -0.0005
9 13 17 1.6656 0.0030
9 13 18 0.7718 -0.0043
9 13 19 -0.8922 0.0052
9 14 0 -2.6175 -0.0060
9 14 1 4.7430 0.0095
9 14 2 -1.3935 -0.0092
9 14 3 -5.2437 0.0047
9 14 4 9.5104 0.0004
9 14 5 -7.5117 -0.0027
9 14 6 0.2505 0.0023
9 14 7 6.6189 -0.0016
9 14 8 -8.2420 0.0014
9 14 9 5.0970 -0.0005
9 14 10 -1.1799 -0.0014
9 14 11 0.4637 0.0025
9 14 12 -3.6522 -0.0014
9 14 13 7.6957 -0.0004
9 14 14 -9.0643 -0.0001
9 14 15 6.4377 0.0034
9 14 16 -1.7548 -0.0057
9 14 17 -1.5987 0.0044
9 14 18 2.0049 -0.0014
9 15 0 1.3875 -0.0032
9 15 1 -3.8271 0.0007
9 15 2 9.6975 0.0028
9 15 3 -13.4343 -0.0051
9 15 4 10.6475 0.0047
9 15 5 -3.4385 -0.0027
9 15 6 -2.2422 0.0014
9 15 7 2.2861 -0.0015
9 15 8 2.5162 0.0016
9 15 9 -7.4152 -0.0005
9 15 10 8.3961 -0.0009
9 15 11 -4.9199 0.0010
9 15 12 -0.2807 0.0005
9 15 13 3.0123 -0.0019
9 15 14 -1.3934 0.0018
9 15 15 -2.5527 -0.0018
9 15 16 5.0178 0.0042
9 15 17 -4.2069 -0.0080
9 16 0 -5.5736 0.0022
9 16 1 0.3308 -0.0050
9 16 2 3.5814 0.0054
9 16 3 -2.5990 -0.0040
9 16 4 -2.2250 0.0020
9 16 5 5.8488 -0.0005
9 16 6 -4.7388 -0.0000
9 16 7 0.2576 -0.0003
9 16 8 3.9397 0.0007
9 16 9 -5.1130 -0.0004
9 16 10 3.0857 -0.0002
9 16 11 0.0232 -0.0005
9 16 12 -1.4994 0.0023
9 16 13 -0.0869 -0.0033
9 16 14 3.1786 0.0020
9 16 15 -4.6856 0.0004
9 16 16 3.3423 -0.0019
9 17 0 -2.8805 0.0054
9 17 1 -0.3171 -0.0036
9 17 2 0.4461 0.0008
9 17 3 1.8798 0.0004
9 17 4 -4.0517 0.0001
9 17 5 4.0149 -0.0005
9 17 6 -2.0419 0.0006
9 17 7 0.2161 -0.0011
9 17 8 0.1558 0.0013
9 17 9 0.6288 -0.0003
9 17 10 -1.5650 -0.0006
9 17 11 1.6639 -0.0008
9 17 12 -0.5599 0.0038
9 17 13 -1.1185 -0.0049
9 17 14 1.8440 0.0027
9 18 0 1.5290 0.0049
9 18 1 -1.5168 -0.0010
9 18 2 0.5020 -0.0014
9 18 3 0.8710 0.0009
9 18 4 -1.8773 -0.0002
9 18 5 2.0445 0.0008
9 18 6 -1.5078 -0.0013
9 18 7 0.8961 0.0004
9 18 8 -0.5883 -0.0001
9 18 9 0.5212 0.0015
9 18 10 -0.5112 -0.0025
9 18 11 0.4705 0.0008
9 18 12 -0.4480 0.0014
9 19 0 2.1927 -0.0006
9 19 1 -2.2014 0.0035
9 19 2 1.7632 -0.0034
9 19 3 -0.6107 0.0014
9 19 4 -0.5488 -0.0002
9 19 5 0.6408 -0.0003
9 19 6 0.2079 0.0023
9 19 7 -0.9682 -0.0049
9 19 8 1.1393 0.0050
10 -11 0 0.5869 -0.0086
10 -11 1 -1.9690 0.0046
10 -11 2 2.5777 -0.0006
10 -11 3 -3.3001 -0.0001
10 -11 4 3.6830 -0.0004
10 -11 5 -2.5050 0.0012
10 -10 0 5.7717 -0.0097
10 -10 1 -4.6594 0.0033
10 -10 2 2.7744 0.0016
10 -10 3 -1.1986 -0.0037
10 -10 4 -0.3596 0.0043
10 -10 5 1.9351 -0.0029
10 -10 6 -2.0596 -0.0000
10 -10 7 -0.1422 0.0010
10 -10 8 2.9536 0.0018
10 -10 9 -3.8250 -0.0051
10 -9 0 -1.3558 -0.0081
10 -9 1 5.3119 -0.0021
10 -9 2 -7.5949 0.0088
10 -9 3 7.7924 -0.0106
10 -9 4 -6.3890 0.0082
10 -9 5 3.7574 -0.0034
10 -9 6 -0.2257 0.0002
10 -9 7 -2.7145 -0.0008
10 -9 8 3.1698 0.0027
10 -9 9 -1.3794 -0.0023
10 -9 10 -0.3647 -0.0003
10 -9 11 0.5626 0.0024
10 -9 12 -0.1780 -0.0030
10 -8 0 -8.0884 0.0122
10 -8 1 7.6792 -0.0164
10 -8 2 -5.3231 0.0142
10 -8 3 2.2967 -0.0084
10 -8 4 0.1018 0.0023
10 -8 5 -0.9877 0.0008
10 -8 6 -0.1424 0.0008
10 -8 7 2.8695 -0.0047
10 -8 8 -5.6552 0.0064
10 -8 9 6.4756 -0.0049
10 -8 10 -4.8728 0.0027
10 -8 11 2.6750 -0.0011
10 -8 12 -1.7671 0.0001
10 -8 13 2.0063 -0.0006
10 -8 14 -1.7810 0.0035
10 -7 0 5.7131 0.0113
10 -7 1 -7.5021 -0.0032
10 -7 2 9.0416 -0.0031
10 -7 3 -9.0017 0.0063
10 -7 4 6.7960 -0.0066
10 -7 5 -3.0573 0.0042
10 -7 6 -0.8994 -0.0006
10 -7 7 3.0131 -0.0012
10 -7 8 -2.0661 -0.0005
10 -7 9 -0.7994 0.0032
10 -7 10 3.0138 -0.0039
10 -7 11 -2.8274 0.0024
10 -7 12 1.0069 0.0001
10 -7 13 0.3767 -0.0037
10 -7 14 -0.3169 0.0069
10 -7 15 -0.4209 -0.0061
10 -6 0 3.7708 -0.0071
10 -6 1 -3.2026 0.0140
10 -6 2 2.3903 -0.0142
10 -6 3 -0.6968 0.0106
10 -6 4 -1.5887 -0.0056
10 -6 5 2.8709 0.0000
10 -6 6 -1.7355 0.0039
10 -6 7 -2.0811 -0.0038
10 -6 8 6.8029 0.0007
10 -6 9 -9.0266 0.0017
10 -6 10 7.1171 -0.0016
10 -6 11 -2.7992 0.0010
10 -6 12 -0.7490 -0.0007
10 -6 13 1.6690 -0.0005
10 -6 14 -0.6418 0.0021
10 -6 15 -0.5019 -0.0018
10 -6 16 0.5155 -0.0001
10 -5 0 -9.9550 -0.0194
10 -5 1 7.0322 0.0171
10 -5 2 -4.6769 -0.0099
10 -5 3 3.6926 0.0023
10 -5 4 -3.4425 0.0035
10 -5 5 2.0414 -0.0063
10 -5 6 1.4450 0.0050
10 -5 7 -5.3060 -0.0013
10 -5 8 6.5613 -0.0012
10 -5 9 -3.4727 0.0007
10 -5 10 -1.9641 0.0002
10 -5 11 5.3127 0.0009
10 -5 12 -4.3089 -0.0020
10 -5 13 0.4972 0.0008
10 -5 14 2.6744 0.0006
10 -5 15 -2.8991 0.0009
10 -5 16 0.6912 -0.0037
10 -5 17 1.5510 0.0041
10 -5 18 -1.8703 -0.0019
10 -4 0 1.8440 -0.0108
10 -4 1 -5.5113 0.0009
10 -4 2 4.9961 0.0089
10 -4 3 -1.5952 -0.0134
10 -4 4 -1.5398 0.0119
10 -4 5 1.8664 -0.0067
10 -4 6 0.2603 0.0016
10 -4 7 -1.3403 0.0002
10 -4 8 -0.9299 0.0014
10 -4 9 4.7502 -0.0030
10 -4 10 -6.0168 0.0023
10 -4 11 2.2969 -0.0004
10 -4 12 4.0430 0.0002
10 -4 13 -8.0993 -0.0007
10 -4 14 7.3555 -0.0006
10 -4 15 -3.3724 0.0028
10 -4 16 0.0081 -0.0019
10 -4 17 0.2418 -0.0027
10 -4 18 1.7314 0.0062
10 -4 19 -2.9977 -0.0056
10 -3 0 7.7813 -0.0009
10 -3 1 -4.9966 -0.0089
10 -3 2 -1.8623 0.0106
10 -3 3 7.8897 -0.0057
10 -3 4 -9.0740 -0.0005
10 -3 5 5.8816 0.0037
10 -3 6 -2.1861 -0.0028
10 -3 7 1.7657 -0.0000
10 -3 8 -4.1768 0.0016
10 -3 9 5.2199 -0.0008
10 -3 10 -2.4926 -0.0006
10 -3 11 -2.1375 0.0010
10 -3 12 4.6303 -0.0008
10 -3 13 -2.6913 0.0012
10 -3 14 -1.6216 -0.0011
10 -3 15 4.3246 -0.0014
10 -3 16 -3.4112 0.0050
10 -3 17 0.3416 -0.0055
10 -3 18 1.6337 0.0016
10 -3 19 -0.9507 0.0024
10 -2 0 5.2843 0.0308
10 -2 1 -0.3074 -0.0205
10 -2 2 -4.1857 0.0041
10 -2 3 3.9190 0.0084
10 -2 4 0.9616 -0.0129
10 -2 5 -5.7434 0.0114
10 -2 6 6.2622 -0.0081
10 -2 7 -2.6445 0.0054
10 -2 8 -1.5268 -0.0036
10 -2 9 2.7928 0.0019
10 -2 10 -1.6377 -0.0003
10 -2 11 1.2297 -0.0002
10 -2 12 -3.1028 -0.0006
10 -2 13 6.1855 0.0011
10 -2 14 -7.9796 -0.0001
10 -2 15 7.0424 -0.0004
10 -2 16 -4.6066 -0.0020
10 -2 17 2.9707 0.0059
10 -2 18 -3.2573 -0.0062
10 -2 19 4.3084 0.0012
10 -2 20 -4.1969 0.0045
10 -1 0 4.3058 0.0029
10 -1 1 -0.8580 0.0149
10 -1 2 1.3276 -0.0222
10 -1 3 -5.6389 0.0178
10 -1 4 9.9873 -0.0092
10 -1 5 -10.4106 0.0031
10 -1 6 6.8615 -0.0007
10 -1 7 -2.9337 0.0001
10 -1 8 1.5518 0.0001
10 -1 9 -2.7006 -0.0000
10 -1 10 4.2164 -0.0003
10 -1 11 -4.1093 0.0006
10 -1 12 2.8994 -0.0001
10 -1 13 -2.0856 -0.0012
10 -1 14 2.1133 0.0014
10 -1 15 -2.4548 0.0006
10 -1 16 1.9219 -0.0032
10 -1 17 -0.1580 0.0028
10 -1 18 -1.8265 0.0002
10 -1 19 2.6869 -0.0014
10 -1 20 -2.0299 -0.0025
10 -1 21 0.8609 0.0088
10 0 0 -10.3854 -0.0260
10 0 1 9.6262 0.0240
10 0 2 -5.7081 -0.0128
10 0 3 1.7242 0.0008
10 0 4 -0.4905 0.0049
10 0 5 1.9147 -0.0044
10 0 6 -3.3092 0.0020
10 0 7 2.3414 -0.0002
10 0 8 0.4412 -0.0007
10 0 9 -2.7775 0.0009
10 0 10 3.7076 -0.0003
10 0 11 -3.7657 -0.0007
10 0 12 4.0326 0.0012
10 0 13 -4.7005 -0.0004
10 0 14 4.5302 -0.0013
10 0 15 -3.0694 0.0025
10 0 16 1.2216 -0.0018
10 0 17 -0.3299 0.0004
10 0 18 1.0368 -0.0012
10 0 19 -2.3840 0.0047
10 0 20 2.9707 -0.0076
10 0 21 -2.2057 0.0064
10 1 0 -5.8957 -0.0051
10 1 1 3.1019 -0.0026
10 1 2 -1.2872 0.0097
10 1 3 1.7211 -0.0118
10 1 4 -3.5642 0.0089
10 1 5 4.7580 -0.0045
10 1 6 -4.1198 0.0016
10 1 7 2.7070 -0.0004
10 1 8 -2.3084 0.0002
10 1 9 3.1764 -0.0007
10 1 10 -3.4833 0.0015
10 1 11 2.0815 -0.0016
10 1 12 -0.2764 0.0008
10 1 13 -0.1076 0.0002
10 1 14 -1.3958 0.0001
10 1 15 2.7733 -0.0016
10 1 16 -1.5189 0.0028
10 1 17 -2.1128 -0.0024
10 1 18 5.4628 0.0010
10 1 19 -5.9125 -0.0014
10 1 20 3.5544 0.0043
10 1 21 -0.7464 -0.0070
10 2 0 9.8024 0.0064
10 2 1 -7.8856 -0.0129
10 2 2 4.4529 0.0159
10 2 3 -1.1959 -0.0130
10 2 4 -0.1917 0.0061
10 2 5 -0.0679 0.0001
10 2 6 0.2754 -0.0030
10 2 7 1.0734 0.0033
10 2 8 -3.1858 -0.0022
10 2 9 3.6785 0.0004
10 2 10 -1.5944 0.0013
10 2 11 -1.0169 -0.0021
10 2 12 0.9083 0.0019
10 2 13 2.0072 -0.0020
10 2 14 -4.5211 0.0029
10 2 15 3.7353 -0.0032
10 2 16 0.1133 0.0016
10 2 17 -3.3876 0.0009
10 2 18 3.1247 -0.0018
10 2 19 -0.0263 0.0004
10 2 20 -2.6394 0.0004
10 2 21 2.4981 0.0017
10 2 22 -0.5318 -0.0049
10 3 0 -1.0535 0.0152
10 3 1 3.8287 -0.0160
10 3 2 -4.4802 0.0110
10 3 3 2.3596 -0.0013
10 3 4 1.0770 -0.0067
10 3 5 -2.8301 0.0081
10 3 6 1.5788 -0.0049
10 3 7 0.8897 0.0015
10 3 8 -1.6143 0.0001
10 3 9 -0.3002 -0.0006
10 3 10 2.0897 0.0004
10 3 11 -0.4881 0.0005
10 3 12 -4.5566 -0.0009
10 3 13 9.1724 -0.0002
10 3 14 -9.4693 0.0016
10 3 15 6.0755 -0.0013
10 3 16 -2.7459 -0.0006
10 3 17 2.5141 0.0019
10 3 18 -4.8339 -0.0013
10 3 19 6.4473 0.0007
10 3 20 -5.3010 -0.0021
10 3 21 2.2242 0.0045
10 3 22 0.1140 -0.0051
10 4 0 -4.6784 0.0052
10 4 1 3.4123 0.0010
10 4 2 1.8863 -0.0082
10 4 3 -7.6507 0.0121
10 4 4 9.7870 -0.0090
10 4 5 -7.0850 0.0018
10 4 6 2.5119 0.0028
10 4 7 -0.5681 -0.0022
10 4 8 2.3657 -0.0005
10 4 9 -4.9134 0.0023
10 4 10 4.3528 -0.0028
10 4 11 -0.4736 0.0024
10 4 12 -2.9018 -0.0010
10 4 13 2.1822 -0.0007
10 4 14 2.4168 0.0010
10 4 15 -6.6090 0.0004
10 4 16 6.7763 -0.0016
10 4 17 -3.4571 0.0010
10 4 18 -0.1546 0.0003
10 4 19 1.3119 -0.0008
10 4 20 -0.2132 0.0005
10 4 21 -1.1348 -0.0005
10 4 22 1.1877 0.0015
10 5 0 -2.8633 -0.0112
10 5 1 -0.4234 0.0121
10 5 2 5.8277 -0.0102
10 5 3 -7.0664 0.0049
10 5 4 2.6058 0.0022
10 5 5 3.1378 -0.0064
10 5 6 -4.7919 0.0053
10 5 7 0.8400 -0.0019
10 5 8 4.8662 -0.0002
10 5 9 -7.4687 0.0007
10 5 10 5.9711 -0.0010
10 5 11 -3.7522 0.0014
10 5 12 4.8290 -0.0015
10 5 13 -9.0337 0.0016
10 5 14 12.5331 -0.0018
10 5 15 -11.6921 0.0015
10 5 16 6.6868 -0.0002
10 5 17 -1.5288 -0.0011
10 5 18 -0.4477 0.0018
10 5 19 -0.8478 -0.0021
10 5 20 2.8752 0.0020
10 5 21 -3.2521 -0.0011
10 5 22 1.8519 -0.0001
10 6 0 -12.2214 -0.0076
10 6 1 4.9953 0.0000
10 6 2 -2.0074 0.0051
10 6 3 5.7773 -0.0079
10 6 4 -11.7891 0.0086
10 6 5 13.3979 -0.0069
10 6 6 -9.0559 0.0038
10 6 7 2.8940 -0.0017
10 6 8 -0.2469 0.0010
10 6 9 2.5493 -0.0007
10 6 10 -6.3247 0.0001
10 6 11 7.3937 0.0002
10 6 12 -4.8415 0.0000
10 6 13 2.0181 -0.0003
10 6 14 -2.4654 0.0006
10 6 15 5.7646 -0.0010
10 6 16 -8.4844 0.0011
10 6 17 7.4215 -0.0010
10 6 18 -2.9462 0.0015
10 6 19 -1.6704 -0.0020
10 6 20 3.5934 0.0008
10 6 21 -2.4697 0.0019
10 6 22 0.3877 -0.0036
10 7 0 6.3487 0.0079
10 7 1 -10.9901 -0.0121
10 7 2 7.2126 0.0108
10 7 3 0.0886 -0.0077
10 7 4 -4.2842 0.0046
10 7 5 2.9352 -0.0018
10 7 6 0.4486 -0.0001
10 7 7 -0.9198 0.0004
10 7 8 -2.8361 0.0001
10 7 9 7.7995 -0.0006
10 7 10 -9.7533 0.0009
10 7 11 7.8190 -0.0010
10 7 12 -4.6708 0.0005
10 7 13 3.4693 0.0002
10 7 14 -4.6032 -0.0003
10 7 15 5.1872 0.0001
10 7 16 -3.1606 -0.0001
10 7 17 -0.6546 -0.0001
10 7 18 3.8117 0.0008
10 7 19 -4.4735 -0.0006
10 7 20 2.9604 -0.0015
10 7 21 -0.8645 0.0034
10 7 22 -0.1052 -0.0025
10 8 0 20.3952 0.0119
10 8 1 -15.1129 -0.0078
10 8 2 7.0555 0.0025
10 8 3 -2.5195 0.0014
10 8 4 3.3942 -0.0036
10 8 5 -6.6790 0.0040
10 8 6 8.1786 -0.0025
10 8 7 -6.5264 0.0003
10 8 8 3.8769 0.0009
10 8 9 -3.0872 -0.0009
10 8 10 5.0167 0.0004
10 8 11 -7.3987 0.0003
10 8 12 7.6169 -0.0004
10 8 13 -5.7894 -0.0005
10 8 14 3.7827 0.0020
10 8 15 -3.0957 -0.0024
10 8 16 3.0246 0.0013
10 8 17 -1.9924 -0.0004
10 8 18 -0.0039 0.0003
10 8 19 1.9960 0.0006
10 8 20 -3.1203 -0.0026
10 8 21 3.1821 0.0036
10 8 22 -2.2341 -0.0022
10 9 0 -4.1568 -0.0006
10 9 1 9.4024 0.0054
10 9 2 -10.3199 -0.0087
10 9 3 6.6781 0.0100
10 9 4 -1.7724 -0.0084
10 9 5 -1.2417 0.0044
10 9 6 1.8316 -0.0001
10 9 7 -1.6812 -0.0020
10 9 8 2.4145 0.0016
10 9 9 -3.7946 -0.0002
10 9 10 4.5476 -0.0010
10 9 11 -3.4867 0.0014
10 9 12 0.8727 -0.0013
10 9 13 1.2368 0.0009
10 9 14 -1.9834 -0.0012
10 9 15 2.4238 0.0024
10 9 16 -3.5407 -0.0026
10 9 17 4.8721 0.0006
10 9 18 -4.9307 0.0018
10 9 19 3.5358 -0.0019
10 9 20 -1.7372 0.0000
10 9 21 0.3283 0.0012
10 10 0 -10.0364 -0.0091
10 10 1 8.1241 0.0107
10 10 2 -4.4730 -0.0099
10 10 3 2.0443 0.0063
10 10 4 -2.2602 -0.0012
10 10 5 3.4867 -0.0028
10 10 6 -3.6845 0.0038
10 10 7 2.7374 -0.0023
10 10 8 -1.9751 0.0003
10 10 9 2.6403 0.0005
10 10 10 -4.1592 -0.0002
10 10 11 4.8943 -0.0003
10 10 12 -4.0354 0.0001
10 10 13 1.6397 0.0009
10 10 14 0.8020 -0.0022
10 10 15 -1.6032 0.0026
10 10 16 1.2507 -0.0015
10 10 17 -1.4256 -0.0001
10 10 18 2.8122 0.0005
10 10 19 -4.1407 0.0005
10 10 20 4.0862 -0.0013
10 10 21 -2.8847 0.0004
10 11 0 7.0561 -0.0111
10 11 1 -7.0017 0.0060
10 11 2 4.1907 -0.0007
10 11 3 0.0319 -0.0031
10 11 4 -2.7742 0.0043
10 11 5 1.7724 -0.0029
10 11 6 1.4569 0.0004
10 11 7 -2.9776 0.0013
10 11 8 1.4315 -0.0014
10 11 9 1.1238 0.0001
10 11 10 -1.8131 0.0012
10 11 11 -0.3469 -0.0013
10 11 12 3.4834 0.0004
10 11 13 -5.4756 0.0003
10 11 14 5.4894 -0.0004
10 11 15 -3.9112 0.0003
10 11 16 2.5302 -0.0008
10 11 17 -2.6392 0.0012
10 11 18 3.6217 -0.0010
10 11 19 -3.7640 0.0001
10 11 20 2.4187 0.0008
10 12 0 5.5094 0.0042
10 12 1 -0.5921 -0.0091
10 12 2 -4.3214 0.0098
10 12 3 5.3245 -0.0079
10 12 4 -1.6378 0.0051
10 12 5 -3.5885 -0.0026
10 12 6 5.5032 0.0006
10 12 7 -1.8710 0.0003
10 12 8 -3.7789 -0.0000
10 12 9 6.4413 -0.0005
10 12 10 -5.2445 0.0004
10 12 11 2.8140 0.0006
10 12 12 -2.0978 -0.0007
10 12 13 3.6473 -0.0008
10 12 14 -5.8241 0.0021
10 12 15 7.0192 -0.0018
10 12 16 -6.2377 0.0005
10 12 17 3.8416 -0.0006
10 12 18 -1.4812 0.0015
10 12 19 0.4964 -0.0013
10 13 0 -1.7438 0.0063
10 13 1 5.4647 -0.0057
10 13 2 -4.7275 0.0025
10 13 3 -0.8025 0.0000
10 13 4 6.9540 -0.0015
10 13 5 -8.2382 0.0029
10 13 6 3.4596 -0.0036
10 13 7 3.4209 0.0025
10 13 8 -6.7100 -0.0003
10 13 9 4.5504 -0.0011
10 13 10 -0.7035 0.0008
10 13 11 -0.7836 -0.0002
10 13 12 -0.6631 0.0010
10 13 13 3.0785 -0.0022
10 13 14 -4.2115 0.0018
10 13 15 3.3865 0.0003
10 13 16 -1.2322 -0.0014
10 13 17 -0.8078 0.0004
10 13 18 1.3817 0.0005
10 13 19 -0.6222 0.0002
10 14 0 -5.3189 0.0108
10 14 1 4.5496 -0.0049
10 14 2 1.1356 0.0002
10 14 3 -7.5379 0.0024
10 14 4 9.6078 -0.0040
10 14 5 -5.8368 0.0045
10 14 6 0.5629 -0.0029
10 14 7 0.8165 -0.0001
10 14 8 2.7037 0.0020
10 14 9 -7.7516 -0.0017
10 14 10 9.9330 0.0004
10 14 11 -8.1258 0.0000
10 14 12 4.7267 0.0008
10 14 13 -2.3824 -0.0013
10 14 14 2.1837 0.0004
10 14 15 -3.3090 0.0005
10 14 16 4.2006 0.0005
10 14 17 -3.8260 -0.0031
10 14 18 2.2539 0.0048
10 15 0 -8.3968 -0.0067
10 15 1 4.0595 0.0086
10 15 2 1.4900 -0.0075
10 15 3 -3.1195 0.0047
10 15 4 -0.1254 -0.0018
10 15 5 4.6561 -0.0005
10 15 6 -5.9855 0.0014
10 15 7 3.2537 -0.0008
10 15 8 0.3022 -0.0003
10 15 9 -1.7094 0.0011
10 15 10 0.5522 -0.0011
10 15 11 1.5856 0.0003
10 15 12 -2.6224 0.0010
10 15 13 1.7655 -0.0018
10 15 14 0.2394 0.0012
10 15 15 -1.7094 0.0001
10 15 16 1.6335 -0.0007
10 16 0 -2.4622 -0.0053
10 16 1 -1.0894 0.0036
10 16 2 1.9497 -0.0014
10 16 3 0.8889 -0.0015
10 16 4 -4.5618 0.0036
10 16 5 5.9419 -0.0031
10 16 6 -4.9899 0.0006
10 16 7 3.7241 0.0009
10 16 8 -3.5949 -0.0008
10 16 9 4.1113 0.0011
10 16 10 -4.2632 -0.0031
10 16 11 3.8058 0.0043
10 16 12 -2.7383 -0.0028
10 16 13 1.3257 -0.0001
10 16 14 -0.1679 0.0012
10 16 15 -0.1248 -0.0004
10 17 0 3.1487 0.0021
10 17 1 -3.7477 -0.0006
10 17 2 2.8406 0.0010
10 17 3 -1.4622 -0.0031
10 17 4 0.6440 0.0034
10 17 5 -0.4415 -0.0009
10 17 6 0.2071 -0.0011
10 17 7 -0.0374 0.0000
10 17 8 0.6317 0.0013
10 17 9 -1.9396 0.0007
10 17 10 2.8165 -0.0038
10 17 11 -2.4156 0.0029
10 17 12 1.3055 0.0017
10 17 13 -0.3475 -0.0046
10 18 0 1.6881 -0.0035
10 18 1 -2.8880 0.0022
10 18 2 3.4203 0.0006
10 18 3 -2.5736 -0.0021
10 18 4 0.5281 0.0000
10 18 5 1.3463 0.0030
10 18 6 -1.6908 -0.0022
10 18 7 0.3705 -0.0021
10 18 8 1.4726 0.0047
10 18 9 -2.4092 -0.0040
10 18 10 1.7685 0.0041
10 18 11 -0.1953 -0.0074
10 19 0 0.5526 0.0026
10 19 1 -1.1877 -0.0022
10 19 2 0.3629 0.0014
10 19 3 1.8080 -0.0000
10 19 4 -3.3677 -0.0016
10 19 5 2.9112 0.0009
10 19 6 -1.0913 0.0028
10 19 7 -0.4095 -0.0059
11 -10 0 3.4938 -0.0043
11 -10 1 -2.2343 0.0085
11 -10 2 0.8425 -0.0094
11 -10 3 0.0630 0.0062
11 -10 4 -0.9151 -0.0033
11 -9 0 1.1081 -0.0176
11 -9 1 1.2914 0.0130
11 -9 2 -2.7611 -0.0035
11 -9 3 3.1195 -0.0036
11 -9 4 -3.0272 0.0029
11 -9 5 2.5576 0.0022
11 -9 6 -1.4835 -0.0024
11 -9 7 0.3058 -0.0049
11 -9 8 0.0051 0.0125
11 -8 0 -3.1619 -0.0050
11 -8 1 4.1048 -0.0057
11 -8 2 -2.7568 0.0133
11 -8 3 0.3650 -0.0128
11 -8 4 1.6988 0.0065
11 -8 5 -3.0592 -0.0020
11 -8 6 3.9162 0.0030
11 -8 7 -4.3396 -0.0046
11 -8 8 4.3180 0.0005
11 -8 9 -3.8904 0.0074
11 -8 10 3.1601 -0.0116
11 -8 11 -1.9951 0.0091
11 -7 0 -5.1346 0.0123
11 -7 1 2.2182 -0.0165
11 -7 2 1.2494 0.0160
11 -7 3 -3.1814 -0.0099
11 -7 4 3.1652 0.0023
11 -7 5 -2.1176 0.0022
11 -7 6 1.4525 -0.0036
11 -7 7 -1.7417 0.0055
11 -7 8 2.3259 -0.0086
11 -7 9 -2.1500 0.0090
11 -7 10 1.0591 -0.0052
11 -7 11 0.0017 0.0007
11 -7 12 -0.2551 0.0011
11 -7 13 -0.3371 -0.0015
11 -6 0 -2.6898 0.0091
11 -6 1 0.0130 -0.0067
11 -6 2 0.0025 0.0027
11 -6 3 2.9538 0.0026
11 -6 4 -6.8069 -0.0060
11 -6 5 9.2742 0.0052
11 -6 6 -8.9804 -0.0020
11 -6 7 6.5225 -0.0000
11 -6 8 -4.1854 0.0004
11 -6 9 3.3976 -0.0007
11 -6 10 -3.4053 0.0006
11 -6 11 2.6331 0.0012
11 -6 12 -0.8983 -0.0027
11 -6 13 -0.6979 0.0011
11 -6 14 1.3885 0.0018
11 -5 0 5.7277 -0.0018
11 -5 1 -4.9279 0.0077
11 -5 2 1.3533 -0.0099
11 -5 3 3.2116 0.0092
11 -5 4 -5.6985 -0.0058
11 -5 5 4.5398 0.0014
11 -5 6 -0.7390 0.0010
11 -5 7 -2.8085 0.0000
11 -5 8 3.1988 -0.0020
11 -5 9 -0.6755 0.0024
11 -5 10 -1.6973 -0.0015
11 -5 11 1.8219 0.0000
11 -5 12 -0.4825 0.0024
11 -5 13 -0.2717 -0.0043
11 -5 14 -0.3648 0.0025
11 -5 15 1.7918 0.0034
11 -5 16 -2.8711 -0.0079
11 -4 0 4.4307 -0.0205
11 -4 1 -3.4745 0.0193
11 -4 2 1.0552 -0.0125
11 -4 3 0.1638 0.0043
11 -4 4 1.9671 0.0025
11 -4 5 -6.7896 -0.0057
11 -4 6 10.5886 0.0054
11 -4 7 -10.0524 -0.0034
11 -4 8 5.1592 0.0022
11 -4 9 0.4083 -0.0022
11 -4 10 -2.5682 0.0022
11 -4 11 1.2697 -0.0017
11 -4 12 0.2985 0.0012
11 -4 13 0.1250 -0.0007
11 -4 14 -1.8373 0.0006
11 -4 15 2.6816 -0.0025
11 -4 16 -1.5655 0.0071
11 -4 17 -0.8017 -0.0112
11 -3 0 1.8531 -0.0089
11 -3 1 -1.2034 -0.0003
11 -3 2 -0.0023 0.0084
11 -3 3 -0.9480 -0.0125
11 -3 4 3.9711 0.0120
11 -3 5 -6.4159 -0.0082
11 -3 6 4.9724 0.0039
11 -3 7 0.2552 -0.0014
11 -3 8 -5.2691 0.0010
11 -3 9 6.2806 -0.0012
11 -3 10 -3.0193 0.0005
11 -3 11 -1.0154 0.0009
11 -3 12 2.3717 -0.0017
11 -3 13 -1.2739 0.0006
11 -3 14 0.2607 0.0019
11 -3 15 -0.8695 -0.0035
11 -3 16 2.2116 0.0017
11 -3 17 -2.4611 0.0034
11 -3 18 0.9484 -0.0082
11 -2 0 3.8237 0.0106
11 -2 1 0.9396 -0.0142
11 -2 2 -3.6896 0.0150
11 -2 3 3.2745 -0.0124
11 -2 4 -1.9812 0.0069
11 -2 5 2.1625 -0.0011
11 -2 6 -4.0010 -0.0016
11 -2 7 5.1050 0.0009
11 -2 8 -2.7748 0.0009
11 -2 9 -2.2576 -0.0012
11 -2 10 6.6949 -0.0004
11 -2 11 -8.1198 0.0022
11 -2 12 6.6506 -0.0021
11 -2 13 -4.5293 0.0001
11 -2 14 3.4062 0.0012
11 -2 15 -2.8638 -0.0002
11 -2 16 1.7273 -0.0014
11 -2 17 0.2648 0.0001
11 -2 18 -2.0427 0.0040
11 -2 19 2.5508 -0.0070
11 -1 0 -7.6809 0.0070
11 -1 1 10.2056 -0.0044
11 -1 2 -9.1262 0.0011
11 -1 3 5.8946 0.0031
11 -1 4 -3.1821 -0.0068
11 -1 5 1.6789 0.0070
11 -1 6 -0.1134 -0.0031
11 -1 7 -2.1193 -0.0012
11 -1 8 4.2061 0.0025
11 -1 9 -4.3977 -0.0007
11 -1 10 2.1231 -0.0015
11 -1 11 0.7383 0.0020
11 -1 12 -2.3335 -0.0007
11 -1 13 2.3929 -0.0004
11 -1 14 -1.7518 0.0002
11 -1 15 1.4022 -0.0000
11 -1 16 -1.3214 0.0018
11 -1 17 0.8681 -0.0039
11 -1 18 0.2938 0.0027
11 -1 19 -1.6374 0.0023
11 0 0 -2.9940 0.0047
11 0 1 0.1179 0.0038
11 0 2 2.9853 -0.0106
11 0 3 -4.7764 0.0136
11 0 4 4.6186 -0.0113
11 0 5 -3.2114 0.0050
11 0 6 1.4494 0.0014
11 0 7 1.3198 -0.0040
11 0 8 -5.5508 0.0031
11 0 9 9.6870 -0.0017
11 0 10 -11.4327 0.0017
11 0 11 9.6443 -0.0022
11 0 12 -5.9979 0.0013
11 0 13 3.5342 0.0010
11 0 14 -3.2307 -0.0029
11 0 15 3.8355 0.0033
11 0 16 -3.5708 -0.0033
11 0 17 1.9540 0.0048
11 0 18 -0.1286 -0.0068
11 0 19 -0.6438 0.0051
11 0 20 0.1306 0.0013
11 1 0 10.3229 -0.0140
11 1 1 -10.2794 0.0175
11 1 2 8.5693 -0.0142
11 1 3 -5.8611 0.0065
11 1 4 3.2163 0.0011
11 1 5 -1.0888 -0.0052
11 1 6 -0.7413 0.0047
11 1 7 2.7340 -0.0017
11 1 8 -4.0090 -0.0006
11 1 9 2.3021 0.0004
11 1 10 2.5045 0.0011
11 1 11 -7.2489 -0.0016
11 1 12 8.2589 0.0005
11 1 13 -4.5916 0.0008
11 1 14 -0.5745 -0.0006
11 1 15 3.3255 -0.0001
11 1 16 -2.7902 -0.0003
11 1 17 1.0697 0.0012
11 1 18 -0.7681 -0.0001
11 1 19 2.1742 -0.0034
11 1 20 -3.5756 0.0052
11 2 0 -2.1546 -0.0150
11 2 1 4.7576 0.0059
11 2 2 -6.1162 0.0046
11 2 3 5.2832 -0.0102
11 2 4 -2.6114 0.0095
11 2 5 -0.2932 -0.0055
11 2 6 2.1137 0.0015
11 2 7 -3.2122 0.0009
11 2 8 5.0725 -0.0012
11 2 9 -8.3818 -0.0001
11 2 10 10.8375 0.0014
11 2 11 -8.9004 -0.0007
11 2 12 2.6281 -0.0012
11 2 13 3.8790 0.0020
11 2 14 -6.0859 -0.0008
11 2 15 3.2185 -0.0008
11 2 16 0.9940 0.0008
11 2 17 -2.6247 -0.0004
11 2 18 0.9450 0.0011
11 2 19 1.5906 -0.0014
11 2 20 -2.4121 -0.0008
11 2 21 1.4948 0.0042
11 3 0 -10.5006 0.0025
11 3 1 10.3471 -0.0115
11 3 2 -6.7889 0.0128
11 3 3 1.5573 -0.0074
11 3 4 2.2888 0.0009
11 3 5 -2.7574 0.0024
11 3 6 0.6132 -0.0035
11 3 7 1.2413 0.0040
11 3 8 -1.0426 -0.0031
11 3 9 0.0911 0.0007
11 3 10 -1.0977 0.0008
11 3 11 4.7934 -0.0002
11 3 12 -7.7345 -0.0008
11 3 13 5.8625 -0.0004
11 3 14 0.5468 0.0028
11 3 15 -7.1865 -0.0034
11 3 16 9.5656 0.0016
11 3 17 -7.1823 -0.0004
11 3 18 3.1876 0.0011
11 3 19 -0.7006 -0.0020
11 3 20 0.4482 0.0015
11 3 21 -0.8030 -0.0006
11 4 0 -0.5592 0.0180
11 4 1 -1.3632 -0.0159
11 4 2 5.3714 0.0061
11 4 3 -6.9716 0.0040
11 4 4 3.7763 -0.0087
11 4 5 2.1698 0.0090
11 4 6 -6.4004 -0.0084
11 4 7 6.1913 0.0071
11 4 8 -3.0891 -0.0041
11 4 9 1.0574 0.0009
11 4 10 -1.6834 -0.0002
11 4 11 2.7587 0.0012
11 4 12 -0.9017 -0.0009
11 4 13 -4.3596 -0.0012
11 4 14 9.1097 0.0020
11 4 15 -9.4944 0.0001
11 4 16 5.6300 -0.0027
11 4 17 -1.0653 0.0030
11 4 18 -0.7590 -0.0018
11 4 19 -0.3495 0.0015
11 4 20 2.3604 -0.0029
11 4 21 -3.2070 0.0042
11 5 0 -0.9638 0.0135
11 5 1 -3.6948 -0.0038
11 5 2 5.9127 -0.0066
11 5 3 -2.5356 0.0113
11 5 4 -3.9040 -0.0094
11 5 5 7.7330 0.0052
11 5 6 -5.9412 -0.0024
11 5 7 0.9784 0.0008
11 5 8 2.2194 0.0004
11 5 9 -1.0147 -0.0004
11 5 10 -2.4699 -0.0007
11 5 11 4.2523 0.0008
11 5 12 -3.1850 0.0010
11 5 13 1.5169 -0.0024
11 5 14 -2.3886 0.0013
11 5 15 5.9347 0.0012
11 5 16 -8.7841 -0.0024
11 5 17 8.0644 0.0021
11 5 18 -4.0798 -0.0021
11 5 19 -0.1344 0.0036
11 5 20 2.0538 -0.0057
11 5 21 -1.5389 0.0068
11 6 0 -0.0324 -0.0051
11 6 1 -4.7001 0.0093
11 6 2 3.4220 -0.0107
11 6 3 1.5035 0.0066
11 6 4 -4.3902 0.0005
11 6 5 2.0678 -0.0047
11 6 6 3.0507 0.0041
11 6 7 -5.7503 -0.0013
11 6 8 3.6689 -0.0005
11 6 9 1.0081 0.0009
11 6 10 -4.2791 -0.0004
11 6 11 4.1455 -0.0008
11 6 12 -2.5176 0.0016
11 6 13 2.1564 -0.0009
11 6 14 -3.5025 -0.0005
11 6 15 4.6682 0.0012
11 6 16 -3.4717 -0.0008
11 6 17 0.3415 0.0004
11 6 18 2.2606 -0.0013
11 6 19 -2.4809 0.0030
11 6 20 0.7240 -0.0043
11 6 21 0.9534 0.0042
11 7 0 7.2482 -0.0025
11 7 1 -6.4037 0.0014
11 7 2 2.4001 0.0013
11 7 3 -0.3489 -0.0066
11 7 4 2.7125 0.0105
11 7 5 -7.2778 -0.0091
11 7 6 9.8365 0.0042
11 7 7 -8.3057 -0.0006
11 7 8 4.7502 -0.0001
11 7 9 -2.7927 -0.0003
11 7 10 3.7155 -0.0001
11 7 11 -6.1153 0.0009
11 7 12 7.4931 -0.0012
11 7 13 -6.9473 0.0007
11 7 14 5.9130 0.0005
11 7 15 -5.4685 -0.0015
11 7 16 5.2792 0.0014
11 7 17 -4.3014 -0.0005
11 7 18 2.2172 -0.0005
11 7 19 0.0404 0.0006
11 7 20 -1.4731 0.0001
11 7 21 1.5980 -0.0012
11 8 0 0.3868 0.0014
11 8 1 3.5556 -0.0045
11 8 2 -5.3845 0.0075
11 8 3 3.8051 -0.0091
11 8 4 -1.1527 0.0072
11 8 5 0.4239 -0.0025
11 8 6 -2.0304 -0.0011
11 8 7 4.0841 0.0015
11 8 8 -4.3328 -0.0003
11 8 9 2.1723 0.0003
11 8 10 0.4760 -0.0014
11 8 11 -1.7100 0.0020
11 8 12 1.4672 -0.0012
11 8 13 -0.7832 -0.0001
11 8 14 0.5877 0.0005
11 8 15 -0.2893 0.0001
11 8 16 -0.8450 -0.0003
11 8 17 1.9784 -0.0012
11 8 18 -1.9295 0.0039
11 8 19 0.7703 -0.0060
11 8 20 0.1592 0.0059
11 8 21 -0.2708 -0.0038
11 9 0 -3.9083 0.0077
11 9 1 4.7005 -0.0099
11 9 2 -3.8928 0.0075
11 9 3 3.9122 -0.0027
11 9 4 -6.0769 -0.0012
11 9 5 9.1558 0.0027
11 9 6 -10.4509 -0.0017
11 9 7 9.0886 -0.0005
11 9 8 -6.7573 0.0017
11 9 9 5.3503 -0.0010
11 9 10 -5.7457 -0.0003
11 9 11 6.9899 0.0006
11 9 12 -7.0457 -0.0000
11 9 13 5.5787 0.0001
11 9 14 -3.9638 -0.0010
11 9 15 3.4381 0.0016
11 9 16 -3.5051 -0.0006
11 9 17 2.4422 -0.0011
11 9 18 -0.1653 0.0014
11 9 19 -1.5553 0.0007
11 9 20 1.4552 -0.0036
11 10 0 5.5028 0.0097
11 10 1 -7.1230 -0.0034
11 10 2 6.4091 -0.0042
11 10 3 -3.2771 0.0073
11 10 4 0.8457 -0.0054
11 10 5 -1.7641 0.0019
11 10 6 5.4838 0.0007
11 10 7 -8.5108 -0.0018
11 10 8 7.7442 0.0014
11 10 9 -4.1018 0.0000
11 10 10 0.8175 -0.0008
11 10 11 0.0523 0.0001
11 10 12 1.4353 0.0008
11 10 13 -3.0961 -0.0008
11 10 14 2.8947 0.0004
11 10 15 -1.2313 -0.0003
11 10 16 0.0718 0.0001
11 10 17 -0.6383 0.0012
11 10 18 1.8140 -0.0031
11 10 19 -1.9279 0.0042
11 10 20 0.9842 -0.0035
11 11 0 6.5062 -0.0013
11 11 1 -5.9159 0.0084
11 11 2 3.0414 -0.0098
11 11 3 -1.2270 0.0054
11 11 4 3.4913 -0.0002
11 11 5 -8.4122 -0.0023
11 11 6 11.0783 0.0026
11 11 7 -8.5489 -0.0021
11 11 8 2.6407 0.0011
11 11 9 1.7123 0.0000
11 11 10 -1.6611 -0.0005
11 11 11 -0.8564 0.0004
11 11 12 2.5929 -0.0006
11 11 13 -1.9793 0.0009
11 11 14 -0.4225 -0.0007
11 11 15 2.5582 0.0003
11 11 16 -2.8967 -0.0000
11 11 17 1.6142 -0.0010
11 11 18 -0.3140 0.0032
11 11 19 0.0718 -0.0050
11 12 0 -0.5777 -0.0159
11 12 1 6.0443 0.0124
11 12 2 -9.0267 -0.0057
11 12 3 7.4850 -0.0007
11 12 4 -2.8687 0.0037
11 12 5 -0.2484 -0.0035
11 12 6 -1.7633 0.0023
11 12 7 6.6650 -0.0016
11 12 8 -9.0014 0.0011
11 12 9 6.2258 -0.0005
11 12 10 -0.8180 0.0000
11 12 11 -2.6699 0.0005
11 12 12 2.6979 -0.0008
11 12 13 -1.0778 0.0008
11 12 14 -0.2971 -0.0010
11 12 15 0.6358 0.0013
11 12 16 -0.1230 -0.0004
11 12 17 -0.5644 -0.0019
11 12 18 0.5789 0.0037
11 12 19 0.2954 -0.0029
11 13 0 -6.6504 0.0055
11 13 1 10.6569 -0.0086
11 13 2 -8.6389 0.0094
11 13 3 2.8700 -0.0082
11 13 4 1.8816 0.0049
11 13 5 -2.3716 -0.0013
11 13 6 -0.5731 -0.0006
11 13 7 2.3418 0.0009
11 13 8 0.0174 -0.0008
11 13 9 -4.1038 0.0011
11 13 10 5.8946 -0.0015
11 13 11 -4.2827 0.0014
11 13 12 1.5912 -0.0009
11 13 13 -0.3257 0.0005
11 13 14 0.5472 -0.0005
11 13 15 -1.2345 0.0003
11 13 16 1.7458 0.0008
11 13 17 -1.8975 -0.0018
11 13 18 1.5978 0.0011
11 14 0 -5.9492 0.0040
11 14 1 3.0804 -0.0007
11 14 2 2.9186 -0.0013
11 14 3 -7.3533 0.0023
11 14 4 6.9124 -0.0027
11 14 5 -2.8462 0.0024
11 14 6 -1.0019 -0.0014
11 14 7 2.0582 0.0007
11 14 8 -1.1727 -0.0006
11 14 9 1.2858 0.0002
11 14 10 -3.2430 0.0007
11 14 11 5.1158 -0.0016
11 14 12 -5.0732 0.0024
11 14 13 3.2839 -0.0028
11 14 14 -1.3950 0.0025
11 14 15 0.3193 -0.0013
11 14 16 0.1236 -0.0003
11 14 17 -0.2994 0.0018
11 15 0 -2.0571 -0.0051
11 15 1 -3.1016 0.0057
11 15 2 5.9374 -0.0049
11 15 3 -4.4146 0.0034
11 15 4 0.0162 -0.0021
11 15 5 3.7261 0.0020
11 15 6 -4.9327 -0.0028
11 15 7 4.6715 0.0027
11 15 8 -4.4666 -0.0006
11 15 9 4.5976 -0.0017
11 15 10 -4.2346 0.0016
11 15 11 2.8872 0.0004
11 15 12 -1.2019 -0.0015
11 15 13 0.0759 0.0010
11 15 14 -0.0101 -0.0007
11 15 15 0.5391 0.0012
11 16 0 1.3268 -0.0001
11 16 1 -3.4277 0.0027
11 16 2 3.0112 -0.0031
11 16 3 -1.6165 0.0017
11 16 4 1.3006 -0.0013
11 16 5 -2.2608 0.0024
11 16 6 3.1522 -0.0024
11 16 7 -3.1949 -0.0012
11 16 8 3.2872 0.0051
11 16 9 -4.1700 -0.0040
11 16 10 5.0791 -0.0015
11 16 11 -4.8460 0.0049
11 16 12 3.3505 -0.0026
11 16 13 -1.6013 -0.0017
11 16 14 0.3162 0.0031
11 17 0 -0.5246 -0.0090
11 17 1 -0.6077 0.0069
11 17 2 1.5213 -0.0024
11 17 3 -2.4552 -0.0010
11 17 4 2.7636 0.0005
11 17 5 -1.7711 0.0013
11 17 6 0.1497 -0.0002
11 17 7 0.4056 -0.0031
11 17 8 0.8263 0.0032
11 17 9 -2.4112 0.0013
11 17 10 2.5367 -0.0038
11 17 11 -1.2454 -0.0010
11 17 12 -0.0567 0.0088
11 18 0 -0.3158 -0.0009
11 18 1 -0.4258 -0.0019
11 18 2 0.3107 0.0030
11 18 3 1.3179 -0.0021
11 18 4 -3.9055 -0.0000
11 18 5 5.6908 0.0010
11 18 6 -5.4410 0.0003
11 18 7 3.5374 -0.0008
11 18 8 -1.4784 -0.0024
11 18 9 0.6821 0.0060
11 19 0 1.6966 0.0082
11 19 1 -1.2601 -0.0054
11 19 2 -0.3893 0.0043
11 19 3 2.2730 -0.0049
11 19 4 -2.9145 0.0054
12 -9 0 -0.9374 -0.0043
12 -9 1 2.8890 0.0041
12 -9 2 -3.4929 -0.0010
12 -8 0 -6.0432 -0.0130
12 -8 1 5.4942 0.0109
12 -8 2 -3.1040 -0.0054
12 -8 3 0.7362 0.0020
12 -8 4 0.7697 -0.0019
12 -8 5 -1.6609 0.0021
12 -8 6 2.3366 -0.0021
12 -8 7 -2.3824 0.0043
12 -7 0 -2.5375 -0.0161
12 -7 1 -1.5083 0.0061
12 -7 2 3.7503 0.0048
12 -7 3 -3.0016 -0.0084
12 -7 4 0.2725 0.0048
12 -7 5 2.5945 -0.0000
12 -7 6 -4.2721 -0.0018
12 -7 7 4.7078 0.0005
12 -7 8 -4.7595 0.0033
12 -7 9 4.5928 -0.0083
12 -7 10 -3.6543 0.0111
12 -6 0 6.7450 0.0019
12 -6 1 -7.4003 -0.0118
12 -6 2 4.1688 0.0144
12 -6 3 0.6510 -0.0074
12 -6 4 -4.0005 -0.0018
12 -6 5 4.0201 0.0052
12 -6 6 -1.1482 -0.0028
12 -6 7 -2.1961 -0.0008
12 -6 8 3.6285 0.0026
12 -6 9 -3.0961 -0.0029
12 -6 10 2.3416 0.0022
12 -6 11 -2.0567 -0.0015
12 -6 12 1.5684 0.0027
12 -5 0 2.9987 0.0172
12 -5 1 -0.0383 -0.0150
12 -5 2 -3.3950 0.0070
12 -5 3 4.0451 0.0022
12 -5 4 -0.6905 -0.0067
12 -5 5 -5.1898 0.0058
12 -5 6 10.3736 -0.0038
12 -5 7 -11.7704 0.0037
12 -5 8 9.0898 -0.0041
12 -5 9 -5.1578 0.0033
12 -5 10 2.8981 -0.0021
12 -5 11 -2.3402 0.0011
12 -5 12 1.8133 0.0010
12 -5 13 -0.9005 -0.0042
12 -5 14 0.2901 0.0060
12 -4 0 -6.1976 0.0003
12 -4 1 6.8335 0.0079
12 -4 2 -6.1673 -0.0120
12 -4 3 3.0988 0.0116
12 -4 4 1.1118 -0.0087
12 -4 5 -3.7652 0.0057
12 -4 6 3.0704 -0.0039
12 -4 7 0.6852 0.0025
12 -4 8 -4.7657 -0.0010
12 -4 9 6.0189 0.0006
12 -4 10 -4.0716 -0.0018
12 -4 11 1.4086 0.0024
12 -4 12 -0.2319 -0.0006
12 -4 13 0.1964 -0.0023
12 -4 14 -0.0183 0.0027
12 -4 15 -0.5264 0.0000
12 -3 0 2.1604 -0.0209
12 -3 1 -0.7016 0.0192
12 -3 2 -0.3782 -0.0115
12 -3 3 0.8473 0.0035
12 -3 4 -1.5709 0.0012
12 -3 5 3.6646 -0.0028
12 -3 6 -6.6451 0.0033
12 -3 7 8.7462 -0.0031
12 -3 8 -8.4257 0.0017
12 -3 9 5.5862 0.0002
12 -3 10 -2.1664 -0.0008
12 -3 11 0.2696 -0.0006
12 -3 12 -0.0454 0.0025
12 -3 13 0.1322 -0.0019
12 -3 14 0.2628 -0.0020
12 -3 15 -0.5633 0.0066
12 -3 16 0.2595 -0.0079
12 -2 0 4.6208 -0.0127
12 -2 1 -1.6682 0.0033
12 -2 2 0.2973 0.0062
12 -2 3 -0.1369 -0.0108
12 -2 4 0.4654 0.0102
12 -2 5 -0.6647 -0.0074
12 -2 6 1.0275 0.0044
12 -2 7 -2.1072 -0.0015
12 -2 8 3.2523 -0.0012
12 -2 9 -3.4988 0.0026
12 -2 10 2.5503 -0.0026
12 -2 11 -0.9381 0.0021
12 -2 12 -0.3571 -0.0022
12 -2 13 0.9969 0.0025
12 -2 14 -1.3914 -0.0018
12 -2 15 1.9467 -0.0011
12 -2 16 -2.3962 0.0060
12 -2 17 2.2452 -0.0099
12 -1 0 -2.0058 0.0038
12 -1 1 1.7262 -0.0119
12 -1 2 0.3046 0.0149
12 -1 3 -2.5022 -0.0118
12 -1 4 3.9417 0.0060
12 -1 5 -4.6086 -0.0016
12 -1 6 4.5803 -0.0003
12 -1 7 -3.7415 0.0007
12 -1 8 1.5628 -0.0007
12 -1 9 1.3293 0.0009
12 -1 10 -3.0165 -0.0015
12 -1 11 2.7431 0.0024
12 -1 12 -1.5375 -0.0029
12 -1 13 0.8802 0.0022
12 -1 14 -1.1836 -0.0005
12 -1 15 1.6899 -0.0012
12 -1 16 -1.7195 0.0014
12 -1 17 1.2582 0.0018
12 -1 18 -0.8615 -0.0072
12 0 0 -2.4125 0.0150
12 0 1 0.4263 -0.0160
12 0 2 1.4551 0.0104
12 0 3 -2.2488 -0.0026
12 0 4 2.1036 -0.0028
12 0 5 -1.8585 0.0040
12 0 6 1.1861 -0.0026
12 0 7 0.4044 0.0010
12 0 8 -2.2284 -0.0006
12 0 9 2.4079 0.0010
12 0 10 0.4079 -0.0016
12 0 11 -4.4617 0.0019
12 0 12 6.4933 -0.0016
12 0 13 -5.4344 0.0007
12 0 14 2.9119 0.0005
12 0 15 -1.1077 -0.0013
12 0 16 0.5796 0.0003
12 0 17 -0.5850 0.0025
12 0 18 0.3792 -0.0041
12 1 0 -0.4488 0.0147
12 1 1 1.0450 -0.0040
12 1 2 -1.9193 -0.0056
12 1 3 2.3341 0.0092
12 1 4 -2.0420 -0.0068
12 1 5 1.2537 0.0018
12 1 6 -1.1883 0.0021
12 1 7 2.0560 -0.0031
12 1 8 -1.9140 0.0020
12 1 9 -0.6797 -0.0005
12 1 10 4.5068 -0.0002
12 1 11 -6.1835 0.0006
12 1 12 3.7866 -0.0010
12 1 13 0.3499 0.0009
12 1 14 -2.4404 0.0001
12 1 15 1.1738 -0.0007
12 1 16 1.6000 -0.0004
12 1 17 -3.2875 0.0019
12 1 18 3.0700 -0.0009
12 1 19 -1.7188 -0.0022
12 2 0 -2.4976 -0.0115
12 2 1 5.5828 0.0188
12 2 2 -6.2547 -0.0177
12 2 3 4.8029 0.0102
12 2 4 -3.2709 -0.0013
12 2 5 3.1759 -0.0046
12 2 6 -4.5562 0.0058
12 2 7 5.8082 -0.0038
12 2 8 -4.7868 0.0019
12 2 9 2.0911 -0.0022
12 2 10 -0.9022 0.0031
12 2 11 3.0592 -0.0025
12 2 12 -6.7062 0.0009
12 2 13 7.6761 -0.0004
12 2 14 -4.2251 0.0008
12 2 15 -0.9529 -0.0001
12 2 16 4.0023 -0.0016
12 2 17 -3.5045 0.0012
12 2 18 1.2684 0.0024
12 2 19 0.3230 -0.0057
12 3 0 -2.9402 -0.0159
12 3 1 1.6340 0.0096
12 3 2 2.5038 -0.0008
12 3 3 -5.8020 -0.0065
12 3 4 5.5307 0.0093
12 3 5 -2.3758 -0.0074
12 3 6 -0.4471 0.0029
12 3 7 0.6982 0.0001
12 3 8 1.1465 0.0007
12 3 9 -2.1834 -0.0033
12 3 10 0.0654 0.0035
12 3 11 3.5879 -0.0012
12 3 12 -5.0201 -0.0003
12 3 13 2.6231 -0.0005
12 3 14 1.2482 0.0014
12 3 15 -2.6177 -0.0010
12 3 16 0.4436 0.0011
12 3 17 2.8112 -0.0036
12 3 18 -4.1752 0.0058
12 3 19 2.9892 -0.0038
12 3 20 -1.0211 -0.0019
12 4 0 0.0441 0.0029
12 4 1 -6.5996 -0.0091
12 4 2 10.8887 0.0107
12 4 3 -9.9072 -0.0086
12 4 4 5.1391 0.0045
12 4 5 -0.9636 0.0001
12 4 6 0.7269 -0.0030
12 4 7 -3.2927 0.0025
12 4 8 4.7891 0.0003
12 4 9 -3.0425 -0.0015
12 4 10 -0.6602 -0.0003
12 4 11 2.7690 0.0020
12 4 12 -1.4158 -0.0010
12 4 13 -1.2894 -0.0006
12 4 14 2.0543 0.0004
12 4 15 0.0981 0.0003
12 4 16 -2.8621 0.0008
12 4 17 3.4654 -0.0023
12 4 18 -1.7919 0.0000
12 4 19 -0.2408 0.0057
12 4 20 0.8485 -0.0097
12 5 0 -0.4331 0.0112
12 5 1 -2.3832 -0.0097
12 5 2 0.2786 0.0042
12 5 3 5.1197 0.0009
12 5 4 -8.8453 -0.0038
12 5 5 7.6793 0.0050
12 5 6 -2.9148 -0.0051
12 5 7 -1.0255 0.0036
12 5 8 1.1021 -0.0017
12 5 9 1.1157 0.0009
12 5 10 -2.0794 -0.0009
12 5 11 0.2248 -0.0001
12 5 12 3.0307 0.0012
12 5 13 -4.7791 -0.0005
12 5 14 3.9884 -0.0013
12 5 15 -2.3297 0.0011
12 5 16 1.8427 0.0005
12 5 17 -2.7659 -0.0001
12 5 18 3.3547 -0.0036
12 5 19 -2.4192 0.0061
12 5 20 0.5482 -0.0036
12 6 0 -0.2218 0.0147
12 6 1 1.7692 -0.0057
12 6 2 -5.2529 -0.0040
12 6 3 7.1840 0.0081
12 6 4 -4.7667 -0.0071
12 6 5 -0.5455 0.0051
12 6 6 4.5084 -0.0035
12 6 7 -4.5840 0.0015
12 6 8 1.9159 0.0007
12 6 9 0.0093 -0.0017
12 6 10 0.7867 0.0014
12 6 11 -2.8733 -0.0011
12 6 12 4.0950 0.0008
12 6 13 -3.7410 -0.0001
12 6 14 2.7207 0.0001
12 6 15 -2.3774 -0.0008
12 6 16 2.7326 0.0002
12 6 17 -2.8432 0.0031
12 6 18 1.9881 -0.0061
12 6 19 -0.6199 0.0045
12 6 20 -0.1977 0.0010
12 7 0 3.8783 -0.0012
12 7 1 -2.0836 0.0117
12 7 2 1.1511 -0.0152
12 7 3 -2.2303 0.0100
12 7 4 4.2342 -0.0025
12 7 5 -4.5980 -0.0013
12 7 6 1.8658 0.0020
12 7 7 2.1716 -0.0024
12 7 8 -4.6514 0.0027
12 7 9 4.5132 -0.0018
12 7 10 -2.9190 0.0007
12 7 11 2.0047 -0.0007
12 7 12 -2.2414 0.0012
12 7 13 2.3646 -0.0009
12 7 14 -1.7658 0.0001
12 7 15 0.9241 0.0007
12 7 16 -0.5311 -0.0017
12 7 17 0.4487 0.0021
12 7 18 -0.0514 -0.0001
12 7 19 -0.6942 -0.0046
12 7 20 1.3077 0.0082
12 8 0 1.7168 -0.0155
12 8 1 -0.6926 0.0126
12 8 2 0.9508 -0.0043
12 8 3 -0.6243 -0.0042
12 8 4 -1.6864 0.0071
12 8 5 5.0569 -0.0041
12 8 6 -7.5147 0.0002
12 8 7 7.4201 0.0012
12 8 8 -5.1692 -0.0011
12 8 9 3.1919 0.0010
12 8 10 -3.0340 -0.0007
12 8 11 4.1328 -0.0000
12 8 12 -4.7577 0.0000
12 8 13 3.8658 0.0010
12 8 14 -2.6760 -0.0016
12 8 15 2.6655 0.0007
12 8 16 -3.2774 0.0008
12 8 17 2.8865 -0.0018
12 8 18 -1.2117 0.0023
12 8 19 -0.1692 -0.0020
12 9 0 -0.2530 0.0012
12 9 1 -1.5689 -0.0072
12 9 2 2.5347 0.0092
12 9 3 -1.4950 -0.0077
12 9 4 0.0246 0.0035
12 9 5 -1.0823 0.0011
12 9 6 4.9055 -0.0029
12 9 7 -8.7811 0.0020
12 9 8 9.9986 -0.0009
12 9 9 -7.8051 0.0012
12 9 10 4.3606 -0.0015
12 9 11 -2.7279 0.0009
12 9 12 3.5458 -0.0002
12 9 13 -4.8736 -0.0000
12 9 14 4.3042 0.0003
12 9 15 -1.7802 -0.0006
12 9 16 -0.2122 -0.0005
12 9 17 0.0957 0.0032
12 9 18 0.8861 -0.0060
12 9 19 -0.6477 0.0075
12 10 0 2.0778 0.0150
12 10 1 -4.0504 -0.0108
12 10 2 2.8968 0.0055
12 10 3 -1.1423 -0.0022
12 10 4 1.7254 -0.0003
12 10 5 -5.1725 0.0024
12 10 6 8.2720 -0.0026
12 10 7 -7.4326 0.0017
12 10 8 3.2774 -0.0018
12 10 9 0.5347 0.0028
12 10 10 -1.0768 -0.0026
12 10 11 -1.6200 0.0012
12 10 12 4.5383 -0.0004
12 10 13 -4.7989 0.0006
12 10 14 2.3387 -0.0004
12 10 15 0.4443 -0.0004
12 10 16 -1.2019 0.0006
12 10 17 0.2077 -0.0003
12 10 18 0.4868 0.0010
12 10 19 0.1597 -0.0026
12 11 0 2.8498 0.0033
12 11 1 1.7561 0.0023
12 11 2 -7.2418 -0.0046
12 11 3 9.6008 0.0048
12 11 4 -8.1073 -0.0052
12 11 5 5.7672 0.0048
12 11 6 -6.0855 -0.0026
12 11 7 9.2993 0.0003
12 11 8 -11.4784 -0.0001
12 11 9 9.4013 0.0006
12 11 10 -4.4167 -0.0000
12 11 11 0.1041 -0.0007
12 11 12 1.2435 0.0005
12 11 13 -0.0265 -0.0004
12 11 14 -1.6849 0.0010
12 11 15 2.2283 -0.0010
12 11 16 -1.3435 -0.0004
12 11 17 0.1590 0.0014
12 11 18 0.2322 -0.0008
12 12 0 -0.1683 -0.0024
12 12 1 6.1209 0.0051
12 12 2 -7.9334 -0.0056
12 12 3 4.9625 0.0045
12 12 4 -0.2865 -0.0026
12 12 5 -1.6825 -0.0000
12 12 6 -0.0445 0.0022
12 12 7 2.4544 -0.0022
12 12 8 -2.0914 0.0007
12 12 9 -0.7952 0.0001
12 12 10 2.6760 0.0004
12 12 11 -1.7116 -0.0012
12 12 12 -0.6391 0.0013
12 12 13 2.3336 -0.0009
12 12 14 -2.7569 -0.0005
12 12 15 2.3164 0.0027
12 12 16 -1.2739 -0.0039
12 12 17 0.0740 0.0026
12 13 0 -1.1680 -0.0054
12 13 1 0.1928 0.0059
12 13 2 4.5867 -0.0030
12 13 3 -9.7211 -0.0012
12 13 4 11.6518 0.0040
12 13 5 -9.0286 -0.0045
12 13 6 4.5777 0.0035
12 13 7 -2.0976 -0.0019
12 13 8 2.2498 0.0007
12 13 9 -2.5928 -0.0006
12 13 10 1.0170 0.0008
12 13 11 1.4910 -0.0004
12 13 12 -2.7364 -0.0004
12 13 13 2.3801 0.0009
12 13 14 -1.5280 -0.0002
12 13 15 0.8587 -0.0020
12 13 16 -0.0663 0.0053
12 13 17 -0.7810 -0.0077
12 14 0 -6.8277 -0.0040
12 14 1 2.2014 -0.0006
12 14 2 1.8634 0.0053
12 14 3 -2.8176 -0.0068
12 14 4 0.8518 0.0052
12 14 5 1.9574 -0.0027
12 14 6 -3.1400 0.0009
12 14 7 2.0737 0.0003
12 14 8 -0.5446 -0.0006
12 14 9 0.2102 0.0005
12 14 10 -0.7988 -0.0009
12 14 11 0.7662 0.0017
12 14 12 0.4745 -0.0013
12 14 13 -1.8149 -0.0007
12 14 14 2.2345 0.0033
12 14 15 -1.7227 -0.0047
12 15 0 -4.2923 0.0057
12 15 1 1.4799 -0.0063
12 15 2 -0.5372 0.0044
12 15 3 0.6036 -0.0018
12 15 4 -0.1307 0.0001
12 15 5 -1.1622 0.0009
12 15 6 2.3289 -0.0017
12 15 7 -2.5576 0.0014
12 15 8 1.9253 0.0001
12 15 9 -1.2780 -0.0006
12 15 10 1.2076 -0.0009
12 15 11 -1.7261 0.0023
12 15 12 2.3899 -0.0013
12 15 13 -2.3901 -0.0007
12 15 14 1.5348 0.0009
12 16 0 2.2647 0.0006
12 16 1 -2.9314 0.0013
12 16 2 3.0184 -0.0017
12 16 3 -3.5382 0.0001
12 16 4 3.8837 0.0008
12 16 5 -2.6594 0.0003
12 16 6 -0.0161 -0.0007
12 16 7 2.1606 -0.0013
12 16 8 -2.2165 0.0030
12 16 9 0.6441 -0.0012
12 16 10 0.8627 -0.0021
12 16 11 -1.4892 0.0019
12 16 12 1.6731 0.0018
12 17 0 1.3768 -0.0066
12 17 1 -1.1612 0.0066
12 17 2 0.8227 -0.0048
12 17 3 0.0852 0.0029
12 17 4 -2.3321 -0.0030
12 17 5 5.3603 0.0035
12 17 6 -7.0100 -0.0016
12 17 7 5.8558 -0.0011
12 17 8 -3.1186 0.0001
12 17 9 1.1114 0.0043
12 17 10 -0.7490 -0.0062
12 18 0 0.1469 -0.0070
12 18 1 -0.4098 0.0065
12 18 2 0.3994 -0.0035
12 18 3 0.4614 0.0002
12 18 4 -1.5004 0.0013
12 18 5 1.5785 -0.0022
12 18 6 -0.3132 0.0038
12 18 7 -1.4147 -0.0040
13 -7 0 -1.5353 -0.0176
13 -7 1 -0.1052 0.0115
13 -7 2 0.2701 -0.0040
13 -7 3 0.4881 0.0021
13 -7 4 -1.2534 -0.0044
13 -7 5 1.1978 0.0054
13 -6 0 2.8424 -0.0123
13 -6 1 -2.1348 0.0015
13 -6 2 -0.2110 0.0052
13 -6 3 2.0163 -0.0048
13 -6 4 -1.9986 0.0019
13 -6 5 0.2970 -0.0014
13 -6 6 1.7546 0.0026
13 -6 7 -2.3332 -0.0034
13 -6 8 1.2384 0.0036
13 -6 9 -0.1338 -0.0037
13 -5 0 -0.6043 0.0026
13 -5 1 4.2566 -0.0103
13 -5 2 -6.7269 0.0118
13 -5 3 6.4278 -0.0077
13 -5 4 -4.1078 0.0028
13 -5 5 1.7554 -0.0001
13 -5 6 -0.8996 -0.0003
13 -5 7 1.7190 -0.0007
13 -5 8 -2.7178 0.0020
13 -5 9 2.1649 -0.0015
13 -5 10 -0.5483 -0.0016
13 -5 11 -0.2792 0.0050
13 -4 0 -3.4097 0.0074
13 -4 1 4.2070 -0.0071
13 -4 2 -2.9409 0.0032
13 -4 3 0.4781 0.0027
13 -4 4 1.2572 -0.0072
13 -4 5 -1.2960 0.0075
13 -4 6 0.0760 -0.0043
13 -4 7 1.3232 0.0009
13 -4 8 -2.0633 0.0001
13 -4 9 2.0707 0.0012
13 -4 10 -2.2183 -0.0015
13 -4 11 2.9850 -0.0018
13 -4 12 -3.3632 0.0069
13 -3 0 3.7669 0.0027
13 -3 1 -5.6146 0.0020
13 -3 2 7.4545 -0.0066
13 -3 3 -8.4378 0.0100
13 -3 4 8.1226 -0.0100
13 -3 5 -7.0918 0.0063
13 -3 6 5.9643 -0.0021
13 -3 7 -4.7884 0.0007
13 -3 8 3.4266 -0.0015
13 -3 9 -2.0529 0.0010
13 -3 10 1.1043 0.0027
13 -3 11 -0.8814 -0.0070
13 -3 12 1.4295 0.0082
13 -3 13 -2.0771 -0.0058
13 -3 14 1.9064 0.0028
13 -2 0 2.0432 -0.0120
13 -2 1 -1.3298 0.0128
13 -2 2 0.6218 -0.0097
13 -2 3 -0.2637 0.0049
13 -2 4 0.2162 0.0002
13 -2 5 -0.5101 -0.0039
13 -2 6 1.0241 0.0046
13 -2 7 -1.2721 -0.0031
13 -2 8 1.1550 0.0021
13 -2 9 -1.1647 -0.0031
13 -2 10 1.7903 0.0040
13 -2 11 -2.6994 -0.0028
13 -2 12 3.0479 0.0002
13 -2 13 -2.4743 0.0012
13 -2 14 1.3845 -0.0009
13 -2 15 -0.6811 0.0002
13 -1 0 -6.9815 -0.0168
13 -1 1 8.3133 0.0074
13 -1 2 -8.2680 0.0018
13 -1 3 7.1329 -0.0070
13 -1 4 -5.6100 0.0074
13 -1 5 4.0526 -0.0045
13 -1 6 -2.6254 0.0006
13 -1 7 2.0669 0.0020
13 -1 8 -2.4790 -0.0022
13 -1 9 2.7260 0.0014
13 -1 10 -1.8572 -0.0011
13 -1 11 0.3792 0.0011
13 -1 12 0.4223 -0.0004
13 -1 13 -0.2940 -0.0006
13 -1 14 -0.0398 0.0007
13 -1 15 0.0584 -0.0003
13 -1 16 0.0786 0.0001
13 0 0 -1.1205 0.0049
13 0 1 0.1574 -0.0129
13 0 2 1.3084 0.0148
13 0 3 -2.5694 -0.0122
13 0 4 3.3283 0.0074
13 0 5 -3.3500 -0.0025
13 0 6 2.2863 -0.0007
13 0 7 0.2037 0.0017
13 0 8 -2.9480 -0.0014
13 0 9 3.6490 0.0013
13 0 10 -1.9981 -0.0014
13 0 11 0.2543 0.0012
13 0 12 -0.4590 -0.0004
13 0 13 2.0596 -0.0007
13 0 14 -3.1154 0.0023
13 0 15 2.8989 -0.0038
13 0 16 -1.9590 0.0038
13 0 17 1.0628 -0.0015
13 1 0 4.4065 0.0191
13 1 1 -3.6579 -0.0149
13 1 2 3.5383 0.0082
13 1 3 -3.2453 -0.0025
13 1 4 2.3635 -0.0018
13 1 5 -0.4532 0.0042
13 1 6 -2.3392 -0.0041
13 1 7 4.7296 0.0023
13 1 8 -4.8665 -0.0011
13 1 9 2.1158 0.0016
13 1 10 1.0822 -0.0031
13 1 11 -1.5378 0.0042
13 1 12 -0.7559 -0.0038
13 1 13 2.8478 0.0019
13 1 14 -2.4860 -0.0002
13 1 15 0.5754 0.0010
13 1 16 0.7446 -0.0040
13 1 17 -0.6883 0.0062
13 2 0 -4.0167 0.0089
13 2 1 3.2788 0.0022
13 2 2 -0.7701 -0.0084
13 2 3 -0.8924 0.0098
13 2 4 0.7473 -0.0085
13 2 5 0.5753 0.0053
13 2 6 -1.5098 -0.0011
13 2 7 0.3840 -0.0020
13 2 8 2.6752 0.0023
13 2 9 -5.5327 -0.0007
13 2 10 5.6494 -0.0009
13 2 11 -2.7820 0.0009
13 2 12 -0.0953 0.0006
13 2 13 0.2869 -0.0016
13 2 14 1.5347 0.0002
13 2 15 -2.4269 0.0021
13 2 16 0.8374 -0.0019
13 2 17 1.7178 -0.0025
13 2 18 -3.1408 0.0075
13 3 0 -4.7668 -0.0112
13 3 1 -0.0060 0.0165
13 3 2 3.8529 -0.0142
13 3 3 -4.2564 0.0080
13 3 4 2.2827 -0.0015
13 3 5 -0.8656 -0.0029
13 3 6 1.5997 0.0045
13 3 7 -3.9159 -0.0037
13 3 8 5.4334 0.0021
13 3 9 -4.2086 -0.0010
13 3 10 0.9391 0.0012
13 3 11 1.7441 -0.0022
13 3 12 -1.5742 0.0026
13 3 13 -0.8775 -0.0010
13 3 14 2.6871 -0.0014
13 3 15 -2.0257 0.0007
13 3 16 -0.0918 0.0042
13 3 17 1.1950 -0.0085
13 3 18 -0.4993 0.0068
13 4 0 -0.6623 -0.0145
13 4 1 -1.6145 0.0109
13 4 2 0.4145 -0.0034
13 4 3 3.6323 -0.0040
13 4 4 -7.2466 0.0079
13 4 5 7.5026 -0.0073
13 4 6 -5.1330 0.0044
13 4 7 3.0775 -0.0022
13 4 8 -3.2467 0.0017
13 4 9 4.9609 -0.0017
13 4 10 -5.6050 0.0015
13 4 11 3.6295 -0.0009
13 4 12 -0.0495 -0.0006
13 4 13 -2.8200 0.0030
13 4 14 3.4322 -0.0033
13 4 15 -2.5675 -0.0003
13 4 16 2.1103 0.0045
13 4 17 -2.8212 -0.0031
13 4 18 3.6742 -0.0037
13 5 0 2.5331 -0.0042
13 5 1 -1.9187 -0.0022
13 5 2 -1.1341 0.0077
13 5 3 4.2407 -0.0100
13 5 4 -4.8959 0.0080
13 5 5 2.6564 -0.0034
13 5 6 -0.1701 -0.0001
13 5 7 0.1000 0.0007
13 5 8 -1.8467 -0.0000
13 5 9 3.0022 0.0004
13 5 10 -2.1626 -0.0017
13 5 11 0.1573 0.0027
13 5 12 1.0952 -0.0035
13 5 13 -0.8990 0.0039
13 5 14 -0.0046 -0.0017
13 5 15 0.4587 -0.0023
13 5 16 -0.0193 0.0032
13 5 17 -0.5899 0.0017
13 5 18 0.5651 -0.0076
13 6 0 7.0878 0.0110
13 6 1 -5.7907 -0.0125
13 6 2 3.7446 0.0097
13 6 3 -3.1467 -0.0050
13 6 4 4.4274 -0.0004
13 6 5 -6.0004 0.0045
13 6 6 5.7888 -0.0049
13 6 7 -3.4264 0.0022
13 6 8 1.0827 -0.0001
13 6 9 -0.4361 0.0003
13 6 10 0.7215 -0.0012
13 6 11 -0.5627 0.0013
13 6 12 -0.3080 -0.0014
13 6 13 1.0275 0.0016
13 6 14 -0.9953 -0.0003
13 6 15 0.6021 -0.0014
13 6 16 -0.3629 0.0004
13 6 17 0.4475 0.0036
13 6 18 -0.5640 -0.0055
13 7 0 -1.3604 0.0144
13 7 1 2.8137 -0.0060
13 7 2 -2.8821 -0.0017
13 7 3 1.5499 0.0056
13 7 4 -0.1245 -0.0069
13 7 5 -0.0990 0.0063
13 7 6 -0.5694 -0.0036
13 7 7 1.0140 0.0006
13 7 8 -0.4665 0.0001
13 7 9 -0.4545 0.0007
13 7 10 0.2645 -0.0003
13 7 11 0.8949 -0.0013
13 7 12 -1.4031 0.0016
13 7 13 0.6065 -0.0006
13 7 14 0.4605 0.0008
13 7 15 -0.5502 -0.0020
13 7 16 -0.0915 0.0015
13 7 17 0.4024 0.0007
13 7 18 -0.0571 -0.0007
13 8 0 -6.2067 -0.0033
13 8 1 3.8641 0.0108
13 8 2 -1.2197 -0.0120
13 8 3 0.1107 0.0082
13 8 4 -0.2701 -0.0036
13 8 5 0.4031 0.0002
13 8 6 0.6968 0.0021
13 8 7 -2.5561 -0.0027
13 8 8 3.4442 0.0017
13 8 9 -2.5617 -0.0011
13 8 10 0.8168 0.0024
13 8 11 -0.3201 -0.0037
13 8 12 2.2189 0.0026
13 8 13 -4.7683 -0.0009
13 8 14 5.3229 0.0012
13 8 15 -3.5657 -0.0023
13 8 16 1.6367 0.0008
13 8 17 -1.1445 0.0026
13 8 18 1.3562 -0.0037
13 9 0 3.2402 -0.0103
13 9 1 -6.0088 0.0095
13 9 2 5.1469 -0.0043
13 9 3 -1.7773 -0.0022
13 9 4 -0.5074 0.0055
13 9 5 0.2240 -0.0050
13 9 6 1.1757 0.0032
13 9 7 -1.4026 -0.0017
13 9 8 -0.3958 0.0005
13 9 9 2.4166 -0.0005
13 9 10 -2.1856 0.0018
13 9 11 -0.6983 -0.0024
13 9 12 4.0758 0.0012
13 9 13 -4.8582 -0.0004
13 9 14 2.2219 0.0019
13 9 15 1.1968 -0.0036
13 9 16 -2.3152 0.0025
13 9 17 1.0859 -0.0006
13 9 18 0.0675 0.0010
13 10 0 6.0117 -0.0032
13 10 1 -2.6669 -0.0007
13 10 2 -2.9491 0.0056
13 10 3 6.8470 -0.0075
13 10 4 -6.6941 0.0045
13 10 5 4.3695 -0.0001
13 10 6 -3.3802 -0.0018
13 10 7 4.5789 0.0013
13 10 8 -6.0319 -0.0006
13 10 9 5.4659 -0.0002
13 10 10 -2.7191 0.0012
13 10 11 0.0784 -0.0007
13 10 12 0.1560 -0.0013
13 10 13 2.1738 0.0023
13 10 14 -4.9212 -0.0009
13 10 15 5.4740 -0.0001
13 10 16 -3.3422 -0.0013
13 10 17 0.5921 0.0029
13 11 0 1.3731 0.0028
13 11 1 3.2276 -0.0054
13 11 2 -4.9351 0.0054
13 11 3 2.5446 -0.0018
13 11 4 1.8834 -0.0028
13 11 5 -4.6732 0.0045
13 11 6 3.8975 -0.0030
13 11 7 -1.5115 0.0016
13 11 8 0.4551 -0.0018
13 11 9 -1.1944 0.0018
13 11 10 2.0133 -0.0013
13 11 11 -1.4041 0.0017
13 11 12 -0.3495 -0.0025
13 11 13 1.8939 0.0018
13 11 14 -2.2240 -0.0006
13 11 15 1.2710 0.0018
13 11 16 0.1497 -0.0049
13 11 17 -1.0106 0.0061
13 12 0 -0.0916 0.0076
13 12 1 0.1400 -0.0042
13 12 2 3.0661 -0.0006
13 12 3 -7.1924 0.0044
13 12 4 9.2072 -0.0056
13 12 5 -7.7293 0.0042
13 12 6 4.2121 -0.0025
13 12 7 -1.9568 0.0019
13 12 8 2.5092 -0.0016
13 12 9 -4.1668 0.0003
13 12 10 4.7467 0.0011
13 12 11 -4.0058 -0.0015
13 12 12 2.9630 0.0014
13 12 13 -2.0324 -0.0017
13 12 14 1.0660 0.0014
13 12 15 -0.3514 -0.0005
13 12 16 0.1669 0.0009
13 13 0 -6.2649 0.0005
13 13 1 4.7090 0.0036
13 13 2 -2.9926 -0.0048
13 13 3 2.5371 0.0040
13 13 4 -3.7340 -0.0024
13 13 5 5.5057 0.0004
13 13 6 -5.8161 0.0014
13 13 7 3.4524 -0.0024
13 13 8 0.2547 0.0027
13 13 9 -2.6004 -0.0028
13 13 10 2.5826 0.0022
13 13 11 -1.3865 -0.0008
13 13 12 0.4479 -0.0005
13 13 13 -0.0045 0.0012
13 13 14 -0.2304 -0.0010
13 13 15 0.0396 -0.0002
13 14 0 -3.5124 -0.0069
13 14 1 2.6657 0.0046
13 14 2 -2.5457 -0.0022
13 14 3 2.3231 0.0008
13 14 4 -1.6925 0.0008
13 14 5 0.7996 -0.0028
13 14 6 0.1970 0.0035
13 14 7 -0.9082 -0.0024
13 14 8 0.4763 0.0013
13 14 9 1.4773 -0.0011
13 14 10 -3.7189 0.0011
13 14 11 4.5706 -0.0010
13 14 12 -3.5189 0.0014
13 14 13 1.5131 -0.0025
13 14 14 -0.0746 0.0033
13 15 0 4.4531 0.0001
13 15 1 -5.1006 -0.0017
13 15 2 5.9623 0.0013
13 15 3 -7.1334 -0.0019
13 15 4 7.2880 0.0035
13 15 5 -5.4468 -0.0033
13 15 6 2.2127 0.0007
13 15 7 0.7322 0.0011
13 15 8 -2.2728 -0.0005
13 15 9 2.5076 -0.0006
13 15 10 -1.5641 0.0002
13 15 11 -0.4381 0.0001
13 15 12 2.6346 0.0010
13 15 13 -3.7466 -0.0024
13 16 0 0.6691 0.0039
13 16 1 -1.3208 -0.0019
13 16 2 2.0830 0.0016
13 16 3 -2.0119 -0.0032
13 16 4 0.0612 0.0027
13 16 5 2.9393 0.0007
13 16 6 -4.7743 -0.0032
13 16 7 4.0013 0.0020
13 16 8 -1.4366 -0.0001
13 16 9 -0.6882 0.0011
13 16 10 1.5129 -0.0030
13 16 11 -1.7739 0.0023
13 17 0 -2.6965 -0.0030
13 17 1 2.3194 0.0035
13 17 2 -1.7599 -0.0014
13 17 3 1.5440 0.0003
13 17 4 -1.8526 -0.0025
13 17 5 1.5813 0.0050
13 17 6 0.0871 -0.0040
13 17 7 -2.2128 0.0013
13 17 8 3.1200 -0.0012
14 -5 0 -1.7933 -0.0146
14 -5 1 3.6838 0.0065
14 -5 2 -4.2830 0.0004
14 -5 3 3.2997 -0.0037
14 -5 4 -1.6663 0.0049
14 -5 5 0.1993 -0.0061
14 -5 6 0.5254 0.0077
14 -4 0 -2.8897 -0.0039
14 -4 1 2.0736 -0.0063
14 -4 2 0.3723 0.0108
14 -4 3 -3.0998 -0.0081
14 -4 4 4.6588 0.0025
14 -4 5 -4.9598 0.0008
14 -4 6 4.4387 -0.0011
14 -4 7 -3.3952 0.0010
14 -4 8 2.2079 -0.0021
14 -4 9 -0.9935 0.0030
14 -3 0 -0.7664 0.0099
14 -3 1 -0.6624 -0.0128
14 -3 2 1.6916 0.0077
14 -3 3 -1.7386 0.0014
14 -3 4 1.0164 -0.0070
14 -3 5 -0.3499 0.0066
14 -3 6 0.1111 -0.0039
14 -3 7 0.0371 0.0030
14 -3 8 -0.1005 -0.0031
14 -3 9 -0.1752 0.0012
14 -3 10 0.7470 0.0020
14 -3 11 -1.3285 -0.0031
14 -2 0 0.1738 0.0077
14 -2 1 1.4284 -0.0014
14 -2 2 -3.1871 -0.0059
14 -2 3 4.3497 0.0094
14 -2 4 -4.6684 -0.0074
14 -2 5 4.2702 0.0036
14 -2 6 -3.5670 -0.0021
14 -2 7 3.1840 0.0022
14 -2 8 -3.2023 -0.0006
14 -2 9 3.0901 -0.0024
14 -2 10 -2.6762 0.0034
14 -2 11 2.1633 -0.0008
14 -2 12 -1.7761 -0.0021
14 -1 0 2.2644 -0.0072
14 -1 1 -1.2336 0.0125
14 -1 2 1.7090 -0.0128
14 -1 3 -3.0159 0.0084
14 -1 4 3.9885 -0.0032
14 -1 5 -4.1485 0.0003
14 -1 6 3.3483 0.0006
14 -1 7 -1.4865 -0.0021
14 -1 8 -0.7582 0.0040
14 -1 9 1.8767 -0.0037
14 -1 10 -1.3719 0.0008
14 -1 11 0.3089 0.0010
14 -1 12 0.2304 0.0010
14 -1 13 -0.0886 -0.0045
14 0 0 -0.7374 -0.0145
14 0 1 -0.1179 0.0109
14 0 2 2.5378 -0.0028
14 0 3 -4.4937 -0.0046
14 0 4 4.9468 0.0067
14 0 5 -4.2869 -0.0047
14 0 6 2.8685 0.0027
14 0 7 -1.1118 -0.0022
14 0 8 0.2587 0.0014
14 0 9 -1.3435 0.0005
14 0 10 3.3009 -0.0010
14 0 11 -3.8021 -0.0014
14 0 12 2.4304 0.0044
14 0 13 -0.8567 -0.0039
14 0 14 0.3790 -0.0003
14 1 0 -7.2265 -0.0035
14 1 1 4.8930 -0.0048
14 1 2 -2.2746 0.0117
14 1 3 1.2771 -0.0120
14 1 4 -1.9051 0.0061
14 1 5 2.9162 -0.0001
14 1 6 -3.5132 -0.0015
14 1 7 3.1765 0.0002
14 1 8 -1.3563 0.0006
14 1 9 -1.2792 -0.0008
14 1 10 2.7798 0.0021
14 1 11 -2.0569 -0.0036
14 1 12 0.6550 0.0025
14 1 13 -0.7186 0.0019
14 1 14 1.9179 -0.0065
14 1 15 -2.4457 0.0076
14 2 0 -1.6978 0.0091
14 2 1 -0.4473 -0.0100
14 2 2 1.1805 0.0078
14 2 3 0.3060 -0.0018
14 2 4 -2.6202 -0.0041
14 2 5 3.8202 0.0057
14 2 6 -3.1912 -0.0036
14 2 7 1.3542 0.0023
14 2 8 0.6759 -0.0034
14 2 9 -1.6268 0.0044
14 2 10 0.8351 -0.0034
14 2 11 0.7470 0.0016
14 2 12 -1.3394 -0.0013
14 2 13 0.3764 0.0024
14 2 14 0.5429 -0.0019
14 2 15 -0.0389 -0.0017
14 2 16 -1.0983 0.0065
14 3 0 0.7174 0.0085
14 3 1 -1.7909 -0.0025
14 3 2 0.9920 -0.0027
14 3 3 1.3040 0.0060
14 3 4 -2.9264 -0.0062
14 3 5 2.5177 0.0039
14 3 6 -0.7105 -0.0015
14 3 7 -0.5951 0.0008
14 3 8 0.3524 -0.0011
14 3 9 1.0303 0.0008
14 3 10 -2.4361 0.0006
14 3 11 2.7470 -0.0014
14 3 12 -1.8166 0.0007
14 3 13 0.5763 0.0002
14 3 14 -0.2633 0.0016
14 3 15 1.0604 -0.0063
14 3 16 -1.6143 0.0094
14 4 0 0.0978 -0.0060
14 4 1 -2.6700 0.0118
14 4 2 2.9465 -0.0113
14 4 3 -1.8956 0.0071
14 4 4 1.5204 -0.0027
14 4 5 -2.1321 -0.0006
14 4 6 2.4170 0.0027
14 4 7 -1.2199 -0.0034
14 4 8 -0.8233 0.0024
14 4 9 1.9878 -0.0006
14 4 10 -1.6918 -0.0007
14 4 11 0.6871 0.0010
14 4 12 0.0093 -0.0012
14 4 13 0.0857 0.0008
14 4 14 -0.7704 0.0021
14 4 15 1.5170 -0.0061
14 4 16 -1.5294 0.0064
14 5 0 6.9322 -0.0192
14 5 1 -7.0940 0.0141
14 5 2 5.0478 -0.0051
14 5 3 -2.5348 -0.0020
14 5 4 1.4970 0.0045
14 5 5 -1.8117 -0.0042
14 5 6 2.1095 0.0034
14 5 7 -1.9570 -0.0022
14 5 8 2.0710 0.0003
14 5 9 -2.9006 0.0010
14 5 10 3.5179 -0.0001
14 5 11 -3.0222 -0.0014
14 5 12 2.0002 0.0007
14 5 13 -1.4893 0.0013
14 5 14 1.6818 -0.0011
14 5 15 -1.9595 -0.0005
14 5 16 1.9655 -0.0005
14 5 17 -1.7598 0.0046
14 6 0 -0.7668 -0.0012
14 6 1 4.2237 -0.0074
14 6 2 -7.0010 0.0124
14 6 3 7.9678 -0.0123
14 6 4 -6.5601 0.0086
14 6 5 3.7862 -0.0047
14 6 6 -1.2673 0.0025
14 6 7 -0.5807 -0.0011
14 6 8 1.8264 -0.0007
14 6 9 -2.0486 0.0017
14 6 10 0.9860 -0.0010
14 6 11 0.3601 0.0007
14 6 12 -0.3228 -0.0026
14 6 13 -1.1652 0.0041
14 6 14 2.4035 -0.0017
14 6 15 -2.1620 -0.0022
14 6 16 0.9762 0.0022
14 6 17 -0.0977 0.0010
14 7 0 -7.4430 0.0132
14 7 1 6.3934 -0.0124
14 7 2 -4.1602 0.0090
14 7 3 1.9463 -0.0045
14 7 4 -0.2378 0.0004
14 7 5 -0.8312 0.0016
14 7 6 0.9555 -0.0014
14 7 7 -0.2491 0.0015
14 7 8 -1.1359 -0.0028
14 7 9 3.0873 0.0030
14 7 10 -4.5296 -0.0012
14 7 11 3.8816 0.0001
14 7 12 -1.0241 -0.0016
14 7 13 -1.8774 0.0024
14 7 14 2.5491 0.0003
14 7 15 -1.2487 -0.0032
14 7 16 0.0643 0.0019
14 7 17 -0.1856 0.0017
14 8 0 5.5751 0.0071
14 8 1 -8.8631 -0.0011
14 8 2 9.0921 -0.0035
14 8 3 -6.6374 0.0060
14 8 4 3.6134 -0.0065
14 8 5 -1.6378 0.0048
14 8 6 0.4150 -0.0023
14 8 7 1.0027 0.0010
14 8 8 -2.7393 -0.0009
14 8 9 3.9692 -0.0003
14 8 10 -3.3219 0.0018
14 8 11 0.3797 -0.0005
14 8 12 3.0029 -0.0032
14 8 13 -4.0524 0.0042
14 8 14 2.1400 -0.0001
14 8 15 0.4029 -0.0043
14 8 16 -1.1801 0.0040
14 9 0 6.3448 -0.0013
14 9 1 -4.2046 0.0057
14 9 2 -0.8735 -0.0065
14 9 3 4.5938 0.0047
14 9 4 -4.6441 -0.0023
14 9 5 2.1869 0.0001
14 9 6 -0.0188 0.0015
14 9 7 -0.3150 -0.0020
14 9 8 -0.3331 0.0020
14 9 9 0.2924 -0.0027
14 9 10 1.1054 0.0032
14 9 11 -2.8476 -0.0016
14 9 12 2.9230 -0.0005
14 9 13 -0.4255 -0.0007
14 9 14 -2.8793 0.0047
14 9 15 4.0927 -0.0055
14 9 16 -2.5544 0.0007
14 10 0 -1.4541 -0.0106
14 10 1 5.0685 0.0097
14 10 2 -6.5066 -0.0052
14 10 3 3.6443 0.0009
14 10 4 1.3309 0.0013
14 10 5 -4.6089 -0.0024
14 10 6 4.5668 0.0033
14 10 7 -2.5591 -0.0031
14 10 8 1.0459 0.0023
14 10 9 -1.1554 -0.0026
14 10 10 2.0560 0.0029
14 10 11 -2.2022 -0.0014
14 10 12 0.8889 -0.0009
14 10 13 1.0666 0.0013
14 10 14 -1.9481 -0.0008
14 10 15 0.8090 0.0031
14 10 16 1.1797 -0.0078
14 11 0 -0.2735 -0.0059
14 11 1 0.7701 0.0001
14 11 2 1.6490 0.0040
14 11 3 -4.8678 -0.0048
14 11 4 5.9080 0.0036
14 11 5 -3.7319 -0.0027
14 11 6 0.3235 0.0019
14 11 7 1.4155 -0.0004
14 11 8 -0.4011 -0.0005
14 11 9 -1.9818 -0.0004
14 11 10 3.6928 0.0012
14 11 11 -3.8404 -0.0002
14 11 12 2.8666 -0.0003
14 11 13 -1.7400 -0.0017
14 11 14 1.0671 0.0042
14 11 15 -0.9197 -0.0040
14 12 0 -2.7790 0.0084
14 12 1 2.2906 -0.0092
14 12 2 -1.6122 0.0069
14 12 3 2.1878 -0.0030
14 12 4 -4.1998 -0.0003
14 12 5 6.3613 0.0020
14 12 6 -6.6114 -0.0028
14 12 7 4.1165 0.0031
14 12 8 -0.3957 -0.0024
14 12 9 -1.9643 0.0010
14 12 10 1.9208 -0.0005
14 12 11 -0.5335 0.0008
14 12 12 -0.8842 -0.0005
14 12 13 1.7119 -0.0004
14 12 14 -1.8489 0.0000
14 13 0 -1.0334 0.0043
14 13 1 0.3712 -0.0022
14 13 2 -0.4874 -0.0004
14 13 3 0.9973 0.0027
14 13 4 -1.5531 -0.0035
14 13 5 1.6414 0.0025
14 13 6 -0.6727 -0.0014
14 13 7 -0.7663 0.0011
14 13 8 1.0716 -0.0010
14 13 9 0.6726 0.0002
14 13 10 -3.4087 0.0007
14 13 11 5.0087 -0.0011
14 13 12 -4.7571 0.0008
14 13 13 3.4626 -0.0002
14 14 0 3.2857 -0.0003
14 14 1 -3.7208 0.0004
14 14 2 4.1045 -0.0022
14 14 3 -4.7128 0.0036
14 14 4 5.0070 -0.0027
14 14 5 -4.7901 0.0012
14 14 6 4.5450 -0.0014
14 14 7 -4.1317 0.0021
14 14 8 3.0247 -0.0011
14 14 9 -1.5165 -0.0013
14 14 10 0.5859 0.0027
14 14 11 -1.0758 -0.0019
14 14 12 2.4081 0.0009
14 15 0 -0.5009 0.0057
14 15 1 0.5258 -0.0026
14 15 2 0.0569 -0.0006
14 15 3 -0.7425 0.0004
14 15 4 0.7847 0.0013
14 15 5 -0.1671 -0.0015
14 15 6 -0.1427 0.0008
14 15 7 -0.2476 -0.0023
14 15 8 0.7467 0.0054
14 15 9 -1.0817 -0.0065
14 15 10 1.3822 0.0044
14 16 0 -1.9855 -0.0008
14 16 1 1.5173 0.0032
14 16 2 -0.7299 -0.0018
14 16 3 0.3530 -0.0015
14 16 4 -0.6736 0.0024
14 16 5 1.2900 -0.0012
14 16 6 -1.2261 0.0016
14 16 7 0.3328 -0.0040
14 16 8 0.2203 0.0047
14 17 2 1.5251 -0.0007
15 -4 0 -2.4366 -0.0088
15 -4 1 2.2752 -0.0009
15 -3 0 -0.7006 0.0059
15 -3 1 -0.3428 -0.0119
15 -3 2 1.1742 0.0112
15 -3 3 -1.2290 -0.0082
15 -3 4 0.7823 0.0077
15 -3 5 -0.3008 -0.0087
15 -3 6 -0.1585 0.0067
15 -2 0 3.5815 0.0130
15 -2 1 -3.4673 -0.0119
15 -2 2 3.2726 0.0070
15 -2 3 -3.0099 -0.0025
15 -2 4 2.5667 -0.0003
15 -2 5 -2.0770 0.0026
15 -2 6 1.4010 -0.0041
15 -2 7 -0.5395 0.0019
15 -2 8 -0.2568 0.0034
15 -2 9 0.7234 -0.0062
15 -1 0 -1.0706 0.0093
15 -1 1 2.4578 -0.0023
15 -1 2 -2.1260 -0.0038
15 -1 3 0.9970 0.0074
15 -1 4 0.0383 -0.0087
15 -1 5 -1.0460 0.0074
15 -1 6 1.7866 -0.0037
15 -1 7 -1.8672 -0.0001
15 -1 8 1.7178 -0.0002
15 -1 9 -1.8626 0.0050
15 -1 10 2.1738 -0.0088
15 0 0 -7.7093 -0.0119
15 0 1 6.8203 0.0155
15 0 2 -4.3164 -0.0132
15 0 3 2.3140 0.0080
15 0 4 -1.5235 -0.0030
15 0 5 1.3833 -0.0008
15 0 6 -1.6530 0.0028
15 0 7 2.1838 -0.0020
15 0 8 -1.9797 -0.0005
15 0 9 0.7293 0.0001
15 0 10 0.3781 0.0057
15 0 11 -0.4522 -0.0123
15 1 0 -0.3224 -0.0183
15 1 1 -2.6807 0.0128
15 1 2 4.5397 -0.0038
15 1 3 -3.7097 -0.0027
15 1 4 1.2061 0.0047
15 1 5 1.1524 -0.0047
15 1 6 -2.4132 0.0044
15 1 7 2.4514 -0.0038
15 1 8 -1.3136 0.0034
15 1 9 -0.1931 -0.0040
15 1 10 0.6498 0.0042
15 1 11 -0.0616 -0.0008
15 1 12 -0.3329 -0.0058
15 2 0 1.8731 -0.0056
15 2 1 -3.5837 -0.0031
15 2 2 3.4112 0.0088
15 2 3 -1.5286 -0.0081
15 2 4 0.2202 0.0037
15 2 5 -0.8296 -0.0004
15 2 6 2.6138 -0.0007
15 2 7 -4.0205 0.0014
15 2 8 4.2075 -0.0026
15 2 9 -3.2916 0.0034
15 2 10 1.6458 -0.0035
15 2 11 -0.0967 0.0032
15 2 12 -0.4974 -0.0026
15 2 13 0.4583 0.0005
15 3 0 -3.4459 0.0050
15 3 1 1.0155 -0.0087
15 3 2 -0.4708 0.0081
15 3 3 0.5364 -0.0031
15 3 4 0.5075 -0.0024
15 3 5 -2.2763 0.0047
15 3 6 2.8935 -0.0042
15 3 7 -1.6623 0.0034
15 3 8 -0.2093 -0.0032
15 3 9 1.1151 0.0022
15 3 10 -0.8384 -0.0000
15 3 11 0.2004 -0.0017
15 3 12 0.4287 0.0014
15 3 13 -0.8252 0.0001
15 3 14 0.6903 -0.0003
15 4 0 2.3201 0.0045
15 4 1 -2.6907 -0.0024
15 4 2 1.3543 -0.0014
15 4 3 0.1685 0.0061
15 4 4 -1.0751 -0.0087
15 4 5 1.8110 0.0074
15 4 6 -2.8772 -0.0042
15 4 7 3.3430 0.0027
15 4 8 -1.9937 -0.0033
15 4 9 -0.6263 0.0032
15 4 10 2.5216 -0.0008
15 4 11 -2.4977 -0.0013
15 4 12 1.5790 0.0008
15 4 13 -1.1168 0.0007
15 4 14 0.9761 -0.0001
15 5 0 1.6785 -0.0015
15 5 1 0.1686 0.0056
15 5 2 -2.2504 -0.0088
15 5 3 4.1099 0.0099
15 5 4 -5.1871 -0.0075
15 5 5 5.0787 0.0027
15 5 6 -3.7218 0.0008
15 5 7 1.2692 -0.0007
15 5 8 1.3525 -0.0009
15 5 9 -2.3145 0.0001
15 5 10 0.9064 0.0029
15 5 11 1.1985 -0.0037
15 5 12 -1.5945 0.0007
15 5 13 0.0425 0.0023
15 5 14 1.3174 -0.0014
15 6 0 -2.2514 -0.0087
15 6 1 1.3742 0.0086
15 6 2 -1.3021 -0.0049
15 6 3 1.7815 -0.0002
15 6 4 -1.6131 0.0045
15 6 5 0.3391 -0.0067
15 6 6 1.2945 0.0061
15 6 7 -2.0633 -0.0036
15 6 8 1.1344 0.0015
15 6 9 1.3927 -0.0019
15 6 10 -3.7911 0.0031
15 6 11 3.8021 -0.0014
15 6 12 -1.2955 -0.0026
15 6 13 -1.2350 0.0040
15 6 14 1.3824 -0.0008
15 6 15 0.2589 -0.0025
15 7 0 4.1609 -0.0042
15 7 1 -5.2144 -0.0023
15 7 2 4.2864 0.0081
15 7 3 -2.9542 -0.0096
15 7 4 2.9634 0.0072
15 7 5 -4.0870 -0.0043
15 7 6 4.8063 0.0024
15 7 7 -3.9037 -0.0008
15 7 8 1.4774 -0.0003
15 7 9 1.1147 -0.0003
15 7 10 -2.0105 0.0009
15 7 11 0.5133 0.0014
15 7 12 1.6640 -0.0057
15 7 13 -2.1090 0.0066
15 7 14 0.5251 -0.0028
15 7 15 0.9806 -0.0010
15 8 0 1.9071 0.0074
15 8 1 -1.0309 -0.0101
15 8 2 -1.4050 0.0085
15 8 3 2.5336 -0.0038
15 8 4 -1.0415 -0.0001
15 8 5 -1.5246 0.0012
15 8 6 2.9006 -0.0009
15 8 7 -2.2101 0.0015
15 8 8 0.3751 -0.0021
15 8 9 0.8121 0.0011
15 8 10 -0.1169 -0.0002
15 8 11 -1.9110 0.0021
15 8 12 3.1148 -0.0041
15 8 13 -2.1646 0.0009
15 8 14 0.1927 0.0064
15 9 0 -0.6562 0.0081
15 9 1 3.1717 -0.0042
15 9 2 -5.0160 -0.0006
15 9 3 3.8278 0.0037
15 9 4 -0.8080 -0.0042
15 9 5 -1.0154 0.0031
15 9 6 0.1923 -0.0023
15 9 7 2.1415 0.0027
15 9 8 -3.6951 -0.0030
15 9 9 2.9621 0.0020
15 9 10 -0.3268 -0.0011
15 9 11 -2.2483 0.0016
15 9 12 2.7105 -0.0007
15 9 13 -1.0682 -0.0040
15 9 14 -0.5621 0.0085
15 10 0 1.4576 0.0012
15 10 1 1.2623 0.0035
15 10 2 -0.4813 -0.0054
15 10 3 -2.3799 0.0051
15 10 4 3.7442 -0.0033
15 10 5 -1.9178 0.0010
15 10 6 -1.4139 0.0004
15 10 7 3.3827 0.0003
15 10 8 -2.5935 -0.0013
15 10 9 -0.1253 0.0007
15 10 10 2.5933 0.0003
15 10 11 -3.1425 -0.0004
15 10 12 1.7233 0.0010
15 10 13 0.1549 -0.0034
15 10 14 -0.7207 0.0048
15 11 0 -2.9967 -0.0064
15 11 1 1.8887 0.0055
15 11 2 1.1220 -0.0027
15 11 3 -2.5966 -0.0001
15 11 4 1.0091 0.0026
15 11 5 1.8687 -0.0043
15 11 6 -2.9762 0.0040
15 11 7 1.2175 -0.0021
15 11 8 1.6511 0.0012
15 11 9 -3.2158 -0.0020
15 11 10 2.4154 0.0020
15 11 11 -0.1640 -0.0000
15 11 12 -1.7312 -0.0015
15 11 13 2.2783 0.0010
15 12 0 -0.8465 -0.0019
15 12 1 -1.7066 -0.0022
15 12 2 2.7204 0.0048
15 12 3 -1.0688 -0.0057
15 12 4 -1.6766 0.0057
15 12 5 2.9422 -0.0053
15 12 6 -1.6160 0.0041
15 12 7 -0.8494 -0.0023
15 12 8 1.7253 0.0009
15 12 9 -0.1460 0.0001
15 12 10 -2.2892 -0.0018
15 12 11 3.6680 0.0035
15 12 12 -3.3652 -0.0039
15 13 0 1.3662 0.0040
15 13 1 -2.1098 -0.0055
15 13 2 1.3851 0.0042
15 13 3 0.2007 -0.0018
15 13 4 -0.9375 0.0004
15 13 5 -0.2273 0.0002
15 13 6 2.4451 -0.0019
15 13 7 -3.9008 0.0044
15 13 8 3.3845 -0.0054
15 13 9 -1.7504 0.0038
15 13 10 0.9687 -0.0013
15 13 11 -1.4053 -0.0003
15 14 0 1.2902 0.0048
15 14 1 -0.6008 -0.0033
15 14 2 -0.5488 -0.0006
15 14 3 1.2155 0.0031
15 14 4 -0.7860 -0.0033
15 14 5 -0.5756 0.0035
15 14 6 1.6550 -0.0043
15 14 7 -1.6697 0.0033
15 14 8 0.9061 0.0013
15 14 9 -0.1679 -0.0065
15 15 0 2.2033 0.0082
15 15 1 -0.9093 -0.0036
15 15 2 0.3506 -0.0003
15 15 3 -0.6907 0.0008
15 15 4 1.1036 -0.0001
15 15 5 -1.1183 -0.0002
15 15 6 0.5856 0.0018
15 15 7 0.1985 -0.0057
16 -1 0 -1.7092 0.0132
16 -1 1 2.7197 -0.0126
16 -1 2 -2.3547 0.0082
16 -1 3 1.5799 -0.0036
16 -1 4 -0.8473 0.0012
16 -1 5 0.3478 -0.0007
16 0 0 -2.9436 0.0130
16 0 1 0.7815 -0.0049
16 0 2 1.9921 -0.0022
16 0 3 -3.2303 0.0057
16 0 4 2.9155 -0.0060
16 0 5 -1.8371 0.0047
16 0 6 0.5059 -0.0034
16 0 7 0.3845 0.0028
16 1 0 -1.1398 -0.0048
16 1 1 -1.8807 0.0095
16 1 2 3.3832 -0.0090
16 1 3 -2.6672 0.0066
16 1 4 1.4805 -0.0044
16 1 5 -1.3156 0.0023
16 1 6 1.8953 -0.0006
16 1 7 -2.6116 -0.0000
16 1 8 2.9950 -0.0003
16 1 9 -2.5360 0.0005
16 2 0 -1.4123 -0.0190
16 2 1 0.1101 0.0117
16 2 2 -0.7807 -0.0026
16 2 3 2.0288 -0.0029
16 2 4 -2.0152 0.0050
16 2 5 0.7607 -0.0057
16 2 6 0.0089 0.0050
16 2 7 0.4819 -0.0026
16 2 8 -1.3353 0.0002
16 2 9 1.7505 -0.0004
16 2 10 -1.5591 0.0028
16 3 0 0.3258 -0.0064
16 3 1 -0.2760 -0.0029
16 3 2 -0.9218 0.0082
16 3 3 1.7043 -0.0080
16 3 4 -1.8009 0.0056
16 3 5 2.1722 -0.0041
16 3 6 -3.3850 0.0031
16 3 7 4.3912 -0.0018
16 3 8 -3.5701 0.0011
16 3 9 1.3038 -0.0021
16 3 10 0.4976 0.0031
16 3 11 -0.9535 -0.0018
16 4 0 1.5728 0.0081
16 4 1 -1.2470 -0.0118
16 4 2 1.0870 0.0092
16 4 3 -1.0371 -0.0028
16 4 4 0.6759 -0.0020
16 4 5 0.0099 0.0029
16 4 6 -0.2081 -0.0022
16 4 7 -0.8039 0.0022
16 4 8 2.6474 -0.0025
16 4 9 -3.5481 0.0014
16 4 10 2.2208 0.0004
16 4 11 -0.0100 -0.0006
16 5 0 -0.1655 0.0090
16 5 1 -1.2480 -0.0055
16 5 2 1.6545 -0.0011
16 5 3 -0.8677 0.0067
16 5 4 -0.0076 -0.0082
16 5 5 0.0136 0.0067
16 5 6 1.0421 -0.0055
16 5 7 -2.3773 0.0061
16 5 8 2.7547 -0.0059
16 5 9 -1.5536 0.0029
16 5 10 -0.4490 0.0004
16 5 11 1.2556 -0.0005
16 5 12 -0.1099 -0.0024
16 6 0 1.2798 -0.0028
16 6 1 -1.3960 0.0078
16 6 2 -0.5576 -0.0098
16 6 3 2.6777 0.0086
16 6 4 -2.8859 -0.0053
16 6 5 1.1407 0.0018
16 6 6 1.2256 0.0000
16 6 7 -2.8039 -0.0002
16 6 8 2.7556 0.0008
16 6 9 -1.5082 -0.0025
16 6 10 0.4369 0.0028
16 6 11 -0.6356 0.0003
16 6 12 1.5720 -0.0044
16 7 0 -0.3599 -0.0112
16 7 1 1.5397 0.0099
16 7 2 -3.3248 -0.0062
16 7 3 3.5034 0.0025
16 7 4 -1.3366 0.0007
16 7 5 -1.6990 -0.0031
16 7 6 3.6277 0.0037
16 7 7 -3.4974 -0.0021
16 7 8 1.5457 0.0006
16 7 9 0.6749 -0.0006
16 7 10 -1.3768 0.0003
16 7 11 0.3295 0.0022
16 7 12 0.9956 -0.0047
16 8 0 0.2685 -0.0035
16 8 1 0.5779 -0.0009
16 8 2 -1.3835 0.0033
16 8 3 0.5167 -0.0039
16 8 4 1.3618 0.0039
16 8 5 -2.2251 -0.0034
16 8 6 0.8222 0.0016
16 8 7 2.1701 0.0007
16 8 8 -4.9057 -0.0013
16 8 9 5.4523 0.0001
16 8 10 -3.2758 0.0001
16 8 11 0.1698 0.0022
16 8 12 1.5217 -0.0035
16 9 0 4.2340 0.0061
16 9 1 -0.8296 -0.0064
16 9 2 -0.1208 0.0052
16 9 3 -1.2551 -0.0035
16 9 4 2.3264 0.0020
16 9 5 -1.3171 -0.0012
16 9 6 -1.2556 0.0008
16 9 7 3.3686 -0.0001
16 9 8 -3.4904 -0.0005
16 9 9 1.6377 0.0010
16 9 10 0.8200 -0.0021
16 9 11 -1.9071 0.0036
16 10 0 -3.9688 0.0039
16 10 1 3.9128 -0.0022
16 10 2 -0.2981 0.0003
16 10 3 -2.9955 0.0019
16 10 4 3.2667 -0.0031
16 10 5 -1.5872 0.0025
16 10 6 0.4085 -0.0018
16 10 7 -0.8989 0.0024
16 10 8 2.3782 -0.0027
16 10 9 -3.3262 0.0009
16 10 10 2.9662 0.0016
16 10 11 -1.4736 -0.0029
16 11 0 -3.0620 0.0001
16 11 1 -1.5683 0.0015
16 11 2 4.6179 -0.0041
16 11 3 -3.5560 0.0062
16 11 4 -0.0627 -0.0057
16 11 5 2.5217 0.0031
16 11 6 -2.2786 -0.0012
16 11 7 0.7926 0.0002
16 11 8 0.0943 0.0015
16 11 9 0.2296 -0.0040
16 11 10 -0.9649 0.0046
16 12 0 2.1125 0.0016
16 12 1 -3.1781 -0.0004
16 12 2 1.3056 -0.0011
16 12 3 2.0592 0.0007
16 12 4 -4.0658 0.0019
16 12 5 3.2156 -0.0046
16 12 6 -0.7906 0.0044
16 12 7 -0.6692 -0.0014
16 12 8 0.4761 -0.0017
16 12 9 0.2471 0.0034
16 13 0 0.3598 0.0000
16 13 1 0.2398 0.0002
16 13 2 -1.7315 -0.0006
16 13 3 2.4959 -0.0004
16 13 4 -1.6156 0.0024
16 13 5 -0.2000 -0.0025
16 13 6 1.5156 -0.0010
16 13 7 -1.2413 0.0053
16 14 0 3.1647 0.0073
16 14 1 -2.3988 -0.0059
16 14 2 1.2100 0.0042
16 14 3 -0.5674 -0.0044
16 14 4 0.7610 0.0048
17 2 0 0.1300 0.0017
17 2 1 -0.6819 0.0032
17 2 2 0.4064 -0.0071
17 2 3 0.0445 0.0087
17 3 0 -0.5253 -0.0066
17 3 1 0.0610 0.0072
17 3 2 0.1380 -0.0053
17 3 3 -0.2678 0.0027
17 3 4 0.5238 -0.0006
17 3 5 -0.6966 -0.0007
17 4 0 1.0970 -0.0100
17 4 1 -1.2318 0.0012
17 4 2 1.0240 0.0052
17 4 3 -0.5428 -0.0070
17 4 4 0.2480 0.0063
17 4 5 -0.2582 -0.0050
17 4 6 0.3041 0.0028
17 4 7 -0.5030 0.0003
17 5 0 -1.0737 0.0073
17 5 1 0.9798 -0.0116
17 5 2 -1.5930 0.0096
17 5 3 2.3067 -0.0053
17 5 4 -2.5392 0.0028
17 5 5 2.2587 -0.0019
17 5 6 -1.7975 -0.0000
17 5 7 1.0718 0.0027
17 6 0 -0.3160 0.0124
17 6 1 0.3126 -0.0061
17 6 2 -0.8428 -0.0009
17 6 3 1.0148 0.0047
17 6 4 -0.6093 -0.0050
17 6 5 -0.2080 0.0040
17 6 6 1.1185 -0.0036
17 6 7 -1.7172 0.0030
17 6 8 1.5840 -0.0008
17 7 0 1.0738 0.0006
17 7 1 -0.5143 0.0040
17 7 2 -0.1665 -0.0060
17 7 3 -0.0132 0.0054
17 7 4 0.9024 -0.0035
17 7 5 -1.8671 0.0018
17 7 6 2.2345 -0.0010
17 7 7 -1.4203 0.0006
17 7 8 -0.2210 0.0003
17 8 0 0.9409 -0.0075
17 8 1 0.4595 0.0082
17 8 2 -0.8370 -0.0060
17 8 3 -0.1061 0.0027
17 8 4 1.1919 0.0002
17 8 5 -1.3424 -0.0020
17 8 6 0.4797 0.0026
17 8 7 0.9410 -0.0025
17 8 8 -1.9081 0.0027
17 9 0 -1.8059 -0.0098
17 9 1 1.8673 0.0053
17 9 2 -0.0428 0.0001
17 9 3 -1.6749 -0.0033
17 9 4 1.9059 0.0040
17 9 5 -1.0112 -0.0040
17 9 6 0.2199 0.0037
17 9 7 0.0140 -0.0027
17 10 0 -2.6123 -0.0004
17 10 1 -0.2281 -0.0047
17 10 2 2.3372 0.0053
17 10 3 -1.8756 -0.0021
17 10 4 0.1520 -0.0005
17 10 5 0.8927 0.0008
17 10 6 -0.8352 -0.0007
17 11 0 1.2485 0.0078
17 11 1 -2.5824 -0.0060
17 11 2 1.6883 0.0012
17 11 3 0.4540 0.0020
17 11 4 -1.4985 -0.0009
17 11 5 1.0673 -0.0019
0 0 0 0.0 0.0
;
_shelx_fab_checksum              85523
_olex2_submission_special_instructions 'No special instructions were received'
loop_
_space_group_symop_operation_xyz
'x, y, z'
'-x, -y, -z'
loop_
_atom_site_label
_atom_site_type_symbol
_atom_site_fract_x
_atom_site_fract_y
_atom_site_fract_z
_atom_site_U_iso_or_equiv
_atom_site_adp_type
_atom_site_occupancy
_atom_site_site_symmetry_order
_atom_site_calc_flag
_atom_site_refinement_flags_posn
_atom_site_refinement_flags_adp
_atom_site_refinement_flags_occupancy
_atom_site_disorder_assembly
_atom_site_disorder_group
Cl2 Cl 0.77633(6) 0.19464(6) 0.94870(3) 0.0556(2) Uani 1 1 d . . . . .
Cl1 Cl 0.65896(8) 0.07092(5) 1.00240(6) 0.0752(3) Uani 1 1 d . . . . .
N1 N 0.67183(13) 0.20632(11) 0.72451(8) 0.0177(3) Uani 1 1 d . . . . .
N5 N -0.01371(13) 0.66307(11) 0.86081(8) 0.0156(3) Uani 1 1 d . . . . .
N2 N 0.49941(13) 0.37101(11) 0.76729(8) 0.0179(3) Uani 1 1 d . . . . .
N6 N -0.10706(13) 0.66431(11) 0.72969(8) 0.0170(3) Uani 1 1 d . . . . .
N3 N 0.82224(14) -0.13185(12) 0.80906(9) 0.0257(4) Uani 1 1 d . . . . .
N4 N 0.09755(14) 0.47480(13) 0.75367(8) 0.0263(4) Uani 1 1 d . . . . .
N7 N 0.35668(15) 0.62483(14) 0.92498(10) 0.0321(4) Uani 1 1 d . . . . .
C62 C 0.04171(14) 0.86036(13) 0.90380(9) 0.0169(4) Uani 1 1 d . . . . .
C39 C -0.02680(15) 0.57560(12) 0.87650(9) 0.0155(4) Uani 1 1 d . . . . .
C40 C -0.12604(15) 0.55916(13) 0.86437(9) 0.0167(4) Uani 1 1 d . . . . .
C28 C 0.37681(14) 0.32056(13) 0.85707(10) 0.0173(4) Uani 1 1 d . . . . .
C29 C 0.42355(15) 0.33217(13) 0.91794(10) 0.0185(4) Uani 1 1 d . . . . .
C38 C 0.18940(16) 0.46144(14) 0.75110(9) 0.0202(4) Uani 1 1 d . . . . .
C54 C 0.05921(16) 0.50330(13) 0.90887(9) 0.0178(4) Uani 1 1 d . . . . .
C57 C 0.09298(15) 0.78572(13) 0.85999(9) 0.0163(4) Uani 1 1 d . . . . .
C33 C 0.31449(15) 0.26044(14) 0.85998(10) 0.0199(4) Uani 1 1 d . . . . .
C5 C 0.30412(15) 0.44549(13) 0.74392(9) 0.0182(4) Uani 1 1 d . . . . .
C55 C 0.15902(16) 0.51706(13) 0.92029(9) 0.0194(4) Uani 1 1 d . . . . .
H55 H 0.216319 0.466399 0.940698 0.023 Uiso 1 1 calc R U . . .
C42 C -0.20613(15) 0.67893(13) 0.76486(9) 0.0174(4) Uani 1 1 d . . . . .
C61 C 0.06901(15) 0.94311(13) 0.89831(9) 0.0180(4) Uani 1 1 d . . . . .
H61 H 0.034126 0.992899 0.928265 0.022 Uiso 1 1 calc R U . . .
C2 C 0.73343(15) 0.34468(14) 0.73164(9) 0.0193(4) Uani 1 1 d . . . . .
C6 C 0.33376(16) 0.50012(14) 0.69383(10) 0.0216(4) Uani 1 1 d . . . . .
H6 H 0.278570 0.543787 0.666962 0.026 Uiso 1 1 calc R U . . .
C1 C 0.74408(15) 0.24673(14) 0.74700(9) 0.0184(4) Uani 1 1 d . . . . .
C58 C 0.16982(15) 0.79764(14) 0.81041(10) 0.0197(4) Uani 1 1 d . . . . .
C53 C 0.04615(17) 0.41634(13) 0.93241(9) 0.0220(4) Uani 1 1 d . . . . .
H53 H 0.106279 0.365812 0.950295 0.026 Uiso 1 1 calc R U . . .
C60 C 0.14581(16) 0.95428(14) 0.85019(10) 0.0205(4) Uani 1 1 d . . . . .
C56 C 0.17491(15) 0.60109(14) 0.90274(9) 0.0186(4) Uani 1 1 d . . . . .
C52 C -0.05192(18) 0.40532(14) 0.92940(10) 0.0233(4) Uani 1 1 d . . . . .
H52 H -0.061449 0.348609 0.947932 0.028 Uiso 1 1 calc R U . . .
C41 C -0.21605(15) 0.62198(13) 0.82464(9) 0.0177(4) Uani 1 1 d . . . . .
C59 C 0.19394(16) 0.88122(14) 0.80586(10) 0.0219(4) Uani 1 1 d . . . . .
H59 H 0.244616 0.888660 0.771603 0.026 Uiso 1 1 calc R U . . .
C20 C 0.52178(15) 0.04036(13) 0.74583(10) 0.0212(4) Uani 1 1 d . . . . .
C37 C 0.80054(15) -0.05261(14) 0.79392(10) 0.0210(4) Uani 1 1 d . . . . .
C19 C 0.59285(15) 0.07256(13) 0.70349(10) 0.0193(4) Uani 1 1 d . . . . .
C75 C 0.27648(16) 0.61260(14) 0.91611(10) 0.0235(4) Uani 1 1 d . . . . .
C4 C 0.52827(16) 0.42547(13) 0.71572(10) 0.0195(4) Uani 1 1 d . . . . .
C51 C -0.14045(17) 0.47772(13) 0.89883(9) 0.0206(4) Uani 1 1 d . . . . .
C16 C 0.83471(15) 0.18591(14) 0.78219(10) 0.0217(4) Uani 1 1 d . . . . .
C65 C -0.03969(16) 0.85234(14) 0.95898(10) 0.0227(4) Uani 1 1 d . . . . .
H65A H -0.071061 0.804908 0.947139 0.034 Uiso 1 1 calc R U . . .
H65B H -0.097814 0.914177 0.963301 0.034 Uiso 1 1 calc R U . . .
H65C H -0.003023 0.832724 1.002287 0.034 Uiso 1 1 calc R U . . .
C18 C 0.77604(16) 0.04757(14) 0.77644(10) 0.0205(4) Uani 1 1 d . . . . .
C66 C 0.02039(17) 0.69120(15) 0.62599(10) 0.0238(4) Uani 1 1 d . . . . .
C7 C 0.44356(16) 0.49426(14) 0.68035(10) 0.0229(4) Uani 1 1 d . . . . .
C45 C -0.30045(16) 0.74561(14) 0.73624(10) 0.0223(4) Uani 1 1 d . . . . .
C30 C 0.40415(15) 0.28704(14) 0.97856(10) 0.0202(4) Uani 1 1 d . . . . .
H30 H 0.433473 0.297508 1.019210 0.024 Uiso 1 1 calc R U . . .
C3 C 0.63937(16) 0.41852(14) 0.70255(10) 0.0205(4) Uani 1 1 d . . . . .
C36 C 0.26639(17) 0.24006(15) 0.79720(11) 0.0255(4) Uani 1 1 d . . . . .
H36A H 0.186817 0.268455 0.800610 0.038 Uiso 1 1 calc R U . . .
H36B H 0.287435 0.171095 0.793410 0.038 Uiso 1 1 calc R U . . .
H36C H 0.293716 0.267410 0.756823 0.038 Uiso 1 1 calc R U . . .
C13 C 0.82746(16) 0.36919(15) 0.74067(10) 0.0234(4) Uani 1 1 d . . . . .
C34 C 0.49542(17) 0.39244(14) 0.92030(10) 0.0238(4) Uani 1 1 d . . . . .
H34A H 0.570637 0.354350 0.907626 0.036 Uiso 1 1 calc R U . . .
H34B H 0.492602 0.414367 0.966472 0.036 Uiso 1 1 calc R U . . .
H34C H 0.469446 0.447557 0.888339 0.036 Uiso 1 1 calc R U . . .
C50 C -0.24689(18) 0.47138(15) 0.90696(10) 0.0253(4) Uani 1 1 d . . . . .
H50 H -0.255878 0.415906 0.928314 0.030 Uiso 1 1 calc R U . . .
C31 C 0.34287(16) 0.22681(14) 0.98146(10) 0.0235(4) Uani 1 1 d . . . . .
C17 C 0.84754(16) 0.08834(14) 0.79656(10) 0.0233(4) Uani 1 1 d . . . . .
H17 H 0.908781 0.049734 0.821335 0.028 Uiso 1 1 calc R U . . .
C15 C 0.91765(16) 0.21995(16) 0.80007(11) 0.0274(5) Uani 1 1 d . . . . .
H15 H 0.974529 0.181144 0.828074 0.033 Uiso 1 1 calc R U . . .
C32 C 0.29936(16) 0.21437(14) 0.92171(10) 0.0223(4) Uani 1 1 d . . . . .
H32 H 0.257927 0.173287 0.922586 0.027 Uiso 1 1 calc R U . . .
C14 C 0.91633(17) 0.30709(16) 0.77757(11) 0.0280(5) Uani 1 1 d . . . . .
H14 H 0.975534 0.327029 0.786544 0.034 Uiso 1 1 calc R U . . .
C49 C -0.33459(18) 0.54329(15) 0.88463(11) 0.0271(5) Uani 1 1 d . . . . .
H49 H -0.405613 0.543399 0.897471 0.033 Uiso 1 1 calc R U . . .
C10 C 0.65584(17) 0.49698(15) 0.66520(11) 0.0254(4) Uani 1 1 d . . . . .
C47 C -0.41547(17) 0.68753(15) 0.81273(11) 0.0266(4) Uani 1 1 d . . . . .
H47 H -0.485915 0.688156 0.827647 0.032 Uiso 1 1 calc R U . . .
C63 C 0.22853(18) 0.71921(15) 0.76252(11) 0.0282(5) Uani 1 1 d . . . . .
H63A H 0.254084 0.746574 0.721464 0.042 Uiso 1 1 calc R U . . .
H63B H 0.178523 0.687591 0.749945 0.042 Uiso 1 1 calc R U . . .
H63C H 0.290979 0.672707 0.785167 0.042 Uiso 1 1 calc R U . . .
C48 C -0.32181(16) 0.61966(14) 0.84169(10) 0.0221(4) Uani 1 1 d . . . . .
C44 C -0.29263(17) 0.80182(15) 0.67661(10) 0.0265(4) Uani 1 1 d . . . . .
H44 H -0.356766 0.849401 0.660408 0.032 Uiso 1 1 calc R U . . .
C12 C 0.83592(18) 0.45470(15) 0.70851(11) 0.0282(5) Uani 1 1 d . . . . .
H12 H 0.897856 0.471709 0.715771 0.034 Uiso 1 1 calc R U . . .
C71 C 0.06510(17) 0.60882(15) 0.58786(10) 0.0249(4) Uani 1 1 d . . . . .
C24 C 0.58900(18) 0.06824(15) 0.63255(11) 0.0272(4) Uani 1 1 d . . . . .
C46 C -0.40484(17) 0.75179(16) 0.76366(11) 0.0273(4) Uani 1 1 d . . . . .
H46 H -0.467733 0.801114 0.747667 0.033 Uiso 1 1 calc R U . . .
C25 C 0.52498(17) 0.04063(16) 0.82229(11) 0.0265(4) Uani 1 1 d . . . . .
H25A H 0.589222 -0.011459 0.838261 0.040 Uiso 1 1 calc R U . . .
H25B H 0.459024 0.032074 0.842925 0.040 Uiso 1 1 calc R U . . .
H25C H 0.528779 0.101449 0.835324 0.040 Uiso 1 1 calc R U . . .
C74 C 0.01443(19) 0.53194(16) 0.59182(11) 0.0291(5) Uani 1 1 d . . . . .
H74A H 0.048731 0.485884 0.556943 0.044 Uiso 1 1 calc R U . . .
H74B H -0.063786 0.560672 0.584172 0.044 Uiso 1 1 calc R U . . .
H74C H 0.025510 0.499445 0.636929 0.044 Uiso 1 1 calc R U . . .
C64 C 0.17879(17) 1.04137(15) 0.84618(12) 0.0283(5) Uani 1 1 d . . . . .
H64A H 0.256997 1.022470 0.853636 0.042 Uiso 1 1 calc R U . . .
H64B H 0.137978 1.084915 0.881165 0.042 Uiso 1 1 calc R U . . .
H64C H 0.162854 1.073377 0.801124 0.042 Uiso 1 1 calc R U . . .
C43 C -0.19634(18) 0.78958(15) 0.64212(10) 0.0271(4) Uani 1 1 d . . . . .
C21 C 0.44682(17) 0.00764(15) 0.71714(12) 0.0279(5) Uani 1 1 d . . . . .
H21 H 0.397971 -0.012445 0.746282 0.033 Uiso 1 1 calc R U . . .
C67 C 0.07026(19) 0.76106(16) 0.61863(10) 0.0292(5) Uani 1 1 d . . . . .
C11 C 0.75738(18) 0.51138(16) 0.66812(11) 0.0287(5) Uani 1 1 d . . . . .
H11 H 0.769924 0.561610 0.641239 0.034 Uiso 1 1 calc R U . . .
N8 N -0.1977(2) 0.88708(18) 0.52950(11) 0.0592(7) Uani 1 1 d . . . . .
C8 C 0.46785(18) 0.56184(16) 0.63472(11) 0.0300(5) Uani 1 1 d . . . . .
H8 H 0.412298 0.604764 0.607698 0.036 Uiso 1 1 calc R U . . .
C9 C 0.56991(19) 0.56519(16) 0.62965(12) 0.0314(5) Uani 1 1 d . . . . .
H9 H 0.584094 0.613940 0.601886 0.038 Uiso 1 1 calc R U . . .
C70 C 0.15572(19) 0.59789(17) 0.54449(10) 0.0302(5) Uani 1 1 d . . . . .
H70 H 0.185244 0.541726 0.519635 0.036 Uiso 1 1 calc R U . . .
C22 C 0.4416(2) 0.00363(17) 0.64750(13) 0.0352(5) Uani 1 1 d . . . . .
C23 C 0.5140(2) 0.03349(18) 0.60601(12) 0.0377(6) Uani 1 1 d . . . . .
H23 H 0.512436 0.030130 0.558090 0.045 Uiso 1 1 calc R U . . .
C27 C 0.6653(2) 0.10068(19) 0.58536(11) 0.0372(6) Uani 1 1 d . . . . .
H27A H 0.667391 0.075742 0.540247 0.056 Uiso 1 1 calc R U . . .
H27B H 0.738604 0.076955 0.603533 0.056 Uiso 1 1 calc R U . . .
H27C H 0.639457 0.170377 0.581679 0.056 Uiso 1 1 calc R U . . .
C68 C 0.1610(2) 0.74776(18) 0.57452(11) 0.0350(5) Uani 1 1 d . . . . .
H68 H 0.194147 0.795196 0.570359 0.042 Uiso 1 1 calc R U . . .
C69 C 0.2040(2) 0.66752(18) 0.53678(11) 0.0353(5) Uani 1 1 d . . . . .
B3 B 0.08092(17) 0.68479(15) 0.87243(10) 0.0160(4) Uani 1 1 d . . . . .
C72 C 0.0249(2) 0.85240(17) 0.65648(12) 0.0375(6) Uani 1 1 d . . . . .
H72A H 0.082557 0.879218 0.660966 0.056 Uiso 1 1 calc R U . . .
H72B H -0.002383 0.838873 0.701813 0.056 Uiso 1 1 calc R U . . .
H72C H -0.034826 0.898171 0.631140 0.056 Uiso 1 1 calc R U . . .
C76 C -0.1972(2) 0.84479(17) 0.57977(12) 0.0383(6) Uani 1 1 d . . . . .
B2 B 0.39207(17) 0.37656(15) 0.78966(11) 0.0177(4) Uani 1 1 d . . . . .
B1 B 0.67856(17) 0.10933(15) 0.73493(11) 0.0181(4) Uani 1 1 d . . . . .
C35 C 0.3263(2) 0.17729(18) 1.04785(12) 0.0355(5) Uani 1 1 d . . . . .
H35A H 0.394375 0.155169 1.072467 0.053 Uiso 1 1 calc R U . . .
H35B H 0.305009 0.122715 1.038756 0.053 Uiso 1 1 calc R U . . .
H35C H 0.268924 0.221802 1.075499 0.053 Uiso 1 1 calc R U . . .
C77 C 0.6909(2) 0.17339(17) 1.01484(12) 0.0357(5) Uani 1 1 d . . . . .
H77A H 0.622727 0.229041 1.017432 0.043 Uiso 1 1 calc R U . . .
H77B H 0.727392 0.165693 1.058648 0.043 Uiso 1 1 calc R U . . .
B4 B -0.09109(19) 0.71315(16) 0.66787(11) 0.0221(5) Uani 1 1 d . . . . .
C73 C 0.2985(2) 0.6567(2) 0.48611(13) 0.0480(7) Uani 1 1 d . . . . .
H73A H 0.346596 0.589949 0.486632 0.072 Uiso 1 1 calc R U . . .
H73B H 0.339442 0.696635 0.498587 0.072 Uiso 1 1 calc R U . . .
H73C H 0.270540 0.676357 0.440393 0.072 Uiso 1 1 calc R U . . .
C26 C 0.3615(3) -0.0351(2) 0.61805(16) 0.0584(8) Uani 1 1 d . . . . .
H26A H 0.398049 -0.102537 0.609026 0.088 Uiso 1 1 calc R U . . .
H26B H 0.334376 0.000466 0.575483 0.088 Uiso 1 1 calc R U . . .
H26C H 0.300322 -0.028283 0.650622 0.088 Uiso 1 1 calc R U . . .
H5 H -0.0699(18) 0.7078(16) 0.8437(11) 0.017(5) Uiso 1 1 d . . . . .
H1 H 0.6167(19) 0.2461(16) 0.6986(11) 0.022(6) Uiso 1 1 d . . . . .
H6A H -0.049(2) 0.6178(18) 0.7465(12) 0.027(6) Uiso 1 1 d . . . . .
H2 H 0.554(2) 0.3347(17) 0.7924(12) 0.026(6) Uiso 1 1 d . . . . .
loop_
_atom_site_aniso_label
_atom_site_aniso_U_11
_atom_site_aniso_U_22
_atom_site_aniso_U_33
_atom_site_aniso_U_23
_atom_site_aniso_U_13
_atom_site_aniso_U_12
Cl2 0.0525(4) 0.0587(4) 0.0371(3) -0.0010(3) 0.0060(3) 0.0030(3)
Cl1 0.0753(6) 0.0355(4) 0.1175(8) -0.0019(4) -0.0424(5) -0.0173(4)
N1 0.0130(8) 0.0180(8) 0.0201(8) -0.0028(6) -0.0017(6) -0.0023(6)
N5 0.0156(8) 0.0124(7) 0.0172(7) -0.0002(6) -0.0003(6) -0.0031(6)
N2 0.0145(8) 0.0149(8) 0.0228(8) 0.0000(6) -0.0007(6) -0.0034(6)
N6 0.0172(8) 0.0154(8) 0.0175(8) -0.0009(6) -0.0004(6) -0.0045(7)
N3 0.0232(9) 0.0224(9) 0.0290(9) -0.0026(7) -0.0030(7) -0.0040(7)
N4 0.0184(9) 0.0361(10) 0.0211(8) -0.0049(7) -0.0004(7) -0.0045(8)
N7 0.0216(10) 0.0301(10) 0.0417(11) -0.0025(8) -0.0065(8) -0.0044(8)
C62 0.0122(9) 0.0175(9) 0.0197(9) -0.0002(7) -0.0026(7) -0.0034(7)
C39 0.0199(9) 0.0128(8) 0.0135(8) -0.0012(6) 0.0033(7) -0.0057(7)
C40 0.0207(9) 0.0136(9) 0.0156(8) -0.0032(7) 0.0042(7) -0.0057(7)
C28 0.0111(8) 0.0137(9) 0.0242(9) -0.0039(7) 0.0025(7) -0.0008(7)
C29 0.0122(9) 0.0135(9) 0.0274(10) -0.0009(7) -0.0003(7) -0.0014(7)
C38 0.0209(10) 0.0195(9) 0.0166(9) -0.0031(7) -0.0014(7) -0.0020(8)
C54 0.0217(10) 0.0140(9) 0.0142(8) -0.0029(7) 0.0034(7) -0.0020(7)
C57 0.0138(9) 0.0157(9) 0.0183(9) -0.0008(7) -0.0027(7) -0.0035(7)
C33 0.0140(9) 0.0185(9) 0.0254(10) -0.0041(7) 0.0023(7) -0.0034(7)
C5 0.0146(9) 0.0161(9) 0.0221(9) -0.0039(7) 0.0010(7) -0.0026(7)
C55 0.0202(10) 0.0168(9) 0.0156(9) -0.0018(7) -0.0012(7) 0.0009(7)
C42 0.0189(9) 0.0151(9) 0.0195(9) -0.0036(7) -0.0020(7) -0.0071(7)
C61 0.0168(9) 0.0152(9) 0.0215(9) -0.0029(7) -0.0042(7) -0.0039(7)
C2 0.0168(9) 0.0209(9) 0.0205(9) -0.0072(7) 0.0067(7) -0.0068(8)
C6 0.0204(10) 0.0164(9) 0.0240(10) -0.0016(7) -0.0028(8) -0.0007(8)
C1 0.0137(9) 0.0203(9) 0.0210(9) -0.0065(7) 0.0033(7) -0.0052(7)
C58 0.0177(9) 0.0194(9) 0.0211(9) -0.0009(7) 0.0004(7) -0.0056(8)
C53 0.0306(11) 0.0123(9) 0.0174(9) -0.0007(7) 0.0020(8) -0.0005(8)
C60 0.0190(10) 0.0167(9) 0.0266(10) 0.0026(7) -0.0062(8) -0.0071(8)
C56 0.0158(9) 0.0201(9) 0.0183(9) -0.0034(7) 0.0001(7) -0.0038(7)
C52 0.0379(12) 0.0129(9) 0.0180(9) 0.0005(7) 0.0046(8) -0.0084(8)
C41 0.0196(9) 0.0139(9) 0.0210(9) -0.0046(7) 0.0014(7) -0.0073(7)
C59 0.0177(10) 0.0236(10) 0.0243(10) 0.0008(8) 0.0023(8) -0.0077(8)
C20 0.0154(9) 0.0150(9) 0.0298(10) -0.0019(8) -0.0045(8) -0.0004(7)
C37 0.0147(9) 0.0239(10) 0.0216(9) -0.0035(8) -0.0026(7) -0.0025(8)
C19 0.0169(9) 0.0142(9) 0.0243(10) -0.0027(7) -0.0043(7) -0.0012(7)
C75 0.0189(10) 0.0204(10) 0.0265(10) -0.0033(8) -0.0016(8) -0.0003(8)
C4 0.0204(10) 0.0163(9) 0.0214(9) -0.0035(7) 0.0038(7) -0.0059(8)
C51 0.0294(11) 0.0174(9) 0.0171(9) -0.0027(7) 0.0046(8) -0.0110(8)
C16 0.0142(9) 0.0259(10) 0.0241(10) -0.0060(8) 0.0012(7) -0.0052(8)
C65 0.0219(10) 0.0183(9) 0.0279(10) -0.0063(8) 0.0057(8) -0.0068(8)
C18 0.0174(9) 0.0197(9) 0.0211(9) -0.0025(7) -0.0006(7) -0.0020(8)
C66 0.0297(11) 0.0247(10) 0.0154(9) 0.0048(8) 0.0004(8) -0.0084(9)
C7 0.0224(10) 0.0187(10) 0.0256(10) 0.0001(8) 0.0015(8) -0.0049(8)
C45 0.0234(10) 0.0207(10) 0.0227(10) -0.0023(8) -0.0040(8) -0.0067(8)
C30 0.0168(9) 0.0201(9) 0.0219(9) 0.0006(7) -0.0028(7) -0.0041(8)
C3 0.0195(10) 0.0207(10) 0.0226(9) -0.0045(8) 0.0046(7) -0.0087(8)
C36 0.0239(11) 0.0228(10) 0.0328(11) -0.0054(8) 0.0000(8) -0.0114(9)
C13 0.0194(10) 0.0260(10) 0.0264(10) -0.0115(8) 0.0064(8) -0.0095(8)
C34 0.0254(11) 0.0217(10) 0.0271(10) 0.0011(8) -0.0042(8) -0.0117(9)
C50 0.0342(12) 0.0215(10) 0.0257(10) -0.0035(8) 0.0069(9) -0.0174(9)
C31 0.0194(10) 0.0227(10) 0.0277(10) 0.0010(8) 0.0038(8) -0.0073(8)
C17 0.0161(9) 0.0243(10) 0.0242(10) -0.0013(8) -0.0039(8) 0.0001(8)
C15 0.0151(10) 0.0306(11) 0.0360(12) -0.0087(9) -0.0040(8) -0.0055(9)
C32 0.0171(10) 0.0203(10) 0.0321(11) -0.0013(8) 0.0038(8) -0.0104(8)
C14 0.0165(10) 0.0345(12) 0.0363(12) -0.0145(9) 0.0026(8) -0.0113(9)
C49 0.0271(11) 0.0297(11) 0.0314(11) -0.0071(9) 0.0086(9) -0.0189(9)
C10 0.0261(11) 0.0228(10) 0.0283(11) -0.0039(8) 0.0085(8) -0.0104(9)
C47 0.0162(10) 0.0288(11) 0.0367(12) -0.0062(9) 0.0003(8) -0.0097(9)
C63 0.0311(12) 0.0257(11) 0.0265(11) -0.0061(8) 0.0086(9) -0.0088(9)
C48 0.0220(10) 0.0205(10) 0.0262(10) -0.0060(8) 0.0024(8) -0.0103(8)
C44 0.0260(11) 0.0233(10) 0.0250(10) -0.0004(8) -0.0077(8) -0.0008(9)
C12 0.0253(11) 0.0286(11) 0.0376(12) -0.0124(9) 0.0112(9) -0.0181(9)
C71 0.0278(11) 0.0276(11) 0.0173(9) 0.0024(8) -0.0009(8) -0.0075(9)
C24 0.0311(12) 0.0245(11) 0.0257(10) -0.0011(8) -0.0066(9) -0.0085(9)
C46 0.0191(10) 0.0273(11) 0.0335(11) -0.0038(9) -0.0044(8) -0.0046(9)
C25 0.0226(11) 0.0277(11) 0.0291(11) -0.0031(9) 0.0031(8) -0.0085(9)
C74 0.0330(12) 0.0312(12) 0.0229(10) -0.0042(9) 0.0021(9) -0.0108(10)
C64 0.0229(11) 0.0197(10) 0.0442(13) 0.0013(9) -0.0015(9) -0.0101(9)
C43 0.0336(12) 0.0246(11) 0.0188(9) 0.0015(8) -0.0022(8) -0.0047(9)
C21 0.0193(10) 0.0239(11) 0.0406(12) -0.0014(9) -0.0055(9) -0.0069(8)
C67 0.0385(13) 0.0295(11) 0.0204(10) 0.0039(8) 0.0024(9) -0.0141(10)
C11 0.0304(12) 0.0265(11) 0.0336(11) -0.0058(9) 0.0102(9) -0.0162(9)
N8 0.0688(17) 0.0492(14) 0.0285(11) 0.0149(10) 0.0107(11) 0.0149(12)
C8 0.0299(12) 0.0243(11) 0.0329(11) 0.0058(9) 0.0001(9) -0.0067(9)
C9 0.0363(13) 0.0240(11) 0.0347(12) 0.0053(9) 0.0058(10) -0.0134(10)
C70 0.0340(12) 0.0352(12) 0.0192(10) -0.0033(9) 0.0057(9) -0.0095(10)
C22 0.0326(13) 0.0335(12) 0.0429(13) -0.0010(10) -0.0169(10) -0.0136(10)
C23 0.0509(15) 0.0403(14) 0.0271(11) 0.0006(10) -0.0156(11) -0.0206(12)
C27 0.0520(15) 0.0432(14) 0.0219(11) -0.0033(10) -0.0013(10) -0.0230(12)
C68 0.0446(14) 0.0389(13) 0.0273(11) 0.0037(10) 0.0049(10) -0.0236(11)
C69 0.0402(14) 0.0464(14) 0.0205(10) 0.0023(10) 0.0072(9) -0.0183(12)
B3 0.0157(10) 0.0157(10) 0.0146(9) -0.0030(7) 0.0018(8) -0.0029(8)
C72 0.0486(15) 0.0311(12) 0.0363(13) -0.0007(10) 0.0068(11) -0.0195(11)
C76 0.0415(14) 0.0321(12) 0.0253(11) 0.0042(9) 0.0019(10) 0.0063(11)
B2 0.0157(10) 0.0157(10) 0.0211(10) -0.0054(8) 0.0019(8) -0.0040(8)
B1 0.0148(10) 0.0184(10) 0.0179(10) -0.0046(8) 0.0021(8) -0.0014(8)
C35 0.0412(14) 0.0409(14) 0.0308(12) 0.0063(10) 0.0029(10) -0.0241(12)
C77 0.0341(13) 0.0283(12) 0.0397(13) -0.0015(10) -0.0089(10) -0.0033(10)
B4 0.0258(12) 0.0204(11) 0.0197(10) -0.0010(8) -0.0020(9) -0.0070(9)
C73 0.0494(16) 0.0663(19) 0.0315(13) -0.0021(12) 0.0168(12) -0.0264(15)
C26 0.0586(19) 0.071(2) 0.0606(18) -0.0041(16) -0.0276(15) -0.0378(17)
loop_
_atom_type_symbol
_atom_type_description
_atom_type_scat_dispersion_real
_atom_type_scat_dispersion_imag
_atom_type_scat_source
C C 0.0033 0.0016 'International Tables Vol C Tables 4.2.6.8 and 6.1.1.4'
H H 0.0000 0.0000 'International Tables Vol C Tables 4.2.6.8 and 6.1.1.4'
B B 0.0013 0.0007 'International Tables Vol C Tables 4.2.6.8 and 6.1.1.4'
Cl Cl 0.1484 0.1585 'International Tables Vol C Tables 4.2.6.8 and 6.1.1.4'
N N 0.0061 0.0033 'International Tables Vol C Tables 4.2.6.8 and 6.1.1.4'
loop_
_exptl_crystal_face_index_h
_exptl_crystal_face_index_k
_exptl_crystal_face_index_l
_exptl_crystal_face_perp_dist
-3.00 -3.00 -1.00 0.0240
-3.00 1.00 3.00 0.1670
-1.00 1.00 3.00 0.1390
-1.00 4.00 -5.00 0.1390
0.00 -1.00 0.00 0.1610
0.00 -3.00 1.00 0.1570
0.00 0.00 1.00 0.0190
0.00 0.00 -1.00 0.0170
1.00 -3.00 0.00 0.1870
1.00 1.00 5.00 0.0270
1.00 1.00 -5.00 0.0150
2.00 -3.00 0.00 0.1950
loop_
_geom_angle_atom_site_label_1
_geom_angle_atom_site_label_2
_geom_angle_atom_site_label_3
_geom_angle
_geom_angle_site_symmetry_1
_geom_angle_site_symmetry_3
_geom_angle_publ_flag
C1 N1 B1 126.56(17) . . ?
C1 N1 H1 115.5(14) . . ?
B1 N1 H1 117.8(14) . . ?
C39 N5 B3 125.31(16) . . ?
C39 N5 H5 116.0(14) . . ?
B3 N5 H5 118.7(14) . . ?
C4 N2 B2 127.29(17) . . ?
C4 N2 H2 115.1(15) . . ?
B2 N2 H2 117.0(15) . . ?
C42 N6 B4 125.79(17) . . ?
C42 N6 H6A 116.3(15) . . ?
B4 N6 H6A 117.8(15) . . ?
C57 C62 C65 121.58(16) . . ?
C61 C62 C57 119.85(17) . . ?
C61 C62 C65 118.52(16) . . ?
N5 C39 C40 122.27(16) . . ?
N5 C39 C54 117.85(17) . . ?
C54 C39 C40 119.78(16) . . ?
C39 C40 C41 125.90(16) . . ?
C51 C40 C39 116.40(17) . . ?
C51 C40 C41 117.52(17) . . ?
C29 C28 B2 120.10(16) . . ?
C33 C28 C29 118.11(17) . . ?
C33 C28 B2 121.76(17) . . ?
C28 C29 C34 122.67(17) . . ?
C30 C29 C28 119.91(17) . . ?
C30 C29 C34 117.41(17) . . ?
N4 C38 C5 176.9(2) . . ?
C39 C54 C55 120.91(17) . . ?
C39 C54 C53 120.34(18) . . ?
C53 C54 C55 118.73(17) . . ?
C62 C57 C58 118.39(17) . . ?
C62 C57 B3 121.57(16) . . ?
C58 C57 B3 119.31(16) . . ?
C28 C33 C36 121.76(18) . . ?
C32 C33 C28 120.11(18) . . ?
C32 C33 C36 118.07(17) . . ?
C38 C5 B2 125.12(17) . . ?
C6 C5 C38 115.43(17) . . ?
C6 C5 B2 119.38(17) . . ?
C54 C55 H55 119.0 . . ?
C56 C55 C54 121.93(17) . . ?
C56 C55 H55 119.0 . . ?
N6 C42 C41 122.09(17) . . ?
N6 C42 C45 117.78(17) . . ?
C45 C42 C41 119.82(17) . . ?
C62 C61 H61 119.1 . . ?
C60 C61 C62 121.76(17) . . ?
C60 C61 H61 119.1 . . ?
C1 C2 C3 126.34(17) . . ?
C13 C2 C1 116.31(18) . . ?
C13 C2 C3 117.13(18) . . ?
C5 C6 H6 118.6 . . ?
C5 C6 C7 122.80(18) . . ?
C7 C6 H6 118.6 . . ?
N1 C1 C2 122.79(17) . . ?
N1 C1 C16 117.09(17) . . ?
C16 C1 C2 119.98(17) . . ?
C57 C58 C63 120.67(17) . . ?
C59 C58 C57 120.19(17) . . ?
C59 C58 C63 119.13(17) . . ?
C54 C53 H53 119.9 . . ?
C52 C53 C54 120.10(18) . . ?
C52 C53 H53 119.9 . . ?
C61 C60 C59 118.01(17) . . ?
C61 C60 C64 121.83(18) . . ?
C59 C60 C64 120.15(18) . . ?
C55 C56 C75 120.19(18) . . ?
C55 C56 B3 119.31(17) . . ?
C75 C56 B3 120.41(17) . . ?
C53 C52 H52 119.7 . . ?
C53 C52 C51 120.54(18) . . ?
C51 C52 H52 119.7 . . ?
C42 C41 C40 125.79(17) . . ?
C48 C41 C40 117.51(17) . . ?
C48 C41 C42 116.35(17) . . ?
C58 C59 C60 121.75(18) . . ?
C58 C59 H59 119.1 . . ?
C60 C59 H59 119.1 . . ?
C19 C20 C25 120.96(17) . . ?
C21 C20 C19 119.86(19) . . ?
C21 C20 C25 119.17(19) . . ?
N3 C37 C18 178.0(2) . . ?
C20 C19 C24 118.85(18) . . ?
C20 C19 B1 120.64(17) . . ?
C24 C19 B1 120.48(18) . . ?
N7 C75 C56 177.3(2) . . ?
N2 C4 C7 117.54(17) . . ?
N2 C4 C3 121.48(18) . . ?
C7 C4 C3 120.75(18) . . ?
C40 C51 C50 119.86(18) . . ?
C52 C51 C40 121.10(18) . . ?
C52 C51 C50 118.90(18) . . ?
C1 C16 C17 120.65(18) . . ?
C1 C16 C15 120.02(19) . . ?
C15 C16 C17 119.22(18) . . ?
C62 C65 H65A 109.5 . . ?
C62 C65 H65B 109.5 . . ?
C62 C65 H65C 109.5 . . ?
H65A C65 H65B 109.5 . . ?
H65A C65 H65C 109.5 . . ?
H65B C65 H65C 109.5 . . ?
C37 C18 B1 124.56(17) . . ?
C17 C18 C37 117.01(17) . . ?
C17 C18 B1 118.39(18) . . ?
C71 C66 B4 122.03(19) . . ?
C67 C66 C71 118.02(19) . . ?
C67 C66 B4 119.41(19) . . ?
C4 C7 C6 120.11(18) . . ?
C4 C7 C8 119.52(19) . . ?
C8 C7 C6 120.22(19) . . ?
C42 C45 C44 120.75(19) . . ?
C42 C45 C46 119.93(18) . . ?
C46 C45 C44 119.12(19) . . ?
C29 C30 H30 119.0 . . ?
C29 C30 C31 122.01(18) . . ?
C31 C30 H30 119.0 . . ?
C4 C3 C2 124.99(17) . . ?
C10 C3 C2 118.55(17) . . ?
C10 C3 C4 115.95(18) . . ?
C33 C36 H36A 109.5 . . ?
C33 C36 H36B 109.5 . . ?
C33 C36 H36C 109.5 . . ?
H36A C36 H36B 109.5 . . ?
H36A C36 H36C 109.5 . . ?
H36B C36 H36C 109.5 . . ?
C2 C13 C12 119.82(19) . . ?
C14 C13 C2 120.89(19) . . ?
C14 C13 C12 119.16(19) . . ?
C29 C34 H34A 109.5 . . ?
C29 C34 H34B 109.5 . . ?
C29 C34 H34C 109.5 . . ?
H34A C34 H34B 109.5 . . ?
H34A C34 H34C 109.5 . . ?
H34B C34 H34C 109.5 . . ?
C51 C50 H50 119.7 . . ?
C49 C50 C51 120.64(18) . . ?
C49 C50 H50 119.7 . . ?
C30 C31 C35 120.27(19) . . ?
C32 C31 C30 117.72(18) . . ?
C32 C31 C35 122.01(19) . . ?
C16 C17 H17 118.4 . . ?
C18 C17 C16 123.25(18) . . ?
C18 C17 H17 118.4 . . ?
C16 C15 H15 119.8 . . ?
C14 C15 C16 120.4(2) . . ?
C14 C15 H15 119.8 . . ?
C33 C32 H32 119.0 . . ?
C31 C32 C33 122.09(18) . . ?
C31 C32 H32 119.0 . . ?
C13 C14 H14 119.7 . . ?
C15 C14 C13 120.63(19) . . ?
C15 C14 H14 119.7 . . ?
C50 C49 H49 119.7 . . ?
C50 C49 C48 120.65(19) . . ?
C48 C49 H49 119.7 . . ?
C11 C10 C3 119.5(2) . . ?
C9 C10 C3 120.92(19) . . ?
C9 C10 C11 119.36(19) . . ?
C48 C47 H47 119.9 . . ?
C46 C47 H47 119.9 . . ?
C46 C47 C48 120.17(19) . . ?
C58 C63 H63A 109.5 . . ?
C58 C63 H63B 109.5 . . ?
C58 C63 H63C 109.5 . . ?
H63A C63 H63B 109.5 . . ?
H63A C63 H63C 109.5 . . ?
H63B C63 H63C 109.5 . . ?
C41 C48 C49 119.95(19) . . ?
C47 C48 C41 121.18(18) . . ?
C47 C48 C49 118.68(18) . . ?
C45 C44 H44 118.9 . . ?
C43 C44 C45 122.12(19) . . ?
C43 C44 H44 118.9 . . ?
C13 C12 H12 119.5 . . ?
C11 C12 C13 120.98(19) . . ?
C11 C12 H12 119.5 . . ?
C66 C71 C74 121.02(18) . . ?
C70 C71 C66 120.4(2) . . ?
C70 C71 C74 118.56(19) . . ?
C19 C24 C27 120.46(19) . . ?
C23 C24 C19 119.4(2) . . ?
C23 C24 C27 120.1(2) . . ?
C45 C46 H46 119.8 . . ?
C47 C46 C45 120.4(2) . . ?
C47 C46 H46 119.8 . . ?
C20 C25 H25A 109.5 . . ?
C20 C25 H25B 109.5 . . ?
C20 C25 H25C 109.5 . . ?
H25A C25 H25B 109.5 . . ?
H25A C25 H25C 109.5 . . ?
H25B C25 H25C 109.5 . . ?
C71 C74 H74A 109.5 . . ?
C71 C74 H74B 109.5 . . ?
C71 C74 H74C 109.5 . . ?
H74A C74 H74B 109.5 . . ?
H74A C74 H74C 109.5 . . ?
H74B C74 H74C 109.5 . . ?
C60 C64 H64A 109.5 . . ?
C60 C64 H64B 109.5 . . ?
C60 C64 H64C 109.5 . . ?
H64A C64 H64B 109.5 . . ?
H64A C64 H64C 109.5 . . ?
H64B C64 H64C 109.5 . . ?
C44 C43 C76 118.4(2) . . ?
C44 C43 B4 119.75(19) . . ?
C76 C43 B4 121.8(2) . . ?
C20 C21 H21 119.1 . . ?
C22 C21 C20 121.9(2) . . ?
C22 C21 H21 119.1 . . ?
C66 C67 C72 120.9(2) . . ?
C68 C67 C66 120.0(2) . . ?
C68 C67 C72 119.1(2) . . ?
C10 C11 H11 119.6 . . ?
C12 C11 C10 120.8(2) . . ?
C12 C11 H11 119.6 . . ?
C7 C8 H8 119.9 . . ?
C9 C8 C7 120.1(2) . . ?
C9 C8 H8 119.9 . . ?
C10 C9 H9 119.6 . . ?
C8 C9 C10 120.8(2) . . ?
C8 C9 H9 119.6 . . ?
C71 C70 H70 119.3 . . ?
C69 C70 C71 121.4(2) . . ?
C69 C70 H70 119.3 . . ?
C21 C22 C23 117.9(2) . . ?
C21 C22 C26 120.5(2) . . ?
C23 C22 C26 121.6(2) . . ?
C24 C23 H23 119.0 . . ?
C22 C23 C24 122.1(2) . . ?
C22 C23 H23 119.0 . . ?
C24 C27 H27A 109.5 . . ?
C24 C27 H27B 109.5 . . ?
C24 C27 H27C 109.5 . . ?
H27A C27 H27B 109.5 . . ?
H27A C27 H27C 109.5 . . ?
H27B C27 H27C 109.5 . . ?
C67 C68 H68 119.1 . . ?
C69 C68 C67 121.9(2) . . ?
C69 C68 H68 119.1 . . ?
C70 C69 C73 120.4(2) . . ?
C68 C69 C70 118.3(2) . . ?
C68 C69 C73 121.2(2) . . ?
N5 B3 C57 125.51(17) . . ?
N5 B3 C56 114.44(17) . . ?
C56 B3 C57 119.99(16) . . ?
C67 C72 H72A 109.5 . . ?
C67 C72 H72B 109.5 . . ?
C67 C72 H72C 109.5 . . ?
H72A C72 H72B 109.5 . . ?
H72A C72 H72C 109.5 . . ?
H72B C72 H72C 109.5 . . ?
N8 C76 C43 178.6(3) . . ?
N2 B2 C28 118.83(17) . . ?
N2 B2 C5 112.30(17) . . ?
C5 B2 C28 128.73(17) . . ?
N1 B1 C19 120.83(17) . . ?
N1 B1 C18 113.98(17) . . ?
C18 B1 C19 125.18(18) . . ?
C31 C35 H35A 109.5 . . ?
C31 C35 H35B 109.5 . . ?
C31 C35 H35C 109.5 . . ?
H35A C35 H35B 109.5 . . ?
H35A C35 H35C 109.5 . . ?
H35B C35 H35C 109.5 . . ?
Cl2 C77 Cl1 111.77(14) . . ?
Cl2 C77 H77A 109.3 . . ?
Cl2 C77 H77B 109.3 . . ?
Cl1 C77 H77A 109.3 . . ?
Cl1 C77 H77B 109.3 . . ?
H77A C77 H77B 107.9 . . ?
N6 B4 C66 125.23(19) . . ?
N6 B4 C43 113.56(19) . . ?
C43 B4 C66 121.16(18) . . ?
C69 C73 H73A 109.5 . . ?
C69 C73 H73B 109.5 . . ?
C69 C73 H73C 109.5 . . ?
H73A C73 H73B 109.5 . . ?
H73A C73 H73C 109.5 . . ?
H73B C73 H73C 109.5 . . ?
C22 C26 H26A 109.5 . . ?
C22 C26 H26B 109.5 . . ?
C22 C26 H26C 109.5 . . ?
H26A C26 H26B 109.5 . . ?
H26A C26 H26C 109.5 . . ?
H26B C26 H26C 109.5 . . ?
loop_
_geom_bond_atom_site_label_1
_geom_bond_atom_site_label_2
_geom_bond_distance
_geom_bond_site_symmetry_2
_geom_bond_publ_flag
Cl2 C77 1.758(3) . ?
Cl1 C77 1.759(3) . ?
N1 C1 1.389(2) . ?
N1 B1 1.429(3) . ?
N1 H1 0.92(2) . ?
N5 C39 1.395(2) . ?
N5 B3 1.418(3) . ?
N5 H5 0.87(2) . ?
N2 C4 1.383(2) . ?
N2 B2 1.426(3) . ?
N2 H2 0.89(2) . ?
N6 C42 1.392(2) . ?
N6 B4 1.426(3) . ?
N6 H6A 0.90(2) . ?
N3 C37 1.146(3) . ?
N4 C38 1.147(3) . ?
N7 C75 1.150(3) . ?
C62 C57 1.408(3) . ?
C62 C61 1.402(3) . ?
C62 C65 1.510(3) . ?
C39 C40 1.438(3) . ?
C39 C54 1.414(3) . ?
C40 C41 1.459(3) . ?
C40 C51 1.426(3) . ?
C28 C29 1.421(3) . ?
C28 C33 1.406(3) . ?
C28 B2 1.569(3) . ?
C29 C30 1.392(3) . ?
C29 C34 1.517(3) . ?
C38 C5 1.437(3) . ?
C54 C55 1.422(3) . ?
C54 C53 1.420(3) . ?
C57 C58 1.413(3) . ?
C57 B3 1.578(3) . ?
C33 C36 1.510(3) . ?
C33 C32 1.401(3) . ?
C5 C6 1.370(3) . ?
C5 B2 1.543(3) . ?
C55 H55 0.9500 . ?
C55 C56 1.368(3) . ?
C42 C41 1.439(3) . ?
C42 C45 1.412(3) . ?
C61 H61 0.9500 . ?
C61 C60 1.390(3) . ?
C2 C1 1.441(3) . ?
C2 C3 1.458(3) . ?
C2 C13 1.423(3) . ?
C6 H6 0.9500 . ?
C6 C7 1.421(3) . ?
C1 C16 1.408(3) . ?
C58 C59 1.391(3) . ?
C58 C63 1.515(3) . ?
C53 H53 0.9500 . ?
C53 C52 1.355(3) . ?
C60 C59 1.392(3) . ?
C60 C64 1.507(3) . ?
C56 C75 1.438(3) . ?
C56 B3 1.538(3) . ?
C52 H52 0.9500 . ?
C52 C51 1.417(3) . ?
C41 C48 1.419(3) . ?
C59 H59 0.9500 . ?
C20 C19 1.405(3) . ?
C20 C25 1.509(3) . ?
C20 C21 1.396(3) . ?
C37 C18 1.447(3) . ?
C19 C24 1.407(3) . ?
C19 B1 1.577(3) . ?
C4 C7 1.408(3) . ?
C4 C3 1.433(3) . ?
C51 C50 1.429(3) . ?
C16 C17 1.426(3) . ?
C16 C15 1.417(3) . ?
C65 H65A 0.9800 . ?
C65 H65B 0.9800 . ?
C65 H65C 0.9800 . ?
C18 C17 1.368(3) . ?
C18 B1 1.535(3) . ?
C66 C71 1.413(3) . ?
C66 C67 1.410(3) . ?
C66 B4 1.579(3) . ?
C7 C8 1.421(3) . ?
C45 C44 1.424(3) . ?
C45 C46 1.417(3) . ?
C30 H30 0.9500 . ?
C30 C31 1.397(3) . ?
C3 C10 1.423(3) . ?
C36 H36A 0.9800 . ?
C36 H36B 0.9800 . ?
C36 H36C 0.9800 . ?
C13 C14 1.417(3) . ?
C13 C12 1.432(3) . ?
C34 H34A 0.9800 . ?
C34 H34B 0.9800 . ?
C34 H34C 0.9800 . ?
C50 H50 0.9500 . ?
C50 C49 1.347(3) . ?
C31 C32 1.384(3) . ?
C31 C35 1.507(3) . ?
C17 H17 0.9500 . ?
C15 H15 0.9500 . ?
C15 C14 1.348(3) . ?
C32 H32 0.9500 . ?
C14 H14 0.9500 . ?
C49 H49 0.9500 . ?
C49 C48 1.434(3) . ?
C10 C11 1.423(3) . ?
C10 C9 1.415(3) . ?
C47 H47 0.9500 . ?
C47 C48 1.416(3) . ?
C47 C46 1.359(3) . ?
C63 H63A 0.9800 . ?
C63 H63B 0.9800 . ?
C63 H63C 0.9800 . ?
C44 H44 0.9500 . ?
C44 C43 1.360(3) . ?
C12 H12 0.9500 . ?
C12 C11 1.347(3) . ?
C71 C74 1.512(3) . ?
C71 C70 1.392(3) . ?
C24 C23 1.396(3) . ?
C24 C27 1.510(3) . ?
C46 H46 0.9500 . ?
C25 H25A 0.9800 . ?
C25 H25B 0.9800 . ?
C25 H25C 0.9800 . ?
C74 H74A 0.9800 . ?
C74 H74B 0.9800 . ?
C74 H74C 0.9800 . ?
C64 H64A 0.9800 . ?
C64 H64B 0.9800 . ?
C64 H64C 0.9800 . ?
C43 C76 1.437(3) . ?
C43 B4 1.543(3) . ?
C21 H21 0.9500 . ?
C21 C22 1.383(3) . ?
C67 C68 1.398(3) . ?
C67 C72 1.516(3) . ?
C11 H11 0.9500 . ?
N8 C76 1.142(3) . ?
C8 H8 0.9500 . ?
C8 C9 1.352(3) . ?
C9 H9 0.9500 . ?
C70 H70 0.9500 . ?
C70 C69 1.392(3) . ?
C22 C23 1.391(4) . ?
C22 C26 1.517(3) . ?
C23 H23 0.9500 . ?
C27 H27A 0.9800 . ?
C27 H27B 0.9800 . ?
C27 H27C 0.9800 . ?
C68 H68 0.9500 . ?
C68 C69 1.382(3) . ?
C69 C73 1.518(3) . ?
C72 H72A 0.9800 . ?
C72 H72B 0.9800 . ?
C72 H72C 0.9800 . ?
C35 H35A 0.9800 . ?
C35 H35B 0.9800 . ?
C35 H35C 0.9800 . ?
C77 H77A 0.9900 . ?
C77 H77B 0.9900 . ?
C73 H73A 0.9800 . ?
C73 H73B 0.9800 . ?
C73 H73C 0.9800 . ?
C26 H26A 0.9800 . ?
C26 H26B 0.9800 . ?
C26 H26C 0.9800 . ?
loop_
_geom_torsion_atom_site_label_1
_geom_torsion_atom_site_label_2
_geom_torsion_atom_site_label_3
_geom_torsion_atom_site_label_4
_geom_torsion
_geom_torsion_site_symmetry_1
_geom_torsion_site_symmetry_2
_geom_torsion_site_symmetry_3
_geom_torsion_site_symmetry_4
_geom_torsion_publ_flag
N1 C1 C16 C17 -3.0(3) . . . . ?
N1 C1 C16 C15 173.18(17) . . . . ?
N5 C39 C40 C41 11.5(3) . . . . ?
N5 C39 C40 C51 -163.39(16) . . . . ?
N5 C39 C54 C55 -4.7(2) . . . . ?
N5 C39 C54 C53 173.45(16) . . . . ?
N2 C4 C7 C6 -5.6(3) . . . . ?
N2 C4 C7 C8 170.00(18) . . . . ?
N2 C4 C3 C2 11.6(3) . . . . ?
N2 C4 C3 C10 -160.05(18) . . . . ?
N6 C42 C41 C40 14.5(3) . . . . ?
N6 C42 C41 C48 -158.50(17) . . . . ?
N6 C42 C45 C44 -5.4(3) . . . . ?
N6 C42 C45 C46 169.54(17) . . . . ?
C62 C57 C58 C59 0.4(3) . . . . ?
C62 C57 C58 C63 179.21(18) . . . . ?
C62 C57 B3 N5 73.5(2) . . . . ?
C62 C57 B3 C56 -103.4(2) . . . . ?
C62 C61 C60 C59 1.4(3) . . . . ?
C62 C61 C60 C64 -177.33(18) . . . . ?
C39 N5 B3 C57 -175.06(16) . . . . ?
C39 N5 B3 C56 2.0(3) . . . . ?
C39 C40 C41 C42 34.8(3) . . . . ?
C39 C40 C41 C48 -152.33(18) . . . . ?
C39 C40 C51 C52 -14.9(3) . . . . ?
C39 C40 C51 C50 160.84(17) . . . . ?
C39 C54 C55 C56 2.2(3) . . . . ?
C39 C54 C53 C52 -5.8(3) . . . . ?
C40 C39 C54 C55 178.78(16) . . . . ?
C40 C39 C54 C53 -3.1(3) . . . . ?
C40 C41 C48 C49 -14.4(3) . . . . ?
C40 C41 C48 C47 170.71(17) . . . . ?
C40 C51 C50 C49 -2.5(3) . . . . ?
C28 C29 C30 C31 2.5(3) . . . . ?
C28 C33 C32 C31 0.9(3) . . . . ?
C29 C28 C33 C36 -176.93(17) . . . . ?
C29 C28 C33 C32 0.4(3) . . . . ?
C29 C28 B2 N2 52.3(2) . . . . ?
C29 C28 B2 C5 -123.0(2) . . . . ?
C29 C30 C31 C32 -1.3(3) . . . . ?
C29 C30 C31 C35 178.36(19) . . . . ?
C38 C5 C6 C7 179.26(18) . . . . ?
C38 C5 B2 N2 175.96(17) . . . . ?
C38 C5 B2 C28 -8.5(3) . . . . ?
C54 C39 C40 C41 -172.21(17) . . . . ?
C54 C39 C40 C51 12.9(2) . . . . ?
C54 C55 C56 C75 179.04(17) . . . . ?
C54 C55 C56 B3 2.5(3) . . . . ?
C54 C53 C52 C51 4.1(3) . . . . ?
C57 C62 C61 C60 0.3(3) . . . . ?
C57 C58 C59 C60 1.4(3) . . . . ?
C33 C28 C29 C30 -2.0(3) . . . . ?
C33 C28 C29 C34 177.82(17) . . . . ?
C33 C28 B2 N2 -129.74(19) . . . . ?
C33 C28 B2 C5 55.0(3) . . . . ?
C5 C6 C7 C4 4.7(3) . . . . ?
C5 C6 C7 C8 -170.9(2) . . . . ?
C55 C54 C53 C52 172.39(17) . . . . ?
C55 C56 B3 N5 -4.5(3) . . . . ?
C55 C56 B3 C57 172.76(17) . . . . ?
C42 N6 B4 C66 -175.77(18) . . . . ?
C42 N6 B4 C43 1.7(3) . . . . ?
C42 C41 C48 C49 159.22(18) . . . . ?
C42 C41 C48 C47 -15.7(3) . . . . ?
C42 C45 C44 C43 4.6(3) . . . . ?
C42 C45 C46 C47 -6.8(3) . . . . ?
C61 C62 C57 C58 -1.2(3) . . . . ?
C61 C62 C57 B3 168.96(17) . . . . ?
C61 C60 C59 C58 -2.3(3) . . . . ?
C2 C1 C16 C17 -178.73(17) . . . . ?
C2 C1 C16 C15 -2.6(3) . . . . ?
C2 C3 C10 C11 -12.1(3) . . . . ?
C2 C3 C10 C9 173.05(19) . . . . ?
C2 C13 C14 C15 5.6(3) . . . . ?
C2 C13 C12 C11 -1.8(3) . . . . ?
C6 C5 B2 N2 -7.1(3) . . . . ?
C6 C5 B2 C28 168.47(18) . . . . ?
C6 C7 C8 C9 170.0(2) . . . . ?
C1 N1 B1 C19 -177.32(17) . . . . ?
C1 N1 B1 C18 1.1(3) . . . . ?
C1 C2 C3 C4 34.3(3) . . . . ?
C1 C2 C3 C10 -154.24(19) . . . . ?
C1 C2 C13 C14 -14.4(3) . . . . ?
C1 C2 C13 C12 161.51(18) . . . . ?
C1 C16 C17 C18 1.4(3) . . . . ?
C1 C16 C15 C14 -6.9(3) . . . . ?
C58 C57 B3 N5 -116.4(2) . . . . ?
C58 C57 B3 C56 66.7(2) . . . . ?
C53 C54 C55 C56 -175.98(17) . . . . ?
C53 C52 C51 C40 6.6(3) . . . . ?
C53 C52 C51 C50 -169.18(18) . . . . ?
C52 C51 C50 C49 173.27(19) . . . . ?
C41 C40 C51 C52 169.86(17) . . . . ?
C41 C40 C51 C50 -14.5(3) . . . . ?
C41 C42 C45 C44 -179.19(18) . . . . ?
C41 C42 C45 C46 -4.2(3) . . . . ?
C20 C19 C24 C23 0.9(3) . . . . ?
C20 C19 C24 C27 -179.0(2) . . . . ?
C20 C19 B1 N1 -115.3(2) . . . . ?
C20 C19 B1 C18 66.5(3) . . . . ?
C20 C21 C22 C23 0.0(3) . . . . ?
C20 C21 C22 C26 178.1(2) . . . . ?
C37 C18 C17 C16 179.17(18) . . . . ?
C37 C18 B1 N1 179.88(17) . . . . ?
C37 C18 B1 C19 -1.8(3) . . . . ?
C19 C20 C21 C22 1.6(3) . . . . ?
C19 C24 C23 C22 0.7(4) . . . . ?
C75 C56 B3 N5 179.00(17) . . . . ?
C75 C56 B3 C57 -3.7(3) . . . . ?
C4 N2 B2 C28 -169.56(17) . . . . ?
C4 N2 B2 C5 6.5(3) . . . . ?
C4 C7 C8 C9 -5.6(3) . . . . ?
C4 C3 C10 C11 160.08(18) . . . . ?
C4 C3 C10 C9 -14.8(3) . . . . ?
C51 C40 C41 C42 -150.44(18) . . . . ?
C51 C40 C41 C48 22.5(2) . . . . ?
C51 C50 C49 C48 11.3(3) . . . . ?
C16 C15 C14 C13 5.4(3) . . . . ?
C65 C62 C57 C58 -178.80(17) . . . . ?
C65 C62 C57 B3 -8.6(3) . . . . ?
C65 C62 C61 C60 177.94(17) . . . . ?
C66 C71 C70 C69 -0.7(3) . . . . ?
C66 C67 C68 C69 0.5(4) . . . . ?
C7 C4 C3 C2 -174.09(18) . . . . ?
C7 C4 C3 C10 14.3(3) . . . . ?
C7 C8 C9 C10 5.2(3) . . . . ?
C45 C42 C41 C40 -172.05(17) . . . . ?
C45 C42 C41 C48 15.0(3) . . . . ?
C45 C44 C43 C76 175.6(2) . . . . ?
C45 C44 C43 B4 -0.4(3) . . . . ?
C30 C31 C32 C33 -0.5(3) . . . . ?
C3 C2 C1 N1 11.8(3) . . . . ?
C3 C2 C1 C16 -172.74(18) . . . . ?
C3 C2 C13 C14 170.59(18) . . . . ?
C3 C2 C13 C12 -13.5(3) . . . . ?
C3 C4 C7 C6 179.82(18) . . . . ?
C3 C4 C7 C8 -4.5(3) . . . . ?
C3 C10 C11 C12 -3.5(3) . . . . ?
C3 C10 C9 C8 5.3(3) . . . . ?
C36 C33 C32 C31 178.31(19) . . . . ?
C13 C2 C1 N1 -162.72(17) . . . . ?
C13 C2 C1 C16 12.8(3) . . . . ?
C13 C2 C3 C4 -151.24(18) . . . . ?
C13 C2 C3 C10 20.2(3) . . . . ?
C13 C12 C11 C10 10.7(3) . . . . ?
C34 C29 C30 C31 -177.32(18) . . . . ?
C50 C49 C48 C41 -2.6(3) . . . . ?
C50 C49 C48 C47 172.43(19) . . . . ?
C17 C16 C15 C14 169.32(19) . . . . ?
C17 C18 B1 N1 -2.6(3) . . . . ?
C17 C18 B1 C19 175.71(18) . . . . ?
C15 C16 C17 C18 -174.73(19) . . . . ?
C14 C13 C12 C11 174.2(2) . . . . ?
C63 C58 C59 C60 -177.46(19) . . . . ?
C48 C47 C46 C45 6.3(3) . . . . ?
C44 C45 C46 C47 168.3(2) . . . . ?
C44 C43 B4 N6 -2.6(3) . . . . ?
C44 C43 B4 C66 175.0(2) . . . . ?
C12 C13 C14 C15 -170.37(19) . . . . ?
C71 C66 C67 C68 0.1(3) . . . . ?
C71 C66 C67 C72 178.3(2) . . . . ?
C71 C66 B4 N6 72.8(3) . . . . ?
C71 C66 B4 C43 -104.5(2) . . . . ?
C71 C70 C69 C68 1.3(3) . . . . ?
C71 C70 C69 C73 -176.4(2) . . . . ?
C24 C19 B1 N1 67.0(3) . . . . ?
C24 C19 B1 C18 -111.2(2) . . . . ?
C46 C45 C44 C43 -170.4(2) . . . . ?
C46 C47 C48 C41 5.3(3) . . . . ?
C46 C47 C48 C49 -169.66(19) . . . . ?
C25 C20 C19 C24 178.11(18) . . . . ?
C25 C20 C19 B1 0.4(3) . . . . ?
C25 C20 C21 C22 -178.5(2) . . . . ?
C74 C71 C70 C69 177.8(2) . . . . ?
C64 C60 C59 C58 176.53(19) . . . . ?
C21 C20 C19 C24 -2.0(3) . . . . ?
C21 C20 C19 B1 -179.69(18) . . . . ?
C21 C22 C23 C24 -1.1(4) . . . . ?
C67 C66 C71 C74 -178.53(19) . . . . ?
C67 C66 C71 C70 0.0(3) . . . . ?
C67 C66 B4 N6 -115.9(2) . . . . ?
C67 C66 B4 C43 66.9(3) . . . . ?
C67 C68 C69 C70 -1.2(4) . . . . ?
C67 C68 C69 C73 176.5(2) . . . . ?
C11 C10 C9 C8 -169.5(2) . . . . ?
C9 C10 C11 C12 171.4(2) . . . . ?
C27 C24 C23 C22 -179.4(2) . . . . ?
B3 N5 C39 C40 178.86(17) . . . . ?
B3 N5 C39 C54 2.5(3) . . . . ?
B3 C57 C58 C59 -169.98(17) . . . . ?
B3 C57 C58 C63 8.8(3) . . . . ?
C72 C67 C68 C69 -177.7(2) . . . . ?
C76 C43 B4 N6 -178.5(2) . . . . ?
C76 C43 B4 C66 -0.9(3) . . . . ?
B2 N2 C4 C7 -0.4(3) . . . . ?
B2 N2 C4 C3 174.15(18) . . . . ?
B2 C28 C29 C30 175.98(17) . . . . ?
B2 C28 C29 C34 -4.2(3) . . . . ?
B2 C28 C33 C36 5.1(3) . . . . ?
B2 C28 C33 C32 -177.62(17) . . . . ?
B2 C5 C6 C7 2.0(3) . . . . ?
B1 N1 C1 C2 177.30(18) . . . . ?
B1 N1 C1 C16 1.7(3) . . . . ?
B1 C19 C24 C23 178.6(2) . . . . ?
B1 C19 C24 C27 -1.3(3) . . . . ?
B1 C18 C17 C16 1.4(3) . . . . ?
C35 C31 C32 C33 179.9(2) . . . . ?
B4 N6 C42 C41 175.82(18) . . . . ?
B4 N6 C42 C45 2.2(3) . . . . ?
B4 C66 C71 C74 -7.0(3) . . . . ?
B4 C66 C71 C70 171.49(19) . . . . ?
B4 C66 C67 C68 -171.6(2) . . . . ?
B4 C66 C67 C72 6.6(3) . . . . ?
C26 C22 C23 C24 -179.2(3) . . . . ?
loop_
_smtbx_masks_void_nr
_smtbx_masks_void_average_x
_smtbx_masks_void_average_y
_smtbx_masks_void_average_z
_smtbx_masks_void_volume
_smtbx_masks_void_count_electrons
_smtbx_masks_void_content
1 0.000 0.000 0.500 584.5 205.9 ?
2 0.423 0.878 0.853 11.2 0.0 ?
3 0.577 0.122 0.147 11.2 0.0 ?
