#------------------------------------------------------------------------------
#$Date: 2024-02-05 14:09:55 +0200 (Mon, 05 Feb 2024) $
#$Revision: 289697 $
#$URL: file:///home/coder/svn-repositories/cod/cif/1/57/04/1570448.cif $
#------------------------------------------------------------------------------
#
# This file is available in the Crystallography Open Database (COD),
# http://www.crystallography.net/
#
# All data on this site have been placed in the public domain by the
# contributors.
#
data_1570448
loop_
_publ_author_name
'Sacharczuk, Natalia'
'Olejniczak, Anna'
'Bujak, Maciej'
'Dziubek, Kamil Filip'
'Katrusiak, Andrzej'
'Podsiad&#x142;o, Marcin'
_publ_section_title
;
 Conformation-aggregation interplay in the simplest aliphatic ethers
 probed under high pressure.
;
_journal_issue                   'Pt 1'
_journal_name_full               IUCrJ
_journal_page_first              57
_journal_page_last               61
_journal_paper_doi               10.1107/S2052252523009995
_journal_volume                  11
_journal_year                    2024
_chemical_formula_moiety         'C6 H14 O'
_chemical_formula_sum            'C6 H14 O'
_chemical_formula_weight         102.17
_chemical_name_systematic        'dipropyl ether'
_space_group_crystal_system      monoclinic
_space_group_IT_number           14
_space_group_name_Hall           '-P 2ybc'
_space_group_name_H-M_alt        'P 1 21/c 1'
_atom_sites_solution_hydrogens   geom
_atom_sites_solution_primary     dual
_audit_creation_method
; Olex2 1.5
(compiled 2022.04.07 svn.rca3783a0 for OlexSys, GUI svn.r6498)
;
_cell_angle_alpha                90
_cell_angle_beta                 101.23(5)
_cell_angle_gamma                90
_cell_formula_units_Z            4
_cell_length_a                   9.416(4)
_cell_length_b                   4.1817(3)
_cell_length_c                   15.579(7)
_cell_measurement_reflns_used    1225
_cell_measurement_temperature    295(2)
_cell_measurement_theta_max      24.3000
_cell_measurement_theta_min      5.0220
_cell_volume                     601.7(4)
_computing_cell_refinement       'CrysAlisPro 1.171.42.49 (Rigaku OD, 2022)'
_computing_data_collection       'CrysAlisPro 1.171.42.49 (Rigaku OD, 2022)'
_computing_data_reduction        'CrysAlisPro 1.171.42.49 (Rigaku OD, 2022)'
_computing_molecular_graphics    'Olex2 1.5 (Dolomanov et al., 2009)'
_computing_publication_material  'Olex2 1.5 (Dolomanov et al., 2009)'
_computing_structure_refinement  'SHELXL 2018/3 (Sheldrick, 2015)'
_computing_structure_solution    'SHELXT 2018/2 (Sheldrick, 2018)'
_diffrn_ambient_environment      'diamond-anvil cell'
_diffrn_ambient_pressure         1700000
_diffrn_ambient_temperature      295(2)
_diffrn_measured_fraction_theta_full 0.325
_diffrn_measured_fraction_theta_max 0.312
_diffrn_measurement_device_type  'KUMA KM4-CCD, Eos'
_diffrn_measurement_method       '\f- and \w-scans'
_diffrn_radiation_type           MoK\a
_diffrn_radiation_wavelength     0.71073
_diffrn_reflns_av_R_equivalents  0.0254
_diffrn_reflns_av_unetI/netI     0.0163
_diffrn_reflns_Laue_measured_fraction_full 0.325
_diffrn_reflns_Laue_measured_fraction_max 0.312
_diffrn_reflns_limit_h_max       8
_diffrn_reflns_limit_h_min       -8
_diffrn_reflns_limit_k_max       5
_diffrn_reflns_limit_k_min       -5
_diffrn_reflns_limit_l_max       14
_diffrn_reflns_limit_l_min       -14
_diffrn_reflns_number            3001
_diffrn_reflns_point_group_measured_fraction_full 0.325
_diffrn_reflns_point_group_measured_fraction_max 0.312
_diffrn_reflns_theta_full        25.242
_diffrn_reflns_theta_max         26.430
_diffrn_reflns_theta_min         5.055
_exptl_absorpt_coefficient_mu    0.073
_exptl_absorpt_correction_T_max  1.00000
_exptl_absorpt_correction_T_min  0.50725
_exptl_absorpt_correction_type   multi-scan
_exptl_absorpt_process_details
;
CrysAlisPro 1.171.42.49 (Rigaku Oxford Diffraction, 2022)
Empirical absorption correction using spherical harmonics,
implemented in SCALE3 ABSPACK scaling algorithm.
;
_exptl_crystal_colour            colourless
_exptl_crystal_density_diffrn    1.128
_exptl_crystal_description       disc
_exptl_crystal_F_000             232
_exptl_crystal_size_max          0.39
_exptl_crystal_size_mid          0.37
_exptl_crystal_size_min          0.25
_refine_diff_density_max         0.096
_refine_diff_density_min         -0.090
_refine_diff_density_rms         0.028
_refine_ls_extinction_method     none
_refine_ls_goodness_of_fit_ref   1.077
_refine_ls_hydrogen_treatment    constr
_refine_ls_matrix_type           full
_refine_ls_number_parameters     66
_refine_ls_number_reflns         386
_refine_ls_number_restraints     0
_refine_ls_restrained_S_all      1.077
_refine_ls_R_factor_all          0.0661
_refine_ls_R_factor_gt           0.0455
_refine_ls_shift/su_max          0.000
_refine_ls_shift/su_mean         0.000
_refine_ls_structure_factor_coef Fsqd
_refine_ls_weighting_details
'w=1/[\s^2^(Fo^2^)+(0.1115P)^2^+0.0052P] where P=(Fo^2^+2Fc^2^)/3'
_refine_ls_weighting_scheme      calc
_refine_ls_wR_factor_gt          0.1296
_refine_ls_wR_factor_ref         0.1513
_reflns_Friedel_coverage         0.000
_reflns_number_gt                286
_reflns_number_total             386
_reflns_threshold_expression     'I > 2\s(I)'
_cod_data_source_file            lq5055.cif
_cod_data_source_block           dipropyl_ether_phase_alpha_1_70GPa
_cod_depositor_comments
'Adding full bibliography for 1570433--1570452.cif.'
_cod_database_code               1570448
_shelx_shelxl_version_number     2018/3
_shelx_space_group_comment
;
The symmetry employed for this shelxl refinement is uniquely defined
by the following loop, which should always be used as a source of
symmetry information in preference to the above space-group names.
They are only intended as comments.
;
_exptl_absorpt_special_details
;
Data were collected at room temperature (295(2) K) and pressure of 1.70(2) GPa
(1700000 kPa).
;
_olex2_refinement_description
;
1. Fixed Uiso
 At 1.2 times of:
  All C(H,H) groups
 At 1.5 times of:
  All C(H,H,H) groups
2.a Secondary CH2 refined with riding coordinates:
 C1(H11,H12), C2(H22,H21), C4(H41,H42), C5(H52,H51)
2.b Idealised Me refined as rotating group:
 C3(H33,H31,H32), C6(H63,H61,H62)
;
_shelx_res_file
;
TITL 1edp_a.res in P2(1)/c
    1edp.res
    created by SHELXL-2018/3 at 13:59:06 on 21-Dec-2022
REM Old TITL 1edp in P2(1)/c
REM SHELXT solution in P2(1)/c: R1 0.214, Rweak 0.576, Alpha 0.123
REM <I/s> 1.033 for 37 systematic absences, Orientation as input
REM Formula found by SHELXT: C6 O
CELL 0.71073 9.416 4.1817 15.5786 90 101.231 90
ZERR 4 0.004 0.0003 0.0065 0 0.05 0
LATT 1
SYMM -X,0.5+Y,0.5-Z
SFAC C H O
UNIT 24 56 4

L.S. 50
PLAN  10
CONF
BOND
list 4
MORE -1
BOND $H
fmap 2 53
acta
REM <olex2.extras>
REM <HklSrc "%.\\1edp.hkl">
REM </olex2.extras>

WGHT    0.111500    0.005200
FVAR       1.81344
O1    3    0.458362    0.846718    0.131700    11.00000    0.04895    0.04445 =
         0.07110   -0.00600   -0.02461    0.00309
C1    1    0.375165    0.714492    0.053306    11.00000    0.05507    0.03863 =
         0.06495    0.00072   -0.02624   -0.00085
AFIX  23
H11   2    0.381195    0.482954    0.055219    11.00000   -1.20000
H12   2    0.412714    0.788437    0.003069    11.00000   -1.20000
AFIX   0
C2    1    0.219220    0.819187    0.045276    11.00000    0.04540    0.04414 =
         0.06628   -0.00122   -0.01381    0.00213
AFIX  23
H22   2    0.215342    1.049577    0.051684    11.00000   -1.20000
H21   2    0.178636    0.722202    0.091687    11.00000   -1.20000
AFIX   0
C3    1    0.129577    0.721144   -0.043544    11.00000    0.05958    0.05568 =
         0.07604    0.00247   -0.03168   -0.00005
AFIX 137
H33   2    0.033105    0.804050   -0.049320    11.00000   -1.50000
H31   2    0.125959    0.492113   -0.047613    11.00000   -1.50000
H32   2    0.173411    0.805742   -0.089436    11.00000   -1.50000
AFIX   0
C4    1    0.601017    0.722351    0.149039    11.00000    0.04102    0.04164 =
         0.06709    0.00463   -0.01932    0.00098
AFIX  23
H41   2    0.651228    0.788187    0.103195    11.00000   -1.20000
H42   2    0.597459    0.490543    0.149471    11.00000   -1.20000
AFIX   0
C5    1    0.682074    0.841040    0.236087    11.00000    0.04923    0.04494 =
         0.06460    0.00246   -0.01835    0.00036
AFIX  23
H52   2    0.636877    0.757803    0.282339    11.00000   -1.20000
H51   2    0.676959    1.072595    0.237591    11.00000   -1.20000
AFIX   0
C6    1    0.839393    0.737659    0.252006    11.00000    0.05063    0.06046 =
         0.06620    0.00947   -0.02495   -0.00659
AFIX 137
H63   2    0.890335    0.830768    0.305550    11.00000   -1.50000
H61   2    0.882544    0.807961    0.204295    11.00000   -1.50000
H62   2    0.844893    0.508801    0.256252    11.00000   -1.50000
AFIX   0
HKLF 4




REM  1edp_a.res in P2(1)/c
REM wR2 = 0.1513, GooF = S = 1.077, Restrained GooF = 1.077 for all data
REM R1 = 0.0455 for 286 Fo > 4sig(Fo) and 0.0661 for all 386 data
REM 66 parameters refined using 0 restraints

END

WGHT      0.1115      0.0052

REM Highest difference peak  0.096,  deepest hole -0.090,  1-sigma level  0.028
Q1    1   0.9281  0.7807  0.3033  11.00000  0.05    0.10
Q2    1   0.2839  0.8557  0.0034  11.00000  0.05    0.09
Q3    1   0.2238  0.8210 -0.1200  11.00000  0.05    0.09
Q4    1   0.2093  1.1438  0.0627  11.00000  0.05    0.09
Q5    1   0.5235  1.1006  0.1431  11.00000  0.05    0.09
Q6    1   0.4801  1.1111  0.1563  11.00000  0.05    0.09
Q7    1   0.1049  0.8796 -0.0979  11.00000  0.05    0.08
Q8    1   0.6459  1.1575  0.2609  11.00000  0.05    0.08
Q9    1   0.0523  0.8488 -0.0858  11.00000  0.05    0.08
Q10   1   0.4936  0.8662  0.1001  11.00000  0.05    0.08
;
_shelx_res_checksum              68352
_shelx_hkl_file
;
   0  -1   0    5.04    1.15
   0  -1   0    4.95    0.95
   0  -1   1  188.09    4.89
   0  -1  -1  195.08    4.88
   0  -1  -1  192.65    4.89
   0  -1   1  190.55    5.04
   0   1   1  192.89    5.03
   0   1   1  184.03    4.77
   0  -1  -1  192.29    4.97
   0  -1  -2 6897.22   31.39
   0   1   2 6876.68   31.62
   0  -1  -2 6883.28   31.56
   0   1   2 6892.18   33.18
   0  -1  -2 6888.52   33.28
   0   1   2 6857.36   33.20
   0   1  -3  184.62    5.49
   0  -1   3  193.79    6.16
   0  -1   3  199.31    6.03
   0  -1   3  190.83    5.39
   0   1  -3  182.81    5.81
   0   1  -3  192.88    5.79
   0  -1   3  197.20    6.17
   0   1  -4    0.65    1.10
   0  -1   4    1.18    1.31
   0  -1   4    0.27    0.96
   0  -2   0 9582.76   35.65
   0  -2   0 9422.98   47.15
   0  -2   0 9750.24   43.06
   0  -2   0 9963.34   46.70
   0  -2   0 9999.00   49.28
   0  -2   1  992.23   15.81
   0   2   1 1010.21   16.28
   0   2   1  967.61   15.07
   0  -2   1 1031.26   16.41
   0  -2  -1  978.15   15.80
   0   2   1  989.21   16.22
   0   2  -1  959.05   15.36
   0  -2  -1  987.44   15.81
   0   2  -1  998.37   15.08
   0  -2  -1  997.20   14.08
   0  -2  -1 1023.13   15.72
   0  -2   1 1043.88   14.78
   0  -2   1 1016.00   14.72
   0  -2  -1  984.60   13.04
   0  -2   2   39.32    3.66
   0  -2  -2   46.07    3.68
   0  -2  -2   43.30    3.72
   0   2  -2   37.04    3.53
   0  -2   2   36.69    3.50
   0  -2  -2   41.61    3.66
   0   2  -2   44.13    3.83
   0   2   2   36.65    3.44
   0  -2   2   41.33    3.52
   0   2   2   34.89    3.52
   0  -2  -2   32.12    3.08
   0  -2   2   42.10    2.64
   0   2  -2   41.29    2.75
   0   2   2   38.16    3.80
   0  -2   2   49.68    3.43
   0  -2  -3   33.39    3.54
   0   2  -3   39.41    3.02
   0  -2   3   35.98    3.10
   0   2   3   39.66    4.12
   0  -2   3   34.57    3.61
   0  -2   3   38.87    2.77
   0  -2   3   33.00    3.41
   0   2  -3   39.73    3.68
   0  -2  -3   40.15    3.97
   0  -2   3   36.83    3.72
   0   2  -3   40.31    3.65
   0  -2  -3   35.50    3.44
   0  -2   4  122.65    6.50
   0  -2  -4  138.73    7.03
   0  -2  -4  136.34    6.71
   0  -2  -4  119.78    5.84
   0   2   4  127.84    7.08
   0   2  -4  141.20    6.75
   0  -2   4  140.75    5.63
   0   2  -4  139.29    6.75
   0  -2   4  133.11    6.43
   0  -2   4  122.05    5.40
   0  -2   4  128.47    6.62
   0  -2   5    4.26    1.90
   0   2  -5    3.60    2.24
   0  -2   5    4.58    2.46
   0   2  -5    5.41    2.44
   0  -2   5    2.11    1.97
   0  -2   5    3.57    1.80
   0  -2   6   89.94    5.78
   0  -2   6  101.53    6.97
   0  -2   6  104.83    7.18
   0   2  -6   92.88    6.08
   0  -2   7   25.88    3.98
   0  -2   7   33.57    5.40
   0   3   0    2.49    3.25
   0  -3   0   -2.51    2.48
   0  -3   0    2.06    2.25
   0   3   0    1.74    2.81
   0  -3   0    1.66    2.52
   0   3   0    4.46    2.62
   0  -3   0   -1.93    2.88
   0   3  -1   96.48    6.68
   0  -3  -1  106.57    6.20
   0  -3  -1  115.10    6.84
   0  -3   1  106.96    6.54
   0  -3  -1   99.69    6.77
   0   3  -1  112.94    7.45
   0   3   1  103.33    7.22
   0   3  -1  102.23    6.47
   0   3  -1  103.60    7.46
   0   3   1  106.76    7.25
   0  -3   1  105.71    6.88
   0  -3  -1  105.76    6.90
   0  -3   1  106.42    6.12
   0  -3   1  107.57    6.90
   0   3  -2   68.69    5.81
   0   3  -2   76.05    5.90
   0   3   2   66.01    5.96
   0  -3   2   68.66    5.83
   0   3  -2   67.04    6.36
   0  -3   2   67.17    5.18
   0   3  -2   66.76    6.07
   0  -3  -2   63.95    5.68
   0  -3   2   70.11    5.65
   0  -3  -2   71.97    5.88
   0  -3  -2   72.21    6.22
   0  -3   2   69.80    5.10
   0   3   2   75.82    6.45
   0  -3   3   65.10    5.80
   0  -3   3   70.05    5.95
   0  -3  -3   65.07    5.79
   0  -3  -3   76.96    6.48
   0  -3  -3   70.59    5.77
   0  -3   3   67.47    5.48
   0   3  -3   69.97    5.93
   0   3  -3   82.22    6.72
   0   3   3   72.48    6.54
   0   3  -3   68.17    5.72
   0  -3   3   72.75    5.36
   0  -3  -3   74.19    5.23
   0   3   3   66.97    6.32
   0   3   4   -2.23    3.49
   0  -3   4   -2.01    2.65
   0  -3  -4    1.95    2.94
   0   3  -4   -2.23    3.43
   0  -3   4    0.61    2.58
   0  -3  -4   -2.83    3.25
   0  -3  -4    4.36    3.45
   0  -3   4   -1.16    2.95
   0   3  -4   -0.40    2.91
   0   3  -5    6.23    3.25
   0   3  -5    3.83    3.32
   0  -3   5    6.26    3.36
   0  -3   5    2.75    2.80
   0  -3   5    7.72    3.45
   0   3  -6    2.20    3.00
   0  -3   6   -0.45    3.52
   0  -3   6   -5.05    3.19
   0  -3   6    3.99    3.40
   0   3  -6    0.57    3.43
   0  -3   7   13.07    4.70
   0   3  -7   18.07    4.56
   0  -3   7    8.98    4.27
   0  -4   0   59.57    6.89
   0  -4   0   60.54    6.95
   0  -4   0   61.82    7.13
   0   4   0   55.72    7.53
   0   4   0   57.07    7.34
   0   4   0   56.98    7.28
   0   4  -1   30.05    5.96
   0  -4   1   26.46    4.90
   0   4   1   28.88    5.68
   0  -4  -1   25.82    5.63
   0  -4   1   33.17    6.02
   0  -4  -1   18.75    4.88
   0  -4   1   20.64    5.03
   0   4   1   28.91    5.65
   0   4  -1   23.09    5.57
   0   4  -1   25.91    6.41
   0  -4  -1   25.14    5.34
   0  -4  -2   21.14    5.21
   0   4   2   17.45    5.33
   0  -4  -2    8.03    4.49
   0  -4   2   15.04    4.99
   0   4   2   12.88    5.24
   0   4  -2   18.68    5.57
   0  -4  -2   10.45    4.14
   0  -4   2   15.11    4.94
   0   4  -2   12.62    5.13
   0  -4   3    8.18    4.31
   0   4  -3   -1.81    4.69
   0   4  -3    1.53    4.31
   0  -4  -3   -3.04    4.54
   0  -4   3   -2.73    3.97
   0  -4   3    4.44    4.19
   0   4  -3    1.01    4.65
   0  -4  -3   -5.67    4.36
   0   4  -4   19.52    5.65
   0   4  -4   13.69    5.53
   0  -4   4   19.82    4.54
   0  -4   4   18.20    5.20
   0  -4   4    9.21    5.28
   0   4  -4   26.10    5.65
   0  -4   5   23.94    5.64
   0   4  -5   27.24    5.82
   0   4  -5   31.53    5.76
   0  -4   5   19.59    5.09
   0  -4   5   18.63    5.00
   0   4  -5   21.34    5.98
   0   4  -6   -5.01    4.30
   0   4  -6    1.69    4.43
   0  -4   6   -0.92    4.11
   0   4  -6    0.21    5.00
   0  -4   6   -2.59    4.78
   0  -4   6    8.95    4.45
   0  -4   7    5.77    4.82
   0  -4   7   -6.57    4.87
   0  -4   7   -4.56    4.46
   0  -5   0   -9.84    5.66
   0   5   0    7.21    5.93
   0   5   0    5.60    6.43
   0  -5   0    5.64    4.62
   0   5  -1   18.65    7.00
   0  -5   1   15.77    6.17
   0  -5  -1   18.19    6.32
   0  -5  -1   16.47    5.72
   0  -5  -1   12.37    5.66
   0  -5   1    7.27    4.79
   0   5   1   11.61    6.64
   0  -5   2   12.74    6.07
   0  -5  -2    6.36    5.74
   0   5   2   12.33    7.99
  -1   0  -3    2.23    0.79
  -1   0  -3    2.21    0.82
   1   0   3    2.72    0.91
   1   0   3    3.40    1.06
  -1   0  -3    3.33    1.06
  -1   0  -4  869.37   11.86
  -1   0  -4  882.58   12.40
  -1   0  -4  883.49   11.18
   1   0   4  914.86   12.71
   1   0   4  876.70   11.78
  -1   0  -4  876.19   12.18
   1   0   4  867.11   12.08
   1   0   4  881.65   12.27
  -1   0  -5    0.18    1.07
   1   0   5   -0.01    1.12
   1   0   5   -1.13    1.12
   1   0   5    0.93    1.07
  -1   0  -5   -0.57    1.14
  -1   0  -5    0.25    1.04
  -1   0  -5    1.80    1.34
   1   0   6 1384.76   19.57
  -1   0  -6 1400.88   21.71
   1   0   6 1444.99   19.46
  -1   0  -6 1441.03   20.01
  -1   0  -6 1387.71   20.15
  -1  -1   1  144.63    4.78
  -1  -1   1  137.75    4.66
  -1  -1   1  135.92    4.39
   1   1  -1  128.66    4.49
   1  -1   0  132.36    4.46
   1  -1   0  133.76    4.39
   1  -1   0  133.07    4.24
  -1   1   0  129.78    4.25
  -1  -1   0  137.11    4.30
  -1  -1   0  136.19    4.15
   1   1   0  125.56    4.11
  -1  -1   0  128.96    4.07
   1   1   1   24.77    1.89
   1  -1   1   21.29    1.74
  -1   1  -1   23.68    1.90
  -1  -1  -1   22.28    1.76
   1  -1   1   23.50    1.87
   1  -1   1   24.32    1.83
  -1  -1  -1   22.02    1.86
  -1   1  -2  943.47   10.91
   1  -1   2  925.74   11.91
   1   1   2  915.77   11.85
   1   1   2  931.60   11.87
   1  -1   2  942.04   11.38
  -1  -1  -2  915.12   11.71
   1  -1   2  933.39   10.73
  -1  -1  -2  933.52   11.91
   1  -1   2  934.65   10.86
  -1   1  -3  109.45    4.29
  -1  -1  -3  103.15    4.12
  -1   1  -3  112.38    4.64
   1   1   3  108.68    4.05
   1   1   3  100.41    4.51
   1  -1   3   99.43    4.35
   1   1   3  105.14    4.18
   1  -1   3  107.39    4.10
   1   1   3  105.13    4.40
   1  -1   3  105.48    3.99
  -1   1  -3  107.68    4.07
  -1  -1  -3  110.46    3.98
   1  -1   3  108.91    4.17
  -1  -1  -3  107.45    4.34
  -1  -1  -3   99.92    4.41
   1  -1   4  726.63   10.98
  -1  -1  -4  699.50   11.85
   1  -1   4  730.34   10.21
   1  -1   4  709.27   12.27
  -1  -1  -4  720.86   12.49
  -1   1  -4  709.29   11.04
  -1  -1  -4  685.72   11.94
   1   1   4  697.40   12.63
   1   1   4  699.32   12.14
   1  -1   4  722.46   11.00
   1  -1   4  711.84   11.89
  -1   1  -4  742.21   10.86
   1  -1   4  735.61   10.88
   1   1   4  695.98   12.13
  -1   1  -4  727.01    9.97
  -1   1  -4  693.57   12.33
  -1   1  -4  724.32   11.91
   1   1   4  698.66   11.73
  -1  -1  -4  712.26   11.51
   1  -1   5  126.57    5.14
   1   1   5  123.98    5.83
  -1  -1  -5  111.69    5.75
   1  -1   5  125.42    5.63
  -1  -1  -5  124.76    5.58
  -1   1  -5  128.33    4.88
   1  -1   5  129.36    6.02
   1   1   5  126.82    6.10
  -1   1  -5  132.73    5.52
   1  -1   5  133.57    5.16
  -1   1  -5  116.84    5.56
  -1   1  -5  136.09    5.76
  -1  -1  -5  126.42    5.76
  -1  -1  -5  132.73    6.06
  -1  -1  -6  282.93   10.71
   1   1   6  296.58   10.09
   1  -1   6  320.30    9.03
  -1  -1  -6  304.46   10.84
  -1   1  -6  304.40    8.46
  -1   1  -6  295.41    9.35
   1  -1   6  314.65    9.74
   1  -1   6  303.88    8.71
   1  -1   6  297.53    9.59
  -1   1  -6  310.88    9.47
  -1   1  -7  417.96   11.08
   1  -1   7  447.57   11.72
   1  -1   7  463.72   12.90
  -1   1  -7  482.91   13.02
   1  -1   7  440.06   12.30
   1  -1   7  383.05   11.30
   1  -1   8 2147.04   30.33
   1   2  -4 1088.10   19.35
  -1  -2   4 1140.70   21.08
  -1  -2   4 1077.60   19.71
  -1  -2   4 1093.45   20.58
  -1  -2   4 1122.06   16.89
  -1  -2   3    1.16    1.83
  -1  -2   3   -0.03    1.36
  -1  -2   3    0.10    1.56
   1   2  -3    1.31    1.92
  -1  -2   3   -0.28    1.62
  -1  -2   3    1.73    1.70
   1   2  -3   -0.87    1.94
   1   2  -2   -0.01    2.04
  -1  -2   2    2.38    1.68
   1   2  -2   -0.74    2.07
   1   2  -2   -1.42    1.41
  -1  -2   2    0.29    1.66
  -1  -2   2    1.19    1.44
  -1  -2   2   -0.71    1.72
   1  -2  -2   -0.29    2.26
   1  -2  -2   -0.08    1.82
   1  -2  -2   -0.27    1.61
   1  -2  -1  754.53   13.91
  -1   2   1  743.64   14.82
   1  -2  -1  730.16   11.73
   1  -2  -1  724.07   14.21
  -1  -2   1  743.28   12.23
   1  -2  -1  740.16   14.74
   1   2  -1  688.30   14.31
  -1  -2   1  733.20   14.15
  -1  -2   1  777.71   13.67
   1   2  -1  723.93   13.04
  -1  -2   1  709.31   11.38
   1  -2  -1  741.28   13.73
  -1   2   1  737.10   14.38
  -1  -2   1  738.95   14.03
   1   2  -1  738.68   11.44
  -1  -2   0  186.66    6.92
   1   2   0  188.35    6.27
   1  -2   0  185.89    7.22
   1   2   0  174.13    7.36
  -1   2   0  183.90    7.32
  -1   2   0  188.01    5.16
  -1  -2   0  177.68    6.85
   1  -2   0  210.51    6.92
   1  -2   0  181.43    7.14
   1   2   0  195.80    6.25
   1  -2   0  173.43    6.65
  -1   2   0  198.87    7.41
  -1  -2   0  189.61    7.15
  -1  -2   0  186.03    5.67
  -1  -2   0  179.67    5.85
   1  -2   1   85.34    5.03
   1   2   1   81.17    4.89
   1   2   1   81.42    4.78
  -1   2  -1   90.87    4.75
  -1   2  -1   86.02    5.09
   1  -2   1   86.87    4.98
   1  -2   1   90.82    4.32
   1   2   1   69.87    4.29
  -1  -2  -1   92.28    4.99
  -1  -2  -1   82.27    4.77
   1  -2   1   80.01    4.63
  -1   2  -1   87.86    3.78
  -1  -2  -1   84.97    4.81
  -1  -2  -1   81.68    4.27
  -1  -2  -1   89.37    3.86
   1  -2   1   87.85    3.97
   1   2   1   78.26    3.88
  -1  -2  -2    2.54    1.44
   1   2   2    3.93    1.17
  -1  -2  -2    4.93    1.87
   1   2   2    2.85    1.73
   1   2   2    2.04    1.71
  -1  -2  -2    4.42    1.80
   1   2   2    4.84    2.38
  -1  -2  -2    3.09    1.51
  -1   2  -2    0.99    1.81
  -1   2  -2    2.66    1.38
   1  -2   2    4.29    1.70
   1  -2   2    2.51    1.50
   1  -2   2    2.11    1.43
  -1   2  -2    2.30    1.44
   1  -2   2    2.04    1.34
   1  -2   2    4.21    1.76
  -1  -2  -2    2.38    1.21
   1   2   3   12.60    2.46
  -1   2  -3   15.44    2.12
   1  -2   3   15.07    2.10
   1  -2   3   14.06    2.41
  -1   2  -3   15.25    2.57
   1  -2   3   13.91    2.56
  -1  -2  -3   13.50    2.50
   1  -2   3   11.98    2.41
  -1   2  -3   16.81    2.29
  -1   2  -3   15.06    2.61
  -1  -2  -3   13.85    2.46
  -1  -2  -3   15.91    1.94
  -1  -2  -3   15.41    2.38
   1   2   3   13.60    2.60
   1   2   3   12.03    2.45
   1   2   3   13.57    1.85
  -1  -2  -3   12.51    2.19
   1  -2   3   13.69    2.15
  -1  -2  -4  102.83    5.70
  -1  -2  -4  103.54    5.32
   1  -2   4   99.89    4.59
  -1   2  -4   94.14    4.33
   1  -2   4  100.17    5.71
  -1  -2  -4  102.66    5.36
  -1   2  -4  104.60    5.19
   1   2   4   96.43    4.74
   1  -2   4   98.82    5.41
   1   2   4  103.15    6.16
   1  -2   4  102.25    5.14
  -1  -2  -4  105.41    5.99
  -1   2  -4  108.60    5.98
  -1   2  -4   99.29    5.73
   1  -2   4  100.65    5.68
   1   2   4   98.30    6.01
  -1  -2  -4  103.41    4.68
   1  -2   5  103.80    5.70
  -1   2  -5  112.63    6.12
   1  -2   5  106.07    5.52
   1   2   5  102.86    5.47
  -1  -2  -5  114.23    5.45
  -1  -2  -5  107.85    6.27
   1  -2   5  102.69    6.28
  -1   2  -5  105.96    6.22
   1   2   5  106.86    6.70
   1  -2   5   99.49    5.93
  -1  -2  -5  105.91    6.40
   1   2   5  105.11    6.80
  -1   2  -5  114.72    5.98
  -1  -2  -5  105.16    5.66
   1  -2   6  327.97   10.63
  -1   2  -6  343.36   10.90
   1   2   6  317.62   10.23
  -1   2  -6  331.29   10.46
  -1  -2  -6  314.12   10.22
  -1  -2  -6  314.14    9.52
   1  -2   6  318.16   10.45
  -1  -2  -6  324.61   11.19
  -1   2  -6  348.16   11.41
   1  -2   6  335.97   10.91
   1  -2   6  333.20   11.50
  -1  -2  -6  310.70   10.91
   1  -2   7  841.31   18.20
  -1   2  -7  912.65   19.15
  -1   2  -7  884.44   18.90
   1  -2   7  896.37   18.65
   1  -2   7  863.43   20.03
   1  -2   8    7.43    3.20
  -1   2  -8   12.90    3.74
   1  -2   8    5.60    2.78
   1  -2   8    6.96    3.40
   1  -2   9  115.18    8.33
   1  -2   9  122.22    8.63
   1  -2   9  122.06    9.11
  -1  -3   6   30.49    5.97
  -1  -3   6   31.63    5.86
  -1  -3   5    5.64    3.36
  -1  -3   5   -0.58    3.28
   1   3  -5    2.12    3.46
  -1  -3   5    2.86    3.11
  -1  -3   4   67.99    5.52
  -1  -3   4   64.72    5.66
  -1  -3   4   69.27    6.16
   1   3  -4   66.19    6.29
   1   3  -4   66.65    6.34
  -1  -3   4   61.80    6.10
  -1  -3   3  585.59   15.15
  -1  -3   3  554.36   16.16
   1   3  -3  580.34   15.66
  -1  -3   3  571.04   14.69
  -1  -3   3  564.97   16.01
   1   3  -3  594.97   16.71
   1  -3  -2  894.30   19.78
  -1  -3   2  994.44   20.69
   1   3  -2  960.73   19.33
   1   3  -2 1014.22   21.30
   1  -3  -2  938.89   20.30
   1   3  -2  986.09   20.21
  -1  -3   2  979.60   18.93
  -1  -3   2  965.77   17.81
  -1  -3   2  978.47   20.16
   1  -3  -2 1006.71   20.37
   1  -3  -1   75.90    6.04
   1  -3  -1   60.43    5.54
  -1   3   1   70.77    6.46
  -1  -3   1   74.94    5.99
  -1  -3   1   64.84    5.57
   1  -3  -1   71.98    6.04
  -1  -3   1   61.62    4.84
   1   3  -1   75.67    5.56
  -1   3   1   57.99    5.87
  -1  -3   1   65.22    5.72
   1   3  -1   69.60    6.26
   1   3  -1   71.42    6.02
   1   3   0    4.71    3.24
  -1  -3   0    7.02    2.85
  -1  -3   0    3.97    2.45
   1  -3   0    6.52    2.84
   1   3   0    8.09    3.38
   1  -3   0    4.42    2.78
  -1  -3   0    5.54    2.96
  -1   3   0    0.89    2.88
  -1   3   0    6.73    3.52
   1  -3   0    5.72    2.59
   1   3   0    7.10    3.57
   1  -3   0   10.30    3.45
  -1  -3  -1    5.93    2.81
  -1   3  -1    6.80    3.67
  -1   3  -1    8.82    3.19
   1  -3   1    4.09    2.55
  -1  -3  -1    6.35    2.67
  -1  -3  -1   10.24    3.20
   1   3   1    7.70    3.28
   1  -3   1    9.24    3.23
   1   3   1   12.44    3.45
   1  -3   1    9.37    2.97
   1  -3   1    5.69    2.80
  -1  -3  -2  140.88    6.68
  -1   3  -2  135.61    7.79
  -1  -3  -2  142.08    7.94
   1  -3   2  173.72    9.23
   1  -3   2  144.31    7.75
   1   3   2  145.96    7.56
  -1  -3  -2  145.95    7.82
  -1   3  -2  137.71    8.79
   1   3   2  149.54    8.55
  -1  -3  -2  143.18    7.79
   1   3   2  123.30    7.70
   1  -3   2  122.47    7.60
   1  -3   2  147.04    7.09
  -1   3  -2  132.55    7.41
  -1   3  -3   11.36    3.42
  -1  -3  -3   14.27    3.02
  -1  -3  -3   13.82    3.39
  -1  -3  -3   12.19    3.34
   1   3   3   14.64    3.71
  -1   3  -3   12.58    4.08
  -1  -3  -3   11.57    3.34
   1   3   3    8.78    3.42
   1   3   3    7.63    3.82
   1  -3   3   16.29    3.61
   1  -3   3    9.50    2.89
   1  -3   3   11.99    3.22
  -1   3  -3    7.79    3.20
   1  -3   4    1.90    2.92
   1  -3   4    3.80    3.04
  -1   3  -4    5.44    3.67
  -1   3  -4    1.37    3.06
  -1   3  -4    4.29    3.39
  -1  -3  -4   -0.27    4.85
   1  -3   4    3.42    2.85
  -1  -3  -5   61.46    5.89
  -1  -3  -5   63.37    6.38
   1  -3   5   45.75    5.25
  -1   3  -5   53.67    5.56
  -1  -3  -5   60.60    5.79
   1   3   5   61.61    6.78
   1  -3   5   48.25    5.30
   1  -3   5   53.93    5.82
  -1   3  -5   54.72    5.70
  -1  -3  -6   71.02    6.74
  -1   3  -6   74.67    6.54
  -1  -3  -6   62.57    6.18
   1  -3   6   61.16    6.28
   1  -3   6   58.03    6.04
   1  -3   6   60.89    6.50
  -1   3  -6   67.49    6.64
  -1  -3  -6   60.60    5.81
  -1   3  -7  250.81   11.97
   1  -3   7  259.99   12.94
  -1   3  -7  268.21   11.97
   1  -3   7  242.59   12.08
   1  -3   7  246.35   11.73
   1  -3   8  461.37   17.12
  -1   3  -8  486.77   17.08
   1  -3   8  464.47   18.35
  -1   3  -9  154.92   10.72
   1  -3   9  151.74   10.65
   1  -3   9  161.89   11.90
  -1  -4   6   -4.04    4.41
  -1  -4   6    0.91    4.72
  -1  -4   6   -3.93    4.32
  -1  -4   5   29.91    5.96
  -1  -4   5   32.27    6.03
   1   4  -5   33.66    6.66
  -1  -4   5   21.21    4.66
   1   4  -4   -4.34    4.21
  -1  -4   4   -1.23    3.80
  -1  -4   4    2.23    4.28
   1   4  -4    6.66    4.83
   1   4  -3   27.79    6.04
  -1  -4   3   43.19    5.88
   1   4  -3   44.34    6.38
  -1  -4   3   41.40    6.16
   1   4  -3   38.05    6.04
  -1  -4   3   31.86    5.65
   1  -4  -2   33.81    5.57
  -1  -4   2   31.55    6.11
   1   4  -2   39.06    8.38
   1  -4  -2   37.39    5.98
  -1  -4   2   29.81   10.52
   1   4  -2   29.68    6.67
  -1  -4   1   14.96    4.24
   1   4  -1   11.78    5.32
   1  -4  -1   14.41    4.82
  -1  -4   1   13.61    4.72
  -1  -4   1   13.88    4.41
   1   4  -1   11.48    4.96
   1   4  -1   11.01    4.96
   1  -4  -1   12.75    4.60
   1  -4  -1    8.09    4.22
  -1   4   1   33.04    7.56
  -1  -4   0   25.04    5.33
   1  -4   0   26.90    5.25
  -1  -4   0   26.16    5.56
   1  -4   0   22.45    5.28
   1   4   0   22.66    5.75
   1   4   0   22.04    5.70
   1   4   0   22.31    5.63
  -1  -4   0   17.25    4.92
  -1   4   0   29.06    6.24
   1  -4   0   19.57    4.74
  -1  -4  -1   -1.15    4.29
  -1  -4  -1   -0.28    3.79
   1   4   1    0.08    4.31
   1   4   1   -0.09    4.60
   1  -4   1    7.25    4.45
   1  -4   1    2.68    3.89
   1   4   1   -3.90    4.76
  -1   4  -1   -4.01    4.47
  -1  -4  -1    7.53    4.01
  -1   4  -1    5.29    4.03
  -1   4  -1    9.76    4.94
   1  -4   2   -1.48    3.30
  -1  -4  -2    0.54    3.99
  -1  -4  -2    2.16    4.00
   1  -4   2   -0.96    3.63
  -1   4  -2   -7.38    4.62
  -1  -4  -2    5.82    3.92
   1   4   2    0.75    4.48
  -1   4  -2   -2.88    4.42
   1   4   2   -0.73    4.50
  -1   4  -2   -6.46    4.46
   1   4   2   -2.35    3.97
   1  -4   2    1.13    4.13
   1   4   3    5.17    4.43
   1   4   3   12.45    4.72
  -1  -4  -3   13.89    5.00
  -1   4  -3   12.70    5.14
  -1   4  -3   10.78    5.35
   1   4   3   11.09    5.10
  -1  -4  -3   19.24    5.39
   1  -4   3    6.56    4.18
  -1  -4  -3   13.32    4.06
   1  -4   3    9.53    4.48
  -1   4  -3   24.64    5.26
   1  -4   3   10.54    3.87
   1  -4   4   -0.33    4.00
   1  -4   4   -1.31    3.98
  -1  -4  -4   -4.62    4.49
  -1   4  -4    7.33    4.91
   1   4   4    1.39    4.73
  -1  -4  -4    2.09    4.62
  -1   4  -4   -1.48    4.63
  -1   4  -4   -1.99    4.16
   1  -4   4    3.62    3.79
  -1  -4  -5   11.46    4.37
  -1  -4  -5    8.89    5.14
   1  -4   5   13.26    4.80
  -1   4  -5   11.16    4.93
   1  -4   5    7.56    4.05
   1  -4   5   13.87    4.44
  -1   4  -5   11.05    4.93
  -1   4  -5   19.06    5.19
  -1   4  -6   64.42    7.78
   1  -4   6   48.48    7.01
  -1   4  -6   53.86    7.55
   1  -4   6   51.25    7.26
  -1   4  -6   60.48    7.91
   1  -4   6   44.59    6.91
  -1   4  -7  195.39   12.30
   1  -4   7  166.74   12.37
  -1   4  -7  177.18   12.09
   1  -4   7  152.58   11.21
  -1   4  -7  172.23   11.80
   1  -4   7  164.04   11.98
   1  -4   8  157.05   12.68
  -1   4  -8  155.00   11.48
  -1   4  -8  160.94   12.02
   1  -4   8  132.95   11.82
   1  -4   9    2.00    6.17
  -1   4  -9    7.44    5.39
   1  -4   9   10.46    5.87
  -1  -5   2    1.45    5.04
   1   5  -1   15.70    6.03
  -1  -5   1   12.92    5.80
  -1  -5   1   15.93    6.14
   1   5   0    5.86    5.91
  -1  -5   0   -1.23    5.09
  -1  -5   0   -1.96    5.06
   1   5   0   -6.84    6.29
   1  -5   0   -2.07    5.20
   1   5   0   -3.34    6.94
   1  -5   0   -3.85    5.29
  -1  -5   0    0.43    4.82
  -1  -5  -1    1.80    5.63
  -1  -5  -1    5.51    5.45
  -1  -5  -1   -2.86    4.83
   1  -5   1    1.77    4.63
   1   5   1    3.02    5.82
   1   5   1   11.16    8.53
   1  -5   1    7.16    5.80
  -1  -5  -2   -2.58    5.10
  -1  -5  -2   11.56    5.56
   1   5   2    1.86    6.48
   1   5   2    5.81    6.56
  -1  -5  -2   -8.80    5.56
  -1  -5  -3    9.32    6.44
  -1  -5  -3   -6.98    6.27
   1   5   3    1.86    6.71
  -2   0  -1    1.19    0.65
   2   0   1    1.05    0.66
   2   0   1    1.28    0.67
  -2   0  -1    0.88    0.73
   2   0   2  434.65    7.49
   2   0   2  416.71    7.35
  -2   0  -2  419.27    7.34
  -2   0  -2  420.27    7.11
  -2   0  -2  422.88    7.38
   2   0   2  419.77    6.74
   2   0   2  420.98    7.16
   2   0   3   -0.66    0.80
  -2   0  -3   -0.29    0.87
   2   0   3    1.12    0.89
  -2   0  -3   -0.35    0.86
  -2   0  -3    1.10    0.79
   2   0   3   -0.36    0.84
   2   0   3    0.66    0.73
  -2   0  -3    0.37    0.87
   2   0   4  138.00    5.19
  -2   0  -4  134.30    5.03
   2   0   4  133.61    5.13
  -2   0  -4  132.04    4.50
   2   0   4  127.72    4.83
   2   0   4  131.12    4.03
  -2   0  -4  132.30    5.01
  -2   0  -4  131.64    4.91
   2   0   4  124.53    4.47
  -2   0  -4  129.73    4.17
   2   0   5   -1.52    1.45
   2   0   5    0.46    1.18
   2   0   5   -0.79    1.37
  -2   0  -5    0.61    1.19
  -2   0  -5    2.76    1.51
   2   0   5    1.01    1.27
  -2   0  -5    1.78    1.43
  -2   0  -5    0.95    1.30
   2   0   5    0.57    1.03
  -2   0  -5    1.11    1.01
  -2   0  -6 4324.20   34.26
  -2   0  -6 4375.23   33.24
   2   0   6 4445.45   34.65
  -2   0  -6 4385.47   31.14
   2   0   6 4361.77   35.07
  -2   0  -6 4377.69   34.05
   2   0   6 4418.14   34.05
   2   0   6 4366.45   28.52
   2   0   6 4400.04   32.31
   2   0   7    4.47    2.19
  -2   0  -7    0.33    1.66
  -2   0  -7    0.52    1.90
   2   0   7    0.69    1.72
   2   0   7    1.68    1.93
  -2   0  -7   -0.94    1.93
   2   0   7   -0.62    2.26
   2   0   7    1.83    1.71
  -2   0  -7    1.66    1.97
   2   0   8  755.87   16.63
   2   0   8  735.42   16.49
   2   0   8  772.06   17.45
  -2   0  -8  825.18   15.95
  -2   0  -8  767.46   16.88
  -2   0  -8  790.82   17.51
   2   0   8  771.16   14.75
  -2   0  -8  767.18   16.83
  -2   0  -9   -0.88    2.63
   2   0   9    0.96    2.33
   2   0   9    0.63    2.31
   2   0   9    0.88    2.15
  -2   0  -9    1.44    2.49
  -2  -1   0  173.01    5.77
  -2  -1   0  165.88    5.61
  -2  -1   0  172.24    5.36
   2   1   1  104.70    4.28
  -2  -1  -1  107.78    4.47
   2   1   1  110.48    3.71
  -2  -1  -1  106.11    4.34
   2  -1   1  101.21    4.28
   2   1   1  110.60    3.80
   2  -1   1  105.65    4.53
   2  -1   1  112.07    4.34
  -2  -1  -1  111.51    3.78
  -2  -1  -1  109.07    4.04
  -2  -1  -1  111.63    3.74
   2  -1   1  105.32    4.22
   2  -1   2 1102.36   12.21
  -2   1  -2 1099.52   11.58
   2  -1   2 1101.66   12.23
  -2   1  -2 1106.54   12.77
   2  -1   2 1076.20   13.33
   2   1   2 1090.30   12.68
   2  -1   2 1097.71   13.76
   2   1   2 1098.27   12.45
  -2   1  -2 1097.15   12.12
  -2   1  -2 1080.12   13.49
  -2  -1  -2 1097.63   14.00
  -2  -1  -2 1052.31   12.25
  -2  -1  -2 1118.85   12.73
  -2  -1  -2 1054.74   13.55
   2  -1   2 1089.64   11.47
   2  -1   2 1116.32   14.21
   2   1   2 1098.77   13.99
  -2  -1  -3   67.64    3.75
  -2  -1  -3   69.39    3.47
  -2  -1  -3   67.97    3.79
   2   1   3   68.72    3.55
   2   1   3   66.47    3.63
   2  -1   3   69.53    3.22
   2  -1   3   69.95    3.34
   2   1   3   66.07    3.70
   2  -1   3   70.95    3.43
  -2   1  -3   70.75    3.35
  -2  -1  -3   69.05    3.64
  -2   1  -3   72.64    3.36
  -2   1  -3   69.81    3.23
   2  -1   3   70.72    3.78
  -2   1  -3   68.28    3.73
   2  -1   3   70.83    3.92
   2  -1   3   69.06    3.16
   2   1   3   71.28    3.99
  -2   1  -4  929.65   11.63
   2   1   4  911.37   14.27
   2   1   4  909.52   11.01
   2   1   4  881.21   13.67
  -2  -1  -4  936.38   14.60
   2  -1   4  926.74   12.59
   2  -1   4  928.09   12.84
  -2  -1  -4  931.74   13.68
  -2  -1  -4  923.44   14.20
  -2  -1  -4  919.63   12.01
   2   1   4  907.86   13.44
   2  -1   4  912.12   11.48
   2  -1   4  931.69   14.22
   2  -1   4  891.53   11.83
  -2  -1  -4  907.10   13.49
  -2   1  -4  905.18   12.15
  -2   1  -4  921.96   12.81
  -2   1  -4  899.60   14.03
  -2   1  -4  900.34   12.61
  -2   1  -4  939.33   14.25
   2  -1   4  919.92   14.13
   2   1   4  916.02   14.68
   2   1   5 2751.21   26.42
  -2  -1  -5 2748.19   24.24
   2  -1   5 2765.05   22.19
   2  -1   5 2839.37   26.80
   2  -1   5 2845.52   24.01
   2   1   5 2770.25   27.49
   2  -1   5 2831.39   24.98
  -2  -1  -5 2791.98   25.76
  -2   1  -5 2818.02   23.78
   2  -1   5 2780.48   21.69
  -2  -1  -5 2764.50   24.68
   2   1   5 2832.37   27.38
  -2  -1  -5 2813.54   26.96
  -2   1  -5 2780.47   24.87
  -2   1  -5 2802.34   21.98
  -2   1  -5 2814.34   26.62
   2   1   5 2823.46   25.14
   2   1   5 2802.08   22.07
  -2   1  -5 2796.95   26.13
   2  -1   5 2810.38   26.30
  -2  -1  -5 2794.03   27.00
  -2   1  -6  638.76   13.53
  -2  -1  -6  651.35   12.43
   2   1   6  647.17   13.91
   2  -1   6  633.64   12.65
  -2  -1  -6  647.35   13.95
   2   1   6  664.84   14.71
   2  -1   6  648.14   13.21
  -2  -1  -6  644.34   13.52
  -2   1  -6  671.76   14.01
  -2   1  -6  661.64   12.46
   2  -1   6  646.28   10.95
   2   1   6  681.37   14.67
  -2   1  -6  672.37   13.37
   2   1   6  642.69   11.87
  -2  -1  -6  635.99   13.79
   2   1   6  658.91   13.40
   2  -1   6  666.77   14.14
   2  -1   6  671.95   13.81
  -2  -1  -7  135.59    6.40
   2   1   7  129.69    7.24
   2  -1   7  129.35    6.62
  -2  -1  -7  127.00    6.93
  -2  -1  -7  139.15    7.14
  -2   1  -7  135.52    7.01
  -2   1  -7  132.64    6.24
   2   1   7  123.06    6.96
   2  -1   7  131.63    7.06
  -2   1  -7  138.33    6.78
   2   1   7  126.18    5.97
  -2   1  -7  131.95    6.76
   2  -1   7  138.93    7.08
  -2  -1  -7  135.27    7.12
   2   1   7  127.74    7.16
   2  -1   7  136.04    6.57
  -2   1  -8    6.28    2.86
   2   1   8    1.63    2.69
  -2  -1  -8    2.10    2.82
  -2  -1  -8   10.90    3.17
   2  -1   8   -0.60    2.44
   2   1   8    3.06    2.73
   2  -1   8    2.86    2.46
  -2  -1  -8    3.25    2.71
  -2  -1  -8    3.90    2.50
  -2   1  -8    3.31    2.45
  -2   1  -8    4.54    2.48
   2   1   8    2.62    2.13
  -2   1  -8    3.69    2.16
   2  -1   8    3.90    2.63
   2  -1   9   15.60    3.72
   2  -1   9   12.29    3.51
   2  -1   9    9.12    3.45
  -2   1  -9   13.01    3.56
  -2   1  -9    9.24    2.94
   2  -1  10    2.85    3.03
  -2   1 -10    1.17    2.90
   2  -1  10    2.82    3.16
   2  -1  10    2.16    3.39
  -2  -2   3    2.29    1.90
  -2  -2   2    4.23    1.71
  -2  -2   2    7.59    2.37
  -2  -2   2    6.15    2.21
   2   2  -2    7.05    2.38
  -2  -2   2    5.96    1.92
  -2  -2   1   59.42    4.43
   2   2  -1   54.41    4.52
  -2  -2   1   63.74    4.19
  -2  -2   1   62.51    4.59
  -2  -2   1   64.35    4.63
  -2  -2   1   62.16    3.76
   2   2  -1   55.17    3.93
   2  -2   0   61.16    3.92
  -2  -2   0   56.25    4.34
  -2  -2   0   57.52    4.20
  -2   2   0   59.18    4.52
  -2  -2   0   59.03    3.96
  -2  -2   0   62.55    4.51
   2   2   0   64.97    4.59
   2  -2   0   61.85    4.56
   2  -2   0   59.61    4.62
  -2  -2   0   55.58    3.15
   2  -2   0   48.99    3.91
   2   2   0   58.93    4.01
   2  -2   1    0.29    1.55
  -2  -2  -1   -1.56    1.33
   2   2   1   -0.60    1.35
   2  -2   1   -0.88    1.58
  -2  -2  -1   -2.17    1.98
   2   2   1   -0.82    1.84
  -2  -2  -1    0.98    1.47
   2   2   1   -0.12    1.27
   2   2   1   -0.68    1.78
  -2  -2  -1    0.27    1.24
  -2  -2  -1   -0.64    1.68
  -2  -2  -1   -0.32    1.57
  -2   2  -1    2.01    1.86
   2  -2   1   -1.13    1.72
  -2   2  -1   -0.85    1.64
  -2  -2  -1    0.66    0.99
   2  -2   1   -0.55    1.78
  -2  -2  -2   13.52    2.35
   2   2   2   14.56    2.02
   2  -2   2   12.36    1.98
   2   2   2   16.83    3.01
   2   2   2   15.41    2.34
  -2  -2  -2   15.09    2.49
   2   2   2    8.73    2.29
   2  -2   2   12.98    2.29
  -2  -2  -2   14.96    2.38
  -2   2  -2   10.98    2.42
   2   2   2   14.45    2.65
   2  -2   2   10.85    2.26
  -2  -2  -2   14.08    2.13
   2  -2   2   12.14    2.46
   2   2   2   12.42    2.75
  -2  -2  -2   11.14    1.84
  -2   2  -2   14.35    2.36
   2  -2   2   14.54    2.54
  -2  -2  -3  509.75   12.54
   2  -2   3  509.07   11.52
  -2  -2  -3  510.27   10.90
   2  -2   3  506.61   12.38
   2   2   3  483.58   10.75
  -2  -2  -3  505.79   11.70
   2   2   3  470.98    9.49
   2  -2   3  499.94   12.15
   2   2   3  497.44   12.55
  -2  -2  -3  499.46    9.70
   2  -2   3  492.66   11.21
  -2   2  -3  515.15   11.31
  -2   2  -3  480.13   12.06
  -2  -2  -3  514.51   11.23
  -2  -2  -3  495.26   10.67
   2   2   3  466.69   11.09
   2   2   3  520.34   12.63
   2  -2   4   21.34    3.02
   2   2   4   21.12    3.39
   2  -2   4   25.32    3.10
   2   2   4   19.62    2.55
  -2  -2  -4   25.29    2.73
   2  -2   4   24.65    3.13
   2   2   4   22.28    3.06
  -2  -2  -4   27.58    3.00
  -2  -2  -4   24.68    3.50
  -2  -2  -4   24.91    2.97
  -2  -2  -4   24.66    3.18
  -2   2  -4   22.92    3.26
  -2   2  -4   21.08    3.15
   2   2   4   26.52    3.69
   2   2   4   23.84    2.91
  -2  -2  -4   21.90    2.93
  -2   2  -4   24.06    3.26
  -2   2  -4   26.45    3.57
   2  -2   4   26.98    3.46
  -2  -2  -5  355.52   11.14
   2   2   5  338.70   10.83
   2   2   5  365.83   10.21
  -2  -2  -5  369.86   11.28
  -2  -2  -5  371.43    9.82
   2  -2   5  327.71   10.27
   2  -2   5  357.24   10.87
   2   2   5  362.77   11.51
  -2   2  -5  374.51   10.85
  -2   2  -5  360.63   10.42
  -2   2  -5  364.75   10.86
   2  -2   5  369.59   10.41
   2  -2   5  363.06   11.44
  -2   2  -5  361.80   11.44
  -2  -2  -5  355.40    9.36
   2   2   5  366.40   11.98
  -2  -2  -5  347.23   10.80
   2  -2   6  890.32   16.81
  -2  -2  -6  887.95   18.21
  -2   2  -6  956.56   17.31
   2  -2   6  871.93   17.60
   2   2   6  888.87   17.40
  -2  -2  -6  884.74   18.39
  -2  -2  -6  848.32   16.09
   2  -2   6  877.62   16.93
  -2   2  -6  880.10   17.65
   2   2   6  879.93   18.75
  -2   2  -6  934.13   18.94
   2  -2   6  849.38   18.51
   2   2   6  884.56   19.58
  -2  -2  -7  742.45   17.54
   2   2   7  689.85   16.82
  -2   2  -7  699.73   15.79
  -2  -2  -7  728.66   18.05
  -2  -2  -7  713.83   16.07
   2  -2   7  702.22   15.71
  -2   2  -7  716.79   16.97
  -2   2  -7  739.47   17.57
   2  -2   7  704.26   16.03
   2   2   7  699.90   17.58
   2  -2   7  677.71   16.61
   2  -2   7  701.04   17.59
   2   2   7  691.12   18.75
  -2  -2  -8   56.78    6.00
   2  -2   8   44.68    5.21
   2   2   8   53.90    5.57
  -2  -2  -8   54.37    6.23
  -2   2  -8   47.14    5.32
   2   2   8   50.22    6.12
  -2   2  -8   52.34    5.51
   2  -2   8   43.56    5.33
  -2  -2  -8   51.59    5.47
   2  -2   9    1.91    3.11
  -2   2  -9    1.19    3.06
   2  -2   9    8.45    3.94
  -2   2  -9   -2.43    3.17
   2  -2  10    9.94    3.96
   2  -2  10   17.39    4.66
  -2  -3   4   64.05    6.66
  -2  -3   4   56.94    6.26
  -2  -3   4   58.85    5.93
  -2  -3   3  181.80    9.06
  -2  -3   3  203.52   10.28
   2   3  -3  207.63   10.64
  -2  -3   3  192.68   10.04
  -2  -3   3  196.86    8.80
  -2  -3   2   44.84    4.98
   2   3  -2   52.24    5.54
  -2  -3   2   60.27    6.24
   2  -3  -1    5.18    2.88
  -2  -3   1    1.18    2.55
   2  -3  -1    6.54    2.82
  -2  -3   1    2.99    2.82
   2   3  -1    2.58    3.28
  -2  -3   1    5.81    2.92
   2  -3   0   17.20    3.53
   2  -3   0   16.26    3.43
  -2  -3   0   21.41    3.94
   2  -3   0   16.05    3.47
   2  -3   0   11.94    3.50
  -2  -3   0   20.65    3.51
  -2  -3   0   18.75    3.40
  -2   3   0   16.65    4.13
   2   3   0   23.53    4.41
   2   3   0   21.36    4.28
  -2  -3  -1    5.02    2.78
   2  -3   1    6.20    2.85
  -2  -3  -1    3.30    2.25
  -2  -3  -1    3.61    2.98
   2  -3   1    3.02    2.73
   2   3   1    0.03    3.12
  -2   3  -1    3.11    3.30
  -2  -3  -1    3.21    2.68
   2   3   1    3.31    2.90
   2   3   1    5.31    3.17
   2   3   1    5.39    3.32
   2  -3   1    2.96    3.11
   2  -3   2    6.92    2.81
   2   3   2   10.07    3.36
  -2  -3  -2    8.92    3.29
  -2  -3  -2    8.63    2.91
  -2  -3  -2    6.37    2.75
   2  -3   2    6.07    2.98
   2   3   2    7.41    3.63
  -2   3  -2    7.40    3.70
   2   3   2    5.07    3.05
   2   3   2    5.16    3.48
   2  -3   2    2.37    3.02
  -2  -3  -2   11.54    3.33
  -2  -3  -3   52.47    5.58
   2   3   3   46.49    5.61
  -2  -3  -3   49.81    4.95
  -2  -3  -3   56.12    5.42
   2   3   3   61.58    6.12
  -2   3  -3   54.77    5.93
   2   3   3   47.85    5.25
  -2   3  -3   52.60    5.91
   2   3   3   55.27    5.57
   2  -3   3   51.03    5.57
  -2  -3  -3   69.68    5.99
   2  -3   3   52.78    5.41
   2  -3   3   47.67    5.25
  -2  -3  -4  270.33   11.47
  -2  -3  -4  258.88   10.43
  -2  -3  -4  263.86   10.66
   2  -3   4  250.19   11.04
   2  -3   4  266.05   10.79
  -2   3  -4  281.35   11.80
   2   3   4  268.57   11.88
  -2   3  -4  264.74   11.64
  -2   3  -4  246.11   11.16
  -2  -3  -4  272.33   10.63
   2   3   4  247.04   10.58
   2  -3   4  256.90   11.12
   2   3   4  247.92   11.31
  -2  -3  -5 1008.94   20.43
  -2  -3  -5 1046.16   21.68
  -2   3  -5 1090.88   23.54
   2  -3   5 1025.73   21.31
  -2  -3  -5  992.75   22.64
   2  -3   5  979.47   21.80
  -2   3  -5 1089.30   22.71
  -2   3  -5 1043.52   22.40
   2   3   5 1067.60   23.87
   2   3   5 1021.89   23.85
   2  -3   5  940.25   21.89
  -2  -3  -6  166.26    9.98
   2  -3   6  156.51    8.89
  -2  -3  -6  157.31    9.45
   2  -3   6  132.97    8.84
  -2   3  -6  160.74    9.34
  -2   3  -6  157.73    9.21
   2   3   6  152.45   10.03
  -2   3  -6  158.00    9.72
   2   3   6  143.45    9.82
   2  -3   6  137.15    9.14
  -2  -3  -7   47.23    6.26
  -2  -3  -7   40.45    5.60
   2  -3   7   43.67    5.81
   2  -3   7   40.27    5.17
  -2   3  -7   49.83    5.89
  -2   3  -7   42.23    5.68
   2   3   7   47.74    6.44
  -2   3  -7   38.92    5.22
  -2   3  -7   54.19    6.60
   2  -3   7   35.45    5.62
  -2   3  -9   -1.60    4.93
   2  -3   9    4.36    4.94
   2  -3   9    6.05    7.08
   2  -3  10   -8.50    4.82
  -2   3 -10    2.08    3.91
   2  -3  10   -0.04    4.07
   2   4  -4   12.77    5.38
  -2  -4   4   28.76    6.27
  -2  -4   4   12.69    4.81
  -2  -4   3   18.17    4.77
  -2  -4   3   18.07    5.33
  -2  -4   3   23.74    5.22
   2   4  -3   24.94    5.93
   2   4  -3   27.56    5.64
   2   4  -2    6.60    4.20
  -2  -4   2   11.53    4.80
  -2  -4   2   10.22    3.93
  -2  -4   2    3.89    3.82
   2   4  -2   -4.97    4.86
   2   4  -2    7.61    4.49
   2   4  -1   -4.27    4.55
  -2  -4   1    5.32    4.06
   2   4  -1    6.73    5.06
  -2  -4   1    5.01    3.67
   2   4  -1    7.13    4.75
  -2  -4   1    3.89    4.08
  -2  -4   0   11.78    4.52
   2  -4   0    4.98    4.40
  -2  -4   0    8.05    3.98
  -2  -4   0    5.19    3.93
   2   4   0    6.84    4.80
   2   4   0   10.54    5.01
   2   4   0    3.22    4.34
   2  -4   0    7.61    3.99
  -2  -4  -1    3.46    3.36
  -2  -4  -1    6.88    4.18
  -2  -4  -1   -3.64    4.02
   2  -4   1   -1.48    3.89
   2   4   1   -0.73    4.77
  -2   4  -1   -6.08    4.64
   2   4   1    4.32    4.23
   2   4   1   -4.77    4.98
  -2   4  -1   -0.28    4.18
   2  -4   1    6.98    4.15
  -2   4  -2    9.81    4.74
   2  -4   2   -3.83    3.92
  -2  -4  -2    4.89    4.21
   2  -4   2    5.61    4.57
  -2  -4  -2    7.44    4.57
  -2  -4  -2   12.30    4.41
   2   4   2   12.06    5.29
  -2   4  -2    9.95    4.52
   2   4   2   10.70    4.82
   2  -4   2   -0.05    4.04
   2   4   2   -3.28    4.94
   2  -4   3   32.15    5.87
  -2  -4  -3   34.79    6.39
   2  -4   3   39.05    6.18
   2  -4   3   31.72    6.10
  -2  -4  -3   27.20    5.11
   2   4   3   30.86    6.32
  -2   4  -3   27.37    6.23
  -2  -4  -3   29.51    5.81
  -2   4  -3   30.47    6.04
   2   4   3   41.24    7.08
   2   4   3   27.06    5.52
  -2   4  -3   25.29    5.34
   2  -4   4  166.50   11.37
  -2  -4  -4  186.37   11.87
  -2   4  -4  162.42   10.95
   2  -4   4  186.36   11.36
  -2   4  -4  180.82   11.95
  -2  -4  -4  165.65   10.90
   2   4   4  158.84   11.04
  -2   4  -4  156.78   11.34
   2   4   4  164.84   11.93
   2  -4   4  159.51   10.90
  -2  -4  -5   41.93    7.04
   2   4   5   40.46    7.20
   2  -4   5   36.09    6.51
  -2   4  -5   49.46    7.20
   2  -4   5   42.92    6.91
  -2   4  -5   36.88    6.76
  -2   4  -5   41.05    6.51
   2  -4   5   46.99    6.95
  -2  -4  -6  144.19   11.21
   2  -4   6  114.82   10.06
   2   4   6  129.93   11.27
  -2   4  -6  155.54   11.27
  -2   4  -6  147.36   11.12
  -2   4  -6  169.80   11.87
   2  -4   6  145.09   10.58
   2  -4   6  123.82   10.03
   2  -4   7  160.41   11.54
  -2   4  -7  160.35   11.43
  -2   4  -7  158.97   11.44
  -2   4  -7  172.43   11.98
   2  -4   7  149.96   11.76
  -2   4  -8   18.88    5.83
   2  -4   8   10.42    5.51
  -2   4  -8   16.52    6.06
  -2   4  -8    9.38    5.37
   2  -4   8   20.51    6.26
  -2   4  -9   -2.69    4.82
   2  -4   9   -6.75    6.40
   2  -4  10   -7.80    6.17
  -2  -5   2   21.53    6.49
  -2  -5   2   13.68    6.33
   2   5  -2   18.11    7.43
   2   5  -1   -2.65    5.91
  -2  -5   1    4.58    5.05
  -2  -5   1   -2.19    5.22
  -2  -5   1   13.88    6.05
   2   5  -1   -8.66    6.97
   2   5   0   -0.08    5.67
  -2  -5   0   -0.14    5.49
  -2  -5   0    6.23    5.37
  -2  -5   0    3.00    5.37
   2   5   0   -4.96    6.58
  -2  -5  -1   17.06    5.84
  -2  -5  -1    6.79    5.78
   2   5   1    7.23    6.46
   2   5   1   30.97    8.41
  -2  -5  -1   13.26    5.95
   2   5   1   10.95    6.31
   2   5   2   -4.12    6.83
  -2  -5  -2   13.17    6.40
  -2  -5  -2    5.44    5.09
   2   5   2   -6.89    6.51
  -2  -5  -3    2.65    5.99
   2  -5   4   33.56    7.25
  -2   5  -4   34.79    8.08
  -3   0  -2   45.26    3.00
   3   0   2   47.51    3.14
   3   0   2   46.97    3.12
  -3   0  -2   43.04    3.03
   3   0   2   44.08    3.03
  -3   0  -2   46.18    3.08
   3   0   3    2.24    1.01
  -3   0  -3    1.97    1.40
   3   0   3    1.32    1.18
   3   0   3    1.10    1.15
  -3   0  -3    2.42    1.25
   3   0   3    0.95    1.21
   3   0   3    2.72    1.31
  -3   0  -3    2.09    1.14
  -3   0  -3    1.01    1.26
  -3   0  -4  466.49    9.65
   3   0   4  465.26   10.37
   3   0   4  473.43   10.51
  -3   0  -4  477.17   10.56
  -3   0  -4  456.51   10.25
  -3   0  -4  454.81    9.88
   3   0   4  452.27    8.44
   3   0   4  455.74   10.10
   3   0   4  465.27    9.46
  -3   0  -5   -0.57    1.81
   3   0   5   -3.18    1.97
  -3   0  -5   -1.96    1.83
  -3   0  -5   -1.59    1.64
   3   0   5   -1.16    1.83
   3   0   5   -5.03    2.16
  -3   0  -5   -2.25    1.99
  -3   0  -5   -3.64    1.61
   3   0   5   -2.26    1.80
   3   0   5   -1.20    1.49
   3   0   6  341.96   10.31
  -3   0  -6  321.02    8.98
   3   0   6  334.70   10.27
  -3   0  -6  327.49   10.01
   3   0   6  344.27   10.02
  -3   0  -6  329.17   10.06
  -3   0  -6  328.76    9.72
  -3   0  -6  311.54    8.04
   3   0   6  326.37    8.02
   3   0   6  332.66    9.12
   3   0   7    0.62    1.86
  -3   0  -7   -0.34    2.13
  -3   0  -7   -0.31    1.99
   3   0   7   -0.65    2.30
   3   0   7   -0.88    2.05
   3   0   7    0.70    2.03
  -3   0  -7   -0.59    2.08
  -3   0  -7   -2.72    2.41
   3   0   7    1.54    1.70
   3   0   8   69.87    5.71
  -3   0  -8   74.89    5.20
   3   0   8   70.15    5.80
  -3   0  -8   73.11    5.71
   3   0   8   68.30    5.47
  -3   0  -8   70.74    5.57
  -3   0  -8   75.32    5.60
   3   0   8   71.91    5.45
  -3   0  -9    2.70    2.58
  -3   0  -9    0.28    2.48
  -3   0  -9    3.11    2.74
   3   0   9    2.52    2.93
   3   0   9   -3.46    2.72
   3   0   9    3.87    2.95
  -3   0  -9   -0.81    2.78
  -3   0 -10   14.96    4.15
   3   0  10   11.21    3.49
  -3   0 -10   12.01    3.48
   3   0  10    6.76    3.34
  -3   0 -10    6.37    3.40
  -3   0 -10    8.77    3.55
  -3   0 -11   -2.19    3.39
  -3   0 -11    0.54    3.47
   3   0  11    5.05    3.80
   3   0  11    5.02    3.92
   3   1   1  916.27   14.53
  -3  -1  -1  885.54   14.64
  -3  -1  -1  910.23   14.20
   3   1   1  870.53   13.12
   3   1   1  881.50   13.33
  -3  -1  -1  879.19   13.02
  -3  -1  -1  913.55   13.40
  -3  -1  -2  484.23   10.49
  -3   1  -2  510.19   10.96
  -3  -1  -2  493.83   10.68
   3   1   2  479.23    9.80
   3  -1   2  506.44    9.92
   3   1   2  477.41    9.89
   3  -1   2  505.23   10.87
  -3  -1  -2  494.70    7.94
   3  -1   2  496.28    9.30
  -3  -1  -2  467.47    9.66
  -3  -1  -2  488.80    9.81
  -3   1  -2  487.56    9.97
   3  -1   2  493.36   10.96
   3   1   2  486.99   10.53
  -3  -1  -3   60.92    4.07
  -3  -1  -3   62.78    4.34
   3   1   3   59.55    3.92
   3   1   3   56.90    3.93
  -3   1  -3   57.49    4.17
   3  -1   3   57.02    3.67
   3  -1   3   60.25    3.25
   3  -1   3   59.29    3.82
   3  -1   3   62.90    4.19
   3   1   3   65.02    3.51
  -3  -1  -3   61.57    3.98
  -3   1  -3   58.04    3.76
  -3  -1  -3   58.34    3.87
  -3  -1  -3   62.36    3.27
  -3   1  -3   59.76    3.70
   3  -1   3   56.71    4.06
   3   1   3   58.80    4.12
   3  -1   3   58.14    2.75
  -3  -1  -4  161.14    6.17
  -3  -1  -4  169.65    6.89
   3   1   4  158.25    6.39
   3   1   4  160.25    6.59
   3  -1   4  158.25    6.03
   3  -1   4  163.79    4.93
  -3  -1  -4  158.16    6.40
   3   1   4  166.58    5.55
   3  -1   4  155.23    5.68
  -3   1  -4  162.63    6.23
  -3  -1  -4  157.77    5.46
  -3  -1  -4  157.64    6.42
  -3   1  -4  161.06    6.64
   3   1   4  160.86    6.00
  -3   1  -4  158.54    5.93
   3  -1   4  169.62    6.92
   3  -1   4  161.62    6.55
   3  -1   4  153.22    4.46
   3   1   4  160.94    6.78
   3  -1   4  169.90    6.34
  -3   1  -4  155.22    5.32
  -3  -1  -5  898.36   15.70
  -3  -1  -5  898.84   14.80
  -3   1  -5  847.08   14.58
  -3  -1  -5  883.62   16.20
   3   1   5  840.85   15.50
   3   1   5  886.97   16.37
   3  -1   5  876.75   14.95
   3   1   5  866.86   16.09
   3  -1   5  901.57   15.10
   3   1   5  890.58   13.54
   3  -1   5  901.29   16.26
  -3   1  -5  889.13   15.50
  -3   1  -5  903.30   15.16
  -3   1  -5  858.22   15.72
   3  -1   5  880.44   12.97
  -3  -1  -5  866.69   13.71
  -3  -1  -5  900.29   16.22
   3   1   5  869.38   14.21
   3  -1   5  901.58   15.82
  -3  -1  -6  252.63    8.22
   3   1   6  239.75    8.99
  -3  -1  -6  250.75    9.34
   3   1   6  266.45    9.76
   3  -1   6  246.37    8.71
   3  -1   6  253.88    8.59
  -3  -1  -6  245.31    8.96
  -3   1  -6  267.19    8.88
   3   1   6  255.63    8.02
   3  -1   6  266.27    9.51
  -3   1  -6  264.25    8.94
  -3  -1  -6  264.48    9.57
  -3  -1  -6  253.74    8.24
  -3   1  -6  247.84    9.09
   3   1   6  255.15    8.24
  -3   1  -6  256.83    8.87
   3  -1   6  255.10    9.07
   3   1   6  250.87    9.25
   3   1   7    4.57    2.73
  -3  -1  -7   -1.11    2.19
  -3  -1  -7   -0.47    2.29
  -3   1  -7    4.90    2.47
  -3  -1  -7    1.91    2.63
   3   1   7   -2.42    2.76
   3  -1   7   -1.41    2.32
   3   1   7    3.40    2.08
   3  -1   7   -1.14    2.18
   3   1   7   -0.41    2.29
   3  -1   7   -1.30    2.16
   3   1   7   -1.08    2.16
  -3  -1  -7    0.72    1.95
  -3   1  -7    3.11    2.59
  -3   1  -7    1.75    2.08
  -3  -1  -7    1.07    2.24
  -3   1  -7   -2.60    2.50
   3  -1   7    1.63    2.05
   3   1   8    5.48    3.00
  -3  -1  -8   -1.44    2.53
   3   1   8    4.98    3.01
  -3   1  -8    7.35    2.76
  -3  -1  -8    0.98    2.49
   3  -1   8    1.55    2.36
   3   1   8    6.63    2.73
   3  -1   8   -0.08    2.56
   3   1   8    1.75    2.56
  -3   1  -8    1.99    2.56
  -3   1  -8    2.71    2.47
  -3  -1  -8    1.36    2.45
  -3   1  -8    5.59    2.89
   3  -1   8    4.92    2.74
   3  -1   8    3.64    2.42
   3   1   9   14.30    4.02
  -3  -1  -9    8.35    3.34
  -3   1  -9   13.84    3.77
  -3  -1  -9   24.48    4.19
   3   1   9   20.94    4.40
   3  -1   9   10.89    3.38
   3   1   9   13.05    3.15
   3  -1   9   10.63    3.53
   3   1   9   14.02    3.81
  -3   1  -9    5.46    3.96
  -3  -1  -9   23.39    4.39
  -3   1  -9   15.22    3.40
  -3   1  -9   12.20    3.85
   3  -1   9   17.64    3.69
   3  -1   9   16.42    3.52
  -3  -1 -10   12.85    4.53
  -3   1 -10    0.10    2.95
  -3  -1 -10    5.98    3.93
   3   1  10    6.90    3.40
   3  -1  10    4.93    3.55
   3   1  10    7.39    3.52
   3  -1  10    7.24    3.38
  -3   1 -10    0.02    3.23
  -3  -1 -10    6.37    3.50
  -3   1 -10    2.33    3.31
   3  -1  10    3.73    2.96
  -3   1 -11    6.32    3.87
   3  -1  11    1.50    3.66
   3  -1  11    4.31    3.64
  -3   1 -11    0.70    3.91
   3  -1  11    9.25    3.97
  -3  -2   1    8.07    2.32
   3   2  -1    9.61    2.38
  -3  -2   1    7.10    2.19
  -3  -2   0  151.10    7.24
  -3  -2   0  140.54    6.45
   3   2   0  145.16    5.47
  -3  -2   0  138.91    6.39
  -3  -2   0  147.88    7.31
  -3  -2   0  138.97    5.12
   3   2   0  138.26    6.66
   3  -2   1    6.49    2.23
  -3  -2  -1   10.01    1.99
  -3  -2  -1   10.72    2.69
   3   2   1   11.02    2.67
   3  -2   1    9.24    2.61
  -3  -2  -1    9.54    2.41
  -3  -2  -1    9.32    2.13
   3   2   1    9.68    2.01
   3   2   1    8.54    2.50
  -3   2  -1    8.45    2.20
  -3  -2  -1    9.77    2.25
  -3  -2  -2   62.91    4.98
   3  -2   2   65.75    4.69
  -3  -2  -2   61.69    4.67
   3   2   2   59.98    4.04
   3   2   2   57.50    3.90
  -3  -2  -2   63.47    4.07
   3  -2   2   62.59    5.03
   3   2   2   59.48    4.49
  -3  -2  -2   66.61    4.14
  -3   2  -2   59.53    4.45
  -3  -2  -2   62.88    4.00
   3  -2   2   59.11    4.53
  -3  -2  -2   60.92    4.47
   3  -2   2   59.10    4.92
   3   2   2   61.81    4.87
   3  -2   3 2749.25   30.57
  -3  -2  -3 2669.06   30.23
   3   2   3 2743.36   29.99
  -3  -2  -3 2736.08   29.46
   3   2   3 2730.24   27.28
   3  -2   3 2745.25   27.33
  -3  -2  -3 2780.07   27.01
   3   2   3 2668.99   25.93
   3  -2   3 2699.87   29.31
  -3  -2  -3 2764.91   24.77
   3   2   3 2767.10   25.45
  -3  -2  -3 2761.08   25.57
  -3  -2  -3 2739.64   26.69
  -3   2  -3 2698.64   28.65
  -3   2  -3 2756.04   29.58
   3   2   3 2689.35   27.47
   3  -2   3 2746.91   31.07
   3   2   3 2704.72   30.29
  -3  -2  -4   38.37    4.29
  -3  -2  -4   42.95    4.31
   3   2   4   41.23    4.18
   3   2   4   33.62    3.45
   3  -2   4   37.77    3.71
   3  -2   4   39.59    4.18
   3  -2   4   38.90    4.10
  -3  -2  -4   39.21    3.65
  -3   2  -4   42.97    4.30
  -3  -2  -4   39.52    3.88
  -3   2  -4   42.96    4.42
   3   2   4   38.31    4.34
   3  -2   4   39.35    4.44
   3   2   4   44.13    4.73
   3   2   5   14.78    3.58
  -3  -2  -5   14.54    3.29
  -3  -2  -5   14.58    3.19
  -3  -2  -5   11.98    2.58
   3  -2   5   13.56    2.70
   3   2   5   15.25    3.53
   3  -2   5   17.01    3.15
   3  -2   5   16.96    3.16
  -3   2  -5   17.52    2.99
   3   2   5   14.81    2.91
  -3   2  -5   22.84    3.61
   3   2   5   11.59    3.10
  -3   2  -5   16.27    3.45
  -3   2  -5   11.35    3.19
  -3  -2  -5   16.71    3.25
   3  -2   5   12.43    3.13
  -3  -2  -6   57.11    5.29
   3   2   6   50.34    5.29
  -3  -2  -6   53.83    5.28
   3   2   6   53.12    4.85
  -3  -2  -6   51.97    4.67
   3  -2   6   56.10    5.13
   3  -2   6   50.90    4.69
  -3  -2  -6   54.60    5.07
  -3   2  -6   54.32    5.21
   3   2   6   56.07    5.42
  -3   2  -6   54.44    5.37
   3  -2   6   51.68    5.19
   3   2   6   48.60    5.27
   3   2   7   11.19    3.92
  -3  -2  -7   12.12    3.72
  -3  -2  -7    4.47    2.79
  -3  -2  -7    6.83    3.16
   3   2   7   12.54    3.90
   3  -2   7   10.93    3.55
   3   2   7   12.36    3.47
   3   2   7    9.66    3.21
  -3   2  -7    9.47    3.47
  -3  -2  -7   11.32    3.60
  -3   2  -7   11.66    3.83
   3  -2   7   12.57    3.60
   3   2   8   13.10    4.06
  -3  -2  -8    9.25    3.46
  -3  -2  -8   13.96    3.71
  -3  -2  -8    6.40    3.70
   3   2   8   15.55    4.11
   3  -2   8   10.02    3.58
   3   2   8   10.91    3.79
  -3   2  -8    5.32    3.39
  -3  -2  -8   13.56    4.31
  -3   2  -8    9.47    3.54
   3  -2   8    7.69    3.46
   3   2   9   23.70    5.27
  -3  -2  -9   31.91    5.10
  -3  -2  -9   37.16    5.58
  -3  -2  -9   30.34    5.77
   3  -2   9   24.32    4.86
   3   2   9   32.54    5.17
  -3   2  -9   27.92    5.02
  -3   2  -9   28.21    4.66
   3  -2   9   33.08    5.31
  -3  -2 -10   42.60    6.63
  -3  -2 -10   37.78    7.13
   3   2  10   33.90    5.99
   3  -2  10   39.63    6.22
  -3   2 -10   25.15    5.06
  -3   2 -10   42.76    7.22
   3  -2  10   39.30    6.43
   3  -2  11   29.55    5.66
  -3   2 -11   42.12    6.70
   3  -2  11   29.79    5.69
   3  -2  12   10.52    4.87
   3  -2  12   -0.04    4.03
  -3  -3   2    0.55    2.84
  -3  -3   2    4.08    3.11
  -3  -3   2    1.10    3.21
  -3  -3   1    8.45    3.65
   3   3  -1    2.20    2.78
  -3  -3   1    5.94    3.32
  -3  -3   1   -1.17    2.60
   3   3  -1    1.62    3.46
   3   3   0   12.06    3.62
  -3  -3   0   18.18    4.36
  -3  -3   0   19.45    3.74
  -3  -3   0   10.98    3.85
  -3  -3   0   12.41    3.32
  -3  -3  -1  373.44   13.18
   3  -3   1  353.61   13.17
  -3  -3  -1  364.59   11.82
  -3  -3  -1  363.38   13.08
  -3  -3  -1  355.66   12.07
   3   3   1  332.14   12.82
   3   3   1  362.65   13.59
   3   3   1  345.96   12.00
  -3  -3  -2  379.63   13.53
   3  -3   2  386.42   13.56
   3   3   2  360.45   13.29
  -3  -3  -2  379.86   12.24
  -3  -3  -2  385.29   12.34
  -3  -3  -2  394.32   13.13
   3  -3   2  391.96   14.11
   3   3   2  359.99   12.51
   3   3   2  381.29   14.07
   3  -3   2  377.02   13.67
   3   3   2  360.14   12.77
   3  -3   3   19.99    4.21
   3  -3   3   15.09    3.83
   3   3   3   23.72    4.62
  -3  -3  -3   23.82    4.60
  -3  -3  -3   16.74    3.63
  -3  -3  -3   24.90    4.36
   3  -3   3   18.06    3.95
  -3   3  -3   17.12    4.56
   3   3   3   19.29    3.96
   3   3   3   16.39    4.35
  -3  -3  -4  229.44   10.95
  -3  -3  -4  214.73   10.11
   3  -3   4  206.80    9.90
   3  -3   4  205.68   10.67
  -3   3  -4  208.31   10.65
   3   3   4  224.00   11.30
  -3   3  -4  211.30   11.04
   3  -3   4  208.03   10.75
   3   3   4  213.40   10.67
  -3  -3  -5  443.72   15.59
  -3  -3  -5  452.05   14.82
   3  -3   5  465.28   14.69
   3  -3   5  446.20   15.69
   3  -3   5  431.48   14.32
  -3   3  -5  499.04   16.03
  -3   3  -5  478.33   15.65
  -3   3  -5  421.76   13.94
   3   3   5  480.15   16.21
  -3   3  -5  446.95   15.83
   3  -3   5  445.94   15.84
   3   3   5  447.92   16.15
   3   3   6    1.67    4.26
  -3  -3  -6    0.00    3.64
  -3  -3  -6    6.81    3.58
   3  -3   6   -0.78    3.06
   3  -3   6    3.11    3.44
   3  -3   6    5.34    3.64
  -3   3  -6    7.84    3.88
  -3   3  -6    5.26    4.04
   3   3   6    7.50    4.16
  -3   3  -6   -1.44    3.67
  -3   3  -6   -0.44    3.78
   3  -3   6    7.80    3.98
   3   3   7   -1.00    4.57
  -3  -3  -7   -1.39    4.41
  -3  -3  -7   -3.29    3.91
   3  -3   7   -2.88    3.66
   3   3   7   -2.87    3.79
  -3   3  -7    1.87    3.56
  -3   3  -7    3.63    4.15
   3  -3   7   -2.77    3.54
   3   3   8    6.41    5.29
  -3  -3  -8    7.90    4.94
  -3  -3  -8    6.45    4.37
   3  -3   8    0.26    3.95
   3   3   8    1.80    4.06
  -3   3  -8   -0.36    3.72
  -3   3  -8    5.62    4.20
   3  -3   8    2.49    3.62
  -3  -3  -9   -8.23    5.50
  -3  -3  -9   -2.62    4.01
  -3   3  -9   -3.25    4.12
   3  -3   9    0.92    4.01
  -3   3  -9    6.99    4.42
   3  -3   9    2.00    4.27
   3  -3  10   11.53    4.87
  -3   3 -10    6.12    4.45
  -3   3 -10    4.92    4.64
   3  -3  10    3.29    4.24
   3  -3  11   13.83    6.07
  -3   3 -11    2.23    4.24
   3  -3  11   13.41    5.68
   3  -3  12   20.33    6.62
  -3  -4   3    5.31    4.47
   3   4  -2    2.90    4.87
  -3  -4   2   -1.81    3.51
  -3  -4   2   -3.68    4.55
  -3  -4   2   -7.66    4.80
  -3  -4   1   13.57    4.42
  -3  -4   1   16.50    4.96
  -3  -4   1    9.93    4.00
   3   4  -1   18.91    5.68
   3   4  -1   13.61    5.42
   3   4  -1    4.85    4.51
   3   4   0    1.57    4.66
  -3  -4   0   -0.34    3.97
  -3  -4   0    6.24    4.13
  -3  -4   0    0.80    3.48
   3   4   0    6.09    4.61
   3   4   0    4.17    4.48
  -3  -4  -1   24.59    5.41
  -3  -4  -1   18.11    5.07
  -3  -4  -1   26.86    5.34
   3   4   1   22.68    5.62
   3   4   1   19.79    6.07
   3   4   1   23.53    5.71
  -3  -4  -2  174.77   11.02
  -3  -4  -2  152.90   10.53
   3  -4   2  139.35   10.21
   3   4   2  174.58   12.19
   3   4   2  180.11   11.82
   3   4   2  164.14   11.74
  -3   4  -2  162.74   11.11
   3  -4   2  165.26   11.17
  -3  -4  -3  580.95   20.15
   3  -4   3  557.65   20.52
  -3   4  -3  563.65   19.68
   3   4   3  612.24   21.41
   3  -4   3  536.22   19.74
  -3   4  -3  556.03   19.76
   3  -4   3  546.15   20.01
  -3  -4  -4  271.06   14.40
   3  -4   4  221.69   13.61
  -3   4  -4  261.91   14.03
  -3   4  -4  252.21   14.25
   3   4   4  252.72   14.80
  -3   4  -4  245.91   13.77
   3  -4   4  235.76   13.22
   3  -4   4  232.61   13.65
   3  -4   5    0.18    4.20
  -3  -4  -5   -0.39    4.82
   3  -4   5    7.87    4.80
   3  -4   5   -8.82    4.89
  -3   4  -5   -1.14    5.16
  -3   4  -5    6.98    5.45
   3   4   5   -0.26    5.27
  -3   4  -5   -3.66    4.88
   3  -4   6   -3.87    4.98
   3   4   6    1.54    5.29
  -3  -4  -6   12.28    5.78
  -3   4  -6    3.88    4.69
  -3  -4  -6    2.95    4.68
   3  -4   6    9.85    4.88
   3  -4   6   -3.60    5.23
   3   4   6    4.00    5.40
  -3   4  -6    0.56    4.63
  -3   4  -6   -7.69    5.56
  -3  -4  -7   12.73    5.92
  -3  -4  -7   -2.76    5.34
  -3   4  -7   -2.67    4.72
   3   4   7    7.42    5.61
   3  -4   7    5.36    4.88
  -3   4  -7    0.52    4.85
   3  -4   7   -6.44    5.02
  -3  -4  -8    1.78    5.04
  -3   4  -8   -4.47    6.06
   3  -4   9   -0.24    5.74
  -3  -5   1    3.46    5.31
  -3  -5   0   17.66    6.26
   3   5   0    5.55    6.66
  -3  -5  -1   17.04    6.89
   3   5   1   18.93    7.80
   3   5   2   92.41   12.17
   4   0   2 1204.26   17.94
   4   0   2 1209.87   17.91
  -4   0  -2 1199.85   17.95
  -4   0  -2 1195.97   17.56
  -4   0  -3   -0.79    1.71
  -4   0  -3    0.23    1.72
   4   0   3    0.96    1.55
  -4   0  -3   -2.08    1.91
   4   0   3   -1.87    1.92
   4   0   3    0.38    1.52
  -4   0  -3    0.49    1.71
   4   0   3   -1.76    1.79
  -4   0  -4  216.41    7.84
   4   0   4  202.59    7.96
   4   0   4  212.97    8.12
   4   0   4  209.00    8.03
  -4   0  -4  199.04    7.75
  -4   0  -4  213.72    7.78
  -4   0  -4  209.05    7.95
   4   0   4  205.60    7.25
   4   0   5    2.07    1.72
  -4   0  -5   -1.06    2.21
   4   0   5   -0.16    1.81
  -4   0  -5    0.82    1.86
   4   0   5    2.42    2.04
   4   0   5   -0.23    1.85
   4   0   5    0.42    1.92
  -4   0  -5    2.06    2.03
  -4   0  -5   -0.96    2.03
  -4   0  -6  217.97    8.14
   4   0   6  212.18    8.87
   4   0   6  215.52    8.94
   4   0   6  221.88    8.74
  -4   0  -6  206.36    8.59
  -4   0  -6  214.50    8.43
  -4   0  -6  208.19    8.61
   4   0   6  219.42    8.19
   4   0   7   -3.33    2.43
  -4   0  -7   -1.21    2.15
  -4   0  -7    4.04    2.78
   4   0   7   -1.38    2.36
   4   0   7    0.84    2.30
  -4   0  -7   -1.83    2.44
   4   0   7   -1.52    2.64
  -4   0  -7   -0.04    2.37
   4   0   8   12.82    3.14
  -4   0  -8   11.19    3.11
  -4   0  -8   10.82    3.42
   4   0   8   11.35    3.54
   4   0   8    7.96    3.12
   4   0   8   10.97    3.48
  -4   0  -8   11.40    3.24
  -4   0  -8    9.39    3.25
   4   0   9   -0.60    2.75
  -4   0  -9   -3.17    3.18
  -4   0  -9    2.15    2.76
   4   0   9    0.01    3.34
   4   0   9    3.58    2.94
   4   0   9    0.67    2.91
  -4   0  -9    4.94    3.35
  -4   0  -9    2.73    3.04
   4   0  10 1612.72   29.69
   4   0  10 1574.08   28.75
  -4   0 -10 1531.81   27.82
   4   0  10 1487.51   27.02
  -4   0 -10 1539.35   27.75
  -4   0 -10 1593.74   28.01
  -4   0 -11    5.08    4.38
   4   0  11   -6.00    4.34
   4   0  11   -3.13    3.73
   4   0  11   -6.25    3.94
  -4   0 -11   -6.10    4.46
  -4   0 -11   -2.22    3.83
   4   0  12  127.67    9.72
  -4   0 -12  133.39    9.80
   4   0  12  122.59    9.46
  -4   0 -12  120.15    9.73
   4   1   2  148.67    6.88
  -4  -1  -2  148.81    6.78
   4   1   2  133.64    6.25
   4   1   2  139.31    6.37
  -4  -1  -2  137.82    6.24
  -4  -1  -2  136.48    6.15
   4  -1   3    3.47    1.96
  -4  -1  -3   -1.39    1.96
   4  -1   3    3.47    1.54
  -4   1  -3    3.13    2.06
   4  -1   3    2.32    1.64
  -4  -1  -3    2.14    2.06
   4   1   3    1.36    1.94
  -4  -1  -3    3.97    2.09
  -4   1  -3    4.93    1.97
   4   1   3    2.72    2.08
   4  -1   3    4.68    1.90
   4  -1   3    2.70    2.14
  -4  -1  -3    3.29    1.88
  -4  -1  -3    3.20    1.47
  -4   1  -3    3.02    1.97
   4   1   3    3.49    1.90
  -4  -1  -4  247.98    8.44
  -4  -1  -4  258.17    9.25
   4   1   4  265.09    9.22
   4  -1   4  256.43    8.69
   4   1   4  259.06    9.13
   4  -1   4  273.32    9.36
   4  -1   4  258.97    9.45
   4   1   4  265.69    8.25
  -4  -1  -4  260.43    8.91
  -4  -1  -4  261.23    7.72
  -4   1  -4  273.35    9.73
  -4  -1  -4  255.19    8.86
  -4   1  -4  267.72    8.93
  -4   1  -4  266.75    9.10
   4  -1   4  247.23    9.10
   4   1   4  266.05    9.35
  -4  -1  -5   -0.82    2.13
  -4   1  -5    1.70    2.00
   4   1   5   -0.58    2.33
  -4  -1  -5    0.43    1.93
  -4   1  -5    1.06    2.21
  -4  -1  -5    1.51    2.11
   4   1   5    2.00    2.37
   4  -1   5   -0.09    2.00
   4  -1   5    1.06    2.13
   4   1   5    2.69    1.86
  -4  -1  -5   -0.08    2.12
   4   1   5    0.42    2.06
   4   1   5    1.27    1.88
  -4  -1  -5    2.77    1.84
   4  -1   5    1.72    2.14
  -4   1  -5   -0.38    2.35
   4  -1   5    0.91    2.19
  -4  -1  -6   87.14    5.42
  -4  -1  -6   86.74    6.15
   4   1   6   82.50    6.20
   4  -1   6   81.99    5.74
   4   1   6   86.86    6.13
   4  -1   6   92.90    5.99
   4  -1   6   90.60    6.22
   4   1   6   89.49    5.45
  -4  -1  -6   90.50    6.10
  -4   1  -6   88.79    5.92
  -4  -1  -6   78.59    5.81
  -4  -1  -6   90.30    5.47
  -4   1  -6   86.44    5.70
  -4   1  -6   84.37    5.99
  -4   1  -6   89.41    5.97
   4  -1   6   88.55    5.96
   4   1   6   82.86    6.03
   4   1   7   22.38    3.91
  -4  -1  -7   22.18    4.11
  -4  -1  -7   17.26    3.57
   4  -1   7   30.68    4.12
   4   1   7   27.91    3.67
   4  -1   7   23.06    3.96
   4   1   7   22.41    3.85
  -4   1  -7   18.23    3.37
   4   1   7   19.24    3.85
   4  -1   7   25.47    3.70
  -4  -1  -7   31.16    3.98
  -4   1  -7   27.09    4.24
  -4   1  -7   24.96    3.84
  -4  -1  -7   27.34    4.45
   4  -1   7   22.38    3.67
  -4   1  -7   24.33    3.73
   4   1   8   -1.34    3.07
  -4  -1  -8    4.67    3.20
  -4  -1  -8    0.16    2.88
   4   1   8    0.61    3.09
   4  -1   8    3.01    2.96
   4   1   8    2.10    2.56
   4  -1   8    1.68    2.99
  -4   1  -8   -0.39    2.83
   4   1   8    3.41    3.05
   4  -1   8    1.63    2.65
  -4   1  -8    1.05    3.41
  -4   1  -8    0.82    2.81
  -4  -1  -8    4.26    3.22
  -4   1  -8    1.08    3.11
   4  -1   8    1.69    2.51
   4   1   9   37.99    5.21
  -4  -1  -9   40.05    5.08
  -4  -1  -9   34.66    5.12
   4   1   9   32.82    5.31
   4  -1   9   41.20    5.25
  -4   1  -9   35.82    4.95
   4  -1   9   30.60    5.29
   4   1   9   34.24    5.00
   4  -1   9   30.14    4.88
  -4   1  -9   11.38    5.37
  -4   1  -9   33.93    4.80
  -4  -1  -9   33.22    5.20
  -4   1  -9   25.42    5.18
   4  -1   9   33.61    4.65
   4   1  10   99.19    8.41
   4  -1  10  104.51    8.05
  -4  -1 -10  101.40    8.01
   4   1  10   93.88    7.94
   4  -1  10  100.65    7.82
  -4  -1 -10   91.24    7.58
  -4   1 -10   93.94    7.45
   4  -1  10   92.69    8.05
  -4  -1 -10  104.42    8.09
   4   1  10  102.85    8.74
  -4  -1 -11  123.57    9.30
   4   1  11  104.77    9.09
  -4  -1 -11  131.79    9.82
  -4  -1 -11  120.73    9.47
   4   1  12  267.69   14.64
  -4  -1 -12  261.06   14.36
   4  -1  12  313.53   14.79
  -4  -1 -12  286.90   15.75
  -4   1 -12  292.32   14.20
   4  -1  12  321.63   15.87
  -4   1 -13   18.61    6.10
   4  -1  13    8.97    5.91
   4  -1  13   23.89    5.70
   4   2   0  845.16   17.25
  -4  -2   0  858.41   18.14
  -4  -2   0  873.10   16.46
  -4  -2  -1   54.81    5.05
  -4  -2  -1   54.76    4.90
   4   2   1   60.20    4.51
  -4  -2  -1   64.05    4.50
  -4  -2  -1   57.62    4.19
   4   2   1   59.32    5.42
  -4  -2  -2    9.82    3.31
  -4  -2  -2    3.59    2.62
   4   2   2    8.48    3.31
  -4  -2  -2    3.84    2.29
   4   2   2    4.14    2.32
  -4  -2  -3  619.50   15.58
  -4  -2  -3  607.23   15.19
   4   2   3  615.16   14.36
   4  -2   3  603.79   13.87
   4   2   3  608.81   14.19
   4  -2   3  602.19   15.67
  -4  -2  -3  576.94   13.53
  -4   2  -3  587.35   14.78
  -4  -2  -3  612.38   13.83
   4  -2   3  603.64   16.27
   4   2   3  583.33   15.61
   4  -2   4   10.52    3.23
  -4  -2  -4    8.82    2.85
   4   2   4    7.48    3.12
  -4  -2  -4    6.98    2.79
  -4  -2  -4    5.76    2.57
  -4  -2  -4    7.33    2.78
   4   2   4    7.48    3.01
   4  -2   4    8.98    3.15
   4   2   4    8.62    3.00
  -4   2  -4   11.32    3.23
   4   2   4   12.43    3.18
   4   2   5   -0.29    3.13
  -4  -2  -5   -2.46    2.86
  -4  -2  -5   -1.44    2.63
   4   2   5   -2.54    2.73
   4  -2   5   -0.94    2.64
   4   2   5   -0.68    2.63
   4   2   5    3.34    2.47
  -4   2  -5    0.79    2.75
  -4  -2  -5   -0.38    2.57
  -4  -2  -5   -3.36    2.86
   4  -2   5   -0.69    2.74
   4   2   6   40.05    5.17
  -4  -2  -6   45.58    5.24
   4   2   6   53.23    5.81
  -4  -2  -6   44.00    5.28
   4   2   6   42.57    4.87
   4  -2   6   40.72    5.16
  -4  -2  -6   43.95    4.62
   4   2   6   41.09    5.01
  -4   2  -6   44.02    5.22
  -4   2  -6   36.03    4.95
  -4  -2  -6   48.22    5.07
   4  -2   6   42.89    5.23
   4   2   7   24.64    4.91
  -4  -2  -7   18.73    4.26
  -4  -2  -7   17.08    4.22
   4   2   7   20.12    4.73
  -4  -2  -7   18.00    3.96
   4  -2   7   14.30    3.84
   4   2   7   17.33    4.00
   4   2   7   27.38    4.96
  -4   2  -7   18.25    4.22
  -4   2  -7   25.70    4.72
  -4  -2  -7   13.06    3.37
   4  -2   7   11.72    3.71
   4   2   8   -1.27    3.56
  -4  -2  -8   -1.54    3.64
  -4  -2  -8    1.71    3.38
   4   2   8   -1.01    3.81
  -4  -2  -8   -3.23    3.44
   4  -2   8   -0.66    3.68
   4   2   8    0.60    3.13
   4   2   8    4.14    3.77
  -4   2  -8    3.11    3.37
  -4  -2  -8    1.08    3.25
  -4   2  -8    3.20    3.43
   4  -2   8   -0.61    3.05
   4   2   9   10.82    4.53
  -4  -2  -9    8.62    4.16
  -4  -2  -9    8.12    4.02
   4   2   9    3.71    4.20
   4  -2   9   14.02    4.56
   4   2   9   13.86    4.20
  -4   2  -9    6.61    4.21
  -4  -2  -9   13.64    4.47
  -4   2  -9    9.99    4.02
   4  -2   9   10.56    4.19
  -4  -2 -10  414.50   16.99
   4   2  10  399.56   16.32
  -4  -2 -10  412.80   15.89
   4  -2  10  396.99   16.17
  -4  -2 -10  385.54   16.56
  -4   2 -10  393.94   15.53
  -4   2 -10  405.56   15.66
   4   2  10  408.75   17.19
   4  -2  10  387.97   16.34
  -4  -2 -11  144.61   11.91
   4   2  11  121.74   10.06
  -4  -2 -11  150.13   11.29
   4  -2  11  122.48   10.57
  -4   2 -11  135.10    9.73
   4  -2  11  120.69   10.08
   4  -2  12   -0.22    4.49
  -4   2 -12   -0.38    4.88
   4  -2  12    5.33    4.60
   4  -2  13   33.28    8.15
   4  -2  13   37.57    6.96
   4   3  -1    1.58    3.21
  -4  -3   1   -0.67    2.94
  -4  -3   1   -1.93    2.93
  -4  -3   0   60.59    6.34
  -4  -3   0   61.42    5.98
   4   3   0   68.99    6.32
  -4  -3  -1 1302.04   25.96
  -4  -3  -1 1243.51   23.59
  -4  -3  -1 1280.96   26.59
  -4  -3  -1 1281.49   23.46
   4   3   1 1248.39   24.76
  -4  -3  -2  270.93   12.12
  -4  -3  -2  288.38   11.58
   4   3   2  310.38   13.62
   4   3   2  281.44   12.30
   4  -3   3   13.04    4.40
   4   3   3    7.45    4.25
  -4  -3  -3   12.09    3.75
  -4  -3  -3    9.37    3.58
   4  -3   3    5.33    3.59
   4   3   3   14.10    4.47
  -4   3  -3   12.32    3.65
   4  -3   4    3.25    3.27
   4   3   4    5.84    3.91
  -4  -3  -4   -3.38    3.76
  -4  -3  -4   11.27    4.15
   4  -3   4    7.95    3.88
   4   3   4    4.29    3.81
  -4   3  -4    2.35    3.30
   4  -3   5    0.21    3.83
   4   3   5    3.94    4.32
  -4  -3  -5    5.84    4.45
  -4  -3  -5    3.70    3.74
   4  -3   5   -0.84    3.87
   4  -3   5    2.49    4.04
   4   3   5    1.16    4.07
  -4   3  -5   -6.02    5.11
  -4   3  -5    2.38    4.35
   4  -3   6   13.60    4.51
   4   3   6   14.02    4.52
  -4  -3  -6   10.98    4.44
  -4  -3  -6   21.26    5.11
   4  -3   6   13.67    4.66
   4   3   6   21.49    5.23
  -4   3  -6   19.99    5.08
  -4   3  -6   17.65    5.14
   4   3   7    6.63    4.61
  -4  -3  -7   14.60    5.21
  -4  -3  -7    9.78    4.41
   4  -3   7   11.44    4.66
   4   3   7    7.98    4.56
  -4   3  -7   10.50    4.11
  -4   3  -7    5.58    4.08
   4  -3   7   12.99    4.87
   4   3   8   39.20    6.67
  -4  -3  -8   32.34    5.92
  -4  -3  -8   27.35    6.08
   4  -3   8   30.48    6.04
   4   3   8   27.40    6.09
  -4   3  -8   34.29    6.16
  -4   3  -8   31.69    6.19
   4  -3   8   17.23    5.24
   4   3   9   18.91    6.30
  -4  -3  -9   26.14    6.33
  -4  -3  -9   17.95    5.47
   4  -3   9   21.99    5.98
  -4   3  -9   11.14    4.63
  -4   3  -9   21.39    5.92
   4  -3   9   11.20    4.72
  -4  -3 -10   18.09    6.85
  -4  -3 -10    8.82    5.58
   4  -3  10    8.25    4.98
  -4   3 -10    4.93    4.63
  -4   3 -10   12.13    5.50
   4  -3  10    3.90    4.57
   4  -3  11  177.79   13.17
  -4   3 -11  182.30   13.01
  -4   3 -11  173.16   12.62
   4  -3  11  151.63   12.16
   4  -3  12   39.42    8.04
  -4   3 -12   55.65    8.59
  -4   3 -12   56.51    8.49
   4  -3  12   36.59    8.10
  -4  -4   1  131.94    9.85
  -4  -4   1  113.98    9.09
  -4  -4   0  241.11   13.28
  -4  -4   0  226.14   12.36
   4   4   0  225.83   14.28
   4   4   0  240.32   14.59
  -4  -4  -1   -8.21    4.88
  -4  -4  -1    9.52    4.92
   4   4   1    9.20    5.33
   4   4   1   -4.34    5.61
  -4  -4  -2   93.23    8.97
   4   4   2   89.29    9.57
  -4  -4  -3   88.27    9.09
   4   4   3   76.08    9.03
   4  -4   4    2.34    4.25
  -4  -4  -4   21.53    5.92
   4  -4   4   16.15    5.78
  -4   4  -4    7.24    4.87
   4   4   4   19.81    6.83
  -4   4  -4   10.43    5.47
   4  -4   5    3.18    4.36
   4   4   5   18.48    7.47
  -4  -4  -5   -2.66    5.72
  -4  -4  -5    1.72    5.56
  -4   4  -5   -2.98    4.85
   4   4   5    2.58    6.15
  -4   4  -5   -5.39    5.35
   4  -4   6    2.73    4.63
   4   4   6    3.48    5.94
  -4  -4  -6   15.57    5.77
  -4  -4  -6    6.40    4.88
   4   4   6    8.07    5.37
  -4   4  -6   14.66    5.68
   4  -4   7   -2.74    5.20
   4   4   7  -11.39    7.11
  -4  -4  -7    0.28    5.14
  -4  -4  -7    1.12    5.37
   4   4   7   -4.24    5.69
  -4   4  -7    3.06    5.01
  -4  -4  -8    4.08    6.44
  -4  -4  -8   11.65    6.03
   4   4   8   10.27    6.85
   5   0   3   -2.47    2.14
  -5   0  -3    0.50    2.11
   5   0   3   -0.85    1.91
  -5   0  -3    1.76    2.03
   5   0   3    2.57    2.39
  -5   0  -3   -0.34    2.06
   5   0   4  166.08    8.14
   5   0   4  148.42    7.67
   5   0   4  163.27    7.84
  -5   0  -4  164.71    7.71
  -5   0  -4  150.61    7.66
  -5   0  -4  152.50    7.68
   5   0   4  156.01    7.11
  -5   0  -5   -1.03    2.57
   5   0   5   -1.63    2.26
  -5   0  -5   -0.67    2.26
   5   0   5    0.56    2.55
  -5   0  -5    2.02    2.36
   5   0   5    0.95    2.40
  -5   0  -5    0.18    2.35
   5   0   5    1.41    2.42
  -5   0  -6  276.73   10.21
   5   0   6  275.14   10.98
   5   0   6  276.90   10.90
   5   0   6  288.04   10.98
  -5   0  -6  272.61   10.55
  -5   0  -6  271.48   10.13
  -5   0  -6  275.33   10.76
   5   0   6  266.98    9.92
  -5   0  -7    4.02    2.84
   5   0   7   -6.90    3.36
  -5   0  -7   -1.41    2.70
   5   0   7   -3.14    3.07
   5   0   7    1.09    2.71
   5   0   7    0.48    2.67
  -5   0  -7   -1.96    2.89
  -5   0  -7   -2.35    3.01
  -5   0  -8  397.10   12.63
   5   0   8  399.93   14.42
   5   0   8  389.15   13.99
   5   0   8  390.81   13.78
  -5   0  -8  405.56   13.97
  -5   0  -8  396.71   14.01
  -5   0  -8  362.98   12.75
   5   0   8  387.85   12.60
   5   0   9   -2.83    4.04
   5   0   9    0.79    3.22
  -5   0  -9   -8.76    4.35
   5   0   9    9.10    4.12
  -5   0  -9   -5.31    4.02
  -5   0  -9  -12.99    4.95
   5   0  10  853.72   22.93
   5   0  10  901.11   23.10
   5   0  10  892.96   22.20
  -5   0 -10  905.41   22.93
  -5   0 -10  897.67   22.59
  -5   0 -10  924.87   22.18
   5   0  11   -3.46    4.20
  -5   0 -11    0.94    4.02
   5   0  11   -2.32    3.74
   5   0  11    6.18    4.13
  -5   0 -11    5.01    3.98
  -5   0 -11    0.15    3.64
   5   0  12  -15.46    5.68
  -5   0 -12  -14.42    5.62
   5   0  12    2.32    4.22
   5   0  12    5.58    4.33
  -5   0 -12    8.98    4.11
  -5   0 -12    6.81    4.80
  -5   0 -13   -3.31    5.23
   5   0  13    1.71    4.48
   5   0  13   -6.16    5.08
  -5   0 -13   -2.56    4.76
   5   1   3    4.79    2.39
  -5  -1  -3    7.59    2.65
   5   1   3    5.74    2.74
  -5  -1  -3    5.56    2.58
   5   1   3    5.41    2.49
  -5  -1  -3    7.44    2.50
  -5  -1  -3    8.70    2.43
  -5  -1  -4  257.64   10.13
   5   1   4  248.37    9.90
   5  -1   4  250.75    9.87
   5   1   4  258.54   10.15
   5  -1   4  248.03   10.32
  -5  -1  -4  264.39    8.65
  -5   1  -4  258.75   10.69
  -5  -1  -4  248.09    9.65
  -5   1  -4  257.57   10.08
  -5  -1  -4  255.43    9.78
   5   1   4  246.83    9.94
   5  -1   5   15.23    3.34
   5  -1   5   14.06    3.19
  -5  -1  -5   20.52    3.75
  -5   1  -5   23.34    3.82
   5   1   5   18.38    3.91
  -5  -1  -5   20.37    3.85
  -5  -1  -5   14.52    3.33
   5   1   5   22.34    3.98
   5  -1   5   18.75    3.58
   5  -1   5   17.46    3.74
   5   1   5   18.81    3.33
  -5   1  -5   17.79    3.30
  -5  -1  -5   18.97    3.13
  -5   1  -5   23.13    4.29
   5   1   5   20.49    3.64
   5  -1   6   27.06    4.22
  -5  -1  -6   27.79    4.53
  -5   1  -6   22.99    4.19
  -5  -1  -6   34.45    4.66
   5   1   6   25.24    4.41
  -5  -1  -6   33.54    4.71
   5   1   6   33.80    4.81
   5  -1   6   28.58    4.13
   5  -1   6   27.82    4.68
   5   1   6   27.22    4.29
  -5   1  -6    9.31    4.63
  -5   1  -6   27.56    4.29
   5  -1   6   30.64    4.41
   5  -1   7    2.50    3.16
  -5  -1  -7   -5.54    3.57
  -5   1  -7    1.82    3.03
   5   1   7   -3.03    3.55
  -5   1  -7   -2.51    3.02
  -5  -1  -7    2.82    3.07
   5   1   7    4.50    3.64
   5  -1   7   -2.36    3.35
   5  -1   7   -1.03    3.43
   5   1   7    5.55    3.05
  -5  -1  -7   -3.63    3.38
  -5   1  -7  -10.80    3.94
  -5   1  -7    0.33    2.89
   5  -1   7   -0.05    2.86
  -5  -1  -8 2476.65   34.85
   5   1   8 2509.51   36.15
   5  -1   8 2578.98   35.18
   5   1   8 2521.93   35.98
   5  -1   8 2651.56   35.73
  -5  -1  -8 2536.35   35.04
  -5  -1  -8 2484.76   35.50
   5   1   8 2582.40   35.42
   5   1   9  119.24    9.11
   5  -1   9  138.02    9.22
  -5  -1  -9  131.31    8.94
   5   1   9  130.34    9.13
   5  -1   9  128.45    8.91
   5  -1   9  117.79    9.21
  -5  -1  -9  124.37    8.70
  -5   1  -9  122.01    8.49
  -5  -1  -9  130.22    9.01
  -5   1  -9  109.17    8.53
   5   1   9  125.39    9.13
   5   1  10   82.16    7.99
   5  -1  10   93.28    8.31
  -5  -1 -10   82.93    7.63
   5   1  10   86.42    7.95
   5  -1  10   86.05    7.88
   5  -1  10   82.51    8.06
  -5  -1 -10   92.46    8.06
  -5   1 -10   72.05    7.24
  -5  -1 -10   87.77    8.13
   5   1  10   95.61    8.46
   5   1  11    1.26    4.39
  -5  -1 -11    6.53    3.97
   5   1  11   15.21    5.50
   5  -1  11    7.98    4.28
  -5  -1 -11   11.06    4.97
   5  -1  11    2.17    4.22
  -5   1 -11    6.44    4.21
   5   1  11    5.84    4.56
   5  -1  11    5.65    4.06
  -5   1 -11    1.64    4.14
  -5  -1 -11    4.23    4.31
  -5   1 -11    4.00    4.13
  -5  -1 -12    0.40    4.68
   5  -1  12   -7.77    4.74
  -5  -1 -12    6.73    5.22
   5  -1  12   -5.32    4.94
  -5   1 -12    1.67    4.28
   5   1  12    0.47    4.18
   5  -1  12   -4.85    4.26
  -5   1 -12   -0.19    4.22
  -5  -1 -12    5.35    4.83
  -5   1 -12   -2.47    4.25
  -5  -1 -13   -8.38    5.39
  -5  -1 -13    3.37    5.71
   5  -1  13   -5.85    5.47
  -5   1 -13    3.52    4.98
   5   1  13    2.40    5.09
   5  -1  13    1.74    4.81
  -5   1 -13    0.32    4.45
   5  -1  14   41.87    8.86
  -5   1 -14   22.54    7.52
   5  -1  14   40.96    7.58
  -5  -2  -2   15.98    3.26
   5   2   2   18.81    4.02
  -5  -2  -2   13.11    3.34
  -5  -2  -2   16.12    3.51
   5   2   2   14.14    3.44
  -5  -2  -3    7.79    3.04
   5   2   3    5.81    3.62
  -5  -2  -3    2.78    2.72
  -5  -2  -3    4.26    3.04
   5   2   3    4.05    3.12
   5  -2   4   28.41    4.68
   5   2   4   24.56    4.06
  -5  -2  -4   27.82    4.34
   5   2   4   29.38    4.86
  -5  -2  -4   22.89    4.14
  -5  -2  -4   28.62    4.46
   5   2   4   24.38    4.22
   5  -2   4   26.84    4.39
  -5   2  -4   39.49    6.06
  -5  -2  -4   26.77    4.06
  -5  -2  -5   19.14    4.17
   5  -2   5   21.98    4.60
   5   2   5   18.72    4.56
  -5  -2  -5   15.36    3.91
  -5  -2  -5   13.62    3.89
   5   2   5   14.38    4.02
   5  -2   5    9.40    3.30
   5   2   5   21.08    4.36
  -5  -2  -5   15.67    3.71
  -5   2  -5   14.54    4.22
   5   2   5   16.44    3.55
   5  -2   6    8.95    3.54
   5   2   6    7.66    3.73
  -5  -2  -6    9.45    3.89
  -5  -2  -6   12.87    3.93
  -5  -2  -6   10.95    3.61
   5   2   6   17.98    4.24
   5  -2   6    5.17    3.30
   5   2   6   16.71    4.20
   5   2   6    9.16    3.54
  -5   2  -6    4.43    3.68
  -5   2  -6   14.69    4.15
  -5  -2  -6   10.45    3.89
   5   2   7   91.25    7.87
  -5  -2  -7   85.29    7.57
   5   2   7   83.84    7.31
   5  -2   7   87.95    7.62
  -5  -2  -7   86.44    7.10
  -5  -2  -7   92.56    7.85
  -5   2  -7   80.34    7.56
  -5   2  -7   92.26    7.81
   5  -2   7   90.48    7.93
   5   2   7   92.47    8.00
   5   2   8   48.72    6.57
  -5  -2  -8   43.70    6.14
   5   2   8   33.50    5.94
   5  -2   8   41.11    6.55
   5   2   8   34.64    5.71
  -5  -2  -8   35.02    5.73
  -5   2  -8   28.89    5.58
  -5  -2  -8   37.56    5.73
   5  -2   8   41.18    6.10
   5   2   9   44.08    6.64
  -5  -2  -9   38.22    6.05
   5   2   9   46.39    6.87
   5  -2   9   33.28    6.10
  -5  -2  -9   37.93    5.68
   5   2   9   29.82    5.98
  -5   2  -9   15.47    6.65
  -5   2  -9   48.66    6.41
  -5  -2  -9   39.51    5.97
   5  -2   9   44.27    6.47
   5   2  10  217.33   13.23
  -5  -2 -10  206.85   12.40
   5   2  10  217.96   12.70
   5  -2  10  186.90   12.59
  -5  -2 -10  199.18   11.75
  -5  -2 -10  220.30   12.78
  -5   2 -10  213.67   12.14
   5   2  10  217.95   13.20
   5  -2  10  212.38   12.70
   5   2  11   78.49    9.44
  -5  -2 -11   81.53    9.03
  -5  -2 -11   94.26    9.13
  -5  -2 -11   87.45    9.09
   5   2  11   69.41    8.53
  -5   2 -11   89.81    8.64
   5  -2  11   67.80    7.99
  -5  -2 -12   -0.29    5.94
  -5  -2 -12    3.42    5.84
   5  -2  12   -3.72    5.76
   5   2  12    0.98    4.98
  -5   2 -12   -0.49    5.16
  -5   2 -13   -0.27    7.67
  -5  -3  -1  111.99    8.63
   5   3   1  100.88    8.74
   5   3   2    9.01    4.68
  -5  -3  -2   -2.81    3.64
  -5  -3  -2    0.23    3.44
   5   3   3    8.96    4.90
  -5  -3  -3    0.86    3.70
  -5  -3  -3    7.13    3.45
   5   3   3    5.70    4.44
  -5  -3  -4   74.49    7.68
   5   3   4   64.08    7.68
  -5  -3  -4   64.47    7.08
   5   3   4   75.11    7.88
   5  -3   5    5.38    4.17
   5   3   5    3.10    4.68
  -5  -3  -5   -0.26    3.94
  -5  -3  -5    9.59    4.30
   5   3   5   10.25    4.80
  -5   3  -5    3.31    3.93
   5  -3   6    1.50    4.09
   5   3   6    0.61    4.42
  -5  -3  -6   -1.78    4.37
  -5  -3  -6    5.90    4.40
   5  -3   6  -10.03    5.03
   5   3   6   -2.95    4.28
  -5   3  -6    5.15    3.93
  -5   3  -6   -0.76    4.38
   5  -3   7   -4.68    4.31
   5   3   7   -1.31    4.88
  -5  -3  -7   -4.75    4.49
  -5  -3  -7   -1.15    4.43
   5  -3   7    7.76    4.68
   5   3   7    3.07    4.25
  -5   3  -7   -1.76    4.15
  -5   3  -7    5.18    4.84
  -5  -3  -8  192.46   12.62
  -5  -3  -8  208.30   12.93
   5  -3   8  198.70   12.81
  -5   3  -8  208.09   12.58
   5   3   8  215.41   13.43
  -5   3  -8  230.37   13.87
   5   3   8  195.49   13.10
   5  -3   8  195.70   13.20
  -5  -3  -9  112.71   10.40
   5  -3   9   95.81    9.90
  -5   3  -9  119.34   10.45
  -5   3  -9  114.41   10.69
   5   3   9  106.18   10.52
   5  -3   9  110.57   10.62
   5   3  10    1.07    5.55
  -5  -3 -10    4.91    5.56
   5  -3  10    5.02    5.36
  -5   3 -10    9.12    5.77
  -5   3 -10   20.02    6.50
   5  -3  10   -1.95    5.44
   5  -3  11    9.92    6.33
  -5   3 -11   -0.36    5.33
  -5   3 -11    3.18    5.24
   5  -3  11    9.63    6.35
  -5  -4  -1    4.01    4.38
   5   4   1   14.62    6.56
  -5  -4  -2    6.14    4.46
   5   4   2   -2.60    5.96
   5   4   3    5.75    5.65
  -5  -4  -3   -4.13    5.07
   5   4   3   -6.87    5.86
   5   4   4    6.92    6.25
  -5  -4  -4   10.99    6.43
  -5  -4  -4   -2.17    4.61
   5   4   4   -8.16    6.27
   5   4   5   -8.64    6.76
  -5  -4  -5    1.18    5.02
  -5  -4  -5   -3.27    5.06
   5   4   5   -7.72    6.19
   5  -4   6   -0.30    4.98
   5   4   6    9.20    6.53
  -5  -4  -6    2.60    5.38
  -5  -4  -6    5.74    6.06
   5   4   6   17.19    7.40
  -5  -4  -7   -8.95    6.84
   6   0   5    0.77    2.81
  -6   0  -5   -1.51    2.99
   6   0   5    1.28    2.87
  -6   0  -5    1.53    2.84
   6   0   5   -4.30    3.74
   6   0   5   -1.37    3.12
  -6   0  -6 5998.22   52.36
   6   0   6 6011.04   54.46
   6   0   6 5948.47   54.21
   6   0   6 6033.55   54.19
  -6   0  -6 6002.88   51.52
  -6   0  -6 5981.73   53.79
  -6   0  -6 6016.49   53.21
   6   0   6 5993.72   49.91
  -6   0  -7    3.11    3.49
   6   0   7   -1.11    3.34
  -6   0  -7   -0.74    3.09
   6   0   7   -2.94    4.26
   6   0   7    2.12    3.35
  -6   0  -7   -4.30    3.57
  -6   0  -7   -3.40    3.52
   6   0   7    4.24    3.49
   6   0   8   89.40    7.99
   6   0   8   77.67    7.47
   6   0   8   72.35    7.11
  -6   0  -8   69.78    6.99
  -6   0  -8   92.31    8.02
  -6   0  -8   80.24    7.09
  -6   0  -9    3.49    4.18
   6   0   9   -4.24    4.30
   6   0   9   -4.82    3.73
  -6   0  -9    0.32    3.70
   6   0   9   -2.47    3.85
  -6   0  -9    3.48    3.87
  -6   0 -10    2.92    4.57
   6   0  10   15.75    5.19
   6   0  10   -3.16    4.19
  -6   0 -10   -0.47    3.74
   6   0  10    5.84    4.03
  -6   0 -10    5.63    4.32
   6   0  11    9.99    5.37
   6   0  11    0.97    4.06
  -6   0 -11  -10.91    4.63
   6   0  11    1.70    4.22
  -6   0 -11   -0.93    4.19
  -6   0 -11   -3.47    4.17
   6   0  12  119.64   10.98
   6   0  12  119.51   10.80
   6   0  12  134.37   10.92
   6   0  13    7.31    5.96
   6   0  13   -3.33    5.49
  -6   0 -13    1.93    4.92
   6   0  13    4.23    5.46
  -6   0 -13    6.78    5.22
  -6   0 -13    1.24    4.66
   6   0  14   16.06    6.74
  -6  -1  -4  565.44   16.43
   6   1   4  554.11   16.23
   6   1   4  552.90   16.19
  -6  -1  -4  590.86   16.57
  -6  -1  -4  538.82   15.31
   6   1   4  571.84   16.37
   6   1   5   26.71    4.77
  -6  -1  -5   27.71    4.40
  -6   1  -5   21.67    4.74
   6   1   5   27.63    4.73
  -6  -1  -5   16.67    3.74
   6   1   5   29.00    4.93
   6  -1   5   28.19    4.84
   6  -1   5   20.20    4.48
  -6   1  -5    8.89    5.00
  -6  -1  -5   27.79    4.43
  -6  -1  -6  230.67   10.98
   6   1   6  211.45   10.87
   6  -1   6  231.14   11.08
   6   1   6  231.99   11.48
   6  -1   6  230.77   11.29
   6  -1   6  213.19   11.56
  -6  -1  -6  225.80   11.03
  -6   1  -6  211.77   11.25
  -6  -1  -6  237.99   11.10
  -6   1  -6  221.26   11.03
   6   1   6  238.06   11.36
   6  -1   7    1.85    3.20
  -6  -1  -7    0.03    3.50
  -6   1  -7    1.55    3.68
   6   1   7   -2.87    4.31
  -6  -1  -7    3.58    3.40
  -6   1  -7    6.36    4.52
   6   1   7    2.61    3.73
   6  -1   7    7.42    3.97
  -6  -1  -7   -3.22    3.49
   6  -1   7   -2.05    3.51
  -6   1  -7   -0.64    3.86
   6   1   7    0.31    3.62
  -6  -1  -8  619.26   18.83
   6   1   8  603.54   19.21
   6  -1   8  589.94   18.69
   6   1   8  624.67   19.62
   6  -1   8  679.89   20.10
   6  -1   8  566.49   19.07
  -6  -1  -8  648.59   19.48
  -6  -1  -8  587.16   18.35
  -6   1  -8  574.34   18.81
  -6   1  -8  565.90   18.22
   6   1   8  627.85   19.19
   6   1   9   24.64    5.51
  -6  -1  -9   27.18    5.49
  -6  -1  -9   29.22    5.52
   6   1   9   25.44    5.33
   6  -1   9   30.54    5.50
   6  -1   9   23.40    5.70
  -6   1  -9   32.57    5.94
  -6   1  -9    7.87    5.83
   6   1   9   27.33    5.52
   6  -1   9   29.49    5.83
  -6  -1  -9   30.43    5.59
  -6   1  -9   23.20    5.43
   6   1  10    1.33    4.48
  -6  -1 -10   -4.81    4.77
  -6   1 -10   -1.21    3.74
   6   1  10    2.37    4.32
   6  -1  10    0.85    4.16
   6  -1  10   -4.71    4.82
   6   1  10    2.03    4.01
  -6   1 -10   -0.39    4.26
   6  -1  10   -0.06    4.17
  -6  -1 -10   -8.61    5.09
  -6   1 -10   -0.62    4.26
  -6  -1 -10  -12.00    5.45
   6   1  11   -5.75    4.99
  -6   1 -11    1.68    4.00
  -6  -1 -11   -0.73    4.64
   6   1  11   -5.13    5.27
   6  -1  11    1.16    5.06
   6  -1  11    8.45    5.44
   6   1  11    3.51    4.46
  -6   1 -11    2.44    4.45
  -6  -1 -11   -9.22    4.44
   6  -1  11   -6.35    4.88
  -6  -1 -11   -6.32    4.75
  -6   1 -11    2.52    4.73
   6   1  12   59.41    8.29
  -6   1 -12   54.94    7.63
  -6  -1 -12   69.72    8.81
   6   1  12   45.04    7.91
   6  -1  12   54.84    7.66
   6  -1  12   33.21    7.15
   6   1  12   57.63    8.41
  -6   1 -12   13.10    8.23
  -6  -1 -12   55.87    8.27
  -6  -1 -12   40.93    7.18
  -6   1 -12   42.14    7.93
   6  -1  12   38.30    6.97
  -6   1 -13   -4.62    5.70
   6  -1  13    6.98    5.82
  -6   1 -13   -1.01    5.13
  -6   1 -13   -5.54    6.17
   6  -1  13    3.85    5.06
   6  -1  14   12.80    6.87
  -6  -2  -3   30.73    4.50
   6   2   3   29.03    5.25
  -6  -2  -3   31.01    5.11
   6   2   3   25.57    4.22
  -6  -2  -4   24.98    4.37
   6   2   4   27.03    5.54
  -6  -2  -4   29.19    5.05
   6   2   4   34.53    5.50
  -6  -2  -5   60.87    6.45
   6   2   5   74.08    7.71
  -6  -2  -5   66.94    7.32
   6   2   5   71.15    7.29
   6   2   5   72.66    7.22
  -6  -2  -5   76.87    7.17
   6   2   5   72.39    7.29
  -6  -2  -5   66.05    6.55
  -6  -2  -6 1276.14   27.52
   6   2   6 1278.30   27.93
   6   2   6 1239.79   26.62
   6  -2   6 1198.20   28.38
  -6  -2  -6 1260.40   26.29
  -6  -2  -6 1216.09   25.20
   6   2   6 1339.31   29.07
   6   2   7  165.35   11.06
  -6  -2  -7  175.01   11.25
   6   2   7  169.66   10.68
   6  -2   7  139.97   10.62
  -6  -2  -7  167.89   10.66
  -6  -2  -7  164.90   10.30
  -6   2  -7  166.50   11.05
   6  -2   7  146.10   10.65
   6   2   7  156.22   10.65
   6  -2   8   -2.75    4.36
   6   2   8   -2.66    4.87
  -6  -2  -8    2.53    4.21
   6   2   8   -4.44    5.15
  -6  -2  -8    0.95    4.16
   6  -2   8    0.79    3.97
  -6   2  -8    0.35    4.86
  -6   2  -8    4.29    4.74
   6   2   8   -9.58    4.59
  -6  -2  -8    8.68    4.81
   6  -2   9   -0.82    4.40
   6   2   9   -1.53    4.79
  -6  -2  -9    1.43    4.01
  -6  -2  -9    1.47    4.36
   6   2   9    5.20    4.90
   6  -2   9   -4.34    5.10
  -6   2  -9   -0.61    4.64
  -6   2  -9    1.02    4.39
   6   2   9    8.24    4.99
  -6  -2  -9   -8.20    4.92
   6   2  10   -9.08    5.98
  -6  -2 -10    4.72    4.34
  -6  -2 -10    5.78    4.58
   6   2  10    1.17    4.93
   6  -2  10    2.30    5.07
  -6   2 -10    2.55    5.33
   6   2  10   -2.14    4.99
  -6  -2 -10    9.85    5.17
  -6  -2 -11    1.82    4.81
   6   2  11    7.03    5.88
  -6  -2 -11    9.64    5.87
   6   2  11   -8.75    6.73
   6  -2  11    3.80    5.23
  -6   2 -11    1.71    5.41
   6   2  11    8.87    5.87
  -6  -2 -11    4.52    5.10
   6   2  12   34.65    7.84
  -6  -2 -12   40.08    8.53
   6   2  12   20.82    7.30
  -6  -2 -12   34.21    7.50
  -6  -2 -12   43.67    8.42
   6   3   3    1.69    4.56
   6   3   3    6.78    4.87
   6   3   4   -3.70    4.98
  -6  -3  -4    9.06    4.87
  -6  -3  -4    6.30    4.38
   6   3   4    7.47    5.01
   6   3   5   16.76    6.05
  -6  -3  -5   14.89    4.60
  -6  -3  -5   19.82    5.50
   6   3   5   14.17    5.83
   6   3   6   14.02    6.18
  -6  -3  -6   21.73    5.66
  -6  -3  -6   18.31    5.62
   6   3   6    4.90    4.71
   6  -3   7   -1.91    4.70
   6   3   7    3.68    5.94
  -6  -3  -7    8.87    5.11
  -6  -3  -7    2.25    4.96
   6   3   7    4.44    5.09
  -6   3  -7    6.44    4.83
  -6   3  -7    1.26    5.17
   6  -3   8    8.62    5.26
   6   3   8   13.56    5.95
  -6  -3  -8   14.44    5.99
   6  -3   8   14.46    5.87
  -6   3  -8    7.04    5.31
  -6   3  -8    8.21    5.95
   6  -3   9   25.49    7.18
   6   3   9   19.37    6.98
  -6  -3  -9   17.41    6.66
   6  -3   9   32.77    7.50
  -6   3  -9   19.35    6.08
  -6   3  -9   12.39    6.31
   6   4   4   -1.97    6.66
  -6  -4  -4   -1.93    5.22
  -6  -4  -5   -6.42    5.28
   7   0   6  551.30   18.43
   7   0   6  527.68   17.94
  -7   0  -6  552.09   17.24
  -7   0  -6  493.12   17.08
  -7   0  -6  535.38   17.50
  -7   0  -7    7.21    4.50
   7   0   7   -2.10    3.90
  -7   0  -7    0.05    3.71
   7   0   7   -1.48    3.95
   7   0   7   -0.30    3.68
  -7   0  -7    2.25    3.80
   7   0   8    7.45    4.75
  -7   0  -8    5.95    4.97
  -7   0  -8   -1.52    3.77
   7   0   8    2.63    4.65
   7   0   8    0.05    3.74
  -7   0  -8   -2.85    4.34
  -7   0  -9   -0.28    4.32
   7   0   9    4.28    5.01
   7   0   9    1.74    4.07
  -7   0  -9   -1.48    4.44
   7   0   9    2.04    4.00
  -7   0  -9    5.92    4.88
   7   0  10   71.88    8.95
   7   0  10   59.82    7.81
  -7   0 -10   46.21    8.08
  -7   0 -10   54.74    8.39
  -7   0 -10   49.00    8.63
   7   0  10   57.51    8.18
   7   0  11    9.47    6.40
  -7   0 -11   -0.88    4.62
   7   0  11    0.17    4.56
  -7   0 -11    5.13    4.77
  -7   0 -11    2.50    5.14
   7   0  11    0.43    4.70
   7   0  12   37.98    8.53
  -7   0 -12   42.50    7.57
   7   0  12   53.14    8.64
  -7   0 -12   45.08    8.41
  -7   0 -12   46.49    8.13
   7   0  12   45.55    8.06
   7   0  13    5.42    5.71
  -7   0 -13    0.63    5.49
  -7  -1  -6    7.66    4.57
   7   1   6    3.67    4.09
   7   1   6   -1.14    4.44
  -7  -1  -6    6.32    4.52
  -7  -1  -6    4.32    4.57
   7   1   6    0.93    4.04
  -7  -1  -7   11.66    5.05
   7   1   7    8.62    4.51
  -7   1  -7    2.65    4.21
   7   1   7    9.42    4.61
  -7  -1  -7    6.15    4.00
   7   1   7    6.38    4.52
   7  -1   7    1.87    4.43
   7  -1   7   -4.23    4.39
  -7   1  -7    5.02    5.46
  -7  -1  -7    4.44    3.90
  -7  -1  -8   -0.18    4.26
   7   1   8    3.35    4.38
  -7   1  -8    3.55    4.38
   7  -1   8   -3.78    3.76
  -7   1  -8    4.59    3.94
   7   1   8   -4.47    4.59
  -7  -1  -8   -1.60    3.89
  -7  -1  -8   -1.28    4.00
   7   1   8   -4.09    4.52
   7  -1   8   -3.38    4.73
   7  -1   8    2.02    4.25
  -7   1  -8   -1.35    4.56
   7  -1   9    8.54    4.42
   7   1   9   18.03    5.53
  -7   1  -9    3.94    4.25
  -7  -1  -9    9.68    4.57
   7   1   9   11.31    5.22
   7  -1   9   16.94    6.02
   7  -1   9    9.38    5.16
  -7   1  -9    3.18    5.23
  -7  -1  -9   15.67    5.27
   7   1   9   13.90    5.06
  -7  -1  -9   14.87    5.72
  -7   1  -9   -1.68    4.57
   7  -1  10   31.58    6.50
   7   1  10   45.18    7.34
  -7  -1 -10   40.62    6.70
  -7   1 -10   31.98    6.55
   7   1  10   46.21    7.81
   7  -1  10   37.78    7.15
   7  -1  10   23.94    6.37
  -7  -1 -10   32.77    6.50
  -7   1 -10    9.09    6.73
  -7  -1 -10   32.60    6.77
   7   1  10   28.66    6.84
  -7   1 -10   14.77    6.96
   7   1  11    3.60    5.54
  -7   1 -11   -0.24    4.46
  -7  -1 -11    4.04    4.90
   7   1  11    0.13    5.38
   7  -1  11   -0.32    5.18
  -7  -1 -11   -1.22    4.91
   7  -1  11   15.99    6.25
  -7   1 -11    1.51    6.11
  -7  -1 -11   -1.74    5.18
  -7   1 -11    5.86    5.66
   7   1  11    2.49    4.77
   7  -1  11   12.34    5.90
   7  -1  12    9.52    6.47
  -7   1 -12   -2.09    6.01
   7  -1  12    9.86    6.11
  -7   1 -12   -2.33    5.23
  -7  -2  -5   66.54    6.98
  -7  -2  -5   76.52    8.02
   7   2   5   73.55    7.71
   7   2   5   81.83    8.58
  -7  -2  -6   56.46    7.20
   7   2   6   65.44    8.19
  -7  -2  -6   59.00    7.27
   7   2   6   52.19    7.39
   7   2   7    7.62    4.46
   7   2   7   22.45    6.25
  -7  -2  -7   18.41    5.35
   7   2   7   15.95    5.69
  -7  -2  -7   15.18    5.18
  -7  -2  -7   21.46    5.85
   7   2   8   -1.55    4.25
   7   2   8    5.51    5.04
  -7  -2  -8   12.66    5.33
   7   2   8   -8.59    6.01
   7  -2   8    1.78    4.66
  -7  -2  -8    1.48    3.95
  -7   2  -8   -0.32    5.74
  -7  -2  -8    4.32    5.23
   7   2   9    4.98    5.36
  -7  -2  -9    1.41    4.44
  -7  -2  -9    1.58    4.77
   7   2   9   -5.33    6.13
   7  -2   9    0.29    4.98
  -7   2  -9   -0.70    5.88
  -7  -2  -9    3.96    5.30
   7   2   9   -8.93    5.56
  -7  -2 -10   17.98    6.05
   7   2  10   20.22    7.03
  -7  -2 -10   27.71    7.03
   7   2  10   30.62    7.55
   7  -2  10   33.91    9.63
  -7   2 -10    4.15    9.89
  -7  -2 -10   20.67    6.38
   7   2  10   29.36    7.18
  -7  -2 -11    8.10    6.04
   7   3   5   15.68    6.49
   7   3   6    1.00    5.81
  -7  -3  -6   -0.87    4.66
   7   3   7   -6.79    5.98
  -7  -3  -7   -1.26    5.24
   8   0   9   -2.78    4.76
  -8   0  -9   -5.72    5.10
   8   0   9    6.04    5.35
  -8   0  -9   -2.60    4.98
  -8   0  -9    0.49    4.96
   8   0  10   -3.71    5.27
  -8   0 -10   -0.39    4.86
   8   0  10    2.88    6.18
   8   0  10   -8.05    6.17
  -8   0 -10    2.37    5.13
  -8   0 -10    8.48    5.83
   8   0  11    4.35    5.81
  -8   0 -11   -1.06    5.64
  -8  -1  -8   58.47    8.48
   8   1   8   52.36    7.80
   8   1   8   46.57    7.51
   8   1   8   54.62    7.99
  -8  -1  -8   59.04    7.54
   8   1   9    8.64    5.95
   8   1   9    9.57    5.66
   8   1   9   -7.24    5.69
  -8  -1  -9   -4.10    5.83
  -8  -1  -9   10.62    6.42
  -8  -1 -10   49.56    8.69
  -8  -1 -10   53.49    9.89
   8  -1  10   29.77    8.00
   8  -1  10   28.35    8.08
  -8   1 -10    7.67    7.71
  -8   1 -10   15.03    8.33
   8  -1  11   49.06    8.84
   8   2   8   -2.15    5.98
  -8  -2  -8    3.81    5.09
   8   2   8    0.15    5.48
  -8  -2  -8    0.07    5.38
   8   2   9   20.05    7.41
  -8  -2  -9    2.21    5.23
   0   0   0    0.00    0.00


TITL dipropyl_ether_phase_alpha_1_70GPa in P2(1)/c
REM P2(1)/c (#14 in standard setting)
CELL 0.71073   9.416002   4.181743  15.578610  90.0000 101.2307  90.0000
ZERR    4.00   0.004019   0.000282   0.006549   0.0000   0.0503   0.0000
LATT  1
SYMM -x, y+1/2,-z+1/2
SFAC C H O
UNIT 24.00 56.00 4.00
TREF
HKLF 4
END
_computing_structure_solution     'SHELXT 2018/2 (Sheldrick, 2018)'
;
_shelx_hkl_checksum              64428
_olex2_submission_special_instructions 'No special instructions were received'
loop_
_space_group_symop_operation_xyz
'x, y, z'
'-x, y+1/2, -z+1/2'
'-x, -y, -z'
'x, -y-1/2, z-1/2'
loop_
_atom_site_label
_atom_site_type_symbol
_atom_site_fract_x
_atom_site_fract_y
_atom_site_fract_z
_atom_site_U_iso_or_equiv
_atom_site_adp_type
_atom_site_occupancy
_atom_site_site_symmetry_order
_atom_site_calc_flag
_atom_site_refinement_flags_posn
_atom_site_refinement_flags_adp
_atom_site_refinement_flags_occupancy
_atom_site_disorder_assembly
_atom_site_disorder_group
O1 O 0.4584(3) 0.8467(3) 0.1317(2) 0.060(4) Uani 1 1 d . . . . .
C1 C 0.3752(5) 0.7145(5) 0.0533(3) 0.058(5) Uani 1 1 d . . . . .
H11 H 0.381195 0.482954 0.055219 0.070 Uiso 1 1 calc R U . . .
H12 H 0.412714 0.788437 0.003069 0.070 Uiso 1 1 calc R U . . .
C2 C 0.2192(5) 0.8192(5) 0.0453(3) 0.055(5) Uani 1 1 d . . . . .
H22 H 0.215342 1.049577 0.051684 0.066 Uiso 1 1 calc R U . . .
H21 H 0.178636 0.722202 0.091687 0.066 Uiso 1 1 calc R U . . .
C3 C 0.1296(7) 0.7211(5) -0.0435(4) 0.070(5) Uani 1 1 d . . . . .
H33 H 0.033105 0.804050 -0.049320 0.105 Uiso 1 1 calc R U . . .
H31 H 0.125959 0.492113 -0.047613 0.105 Uiso 1 1 calc R U . . .
H32 H 0.173411 0.805742 -0.089436 0.105 Uiso 1 1 calc R U . . .
C4 C 0.6010(5) 0.7224(6) 0.1490(3) 0.054(5) Uani 1 1 d . . . . .
H41 H 0.651228 0.788187 0.103195 0.065 Uiso 1 1 calc R U . . .
H42 H 0.597459 0.490543 0.149471 0.065 Uiso 1 1 calc R U . . .
C5 C 0.6821(5) 0.8410(5) 0.2361(3) 0.057(5) Uani 1 1 d . . . . .
H52 H 0.636877 0.757803 0.282339 0.068 Uiso 1 1 calc R U . . .
H51 H 0.676959 1.072595 0.237591 0.068 Uiso 1 1 calc R U . . .
C6 C 0.8394(6) 0.7377(5) 0.2520(4) 0.064(6) Uani 1 1 d . . . . .
H63 H 0.890335 0.830768 0.305550 0.096 Uiso 1 1 calc R U . . .
H61 H 0.882544 0.807961 0.204295 0.096 Uiso 1 1 calc R U . . .
H62 H 0.844893 0.508801 0.256252 0.096 Uiso 1 1 calc R U . . .
loop_
_atom_site_aniso_label
_atom_site_aniso_U_11
_atom_site_aniso_U_22
_atom_site_aniso_U_33
_atom_site_aniso_U_23
_atom_site_aniso_U_13
_atom_site_aniso_U_12
O1 0.049(5) 0.0445(10) 0.071(5) -0.0060(11) -0.025(5) 0.0031(10)
C1 0.055(7) 0.0386(12) 0.065(7) 0.0007(16) -0.026(7) -0.0009(15)
C2 0.045(7) 0.0441(13) 0.066(7) -0.0012(17) -0.014(7) 0.0021(16)
C3 0.060(7) 0.0557(14) 0.076(7) 0.0025(18) -0.032(7) -0.0001(17)
C4 0.041(7) 0.0416(13) 0.067(7) 0.0046(16) -0.019(7) 0.0010(14)
C5 0.049(6) 0.0449(12) 0.065(6) 0.0025(18) -0.018(6) 0.0004(16)
C6 0.051(8) 0.0605(15) 0.066(7) 0.0095(19) -0.025(7) -0.0066(18)
loop_
_atom_type_symbol
_atom_type_description
_atom_type_scat_dispersion_real
_atom_type_scat_dispersion_imag
_atom_type_scat_source
C C 0.0033 0.0016 'International Tables Vol C Tables 4.2.6.8 and 6.1.1.4'
H H 0.0000 0.0000 'International Tables Vol C Tables 4.2.6.8 and 6.1.1.4'
O O 0.0106 0.0060 'International Tables Vol C Tables 4.2.6.8 and 6.1.1.4'
loop_
_geom_angle_atom_site_label_1
_geom_angle_atom_site_label_2
_geom_angle_atom_site_label_3
_geom_angle
_geom_angle_site_symmetry_1
_geom_angle_site_symmetry_3
_geom_angle_publ_flag
C4 O1 C1 111.3(4) . . ?
O1 C1 H11 110.0 . . ?
O1 C1 H12 110.0 . . ?
O1 C1 C2 108.7(4) . . ?
H11 C1 H12 108.3 . . ?
C2 C1 H11 110.0 . . ?
C2 C1 H12 110.0 . . ?
C1 C2 H22 109.5 . . ?
C1 C2 H21 109.5 . . ?
C1 C2 C3 110.7(5) . . ?
H22 C2 H21 108.1 . . ?
C3 C2 H22 109.5 . . ?
C3 C2 H21 109.5 . . ?
C2 C3 H33 109.5 . . ?
C2 C3 H31 109.5 . . ?
C2 C3 H32 109.5 . . ?
H33 C3 H31 109.5 . . ?
H33 C3 H32 109.5 . . ?
H31 C3 H32 109.5 . . ?
O1 C4 H41 109.6 . . ?
O1 C4 H42 109.6 . . ?
O1 C4 C5 110.3(4) . . ?
H41 C4 H42 108.1 . . ?
C5 C4 H41 109.6 . . ?
C5 C4 H42 109.6 . . ?
C4 C5 H52 109.4 . . ?
C4 C5 H51 109.4 . . ?
C4 C5 C6 111.2(5) . . ?
H52 C5 H51 108.0 . . ?
C6 C5 H52 109.4 . . ?
C6 C5 H51 109.4 . . ?
C5 C6 H63 109.5 . . ?
C5 C6 H61 109.5 . . ?
C5 C6 H62 109.5 . . ?
H63 C6 H61 109.5 . . ?
H63 C6 H62 109.5 . . ?
H61 C6 H62 109.5 . . ?
loop_
_geom_bond_atom_site_label_1
_geom_bond_atom_site_label_2
_geom_bond_distance
_geom_bond_site_symmetry_2
_geom_bond_publ_flag
O1 C1 1.428(4) . ?
O1 C4 1.416(5) . ?
C1 H11 0.9700 . ?
C1 H12 0.9700 . ?
C1 C2 1.514(7) . ?
C2 H22 0.9700 . ?
C2 H21 0.9700 . ?
C2 C3 1.530(5) . ?
C3 H33 0.9600 . ?
C3 H31 0.9600 . ?
C3 H32 0.9600 . ?
C4 H41 0.9700 . ?
C4 H42 0.9700 . ?
C4 C5 1.505(4) . ?
C5 H52 0.9700 . ?
C5 H51 0.9700 . ?
C5 C6 1.516(7) . ?
C6 H63 0.9600 . ?
C6 H61 0.9600 . ?
C6 H62 0.9600 . ?
loop_
_geom_torsion_atom_site_label_1
_geom_torsion_atom_site_label_2
_geom_torsion_atom_site_label_3
_geom_torsion_atom_site_label_4
_geom_torsion
_geom_torsion_site_symmetry_1
_geom_torsion_site_symmetry_2
_geom_torsion_site_symmetry_3
_geom_torsion_site_symmetry_4
_geom_torsion_publ_flag
O1 C1 C2 C3 172.4(3) . . . . ?
O1 C4 C5 C6 -174.4(3) . . . . ?
C1 O1 C4 C5 -174.7(4) . . . . ?
C4 O1 C1 C2 172.0(3) . . . . ?
