#------------------------------------------------------------------------------
#$Date: 2024-03-04 22:01:14 +0200 (Mon, 04 Mar 2024) $
#$Revision: 290122 $
#$URL: file:///home/coder/svn-repositories/cod/cif/1/57/06/1570622.cif $
#------------------------------------------------------------------------------
#
# This file is available in the Crystallography Open Database (COD),
# http://www.crystallography.net/
#
# All data on this site have been placed in the public domain by the
# contributors.
#
data_1570622
loop_
_publ_author_name
'Kato, Yugo'
'Nishimura, Kazutoshi'
'Nishii, Yuji'
'Hirano, Koji'
_publ_section_title
;
 Direct synthesis of spirobifluorenes by formal dehydrative coupling of
 biaryls and fluorenones.
;
_journal_issue                   6
_journal_name_full               'Chemical science'
_journal_page_first              2112
_journal_page_last               2117
_journal_paper_doi               10.1039/d3sc05977d
_journal_volume                  15
_journal_year                    2024
_chemical_formula_moiety         'C38 H39 N'
_chemical_formula_sum            'C38 H39 N'
_chemical_formula_weight         509.70
_space_group_crystal_system      triclinic
_space_group_IT_number           2
_space_group_name_Hall           '-P 1'
_space_group_name_H-M_alt        'P -1'
_atom_sites_solution_hydrogens   geom
_atom_sites_solution_primary     dual
_audit_creation_date             2021-01-14
_audit_creation_method
;
Olex2 1.2
(compiled 2018.05.29 svn.r3508 for OlexSys, GUI svn.r5506)
;
_audit_update_record
;
2023-11-02 deposited with the CCDC.	2024-01-02 downloaded from the CCDC.
;
_cell_angle_alpha                116.431(3)
_cell_angle_beta                 95.048(2)
_cell_angle_gamma                94.470(2)
_cell_formula_units_Z            2
_cell_length_a                   10.9754(2)
_cell_length_b                   12.1150(4)
_cell_length_c                   12.3347(3)
_cell_measurement_reflns_used    8423
_cell_measurement_temperature    223(2)
_cell_measurement_theta_max      74.0890
_cell_measurement_theta_min      4.0260
_cell_volume                     1450.31(8)
_computing_cell_refinement       'CrysAlisPro 1.171.40.43a (Rigaku OD, 2019)'
_computing_data_collection       'CrysAlisPro 1.171.40.43a (Rigaku OD, 2019)'
_computing_data_reduction        'CrysAlisPro 1.171.40.43a (Rigaku OD, 2019)'
_computing_molecular_graphics    'Olex2 (Dolomanov et al., 2009)'
_computing_publication_material  'Olex2 (Dolomanov et al., 2009)'
_computing_structure_refinement  'ShelXL (Sheldrick, 2015)'
_computing_structure_solution    'ShelXT (Sheldrick, 2015)'
_diffrn_ambient_temperature      223(2)
_diffrn_detector                 'CCD plate'
_diffrn_detector_area_resol_mean 10.0000
_diffrn_detector_type            HyPix
_diffrn_measured_fraction_theta_full 1.000
_diffrn_measured_fraction_theta_max 0.983
_diffrn_measurement_details
;
List of Runs (angles in degrees, time in seconds):

  # Type    Start    End  Width  t~exp~   \w     \q     \k     \f   Frames
#--------------------------------------------------------------------------
  1  \w     43.00 121.00   0.50    0.73    --   42.80  35.00 -20.00  156
  2  \w    101.00 127.00   0.50    2.92    --   76.50  35.00 -20.00   52
  3  \w     70.00  96.00   0.50    2.92    --   76.50  35.00 -20.00   52
  4  \w     98.00 124.00   0.50    2.92    --   76.50 125.00-150.00   52
  5  \w     85.00 117.00   0.50    0.73    --   42.80 125.00-180.00   64
  6  \w     25.00  50.00   0.50    2.92    --   76.50 -35.00-177.00   50
  7  \w    -32.00  59.00   0.50    0.73    --   42.80 -35.00-177.00  182
  8  \w    -15.00  21.00   0.50    0.73    --  -42.80  35.00 -20.00   72
  9  \w    -62.00 -28.00   0.50    2.92    -- -106.00  35.00 -20.00   68
 10  \w    -77.00 -51.00   0.50    2.92    -- -106.00  57.00 -90.00   52
 11  \w    -98.00 -69.00   0.50    2.92    -- -106.00  37.00-180.00   58
 12  \w    -74.00 -33.00   0.50    2.92    -- -106.00  57.00-180.00   82
 13  \w    -67.00 -41.00   0.50    2.92    -- -106.00 125.00 -90.00   52
 14  \w    -69.00 -34.00   0.50    2.92    -- -106.00 125.00 -30.00   70
 15  \w    -59.00 -32.00   0.50    2.92    -- -106.00 125.00  60.00   54
 16  \w    -96.00 -59.00   0.50    0.73    --  -42.80 125.00 150.00   74
 17  \w   -127.00 -68.00   0.50    2.92    -- -106.00  57.00  90.00  118
 18  \w    -84.00 -29.00   0.50    2.92    -- -106.00  19.00 120.00  110
 19  \w   -111.00 -32.00   0.50    2.92    -- -106.00 125.00 150.00  158
 20  \w   -114.00 -35.00   0.50    2.92    -- -106.00 125.00  30.00  158
 21  \w   -117.00 -75.00   0.50    2.92    -- -106.00 125.00 -90.00   84
 22  \w   -115.00 -63.00   0.50    2.92    -- -106.00 125.00-120.00  104
 23  \w   -105.00 -50.00   0.50    2.92    -- -106.00  77.00 -90.00  110
 24  \w   -119.00 -93.00   0.50    2.92    -- -106.00  35.00 -20.00   52
 25  \w   -113.00 -32.00   0.50    2.92    -- -106.00  77.00  30.00  162
 26  \w   -108.00 -83.00   0.50    2.92    -- -106.00 125.00  90.00   50
 27  \w   -108.00 -65.00   0.50    2.92    -- -106.00 125.00  60.00   86
 28  \w   -117.00 -61.00   0.50    2.92    -- -106.00 125.00   0.00  112
 29  \w   -118.00 -81.00   0.50    2.92    -- -106.00  57.00 -90.00   74
 30  \w   -114.00 -35.00   0.50    2.92    -- -106.00 125.00-180.00  158
 31  \w   -113.00 -88.00   0.50    2.92    -- -106.00  57.00-180.00   50
 32  \w   -120.00 -63.00   0.50    0.73    --  -42.80 -35.00-177.00  114
 33  \w      2.00 102.00   0.50    2.92    --   76.50 -77.00  30.00  200
 34  \w    -44.00 -19.00   0.50    0.73    --  -42.80 -35.00-177.00   50
 35  \w   -115.00 -71.00   0.50    0.73    --  -42.80-125.00-180.00   88
 36  \w   -152.00 -95.00   0.50    2.92    -- -106.00 -35.00-177.00  114
 37  \w   -155.00-130.00   0.50    2.92    -- -106.00 -37.00-120.00   50
 38  \w   -177.00 -75.00   0.50    2.92    -- -106.00 -19.00-120.00  204
 39  \w   -136.00 -83.00   0.50    2.92    -- -106.00-125.00  30.00  106
 40  \w   -101.00 -75.00   0.50    0.73    --  -42.80-125.00 120.00   52
 41  \w   -171.00-144.00   0.50    2.92    -- -106.00-125.00  30.00   54
 42  \w   -174.00 -85.00   0.50    2.92    -- -106.00 -99.00   0.00  178
 43  \w   -172.00-112.00   0.50    2.92    -- -106.00 -37.00 120.00  120
 44  \w   -134.00-109.00   0.50    2.92    -- -106.00  19.00 120.00   50
 45  \w   -176.00-149.00   0.50    2.92    -- -106.00 -99.00 150.00   54
 46  \w   -177.00-111.00   0.50    2.92    -- -106.00 -57.00-150.00  132
;
_diffrn_measurement_device       'four-circle diffractometer'
_diffrn_measurement_device_type
'XtaLAB Synergy, Single source at offset/far, HyPix'
_diffrn_measurement_method       '\w scans'
_diffrn_orient_matrix_type
'CrysAlisPro convention (1999,Acta A55,543-557)'
_diffrn_orient_matrix_UB_11      0.1384506000
_diffrn_orient_matrix_UB_12      -0.0055991000
_diffrn_orient_matrix_UB_13      -0.0105080000
_diffrn_orient_matrix_UB_21      -0.0239376000
_diffrn_orient_matrix_UB_22      -0.1431321000
_diffrn_orient_matrix_UB_23      -0.0628264000
_diffrn_orient_matrix_UB_31      -0.0215111000
_diffrn_orient_matrix_UB_32      -0.0010266000
_diffrn_orient_matrix_UB_33      -0.1255808000
_diffrn_radiation_monochromator  mirror
_diffrn_radiation_probe          x-ray
_diffrn_radiation_type           CuK\a
_diffrn_radiation_wavelength     1.54184
_diffrn_reflns_av_R_equivalents  0.0384
_diffrn_reflns_av_unetI/netI     0.0440
_diffrn_reflns_Laue_measured_fraction_full 1.000
_diffrn_reflns_Laue_measured_fraction_max 0.983
_diffrn_reflns_limit_h_max       13
_diffrn_reflns_limit_h_min       -13
_diffrn_reflns_limit_k_max       15
_diffrn_reflns_limit_k_min       -14
_diffrn_reflns_limit_l_max       10
_diffrn_reflns_limit_l_min       -15
_diffrn_reflns_number            20471
_diffrn_reflns_point_group_measured_fraction_full 1.000
_diffrn_reflns_point_group_measured_fraction_max 0.983
_diffrn_reflns_theta_full        67.684
_diffrn_reflns_theta_max         74.274
_diffrn_reflns_theta_min         4.041
_diffrn_source                   'micro-focus sealed X-ray tube'
_diffrn_source_type              'PhotonJet (Cu) X-ray Source'
_exptl_absorpt_coefficient_mu    0.498
_exptl_absorpt_correction_T_max  1.00000
_exptl_absorpt_correction_T_min  0.63235
_exptl_absorpt_correction_type   multi-scan
_exptl_absorpt_process_details
;
CrysAlisPro 1.171.40.43a (Rigaku Oxford Diffraction, 2019)
Empirical absorption correction using spherical harmonics,
 implemented in SCALE3 ABSPACK scaling algorithm.
;
_exptl_crystal_colour            yellow
_exptl_crystal_colour_primary    yellow
_exptl_crystal_density_diffrn    1.167
_exptl_crystal_description       plate
_exptl_crystal_F_000             548
_exptl_crystal_size_max          0.371
_exptl_crystal_size_mid          0.062
_exptl_crystal_size_min          0.033
_refine_diff_density_max         0.575
_refine_diff_density_min         -0.336
_refine_diff_density_rms         0.049
_refine_ls_extinction_method     none
_refine_ls_goodness_of_fit_ref   1.066
_refine_ls_hydrogen_treatment    constr
_refine_ls_matrix_type           full
_refine_ls_number_parameters     462
_refine_ls_number_reflns         5815
_refine_ls_number_restraints     0
_refine_ls_restrained_S_all      1.066
_refine_ls_R_factor_all          0.0829
_refine_ls_R_factor_gt           0.0723
_refine_ls_shift/su_max          0.000
_refine_ls_shift/su_mean         0.000
_refine_ls_structure_factor_coef Fsqd
_refine_ls_weighting_details
'w=1/[\s^2^(Fo^2^)+(0.1129P)^2^+0.4895P] where P=(Fo^2^+2Fc^2^)/3'
_refine_ls_weighting_scheme      calc
_refine_ls_wR_factor_gt          0.2040
_refine_ls_wR_factor_ref         0.2161
_reflns_Friedel_coverage         0.000
_reflns_number_gt                4776
_reflns_number_total             5815
_reflns_threshold_expression     'I > 2\s(I)'
_cod_data_source_file            d3sc05977d2.cif
_cod_data_source_block           210114_1
_cod_depositor_comments
'Adding full bibliography for 1570621--1570629.cif.'
_cod_original_cell_volume        1450.31(7)
_cod_database_code               1570622
_shelx_shelxl_version_number     2017/1
_chemical_oxdiff_formula         'C56 H34 N2'
_shelx_space_group_comment
;
The symmetry employed for this shelxl refinement is uniquely defined
by the following loop, which should always be used as a source of
symmetry information in preference to the above space-group names.
They are only intended as comments.
;
_reflns_odcompleteness_completeness 99.77
_reflns_odcompleteness_iscentric 1
_reflns_odcompleteness_theta     71.98
_olex2_refinement_description
;
1. Fixed Uiso
 At 1.2 times of:
  All C(H) groups, All C(H,H) groups
 At 1.5 times of:
  All C(H,H,H) groups
2. Others
 Fixed Sof: C21(0.5) H21A(0.5) H21B(0.5) C29(0.5) H29A(0.5) H29B(0.5)
 C9AA(0.5) H9AA(0.5) H9AB(0.5) C5AA(0.5) H5AA(0.5) H5AB(0.5) C2AA(0.5)
 H2AA(0.5) H2AB(0.5) C4AA(0.5) H4AA(0.5) H4AB(0.5) C1AA(0.5) H1AA(0.5)
 H1AB(0.5) C7AA(0.5) H7AA(0.5) H7AB(0.5) C6AA(0.5) H6AA(0.5) H6AB(0.5)
 C8AA(0.5) H8AA(0.5) H8AB(0.5) C0BA(0.5) H0BA(0.5) H0BB(0.5) C2BA(0.5)
 H2BA(0.5) H2BB(0.5) H2BC(0.5) C4BA(0.5) H4BA(0.5) H4BB(0.5) C7BA(0.5)
 H7BA(0.5) H7BB(0.5) C6BA(0.5) H6BA(0.5) H6BB(0.5) C8BA(0.5) H8BA(0.5)
 H8BB(0.5) H8BC(0.5) C5BA(0.5) H5BA(0.5) H5BB(0.5) C1CA(0.5) H1CA(0.5)
 H1CB(0.5) C0CA(0.5) H0CA(0.5) H0CB(0.5) C9BA(0.5) H9BA(0.5) H9BB(0.5)
 C2CA(0.5) H2CA(0.5) H2CB(0.5) C3CA(0.5) H3CA(0.5) H3CB(0.5) C4CA(0.5)
 H4CA(0.5) H4CB(0.5) C5CA(0.5) H5CA(0.5) H5CB(0.5)
3.a Secondary CH2 refined with riding coordinates:
 C21(H21A,H21B), C29(H29A,H29B), C9AA(H9AA,H9AB), C5AA(H5AA,H5AB), C2AA(H2AA,
 H2AB), C4AA(H4AA,H4AB), C1AA(H1AA,H1AB), C7AA(H7AA,H7AB), C6AA(H6AA,H6AB),
 C8AA(H8AA,H8AB), C0BA(H0BA,H0BB), C4BA(H4BA,H4BB), C7BA(H7BA,H7BB), C6BA(H6BA,
 H6BB), C5BA(H5BA,H5BB), C1CA(H1CA,H1CB), C0CA(H0CA,H0CB), C9BA(H9BA,H9BB),
 C2CA(H2CA,H2CB), C3CA(H3CA,H3CB), C4CA(H4CA,H4CB), C5CA(H5CA,H5CB)
3.b Aromatic/amide H refined with riding coordinates:
 C23(H23), C24(H24), C25(H25), C5(H5), C28(H28), C8(H8), C26(H26), C27(H27),
 C7(H7), C6(H6), C0AA(H0AA), C3AA(H3AA), C3BA(H3BA), C1BA(H1BA)
3.c Idealised Me refined as rotating group:
 C2BA(H2BA,H2BB,H2BC), C8BA(H8BA,H8BB,H8BC)
;
_shelx_res_file
;
TITL 210114_1_a.res in P-1
    210114_1.res
    created by SHELXL-2017/1 at 20:39:35 on 14-Jan-2021
REM Old TITL 210114_1 in P-1
REM SHELXT solution in P-1
REM R1 0.313, Rweak 0.019, Alpha 0.077, Orientation as input
REM Formula found by SHELXT: C30 N7
CELL 1.54184 10.9754 12.115 12.3347 116.431 95.048 94.47
ZERR 2 0.0002 0.0004 0.0003 0.003 0.002 0.002
LATT 1
SFAC C H N
UNIT 76 78 2

L.S. 20
PLAN  5
BOND $H
LIST 6
fmap 2
ACTA
REM <olex2.extras>
REM <HklSrc "%.\\210114_1.hkl">
REM </olex2.extras>

WGHT    0.112900    0.489500
FVAR       0.57857
N18   3    1.000077    0.370898    0.346355    11.00000    0.03563    0.12784 =
         0.05664    0.06409    0.00300   -0.00189
C13   1    1.084021    0.479414    0.126525    11.00000    0.02584    0.06384 =
         0.03517    0.02476    0.00346    0.00445
C23   1    0.840536    0.449105    0.019418    11.00000    0.02365    0.07336 =
         0.04103    0.03008    0.00390    0.00448
AFIX  43
H23   2    0.759448    0.438979   -0.016013    11.00000   -1.20000
AFIX   0
C2    1    1.303869    0.412767    0.127926    11.00000    0.03104    0.06252 =
         0.03856    0.02843    0.00498    0.00639
C1    1    1.208822    0.489332    0.201045    11.00000    0.02748    0.06860 =
         0.03658    0.02931    0.00341    0.00574
C22   1    1.062827    0.507921    0.027712    11.00000    0.02611    0.05989 =
         0.03414    0.02344    0.00459    0.00501
C4    1    1.401877    0.616398    0.233850    11.00000    0.03145    0.06656 =
         0.04274    0.03061   -0.00199    0.00172
C9    1    1.281404    0.619343    0.264003    11.00000    0.03533    0.06604 =
         0.03482    0.02395   -0.00078    0.00760
C3    1    1.416039    0.488260    0.151590    11.00000    0.02832    0.06800 =
         0.04368    0.03269    0.00377    0.00628
C12   1    0.986355    0.437206    0.169288    11.00000    0.02898    0.07597 =
         0.03771    0.03137    0.00569    0.00539
C24   1    0.863327    0.422442    0.114693    11.00000    0.02591    0.08237 =
         0.04428    0.03665    0.00635    0.00248
AFIX  43
H24   2    0.798473    0.394657    0.143858    11.00000   -1.20000
AFIX   0
C10   1    1.165098    0.443671    0.289042    11.00000    0.03259    0.08674 =
         0.04153    0.03908    0.00518    0.00584
C11   1    1.040168    0.415384    0.268896    11.00000    0.03232    0.09161 =
         0.04283    0.04096    0.00542    0.00329
C25   1    1.517815    0.436983    0.099151    11.00000    0.03247    0.08618 =
         0.05928    0.04071    0.01307    0.01390
AFIX  43
H25   2    1.592537    0.486859    0.115104    11.00000   -1.20000
AFIX   0
C5    1    1.484100    0.726113    0.280744    11.00000    0.04333    0.07843 =
         0.06299    0.03854   -0.00859   -0.00624
AFIX  43
H5    2    1.563809    0.724932    0.260528    11.00000   -1.20000
AFIX   0
C28   1    1.292701    0.287429    0.052839    11.00000    0.04745    0.06488 =
         0.05627    0.02752    0.00526    0.00350
AFIX  43
H28   2    1.218403    0.237094    0.037409    11.00000   -1.20000
AFIX   0
C8    1    1.243660    0.730082    0.341453    11.00000    0.05317    0.08245 =
         0.04639    0.01786    0.00095    0.01752
AFIX  43
H8    2    1.164217    0.732257    0.362406    11.00000   -1.20000
AFIX   0
C26   1    1.506352    0.311659    0.023494    11.00000    0.04995    0.09240 =
         0.06514    0.03892    0.02048    0.02790
AFIX  43
H26   2    1.573797    0.276444   -0.012422    11.00000   -1.20000
AFIX   0
C14   1    1.211243    0.417375    0.384878    11.00000    0.03694    0.11278 =
         0.05398    0.05515    0.00196    0.00423
C27   1    1.395403    0.236938   -0.000018    11.00000    0.07222    0.06894 =
         0.06323    0.02429    0.01435    0.02276
AFIX  43
H27   2    1.389206    0.152120   -0.051625    11.00000   -1.20000
AFIX   0
C7    1    1.326905    0.838969    0.387894    11.00000    0.08238    0.06800 =
         0.06567    0.00699   -0.01285    0.01242
AFIX  43
H7    2    1.302427    0.914336    0.439962    11.00000   -1.20000
AFIX   0
C6    1    1.444653    0.836097    0.357558    11.00000    0.07697    0.06519 =
         0.07071    0.02243   -0.02218   -0.00760
AFIX  43
H6    2    1.498607    0.909697    0.389459    11.00000   -1.20000
AFIX   0
C19   1    1.104833    0.371242    0.418909    11.00000    0.03937    0.14489 =
         0.06497    0.07449    0.00056   -0.00052
PART 1
C21   1    0.874988    0.312677    0.343393    10.50000    0.03892    0.06905 =
         0.04419    0.03264    0.00950    0.00381
AFIX  23
H21A  2    0.817442    0.369753    0.344082    10.50000   -1.20000
H21B  2    0.873886    0.306481    0.419052    10.50000   -1.20000
AFIX   0
C29   1    0.405570    0.066538    0.205348    10.50000    0.07687    0.10881 =
         0.05741    0.02110    0.00836    0.00495
AFIX  23
H29A  2    0.447316   -0.006905    0.172629    10.50000   -1.20000
H29B  2    0.408053    0.101003    0.147960    10.50000   -1.20000
AFIX   0
C9AA  1    0.241245    0.008958    0.194147    10.50000    0.08216    0.11060 =
         0.08446    0.04747    0.01541    0.00752
AFIX  23
H9AA  2    0.229059    0.027767    0.277225    10.50000   -1.20000
H9AB  2    0.195473    0.064294    0.174120    10.50000   -1.20000
AFIX   0
C5AA  1    0.824866    0.186261    0.239700    10.50000    0.06240    0.05999 =
         0.09636    0.01953    0.03430    0.00115
AFIX  23
H5AA  2    0.853530    0.121728    0.257763    10.50000   -1.20000
H5AB  2    0.854349    0.177923    0.164898    10.50000   -1.20000
AFIX   0
PART 0
PART 2
C2AA  1    0.588416    0.127391    0.232630    10.50000    0.05320    0.10732 =
         0.06809    0.03077    0.01008   -0.00184
AFIX  23
H2AA  2    0.619013    0.064034    0.251449    10.50000   -1.20000
H2AB  2    0.596199    0.104395    0.147747    10.50000   -1.20000
AFIX   0
C4AA  1    0.663471    0.245341    0.309334    10.50000    0.06999    0.07353 =
         0.06843    0.03076    0.02294    0.00659
AFIX  23
H4AA  2    0.657002    0.267448    0.394282    10.50000   -1.20000
H4AB  2    0.631717    0.309003    0.291748    10.50000   -1.20000
AFIX   0
C1AA  1    0.453377    0.130684    0.249329    10.50000    0.06663    0.16315 =
         0.04477    0.02827   -0.00299    0.00531
AFIX  23
H1AA  2    0.424037    0.196692    0.234163    10.50000   -1.20000
H1AB  2    0.445533    0.150358    0.333506    10.50000   -1.20000
AFIX   0
PART 0
PART 1
C7AA  1    0.013166   -0.082034    0.265327    10.50000    0.10901    0.10214 =
         0.06778    0.02027   -0.00692    0.04194
AFIX  23
H7AA  2    0.066475   -0.118755    0.303525    10.50000   -1.20000
H7AB  2    0.033074    0.007572    0.311251    10.50000   -1.20000
AFIX   0
C6AA  1    0.042468   -0.123188    0.131335    10.50000    0.11744    0.10409 =
         0.07925    0.02450    0.00922    0.03573
AFIX  23
H6AA  2    0.006035   -0.208864    0.080916    10.50000   -1.20000
H6AB  2    0.003137   -0.072678    0.099459    10.50000   -1.20000
AFIX   0
C8AA  1   -0.119517   -0.117768    0.274581    10.50000    0.09821    0.07641 =
         0.15812    0.01776   -0.00632    0.01902
AFIX  23
H8AA  2   -0.173129   -0.085184    0.232214    10.50000   -1.20000
H8AB  2   -0.137978   -0.207692    0.232809    10.50000   -1.20000
AFIX   0
C0BA  1    0.173677   -0.113196    0.119684    10.50000    0.12870    0.09790 =
         0.08218    0.03121    0.01877    0.02871
AFIX  23
H0BA  2    0.210940   -0.171961    0.141338    10.50000   -1.20000
H0BB  2    0.182084   -0.137062    0.034762    10.50000   -1.20000
AFIX   0
C2BA  1   -0.146367   -0.075875    0.391935    10.50000    0.10367    0.08795 =
         0.14004    0.01863    0.03669    0.01074
AFIX 137
H2BA  2   -0.087222   -0.098653    0.437911    10.50000   -1.50000
H2BB  2   -0.227602   -0.112648    0.390438    10.50000   -1.50000
H2BC  2   -0.143056    0.012975    0.429531    10.50000   -1.50000
AFIX   0
PART 0
C0AA  1    1.327741    0.429291    0.449029    11.00000    0.03903    0.14080 =
         0.07245    0.07518   -0.00117    0.00300
AFIX  43
H0AA  2    1.398402    0.458776    0.428514    11.00000   -1.20000
AFIX   0
C3AA  1    1.335643    0.396695    0.542570    11.00000    0.04870    0.20355 =
         0.10003    0.11629   -0.01111   -0.00162
AFIX  43
H3AA  2    1.412479    0.404701    0.585596    11.00000   -1.20000
AFIX   0
C3BA  1    1.114240    0.337368    0.512902    11.00000    0.05314    0.20889 =
         0.09631    0.11973   -0.00233   -0.01016
AFIX  43
H3BA  2    1.044830    0.306161    0.533698    11.00000   -1.20000
AFIX   0
C1BA  1    1.230511    0.351754    0.574331    11.00000    0.06092    0.23673 =
         0.11053    0.14124   -0.01209   -0.00977
AFIX  43
H1BA  2    1.238991    0.330995    0.638436    11.00000   -1.20000
AFIX   0
PART 2
C4BA  1    0.186980   -0.013689    0.105877    10.50000    0.10501    0.15711 =
         0.10140    0.06786    0.00514   -0.01399
AFIX  23
H4BA  2    0.203627   -0.097124    0.087944    10.50000   -1.20000
H4BB  2    0.211518    0.001926    0.039785    10.50000   -1.20000
AFIX   0
C7BA  1   -0.001682   -0.154683    0.186440    10.50000    0.10136    0.12136 =
         0.10093    0.05608    0.00574    0.02292
AFIX  23
H7BA  2    0.082510   -0.157385    0.215587    10.50000   -1.20000
H7BB  2   -0.020195   -0.217565    0.101871    10.50000   -1.20000
AFIX   0
C6BA  1   -0.010040   -0.035655    0.191619    10.50000    0.09870    0.11132 =
         0.13363    0.05536    0.01792    0.00959
AFIX  23
H6BA  2    0.025281    0.027856    0.272580    10.50000   -1.20000
H6BB  2   -0.096468   -0.026309    0.179827    10.50000   -1.20000
AFIX   0
C8BA  1   -0.086230   -0.185957    0.259744    10.50000    0.09658    0.15175 =
         0.11119    0.07744    0.00908   -0.01821
AFIX 137
H8BA  2   -0.074399   -0.266026    0.253845    10.50000   -1.50000
H8BB  2   -0.170152   -0.187710    0.228910    10.50000   -1.50000
H8BC  2   -0.068613   -0.124283    0.343707    10.50000   -1.50000
AFIX   0
C5BA  1    0.052635   -0.014208    0.100451    10.50000    0.11316    0.21377 =
         0.14064    0.10239   -0.00024   -0.03334
AFIX  23
H5BA  2    0.015283   -0.077530    0.020137    10.50000   -1.20000
H5BB  2    0.034473    0.065225    0.106387    10.50000   -1.20000
AFIX   0
PART 0
PART 1
C1CA  1    0.675970    0.170764    0.222018    10.50000    0.09797    0.08577 =
         0.07441    0.02155    0.00425   -0.03389
AFIX  23
H1CA  2    0.647283    0.244554    0.222161    10.50000   -1.20000
H1CB  2    0.643117    0.099914    0.144542    10.50000   -1.20000
AFIX   0
C0CA  1    0.635754    0.153052    0.318580    10.50000    0.16235    0.09935 =
         0.07893    0.04652   -0.02759   -0.01225
AFIX  23
H0CA  2    0.678793    0.217688    0.395669    10.50000   -1.20000
H0CB  2    0.655097    0.073482    0.311337    10.50000   -1.20000
AFIX   0
C9BA  1    0.485471    0.156801    0.317230    10.50000    0.06709    0.13754 =
         0.09526    0.05988    0.01752   -0.00301
AFIX  23
H9BA  2    0.461491    0.143990    0.385040    10.50000   -1.20000
H9BB  2    0.469184    0.239576    0.332150    10.50000   -1.20000
AFIX   0
PART 0
PART 2
C2CA  1    0.801962    0.243157    0.290450    10.50000    0.05502    0.07761 =
         0.06773    0.03610    0.01172    0.00079
AFIX  23
H2CA  2    0.835778    0.181497    0.309936    10.50000   -1.20000
H2CB  2    0.810071    0.221656    0.205927    10.50000   -1.20000
AFIX   0
C3CA  1    0.870081    0.369332    0.372660    10.50000    0.03813    0.07837 =
         0.05123    0.03887    0.01363    0.00660
AFIX  23
H3CA  2    0.831481    0.431873    0.358329    10.50000   -1.20000
H3CB  2    0.868361    0.387665    0.457452    10.50000   -1.20000
AFIX   0
C4CA  1    0.267409    0.070787    0.215218    10.50000    0.07617    0.10509 =
         0.11167    0.06034    0.02104   -0.00679
AFIX  23
H4CA  2    0.248259    0.064352    0.287648    10.50000   -1.20000
H4CB  2    0.273923    0.156524    0.229152    10.50000   -1.20000
AFIX   0
C5CA  1    0.372000    0.008988    0.165419    10.50000    0.09650    0.10483 =
         0.08813    0.02900    0.02088    0.01429
AFIX  23
H5CA  2    0.371902   -0.015682    0.079035    10.50000   -1.20000
H5CB  2    0.386202   -0.059117    0.184083    10.50000   -1.20000
AFIX   0
HKLF 4




REM  210114_1_a.res in P-1
REM R1 =  0.0723 for    4776 Fo > 4sig(Fo)  and  0.0829 for all    5815 data
REM    462 parameters refined using      0 restraints

END

WGHT      0.1129      0.4895

REM Highest difference peak  0.575,  deepest hole -0.336,  1-sigma level  0.049
Q1    1   0.7214  0.1453  0.2875  11.00000  0.05    0.58
Q2    1   0.5946  0.2239  0.2386  11.00000  0.05    0.38
Q3    1   0.5057  0.0535  0.2561  11.00000  0.05    0.32
Q4    1  -0.1896 -0.0778  0.3048  11.00000  0.05    0.22
Q5    1   0.4363  0.0404  0.1203  11.00000  0.05    0.21
;
_shelx_res_checksum              2459
_shelx_hkl_file
;
   0   0  -1   77.82    4.12
   0   0  -1   71.04    4.10
   0   0  -2 1085.17   58.36
   0   0  -2 1047.99   58.33
   0   0  -3  140.75    7.90
   0   0  -4    0.08    0.30
   0   0  -5   25.95    1.79
   0   0  -6    1.83    0.25
   0   0  -6    1.95    0.53
   0   0  -7   71.72    5.21
   0   0  -7   90.56    4.87
   0   0  -8  115.36    5.60
   0   0  -8  104.93    5.62
   0   0  -8   97.32    5.55
   0   0  -8   86.51    5.47
   0   0  -8  100.65    5.53
   0   0  -8   99.98    5.63
   0   0  -8   88.69    5.56
   0   0  -8  102.73    5.63
   0   0  -8  104.97    5.66
   0   0  -9    6.43    0.70
   0   0  -9    7.54    0.62
   0   0  -9    7.85    0.68
   0   0  -9    5.14    0.64
   0   0  -9    6.50    0.70
   0   0  -9    6.99    0.58
   0   0  -9    8.42    0.73
   0   0  -9    7.12    0.71
   0   0 -10    1.84    0.37
   0   0 -10    1.62    0.44
   0   0 -10    1.67    0.45
   0   0 -10    1.68    0.41
   0   0 -11    1.37    0.47
   0   0 -11    1.81    0.42
   0   0 -11    1.66    0.33
   0   0 -11    1.41    0.42
   0   0 -11    1.78    0.35
   0   0 -11    1.50    0.40
   0   0 -12    3.43    0.43
   0   0 -12    4.44    0.50
   0   0 -12    3.11    0.38
   0   0 -12    3.13    0.37
   0   0 -12    3.59    0.45
   0   0 -12    3.54    0.47
   0   0 -13    7.84    0.57
   0   0 -13    7.84    0.58
   0   1 -14    0.34    0.17
   0   1 -13    2.52    0.39
   0   1 -13    2.56    0.37
   0   1 -13    2.67    0.31
   0   1 -13    2.16    0.36
   0   1 -12    4.05    0.49
   0   1 -12    3.81    0.50
   0   1 -12    3.79    0.46
   0   1 -12    4.62    0.55
   0   1 -11    0.11    0.23
   0   1 -11    0.43    0.32
   0   1 -11    0.34    0.40
   0   1 -11    0.24    0.38
   0   1 -11    0.40    0.34
   0   1 -10   32.87    2.09
   0   1 -10   35.29    2.04
   0   1 -10   28.60    1.93
   0   1 -10   34.76    2.05
   0   1 -10   34.49    2.08
   0   1 -10   32.52    2.00
   0   1 -10   29.57    1.99
   0   1 -10   30.59    2.01
   0   1 -10   33.52    2.09
   0   1  -9    5.50    0.60
   0   1  -9    5.25    0.56
   0   1  -9    4.76    0.55
   0   1  -9    4.86    0.60
   0   1  -9    6.05    0.58
   0   1  -9    5.44    0.60
   0   1  -9    6.01    0.55
   0   1  -9    4.17    0.41
   0   1  -9    6.99    0.64
   0   1  -9    5.82    0.49
   0   1  -8   10.68    0.73
   0   1  -8   11.73    0.79
   0   1  -8    9.63    1.15
   0   1  -8   10.68    0.85
   0   1  -8   11.98    0.78
   0   1  -8    7.84    0.76
   0   1  -8    9.72    0.82
   0   1  -8   10.75    0.80
   0   1  -8    9.59    0.81
   0   1  -7   72.59    3.98
   0   1  -7   61.29    4.35
   0   1  -6    0.20    0.17
   0   1  -6   -0.07    0.39
   0   1  -5    0.19    0.13
   0   1  -5   -0.16    0.32
   0   1  -4  154.73    8.72
   0   1  -3   15.23    0.90
   0   1  -3   17.59    1.06
   0   1  -2  201.01   11.03
   0   1  -1   67.04    3.76
   0   1   0 1998.60  107.78
   0   1   0 1936.38  107.78
   0   1   1  153.73    8.55
   0  -1  -1  157.12    8.60
   0  -1  -1  159.40    8.64
   0  -1  -2 1337.90   67.13
   0   1   2 1177.06   67.00
   0  -1  -2 1322.13   67.17
   0  -1  -3    5.11    0.55
   0  -1  -3    7.33    0.66
   0  -1  -4   17.83    1.40
   0  -1  -4   20.65    1.17
   0  -1  -5   10.59    1.05
   0  -1  -5   12.92    0.79
   0  -1  -6   17.00    1.07
   0  -1  -7  159.89    8.95
   0  -1  -7  161.07    8.98
   0  -1  -7  179.23    8.90
   0  -1  -7  166.33    9.04
   0  -1  -7  163.29    8.96
   0  -1  -7  144.00    8.82
   0  -1  -8   25.83    1.71
   0  -1  -8   30.79    1.88
   0  -1  -8   28.21    1.81
   0  -1  -8   34.00    1.92
   0  -1  -8   32.77    1.97
   0  -1  -8   28.68    1.77
   0  -1  -9   -0.23    0.43
   0  -1  -9    0.18    0.37
   0  -1  -9    0.52    0.24
   0  -1  -9    0.12    0.27
   0  -1  -9   -0.19    0.37
   0  -1 -10    2.42    0.38
   0  -1 -10    2.24    0.48
   0  -1 -10    2.40    0.47
   0  -1 -10    2.55    0.54
   0  -1 -11    3.45    0.43
   0  -1 -11    3.26    0.51
   0  -1 -11    3.47    0.50
   0  -1 -11    2.95    0.37
   0  -1 -11    2.97    0.43
   0  -1 -12    4.53    0.39
   0  -1 -12    4.10    0.47
   0  -1 -12    3.70    0.40
   0  -1 -12    3.76    0.45
   0  -1 -13    3.61    0.34
   0   2 -14    0.23    0.22
   0   2 -14    0.02    0.19
   0   2 -14    0.25    0.21
   0   2 -13    0.49    0.32
   0   2 -13    0.23    0.24
   0   2 -13    0.07    0.31
   0   2 -12   63.09    3.58
   0   2 -12   62.63    3.59
   0   2 -12   63.13    3.66
   0   2 -12   60.22    3.64
   0   2 -12   58.18    3.52
   0   2 -11    4.95    0.62
   0   2 -11    3.34    0.53
   0   2 -11    5.46    0.55
   0   2 -11    3.95    0.51
   0   2 -11    4.57    0.58
   0   2 -11    4.69    0.60
   0   2 -11    3.52    0.52
   0   2 -11    3.91    0.46
   0   2 -10    9.24    0.85
   0   2 -10    9.38    0.77
   0   2 -10    8.83    0.81
   0   2 -10    9.80    0.86
   0   2 -10    6.72    0.74
   0   2 -10    9.25    0.80
   0   2 -10    9.92    0.73
   0   2 -10    9.79    0.80
   0   2 -10   10.95    0.80
   0   2  -9    3.45    0.42
   0   2  -9    3.53    0.48
   0   2  -9    2.94    0.41
   0   2  -9    2.79    0.79
   0   2  -9    2.47    0.41
   0   2  -9    2.16    0.43
   0   2  -9    2.29    0.34
   0   2  -9    3.27    0.46
   0   2  -9    1.81    0.39
   0   2  -9    3.42    0.51
   0   2  -8   28.08    2.26
   0   2  -8   30.48    1.81
   0   2  -7  183.99    9.88
   0   2  -7  155.97   10.24
   0   2  -6   12.14    0.76
   0   2  -6   11.83    1.07
   0  -2   5  618.67   34.36
   0  -2   5  635.68   34.37
   0   2  -4  754.11   41.33
   0   2  -3 7245.19  396.28
   0   2  -2   30.09    1.87
   0   2  -2   31.99    1.99
   0   2  -1    1.09    0.30
   0   2   0  583.25   30.85
   0   2   0  545.84   30.83
   0   2   1 2231.98  122.14
   0  -2  -2   13.40    0.98
   0   2   2   12.59    0.80
   0  -2  -3    1.83    0.46
   0  -2  -3    2.05    0.22
   0  -2  -3    2.04    0.20
   0  -2  -4   18.14    1.08
   0  -2  -4   18.32    1.42
   0  -2  -5  147.99    8.20
   0  -2  -6    1.15    0.25
   0  -2  -7   11.87    0.96
   0  -2  -7    9.35    0.73
   0  -2  -7   10.75    0.86
   0  -2  -7   10.96    0.90
   0  -2  -8   27.15    1.86
   0  -2  -8   25.53    1.76
   0  -2  -8   29.08    1.74
   0  -2  -8   26.15    1.79
   0  -2  -9    3.58    0.53
   0  -2  -9    4.29    0.45
   0  -2  -9    4.41    0.55
   0  -2  -9    4.52    0.64
   0  -2  -9    4.04    0.55
   0  -2 -10    0.09    0.35
   0  -2 -10    0.14    0.21
   0  -2 -10    0.19    0.33
   0  -2 -10    0.40    0.42
   0  -2 -10    0.58    0.31
   0  -2 -11    6.31    0.54
   0  -2 -11    5.33    0.55
   0  -2 -11    6.91    0.63
   0  -2 -11    5.60    0.58
   0  -2 -11    5.42    0.52
   0  -2 -12   -0.25    0.22
   0  -2 -12    0.08    0.17
   0  -2 -12   -0.10    0.20
   0   3 -14    0.12    0.24
   0   3 -14    0.34    0.27
   0   3 -13   10.78    0.81
   0   3 -13    9.41    0.72
   0   3 -13    9.62    0.79
   0   3 -13    7.55    0.66
   0   3 -12   56.36    3.42
   0   3 -12   60.32    3.52
   0   3 -12   62.42    3.47
   0   3 -12   60.67    3.48
   0   3 -12   59.12    3.50
   0   3 -12   65.09    3.59
   0   3 -12   49.79    3.47
   0   3 -12   62.53    3.57
   0   3 -11   12.35    0.98
   0   3 -11   11.30    1.00
   0   3 -11   14.61    1.04
   0   3 -11   12.23    0.92
   0   3 -11   14.62    1.08
   0   3 -11   13.59    0.98
   0   3 -11   13.44    1.07
   0   3 -10    7.14    0.62
   0   3 -10    7.52    0.74
   0   3 -10    7.36    0.66
   0   3 -10    6.79    0.68
   0   3 -10    7.01    0.72
   0   3 -10    7.00    0.65
   0   3 -10    5.69    0.61
   0   3 -10    6.49    0.59
   0   3  -9    0.41    0.27
   0   3  -9    0.71    0.25
   0   3  -9    1.26    0.37
   0   3  -9    1.21    0.40
   0   3  -9    0.48    0.27
   0   3  -9    1.15    0.32
   0   3  -9    0.77    0.34
   0   3  -9    0.25    0.54
   0   3  -8    6.87    0.54
   0   3  -7  115.41    6.42
   0   3  -6  159.71    8.79
   0   3  -6  156.82    9.11
   0   3  -5  394.22   21.59
   0   3  -5  386.39   21.41
   0   3  -4   16.11    1.05
   0   3  -4   17.42    1.16
   0   3  -3   53.42    3.19
   0   3  -3   62.95    3.39
   0   3  -2  440.89   24.84
   0   3  -2  459.71   24.86
   0   3  -1   30.18    1.98
   0   3  -1   31.98    2.10
   0   3   0  100.52    5.64
   0   3   1 1409.00   77.19
   0   3   2   35.59    2.13
   0  -3  -2   37.83    2.31
   0  -3  -3    3.94    0.39
   0  -3  -3    4.59    0.33
   0  -3  -3    4.74    0.65
   0  -3  -4   13.90    0.99
   0  -3  -4   14.99    0.91
   0  -3  -4   16.14    1.31
   0  -3  -5   36.29    2.29
   0  -3  -5   39.51    2.23
   0  -3  -6    1.88    0.47
   0  -3  -6    1.85    0.36
   0  -3  -6    2.35    0.33
   0  -3  -6    2.40    0.45
   0  -3  -7    3.63    0.50
   0  -3  -7    2.90    0.51
   0  -3  -7    3.80    0.58
   0  -3  -7    3.64    0.45
   0  -3  -8    3.83    0.56
   0  -3  -8    3.86    0.63
   0  -3  -8    3.73    0.49
   0  -3  -8    3.98    0.52
   0  -3  -8    4.43    0.47
   0  -3  -9    1.34    0.43
   0  -3  -9    0.70    0.32
   0  -3  -9    0.73    0.34
   0  -3  -9    1.40    0.31
   0  -3 -10    1.54    0.27
   0  -3 -10    1.31    0.34
   0  -3 -10    2.24    0.39
   0  -3 -10    1.48    0.31
   0  -3 -10    1.81    0.37
   0  -3 -10    2.29    0.45
   0  -3 -11    0.06    0.27
   0  -3 -11    0.09    0.22
   0  -3 -11    0.40    0.24
   0   4 -14    0.12    0.27
   0   4 -14    0.59    0.31
   0   4 -13    0.54    0.32
   0   4 -13    0.74    0.26
   0   4 -13    0.47    0.37
   0   4 -13    1.11    0.33
   0   4 -13    1.03    0.39
   0   4 -12   20.31    1.42
   0   4 -12   17.99    1.27
   0   4 -12   19.79    1.33
   0   4 -12   22.55    1.44
   0   4 -12   18.75    1.28
   0   4 -12   19.27    1.36
   0   4 -12   19.34    1.35
   0   4 -11   12.21    0.92
   0   4 -11   12.27    1.04
   0   4 -11   12.66    0.92
   0   4 -11   13.12    1.01
   0   4 -11   13.33    1.07
   0   4 -11   13.63    0.98
   0   4 -11   11.91    0.97
   0   4 -10   32.40    2.07
   0   4 -10   31.84    2.09
   0   4 -10   36.67    2.19
   0   4 -10   33.97    2.13
   0   4 -10   37.64    2.23
   0   4 -10   36.95    2.17
   0   4 -10   35.42    2.10
   0   4  -9    2.28    0.33
   0   4  -9    2.36    0.33
   0   4  -9    2.44    0.39
   0   4  -9    2.03    0.33
   0   4  -9    3.12    0.42
   0   4  -9    2.54    0.41
   0   4  -8  107.66    6.00
   0   4  -8  104.55    6.49
   0   4  -7  112.57    6.28
   0   4  -7  114.76    6.71
   0   4  -6 1224.29   70.88
   0   4  -6 1444.77   71.13
   0   4  -5    4.43    0.47
   0   4  -5    5.93    0.60
   0   4  -4   76.41    4.26
   0   4  -4   71.91    4.29
   0   4  -3    8.94    0.67
   0   4  -3    7.81    0.81
   0   4  -3    8.20    0.82
   0   4  -2    1.69    0.45
   0   4  -2    1.34    0.42
   0   4  -1   67.97    3.90
   0   4  -1   63.40    3.74
   0   4   0   96.71    5.48
   0   4   1 1870.50  102.49
   0  -4  -2  158.10    9.31
   0  -4  -2  167.27    8.99
   0   4   2  153.32    9.13
   0  -4  -3    3.22    0.38
   0  -4  -3    3.32    0.30
   0  -4  -3    3.78    0.62
   0  -4  -4    4.52    0.74
   0  -4  -4    4.52    0.50
   0  -4  -4    4.88    0.40
   0  -4  -5    0.21    0.29
   0  -4  -5    0.13    0.19
   0  -4  -5    0.59    0.23
   0  -4  -5   -0.04    0.34
   0  -4  -6    1.45    0.49
   0  -4  -6    0.36    0.29
   0  -4  -6    0.92    0.29
   0  -4  -6    0.38    0.35
   0  -4  -6    0.23    0.30
   0  -4  -7   -0.04    0.33
   0  -4  -7    0.10    0.30
   0  -4  -7    0.20    0.36
   0  -4  -7   -0.18    0.43
   0  -4  -8    7.27    0.72
   0  -4  -8    8.26    0.64
   0  -4  -8    6.21    0.62
   0  -4  -8    6.39    0.75
   0  -4  -8    6.35    0.63
   0  -4  -8    6.98    0.66
   0  -4  -9    0.03    0.25
   0  -4  -9    0.44    0.31
   0  -4  -9    0.15    0.25
   0  -4  -9    0.16    0.27
   0  -4  -9   -0.19    0.36
   0  -4 -10    4.70    0.48
   0  -4 -10    4.24    0.42
   0  -4 -10    2.87    0.40
   0  -4 -10    3.02    0.33
   0  -4 -11    0.18    0.18
   0  -4 -11    0.33    0.16
   0   5 -15    1.71    0.25
   0   5 -14    0.46    0.31
   0   5 -14    0.43    0.21
   0   5 -13   -0.04    0.39
   0   5 -13   -0.18    0.29
   0   5 -13   -0.09    0.35
   0   5 -13    0.14    0.27
   0   5 -13    0.04    0.32
   0   5 -13    0.07    0.30
   0   5 -12    3.14    0.42
   0   5 -12    2.70    0.50
   0   5 -12    2.93    0.49
   0   5 -12    2.44    0.46
   0   5 -11   99.24    5.59
   0   5 -11   95.70    5.67
   0   5 -11   96.85    5.62
   0   5 -11  101.56    5.69
   0   5 -11  100.17    5.70
   0   5 -10   10.50    0.80
   0   5 -10    8.60    0.73
   0   5 -10    9.62    0.80
   0   5 -10    9.73    0.81
   0   5 -10   10.72    0.89
   0   5 -10    7.43    1.19
   0   5 -10    9.36    0.82
   0   5  -9   13.06    0.97
   0   5  -9   15.66    1.04
   0   5  -9   14.48    0.99
   0   5  -9   15.01    1.06
   0   5  -9   13.26    0.94
   0   5  -9   13.76    1.01
   0   5  -9   12.81    0.97
   0   5  -9   14.17    1.44
   0   5  -9   12.49    1.04
   0   5  -9   14.88    1.07
   0   5  -8  102.76    6.25
   0   5  -7   -0.08    0.44
   0  -5   7    0.13    0.23
   0   5  -6  430.11   23.33
   0   5  -6  408.97   23.43
   0   5  -5   10.28    0.79
   0   5  -5    9.81    0.80
   0   5  -5    8.86    0.57
   0   5  -4  171.80    9.80
   0   5  -4  187.99   10.01
   0   5  -4  185.73    9.99
   0   5  -4  206.94   10.31
   0   5  -3    9.23    0.59
   0   5  -3    9.48    0.95
   0   5  -3   11.87    1.01
   0   5  -3   10.92    0.81
   0   5  -2   33.81    1.97
   0   5  -2   33.94    2.16
   0   5  -2   30.32    1.76
   0   5  -2   31.10    2.12
   0   5  -1   29.32    1.70
   0   5  -1   27.81    1.87
   0   5  -1   25.36    1.49
   0   5   0   25.38    1.60
   0   5   0   24.04    1.39
   0   5   1  429.91   21.13
   0   5   1  371.46   20.88
   0  -5  -2  179.41   10.85
   0   5   2  176.29   10.66
   0  -5  -2  196.56   10.48
   0  -5  -3   27.90    2.17
   0  -5  -3   30.87    1.79
   0  -5  -4    0.10    0.45
   0  -5  -4    0.28    0.19
   0  -5  -4    0.70    0.31
   0  -5  -4    0.59    0.22
   0  -5  -5    0.10    0.36
   0  -5  -5    0.63    0.34
   0  -5  -5    0.49    0.25
   0  -5  -6    1.86    0.36
   0  -5  -6    2.79    0.57
   0  -5  -6    2.66    0.50
   0  -5  -6    2.05    0.43
   0  -5  -6    2.27    0.39
   0  -5  -7    1.82    0.37
   0  -5  -7    2.53    0.40
   0  -5  -7    2.37    0.49
   0  -5  -7    2.02    0.50
   0  -5  -7    2.53    0.39
   0  -5  -8   -0.22    0.26
   0  -5  -8    0.30    0.40
   0  -5  -8    0.35    0.29
   0  -5  -8    0.28    0.32
   0  -5  -9    0.27    0.31
   0  -5  -9    0.12    0.27
   0  -5  -9    0.11    0.23
   0  -5 -10    1.11    0.19
   0  -5 -10    1.22    0.27
   0   6 -15    0.16    0.22
   0   6 -14    0.39    0.23
   0   6 -14    0.45    0.26
   0   6 -13   10.73    0.78
   0   6 -13    9.75    0.83
   0   6 -13   10.54    0.83
   0   6 -13    9.68    0.81
   0   6 -12    5.60    0.64
   0   6 -12    6.41    0.53
   0   6 -12    5.46    0.62
   0   6 -12    6.96    0.73
   0   6 -12    6.64    0.68
   0   6 -12    4.96    0.58
   0   6 -11   42.39    2.47
   0   6 -11   38.64    2.52
   0   6 -11   43.29    2.62
   0   6 -11   39.49    2.60
   0   6 -11   41.38    2.55
   0   6 -11   40.50    2.52
   0   6 -11   43.55    2.56
   0   6 -10    1.18    0.44
   0   6 -10    0.98    0.42
   0   6 -10    1.27    0.33
   0   6 -10    1.84    0.38
   0   6 -10    1.63    0.41
   0   6 -10    0.85    0.28
   0   6 -10    0.14    0.57
   0   6 -10    0.88    0.41
   0   6 -10    0.54    0.33
   0   6 -10    1.54    0.41
   0   6 -10    1.39    0.34
   0   6  -9    6.01    0.61
   0   6  -9    4.45    0.57
   0   6  -9    4.71    0.51
   0   6  -9    5.17    0.53
   0   6  -9    5.02    0.59
   0   6  -9    3.60    0.45
   0   6  -9    5.45    0.50
   0   6  -9    5.68    0.59
   0   6  -9    5.78    0.53
   0   6  -9    4.31    0.81
   0   6  -8   28.68    1.95
   0   6  -8   35.58    2.01
   0   6  -8   33.13    1.90
   0   6  -8   31.38    2.30
   0   6  -8   30.95    1.96
   0   6  -8   29.67    1.89
   0   6  -8   29.81    1.91
   0   6  -8   31.51    1.96
   0   6  -7  118.94    6.77
   0   6  -7  111.15    6.62
   0   6  -6  162.90    9.08
   0   6  -6  155.69    9.11
   0   6  -5    5.10    0.56
   0   6  -5    6.30    0.63
   0   6  -5    4.94    0.37
   0   6  -4    2.67    0.62
   0   6  -4    2.81    0.25
   0   6  -4    2.43    0.43
   0   6  -4    2.08    0.33
   0   6  -3   13.68    1.21
   0   6  -3   12.07    1.15
   0   6  -2   84.15    4.85
   0   6  -2   78.75    4.82
   0   6  -2   76.59    4.38
   0   6  -2   85.65    4.64
   0   6  -1   27.02    1.60
   0   6  -1   31.46    2.06
   0   6  -1   30.07    1.87
   0   6   0   17.16    1.04
   0   6   0   17.63    1.46
   0   6   0   18.15    1.31
   0  -6  -1   14.17    1.27
   0   6   1   16.55    1.22
   0  -6  -2   65.72    3.98
   0  -6  -2   67.05    4.18
   0  -6  -3    1.31    0.49
   0   6   3    2.22    0.28
   0  -6  -3    1.41    0.26
   0  -6  -4    4.12    0.43
   0  -6  -4    4.09    0.52
   0  -6  -5   56.67    3.22
   0  -6  -5   48.38    3.12
   0  -6  -5   52.51    3.06
   0  -6  -6    4.15    0.53
   0  -6  -6    4.37    0.47
   0  -6  -6    4.50    0.65
   0  -6  -6    3.95    0.58
   0  -6  -6    4.84    0.53
   0  -6  -7    5.74    0.56
   0  -6  -7    7.51    0.68
   0  -6  -7    6.32    0.60
   0  -6  -7    7.62    0.66
   0  -6  -7    6.57    0.74
   0  -6  -8    0.21    0.34
   0  -6  -8    0.47    0.29
   0  -6  -8    0.02    0.23
   0  -6  -9    0.11    0.16
   0  -6  -9    0.25    0.22
   0  -6  -9    0.06    0.17
   0  -6  -9   -0.27    0.25
   0   7 -14    2.72    0.37
   0   7 -14    2.43    0.43
   0   7 -14    2.16    0.35
   0   7 -14    2.60    0.33
   0   7 -13    1.57    0.37
   0   7 -13    2.20    0.41
   0   7 -13    1.88    0.43
   0   7 -13    0.85    0.37
   0   7 -13    2.04    0.48
   0   7 -12    7.61    0.69
   0   7 -12    6.51    0.59
   0   7 -12    8.27    0.77
   0   7 -12    6.65    0.68
   0   7 -12    7.14    0.69
   0   7 -12    6.93    0.63
   0   7 -12    6.53    0.75
   0   7 -11   24.45    1.62
   0   7 -11   23.89    1.48
   0   7 -11   20.44    1.44
   0   7 -11   23.18    1.51
   0   7 -11   23.51    1.52
   0   7 -11   20.96    1.50
   0   7 -11   24.74    1.64
   0   7 -11   22.89    1.60
   0   7 -11   24.95    1.57
   0   7 -10    9.73    0.78
   0   7 -10   10.43    0.87
   0   7 -10   10.00    1.22
   0   7 -10    9.38    0.89
   0   7 -10   11.50    0.92
   0   7 -10    9.60    0.78
   0   7 -10    8.90    0.78
   0   7 -10   10.51    0.78
   0   7 -10    9.23    0.88
   0   7 -10   10.50    0.84
   0   7 -10    9.39    0.78
   0   7  -9    0.19    0.27
   0   7  -9    0.42    0.27
   0   7  -9    0.35    0.43
   0   7  -9    0.27    0.38
   0   7  -9    0.64    0.38
   0   7  -9    0.39    0.30
   0   7  -9    0.22    0.30
   0   7  -9    0.68    0.38
   0   7  -9    0.28    0.33
   0   7  -8    0.37    0.35
   0   7  -8    0.56    0.25
   0   7  -8    0.96    0.47
   0   7  -8    0.51    0.24
   0   7  -8    0.28    0.25
   0   7  -8    0.33    0.26
   0   7  -8    0.32    0.33
   0   7  -8    0.46    0.33
   0   7  -8    0.44    0.27
   0   7  -7   29.55    2.12
   0   7  -7   31.78    2.17
   0   7  -7   31.25    1.95
   0   7  -6   15.13    1.21
   0   7  -6   16.18    1.27
   0   7  -5   15.88    1.00
   0   7  -5   18.50    1.34
   0   7  -5   17.31    1.20
   0   7  -4   24.61    1.80
   0   7  -4   20.21    1.23
   0   7  -4   21.67    1.78
   0   7  -4   19.94    1.51
   0   7  -3    3.96    0.59
   0   7  -3    3.72    0.72
   0   7  -3    5.27    0.79
   0   7  -3    3.50    0.32
   0   7  -2   27.28    1.98
   0   7  -2   22.51    1.40
   0   7  -2   26.94    1.94
   0   7  -2   26.30    1.74
   0   7  -1   63.17    4.02
   0   7  -1   61.60    3.82
   0   7   0   59.28    4.04
   0   7   0   66.29    3.93
   0  -7  -1   14.45    0.93
   0  -7  -1   13.73    1.17
   0   7   1   14.84    0.95
   0  -7  -1   11.89    1.23
   0  -7  -2   10.45    1.21
   0   7   2   14.15    0.89
   0  -7  -2   12.26    0.87
   0   7   3   22.55    1.37
   0  -7  -3   20.69    1.36
   0  -7  -4    9.52    0.80
   0  -7  -4    8.02    0.65
   0  -7  -5   19.56    1.30
   0  -7  -5   17.70    1.31
   0  -7  -5   18.10    1.34
   0  -7  -5   19.43    1.27
   0  -7  -6    0.49    0.32
   0  -7  -6    0.99    0.36
   0  -7  -6    0.77    0.32
   0  -7  -6    0.97    0.47
   0  -7  -7    0.53    0.30
   0  -7  -7   -0.09    0.33
   0  -7  -7   -0.16    0.26
   0  -7  -8    0.06    0.25
   0  -7  -8    0.13    0.18
   0  -7  -8   -0.11    0.21
   0  -7  -8   -0.03    0.16
   0   8 -15   -0.08    0.15
   0   8 -14    0.21    0.22
   0   8 -14    0.02    0.24
   0   8 -14    0.08    0.24
   0   8 -13    0.22    0.27
   0   8 -13    0.59    0.38
   0   8 -13    0.16    0.21
   0   8 -13    0.33    0.29
   0   8 -13    0.13    0.29
   0   8 -12    0.14    0.40
   0   8 -12    0.16    0.33
   0   8 -12    0.16    0.30
   0   8 -12    0.21    0.26
   0   8 -12    0.41    0.34
   0   8 -11    2.97    0.43
   0   8 -11    4.37    0.55
   0   8 -11    4.12    0.49
   0   8 -11    3.83    0.49
   0   8 -11    4.23    0.48
   0   8 -11    4.38    0.60
   0   8 -11    3.91    0.61
   0   8 -10    2.48    0.49
   0   8 -10    1.93    0.38
   0   8 -10    2.10    0.38
   0   8 -10    2.00    0.40
   0   8 -10    1.54    0.43
   0   8 -10    1.36    0.56
   0   8 -10    2.26    0.51
   0   8 -10    2.07    0.37
   0   8  -9    2.09    0.45
   0   8  -9    1.89    0.34
   0   8  -9    2.17    0.49
   0   8  -9    1.43    0.35
   0   8  -9    1.80    0.37
   0   8  -9    1.09    0.51
   0   8  -8    2.73    0.29
   0   8  -8    2.69    0.42
   0  -8   8    3.04    0.56
   0   8  -8    2.64    0.40
   0   8  -8    2.81    0.39
   0   8  -8    2.85    0.49
   0   8  -8    3.13    0.60
   0   8  -7    1.53    0.27
   0   8  -7    1.37    0.23
   0   8  -7    1.35    0.46
   0   8  -7    1.12    0.31
   0   8  -7    0.76    0.31
   0   8  -6    1.39    0.46
   0   8  -6    1.43    0.23
   0   8  -5   29.10    1.75
   0   8  -5   25.79    1.99
   0   8  -4    4.97    0.93
   0   8  -4    5.02    0.90
   0   8  -3   11.43    1.22
   0   8  -3   11.91    1.12
   0   8  -3   10.56    1.33
   0   8  -2    1.70    0.51
   0   8  -2    1.64    0.58
   0   8  -2    1.43    0.66
   0   8  -2    1.96    0.25
   0  -8   2    1.72    0.27
   0   8  -1    9.75    1.21
   0   8  -1    8.64    0.62
   0   8  -1    8.93    0.97
   0   8  -1    9.45    0.69
   0  -8   0    5.16    0.45
   0  -8   0    3.43    0.63
   0   8   0    4.69    0.39
   0   8   0    4.09    0.45
   0  -8  -1    6.56    0.81
   0  -8  -1    6.77    0.56
   0   8   1    6.74    0.57
   0   8   2   16.33    1.09
   0  -8  -2   15.46    1.08
   0  -8  -2   16.74    1.12
   0  -8  -3    0.28    0.30
   0  -8  -3    0.31    0.36
   0   8   3    0.54    0.26
   0  -8  -3    0.25    0.23
   0  -8  -3    0.47    0.34
   0  -8  -4   -0.05    0.36
   0  -8  -4    0.07    0.29
   0  -8  -4   -0.13    0.34
   0  -8  -4   -0.14    0.30
   0  -8  -4   -0.05    0.21
   0  -8  -5    2.41    0.40
   0  -8  -5    2.54    0.43
   0  -8  -5    3.04    0.42
   0  -8  -5    3.82    0.60
   0  -8  -5    2.73    0.43
   0  -8  -6    0.90    0.37
   0  -8  -6    0.83    0.28
   0  -8  -6    0.97    0.30
   0  -8  -6    1.14    0.29
   0  -8  -7    0.20    0.21
   0  -8  -7   -0.03    0.09
   0   9 -15    1.07    0.18
   0   9 -15    1.58    0.21
   0   9 -14   -0.08    0.19
   0   9 -14   -0.02    0.21
   0   9 -13    0.31    0.25
   0   9 -13   -0.02    0.20
   0   9 -13   -0.15    0.28
   0   9 -12    0.09    0.28
   0   9 -12   -0.18    0.30
   0   9 -12   -0.06    0.26
   0   9 -12    0.35    0.33
   0   9 -12   -0.13    0.23
   0   9 -12    0.09    0.24
   0   9 -11    0.23    0.28
   0   9 -11    0.65    0.30
   0   9 -11    0.34    0.30
   0   9 -11    0.60    0.36
   0   9 -11    0.45    0.29
   0   9 -11    1.09    0.42
   0   9 -11    0.59    0.30
   0   9 -11    0.74    0.40
   0   9 -10   29.35    1.78
   0   9 -10   31.04    1.94
   0   9 -10   26.72    1.84
   0   9 -10   28.41    1.81
   0   9 -10   26.48    1.78
   0   9  -9    3.15    0.46
   0   9  -9    3.44    0.46
   0   9  -9    4.58    0.60
   0   9  -8    1.13    0.24
   0   9  -8    0.67    0.31
   0  -9   8    0.96    0.45
   0   9  -8    1.01    0.33
   0   9  -7   42.76    2.46
   0   9  -7   40.30    2.41
   0  -9   7   41.81    2.85
   0   9  -7   39.65    2.38
   0   9  -6    1.79    0.29
   0   9  -6    2.44    0.61
   0  -9   6    2.31    0.28
   0   9  -6    1.80    0.30
   0   9  -6    2.17    0.38
   0   9  -5   33.87    2.45
   0   9  -5   32.73    1.98
   0  -9   5   35.74    1.98
   0   9  -5   30.92    2.00
   0   9  -5   34.18    2.06
   0   9  -4    0.46    0.28
   0   9  -4    0.57    0.22
   0   9  -4    0.97    0.46
   0  -9   4    0.64    0.22
   0   9  -4    0.46    0.25
   0   9  -3    8.83    1.31
   0   9  -3    9.92    1.19
   0   9  -3   11.69    0.82
   0  -9   3   14.04    0.86
   0   9  -3   12.87    0.88
   0  -9   2    4.17    0.41
   0   9  -2    3.85    0.37
   0   9  -2    3.08    0.67
   0   9  -1    0.16    0.56
   0  -9   1    0.67    0.47
   0   9  -1    0.56    0.29
   0   9  -1    0.67    0.22
   0   9   0   20.79    1.35
   0  -9   0   20.36    1.75
   0  -9   0   22.96    1.42
   0   9   0   23.85    2.18
   0  -9   0   21.96    1.41
   0   9   0   24.89    1.46
   0   9   1   12.25    0.95
   0  -9  -1   13.47    0.96
   0   9   1   13.51    1.60
   0  -9  -1   14.92    0.97
   0   9   2    9.96    0.78
   0  -9  -2    9.35    0.77
   0  -9  -2   11.84    0.82
   0  -9  -3    0.17    0.30
   0  -9  -3    0.54    0.29
   0  -9  -3    0.83    0.37
   0  -9  -3    0.29    0.29
   0   9   3   -0.08    0.22
   0  -9  -3   -0.14    0.24
   0  -9  -4    0.86    0.30
   0  -9  -4    1.33    0.31
   0  -9  -4    1.19    0.35
   0  -9  -4    0.51    0.21
   0  -9  -4    0.97    0.31
   0  -9  -5    0.07    0.24
   0  -9  -5   -0.26    0.23
   0  -9  -5    0.04    0.33
   0  -9  -5    0.33    0.24
   0  -9  -5    0.12    0.25
   0  -9  -6    0.27    0.20
   0  -9  -6    0.67    0.27
   0  -9  -6    0.38    0.19
   0  -9  -6    0.50    0.18
   0  10 -14    0.03    0.18
   0  10 -14    0.30    0.16
   0  10 -13    1.31    0.28
   0  10 -13    1.60    0.26
   0  10 -13    2.14    0.37
   0  10 -13    1.33    0.28
   0  10 -12    0.22    0.27
   0  10 -12    0.18    0.33
   0  10 -12    0.69    0.32
   0  10 -12    0.28    0.25
   0  10 -12    0.30    0.26
   0  10 -12    0.26    0.23
   0  10 -11    0.40    0.28
   0  10 -11    0.30    0.27
   0  10 -11    0.51    0.38
   0  10 -11    0.49    0.33
   0  10 -11    0.33    0.26
   0  10 -11    0.23    0.28
   0  10 -10   34.59    2.02
   0  10 -10   31.25    2.05
   0  10 -10   32.79    2.04
   0  10 -10   29.47    2.08
   0  10  -9    6.27    0.60
   0  10  -9    7.70    0.65
   0  10  -9    5.99    0.50
   0  10  -8   20.58    1.34
   0 -10   8   16.49    1.75
   0  10  -8   19.72    1.37
   0 -10   8   20.54    1.74
   0  10  -8   20.83    1.27
   0  10  -7    9.00    0.68
   0  10  -7    9.13    0.69
   0 -10   7   10.21    1.12
   0 -10   6   21.43    1.32
   0  10  -6   23.39    1.34
   0 -10   6   17.56    1.75
   0  10  -6   20.90    1.41
   0  10  -6   19.55    1.34
   0  10  -5    5.33    0.55
   0 -10   5    7.02    0.95
   0 -10   5    6.54    0.53
   0  10  -4    6.05    0.55
   0 -10   4    7.46    0.59
   0 -10   4    5.98    0.90
   0  10  -4    7.55    0.63
   0  10  -3   20.64    1.34
   0 -10   3   18.28    1.72
   0  10  -3   19.71    1.27
   0 -10   3   21.21    1.31
   0  10  -3   19.13    2.00
   0  10  -2    8.20    1.24
   0 -10   2    7.25    0.63
   0  10  -2    6.96    0.57
   0 -10   2    6.97    0.95
   0  10  -1   33.49    1.91
   0  10  -1   28.82    1.80
   0 -10   1   27.83    2.30
   0  10   0    0.76    0.29
   0 -10   0    0.41    0.28
   0 -10   0    0.31    0.26
   0  10   0    0.64    0.20
   0  10   1    1.16    0.30
   0 -10  -1    0.64    0.31
   0 -10  -1    0.72    0.30
   0  10   2    3.28    0.40
   0 -10  -2    3.95    0.49
   0 -10  -2    3.55    0.41
   0 -10  -2    2.93    0.39
   0 -10  -3    2.04    0.37
   0 -10  -3    0.99    0.30
   0 -10  -3    1.23    0.34
   0  10   3    1.65    0.26
   0 -10  -3    1.07    0.25
   0 -10  -4    0.19    0.31
   0 -10  -4    0.27    0.23
   0 -10  -5   -0.05    0.16
   0 -10  -5   -0.15    0.24
   0  11 -14    2.38    0.27
   0  11 -14    2.08    0.23
   0  11 -13    3.79    0.40
   0  11 -13    3.52    0.34
   0  11 -12    1.13    0.26
   0  11 -12    0.55    0.23
   0  11 -12    0.99    0.27
   0  11 -12    0.68    0.23
   0  11 -12    1.00    0.31
   0  11 -12    1.57    0.39
   0  11 -11    0.03    0.27
   0  11 -11    0.50    0.25
   0  11 -11    0.38    0.32
   0  11 -11    0.33    0.38
   0  11 -11    0.03    0.26
   0  11 -11    0.25    0.22
   0  11 -10    0.18    0.22
   0  11 -10   -0.17    0.30
   0  11 -10   -0.12    0.34
   0  11  -9   -0.11    0.20
   0  11  -9    0.04    0.32
   0  11  -8    2.53    0.33
   0  11  -7    0.28    0.24
   0  11  -7    0.57    0.25
   0  11  -6    2.27    0.34
   0  11  -6    2.33    0.36
   0 -11   6    2.43    0.36
   0  11  -5   12.71    0.90
   0  11  -5   13.57    0.96
   0 -11   5   13.00    0.92
   0  11  -4    0.89    0.27
   0  11  -4    0.71    0.31
   0 -11   4    0.94    0.31
   0  11  -3   16.17    1.13
   0  11  -3   15.70    1.07
   0 -11   3   17.18    1.13
   0  11  -2    2.79    0.41
   0  11  -2    1.85    0.30
   0 -11   2    2.01    0.37
   0  11  -1    6.92    0.64
   0 -11   1    7.50    0.65
   0  11  -1    7.34    0.55
   0 -11   0   -0.12    0.25
   0  11   0    0.06    0.27
   0 -11  -1    0.41    0.24
   0  11   1    0.43    0.25
   0 -11  -1    0.54    0.26
   0 -11  -1    0.22    0.29
   0 -11  -2    0.15    0.21
   0  11   2    0.02    0.19
   0 -11  -2    0.04    0.21
   0 -11  -2    0.41    0.26
   0 -11  -3    0.71    0.20
   0 -11  -3    0.43    0.30
   0 -11  -3   -0.03    0.08
   0 -11  -4    0.08    0.19
   0  12 -13    0.60    0.22
   0  12 -12    1.42    0.30
   0  12 -12    1.33    0.25
   0  12 -12    1.84    0.37
   0  12 -12    1.57    0.21
   0  12 -11    0.29    0.33
   0  12 -11   -0.03    0.25
   0  12 -11    0.03    0.28
   0  12 -10    0.15    0.30
   0  12  -9    0.23    0.20
   0  12  -9    0.63    0.41
   0  12  -8    0.19    0.22
   0  12  -7    0.20    0.24
   0  12  -7    0.22    0.23
   0 -12   7    0.30    0.24
   0 -12   6    8.88    0.68
   0  12  -6    8.34    0.69
   0 -12   5    4.09    0.44
   0  12  -5    2.91    0.42
   0  12  -5    3.55    0.39
   0 -12   4    8.42    0.69
   0  12  -4    7.82    0.67
   0  12  -4    7.95    0.63
   0  12  -3    0.23    0.22
   0 -12   3    0.16    0.28
   0  12  -2    0.09    0.27
   0 -12   2    0.21    0.28
   0  12  -2   -0.16    0.20
   0  12  -1    0.25    0.24
   0 -12   1    0.06    0.27
   0  12   0    1.26    0.27
   0 -12   0    2.12    0.31
   0 -12   0    1.41    0.32
   0 -12  -1    0.18    0.19
   0  12   1    0.35    0.19
   0 -12  -2   -0.21    0.24
   0  13 -12   -0.18    0.16
   0  13 -12   -0.04    0.19
   0  13 -11    0.17    0.23
   0  13 -11    0.40    0.23
   0  13 -10    0.55    0.27
   0  13 -10    0.59    0.32
   0  13  -9    1.69    0.41
   0  13  -9    1.60    0.34
   0  13  -8   -0.05    0.34
   0  13  -8   -0.02    0.19
   0  13  -7    3.96    0.38
   0  13  -7    3.26    0.37
   0 -13   7    3.85    0.38
   0  13  -6    3.00    0.37
   0 -13   6    3.88    0.40
   0 -13   5    0.24    0.26
   0  13  -5   -0.03    0.24
   0  13  -5    0.08    0.20
   0 -13   4    0.03    0.25
   0  13  -4   -0.06    0.18
   0 -13   3    0.38    0.28
   0  13  -2    0.52    0.24
   0  13  -1   -0.08    0.18
   0 -13   1   -0.17    0.21
   0  13   0    0.32    0.15
   0 -13   0   -0.03    0.16
   0  14 -11    0.38    0.21
   0  14 -11    0.35    0.16
   0  14 -11    0.32    0.16
   0  14 -10   -0.18    0.19
   0  14 -10    0.05    0.24
   0  14 -10    0.09    0.18
   0  14  -9    3.26    0.41
   0  14  -9    2.46    0.31
   0  14  -8   -0.20    0.29
   0  14  -8   -0.09    0.21
   0  14  -7    5.49    0.53
   0 -14   7    4.24    0.38
   0 -14   6    0.57    0.20
   0  14  -6    0.21    0.19
   0  14  -5    0.15    0.19
   0 -14   5   -0.02    0.20
   0 -14   4    1.27    0.26
   0  14  -4    1.26    0.23
   0 -14   3    0.55    0.20
   0  14  -2   -0.04    0.14
  -1  15  -8    0.64    0.16
   1 -14   2    0.05    0.17
   1 -14   3    0.08    0.19
  -1  14  -3    0.32    0.18
  -1  14  -4    0.31    0.19
   1 -14   4    0.17    0.21
  -1  14  -5   -0.10    0.22
   1 -14   5    0.17    0.20
  -1  14  -5    0.02    0.18
   1 -14   6    0.41    0.21
  -1  14  -6    0.46    0.26
  -1  14  -7    0.65    0.29
  -1  14  -8    0.49    0.20
  -1  14  -8    0.50    0.29
  -1  14  -9    3.49    0.41
  -1  14  -9    2.38    0.29
  -1  14 -10    0.76    0.23
  -1  14 -10    0.51    0.17
  -1  14 -10    0.53    0.25
  -1  14 -11    1.54    0.22
   1 -13  -1    0.13    0.20
  -1  13   0    0.33    0.15
   1 -13   0    0.18    0.19
  -1  13  -1    0.16    0.19
   1 -13   2    0.85    0.28
  -1  13  -2    0.21    0.22
   1 -13   3    0.11    0.24
   1 -13   4    0.83    0.29
  -1  13  -4    1.11    0.29
   1 -13   5    1.31    0.30
  -1  13  -5    0.95    0.29
   1 -13   6    0.17    0.22
  -1  13  -6   -0.03    0.23
  -1  13  -7    0.86    0.39
  -1  13  -8   -0.22    0.35
  -1  13  -9    0.35    0.26
  -1  13  -9    0.21    0.34
  -1  13 -10   -0.03    0.26
  -1  13 -10    0.12    0.31
  -1  13 -10    0.37    0.24
  -1  13 -11    2.19    0.31
  -1  13 -11    3.23    0.42
  -1  13 -11    2.89    0.35
  -1  13 -12    0.16    0.16
  -1  13 -12   -0.16    0.18
   1 -12  -2    0.22    0.16
   1 -12  -1    0.15    0.22
  -1  12   1   -0.15    0.18
   1 -12   0    0.71    0.27
   1 -12   0    0.97    0.30
  -1  12   0    0.53    0.24
  -1  12  -1   -0.23    0.26
  -1  12  -2    0.80    0.30
   1 -12   2    0.34    0.26
   1 -12   3    1.26    0.33
  -1  12  -3    0.85    0.25
  -1  12  -4   24.36    1.48
   1 -12   4   23.20    1.46
  -1  12  -4   21.15    1.40
  -1  12  -5    0.80    0.27
   1 -12   5    0.21    0.26
  -1  12  -5    0.32    0.29
   1 -12   6   18.18    1.16
  -1  12  -6   16.85    1.17
  -1  12  -7    2.67    0.35
  -1  12  -7    2.64    0.36
  -1  12  -8    6.02    0.71
  -1  12  -9    8.87    0.69
  -1  12  -9    8.68    0.76
  -1  12  -9   10.82    0.91
  -1  12 -10    0.81    0.41
  -1  12 -10    0.03    0.28
  -1  12 -10    0.10    0.22
  -1  12 -11    1.35    0.32
  -1  12 -11    1.64    0.27
  -1  12 -11    1.51    0.32
  -1  12 -11    0.50    0.37
  -1  12 -12   -0.05    0.23
  -1  12 -12   -0.02    0.20
  -1  12 -13    0.02    0.18
   1 -11  -4   -0.08    0.16
   1 -11  -3   -0.02    0.17
   1 -11  -2    0.05    0.23
  -1  11   2    0.19    0.19
   1 -11  -2    0.03    0.27
   1 -11  -2    0.26    0.22
   1 -11  -1    0.77    0.30
  -1  11   1    0.62    0.27
   1 -11  -1    0.73    0.25
   1 -11  -1    0.71    0.32
   1 -11   0    1.07    0.30
  -1  11   0    0.90    0.31
  -1  11  -1    0.13    0.28
  -1  11  -2    5.74    0.58
  -1  11  -2    5.23    0.48
   1 -11   2    5.88    0.56
  -1  11  -3    0.03    0.24
   1 -11   3    0.32    0.27
   1 -11   4   16.24    1.10
  -1  11  -4   16.76    1.13
  -1  11  -4   15.24    1.06
   1 -11   5    2.86    0.40
  -1  11  -5    2.82    0.41
  -1  11  -6    9.56    0.70
  -1  11  -6    8.18    0.72
  -1  11  -6    7.72    0.71
  -1  11  -7    3.45    0.44
  -1  11  -7    3.39    0.38
  -1  11  -7    2.75    0.38
  -1  11  -8   16.14    1.12
  -1  11  -8   15.24    1.05
  -1  11  -9    2.65    0.48
  -1  11  -9    3.01    0.41
  -1  11  -9    2.88    0.42
  -1  11  -9    2.22    0.52
  -1  11 -10    6.66    0.68
  -1  11 -10    7.97    0.81
  -1  11 -10    6.41    0.63
  -1  11 -10    8.08    0.65
  -1  11 -11    0.75    0.30
  -1  11 -11    0.44    0.32
  -1  11 -11    0.06    0.30
  -1  11 -11    0.51    0.22
  -1  11 -12   -0.10    0.23
  -1  11 -12    0.31    0.24
  -1  11 -12    0.27    0.21
  -1  11 -12    0.09    0.27
  -1  11 -13    0.42    0.22
  -1  11 -13    0.05    0.17
  -1  11 -13    0.32    0.17
  -1  11 -14   -0.05    0.15
   1 -10  -5    0.44    0.19
   1 -10  -4    0.91    0.26
   1 -10  -3    4.60    0.46
   1 -10  -3    5.66    0.56
  -1  10   3    4.77    0.43
   1 -10  -3    5.06    0.50
   1 -10  -2    1.02    0.37
   1 -10  -2    0.80    0.30
  -1  10   2    1.51    0.31
   1 -10  -2    1.37    0.31
   1 -10  -1    0.80    0.30
  -1  10   1    0.85    0.30
   1 -10  -1    0.15    0.27
   1 -10   0    6.16    0.57
   1 -10   0    5.72    0.54
  -1  10   0    5.93    0.58
   1 -10   1   28.74    2.39
  -1  10  -1   34.19    1.98
  -1  10  -1   30.37    1.88
  -1  10  -1   32.85    2.81
   1 -10   2    7.57    1.04
  -1  10  -2    9.87    1.16
   1 -10   2    9.84    0.73
  -1  10  -2    8.51    0.74
  -1  10  -2    9.07    0.67
   1 -10   3   15.68    1.11
  -1  10  -3   16.03    1.88
  -1  10  -3   19.01    1.65
  -1  10  -3   17.82    1.10
  -1  10  -3   16.34    1.15
   1 -10   3   15.34    1.54
   1 -10   4    0.05    0.23
  -1  10  -4   -0.11    0.55
  -1  10  -4   -0.13    0.28
  -1  10  -4    0.10    0.23
  -1  10  -5    1.93    0.35
   1 -10   5    2.27    0.33
  -1  10  -5    2.32    0.36
   1 -10   5    2.88    0.67
  -1  10  -6    6.26    0.53
  -1  10  -6    7.20    0.62
  -1  10  -6    6.01    0.91
  -1  10  -6    6.03    0.56
   1 -10   6    5.61    0.51
   1 -10   6    6.25    0.94
  -1  10  -7    0.17    0.22
  -1  10  -7    0.28    0.23
  -1  10  -7    0.08    0.31
  -1  10  -7    0.07    0.28
  -1  10  -7    0.54    0.44
   1 -10   7    0.47    0.45
   1 -10   8   20.91    1.92
  -1  10  -8   24.19    1.56
  -1  10  -8   24.99    1.56
  -1  10  -8   21.50    1.44
  -1  10  -9    0.26    0.24
  -1  10  -9    0.70    0.32
  -1  10  -9   -0.04    0.35
  -1  10  -9    0.41    0.42
  -1  10  -9    0.50    0.34
  -1  10 -10   11.35    0.84
  -1  10 -10   11.77    0.94
  -1  10 -10   10.83    0.88
  -1  10 -10   12.65    0.91
  -1  10 -11    0.25    0.27
  -1  10 -11    0.45    0.35
  -1  10 -11    0.75    0.32
  -1  10 -11    0.89    0.33
  -1  10 -11    0.72    0.30
  -1  10 -11    0.16    0.40
  -1  10 -12    1.15    0.32
  -1  10 -12    1.22    0.28
  -1  10 -12    1.27    0.28
  -1  10 -12    1.24    0.29
  -1  10 -12    1.54    0.30
  -1  10 -12    1.49    0.37
  -1  10 -13   -0.17    0.27
  -1  10 -13   -0.15    0.24
  -1  10 -13    0.13    0.19
  -1  10 -13   -0.35    0.22
  -1  10 -14    0.38    0.19
  -1  10 -14    0.41    0.18
  -1  10 -14    0.35    0.21
   1  -9  -6    0.95    0.24
   1  -9  -6    1.00    0.21
   1  -9  -5    0.62    0.27
   1  -9  -5    0.13    0.25
   1  -9  -4    2.02    0.37
   1  -9  -4    1.64    0.29
   1  -9  -4    1.94    0.36
  -1   9   3    4.28    0.45
   1  -9  -3    4.25    0.50
   1  -9  -3    4.97    0.53
   1  -9  -3    4.53    0.48
   1  -9  -2    4.21    0.47
  -1   9   2    4.88    0.48
   1  -9  -2    4.39    0.50
   1  -9  -1    5.19    0.53
   1  -9  -1    5.25    0.53
  -1   9   1    5.65    0.54
   1  -9   0    0.72    0.26
  -1   9   0    0.86    0.71
  -1   9   0    0.68    0.21
   1  -9   0    0.41    0.43
  -1   9   0    0.38    0.27
   1  -9   0    0.71    0.29
  -1   9   0   -0.10    0.39
  -1   9  -1   14.63    1.64
  -1   9  -1   13.75    0.89
   1  -9   1   11.42    1.22
  -1   9  -1   10.86    0.79
  -1   9  -1   10.25    1.19
  -1   9  -2   17.68    1.55
   1  -9   2   17.89    1.15
  -1   9  -2   17.60    1.85
  -1   9  -2   17.19    1.18
  -1   9  -2   17.75    1.12
   1  -9   2   17.33    1.54
  -1   9  -3    0.90    0.24
   1  -9   3    0.93    0.25
  -1   9  -3    0.89    0.24
  -1   9  -3    1.13    0.51
   1  -9   3    0.49    0.43
  -1   9  -3    0.64    0.61
  -1   9  -3    1.03    0.30
  -1   9  -4    3.71    0.41
  -1   9  -4    3.15    0.83
   1  -9   4    2.77    0.34
   1  -9   4    3.71    0.69
  -1   9  -5    0.50    0.26
  -1   9  -5   -0.09    0.42
  -1   9  -5    0.28    0.21
  -1   9  -5    0.46    0.21
   1  -9   5    0.28    0.19
   1  -9   5    1.08    0.48
  -1   9  -5    0.31    0.25
  -1   9  -6   57.71    3.61
  -1   9  -6   53.95    3.11
  -1   9  -6   50.18    3.13
  -1   9  -6   57.10    3.21
  -1   9  -6   57.01    3.20
   1  -9   6   51.37    3.56
  -1   9  -7    0.04    0.28
  -1   9  -7   -0.02    0.20
  -1   9  -7   -0.07    0.27
  -1   9  -7   -0.15    0.20
  -1   9  -7   -0.10    0.40
   1  -9   7    0.10    0.41
  -1   9  -8    1.12    0.34
  -1   9  -8    1.56    0.35
  -1   9  -8    1.13    0.23
   1  -9   8    0.73    0.48
  -1   9  -8    1.74    0.51
  -1   9  -9    2.48    0.46
  -1   9  -9    3.68    0.45
  -1   9  -9    2.88    0.49
  -1   9  -9    3.44    0.42
  -1   9 -10   21.85    1.40
  -1   9 -10   23.57    1.60
  -1   9 -10   22.11    1.48
  -1   9 -10   20.60    1.43
  -1   9 -10   20.61    1.39
  -1   9 -10   21.59    1.42
  -1   9 -10   21.47    1.46
  -1   9 -11    1.72    0.38
  -1   9 -11    2.59    0.39
  -1   9 -11    2.57    0.37
  -1   9 -11    2.66    0.42
  -1   9 -11    2.54    0.54
  -1   9 -11    1.93    0.48
  -1   9 -11    2.10    0.39
  -1   9 -12   15.07    1.07
  -1   9 -12   15.20    1.10
  -1   9 -12   16.29    1.15
  -1   9 -12   15.95    1.07
  -1   9 -12   17.26    1.11
  -1   9 -12   18.18    1.18
  -1   9 -13    0.13    0.29
  -1   9 -13    0.20    0.25
  -1   9 -13    0.08    0.27
  -1   9 -13    0.03    0.29
  -1   9 -14   -0.06    0.20
  -1   9 -14    0.09    0.22
  -1   9 -14   -0.02    0.22
   1  -8  -7    0.24    0.17
   1  -8  -7    0.35    0.22
   1  -8  -6    0.21    0.26
   1  -8  -6   -0.15    0.26
   1  -8  -5    2.42    0.40
   1  -8  -5    2.08    0.40
   1  -8  -4    4.74    0.51
   1  -8  -4    4.48    0.55
   1  -8  -4    3.71    0.43
   1  -8  -4    4.56    0.53
   1  -8  -3    0.18    0.31
   1  -8  -3    0.09    0.27
   1  -8  -3   -0.03    0.34
  -1   8   3    0.36    0.24
   1  -8  -2  115.55    6.37
  -1   8   2  107.02    6.34
   1  -8  -2  108.61    6.35
   1  -8  -2  120.23    6.37
   1  -8  -1    5.92    0.52
  -1   8   1    5.84    0.53
   1  -8  -1    6.00    0.54
   1  -8  -1    5.00    0.84
   1  -8  -1    5.52    0.77
   1  -8   0    5.61    0.52
  -1   8   0    6.16    0.48
  -1   8   0    6.91    0.55
   1  -8   0    5.73    0.80
  -1   8   0    7.36    0.85
   1  -8   0    6.04    0.51
  -1   8  -1    4.09    0.88
  -1   8  -1    4.24    0.37
   1  -8   1    4.13    0.65
   1  -8   1    4.81    0.42
  -1   8  -1    3.88    0.37
  -1   8  -1    3.95    0.43
  -1   8  -1    3.64    0.65
   1  -8   2    2.95    0.33
  -1   8  -2    3.66    0.82
   1  -8   2    2.76    0.57
  -1   8  -2    2.84    0.59
  -1   8  -2    3.19    0.32
  -1   8  -3    4.78    0.68
  -1   8  -3    3.97    0.37
  -1   8  -4    3.59    0.81
   1  -8   5   10.95    1.07
  -1   8  -5    9.62    0.70
  -1   8  -5   10.57    1.02
  -1   8  -5   12.34    0.81
  -1   8  -6   39.17    2.47
  -1   8  -6   35.13    2.06
  -1   8  -6   34.62    2.35
  -1   8  -6   39.18    2.16
  -1   8  -6   36.25    2.16
   1  -8   6   37.20    2.48
  -1   8  -6   32.50    2.06
   1  -8   7   13.06    1.20
  -1   8  -7   14.03    0.93
  -1   8  -7   13.01    1.21
  -1   8  -7   12.53    0.94
  -1   8  -7   11.67    1.15
  -1   8  -7   12.44    0.83
  -1   8  -8    0.52    0.28
   1  -8   8   -0.18    0.36
  -1   8  -8    0.86    0.31
  -1   8  -8    0.48    0.22
  -1   8  -8    1.08    0.49
  -1   8  -8    0.33    0.36
  -1   8  -8    0.41    0.37
  -1   8  -9    7.72    0.69
  -1   8  -9    9.24    0.69
  -1   8  -9    8.39    0.74
  -1   8  -9    9.73    0.78
  -1   8  -9    7.38    0.66
  -1   8  -9    8.80    0.82
  -1   8 -10   62.99    3.61
  -1   8 -10   64.42    3.56
  -1   8 -10   60.39    3.62
  -1   8 -10   62.45    3.70
  -1   8 -10   57.39    3.56
  -1   8 -10   51.67    4.02
  -1   8 -10   57.29    3.65
  -1   8 -10   57.84    3.53
  -1   8 -10   66.02    3.56
  -1   8 -11    1.31    0.41
  -1   8 -11    1.47    0.41
  -1   8 -11    0.93    0.32
  -1   8 -11    1.13    0.48
  -1   8 -11    2.01    0.48
  -1   8 -11    1.41    0.37
  -1   8 -11    1.49    0.33
  -1   8 -11    1.67    0.35
  -1   8 -12   35.96    2.25
  -1   8 -12   35.76    2.23
  -1   8 -12   34.78    2.30
  -1   8 -12   40.29    2.36
  -1   8 -12   42.00    2.36
  -1   8 -12   37.07    2.39
  -1   8 -12   40.65    2.30
  -1   8 -13   15.83    1.06
  -1   8 -13   15.85    1.01
  -1   8 -13   15.57    1.13
  -1   8 -13   15.14    1.05
  -1   8 -13   11.81    1.00
  -1   8 -14    0.29    0.22
  -1   8 -14    0.17    0.25
   1  -7  -8   -0.20    0.23
   1  -7  -8    0.06    0.20
   1  -7  -7    1.01    0.31
   1  -7  -7    1.69    0.32
   1  -7  -6    0.95    0.35
   1  -7  -6    1.50    0.39
   1  -7  -5    2.13    0.40
   1  -7  -5    2.05    0.43
   1  -7  -5    2.00    0.42
   1  -7  -4    4.28    0.83
   1  -7  -4    5.30    0.57
   1  -7  -4    4.76    0.61
   1  -7  -4    4.95    0.49
   1  -7  -4    5.65    0.55
   1  -7  -3   13.01    0.89
  -1   7   3   10.50    0.80
   1  -7  -3   11.18    0.82
   1  -7  -3    9.20    1.19
   1  -7  -3   12.41    0.88
   1  -7  -2   99.56    6.43
   1  -7  -2  112.33    5.97
   1  -7  -2   98.33    5.93
  -1   7   2  104.12    5.93
   1  -7  -2  109.97    5.95
   1  -7  -1    7.90    0.90
   1  -7  -1    9.30    1.09
   1  -7  -1    9.19    0.68
  -1   7   1    9.21    0.92
  -1   7   1   10.15    0.69
   1  -7   0    9.07    0.95
  -1   7   0    9.19    0.94
  -1   7   0    9.93    0.65
  -1   7  -1    1.86    0.45
  -1   7  -1    1.24    0.21
  -1   7  -2   30.91    1.90
  -1   7  -2   25.31    2.09
  -1   7  -2   27.80    1.96
  -1   7  -2   25.82    1.56
  -1   7  -3  229.90   14.50
  -1   7  -3  253.94   13.95
  -1   7  -3  252.39   14.41
  -1   7  -3  266.55   14.27
  -1   7  -4    1.07    0.20
  -1   7  -4    0.66    0.53
  -1   7  -4    1.01    0.42
  -1   7  -5  106.44    5.99
  -1   7  -5  113.64    6.31
  -1   7  -6    3.97    0.60
   1  -7   6    5.84    0.69
  -1   7  -6    5.68    0.41
  -1   7  -6    5.49    0.66
  -1   7  -7    5.62    0.58
   1  -7   7    4.63    0.67
  -1   7  -7    5.30    0.65
  -1   7  -7    4.29    0.68
  -1   7  -7    4.51    0.54
  -1   7  -7    5.12    0.39
  -1   7  -8    3.07    0.45
  -1   7  -8    4.55    0.43
  -1   7  -8    4.05    0.53
  -1   7  -8    3.18    0.41
  -1   7  -8    4.56    0.54
  -1   7  -8    3.75    0.71
  -1   7  -8    3.30    0.56
  -1   7  -8    4.35    0.45
  -1   7  -9   46.29    2.90
  -1   7  -9   49.54    2.93
  -1   7  -9   46.10    3.35
  -1   7  -9   48.60    2.85
  -1   7  -9   48.33    2.84
  -1   7  -9   42.75    2.94
  -1   7  -9   48.64    2.90
  -1   7  -9   51.36    2.96
  -1   7  -9   52.38    2.99
  -1   7  -9   48.70    2.85
  -1   7  -9   46.92    2.84
  -1   7 -10   17.66    1.14
  -1   7 -10   17.16    1.27
  -1   7 -10   17.27    1.22
  -1   7 -10   16.84    1.21
  -1   7 -10   16.80    1.26
  -1   7 -10   17.63    1.29
  -1   7 -10   18.80    1.18
  -1   7 -10   15.31    1.14
  -1   7 -10   13.83    1.12
  -1   7 -10   15.40    1.64
  -1   7 -10   15.98    1.16
  -1   7 -10   18.38    1.26
  -1   7 -11    3.79    0.47
  -1   7 -11    2.66    0.46
  -1   7 -11    2.47    0.45
  -1   7 -11    3.56    0.42
  -1   7 -11    3.67    0.56
  -1   7 -11    3.59    0.58
  -1   7 -11    3.15    0.42
  -1   7 -11    2.97    0.51
  -1   7 -11    3.84    0.53
  -1   7 -11    3.24    0.61
  -1   7 -12    2.18    0.52
  -1   7 -12    3.06    0.47
  -1   7 -12    2.36    0.41
  -1   7 -12    2.88    0.46
  -1   7 -12    2.68    0.47
  -1   7 -12    2.57    0.35
  -1   7 -12    2.38    0.41
  -1   7 -13    2.60    0.47
  -1   7 -13    1.64    0.40
  -1   7 -13    2.10    0.41
  -1   7 -13    2.74    0.39
  -1   7 -14    0.11    0.25
  -1   7 -14    0.19    0.31
   1  -6  -9    1.41    0.27
   1  -6  -9    0.97    0.21
   1  -6  -8    3.53    0.38
   1  -6  -8    2.43    0.37
   1  -6  -8    3.54    0.44
   1  -6  -7    1.83    0.33
   1  -6  -7    1.53    0.39
   1  -6  -7    1.44    0.35
   1  -6  -7    1.38    0.36
   1  -6  -6    5.33    0.50
   1  -6  -6    4.71    0.53
   1  -6  -6    4.77    0.57
   1  -6  -6    4.09    0.56
   1  -6  -5    0.39    0.23
   1  -6  -5    0.79    0.37
   1  -6  -4    5.07    0.44
   1  -6  -4    4.31    0.44
   1  -6  -4    4.13    0.76
   1  -6  -3    1.76    0.28
   1  -6  -3    1.91    0.26
   1  -6  -3    1.95    0.63
   1  -6  -2  142.48    8.10
   1  -6  -2  130.59    7.84
  -1   6   2  137.87    7.81
  -1   6   1    0.08    0.14
  -1   6   1   -0.21    0.30
  -1   6   0    1.17    0.39
  -1   6   0    1.12    0.34
  -1   6   0    1.58    0.20
  -1   6  -1   38.26    2.44
  -1   6  -1   41.04    2.37
  -1   6  -1   35.93    2.10
  -1   6  -2   25.16    1.47
  -1   6  -2   25.53    1.69
  -1   6  -2   26.10    1.93
  -1   6  -2   26.44    1.81
  -1   6  -3    5.81    0.81
  -1   6  -3    6.48    0.76
  -1   6  -4   12.69    0.77
  -1   6  -4   12.32    0.99
  -1   6  -5  140.35    7.85
  -1   6  -5  150.87    8.11
  -1   6  -6   33.51    2.05
  -1   6  -6   35.28    2.17
  -1   6  -6   30.14    1.79
   1  -6   6   31.20    2.07
  -1   6  -7    7.35    0.50
  -1   6  -7    8.71    0.92
   1  -6   7    7.23    0.78
  -1   6  -7    8.06    0.76
  -1   6  -8   39.84    2.43
  -1   6  -8   37.84    2.43
  -1   6  -8   37.49    2.33
  -1   6  -8   40.56    2.45
  -1   6  -8   44.53    2.83
  -1   6  -8   38.65    2.34
  -1   6  -8   36.36    2.37
  -1   6  -8   39.48    2.34
  -1   6  -8   41.71    2.41
  -1   6  -8   39.17    2.38
  -1   6  -8   42.76    2.35
  -1   6  -9  255.08   13.74
  -1   6  -9  247.63   14.24
  -1   6  -9  247.57   13.68
  -1   6  -9  249.38   13.73
  -1   6  -9  242.73   13.64
  -1   6  -9  227.59   13.61
  -1   6  -9  242.36   13.70
  -1   6  -9  241.80   13.63
  -1   6  -9  252.53   13.68
  -1   6  -9  263.37   13.77
  -1   6  -9  249.72   13.62
  -1   6  -9  241.59   13.63
  -1   6  -9  245.08   13.61
  -1   6 -10   59.23    3.76
  -1   6 -10   65.37    3.70
  -1   6 -10   65.59    3.76
  -1   6 -10   63.02    3.66
  -1   6 -10   67.49    3.83
  -1   6 -10   64.99    3.76
  -1   6 -10   61.12    3.69
  -1   6 -10   64.32    3.80
  -1   6 -10   59.12    3.67
  -1   6 -10   65.13    3.72
  -1   6 -10   60.91    4.32
  -1   6 -10   65.30    3.73
  -1   6 -11   48.43    2.98
  -1   6 -11   54.65    2.97
  -1   6 -11   49.06    3.05
  -1   6 -11   55.78    3.06
  -1   6 -11   48.75    2.97
  -1   6 -11   42.70    2.88
  -1   6 -11   50.41    2.94
  -1   6 -12    0.30    0.41
  -1   6 -12    0.10    0.43
  -1   6 -12    0.04    0.37
  -1   6 -12    0.28    0.39
  -1   6 -12   -0.11    0.31
  -1   6 -12    0.36    0.36
  -1   6 -13    5.37    0.58
  -1   6 -13    4.43    0.59
  -1   6 -13    4.10    0.57
  -1   6 -13    3.99    0.51
  -1   6 -13    3.86    0.51
  -1   6 -13    3.85    0.47
  -1   6 -14    0.31    0.24
  -1   6 -14    0.29    0.32
  -1   6 -14   -0.09    0.29
  -1   6 -14    0.28    0.23
   1  -5 -10    0.60    0.23
   1  -5  -9    3.29    0.39
   1  -5  -9    4.07    0.43
   1  -5  -9    4.47    0.42
   1  -5  -8    0.75    0.29
   1  -5  -8    1.12    0.32
   1  -5  -7    9.35    0.82
   1  -5  -7   10.61    0.78
   1  -5  -7   10.18    0.85
   1  -5  -7   10.23    0.78
   1  -5  -7    8.73    0.79
   1  -5  -6   -0.04    0.34
   1  -5  -6    0.18    0.34
   1  -5  -6    0.06    0.26
   1  -5  -6    0.42    0.31
   1  -5  -5    1.48    0.38
   1  -5  -5    0.87    0.59
   1  -5  -5    1.50    0.29
   1  -5  -5    1.80    0.41
   1  -5  -4    0.34    0.20
   1  -5  -4    0.11    0.47
   1  -5  -3    6.36    0.91
   1  -5  -3    6.81    0.48
  -1   5   2  349.71   19.74
   1  -5  -2  341.96   19.98
   1  -5  -2  347.61   20.18
  -1   5   2  369.13   19.96
   1  -5  -2  375.33   19.75
  -1   5   1    0.31    0.25
   1  -5  -1    0.27    0.32
  -1   5   1    0.27    0.13
  -1   5   0  127.16    6.97
  -1   5   0  123.83    7.05
  -1   5   0  121.75    6.78
  -1   5  -1    4.01    0.45
  -1   5  -1    3.62    0.52
  -1   5  -1    3.74    0.28
  -1   5  -2    0.90    0.29
  -1   5  -2    1.19    0.40
  -1   5  -2    1.15    0.15
  -1   5  -3   88.61    4.85
  -1   5  -3   83.71    5.01
  -1   5  -4    0.21    0.24
  -1   5  -4    0.26    0.12
  -1   5  -5   56.17    3.19
  -1   5  -5   62.10    3.39
   1  -5   6   85.82    5.16
  -1   5  -6   90.88    5.30
  -1   5  -6   93.47    5.14
  -1   5  -6   88.14    4.92
  -1   5  -7  188.92   10.06
  -1   5  -7  166.40    9.74
  -1   5  -8   41.54    2.86
  -1   5  -8   39.61    2.43
  -1   5  -8   42.20    2.50
  -1   5  -8   41.71    2.48
  -1   5  -8   39.53    2.38
  -1   5  -8   40.21    2.43
  -1   5  -9   75.56    4.53
  -1   5  -9   81.13    4.51
  -1   5  -9   80.76    5.09
  -1   5  -9   84.76    4.51
  -1   5  -9   76.69    4.56
  -1   5  -9   81.26    4.54
  -1   5  -9   74.41    4.47
  -1   5  -9   80.63    4.59
  -1   5  -9   76.98    4.58
  -1   5  -9   83.24    4.51
  -1   5  -9   71.33    4.47
  -1   5 -10    1.40    0.43
  -1   5 -10    1.92    0.41
  -1   5 -10    1.37    0.45
  -1   5 -10    1.83    0.40
  -1   5 -10    1.55    0.32
  -1   5 -10    2.43    0.44
  -1   5 -10    2.55    0.52
  -1   5 -10    0.43    0.62
  -1   5 -10    1.67    0.38
  -1   5 -11   66.16    4.02
  -1   5 -11   71.09    4.06
  -1   5 -11   66.13    4.04
  -1   5 -11   66.60    3.95
  -1   5 -11   68.10    3.96
  -1   5 -12    6.85    0.75
  -1   5 -12    7.29    0.76
  -1   5 -12    7.68    0.77
  -1   5 -12    7.66    0.71
  -1   5 -12    7.31    0.66
  -1   5 -13    0.89    0.40
  -1   5 -13    0.23    0.27
  -1   5 -13    0.42    0.35
  -1   5 -13    0.42    0.32
  -1   5 -13    0.82    0.38
  -1   5 -13    0.63    0.34
  -1   5 -14    0.21    0.29
  -1   5 -14    0.33    0.30
   1  -4 -11    0.55    0.19
   1  -4 -10    0.70    0.27
   1  -4 -10    0.11    0.19
   1  -4 -10    0.03    0.23
   1  -4 -10    0.15    0.21
   1  -4  -9    2.76    0.41
   1  -4  -9    3.59    0.40
   1  -4  -9    2.70    0.44
   1  -4  -9    3.95    0.48
   1  -4  -9    3.03    0.43
   1  -4  -8    1.62    0.34
   1  -4  -8    2.50    0.43
   1  -4  -8    1.67    0.49
   1  -4  -8    1.81    0.37
   1  -4  -7   -0.06    0.28
   1  -4  -7    0.30    0.47
   1  -4  -7    0.40    0.29
   1  -4  -7    0.51    0.29
   1  -4  -7   -0.18    0.34
   1  -4  -7    0.12    0.32
   1  -4  -6    2.60    0.44
   1  -4  -6    1.68    0.36
   1  -4  -6    2.36    0.33
   1  -4  -6    3.21    0.46
   1  -4  -5   10.15    0.69
   1  -4  -5    9.43    0.78
   1  -4  -5    9.44    1.13
   1  -4  -4   12.15    1.25
   1  -4  -4   14.44    0.86
   1  -4  -4   12.67    0.95
  -1   4   3    7.61    0.63
   1  -4  -3    7.87    0.88
   1  -4  -3    7.33    0.66
   1  -4  -3    7.93    0.51
   1  -4  -2   77.86    6.66
  -1   4   2  125.54    6.70
   1  -4  -2  144.21    6.56
  -1   4   1  445.89   24.89
   1  -4  -1  459.36   24.94
  -1   4   0    0.59    0.29
  -1   4   0    0.94    0.24
  -1   4  -1   21.20    1.35
  -1   4  -1   19.17    1.26
  -1   4  -2   33.06    2.09
  -1   4  -3  126.05    7.06
  -1   4  -4  263.61   14.59
   1  -4   5  114.88    6.55
  -1   4  -5  115.87    6.50
   1  -4   6  110.49    6.53
  -1   4  -6  117.63    6.49
  -1   4  -6  114.39    6.38
  -1   4  -6  119.90    6.73
  -1   4  -7  550.87   32.25
  -1   4  -7  586.56   31.84
  -1   4  -8    0.09    0.22
  -1   4  -9    0.50    0.32
  -1   4  -9    0.62    0.37
  -1   4  -9    0.51    0.27
  -1   4  -9    0.03    0.26
  -1   4  -9    0.35    0.34
  -1   4  -9    0.97    0.27
  -1   4 -10    7.68    0.71
  -1   4 -10    9.26    0.74
  -1   4 -10   10.42    0.87
  -1   4 -10    8.71    0.83
  -1   4 -10   10.32    0.88
  -1   4 -11   55.07    3.61
  -1   4 -11   61.29    3.66
  -1   4 -11   59.22    3.61
  -1   4 -11   61.03    3.58
  -1   4 -11   65.90    3.71
  -1   4 -11   60.44    3.64
  -1   4 -11   65.01    3.72
  -1   4 -11   63.38    3.59
  -1   4 -11   63.13    3.72
  -1   4 -12    6.65    0.58
  -1   4 -12    6.35    0.62
  -1   4 -12    4.91    0.53
  -1   4 -12    6.80    0.72
  -1   4 -12    5.61    0.67
  -1   4 -12    6.55    0.66
  -1   4 -12    4.92    0.60
  -1   4 -12    5.90    0.64
  -1   4 -13    0.83    0.32
  -1   4 -13    1.15    0.37
  -1   4 -13    1.02    0.39
  -1   4 -13    0.71    0.38
  -1   4 -13    1.29    0.30
  -1   4 -13    1.25    0.36
  -1   4 -14    3.11    0.40
  -1   4 -14    3.67    0.40
   1  -3 -11    1.61    0.29
   1  -3 -11    1.28    0.28
   1  -3 -11    1.53    0.26
   1  -3 -10    0.13    0.29
   1  -3 -10    0.13    0.29
   1  -3 -10    0.14    0.37
   1  -3 -10   -0.11    0.30
   1  -3 -10   -0.45    0.23
   1  -3 -10   -0.21    0.29
   1  -3  -9    0.22    0.35
   1  -3  -9    0.17    0.41
   1  -3  -9    0.09    0.32
   1  -3  -9    0.73    0.34
   1  -3  -9   -0.11    0.31
   1  -3  -9    0.06    0.27
   1  -3  -8   19.93    1.26
   1  -3  -8   17.84    1.22
   1  -3  -8   17.69    1.27
   1  -3  -8   17.77    1.39
   1  -3  -7   28.11    1.66
   1  -3  -7   26.41    1.66
   1  -3  -7   27.26    1.73
   1  -3  -7   24.81    1.70
   1  -3  -7   26.91    1.84
   1  -3  -7   27.19    1.76
   1  -3  -6    0.73    0.31
   1  -3  -6    0.67    0.22
   1  -3  -6    0.81    0.38
   1  -3  -6    0.32    0.26
   1  -3  -6    0.72    0.33
   1  -3  -5   12.48    1.31
   1  -3  -5   13.99    0.85
   1  -3  -5   12.33    0.93
   1  -3  -4  157.64    8.61
   1  -3  -4  151.49    8.68
   1  -3  -4  158.91    9.07
   1  -3  -3   73.53    4.50
  -1   3   3   78.13    4.22
   1  -3  -3   69.78    4.25
   1  -3  -3   74.79    4.14
   1  -3  -2    7.61    0.60
  -1   3   2    7.64    0.56
   1  -3  -1 1987.31  109.34
  -1   3   1 2003.25  109.30
  -1   3   0  393.57   21.44
  -1   3   0  385.09   21.47
  -1   3  -1 3640.77  196.92
  -1   3  -1 3566.69  196.87
  -1   3  -2  911.57   49.22
  -1   3  -2  887.67   49.07
  -1   3  -3  342.45   18.85
   1  -3   4 1660.04   88.82
  -1   3  -4 1594.23   88.77
  -1   3  -5  177.67    9.76
   1  -3   5  173.69    9.81
  -1   3  -6   15.46    1.07
  -1   3  -6   19.67    1.08
  -1   3  -7    0.51    0.23
  -1   3  -8   11.92    0.85
  -1   3  -8   12.56    1.28
  -1   3  -9   28.28    1.58
  -1   3  -9   25.11    1.58
  -1   3  -9   22.21    1.54
  -1   3  -9   24.32    1.59
  -1   3  -9   25.97    1.64
  -1   3  -9   23.74    1.61
  -1   3  -9   23.22    1.61
  -1   3  -9   23.38    1.54
  -1   3  -9   22.04    2.01
  -1   3  -9   24.24    1.51
  -1   3  -9   23.08    1.58
  -1   3 -10    4.02    0.54
  -1   3 -10    4.38    0.53
  -1   3 -10    4.34    0.55
  -1   3 -10    4.65    0.59
  -1   3 -10    4.06    0.47
  -1   3 -10    4.95    0.62
  -1   3 -10    4.07    0.89
  -1   3 -10    4.16    0.51
  -1   3 -10    3.85    0.51
  -1   3 -11    1.52    0.37
  -1   3 -11    2.32    0.48
  -1   3 -11    2.56    0.46
  -1   3 -11    1.94    0.43
  -1   3 -11    3.44    0.54
  -1   3 -11    2.47    0.42
  -1   3 -11    3.01    0.47
  -1   3 -11    2.39    0.50
  -1   3 -11    2.03    0.47
  -1   3 -12    3.40    0.51
  -1   3 -12    2.27    0.44
  -1   3 -12    3.34    0.55
  -1   3 -12    2.64    0.46
  -1   3 -12    2.73    0.45
  -1   3 -12    2.44    0.37
  -1   3 -12    2.11    0.41
  -1   3 -12    2.31    0.49
  -1   3 -13    0.11    0.26
  -1   3 -13   -0.19    0.34
  -1   3 -13   -0.25    0.32
  -1   3 -13   -0.11    0.33
  -1   3 -14    4.83    0.43
  -1   3 -14    5.04    0.46
  -1   3 -14    5.04    0.46
   1  -2 -12    0.59    0.27
   1  -2 -12    0.56    0.21
   1  -2 -12    0.37    0.19
   1  -2 -12    0.26    0.19
   1  -2 -11    6.64    0.63
   1  -2 -11    7.23    0.66
   1  -2 -11    8.76    0.75
   1  -2 -11    8.40    0.63
   1  -2 -11    7.40    0.65
   1  -2 -10    0.29    0.32
   1  -2 -10    1.01    0.25
   1  -2 -10    0.38    0.34
   1  -2 -10    0.99    0.46
   1  -2 -10    1.08    0.34
   1  -2 -10    1.36    0.39
   1  -2  -9   -0.11    0.39
   1  -2  -9   -0.23    0.37
   1  -2  -9    0.35    0.33
   1  -2  -9   -0.40    0.26
   1  -2  -8   24.15    1.71
   1  -2  -8   26.49    1.63
   1  -2  -8   27.57    1.67
   1  -2  -8   27.51    1.83
   1  -2  -7    0.04    0.27
   1  -2  -7   -0.12    0.28
   1  -2  -7    0.36    0.38
   1  -2  -7   -0.07    0.24
   1  -2  -7    0.13    0.21
   1  -2  -6    2.31    0.36
   1  -2  -6    2.35    0.28
   1  -2  -5   28.38    1.63
   1  -2  -5   31.79    2.13
   1  -2  -5   26.60    1.71
   1  -2  -4   33.72    1.87
   1  -2  -4   31.49    1.94
   1  -2  -4   31.79    2.24
   1  -2  -3   -0.05    0.38
  -1   2   3    0.22    0.12
   1  -2  -3    0.04    0.10
   1  -2  -2   27.69    1.69
  -1   2   2   29.13    1.65
   1  -2  -1 9999.00  542.95
  -1   2   1 9875.01  542.92
  -1   2   0   75.35    4.29
  -1   2   0   78.91    4.30
  -1   2  -1 1236.06   67.76
   1  -2   2  453.05   25.18
  -1   2  -2  462.34   25.15
   1  -2   3 4270.38  233.72
  -1   2  -3 4272.88  233.68
   1  -2   4 1242.03   70.42
  -1   2  -4 1312.90   70.37
  -1   2  -5    1.10    0.16
  -1   2  -5    1.11    0.40
  -1   2  -5    1.29    0.20
  -1   2  -6  297.58   16.17
  -1   2  -6  278.73   16.47
  -1   2  -7   38.10    2.95
  -1   2  -7   47.79    2.65
  -1   2  -8   17.53    1.21
  -1   2  -8   21.42    1.25
  -1   2  -8   18.47    1.19
  -1   2  -8   17.49    1.62
  -1   2  -8   17.27    1.21
  -1   2  -8   17.86    1.29
  -1   2  -8   18.57    1.25
  -1   2  -8   19.06    1.27
  -1   2  -8   18.86    1.26
  -1   2  -8   22.07    1.32
  -1   2  -9    1.31    0.37
  -1   2  -9    1.25    0.42
  -1   2  -9    0.98    0.27
  -1   2  -9    1.57    0.33
  -1   2  -9    1.13    0.33
  -1   2  -9    1.73    0.41
  -1   2  -9    1.35    0.38
  -1   2  -9    1.47    0.41
  -1   2  -9    1.02    0.35
  -1   2  -9    1.42    0.63
  -1   2 -10    0.69    0.37
  -1   2 -10    0.92    0.37
  -1   2 -10    1.19    0.38
  -1   2 -10    0.88    0.41
  -1   2 -10    0.37    0.41
  -1   2 -10    0.69    0.36
  -1   2 -10    0.35    0.37
  -1   2 -10    0.74    0.36
  -1   2 -10    0.93    0.30
  -1   2 -11    8.35    0.79
  -1   2 -11    8.78    0.76
  -1   2 -11    8.42    0.76
  -1   2 -11    8.36    0.74
  -1   2 -11    8.47    0.76
  -1   2 -11    7.94    0.68
  -1   2 -11    8.83    0.74
  -1   2 -11    8.87    0.85
  -1   2 -11    8.64    0.79
  -1   2 -11    8.19    0.79
  -1   2 -12    0.11    0.30
  -1   2 -12   -0.30    0.31
  -1   2 -12    0.73    0.39
  -1   2 -12    0.04    0.36
  -1   2 -12   -0.17    0.35
  -1   2 -13    2.40    0.39
  -1   2 -13    2.02    0.37
  -1   2 -13    1.95    0.30
  -1   2 -13    1.69    0.35
  -1   2 -14   -0.04    0.19
  -1   2 -14    0.21    0.18
   1  -1 -13   14.43    0.93
   1  -1 -12    0.59    0.33
   1  -1 -12   -0.09    0.25
   1  -1 -12   -0.10    0.21
   1  -1 -12   -0.06    0.26
   1  -1 -11    0.33    0.36
   1  -1 -11    0.08    0.32
   1  -1 -11   -0.27    0.29
   1  -1 -11   -0.08    0.33
   1  -1 -10    5.51    0.61
   1  -1 -10    5.32    0.70
   1  -1 -10    4.78    0.55
   1  -1 -10    4.08    0.57
   1  -1 -10    4.59    0.48
   1  -1  -9    5.05    0.52
   1  -1  -9    4.91    0.61
   1  -1  -9    5.50    0.72
   1  -1  -8   52.30    3.17
   1  -1  -8   49.71    2.98
   1  -1  -8   54.50    3.10
   1  -1  -8   51.98    2.98
   1  -1  -8   50.73    2.97
   1  -1  -7   62.46    3.73
   1  -1  -6   58.29    3.57
   1  -1  -6   64.71    3.51
   1  -1  -5    4.72    0.35
   1  -1  -5    4.15    0.42
   1  -1  -5    4.68    0.72
   1  -1  -4   19.54    1.44
   1  -1  -4   19.07    1.10
   1  -1  -4   18.78    1.16
   1  -1  -3  161.56    8.81
   1  -1  -3  148.69    8.57
  -1   1   3  157.93    8.54
   1  -1  -2 3020.65  164.83
  -1   1   2 3007.64  164.68
   1  -1  -1  196.98   10.68
  -1   1   1  191.15   10.66
  -1   1   0  303.50   16.67
  -1   1  -1  703.89   38.95
   1  -1   1  720.34   38.97
  -1   1  -2   12.43    0.75
  -1   1  -3 1639.66   89.71
   1  -1   4   89.47    5.05
  -1   1  -4   91.18    5.03
  -1   1  -4  101.72    5.28
  -1   1  -5   16.33    0.96
  -1   1  -5   13.81    1.17
  -1   1  -6  173.14    9.46
  -1   1  -6  162.00    9.76
  -1   1  -7    1.89    0.59
  -1   1  -7    1.53    0.29
  -1   1  -8    0.16    0.28
  -1   1  -8    0.20    0.21
  -1   1  -8   -0.06    0.29
  -1   1  -8   -0.29    0.33
  -1   1  -8    0.11    0.48
  -1   1  -8    0.08    0.17
  -1   1  -8   -0.36    0.35
  -1   1  -8    0.24    0.27
  -1   1  -8   -0.03    0.28
  -1   1  -8    0.03    0.23
  -1   1  -9    1.60    0.42
  -1   1  -9    1.57    0.39
  -1   1  -9    1.27    0.35
  -1   1  -9    1.04    0.39
  -1   1  -9    1.23    0.39
  -1   1  -9    1.13    0.42
  -1   1  -9    1.06    0.23
  -1   1  -9    0.77    0.28
  -1   1  -9    1.39    0.35
  -1   1  -9    0.66    0.39
  -1   1  -9    0.52    0.57
  -1   1 -10    5.04    0.52
  -1   1 -10    6.42    0.63
  -1   1 -10    5.25    0.66
  -1   1 -10    4.39    0.53
  -1   1 -10    5.29    0.68
  -1   1 -10    6.01    0.64
  -1   1 -10    5.79    0.65
  -1   1 -10    4.80    0.58
  -1   1 -11    5.03    0.58
  -1   1 -11    4.95    0.61
  -1   1 -11    5.93    0.61
  -1   1 -11    3.98    0.61
  -1   1 -11    5.08    0.53
  -1   1 -11    3.73    0.52
  -1   1 -12    0.96    0.33
  -1   1 -12   -0.24    0.32
  -1   1 -12    0.38    0.34
  -1   1 -12   -0.04    0.31
  -1   1 -12    0.09    0.25
  -1   1 -13    0.06    0.26
  -1   1 -13   -0.03    0.26
  -1   1 -13   -0.08    0.19
  -1   1 -13    0.13    0.21
   1   0 -13   27.65    1.74
   1   0 -13   29.06    1.74
   1   0 -13   31.01    1.79
   1   0 -12    0.11    0.22
   1   0 -12    0.78    0.32
   1   0 -12    0.33    0.34
   1   0 -12    0.47    0.33
   1   0 -12    0.37    0.21
   1   0 -12    0.79    0.31
   1   0 -11    0.78    0.37
   1   0 -11    0.59    0.39
   1   0 -11    1.55    0.42
   1   0 -11    1.43    0.32
   1   0 -11    1.09    0.43
   1   0 -11    1.17    0.32
   1   0 -10    0.42    0.37
   1   0 -10    0.44    0.32
   1   0 -10    0.51    0.41
   1   0 -10    0.60    0.30
   1   0 -10    0.25    0.37
   1   0  -9    1.15    0.28
   1   0  -9    1.75    0.42
   1   0  -9    1.27    0.35
   1   0  -9    1.48    0.39
   1   0  -9    1.58    0.33
   1   0  -9    1.30    0.43
   1   0  -9    1.91    0.45
   1   0  -9    1.96    0.38
   1   0  -8   13.74    1.03
   1   0  -8   12.23    0.95
   1   0  -8   11.15    0.90
   1   0  -8   14.11    0.95
   1   0  -8   12.88    0.89
   1   0  -8   12.64    0.87
   1   0  -8   13.95    0.90
   1   0  -8   11.70    0.84
   1   0  -8   12.81    0.95
   1   0  -7    0.87    0.22
   1   0  -6   78.21    4.37
   1   0  -5   54.04    2.98
   1   0  -5   48.66    3.28
   1   0  -4  126.81    7.25
   1   0  -3    0.40    0.29
   1   0  -3    0.33    0.12
   1   0  -2  168.76    9.22
  -1   0   2  165.77    9.22
  -1   0   1  666.44   36.50
   1   0  -1  672.47   36.50
   1   0  -1  659.75   36.49
   1   0   0  204.82   11.28
   1   0   1 1238.37   66.72
  -1   0  -1 1199.00   66.72
   1   0   2  248.10   13.70
  -1   0  -2  250.48   13.70
  -1   0  -3   97.09    4.91
  -1   0  -3   83.90    4.72
  -1   0  -4   44.15    2.44
  -1   0  -4   39.06    2.59
  -1   0  -5   -0.23    0.33
  -1   0  -6    0.45    0.39
  -1   0  -7   19.23    1.73
  -1   0  -7   23.37    1.41
  -1   0  -8    4.93    0.50
  -1   0  -8    6.48    0.63
  -1   0  -8    4.72    0.51
  -1   0  -8    6.54    0.61
  -1   0  -8    5.14    0.56
  -1   0  -8    5.40    0.43
  -1   0  -8    4.25    0.60
  -1   0  -8    4.11    0.79
  -1   0  -8    5.72    0.58
  -1   0  -8    5.18    0.48
  -1   0  -8    5.06    0.58
  -1   0  -9   12.31    0.89
  -1   0  -9   12.92    0.95
  -1   0  -9   15.24    1.06
  -1   0  -9   13.52    1.00
  -1   0  -9   14.55    1.07
  -1   0  -9   13.53    0.98
  -1   0  -9   12.85    1.06
  -1   0  -9   16.20    1.10
  -1   0  -9   14.94    1.14
  -1   0 -10    1.97    0.43
  -1   0 -10    2.48    0.49
  -1   0 -10    3.41    0.52
  -1   0 -10    3.15    0.44
  -1   0 -10    3.34    0.50
  -1   0 -10    2.04    0.49
  -1   0 -10    2.58    0.53
  -1   0 -11    0.45    0.34
  -1   0 -11    0.16    0.29
  -1   0 -11    0.31    0.31
  -1   0 -11    0.59    0.35
  -1   0 -11    0.19    0.37
  -1   0 -12    0.61    0.32
  -1   0 -12    0.75    0.23
  -1   0 -12    0.89    0.25
  -1   0 -12    0.59    0.33
  -1   0 -12    1.24    0.31
  -1   0 -12    0.63    0.27
  -1   0 -13    1.89    0.29
  -1   0 -13    2.11    0.29
   1   1 -14    0.21    0.19
   1   1 -13   10.85    0.85
   1   1 -13   11.98    0.86
   1   1 -13   12.53    0.89
   1   1 -12   17.22    1.21
   1   1 -12   20.18    1.33
   1   1 -12   19.09    1.31
   1   1 -12   20.30    1.36
   1   1 -12   18.24    1.25
   1   1 -11    0.55    0.33
   1   1 -11    1.08    0.42
   1   1 -11    0.32    0.41
   1   1 -11    0.80    0.33
   1   1 -11    0.66    0.39
   1   1 -11    0.59    0.26
   1   1 -10   12.36    1.03
   1   1 -10   14.50    0.97
   1   1 -10   11.36    1.00
   1   1 -10   12.14    0.87
   1   1 -10   13.96    0.98
   1   1 -10   11.15    0.96
   1   1 -10   12.19    1.05
   1   1 -10   12.35    0.93
   1   1  -9   15.84    1.15
   1   1  -9   14.15    0.98
   1   1  -9   15.31    1.09
   1   1  -9   13.30    1.07
   1   1  -9   12.10    0.93
   1   1  -9   15.99    1.06
   1   1  -9   13.74    0.99
   1   1  -9   15.61    1.01
   1   1  -9   16.09    1.00
   1   1  -9   11.95    1.01
   1   1  -8    2.46    0.46
   1   1  -8    1.96    0.39
   1   1  -8    2.14    0.31
   1   1  -8    2.11    0.38
   1   1  -8    3.18    0.34
   1   1  -8    1.87    0.36
   1   1  -8    2.41    0.34
   1   1  -7   15.93    0.99
   1   1  -6    3.67    0.68
   1   1  -6    5.84    0.40
   1   1  -5  468.10   27.59
   1   1  -5  503.41   27.31
   1   1  -4   40.60    2.31
  -1  -1   4   42.14    2.35
  -1  -1   3  173.77    9.61
  -1  -1   2 1530.37   84.20
   1   1  -2 1575.43   84.27
   1   1  -2 1519.46   84.23
  -1  -1   1   16.71    1.01
  -1  -1   0  191.27   10.49
  -1  -1  -1  243.90   13.51
  -1  -1  -1  246.63   13.52
  -1  -1  -2  103.38    5.37
  -1  -1  -2   93.28    5.32
   1   1   2   93.24    5.29
   1   1   3  163.06    8.64
  -1  -1  -3  157.13    8.81
  -1  -1  -3  148.20    8.66
  -1  -1  -4   27.74    1.82
  -1  -1  -4   27.10    1.59
  -1  -1  -4   27.89    1.63
  -1  -1  -5    0.05    0.18
  -1  -1  -5    0.07    0.21
  -1  -1  -5    0.06    0.35
  -1  -1  -6   39.44    2.81
  -1  -1  -6   43.70    2.49
  -1  -1  -7    3.66    0.36
  -1  -1  -7    4.48    0.46
  -1  -1  -7    3.88    0.50
  -1  -1  -7    3.98    0.54
  -1  -1  -7    3.87    0.49
  -1  -1  -7    4.67    0.43
  -1  -1  -7    5.00    0.55
  -1  -1  -8   18.15    1.12
  -1  -1  -8   16.62    1.14
  -1  -1  -8   13.37    1.05
  -1  -1  -8   15.81    1.16
  -1  -1  -8   15.58    1.03
  -1  -1  -8   15.20    1.12
  -1  -1  -8   15.30    1.19
  -1  -1  -8   13.53    0.97
  -1  -1  -9    5.99    0.56
  -1  -1  -9    6.50    0.73
  -1  -1  -9    5.34    0.60
  -1  -1  -9    5.54    0.49
  -1  -1  -9    6.56    0.69
  -1  -1  -9    6.50    0.65
  -1  -1 -10    0.43    0.40
  -1  -1 -10    1.37    0.38
  -1  -1 -10    0.52    0.40
  -1  -1 -10    0.73    0.39
  -1  -1 -11    0.44    0.33
  -1  -1 -11   -0.06    0.26
  -1  -1 -11    0.38    0.35
  -1  -1 -11    0.52    0.25
  -1  -1 -12    0.06    0.17
  -1  -1 -12   -0.06    0.25
  -1  -1 -12   -0.02    0.19
  -1  -1 -12    0.17    0.25
   1   2 -14    1.24    0.26
   1   2 -14    1.05    0.27
   1   2 -14    1.19    0.26
   1   2 -13   10.86    0.86
   1   2 -13   11.52    0.90
   1   2 -13   11.70    0.89
   1   2 -12   44.36    2.64
   1   2 -12   44.21    2.61
   1   2 -12   41.73    2.52
   1   2 -12   41.04    2.58
   1   2 -12   39.28    2.44
   1   2 -12   42.20    2.52
   1   2 -11   21.82    1.44
   1   2 -11   22.30    1.42
   1   2 -11   17.93    1.42
   1   2 -11   22.32    1.50
   1   2 -11   21.64    1.42
   1   2 -11   23.33    1.55
   1   2 -11   20.23    1.35
   1   2 -11   21.98    1.55
   1   2 -10   11.30    0.94
   1   2 -10   12.39    0.93
   1   2 -10    9.23    0.82
   1   2 -10    9.31    0.75
   1   2 -10   10.86    0.81
   1   2 -10    8.87    0.82
   1   2 -10    9.88    0.80
   1   2 -10    8.39    0.84
   1   2 -10   10.55    0.76
   1   2  -9   38.67    2.40
   1   2  -9   39.99    2.45
   1   2  -9   40.06    2.38
   1   2  -9   42.79    2.36
   1   2  -9   42.39    2.44
   1   2  -9   40.42    2.50
   1   2  -9   40.99    2.42
   1   2  -9   39.37    2.38
   1   2  -9   37.18    2.35
   1   2  -9   37.04    2.33
   1   2  -8    0.04    0.20
   1   2  -8    0.31    0.46
   1   2  -7  270.58   14.90
   1   2  -6   20.67    1.21
  -1  -2   5   16.18    1.03
   1   2  -5   16.47    1.23
  -1  -2   4  119.48    6.64
   1   2  -4  117.03    6.60
   1   2  -4  121.13    6.75
   1   2  -3  426.10   23.12
   1   2  -3  412.74   23.17
   1   2  -2 1148.73   63.26
   1   2  -2 1189.27   63.27
   1   2  -2 1128.36   63.26
   1   2  -1  435.85   24.30
   1   2  -1  446.67   24.31
   1   2  -1  444.36   24.30
   1   2   0 2408.26  131.16
   1   2   0 2384.36  131.17
  -1  -2  -1  181.61    9.42
   1   2   1  169.78    9.36
  -1  -2  -1  162.48    9.33
   1   2   2    6.52    0.46
  -1  -2  -2    6.16    0.51
  -1  -2  -2    6.29    0.59
  -1  -2  -2    6.25    0.52
  -1  -2  -3   25.47    1.67
  -1  -2  -3   29.10    1.88
  -1  -2  -3   30.28    1.82
  -1  -2  -3   27.81    1.66
  -1  -2  -3   29.43    1.63
  -1  -2  -4   38.42    2.25
  -1  -2  -4   36.22    2.42
  -1  -2  -4   38.87    2.20
  -1  -2  -5    8.12    0.65
  -1  -2  -5    8.27    0.60
  -1  -2  -6    6.38    0.48
  -1  -2  -6    6.84    0.55
  -1  -2  -6    6.66    0.66
  -1  -2  -6    6.02    0.59
  -1  -2  -7   20.18    1.33
  -1  -2  -7   18.29    1.23
  -1  -2  -7   18.88    1.28
  -1  -2  -7   15.17    1.07
  -1  -2  -7   17.44    1.18
  -1  -2  -8    0.39    0.40
  -1  -2  -8    0.33    0.32
  -1  -2  -8    0.58    0.35
  -1  -2  -8    0.55    0.24
  -1  -2  -8    0.75    0.38
  -1  -2  -8    0.80    0.36
  -1  -2  -9    0.52    0.32
  -1  -2  -9    1.47    0.41
  -1  -2  -9    0.81    0.40
  -1  -2  -9    0.98    0.26
  -1  -2  -9    0.54    0.42
  -1  -2 -10    5.75    0.55
  -1  -2 -10    5.43    0.50
  -1  -2 -10    5.59    0.64
  -1  -2 -10    6.46    0.67
  -1  -2 -10    5.63    0.58
  -1  -2 -10    4.83    0.45
  -1  -2 -11   13.48    1.01
  -1  -2 -11   14.65    1.04
  -1  -2 -11   13.45    1.03
  -1  -2 -11   16.78    1.00
  -1  -2 -12    3.78    0.36
  -1  -2 -12    3.53    0.31
  -1  -2 -12    3.80    0.37
   1   3 -14   -0.13    0.25
   1   3 -14    0.37    0.26
   1   3 -14    0.06    0.26
   1   3 -13    7.66    0.68
   1   3 -13    7.67    0.69
   1   3 -13    6.86    0.56
   1   3 -13    6.34    0.55
   1   3 -13    6.72    0.67
   1   3 -13    7.00    0.60
   1   3 -12   51.64    3.12
   1   3 -12   52.45    3.03
   1   3 -12   51.39    3.05
   1   3 -12   53.93    3.16
   1   3 -12   51.23    3.06
   1   3 -12   48.34    2.99
   1   3 -12   52.21    3.16
   1   3 -11    6.75    0.61
   1   3 -11    9.17    0.70
   1   3 -11    8.82    0.81
   1   3 -11    7.62    0.75
   1   3 -11    7.83    0.71
   1   3 -11    7.17    0.74
   1   3 -11    7.80    0.76
   1   3 -11    8.61    0.75
   1   3 -11    7.08    0.63
   1   3 -10    1.66    0.41
   1   3 -10    1.77    0.33
   1   3 -10    2.39    0.48
   1   3 -10    2.07    0.39
   1   3 -10    0.75    0.39
   1   3 -10    1.73    0.34
   1   3 -10    1.79    0.32
   1   3 -10    2.03    0.45
   1   3  -9   18.17    1.30
   1   3  -9   17.84    1.27
   1   3  -9   18.30    1.23
   1   3  -9   15.58    1.17
   1   3  -9   18.33    1.17
   1   3  -9   18.60    1.25
   1   3  -9   19.75    1.18
   1   3  -9   19.45    1.22
   1   3  -9   18.34    1.29
   1   3  -8   72.21    4.02
   1   3  -8   65.80    4.49
   1   3  -7  184.66   10.02
   1   3  -7  164.23   10.41
   1   3  -6   83.52    5.07
  -1  -3   6   78.96    4.86
   1   3  -6   87.80    4.73
   1   3  -5    2.84    0.32
   1   3  -5    1.99    0.44
  -1  -3   5    2.14    0.33
   1   3  -4    0.28    0.25
   1   3  -4    0.07    0.18
   1   3  -3   32.60    1.85
   1   3  -3   28.12    1.83
   1   3  -3   30.24    1.84
   1   3  -3   33.47    2.04
   1   3  -2  238.60   12.10
   1   3  -2  222.53   11.98
   1   3  -2  205.77   11.84
   1   3  -1   61.05    3.75
   1   3  -1   70.98    3.77
   1   3   0   94.49    5.58
   1   3   0  103.35    5.58
   1   3   1   12.66    0.88
  -1  -3  -1   13.49    0.95
  -1  -3  -2   49.70    3.27
   1   3   2   58.99    3.15
  -1  -3  -2   52.71    3.19
  -1  -3  -3  140.68    8.07
  -1  -3  -3  148.04    7.77
  -1  -3  -3  125.79    7.85
  -1  -3  -4   74.79    4.34
  -1  -3  -4   77.07    4.29
  -1  -3  -5   21.01    1.26
  -1  -3  -5   18.75    1.30
  -1  -3  -6    7.47    0.74
  -1  -3  -6    7.62    0.64
  -1  -3  -6    6.94    0.66
  -1  -3  -6    6.03    0.72
  -1  -3  -6    8.27    0.68
  -1  -3  -7   26.66    1.75
  -1  -3  -7   27.56    1.82
  -1  -3  -7   28.90    1.73
  -1  -3  -7   24.06    1.81
  -1  -3  -8    2.00    0.44
  -1  -3  -8    1.22    0.37
  -1  -3  -8    2.12    0.48
  -1  -3  -8    2.16    0.48
  -1  -3  -9    0.12    0.33
  -1  -3  -9    0.26    0.32
  -1  -3  -9    0.20    0.39
  -1  -3  -9    0.17    0.25
  -1  -3 -10    2.08    0.42
  -1  -3 -10    1.81    0.40
  -1  -3 -10    1.26    0.25
  -1  -3 -10    1.78    0.34
  -1  -3 -11    8.42    0.61
  -1  -3 -11    8.31    0.65
  -1  -3 -11    8.54    0.64
   1   4 -15    1.00    0.21
   1   4 -15    1.52    0.23
   1   4 -14    5.88    0.53
   1   4 -14    4.48    0.51
   1   4 -13   -0.10    0.25
   1   4 -13    0.18    0.36
   1   4 -13    0.70    0.35
   1   4 -13   -0.13    0.27
   1   4 -12   30.26    1.91
   1   4 -12   29.60    1.88
   1   4 -12   29.57    1.86
   1   4 -12   29.50    1.95
   1   4 -12   27.71    1.77
   1   4 -12   31.39    1.95
   1   4 -12   28.72    1.80
   1   4 -11    4.57    0.47
   1   4 -11    4.33    0.59
   1   4 -11    3.19    0.42
   1   4 -11    3.58    0.54
   1   4 -11    3.90    0.52
   1   4 -11    5.24    0.63
   1   4 -11    4.44    0.58
   1   4 -11    3.50    0.53
   1   4 -11    3.08    0.46
   1   4 -11    3.24    0.42
   1   4 -10    0.97    0.28
   1   4 -10    0.93    0.35
   1   4 -10    0.69    0.38
   1   4 -10    0.70    0.37
   1   4 -10    1.01    0.34
   1   4 -10    0.83    0.37
   1   4 -10    0.63    0.37
   1   4 -10    0.66    0.28
   1   4 -10    0.78    0.29
   1   4 -10    0.79    0.34
   1   4  -9    0.11    0.28
   1   4  -9    0.14    0.26
   1   4  -9    0.24    0.30
   1   4  -9    0.50    0.33
   1   4  -9    0.32    0.23
   1   4  -9   -0.12    0.32
   1   4  -9    0.04    0.32
   1   4  -9    0.19    0.26
   1   4  -9    0.40    0.30
   1   4  -9   -0.12    0.55
   1   4  -9   -0.02    0.21
   1   4  -8   98.22    6.55
   1   4  -8  111.44    6.09
   1   4  -7   90.63    5.56
   1   4  -7   92.60    5.13
  -1  -4   6   34.01    2.04
   1   4  -6   29.34    2.11
   1   4  -5   92.32    5.81
   1   4  -5  108.46    5.77
   1   4  -4    3.01    0.40
   1   4  -4    3.06    0.57
   1   4  -4    3.85    0.41
   1   4  -4    2.51    0.37
   1   4  -3   14.02    1.03
   1   4  -3   17.43    1.12
   1   4  -3   18.56    1.14
   1   4  -3   17.87    1.33
   1   4  -2    2.75    0.25
   1   4  -2    4.21    0.60
   1   4  -2    3.91    0.53
   1   4  -1   49.59    3.21
   1   4  -1   61.29    3.24
   1   4   0   85.08    4.51
   1   4   0   71.95    4.48
   1   4   1    8.61    0.65
  -1  -4  -1    6.10    0.66
  -1  -4  -2   25.13    1.43
  -1  -4  -2   21.30    1.57
  -1  -4  -2   25.25    1.70
  -1  -4  -3   22.80    1.66
  -1  -4  -3   27.98    1.56
  -1  -4  -3   26.18    1.88
  -1  -4  -4    2.04    0.35
  -1  -4  -4    1.92    0.30
  -1  -4  -5    0.11    0.30
  -1  -4  -5    0.29    0.18
  -1  -4  -5    0.10    0.28
  -1  -4  -5    0.08    0.24
  -1  -4  -6    0.44    0.39
  -1  -4  -6    0.46    0.30
  -1  -4  -6    0.96    0.31
  -1  -4  -6    0.51    0.24
  -1  -4  -6    0.79    0.37
  -1  -4  -6    0.31    0.38
  -1  -4  -7   19.24    1.25
  -1  -4  -7   17.75    1.33
  -1  -4  -7   16.59    1.24
  -1  -4  -7   17.98    1.37
  -1  -4  -8   14.58    1.10
  -1  -4  -8   15.18    1.21
  -1  -4  -8   14.77    1.18
  -1  -4  -8   17.70    1.10
  -1  -4  -8   16.48    1.14
  -1  -4  -9   15.15    0.94
  -1  -4  -9   12.27    0.96
  -1  -4  -9   13.38    1.05
  -1  -4 -10    1.66    0.32
  -1  -4 -10    1.63    0.32
  -1  -4 -10    1.72    0.35
  -1  -4 -10    1.43    0.23
  -1  -4 -11    0.06    0.14
   1   5 -15    4.27    0.40
   1   5 -14   -0.18    0.21
   1   5 -14    0.30    0.30
   1   5 -13    0.93    0.36
   1   5 -13    0.88    0.28
   1   5 -13    1.44    0.40
   1   5 -13    0.40    0.39
   1   5 -13    1.04    0.39
   1   5 -13    1.62    0.35
   1   5 -12   34.73    2.11
   1   5 -12   32.11    2.03
   1   5 -12   32.76    2.13
   1   5 -12   33.25    2.12
   1   5 -12   35.84    2.20
   1   5 -12   37.29    2.22
   1   5 -12   34.84    2.22
   1   5 -12   33.60    2.06
   1   5 -12   32.22    2.13
   1   5 -11    9.90    0.88
   1   5 -11   11.02    0.94
   1   5 -11   11.26    0.83
   1   5 -11   11.02    0.88
   1   5 -11   10.53    0.89
   1   5 -11   10.32    0.95
   1   5 -11   10.83    0.88
   1   5 -11   11.68    0.97
   1   5 -11   10.87    0.83
   1   5 -10   13.37    1.05
   1   5 -10   13.02    0.99
   1   5 -10   11.79    0.93
   1   5 -10   13.86    1.08
   1   5 -10   12.62    0.99
   1   5 -10   14.02    1.01
   1   5 -10   14.72    0.96
   1   5 -10   13.43    1.05
   1   5  -9    3.32    0.50
   1   5  -9    4.45    0.48
   1   5  -9    3.89    0.50
   1   5  -9    5.23    0.57
   1   5  -9    4.41    0.48
   1   5  -9    3.80    0.53
   1   5  -9    4.28    0.46
   1   5  -9    3.84    0.47
   1   5  -9    4.26    0.47
   1   5  -9    4.25    0.79
   1   5  -8   67.61    4.31
  -1  -5   7    0.27    0.26
   1   5  -7   -0.08    0.36
   1   5  -6   78.00    4.65
   1   5  -5    0.26    0.48
   1   5  -5    0.41    0.31
   1   5  -5    0.09    0.29
   1   5  -4    0.04    0.29
   1   5  -4    0.26    0.22
   1   5  -4    0.17    0.27
   1   5  -4    0.08    0.46
   1   5  -3   57.03    3.32
   1   5  -3   61.67    3.43
   1   5  -2    2.76    0.41
   1   5  -2    3.00    0.50
   1   5  -2    2.32    0.41
   1   5  -2    2.76    0.61
   1   5  -1    1.65    0.54
   1   5  -1    2.68    0.43
   1   5  -1    2.48    0.39
   1   5   0   53.01    3.20
  -1  -5  -1    0.73    0.34
  -1  -5  -2    5.86    0.66
  -1  -5  -2    6.24    0.74
  -1  -5  -2    5.70    0.46
  -1  -5  -3   58.76    3.85
  -1  -5  -3   62.06    3.50
  -1  -5  -4    0.82    0.28
  -1  -5  -4    1.19    0.34
  -1  -5  -4    0.39    0.24
  -1  -5  -4    0.67    0.21
  -1  -5  -5   14.58    1.05
  -1  -5  -5   16.51    1.11
  -1  -5  -5   17.37    1.05
  -1  -5  -5   16.98    1.20
  -1  -5  -6   33.32    2.14
  -1  -5  -6   32.51    2.27
  -1  -5  -6   32.62    2.16
  -1  -5  -6   39.76    2.29
  -1  -5  -6   35.88    2.13
  -1  -5  -7    5.00    0.64
  -1  -5  -7    3.60    0.48
  -1  -5  -7    4.05    0.49
  -1  -5  -7    4.99    0.61
  -1  -5  -8   22.37    1.47
  -1  -5  -8   25.28    1.48
  -1  -5  -8   21.33    1.47
  -1  -5  -8   23.89    1.60
  -1  -5  -8   24.27    1.56
  -1  -5  -9    0.59    0.22
  -1  -5  -9    0.36    0.28
  -1  -5  -9    0.51    0.30
  -1  -5 -10    0.17    0.19
  -1  -5 -10    0.41    0.16
   1   6 -15    0.02    0.21
   1   6 -14    2.11    0.33
   1   6 -14    2.35    0.42
   1   6 -14    1.75    0.29
   1   6 -13    3.71    0.55
   1   6 -13    4.57    0.52
   1   6 -13    3.66    0.42
   1   6 -13    4.69    0.57
   1   6 -13    3.59    0.47
   1   6 -13    3.16    0.38
   1   6 -12    6.98    0.75
   1   6 -12    9.17    0.86
   1   6 -12    9.19    0.79
   1   6 -12    9.63    0.72
   1   6 -12   10.18    0.87
   1   6 -12    9.08    0.86
   1   6 -12    8.55    0.72
   1   6 -12    8.20    0.77
   1   6 -11    0.87    0.43
   1   6 -11    1.18    0.36
   1   6 -11    1.13    0.39
   1   6 -11    1.02    0.45
   1   6 -11    1.84    0.49
   1   6 -11    1.12    0.32
   1   6 -11    1.31    0.38
   1   6 -11    0.60    0.36
   1   6 -10   16.16    1.16
   1   6 -10   14.89    1.11
   1   6 -10   12.72    1.06
   1   6 -10   15.53    1.10
   1   6 -10   15.57    1.12
   1   6 -10   16.35    1.08
   1   6 -10   15.21    1.16
   1   6 -10   15.75    1.17
   1   6 -10   16.13    1.18
   1   6  -9    1.03    0.34
   1   6  -9    1.63    0.35
   1   6  -9    1.58    0.32
   1   6  -9    1.70    0.41
   1   6  -9    1.45    0.32
   1   6  -9    1.61    0.39
   1   6  -9    1.77    0.36
   1   6  -9    1.58    0.40
   1   6  -9    1.37    0.53
   1   6  -8    8.77    0.74
   1   6  -8    8.12    0.96
   1   6  -8    8.26    0.64
   1   6  -8    6.61    0.68
   1   6  -8    7.32    0.69
   1   6  -8    8.66    0.65
   1   6  -8    8.74    0.66
   1   6  -7    7.02    0.80
  -1  -6   7    7.04    0.79
   1   6  -6    2.45    0.46
   1   6  -5   63.92    3.75
   1   6  -5   52.32    3.31
   1   6  -5   56.44    3.42
   1   6  -4   81.96    4.46
   1   6  -4   86.60    4.76
   1   6  -3    1.66    0.60
   1   6  -3    1.83    0.52
   1   6  -2   -0.09    0.47
   1   6  -2    0.27    0.33
   1   6  -2    0.78    0.43
   1   6  -1   26.40    1.84
   1   6  -1   28.31    2.09
  -1  -6   0    1.73    0.40
  -1  -6  -1    0.67    0.35
  -1  -6  -2    3.35    0.54
  -1  -6  -3   18.90    1.25
  -1  -6  -3   19.58    1.27
  -1  -6  -4   27.81    1.63
  -1  -6  -4   26.87    1.71
   1   6   4   24.37    1.58
  -1  -6  -5    3.45    0.50
  -1  -6  -5    4.22    0.45
  -1  -6  -5    4.33    0.61
  -1  -6  -6   24.08    1.63
  -1  -6  -6   24.04    1.58
  -1  -6  -6   22.10    1.50
  -1  -6  -6   21.13    1.44
  -1  -6  -7    0.59    0.29
  -1  -6  -7    0.46    0.34
  -1  -6  -7    1.21    0.43
  -1  -6  -8    0.41    0.24
  -1  -6  -8    0.64    0.29
  -1  -6  -8    0.15    0.29
  -1  -6  -9   -0.10    0.15
  -1  -6  -9    0.07    0.21
  -1  -6  -9   -0.20    0.19
  -1  -6  -9   -0.04    0.20
   1   7 -15    2.77    0.27
   1   7 -14    1.32    0.30
   1   7 -14    1.58    0.37
   1   7 -14    1.70    0.28
   1   7 -13    0.61    0.38
   1   7 -13    0.09    0.40
   1   7 -13    0.45    0.30
   1   7 -13    0.05    0.22
   1   7 -13   -0.03    0.25
   1   7 -13    0.39    0.32
   1   7 -12    0.49    0.39
   1   7 -12    1.05    0.38
   1   7 -12    1.44    0.37
   1   7 -12    0.99    0.37
   1   7 -12    0.74    0.42
   1   7 -12    1.25    0.32
   1   7 -11    1.01    0.32
   1   7 -11    1.08    0.32
   1   7 -11    1.35    0.40
   1   7 -11    0.73    0.37
   1   7 -11    0.80    0.43
   1   7 -11    0.99    0.41
   1   7 -11    0.93    0.35
   1   7 -11    1.16    0.43
   1   7 -10    4.31    0.56
   1   7 -10    4.22    0.60
   1   7 -10    4.99    0.53
   1   7 -10    4.89    0.54
   1   7 -10    4.88    0.61
   1   7 -10    5.76    0.54
   1   7 -10    5.42    0.63
   1   7 -10    4.02    0.46
   1   7  -9    1.90    0.35
   1   7  -9    2.47    0.46
   1   7  -9    2.02    0.37
   1   7  -9    1.60    0.33
   1   7  -9    1.60    0.35
   1   7  -9    2.06    0.44
   1   7  -9    1.60    0.43
   1   7  -9    1.63    0.54
   1   7  -8    5.79    0.56
   1   7  -8    7.35    0.67
   1   7  -8    7.06    0.65
   1   7  -8    6.95    0.58
  -1  -7   8    6.10    0.80
   1   7  -8    6.52    0.57
   1   7  -8    5.51    0.79
   1   7  -7    5.66    0.69
   1   7  -6    0.72    0.29
   1   7  -5   -0.28    0.35
   1   7  -5   -0.12    0.53
   1   7  -4    5.55    0.90
   1   7  -3   19.16    1.64
   1   7  -3   16.59    1.51
   1   7  -3   16.80    1.37
   1   7  -2    8.56    0.97
   1   7  -2   10.85    1.24
   1   7  -1    8.78    1.11
   1   7   0   17.40    1.67
  -1  -7  -1    2.71    0.55
   1   7   1    2.72    0.76
   1   7   1    2.63    0.35
  -1  -7  -1    3.24    0.34
   1   7   2   42.92    2.51
  -1  -7  -2   42.44    2.49
  -1  -7  -3   27.83    1.80
   1   7   3   30.45    1.71
  -1  -7  -3   25.45    1.67
   1   7   4    2.70    0.36
  -1  -7  -4    2.53    0.45
  -1  -7  -5   25.02    1.66
  -1  -7  -5   25.93    1.75
  -1  -7  -6    1.18    0.44
  -1  -7  -6    1.65    0.42
  -1  -7  -6    1.71    0.37
  -1  -7  -7    1.57    0.34
  -1  -7  -7    1.35    0.31
  -1  -7  -7    1.69    0.38
  -1  -7  -7    1.72    0.30
  -1  -7  -8    0.11    0.17
  -1  -7  -8   -0.11    0.18
  -1  -7  -8    0.09    0.20
  -1  -7  -8    0.07    0.19
   1   8 -15    2.77    0.29
   1   8 -15    3.21    0.29
   1   8 -14    0.35    0.33
   1   8 -14   -0.03    0.23
   1   8 -14    0.02    0.15
   1   8 -13    1.63    0.35
   1   8 -13    1.44    0.42
   1   8 -13    2.13    0.38
   1   8 -13    1.16    0.27
   1   8 -13    1.26    0.31
   1   8 -12   11.29    0.82
   1   8 -12    7.45    0.73
   1   8 -12    9.86    0.82
   1   8 -12    9.80    0.87
   1   8 -12   10.24    0.77
   1   8 -12    9.96    0.76
   1   8 -11    6.05    0.60
   1   8 -11    7.40    0.69
   1   8 -11    6.24    0.64
   1   8 -11    7.18    0.63
   1   8 -11    5.60    0.58
   1   8 -11    7.42    0.72
   1   8 -11    6.11    0.70
   1   8 -10    9.01    0.76
   1   8 -10   11.26    0.83
   1   8 -10    9.51    0.81
   1   8 -10   10.88    0.91
   1   8 -10   10.38    0.92
   1   8  -9  128.67    7.96
   1   8  -9  136.38    7.92
   1   8  -9  152.28    8.06
   1   8  -9  149.83    7.92
   1   8  -9  138.17    7.91
  -1  -8   8    0.70    0.45
   1   8  -8    0.17    0.17
   1   8  -8    0.27    0.28
   1   8  -8    0.03    0.25
   1   8  -8   -0.08    0.33
   1   8  -7   71.11    4.07
   1   8  -7   70.91    4.01
   1   8  -6    3.03    0.30
   1   8  -6    2.28    0.33
   1   8  -6    2.41    0.37
   1   8  -5   12.35    1.46
   1   8  -5   13.65    0.94
   1   8  -4   35.78    2.71
   1   8  -3    0.13    0.50
   1   8  -3    0.12    0.49
   1   8  -3    0.12    0.19
   1   8  -2   14.63    0.97
   1   8  -2   14.56    0.92
   1   8  -2   13.46    1.50
   1   8  -2   14.50    1.48
   1   8  -1    8.53    1.15
   1   8  -1    8.67    0.71
   1   8  -1   11.05    0.68
   1   8  -1    8.63    1.19
  -1  -8   0    3.07    0.35
  -1  -8   0    1.75    0.49
   1   8   0    2.73    0.30
   1   8   0    2.84    0.36
   1   8   1   36.95    2.16
  -1  -8  -1   34.90    2.13
  -1  -8  -2   -0.16    0.22
   1   8   2    0.21    0.25
  -1  -8  -3    5.34    0.48
  -1  -8  -3    5.22    0.60
   1   8   3    4.55    0.48
   1   8   4    4.33    0.45
  -1  -8  -4    4.73    0.56
  -1  -8  -4    5.02    0.65
  -1  -8  -4    6.56    0.57
  -1  -8  -4    5.95    0.60
  -1  -8  -5    0.75    0.30
  -1  -8  -5    0.08    0.34
  -1  -8  -5    0.05    0.40
  -1  -8  -5    0.69    0.31
  -1  -8  -5    0.10    0.29
  -1  -8  -6    0.88    0.28
  -1  -8  -6    0.15    0.31
  -1  -8  -6    0.28    0.24
  -1  -8  -6    0.21    0.26
  -1  -8  -7    0.19    0.18
  -1  -8  -7    0.21    0.22
   1   9 -15    0.60    0.16
   1   9 -14    0.67    0.25
   1   9 -14    0.71    0.18
   1   9 -14    0.84    0.22
   1   9 -13    1.53    0.31
   1   9 -13    1.63    0.30
   1   9 -13    1.33    0.32
   1   9 -13    2.00    0.31
   1   9 -12    7.17    0.66
   1   9 -12    6.62    0.70
   1   9 -12    6.80    0.70
   1   9 -12    6.55    0.61
   1   9 -12    6.69    0.61
   1   9 -12    6.92    0.60
   1   9 -11    1.55    0.36
   1   9 -11    2.27    0.39
   1   9 -11    2.18    0.47
   1   9 -11    1.23    0.30
   1   9 -11    2.06    0.36
   1   9 -11    2.74    0.49
   1   9 -10    5.32    0.53
   1   9 -10    5.01    0.65
   1   9 -10    4.67    0.57
   1   9  -9   43.75    2.68
   1   9  -9   41.08    2.54
   1   9  -9   50.32    2.83
   1   9  -9   47.89    2.66
   1   9  -8    0.41    0.20
   1   9  -8    0.28    0.28
  -1  -9   8    0.12    0.44
  -1  -9   7    0.12    0.47
   1   9  -7   -0.04    0.21
   1   9  -7   -0.18    0.29
   1   9  -7    0.37    0.25
   1   9  -6    9.50    0.72
   1   9  -6   11.61    0.72
   1   9  -6    9.55    0.79
   1   9  -6    9.06    0.72
   1   9  -5   11.54    1.38
   1   9  -5    9.97    0.80
   1   9  -5   11.65    0.74
   1   9  -5    9.59    0.75
   1   9  -4    0.43    0.48
   1   9  -4    0.06    0.23
   1   9  -4    0.15    0.19
   1   9  -4    0.07    0.26
   1   9  -3   14.83    0.93
   1   9  -3   14.30    0.98
   1   9  -3   14.37    1.55
   1   9  -2   25.98    2.46
  -1  -9   2   33.19    1.87
   1   9  -2   29.43    1.81
   1   9  -1   43.38    3.38
   1   9  -1   44.11    2.72
  -1  -9   1   38.86    3.09
   1   9  -1   46.77    2.66
  -1  -9   1   49.71    2.72
  -1  -9   0   20.31    1.73
   1   9   0   19.48    1.94
  -1  -9   0   18.30    1.65
   1   9   0   20.54    1.27
  -1  -9   0   21.53    1.34
   1   9   0   21.17    1.35
  -1  -9  -1    1.24    0.30
   1   9   1    0.85    0.30
  -1  -9  -2    5.43    0.54
  -1  -9  -2    7.14    0.60
  -1  -9  -2    5.89    0.62
   1   9   2    6.61    0.58
   1   9   3    2.33    0.33
  -1  -9  -3    1.81    0.35
  -1  -9  -3    1.20    0.36
  -1  -9  -3    1.41    0.28
  -1  -9  -4    0.46    0.27
  -1  -9  -4   -0.03    0.24
  -1  -9  -4   -0.11    0.26
  -1  -9  -4    0.09    0.36
  -1  -9  -4    0.08    0.32
  -1  -9  -5    0.35    0.30
  -1  -9  -5    0.35    0.24
  -1  -9  -5    0.06    0.26
  -1  -9  -5    0.34    0.23
  -1  -9  -6    0.18    0.17
  -1  -9  -6    0.17    0.20
   1  10 -14   -0.09    0.21
   1  10 -14    0.24    0.15
   1  10 -13    2.17    0.31
   1  10 -13    1.73    0.30
   1  10 -13    2.19    0.36
   1  10 -12    0.13    0.35
   1  10 -12    0.96    0.24
   1  10 -12    0.16    0.25
   1  10 -12    0.53    0.28
   1  10 -11   -0.12    0.26
   1  10 -11    0.41    0.30
   1  10 -11   -0.10    0.35
   1  10 -11    0.33    0.27
   1  10 -10    5.87    0.64
   1  10 -10    5.71    0.62
   1  10  -9    4.90    0.43
   1  10  -8    7.66    0.58
   1  10  -8    7.68    0.64
   1  10  -8    6.75    0.68
  -1 -10   8    7.84    1.07
   1  10  -7    1.19    0.26
  -1 -10   7    1.44    0.62
   1  10  -7    1.17    0.29
   1  10  -7    1.55    0.27
   1  10  -7    1.82    0.39
  -1 -10   7    1.74    0.27
   1  10  -6   -0.20    0.22
  -1 -10   6   -0.13    0.52
   1  10  -6    0.05    0.22
   1  10  -6   -0.34    0.32
  -1 -10   6    0.22    0.20
   1  10  -5    3.58    0.43
   1  10  -5    3.36    0.46
  -1 -10   5    4.20    0.42
  -1 -10   5    2.47    0.72
   1  10  -4    2.52    0.40
   1  10  -4    3.26    0.37
  -1 -10   4    2.42    0.78
  -1 -10   3   -0.12    0.45
   1  10  -3   -0.16    0.55
   1  10  -3    0.48    0.24
   1  10  -3    0.06    0.28
  -1 -10   3    0.35    0.26
  -1 -10   2   23.52    2.18
   1  10  -2   26.59    2.41
   1  10  -2   28.92    1.68
   1  10  -1    0.84    0.23
  -1 -10   1    0.31    0.26
   1  10  -1    0.70    0.32
   1  10   0   -0.02    0.17
  -1 -10   0    0.31    0.28
   1  10   0   -0.23    0.30
  -1 -10   0    0.14    0.23
  -1 -10  -1    0.58    0.29
  -1 -10  -1    1.36    0.31
  -1 -10  -1    1.18    0.35
   1  10   1    1.05    0.31
  -1 -10  -2    0.37    0.28
  -1 -10  -2    0.51    0.23
   1  10   2    0.35    0.24
  -1 -10  -2    0.52    0.29
  -1 -10  -3   -0.05    0.24
  -1 -10  -3    0.04    0.18
  -1 -10  -3    0.14    0.31
   1  10   3    0.10    0.19
  -1 -10  -3    0.19    0.24
  -1 -10  -4    0.20    0.21
  -1 -10  -4    0.22    0.28
  -1 -10  -4   -0.33    0.22
  -1 -10  -5    0.35    0.17
  -1 -10  -5    0.22    0.15
   1  11 -14    0.27    0.15
   1  11 -13    1.94    0.26
   1  11 -13    1.72    0.27
   1  11 -12    2.61    0.44
   1  11 -12    2.62    0.33
   1  11 -12    2.28    0.36
   1  11 -12    2.53    0.39
   1  11 -12    1.91    0.29
   1  11 -11    1.92    0.41
   1  11 -11    2.45    0.45
   1  11 -11    1.56    0.35
   1  11 -11    1.50    0.29
   1  11 -10    0.21    0.17
   1  11 -10    0.52    0.40
   1  11 -10    0.19    0.24
   1  11  -9    1.07    0.24
   1  11  -8    7.16    0.69
   1  11  -8    7.47    0.58
  -1 -11   7    0.15    0.20
   1  11  -7    0.24    0.22
   1  11  -7   -0.20    0.23
   1  11  -7    0.04    0.32
   1  11  -6    4.67    0.51
   1  11  -6    5.37    0.50
   1  11  -5    5.90    0.52
   1  11  -5    5.44    0.56
  -1 -11   5    7.24    0.58
   1  11  -4   11.11    0.80
   1  11  -4   10.85    0.84
  -1 -11   4   11.25    0.84
   1  11  -3    1.26    0.33
   1  11  -3    0.97    0.25
  -1 -11   3    1.00    0.33
   1  11  -2    1.52    0.29
   1  11  -1    0.57    0.29
   1  11  -1    0.04    0.19
  -1 -11   1   -0.09    0.28
   1  11   0    1.80    0.35
  -1 -11   0    0.81    0.31
  -1 -11  -1    0.10    0.23
  -1 -11  -1   -0.10    0.26
  -1 -11  -1    0.18    0.22
   1  11   1    0.18    0.22
   1  11   2    0.51    0.21
  -1 -11  -2    0.48    0.29
  -1 -11  -2    0.30    0.20
  -1 -11  -2    0.17    0.19
  -1 -11  -3    0.20    0.17
  -1 -11  -3    0.32    0.24
  -1 -11  -3    0.30    0.18
   1  12 -13    0.30    0.14
   1  12 -13    0.18    0.20
   1  12 -12    0.13    0.28
   1  12 -12   -0.03    0.25
   1  12 -12    0.19    0.17
   1  12 -12    0.30    0.18
   1  12 -11    2.41    0.29
   1  12 -11    2.89    0.41
   1  12 -11    2.50    0.36
   1  12 -11    3.39    0.47
   1  12 -11    2.34    0.34
   1  12 -10    0.85    0.22
   1  12 -10    0.31    0.16
   1  12 -10    0.59    0.32
   1  12  -9    4.34    0.40
   1  12  -8   23.51    1.45
   1  12  -7    3.79    0.40
   1  12  -7    3.16    0.39
  -1 -12   7    4.32    0.42
   1  12  -6   -0.03    0.25
  -1 -12   6    0.22    0.26
   1  12  -5    0.90    0.29
   1  12  -5    0.63    0.25
  -1 -12   5    0.74    0.29
  -1 -12   4   -0.15    0.29
   1  12  -4   -0.21    0.25
   1  12  -4   -0.17    0.21
  -1 -12   3    0.64    0.29
   1  12  -3    0.18    0.29
   1  12  -3    0.38    0.22
   1  12  -2   -0.10    0.18
   1  12  -2    0.43    0.28
   1  12  -1    3.51    0.41
  -1 -12   1    4.22    0.44
  -1 -12   0    0.42    0.23
   1  12   0    0.27    0.20
   1  12   1    0.22    0.18
  -1 -12  -1    0.11    0.21
  -1 -12  -1    0.36    0.18
  -1 -12  -2    0.21    0.19
   1  13 -12    0.14    0.18
   1  13 -12   -0.05    0.22
   1  13 -11    0.22    0.26
   1  13 -11    0.50    0.21
   1  13 -11    0.08    0.22
   1  13 -10    0.26    0.28
   1  13  -9    1.93    0.25
   1  13  -9    2.77    0.48
   1  13  -8   18.04    1.12
  -1 -13   7   11.93    0.83
   1  13  -7   13.02    0.82
   1  13  -7   11.60    0.81
   1  13  -6    1.85    0.27
  -1 -13   6    1.60    0.30
   1  13  -6    1.83    0.29
  -1 -13   5    0.53    0.26
   1  13  -5    0.40    0.24
   1  13  -5    0.36    0.22
   1  13  -4   -0.15    0.22
   1  13  -4   -0.09    0.18
  -1 -13   4    0.51    0.26
   1  13  -3    0.07    0.23
  -1 -13   3    0.33    0.25
   1  13  -2    0.06    0.20
  -1 -13   1    0.37    0.20
   1  13  -1    0.44    0.19
  -1 -13   0    0.47    0.15
   1  13   0    0.34    0.14
   1  14 -11    0.29    0.16
   1  14 -11    0.38    0.20
   1  14 -10   -0.02    0.18
   1  14  -9    1.55    0.26
   1  14  -9    1.11    0.30
   1  14  -8    4.73    0.51
  -1 -14   7    2.22    0.27
   1  14  -6    2.37    0.28
  -1 -14   6    3.20    0.32
   1  14  -5    0.02    0.17
  -1 -14   5    0.46    0.21
  -1 -14   4   -0.04    0.20
   1  14  -4   -0.06    0.16
  -1 -14   3    0.07    0.17
  -1 -14   2    0.12    0.14
   1  14  -2   -0.02    0.11
   2 -14   2    0.02    0.17
   2 -14   3   -0.21    0.20
   2 -14   4    0.26    0.21
   2 -14   5    2.44    0.30
   2 -14   6    1.52    0.24
  -2  14  -6    0.97    0.26
  -2  14  -7    0.40    0.26
  -2  14  -8    1.02    0.28
  -2  14  -9    0.64    0.24
  -2  14  -9    0.34    0.25
  -2  14 -10    0.56    0.15
  -2  14 -10    0.92    0.26
  -2  14 -11    0.10    0.15
   2 -13  -1    0.02    0.21
   2 -13   0    0.16    0.19
   2 -13   0   -0.22    0.20
  -2  13  -1   -0.14    0.18
  -2  13  -2    0.26    0.22
   2 -13   2    0.15    0.23
   2 -13   3    1.07    0.28
  -2  13  -3    0.87    0.28
   2 -13   4    1.03    0.28
  -2  13  -4    0.84    0.27
  -2  13  -5    5.27    0.52
  -2  13  -5    6.42    0.61
   2 -13   5    7.10    0.55
  -2  13  -6    6.67    0.61
   2 -13   6    4.35    0.45
  -2  13  -7    6.38    0.65
  -2  13  -8    1.29    0.37
  -2  13  -8    1.04    0.28
  -2  13  -9   10.06    0.73
  -2  13  -9    9.34    0.70
  -2  13 -10   -0.25    0.30
  -2  13 -10   -0.11    0.20
  -2  13 -10   -0.22    0.18
  -2  13 -11    0.86    0.21
  -2  13 -11    0.89    0.25
  -2  13 -12    2.00    0.25
   2 -12  -2    0.20    0.21
   2 -12  -2    0.05    0.16
  -2  12   1    0.20    0.17
   2 -12  -1    0.20    0.22
   2 -12   0    0.87    0.29
  -2  12   0   -0.10    0.21
  -2  12  -1    0.03    0.24
   2 -12   2    4.53    0.47
  -2  12  -2    3.85    0.45
   2 -12   3   15.91    1.09
  -2  12  -4   -0.19    0.27
  -2  12  -4    0.27    0.30
   2 -12   4    0.22    0.29
  -2  12  -5   19.88    1.37
   2 -12   5   20.39    1.35
  -2  12  -5   23.11    1.39
  -2  12  -6   -0.13    0.28
  -2  12  -6   -0.12    0.26
   2 -12   6   -0.21    0.22
  -2  12  -7    1.45    0.32
  -2  12  -7    2.26    0.49
  -2  12  -8    6.63    0.62
  -2  12  -8    7.78    0.66
  -2  12  -8    7.77    0.79
  -2  12  -9   22.30    1.44
  -2  12  -9   20.74    1.41
  -2  12  -9   24.72    1.58
  -2  12 -10    0.14    0.36
  -2  12 -10    0.31    0.26
  -2  12 -10    0.24    0.32
  -2  12 -10    0.25    0.28
  -2  12 -11    0.20    0.17
  -2  12 -11    0.55    0.25
  -2  12 -11    0.51    0.23
  -2  12 -11    0.24    0.35
  -2  12 -11    0.17    0.28
  -2  12 -12    1.46    0.28
  -2  12 -12    1.70    0.26
  -2  12 -12    2.03    0.28
  -2  12 -13    0.10    0.16
   2 -11  -4    0.05    0.24
   2 -11  -4   -0.15    0.18
   2 -11  -3    2.06    0.27
   2 -11  -2    0.10    0.27
   2 -11  -2   -0.10    0.23
  -2  11   2    0.02    0.18
  -2  11   1    0.26    0.23
   2 -11  -1    0.03    0.26
  -2  11   0    0.83    0.31
   2 -11   0    0.68    0.32
   2 -11   1    0.83    0.33
  -2  11  -1    0.81    0.32
   2 -11   2   11.17    0.82
  -2  11  -2   10.01    0.81
  -2  11  -3   15.46    1.05
   2 -11   3   16.50    1.11
  -2  11  -4    0.32    0.29
   2 -11   4    0.31    0.28
  -2  11  -4   -0.05    0.25
  -2  11  -5    0.35    0.29
  -2  11  -5    0.23    0.29
   2 -11   5    0.44    0.24
   2 -11   6    1.36    0.27
  -2  11  -6    0.76    0.30
  -2  11  -6    0.81    0.33
  -2  11  -6    1.06    0.28
  -2  11  -7    0.19    0.30
  -2  11  -7    0.52    0.41
  -2  11  -8    6.59    0.71
  -2  11  -8    3.37    0.50
  -2  11  -9   47.95    2.94
  -2  11  -9   52.71    3.09
  -2  11  -9   47.82    2.92
  -2  11 -10    0.76    0.36
  -2  11 -10    0.68    0.33
  -2  11 -10    0.90    0.45
  -2  11 -10    0.25    0.29
  -2  11 -11    3.38    0.44
  -2  11 -11    3.27    0.44
  -2  11 -11    3.91    0.47
  -2  11 -11    4.06    0.55
  -2  11 -12    0.31    0.24
  -2  11 -12    0.09    0.18
  -2  11 -12    0.03    0.25
  -2  11 -12    0.37    0.24
  -2  11 -13    0.71    0.23
  -2  11 -13    0.53    0.17
  -2  11 -13    0.44    0.23
  -2  11 -13    0.46    0.17
   2 -10  -5    0.78    0.23
   2 -10  -5    1.10    0.32
   2 -10  -4    1.27    0.24
   2 -10  -4    1.49    0.42
   2 -10  -4    2.05    0.30
   2 -10  -3   11.99    0.92
   2 -10  -3   12.66    0.91
  -2  10   2    0.97    0.28
   2 -10  -2    0.48    0.29
   2 -10  -2    0.13    0.33
   2 -10  -2    0.22    0.26
  -2  10   1    2.37    0.36
   2 -10  -1    2.49    0.40
   2 -10  -1    2.19    0.38
   2 -10   0    8.82    0.74
  -2  10   0    9.52    0.75
   2 -10   0    9.17    0.71
  -2  10  -1    1.27    0.52
   2 -10   1    0.61    0.53
  -2  10  -1    0.56    0.31
   2 -10   1    0.78    0.28
   2 -10   2    9.30    1.10
  -2  10  -2    6.49    0.61
  -2  10  -2    9.19    0.72
  -2  10  -2    6.13    0.97
  -2  10  -2   10.17    1.44
   2 -10   2    9.68    0.70
  -2  10  -3   -0.19    0.67
   2 -10   3    0.06    0.27
  -2  10  -3    0.18    0.24
  -2  10  -3    0.21    0.24
  -2  10  -3    0.54    0.50
   2 -10   3    0.86    0.52
  -2  10  -4   31.25    1.95
  -2  10  -4   33.29    1.89
  -2  10  -4   36.13    2.47
  -2  10  -4   29.11    1.89
   2 -10   4   31.10    1.92
   2 -10   5    6.66    0.56
  -2  10  -5    6.33    0.55
   2 -10   5    6.44    1.00
  -2  10  -5    7.07    0.96
  -2  10  -5    7.90    0.66
  -2  10  -5    5.38    0.57
  -2  10  -6    1.37    0.53
  -2  10  -6    0.95    0.29
  -2  10  -6    0.51    0.32
  -2  10  -6    0.52    0.24
   2 -10   6   -0.13    0.47
  -2  10  -6    0.37    0.24
  -2  10  -7    1.49    0.37
  -2  10  -7    0.75    0.26
  -2  10  -7    1.17    0.26
  -2  10  -7    1.78    0.55
   2 -10   7    1.13    0.56
  -2  10  -8   -0.16    0.30
  -2  10  -8    0.22    0.28
  -2  10  -8    0.18    0.43
  -2  10  -9   63.64    3.54
  -2  10  -9   55.67    3.38
  -2  10  -9   58.64    3.40
  -2  10  -9   52.46    3.33
  -2  10 -10    0.91    0.36
  -2  10 -10    1.08    0.29
  -2  10 -10    1.15    0.39
  -2  10 -10    0.91    0.37
  -2  10 -10    0.75    0.26
  -2  10 -10    1.13    0.47
  -2  10 -11    2.88    0.39
  -2  10 -11    3.90    0.48
  -2  10 -11    3.54    0.49
  -2  10 -11    3.96    0.47
  -2  10 -11    3.21    0.40
  -2  10 -12    0.96    0.26
  -2  10 -12    0.76    0.27
  -2  10 -12    0.27    0.29
  -2  10 -12    0.74    0.31
  -2  10 -12    0.68    0.26
  -2  10 -13    1.69    0.25
  -2  10 -13    0.71    0.23
  -2  10 -13    1.67    0.30
  -2  10 -13    1.47    0.29
  -2  10 -13    1.29    0.24
  -2  10 -14    3.61    0.33
  -2  10 -14    3.24    0.33
   2  -9  -7    0.78    0.20
   2  -9  -6    0.78    0.22
   2  -9  -6    0.29    0.29
   2  -9  -5    0.68    0.40
   2  -9  -5    0.36    0.26
   2  -9  -5   -0.10    0.26
   2  -9  -4    3.56    0.44
   2  -9  -4    3.20    0.38
   2  -9  -4    2.97    0.44
   2  -9  -4    3.27    0.44
  -2   9   3    5.60    0.51
   2  -9  -3    5.90    0.57
   2  -9  -3    5.68    0.57
   2  -9  -3    6.94    0.67
   2  -9  -3    6.28    0.60
   2  -9  -2    6.96    0.66
   2  -9  -2    7.66    0.67
  -2   9   2    7.99    0.65
   2  -9  -2    7.96    0.67
  -2   9   1    4.37    0.99
   2  -9  -1    3.70    0.44
  -2   9   1    3.87    0.44
   2  -9  -1    3.66    0.45
   2  -9   0    6.87    0.59
  -2   9   0    7.65    0.91
  -2   9   0    6.45    1.21
  -2   9   0    7.85    0.65
   2  -9   0    7.43    0.98
   2  -9   0    7.15    1.03
   2  -9   1    0.87    0.49
  -2   9  -1    1.73    0.28
  -2   9  -1    0.87    0.66
  -2   9  -1    1.33    0.32
  -2   9  -1    1.53    0.26
  -2   9  -1    0.75    0.48
   2  -9   1    1.54    0.32
   2  -9   2    5.70    0.52
  -2   9  -2    5.64    0.48
   2  -9   2    4.60    0.81
  -2   9  -2    5.01    0.53
  -2   9  -2    5.26    1.03
  -2   9  -2    6.90    0.50
  -2   9  -2    6.38    0.83
  -2   9  -3    3.13    0.33
  -2   9  -3    1.95    0.29
   2  -9   3    1.68    0.59
   2  -9   3    2.14    0.31
  -2   9  -3    1.66    0.74
  -2   9  -3    3.08    0.61
   2  -9   4   19.63    1.75
  -2   9  -4   20.94    1.37
   2  -9   4   21.96    1.33
   2  -9   5   11.34    1.20
  -2   9  -5   10.29    0.76
  -2   9  -5   10.60    0.81
  -2   9  -5   11.47    1.14
  -2   9  -5   11.98    0.76
   2  -9   5   10.78    0.76
  -2   9  -6   21.97    1.52
  -2   9  -6   23.00    1.55
  -2   9  -6   26.31    1.91
  -2   9  -6   22.55    1.45
  -2   9  -6   25.34    1.44
  -2   9  -6   23.75    1.48
   2  -9   6   24.31    1.97
   2  -9   7    3.70    0.70
  -2   9  -7    3.42    0.38
  -2   9  -7    3.53    0.49
  -2   9  -7    4.03    0.37
  -2   9  -7    3.97    0.48
  -2   9  -8   12.47    0.99
  -2   9  -8   15.14    1.12
  -2   9  -8   13.81    1.00
  -2   9  -8   12.02    1.20
  -2   9  -8   13.29    0.97
  -2   9  -9   35.70    2.14
  -2   9  -9   33.55    2.16
  -2   9  -9   32.99    2.12
  -2   9  -9   37.41    2.23
  -2   9  -9   41.37    2.37
  -2   9  -9   35.78    2.24
  -2   9 -10   18.02    1.30
  -2   9 -10   15.59    1.09
  -2   9 -10   18.28    1.19
  -2   9 -10   16.72    1.16
  -2   9 -10   16.08    1.17
  -2   9 -10   15.35    1.09
  -2   9 -10   14.17    1.09
  -2   9 -11    6.98    0.63
  -2   9 -11    7.00    0.67
  -2   9 -11    8.34    0.70
  -2   9 -11    8.67    0.74
  -2   9 -11    9.52    0.76
  -2   9 -11    7.98    0.66
  -2   9 -12    0.40    0.31
  -2   9 -12    0.14    0.27
  -2   9 -12    0.04    0.31
  -2   9 -12    0.35    0.28
  -2   9 -12   -0.12    0.28
  -2   9 -13    1.72    0.35
  -2   9 -13    1.85    0.31
  -2   9 -13    1.57    0.26
  -2   9 -13    1.93    0.31
  -2   9 -13    2.38    0.37
  -2   9 -14   15.17    0.92
  -2   9 -14   14.08    0.94
  -2   9 -14   14.39    0.95
   2  -8  -8    0.52    0.19
   2  -8  -7    0.30    0.29
   2  -8  -7    0.07    0.17
   2  -8  -6    0.14    0.26
   2  -8  -6    0.14    0.37
   2  -8  -6    0.29    0.26
   2  -8  -6    0.36    0.29
   2  -8  -5    0.79    0.32
   2  -8  -5    0.28    0.34
   2  -8  -5    0.41    0.31
   2  -8  -5    0.39    0.23
   2  -8  -4    2.81    0.41
   2  -8  -4    2.40    0.46
   2  -8  -4    1.92    0.40
   2  -8  -4    2.04    0.35
   2  -8  -3   45.20    2.63
  -2   8   3   43.15    2.59
   2  -8  -3   43.34    2.64
   2  -8  -3   44.68    2.66
   2  -8  -2   31.58    1.91
   2  -8  -2   29.24    2.44
  -2   8   2   29.03    1.87
   2  -8  -2   29.93    1.90
   2  -8  -2   33.90    1.93
  -2   8   1    0.08    0.37
   2  -8  -1    0.20    0.41
   2  -8  -1    0.08    0.24
  -2   8   1   -0.20    0.26
   2  -8  -1    0.25    0.45
  -2   8   1   -0.12    0.18
   2  -8  -1   -0.03    0.24
   2  -8   0   -0.10    0.43
  -2   8   0    0.02    0.17
  -2   8   0    0.02    0.19
  -2   8   0   -0.23    0.23
  -2   8   0    0.08    0.35
   2  -8   0   -0.10    0.21
  -2   8  -1   11.35    0.80
  -2   8  -1   14.03    1.19
  -2   8  -1   13.21    0.81
   2  -8   1   11.28    1.17
   2  -8   1   13.05    0.85
  -2   8  -1   11.04    1.40
  -2   8  -1   11.85    0.87
  -2   8  -2    8.42    0.64
  -2   8  -2    8.87    0.95
   2  -8   2    8.92    0.67
   2  -8   2    9.74    1.04
  -2   8  -2   10.78    0.66
  -2   8  -2    9.76    0.71
  -2   8  -3    6.61    0.48
  -2   8  -3    5.61    0.77
  -2   8  -3    5.85    0.51
  -2   8  -3    5.56    0.47
  -2   8  -4   22.94    1.36
   2  -8   4   19.96    1.70
  -2   8  -5   76.55    4.00
   2  -8   5   77.63    4.49
  -2   8  -5   77.96    4.40
  -2   8  -5   64.53    4.00
  -2   8  -5   67.26    4.04
  -2   8  -5   72.67    4.08
  -2   8  -6    3.16    0.39
  -2   8  -6    2.90    0.30
  -2   8  -6    1.98    0.28
  -2   8  -6    2.23    0.32
  -2   8  -6    2.84    0.41
   2  -8   6    2.06    0.55
  -2   8  -6    3.06    0.56
  -2   8  -7    2.77    0.42
  -2   8  -7    2.80    0.55
  -2   8  -7    2.42    0.37
  -2   8  -7    2.31    0.28
   2  -8   7    2.94    0.61
  -2   8  -7    1.85    0.49
  -2   8  -7    3.61    0.53
  -2   8  -7    2.29    0.28
  -2   8  -7    2.74    0.32
  -2   8  -8   30.60    1.78
  -2   8  -8   24.49    1.66
  -2   8  -8   26.53    1.98
  -2   8  -8   27.51    1.76
  -2   8  -8   29.98    1.69
  -2   8  -8   26.05    1.70
  -2   8  -8   20.14    1.99
  -2   8  -8   31.24    1.88
  -2   8  -9    0.60    0.54
  -2   8  -9    0.32    0.25
  -2   8  -9    0.22    0.27
  -2   8  -9    0.60    0.42
  -2   8  -9    0.04    0.31
  -2   8  -9    0.17    0.31
  -2   8  -9    0.06    0.24
  -2   8  -9    0.28    0.27
  -2   8  -9   -0.17    0.40
  -2   8  -9    0.37    0.34
  -2   8 -10   74.96    4.38
  -2   8 -10   74.50    4.41
  -2   8 -10   75.39    4.48
  -2   8 -10   72.82    4.32
  -2   8 -10   73.79    4.33
  -2   8 -10   81.25    4.43
  -2   8 -10   78.93    4.36
  -2   8 -10   73.35    4.35
  -2   8 -11    8.46    0.72
  -2   8 -11    8.84    0.82
  -2   8 -11   10.22    0.82
  -2   8 -11    8.74    0.77
  -2   8 -11    9.67    0.76
  -2   8 -11    8.92    0.76
  -2   8 -12    0.47    0.36
  -2   8 -12    0.92    0.32
  -2   8 -12    1.57    0.39
  -2   8 -12    1.04    0.30
  -2   8 -12    1.82    0.41
  -2   8 -13   25.57    1.58
  -2   8 -13   24.44    1.56
  -2   8 -13   25.74    1.54
  -2   8 -13   22.14    1.47
  -2   8 -13   27.71    1.59
  -2   8 -14   13.14    0.82
  -2   8 -14   11.35    0.80
  -2   8 -14   11.50    0.78
  -2   8 -14   10.64    0.78
   2  -7  -9    0.34    0.18
   2  -7  -8    1.16    0.28
   2  -7  -8    0.98    0.34
   2  -7  -7    0.18    0.22
   2  -7  -7   -0.03    0.28
   2  -7  -7   -0.03    0.30
   2  -7  -7   -0.23    0.34
   2  -7  -6    0.14    0.33
   2  -7  -6    0.28    0.43
   2  -7  -6    0.86    0.34
   2  -7  -5    0.20    0.25
   2  -7  -5    0.26    0.32
   2  -7  -5    0.39    0.33
   2  -7  -5    0.07    0.30
   2  -7  -4    5.29    0.56
   2  -7  -4    3.15    0.82
   2  -7  -4    4.60    0.49
   2  -7  -4    4.99    0.58
   2  -7  -4    5.01    0.52
   2  -7  -3   69.27    3.95
   2  -7  -3   71.11    3.97
   2  -7  -3   63.96    4.49
   2  -7  -3   66.02    3.93
  -2   7   2   47.10    2.79
   2  -7  -2   42.54    3.29
   2  -7  -2   48.65    2.81
   2  -7  -2   49.72    2.83
   2  -7  -2   48.17    2.81
   2  -7  -1    3.15    0.35
   2  -7  -1    1.83    0.52
  -2   7   1    2.62    0.35
  -2   7   1    3.21    0.56
   2  -7  -1    3.21    0.36
  -2   7   1    3.34    0.31
  -2   7   0    0.04    0.16
   2  -7   0    0.08    0.37
  -2   7   0    0.06    0.30
  -2   7  -1    8.07    0.54
  -2   7  -1    9.25    0.84
   2  -7   2   10.08    0.96
  -2   7  -2    8.67    0.87
  -2   7  -2    9.21    0.61
   2  -7   3   32.41    2.20
  -2   7  -4    0.86    0.36
   2  -7   4    0.64    0.38
  -2   7  -4    1.08    0.20
   2  -7   5   52.97    3.54
  -2   7  -5   56.78    3.47
  -2   7  -5   57.17    3.19
  -2   7  -6   11.03    0.71
  -2   7  -6   12.63    1.02
  -2   7  -7    2.88    0.37
  -2   7  -7    3.93    0.51
  -2   7  -7    3.08    0.62
  -2   7  -7    3.71    0.44
   2  -7   7    3.21    0.61
  -2   7  -7    3.57    0.49
  -2   7  -7    4.14    0.57
  -2   7  -7    3.25    0.29
  -2   7  -8   14.11    1.05
  -2   7  -8   15.40    0.97
  -2   7  -8   13.10    1.01
  -2   7  -8   12.72    0.93
  -2   7  -8   13.97    1.02
  -2   7  -8   13.74    1.02
  -2   7  -8   13.47    0.94
  -2   7  -8   13.57    1.35
  -2   7  -8   14.53    1.09
  -2   7  -8   13.76    1.09
  -2   7  -8   15.13    0.97
  -2   7  -8   13.84    0.96
  -2   7  -9    2.76    0.72
  -2   7  -9    1.55    0.34
  -2   7  -9    0.88    0.35
  -2   7  -9    1.74    0.40
  -2   7  -9    1.96    0.34
  -2   7  -9    1.51    0.32
  -2   7  -9    1.68    0.35
  -2   7  -9    1.18    0.36
  -2   7  -9    1.19    0.32
  -2   7  -9    1.56    0.42
  -2   7  -9    2.16    0.48
  -2   7 -10  143.88    8.61
  -2   7 -10  156.01    8.62
  -2   7 -10  157.57    8.67
  -2   7 -10  153.91    8.67
  -2   7 -10  159.81    8.61
  -2   7 -10  137.62    9.20
  -2   7 -10  147.79    8.59
  -2   7 -10  167.43    8.77
  -2   7 -10  158.51    8.71
  -2   7 -10  148.60    8.59
  -2   7 -10  151.72    8.66
  -2   7 -11   66.09    3.89
  -2   7 -11   63.54    3.79
  -2   7 -11   63.82    3.85
  -2   7 -11   63.38    3.82
  -2   7 -11   58.42    3.77
  -2   7 -11   69.50    3.88
  -2   7 -11   67.80    3.93
  -2   7 -11   71.51    3.90
  -2   7 -11   66.83    3.80
  -2   7 -12    0.80    0.37
  -2   7 -12    0.92    0.36
  -2   7 -12    1.17    0.47
  -2   7 -12    1.74    0.44
  -2   7 -12    0.52    0.26
  -2   7 -12    1.43    0.35
  -2   7 -12    0.69    0.30
  -2   7 -13    5.73    0.52
  -2   7 -13    5.49    0.61
  -2   7 -13    5.29    0.51
  -2   7 -13    5.29    0.55
  -2   7 -13    4.89    0.53
  -2   7 -14    1.51    0.30
  -2   7 -14    1.79    0.31
   2  -6  -9    2.37    0.37
   2  -6  -8    1.58    0.27
   2  -6  -8    1.39    0.38
   2  -6  -8    1.38    0.43
   2  -6  -8    1.42    0.31
   2  -6  -7    0.73    0.31
   2  -6  -7    0.28    0.43
   2  -6  -7    0.14    0.26
   2  -6  -7    0.69    0.35
   2  -6  -6    2.64    0.58
   2  -6  -6    2.26    0.42
   2  -6  -6    1.85    0.42
   2  -6  -6    3.07    0.47
   2  -6  -6    2.20    0.35
   2  -6  -5    0.34    0.25
   2  -6  -5    0.97    0.59
   2  -6  -5    1.45    0.39
   2  -6  -5    0.43    0.23
   2  -6  -5    0.55    0.35
   2  -6  -4   16.03    1.20
   2  -6  -4   18.58    1.20
   2  -6  -4   16.74    1.15
   2  -6  -4   15.22    1.61
   2  -6  -4   16.90    1.14
   2  -6  -4   18.19    1.09
   2  -6  -3   41.47    2.36
   2  -6  -3   38.08    2.32
   2  -6  -3   39.36    2.26
   2  -6  -3   36.07    2.80
   2  -6  -3   39.32    2.32
  -2   6   2  288.02   14.99
  -2   6   2  266.43   14.70
   2  -6  -2  258.54   15.28
   2  -6  -2  253.20   15.08
  -2   6   1    2.05    0.21
  -2   6   1    1.71    0.36
   2  -6   0   62.69    3.95
  -2   6   0   67.86    3.87
  -2   6   0   64.65    3.63
  -2   6  -1    7.23    0.64
   2  -6   1    3.46    0.58
  -2   6  -2   64.95    4.06
  -2   6  -2   62.79    3.76
   2  -6   3   13.81    1.17
  -2   6  -3   18.56    1.47
  -2   6  -4    0.04    0.26
   2  -6   4    0.29    0.31
   2  -6   5   49.37    3.06
  -2   6  -5   50.20    2.97
  -2   6  -5   48.13    2.73
  -2   6  -6   13.83    0.85
   2  -6   6   14.63    1.18
  -2   6  -6   14.63    1.09
   2  -6   7    9.01    0.95
  -2   6  -7   10.14    0.64
  -2   6  -7    9.64    0.85
  -2   6  -8   46.44    2.78
  -2   6  -8   48.03    3.21
  -2   6  -8   46.51    2.72
  -2   6  -8   45.73    2.78
  -2   6  -8   45.69    2.78
  -2   6  -8   48.53    2.74
  -2   6  -8   49.93    2.74
  -2   6  -8   43.73    2.71
  -2   6  -8   44.88    2.75
  -2   6  -8   46.42    2.81
  -2   6  -9   18.01    1.23
  -2   6  -9   17.58    1.24
  -2   6  -9   20.35    1.25
  -2   6  -9   18.31    1.29
  -2   6  -9   18.94    1.24
  -2   6  -9   19.92    1.37
  -2   6  -9   19.65    1.37
  -2   6  -9   18.23    1.32
  -2   6  -9   16.54    1.23
  -2   6  -9   20.65    1.33
  -2   6  -9   16.90    1.69
  -2   6 -10  230.73   13.56
  -2   6 -10  239.38   13.66
  -2   6 -10  258.76   13.71
  -2   6 -10  252.13   13.58
  -2   6 -10  260.54   13.66
  -2   6 -10  240.27   13.57
  -2   6 -10  242.18   13.57
  -2   6 -10  237.73   14.25
  -2   6 -10  241.39   13.59
  -2   6 -10  241.17   13.62
  -2   6 -11   82.47    5.02
  -2   6 -11   88.59    5.08
  -2   6 -11   83.17    5.05
  -2   6 -11   89.19    5.15
  -2   6 -11   89.52    5.13
  -2   6 -11   91.74    5.06
  -2   6 -11   87.48    5.10
  -2   6 -11   91.71    5.18
  -2   6 -11   90.72    5.06
  -2   6 -12    1.96    0.39
  -2   6 -12    2.49    0.44
  -2   6 -12    2.62    0.47
  -2   6 -12    2.16    0.50
  -2   6 -12    3.00    0.50
  -2   6 -12    2.24    0.41
  -2   6 -12    1.80    0.32
  -2   6 -12    2.24    0.48
  -2   6 -13    0.41    0.34
  -2   6 -13    1.24    0.38
  -2   6 -13    0.62    0.29
  -2   6 -13    0.94    0.31
  -2   6 -13    1.13    0.40
  -2   6 -13    0.53    0.35
  -2   6 -14   10.86    0.78
   2  -5 -10    1.25    0.30
   2  -5 -10    0.68    0.17
   2  -5 -10    1.14    0.25
   2  -5  -9    4.12    0.42
   2  -5  -9    4.58    0.55
   2  -5  -9    4.03    0.46
   2  -5  -9    3.55    0.42
   2  -5  -8    1.99    0.35
   2  -5  -8    2.67    0.52
   2  -5  -8    2.22    0.34
   2  -5  -8    2.34    0.36
   2  -5  -7    7.20    0.71
   2  -5  -7    7.75    0.63
   2  -5  -7    6.96    0.65
   2  -5  -7    9.01    0.73
   2  -5  -7    8.01    0.84
   2  -5  -6   -0.04    0.33
   2  -5  -6    0.55    0.25
   2  -5  -6    0.33    0.28
   2  -5  -6    0.33    0.32
   2  -5  -5    0.15    0.26
   2  -5  -5    0.41    0.31
   2  -5  -5    0.39    0.51
   2  -5  -5    0.39    0.33
   2  -5  -5    0.43    0.22
   2  -5  -4    0.61    0.18
   2  -5  -4    0.65    0.31
   2  -5  -4    0.46    0.49
   2  -5  -3    4.40    0.34
   2  -5  -3    4.88    0.82
   2  -5  -2  322.27   18.39
   2  -5  -2  331.06   18.07
  -2   5   2  325.73   18.27
  -2   5   2  329.59   18.07
   2  -5  -1   35.34    2.41
   2  -5  -1   37.79    2.13
  -2   5   1   41.27    2.34
   2  -5   0  334.84   19.51
  -2   5   0  363.40   19.44
   2  -5   1   12.98    1.06
  -2   5  -1   14.46    1.01
  -2   5  -2   51.34    3.29
  -2   5  -3    0.31    0.27
  -2   5  -3   -0.15    0.44
   2  -5   4  106.30    6.57
  -2   5  -4  120.98    6.51
  -2   5  -5  396.03   21.95
   2  -5   5  398.37   22.07
  -2   5  -6    0.08    0.12
  -2   5  -6    0.08    0.22
   2  -5   6    0.12    0.30
  -2   5  -7  332.40   18.06
  -2   5  -7  313.52   17.72
  -2   5  -8  251.99   14.41
  -2   5  -8  271.55   14.53
  -2   5  -8  254.32   14.43
  -2   5  -8  236.34   14.44
  -2   5  -8  262.46   14.41
  -2   5  -8  278.13   14.48
  -2   5  -8  256.57   14.92
  -2   5  -8  261.61   14.49
  -2   5  -8  267.69   14.52
  -2   5  -8  269.05   14.42
  -2   5  -9    4.80    0.54
  -2   5  -9    3.93    0.48
  -2   5  -9    4.27    0.49
  -2   5  -9    3.96    0.55
  -2   5  -9    5.16    0.49
  -2   5  -9    5.21    0.89
  -2   5  -9    4.44    0.56
  -2   5  -9    4.77    0.51
  -2   5  -9    4.03    0.50
  -2   5  -9    4.32    0.58
  -2   5 -10   10.06    0.84
  -2   5 -10    9.95    0.82
  -2   5 -10    8.73    0.73
  -2   5 -10    9.27    0.76
  -2   5 -10    7.96    0.74
  -2   5 -10    8.99    0.86
  -2   5 -10    9.17    0.75
  -2   5 -10    7.07    0.79
  -2   5 -10    9.44    0.80
  -2   5 -11   10.18    0.85
  -2   5 -11    9.78    0.87
  -2   5 -11    9.44    0.82
  -2   5 -11   12.33    0.97
  -2   5 -11   10.33    0.78
  -2   5 -11    8.75    0.89
  -2   5 -11   10.36    0.92
  -2   5 -11   10.40    0.84
  -2   5 -12    0.08    0.35
  -2   5 -12    0.42    0.37
  -2   5 -12    0.27    0.40
  -2   5 -12    0.04    0.33
  -2   5 -12    0.37    0.39
  -2   5 -12    0.19    0.38
  -2   5 -12    0.07    0.30
  -2   5 -13    0.19    0.34
  -2   5 -13    0.38    0.33
  -2   5 -13    0.81    0.37
  -2   5 -13    0.60    0.34
  -2   5 -13    0.65    0.30
  -2   5 -13    0.30    0.26
  -2   5 -13    0.13    0.30
  -2   5 -14    3.61    0.41
  -2   5 -14    4.04    0.42
   2  -4 -11    0.17    0.22
   2  -4 -10    0.65    0.33
   2  -4 -10    0.41    0.27
   2  -4 -10    0.49    0.26
   2  -4  -9    0.06    0.27
   2  -4  -9   -0.07    0.32
   2  -4  -9    0.03    0.27
   2  -4  -9   -0.03    0.25
   2  -4  -9   -0.15    0.38
   2  -4  -8    9.81    0.76
   2  -4  -8   10.36    0.78
   2  -4  -8   10.30    0.95
   2  -4  -8   10.33    0.78
   2  -4  -8   10.32    0.84
   2  -4  -8    9.00    0.82
   2  -4  -7   22.03    1.36
   2  -4  -7   20.72    1.38
   2  -4  -7   19.04    1.41
   2  -4  -7   21.28    1.43
   2  -4  -7   23.60    1.59
   2  -4  -6    1.49    0.37
   2  -4  -6    1.71    0.33
   2  -4  -6    1.92    0.29
   2  -4  -5    2.10    0.67
   2  -4  -5    1.67    0.29
   2  -4  -5    1.33    0.35
   2  -4  -5    2.14    0.26
   2  -4  -4   17.68    1.04
   2  -4  -4   15.37    1.49
   2  -4  -4   16.71    1.14
   2  -4  -3  142.79    8.37
  -2   4   3  146.37    8.03
   2  -4  -3  142.07    7.90
   2  -4  -2  531.16   28.65
   2  -4  -2  518.17   28.38
  -2   4   2  509.68   28.52
   2  -4  -1  240.79   14.04
  -2   4   1  259.92   13.97
   2  -4   0    0.66    0.31
  -2   4   0    0.34    0.22
  -2   4   0    0.28    0.16
  -2   4  -1    8.50    0.66
   2  -4   2  323.60   18.78
  -2   4  -2  366.61   18.96
   2  -4   3   54.53    3.47
  -2   4  -3   62.62    3.42
   2  -4   4    1.13    0.33
  -2   4  -4    0.58    0.23
  -2   4  -5    5.10    0.47
   2  -4   5    4.66    0.57
  -2   4  -6   -0.12    0.21
  -2   4  -6    0.56    0.21
  -2   4  -7  705.37   38.72
  -2   4  -8   71.19    4.13
  -2   4  -8   69.41    4.17
  -2   4  -8   78.67    4.21
  -2   4  -8   68.01    4.19
  -2   4  -8   76.97    4.23
  -2   4  -8   67.46    4.11
  -2   4  -8   74.00    4.17
  -2   4  -8   75.12    4.13
  -2   4  -9    0.19    0.27
  -2   4  -9    0.16    0.24
  -2   4  -9   -0.04    0.29
  -2   4  -9    0.23    0.30
  -2   4  -9    0.18    0.34
  -2   4  -9   -0.06    0.28
  -2   4  -9    0.38    0.34
  -2   4  -9   -0.13    0.49
  -2   4  -9    0.22    0.27
  -2   4  -9   -0.09    0.26
  -2   4  -9    0.27    0.32
  -2   4  -9    0.07    0.30
  -2   4 -10   16.57    1.70
  -2   4 -10   14.65    1.17
  -2   4 -10   16.93    1.17
  -2   4 -10   15.33    1.13
  -2   4 -10   14.79    1.06
  -2   4 -10   15.39    1.19
  -2   4 -10   17.03    1.14
  -2   4 -10   13.76    1.17
  -2   4 -10   16.28    1.10
  -2   4 -11    1.61    0.47
  -2   4 -11    1.32    0.42
  -2   4 -11    1.04    0.34
  -2   4 -11    1.03    0.40
  -2   4 -11    1.48    0.41
  -2   4 -11    0.92    0.44
  -2   4 -11    1.69    0.40
  -2   4 -11    1.43    0.29
  -2   4 -11    1.53    0.35
  -2   4 -12    1.97    0.41
  -2   4 -12    2.33    0.44
  -2   4 -12    2.46    0.47
  -2   4 -12    1.33    0.47
  -2   4 -12    1.97    0.37
  -2   4 -12    1.80    0.45
  -2   4 -12    1.71    0.33
  -2   4 -13    0.25    0.29
  -2   4 -13    0.03    0.28
  -2   4 -13    0.56    0.34
  -2   4 -13   -0.07    0.30
  -2   4 -13    0.04    0.30
  -2   4 -13   -0.33    0.30
  -2   4 -14    0.38    0.23
  -2   4 -14    0.29    0.22
  -2   4 -14    0.21    0.23
  -2   4 -14    0.28    0.19
   2  -3 -12    0.49    0.19
   2  -3 -11    1.17    0.34
   2  -3 -11    0.37    0.24
   2  -3 -11    0.52    0.26
   2  -3 -10   12.15    0.89
   2  -3 -10   12.55    0.91
   2  -3 -10   11.00    0.82
   2  -3 -10   13.11    1.01
   2  -3 -10   13.25    0.92
   2  -3 -10   12.08    0.93
   2  -3  -9   -0.36    0.33
   2  -3  -9    0.10    0.30
   2  -3  -9    0.04    0.33
   2  -3  -9   -0.26    0.30
   2  -3  -9   -0.33    0.41
   2  -3  -8    0.83    0.35
   2  -3  -8    0.87    0.30
   2  -3  -8    0.42    0.30
   2  -3  -8    0.12    0.41
   2  -3  -7    4.25    0.50
   2  -3  -7    3.14    0.61
   2  -3  -7    3.56    0.48
   2  -3  -7    3.35    0.42
   2  -3  -7    4.59    0.42
   2  -3  -6    0.71    0.40
   2  -3  -6    0.41    0.22
   2  -3  -6    0.60    0.20
   2  -3  -6    0.36    0.47
   2  -3  -6    0.64    0.30
   2  -3  -5    0.10    0.46
   2  -3  -5    0.06    0.26
   2  -3  -5    0.11    0.15
   2  -3  -4   31.97    2.17
   2  -3  -4   28.47    1.77
   2  -3  -4   29.55    1.69
   2  -3  -3  336.80   18.34
  -2   3   3  327.12   18.00
   2  -3  -3  325.01   17.91
  -2   3   2  454.28   24.99
   2  -3  -1  385.53   19.99
  -2   3   1  420.08   19.92
   2  -3   0   27.10    1.78
  -2   3   0   30.06    1.74
  -2   3  -1   14.18    0.91
  -2   3  -1   12.36    1.02
  -2   3  -2    0.02    0.20
   2  -3   2    0.16    0.28
  -2   3  -2    0.46    0.37
  -2   3  -3  106.85    5.91
   2  -3   3  103.08    5.98
  -2   3  -4  741.21   40.06
   2  -3   4  711.71   40.14
  -2   3  -5  315.71   17.11
  -2   3  -5  304.58   17.15
  -2   3  -6  105.24    5.53
  -2   3  -6   92.64    5.52
  -2   3  -7    6.26    0.85
  -2   3  -7    8.88    0.64
  -2   3  -8   -0.08    0.30
  -2   3  -8    0.07    0.26
  -2   3  -8   -0.06    0.28
  -2   3  -8   -0.16    0.28
  -2   3  -8   -0.11    0.29
  -2   3  -8   -0.28    0.26
  -2   3  -8   -0.10    0.25
  -2   3  -8    0.10    0.26
  -2   3  -8   -0.43    0.50
  -2   3  -9   16.75    1.24
  -2   3  -9   18.19    1.26
  -2   3  -9   17.57    1.17
  -2   3  -9   17.92    1.21
  -2   3  -9   15.63    1.12
  -2   3  -9   18.13    1.21
  -2   3  -9   17.80    1.20
  -2   3  -9   18.46    1.68
  -2   3  -9   16.35    1.22
  -2   3  -9   15.16    1.12
  -2   3  -9   15.64    1.15
  -2   3  -9   18.74    1.19
  -2   3 -10    7.37    0.71
  -2   3 -10    7.82    0.65
  -2   3 -10    8.66    0.81
  -2   3 -10    7.80    0.75
  -2   3 -10    8.90    0.74
  -2   3 -10    7.80    0.78
  -2   3 -10    9.10    0.81
  -2   3 -10    6.10    1.05
  -2   3 -10    8.13    0.75
  -2   3 -10    9.76    0.80
  -2   3 -10    8.61    0.69
  -2   3 -11    1.05    0.38
  -2   3 -11    1.60    0.41
  -2   3 -11    0.93    0.32
  -2   3 -11    1.13    0.46
  -2   3 -11    0.67    0.35
  -2   3 -11    1.48    0.45
  -2   3 -11    0.78    0.40
  -2   3 -11    1.10    0.42
  -2   3 -11    0.90    0.37
  -2   3 -12    6.68    0.68
  -2   3 -12    6.95    0.65
  -2   3 -12    5.98    0.64
  -2   3 -12    7.40    0.70
  -2   3 -12    7.13    0.70
  -2   3 -12    6.63    0.62
  -2   3 -12    6.39    0.62
  -2   3 -13    0.54    0.32
  -2   3 -13    0.66    0.31
  -2   3 -13    1.07    0.29
  -2   3 -13    0.32    0.29
  -2   3 -14    0.27    0.20
  -2   3 -14    0.07    0.18
  -2   3 -14    0.08    0.17
   2  -2 -12    9.92    0.73
   2  -2 -12    9.50    0.69
   2  -2 -11    2.98    0.40
   2  -2 -11    3.20    0.47
   2  -2 -11    2.92    0.39
   2  -2 -11    2.59    0.43
   2  -2 -11    2.14    0.36
   2  -2 -10   33.52    1.87
   2  -2 -10   30.64    1.86
   2  -2 -10   29.83    1.92
   2  -2 -10   29.53    1.96
   2  -2 -10   26.11    1.76
   2  -2 -10   29.73    1.88
   2  -2  -9    0.70    0.34
   2  -2  -9    0.97    0.29
   2  -2  -9    1.65    0.47
   2  -2  -9    0.98    0.36
   2  -2  -9    0.64    0.28
   2  -2  -9    1.27    0.33
   2  -2  -8    0.17    0.41
   2  -2  -8    0.34    0.24
   2  -2  -8    0.17    0.20
   2  -2  -8    0.22    0.27
   2  -2  -7    4.89    0.42
   2  -2  -7    4.43    0.60
   2  -2  -7    5.56    0.46
   2  -2  -7    4.39    0.45
   2  -2  -6   18.85    1.17
   2  -2  -6   20.40    1.71
   2  -2  -6   19.43    1.25
   2  -2  -5    1.04    0.26
   2  -2  -5    0.99    0.18
   2  -2  -4   70.04    4.19
   2  -2  -4   66.44    3.82
   2  -2  -4   71.62    3.76
   2  -2  -4   59.01    3.84
  -2   2   3    5.97    0.43
   2  -2  -3    5.55    0.38
  -2   2   2    8.16    0.58
  -2   2   1  561.27   30.82
  -2   2   0  158.46    8.80
  -2   2  -1  520.19   28.52
   2  -2   1  515.56   28.49
  -2   2  -2  261.17   14.42
  -2   2  -3  117.40    6.54
  -2   2  -4 1247.30   68.32
  -2   2  -5   63.82    3.30
   2  -2   5   53.09    3.34
  -2   2  -5   56.61    3.27
  -2   2  -6   38.96    2.29
  -2   2  -6   39.72    2.59
  -2   2  -7    3.79    0.68
  -2   2  -7    3.70    0.42
  -2   2  -8    0.06    0.29
  -2   2  -8    0.21    0.29
  -2   2  -8    0.05    0.23
  -2   2  -8   -0.09    0.26
  -2   2  -8   -0.11    0.27
  -2   2  -8   -0.04    0.30
  -2   2  -8    0.04    0.28
  -2   2  -8   -0.24    0.31
  -2   2  -8    0.03    0.24
  -2   2  -8    0.44    0.52
  -2   2  -8    0.03    0.22
  -2   2  -8   -0.12    0.30
  -2   2  -9    1.11    0.29
  -2   2  -9    1.37    0.23
  -2   2  -9    1.24    0.31
  -2   2  -9    1.34    0.38
  -2   2  -9    1.98    0.36
  -2   2  -9    2.05    0.42
  -2   2  -9    1.61    0.41
  -2   2  -9    1.39    0.42
  -2   2  -9    0.91    0.56
  -2   2  -9    1.12    0.38
  -2   2  -9    1.76    0.36
  -2   2  -9    2.00    0.43
  -2   2 -10    9.02    0.74
  -2   2 -10    7.04    0.59
  -2   2 -10    9.25    0.78
  -2   2 -10    8.69    0.70
  -2   2 -10    7.87    0.80
  -2   2 -10    9.46    0.83
  -2   2 -10   10.16    0.83
  -2   2 -10    7.95    0.74
  -2   2 -10    8.46    0.80
  -2   2 -10    9.59    0.80
  -2   2 -11    2.61    0.50
  -2   2 -11    3.34    0.45
  -2   2 -11    1.90    0.43
  -2   2 -11    2.18    0.46
  -2   2 -11    2.59    0.47
  -2   2 -11    3.01    0.53
  -2   2 -11    2.19    0.45
  -2   2 -12   26.71    1.60
  -2   2 -12   26.40    1.61
  -2   2 -12   25.92    1.63
  -2   2 -12   26.86    1.67
  -2   2 -12   20.67    1.56
  -2   2 -13    0.24    0.23
  -2   2 -13    0.22    0.22
  -2   2 -13   -0.26    0.26
   2  -1 -13    0.98    0.23
   2  -1 -13    0.84    0.19
   2  -1 -12   12.80    0.94
   2  -1 -12   12.78    0.91
   2  -1 -12   11.93    0.86
   2  -1 -12   12.47    0.82
   2  -1 -11    0.25    0.35
   2  -1 -11    0.38    0.38
   2  -1 -11    0.48    0.32
   2  -1 -11   -0.15    0.27
   2  -1 -10    6.42    0.71
   2  -1 -10    4.77    0.58
   2  -1 -10    5.49    0.65
   2  -1 -10    5.88    0.56
   2  -1  -9    0.07    0.32
   2  -1  -9   -0.13    0.33
   2  -1  -9    0.03    0.26
   2  -1  -9    0.34    0.39
   2  -1  -9    0.03    0.21
   2  -1  -8    2.03    0.47
   2  -1  -8    1.48    0.28
   2  -1  -8    1.88    0.28
   2  -1  -8    1.42    0.36
   2  -1  -7    5.60    0.62
   2  -1  -6  166.84    9.30
   2  -1  -5    8.76    0.56
   2  -1  -5    8.23    0.62
   2  -1  -4   73.71    4.42
   2  -1  -4   85.72    4.36
  -2   1   4   76.21    4.37
   2  -1  -4   74.02    4.40
  -2   1   3    0.32    0.15
   2  -1  -3    0.21    0.23
   2  -1  -2   91.13    4.81
  -2   1   2   80.17    4.74
  -2   1   1 1395.37   76.45
  -2   1   0  112.92    6.32
  -2   1  -1 1238.68   67.88
   2  -1   2 2105.96  115.33
   2  -1   3   27.80    1.69
  -2   1  -3   27.70    1.64
   2  -1   4   26.17    1.69
  -2   1  -4   25.87    1.63
  -2   1  -5    0.64    0.22
  -2   1  -5    0.56    0.35
  -2   1  -6   25.91    1.94
  -2   1  -6   28.51    1.69
  -2   1  -7    1.31    0.32
  -2   1  -7    0.92    0.47
  -2   1  -8    1.82    0.39
  -2   1  -8    1.89    0.32
  -2   1  -8    1.50    0.37
  -2   1  -8    1.16    0.38
  -2   1  -8    1.32    0.32
  -2   1  -8    1.41    0.36
  -2   1  -8    1.97    0.37
  -2   1  -8    1.14    0.54
  -2   1  -8    1.68    0.24
  -2   1  -8    0.92    0.29
  -2   1  -8    1.60    0.32
  -2   1  -9   31.93    2.01
  -2   1  -9   28.31    1.80
  -2   1  -9   33.22    1.97
  -2   1  -9   33.60    1.99
  -2   1  -9   31.31    2.02
  -2   1  -9   27.61    2.40
  -2   1  -9   30.81    1.99
  -2   1  -9   26.14    1.88
  -2   1  -9   31.45    1.89
  -2   1  -9   30.14    1.91
  -2   1  -9   36.44    2.00
  -2   1 -10    0.51    0.24
  -2   1 -10    1.75    0.46
  -2   1 -10    1.47    0.43
  -2   1 -10    1.00    0.36
  -2   1 -10    1.92    0.44
  -2   1 -10    0.86    0.39
  -2   1 -10    1.27    0.37
  -2   1 -10    0.79    0.40
  -2   1 -11    4.09    0.53
  -2   1 -11    4.04    0.49
  -2   1 -11    5.20    0.60
  -2   1 -11    3.18    0.51
  -2   1 -11    3.47    0.46
  -2   1 -12    2.70    0.43
  -2   1 -12    2.46    0.39
  -2   1 -12    2.96    0.38
  -2   1 -12    3.08    0.39
  -2   1 -13    2.12    0.26
  -2   1 -13    2.27    0.32
   2   0 -13    1.32    0.29
   2   0 -13    0.88    0.22
   2   0 -12   14.45    1.04
   2   0 -12   14.08    1.01
   2   0 -12   14.58    0.99
   2   0 -12   11.93    0.95
   2   0 -11   19.13    1.16
   2   0 -11   15.53    1.08
   2   0 -11   15.39    1.07
   2   0 -11   15.24    1.20
   2   0 -11   15.80    1.16
   2   0 -11   16.40    1.23
   2   0 -10    0.55    0.43
   2   0 -10    1.32    0.34
   2   0 -10    0.71    0.37
   2   0 -10    0.54    0.29
   2   0 -10    0.68    0.30
   2   0 -10    0.96    0.41
   2   0 -10    0.65    0.28
   2   0  -9   35.40    2.17
   2   0  -9   38.24    2.21
   2   0  -9   35.24    2.23
   2   0  -9   32.77    2.13
   2   0  -9   38.84    2.16
   2   0  -9   35.79    2.16
   2   0  -9   33.59    2.16
   2   0  -9   37.95    2.33
   2   0  -8   29.48    1.64
   2   0  -8   25.61    1.71
   2   0  -8   26.98    1.68
   2   0  -8   24.13    1.63
   2   0  -8   28.69    1.80
   2   0  -8   27.19    1.64
   2   0  -7   11.35    0.74
   2   0  -6    2.10    0.24
   2   0  -5    9.70    0.60
   2   0  -5    8.83    0.94
   2   0  -4   96.55    6.02
   2   0  -4  111.93    6.27
   2   0  -4  113.43    5.97
  -2   0   3    2.17    0.30
   2   0  -3    1.93    0.28
  -2   0   2   28.26    1.70
   2   0  -2   30.89    1.74
   2   0  -2   26.52    1.69
   2   0  -2   27.21    1.68
   2   0  -1    6.40    0.56
  -2   0   1    6.83    0.55
   2   0  -1    6.71    0.51
   2   0   0   41.63    2.43
  -2   0  -1 1325.76   71.84
   2   0   1 1296.60   71.83
  -2   0  -2  121.26    6.65
   2   0   2  116.49    6.65
   2   0   3   14.63    0.94
  -2   0  -3   14.69    0.94
  -2   0  -4   16.27    1.14
  -2   0  -4   15.39    0.93
  -2   0  -5   41.23    2.64
  -2   0  -6   89.75    5.40
  -2   0  -7    1.80    0.41
  -2   0  -7    1.25    0.27
  -2   0  -7    0.98    0.35
  -2   0  -7    1.17    0.55
  -2   0  -7    1.59    0.23
  -2   0  -8    4.41    0.47
  -2   0  -8    4.39    0.54
  -2   0  -8    4.67    0.40
  -2   0  -8    3.80    0.46
  -2   0  -8    4.94    0.54
  -2   0  -8    4.87    0.54
  -2   0  -8    4.20    0.57
  -2   0  -8    4.67    0.48
  -2   0  -9   19.48    1.28
  -2   0  -9   22.88    1.45
  -2   0  -9   24.08    1.46
  -2   0  -9   20.32    1.38
  -2   0  -9   18.67    1.40
  -2   0  -9   22.90    1.50
  -2   0  -9   19.83    1.36
  -2   0 -10    9.96    0.83
  -2   0 -10   11.18    0.88
  -2   0 -10   11.94    0.84
  -2   0 -10   13.46    0.94
  -2   0 -10    9.25    0.73
  -2   0 -10   11.67    0.95
  -2   0 -10   11.04    0.94
  -2   0 -11   -0.04    0.31
  -2   0 -11    0.23    0.28
  -2   0 -11    0.09    0.36
  -2   0 -11    0.12    0.28
  -2   0 -11   -0.17    0.35
  -2   0 -12    4.81    0.42
  -2   0 -12    5.14    0.51
  -2   0 -12    5.08    0.45
  -2   0 -12    4.44    0.48
  -2   0 -13    0.13    0.18
   2   1 -14    0.83    0.20
   2   1 -14    0.97    0.21
   2   1 -13   11.51    0.81
   2   1 -13   10.74    0.84
   2   1 -13   11.20    0.84
   2   1 -12    3.20    0.42
   2   1 -12    1.93    0.46
   2   1 -12    2.46    0.47
   2   1 -12    2.40    0.43
   2   1 -11   10.10    0.91
   2   1 -11   10.56    0.90
   2   1 -11   10.64    0.79
   2   1 -11    9.02    0.82
   2   1 -11    9.84    0.78
   2   1 -11    8.86    0.72
   2   1 -10   12.72    0.91
   2   1 -10   12.34    1.01
   2   1 -10   11.96    0.85
   2   1 -10   11.53    0.86
   2   1 -10    9.65    0.79
   2   1 -10   12.87    0.96
   2   1 -10   11.15    0.84
   2   1  -9  105.71    6.07
   2   1  -9  103.80    6.07
   2   1  -9  114.34    6.15
   2   1  -9  112.10    6.05
   2   1  -9  122.11    6.00
   2   1  -9  102.72    6.00
   2   1  -9  102.95    6.01
   2   1  -9  105.23    5.99
   2   1  -9   97.68    6.03
   2   1  -9   99.55    5.95
   2   1  -8   41.12    2.50
   2   1  -8   40.59    2.45
   2   1  -8   41.57    2.39
   2   1  -8   34.12    2.40
   2   1  -8   42.22    2.45
   2   1  -8   41.13    2.39
   2   1  -8   38.61    2.40
   2   1  -8   44.27    2.36
   2   1  -7    8.58    0.58
   2   1  -6    0.37    0.14
   2   1  -5   31.49    1.64
  -2  -1   5   27.49    1.71
   2   1  -5   25.88    1.67
  -2  -1   4    0.41    0.23
   2   1  -3  238.31   13.34
  -2  -1   3  236.21   13.28
   2   1  -3  231.45   13.30
   2   1  -3  249.78   13.26
   2   1  -2  371.56   20.70
  -2  -1   2  376.98   20.72
   2   1  -2  367.60   20.67
   2   1  -2  396.18   20.78
  -2  -1   1    1.42    0.33
   2   1  -1    1.40    0.15
  -2  -1   0    5.68    0.52
   2   1   0    5.59    0.50
   2   1   1  190.85   10.73
  -2  -1  -1  196.29   10.75
  -2  -1  -2   38.08    2.26
  -2  -1  -3   56.15    3.02
  -2  -1  -3   49.64    2.94
  -2  -1  -3   52.09    3.07
  -2  -1  -4   -0.09    0.29
  -2  -1  -4    0.21    0.22
  -2  -1  -4    0.66    0.23
  -2  -1  -5   44.10    2.69
  -2  -1  -5   49.20    2.69
  -2  -1  -5   44.46    2.93
  -2  -1  -6   23.07    1.39
  -2  -1  -6   18.28    1.64
  -2  -1  -7    0.84    0.38
  -2  -1  -7    0.82    0.34
  -2  -1  -7    1.42    0.53
  -2  -1  -7    0.78    0.33
  -2  -1  -7    1.02    0.22
  -2  -1  -7    0.60    0.32
  -2  -1  -8   11.64    0.78
  -2  -1  -8    9.68    0.90
  -2  -1  -8   11.53    0.98
  -2  -1  -8   11.04    0.89
  -2  -1  -8   11.16    0.83
  -2  -1  -8   12.69    0.94
  -2  -1  -9    1.15    0.44
  -2  -1  -9    0.91    0.27
  -2  -1  -9    0.88    0.38
  -2  -1  -9    0.52    0.28
  -2  -1  -9    0.78    0.34
  -2  -1  -9    0.74    0.39
  -2  -1 -10    5.56    0.66
  -2  -1 -10    6.11    0.67
  -2  -1 -10    5.76    0.53
  -2  -1 -10    6.68    0.66
  -2  -1 -11   19.83    1.26
  -2  -1 -11   19.71    1.34
  -2  -1 -11   19.94    1.35
  -2  -1 -12    4.47    0.41
  -2  -1 -12    4.15    0.36
  -2  -1 -12    5.16    0.45
  -2  -1 -12    3.69    0.34
   2   2 -14    0.29    0.23
   2   2 -14    0.28    0.24
   2   2 -13   12.42    0.97
   2   2 -13   12.80    0.93
   2   2 -13   13.57    0.98
   2   2 -12    0.78    0.31
   2   2 -12    1.11    0.43
   2   2 -12    0.42    0.30
   2   2 -12    1.06    0.37
   2   2 -12    0.86    0.25
   2   2 -12    0.68    0.23
   2   2 -11   11.27    0.98
   2   2 -11   12.30    0.87
   2   2 -11   11.60    0.88
   2   2 -11   11.27    0.96
   2   2 -11   10.96    0.88
   2   2 -11   10.31    0.82
   2   2 -11   11.96    0.82
   2   2 -10    1.12    0.28
   2   2 -10    0.80    0.29
   2   2 -10    0.68    0.39
   2   2 -10    1.14    0.40
   2   2 -10    1.51    0.45
   2   2 -10    0.54    0.35
   2   2 -10    1.29    0.45
   2   2 -10    1.18    0.35
   2   2 -10    0.90    0.26
   2   2 -10    1.54    0.37
   2   2  -9   38.53    2.30
   2   2  -9   32.88    2.22
   2   2  -9   35.03    2.18
   2   2  -9   37.64    2.31
   2   2  -9   36.06    2.24
   2   2  -9   40.78    2.16
   2   2  -9   36.20    2.26
   2   2  -9   36.84    2.20
   2   2  -9   34.09    2.19
   2   2  -9   38.53    2.22
   2   2  -9   34.25    2.15
   2   2  -8    0.14    0.18
   2   2  -8    0.10    0.21
   2   2  -7   39.02    2.23
   2   2  -6   49.77    2.79
   2   2  -6   49.44    2.84
  -2  -2   5    6.10    0.57
   2   2  -5    6.66    0.42
   2   2  -5    6.24    0.50
   2   2  -4  172.04    9.97
  -2  -2   4  190.37   10.05
   2   2  -3   29.19    1.85
  -2  -2   3   27.09    1.74
   2   2  -2   84.12    4.98
  -2  -2   2   87.07    4.91
   2   2  -1    3.26    0.30
  -2  -2   0   21.36    1.39
  -2  -2  -1  311.93   17.28
  -2  -2  -2   16.96    1.06
   2   2   2   15.62    1.04
  -2  -2  -2   16.24    1.11
   2   2   3   53.32    3.15
  -2  -2  -3   52.62    3.22
  -2  -2  -3   55.11    3.14
  -2  -2  -3   56.31    3.13
  -2  -2  -3   60.32    3.29
  -2  -2  -4    8.36    0.59
  -2  -2  -4    6.90    0.59
  -2  -2  -4    8.84    0.79
  -2  -2  -5   61.21    3.40
  -2  -2  -5   57.42    3.42
  -2  -2  -5   57.37    3.67
  -2  -2  -6   20.35    1.30
  -2  -2  -6   19.48    1.35
  -2  -2  -6   20.40    1.35
  -2  -2  -6   18.81    1.25
  -2  -2  -6   17.57    1.15
  -2  -2  -7   10.23    0.85
  -2  -2  -7    8.97    0.72
  -2  -2  -7   11.28    0.90
  -2  -2  -7   10.71    0.82
  -2  -2  -7    9.57    0.70
  -2  -2  -7    9.94    0.88
  -2  -2  -8    1.32    0.40
  -2  -2  -8    0.90    0.43
  -2  -2  -8    0.53    0.24
  -2  -2  -8    1.12    0.44
  -2  -2  -8    1.13    0.41
  -2  -2  -8    1.17    0.29
  -2  -2  -9    1.77    0.46
  -2  -2  -9    0.89    0.36
  -2  -2  -9    0.69    0.26
  -2  -2  -9    1.29    0.40
  -2  -2 -10    6.25    0.63
  -2  -2 -10    6.32    0.59
  -2  -2 -10    4.81    0.45
  -2  -2 -10    5.92    0.63
  -2  -2 -10    6.25    0.62
  -2  -2 -11   17.50    1.18
  -2  -2 -11   22.64    1.25
  -2  -2 -11   19.52    1.28
  -2  -2 -11   20.56    1.28
  -2  -2 -12    7.73    0.55
   2   3 -14   -0.34    0.27
   2   3 -13    7.55    0.69
   2   3 -13    7.25    0.64
   2   3 -13    6.01    0.51
   2   3 -12    3.40    0.44
   2   3 -12    3.70    0.53
   2   3 -12    2.52    0.38
   2   3 -12    3.42    0.52
   2   3 -12    2.55    0.37
   2   3 -12    2.77    0.49
   2   3 -12    2.67    0.45
   2   3 -12    2.69    0.37
   2   3 -11   32.71    2.03
   2   3 -11   33.71    2.19
   2   3 -11   35.12    2.20
   2   3 -11   34.01    2.14
   2   3 -11   32.63    2.15
   2   3 -11   32.86    2.09
   2   3 -11   32.18    2.05
   2   3 -11   34.90    2.05
   2   3 -11   35.16    2.11
   2   3 -10   14.03    1.04
   2   3 -10   13.67    0.97
   2   3 -10   14.41    1.07
   2   3 -10   14.92    1.11
   2   3 -10   15.31    1.14
   2   3 -10   13.71    1.03
   2   3 -10   13.70    1.01
   2   3 -10   15.58    1.15
   2   3 -10   15.67    1.00
   2   3  -9   15.56    0.99
   2   3  -9   15.46    1.08
   2   3  -9   15.98    1.14
   2   3  -9   14.68    1.12
   2   3  -9   15.41    1.11
   2   3  -9   15.33    1.05
   2   3  -9   14.74    1.05
   2   3  -9   13.50    1.06
   2   3  -9   16.40    1.07
   2   3  -8   36.58    2.11
   2   3  -7   58.43    3.28
   2   3  -6    2.70    0.54
   2   3  -6    2.52    0.22
  -2  -3   6    2.86    0.41
   2   3  -6    1.99    0.30
   2   3  -5   42.51    2.93
  -2  -3   5   46.90    2.90
  -2  -3   4   15.17    1.16
   2   3  -4   16.00    1.09
  -2  -3   3  112.75    6.08
   2   3  -3  101.51    6.00
  -2  -3   2   36.07    2.15
   2   3  -2   33.12    2.07
   2   3  -1   27.61    1.71
  -2  -3   0   91.97    5.14
  -2  -3   0   91.22    4.98
   2   3   0   83.02    5.05
   2   3   1    1.46    0.26
  -2  -3  -1    1.83    0.39
  -2  -3  -1    1.26    0.26
  -2  -3  -2  138.22    7.85
  -2  -3  -2  138.03    7.66
   2   3   2  138.98    7.75
  -2  -3  -3   23.24    1.60
   2   3   3   26.46    1.53
  -2  -3  -3   23.75    1.51
  -2  -3  -3   25.27    1.49
  -2  -3  -4    3.90    0.40
  -2  -3  -4    4.23    0.43
  -2  -3  -5    4.51    0.38
  -2  -3  -5    4.27    0.49
  -2  -3  -5    3.68    0.47
  -2  -3  -5    5.21    0.48
  -2  -3  -6   24.10    1.52
  -2  -3  -6   24.78    1.62
  -2  -3  -6   26.44    1.74
  -2  -3  -6   26.72    1.66
  -2  -3  -6   25.16    1.63
  -2  -3  -6   27.13    1.74
  -2  -3  -7    2.91    0.45
  -2  -3  -7    2.33    0.45
  -2  -3  -7    2.60    0.54
  -2  -3  -7    2.41    0.51
  -2  -3  -8   14.49    1.05
  -2  -3  -8   18.91    1.27
  -2  -3  -8   17.48    1.17
  -2  -3  -8   16.29    1.21
  -2  -3  -8   15.97    1.23
  -2  -3  -9    9.79    0.80
  -2  -3  -9    9.56    0.84
  -2  -3  -9   10.43    0.74
  -2  -3  -9    9.04    0.81
  -2  -3 -10   32.34    1.89
  -2  -3 -10   32.69    1.97
  -2  -3 -10   33.50    2.02
  -2  -3 -10   30.91    1.99
  -2  -3 -11    2.99    0.33
  -2  -3 -11    2.20    0.30
  -2  -3 -11    2.76    0.29
   2   4 -15    0.11    0.16
   2   4 -14    0.03    0.30
   2   4 -14    0.03    0.27
   2   4 -14   -0.06    0.16
   2   4 -13   -0.24    0.35
   2   4 -13    0.42    0.27
   2   4 -13    0.22    0.23
   2   4 -13    0.26    0.21
   2   4 -13    0.17    0.34
   2   4 -13    0.43    0.39
   2   4 -12    0.70    0.38
   2   4 -12    1.15    0.34
   2   4 -12    1.20    0.41
   2   4 -12    1.06    0.43
   2   4 -12    0.61    0.27
   2   4 -12    1.00    0.29
   2   4 -11   44.83    2.77
   2   4 -11   39.89    2.77
   2   4 -11   49.71    2.86
   2   4 -11   47.32    2.87
   2   4 -11   46.22    2.74
   2   4 -11   48.28    2.88
   2   4 -11   46.10    2.81
   2   4 -11   48.35    2.80
   2   4 -11   48.22    2.72
   2   4 -11   43.38    2.72
   2   4 -10   60.14    4.12
   2   4 -10   81.96    4.25
   2   4 -10   71.50    4.21
   2   4 -10   75.86    4.07
   2   4 -10   68.61    4.13
   2   4 -10   74.25    4.21
   2   4 -10   67.94    4.07
   2   4 -10   71.57    4.12
   2   4 -10   72.61    4.10
   2   4 -10   72.63    4.15
   2   4 -10   70.66    4.16
   2   4  -9    0.38    0.32
   2   4  -9    0.06    0.17
   2   4  -9    0.03    0.30
   2   4  -9   -0.65    0.29
   2   4  -9   -0.08    0.32
   2   4  -9   -0.16    0.33
   2   4  -9    0.03    0.24
   2   4  -9    0.10    0.27
   2   4  -9   -0.07    0.28
   2   4  -9    0.13    0.23
   2   4  -8    6.14    0.44
   2   4  -7    8.73    0.55
  -2  -4   6   16.53    1.22
   2   4  -6   18.23    1.15
   2   4  -5   30.02    2.09
   2   4  -5   35.58    2.07
  -2  -4   5   33.67    2.15
   2   4  -4    0.04    0.24
  -2  -4   4    0.34    0.30
  -2  -4   3   62.64    3.70
   2   4  -3   61.56    3.64
   2   4  -3   62.09    3.87
   2   4  -2  371.01   20.47
   2   4  -2  371.38   20.24
   2   4  -2  356.43   20.27
  -2  -4   1   50.31    3.09
   2   4  -1   51.05    3.02
  -2  -4   0   11.88    0.78
  -2  -4   0    9.88    0.89
   2   4   0   10.26    0.83
  -2  -4  -1   28.64    1.90
  -2  -4  -1   29.11    2.00
   2   4   1   31.19    1.92
  -2  -4  -1   31.84    1.78
  -2  -4  -2    8.72    0.61
   2   4   2    9.44    0.71
  -2  -4  -2    7.18    0.76
  -2  -4  -3    0.14    0.23
  -2  -4  -3    0.45    0.23
  -2  -4  -4   10.84    0.73
  -2  -4  -4   10.95    0.83
  -2  -4  -4   11.78    0.81
  -2  -4  -5    0.12    0.28
  -2  -4  -5   -0.07    0.29
  -2  -4  -5    0.15    0.28
  -2  -4  -5   -0.04    0.19
  -2  -4  -6   39.53    2.43
  -2  -4  -6   42.08    2.56
  -2  -4  -6   41.52    2.64
  -2  -4  -6   44.37    2.66
  -2  -4  -6   40.33    2.54
  -2  -4  -6   44.46    2.53
  -2  -4  -7   10.96    0.89
  -2  -4  -7    8.89    0.84
  -2  -4  -7    8.70    0.75
  -2  -4  -7    7.71    0.65
  -2  -4  -7    9.02    0.79
  -2  -4  -8   19.77    1.39
  -2  -4  -8   18.11    1.30
  -2  -4  -8   20.61    1.40
  -2  -4  -8   19.65    1.34
  -2  -4  -9   23.46    1.55
  -2  -4  -9   23.33    1.53
  -2  -4  -9   25.00    1.60
  -2  -4  -9   25.23    1.49
  -2  -4 -10    2.75    0.29
  -2  -4 -10    3.68    0.40
  -2  -4 -10    3.62    0.38
   2   5 -15    1.80    0.28
   2   5 -14    3.16    0.46
   2   5 -14    3.61    0.45
   2   5 -14    3.60    0.35
   2   5 -13    0.02    0.22
   2   5 -13    0.08    0.24
   2   5 -13   -0.13    0.39
   2   5 -13    0.45    0.29
   2   5 -13   -0.04    0.36
   2   5 -12   11.23    0.85
   2   5 -12   11.04    0.92
   2   5 -12   11.14    1.00
   2   5 -12   11.88    0.97
   2   5 -12   12.16    0.91
   2   5 -12   11.66    0.86
   2   5 -12   12.99    1.01
   2   5 -11   26.06    1.74
   2   5 -11   28.54    1.76
   2   5 -11   22.24    1.65
   2   5 -11   26.81    1.68
   2   5 -11   24.23    1.62
   2   5 -11   28.00    1.74
   2   5 -11   25.80    1.66
   2   5 -11   23.68    1.64
   2   5 -11   25.33    1.60
   2   5 -10   47.40    2.88
   2   5 -10   41.62    2.79
   2   5 -10   50.45    2.89
   2   5 -10   48.36    2.89
   2   5 -10   48.29    2.82
   2   5 -10   46.73    2.79
   2   5 -10   45.80    2.83
   2   5 -10   49.47    2.83
   2   5 -10   45.31    2.82
   2   5  -9    3.30    0.44
   2   5  -9    3.59    0.41
   2   5  -9    3.84    0.51
   2   5  -9    3.07    0.43
   2   5  -9    3.61    0.49
   2   5  -9    3.34    0.49
   2   5  -9    4.17    0.49
   2   5  -9    2.78    0.41
   2   5  -9    3.21    0.42
   2   5  -8   50.37    2.77
   2   5  -8   43.25    2.68
   2   5  -8   45.22    2.67
  -2  -5   7   36.16    2.40
   2   5  -6    2.88    0.53
  -2  -5   6    4.63    0.59
   2   5  -6    4.45    0.51
  -2  -5   5    0.24    0.34
   2   5  -5    0.09    0.48
   2   5  -5    0.38    0.26
   2   5  -4    1.15    0.55
   2   5  -4    1.70    0.36
   2   5  -3   13.51    1.29
   2   5  -2   20.59    1.67
   2   5  -2   19.49    1.41
   2   5  -2   22.30    1.52
   2   5  -1  169.81    9.59
  -2  -5   0   34.03    2.27
   2   5   0   34.42    2.17
  -2  -5  -1   62.07    3.93
   2   5   1   66.29    3.83
  -2  -5  -2    9.17    0.95
  -2  -5  -2   11.58    0.75
  -2  -5  -3    0.02    0.20
  -2  -5  -3   -0.26    0.27
  -2  -5  -3    0.02    0.16
  -2  -5  -4    2.73    0.37
  -2  -5  -4    2.30    0.31
  -2  -5  -4    2.91    0.43
  -2  -5  -4    2.93    0.41
  -2  -5  -5   58.16    3.11
  -2  -5  -5   47.67    3.12
  -2  -5  -5   59.68    3.28
  -2  -5  -5   49.77    3.02
  -2  -5  -5   51.50    3.12
  -2  -5  -6    4.01    0.61
  -2  -5  -6    2.51    0.37
  -2  -5  -6    3.75    0.46
  -2  -5  -6    3.13    0.56
  -2  -5  -6    3.64    0.47
  -2  -5  -7   23.41    1.64
  -2  -5  -7   28.48    1.76
  -2  -5  -7   24.76    1.63
  -2  -5  -7   28.09    1.77
  -2  -5  -8   -0.08    0.31
  -2  -5  -8    0.03    0.23
  -2  -5  -8   -0.12    0.26
  -2  -5  -8   -0.12    0.26
  -2  -5  -8    0.27    0.33
  -2  -5  -9    5.77    0.47
  -2  -5  -9    6.18    0.54
  -2  -5  -9    4.57    0.52
   2   6 -15    0.50    0.23
   2   6 -15    0.06    0.12
   2   6 -14   11.40    0.74
   2   6 -14   12.39    0.87
   2   6 -14   11.07    0.79
   2   6 -14   12.58    0.89
   2   6 -14   10.73    0.77
   2   6 -13    0.24    0.25
   2   6 -13    0.26    0.35
   2   6 -13    0.10    0.27
   2   6 -13    0.22    0.37
   2   6 -13    0.21    0.24
   2   6 -12    4.19    0.46
   2   6 -12    5.19    0.61
   2   6 -12    4.92    0.55
   2   6 -12    3.05    0.55
   2   6 -12    3.10    0.49
   2   6 -12    4.64    0.49
   2   6 -11    3.38    0.48
   2   6 -11    3.54    0.49
   2   6 -11    4.72    0.61
   2   6 -11    4.04    0.52
   2   6 -11    4.06    0.56
   2   6 -11    2.66    0.43
   2   6 -11    3.25    0.46
   2   6 -10   45.69    2.64
   2   6 -10   37.39    2.60
   2   6 -10   41.38    2.68
   2   6 -10   49.94    2.75
   2   6 -10   47.46    2.70
   2   6 -10   45.48    2.72
   2   6 -10   41.64    2.66
   2   6 -10   44.10    2.64
   2   6  -9    0.77    0.38
   2   6  -9    0.21    0.28
   2   6  -9    0.75    0.29
   2   6  -9    0.62    0.33
   2   6  -9    0.59    0.29
   2   6  -9    1.29    0.36
   2   6  -9    0.11    0.28
   2   6  -8   16.25    1.19
   2   6  -8   16.40    1.12
   2   6  -8   16.42    1.18
   2   6  -8   19.76    1.16
  -2  -6   7    1.50    0.43
  -2  -6   6   71.17    4.71
   2   6  -6   83.95    4.67
  -2  -6   5    2.24    0.53
   2   6  -5    4.34    0.80
   2   6  -5    3.76    0.50
   2   6  -4   13.69    1.40
   2   6  -4   13.58    1.10
   2   6  -3   49.00    3.55
   2   6  -3   55.22    3.31
   2   6  -3   55.45    3.43
   2   6  -2   40.23    2.96
   2   6  -2   41.54    2.64
   2   6  -2   42.67    2.76
   2   6  -1    1.79    0.62
  -2  -6   1    1.90    0.47
   2   6  -1    1.74    0.39
  -2  -6   0    5.24    0.71
  -2  -6  -1    2.17    0.50
  -2  -6  -2    0.74    0.19
  -2  -6  -2    1.03    0.21
  -2  -6  -3    7.00    0.64
  -2  -6  -3    8.68    0.69
  -2  -6  -3    7.07    0.55
  -2  -6  -3    7.31    0.55
  -2  -6  -4   29.65    1.97
  -2  -6  -4   30.86    1.94
  -2  -6  -4   28.94    1.86
   2   6   4   35.29    1.90
  -2  -6  -5   35.25    2.14
  -2  -6  -5   33.16    2.10
  -2  -6  -5   38.75    2.30
  -2  -6  -5   34.00    2.16
  -2  -6  -5   33.28    2.25
  -2  -6  -6    9.98    0.90
  -2  -6  -6    9.44    0.88
  -2  -6  -6    9.33    0.76
  -2  -6  -7    0.11    0.27
  -2  -6  -7   -0.13    0.33
  -2  -6  -7    0.37    0.34
  -2  -6  -7    0.06    0.25
  -2  -6  -8    0.02    0.21
  -2  -6  -8   -0.12    0.24
  -2  -6  -8   -0.09    0.25
  -2  -6  -9    0.13    0.13
  -2  -6  -9    0.09    0.15
  -2  -6  -9    0.15    0.16
   2   7 -15    2.10    0.22
   2   7 -15    1.73    0.28
   2   7 -14    6.68    0.54
   2   7 -14    8.12    0.66
   2   7 -14    7.16    0.52
   2   7 -14    6.82    0.56
   2   7 -13    1.58    0.30
   2   7 -13    1.07    0.32
   2   7 -13    0.88    0.41
   2   7 -13    1.97    0.43
   2   7 -13    1.32    0.32
   2   7 -13    1.02    0.30
   2   7 -12    0.23    0.36
   2   7 -12    0.41    0.30
   2   7 -12    0.40    0.30
   2   7 -12    0.09    0.39
   2   7 -12    0.39    0.31
   2   7 -12    0.44    0.30
   2   7 -11   10.56    0.79
   2   7 -11   10.51    0.80
   2   7 -11    8.28    0.76
   2   7 -11    9.65    0.84
   2   7 -11    9.77    0.86
   2   7 -11    8.12    0.78
   2   7 -11    9.71    0.89
   2   7 -10    6.69    0.68
   2   7 -10    4.04    0.51
   2   7 -10    5.17    0.56
   2   7 -10    5.20    0.63
   2   7 -10    6.38    0.63
   2   7 -10    7.76    0.70
   2   7 -10    6.31    0.60
   2   7  -9   15.00    1.02
   2   7  -9   14.59    1.08
   2   7  -9   15.04    1.02
   2   7  -9   13.56    1.10
   2   7  -9   13.26    1.01
   2   7  -9   15.39    1.12
  -2  -7   8    3.01    0.62
   2   7  -8    3.11    0.46
   2   7  -8    4.33    0.43
   2   7  -8    3.89    0.51
  -2  -7   7    7.92    0.99
   2   7  -7    9.23    0.72
   2   7  -7    9.97    0.70
   2   7  -6  105.86    6.40
  -2  -7   6   97.91    6.08
  -2  -7   5    1.28    0.51
   2   7  -5    1.01    0.58
   2   7  -4   67.42    4.47
   2   7  -3   25.99    1.74
   2   7  -3   20.53    1.79
   2   7  -3   23.87    2.07
   2   7  -2   94.75    5.80
   2   7  -2   92.85    5.57
  -2  -7   2   85.74    5.47
  -2  -7   1    1.36    0.48
   2   7  -1    2.39    0.59
   2   7  -1    1.62    0.70
   2   7   0    1.96    0.76
  -2  -7   0    1.59    0.47
   2   7   0    2.72    0.33
   2   7   1    0.39    0.23
  -2  -7  -1    0.63    0.39
  -2  -7  -2   30.67    1.94
  -2  -7  -2   33.32    1.98
  -2  -7  -3   -0.02    0.21
  -2  -7  -3    0.08    0.32
   2   7   3    0.48    0.24
  -2  -7  -4   21.02    1.51
   2   7   4   23.97    1.44
  -2  -7  -5   -0.10    0.42
  -2  -7  -5    0.41    0.38
  -2  -7  -5    0.61    0.31
  -2  -7  -6    1.08    0.40
  -2  -7  -6    1.10    0.39
  -2  -7  -7    0.03    0.26
  -2  -7  -7    0.63    0.26
  -2  -7  -7   -0.24    0.28
  -2  -7  -7    0.37    0.23
  -2  -7  -8    0.90    0.19
  -2  -7  -8    0.97    0.20
  -2  -7  -8    0.54    0.16
   2   8 -15    0.34    0.15
   2   8 -14   -0.14    0.20
   2   8 -14    0.20    0.28
   2   8 -14   -0.06    0.17
   2   8 -14   -0.02    0.22
   2   8 -13    8.39    0.65
   2   8 -13    8.07    0.73
   2   8 -13    7.47    0.67
   2   8 -13    8.09    0.64
   2   8 -12    0.03    0.27
   2   8 -12   -0.35    0.28
   2   8 -12    0.04    0.31
   2   8 -12    0.26    0.38
   2   8 -12   -0.03    0.29
   2   8 -11    6.81    0.73
   2   8 -11    6.93    0.65
   2   8 -11    7.73    0.74
   2   8 -11    7.12    0.67
   2   8 -11    8.70    0.74
   2   8 -10    4.21    0.54
   2   8 -10    4.97    0.58
   2   8 -10    5.10    0.54
   2   8 -10    4.56    0.61
   2   8 -10    3.87    0.48
   2   8  -9   20.61    1.48
   2   8  -9   23.41    1.45
   2   8  -8    6.49    0.46
  -2  -8   8    5.81    0.87
   2   8  -8    4.58    0.53
   2   8  -8    5.77    0.54
  -2  -8   7   20.56    1.77
   2   8  -7   20.33    1.29
   2   8  -7   21.42    1.34
   2   8  -7   20.58    1.37
   2   8  -6    0.30    0.58
  -2  -8   6    0.10    0.40
   2   8  -6    0.14    0.21
   2   8  -6    0.22    0.25
  -2  -8   5    3.14    0.66
   2   8  -5    1.60    0.71
   2   8  -5    2.77    0.34
   2   8  -5    2.88    0.39
   2   8  -4    9.05    0.62
   2   8  -4    5.62    1.09
   2   8  -4    7.51    0.63
  -2  -8   4    6.33    0.93
   2   8  -3    0.46    0.50
   2   8  -3    0.37    0.22
   2   8  -3    0.06    0.23
   2   8  -3    1.18    0.65
  -2  -8   3    0.20    0.40
   2   8  -2    5.64    1.00
  -2  -8   2    3.95    0.73
   2   8  -2    6.25    0.50
   2   8  -2    4.43    0.82
  -2  -8   1    0.70    0.48
   2   8  -1   -0.15    0.57
   2   8  -1    0.24    0.42
   2   8   0    0.60    0.27
   2   8   0    1.57    0.73
  -2  -8   0    0.31    0.40
  -2  -8   0    0.47    0.23
   2   8   0    0.69    0.19
   2   8   0    0.51    0.51
   2   8   1    2.88    0.39
  -2  -8  -1    3.43    0.38
  -2  -8  -2    6.82    0.62
   2   8   2    9.19    0.68
  -2  -8  -2    8.91    0.75
   2   8   3   11.58    0.77
  -2  -8  -3   10.05    0.84
  -2  -8  -3    9.16    0.71
   2   8   4    2.02    0.31
  -2  -8  -4    2.54    0.40
  -2  -8  -4    1.84    0.47
  -2  -8  -5    1.75    0.41
  -2  -8  -5    1.83    0.35
  -2  -8  -5    2.22    0.44
  -2  -8  -5    1.87    0.35
  -2  -8  -6    3.44    0.43
  -2  -8  -6    4.45    0.40
  -2  -8  -6    3.96    0.39
  -2  -8  -6    3.05    0.41
   2   9 -14    4.72    0.39
   2   9 -14    4.33    0.42
   2   9 -13    0.42    0.25
   2   9 -13    1.05    0.31
   2   9 -13    0.77    0.28
   2   9 -12    2.83    0.45
   2   9 -12    4.02    0.47
   2   9 -12    3.90    0.48
   2   9 -12    3.56    0.43
   2   9 -11    0.67    0.38
   2   9 -11    0.80    0.36
   2   9 -11    1.23    0.40
   2   9 -11    0.43    0.32
   2   9 -10    0.78    0.42
   2   9 -10    0.90    0.31
   2   9 -10    1.23    0.36
   2   9  -9   10.53    0.75
   2   9  -9   12.58    0.87
   2   9  -8    0.13    0.18
   2   9  -8   -0.13    0.27
   2   9  -8    0.33    0.33
  -2  -9   8    0.37    0.43
  -2  -9   7  104.14    6.79
   2   9  -7  118.36    6.18
   2   9  -7  106.47    6.18
   2   9  -7  105.34    6.25
   2   9  -7  109.66    6.22
   2   9  -6    0.31    0.28
  -2  -9   6    0.84    0.56
   2   9  -6    0.49    0.22
   2   9  -6    0.32    0.26
  -2  -9   5    0.12    0.47
   2   9  -5    0.54    0.27
   2   9  -5    0.65    0.63
   2   9  -5    0.16    0.21
   2   9  -4    4.93    0.52
   2   9  -4    4.67    0.95
   2   9  -4    4.63    0.47
   2   9  -3    1.69    0.33
   2   9  -3    1.61    0.67
  -2  -9   3    1.38    0.54
   2   9  -3    1.71    0.64
   2   9  -2    0.16    0.58
   2   9  -2    0.11    0.20
   2   9  -2    0.18    0.25
  -2  -9   2   -0.11    0.42
   2   9  -1   15.60    1.00
   2   9  -1   14.64    1.05
  -2  -9   1   17.31    1.07
  -2  -9   1   13.05    1.42
   2   9   0    1.11    0.22
   2   9   0    1.10    0.32
  -2  -9   0    1.24    0.30
   2   9   1    3.34    0.43
  -2  -9  -1    3.74    0.42
  -2  -9  -2    3.03    0.44
   2   9   2    4.01    0.43
  -2  -9  -2    3.35    0.39
  -2  -9  -3    0.15    0.27
   2   9   3    0.34    0.23
  -2  -9  -3   -0.04    0.26
  -2  -9  -3   -0.04    0.19
  -2  -9  -4    0.35    0.26
   2   9   4    0.33    0.19
  -2  -9  -4    0.16    0.33
  -2  -9  -4    0.35    0.35
  -2  -9  -4    0.12    0.23
  -2  -9  -5    2.98    0.33
  -2  -9  -5    2.14    0.33
  -2  -9  -5    1.86    0.34
  -2  -9  -6   -0.07    0.13
   2  10 -14    8.33    0.55
   2  10 -14    7.03    0.53
   2  10 -14    8.15    0.58
   2  10 -13   -0.24    0.22
   2  10 -13    0.17    0.22
   2  10 -13    0.08    0.25
   2  10 -12   13.80    0.97
   2  10 -12   13.00    0.99
   2  10 -12   14.71    0.95
   2  10 -12   12.74    1.01
   2  10 -11    3.34    0.44
   2  10 -11    2.86    0.49
   2  10 -10    3.07    0.54
   2  10  -9   21.75    1.43
   2  10  -9   19.97    1.29
   2  10  -9   22.64    1.39
   2  10  -8    9.35    0.80
   2  10  -8   10.00    0.70
   2  10  -8   10.02    0.76
  -2 -10   7   40.59    3.29
   2  10  -7   44.81    2.68
   2  10  -7   46.13    2.74
   2  10  -7   46.12    2.65
   2  10  -6    6.96    0.60
   2  10  -6    7.96    0.60
  -2 -10   6    7.62    1.10
   2  10  -6    7.55    0.61
   2  10  -6    8.26    0.71
   2  10  -5   19.89    1.98
   2  10  -5   17.54    1.22
  -2 -10   5   17.02    1.74
   2  10  -5   17.68    1.18
   2  10  -4    0.84    0.29
   2  10  -4    0.67    0.63
  -2 -10   4    0.53    0.50
   2  10  -4    0.74    0.26
  -2 -10   3    1.54    0.32
   2  10  -3    1.26    0.27
   2  10  -3    1.15    0.32
  -2 -10   3    0.90    0.55
   2  10  -2    2.64    0.33
   2  10  -1   -0.03    0.26
  -2 -10   1    0.51    0.29
   2  10  -1    0.42    0.21
  -2 -10   0    2.34    0.36
  -2 -10   0    3.18    0.41
   2  10   0    2.79    0.41
  -2 -10  -1    0.11    0.26
  -2 -10  -1    0.09    0.25
   2  10   1    0.03    0.27
  -2 -10  -1   -0.03    0.24
  -2 -10  -2   -0.22    0.26
   2  10   2   -0.23    0.24
  -2 -10  -2   -0.09    0.22
  -2 -10  -2   -0.23    0.25
  -2 -10  -3    0.87    0.34
  -2 -10  -3    0.96    0.35
   2  10   3    0.49    0.21
  -2 -10  -3    0.95    0.26
  -2 -10  -4    0.16    0.19
  -2 -10  -4   -0.05    0.20
  -2 -10  -4    0.12    0.21
   2  11 -14    2.59    0.27
   2  11 -14    2.50    0.25
   2  11 -13    0.92    0.22
   2  11 -13    1.57    0.26
   2  11 -13    1.18    0.27
   2  11 -12    2.66    0.41
   2  11 -12    2.84    0.38
   2  11 -12    2.47    0.40
   2  11 -12    2.68    0.33
   2  11 -11    1.10    0.27
   2  11 -11    0.39    0.35
   2  11 -10    1.72    0.24
   2  11 -10    1.82    0.36
   2  11 -10    1.64    0.47
   2  11  -9    4.92    0.46
   2  11  -9    3.91    0.51
   2  11  -9    4.06    0.40
   2  11  -8    3.98    0.39
   2  11  -8    3.58    0.47
   2  11  -8    3.62    0.41
   2  11  -7   12.81    0.84
   2  11  -7    9.65    0.81
  -2 -11   7   14.63    0.87
   2  11  -7   11.51    0.92
   2  11  -6   11.73    0.97
  -2 -11   6   18.83    1.04
   2  11  -5   17.92    1.20
   2  11  -5   17.52    1.23
  -2 -11   5   21.39    1.26
   2  11  -4   12.88    0.95
   2  11  -4   12.97    0.90
  -2 -11   4   14.55    0.97
  -2 -11   3    0.28    0.28
   2  11  -3    0.29    0.29
   2  11  -3   -0.10    0.22
   2  11  -2    0.56    0.23
   2  11  -1    3.21    0.32
   2  11  -1    2.51    0.39
  -2 -11   1    2.90    0.40
  -2 -11   0    0.88    0.27
  -2 -11   0    1.06    0.30
   2  11   0    0.95    0.30
  -2 -11  -1    1.81    0.28
   2  11   1    2.01    0.32
  -2 -11  -1    1.87    0.28
  -2 -11  -2    0.22    0.19
   2  11   2    0.16    0.18
  -2 -11  -2   -0.12    0.26
  -2 -11  -2    0.01    0.14
  -2 -11  -3    0.40    0.18
   2  12 -13    1.60    0.25
   2  12 -13    1.36    0.19
   2  12 -12    2.98    0.39
   2  12 -12    2.92    0.30
   2  12 -11   -0.07    0.28
   2  12 -11    0.13    0.19
   2  12 -10    0.84    0.23
   2  12 -10    0.65    0.18
   2  12 -10    0.86    0.26
   2  12 -10    0.57    0.36
   2  12  -9    2.34    0.28
   2  12  -9    1.82    0.35
  -2 -12   8    0.31    0.21
   2  12  -8    1.15    0.24
   2  12  -7    1.42    0.29
   2  12  -7    0.92    0.25
  -2 -12   7    1.49    0.29
   2  12  -6    5.72    0.52
  -2 -12   6    6.56    0.56
   2  12  -5    0.37    0.26
   2  12  -5    0.51    0.23
  -2 -12   5    0.76    0.29
  -2 -12   4    1.25    0.32
   2  12  -4    0.64    0.23
   2  12  -4    0.58    0.27
   2  12  -3    0.08    0.19
   2  12  -3    0.14    0.25
  -2 -12   3    0.47    0.28
  -2 -12   2    0.94    0.30
   2  12  -2    0.62    0.18
  -2 -12   1    0.07    0.23
   2  12  -1   -0.19    0.24
   2  12   0    0.69    0.22
  -2 -12   0    0.70    0.23
  -2 -12  -1    0.01    0.13
  -2 -12  -1   -0.02    0.19
  -2 -12  -1   -0.15    0.20
   2  12   1    0.27    0.16
   2  13 -12    0.70    0.21
   2  13 -11    1.25    0.21
   2  13 -11    0.60    0.28
   2  13 -11    0.86    0.26
   2  13 -10    0.25    0.26
   2  13 -10   -0.18    0.30
   2  13  -9    1.41    0.22
   2  13  -9    1.80    0.41
   2  13  -8    1.24    0.23
   2  13  -7    0.11    0.19
   2  13  -7    0.02    0.18
  -2 -13   7    0.36    0.24
   2  13  -6    3.36    0.35
   2  13  -6    3.01    0.34
  -2 -13   6    4.02    0.41
   2  13  -5    0.29    0.21
   2  13  -5    0.33    0.20
  -2 -13   5    0.56    0.27
   2  13  -4    0.47    0.23
   2  13  -4    0.10    0.18
  -2 -13   4    0.10    0.26
   2  13  -3   -0.10    0.15
   2  13  -3    0.23    0.21
  -2 -13   3    0.02    0.25
  -2 -13   2    1.44    0.26
   2  13  -1    0.57    0.18
  -2 -13   1    1.09    0.21
   2  14 -10    0.44    0.19
   2  14 -10    0.44    0.23
   2  14  -9    0.38    0.21
   2  14  -8    0.12    0.25
   2  14  -8   -0.01    0.14
  -2 -14   7    0.48    0.18
   2  14  -6    0.11    0.15
   2  14  -6    0.31    0.15
   2  14  -5    0.47    0.16
  -2 -14   5    0.73    0.22
  -2 -14   4    0.57    0.19
   2  14  -4    0.36    0.15
   2  14  -3    0.08    0.13
   3 -14   2    1.12    0.20
   3 -14   3    0.34    0.19
   3 -14   4    0.02    0.18
  -3  14  -5    0.13    0.16
   3 -14   5    0.18    0.18
  -3  14  -6    2.42    0.30
  -3  14  -7    0.49    0.22
  -3  14  -8    5.69    0.48
  -3  14  -8    6.34    0.50
  -3  14  -9    2.04    0.28
  -3  14 -10   -0.03    0.17
   3 -13   0    0.82    0.20
   3 -13   0    0.70    0.22
   3 -13   1   -0.05    0.22
   3 -13   1   -0.15    0.18
   3 -13   2    1.61    0.30
   3 -13   3    0.50    0.26
   3 -13   4    0.23    0.25
  -3  13  -4    0.22    0.22
  -3  13  -5    0.39    0.25
   3 -13   5    0.17    0.22
  -3  13  -6    7.01    0.58
   3 -13   6    6.13    0.53
  -3  13  -7    0.24    0.23
  -3  13  -7    0.22    0.31
  -3  13  -8    6.22    0.60
  -3  13  -8    5.85    0.56
  -3  13  -8    6.04    0.53
  -3  13  -9    0.19    0.21
  -3  13  -9    0.11    0.29
  -3  13  -9    0.12    0.28
  -3  13 -10    0.15    0.20
  -3  13 -10    0.04    0.18
  -3  13 -10    0.23    0.24
  -3  13 -11    0.31    0.16
  -3  13 -11    0.07    0.10
  -3  13 -12    0.41    0.15
   3 -12  -2    0.34    0.20
   3 -12  -2   -0.02    0.16
   3 -12  -1    0.73    0.24
   3 -12  -1    0.70    0.25
  -3  12   0    0.38    0.22
   3 -12   1    0.95    0.31
  -3  12  -1    1.17    0.30
   3 -12   2    0.03    0.26
  -3  12  -2    0.12    0.27
   3 -12   3    0.65    0.31
  -3  12  -3    0.48    0.31
   3 -12   4    0.39    0.28
  -3  12  -4    0.56    0.30
  -3  12  -5   -0.14    0.29
  -3  12  -5   -0.35    0.33
  -3  12  -5   -0.03    0.27
   3 -12   5   -0.03    0.24
  -3  12  -6    1.22    0.40
  -3  12  -6    0.80    0.33
  -3  12  -7    0.22    0.26
  -3  12  -7   -0.05    0.36
  -3  12  -8    2.29    0.39
  -3  12  -8    1.98    0.45
  -3  12  -9   -0.28    0.39
  -3  12  -9   -0.32    0.27
  -3  12  -9    0.40    0.32
  -3  12  -9    0.11    0.24
  -3  12 -10    0.90    0.38
  -3  12 -10    1.22    0.26
  -3  12 -10    0.70    0.28
  -3  12 -11   -0.08    0.25
  -3  12 -11   -0.27    0.18
  -3  12 -11    0.17    0.23
  -3  12 -11   -0.13    0.20
  -3  12 -12    1.13    0.23
  -3  12 -12    0.78    0.23
  -3  12 -12    1.09    0.20
   3 -11  -4    2.56    0.34
   3 -11  -3   11.96    0.75
   3 -11  -3    8.79    0.67
   3 -11  -2    0.05    0.23
   3 -11  -2   -0.39    0.27
  -3  11   1    0.18    0.22
   3 -11  -1    0.06    0.27
  -3  11   0    0.72    0.29
   3 -11   1    0.74    0.31
  -3  11  -1    0.33    0.28
  -3  11  -2    0.53    0.33
   3 -11   2    0.60    0.32
   3 -11   3   -0.06    0.25
  -3  11  -3    0.04    0.30
  -3  11  -4    0.44    0.25
  -3  11  -4    0.87    0.32
   3 -11   4    0.96    0.29
  -3  11  -5    0.33    0.32
   3 -11   5    0.26    0.25
  -3  11  -5   -0.11    0.29
  -3  11  -6   -0.12    0.31
  -3  11  -6   -0.21    0.40
  -3  11  -7    1.15    0.38
  -3  11  -7    1.71    0.45
  -3  11  -8    5.24    0.58
  -3  11  -8    5.32    0.67
  -3  11  -8    4.69    0.53
  -3  11  -9    0.62    0.33
  -3  11  -9    0.29    0.37
  -3  11  -9    0.59    0.40
  -3  11  -9    0.18    0.30
  -3  11 -10    7.94    0.72
  -3  11 -10   10.24    0.87
  -3  11 -10    8.58    0.75
  -3  11 -10    7.98    0.69
  -3  11 -11    0.03    0.27
  -3  11 -11    0.18    0.26
  -3  11 -11    0.12    0.19
  -3  11 -11    0.16    0.28
  -3  11 -12    3.81    0.41
  -3  11 -12    3.77    0.40
  -3  11 -12    3.74    0.39
  -3  11 -13    0.68    0.21
  -3  11 -13    0.54    0.18
  -3  11 -13    0.67    0.19
   3 -10  -5    0.58    0.21
   3 -10  -5    1.03    0.29
   3 -10  -4    7.67    0.69
   3 -10  -4    5.71    0.49
   3 -10  -3   14.11    0.98
   3 -10  -3   14.63    1.04
   3 -10  -2    0.80    0.31
   3 -10  -2    0.86    0.35
  -3  10   2    0.82    0.25
   3 -10  -1    0.24    0.28
  -3  10   1    0.24    0.25
  -3  10   0    0.17    0.27
  -3  10  -1    4.12    0.46
  -3  10  -1    2.82    0.36
   3 -10   1    3.95    0.46
  -3  10  -2    0.41    0.46
  -3  10  -2    0.25    0.30
  -3  10  -2    0.27    0.24
   3 -10   2   -0.13    0.50
   3 -10   2    0.16    0.26
  -3  10  -3    3.03    0.70
   3 -10   3    3.98    0.45
   3 -10   3    2.36    0.70
  -3  10  -4    7.30    0.56
  -3  10  -4    7.33    0.98
   3 -10   4    6.19    0.57
  -3  10  -4    5.71    0.60
  -3  10  -5   -0.10    0.43
  -3  10  -5    0.10    0.28
  -3  10  -5   -0.09    0.24
   3 -10   5   -0.80    0.60
   3 -10   5    0.14    0.21
  -3  10  -6    4.18    0.41
  -3  10  -6    3.80    0.51
  -3  10  -6    3.75    0.45
   3 -10   6    4.15    0.83
  -3  10  -6    4.00    0.74
  -3  10  -6    3.46    0.59
  -3  10  -7    0.81    0.47
  -3  10  -7    1.06    0.36
  -3  10  -7    0.75    0.25
  -3  10  -7    1.71    0.50
  -3  10  -7    0.50    0.31
  -3  10  -8   -0.08    0.30
  -3  10  -8    0.17    0.32
  -3  10  -8    0.06    0.42
  -3  10  -9    8.22    0.69
  -3  10  -9    9.26    0.81
  -3  10  -9   10.59    0.82
  -3  10  -9   11.45    0.94
  -3  10 -10    0.39    0.41
  -3  10 -10    0.39    0.27
  -3  10 -10   -0.08    0.33
  -3  10 -10    0.46    0.33
  -3  10 -10    0.12    0.35
  -3  10 -11    0.57    0.24
  -3  10 -11    0.17    0.32
  -3  10 -11    0.16    0.25
  -3  10 -11    0.29    0.30
  -3  10 -11    0.28    0.27
  -3  10 -11    0.48    0.23
  -3  10 -12    0.59    0.24
  -3  10 -12    0.46    0.30
  -3  10 -12    0.44    0.27
  -3  10 -12    0.67    0.23
  -3  10 -12    0.38    0.25
  -3  10 -13    1.31    0.25
  -3  10 -13    1.60    0.30
  -3  10 -13    1.31    0.27
  -3  10 -13    1.54    0.24
  -3  10 -14   -0.01    0.16
   3  -9  -6    3.48    0.44
   3  -9  -6    3.51    0.35
   3  -9  -5    1.65    0.32
   3  -9  -5    1.52    0.33
   3  -9  -5    1.53    0.25
   3  -9  -5    2.35    0.45
   3  -9  -4    2.80    0.42
   3  -9  -4    2.79    0.38
   3  -9  -4    2.81    0.43
   3  -9  -3    2.71    0.41
   3  -9  -3    3.26    0.48
   3  -9  -3    3.32    0.44
   3  -9  -2    0.03    0.27
   3  -9  -2    0.32    0.29
  -3   9   2    0.81    0.28
   3  -9  -1    0.89    0.32
   3  -9  -1    1.01    0.66
   3  -9  -1    0.72    0.30
  -3   9   1    0.82    0.28
   3  -9   0   -0.12    0.25
  -3   9   0    0.08    0.21
  -3   9   0   -0.07    0.26
  -3   9   0    0.18    0.37
  -3   9  -1    0.27    0.37
   3  -9   1   -0.36    0.50
  -3   9  -1    0.39    0.21
  -3   9  -1   -0.03    0.25
   3  -9   1    0.03    0.24
  -3   9  -2   -0.18    0.39
  -3   9  -2   -0.35    0.68
   3  -9   2   -0.23    0.45
  -3   9  -2   -0.13    0.25
  -3   9  -2    0.21    0.22
   3  -9   2    0.51    0.24
  -3   9  -3    2.95    0.65
  -3   9  -3    3.23    0.35
  -3   9  -3    3.29    0.36
   3  -9   3    2.87    0.69
  -3   9  -3    2.07    0.80
   3  -9   3    2.83    0.38
   3  -9   4   13.24    1.37
  -3   9  -4   13.47    0.94
   3  -9   4   12.37    0.87
  -3   9  -5    3.62    0.42
  -3   9  -5    2.93    0.62
  -3   9  -5    3.74    0.37
  -3   9  -5    3.09    0.36
   3  -9   5    3.51    0.75
  -3   9  -6   10.01    0.88
   3  -9   6    8.34    1.17
  -3   9  -6   11.93    0.78
  -3   9  -6   13.62    1.02
  -3   9  -6   11.49    1.16
  -3   9  -7    6.91    0.89
  -3   9  -7    8.04    0.72
  -3   9  -7    7.09    0.58
  -3   9  -7    7.14    0.78
  -3   9  -7    7.10    0.92
  -3   9  -7    7.23    0.67
  -3   9  -7    7.85    0.57
  -3   9  -8    3.25    0.60
  -3   9  -8    3.51    0.35
  -3   9  -8    3.56    0.41
  -3   9  -8    2.67    0.60
  -3   9  -8    3.49    0.50
  -3   9  -8    3.37    0.70
  -3   9  -8    4.11    0.49
  -3   9  -9    4.92    0.60
  -3   9  -9    4.81    0.58
  -3   9  -9    4.87    0.50
  -3   9  -9    6.04    0.60
  -3   9  -9    6.16    0.72
  -3   9  -9    5.60    0.53
  -3   9 -10    3.40    0.46
  -3   9 -10    1.99    0.44
  -3   9 -10    2.29    0.53
  -3   9 -10    2.90    0.40
  -3   9 -10    2.95    0.43
  -3   9 -10    2.69    0.46
  -3   9 -10    3.06    0.39
  -3   9 -11    0.15    0.32
  -3   9 -11    0.43    0.32
  -3   9 -11   -0.18    0.28
  -3   9 -11    0.38    0.29
  -3   9 -11    0.16    0.30
  -3   9 -11    0.33    0.22
  -3   9 -12   -0.03    0.28
  -3   9 -12    0.03    0.28
  -3   9 -12    0.34    0.31
  -3   9 -12    0.03    0.25
  -3   9 -12    0.13    0.25
  -3   9 -13   14.98    0.91
  -3   9 -13   13.68    0.94
  -3   9 -13   12.68    0.91
  -3   9 -13   12.54    0.87
  -3   9 -13   13.91    0.93
  -3   9 -14    3.69    0.34
  -3   9 -14    3.62    0.35
   3  -8  -7    0.35    0.28
   3  -8  -7    0.24    0.18
   3  -8  -6   -0.27    0.35
   3  -8  -6   -0.11    0.26
   3  -8  -6    0.03    0.24
   3  -8  -5    2.46    0.39
   3  -8  -5    2.36    0.34
   3  -8  -5    2.78    0.43
   3  -8  -5    2.30    0.41
   3  -8  -4    1.64    0.40
   3  -8  -4    2.48    0.39
   3  -8  -4    1.78    0.39
   3  -8  -4    1.99    0.38
   3  -8  -3   52.93    3.30
   3  -8  -3   56.23    3.32
   3  -8  -3   61.14    3.40
   3  -8  -3   56.64    3.33
   3  -8  -2    2.78    0.40
   3  -8  -2    3.08    0.42
   3  -8  -2    1.99    0.70
  -3   8   2    3.11    0.38
   3  -8  -2    2.89    0.42
  -3   8   1   -0.55    0.39
   3  -8  -1    0.20    0.25
   3  -8  -1    0.09    0.28
   3  -8  -1   -0.16    0.27
  -3   8   1   -0.09    0.19
  -3   8   1   -0.12    0.24
  -3   8   0   -0.08    0.36
   3  -8   0    0.74    0.48
  -3   8   0   -0.02    0.18
   3  -8   0   -0.03    0.21
  -3   8   0    0.15    0.23
  -3   8   0    0.48    0.60
   3  -8   1    0.51    0.44
  -3   8  -1    0.77    0.58
  -3   8  -1    0.89    0.22
  -3   8  -1    0.86    0.27
  -3   8  -1    0.83    0.40
   3  -8   1    1.20    0.26
  -3   8  -2    1.84    0.46
   3  -8   2    1.08    0.53
  -3   8  -2    1.98    0.24
   3  -8   2    1.16    0.27
  -3   8  -2    1.16    0.28
  -3   8  -2    1.40    0.24
  -3   8  -2    1.34    0.74
  -3   8  -3    0.66    0.37
  -3   8  -3    1.41    0.24
  -3   8  -3    1.01    0.22
   3  -8   3    1.02    0.23
  -3   8  -4   78.02    4.46
  -3   8  -4   89.93    4.41
  -3   8  -4   66.82    4.39
  -3   8  -4   86.59    4.79
   3  -8   4   74.57    4.87
   3  -8   5    3.55    0.67
  -3   8  -5    4.32    0.35
  -3   8  -5    3.40    0.57
  -3   8  -5    2.89    0.34
  -3   8  -5    3.50    0.39
  -3   8  -6    1.76    0.41
  -3   8  -6    1.85    0.24
  -3   8  -6    1.96    0.39
   3  -8   6    1.06    0.52
  -3   8  -6    1.07    0.24
  -3   8  -6    1.32    0.32
  -3   8  -6    0.75    0.40
  -3   8  -7    0.30    0.35
  -3   8  -7    0.40    0.23
  -3   8  -7    0.18    0.29
  -3   8  -7    0.43    0.31
  -3   8  -7    0.05    0.37
  -3   8  -7    0.03    0.24
  -3   8  -7    0.64    0.19
  -3   8  -8   -0.03    0.17
  -3   8  -8    0.29    0.26
  -3   8  -8   -0.08    0.32
  -3   8  -8    0.57    0.46
  -3   8  -8   -0.05    0.38
  -3   8  -8   -0.22    0.24
  -3   8  -8   -0.04    0.30
  -3   8  -8    0.03    0.25
  -3   8  -9    3.34    0.41
  -3   8  -9    3.17    0.43
  -3   8  -9    3.28    0.49
  -3   8  -9    2.64    0.69
  -3   8  -9    3.45    0.41
  -3   8  -9    4.14    0.59
  -3   8  -9    3.79    0.51
  -3   8  -9    4.02    0.53
  -3   8 -10    8.57    0.77
  -3   8 -10    9.28    0.73
  -3   8 -10    9.67    0.81
  -3   8 -10    9.29    0.82
  -3   8 -10    8.80    0.71
  -3   8 -10    9.92    0.84
  -3   8 -10   10.58    0.77
  -3   8 -11    8.41    0.76
  -3   8 -11    8.05    0.75
  -3   8 -11    9.80    0.73
  -3   8 -11   10.84    0.83
  -3   8 -11    9.50    0.76
  -3   8 -12   34.16    2.09
  -3   8 -12   33.99    2.08
  -3   8 -12   31.99    2.04
  -3   8 -12   35.02    2.06
  -3   8 -13   33.86    1.94
  -3   8 -13   32.88    1.96
  -3   8 -13   30.24    1.94
  -3   8 -13   31.91    1.89
  -3   8 -14    6.17    0.49
   3  -7  -8   -0.02    0.15
   3  -7  -8    0.21    0.19
   3  -7  -8   -0.19    0.28
   3  -7  -7    0.43    0.30
   3  -7  -7    0.59    0.26
   3  -7  -7    0.27    0.36
   3  -7  -7    0.14    0.24
   3  -7  -6    1.22    0.45
   3  -7  -6    0.98    0.33
   3  -7  -6    1.22    0.36
   3  -7  -5    5.33    0.55
   3  -7  -5    6.52    0.60
   3  -7  -5    5.40    0.61
   3  -7  -4   11.29    0.86
   3  -7  -4   10.31    0.85
   3  -7  -4   11.94    1.41
   3  -7  -4   14.30    0.97
   3  -7  -4   10.73    0.89
   3  -7  -3  113.19    6.51
   3  -7  -3  110.04    7.15
   3  -7  -3  112.82    6.53
   3  -7  -3  120.92    6.52
   3  -7  -2   16.16    1.12
   3  -7  -2   17.47    1.16
   3  -7  -2   18.03    1.69
  -3   7   2   16.89    1.11
   3  -7  -2   18.07    1.15
  -3   7   1    0.19    0.29
  -3   7   1   -0.02    0.21
   3  -7  -1    0.36    0.22
   3  -7  -1    0.35    0.23
  -3   7   1    0.18    0.17
   3  -7  -1   -0.06    0.24
   3  -7   0    7.27    0.90
  -3   7   0    8.12    0.53
  -3   7   0    6.91    0.76
   3  -7   0    6.75    0.57
  -3   7  -1    1.00    0.35
   3  -7   1    1.18    0.46
  -3   7  -1    0.63    0.57
  -3   7  -2    7.89    0.81
  -3   7  -2    9.48    1.15
   3  -7   2    9.29    0.98
   3  -7   3   86.04    5.45
  -3   7  -3   98.73    5.79
   3  -7   4   97.28    6.22
  -3   7  -4  110.65    6.13
  -3   7  -5   11.95    0.77
   3  -7   5   10.62    1.12
  -3   7  -6   10.22    0.81
  -3   7  -6   10.04    0.62
  -3   7  -6    8.78    0.87
  -3   7  -6    8.66    0.73
  -3   7  -7    2.05    0.32
  -3   7  -7    1.67    0.29
  -3   7  -7    2.70    0.46
  -3   7  -7    1.73    0.43
  -3   7  -7    2.32    0.37
  -3   7  -7    2.08    0.40
  -3   7  -7    2.18    0.30
  -3   7  -7    2.43    0.25
  -3   7  -8    3.37    0.57
  -3   7  -8    3.22    0.42
  -3   7  -8    2.46    0.42
  -3   7  -8    2.79    0.52
  -3   7  -8    2.33    0.37
  -3   7  -8    2.61    0.36
  -3   7  -8    3.11    0.37
  -3   7  -8    2.87    0.41
  -3   7  -8    3.53    0.71
  -3   7  -9    2.19    0.70
  -3   7  -9    2.34    0.40
  -3   7  -9    3.18    0.51
  -3   7  -9    2.69    0.54
  -3   7  -9    3.14    0.38
  -3   7  -9    2.77    0.47
  -3   7  -9    2.40    0.52
  -3   7  -9    2.32    0.36
  -3   7  -9    3.03    0.44
  -3   7  -9    3.28    0.41
  -3   7  -9    1.76    0.38
  -3   7 -10    1.65    0.37
  -3   7 -10    1.21    0.36
  -3   7 -10    1.63    0.31
  -3   7 -10    0.80    0.35
  -3   7 -10    2.15    0.52
  -3   7 -10    1.42    0.34
  -3   7 -10    1.16    0.37
  -3   7 -10    0.71    0.37
  -3   7 -10    1.29    0.37
  -3   7 -11   76.32    4.52
  -3   7 -11   74.10    4.59
  -3   7 -11   79.94    4.55
  -3   7 -11   76.00    4.57
  -3   7 -11   80.40    4.58
  -3   7 -11   84.94    4.66
  -3   7 -11   76.22    4.51
  -3   7 -11   75.35    4.53
  -3   7 -11   82.49    4.58
  -3   7 -11   82.13    4.54
  -3   7 -12   32.42    2.09
  -3   7 -12   33.43    2.07
  -3   7 -12   33.75    2.03
  -3   7 -12   32.15    2.01
  -3   7 -12   34.94    2.09
  -3   7 -12   33.83    2.06
  -3   7 -13   17.16    1.10
  -3   7 -13   17.94    1.10
  -3   7 -13   17.30    1.14
  -3   7 -13   14.92    1.04
  -3   7 -13   17.43    1.14
  -3   7 -13   17.05    1.13
  -3   7 -14    2.68    0.33
   3  -6  -9    0.82    0.30
   3  -6  -9    0.63    0.23
   3  -6  -8   -0.03    0.30
   3  -6  -8    0.21    0.23
   3  -6  -8    0.30    0.34
   3  -6  -7    0.25    0.33
   3  -6  -7    0.10    0.29
   3  -6  -7    0.05    0.22
   3  -6  -7    0.32    0.42
   3  -6  -7   -0.06    0.30
   3  -6  -6    6.22    0.60
   3  -6  -6    7.58    0.68
   3  -6  -6    6.83    0.79
   3  -6  -6    6.58    0.64
   3  -6  -6    6.57    0.56
   3  -6  -5    2.15    0.35
   3  -6  -5    2.02    0.42
   3  -6  -5    2.07    0.29
   3  -6  -5    2.04    0.71
   3  -6  -5    2.08    0.42
   3  -6  -4    0.40    0.26
   3  -6  -4    0.24    0.31
   3  -6  -4    0.34    0.27
   3  -6  -4    0.47    0.19
   3  -6  -4    0.38    0.31
   3  -6  -4    0.41    0.54
   3  -6  -3   45.41    2.86
   3  -6  -3   52.50    2.79
   3  -6  -3   47.45    2.89
   3  -6  -3   46.39    3.41
   3  -6  -3   49.08    2.88
   3  -6  -2   25.11    1.63
  -3   6   2   27.06    1.81
  -3   6   2   28.37    1.56
   3  -6  -2   26.75    1.55
   3  -6  -2   26.45    1.64
   3  -6  -1   40.20    2.78
  -3   6   1   43.51    2.64
   3  -6   0    1.04    0.43
  -3   6   0    1.02    0.32
   3  -6   1    6.79    0.82
  -3   6  -1    9.41    0.77
  -3   6  -1    7.31    1.01
  -3   6  -2    0.85    0.34
  -3   6  -2    1.17    0.57
   3  -6   3    3.12    0.56
  -3   6  -3    3.59    0.71
   3  -6   4    3.47    0.61
  -3   6  -4    4.54    0.53
  -3   6  -5    5.45    0.61
   3  -6   5    6.59    0.78
  -3   6  -6    0.15    0.25
  -3   6  -6    0.06    0.13
  -3   6  -7    7.17    0.64
  -3   6  -7    5.71    0.52
  -3   6  -7    6.74    0.44
  -3   6  -7    5.36    0.63
  -3   6  -7    7.07    0.67
  -3   6  -7    5.71    0.56
  -3   6  -7    6.53    0.67
  -3   6  -8   19.78    1.21
  -3   6  -8   19.81    1.28
  -3   6  -8   18.94    1.31
  -3   6  -8   18.06    1.25
  -3   6  -8   17.14    1.24
  -3   6  -8   19.28    1.35
  -3   6  -8   17.81    1.25
  -3   6  -8   19.73    1.21
  -3   6  -8   21.06    1.73
  -3   6  -8   18.08    1.33
  -3   6  -8   18.10    1.21
  -3   6  -8   17.00    1.19
  -3   6  -9   83.80    4.66
  -3   6  -9   76.98    4.60
  -3   6  -9   78.97    5.21
  -3   6  -9   75.79    4.70
  -3   6  -9   82.73    4.70
  -3   6  -9   83.75    4.70
  -3   6  -9   77.77    4.66
  -3   6  -9   84.45    4.64
  -3   6  -9   77.18    4.62
  -3   6  -9   83.49    4.76
  -3   6  -9   85.09    4.64
  -3   6  -9   81.17    4.68
  -3   6 -10   40.49    2.55
  -3   6 -10   41.14    2.48
  -3   6 -10   40.75    2.52
  -3   6 -10   41.03    2.53
  -3   6 -10   41.07    2.46
  -3   6 -10   40.61    2.47
  -3   6 -10   44.88    2.48
  -3   6 -10   39.38    2.47
  -3   6 -10   41.42    2.59
  -3   6 -10   36.73    2.49
  -3   6 -11   21.98    1.49
  -3   6 -11   23.68    1.55
  -3   6 -11   22.53    1.61
  -3   6 -11   22.10    1.54
  -3   6 -11   22.62    1.50
  -3   6 -11   24.08    1.59
  -3   6 -11   24.10    1.55
  -3   6 -11   22.71    1.49
  -3   6 -11   23.18    1.51
  -3   6 -12    2.24    0.41
  -3   6 -12    2.38    0.46
  -3   6 -12    2.62    0.37
  -3   6 -12    2.96    0.46
  -3   6 -12    2.31    0.48
  -3   6 -12    1.92    0.38
  -3   6 -12    2.41    0.44
  -3   6 -12    2.94    0.46
  -3   6 -13    0.49    0.33
  -3   6 -13   -0.18    0.29
  -3   6 -13   -0.03    0.28
  -3   6 -13   -0.03    0.27
  -3   6 -13    0.13    0.26
  -3   6 -13    0.09    0.26
  -3   6 -14    6.10    0.50
   3  -5 -10    0.14    0.19
   3  -5 -10    0.24    0.25
   3  -5  -9    0.23    0.24
   3  -5  -9    0.38    0.29
   3  -5  -9   -0.12    0.32
   3  -5  -8    4.37    0.45
   3  -5  -8    3.55    0.45
   3  -5  -8    3.73    0.45
   3  -5  -7    2.17    0.54
   3  -5  -7    2.13    0.34
   3  -5  -7    2.27    0.40
   3  -5  -7    2.28    0.39
   3  -5  -6   39.73    2.54
   3  -5  -6   42.95    2.50
   3  -5  -6   44.72    2.60
   3  -5  -6   47.46    2.77
   3  -5  -6   40.31    3.18
   3  -5  -6   41.44    2.60
   3  -5  -5   21.21    1.43
   3  -5  -5   24.23    1.51
   3  -5  -5   22.38    1.47
   3  -5  -5   20.30    1.98
   3  -5  -5   23.28    1.37
   3  -5  -5   22.06    1.43
   3  -5  -4   12.64    0.78
   3  -5  -4   13.27    0.92
   3  -5  -4   12.02    0.88
   3  -5  -4   11.33    0.84
   3  -5  -4    9.98    1.25
   3  -5  -3    3.52    0.29
   3  -5  -3    2.25    0.65
   3  -5  -2   73.75    4.06
  -3   5   2   69.45    4.24
   3  -5  -1   22.18    1.66
   3  -5  -1   23.42    1.34
  -3   5   1   23.79    1.55
   3  -5   0  143.65    9.00
  -3   5   0  161.11    8.91
   3  -5   0  159.07    8.68
  -3   5  -1    2.16    0.38
   3  -5   1    1.15    0.42
  -3   5  -1    2.36    0.58
   3  -5   2    1.70    0.43
  -3   5  -2    2.20    0.60
   3  -5   3   63.01    4.09
  -3   5  -3   65.60    4.26
  -3   5  -3   74.15    4.02
   3  -5   4   56.25    3.63
  -3   5  -4   61.60    3.52
  -3   5  -5   -0.12    0.22
  -3   5  -6    3.58    0.44
  -3   5  -7    1.60    0.27
  -3   5  -8  107.15    6.12
  -3   5  -8  109.82    6.11
  -3   5  -8  104.14    6.10
  -3   5  -8  121.05    6.25
  -3   5  -8  115.62    6.18
  -3   5  -8  115.39    6.20
  -3   5  -8   97.50    6.09
  -3   5  -8  105.41    6.15
  -3   5  -8  108.99    6.12
  -3   5  -8  110.40    6.15
  -3   5  -8  108.90    6.17
  -3   5  -9  143.07    7.63
  -3   5  -9  129.19    7.53
  -3   5  -9  127.94    7.49
  -3   5  -9  145.13    7.66
  -3   5  -9  147.97    7.62
  -3   5  -9  127.86    7.54
  -3   5  -9  139.81    7.61
  -3   5  -9  130.05    7.57
  -3   5  -9  126.04    7.51
  -3   5  -9  136.71    7.53
  -3   5 -10   66.82    3.93
  -3   5 -10   59.30    4.49
  -3   5 -10   69.14    3.97
  -3   5 -10   67.54    3.97
  -3   5 -10   66.03    3.91
  -3   5 -10   67.83    4.02
  -3   5 -10   70.66    3.92
  -3   5 -10   62.85    3.93
  -3   5 -10   66.06    3.98
  -3   5 -10   69.34    3.91
  -3   5 -11    4.80    0.63
  -3   5 -11    4.81    0.61
  -3   5 -11    5.21    0.60
  -3   5 -11    4.93    0.60
  -3   5 -11    6.39    0.67
  -3   5 -11    5.63    0.57
  -3   5 -11    5.40    0.54
  -3   5 -11    4.98    0.56
  -3   5 -11    4.75    0.58
  -3   5 -11    6.06    0.58
  -3   5 -12    0.90    0.27
  -3   5 -12    0.79    0.34
  -3   5 -12    1.21    0.37
  -3   5 -12    0.42    0.34
  -3   5 -12    1.44    0.44
  -3   5 -12    0.75    0.36
  -3   5 -12    0.70    0.34
  -3   5 -12    1.08    0.35
  -3   5 -12    0.90    0.35
  -3   5 -13    0.35    0.27
  -3   5 -13   -0.09    0.27
  -3   5 -13    0.42    0.29
  -3   5 -13    0.74    0.34
  -3   5 -13    0.49    0.28
  -3   5 -13    0.34    0.25
  -3   5 -14   12.47    0.80
   3  -4 -11    0.94    0.23
   3  -4 -11    0.64    0.19
   3  -4 -10    0.24    0.26
   3  -4 -10    0.40    0.32
   3  -4 -10   -0.03    0.28
   3  -4  -9   22.84    1.50
   3  -4  -9   24.02    1.37
   3  -4  -9   21.42    1.39
   3  -4  -8    8.44    0.81
   3  -4  -8    7.72    0.61
   3  -4  -8    6.44    0.62
   3  -4  -8    7.39    0.67
   3  -4  -8    6.02    0.60
   3  -4  -7   -0.06    0.47
   3  -4  -7   -0.29    0.29
   3  -4  -7   -0.08    0.23
   3  -4  -7    0.17    0.29
   3  -4  -7   -0.04    0.33
   3  -4  -6    5.14    0.71
   3  -4  -6    5.06    0.52
   3  -4  -6    6.30    0.48
   3  -4  -6    5.23    0.98
   3  -4  -6    6.33    0.60
   3  -4  -5    1.23    0.22
   3  -4  -5    1.04    0.31
   3  -4  -5    1.42    0.28
   3  -4  -4   82.69    4.73
   3  -4  -4   85.31    5.32
   3  -4  -4   89.49    4.84
  -3   4   3    3.14    0.39
   3  -4  -3    2.62    0.62
   3  -4  -3    3.23    0.27
   3  -4  -2  316.54   17.57
  -3   4   2  333.29   17.74
  -3   4   1   38.42    2.33
   3  -4   0   47.37    3.05
  -3   4   0   51.48    2.95
  -3   4  -1   48.80    3.14
  -3   4  -1   51.17    2.98
   3  -4   2    8.19    0.78
  -3   4  -2    8.47    0.86
   3  -4   3    2.06    0.48
  -3   4  -3    7.27    0.53
  -3   4  -4   69.74    4.03
  -3   4  -5   95.43    5.55
  -3   4  -5  108.06    5.67
  -3   4  -6  134.74    7.54
  -3   4  -6  133.66    7.47
  -3   4  -7  105.64    5.95
  -3   4  -8    9.54    0.74
  -3   4  -8   11.28    0.77
  -3   4  -8    9.71    0.71
  -3   4  -8    9.74    0.76
  -3   4  -8   10.08    0.78
  -3   4  -8   11.06    0.77
  -3   4  -8    9.36    0.78
  -3   4  -8    9.02    1.15
  -3   4  -8    8.42    0.74
  -3   4  -8    9.11    0.78
  -3   4  -8   11.23    0.86
  -3   4  -8    7.98    0.71
  -3   4  -8   10.59    0.74
  -3   4  -9   75.55    4.10
  -3   4  -9   72.01    4.05
  -3   4  -9   68.65    4.01
  -3   4  -9   65.86    3.98
  -3   4  -9   67.93    4.00
  -3   4  -9   74.17    4.11
  -3   4  -9   72.18    4.07
  -3   4  -9   67.43    4.02
  -3   4  -9   63.14    4.53
  -3   4  -9   66.74    4.01
  -3   4  -9   67.81    4.00
  -3   4  -9   68.08    4.03
  -3   4 -10   32.99    2.04
  -3   4 -10   32.10    2.06
  -3   4 -10   30.40    2.08
  -3   4 -10   36.60    2.14
  -3   4 -10   33.48    2.05
  -3   4 -10   31.21    2.00
  -3   4 -10   30.37    2.04
  -3   4 -10   32.78    2.03
  -3   4 -10   32.06    2.02
  -3   4 -10   34.49    2.10
  -3   4 -10   31.58    2.00
  -3   4 -11    1.40    0.40
  -3   4 -11    1.72    0.47
  -3   4 -11    1.79    0.38
  -3   4 -11    1.03    0.40
  -3   4 -11    2.70    0.46
  -3   4 -11    1.68    0.41
  -3   4 -11    1.95    0.40
  -3   4 -11    1.73    0.33
  -3   4 -11    2.09    0.43
  -3   4 -12    0.77    0.38
  -3   4 -12    1.30    0.29
  -3   4 -12    1.38    0.36
  -3   4 -12    0.92    0.36
  -3   4 -12    1.32    0.36
  -3   4 -12    1.05    0.39
  -3   4 -12    1.28    0.40
  -3   4 -12    1.02    0.32
  -3   4 -13    2.86    0.39
  -3   4 -13    2.19    0.35
  -3   4 -13    2.50    0.37
  -3   4 -13    3.31    0.40
   3  -3 -12    0.16    0.16
   3  -3 -11    4.06    0.46
   3  -3 -11    3.81    0.42
   3  -3 -10    2.72    0.41
   3  -3 -10    3.34    0.44
   3  -3 -10    3.32    0.53
   3  -3 -10    3.12    0.46
   3  -3  -9   48.89    2.75
   3  -3  -9   41.80    2.71
   3  -3  -9   45.88    2.78
   3  -3  -9   51.63    2.93
   3  -3  -8   14.62    1.04
   3  -3  -8   16.36    1.11
   3  -3  -8   14.98    1.04
   3  -3  -8   17.45    1.25
   3  -3  -8   16.33    1.03
   3  -3  -8   13.14    0.97
   3  -3  -7   10.77    0.95
   3  -3  -7    9.41    0.77
   3  -3  -7   10.02    0.82
   3  -3  -7    9.87    0.79
   3  -3  -7   11.52    0.75
   3  -3  -7   10.74    0.74
   3  -3  -6    7.89    1.10
   3  -3  -6    7.82    0.79
   3  -3  -6    9.12    0.66
   3  -3  -6    8.27    0.60
   3  -3  -6    8.13    0.70
   3  -3  -6    9.07    0.70
   3  -3  -6    8.67    0.62
   3  -3  -5    6.53    0.48
   3  -3  -5    7.43    0.97
   3  -3  -5    6.68    0.57
   3  -3  -4   31.76    2.20
   3  -3  -4   35.77    2.01
   3  -3  -4   35.98    2.09
   3  -3  -3   38.36    2.17
   3  -3  -3   37.14    2.42
  -3   3   3   38.66    2.28
  -3   3   2  145.80    8.17
  -3   3   1    5.85    0.53
  -3   3   0   36.75    2.21
  -3   3  -1    3.30    0.50
  -3   3  -2   46.90    2.80
  -3   3  -2   48.71    2.95
  -3   3  -3   25.37    1.59
  -3   3  -4   66.87    3.71
  -3   3  -4   64.21    3.78
  -3   3  -5  634.77   35.37
   3  -3   5  628.68   35.57
  -3   3  -5  667.72   35.43
  -3   3  -6   27.90    1.69
  -3   3  -7   77.53    4.50
  -3   3  -7   83.04    4.91
  -3   3  -8   18.08    1.19
  -3   3  -8   16.78    1.17
  -3   3  -8   17.55    1.16
  -3   3  -8   17.71    1.09
  -3   3  -8   17.45    1.16
  -3   3  -8   16.12    1.11
  -3   3  -8   15.90    1.10
  -3   3  -8   14.37    1.16
  -3   3  -8   16.33    1.13
  -3   3  -8   16.09    1.53
  -3   3  -8   17.16    1.14
  -3   3  -8   15.13    1.09
  -3   3  -9   35.72    2.28
  -3   3  -9   41.10    2.31
  -3   3  -9   38.05    2.26
  -3   3  -9   36.38    2.29
  -3   3  -9   37.09    2.33
  -3   3  -9   36.92    2.33
  -3   3  -9   34.42    2.23
  -3   3  -9   38.80    2.33
  -3   3  -9   37.54    2.29
  -3   3  -9   31.51    2.71
  -3   3 -10    8.65    0.77
  -3   3 -10    9.24    0.80
  -3   3 -10   10.22    0.86
  -3   3 -10    8.86    0.80
  -3   3 -10    9.74    0.84
  -3   3 -10    8.32    0.75
  -3   3 -10    8.52    0.72
  -3   3 -10    8.78    0.82
  -3   3 -10    9.64    0.80
  -3   3 -10    8.74    0.77
  -3   3 -10    8.62    0.73
  -3   3 -11    2.89    0.45
  -3   3 -11    1.94    0.40
  -3   3 -11    2.11    0.34
  -3   3 -11    1.78    0.42
  -3   3 -11    2.80    0.47
  -3   3 -11    3.17    0.50
  -3   3 -11    1.42    0.43
  -3   3 -11    2.70    0.49
  -3   3 -12    0.07    0.28
  -3   3 -12   -0.03    0.28
  -3   3 -12    0.09    0.30
  -3   3 -12   -0.30    0.33
  -3   3 -12    0.21    0.31
  -3   3 -12   -0.28    0.34
  -3   3 -12   -0.03    0.27
  -3   3 -13   11.25    0.85
  -3   3 -13   12.10    0.82
  -3   3 -13   12.25    0.83
  -3   3 -14    0.08    0.13
   3  -2 -12    0.97    0.27
   3  -2 -12    1.01    0.26
   3  -2 -11   18.98    1.22
   3  -2 -11   17.35    1.27
   3  -2 -11   17.76    1.26
   3  -2 -11   19.28    1.20
   3  -2 -10    3.56    0.56
   3  -2 -10    4.40    0.49
   3  -2 -10    4.45    0.48
   3  -2 -10    4.34    0.57
   3  -2 -10    3.31    0.40
   3  -2  -9   18.18    1.32
   3  -2  -9   14.64    1.10
   3  -2  -9   17.56    1.19
   3  -2  -9   19.39    1.16
   3  -2  -9   15.97    1.09
   3  -2  -8    9.42    0.90
   3  -2  -8    9.83    0.73
   3  -2  -8    8.71    0.77
   3  -2  -8    9.37    0.70
   3  -2  -8   10.34    0.72
   3  -2  -7   20.50    1.41
   3  -2  -7   21.12    1.43
   3  -2  -7   24.53    1.48
   3  -2  -7   23.20    1.41
   3  -2  -7   24.45    1.40
   3  -2  -7   24.35    1.61
   3  -2  -6    0.48    0.17
   3  -2  -6    0.40    0.25
   3  -2  -5    3.28    0.29
   3  -2  -5    2.99    0.36
   3  -2  -4   11.64    0.77
   3  -2  -4   11.67    0.71
  -3   2   4   11.03    0.77
   3  -2  -4   12.14    1.12
   3  -2  -4   10.77    0.88
   3  -2  -3    6.53    0.81
   3  -2  -3    8.04    0.49
   3  -2  -3    7.60    0.71
  -3   2   3    6.99    0.59
   3  -2  -2    0.61    0.35
  -3   2   2    0.62    0.23
  -3   2   1   20.86    1.34
  -3   2   0   81.68    4.67
  -3   2  -1   42.52    2.56
  -3   2  -2  104.24    5.90
   3  -2   3    6.01    0.63
  -3   2  -3    6.17    0.52
  -3   2  -4    3.83    0.37
   3  -2   4    3.80    0.50
  -3   2  -4    3.48    0.37
   3  -2   5   71.95    4.62
  -3   2  -5   83.80    4.53
  -3   2  -5   81.89    4.53
  -3   2  -6    7.15    0.59
  -3   2  -7   14.74    1.06
  -3   2  -7   17.09    1.41
  -3   2  -8   15.93    1.00
  -3   2  -8   16.00    1.16
  -3   2  -8   15.31    1.50
  -3   2  -8   16.35    1.09
  -3   2  -8   17.91    1.16
  -3   2  -8   16.06    1.13
  -3   2  -8   17.93    1.17
  -3   2  -8   15.60    1.16
  -3   2  -8   15.18    1.14
  -3   2  -8   16.32    1.13
  -3   2  -8   17.10    1.11
  -3   2  -8   14.66    1.07
  -3   2  -9   24.72    1.53
  -3   2  -9   24.13    1.64
  -3   2  -9   26.16    1.70
  -3   2  -9   26.08    1.65
  -3   2  -9   27.02    1.72
  -3   2  -9   24.53    1.72
  -3   2  -9   26.09    1.69
  -3   2  -9   27.48    1.74
  -3   2  -9   21.05    2.09
  -3   2  -9   26.25    1.63
  -3   2  -9   28.31    1.73
  -3   2  -9   25.85    1.71
  -3   2  -9   26.79    1.64
  -3   2 -10   18.04    1.21
  -3   2 -10   21.70    1.42
  -3   2 -10   20.40    1.35
  -3   2 -10   20.01    1.35
  -3   2 -10   19.68    1.37
  -3   2 -10   20.14    1.41
  -3   2 -10   20.60    1.40
  -3   2 -10   21.38    1.46
  -3   2 -10   21.69    1.42
  -3   2 -10   19.62    1.30
  -3   2 -11   32.14    2.09
  -3   2 -11   38.44    2.32
  -3   2 -11   37.05    2.26
  -3   2 -11   38.43    2.28
  -3   2 -11   36.24    2.24
  -3   2 -11   41.45    2.29
  -3   2 -11   38.40    2.29
  -3   2 -11   36.84    2.23
  -3   2 -11   37.67    2.30
  -3   2 -12    1.24    0.35
  -3   2 -12    1.26    0.31
  -3   2 -12    1.56    0.31
  -3   2 -12    1.75    0.33
  -3   2 -12    1.92    0.37
  -3   2 -12    1.51    0.33
  -3   2 -12    1.27    0.34
  -3   2 -13    0.76    0.22
  -3   2 -13    0.88    0.23
  -3   2 -13    0.92    0.27
   3  -1 -13    0.18    0.18
   3  -1 -13    0.29    0.19
   3  -1 -12    2.54    0.41
   3  -1 -12    3.54    0.43
   3  -1 -11   19.63    1.24
   3  -1 -11   18.80    1.33
   3  -1 -11   16.81    1.16
   3  -1 -11   18.52    1.30
   3  -1 -11   19.65    1.22
   3  -1 -10   17.18    1.10
   3  -1 -10   15.25    1.11
   3  -1 -10   13.91    1.06
   3  -1 -10   17.03    1.23
   3  -1  -9    0.75    0.30
   3  -1  -9    0.48    0.24
   3  -1  -9    1.03    0.45
   3  -1  -9    0.59    0.31
   3  -1  -8    1.56    0.28
   3  -1  -8    1.63    0.34
   3  -1  -8    1.57    0.28
   3  -1  -8    1.81    0.46
   3  -1  -7    0.13    0.30
   3  -1  -7    0.40    0.20
   3  -1  -7    0.32    0.24
   3  -1  -6   35.13    2.53
   3  -1  -5    0.25    0.40
   3  -1  -5    0.19    0.19
   3  -1  -4   60.29    3.68
   3  -1  -4   65.23    3.91
   3  -1  -4   64.82    3.53
   3  -1  -4   62.16    3.55
  -3   1   4   62.29    3.61
   3  -1  -3  115.26    6.42
   3  -1  -3  109.10    6.51
  -3   1   2    1.57    0.32
   3  -1  -2    2.01    0.37
   3  -1  -1    5.69    0.61
   3  -1  -1    5.95    0.44
  -3   1   1    4.98    0.55
  -3   1   0   60.76    3.63
  -3   1   0   63.44    3.56
   3  -1   1   92.82    5.16
  -3   1  -1   86.79    5.11
  -3   1  -2    0.46    0.28
   3  -1   2    0.04    0.31
   3  -1   3    0.11    0.27
  -3   1  -3    0.27    0.19
   3  -1   4   48.99    2.94
  -3   1  -4   51.01    2.84
  -3   1  -4   48.36    2.87
  -3   1  -5    2.93    0.35
  -3   1  -6    9.68    0.72
  -3   1  -6    8.75    0.93
  -3   1  -7   37.13    2.27
  -3   1  -7   41.84    2.38
  -3   1  -7   38.40    2.74
  -3   1  -7   40.59    2.40
  -3   1  -7   42.47    2.42
  -3   1  -7   42.28    2.44
  -3   1  -7   38.30    2.33
  -3   1  -7   40.79    2.40
  -3   1  -7   41.73    2.37
  -3   1  -7   36.71    2.33
  -3   1  -8   25.36    1.60
  -3   1  -8   23.04    2.03
  -3   1  -8   25.16    1.64
  -3   1  -8   26.37    1.67
  -3   1  -8   25.38    1.60
  -3   1  -8   25.42    1.67
  -3   1  -8   24.41    1.52
  -3   1  -8   24.72    1.68
  -3   1  -8   26.43    1.66
  -3   1  -8   25.95    1.65
  -3   1  -8   27.41    1.62
  -3   1  -9    0.24    0.36
  -3   1  -9    0.17    0.38
  -3   1  -9    0.04    0.20
  -3   1  -9   -0.31    0.31
  -3   1  -9    0.40    0.33
  -3   1  -9    0.07    0.28
  -3   1  -9   -0.17    0.33
  -3   1  -9    0.20    0.38
  -3   1  -9    0.26    0.51
  -3   1  -9    0.13    0.29
  -3   1  -9    0.36    0.37
  -3   1 -10  137.96    7.27
  -3   1 -10  114.74    7.05
  -3   1 -10  139.27    7.26
  -3   1 -10  126.74    7.19
  -3   1 -10  132.51    7.20
  -3   1 -10  136.38    7.28
  -3   1 -10  131.85    7.17
  -3   1 -10  115.79    7.15
  -3   1 -10  129.38    7.25
  -3   1 -11    5.97    0.62
  -3   1 -11    6.47    0.64
  -3   1 -11    6.66    0.58
  -3   1 -11    7.41    0.70
  -3   1 -11    6.58    0.65
  -3   1 -11    4.99    0.55
  -3   1 -12    0.82    0.30
  -3   1 -12    0.62    0.31
  -3   1 -12    0.61    0.25
  -3   1 -13    2.03    0.24
  -3   1 -13    2.44    0.30
   3   0 -13   -0.08    0.23
   3   0 -13   -0.18    0.24
   3   0 -12    0.19    0.31
   3   0 -12    0.48    0.27
   3   0 -12    0.49    0.33
   3   0 -12    0.62    0.28
   3   0 -11    2.03    0.40
   3   0 -11    1.65    0.46
   3   0 -11    2.30    0.37
   3   0 -11    2.00    0.34
   3   0 -11    1.57    0.31
   3   0 -10   12.48    1.05
   3   0 -10   13.80    0.91
   3   0 -10   11.95    0.90
   3   0 -10   12.68    0.96
   3   0 -10   11.97    0.92
   3   0 -10   11.88    0.88
   3   0  -9   -0.13    0.23
   3   0  -9    0.18    0.30
   3   0  -9   -0.03    0.25
   3   0  -9    0.15    0.36
   3   0  -9    0.12    0.28
   3   0  -9    0.14    0.24
   3   0  -9   -0.06    0.23
   3   0  -8    5.05    0.61
   3   0  -8    5.29    0.50
   3   0  -8    5.84    0.46
   3   0  -8    5.11    0.54
   3   0  -8    5.69    0.50
   3   0  -7    2.05    0.25
   3   0  -6    4.41    0.35
   3   0  -5   17.67    1.36
   3   0  -5   16.36    1.09
   3   0  -5   17.40    0.99
  -3   0   5   15.06    1.06
   3   0  -4   25.60    1.64
  -3   0   4   25.57    1.64
   3   0  -4   27.50    1.80
  -3   0   3  201.75   11.26
   3   0  -3  198.01   11.26
   3   0  -3  205.97   11.32
   3   0  -2    0.43    0.26
   3   0  -2    0.22    0.27
   3   0  -2    0.25    0.28
  -3   0   2    0.32    0.28
  -3   0   1   64.58    3.77
   3   0   0   25.41    1.64
   3   0   1    1.58    0.35
  -3   0  -1    1.37    0.35
  -3   0  -2   14.19    1.02
   3   0   2   14.76    1.04
  -3   0  -3  221.34   12.15
   3   0   3  214.88   12.14
   3   0   4   32.04    1.94
  -3   0  -5    4.99    0.65
  -3   0  -6   37.17    2.53
  -3   0  -7    0.79    0.33
  -3   0  -7    0.83    0.24
  -3   0  -7    0.94    0.31
  -3   0  -7    0.97    0.24
  -3   0  -7    1.05    0.22
  -3   0  -7    0.61    0.47
  -3   0  -7    1.08    0.37
  -3   0  -7    0.81    0.29
  -3   0  -7    1.37    0.35
  -3   0  -8   57.88    3.55
  -3   0  -8   69.33    3.70
  -3   0  -8   61.65    3.61
  -3   0  -8   62.31    3.66
  -3   0  -8   64.88    3.69
  -3   0  -8   60.85    3.49
  -3   0  -9    4.80    0.43
  -3   0  -9    4.25    0.57
  -3   0  -9    5.31    0.60
  -3   0  -9    5.05    0.55
  -3   0  -9    3.92    0.49
  -3   0  -9    3.42    0.49
  -3   0 -10   71.37    3.82
  -3   0 -10   59.52    3.61
  -3   0 -10   58.38    3.68
  -3   0 -10   63.50    3.70
  -3   0 -10   69.33    3.83
  -3   0 -10   70.83    3.80
  -3   0 -11    0.39    0.31
  -3   0 -11    0.25    0.24
  -3   0 -11    0.29    0.30
  -3   0 -11    0.27    0.33
  -3   0 -12    3.65    0.38
  -3   0 -12    3.63    0.33
  -3   0 -12    3.51    0.36
   3   1 -14    3.55    0.34
   3   1 -13    0.18    0.29
   3   1 -13    0.22    0.21
   3   1 -12   13.12    0.96
   3   1 -12   12.08    0.86
   3   1 -12   10.71    0.80
   3   1 -12   12.83    0.91
   3   1 -11    6.59    0.69
   3   1 -11    6.17    0.57
   3   1 -11    6.44    0.70
   3   1 -11    5.58    0.61
   3   1 -11    6.19    0.56
   3   1 -10    5.06    0.45
   3   1 -10    3.03    0.55
   3   1 -10    3.10    0.55
   3   1 -10    3.23    0.50
   3   1 -10    4.14    0.46
   3   1 -10    3.90    0.47
   3   1 -10    4.89    0.48
   3   1  -9    3.99    0.47
   3   1  -9    3.69    0.53
   3   1  -9    3.39    0.42
   3   1  -9    2.58    0.44
   3   1  -9    3.59    0.42
   3   1  -9    3.88    0.39
   3   1  -8   62.76    3.61
   3   1  -8   65.85    3.52
   3   1  -8   64.34    3.46
   3   1  -8   61.08    3.55
   3   1  -8   51.97    3.48
   3   1  -7   11.89    0.76
   3   1  -6    9.12    0.59
   3   1  -5   11.78    0.72
  -3  -1   5   11.94    0.89
   3   1  -4   28.19    1.73
   3   1  -4   27.17    1.79
  -3  -1   4   26.27    1.75
   3   1  -3    6.61    0.62
   3   1  -3    4.78    0.52
   3   1  -3    5.06    0.51
  -3  -1   3    6.77    0.61
   3   1  -2    3.26    0.47
   3   1  -2    3.11    0.44
  -3  -1   2    2.81    0.44
   3   1  -2    3.27    0.33
   3   1  -1  205.02   11.38
  -3  -1   1  214.63   11.58
   3   1   0   19.42    1.30
  -3  -1   0   19.24    1.33
  -3  -1  -1  221.94   12.41
   3   1   1  222.37   12.38
  -3  -1  -2   28.19    1.64
  -3  -1  -2   26.21    1.78
   3   1   2   28.99    1.77
  -3  -1  -3   19.44    1.17
  -3  -1  -3   18.03    1.27
  -3  -1  -3   18.85    1.14
  -3  -1  -4  161.35    8.98
  -3  -1  -4  166.63    9.19
  -3  -1  -4  159.35    9.03
  -3  -1  -5  126.01    7.03
  -3  -1  -5  123.50    7.29
  -3  -1  -6    2.35    0.27
  -3  -1  -6    3.39    0.42
  -3  -1  -6    2.40    0.45
  -3  -1  -6    1.99    0.51
  -3  -1  -6    1.98    0.34
  -3  -1  -7   38.42    2.25
  -3  -1  -7   34.50    2.08
  -3  -1  -7   35.28    2.24
  -3  -1  -7   38.51    2.29
  -3  -1  -7   34.19    2.09
  -3  -1  -7   35.59    2.21
  -3  -1  -8   20.71    1.39
  -3  -1  -8   20.06    1.30
  -3  -1  -8   19.65    1.42
  -3  -1  -8   19.25    1.24
  -3  -1  -8   19.71    1.41
  -3  -1  -8   20.79    1.44
  -3  -1  -9    3.84    0.56
  -3  -1  -9    3.17    0.51
  -3  -1  -9    2.59    0.49
  -3  -1  -9    3.55    0.38
  -3  -1  -9    3.84    0.45
  -3  -1 -10   56.52    3.09
  -3  -1 -10   46.13    2.91
  -3  -1 -10   56.87    3.09
  -3  -1 -10   51.20    2.96
  -3  -1 -11    0.17    0.25
  -3  -1 -11    0.25    0.22
  -3  -1 -12    8.82    0.56
  -3  -1 -12    8.17    0.55
   3   2 -14    3.84    0.39
   3   2 -13    1.85    0.40
   3   2 -13    1.29    0.34
   3   2 -13    2.52    0.34
   3   2 -12   12.40    0.88
   3   2 -12   11.98    0.85
   3   2 -12   12.37    1.00
   3   2 -12   12.40    0.94
   3   2 -12   10.73    0.84
   3   2 -12   13.30    1.00
   3   2 -11   17.25    1.08
   3   2 -11   18.15    1.23
   3   2 -11   16.68    1.22
   3   2 -11   15.80    1.15
   3   2 -11   14.04    1.08
   3   2 -11   15.85    1.08
   3   2 -11   13.89    1.02
   3   2 -10    3.66    0.39
   3   2 -10    3.21    0.51
   3   2 -10    3.93    0.40
   3   2 -10    3.41    0.42
   3   2 -10    3.04    0.52
   3   2 -10    2.49    0.46
   3   2 -10    2.99    0.44
   3   2 -10    3.01    0.44
   3   2 -10    2.64    0.41
   3   2  -9    1.78    0.30
   3   2  -9    2.63    0.37
   3   2  -9    2.06    0.42
   3   2  -9    2.02    0.41
   3   2  -9    2.06    0.35
   3   2  -9    2.63    0.46
   3   2  -9    1.80    0.39
   3   2  -9    1.53    0.33
   3   2  -9    2.45    0.29
   3   2  -9    2.30    0.39
   3   2  -8    2.81    0.40
   3   2  -8    2.92    0.40
   3   2  -8    3.35    0.30
   3   2  -8    2.78    0.40
   3   2  -8    3.09    0.38
   3   2  -7   35.36    2.03
   3   2  -6   29.50    1.61
  -3  -2   6   27.99    1.82
   3   2  -6   24.98    1.70
  -3  -2   5    9.58    0.80
   3   2  -5    8.72    0.55
   3   2  -4  611.92   33.15
  -3  -2   4  588.74   33.05
  -3  -2   3   14.57    1.07
   3   2  -3   12.80    1.10
   3   2  -2    2.66    0.53
  -3  -2   2    3.09    0.50
   3   2  -1  115.44    6.57
  -3  -2   0    1.76    0.40
  -3  -2  -1  242.34   13.56
  -3  -2  -2  120.86    6.76
  -3  -2  -2  122.95    6.95
  -3  -2  -3   89.80    4.90
  -3  -2  -3   84.22    4.76
  -3  -2  -3   89.20    4.76
  -3  -2  -3   80.20    4.90
   3   2   3   78.58    4.81
  -3  -2  -4    4.91    0.48
  -3  -2  -4    6.08    0.49
  -3  -2  -4    5.52    0.62
  -3  -2  -5   35.03    2.11
  -3  -2  -6    8.17    0.68
  -3  -2  -6    8.33    0.61
  -3  -2  -6    7.92    0.74
  -3  -2  -6    6.61    0.62
  -3  -2  -6    8.43    0.71
  -3  -2  -6    8.69    0.78
  -3  -2  -7    6.82    0.75
  -3  -2  -7    6.83    0.66
  -3  -2  -7    7.52    0.71
  -3  -2  -7    6.96    0.55
  -3  -2  -7    6.42    0.72
  -3  -2  -8    1.14    0.27
  -3  -2  -8    1.69    0.41
  -3  -2  -8    1.25    0.29
  -3  -2  -8    1.04    0.41
  -3  -2  -8    1.31    0.42
  -3  -2  -9   27.78    1.71
  -3  -2  -9   27.69    1.69
  -3  -2  -9   24.90    1.57
  -3  -2  -9   25.84    1.70
  -3  -2  -9   23.76    1.54
  -3  -2 -10   43.42    2.47
  -3  -2 -10   40.68    2.45
  -3  -2 -10   38.57    2.33
  -3  -2 -10   42.50    2.47
  -3  -2 -11    1.00    0.23
  -3  -2 -11    1.06    0.21
   3   3 -14    0.62    0.26
   3   3 -14    0.05    0.27
   3   3 -13    1.87    0.40
   3   3 -13    2.85    0.46
   3   3 -13    2.29    0.30
   3   3 -12    2.53    0.35
   3   3 -12    2.25    0.33
   3   3 -12    2.31    0.47
   3   3 -12    1.66    0.31
   3   3 -12    2.86    0.44
   3   3 -12    2.36    0.36
   3   3 -12    1.93    0.35
   3   3 -12    1.94    0.46
   3   3 -11   23.21    1.46
   3   3 -11   25.40    1.64
   3   3 -11   22.71    1.46
   3   3 -11   24.14    1.59
   3   3 -11   23.26    1.51
   3   3 -11   21.07    1.47
   3   3 -11   23.23    1.51
   3   3 -11   24.39    1.61
   3   3 -10    6.20    0.69
   3   3 -10    7.63    0.56
   3   3 -10    6.86    0.68
   3   3 -10    7.35    0.73
   3   3 -10    5.87    0.61
   3   3 -10    6.01    0.61
   3   3 -10    7.07    0.59
   3   3 -10    7.56    0.64
   3   3 -10    7.57    0.70
   3   3  -9    1.16    0.30
   3   3  -9    0.90    0.35
   3   3  -9    0.81    0.21
   3   3  -9    0.88    0.28
   3   3  -9    1.00    0.34
   3   3  -9    1.14    0.34
   3   3  -9    0.44    0.34
   3   3  -9    1.04    0.33
   3   3  -9    1.23    0.31
   3   3  -8   -0.03    0.14
   3   3  -8    0.09    0.26
   3   3  -8   -0.19    0.31
   3   3  -8    0.28    0.24
   3   3  -8   -0.09    0.24
   3   3  -8   -0.18    0.21
   3   3  -7   50.78    2.86
   3   3  -6   27.22    1.54
  -3  -3   6   28.15    1.84
   3   3  -6   25.02    1.68
  -3  -3   5    7.39    0.53
   3   3  -5    7.78    0.90
   3   3  -5    8.40    0.49
   3   3  -5    5.89    0.62
  -3  -3   5    7.90    0.76
  -3  -3   4  335.89   18.94
   3   3  -4  345.82   19.08
   3   3  -3   16.75    1.36
  -3  -3   3   16.36    1.25
   3   3  -2  219.02   13.13
  -3  -3   2  243.27   13.06
  -3  -3   1    7.91    0.73
   3   3  -1    6.43    0.52
  -3  -3   0  105.01    6.10
  -3  -3  -1  187.02   10.61
  -3  -3  -1  198.11   10.88
   3   3   1  200.69   10.76
  -3  -3  -2   44.70    2.54
  -3  -3  -2   46.02    2.54
  -3  -3  -2   43.32    2.76
   3   3   2   44.63    2.64
  -3  -3  -2   42.15    2.50
  -3  -3  -3   28.48    1.70
  -3  -3  -3   27.82    1.87
  -3  -3  -3   27.86    1.70
  -3  -3  -4   72.10    4.11
  -3  -3  -4   71.67    4.12
  -3  -3  -5   -0.04    0.33
  -3  -3  -5    0.15    0.18
  -3  -3  -5    0.15    0.23
  -3  -3  -5    0.22    0.28
  -3  -3  -5   -0.07    0.29
  -3  -3  -5    0.46    0.28
  -3  -3  -6    2.98    0.34
  -3  -3  -6    3.12    0.43
  -3  -3  -6    3.09    0.47
  -3  -3  -7   12.53    0.92
  -3  -3  -7   11.22    0.94
  -3  -3  -7   10.76    0.96
  -3  -3  -8   10.28    0.90
  -3  -3  -8    9.80    0.84
  -3  -3  -8   11.43    0.90
  -3  -3  -9   45.04    2.78
  -3  -3  -9   48.29    2.81
  -3  -3  -9   47.02    2.81
  -3  -3 -10    0.41    0.17
  -3  -3 -10    0.25    0.22
  -3  -3 -10    0.36    0.29
  -3  -3 -10    0.43    0.17
  -3  -3 -11    0.25    0.15
  -3  -3 -11    0.68    0.19
   3   4 -15    0.46    0.17
   3   4 -14    2.41    0.36
   3   4 -14    2.93    0.40
   3   4 -13    1.94    0.41
   3   4 -13    1.75    0.30
   3   4 -13    1.71    0.41
   3   4 -13    1.47    0.28
   3   4 -13    1.45    0.27
   3   4 -12    0.42    0.28
   3   4 -12    0.46    0.38
   3   4 -12    0.59    0.41
   3   4 -12    0.64    0.26
   3   4 -12    0.74    0.38
   3   4 -12    0.39    0.25
   3   4 -12    0.50    0.27
   3   4 -11   40.83    2.49
   3   4 -11   38.87    2.33
   3   4 -11   42.03    2.49
   3   4 -11   40.21    2.40
   3   4 -11   40.20    2.43
   3   4 -11   41.43    2.51
   3   4 -11   37.59    2.35
   3   4 -11   41.13    2.41
   3   4 -11   36.21    2.34
   3   4 -10    7.01    0.74
   3   4 -10    7.64    0.70
   3   4 -10    7.69    0.77
   3   4 -10    8.70    0.76
   3   4 -10    8.24    0.66
   3   4 -10    6.49    0.68
   3   4 -10    7.79    0.59
   3   4 -10    8.55    0.69
   3   4  -9    1.14    0.21
   3   4  -9    0.95    0.26
   3   4  -9    0.91    0.35
   3   4  -9    1.02    0.30
   3   4  -9    1.05    0.30
   3   4  -9    1.25    0.37
   3   4  -9    1.20    0.31
   3   4  -9    1.37    0.30
   3   4  -9    1.32    0.37
   3   4  -9    0.81    0.28
   3   4  -9    0.46    0.30
   3   4  -8    7.72    0.50
   3   4  -8    7.37    0.58
   3   4  -8    7.62    0.66
   3   4  -8    6.16    0.59
   3   4  -8    7.18    0.58
   3   4  -7    0.12    0.11
  -3  -4   7    0.20    0.32
   3   4  -7    0.38    0.23
   3   4  -6  159.88    8.68
   3   4  -6  154.27    8.90
  -3  -4   6  145.73    9.03
   3   4  -5    5.26    0.80
   3   4  -5    5.26    0.55
  -3  -4   5    4.78    0.65
   3   4  -4  234.46   13.76
   3   4  -4  242.61   13.50
  -3  -4   4  245.19   13.62
   3   4  -3  165.00    9.54
  -3  -4   3  176.19    9.69
   3   4  -2  177.59   10.00
  -3  -4   1  166.16    9.48
   3   4  -1  161.90    9.35
   3   4  -1  169.29    9.33
  -3  -4   0   57.88    3.57
   3   4   0   57.58    3.44
  -3  -4  -1   -0.07    0.34
  -3  -4  -1    0.04    0.20
   3   4   1   -0.13    0.26
  -3  -4  -2    2.97    0.34
  -3  -4  -2    2.37    0.26
  -3  -4  -2    2.81    0.51
  -3  -4  -2    2.47    0.33
   3   4   2    3.02    0.40
  -3  -4  -3    7.22    0.58
  -3  -4  -3    7.43    0.61
  -3  -4  -4   15.11    0.99
  -3  -4  -4   16.35    1.07
  -3  -4  -4   14.85    1.08
  -3  -4  -4   16.62    1.11
  -3  -4  -5   -0.15    0.30
  -3  -4  -5    0.30    0.36
  -3  -4  -5   -0.13    0.21
  -3  -4  -5   -0.17    0.31
  -3  -4  -5    0.28    0.35
  -3  -4  -6    4.59    0.46
  -3  -4  -6    4.87    0.65
  -3  -4  -6    5.18    0.56
  -3  -4  -6    5.77    0.62
  -3  -4  -7   12.50    0.97
  -3  -4  -7   10.27    0.77
  -3  -4  -7   11.20    0.87
  -3  -4  -7   10.30    0.92
  -3  -4  -7    9.93    0.86
  -3  -4  -8   17.23    1.24
  -3  -4  -8   18.61    1.29
  -3  -4  -8   20.18    1.34
  -3  -4  -8   18.92    1.28
  -3  -4  -9    2.44    0.36
  -3  -4  -9    1.91    0.35
  -3  -4  -9    2.44    0.30
  -3  -4 -10    0.53    0.22
   3   5 -15    0.36    0.19
   3   5 -14    2.95    0.38
   3   5 -14    2.09    0.27
   3   5 -14    2.60    0.40
   3   5 -14    2.12    0.26
   3   5 -13    6.66    0.65
   3   5 -13    7.23    0.58
   3   5 -13    5.91    0.66
   3   5 -13    6.45    0.57
   3   5 -13    6.91    0.55
   3   5 -12    6.38    0.67
   3   5 -12    5.99    0.65
   3   5 -12    5.92    0.57
   3   5 -12    4.84    0.55
   3   5 -12    5.92    0.53
   3   5 -11   19.30    1.25
   3   5 -11   18.76    1.32
   3   5 -11   16.07    1.14
   3   5 -11   18.80    1.23
   3   5 -11   18.31    1.23
   3   5 -11   16.63    1.17
   3   5 -11   16.65    1.29
   3   5 -10    8.48    0.78
   3   5 -10    7.48    0.65
   3   5 -10    9.40    0.79
   3   5 -10    7.96    0.71
   3   5 -10    7.28    0.76
   3   5 -10    7.39    0.70
   3   5 -10    8.49    0.69
   3   5  -9   42.10    2.82
   3   5  -9   48.37    2.84
   3   5  -9   48.99    2.91
   3   5  -9   47.97    2.82
   3   5  -9   49.41    2.92
   3   5  -9   51.68    2.94
   3   5  -9   47.52    2.87
   3   5  -9   51.39    2.84
   3   5  -9   49.03    2.88
   3   5  -8   11.45    0.82
   3   5  -8    8.40    0.74
   3   5  -8   11.06    0.73
   3   5  -8    9.66    0.72
   3   5  -8   10.00    0.74
   3   5  -7   14.00    1.06
  -3  -5   7   12.43    1.15
  -3  -5   6   38.02    2.57
   3   5  -6   38.79    2.77
   3   5  -6   37.98    2.42
   3   5  -5   23.26    1.56
  -3  -5   5   20.88    1.64
   3   5  -4    1.08    0.34
  -3  -5   4    1.21    0.43
   3   5  -3  192.10   10.71
  -3  -5   3  177.07   10.46
  -3  -5   2  130.37    7.68
   3   5  -2  129.92    7.55
   3   5  -2  128.78    7.88
   3   5  -2  137.31    7.57
  -3  -5   1    0.51    0.42
   3   5  -1    0.05    0.29
   3   5  -1    0.38    0.30
   3   5   0   41.18    2.64
  -3  -5   0   43.80    2.81
  -3  -5  -1   11.66    1.20
   3   5   1   16.47    1.14
  -3  -5  -2   12.46    0.89
  -3  -5  -2   15.01    0.94
  -3  -5  -2   12.76    1.20
   3   5   2   16.32    1.13
  -3  -5  -2   15.14    0.98
  -3  -5  -3   -0.09    0.18
  -3  -5  -3    0.06    0.25
  -3  -5  -3    0.07    0.27
  -3  -5  -3    0.20    0.28
  -3  -5  -4   39.14    2.29
  -3  -5  -4   43.59    2.43
  -3  -5  -4   36.33    2.37
  -3  -5  -4   38.46    2.35
  -3  -5  -5    2.29    0.52
  -3  -5  -5    2.04    0.33
  -3  -5  -5    2.17    0.40
  -3  -5  -5    2.86    0.45
  -3  -5  -5    1.96    0.52
  -3  -5  -5    1.56    0.37
  -3  -5  -6   19.78    1.37
  -3  -5  -6   17.27    1.18
  -3  -5  -6   18.99    1.39
  -3  -5  -6   18.23    1.29
  -3  -5  -6   19.43    1.26
  -3  -5  -7    0.94    0.37
  -3  -5  -7    1.06    0.43
  -3  -5  -7    1.51    0.35
  -3  -5  -7    1.66    0.35
  -3  -5  -8   -0.19    0.27
  -3  -5  -8    0.23    0.24
  -3  -5  -8    0.36    0.31
  -3  -5  -8    0.17    0.24
  -3  -5  -9    0.10    0.10
  -3  -5  -9    0.30    0.17
  -3  -5  -9    0.10    0.22
  -3  -5  -9    0.10    0.23
   3   6 -15    0.16    0.19
   3   6 -14    1.57    0.25
   3   6 -14    1.29    0.34
   3   6 -14    1.76    0.25
   3   6 -14    1.30    0.24
   3   6 -13   11.99    0.93
   3   6 -13   12.84    0.96
   3   6 -13   12.39    0.86
   3   6 -13   12.51    0.87
   3   6 -13   10.91    0.83
   3   6 -12    0.27    0.38
   3   6 -12    0.09    0.25
   3   6 -12   -0.05    0.40
   3   6 -12   -0.04    0.29
   3   6 -12   -0.07    0.30
   3   6 -11    0.47    0.39
   3   6 -11    0.56    0.41
   3   6 -11    0.21    0.28
   3   6 -11    0.59    0.35
   3   6 -11    0.52    0.25
   3   6 -11    0.68    0.35
   3   6 -10  144.72    8.24
   3   6 -10  140.12    8.15
   3   6 -10  143.16    8.22
   3   6 -10  141.46    8.11
   3   6 -10  147.14    8.18
   3   6 -10  154.60    8.22
   3   6 -10  147.17    8.15
   3   6  -9   18.88    1.27
   3   6  -9   16.96    1.16
   3   6  -9   19.70    1.29
   3   6  -9   18.42    1.27
   3   6  -9   17.79    1.20
   3   6  -8   25.33    1.72
   3   6  -8   27.86    1.72
   3   6  -8   26.55    1.65
   3   6  -8   28.61    1.75
   3   6  -8   28.40    1.71
   3   6  -7    8.10    0.64
  -3  -6   7    7.00    0.92
   3   6  -7    7.12    0.61
   3   6  -7    8.25    0.67
  -3  -6   6    0.09    0.40
   3   6  -6   -0.06    0.28
  -3  -6   5  168.65   10.11
   3   6  -5  167.53   10.34
   3   6  -5  183.90   10.00
  -3  -6   4   14.18    1.27
   3   6  -4   12.47    1.44
   3   6  -4   15.56    1.19
   3   6  -3  284.22   15.50
   3   6  -3  260.14   15.03
   3   6  -2    0.76    0.38
   3   6  -2    1.52    0.68
   3   6  -2    0.62    0.35
  -3  -6   2    0.41    0.42
   3   6  -1    3.54    0.84
  -3  -6   1    2.04    0.52
   3   6  -1    3.88    0.56
   3   6  -1    4.09    0.61
   3   6   0   15.47    1.16
  -3  -6   0   11.62    1.21
  -3  -6  -1    9.49    1.06
  -3  -6  -2    6.21    0.48
  -3  -6  -2    6.37    0.58
  -3  -6  -2    6.15    0.59
  -3  -6  -3   32.22    1.96
  -3  -6  -3   34.46    2.07
  -3  -6  -3   33.49    2.07
  -3  -6  -4   33.45    1.92
  -3  -6  -4   29.89    1.89
   3   6   4   32.17    1.82
  -3  -6  -5    8.41    0.82
  -3  -6  -5    8.36    0.65
  -3  -6  -5    9.91    0.75
   3   6   5    9.77    0.66
  -3  -6  -5    8.66    0.87
  -3  -6  -5    6.65    0.70
  -3  -6  -6    1.20    0.44
  -3  -6  -6    0.97    0.32
  -3  -6  -6    0.61    0.36
  -3  -6  -7    0.04    0.31
  -3  -6  -7    0.13    0.27
  -3  -6  -7    0.14    0.24
  -3  -6  -8    0.36    0.18
  -3  -6  -8    0.57    0.21
   3   7 -14   -0.02    0.18
   3   7 -14   -0.17    0.28
   3   7 -14   -0.17    0.19
   3   7 -14   -0.20    0.20
   3   7 -13    4.20    0.44
   3   7 -13    4.49    0.47
   3   7 -13    3.92    0.51
   3   7 -13    5.60    0.49
   3   7 -12    0.30    0.38
   3   7 -12    0.42    0.28
   3   7 -12    0.92    0.31
   3   7 -12    0.30    0.34
   3   7 -12   -0.03    0.31
   3   7 -12    0.44    0.30
   3   7 -11    2.27    0.39
   3   7 -11    1.82    0.44
   3   7 -11    2.10    0.40
   3   7 -11    2.53    0.47
   3   7 -11    1.59    0.41
   3   7 -10  155.77    8.09
   3   7 -10  136.14    8.05
   3   7 -10  135.63    7.94
   3   7 -10  144.19    8.03
   3   7 -10  150.53    8.10
   3   7 -10  138.39    8.04
   3   7  -9   13.46    1.05
   3   7  -9   14.53    0.97
   3   7  -9   14.63    1.02
   3   7  -9   15.18    1.09
  -3  -7   8  209.58   11.63
   3   7  -8  199.64   11.08
   3   7  -8  205.76   11.13
   3   7  -8  190.96   11.10
  -3  -7   7    0.85    0.53
   3   7  -7    2.05    0.29
   3   7  -7    1.60    0.32
   3   7  -7    1.75    0.32
   3   7  -6    0.87    0.60
   3   7  -6    1.75    0.30
   3   7  -6    1.40    0.32
   3   7  -6    1.67    0.32
   3   7  -6    1.41    0.44
  -3  -7   6    1.23    0.51
   3   7  -5  109.07    6.84
   3   7  -5  120.85    6.47
  -3  -7   4   13.32    1.27
   3   7  -4   12.34    1.47
   3   7  -3   77.97    5.06
   3   7  -3   73.97    4.60
   3   7  -2    5.93    1.10
   3   7  -2    6.46    0.75
  -3  -7   2    5.68    0.83
   3   7  -1   81.71    5.55
   3   7  -1   92.20    5.13
  -3  -7   1   76.64    5.19
  -3  -7   0   -0.10    0.40
   3   7   0    0.81    0.61
  -3  -7  -1    4.20    0.47
  -3  -7  -1    5.24    0.79
  -3  -7  -2    8.92    0.66
   3   7   2    9.50    0.71
  -3  -7  -2    8.72    0.65
  -3  -7  -2    9.94    0.78
  -3  -7  -2    8.29    0.74
  -3  -7  -3   13.31    0.96
   3   7   3   16.91    1.03
  -3  -7  -3   15.48    1.09
  -3  -7  -3   16.60    1.07
  -3  -7  -3   13.43    0.95
  -3  -7  -4    3.24    0.53
   3   7   4    2.20    0.34
  -3  -7  -4    2.64    0.41
  -3  -7  -4    2.54    0.41
  -3  -7  -5    1.17    0.37
  -3  -7  -5    1.27    0.45
  -3  -7  -5    1.53    0.32
   3   7   5    1.50    0.25
  -3  -7  -6    2.40    0.38
  -3  -7  -6    3.06    0.46
  -3  -7  -7   -0.20    0.15
  -3  -7  -7    0.13    0.24
  -3  -7  -7   -0.04    0.21
  -3  -7  -7    0.39    0.21
   3   8 -15    3.29    0.27
   3   8 -14   -0.17    0.19
   3   8 -14    0.04    0.19
   3   8 -14   -0.02    0.18
   3   8 -13    0.63    0.25
   3   8 -13    0.30    0.30
   3   8 -13    0.50    0.26
   3   8 -13    0.03    0.27
   3   8 -12    0.04    0.32
   3   8 -12    0.44    0.32
   3   8 -12    0.44    0.30
   3   8 -11    7.57    0.70
   3   8 -11    7.06    0.72
   3   8 -11    7.98    0.72
   3   8 -11    8.54    0.72
   3   8 -10   36.54    2.17
   3   8 -10   31.40    2.09
   3   8 -10   32.76    2.00
   3   8 -10   33.24    2.12
   3   8 -10   34.95    2.08
   3   8  -9   32.69    1.99
   3   8  -9   30.72    1.90
   3   8  -9   31.95    1.96
   3   8  -8  215.13   11.74
   3   8  -8  210.73   11.67
   3   8  -8  210.81   11.72
  -3  -8   8  191.53   12.24
  -3  -8   7    0.12    0.45
   3   8  -7    0.06    0.26
   3   8  -7   -0.16    0.23
   3   8  -7    0.07    0.27
  -3  -8   6   -0.47    0.50
   3   8  -6    0.24    0.25
   3   8  -6    0.29    0.27
   3   8  -6    0.33    0.57
   3   8  -5    1.66    0.33
  -3  -8   5    2.03    0.56
   3   8  -5    2.02    0.33
   3   8  -5    1.58    0.27
   3   8  -5    1.45    0.73
   3   8  -4    0.16    0.65
   3   8  -4    0.52    0.25
   3   8  -4    0.19    0.26
   3   8  -4    0.50    0.20
   3   8  -3   41.15    3.31
   3   8  -3   45.30    2.54
  -3  -8   3   37.12    2.96
   3   8  -2   56.16    4.23
   3   8  -2   60.64    3.41
  -3  -8   2   54.40    3.88
   3   8  -1   45.88    3.34
  -3  -8   1   35.87    2.80
   3   8   0   26.63    2.57
  -3  -8   0   24.10    2.20
   3   8   0   31.49    1.82
   3   8   1   -0.18    0.62
   3   8   1   -0.09    0.26
  -3  -8  -1    0.04    0.28
  -3  -8  -1    0.03    0.22
   3   8   2    1.61    0.31
  -3  -8  -2    0.88    0.31
  -3  -8  -2    1.16    0.26
   3   8   3    1.20    0.29
  -3  -8  -3    1.06    0.30
  -3  -8  -3    1.37    0.25
  -3  -8  -4    5.08    0.60
  -3  -8  -4    6.02    0.55
   3   8   4    6.73    0.53
  -3  -8  -4    7.61    0.72
  -3  -8  -5    1.67    0.32
  -3  -8  -5    1.11    0.31
  -3  -8  -5    1.59    0.30
  -3  -8  -5    1.63    0.40
  -3  -8  -6    1.86    0.26
  -3  -8  -6    1.14    0.23
  -3  -8  -6    1.32    0.29
   3   9 -14    1.41    0.24
   3   9 -14    1.58    0.25
   3   9 -13    0.50    0.26
   3   9 -13    0.59    0.26
   3   9 -12   10.93    0.84
   3   9 -12   10.36    0.85
   3   9 -12   11.80    0.82
   3   9 -12   11.60    0.87
   3   9 -11    2.18    0.41
   3   9 -11    1.31    0.37
   3   9 -10    2.63    0.41
   3   9 -10    3.13    0.51
   3   9 -10    2.26    0.42
   3   9  -9   16.97    1.09
   3   9  -9   17.26    1.13
   3   9  -9   19.25    1.22
   3   9  -9   18.00    1.24
   3   9  -8   61.69    3.65
   3   9  -8   64.46    3.55
   3   9  -8   62.85    3.59
   3   9  -8   61.36    3.63
  -3  -9   8   52.76    4.15
  -3  -9   7    4.41    0.93
   3   9  -7    5.63    0.53
   3   9  -7    5.80    0.56
   3   9  -7    6.77    0.60
   3   9  -6    0.03    0.30
   3   9  -6    1.08    0.73
  -3  -9   6    0.65    0.58
   3   9  -6    0.31    0.26
   3   9  -6    0.24    0.21
   3   9  -5    3.67    0.45
   3   9  -5    4.64    1.04
  -3  -9   5    3.07    0.72
   3   9  -5    4.18    0.42
   3   9  -4   29.00    1.87
   3   9  -4   29.88    2.67
   3   9  -4   31.52    1.85
   3   9  -3    3.09    0.90
  -3  -9   3    1.37    0.67
   3   9  -3    3.46    0.40
   3   9  -2   25.47    2.37
   3   9  -2   25.00    1.52
   3   9  -1   26.09    2.59
   3   9  -1   31.88    1.79
  -3  -9   1   23.49    2.26
   3   9   0   24.89    1.54
   3   9   0   25.71    1.63
  -3  -9   0   27.19    1.61
  -3  -9  -1    0.59    0.28
  -3  -9  -1    0.27    0.24
   3   9   1    0.77    0.28
  -3  -9  -2   -0.14    0.22
   3   9   2    0.09    0.26
  -3  -9  -2   -0.17    0.26
  -3  -9  -3    0.97    0.35
   3   9   3    0.32    0.23
  -3  -9  -3    0.70    0.25
  -3  -9  -3    0.33    0.36
  -3  -9  -4    0.42    0.25
  -3  -9  -4    0.85    0.26
  -3  -9  -4    0.25    0.31
   3   9   4    0.59    0.19
  -3  -9  -5    0.39    0.19
  -3  -9  -5    0.61    0.24
   3  10 -14    6.64    0.47
   3  10 -14    6.98    0.48
   3  10 -14    6.00    0.47
   3  10 -13    1.24    0.28
   3  10 -13    1.38    0.28
   3  10 -13    1.35    0.25
   3  10 -12    7.62    0.62
   3  10 -12    6.24    0.55
   3  10 -12    6.17    0.60
   3  10 -11    3.82    0.47
   3  10 -11    2.41    0.44
   3  10 -10    2.50    0.29
   3  10 -10    2.65    0.41
   3  10 -10    3.41    0.52
   3  10 -10    3.76    0.44
   3  10  -9   10.63    0.87
   3  10  -9   11.39    0.76
   3  10  -9   11.29    0.84
   3  10  -8   19.02    1.32
   3  10  -8   19.33    1.28
   3  10  -8   19.32    1.21
   3  10  -7   33.73    2.10
   3  10  -7   34.85    2.01
   3  10  -7   32.50    2.05
   3  10  -6   10.11    0.77
   3  10  -6   10.17    0.85
   3  10  -6    9.87    0.79
   3  10  -5   10.26    0.86
   3  10  -5   11.66    0.80
   3  10  -5   11.90    0.83
   3  10  -4   35.44    2.09
   3  10  -4   34.87    2.13
   3  10  -3    2.46    0.38
   3  10  -3    2.88    0.34
   3  10  -2    5.14    0.52
  -3 -10   2    5.10    0.52
   3  10  -2    5.23    0.45
   3  10  -1    0.83    0.23
  -3 -10   1    0.96    0.30
   3  10   0    1.06    0.32
  -3 -10   0    0.47    0.27
  -3 -10   0    1.08    0.30
   3  10   1    1.34    0.30
  -3 -10  -1    0.88    0.27
  -3 -10  -1    1.43    0.29
  -3 -10  -1    0.70    0.26
  -3 -10  -2    0.61    0.26
   3  10   2    0.90    0.24
  -3 -10  -2    0.62    0.20
  -3 -10  -3    0.50    0.22
  -3 -10  -3    0.16    0.21
  -3 -10  -3    0.38    0.28
   3  10   3    0.43    0.19
  -3 -10  -4   -0.11    0.15
  -3 -10  -4    0.14    0.18
   3  11 -14    3.17    0.27
   3  11 -13    0.29    0.19
   3  11 -13    0.02    0.19
   3  11 -13    0.21    0.20
   3  11 -12    0.70    0.23
   3  11 -12    0.32    0.25
   3  11 -12    0.40    0.26
   3  11 -11    0.64    0.28
   3  11 -11    0.96    0.32
   3  11 -11    1.27    0.36
   3  11 -10    0.96    0.21
   3  11 -10    1.37    0.39
   3  11 -10    1.18    0.32
   3  11  -9    6.47    0.53
   3  11  -9    7.43    0.65
   3  11  -9    7.60    0.61
   3  11  -8   11.28    0.75
   3  11  -8   10.69    0.79
  -3 -11   8   11.90    0.77
   3  11  -7   62.43    3.97
   3  11  -7   64.59    3.91
   3  11  -7   66.23    3.94
   3  11  -6    0.43    0.24
   3  11  -6    0.03    0.24
  -3 -11   6    0.44    0.27
   3  11  -5    4.34    0.41
  -3 -11   5    4.74    0.48
   3  11  -4   10.10    0.76
   3  11  -4   10.84    0.82
   3  11  -3    3.34    0.36
   3  11  -3    3.36    0.41
   3  11  -2    0.08    0.19
   3  11  -2    0.21    0.27
  -3 -11   2    0.09    0.28
   3  11  -1    0.60    0.19
   3  11  -1    0.56    0.26
  -3 -11   1    0.46    0.25
   3  11   0    1.07    0.28
  -3 -11   0    1.27    0.28
   3  11   1    0.59    0.24
  -3 -11  -1    0.72    0.20
  -3 -11  -2    0.11    0.24
  -3 -11  -2    0.01    0.15
   3  11   2    0.09    0.16
   3  12 -13    0.34    0.16
   3  12 -12    1.70    0.23
   3  12 -12    1.11    0.26
   3  12 -12    1.74    0.27
   3  12 -12    2.06    0.29
   3  12 -11    2.76    0.30
   3  12 -11    2.61    0.37
   3  12 -11    3.13    0.40
   3  12 -11    1.89    0.27
   3  12 -11    2.71    0.35
   3  12 -10    2.49    0.27
   3  12 -10    3.04    0.37
   3  12 -10    3.20    0.46
  -3 -12   9    1.27    0.29
   3  12  -9    1.35    0.24
   3  12  -8   10.13    0.74
   3  12  -8    9.65    0.74
   3  12  -7   49.90    2.76
  -3 -12   7   57.41    2.81
   3  12  -6    1.75    0.30
  -3 -12   6    2.03    0.34
   3  12  -5   -0.04    0.20
   3  12  -5    0.42    0.24
  -3 -12   5    0.34    0.27
   3  12  -4    0.18    0.24
   3  12  -4    0.67    0.22
  -3 -12   4    0.48    0.28
  -3 -12   3    0.81    0.24
   3  12  -3    0.39    0.19
   3  12  -3    0.59    0.27
   3  12  -2   -0.09    0.16
  -3 -12   2    0.22    0.25
   3  12  -1    3.08    0.35
  -3 -12   1    3.79    0.37
   3  12   0    0.66    0.19
  -3 -12   0    0.63    0.18
  -3 -12  -1    0.22    0.18
   3  12   1   -0.02    0.12
   3  13 -12    1.37    0.21
   3  13 -11    4.59    0.43
   3  13 -10    5.33    0.40
   3  13 -10    7.91    0.58
   3  13  -9   -0.09    0.15
   3  13  -9    0.25    0.29
   3  13  -8    1.98    0.25
  -3 -13   8    2.46    0.29
  -3 -13   7   12.23    0.83
   3  13  -6    3.77    0.35
   3  13  -6    3.66    0.35
  -3 -13   6    4.31    0.42
   3  13  -5    0.59    0.19
  -3 -13   5    0.35    0.24
   3  13  -5    0.18    0.19
   3  13  -4    1.02    0.19
   3  13  -4    0.97    0.23
  -3 -13   4    1.20    0.27
   3  13  -3    0.25    0.13
   3  13  -3    0.25    0.18
  -3 -13   2    1.42    0.23
   3  13  -1   -0.04    0.13
   3  14 -10    5.69    0.43
   3  14  -9    0.20    0.17
   3  14  -9   -0.02    0.20
   3  14  -8    0.07    0.12
  -3 -14   7    0.82    0.18
  -3 -14   6    0.59    0.19
   3  14  -6    0.68    0.14
  -3 -14   5    0.09    0.16
  -3 -14   4    1.65    0.21
   4 -14   2    0.06    0.14
   4 -14   3   -0.06    0.16
  -4  14  -3    0.16    0.14
   4 -14   4    0.14    0.16
   4 -14   5    0.31    0.15
  -4  14  -6   -0.01    0.12
  -4  14  -6    0.19    0.16
  -4  14  -7    2.35    0.25
  -4  14  -7    2.11    0.27
  -4  14  -8    1.06    0.22
  -4  14  -9    0.04    0.16
  -4  14  -9    0.21    0.17
   4 -13   1    0.55    0.21
  -4  13  -1    0.06    0.08
   4 -13   1    0.47    0.18
   4 -13   2    0.84    0.24
  -4  13  -2    0.45    0.20
  -4  13  -3    2.44    0.32
   4 -13   3    2.73    0.34
   4 -13   4   -0.24    0.23
  -4  13  -4    0.18    0.23
   4 -13   5    1.40    0.26
  -4  13  -5    1.79    0.32
  -4  13  -5    1.68    0.29
  -4  13  -6    0.34    0.26
  -4  13  -6    0.32    0.25
  -4  13  -7    1.27    0.30
  -4  13  -7    1.89    0.32
  -4  13  -8    0.92    0.28
  -4  13  -8    0.88    0.27
  -4  13  -8    0.47    0.27
  -4  13  -9    0.49    0.23
  -4  13  -9    0.18    0.25
  -4  13 -10    0.98    0.22
  -4  13 -10    1.22    0.23
  -4  13 -10    1.04    0.26
  -4  13 -11    1.87    0.24
  -4  13 -11    2.57    0.28
   4 -12  -2    0.85    0.19
   4 -12  -2    0.76    0.21
   4 -12  -1    0.11    0.21
   4 -12  -1    0.06    0.21
   4 -12   0    2.04    0.31
   4 -12   1   -0.20    0.23
   4 -12   1    0.52    0.28
   4 -12   2    0.24    0.26
   4 -12   2    0.27    0.23
   4 -12   3    1.14    0.30
  -4  12  -4    0.37    0.31
   4 -12   4    0.38    0.26
   4 -12   5    0.05    0.23
  -4  12  -5   -0.08    0.31
  -4  12  -6    0.98    0.32
  -4  12  -7   -0.29    0.32
  -4  12  -7   -0.13    0.32
  -4  12  -7    0.22    0.33
  -4  12  -8    1.12    0.34
  -4  12  -8    1.18    0.37
  -4  12  -8    1.34    0.36
  -4  12  -9    1.09    0.32
  -4  12  -9    0.35    0.27
  -4  12  -9    0.16    0.33
  -4  12 -10    0.55    0.23
  -4  12 -10    0.68    0.27
  -4  12 -10    0.48    0.30
  -4  12 -11    1.71    0.24
  -4  12 -11    1.68    0.30
  -4  12 -12    1.62    0.25
  -4  12 -12    1.97    0.25
   4 -11  -3    0.40    0.17
   4 -11  -3   -0.13    0.21
   4 -11  -3    0.15    0.28
   4 -11  -3    0.37    0.19
   4 -11  -2    0.43    0.24
   4 -11  -2    0.19    0.25
   4 -11  -1    0.12    0.26
   4 -11  -1    0.39    0.26
   4 -11  -1    0.10    0.25
  -4  11   0    1.16    0.30
   4 -11   1   -0.13    0.29
  -4  11  -1   -0.10    0.28
   4 -11   2    0.23    0.29
  -4  11  -2    0.48    0.30
  -4  11  -2    0.59    0.24
   4 -11   3    0.06    0.27
  -4  11  -3    0.04    0.30
  -4  11  -3   -0.05    0.24
  -4  11  -4    0.36    0.24
   4 -11   4    0.91    0.30
   4 -11   5    0.17    0.23
  -4  11  -5   -0.04    0.35
  -4  11  -6    1.07    0.36
  -4  11  -6    1.01    0.37
  -4  11  -6    0.98    0.27
  -4  11  -7   -0.17    0.33
  -4  11  -7    0.20    0.37
  -4  11  -7   -0.33    0.25
  -4  11  -8    0.75    0.35
  -4  11  -8    1.75    0.41
  -4  11  -8    1.68    0.44
  -4  11  -9    4.76    0.54
  -4  11  -9    4.92    0.62
  -4  11  -9    4.15    0.55
  -4  11 -10    4.71    0.45
  -4  11 -10    3.02    0.45
  -4  11 -11   -0.10    0.19
  -4  11 -11    0.18    0.27
  -4  11 -11   -0.06    0.18
  -4  11 -11    0.05    0.21
  -4  11 -11    0.03    0.26
  -4  11 -12    7.04    0.41
  -4  11 -12    6.01    0.40
  -4  11 -13    2.53    0.25
  -4  11 -13    2.15    0.26
   4 -10  -5    2.10    0.31
   4 -10  -5    2.73    0.29
   4 -10  -4    2.35    0.40
   4 -10  -4    1.50    0.23
   4 -10  -4    1.89    0.27
   4 -10  -3    1.05    0.29
   4 -10  -3    1.48    0.33
   4 -10  -3    1.49    0.32
   4 -10  -2    0.81    0.31
   4 -10  -2    0.30    0.31
   4 -10  -1   -0.14    0.30
  -4  10   1    0.14    0.24
  -4  10   0    1.24    0.25
  -4  10   0    1.68    0.35
   4 -10   1    1.97    0.39
  -4  10  -1    2.40    0.32
  -4  10  -1    2.34    0.39
   4 -10   2    0.76    0.30
  -4  10  -2    0.95    0.26
  -4  10  -2    0.96    0.32
   4 -10   3    1.55    0.32
  -4  10  -3    1.42    0.29
  -4  10  -3    1.82    0.58
  -4  10  -3    1.34    0.35
  -4  10  -3    2.18    0.78
   4 -10   4    1.09    0.30
  -4  10  -4    1.37    0.36
   4 -10   5    0.34    0.24
  -4  10  -5    0.10    0.41
  -4  10  -5    0.09    0.24
  -4  10  -5    0.05    0.36
  -4  10  -6    1.52    0.28
  -4  10  -6    1.37    0.40
  -4  10  -6    1.39    0.41
  -4  10  -7    0.57    0.23
  -4  10  -7    0.22    0.37
  -4  10  -7    0.65    0.41
  -4  10  -8   11.56    0.81
  -4  10  -8   12.73    0.98
  -4  10  -8   12.17    0.85
  -4  10  -8   12.26    1.00
  -4  10  -8   13.77    1.06
  -4  10  -9    1.83    0.32
  -4  10  -9    1.62    0.39
  -4  10  -9    2.03    0.50
  -4  10  -9    2.42    0.45
  -4  10  -9    1.52    0.34
  -4  10 -10    0.03    0.27
  -4  10 -10   -0.14    0.23
  -4  10 -10    0.35    0.32
  -4  10 -10    0.26    0.27
  -4  10 -11    1.41    0.30
  -4  10 -11    1.02    0.25
  -4  10 -11    1.90    0.36
  -4  10 -11    2.02    0.37
  -4  10 -11    1.20    0.30
  -4  10 -12    3.30    0.39
  -4  10 -12    4.05    0.44
  -4  10 -12    4.87    0.43
  -4  10 -12    3.50    0.39
  -4  10 -13    0.12    0.21
  -4  10 -13   -0.08    0.16
  -4  10 -13    0.22    0.15
  -4  10 -13   -0.06    0.17
   4  -9  -6    0.08    0.23
   4  -9  -6    0.11    0.19
   4  -9  -5    1.37    0.26
   4  -9  -5    2.44    0.44
   4  -9  -5    1.86    0.33
   4  -9  -4    5.90    0.54
   4  -9  -4    4.42    0.48
   4  -9  -3    6.73    0.64
   4  -9  -3    7.97    0.69
   4  -9  -2    1.71    0.37
  -4   9   2    2.04    0.32
   4  -9  -1   -0.18    0.31
  -4   9   1   -0.04    0.19
  -4   9   1   -0.15    0.27
  -4   9   0   21.42    1.25
  -4   9   0   19.81    1.66
  -4   9   0   18.57    1.31
  -4   9   0   23.82    2.25
   4  -9   0   19.53    1.34
  -4   9  -1   10.23    1.50
  -4   9  -1   11.08    0.70
  -4   9  -1    8.82    0.76
  -4   9  -1    8.55    1.01
   4  -9   1    9.59    0.77
  -4   9  -2   -0.53    0.40
  -4   9  -2   -0.12    0.21
  -4   9  -2   -0.18    0.63
  -4   9  -2    0.23    0.28
   4  -9   2    0.03    0.24
  -4   9  -3   18.46    1.08
  -4   9  -3   16.68    1.85
  -4   9  -3   14.94    1.13
  -4   9  -3   19.11    1.52
   4  -9   3   16.01    1.11
  -4   9  -4    1.50    0.33
   4  -9   4    1.48    0.29
  -4   9  -5   12.75    0.85
  -4   9  -5   10.85    1.16
  -4   9  -5   13.42    1.02
  -4   9  -6    8.86    0.69
  -4   9  -6   10.83    0.69
  -4   9  -6   10.56    0.85
  -4   9  -6   10.07    0.87
  -4   9  -7   10.07    0.69
  -4   9  -7    9.64    0.72
  -4   9  -7   10.21    0.84
  -4   9  -7   10.66    0.92
  -4   9  -8    0.17    0.20
  -4   9  -8    0.38    0.26
  -4   9  -8    0.17    0.33
  -4   9  -8    0.06    0.40
  -4   9  -8    0.83    0.39
  -4   9  -8    0.40    0.29
  -4   9  -9   -0.12    0.26
  -4   9  -9   -0.51    0.43
  -4   9  -9    0.08    0.28
  -4   9 -10    0.45    0.26
  -4   9 -10    0.27    0.27
  -4   9 -10    0.03    0.28
  -4   9 -10    0.33    0.28
  -4   9 -10    0.24    0.34
  -4   9 -11    2.98    0.37
  -4   9 -11    2.17    0.37
  -4   9 -11    2.11    0.38
  -4   9 -11    2.14    0.31
  -4   9 -11    2.43    0.39
  -4   9 -12    1.28    0.30
  -4   9 -12    1.02    0.30
  -4   9 -12    1.52    0.31
  -4   9 -13   15.17    1.01
  -4   9 -13   15.45    0.98
  -4   9 -13   16.42    1.01
  -4   9 -14   14.63    0.90
   4  -8  -7   -0.11    0.25
   4  -8  -7   -0.02    0.18
   4  -8  -6   -0.04    0.33
   4  -8  -6    0.17    0.26
   4  -8  -5    2.04    0.34
   4  -8  -5    1.52    0.32
   4  -8  -5    1.98    0.40
   4  -8  -5    1.88    0.35
   4  -8  -4    0.37    0.30
   4  -8  -4    0.51    0.30
   4  -8  -4    0.36    0.30
   4  -8  -3   -0.18    0.31
   4  -8  -3    0.20    0.32
   4  -8  -3    0.38    0.32
   4  -8  -2   11.57    1.41
  -4   8   2   10.44    0.81
   4  -8  -2   11.36    0.86
   4  -8  -2   13.38    0.90
  -4   8   1    3.20    0.57
  -4   8   1    2.37    0.28
   4  -8  -1    1.81    0.36
  -4   8   1    2.50    0.36
  -4   8   1    2.78    0.91
   4  -8   0    1.48    0.33
  -4   8   0    2.27    0.28
  -4   8   0    2.00    0.47
  -4   8   0    1.70    0.32
  -4   8   0    1.85    0.77
  -4   8  -1    1.05    0.42
  -4   8  -1    0.73    0.22
  -4   8  -1    1.13    0.72
  -4   8  -1    0.29    0.24
   4  -8   1    0.37    0.25
  -4   8  -2   -0.07    0.35
  -4   8  -2    0.18    0.25
  -4   8  -2    0.47    0.61
   4  -8   2   -0.03    0.21
   4  -8   3   21.55    1.40
  -4   8  -3   26.61    1.74
  -4   8  -3   22.74    2.11
  -4   8  -4    1.10    0.43
  -4   8  -4    1.19    0.23
  -4   8  -4    1.02    0.27
   4  -8   4    0.74    0.23
  -4   8  -5    3.14    0.57
  -4   8  -5    3.55    0.37
  -4   8  -5    4.28    0.37
  -4   8  -5    3.96    0.49
  -4   8  -6    4.27    0.66
  -4   8  -6    4.04    0.41
  -4   8  -6    4.29    0.37
  -4   8  -6    4.00    0.54
  -4   8  -7    2.52    0.28
  -4   8  -7    2.38    0.52
  -4   8  -7    2.01    0.34
  -4   8  -7    2.90    0.45
  -4   8  -7    2.55    0.49
  -4   8  -8   12.89    0.84
  -4   8  -8   10.97    1.31
  -4   8  -8   14.18    1.12
  -4   8  -8   12.66    1.02
  -4   8  -8   13.64    0.94
  -4   8  -8   14.27    0.99
  -4   8  -9   15.84    1.08
  -4   8  -9   14.13    1.02
  -4   8  -9   13.44    1.02
  -4   8  -9   15.01    1.12
  -4   8  -9   14.95    1.01
  -4   8 -10    1.24    0.34
  -4   8 -10    1.50    0.36
  -4   8 -10    0.82    0.29
  -4   8 -10    1.25    0.37
  -4   8 -10    1.10    0.30
  -4   8 -10    0.89    0.37
  -4   8 -10    1.01    0.36
  -4   8 -11    0.82    0.34
  -4   8 -11    0.92    0.33
  -4   8 -11    1.08    0.36
  -4   8 -11    1.21    0.26
  -4   8 -11    0.88    0.25
  -4   8 -11    0.62    0.30
  -4   8 -11    0.91    0.33
  -4   8 -12   11.49    0.89
  -4   8 -12   13.03    0.93
  -4   8 -12   12.77    0.93
  -4   8 -12   13.44    0.91
  -4   8 -12   14.62    0.96
  -4   8 -13   44.28    2.54
  -4   8 -13   44.03    2.56
  -4   8 -13   45.08    2.54
  -4   8 -13   41.49    2.50
  -4   8 -14   20.87    1.15
  -4   8 -14   17.30    1.13
   4  -7  -8    0.35    0.26
   4  -7  -8   -0.03    0.16
   4  -7  -7    0.40    0.35
   4  -7  -7    0.05    0.24
   4  -7  -6    1.17    0.30
   4  -7  -6    1.26    0.35
   4  -7  -6    1.48    0.34
   4  -7  -6    0.83    0.26
   4  -7  -6    1.13    0.47
   4  -7  -5   -0.13    0.28
   4  -7  -5   -0.03    0.30
   4  -7  -5    0.15    0.34
   4  -7  -5    0.20    0.31
   4  -7  -5    0.03    0.26
   4  -7  -4    4.49    0.53
   4  -7  -4    5.60    0.58
   4  -7  -4    3.79    0.53
   4  -7  -4    5.90    0.56
   4  -7  -3    4.57    0.50
   4  -7  -3    4.55    0.54
   4  -7  -3    5.19    0.96
   4  -7  -3    4.72    0.52
   4  -7  -2   40.75    2.95
   4  -7  -2   36.29    2.27
   4  -7  -2   40.64    2.31
  -4   7   2   43.08    2.19
   4  -7  -2   38.03    2.29
   4  -7  -1   10.18    0.76
  -4   7   1   11.36    0.69
  -4   7   1    9.21    0.73
  -4   7   1   10.05    0.96
  -4   7   0   10.16    0.78
  -4   7   0   12.09    1.02
  -4   7   0   13.27    1.42
   4  -7   0   11.26    0.79
  -4   7  -1    3.18    0.50
  -4   7  -1    2.29    0.33
   4  -7   1    2.69    0.33
  -4   7  -2    7.56    0.76
  -4   7  -2    5.37    1.00
  -4   7  -3    1.17    0.59
  -4   7  -4    7.30    0.77
  -4   7  -5    4.73    0.60
  -4   7  -6   17.31    1.13
  -4   7  -6   17.30    1.21
  -4   7  -6   15.02    1.32
  -4   7  -7    5.34    0.61
  -4   7  -7    3.85    0.49
  -4   7  -7    4.75    0.45
  -4   7  -7    4.81    0.38
  -4   7  -7    4.98    0.65
  -4   7  -7    4.86    0.52
  -4   7  -7    4.49    0.47
  -4   7  -8   72.73    4.34
  -4   7  -8   72.53    4.40
  -4   7  -8   79.87    4.38
  -4   7  -8   87.70    4.53
  -4   7  -8   70.50    4.84
  -4   7  -8   74.38    4.31
  -4   7  -8   74.48    4.32
  -4   7  -9   43.72    2.61
  -4   7  -9   43.13    2.52
  -4   7  -9   42.71    2.55
  -4   7  -9   40.39    2.53
  -4   7  -9   42.24    2.61
  -4   7  -9   40.11    2.49
  -4   7  -9   36.06    3.03
  -4   7  -9   45.64    2.59
  -4   7  -9   44.02    2.53
  -4   7 -10    1.35    0.36
  -4   7 -10    1.21    0.36
  -4   7 -10    0.69    0.28
  -4   7 -10    0.76    0.37
  -4   7 -10    1.15    0.30
  -4   7 -10    0.59    0.33
  -4   7 -10    1.44    0.32
  -4   7 -10    0.71    0.35
  -4   7 -11    3.15    0.42
  -4   7 -11    3.59    0.47
  -4   7 -11    3.33    0.49
  -4   7 -11    2.95    0.40
  -4   7 -11    3.31    0.42
  -4   7 -11    3.51    0.45
  -4   7 -11    3.00    0.47
  -4   7 -12   17.83    1.24
  -4   7 -12   16.74    1.17
  -4   7 -12   19.38    1.20
  -4   7 -12   19.52    1.24
  -4   7 -13   16.80    1.02
  -4   7 -13   14.32    0.95
  -4   7 -13   14.36    0.93
  -4   7 -14    1.94    0.25
   4  -6  -9   -0.13    0.23
   4  -6  -9   -0.22    0.22
   4  -6  -8    1.64    0.40
   4  -6  -8    1.46    0.28
   4  -6  -7    0.10    0.38
   4  -6  -7   -0.36    0.22
   4  -6  -7    0.11    0.33
   4  -6  -7    0.10    0.27
   4  -6  -6    9.66    0.93
   4  -6  -6    7.30    0.69
   4  -6  -6   11.11    0.70
   4  -6  -6    7.96    0.73
   4  -6  -6    8.60    0.77
   4  -6  -6    8.57    0.77
   4  -6  -6   11.30    0.80
   4  -6  -5   19.92    1.99
   4  -6  -5   20.74    1.43
   4  -6  -5   22.12    1.43
   4  -6  -5   20.06    1.38
   4  -6  -5   21.80    1.31
   4  -6  -4    7.94    0.66
   4  -6  -4    8.09    0.55
   4  -6  -4    6.92    0.67
   4  -6  -4    7.10    1.10
   4  -6  -4    6.02    0.63
   4  -6  -4    9.07    0.71
   4  -6  -3    2.01    0.35
   4  -6  -3    2.55    0.39
   4  -6  -3    1.48    0.61
   4  -6  -3    2.74    0.37
   4  -6  -3    2.36    0.25
   4  -6  -2    1.07    0.28
  -4   6   2    0.76    0.31
   4  -6  -2    0.80    0.17
   4  -6  -2    0.77    0.25
   4  -6  -2    0.96    0.30
  -4   6   1   28.32    1.90
  -4   6   0   13.03    1.05
  -4   6  -1   27.25    1.79
  -4   6  -1   24.91    2.05
  -4   6  -2    0.05    0.28
  -4   6  -2    0.32    0.43
  -4   6  -3   86.43    5.00
  -4   6  -3   74.11    4.59
  -4   6  -4   33.74    2.19
  -4   6  -5    5.67    0.61
  -4   6  -6   40.30    2.30
  -4   6  -6   38.35    2.36
  -4   6  -6   41.09    2.36
  -4   6  -6   35.32    2.45
  -4   6  -7    9.40    0.79
  -4   6  -7    9.71    0.72
  -4   6  -7   10.37    0.63
  -4   6  -7    9.58    0.78
  -4   6  -7    9.16    0.70
  -4   6  -7   10.65    0.85
  -4   6  -7   10.48    0.87
  -4   6  -7    9.34    0.71
  -4   6  -7    9.49    0.74
  -4   6  -8  146.77    7.93
  -4   6  -8  149.05    7.91
  -4   6  -8  131.56    7.84
  -4   6  -8  133.73    7.83
  -4   6  -8  132.12    7.89
  -4   6  -8  144.97    7.86
  -4   6  -8  151.58    7.99
  -4   6  -8  145.24    8.44
  -4   6  -8  142.95    7.88
  -4   6  -8  134.43    7.83
  -4   6  -9  115.38    6.53
  -4   6  -9  110.04    6.40
  -4   6  -9  120.22    6.43
  -4   6  -9  114.04    6.47
  -4   6  -9  104.95    6.43
  -4   6  -9  106.34    6.39
  -4   6  -9  115.57    7.05
  -4   6  -9  119.88    6.50
  -4   6  -9  112.41    6.46
  -4   6  -9  115.83    6.46
  -4   6  -9  117.97    6.42
  -4   6  -9  112.96    6.41
  -4   6 -10   11.16    0.90
  -4   6 -10   10.24    0.79
  -4   6 -10   12.43    0.91
  -4   6 -10   13.46    1.01
  -4   6 -10   10.92    0.88
  -4   6 -10    9.73    0.81
  -4   6 -10   10.03    0.86
  -4   6 -10   10.14    0.83
  -4   6 -10   10.47    0.87
  -4   6 -10   10.25    0.83
  -4   6 -11    3.15    0.43
  -4   6 -11    2.59    0.46
  -4   6 -11    2.16    0.45
  -4   6 -11    2.37    0.42
  -4   6 -11    3.11    0.42
  -4   6 -11    2.69    0.41
  -4   6 -11    2.49    0.42
  -4   6 -11    3.16    0.47
  -4   6 -12    0.34    0.29
  -4   6 -12    1.05    0.34
  -4   6 -12    1.13    0.35
  -4   6 -12    0.64    0.32
  -4   6 -12    0.98    0.30
  -4   6 -12    0.54    0.30
  -4   6 -12    0.67    0.26
  -4   6 -13    2.04    0.33
  -4   6 -13    2.61    0.35
  -4   6 -13    2.47    0.32
  -4   6 -14    2.30    0.26
   4  -5 -10    0.04    0.20
   4  -5 -10    0.29    0.21
   4  -5  -9    0.18    0.30
   4  -5  -9    0.06    0.19
   4  -5  -8    0.82    0.40
   4  -5  -8    1.13    0.28
   4  -5  -8    0.94    0.36
   4  -5  -8    0.38    0.25
   4  -5  -7    0.06    0.44
   4  -5  -7   -0.05    0.22
   4  -5  -7   -0.07    0.32
   4  -5  -7    0.30    0.29
   4  -5  -6   31.35    2.03
   4  -5  -6   32.52    1.79
   4  -5  -6   27.01    1.87
   4  -5  -6   30.21    1.88
   4  -5  -6   24.68    2.39
   4  -5  -6   30.99    1.83
   4  -5  -6   26.64    1.82
   4  -5  -6   28.99    1.86
   4  -5  -6   29.17    1.83
   4  -5  -5   23.92    1.62
   4  -5  -5   27.39    1.55
   4  -5  -5   24.29    1.65
   4  -5  -5   23.95    2.19
   4  -5  -5   26.12    1.66
   4  -5  -5   26.94    1.64
   4  -5  -4   11.59    0.91
   4  -5  -4   13.44    0.83
   4  -5  -4   13.76    0.95
   4  -5  -4   11.63    1.35
   4  -5  -4   13.51    0.95
  -4   5   3   39.50    2.48
   4  -5  -3   38.03    2.35
   4  -5  -3   40.90    2.29
   4  -5  -3   39.95    2.38
   4  -5  -3   43.02    2.95
   4  -5  -3   42.90    2.77
   4  -5  -3   39.38    2.36
  -4   5   2    1.99    0.38
   4  -5  -2    2.63    0.24
  -4   5   1   38.72    2.20
   4  -5  -1   33.47    1.95
  -4   5   0    0.18    0.27
  -4   5  -1   28.08    2.15
  -4   5  -1   31.55    1.96
  -4   5  -2    1.31    0.53
  -4   5  -3   18.97    1.33
  -4   5  -4  154.64    8.76
  -4   5  -5   15.96    1.15
  -4   5  -6   76.22    4.46
  -4   5  -7    7.20    0.60
  -4   5  -7    6.87    0.64
  -4   5  -7    5.65    0.53
  -4   5  -7    5.53    0.53
  -4   5  -7    5.69    0.51
  -4   5  -8   20.38    1.34
  -4   5  -8   19.18    1.27
  -4   5  -8   20.00    1.34
  -4   5  -8   18.96    1.31
  -4   5  -8   20.30    1.38
  -4   5  -8   19.65    1.31
  -4   5  -8   18.88    1.27
  -4   5  -8   19.16    1.29
  -4   5  -8   20.32    1.28
  -4   5  -9   15.74    1.12
  -4   5  -9   17.28    1.15
  -4   5  -9   17.24    1.19
  -4   5  -9   15.47    1.15
  -4   5  -9   16.94    1.24
  -4   5  -9   14.85    1.13
  -4   5  -9   17.81    1.16
  -4   5  -9   16.07    1.62
  -4   5  -9   14.51    1.10
  -4   5  -9   15.92    1.08
  -4   5  -9   16.33    1.11
  -4   5 -10    3.78    0.49
  -4   5 -10    5.03    0.58
  -4   5 -10    4.71    0.54
  -4   5 -10    5.16    0.57
  -4   5 -10    4.55    0.52
  -4   5 -10    6.55    0.69
  -4   5 -10    4.26    0.55
  -4   5 -10    4.91    0.53
  -4   5 -10    4.44    0.54
  -4   5 -11    0.38    0.33
  -4   5 -11    0.33    0.33
  -4   5 -11    0.03    0.27
  -4   5 -11   -0.20    0.36
  -4   5 -11    0.54    0.33
  -4   5 -11   -0.32    0.39
  -4   5 -11    0.04    0.33
  -4   5 -11    0.48    0.30
  -4   5 -11    0.03    0.30
  -4   5 -11   -0.39    0.33
  -4   5 -12    0.64    0.32
  -4   5 -12    0.50    0.30
  -4   5 -12    0.33    0.29
  -4   5 -12    0.17    0.30
  -4   5 -12    0.17    0.30
  -4   5 -12    0.30    0.28
  -4   5 -12    0.25    0.23
  -4   5 -13    0.28    0.24
  -4   5 -13    0.76    0.25
  -4   5 -13    0.87    0.26
  -4   5 -13    0.40    0.22
   4  -4 -11    1.13    0.21
   4  -4 -11    1.22    0.22
   4  -4 -10   -0.10    0.28
   4  -4 -10    0.13    0.27
   4  -4 -10    0.08    0.15
   4  -4  -9    1.80    0.45
   4  -4  -9    2.13    0.33
   4  -4  -9    2.26    0.39
   4  -4  -8   32.79    1.86
   4  -4  -8   29.07    1.91
   4  -4  -8   29.67    2.01
   4  -4  -8   29.53    1.88
   4  -4  -7   17.00    1.31
   4  -4  -7   15.46    1.16
   4  -4  -7   18.27    1.13
   4  -4  -7   18.57    1.22
   4  -4  -7   17.73    1.20
   4  -4  -7   16.91    1.10
   4  -4  -6    0.41    0.26
   4  -4  -6    0.40    0.28
   4  -4  -6    0.04    0.28
   4  -4  -6    0.27    0.39
   4  -4  -6    0.11    0.28
   4  -4  -6    0.29    0.20
   4  -4  -6    0.24    0.23
   4  -4  -6    0.14    0.21
   4  -4  -5    4.18    0.45
   4  -4  -5    4.61    0.49
   4  -4  -5    5.02    0.48
   4  -4  -5    4.70    0.39
   4  -4  -4    8.38    0.70
   4  -4  -4   10.27    0.76
   4  -4  -4    9.41    0.74
  -4   4   3    5.18    0.51
   4  -4  -3    3.96    0.65
   4  -4  -3    5.15    0.38
   4  -4  -2   19.13    1.13
  -4   4   2   19.40    1.31
  -4   4   1   44.40    2.70
  -4   4   0    4.78    0.53
  -4   4  -1   41.98    2.68
  -4   4  -1   40.13    2.50
  -4   4  -2    3.38    0.46
  -4   4  -2    4.19    0.64
  -4   4  -3   -0.16    0.28
  -4   4  -4    2.30    0.36
   4  -4   5   20.02    1.58
  -4   4  -5   21.09    1.38
   4  -4   6   32.54    2.21
  -4   4  -6   31.41    1.97
  -4   4  -7   59.73    3.64
  -4   4  -7   66.23    3.63
  -4   4  -7   60.67    3.62
  -4   4  -7   64.84    3.68
  -4   4  -7   67.79    3.72
  -4   4  -7   63.01    3.66
  -4   4  -7   62.99    3.65
  -4   4  -7   61.57    3.62
  -4   4  -8    4.44    0.79
  -4   4  -8    4.18    0.51
  -4   4  -8    3.54    0.45
  -4   4  -8    3.66    0.47
  -4   4  -8    5.28    0.46
  -4   4  -8    3.89    0.47
  -4   4  -8    5.14    0.57
  -4   4  -8    4.05    0.49
  -4   4  -8    4.09    0.49
  -4   4  -8    3.48    0.43
  -4   4  -8    4.62    0.51
  -4   4  -8    3.90    0.47
  -4   4  -9   62.92    3.85
  -4   4  -9   66.53    3.85
  -4   4  -9   68.13    3.85
  -4   4  -9   72.87    3.91
  -4   4  -9   63.92    3.85
  -4   4  -9   68.38    3.94
  -4   4  -9   67.58    3.90
  -4   4  -9   66.40    3.90
  -4   4  -9   67.85    3.87
  -4   4  -9   73.03    4.50
  -4   4  -9   61.85    3.86
  -4   4  -9   61.64    3.83
  -4   4 -10   50.18    3.17
  -4   4 -10   52.99    3.18
  -4   4 -10   52.47    3.19
  -4   4 -10   50.43    3.19
  -4   4 -10   55.21    3.23
  -4   4 -10   55.39    3.27
  -4   4 -10   59.21    3.27
  -4   4 -10   59.84    3.27
  -4   4 -10   54.01    3.20
  -4   4 -10   52.45    3.20
  -4   4 -10   54.21    3.22
  -4   4 -11    1.26    0.40
  -4   4 -11    1.61    0.38
  -4   4 -11    1.91    0.41
  -4   4 -11    1.71    0.43
  -4   4 -11    1.22    0.38
  -4   4 -11    2.42    0.37
  -4   4 -12    1.25    0.33
  -4   4 -12    0.63    0.32
  -4   4 -12    1.70    0.33
  -4   4 -12    1.29    0.35
  -4   4 -12    1.26    0.33
  -4   4 -13   -0.08    0.21
  -4   4 -13    0.12    0.22
  -4   4 -13    0.10    0.21
   4  -3 -11    0.47    0.26
   4  -3 -11    0.42    0.26
   4  -3 -10    1.59    0.40
   4  -3 -10    1.67    0.32
   4  -3 -10    1.64    0.30
   4  -3  -9    9.16    0.86
   4  -3  -9    7.88    0.66
   4  -3  -9   10.86    0.81
   4  -3  -9   11.72    0.76
   4  -3  -8   45.27    2.48
   4  -3  -8   39.79    2.54
   4  -3  -8   41.31    2.50
   4  -3  -8   44.34    2.66
   4  -3  -8   39.73    2.45
   4  -3  -7   31.40    1.92
   4  -3  -7   28.19    1.75
   4  -3  -7   28.12    1.70
   4  -3  -7   26.27    1.78
   4  -3  -7   30.13    1.78
   4  -3  -7   27.15    1.71
   4  -3  -6    0.03    0.24
   4  -3  -6   -0.03    0.24
   4  -3  -6    0.13    0.18
   4  -3  -6   -0.30    0.24
   4  -3  -6    0.29    0.27
   4  -3  -6   -0.03    0.26
   4  -3  -6   -0.26    0.53
   4  -3  -6    0.12    0.19
   4  -3  -6    0.05    0.34
   4  -3  -5   -0.05    0.21
   4  -3  -5   -0.19    0.21
   4  -3  -5    0.26    0.16
   4  -3  -5   -0.08    0.25
   4  -3  -5   -0.46    0.50
   4  -3  -4   -0.02    0.19
  -4   3   4    0.48    0.23
   4  -3  -4    0.07    0.15
   4  -3  -4    0.06    0.29
   4  -3  -4    0.10    0.46
  -4   3   3    2.38    0.37
   4  -3  -3    3.25    0.27
   4  -3  -3    2.85    0.51
   4  -3  -3    3.20    0.61
  -4   3   2   81.56    4.74
   4  -3  -2   82.45    4.91
  -4   3   1   72.80    4.24
  -4   3   0  176.65    9.92
  -4   3  -1  194.43   10.99
  -4   3  -2   19.95    1.35
  -4   3  -3    6.42    0.60
   4  -3   4   12.81    1.14
  -4   3  -4   14.15    0.99
   4  -3   5   42.02    2.59
  -4   3  -5   40.30    2.39
  -4   3  -5   38.19    2.33
  -4   3  -6    0.52    0.27
  -4   3  -7   83.43    4.25
  -4   3  -7   75.84    4.25
  -4   3  -7   68.68    4.19
  -4   3  -7   77.62    4.25
  -4   3  -7   70.43    4.22
  -4   3  -7   70.95    4.22
  -4   3  -7   77.64    4.26
  -4   3  -7   71.16    4.63
  -4   3  -7   74.00    4.20
  -4   3  -7   68.86    4.19
  -4   3  -8    2.14    0.37
  -4   3  -8    2.49    0.28
  -4   3  -8    2.60    0.41
  -4   3  -8    3.23    0.46
  -4   3  -8    3.67    0.41
  -4   3  -8    3.14    0.41
  -4   3  -8    2.77    0.46
  -4   3  -8    3.31    0.45
  -4   3  -8    2.21    0.39
  -4   3  -8    2.78    0.71
  -4   3  -8    2.39    0.38
  -4   3  -8    2.74    0.42
  -4   3  -9  163.49    9.57
  -4   3  -9  169.66    9.59
  -4   3  -9  181.75    9.65
  -4   3  -9  167.40    9.62
  -4   3  -9  172.13    9.64
  -4   3  -9  172.60    9.58
  -4   3  -9  169.54    9.61
  -4   3  -9  170.03    9.47
  -4   3  -9  183.47    9.65
  -4   3  -9  177.27    9.65
  -4   3  -9  163.27    9.51
  -4   3  -9  170.46   10.20
  -4   3  -9  172.73    9.61
  -4   3 -10   11.50    0.78
  -4   3 -10   12.36    0.94
  -4   3 -10   11.63    0.95
  -4   3 -10   11.43    0.96
  -4   3 -10   13.02    0.94
  -4   3 -10   11.17    0.92
  -4   3 -10   13.37    0.99
  -4   3 -10   13.47    0.99
  -4   3 -10   11.75    0.90
  -4   3 -10   12.88    0.96
  -4   3 -11    1.83    0.40
  -4   3 -11    1.20    0.36
  -4   3 -11    1.60    0.38
  -4   3 -11    1.21    0.35
  -4   3 -11    1.16    0.37
  -4   3 -11    1.51    0.41
  -4   3 -11    1.23    0.37
  -4   3 -12    3.33    0.41
  -4   3 -12    3.19    0.40
  -4   3 -12    3.08    0.44
  -4   3 -12    2.90    0.39
  -4   3 -13    1.68    0.28
   4  -2 -12    5.97    0.50
   4  -2 -12    6.90    0.53
   4  -2 -11    7.57    0.64
   4  -2 -11    7.77    0.59
   4  -2 -11    6.33    0.62
   4  -2 -11    5.78    0.50
   4  -2 -10   20.72    1.44
   4  -2 -10   23.24    1.35
   4  -2 -10   20.94    1.36
   4  -2 -10   17.98    1.32
   4  -2  -9    3.19    0.46
   4  -2  -9    3.78    0.42
   4  -2  -9    3.19    0.39
   4  -2  -8   12.42    0.84
   4  -2  -8   11.94    0.89
   4  -2  -8   12.42    1.02
   4  -2  -8   11.74    0.87
   4  -2  -8   11.33    0.83
   4  -2  -7    7.37    0.72
   4  -2  -7    6.44    0.57
   4  -2  -7    7.10    0.54
   4  -2  -7    5.87    0.60
   4  -2  -7    7.25    0.60
   4  -2  -7    7.31    0.57
   4  -2  -6    0.95    0.21
   4  -2  -6    0.49    0.22
   4  -2  -6    0.53    0.25
   4  -2  -6    0.47    0.23
   4  -2  -6    0.36    0.46
   4  -2  -5   20.90    1.21
   4  -2  -5   19.29    1.67
   4  -2  -5   19.09    1.25
   4  -2  -4   62.43    3.25
   4  -2  -4   57.65    3.70
   4  -2  -4   56.19    3.28
   4  -2  -4   52.02    3.48
  -4   2   4   53.97    3.37
   4  -2  -3    4.37    0.59
   4  -2  -3    4.82    0.69
  -4   2   3    4.36    0.49
   4  -2  -2    9.69    0.85
  -4   2   2    7.84    0.71
  -4   2   1    5.04    0.52
   4  -2  -1    4.26    0.63
  -4   2   0  415.59   22.58
  -4   2   0  398.05   22.75
  -4   2  -1   15.65    0.94
   4  -2   1   15.78    1.24
   4  -2   2  503.93   24.58
  -4   2  -2  406.04   24.39
  -4   2  -3    0.59    0.31
   4  -2   3    0.46    0.35
   4  -2   4   27.80    1.87
  -4   2  -4   27.65    1.67
  -4   2  -4   28.07    1.76
   4  -2   5   76.31    4.69
  -4   2  -5   76.83    4.56
  -4   2  -5   84.58    4.55
  -4   2  -6    1.18    0.32
  -4   2  -7  109.44    5.89
  -4   2  -7  104.51    5.85
  -4   2  -7   97.22    6.24
  -4   2  -7   92.28    5.80
  -4   2  -7  109.77    5.88
  -4   2  -7  105.71    5.86
  -4   2  -7  102.14    5.85
  -4   2  -7  105.56    5.83
  -4   2  -8   19.99    1.21
  -4   2  -8   21.48    1.37
  -4   2  -8   22.31    1.41
  -4   2  -8   20.68    1.32
  -4   2  -8   19.38    1.33
  -4   2  -8   18.85    1.29
  -4   2  -8   18.81    1.25
  -4   2  -8   19.49    1.37
  -4   2  -8   19.93    1.36
  -4   2  -8   18.39    1.74
  -4   2  -8   19.73    1.34
  -4   2  -9  132.99    7.39
  -4   2  -9  133.92    7.45
  -4   2  -9  121.48    7.94
  -4   2  -9  138.76    7.47
  -4   2  -9  139.46    7.39
  -4   2  -9  125.87    7.31
  -4   2  -9  139.76    7.48
  -4   2  -9  123.86    7.39
  -4   2  -9  129.28    7.38
  -4   2  -9  127.65    7.28
  -4   2  -9  129.30    7.45
  -4   2 -10    1.01    0.23
  -4   2 -10    0.64    0.34
  -4   2 -10    1.71    0.42
  -4   2 -10    0.86    0.33
  -4   2 -10    1.26    0.37
  -4   2 -10    1.10    0.42
  -4   2 -10    1.02    0.37
  -4   2 -10    0.73    0.34
  -4   2 -11    3.20    0.32
  -4   2 -11    3.47    0.47
  -4   2 -11    2.78    0.49
  -4   2 -11    3.59    0.45
  -4   2 -11    3.28    0.47
  -4   2 -11    4.46    0.52
  -4   2 -11    3.81    0.46
  -4   2 -11    4.86    0.47
  -4   2 -12    1.22    0.27
  -4   2 -12    1.72    0.28
  -4   2 -12    1.86    0.35
  -4   2 -12    2.14    0.31
  -4   2 -12    1.65    0.30
  -4   2 -13    1.66    0.25
  -4   2 -13    1.35    0.22
   4  -1 -13    1.91    0.25
   4  -1 -12   16.99    1.13
   4  -1 -11   19.16    1.30
   4  -1 -11   19.95    1.22
   4  -1 -11   16.80    1.18
   4  -1 -10   30.01    1.92
   4  -1 -10   30.15    1.80
   4  -1 -10   30.25    1.82
   4  -1 -10   27.71    1.82
   4  -1 -10   28.06    1.78
   4  -1  -9    2.27    0.49
   4  -1  -9    2.17    0.38
   4  -1  -9    2.26    0.35
   4  -1  -8    0.05    0.33
   4  -1  -8    0.29    0.28
   4  -1  -8    0.03    0.23
   4  -1  -7    2.75    0.42
   4  -1  -7    2.12    0.31
   4  -1  -7    2.31    0.30
   4  -1  -7    2.52    0.36
   4  -1  -7    1.74    0.32
   4  -1  -6    2.97    0.71
   4  -1  -5  198.83   10.56
   4  -1  -5  174.16   10.21
   4  -1  -4   32.09    1.99
   4  -1  -4   29.28    2.11
  -4   1   4   29.29    1.89
  -4   1   3  315.60   17.47
   4  -1  -3  336.30   17.81
   4  -1  -3  314.85   17.74
   4  -1  -2   46.69    3.03
  -4   1   2   49.29    2.77
  -4   1   2   51.16    3.00
  -4   1   1   24.96    1.70
   4  -1  -1   26.43    1.58
   4  -1  -1   24.62    1.74
   4  -1   0  150.54    8.58
   4  -1   1    8.50    0.83
  -4   1  -1    9.26    0.79
   4  -1   2  585.29   31.53
  -4   1  -2  564.67   31.26
  -4   1  -2  580.57   31.49
  -4   1  -3    3.09    0.25
  -4   1  -3    2.55    0.34
  -4   1  -4  182.79    9.98
   4  -1   4  190.70   10.16
  -4   1  -4  167.89   10.05
  -4   1  -5    3.12    0.40
  -4   1  -6    0.19    0.30
  -4   1  -6    0.59    0.42
  -4   1  -7    1.36    0.38
  -4   1  -7    1.55    0.24
  -4   1  -7    1.25    0.29
  -4   1  -7    0.96    0.29
  -4   1  -7    1.41    0.28
  -4   1  -7    2.13    0.57
  -4   1  -7    0.78    0.34
  -4   1  -7    1.74    0.40
  -4   1  -7    1.97    0.37
  -4   1  -7    2.45    0.37
  -4   1  -7    1.37    0.35
  -4   1  -8    5.12    0.86
  -4   1  -8    5.48    0.59
  -4   1  -8    5.03    0.51
  -4   1  -8    5.36    0.58
  -4   1  -8    4.54    0.53
  -4   1  -8    4.72    0.47
  -4   1  -8    5.05    0.44
  -4   1  -8    5.24    0.52
  -4   1  -8    5.55    0.60
  -4   1  -9  114.40    6.40
  -4   1  -9  128.39    6.59
  -4   1  -9  121.28    6.58
  -4   1  -9  103.45    6.46
  -4   1  -9  114.82    6.50
  -4   1  -9  115.94    6.59
  -4   1  -9  112.75    6.49
  -4   1  -9  112.47    6.56
  -4   1 -10    1.28    0.34
  -4   1 -10    0.97    0.24
  -4   1 -10    1.22    0.37
  -4   1 -10    0.87    0.41
  -4   1 -10    0.63    0.32
  -4   1 -10    1.19    0.33
  -4   1 -10    1.18    0.40
  -4   1 -10    1.14    0.40
  -4   1 -11    0.55    0.28
  -4   1 -11    0.73    0.33
  -4   1 -11    0.43    0.18
  -4   1 -11    0.24    0.23
  -4   1 -11    0.64    0.35
  -4   1 -11    0.68    0.34
  -4   1 -11    0.83    0.30
  -4   1 -12    0.50    0.26
  -4   1 -12    0.14    0.21
   4   0 -13    2.82    0.31
   4   0 -13    1.82    0.22
   4   0 -12   11.50    0.84
   4   0 -12   10.91    0.78
   4   0 -12   11.31    0.86
   4   0 -12   10.24    0.73
   4   0 -11   19.81    1.37
   4   0 -11   20.10    1.27
   4   0 -11   20.30    1.39
   4   0 -11   18.48    1.28
   4   0 -10    6.12    0.66
   4   0 -10    6.20    0.52
   4   0 -10    5.10    0.53
   4   0 -10    4.99    0.59
   4   0 -10    5.71    0.53
   4   0  -9    1.05    0.41
   4   0  -9    0.81    0.25
   4   0  -9    0.68    0.36
   4   0  -9    1.36    0.32
   4   0  -9    1.38    0.30
   4   0  -8   -0.13    0.30
   4   0  -8    0.70    0.20
   4   0  -8    0.14    0.24
   4   0  -8    0.17    0.23
   4   0  -7   58.26    3.57
   4   0  -7   65.92    3.54
   4   0  -6    7.54    0.52
   4   0  -5   76.77    4.27
   4   0  -5   75.38    4.67
   4   0  -5   76.07    4.47
   4   0  -4   20.99    1.45
   4   0  -4   22.08    1.54
  -4   0   4   19.76    1.22
  -4   0   4   24.25    1.49
  -4   0   3  602.06   32.42
   4   0  -3  573.89   32.34
   4   0  -3  591.08   32.41
   4   0  -3  603.08   32.41
  -4   0   3  582.28   32.17
   4   0  -2   33.59    2.12
  -4   0   2   34.51    2.20
   4   0  -2   34.68    2.20
  -4   0   1   22.56    1.56
   4   0   0    6.82    0.69
  -4   0  -1   39.90    2.47
   4   0   1   38.00    2.44
  -4   0  -2  419.42   23.06
  -4   0  -2  405.10   22.85
   4   0   2  407.75   23.04
  -4   0  -2  423.86   22.81
  -4   0  -3   27.20    1.65
   4   0   3   29.27    1.82
  -4   0  -3   27.34    1.58
  -4   0  -3   26.89    1.79
   4   0   4   58.12    3.46
  -4   0  -5   68.66    4.20
  -4   0  -6   17.98    1.16
  -4   0  -6   19.87    1.32
  -4   0  -6   19.43    1.29
  -4   0  -6   17.19    1.20
  -4   0  -6   20.04    1.57
  -4   0  -6   21.16    1.27
  -4   0  -6   20.42    1.25
  -4   0  -7    0.46    0.29
  -4   0  -7    0.42    0.46
  -4   0  -7    0.46    0.20
  -4   0  -7    0.44    0.30
  -4   0  -7    0.45    0.23
  -4   0  -7    0.31    0.33
  -4   0  -7    0.32    0.32
  -4   0  -7    0.38    0.30
  -4   0  -8   69.99    3.98
  -4   0  -8   69.23    4.00
  -4   0  -8   68.81    4.13
  -4   0  -8   73.05    4.13
  -4   0  -9   48.64    2.77
  -4   0  -9   50.61    2.92
  -4   0  -9   45.66    2.84
  -4   0  -9   46.68    2.92
  -4   0 -10   29.83    1.73
  -4   0 -10   23.59    1.58
  -4   0 -10   26.21    1.67
  -4   0 -10   28.26    1.76
  -4   0 -10   29.68    1.78
  -4   0 -10   28.03    1.76
  -4   0 -11    2.81    0.35
  -4   0 -11    3.29    0.38
  -4   0 -11    3.26    0.42
  -4   0 -11    3.47    0.44
  -4   0 -11    3.37    0.42
  -4   0 -12    0.60    0.22
  -4   0 -12    0.20    0.17
   4   1 -14    5.81    0.44
   4   1 -13    1.34    0.30
   4   1 -13    1.97    0.35
   4   1 -13    1.03    0.21
   4   1 -13    1.30    0.19
   4   1 -12   39.96    2.34
   4   1 -12   38.12    2.26
   4   1 -12   39.68    2.37
   4   1 -12   35.68    2.24
   4   1 -11    5.47    0.61
   4   1 -11    5.02    0.49
   4   1 -11    6.75    0.67
   4   1 -11    4.65    0.53
   4   1 -10    6.89    0.70
   4   1 -10    6.72    0.56
   4   1 -10    6.43    0.73
   4   1 -10    7.15    0.66
   4   1 -10    7.46    0.62
   4   1  -9    3.22    0.47
   4   1  -9    3.11    0.49
   4   1  -9    3.39    0.35
   4   1  -9    2.99    0.39
   4   1  -8    0.58    0.24
   4   1  -8    0.40    0.28
   4   1  -8    0.20    0.19
   4   1  -7   60.48    3.41
   4   1  -6  111.26    6.18
  -4  -1   5    0.72    0.18
  -4  -1   5    0.70    0.33
   4   1  -4   55.79    3.39
  -4  -1   4   53.20    3.37
   4   1  -4   55.61    3.33
   4   1  -4   55.67    3.33
   4   1  -3  162.54    9.34
   4   1  -3  163.25    9.31
  -4  -1   3  174.03    9.37
   4   1  -3  162.53    9.22
  -4  -1   3  163.56    9.08
   4   1  -2   12.80    1.00
   4   1  -2   10.90    0.94
  -4  -1   2   11.27    1.00
   4   1  -2   12.78    0.80
  -4  -1   2   11.11    0.74
   4   1  -1  208.56   11.16
   4   1  -1  195.44   10.91
   4   1   0   82.91    4.86
  -4  -1   0   88.52    4.93
  -4  -1   0   82.12    4.64
   4   1   1   16.36    1.16
  -4  -1  -1   14.68    1.17
  -4  -1  -1   14.93    0.93
  -4  -1  -2    9.06    0.65
  -4  -1  -2    9.76    0.85
   4   1   2    8.02    0.77
  -4  -1  -3   17.56    1.28
  -4  -1  -3   17.25    1.12
  -4  -1  -3   17.50    1.04
  -4  -1  -4   38.35    2.42
  -4  -1  -4   42.32    2.53
  -4  -1  -4   45.43    2.64
  -4  -1  -5   10.24    0.75
  -4  -1  -5    7.88    0.88
  -4  -1  -6   45.49    2.57
  -4  -1  -6   40.44    2.48
  -4  -1  -6   37.61    2.36
  -4  -1  -6   41.24    2.42
  -4  -1  -6   43.77    2.46
  -4  -1  -7    1.54    0.27
  -4  -1  -7    1.92    0.43
  -4  -1  -7    1.42    0.39
  -4  -1  -7    1.32    0.28
  -4  -1  -7    1.12    0.42
  -4  -1  -7    1.08    0.32
  -4  -1  -8    5.71    0.52
  -4  -1  -8    6.47    0.66
  -4  -1  -8    8.21    0.70
  -4  -1  -8    7.99    0.73
  -4  -1  -8    5.89    0.52
  -4  -1  -9   11.09    0.90
  -4  -1  -9   10.71    0.81
  -4  -1  -9   10.98    0.88
  -4  -1  -9   11.09    0.76
  -4  -1 -10   27.81    1.65
  -4  -1 -10   23.67    1.54
  -4  -1 -10   27.62    1.69
  -4  -1 -10   26.79    1.70
  -4  -1 -10   26.84    1.60
  -4  -1 -11    0.60    0.25
  -4  -1 -11    0.33    0.21
   4   2 -14    2.84    0.33
   4   2 -13    0.53    0.29
   4   2 -13    0.10    0.30
   4   2 -13    0.07    0.19
   4   2 -13    0.53    0.20
   4   2 -12   24.03    1.52
   4   2 -12   23.19    1.42
   4   2 -12   22.53    1.54
   4   2 -12   20.69    1.42
   4   2 -12   22.79    1.44
   4   2 -11    6.92    0.69
   4   2 -11    6.61    0.57
   4   2 -11    6.72    0.61
   4   2 -11    6.92    0.73
   4   2 -11    7.47    0.66
   4   2 -11    6.07    0.61
   4   2 -10   70.54    4.10
   4   2 -10   70.35    3.96
   4   2 -10   69.91    4.14
   4   2 -10   67.04    4.05
   4   2 -10   71.74    4.07
   4   2 -10   67.78    3.96
   4   2  -9   38.96    2.31
   4   2  -9   36.05    2.15
   4   2  -9   37.52    2.34
   4   2  -9   37.43    2.27
   4   2  -9   35.69    2.27
   4   2  -8   34.40    2.08
   4   2  -8   33.99    1.95
   4   2  -8   33.24    2.05
   4   2  -8   33.29    2.06
   4   2  -8   32.01    2.01
   4   2  -8   34.07    1.98
   4   2  -7   81.10    4.53
  -4  -2   6  138.88    8.20
   4   2  -6  152.37    7.90
  -4  -2   5   94.83    5.36
  -4  -2   5   89.03    5.04
  -4  -2   4  216.61   11.85
   4   2  -4  207.98   12.18
  -4  -2   4  213.54   12.14
  -4  -2   3   -0.12    0.41
   4   2  -3    0.07    0.42
  -4  -2   3   -0.02    0.18
   4   2  -3    0.15    0.32
  -4  -2   2   48.89    2.77
  -4  -2   2   47.23    3.05
   4   2  -2   49.88    3.10
   4   2  -1    6.04    0.65
  -4  -2   0  106.10    6.07
   4   2   0  100.72    5.98
  -4  -2   0  103.66    5.76
  -4  -2  -1   12.10    0.87
  -4  -2  -1   14.56    1.15
  -4  -2  -1   14.63    0.86
  -4  -2  -2  126.33    7.37
  -4  -2  -2  138.55    7.65
  -4  -2  -2  134.96    7.33
  -4  -2  -3  200.14   11.19
  -4  -2  -3  197.71   11.40
   4   2   3  197.39   11.29
  -4  -2  -3  206.37   11.16
  -4  -2  -4   11.35    0.83
  -4  -2  -5    0.06    0.18
  -4  -2  -5    0.36    0.29
  -4  -2  -5   -0.03    0.23
  -4  -2  -5    0.05    0.35
  -4  -2  -5    0.33    0.32
  -4  -2  -5    0.14    0.23
  -4  -2  -6   13.47    1.02
  -4  -2  -6   11.82    1.04
  -4  -2  -6   11.55    0.97
  -4  -2  -6   14.42    0.92
  -4  -2  -6   13.20    0.93
  -4  -2  -7    6.43    0.68
  -4  -2  -7    4.93    0.59
  -4  -2  -7    6.76    0.63
  -4  -2  -7    6.20    0.64
  -4  -2  -7    4.49    0.48
  -4  -2  -8    1.19    0.39
  -4  -2  -8    1.69    0.31
  -4  -2  -8    0.68    0.36
  -4  -2  -8    1.12    0.39
  -4  -2  -8    1.21    0.42
  -4  -2  -8    1.39    0.31
  -4  -2  -9    1.17    0.26
  -4  -2  -9    0.25    0.30
  -4  -2  -9    0.83    0.34
  -4  -2  -9    0.75    0.37
  -4  -2  -9    1.34    0.28
  -4  -2 -10    1.04    0.31
  -4  -2 -10    1.58    0.36
  -4  -2 -11    3.43    0.33
  -4  -2 -11    2.71    0.26
   4   3 -14    0.11    0.20
   4   3 -14   -0.22    0.25
   4   3 -13    0.41    0.28
   4   3 -13    0.22    0.33
   4   3 -13    0.11    0.19
   4   3 -13    0.66    0.23
   4   3 -12    2.70    0.47
   4   3 -12    2.13    0.32
   4   3 -12    2.30    0.30
   4   3 -12    2.73    0.52
   4   3 -12    2.09    0.35
   4   3 -12    2.77    0.40
   4   3 -11   33.76    2.17
   4   3 -11   32.45    2.08
   4   3 -11   35.66    2.14
   4   3 -11   34.30    2.20
   4   3 -11   33.52    2.11
   4   3 -11   35.84    2.04
   4   3 -11   32.78    2.03
   4   3 -10   61.04    3.54
   4   3 -10   57.11    3.39
   4   3 -10   58.46    3.42
   4   3 -10   57.56    3.46
   4   3 -10   62.97    3.58
   4   3 -10   62.57    3.53
   4   3 -10   59.41    3.51
   4   3  -9  135.71    7.47
   4   3  -9  130.40    7.32
   4   3  -9  126.30    7.48
   4   3  -9  138.53    7.46
   4   3  -9  130.50    7.44
   4   3  -9  129.99    7.40
   4   3  -8   34.31    2.10
   4   3  -8   33.47    1.97
   4   3  -8   34.08    2.11
   4   3  -8   36.46    2.10
   4   3  -8   33.17    2.04
   4   3  -8   33.94    2.02
   4   3  -7   15.25    1.11
   4   3  -7   15.61    0.94
   4   3  -6    2.00    0.21
   4   3  -6    1.84    0.35
  -4  -3   6    2.28    0.49
  -4  -3   6    2.93    0.28
   4   3  -5   49.60    3.27
  -4  -3   5   49.99    3.17
  -4  -3   5   49.40    2.83
  -4  -3   4    5.39    0.43
   4   3  -4    4.55    0.74
  -4  -3   4    5.54    0.73
  -4  -3   3   64.54    3.63
   4   3  -3   64.70    4.06
  -4  -3   3   62.44    3.96
   4   3  -2  371.81   21.92
  -4  -3   2  397.27   21.85
  -4  -3   2  393.71   21.50
  -4  -3   1  305.92   16.86
  -4  -3   1  307.53   17.21
  -4  -3   0   25.25    1.50
  -4  -3   0   24.18    1.80
  -4  -3  -1   83.29    4.91
  -4  -3  -1   91.22    4.91
  -4  -3  -1   88.48    5.25
  -4  -3  -2    0.56    0.19
  -4  -3  -2    0.44    0.25
  -4  -3  -2    0.82    0.22
   4   3   2    0.70    0.27
  -4  -3  -2    0.43    0.34
  -4  -3  -3  258.41   14.70
  -4  -3  -3  252.56   14.94
  -4  -3  -3  278.19   14.70
  -4  -3  -4    2.27    0.29
  -4  -3  -4    2.84    0.39
  -4  -3  -4    3.40    0.39
  -4  -3  -4    1.87    0.32
  -4  -3  -4    2.13    0.39
  -4  -3  -4    3.01    0.36
  -4  -3  -5   16.46    1.17
  -4  -3  -5   18.15    1.09
  -4  -3  -5   16.16    1.13
  -4  -3  -5   17.33    1.14
  -4  -3  -5   16.07    1.21
  -4  -3  -5   18.33    1.31
  -4  -3  -6    0.37    0.39
  -4  -3  -6    0.59    0.37
  -4  -3  -6    0.57    0.35
  -4  -3  -6    0.57    0.25
  -4  -3  -6    0.04    0.34
  -4  -3  -6    0.46    0.25
  -4  -3  -7    0.22    0.33
  -4  -3  -7   -0.09    0.25
  -4  -3  -7   -0.44    0.34
  -4  -3  -7    0.03    0.23
  -4  -3  -7   -0.57    0.40
  -4  -3  -7   -0.41    0.40
  -4  -3  -8    2.93    0.43
  -4  -3  -8    2.20    0.42
  -4  -3  -8    2.53    0.44
  -4  -3  -8    2.08    0.47
  -4  -3  -9    4.29    0.50
  -4  -3  -9    4.06    0.46
  -4  -3 -10    3.65    0.31
   4   4 -14    2.17    0.29
   4   4 -14    2.16    0.33
   4   4 -14    1.87    0.24
   4   4 -13    1.85    0.35
   4   4 -13    1.79    0.41
   4   4 -13    1.96    0.27
   4   4 -13    1.54    0.31
   4   4 -13    1.40    0.24
   4   4 -12    6.69    0.69
   4   4 -12    7.69    0.74
   4   4 -12    7.20    0.59
   4   4 -12    7.71    0.61
   4   4 -12    8.10    0.67
   4   4 -11   36.58    2.25
   4   4 -11   36.86    2.35
   4   4 -11   40.75    2.40
   4   4 -11   35.72    2.26
   4   4 -11   38.76    2.32
   4   4 -11   38.33    2.27
   4   4 -10   29.17    1.88
   4   4 -10   28.93    1.72
   4   4 -10   31.08    1.92
   4   4 -10   26.98    1.80
   4   4 -10   30.09    1.86
   4   4 -10   28.70    1.82
   4   4 -10   29.31    1.81
   4   4  -9  195.55   10.41
   4   4  -9  179.59   10.49
   4   4  -9  195.12   10.58
   4   4  -9  196.50   10.51
   4   4  -9  171.43   10.48
   4   4  -9  187.34   10.49
   4   4  -9  193.60   10.56
   4   4  -9  188.39   10.51
   4   4  -9  187.36   10.48
   4   4  -8    0.74    0.16
   4   4  -8    0.50    0.23
   4   4  -8    0.52    0.27
   4   4  -8    0.72    0.28
   4   4  -8    1.04    0.31
   4   4  -8    0.77    0.24
   4   4  -8    0.69    0.26
   4   4  -8    0.41    0.22
   4   4  -7   14.54    0.85
  -4  -4   7   12.42    1.21
   4   4  -7   13.21    1.06
  -4  -4   6   12.25    0.85
   4   4  -6   12.97    1.31
   4   4  -6   13.90    0.79
  -4  -4   6   12.01    1.18
   4   4  -6   11.36    0.99
  -4  -4   5   17.82    1.11
   4   4  -5   15.74    1.51
   4   4  -5   17.99    1.30
  -4  -4   5   18.43    1.45
   4   4  -4  205.46   11.95
   4   4  -4  206.60   11.65
  -4  -4   4  207.92   11.82
   4   4  -3   14.70    1.39
  -4  -4   3   13.25    1.21
   4   4  -2   27.98    2.06
   4   4  -2   23.85    1.69
   4   4  -1  196.67   11.42
  -4  -4   1  212.73   11.64
   4   4   0   23.92    1.63
  -4  -4   0   23.60    1.83
  -4  -4  -1   30.60    1.85
  -4  -4  -1   31.54    1.86
  -4  -4  -1   30.58    2.21
   4   4   1   32.35    2.05
  -4  -4  -2   13.08    0.88
  -4  -4  -2   12.34    0.84
  -4  -4  -2   13.34    0.88
   4   4   2   14.35    1.04
  -4  -4  -3   51.20    2.87
  -4  -4  -3   48.78    2.98
  -4  -4  -3   46.19    2.93
  -4  -4  -3   57.36    2.97
  -4  -4  -3   48.05    2.93
  -4  -4  -4   17.12    1.14
  -4  -4  -4   15.39    1.11
  -4  -4  -4   15.70    1.16
  -4  -4  -4   17.07    1.05
  -4  -4  -5   22.81    1.47
  -4  -4  -5   27.84    1.65
  -4  -4  -5   24.39    1.57
  -4  -4  -5   22.56    1.66
  -4  -4  -6   12.79    0.90
  -4  -4  -6   13.20    0.99
  -4  -4  -6   12.57    1.03
  -4  -4  -6   13.69    1.04
  -4  -4  -6   14.44    1.11
  -4  -4  -7    9.61    0.67
  -4  -4  -7    8.20    0.74
  -4  -4  -7    8.73    0.77
  -4  -4  -7    9.68    0.86
  -4  -4  -7    8.54    0.79
  -4  -4  -8    0.02    0.21
  -4  -4  -8    0.12    0.25
  -4  -4  -8    0.48    0.31
  -4  -4  -9    0.87    0.20
  -4  -4  -9    0.64    0.26
   4   5 -14    0.83    0.28
   4   5 -14    1.06    0.22
   4   5 -14    1.00    0.19
   4   5 -13    0.43    0.31
   4   5 -13    0.93    0.24
   4   5 -13    0.79    0.35
   4   5 -13    0.49    0.26
   4   5 -12   20.62    1.39
   4   5 -12   20.15    1.40
   4   5 -12   20.23    1.29
   4   5 -12   19.81    1.34
   4   5 -12   20.72    1.31
   4   5 -12   19.48    1.29
   4   5 -11   25.67    1.66
   4   5 -11   24.23    1.66
   4   5 -11   25.24    1.57
   4   5 -11   24.83    1.63
   4   5 -11   24.24    1.59
   4   5 -10   14.15    1.02
   4   5 -10   13.06    1.01
   4   5 -10   12.88    0.93
   4   5 -10   13.22    0.98
   4   5 -10   11.73    0.94
   4   5 -10   12.54    0.91
   4   5  -9  143.18    8.25
   4   5  -9  150.59    8.29
   4   5  -9  147.30    8.23
   4   5  -9  130.96    8.24
   4   5  -9  153.96    8.23
   4   5  -9  153.02    8.23
   4   5  -9  149.06    8.29
   4   5  -8   11.93    0.81
   4   5  -8   13.10    0.86
   4   5  -8   10.85    0.86
   4   5  -8   10.63    0.85
   4   5  -8   11.87    0.84
  -4  -5   7  116.33    6.66
   4   5  -7  122.68    6.71
   4   5  -7  121.42    6.68
  -4  -5   7  119.59    7.12
   4   5  -7  115.87    6.90
   4   5  -7  117.42    6.69
  -4  -5   6   14.55    0.94
   4   5  -6   13.56    1.43
  -4  -5   6   12.43    1.27
   4   5  -6   14.27    1.14
   4   5  -5    8.74    1.06
   4   5  -5    7.23    0.74
  -4  -5   5    6.26    0.87
   4   5  -4  357.00   19.31
  -4  -5   4  332.75   19.07
   4   5  -4  333.27   18.89
  -4  -5   3    4.02    0.71
  -4  -5   2    3.80    0.73
   4   5  -2    5.72    0.64
  -4  -5   1    2.01    0.51
   4   5  -1    1.63    0.39
  -4  -5   0   10.61    1.11
   4   5   0    9.98    0.91
  -4  -5  -1   17.39    1.09
  -4  -5  -1   13.97    1.41
   4   5   1   17.69    1.31
  -4  -5  -1   16.74    1.09
  -4  -5  -2   29.31    1.78
  -4  -5  -2   31.64    1.76
  -4  -5  -2   27.72    2.15
  -4  -5  -2   29.37    1.82
  -4  -5  -2   30.37    1.87
  -4  -5  -2   28.12    1.81
  -4  -5  -3    0.85    0.23
  -4  -5  -3    0.38    0.28
  -4  -5  -3    0.80    0.29
  -4  -5  -3    0.35    0.34
  -4  -5  -4    6.17    0.50
  -4  -5  -4    4.54    0.54
  -4  -5  -4    6.50    0.63
  -4  -5  -4    5.83    0.57
  -4  -5  -5    2.31    0.35
  -4  -5  -5    2.67    0.42
  -4  -5  -5    3.07    0.49
  -4  -5  -5    1.73    0.44
  -4  -5  -6   15.11    1.13
  -4  -5  -6   17.11    1.03
  -4  -5  -6   13.95    1.07
  -4  -5  -6   15.04    1.12
  -4  -5  -7    0.46    0.23
  -4  -5  -7    0.41    0.30
  -4  -5  -8    0.95    0.23
  -4  -5  -8    1.62    0.30
  -4  -5  -9    0.36    0.18
  -4  -5  -9   -0.02    0.19
   4   6 -14    2.58    0.28
   4   6 -14    2.36    0.35
   4   6 -14    2.67    0.30
   4   6 -13    2.26    0.32
   4   6 -13    1.94    0.40
   4   6 -13    2.29    0.36
   4   6 -13    1.92    0.30
   4   6 -12   16.03    1.12
   4   6 -12   17.83    1.18
   4   6 -12   15.72    1.17
   4   6 -12   16.28    1.05
   4   6 -12   15.31    1.07
   4   6 -12   16.06    1.10
   4   6 -11    7.97    0.69
   4   6 -11    6.08    0.66
   4   6 -11    6.16    0.55
   4   6 -11    5.77    0.62
   4   6 -11    6.23    0.60
   4   6 -10   19.74    1.37
   4   6 -10   18.94    1.35
   4   6 -10   19.72    1.28
   4   6 -10   19.66    1.33
   4   6 -10   20.62    1.32
   4   6  -9  139.78    7.44
   4   6  -9  134.30    7.37
   4   6  -9  131.81    7.40
   4   6  -9  118.80    7.40
   4   6  -9  130.64    7.38
  -4  -6   8   21.45    1.31
   4   6  -8   20.70    1.32
   4   6  -8   23.11    1.57
   4   6  -8   19.55    1.34
   4   6  -8   18.19    1.35
   4   6  -8   21.20    1.33
  -4  -6   7   13.06    0.89
   4   6  -7   12.47    0.89
   4   6  -7   14.55    1.15
   4   6  -7   12.52    0.90
   4   6  -7   12.42    0.93
  -4  -6   7   11.44    1.26
   4   6  -6    1.77    0.43
   4   6  -6    0.42    0.54
   4   6  -6    1.09    0.27
  -4  -6   6    1.37    0.52
  -4  -6   5    4.09    0.72
   4   6  -5    3.57    0.58
  -4  -6   4   56.13    3.70
   4   6  -3   16.84    1.65
   4   6  -3   13.72    1.19
   4   6  -2    7.12    1.07
   4   6  -2    4.59    0.64
  -4  -6   2    5.53    0.81
   4   6  -1   13.75    1.60
   4   6  -1   16.15    1.25
  -4  -6   1   12.59    1.33
   4   6   0    3.78    0.60
  -4  -6   0    5.05    0.81
  -4  -6   0    4.96    0.50
  -4  -6  -1   27.12    1.71
  -4  -6  -1   28.98    1.78
  -4  -6  -1   25.80    2.15
   4   6   1   29.85    1.99
  -4  -6  -1   27.92    1.73
  -4  -6  -2   78.92    4.80
  -4  -6  -2   83.72    4.72
  -4  -6  -2   90.79    4.86
  -4  -6  -3    3.30    0.43
  -4  -6  -3    3.01    0.36
  -4  -6  -3    2.86    0.46
  -4  -6  -4   -0.14    0.35
  -4  -6  -4    0.40    0.24
  -4  -6  -4    0.21    0.26
  -4  -6  -4    0.04    0.32
  -4  -6  -5    0.69    0.35
  -4  -6  -5    0.45    0.24
  -4  -6  -5    0.61    0.31
   4   6   5    0.87    0.25
  -4  -6  -6   -0.07    0.28
  -4  -6  -7    0.03    0.26
  -4  -6  -7    0.22    0.22
  -4  -6  -8    0.38    0.16
  -4  -6  -8    0.03    0.16
  -4  -6  -8   -0.02    0.19
   4   7 -14    1.25    0.23
   4   7 -14    1.56    0.27
   4   7 -14    1.98    0.27
   4   7 -13    7.69    0.63
   4   7 -13    7.41    0.64
   4   7 -13    7.90    0.59
   4   7 -13    6.69    0.58
   4   7 -12   -0.03    0.26
   4   7 -12    0.48    0.34
   4   7 -12    0.35    0.21
   4   7 -12    0.17    0.32
   4   7 -12    0.29    0.26
   4   7 -11    0.35    0.35
   4   7 -11    0.05    0.24
   4   7 -11    0.30    0.29
   4   7 -10    0.76    0.33
   4   7 -10    0.99    0.35
   4   7 -10    1.01    0.30
   4   7 -10    1.05    0.35
   4   7  -9   33.32    2.15
   4   7  -9   37.19    2.26
   4   7  -9   38.94    2.24
  -4  -7   8    3.53    0.39
   4   7  -8    2.79    0.40
   4   7  -8    3.33    0.41
   4   7  -8    3.10    0.47
   4   7  -8    2.90    0.42
  -4  -7   8    3.26    0.72
   4   7  -7    5.41    0.72
  -4  -7   7    5.60    0.89
   4   7  -7    5.37    0.50
   4   7  -7    5.24    0.52
  -4  -7   6    2.73    0.68
   4   7  -6    2.53    0.37
   4   7  -6    2.94    0.54
   4   7  -6    1.87    0.37
   4   7  -6    2.79    0.36
   4   7  -5    6.65    0.48
   4   7  -5    8.71    0.61
   4   7  -5    7.19    0.85
   4   7  -5    5.63    0.59
   4   7  -5    6.44    1.09
   4   7  -5    6.67    0.57
  -4  -7   5    7.22    0.97
  -4  -7   4    3.81    0.76
   4   7  -4    4.88    0.37
   4   7  -4    4.54    0.99
   4   7  -4    5.04    0.47
   4   7  -4    3.51    0.45
   4   7  -3    9.30    1.31
   4   7  -3    7.40    0.52
   4   7  -3    8.84    0.89
   4   7  -3    6.39    0.61
  -4  -7   3    6.48    0.96
   4   7  -2    5.27    0.74
   4   7  -2    6.42    1.17
  -4  -7   2    7.72    0.61
  -4  -7   2    4.55    0.84
   4   7  -1    1.07    0.79
  -4  -7   1   -0.12    0.44
   4   7  -1    0.49    0.34
  -4  -7   1    0.31    0.30
  -4  -7   0   21.20    1.40
   4   7   0   20.13    2.17
  -4  -7   0   24.28    1.48
  -4  -7   0   21.24    1.88
  -4  -7  -1    0.76    0.25
  -4  -7  -1    0.80    0.34
  -4  -7  -1    0.81    0.31
  -4  -7  -2   21.01    1.35
  -4  -7  -2   19.14    1.22
  -4  -7  -2   19.65    1.31
  -4  -7  -2   19.78    1.24
  -4  -7  -3    8.14    0.64
  -4  -7  -3    8.80    0.75
  -4  -7  -3    8.22    0.71
   4   7   3    9.64    0.70
  -4  -7  -4    0.21    0.21
   4   7   4    0.32    0.22
  -4  -7  -4    0.50    0.31
  -4  -7  -5    0.27    0.38
  -4  -7  -5   -0.03    0.24
   4   7   5    0.39    0.20
  -4  -7  -6   -0.23    0.30
  -4  -7  -6    0.06    0.20
  -4  -7  -7   -0.07    0.16
  -4  -7  -7   -0.03    0.16
   4   8 -14    2.47    0.26
   4   8 -14    2.45    0.24
   4   8 -13   11.02    0.79
   4   8 -13   10.06    0.75
   4   8 -13   11.03    0.76
   4   8 -12    0.20    0.30
   4   8 -12    0.92    0.31
   4   8 -11    0.02    0.22
   4   8 -11   -0.15    0.29
   4   8 -10    5.20    0.56
   4   8 -10    4.72    0.47
   4   8 -10    5.08    0.57
   4   8 -10    4.32    0.55
   4   8 -10    5.45    0.52
   4   8  -9    0.88    0.36
  -4  -8   9    0.79    0.27
   4   8  -9    0.86    0.28
   4   8  -9    1.16    0.33
  -4  -8   8   53.94    3.36
   4   8  -8   61.87    3.36
   4   8  -8   55.37    3.38
   4   8  -8   61.57    3.41
  -4  -8   8   51.08    3.92
   4   8  -7   32.98    2.10
   4   8  -7   36.72    2.09
  -4  -8   7   30.30    2.62
   4   8  -6    2.84    0.84
   4   8  -6    2.01    0.36
   4   8  -6    2.00    0.35
  -4  -8   6    1.57    0.64
   4   8  -6    1.91    0.53
   4   8  -5    0.53    0.67
   4   8  -5    0.75    0.30
   4   8  -5    0.86    0.22
  -4  -8   5    0.25    0.46
   4   8  -5    0.82    0.41
   4   8  -5    0.55    0.26
   4   8  -4    1.06    0.25
   4   8  -4    0.55    0.64
   4   8  -4    0.55    0.28
   4   8  -4    1.18    0.43
   4   8  -3   14.37    1.79
   4   8  -3   16.52    1.41
   4   8  -3   16.18    1.05
  -4  -8   3   12.77    1.48
  -4  -8   3   15.85    1.11
   4   8  -2    7.57    1.30
  -4  -8   2    8.47    1.11
   4   8  -2    7.68    0.62
  -4  -8   2    7.54    0.69
  -4  -8   1   16.36    1.70
   4   8  -1   17.51    2.02
  -4  -8   1   20.16    1.30
  -4  -8   0   14.74    1.03
   4   8   0   18.70    1.98
  -4  -8   0   14.33    1.48
   4   8   0   15.90    1.05
  -4  -8   0   14.81    1.09
   4   8   1    6.06    0.52
  -4  -8  -1    5.43    0.56
  -4  -8  -1    4.54    0.46
   4   8   2    0.03    0.25
  -4  -8  -2    0.11    0.21
  -4  -8  -2    0.03    0.28
   4   8   3    0.44    0.24
  -4  -8  -3    0.25    0.26
  -4  -8  -4    0.35    0.37
   4   8   4    0.15    0.21
  -4  -8  -5   -0.04    0.19
  -4  -8  -5   -0.16    0.29
  -4  -8  -6    0.59    0.21
  -4  -8  -6    0.43    0.16
   4   9 -14    0.39    0.17
   4   9 -14    0.56    0.19
   4   9 -13   -0.02    0.22
   4   9 -13    0.09    0.20
   4   9 -12    1.98    0.34
   4   9 -11    0.78    0.23
   4   9 -11    0.78    0.31
   4   9 -11    0.99    0.35
   4   9 -11    1.08    0.32
   4   9 -10    3.11    0.38
   4   9 -10    4.00    0.52
   4   9 -10    3.23    0.46
   4   9 -10    3.87    0.45
  -4  -9   9    1.98    0.37
   4   9  -9    3.13    0.32
   4   9  -9    3.14    0.39
   4   9  -9    3.59    0.47
   4   9  -9    3.24    0.43
  -4  -9   8   85.25    4.91
   4   9  -8   81.89    4.87
   4   9  -8   88.39    4.92
   4   9  -8   87.85    4.93
   4   9  -7   11.23    0.89
   4   9  -7   12.47    0.87
  -4  -9   7   10.50    1.35
   4   9  -7   12.19    0.90
   4   9  -6    5.35    0.51
  -4  -9   6    3.55    0.87
   4   9  -6    4.10    0.50
   4   9  -5    0.90    0.26
   4   9  -5    0.48    0.28
   4   9  -5    0.58    0.63
  -4  -9   5    0.14    0.50
   4   9  -4    4.51    1.07
   4   9  -4    4.55    0.46
  -4  -9   4    4.93    0.92
   4   9  -3   34.81    3.12
   4   9  -3   38.54    2.18
  -4  -9   2   -0.27    0.49
   4   9  -2    0.12    0.28
  -4  -9   1    2.33    0.35
  -4  -9   0    0.45    0.22
   4   9   0    0.79    0.20
   4   9   0    1.17    0.31
  -4  -9   0    1.13    0.28
   4   9   1    2.34    0.37
  -4  -9  -1    2.02    0.31
   4   9   2    0.62    0.25
  -4  -9  -2   -0.26    0.20
   4   9   3    0.40    0.22
  -4  -9  -3    0.04    0.35
  -4  -9  -4    0.31    0.21
  -4  -9  -4    0.42    0.28
   4   9   4    0.16    0.15
  -4  -9  -5    0.58    0.20
  -4  -9  -5    1.07    0.17
   4  10 -14    0.81    0.18
   4  10 -13    3.82    0.39
   4  10 -13    4.92    0.40
   4  10 -12    1.21    0.30
   4  10 -12    0.97    0.29
   4  10 -11   -0.37    0.28
   4  10 -11   -0.11    0.27
   4  10 -11    0.07    0.29
   4  10 -10   -0.21    0.29
   4  10 -10   -0.17    0.30
   4  10 -10    0.22    0.15
   4  10 -10    0.22    0.20
   4  10 -10   -0.04    0.30
  -4 -10   9    0.78    0.27
   4  10  -9    0.72    0.32
   4  10  -9    0.78    0.21
   4  10  -9    1.09    0.27
   4  10  -9    0.87    0.32
  -4 -10   8   36.38    2.32
   4  10  -8   41.22    2.25
   4  10  -8   35.18    2.31
   4  10  -8   38.62    2.32
   4  10  -7    1.60    0.36
   4  10  -7    1.73    0.37
   4  10  -6    5.88    0.55
   4  10  -6    4.91    0.47
   4  10  -5    1.50    0.31
   4  10  -4   19.84    1.29
   4  10  -3   11.25    0.77
   4  10  -3   10.73    0.81
   4  10  -2    2.39    0.30
  -4 -10   2    1.92    0.33
   4  10  -2    2.03    0.36
  -4 -10   1    2.58    0.36
   4  10  -1    3.89    0.35
  -4 -10   1    3.61    0.42
   4  10   0    0.28    0.26
  -4 -10   0    0.39    0.24
   4  10   1    3.67    0.40
  -4 -10  -1    3.53    0.35
  -4 -10  -2    1.43    0.25
  -4 -10  -2    1.22    0.38
   4  10   2    1.32    0.26
  -4 -10  -3    2.57    0.36
  -4 -10  -3    3.13    0.29
   4  10   3    2.86    0.28
   4  11 -13    7.66    0.52
   4  11 -13    7.25    0.53
   4  11 -12    1.68    0.30
   4  11 -12    2.28    0.29
   4  11 -12    1.72    0.31
   4  11 -11    2.73    0.37
   4  11 -11    3.13    0.40
   4  11 -11    2.90    0.39
   4  11 -10   -0.06    0.25
   4  11 -10    0.08    0.16
   4  11 -10    0.12    0.31
   4  11 -10    0.13    0.23
  -4 -11   9    0.03    0.23
   4  11  -9    0.32    0.19
   4  11  -9    0.27    0.28
   4  11  -9    0.14    0.23
  -4 -11   8    4.06    0.46
   4  11  -8    4.02    0.38
   4  11  -8    3.42    0.44
   4  11  -8    3.27    0.41
  -4 -11   7    2.39    0.38
   4  11  -7    2.41    0.31
   4  11  -7    1.92    0.36
   4  11  -7    1.86    0.34
   4  11  -6   17.84    1.14
   4  11  -6   17.48    1.15
   4  11  -5    0.43    0.23
   4  11  -5    0.30    0.25
   4  11  -5    0.57    0.25
  -4 -11   4    0.72    0.28
   4  11  -4    0.77    0.24
   4  11  -4    0.64    0.26
  -4 -11   4    0.89    0.30
   4  11  -3    0.06    0.25
   4  11  -3    0.02    0.18
  -4 -11   3   -0.12    0.24
   4  11  -2    0.57    0.26
  -4 -11   2   -0.08    0.21
   4  11  -2    0.62    0.20
  -4 -11   2    0.72    0.27
   4  11  -1    0.27    0.15
  -4 -11   1    0.26    0.22
   4  11   0    0.09    0.22
  -4 -11   0    0.25    0.20
  -4 -11  -1   -0.37    0.30
   4  11   1    0.09    0.20
  -4 -11  -1    0.03    0.13
   4  11   2    0.53    0.14
  -4 -11  -2    0.38    0.21
   4  12 -12    0.32    0.15
   4  12 -12    0.22    0.18
   4  12 -11    1.92    0.25
   4  12 -11    1.44    0.27
   4  12 -11    1.97    0.30
   4  12 -11    2.55    0.33
   4  12 -10    0.34    0.16
   4  12 -10    0.65    0.29
   4  12 -10    0.18    0.21
   4  12  -9    0.56    0.21
   4  12  -9    0.36    0.17
   4  12  -8   -0.06    0.18
  -4 -12   8    0.03    0.23
   4  12  -8   -0.07    0.18
  -4 -12   8   -0.13    0.21
  -4 -12   7    1.67    0.32
   4  12  -7    1.49    0.24
  -4 -12   7    1.22    0.30
   4  12  -7    0.83    0.22
   4  12  -6    8.85    0.64
   4  12  -6    7.98    0.64
  -4 -12   5    1.05    0.29
   4  12  -5    1.00    0.23
   4  12  -5    0.77    0.25
  -4 -12   5    1.00    0.28
  -4 -12   4   -0.03    0.22
   4  12  -4    0.29    0.19
   4  12  -4    0.02    0.22
  -4 -12   4    0.31    0.26
   4  12  -3   -0.02    0.20
   4  12  -3    0.08    0.16
   4  12  -2   -0.06    0.20
   4  12  -2   -0.04    0.13
  -4 -12   2    0.10    0.21
   4  12  -1    1.08    0.23
  -4 -12   1    0.77    0.21
   4  12   0    0.58    0.16
  -4 -12   0    0.86    0.24
   4  13 -11    0.73    0.19
   4  13 -10    1.78    0.27
   4  13 -10    1.05    0.14
   4  13 -10    1.41    0.26
   4  13  -9    0.13    0.14
   4  13  -9    0.40    0.26
   4  13  -8    0.15    0.16
  -4 -13   8    0.03    0.17
  -4 -13   7    1.20    0.24
   4  13  -6    0.06    0.14
   4  13  -6   -0.01    0.15
  -4 -13   6    0.14    0.21
   4  13  -5    1.41    0.20
   4  13  -5    0.96    0.20
   4  13  -4   -0.01    0.13
   4  13  -4    0.05    0.15
  -4 -13   4    0.15    0.19
   4  13  -3    0.51    0.17
   4  13  -3    0.26    0.10
  -4 -13   3    0.34    0.19
   4  13  -2    0.08    0.11
  -4 -13   2    0.06    0.12
   4  14  -8   -0.03    0.08
   4  14  -7    0.16    0.17
   4  14  -6    0.35    0.10
  -5  14  -4   -0.25    0.17
  -5  14  -5   -0.12    0.17
  -5  14  -6    0.14    0.15
  -5  14  -7    0.48    0.16
  -5  14  -7   -0.03    0.17
  -5  14  -8    0.14    0.14
   5 -13   0    0.02    0.16
   5 -13   1    0.06    0.19
  -5  13  -1   -0.08    0.15
   5 -13   2    0.06    0.19
  -5  13  -2    0.16    0.18
  -5  13  -2    0.07    0.18
   5 -13   3   -0.22    0.20
  -5  13  -3   -0.16    0.21
   5 -13   4    0.02    0.20
  -5  13  -4    0.08    0.22
  -5  13  -5    0.68    0.27
  -5  13  -6    0.05    0.24
  -5  13  -6    0.09    0.20
  -5  13  -7    1.72    0.31
  -5  13  -7    2.14    0.30
  -5  13  -8    1.05    0.26
  -5  13  -8    0.99    0.26
  -5  13  -9    0.02    0.21
  -5  13  -9   -0.12    0.20
  -5  13  -9   -0.09    0.20
  -5  13  -9    0.13    0.16
  -5  13 -10   -0.09    0.16
  -5  13 -10   -0.02    0.17
  -5  13 -10    0.13    0.18
   5 -12  -2    0.61    0.16
   5 -12  -2    0.56    0.16
   5 -12  -1    0.92    0.22
   5 -12  -1    0.49    0.21
   5 -12   0   -0.02    0.23
   5 -12   0    0.04    0.20
   5 -12   1    0.49    0.27
   5 -12   1    0.33    0.21
   5 -12   2    0.25    0.25
   5 -12   3    0.11    0.25
  -5  12  -4    3.90    0.48
   5 -12   4    3.78    0.42
   5 -12   5    2.10    0.31
  -5  12  -5    2.58    0.42
  -5  12  -5    1.95    0.34
  -5  12  -6    0.37    0.32
  -5  12  -6    1.04    0.32
  -5  12  -7    0.14    0.31
  -5  12  -7   -0.13    0.30
  -5  12  -8    1.13    0.33
  -5  12  -8    1.09    0.33
  -5  12  -9    0.71    0.26
  -5  12  -9    1.19    0.30
  -5  12  -9    0.86    0.22
  -5  12  -9    0.86    0.29
  -5  12 -10    0.39    0.22
  -5  12 -10    0.03    0.23
  -5  12 -10    0.36    0.25
  -5  12 -11    0.16    0.15
  -5  12 -11    0.57    0.22
  -5  12 -11    0.18    0.20
   5 -11  -3    0.10    0.18
   5 -11  -3   -0.24    0.20
   5 -11  -3   -0.04    0.20
   5 -11  -3   -0.20    0.15
   5 -11  -2    1.08    0.27
   5 -11  -2    1.38    0.28
   5 -11  -1   -0.14    0.26
   5 -11  -1    0.03    0.26
   5 -11   0    0.06    0.26
   5 -11   0    0.14    0.26
   5 -11   1    0.39    0.30
  -5  11  -1    0.15    0.19
   5 -11   1    0.46    0.26
   5 -11   2    1.88    0.37
  -5  11  -2    2.45    0.31
   5 -11   3    3.10    0.41
  -5  11  -3    2.37    0.33
  -5  11  -4    7.09    0.56
   5 -11   4    6.64    0.60
   5 -11   5    2.42    0.35
  -5  11  -5    3.62    0.36
  -5  11  -5    2.26    0.44
  -5  11  -5    2.50    0.42
  -5  11  -6    0.47    0.24
  -5  11  -6    0.73    0.38
  -5  11  -6    0.31    0.34
  -5  11  -7    0.19    0.21
  -5  11  -7    0.45    0.34
  -5  11  -7    0.47    0.34
  -5  11  -7   -0.23    0.34
  -5  11  -8   -0.04    0.31
  -5  11  -8    0.04    0.31
  -5  11  -9    1.65    0.27
  -5  11  -9    1.83    0.37
  -5  11  -9    2.07    0.36
  -5  11  -9    1.34    0.27
  -5  11  -9    1.89    0.39
  -5  11 -10    4.47    0.42
  -5  11 -10    6.09    0.56
  -5  11 -10    4.54    0.46
  -5  11 -10    5.29    0.53
  -5  11 -11    0.37    0.19
  -5  11 -11    0.24    0.18
  -5  11 -11    0.75    0.28
  -5  11 -12    5.06    0.42
   5 -10  -5    0.23    0.16
   5 -10  -4    0.05    0.17
   5 -10  -4    0.14    0.23
   5 -10  -4    0.14    0.22
   5 -10  -4    0.25    0.20
   5 -10  -3   -0.03    0.23
   5 -10  -3   -0.17    0.24
   5 -10  -3    0.11    0.25
   5 -10  -2   -0.03    0.29
   5 -10  -2    0.70    0.32
   5 -10  -2    0.72    0.28
   5 -10  -1    0.90    0.33
   5 -10   0    0.39    0.31
  -5  10   0    0.30    0.19
   5 -10   0    0.87    0.32
  -5  10  -1   17.08    1.03
   5 -10   1   14.31    1.09
   5 -10   1   15.83    1.12
  -5  10  -2   16.08    1.01
   5 -10   2   15.20    1.06
   5 -10   2   15.21    1.09
   5 -10   3    0.49    0.27
  -5  10  -3    0.20    0.23
   5 -10   4    0.71    0.30
  -5  10  -5    1.80    0.31
  -5  10  -5    1.95    0.44
  -5  10  -6    0.73    0.24
  -5  10  -6    0.76    0.25
  -5  10  -6    0.45    0.35
  -5  10  -6    0.41    0.35
  -5  10  -7    7.92    0.60
  -5  10  -7    7.27    0.62
  -5  10  -7    8.42    0.78
  -5  10  -7    9.10    0.79
  -5  10  -7    8.55    0.76
  -5  10  -8    0.58    0.21
  -5  10  -8    0.43    0.27
  -5  10  -8    0.68    0.38
  -5  10  -9    0.24    0.24
  -5  10  -9    0.44    0.31
  -5  10  -9   -0.04    0.32
  -5  10 -10    1.49    0.30
  -5  10 -10    1.58    0.32
  -5  10 -10    2.20    0.40
  -5  10 -11    0.17    0.24
  -5  10 -11   -0.02    0.19
  -5  10 -12    9.59    0.70
  -5  10 -12   11.06    0.75
  -5  10 -12   10.84    0.74
  -5  10 -13    0.66    0.19
  -5  10 -13    0.80    0.16
   5  -9  -6    0.18    0.18
   5  -9  -6    0.08    0.16
   5  -9  -5   -0.27    0.20
   5  -9  -5   -0.45    0.25
   5  -9  -5    0.15    0.26
   5  -9  -4    2.10    0.35
   5  -9  -4    2.22    0.44
   5  -9  -4    1.62    0.28
   5  -9  -4    1.93    0.34
   5  -9  -3    0.41    0.30
   5  -9  -3    0.38    0.32
   5  -9  -3    0.93    0.30
   5  -9  -2    0.33    0.31
   5  -9  -2    0.36    0.30
   5  -9  -2    0.04    0.27
  -5   9   1    9.55    0.66
   5  -9  -1    9.66    0.78
   5  -9   0    1.84    0.39
  -5   9   0    2.54    0.31
  -5   9   0    1.94    0.35
  -5   9  -1   24.03    1.70
  -5   9  -1   30.29    1.66
   5  -9   1   28.42    1.73
   5  -9   1   26.34    1.73
  -5   9  -1   28.17    2.09
  -5   9  -1   25.91    2.56
  -5   9  -2   16.06    0.98
  -5   9  -2   13.16    1.32
  -5   9  -2   14.28    1.81
   5  -9   2   14.35    1.04
   5  -9   3    1.02    0.31
  -5   9  -3    0.88    0.46
  -5   9  -3    1.43    0.26
  -5   9  -4   11.83    0.80
  -5   9  -4   12.39    1.19
   5  -9   4   11.15    0.85
  -5   9  -5    2.43    0.55
  -5   9  -5    3.01    0.36
  -5   9  -5    2.81    0.33
  -5   9  -6    4.78    0.80
  -5   9  -6    6.16    0.53
  -5   9  -6    6.67    0.49
  -5   9  -6    5.02    0.62
  -5   9  -6    5.76    0.63
  -5   9  -7   86.09    4.77
  -5   9  -7   77.48    4.81
  -5   9  -7   89.00    4.98
  -5   9  -7   91.37    4.95
  -5   9  -8    6.84    0.53
  -5   9  -8    7.09    0.71
  -5   9  -8    8.16    0.63
  -5   9  -8    7.99    0.74
  -5   9  -9    0.52    0.29
  -5   9  -9    0.31    0.29
  -5   9  -9    0.04    0.32
  -5   9  -9    0.50    0.38
  -5   9 -10   -0.09    0.25
  -5   9 -10    0.15    0.26
  -5   9 -10   -0.08    0.34
  -5   9 -11    0.03    0.25
  -5   9 -11    0.44    0.23
  -5   9 -11   -0.07    0.27
  -5   9 -11   -0.06    0.29
  -5   9 -11   -0.13    0.23
  -5   9 -12    5.16    0.46
  -5   9 -12    5.01    0.48
  -5   9 -12    4.54    0.42
  -5   9 -12    5.01    0.47
  -5   9 -13    1.11    0.22
  -5   9 -13    1.31    0.23
  -5   9 -13    0.88    0.19
   5  -8  -7    1.34    0.24
   5  -8  -7    1.40    0.22
   5  -8  -6    0.23    0.28
   5  -8  -6    0.18    0.23
   5  -8  -5    1.54    0.32
   5  -8  -5    1.89    0.42
   5  -8  -5    2.11    0.39
   5  -8  -5    1.29    0.26
   5  -8  -5    1.49    0.32
   5  -8  -4    0.93    0.32
   5  -8  -4    0.53    0.26
   5  -8  -3   -0.08    0.29
   5  -8  -3   -0.04    0.31
   5  -8  -3    0.12    0.26
   5  -8  -2   15.90    1.14
  -5   8   1   32.70    1.74
  -5   8   1   25.45    1.78
  -5   8   1   27.94    2.11
  -5   8   1   30.51    2.68
  -5   8   0   10.93    0.67
  -5   8   0    8.00    0.70
  -5   8   0    9.03    0.96
  -5   8   0    9.64    1.39
   5  -8   0    8.49    0.73
   5  -8   1    0.22    0.25
  -5   8  -1    0.46    0.37
  -5   8  -1    0.06    0.24
  -5   8  -1   -0.17    0.64
  -5   8  -2    6.38    0.79
  -5   8  -2    6.18    0.56
   5  -8   2    6.26    0.56
   5  -8   3    0.61    0.23
  -5   8  -4    0.08    0.34
  -5   8  -4    0.19    0.22
  -5   8  -5    0.77    0.38
  -5   8  -5    0.49    0.23
  -5   8  -6    0.55    0.38
  -5   8  -6    0.63    0.26
  -5   8  -6    0.70    0.22
  -5   8  -6    1.04    0.37
  -5   8  -6    0.43    0.33
  -5   8  -6    0.91    0.36
  -5   8  -7   96.82    5.47
  -5   8  -7   94.74    5.39
  -5   8  -7   85.50    5.75
  -5   8  -7  107.80    5.64
  -5   8  -7   99.88    5.57
  -5   8  -7   94.52    5.55
  -5   8  -8    9.70    0.77
  -5   8  -8    9.57    0.84
  -5   8  -8    9.93    0.84
  -5   8  -9    1.62    0.32
  -5   8  -9    1.40    0.33
  -5   8  -9    1.53    0.36
  -5   8  -9    2.44    0.44
  -5   8  -9    1.56    0.33
  -5   8 -10    3.34    0.47
  -5   8 -10    2.62    0.39
  -5   8 -10    2.60    0.39
  -5   8 -10    3.58    0.48
  -5   8 -10    2.10    0.34
  -5   8 -10    2.94    0.42
  -5   8 -11    4.63    0.48
  -5   8 -11    3.94    0.41
  -5   8 -11    3.52    0.49
  -5   8 -11    4.35    0.49
  -5   8 -11    3.99    0.44
  -5   8 -12    0.03    0.26
  -5   8 -12   -0.20    0.27
  -5   8 -12   -0.03    0.26
  -5   8 -13    0.08    0.20
  -5   8 -13    0.06    0.20
  -5   8 -13    0.21    0.16
   5  -7  -8    0.24    0.15
   5  -7  -8    0.28    0.18
   5  -7  -8    0.22    0.13
   5  -7  -7    0.36    0.28
   5  -7  -7   -0.05    0.25
   5  -7  -6    0.13    0.34
   5  -7  -6    0.02    0.22
   5  -7  -6   -0.27    0.28
   5  -7  -6    0.13    0.22
   5  -7  -5    0.78    0.30
   5  -7  -5    1.64    0.33
   5  -7  -5    1.21    0.44
   5  -7  -5    0.91    0.33
   5  -7  -5    1.44    0.37
   5  -7  -4   11.70    0.90
   5  -7  -4   11.28    0.89
   5  -7  -3    0.67    0.33
   5  -7  -3    0.31    0.57
   5  -7  -3    0.80    0.32
   5  -7  -2    9.80    1.18
  -5   7   2   10.17    0.65
   5  -7  -2    8.43    1.28
   5  -7  -2    8.65    0.75
  -5   7   1    7.70    0.62
  -5   7   1    8.10    0.85
   5  -7   0    3.46    0.40
  -5   7   0    2.78    0.50
  -5   7   0    2.65    0.34
  -5   7   0    2.27    0.71
   5  -7   1    6.51    0.53
  -5   7  -1    5.44    0.49
  -5   7  -1    6.23    1.04
  -5   7  -1    6.43    0.72
   5  -7   1    4.90    0.50
  -5   7  -2   12.82    1.09
  -5   7  -2   12.73    1.46
   5  -7   2   11.76    0.84
   5  -7   3    0.28    0.21
  -5   7  -4   42.39    2.76
  -5   7  -5   17.64    1.10
  -5   7  -5   17.81    1.19
  -5   7  -5   15.65    1.14
  -5   7  -5   15.66    1.31
  -5   7  -6    2.23    0.46
  -5   7  -6    2.43    0.41
  -5   7  -6    2.26    0.33
  -5   7  -6    2.78    0.44
  -5   7  -6    2.49    0.40
  -5   7  -7    6.63    0.61
  -5   7  -7    7.76    0.52
  -5   7  -7    7.22    0.69
  -5   7  -7    8.07    0.70
  -5   7  -7    6.88    0.77
  -5   7  -8    3.95    0.55
  -5   7  -8    5.18    0.51
  -5   7  -8    5.08    0.57
  -5   7  -8    4.61    0.54
  -5   7  -8    5.25    0.48
  -5   7  -8    4.86    0.47
  -5   7  -9    5.65    0.55
  -5   7  -9    5.09    0.55
  -5   7  -9    5.61    0.56
  -5   7  -9    6.17    0.62
  -5   7  -9    6.18    0.54
  -5   7  -9    4.91    0.55
  -5   7 -10   -0.06    0.27
  -5   7 -10    0.13    0.30
  -5   7 -10    0.21    0.27
  -5   7 -10    0.36    0.32
  -5   7 -10    0.03    0.22
  -5   7 -10   -0.03    0.26
  -5   7 -10    0.04    0.32
  -5   7 -10   -0.07    0.29
  -5   7 -11    2.07    0.39
  -5   7 -11    1.76    0.30
  -5   7 -11    1.44    0.37
  -5   7 -11    2.02    0.35
  -5   7 -11    1.92    0.37
  -5   7 -12    4.61    0.48
  -5   7 -12    5.35    0.43
  -5   7 -12    4.63    0.46
  -5   7 -13    1.18    0.27
  -5   7 -13    1.26    0.26
   5  -6  -9    0.12    0.16
   5  -6  -9    0.24    0.21
   5  -6  -8    1.43    0.33
   5  -6  -8    1.88    0.29
   5  -6  -7    0.17    0.33
   5  -6  -7    0.02    0.20
   5  -6  -7   -0.06    0.27
   5  -6  -6   -0.03    0.26
   5  -6  -6   -0.15    0.39
   5  -6  -6    0.05    0.20
   5  -6  -6   -0.15    0.31
   5  -6  -6   -0.31    0.26
   5  -6  -5   14.82    1.13
   5  -6  -5   12.49    0.84
   5  -6  -5   12.14    0.97
   5  -6  -5   12.45    0.94
   5  -6  -5   13.25    0.98
   5  -6  -5   12.37    0.95
   5  -6  -4   48.59    2.73
   5  -6  -4   49.24    2.85
   5  -6  -4   44.14    2.83
   5  -6  -3   53.94    2.98
   5  -6  -3   49.58    3.09
  -5   6   2    5.28    0.68
   5  -6  -2    7.14    0.48
   5  -6  -2    6.76    0.97
   5  -6  -2    6.89    0.60
   5  -6  -1    0.57    0.25
  -5   6   1    0.72    0.32
   5  -6  -1    0.36    0.14
  -5   6   1    0.20    0.18
   5  -6   0    0.13    0.21
  -5   6   0    0.06    0.28
  -5   6   0   -0.12    0.50
  -5   6  -1    0.83    0.33
  -5   6  -1    0.72    0.50
  -5   6  -2   69.68    4.72
  -5   6  -2   75.57    4.42
  -5   6  -3   14.44    1.15
  -5   6  -4    3.85    0.55
  -5   6  -5   14.17    0.92
  -5   6  -5   12.73    0.97
  -5   6  -5   14.68    0.97
  -5   6  -5   13.25    1.10
  -5   6  -6   20.62    1.41
  -5   6  -6   21.22    1.36
   5  -6   6   24.32    1.92
  -5   6  -6   22.76    1.44
  -5   6  -6   22.42    1.56
  -5   6  -7    2.40    0.34
  -5   6  -7    2.20    0.35
  -5   6  -7    2.08    0.36
  -5   6  -7    2.75    0.42
  -5   6  -7    2.79    0.42
  -5   6  -8   99.65    5.20
  -5   6  -8   91.87    5.22
  -5   6  -8   93.23    5.27
  -5   6  -8   84.61    5.19
  -5   6  -8   87.82    5.18
  -5   6  -9   34.42    2.23
  -5   6  -9   38.69    2.27
  -5   6  -9   38.60    2.31
  -5   6  -9   35.35    2.24
  -5   6  -9   38.16    2.31
  -5   6  -9   37.40    2.24
  -5   6 -10    3.80    0.49
  -5   6 -10    3.30    0.49
  -5   6 -10    3.59    0.43
  -5   6 -10    4.76    0.52
  -5   6 -10    3.75    0.44
  -5   6 -10    3.84    0.47
  -5   6 -10    4.02    0.50
  -5   6 -11    0.36    0.29
  -5   6 -11    0.03    0.29
  -5   6 -11    0.61    0.33
  -5   6 -11    0.10    0.18
  -5   6 -11    0.10    0.28
  -5   6 -11    1.05    0.30
  -5   6 -11    0.17    0.24
  -5   6 -11    0.31    0.30
  -5   6 -12    0.38    0.29
  -5   6 -12    0.14    0.25
  -5   6 -12    0.15    0.26
  -5   6 -12    0.02    0.21
  -5   6 -12   -0.07    0.22
  -5   6 -13    1.90    0.28
  -5   6 -13    1.72    0.26
  -5   6 -13    1.90    0.25
   5  -5 -10    0.28    0.20
   5  -5  -9    0.29    0.26
   5  -5  -9    0.15    0.18
   5  -5  -9    0.15    0.21
   5  -5  -8    2.10    0.43
   5  -5  -8    2.99    0.34
   5  -5  -8    2.92    0.39
   5  -5  -7   16.00    1.03
   5  -5  -7   15.41    1.10
   5  -5  -7   14.64    1.17
   5  -5  -6    2.06    0.35
   5  -5  -6    1.82    0.37
   5  -5  -6    2.01    0.49
   5  -5  -6    1.37    0.32
   5  -5  -6    2.03    0.29
   5  -5  -6    1.67    0.38
   5  -5  -6    1.70    0.28
   5  -5  -5    7.92    0.70
   5  -5  -5    7.08    0.78
   5  -5  -5    7.71    0.55
   5  -5  -5    6.79    0.67
   5  -5  -5    7.89    0.69
   5  -5  -5    7.62    0.64
   5  -5  -5    6.81    0.64
   5  -5  -4   40.27    2.24
   5  -5  -4   37.06    2.34
   5  -5  -4   34.37    2.32
   5  -5  -4   37.32    2.93
   5  -5  -4   40.59    2.33
   5  -5  -4   39.69    2.34
   5  -5  -3   31.00    1.67
   5  -5  -3   23.98    2.10
   5  -5  -3   27.92    2.29
  -5   5   3   26.87    1.88
   5  -5  -3   26.83    1.76
   5  -5  -2   10.75    0.67
   5  -5  -2    8.55    1.07
  -5   5   2    9.79    0.88
   5  -5  -2    9.67    0.74
  -5   5   1   11.63    0.96
  -5   5   0    4.32    0.76
  -5   5   0    4.96    0.58
  -5   5  -1  127.18    7.27
  -5   5  -1  124.77    7.53
  -5   5  -2   21.34    1.72
  -5   5  -3   45.91    2.86
  -5   5  -4    3.21    0.48
  -5   5  -5    1.12    0.31
   5  -5   5    1.12    0.52
   5  -5   6   97.88    5.82
  -5   5  -6   93.28    5.33
  -5   5  -6   94.23    5.36
  -5   5  -6   92.65    5.35
  -5   5  -6   91.96    5.47
  -5   5  -6  103.61    5.33
  -5   5  -6   87.94    5.28
  -5   5  -7    1.63    0.30
  -5   5  -7    1.24    0.30
  -5   5  -7    1.02    0.29
  -5   5  -7    0.98    0.32
  -5   5  -7    1.79    0.36
  -5   5  -7    1.35    0.28
  -5   5  -8  207.18   12.29
  -5   5  -8  225.93   12.31
  -5   5  -8  217.89   12.34
  -5   5  -8  227.89   12.32
  -5   5  -8  220.16   12.35
  -5   5  -8  218.99   12.89
  -5   5  -8  230.00   12.32
  -5   5  -9   35.12    2.19
  -5   5  -9   34.48    2.19
  -5   5  -9   37.89    2.20
  -5   5  -9   33.39    2.23
  -5   5  -9   36.12    2.21
  -5   5  -9   36.04    2.22
  -5   5  -9   39.65    2.26
  -5   5  -9   35.82    2.20
  -5   5 -10    4.42    0.50
  -5   5 -10    4.23    0.50
  -5   5 -10    3.83    0.49
  -5   5 -10    3.18    0.50
  -5   5 -10    3.98    0.41
  -5   5 -10    3.77    0.48
  -5   5 -10    4.06    0.50
  -5   5 -10    4.94    0.52
  -5   5 -11    4.26    0.52
  -5   5 -11    5.42    0.53
  -5   5 -11    5.20    0.51
  -5   5 -11    4.42    0.50
  -5   5 -11    4.28    0.48
  -5   5 -11    5.34    0.52
  -5   5 -12    0.30    0.22
  -5   5 -12    0.08    0.27
  -5   5 -12    0.29    0.24
  -5   5 -12    0.05    0.23
  -5   5 -12   -0.10    0.24
  -5   5 -12    0.18    0.23
  -5   5 -13    0.09    0.20
  -5   5 -13    0.07    0.17
   5  -4 -11    2.69    0.28
   5  -4 -10    1.81    0.31
   5  -4 -10    1.89    0.26
   5  -4  -9    0.30    0.31
   5  -4  -9    0.12    0.22
   5  -4  -9    0.28    0.22
   5  -4  -8    1.04    0.27
   5  -4  -8    0.95    0.30
   5  -4  -8    1.21    0.41
   5  -4  -8    0.85    0.23
   5  -4  -7   38.06    2.39
   5  -4  -7   41.16    2.36
   5  -4  -7   40.31    2.45
   5  -4  -7   42.27    2.46
   5  -4  -7   39.79    2.36
   5  -4  -7   39.08    2.52
   5  -4  -6   66.92    3.86
   5  -4  -6   66.43    3.77
   5  -4  -6   63.23    3.86
   5  -4  -6   63.83    3.79
   5  -4  -6   73.09    3.99
   5  -4  -6   65.15    3.87
   5  -4  -6   63.93    4.52
   5  -4  -6   68.38    3.84
   5  -4  -6   66.20    3.84
   5  -4  -5    3.82    0.44
   5  -4  -5    3.43    0.46
   5  -4  -5    4.43    0.56
   5  -4  -5    3.19    0.34
   5  -4  -5    4.35    0.47
   5  -4  -5    2.90    0.75
   5  -4  -5    2.63    0.37
   5  -4  -4    2.93    0.37
   5  -4  -4    2.80    0.29
   5  -4  -4    2.08    0.36
   5  -4  -4    2.46    0.33
   5  -4  -3    9.59    0.61
   5  -4  -3    8.45    0.98
   5  -4  -3    9.76    1.14
   5  -4  -3    8.82    0.65
  -5   4   3    7.42    0.75
  -5   4   2    0.05    0.27
   5  -4  -2   -0.09    0.38
  -5   4   1    0.85    0.34
   5  -4  -1    2.19    0.61
  -5   4   0    9.55    0.97
  -5   4   0    9.30    0.82
  -5   4  -1   56.89    3.39
  -5   4  -1   49.92    3.20
  -5   4  -2   36.45    2.32
   5  -4   3  139.61    8.43
  -5   4  -3  146.45    8.21
  -5   4  -4    0.05    0.26
   5  -4   4    0.27    0.41
  -5   4  -5    1.19    0.34
   5  -4   5    0.91    0.47
  -5   4  -6   92.35    5.46
  -5   4  -6   99.62    5.43
  -5   4  -6   94.12    5.44
  -5   4  -6   94.84    5.47
  -5   4  -6  100.66    5.56
  -5   4  -6  101.34    5.46
  -5   4  -6   92.39    5.42
  -5   4  -7    8.67    0.66
  -5   4  -7    7.95    0.65
  -5   4  -7    7.70    0.67
  -5   4  -7    8.18    0.70
  -5   4  -7    8.60    0.74
  -5   4  -7    7.43    0.66
  -5   4  -8  214.38   12.40
  -5   4  -8  215.69   12.30
  -5   4  -8  231.31   12.45
  -5   4  -8  224.14   12.40
  -5   4  -8  222.76   12.40
  -5   4  -8  234.71   12.45
  -5   4  -8  225.68   12.46
  -5   4  -8  227.28   12.43
  -5   4  -8  228.30   13.00
  -5   4  -8  220.84   12.42
  -5   4  -9    1.78    0.24
  -5   4  -9    0.61    0.32
  -5   4  -9    1.42    0.36
  -5   4  -9    1.68    0.44
  -5   4  -9    1.52    0.38
  -5   4  -9    1.58    0.35
  -5   4  -9    1.69    0.38
  -5   4  -9    1.11    0.35
  -5   4  -9    1.65    0.37
  -5   4 -10    1.47    0.37
  -5   4 -10    1.27    0.34
  -5   4 -10    0.81    0.26
  -5   4 -10    1.37    0.37
  -5   4 -10    1.24    0.34
  -5   4 -10    1.20    0.34
  -5   4 -10    1.52    0.36
  -5   4 -11   13.92    1.06
  -5   4 -11   17.52    1.10
  -5   4 -11   15.91    1.10
  -5   4 -11   15.47    1.06
  -5   4 -12    0.24    0.25
  -5   4 -12    0.77    0.25
  -5   4 -12    0.92    0.27
  -5   4 -12    0.56    0.24
  -5   4 -13    0.72    0.18
  -5   4 -13    0.64    0.19
   5  -3 -11    0.33    0.19
   5  -3 -11   -0.16    0.14
   5  -3 -10    0.03    0.27
   5  -3 -10    0.02    0.23
   5  -3 -10   -0.23    0.25
   5  -3  -9    0.68    0.26
   5  -3  -9    0.83    0.26
   5  -3  -9    1.04    0.39
   5  -3  -9    0.61    0.22
   5  -3  -8    0.43    0.38
   5  -3  -8    0.05    0.22
   5  -3  -8    0.04    0.34
   5  -3  -8    0.07    0.28
   5  -3  -8   -0.45    0.23
   5  -3  -7   63.21    3.66
   5  -3  -7   68.84    3.62
   5  -3  -7   56.78    3.67
   5  -3  -7   60.67    3.68
   5  -3  -7   67.45    3.79
   5  -3  -7   61.53    3.63
   5  -3  -6   54.90    3.00
   5  -3  -6   44.82    2.97
   5  -3  -6   49.72    2.99
   5  -3  -6   52.30    3.63
   5  -3  -6   55.39    2.91
   5  -3  -6   46.65    2.95
   5  -3  -5    0.43    0.28
   5  -3  -5    0.59    0.19
   5  -3  -5    0.31    0.27
   5  -3  -5    0.72    0.27
   5  -3  -5    0.62    0.46
   5  -3  -5    0.79    0.22
   5  -3  -5    0.59    0.26
   5  -3  -4   46.36    2.55
   5  -3  -4   38.43    2.86
   5  -3  -4   44.05    3.10
  -5   3   4   43.74    2.71
  -5   3   3   20.30    1.42
   5  -3  -3   21.31    1.62
   5  -3  -3   20.31    1.68
  -5   3   2    2.94    0.45
   5  -3  -2    2.33    0.56
  -5   3   1    2.11    0.40
   5  -3  -1    1.50    0.53
  -5   3   0   49.46    3.00
  -5   3   0   46.49    2.94
   5  -3   1   18.04    1.51
  -5   3  -1   19.28    1.40
   5  -3   2   42.35    2.66
  -5   3  -2   36.58    2.44
   5  -3   3   95.94    5.59
  -5   3  -3   89.84    5.36
   5  -3   4   71.08    4.36
  -5   3  -4   69.50    4.14
   5  -3   5   11.11    1.09
  -5   3  -5   12.64    0.94
  -5   3  -6   75.68    4.63
  -5   3  -6   81.72    4.63
  -5   3  -6   82.40    4.66
  -5   3  -6   89.31    4.69
  -5   3  -7   36.92    2.36
  -5   3  -7   40.80    2.43
  -5   3  -7   39.94    2.36
  -5   3  -7   40.56    2.38
  -5   3  -7   37.24    2.38
  -5   3  -7   41.80    2.41
  -5   3  -7   38.64    2.39
  -5   3  -7   38.27    2.40
  -5   3  -7   39.38    2.39
  -5   3  -7   45.95    2.43
  -5   3  -8  113.09    6.33
  -5   3  -8  113.31    6.45
  -5   3  -8  114.00    6.48
  -5   3  -8  113.93    6.42
  -5   3  -8  116.18    6.46
  -5   3  -8  110.39    6.44
  -5   3  -8  115.99    6.47
  -5   3  -8  107.97    6.95
  -5   3  -8  114.28    6.46
  -5   3  -9   65.96    3.87
  -5   3  -9   71.23    3.98
  -5   3  -9   66.48    3.99
  -5   3  -9   70.38    3.94
  -5   3  -9   69.97    4.03
  -5   3  -9   67.34    3.99
  -5   3  -9   71.12    4.02
  -5   3 -10    0.75    0.20
  -5   3 -10    0.63    0.30
  -5   3 -10    1.04    0.32
  -5   3 -10    0.51    0.23
  -5   3 -10    0.57    0.34
  -5   3 -10    0.72    0.30
  -5   3 -10    1.01    0.31
  -5   3 -11    4.29    0.47
  -5   3 -11    4.07    0.44
  -5   3 -11    4.64    0.51
  -5   3 -11    4.57    0.48
  -5   3 -12    0.81    0.25
  -5   3 -12    1.20    0.27
  -5   3 -12    1.34    0.26
  -5   3 -12    1.26    0.27
  -5   3 -13    0.15    0.14
   5  -2 -12    4.69    0.38
   5  -2 -11    2.66    0.36
   5  -2 -11    2.90    0.43
   5  -2 -11    2.51    0.32
   5  -2 -10    3.30    0.47
   5  -2 -10    4.62    0.43
   5  -2 -10    4.10    0.46
   5  -2 -10    3.32    0.38
   5  -2  -9    4.12    0.56
   5  -2  -9    5.21    0.47
   5  -2  -9    4.66    0.46
   5  -2  -8    1.54    0.42
   5  -2  -8    1.33    0.27
   5  -2  -8    1.84    0.38
   5  -2  -8    0.92    0.28
   5  -2  -8    1.25    0.33
   5  -2  -7   -0.25    0.24
   5  -2  -7    0.09    0.32
   5  -2  -7    0.19    0.21
   5  -2  -7   -0.10    0.28
   5  -2  -7    0.10    0.28
   5  -2  -7   -0.08    0.22
   5  -2  -6   10.91    0.73
   5  -2  -6    9.09    0.62
   5  -2  -6    7.76    0.68
   5  -2  -6    7.37    0.68
   5  -2  -6    8.79    1.16
   5  -2  -6    8.58    0.67
   5  -2  -5    3.31    0.32
   5  -2  -5    3.05    0.69
   5  -2  -4   36.93    2.42
   5  -2  -4   37.71    2.55
  -5   2   4   34.36    2.25
   5  -2  -3   84.44    4.94
   5  -2  -3   82.68    4.97
  -5   2   3   78.50    4.76
   5  -2  -2   50.12    3.04
  -5   2   2   43.99    2.86
   5  -2  -1   22.14    1.70
  -5   2   1   22.49    1.34
  -5   2   1   23.82    1.54
  -5   2   1   22.17    1.57
  -5   2   0  174.88    9.38
  -5   2   0  156.37    9.53
   5  -2   1    7.31    0.87
  -5   2  -1    7.57    0.53
   5  -2   2  221.69   12.75
  -5   2  -2  226.26   12.61
   5  -2   3    7.73    0.85
  -5   2  -3    7.60    0.72
   5  -2   4   84.91    4.99
  -5   2  -4   80.85    4.82
  -5   2  -5   11.92    0.83
  -5   2  -5    9.45    0.82
  -5   2  -6    0.52    0.32
  -5   2  -6    0.69    0.22
  -5   2  -6    0.35    0.25
  -5   2  -6    0.13    0.25
  -5   2  -6    0.31    0.27
  -5   2  -6    0.79    0.26
  -5   2  -7   23.03    1.55
  -5   2  -7   22.37    1.45
  -5   2  -7   21.64    1.47
  -5   2  -7   25.73    1.53
  -5   2  -7   22.09    1.51
  -5   2  -7   24.07    1.92
  -5   2  -7   25.36    1.53
  -5   2  -8  115.97    6.26
  -5   2  -8  114.55    6.28
  -5   2  -8  107.05    6.18
  -5   2  -8  101.87    6.69
  -5   2  -8  110.82    6.20
  -5   2  -8  108.55    6.16
  -5   2  -8  112.01    6.26
  -5   2  -8  111.31    6.22
  -5   2  -8  104.03    6.10
  -5   2  -9  105.67    5.96
  -5   2  -9  112.08    6.15
  -5   2  -9  107.10    6.05
  -5   2  -9  102.14    6.05
  -5   2  -9  102.44    6.00
  -5   2  -9  109.85    6.13
  -5   2  -9  107.23    6.11
  -5   2  -9  111.87    6.09
  -5   2 -10   14.93    1.07
  -5   2 -10   15.37    0.96
  -5   2 -10   14.26    1.05
  -5   2 -10   15.80    1.05
  -5   2 -10   15.15    1.11
  -5   2 -10   16.40    1.12
  -5   2 -11    2.21    0.25
  -5   2 -11    2.28    0.33
  -5   2 -11    3.25    0.42
  -5   2 -11    2.04    0.36
  -5   2 -11    2.66    0.37
  -5   2 -12    3.08    0.36
  -5   2 -12    3.52    0.35
   5  -1 -12   11.07    0.79
   5  -1 -12   12.28    0.85
   5  -1 -12   12.09    0.79
   5  -1 -12   11.46    0.75
   5  -1 -11    7.94    0.69
   5  -1 -11    9.46    0.66
   5  -1 -11    8.11    0.74
   5  -1 -11    7.85    0.65
   5  -1 -10   10.68    0.73
   5  -1 -10    9.50    0.82
   5  -1 -10    8.72    0.77
   5  -1 -10    9.27    0.72
   5  -1  -9    1.57    0.40
   5  -1  -9    1.34    0.32
   5  -1  -8   -0.13    0.30
   5  -1  -8   -0.03    0.28
   5  -1  -8   -0.06    0.25
   5  -1  -8    0.21    0.25
   5  -1  -7   10.02    0.77
   5  -1  -7    9.45    0.78
   5  -1  -7   11.90    0.81
   5  -1  -7   11.02    0.78
   5  -1  -6   38.26    2.32
   5  -1  -6   38.09    2.30
   5  -1  -6   43.73    2.86
   5  -1  -6   39.25    2.32
   5  -1  -5   25.65    1.68
   5  -1  -5   21.09    1.80
  -5   1   5   22.85    1.56
   5  -1  -4   18.56    1.48
   5  -1  -4   19.87    1.44
  -5   1   4   17.33    1.31
   5  -1  -3    8.09    0.86
  -5   1   3    8.67    0.58
   5  -1  -3    8.75    0.89
  -5   1   3    8.67    0.83
   5  -1  -2  121.84    6.73
   5  -1  -2  123.34    7.00
  -5   1   2  116.87    6.64
  -5   1   2  122.75    6.94
   5  -1  -1   50.28    3.08
   5  -1  -1   50.85    3.29
  -5   1   1   54.63    2.94
  -5   1   1   48.61    2.99
  -5   1   1   53.07    3.24
   5  -1   0   51.58    3.26
   5  -1   1  142.95    8.29
  -5   1  -1  142.81    7.95
  -5   1  -1  147.84    8.26
   5  -1   2   38.01    2.50
  -5   1  -2   37.70    2.17
  -5   1  -2   37.64    2.46
   5  -1   3  121.14    6.88
  -5   1  -3  117.01    6.54
  -5   1  -4    1.02    0.34
  -5   1  -4    2.44    0.37
   5  -1   4    2.15    0.46
  -5   1  -5   40.73    2.46
  -5   1  -6   52.66    3.16
  -5   1  -6   52.78    3.07
  -5   1  -6   47.77    3.07
  -5   1  -6   56.85    3.16
  -5   1  -6   53.00    3.48
  -5   1  -6   53.77    3.15
  -5   1  -6   54.95    3.14
  -5   1  -6   56.79    3.14
  -5   1  -7   10.00    1.09
  -5   1  -7    9.75    0.77
  -5   1  -7    8.40    0.77
  -5   1  -7    8.49    0.61
  -5   1  -7    8.48    0.66
  -5   1  -7    7.45    0.65
  -5   1  -7    8.05    0.71
  -5   1  -7    8.90    0.73
  -5   1  -8   46.49    2.72
  -5   1  -8   49.27    2.89
  -5   1  -8   43.49    2.77
  -5   1  -8   47.14    2.77
  -5   1  -8   51.36    2.84
  -5   1  -8   47.37    2.87
  -5   1  -9   64.10    3.62
  -5   1  -9   65.21    3.80
  -5   1  -9   58.09    3.67
  -5   1  -9   65.66    3.66
  -5   1  -9   61.73    3.77
  -5   1  -9   66.23    3.78
  -5   1  -9   66.18    3.72
  -5   1 -10    2.81    0.31
  -5   1 -10    3.01    0.37
  -5   1 -10    3.52    0.46
  -5   1 -10    3.30    0.47
  -5   1 -10    2.93    0.41
  -5   1 -11    0.21    0.14
  -5   1 -11    0.63    0.27
  -5   1 -11    0.27    0.27
  -5   1 -11    0.23    0.24
  -5   1 -12   -0.05    0.18
  -5   1 -12    0.13    0.16
   5   0 -13    9.64    0.62
   5   0 -13    7.45    0.53
   5   0 -12   19.35    1.24
   5   0 -12   19.74    1.29
   5   0 -12   18.41    1.21
   5   0 -12   19.41    1.20
   5   0 -11    9.14    0.73
   5   0 -11    7.58    0.63
   5   0 -11    8.00    0.63
   5   0 -11    8.47    0.76
   5   0 -11    7.73    0.67
   5   0 -10   12.77    0.97
   5   0 -10   13.11    0.86
   5   0 -10   11.23    0.94
   5   0 -10   11.63    0.87
   5   0  -9   33.84    2.12
   5   0  -9   34.26    1.99
   5   0  -9   31.90    2.11
   5   0  -9   33.33    2.04
   5   0  -8    4.82    0.43
   5   0  -8    5.19    0.49
   5   0  -7   10.77    0.73
   5   0  -7    9.63    0.66
   5   0  -7    8.86    0.72
   5   0  -6  144.58    8.02
   5   0  -5  193.51   11.16
   5   0  -5  199.78   11.30
  -5   0   5  197.09   10.86
   5   0  -4   81.44    4.97
   5   0  -4   79.69    4.98
  -5   0   4   85.12    4.68
  -5   0   4   84.00    5.00
  -5   0   3   38.17    2.55
   5   0  -3   40.49    2.45
   5   0  -3   40.02    2.56
   5   0  -3   38.75    2.47
  -5   0   3   38.75    2.25
  -5   0   2  366.66   20.55
   5   0  -2  362.43   20.46
   5   0  -2  353.37   20.54
   5   0  -2  357.84   20.40
  -5   0   2  378.18   20.24
  -5   0   1  720.32   41.99
  -5   0   1  770.94   41.70
  -5   0   0    8.71    0.92
   5   0   0    9.90    0.94
  -5   0   0    9.87    0.66
   5   0   1  284.05   17.09
  -5   0  -1  310.41   16.81
  -5   0  -1  307.78   17.12
  -5   0  -2  283.27   15.07
  -5   0  -2  262.84   14.72
   5   0   2  270.60   15.04
  -5   0  -3    1.68    0.23
  -5   0  -3    1.75    0.33
   5   0   3    1.96    0.46
  -5   0  -4   63.74    3.81
   5   0   4   71.01    4.01
  -5   0  -5  122.35    6.65
  -5   0  -5  107.83    6.58
  -5   0  -5  117.16    6.92
  -5   0  -5  126.28    6.65
  -5   0  -5  117.42    6.62
  -5   0  -6   21.36    1.39
  -5   0  -6   20.67    1.31
  -5   0  -6   20.57    1.40
  -5   0  -6   21.48    1.37
  -5   0  -6   16.31    1.58
  -5   0  -6   19.92    1.34
  -5   0  -7   21.45    1.30
  -5   0  -7   22.51    1.45
  -5   0  -7   19.05    1.33
  -5   0  -7   21.66    1.46
  -5   0  -7   21.08    1.40
  -5   0  -8    3.07    0.34
  -5   0  -8    2.31    0.36
  -5   0  -8    3.06    0.49
  -5   0  -9   34.56    2.01
  -5   0  -9   33.65    2.02
  -5   0  -9   34.10    2.16
  -5   0  -9   33.88    2.14
  -5   0  -9   34.22    2.08
  -5   0 -10    1.80    0.27
  -5   0 -10    2.24    0.41
  -5   0 -10    2.12    0.33
  -5   0 -10    2.43    0.39
  -5   0 -11    0.43    0.24
  -5   0 -11    0.14    0.19
   5   1 -13   11.82    0.80
   5   1 -13   10.27    0.71
   5   1 -13   10.83    0.70
   5   1 -12    7.15    0.56
   5   1 -12    7.39    0.67
   5   1 -12    6.64    0.58
   5   1 -12    6.59    0.59
   5   1 -12    6.54    0.57
   5   1 -11    2.45    0.41
   5   1 -11    2.03    0.33
   5   1 -11    3.04    0.49
   5   1 -11    1.91    0.39
   5   1 -11    2.85    0.38
   5   1 -10   52.31    3.13
   5   1 -10   53.99    3.02
   5   1 -10   55.14    3.21
   5   1 -10   51.69    3.13
   5   1 -10   48.63    3.06
   5   1  -9    2.44    0.30
   5   1  -9    1.33    0.39
   5   1  -8    0.08    0.18
   5   1  -7    6.46    0.47
   5   1  -7    6.04    0.53
   5   1  -6   35.27    2.03
  -5  -1   5  215.71   11.89
   5   1  -5  221.23   11.85
  -5  -1   5  204.08   11.53
   5   1  -4    2.13    0.47
   5   1  -4    3.62    0.57
   5   1  -4    3.10    0.46
  -5  -1   4    3.25    0.58
   5   1  -3  609.56   33.29
  -5  -1   3  636.16   33.35
   5   1  -3  612.32   33.29
   5   1  -3  573.86   33.09
   5   1  -2    4.96    0.68
   5   1  -2    5.42    0.68
   5   1  -2    3.99    0.42
  -5  -1   2    5.43    0.73
  -5  -1   2    5.80    0.43
   5   1  -1  148.10    8.51
  -5  -1   0    0.91    0.23
   5   1   0    1.10    0.43
  -5  -1   0    1.19    0.48
   5   1   1    4.79    0.63
  -5  -1  -1    4.63    0.67
  -5  -1  -2  529.75   28.82
   5   1   2  536.81   28.78
  -5  -1  -2  511.30   28.47
  -5  -1  -3   64.12    3.69
  -5  -1  -3   57.47    3.43
  -5  -1  -3   59.24    3.35
  -5  -1  -4    3.70    0.46
  -5  -1  -4    4.15    0.56
  -5  -1  -5   60.33    3.38
  -5  -1  -5   60.45    3.41
  -5  -1  -5   52.32    3.33
  -5  -1  -5   58.68    3.31
  -5  -1  -5   54.01    3.31
  -5  -1  -6    9.28    0.72
  -5  -1  -6    7.13    0.73
  -5  -1  -6    8.71    0.80
  -5  -1  -6    8.38    0.67
  -5  -1  -6    8.78    0.77
  -5  -1  -7   10.39    0.71
  -5  -1  -7    9.37    0.84
  -5  -1  -7   10.02    0.87
  -5  -1  -7    9.93    0.74
  -5  -1  -7    8.56    0.84
  -5  -1  -7   10.36    0.80
  -5  -1  -8    5.16    0.48
  -5  -1  -8    5.61    0.63
  -5  -1  -8    6.30    0.64
  -5  -1  -8    6.18    0.52
  -5  -1  -9   33.34    1.95
  -5  -1  -9   32.44    2.08
  -5  -1  -9   32.94    2.07
  -5  -1  -9   32.57    1.98
  -5  -1 -10    7.80    0.57
  -5  -1 -10    9.07    0.70
  -5  -1 -10    8.19    0.60
  -5  -1 -11    2.75    0.30
  -5  -1 -11    2.39    0.26
   5   2 -14    0.97    0.21
   5   2 -13    0.48    0.29
   5   2 -13    0.85    0.21
   5   2 -13    0.52    0.20
   5   2 -12   -0.29    0.29
   5   2 -12   -0.12    0.20
   5   2 -12   -0.36    0.36
   5   2 -12    0.06    0.24
   5   2 -12   -0.06    0.26
   5   2 -11   17.47    1.19
   5   2 -11   17.44    1.08
   5   2 -11   18.91    1.28
   5   2 -11   14.56    1.13
   5   2 -11   15.79    1.17
   5   2 -10   95.39    5.55
   5   2 -10   96.49    5.44
   5   2 -10   99.27    5.62
   5   2 -10   96.10    5.56
   5   2  -9   18.24    1.12
   5   2  -9   17.39    1.29
   5   2  -9   17.45    1.20
   5   2  -8    2.43    0.31
   5   2  -8    2.31    0.27
   5   2  -8    2.17    0.40
   5   2  -8    3.05    0.33
   5   2  -8    2.61    0.35
   5   2  -7   93.10    5.14
   5   2  -7   90.83    5.08
   5   2  -7   88.30    5.19
  -5  -2   6   45.16    2.91
   5   2  -6   43.87    2.52
  -5  -2   6   44.64    2.55
   5   2  -5  346.63   19.74
  -5  -2   5  355.17   19.72
   5   2  -4  192.35   10.73
  -5  -2   4  183.84   10.71
  -5  -2   4  185.46   10.32
   5   2  -3  281.87   16.11
   5   2  -3  271.20   15.99
  -5  -2   3  284.52   16.09
  -5  -2   3  289.53   15.70
   5   2  -2   41.86    3.07
  -5  -2   2   46.35    3.08
  -5  -2   2   49.21    2.73
  -5  -2   1    0.81    0.23
   5   2  -1    1.01    0.44
   5   2   0   59.29    3.77
  -5  -2   0   61.84    3.88
  -5  -2   0   62.57    3.52
  -5  -2  -1   13.14    1.19
  -5  -2  -1   12.69    0.84
  -5  -2  -2  232.12   13.20
  -5  -2  -3   51.46    3.14
  -5  -2  -3   47.03    2.87
  -5  -2  -3   49.28    2.79
  -5  -2  -4    5.34    0.55
  -5  -2  -4    5.13    0.51
  -5  -2  -4    5.67    0.52
  -5  -2  -5    1.57    0.26
  -5  -2  -5    1.14    0.37
  -5  -2  -5    1.21    0.31
  -5  -2  -5    0.96    0.39
  -5  -2  -5    0.99    0.31
  -5  -2  -6    0.29    0.23
  -5  -2  -6    0.24    0.34
  -5  -2  -6    0.30    0.26
  -5  -2  -6   -0.55    0.42
  -5  -2  -6    0.03    0.28
  -5  -2  -7    3.20    0.50
  -5  -2  -7    3.50    0.40
  -5  -2  -7    3.77    0.56
  -5  -2  -8    4.04    0.39
  -5  -2  -8    3.22    0.49
  -5  -2  -8    3.12    0.40
  -5  -2  -8    3.52    0.52
  -5  -2  -9   25.19    1.43
  -5  -2  -9   24.10    1.55
  -5  -2  -9   23.89    1.54
  -5  -2  -9   22.06    1.43
  -5  -2 -10   19.37    1.25
  -5  -2 -10   19.81    1.25
   5   3 -14    1.30    0.25
   5   3 -13    5.26    0.52
   5   3 -13    4.68    0.43
   5   3 -13    5.52    0.47
   5   3 -12    1.12    0.32
   5   3 -12    0.64    0.20
   5   3 -12    0.82    0.36
   5   3 -12    0.23    0.25
   5   3 -12    0.61    0.31
   5   3 -11    4.05    0.52
   5   3 -11    4.75    0.43
   5   3 -11    4.25    0.49
   5   3 -11    5.54    0.54
   5   3 -11    5.25    0.61
   5   3 -11    5.42    0.55
   5   3 -11    4.66    0.44
   5   3 -10  129.76    7.28
   5   3 -10  130.82    7.36
   5   3 -10  138.31    7.47
   5   3 -10  126.92    7.38
   5   3 -10  129.44    7.41
   5   3  -9    6.32    0.47
   5   3  -9    6.60    0.65
   5   3  -9    6.49    0.60
   5   3  -9    6.24    0.57
   5   3  -9    5.59    0.52
   5   3  -9    5.59    0.52
   5   3  -8   20.38    1.14
   5   3  -8   18.14    1.26
   5   3  -8   17.37    1.23
   5   3  -8   18.28    1.21
   5   3  -8   17.05    1.26
   5   3  -8   20.58    1.22
   5   3  -8   17.32    1.18
   5   3  -7   28.17    1.55
   5   3  -7   26.44    1.65
   5   3  -7   23.72    1.75
   5   3  -7   25.37    1.66
   5   3  -7   26.61    1.61
   5   3  -7   24.07    1.59
   5   3  -7   28.92    1.63
   5   3  -6    7.06    0.47
   5   3  -6    6.42    0.68
  -5  -3   6    6.71    0.87
  -5  -3   6    6.54    0.53
   5   3  -5   91.64    5.84
  -5  -3   5   94.84    5.80
  -5  -3   5   97.01    5.39
   5   3  -4    3.80    0.75
  -5  -3   4    5.34    0.45
  -5  -3   4    5.18    0.78
  -5  -3   3   27.51    1.70
   5   3  -3   29.31    2.17
  -5  -3   3   31.22    2.13
   5   3  -2  135.14    8.05
  -5  -3   1   69.62    3.99
  -5  -3   1   72.71    4.42
  -5  -3   0   44.23    2.63
  -5  -3   0   50.16    3.09
  -5  -3  -1   15.22    1.35
  -5  -3  -1   15.09    0.99
  -5  -3  -2   59.55    3.74
   5   3   2   51.90    3.51
  -5  -3  -2   60.52    3.33
  -5  -3  -3    1.90    0.36
  -5  -3  -3    1.65    0.34
  -5  -3  -3    2.94    0.41
  -5  -3  -3    1.92    0.33
  -5  -3  -4    9.77    0.65
  -5  -3  -4    7.54    0.69
  -5  -3  -4    7.88    0.72
  -5  -3  -4    9.54    0.78
  -5  -3  -4   10.28    0.74
  -5  -3  -5    2.46    0.33
  -5  -3  -5    2.90    0.45
  -5  -3  -5    2.31    0.38
  -5  -3  -5    1.98    0.37
  -5  -3  -5    2.92    0.54
  -5  -3  -5    2.27    0.46
  -5  -3  -6   25.27    1.55
  -5  -3  -6   23.90    1.64
  -5  -3  -6   27.77    1.76
  -5  -3  -6   26.73    1.71
  -5  -3  -6   24.31    1.58
  -5  -3  -7    3.93    0.41
  -5  -3  -7    4.57    0.53
  -5  -3  -7    4.37    0.56
  -5  -3  -7    4.50    0.58
  -5  -3  -8    1.73    0.38
  -5  -3  -9    5.31    0.52
  -5  -3  -9    5.97    0.53
  -5  -3 -10   10.10    0.68
   5   4 -14    0.42    0.22
   5   4 -14    0.85    0.18
   5   4 -13    4.73    0.46
   5   4 -13    5.01    0.51
   5   4 -13    4.41    0.41
   5   4 -12    0.50    0.28
   5   4 -12    0.27    0.20
   5   4 -12    0.12    0.34
   5   4 -12   -0.03    0.26
   5   4 -12    0.03    0.28
   5   4 -11    8.56    0.75
   5   4 -11    7.14    0.65
   5   4 -11    7.36    0.71
   5   4 -11    8.33    0.63
   5   4 -10  150.77    8.38
   5   4 -10  163.61    8.56
   5   4 -10  141.76    8.48
   5   4 -10  151.31    8.48
   5   4  -9   22.31    1.32
   5   4  -9   21.33    1.47
   5   4  -9   20.74    1.44
   5   4  -9   22.70    1.42
   5   4  -9   21.46    1.47
   5   4  -9   21.18    1.42
   5   4  -9   24.29    1.42
   5   4  -8    1.34    0.20
   5   4  -8    1.13    0.33
   5   4  -8    1.69    0.33
   5   4  -8    1.01    0.32
   5   4  -8    1.76    0.30
   5   4  -8    1.73    0.30
   5   4  -7   41.70    2.32
  -5  -4   7   38.47    2.81
   5   4  -7   37.15    2.41
   5   4  -7   39.58    2.61
   5   4  -7   39.28    2.43
   5   4  -7   40.18    2.39
   5   4  -7   44.67    2.44
  -5  -4   7   42.50    2.40
  -5  -4   6   23.78    1.50
   5   4  -6   24.76    2.04
   5   4  -6   24.70    1.42
  -5  -4   6   24.42    1.94
   5   4  -6   24.19    1.72
  -5  -4   5    3.47    0.68
   5   4  -5    2.40    0.71
  -5  -4   5    3.04    0.37
   5   4  -5    4.14    0.57
  -5  -4   4    8.23    0.62
   5   4  -4    8.39    1.07
  -5  -4   4    7.25    0.96
   5   4  -4    7.39    0.77
  -5  -4   3    5.98    0.53
   5   4  -3    6.43    0.98
  -5  -4   3    8.28    0.94
   5   4  -2   61.85    4.15
  -5  -4   1   -0.10    0.50
  -5  -4   1   -0.05    0.22
   5   4  -1   -0.13    0.31
  -5  -4   0   30.30    1.81
  -5  -4   0   29.64    2.25
   5   4   0   28.31    2.00
  -5  -4  -1   22.92    1.42
  -5  -4  -1   22.36    1.85
   5   4   1   22.15    1.62
  -5  -4  -2   15.90    0.98
   5   4   2   16.96    0.98
  -5  -4  -2   14.04    1.38
   5   4   2   13.97    1.20
  -5  -4  -2   14.23    1.08
  -5  -4  -2   15.21    1.05
  -5  -4  -2   15.40    1.01
  -5  -4  -3   26.20    1.55
  -5  -4  -3   25.51    1.68
  -5  -4  -3   22.84    1.60
  -5  -4  -4    0.82    0.25
  -5  -4  -4    0.58    0.34
  -5  -4  -4    1.36    0.39
  -5  -4  -4    0.53    0.26
  -5  -4  -5   12.67    0.87
  -5  -4  -5   12.73    1.00
  -5  -4  -5   12.82    1.07
  -5  -4  -6    7.11    0.55
  -5  -4  -6    5.18    0.68
  -5  -4  -6    6.48    0.67
  -5  -4  -7    2.94    0.35
  -5  -4  -7    3.46    0.46
  -5  -4  -7    3.92    0.52
  -5  -4  -8    6.09    0.47
  -5  -4  -8    6.41    0.57
  -5  -4  -9    0.16    0.13
  -5  -4  -9   -0.25    0.19
  -5  -4  -9   -0.21    0.20
   5   5 -14    2.24    0.31
   5   5 -14    2.02    0.26
   5   5 -13    1.12    0.22
   5   5 -13    1.10    0.32
   5   5 -13    1.44    0.24
   5   5 -13    1.29    0.30
   5   5 -12    2.87    0.35
   5   5 -12    2.73    0.45
   5   5 -12    3.07    0.38
   5   5 -12    3.44    0.46
   5   5 -11    2.21    0.40
   5   5 -11    2.19    0.38
   5   5 -10   26.73    1.62
   5   5 -10   24.79    1.56
   5   5 -10   25.31    1.60
   5   5 -10   20.35    1.53
   5   5 -10   24.41    1.54
   5   5 -10   24.95    1.54
   5   5  -9   28.26    1.90
   5   5  -9   28.76    1.89
   5   5  -9   33.35    1.95
   5   5  -9   31.88    1.88
   5   5  -9   31.28    1.89
   5   5  -8   10.26    0.75
   5   5  -8   10.25    0.77
   5   5  -8    9.05    0.76
   5   5  -8    9.77    0.72
   5   5  -8    9.67    0.78
  -5  -5   7   19.01    1.16
  -5  -5   7   17.74    1.61
   5   5  -7   15.83    1.15
   5   5  -7   16.41    1.36
   5   5  -7   17.56    1.17
   5   5  -7   18.08    1.18
  -5  -5   6   10.94    0.74
   5   5  -6    9.34    1.20
   5   5  -6    9.82    0.73
  -5  -5   6   10.86    1.15
   5   5  -6    8.67    0.91
   5   5  -6    8.84    0.71
  -5  -5   5   33.14    1.99
   5   5  -5   32.77    2.60
  -5  -5   5   38.00    2.54
   5   5  -5   29.90    2.19
  -5  -5   4   11.46    0.81
   5   5  -4   10.97    1.34
  -5  -5   4    9.02    1.14
   5   5  -4   11.65    1.03
   5   5  -3   28.56    2.34
   5   5  -3   27.84    1.96
  -5  -5   2   10.30    0.76
   5   5  -2   11.29    1.43
   5   5  -2    8.98    0.93
  -5  -5   2   11.19    1.18
  -5  -5   1    0.23    0.42
  -5  -5   1   -0.03    0.24
   5   5  -1    0.21    0.30
  -5  -5   0   17.16    1.16
  -5  -5   0   16.32    1.59
   5   5   0   16.67    1.36
   5   5   0   18.07    1.08
  -5  -5   0   17.00    1.19
  -5  -5  -1   11.86    0.88
  -5  -5  -1   12.98    0.82
  -5  -5  -1   10.33    1.25
   5   5   1   13.12    0.84
   5   5   1   10.81    1.08
  -5  -5  -1   15.09    0.98
  -5  -5  -2    6.84    0.51
  -5  -5  -2    6.65    0.64
  -5  -5  -2    5.53    0.52
  -5  -5  -3   84.83    4.82
  -5  -5  -3   86.37    4.96
  -5  -5  -4    8.22    0.63
  -5  -5  -4    8.43    0.77
  -5  -5  -5    0.77    0.26
  -5  -5  -5    0.42    0.35
  -5  -5  -6    0.25    0.23
  -5  -5  -6    0.41    0.38
  -5  -5  -6    0.34    0.32
   5   5   6    0.59    0.20
  -5  -5  -7    0.57    0.28
  -5  -5  -7    0.49    0.19
  -5  -5  -7    0.77    0.33
  -5  -5  -8    0.85    0.20
  -5  -5  -8    0.72    0.21
   5   6 -14    1.89    0.20
   5   6 -14    1.91    0.26
   5   6 -13    3.55    0.41
   5   6 -13    3.10    0.33
   5   6 -13    3.49    0.40
   5   6 -13    3.57    0.35
   5   6 -12    0.16    0.23
   5   6 -12   -0.03    0.29
   5   6 -12    0.48    0.24
   5   6 -12    0.33    0.29
   5   6 -11    0.87    0.27
   5   6 -11    0.66    0.30
   5   6 -10    6.00    0.57
   5   6 -10    5.69    0.60
   5   6 -10    5.69    0.56
   5   6 -10    6.01    0.56
   5   6  -9   98.73    5.53
   5   6  -9   97.87    5.54
   5   6  -9   99.23    5.56
   5   6  -9   88.85    5.56
   5   6  -9   99.68    5.53
   5   6  -8   46.87    2.75
   5   6  -8   47.15    3.02
   5   6  -8   47.07    2.77
   5   6  -8   43.90    2.80
   5   6  -8   46.36    2.75
  -5  -6   8   46.84    2.74
  -5  -6   7   36.45    2.19
   5   6  -7   35.04    2.18
  -5  -6   7   37.96    2.75
   5   6  -7   33.93    2.45
   5   6  -7   35.60    2.19
   5   6  -7   39.26    2.25
   5   6  -6    0.15    0.50
  -5  -6   6    0.99    0.59
  -5  -6   6    0.65    0.28
   5   6  -6    1.08    0.30
   5   6  -6    0.77    0.26
   5   6  -6    0.62    0.17
   5   6  -6    1.39    0.31
   5   6  -6    1.36    0.44
  -5  -6   5   32.22    1.98
   5   6  -5   36.90    2.77
   5   6  -5   29.53    2.21
  -5  -6   5   30.53    2.46
   5   6  -5   33.54    1.98
   5   6  -5   32.51    1.87
   5   6  -5   31.90    1.94
   5   6  -4    3.19    0.30
   5   6  -4    3.85    0.92
  -5  -6   4    2.74    0.39
  -5  -6   4    2.03    0.68
   5   6  -4    3.13    0.40
   5   6  -4    3.17    0.38
   5   6  -3   11.87    0.78
   5   6  -3   13.10    0.87
   5   6  -3   13.68    1.14
   5   6  -3   10.79    0.83
  -5  -6   2   17.81    1.23
   5   6  -2   19.04    1.22
   5   6  -2   19.44    1.51
  -5  -6   2   17.59    1.68
   5   6  -2   19.06    1.15
   5   6  -1    2.71    0.52
   5   6  -1    1.76    0.81
  -5  -6   1    3.86    0.79
  -5  -6   1    3.38    0.41
  -5  -6   1    3.03    0.44
   5   6   0    3.76    0.60
  -5  -6   0    2.64    0.71
  -5  -6   0    3.10    0.42
  -5  -6   0    3.93    0.50
  -5  -6  -1    8.03    0.66
  -5  -6  -1    9.30    0.76
  -5  -6  -1    7.13    1.01
  -5  -6  -2    1.68    0.27
  -5  -6  -2    1.30    0.41
  -5  -6  -3   38.01    2.47
  -5  -6  -3   41.24    2.35
  -5  -6  -4   11.43    0.79
  -5  -6  -4   11.34    1.01
  -5  -6  -4   11.96    0.92
  -5  -6  -5    0.06    0.20
   5   6   5    0.05    0.21
  -5  -6  -5   -0.28    0.37
  -5  -6  -5    0.11    0.30
  -5  -6  -6    0.44    0.35
  -5  -6  -6    0.38    0.28
  -5  -6  -7    0.66    0.20
   5   7 -14   13.51    0.85
   5   7 -14   12.89    0.81
   5   7 -13    3.41    0.42
   5   7 -13    4.53    0.40
   5   7 -12   -0.11    0.22
   5   7 -12    0.21    0.23
   5   7 -11    1.16    0.32
   5   7 -11    1.64    0.31
   5   7 -11    1.22    0.37
   5   7 -11    1.44    0.33
   5   7 -10   37.34    2.23
   5   7 -10   36.02    2.18
   5   7 -10   33.72    2.19
   5   7 -10   36.77    2.20
   5   7  -9   70.33    4.35
   5   7  -9   77.50    4.29
   5   7  -9   77.21    4.33
   5   7  -9   72.01    4.29
  -5  -7   8    2.11    0.36
   5   7  -8    2.21    0.37
   5   7  -8    1.88    0.40
   5   7  -8    1.43    0.43
   5   7  -8    2.76    0.41
  -5  -7   8    1.34    0.58
  -5  -7   7    5.32    0.55
   5   7  -7    6.42    0.56
   5   7  -7    5.93    1.11
  -5  -7   7    5.77    0.94
   5   7  -7    6.58    0.81
   5   7  -7    5.57    0.55
   5   7  -6    0.09    0.32
   5   7  -6    0.35    0.63
  -5  -7   6   -0.17    0.26
  -5  -7   6   -0.14    0.48
   5   7  -6   -0.22    0.28
   5   7  -6    0.11    0.28
   5   7  -6    0.09    0.24
   5   7  -6    0.11    0.15
   5   7  -5    0.18    0.33
   5   7  -5    0.32    0.27
  -5  -7   5   -0.07    0.26
  -5  -7   5   -0.26    0.54
   5   7  -5    0.37    0.28
   5   7  -5   -0.03    0.22
   5   7  -5   -0.02    0.15
  -5  -7   4    4.70    0.90
   5   7  -4    3.53    0.45
   5   7  -4    4.02    0.36
   5   7  -3    0.19    0.71
  -5  -7   3    0.03    0.27
  -5  -7   3   -0.39    0.53
   5   7  -3    0.03    0.25
   5   7  -3    0.18    0.26
   5   7  -3   -0.09    0.35
   5   7  -3    0.10    0.18
   5   7  -2    0.39    0.71
  -5  -7   2    0.56    0.29
  -5  -7   2    0.53    0.54
   5   7  -2    0.62    0.39
   5   7  -2    0.57    0.21
  -5  -7   2    0.64    0.34
  -5  -7   1   10.36    0.81
   5   7  -1    9.92    1.51
  -5  -7   1    9.37    1.22
  -5  -7   1   12.05    0.88
   5   7  -1   10.35    1.08
  -5  -7   0   19.73    1.39
   5   7   0   20.08    2.22
  -5  -7   0   19.36    1.88
   5   7   0   22.21    1.71
  -5  -7   0   25.15    1.49
  -5  -7  -1    2.29    0.34
  -5  -7  -1    2.26    0.45
  -5  -7  -2    1.42    0.40
  -5  -7  -2    1.05    0.22
  -5  -7  -3    0.62    0.21
   5   7   3    0.55    0.27
  -5  -7  -3    0.73    0.33
  -5  -7  -4    0.42    0.20
   5   7   4    0.62    0.24
  -5  -7  -4   -0.10    0.27
  -5  -7  -4   -0.05    0.41
   5   7   5    0.18    0.18
  -5  -7  -5   -0.04    0.32
  -5  -7  -5    0.05    0.23
  -5  -7  -6   -0.03    0.16
   5   8 -14   16.96    1.08
   5   8 -14   18.25    1.06
   5   8 -13    0.24    0.21
   5   8 -12    2.35    0.29
   5   8 -12    2.61    0.39
   5   8 -12    2.16    0.32
   5   8 -11    0.21    0.28
   5   8 -11    0.40    0.24
   5   8 -11    0.10    0.29
   5   8 -11   -0.10    0.26
   5   8 -10   44.79    2.79
   5   8 -10   46.03    2.74
   5   8 -10   49.25    2.81
  -5  -8   9   49.65    2.95
   5   8  -9   52.68    2.99
   5   8  -9   50.47    2.95
   5   8  -9   47.63    2.97
  -5  -8   8   11.06    0.89
   5   8  -8   13.09    0.93
   5   8  -8   12.92    0.91
   5   8  -8   11.74    0.91
  -5  -8   7   15.88    1.11
   5   8  -7   17.20    1.90
   5   8  -7   15.89    1.09
  -5  -8   7   14.37    1.63
   5   8  -7   17.22    1.44
   5   8  -7   14.79    1.08
  -5  -8   6   -0.11    0.29
  -5  -8   6   -0.14    0.56
   5   8  -6   -0.19    0.28
   5   8  -6    0.04    0.31
   5   8  -6    0.06    0.27
   5   8  -6    0.29    0.17
   5   8  -6    0.68    0.44
   5   8  -5    0.39    0.38
   5   8  -5    0.58    0.65
  -5  -8   5    0.35    0.29
  -5  -8   5    0.57    0.56
   5   8  -5    0.84    0.30
   5   8  -5    0.38    0.20
   5   8  -5    0.60    0.19
   5   8  -4    1.76    0.50
   5   8  -4    1.00    0.75
   5   8  -4    1.10    0.27
   5   8  -3    2.26    0.92
  -5  -8   3    2.79    0.40
  -5  -8   3    1.54    0.64
  -5  -8   3    2.12    0.43
   5   8  -3    3.00    0.59
   5   8  -2    3.58    1.09
  -5  -8   2    2.79    0.73
  -5  -8   2    3.24    0.43
   5   8  -2    4.12    0.68
  -5  -8   2    2.71    0.47
  -5  -8   1    2.47    0.76
  -5  -8   1    3.14    0.43
  -5  -8   1    3.09    0.48
  -5  -8   0    4.35    0.45
  -5  -8   0    4.33    0.55
   5   8   1    1.00    0.30
  -5  -8  -1    1.06    0.35
  -5  -8  -1    1.51    0.26
   5   8   2    4.00    0.42
  -5  -8  -2    3.22    0.45
  -5  -8  -2    3.29    0.34
   5   8   3   -0.02    0.23
  -5  -8  -3   -0.03    0.26
   5   8   4    2.86    0.31
  -5  -8  -4    2.52    0.32
  -5  -8  -5    0.22    0.19
   5   9 -14    6.03    0.44
   5   9 -14    5.92    0.42
   5   9 -13    1.59    0.25
   5   9 -12    0.27    0.17
   5   9 -12    0.22    0.27
   5   9 -12    0.10    0.23
   5   9 -11    2.94    0.35
   5   9 -11    2.95    0.41
   5   9 -10    2.31    0.33
   5   9 -10    2.14    0.39
   5   9 -10    2.36    0.40
   5   9 -10    2.18    0.37
  -5  -9   9    2.26    0.37
   5   9  -9    2.98    0.38
   5   9  -9    2.74    0.42
   5   9  -9    2.08    0.39
  -5  -9   8    0.07    0.29
   5   9  -8    0.07    0.28
   5   9  -8    0.03    0.25
   5   9  -8   -0.07    0.29
  -5  -9   7   23.19    1.53
   5   9  -7   24.58    1.51
   5   9  -7   22.57    1.51
  -5  -9   6    3.94    0.48
   5   9  -6    3.66    0.45
   5   9  -6    4.79    0.49
  -5  -9   5    2.65    0.41
  -5  -9   5    2.64    0.44
   5   9  -5    2.05    0.32
  -5  -9   4   13.33    1.03
  -5  -9   4   15.98    1.09
   5   9  -4   14.55    0.99
  -5  -9   3   11.93    0.96
   5   9  -3   13.03    0.94
  -5  -9   2    1.32    0.31
  -5  -9   2    0.93    0.32
   5   9  -2    0.93    0.28
  -5  -9   1    1.35    0.31
   5   9  -1    1.49    0.34
  -5  -9   1    1.47    0.36
   5   9   0    3.98    0.44
  -5  -9   0    3.75    0.47
  -5  -9   0    3.99    0.41
   5   9   1    6.48    0.54
  -5  -9  -1    5.67    0.48
   5   9   2    0.24    0.21
   5   9   3    1.04    0.22
  -5  -9  -4    1.38    0.20
   5  10 -13    9.73    0.67
   5  10 -12    5.24    0.47
   5  10 -12    4.98    0.44
   5  10 -11    1.76    0.32
   5  10 -11    1.40    0.32
   5  10 -10    0.06    0.26
   5  10 -10    0.21    0.15
   5  10 -10   -0.09    0.20
   5  10 -10   -0.21    0.27
   5  10 -10    0.28    0.30
  -5 -10   9    0.95    0.29
   5  10  -9    0.95    0.23
   5  10  -9    1.50    0.29
   5  10  -9    1.04    0.30
   5  10  -9    1.15    0.31
  -5 -10   8    1.40    0.35
   5  10  -8    1.38    0.31
   5  10  -8    2.26    0.35
  -5 -10   7   10.92    0.86
   5  10  -7   10.83    0.83
   5  10  -7   12.14    0.86
  -5 -10   6    0.25    0.30
   5  10  -6    0.07    0.21
   5  10  -5    9.26    0.69
  -5 -10   4    2.77    0.41
   5  10  -4    3.83    0.41
  -5 -10   3   11.65    0.88
   5  10  -3   12.33    0.86
  -5 -10   2    0.33    0.24
   5  10  -2    0.74    0.21
   5  10  -2    0.39    0.25
  -5 -10   1    0.38    0.18
   5  10  -1    0.14    0.17
  -5 -10   1    0.34    0.22
   5  10   0    1.74    0.29
  -5 -10   0    1.40    0.26
  -5 -10  -1    0.30    0.19
   5  10   1    0.45    0.23
  -5 -10  -1    0.42    0.17
  -5 -10  -2    1.66    0.23
  -5 -10  -2    1.83    0.34
   5  10   2    1.51    0.23
  -5 -10  -3    1.42    0.23
   5  11 -13    2.56    0.26
   5  11 -13    3.06    0.26
   5  11 -12    2.03    0.26
   5  11 -12    2.13    0.27
   5  11 -12    2.21    0.27
   5  11 -11    2.22    0.30
   5  11 -11    1.78    0.30
   5  11 -10    0.21    0.21
   5  11 -10    0.15    0.14
   5  11 -10    0.15    0.27
   5  11 -10    0.05    0.22
  -5 -11   9    4.91    0.49
   5  11  -9    6.42    0.50
   5  11  -9    5.42    0.49
   5  11  -9    5.20    0.43
  -5 -11   8    1.21    0.30
   5  11  -8    1.23    0.23
   5  11  -8    0.58    0.25
   5  11  -8    1.34    0.28
  -5 -11   7    0.43    0.27
   5  11  -7    0.14    0.20
   5  11  -7    0.35    0.25
   5  11  -6    1.53    0.26
  -5 -11   6    1.53    0.33
   5  11  -6    2.20    0.31
  -5 -11   5    0.81    0.30
   5  11  -5    0.64    0.24
   5  11  -5    1.04    0.23
   5  11  -5    0.10    0.22
  -5 -11   4    0.18    0.24
   5  11  -4   -0.10    0.19
   5  11  -4    0.12    0.22
  -5 -11   4    0.25    0.25
  -5 -11   3    0.08    0.22
   5  11  -3    0.02    0.18
   5  11  -3   -0.10    0.22
  -5 -11   3    0.03    0.22
   5  11  -2   -0.02    0.15
   5  11  -2   -0.05    0.21
  -5 -11   2    0.09    0.21
  -5 -11   1    0.36    0.19
   5  11   0    0.22    0.18
  -5 -11   0    0.48    0.16
   5  11   1   -0.04    0.14
  -5 -11  -1    0.20    0.21
   5  12 -11    6.34    0.48
   5  12 -10    1.18    0.16
   5  12 -10    1.72    0.26
   5  12 -10    1.04    0.26
   5  12  -9    5.10    0.40
   5  12  -9    5.57    0.52
   5  12  -9    5.61    0.44
   5  12  -8    2.61    0.27
  -5 -12   8    2.36    0.30
   5  12  -8    2.18    0.27
   5  12  -7    0.35    0.18
  -5 -12   7    0.44    0.24
   5  12  -7    0.12    0.18
   5  12  -6    0.22    0.18
   5  12  -6    0.53    0.17
   5  12  -5    1.44    0.24
   5  12  -5    2.15    0.25
  -5 -12   5    1.89    0.31
   5  12  -4    0.08    0.18
   5  12  -4   -0.03    0.15
   5  12  -3   -0.13    0.18
   5  12  -3    0.19    0.14
  -5 -12   3    0.08    0.19
   5  12  -2    0.78    0.20
  -5 -12   2    0.92    0.20
  -5 -12   1    0.42    0.13
   5  13  -9    0.12    0.10
   5  13  -9   -0.06    0.16
   5  13  -8    0.01    0.13
   5  13  -8    0.33    0.22
  -5 -13   8    0.10    0.14
  -5 -13   7    0.49    0.18
   5  13  -6    1.35    0.19
  -5 -13   6    1.36    0.22
   5  13  -5    0.32    0.12
  -5 -13   5    0.18    0.17
   5  13  -4    0.23    0.10
  -6  14  -5    0.10    0.15
   6 -13   1    0.13    0.15
   6 -13   1    0.10    0.16
   6 -13   2    0.31    0.18
  -6  13  -2    0.18    0.17
  -6  13  -2    0.48    0.17
   6 -13   3    0.24    0.18
  -6  13  -3   -0.02    0.20
  -6  13  -3   -0.25    0.20
   6 -13   4    0.38    0.18
  -6  13  -4    0.77    0.24
  -6  13  -4    0.49    0.24
  -6  13  -5    5.18    0.48
  -6  13  -5    5.56    0.48
  -6  13  -6    5.48    0.49
  -6  13  -6    5.14    0.47
  -6  13  -7    1.38    0.23
  -6  13  -7    1.41    0.27
  -6  13  -7    1.67    0.29
  -6  13  -7    1.65    0.27
  -6  13  -8    1.92    0.29
  -6  13  -8    1.98    0.25
  -6  13  -8    2.33    0.26
  -6  13  -9    1.73    0.24
  -6  13  -9    2.19    0.26
  -6  13  -9    1.83    0.23
   6 -12  -1    1.65    0.25
   6 -12  -1    1.53    0.21
   6 -12   0   -0.05    0.16
   6 -12   0   -0.02    0.21
   6 -12   1    0.14    0.21
  -6  12  -1   -0.12    0.21
   6 -12   2    0.76    0.26
  -6  12  -2    1.86    0.31
  -6  12  -3    0.46    0.29
   6 -12   3    0.18    0.23
  -6  12  -4    1.63    0.26
   6 -12   4    1.96    0.30
  -6  12  -4    2.06    0.39
  -6  12  -5   28.25    1.78
  -6  12  -6   20.66    1.28
  -6  12  -6   23.08    1.42
  -6  12  -6   20.88    1.33
  -6  12  -7   -0.06    0.27
  -6  12  -7    0.11    0.25
  -6  12  -7    0.24    0.25
  -6  12  -8    0.09    0.26
  -6  12  -8    0.70    0.24
  -6  12  -8   -0.13    0.25
  -6  12  -9    1.49    0.30
  -6  12  -9    2.49    0.34
  -6  12  -9    1.58    0.23
  -6  12  -9    2.18    0.32
  -6  12 -10    1.29    0.25
  -6  12 -10    1.45    0.24
  -6  12 -11    4.22    0.35
   6 -11  -3    0.04    0.14
   6 -11  -3    0.17    0.13
   6 -11  -3   -0.06    0.17
   6 -11  -2    0.09    0.21
   6 -11  -2   -0.25    0.20
   6 -11  -2   -0.04    0.20
   6 -11  -1    0.07    0.23
   6 -11   0    0.41    0.26
   6 -11   0    0.33    0.25
  -6  11   0    0.52    0.24
   6 -11   1    0.28    0.27
  -6  11  -1   -0.04    0.18
   6 -11   1   -0.05    0.22
  -6  11  -1    0.50    0.29
  -6  11  -2   16.23    0.99
   6 -11   2   14.36    1.06
   6 -11   3    3.45    0.43
  -6  11  -3    3.64    0.36
   6 -11   4    3.00    0.40
  -6  11  -4    4.09    0.39
  -6  11  -5   14.27    1.07
  -6  11  -5   17.78    1.05
  -6  11  -5   15.66    1.16
  -6  11  -6   35.33    2.15
  -6  11  -6   39.38    2.25
  -6  11  -7    1.38    0.25
  -6  11  -7    1.11    0.24
  -6  11  -7    0.99    0.32
  -6  11  -8    0.14    0.20
  -6  11  -8    0.37    0.30
  -6  11  -8    0.19    0.24
  -6  11  -9    3.71    0.36
  -6  11  -9    4.05    0.43
  -6  11  -9    3.04    0.34
  -6  11  -9    4.36    0.46
  -6  11 -10    0.05    0.18
  -6  11 -10    0.24    0.22
  -6  11 -10   -0.08    0.25
  -6  11 -10    0.32    0.26
  -6  11 -11    1.66    0.23
  -6  11 -11    2.11    0.24
  -6  11 -11    2.42    0.31
  -6  11 -11    2.85    0.31
  -6  11 -12    0.10    0.14
   6 -10  -4    0.18    0.16
   6 -10  -4    0.18    0.20
   6 -10  -4    0.13    0.16
   6 -10  -3   -0.12    0.21
   6 -10  -3    0.28    0.24
   6 -10  -3    0.45    0.25
   6 -10  -2   -0.03    0.26
   6 -10  -2    0.20    0.27
   6 -10  -1    1.55    0.34
  -6  10   1    1.78    0.29
   6 -10   0    3.10    0.45
  -6  10   0    3.84    0.35
   6 -10   0    2.69    0.41
  -6  10   0    3.39    0.43
   6 -10   1   -0.07    0.29
  -6  10  -1    0.02    0.20
   6 -10   1    0.03    0.27
  -6  10  -2   40.58    2.17
   6 -10   2   32.02    2.22
  -6  10  -3   25.17    1.40
   6 -10   3   19.54    1.44
   6 -10   4   -0.18    0.25
  -6  10  -4   -0.11    0.20
  -6  10  -5   -0.18    0.29
  -6  10  -5    0.31    0.21
  -6  10  -5   -0.13    0.22
  -6  10  -6   45.10    2.52
  -6  10  -6   40.83    2.53
  -6  10  -6   42.37    2.66
  -6  10  -6   45.10    2.63
  -6  10  -7    5.46    0.48
  -6  10  -7    5.25    0.51
  -6  10  -7    6.53    0.65
  -6  10  -8    6.53    0.50
  -6  10  -8    7.50    0.57
  -6  10  -8    6.55    0.65
  -6  10  -8    6.79    0.67
  -6  10  -8    7.11    0.67
  -6  10  -8    6.32    0.58
  -6  10  -9    8.79    0.68
  -6  10  -9    9.13    0.73
  -6  10  -9    9.75    0.78
  -6  10  -9    8.37    0.74
  -6  10 -10    0.24    0.23
  -6  10 -10    0.72    0.25
  -6  10 -10    0.68    0.30
  -6  10 -10    0.22    0.29
  -6  10 -11    0.10    0.22
  -6  10 -11    0.27    0.18
  -6  10 -11    0.40    0.25
  -6  10 -12    0.35    0.18
  -6  10 -12    0.27    0.19
  -6  10 -12    0.51    0.19
   6  -9  -6    0.19    0.15
   6  -9  -5   -0.17    0.16
   6  -9  -5    0.05    0.17
   6  -9  -4   -0.11    0.24
   6  -9  -4    0.43    0.26
   6  -9  -4    0.03    0.27
   6  -9  -3    1.04    0.32
   6  -9  -3    1.09    0.34
   6  -9  -3    1.43    0.35
   6  -9  -2    8.08    0.70
   6  -9  -2    8.64    0.73
  -6   9   1   23.14    1.35
   6  -9  -1   21.57    1.46
  -6   9   1   21.18    1.43
   6  -9   0   14.94    1.11
  -6   9   0   17.36    1.02
   6  -9   0   14.56    1.09
   6  -9   1    0.81    0.33
  -6   9  -1    1.47    0.26
   6  -9   1    0.95    0.32
  -6   9  -2   13.53    0.83
   6  -9   2   10.68    0.88
  -6   9  -3   35.08    1.92
   6  -9   3   28.47    1.96
   6  -9   4    0.03    0.25
  -6   9  -4    0.26    0.24
  -6   9  -4    0.50    0.23
  -6   9  -4    0.07    0.26
  -6   9  -5    3.65    0.36
  -6   9  -5    3.25    0.38
  -6   9  -5    2.51    0.48
  -6   9  -5    2.45    0.44
  -6   9  -6   46.48    2.83
  -6   9  -6   50.45    2.78
  -6   9  -6   47.58    2.93
  -6   9  -6   47.01    2.90
  -6   9  -7   22.09    1.44
  -6   9  -7   21.98    1.37
  -6   9  -7   22.17    1.53
  -6   9  -7   26.06    1.55
  -6   9  -8    4.37    0.38
  -6   9  -8    6.07    0.50
  -6   9  -8    5.11    0.55
  -6   9  -8    4.14    0.53
  -6   9  -8    5.26    0.58
  -6   9  -8    3.30    0.43
  -6   9  -9    0.12    0.26
  -6   9  -9    0.60    0.31
  -6   9  -9    0.11    0.33
  -6   9  -9    0.19    0.34
  -6   9 -10    1.03    0.29
  -6   9 -10    1.17    0.29
  -6   9 -10    1.07    0.33
  -6   9 -10    0.83    0.33
  -6   9 -11    2.23    0.32
  -6   9 -11    1.86    0.34
  -6   9 -12    0.28    0.21
  -6   9 -12    0.14    0.21
  -6   9 -12    0.22    0.20
   6  -8  -7    0.29    0.15
   6  -8  -6    0.52    0.25
   6  -8  -6    0.72    0.19
   6  -8  -5    0.24    0.25
   6  -8  -5    0.12    0.30
   6  -8  -5   -0.08    0.24
   6  -8  -4    8.71    0.71
   6  -8  -4    7.05    0.70
   6  -8  -4    7.96    0.68
   6  -8  -3    0.04    0.30
   6  -8  -3   -0.26    0.31
   6  -8  -2    3.97    0.49
   6  -8  -2    3.44    0.48
  -6   8   1   49.22    2.67
   6  -8  -1   44.14    2.77
   6  -8  -1   43.18    2.77
  -6   8   0   53.83    3.66
   6  -8   0   57.21    4.09
   6  -8   0   59.12    3.40
  -6   8   0   66.07    4.39
   6  -8   0   57.45    3.41
  -6   8  -1   20.78    1.72
   6  -8   1   24.52    1.48
  -6   8  -1   25.02    2.27
   6  -8   1   21.42    1.47
  -6   8  -2    6.26    0.77
   6  -8   2    5.18    0.52
   6  -8   3    4.67    0.48
  -6   8  -4   -0.08    0.35
  -6   8  -4   -0.07    0.25
  -6   8  -5   30.69    1.76
   6  -8   5   22.41    2.28
  -6   8  -5   30.11    1.86
  -6   8  -5   27.99    1.79
  -6   8  -5   24.57    2.01
  -6   8  -6   36.14    2.14
   6  -8   6   33.99    2.78
  -6   8  -6   32.50    2.20
  -6   8  -6   35.15    2.45
  -6   8  -6   37.28    2.21
  -6   8  -7  112.67    6.26
  -6   8  -7  113.84    6.17
  -6   8  -7  113.71    6.33
  -6   8  -7  111.54    6.34
  -6   8  -7  101.16    6.25
  -6   8  -8    0.41    0.28
  -6   8  -8    0.07    0.34
  -6   8  -8    0.42    0.36
  -6   8  -8    0.50    0.37
  -6   8  -9    4.99    0.51
  -6   8  -9    5.25    0.53
  -6   8  -9    4.51    0.56
  -6   8  -9    4.01    0.54
  -6   8 -10    7.26    0.65
  -6   8 -10    8.60    0.65
  -6   8 -10    8.07    0.70
  -6   8 -11    0.42    0.27
  -6   8 -11    0.38    0.28
  -6   8 -11    0.30    0.29
  -6   8 -12    1.03    0.24
  -6   8 -12    0.86    0.25
   6  -7  -7    0.51    0.25
   6  -7  -6    2.50    0.33
   6  -7  -6    2.27    0.33
   6  -7  -6    2.98    0.43
   6  -7  -5    6.55    0.62
   6  -7  -5    5.83    0.63
   6  -7  -5    6.98    0.61
   6  -7  -4    2.68    0.42
   6  -7  -4    3.09    0.46
   6  -7  -3    6.38    0.65
   6  -7  -3    7.72    0.68
   6  -7  -2   -0.27    0.53
   6  -7  -2   -0.40    0.31
   6  -7  -2   -0.47    0.68
  -6   7   2   -0.19    0.27
  -6   7   2   -0.17    0.57
   6  -7  -1   32.06    2.53
   6  -7  -1   28.88    1.87
  -6   7   1   32.52    2.15
  -6   7   1   34.42    2.68
   6  -7  -1   28.81    1.87
   6  -7   0   92.53    5.69
   6  -7   0   82.23    4.95
  -6   7   0   99.50    5.29
  -6   7   0  105.63    5.91
   6  -7   0   82.33    4.96
   6  -7   1   12.06    0.83
  -6   7  -1   13.82    1.11
  -6   7  -1   13.08    1.46
   6  -7   2    1.43    0.30
  -6   7  -2    0.74    0.38
  -6   7  -3   29.02    1.97
   6  -7   3   26.50    1.67
  -6   7  -4    2.63    0.52
  -6   7  -4    3.02    0.40
  -6   7  -5   52.25    3.09
   6  -7   5   53.67    3.77
  -6   7  -5   52.88    3.17
  -6   7  -5   54.43    3.14
  -6   7  -5   53.28    3.39
  -6   7  -6    7.62    0.89
  -6   7  -6    9.92    0.73
   6  -7   6   10.53    1.29
  -6   7  -6    9.60    0.80
  -6   7  -6    9.56    0.80
  -6   7  -7  226.56   12.44
  -6   7  -7  221.27   12.37
  -6   7  -7  231.75   12.43
  -6   7  -7  226.68   12.44
  -6   7  -7  211.83   12.34
  -6   7  -8   -0.03    0.28
  -6   7  -8    0.22    0.31
  -6   7  -8    0.08    0.31
  -6   7  -8    0.03    0.24
  -6   7  -8    0.45    0.35
  -6   7  -9   20.12    1.32
  -6   7  -9   20.31    1.35
  -6   7  -9   20.56    1.37
  -6   7  -9   18.27    1.25
  -6   7 -10    0.53    0.28
  -6   7 -10    0.11    0.29
  -6   7 -10    0.30    0.24
  -6   7 -11    1.65    0.33
  -6   7 -11    1.47    0.32
  -6   7 -11    0.92    0.22
  -6   7 -11    1.34    0.32
  -6   7 -11    1.38    0.28
  -6   7 -12    2.15    0.30
  -6   7 -12    1.87    0.30
  -6   7 -12    2.23    0.30
  -6   7 -13    0.16    0.15
   6  -6  -9    0.78    0.22
   6  -6  -8    2.00    0.28
   6  -6  -7    8.22    0.62
   6  -6  -7    8.97    0.70
   6  -6  -6    2.47    0.39
   6  -6  -6    2.46    0.39
   6  -6  -6    2.82    0.32
   6  -6  -6    3.27    0.47
   6  -6  -5   14.01    1.02
   6  -6  -5   14.05    0.91
   6  -6  -5   13.72    0.88
   6  -6  -5   11.40    1.00
   6  -6  -5   13.41    0.99
   6  -6  -4    8.87    0.77
   6  -6  -4    7.70    0.58
   6  -6  -4    8.39    0.73
   6  -6  -3   30.90    1.71
   6  -6  -3   24.86    1.80
   6  -6  -3   27.52    2.45
   6  -6  -3   29.66    1.85
   6  -6  -2   10.69    0.67
   6  -6  -2   11.40    1.28
   6  -6  -2    9.84    0.79
  -6   6   2    8.68    0.74
  -6   6   2    9.67    0.93
  -6   6   2    7.16    1.14
   6  -6  -1    3.46    0.44
  -6   6   1    3.10    0.55
   6  -6  -1    4.77    0.35
   6  -6  -1    4.85    0.84
   6  -6  -1    2.79    0.42
  -6   6   1    4.09    0.83
   6  -6   0   17.09    1.66
   6  -6   0   18.21    1.16
  -6   6   0   19.49    1.39
  -6   6   0   16.35    1.67
   6  -6   0   15.58    1.13
   6  -6   1    0.85    0.27
  -6   6  -1    0.95    0.39
   6  -6   1    0.12    0.52
   6  -6   1    1.11    0.27
  -6   6  -1    0.64    0.55
   6  -6   2   26.14    2.05
   6  -6   2   23.25    1.47
   6  -6   3   23.40    2.14
  -6   6  -3   29.08    1.93
   6  -6   4   31.40    2.53
  -6   6  -4   32.39    1.99
  -6   6  -4   34.24    2.23
  -6   6  -5    3.31    0.43
  -6   6  -5    3.25    0.55
  -6   6  -5    3.40    0.40
   6  -6   5    2.31    0.70
  -6   6  -5    3.60    0.46
  -6   6  -6   -0.13    0.27
  -6   6  -6   -0.14    0.25
   6  -6   6    0.13    0.48
  -6   6  -6   -0.08    0.29
  -6   6  -6   -0.08    0.23
  -6   6  -6    0.04    0.28
  -6   6  -7  289.38   16.22
  -6   6  -7  289.29   16.25
  -6   6  -7  298.88   16.25
  -6   6  -8    2.51    0.40
  -6   6  -8    2.61    0.41
  -6   6  -8    2.20    0.43
  -6   6  -8    1.59    0.34
  -6   6  -9    1.18    0.32
  -6   6  -9    1.05    0.32
  -6   6  -9    1.23    0.34
  -6   6  -9    0.84    0.26
  -6   6  -9    0.44    0.29
  -6   6 -10    0.29    0.31
  -6   6 -10    0.84    0.34
  -6   6 -10    1.14    0.28
  -6   6 -10    0.64    0.33
  -6   6 -10    0.57    0.29
  -6   6 -11   14.34    1.01
  -6   6 -11   14.68    1.02
  -6   6 -11   14.34    0.94
  -6   6 -11   15.23    0.98
  -6   6 -11   14.56    1.02
  -6   6 -11   16.59    1.02
  -6   6 -12    0.47    0.22
  -6   6 -12   -0.09    0.22
  -6   6 -12   -0.02    0.20
  -6   6 -12    0.28    0.17
  -6   6 -12    0.34    0.22
  -6   6 -13    0.17    0.16
   6  -5 -10    0.15    0.18
   6  -5  -9    3.13    0.35
   6  -5  -9    3.04    0.29
   6  -5  -8   -0.02    0.20
   6  -5  -8    0.03    0.25
   6  -5  -7    1.91    0.31
   6  -5  -7    1.81    0.32
   6  -5  -7    1.78    0.28
   6  -5  -7    2.48    0.42
   6  -5  -7    1.73    0.27
   6  -5  -6    1.69    0.34
   6  -5  -6    1.03    0.33
   6  -5  -6    1.32    0.26
   6  -5  -6    1.28    0.39
   6  -5  -6    1.11    0.27
   6  -5  -5    0.75    0.33
   6  -5  -5    0.61    0.35
   6  -5  -5    0.60    0.22
   6  -5  -5    0.19    0.32
   6  -5  -5    1.40    0.65
   6  -5  -4    8.14    0.75
   6  -5  -4    8.87    0.61
   6  -5  -4    8.78    1.22
   6  -5  -4    8.05    0.72
   6  -5  -3   35.04    1.80
   6  -5  -3   27.62    2.30
   6  -5  -3   24.93    1.85
   6  -5  -3   31.41    2.50
  -6   5   3   30.58    2.04
   6  -5  -3   28.87    1.88
  -6   5   2    0.19    0.29
   6  -5  -2    0.36    0.17
   6  -5  -2    0.12    0.44
   6  -5  -2    0.38    0.27
  -6   5   2    0.49    0.26
   6  -5  -1    1.21    0.30
  -6   5   1    1.32    0.38
   6  -5  -1    1.86    0.62
   6  -5  -1    1.23    0.29
  -6   5   1    1.74    0.56
   6  -5   0   74.72    5.09
  -6   5   0   82.13    4.84
  -6   5   0   84.90    5.13
  -6   5  -1   24.25    1.69
  -6   5  -1   22.78    1.89
   6  -5   2    4.48    0.81
   6  -5   3   20.29    1.81
  -6   5  -3   21.46    1.54
   6  -5   4   37.29    2.78
  -6   5  -4   37.49    2.26
  -6   5  -4   37.46    2.24
  -6   5  -4   36.31    2.22
  -6   5  -4   40.48    2.47
  -6   5  -5   24.13    1.55
   6  -5   5   26.65    2.08
  -6   5  -5   25.71    1.55
  -6   5  -5   24.59    1.56
  -6   5  -5   21.65    1.49
  -6   5  -5   25.38    1.73
  -6   5  -5   25.81    1.52
  -6   5  -6    6.00    0.55
  -6   5  -6    5.95    0.57
  -6   5  -6    6.57    0.60
  -6   5  -6    8.27    0.61
  -6   5  -6    5.84    0.68
  -6   5  -6    7.38    0.63
  -6   5  -7   51.18    2.92
  -6   5  -7   46.93    2.93
  -6   5  -7   50.96    2.96
  -6   5  -7   49.33    2.96
  -6   5  -8   16.26    1.13
  -6   5  -8   16.26    1.15
  -6   5  -8   17.15    1.17
  -6   5  -9    7.41    0.65
  -6   5  -9    6.29    0.66
  -6   5  -9    7.71    0.66
  -6   5 -10    6.80    0.64
  -6   5 -10    7.38    0.65
  -6   5 -10    7.36    0.58
  -6   5 -10    6.99    0.66
  -6   5 -10    8.27    0.67
  -6   5 -11    1.40    0.32
  -6   5 -11    1.09    0.29
  -6   5 -11    1.17    0.22
  -6   5 -11    1.28    0.29
  -6   5 -11    1.52    0.31
  -6   5 -11    1.03    0.28
  -6   5 -12    0.74    0.25
  -6   5 -12    0.80    0.21
  -6   5 -12    0.99    0.22
  -6   5 -12    1.03    0.24
   6  -4 -10    0.12    0.18
   6  -4  -9    1.39    0.25
   6  -4  -9    0.82    0.25
   6  -4  -9    1.24    0.21
   6  -4  -8    5.37    0.47
   6  -4  -8    5.10    0.52
   6  -4  -8    5.08    0.45
   6  -4  -7    0.94    0.28
   6  -4  -7    0.88    0.30
   6  -4  -7    0.53    0.23
   6  -4  -7    0.56    0.33
   6  -4  -7    0.62    0.24
   6  -4  -6    2.65    0.44
   6  -4  -6    3.62    0.35
   6  -4  -6    3.01    0.43
   6  -4  -6    3.09    0.47
   6  -4  -6    2.91    0.75
   6  -4  -5    2.79    0.42
   6  -4  -5    2.81    0.31
   6  -4  -5    2.49    0.44
   6  -4  -5    2.48    0.77
   6  -4  -5    3.14    0.45
   6  -4  -4   18.61    1.23
   6  -4  -4   18.22    1.09
   6  -4  -4   15.07    1.63
   6  -4  -4   15.56    1.16
   6  -4  -3   15.74    0.96
   6  -4  -3   13.09    1.38
   6  -4  -3   14.73    1.04
   6  -4  -3   14.45    1.49
  -6   4   3   14.74    1.18
   6  -4  -3   15.23    1.04
  -6   4   2    3.83    0.53
   6  -4  -2    3.31    0.68
   6  -4  -2    3.11    0.39
   6  -4  -1   22.41    1.85
  -6   4   1   21.69    1.75
  -6   4   1   22.15    1.58
   6  -4   0  169.75    9.72
  -6   4   0  160.13    9.53
  -6   4   0  165.30    9.41
   6  -4   1  237.85   13.69
  -6   4  -2  137.79    7.92
   6  -4   2  136.73    8.20
  -6   4  -3    0.12    0.31
   6  -4   3    0.11    0.48
   6  -4   4  101.08    6.15
  -6   4  -4   97.74    5.65
  -6   4  -4  104.94    5.88
  -6   4  -5    1.48    0.36
  -6   4  -5    1.50    0.28
   6  -4   5    0.74    0.47
  -6   4  -5    1.70    0.31
  -6   4  -5    2.14    0.35
  -6   4  -5    1.61    0.31
  -6   4  -6   17.30    1.12
  -6   4  -6   17.08    1.06
  -6   4  -6   15.52    1.08
  -6   4  -6   14.19    1.07
  -6   4  -6   15.00    1.08
  -6   4  -7    2.52    0.36
  -6   4  -7    2.10    0.38
  -6   4  -7    2.33    0.37
  -6   4  -7    2.55    0.41
  -6   4  -7    2.56    0.41
  -6   4  -8   40.68    2.50
  -6   4  -8   43.44    2.54
  -6   4  -9    1.49    0.23
  -6   4  -9    2.21    0.38
  -6   4  -9    1.35    0.34
  -6   4  -9    2.07    0.33
  -6   4  -9    1.68    0.39
  -6   4  -9    2.26    0.39
  -6   4 -10    1.84    0.37
  -6   4 -10    2.09    0.36
  -6   4 -10    1.91    0.31
  -6   4 -10    2.49    0.39
  -6   4 -10    2.50    0.40
  -6   4 -11    4.90    0.45
  -6   4 -11    3.31    0.38
  -6   4 -11    4.07    0.43
  -6   4 -11    3.84    0.44
  -6   4 -12    3.32    0.36
  -6   4 -12    5.09    0.39
   6  -3 -11    1.72    0.21
   6  -3 -11    1.81    0.29
   6  -3 -10    0.41    0.23
   6  -3  -9    1.77    0.30
   6  -3  -9    1.44    0.29
   6  -3  -9    1.41    0.27
   6  -3  -8    1.01    0.25
   6  -3  -8    0.95    0.30
   6  -3  -8    1.45    0.29
   6  -3  -7   -0.03    0.26
   6  -3  -7    0.10    0.27
   6  -3  -7    0.09    0.22
   6  -3  -7    0.26    0.30
   6  -3  -7    0.06    0.25
   6  -3  -6    2.15    0.37
   6  -3  -6    2.76    0.42
   6  -3  -6    2.82    0.32
   6  -3  -6    1.11    0.37
   6  -3  -6    1.30    0.67
   6  -3  -5   63.11    3.73
   6  -3  -5   69.71    3.64
   6  -3  -5   57.99    3.71
   6  -3  -5   63.07    4.29
   6  -3  -5   62.02    3.70
   6  -3  -4   17.63    1.23
   6  -3  -4   19.63    1.13
   6  -3  -4   17.72    1.54
   6  -3  -4   16.65    1.20
   6  -3  -4   16.53    1.63
  -6   3   4   17.09    1.34
   6  -3  -4   19.44    1.22
   6  -3  -3   10.39    1.17
   6  -3  -3   11.25    1.21
  -6   3   3   12.03    1.00
   6  -3  -2   21.34    1.82
  -6   3   2   23.82    1.63
  -6   3   1    4.68    0.60
   6  -3  -1    4.18    0.74
  -6   3   1    4.44    0.60
  -6   3   0    9.67    0.91
   6  -3   1   84.07    5.24
   6  -3   2   77.04    4.98
  -6   3  -2   81.64    4.78
   6  -3   3   30.66    2.27
  -6   3  -3   30.47    2.06
   6  -3   4    4.84    0.79
  -6   3  -4    5.75    0.65
  -6   3  -5   10.61    0.71
   6  -3   5   10.06    1.06
  -6   3  -5   10.78    0.78
  -6   3  -5    8.61    0.84
  -6   3  -5    8.81    0.74
  -6   3  -6    0.99    0.27
  -6   3  -6    0.70    0.29
  -6   3  -6    1.11    0.33
  -6   3  -6    1.05    0.33
  -6   3  -7    2.21    0.35
  -6   3  -7    1.97    0.33
  -6   3  -7    1.91    0.36
  -6   3  -7    2.21    0.42
  -6   3  -8   85.47    4.85
  -6   3  -8   86.92    4.86
  -6   3  -8   80.54    4.83
  -6   3  -8   83.94    4.89
  -6   3  -8   89.39    4.89
  -6   3  -8   84.14    4.77
  -6   3  -9   12.12    0.76
  -6   3  -9   12.36    0.87
  -6   3  -9   11.85    0.85
  -6   3  -9   10.19    0.81
  -6   3  -9   11.28    0.88
  -6   3  -9   11.32    0.89
  -6   3  -9   11.27    0.89
  -6   3 -10    1.40    0.22
  -6   3 -10    1.78    0.33
  -6   3 -10    1.24    0.25
  -6   3 -10    1.16    0.32
  -6   3 -10    1.20    0.32
  -6   3 -11   10.97    0.83
  -6   3 -11   13.88    0.87
  -6   3 -11   13.11    0.88
  -6   3 -12    1.41    0.23
  -6   3 -12    1.55    0.24
   6  -2 -12    8.20    0.53
   6  -2 -12    6.55    0.49
   6  -2 -11   14.08    0.96
   6  -2 -11   13.23    0.89
   6  -2 -10    0.19    0.29
   6  -2 -10    0.16    0.21
   6  -2  -9    7.88    0.59
   6  -2  -9    6.79    0.61
   6  -2  -9    7.46    0.60
   6  -2  -8    5.43    0.46
   6  -2  -8    4.80    0.51
   6  -2  -8    4.35    0.48
   6  -2  -7    2.99    0.41
   6  -2  -7    3.25    0.44
   6  -2  -7    3.54    0.38
   6  -2  -7    3.92    0.49
   6  -2  -7    4.58    0.45
   6  -2  -6   59.45    3.45
   6  -2  -6   62.14    3.37
   6  -2  -6   56.38    4.01
   6  -2  -6   55.80    3.44
   6  -2  -6   57.29    3.42
   6  -2  -5   31.99    1.87
   6  -2  -5   30.97    1.77
   6  -2  -5   31.54    1.86
   6  -2  -5   26.34    2.25
   6  -2  -5   27.94    1.78
   6  -2  -5   28.50    1.83
   6  -2  -4   16.93    1.12
   6  -2  -4   14.12    1.36
   6  -2  -4   17.67    1.11
   6  -2  -4   16.04    1.47
  -6   2   4   14.61    1.24
  -6   2   3    0.51    0.34
   6  -2  -3    0.80    0.44
   6  -2  -3   -0.27    0.46
   6  -2  -2  207.68   11.66
  -6   2   2  198.71   11.48
   6  -2  -1  361.10   20.60
  -6   2   1  372.09   20.12
  -6   2   1  347.54   20.41
  -6   2   0   62.88    3.39
  -6   2   0   50.43    3.62
   6  -2   1  696.64   37.12
  -6   2  -1  679.33   36.63
  -6   2  -1  611.58   36.90
   6  -2   2   54.47    3.40
  -6   2  -2   49.43    3.21
   6  -2   3   40.91    2.77
  -6   2  -3   40.00    2.61
   6  -2   4   12.36    1.19
  -6   2  -4   12.89    1.06
  -6   2  -5    8.45    0.64
  -6   2  -5    9.86    0.72
  -6   2  -5    9.07    0.73
  -6   2  -5    9.08    0.71
  -6   2  -5    8.97    0.80
  -6   2  -6    0.13    0.22
  -6   2  -6    0.41    0.29
  -6   2  -6   -0.32    0.30
  -6   2  -6    0.07    0.31
  -6   2  -7    4.24    0.44
  -6   2  -7    3.46    0.41
  -6   2  -7    2.93    0.68
  -6   2  -7    3.18    0.46
  -6   2  -8   25.90    1.61
  -6   2  -8   25.63    1.67
  -6   2  -8   26.71    1.67
  -6   2  -8   28.08    1.73
  -6   2  -8   28.84    1.76
  -6   2  -8   27.55    1.73
  -6   2  -9    2.50    0.30
  -6   2  -9    1.92    0.35
  -6   2  -9    2.08    0.32
  -6   2  -9    3.22    0.44
  -6   2  -9    2.55    0.43
  -6   2 -10    0.81    0.19
  -6   2 -10    0.58    0.26
  -6   2 -10    1.01    0.22
  -6   2 -10    0.52    0.29
  -6   2 -10    1.08    0.32
  -6   2 -10    1.24    0.31
  -6   2 -11    4.44    0.35
  -6   2 -11    5.42    0.46
  -6   2 -11    5.42    0.46
  -6   2 -12    0.98    0.19
   6  -1 -12    2.67    0.34
   6  -1 -12    2.75    0.30
   6  -1 -12    1.85    0.25
   6  -1 -11    5.68    0.48
   6  -1 -11    4.96    0.50
   6  -1 -10    7.99    0.58
   6  -1 -10    6.93    0.66
   6  -1 -10    6.72    0.58
   6  -1  -9   17.22    1.09
   6  -1  -9   16.26    1.11
   6  -1  -9   17.14    1.14
   6  -1  -8   74.46    4.29
   6  -1  -8   74.41    4.28
   6  -1  -7    0.21    0.24
   6  -1  -7    0.40    0.29
   6  -1  -7    0.51    0.27
   6  -1  -6   71.24    3.94
   6  -1  -6   68.69    3.86
   6  -1  -6   62.46    4.38
   6  -1  -6   65.63    3.92
   6  -1  -6   67.19    3.90
   6  -1  -5    9.69    0.73
   6  -1  -5    9.64    0.96
   6  -1  -5    9.67    0.73
   6  -1  -5    9.31    1.04
   6  -1  -5    8.52    0.70
  -6   1   5    9.17    0.88
   6  -1  -4  166.38    9.75
   6  -1  -4  176.53    9.79
  -6   1   4  164.29    9.63
   6  -1  -3   18.25    1.53
  -6   1   3   19.36    1.18
   6  -1  -3   18.90    1.48
   6  -1  -2   22.50    1.73
  -6   1   2   21.89    1.35
  -6   1   2   24.02    1.71
   6  -1  -1  176.41   10.05
  -6   1   1  178.86    9.86
  -6   1   1  176.16   10.23
   6  -1   0    6.34    0.82
   6  -1   1  138.56    8.09
  -6   1  -1  136.66    7.65
  -6   1  -1  140.64    8.03
   6  -1   2   45.43    2.86
  -6   1  -2   41.52    2.44
   6  -1   3    3.83    0.67
  -6   1  -3    5.21    0.41
   6  -1   4    8.70    0.94
  -6   1  -4    9.81    0.74
  -6   1  -4   10.36    0.75
  -6   1  -4    7.52    0.84
  -6   1  -5   16.03    1.10
  -6   1  -5   16.81    1.14
  -6   1  -5   18.47    1.20
  -6   1  -5   20.17    1.22
  -6   1  -6   13.70    0.93
  -6   1  -6   13.65    0.95
  -6   1  -6   12.83    1.28
  -6   1  -6   14.17    1.03
  -6   1  -6   13.64    1.00
  -6   1  -7   16.31    0.98
  -6   1  -7   13.47    0.99
  -6   1  -7   14.07    1.07
  -6   1  -7   14.40    1.03
  -6   1  -7   15.49    1.12
  -6   1  -7   16.12    1.10
  -6   1  -8    0.04    0.21
  -6   1  -8   -0.25    0.27
  -6   1  -8   -0.09    0.24
  -6   1  -8    0.16    0.30
  -6   1  -8   -0.16    0.33
  -6   1  -9    1.91    0.39
  -6   1  -9    1.89    0.28
  -6   1  -9    2.06    0.30
  -6   1  -9    2.12    0.40
  -6   1  -9    1.86    0.37
  -6   1 -10    5.28    0.43
  -6   1 -10    5.78    0.54
  -6   1 -10    6.10    0.55
  -6   1 -10    5.52    0.50
  -6   1 -11    1.52    0.18
  -6   1 -11    2.13    0.27
  -6   1 -11    1.91    0.26
   6   0 -13    0.34    0.16
   6   0 -12    1.50    0.32
   6   0 -12    1.06    0.25
   6   0 -12    1.02    0.25
   6   0 -11   52.45    2.95
   6   0 -11   53.86    3.08
   6   0 -11   50.61    3.01
   6   0 -11   48.64    2.96
   6   0 -10    6.97    0.55
   6   0 -10    6.75    0.59
   6   0 -10    6.40    0.70
   6   0 -10    6.08    0.65
   6   0  -9    0.11    0.21
   6   0  -9   -0.09    0.27
   6   0  -8   29.12    1.76
   6   0  -8   30.24    1.82
   6   0  -7    0.53    0.25
   6   0  -7    0.42    0.20
   6   0  -7    0.09    0.26
   6   0  -7   -0.02    0.19
   6   0  -6   39.09    2.14
   6   0  -6   37.20    2.17
   6   0  -6   34.33    2.20
   6   0  -6   35.50    2.19
   6   0  -5   53.73    3.42
   6   0  -5   54.07    3.46
  -6   0   5   53.39    3.06
   6   0  -4    1.04    0.42
  -6   0   4    1.54    0.49
   6   0  -4    1.45    0.41
  -6   0   4    1.42    0.25
  -6   0   3   65.87    3.98
   6   0  -3   64.64    3.97
   6   0  -3   59.74    3.78
  -6   0   3   63.00    3.58
  -6   0   2   37.27    2.51
   6   0  -2   39.09    2.41
   6   0  -2   35.66    2.48
   6   0  -2   33.42    2.25
  -6   0   2   36.82    2.12
  -6   0   1    0.48    0.40
  -6   0   1    0.49    0.22
  -6   0   0   85.93    5.12
   6   0   0   85.90    5.11
  -6   0   0   82.94    4.72
  -6   0  -1   23.41    1.75
   6   0   1   22.62    1.71
  -6   0  -1   22.10    1.36
   6   0   2   11.51    1.20
  -6   0  -2   13.39    1.23
   6   0   3   12.64    1.15
  -6   0  -3   12.76    0.83
  -6   0  -3   12.32    1.14
  -6   0  -4    0.24    0.27
  -6   0  -4    0.07    0.26
  -6   0  -4    0.62    0.31
  -6   0  -4   -0.03    0.27
  -6   0  -5   10.49    0.79
  -6   0  -5   10.76    0.85
  -6   0  -5   11.18    0.85
  -6   0  -5   10.53    0.83
  -6   0  -6    4.19    0.47
  -6   0  -6    3.84    0.51
  -6   0  -6    4.91    0.55
  -6   0  -6    3.54    0.48
  -6   0  -7    8.33    0.64
  -6   0  -7    9.04    0.69
  -6   0  -7    9.21    0.80
  -6   0  -7    8.99    0.75
  -6   0  -8   -0.08    0.33
  -6   0  -8    0.02    0.22
  -6   0  -8    0.11    0.25
  -6   0  -9    2.53    0.31
  -6   0  -9    2.84    0.32
  -6   0  -9    3.67    0.46
  -6   0  -9    2.74    0.43
  -6   0  -9    2.81    0.38
  -6   0 -10    2.15    0.26
  -6   0 -10    2.40    0.35
  -6   0 -10    1.65    0.33
  -6   0 -10    2.65    0.31
  -6   0 -11    0.02    0.16
  -6   0 -11    0.15    0.14
   6   1 -13    1.27    0.26
   6   1 -13    1.09    0.20
   6   1 -13    1.22    0.19
   6   1 -12   -0.42    0.31
   6   1 -12    0.20    0.23
   6   1 -12    0.15    0.26
   6   1 -11  134.55    7.22
   6   1 -11  131.76    7.35
   6   1 -11  122.18    7.28
   6   1 -11  128.26    7.29
   6   1 -11  127.52    7.25
   6   1 -10    1.09    0.39
   6   1 -10    0.90    0.24
   6   1 -10    0.69    0.38
   6   1  -9    0.11    0.20
   6   1  -8    1.52    0.40
   6   1  -8    1.61    0.26
   6   1  -8    1.27    0.28
   6   1  -8    1.12    0.32
   6   1  -7   21.55    1.27
   6   1  -7   20.77    1.33
   6   1  -7   21.84    1.32
   6   1  -7   19.55    1.32
   6   1  -7   20.16    1.31
   6   1  -6   70.02    3.91
   6   1  -6   74.09    3.98
   6   1  -6   66.76    3.98
  -6  -1   6   73.23    4.35
   6   1  -6   65.85    3.96
  -6  -1   5    9.52    1.03
   6   1  -5    8.33    0.96
  -6  -1   5   10.24    0.69
   6   1  -4    3.80    0.61
   6   1  -4    4.22    0.67
  -6  -1   4    4.84    0.72
  -6  -1   4    3.81    0.38
   6   1  -3   69.95    4.25
  -6  -1   3   68.68    4.31
   6   1  -3   76.59    4.31
  -6  -1   3   66.22    3.89
   6   1  -2    0.67    0.43
  -6  -1   2    0.44    0.43
   6   1  -1   48.00    3.11
  -6  -1   0   26.34    2.02
   6   1   0   28.52    2.00
   6   1   1    3.94    0.63
  -6  -1  -1    4.99    0.74
  -6  -1  -1    4.36    0.41
   6   1   2   -0.08    0.34
  -6  -1  -2    0.34    0.37
  -6  -1  -2    0.17    0.20
  -6  -1  -3   57.82    3.24
  -6  -1  -3   53.61    3.17
  -6  -1  -3   56.43    3.27
  -6  -1  -3   58.00    3.26
  -6  -1  -3   51.35    3.51
  -6  -1  -4   13.51    0.92
  -6  -1  -4   13.45    0.98
  -6  -1  -4   11.68    0.93
  -6  -1  -4   11.91    0.92
  -6  -1  -5    2.25    0.37
  -6  -1  -5    3.28    0.48
  -6  -1  -5    2.89    0.45
  -6  -1  -5    1.80    0.39
  -6  -1  -6    3.74    0.43
  -6  -1  -6    3.76    0.53
  -6  -1  -6    2.21    0.48
  -6  -1  -6    3.12    0.47
  -6  -1  -7    6.33    0.54
  -6  -1  -7    6.40    0.68
  -6  -1  -7    6.49    0.58
  -6  -1  -7    6.62    0.67
  -6  -1  -7    6.68    0.61
  -6  -1  -8    0.25    0.21
  -6  -1  -8   -0.02    0.22
  -6  -1  -8    0.08    0.33
  -6  -1  -9    1.40    0.25
  -6  -1  -9    1.74    0.36
  -6  -1  -9    2.19    0.37
  -6  -1  -9    1.70    0.30
  -6  -1 -10    4.67    0.37
  -6  -1 -10    4.98    0.46
  -6  -1 -10    4.57    0.39
   6   2 -13    5.76    0.48
   6   2 -13    4.54    0.41
   6   2 -13    5.65    0.44
   6   2 -12    1.12    0.34
   6   2 -12    0.60    0.27
   6   2 -12    0.96    0.30
   6   2 -11   70.54    3.94
   6   2 -11   72.87    4.08
   6   2 -11   66.23    4.01
   6   2 -11   67.55    4.03
   6   2 -10    0.02    0.20
   6   2 -10    0.36    0.34
   6   2 -10    0.04    0.33
   6   2 -10    0.35    0.28
   6   2  -9    8.50    0.58
   6   2  -9    7.32    0.73
   6   2  -9    8.32    0.74
   6   2  -9    7.02    0.64
   6   2  -8   26.91    1.67
   6   2  -8   27.19    1.71
   6   2  -8   27.87    1.80
   6   2  -8   31.98    1.75
   6   2  -8   27.99    1.75
   6   2  -7    0.28    0.18
   6   2  -7    0.14    0.29
   6   2  -7    0.18    0.21
   6   2  -7   -0.19    0.22
   6   2  -7    0.08    0.23
  -6  -2   6   35.75    2.43
   6   2  -6   34.71    1.96
   6   2  -6   31.98    2.01
   6   2  -6   31.93    2.04
  -6  -2   6   32.98    2.00
   6   2  -6   32.01    2.05
   6   2  -6   38.72    2.05
   6   2  -5    1.30    0.45
  -6  -2   5    1.44    0.50
   6   2  -4    8.46    0.96
  -6  -2   4    8.13    0.97
   6   2  -3   70.71    4.41
  -6  -2   3   68.98    4.38
   6   2  -3   81.33    4.37
  -6  -2   3   65.45    3.94
   6   2  -2    2.36    0.62
  -6  -2   2    3.98    0.73
  -6  -2   2    3.98    0.40
  -6  -2   1   55.27    3.56
   6   2  -1   58.93    3.47
  -6  -2   1   51.63    3.09
  -6  -2   0   37.18    2.52
  -6  -2   0   33.62    2.05
  -6  -2  -1    2.24    0.58
  -6  -2  -2    5.33    0.50
  -6  -2  -2    4.11    0.71
  -6  -2  -2    5.13    0.44
  -6  -2  -2    4.33    0.50
  -6  -2  -2    5.51    0.53
  -6  -2  -3   25.71    2.08
  -6  -2  -3   31.56    1.87
  -6  -2  -3   28.21    1.74
  -6  -2  -3   31.56    1.85
  -6  -2  -4    0.22    0.29
  -6  -2  -4   -0.41    0.36
  -6  -2  -4   -0.12    0.32
  -6  -2  -4   -0.10    0.30
  -6  -2  -5   24.36    1.46
  -6  -2  -5   22.07    1.60
  -6  -2  -5   25.70    1.55
  -6  -2  -5   23.73    1.60
  -6  -2  -5   22.32    1.53
  -6  -2  -6    8.94    0.64
  -6  -2  -6    8.47    0.79
  -6  -2  -6    8.23    0.68
  -6  -2  -6    8.08    0.79
  -6  -2  -6    7.81    0.70
  -6  -2  -7    0.22    0.35
  -6  -2  -8    0.24    0.23
  -6  -2  -9    3.24    0.31
  -6  -2  -9    3.73    0.41
  -6  -2  -9    3.20    0.32
  -6  -2 -10    0.32    0.17
   6   3 -13    4.29    0.44
   6   3 -13    4.72    0.40
   6   3 -13    4.74    0.42
   6   3 -12    0.44    0.31
   6   3 -12    0.91    0.27
   6   3 -12    1.24    0.32
   6   3 -11   16.15    1.02
   6   3 -11   16.33    1.17
   6   3 -11   15.98    1.13
   6   3 -11   16.47    1.10
   6   3 -10   58.86    3.44
   6   3 -10   63.98    3.61
   6   3 -10   58.85    3.56
   6   3 -10   64.44    3.61
   6   3 -10   59.74    3.54
   6   3  -9   52.82    3.05
   6   3  -9   57.08    3.21
   6   3  -9   50.91    3.17
   6   3  -9   55.87    3.21
   6   3  -9   54.98    3.14
   6   3  -9   51.66    3.13
   6   3  -9   53.05    3.10
   6   3  -8    0.09    0.16
   6   3  -8    0.34    0.31
   6   3  -8    0.03    0.24
   6   3  -8    0.09    0.25
   6   3  -8    0.21    0.23
   6   3  -7   13.38    0.79
   6   3  -7   11.71    1.04
  -6  -3   7   12.74    0.83
   6   3  -7   11.94    0.90
   6   3  -7   14.20    0.90
   6   3  -7   11.62    0.85
   6   3  -7    9.52    0.82
  -6  -3   6   45.64    3.01
   6   3  -6   38.37    2.52
   6   3  -6   40.72    2.52
   6   3  -6   49.27    2.54
   6   3  -6   42.40    2.49
   6   3  -5   32.77    2.41
  -6  -3   5   31.47    2.39
  -6  -3   5   31.66    1.93
   6   3  -4   10.25    1.22
  -6  -3   4   12.23    1.24
  -6  -3   4   11.18    0.81
   6   3  -3    1.31    0.60
  -6  -3   3    1.17    0.28
  -6  -3   3    1.84    0.63
   6   3  -2    2.22    0.67
  -6  -3   1   98.92    5.94
  -6  -3   1   94.27    5.39
  -6  -3   0    8.77    1.06
  -6  -3   0    7.68    0.62
  -6  -3  -1    7.87    0.63
  -6  -3  -1    7.00    0.63
  -6  -3  -1    7.75    0.60
  -6  -3  -2   15.94    1.51
  -6  -3  -2   18.06    1.19
   6   3   2   14.85    1.33
   6   3   2   18.10    1.07
  -6  -3  -2   17.56    1.18
  -6  -3  -3    1.49    0.34
  -6  -3  -4   15.21    1.01
  -6  -3  -4   16.39    1.10
  -6  -3  -4   16.51    1.21
  -6  -3  -4   14.58    1.08
  -6  -3  -5    4.37    0.41
  -6  -3  -5    3.91    0.48
  -6  -3  -5    3.60    0.57
  -6  -3  -5    3.28    0.45
  -6  -3  -6   30.17    1.84
  -6  -3  -6   31.23    2.00
  -6  -3  -6   30.06    1.98
  -6  -3  -6   31.37    1.88
  -6  -3  -7    7.84    0.60
  -6  -3  -7    8.15    0.75
  -6  -3  -7    8.84    0.75
  -6  -3  -8    2.16    0.27
  -6  -3  -8    2.38    0.38
  -6  -3  -9   -0.03    0.12
  -6  -3  -9    0.08    0.19
  -6  -3  -9    0.28    0.20
   6   4 -14   10.60    0.67
   6   4 -13    0.86    0.27
   6   4 -13    1.32    0.23
   6   4 -13    1.44    0.27
   6   4 -12    0.39    0.30
   6   4 -12    0.35    0.25
   6   4 -12    0.71    0.31
   6   4 -11    5.67    0.59
   6   4 -11    5.40    0.54
   6   4 -11    5.53    0.55
   6   4 -11    5.89    0.50
   6   4 -10  104.10    5.62
   6   4 -10  105.48    5.65
   6   4 -10   85.48    5.56
   6   4 -10  102.05    5.59
   6   4  -9   21.07    1.26
   6   4  -9   20.56    1.39
   6   4  -9   22.23    1.42
   6   4  -9   20.91    1.38
   6   4  -9   20.99    1.36
   6   4  -9   19.86    1.33
   6   4  -8    1.26    0.20
   6   4  -8    1.47    0.35
   6   4  -8    1.56    0.35
   6   4  -8    1.74    0.38
   6   4  -8    1.35    0.29
   6   4  -8    1.07    0.28
   6   4  -7   -0.13    0.19
   6   4  -7   -0.10    0.16
  -6  -4   7   -0.11    0.44
   6   4  -7    0.66    0.32
   6   4  -7   -0.03    0.25
   6   4  -7    0.03    0.24
   6   4  -7    0.13    0.20
   6   4  -6   80.38    4.54
   6   4  -6   84.35    5.26
  -6  -4   6   79.24    5.13
   6   4  -6   77.25    4.58
   6   4  -6   72.79    4.83
   6   4  -6   76.43    4.57
   6   4  -6   90.82    4.61
  -6  -4   6   80.60    4.59
   6   4  -5   15.26    0.93
   6   4  -5   11.95    1.42
  -6  -4   5   13.26    1.40
   6   4  -5   13.68    0.96
   6   4  -5   12.76    1.20
   6   4  -5   13.50    0.95
  -6  -4   5   14.58    0.99
  -6  -4   4   12.51    0.92
   6   4  -4   14.94    1.50
  -6  -4   4   12.77    1.36
  -6  -4   3   67.25    3.94
   6   4  -3   71.14    4.63
  -6  -4   3   70.41    4.53
  -6  -4   2    7.66    0.64
   6   4  -2    8.82    1.21
  -6  -4   2    7.00    1.02
   6   4  -1   87.70    4.96
   6   4  -1   91.39    4.99
  -6  -4   1   97.39    5.69
   6   4  -1   81.31    5.29
  -6  -4   1   87.34    5.05
   6   4   0   -0.04    0.19
  -6  -4   0   -0.06    0.27
  -6  -4   0    0.31    0.28
   6   4   0   -0.08    0.31
   6   4   0    0.04    0.17
  -6  -4   0   -0.25    0.57
  -6  -4   0   -0.11    0.32
  -6  -4  -1    9.69    0.77
   6   4   1    8.86    0.64
  -6  -4  -1   10.45    0.76
   6   4   1    7.72    0.87
  -6  -4  -1    8.42    1.11
   6   4   1    9.23    0.63
  -6  -4  -1    7.71    0.72
  -6  -4  -1    8.37    0.70
  -6  -4  -2    0.22    0.21
  -6  -4  -2    0.52    0.33
  -6  -4  -2    0.11    0.43
   6   4   2    0.15    0.18
  -6  -4  -2    0.28    0.36
  -6  -4  -2    0.10    0.28
  -6  -4  -3    2.06    0.31
  -6  -4  -3    2.24    0.47
  -6  -4  -3    2.16    0.39
  -6  -4  -4   42.88    2.39
  -6  -4  -4   43.06    2.60
  -6  -4  -4   41.89    2.54
  -6  -4  -4   36.40    2.42
  -6  -4  -5    2.75    0.35
  -6  -4  -5    2.57    0.52
  -6  -4  -5    2.42    0.47
  -6  -4  -5    2.41    0.36
  -6  -4  -6   41.41    2.49
  -6  -4  -6   45.10    2.65
  -6  -4  -6   43.78    2.62
  -6  -4  -7    3.71    0.36
  -6  -4  -7    3.95    0.48
  -6  -4  -7    3.22    0.45
  -6  -4  -8    0.38    0.23
  -6  -4  -8    0.23    0.22
   6   5 -14   21.02    1.25
   6   5 -13    2.30    0.28
   6   5 -13    2.66    0.34
   6   5 -12    5.21    0.48
   6   5 -12    5.24    0.45
   6   5 -11    5.31    0.55
   6   5 -11    6.88    0.62
   6   5 -10  101.17    5.76
   6   5 -10  105.09    5.80
   6   5 -10   90.84    5.75
   6   5 -10  101.62    5.73
   6   5 -10  107.12    5.74
   6   5  -9    0.60    0.32
   6   5  -9    0.15    0.29
   6   5  -9    0.38    0.33
   6   5  -9    0.32    0.24
   6   5  -9   -0.06    0.26
   6   5  -8    0.39    0.23
   6   5  -8    0.83    0.30
   6   5  -8    0.72    0.35
   6   5  -8    0.63    0.31
   6   5  -8    0.43    0.27
   6   5  -7    4.42    0.49
   6   5  -7    4.59    0.65
  -6  -5   7    4.19    0.79
   6   5  -7    5.44    0.54
  -6  -5   7    5.48    0.50
   6   5  -6    4.60    0.44
   6   5  -6    5.68    1.00
   6   5  -6    5.38    0.48
   6   5  -6    4.65    0.66
  -6  -5   6    4.32    0.85
  -6  -5   6    5.58    0.52
   6   5  -5    2.33    0.32
   6   5  -5    2.70    0.76
  -6  -5   5    3.21    0.42
   6   5  -5    2.99    0.39
   6   5  -5    2.75    0.55
   6   5  -5    2.42    0.35
  -6  -5   5    3.01    0.71
  -6  -5   4   18.80    1.26
   6   5  -4   18.59    1.19
   6   5  -4   19.26    1.91
  -6  -5   4   17.58    1.71
   6   5  -4   19.73    1.23
   6   5  -4   14.96    1.42
   6   5  -4   20.37    1.24
   6   5  -3    2.16    0.31
   6   5  -3    3.60    0.86
   6   5  -3    1.96    0.34
   6   5  -3    3.12    0.55
   6   5  -3    2.62    0.32
   6   5  -3    2.13    0.27
   6   5  -2    1.53    0.26
   6   5  -2    1.86    0.85
  -6  -5   2    2.28    0.37
  -6  -5   2    1.98    0.65
   6   5  -2    1.84    0.32
   6   5  -2    1.35    0.27
   6   5  -2    1.47    0.44
   6   5  -1    0.49    0.35
   6   5  -1    0.59    0.23
   6   5  -1    1.74    0.71
  -6  -5   1    0.37    0.29
   6   5  -1    0.95    0.23
   6   5  -1    0.13    0.23
  -6  -5   1    0.60    0.34
  -6  -5   1    0.40    0.56
   6   5   0   21.63    1.52
  -6  -5   0   26.66    2.21
   6   5   0   28.05    1.53
   6   5   0   22.11    1.82
  -6  -5   0   27.52    1.67
  -6  -5   0   27.09    1.61
  -6  -5   0   24.28    1.60
  -6  -5  -1    0.73    0.23
  -6  -5  -1    0.98    0.29
   6   5   1    0.40    0.32
  -6  -5  -1    1.53    0.63
   6   5   1    0.48    0.22
  -6  -5  -1    1.33    0.38
  -6  -5  -1    0.86    0.33
  -6  -5  -2    0.77    0.24
  -6  -5  -2    0.39    0.35
  -6  -5  -2    0.61    0.30
  -6  -5  -3   16.43    1.02
  -6  -5  -3   14.06    1.16
  -6  -5  -4   34.95    2.11
  -6  -5  -4   36.79    2.34
  -6  -5  -4   37.58    2.28
  -6  -5  -5    1.96    0.28
  -6  -5  -5    1.62    0.41
  -6  -5  -5    2.20    0.44
  -6  -5  -6    8.59    0.73
  -6  -5  -6    8.17    0.59
   6   5   6    8.85    0.60
  -6  -5  -6    8.00    0.69
  -6  -5  -7   -0.17    0.22
   6   6 -14    2.89    0.28
   6   6 -13    3.35    0.32
   6   6 -13    3.59    0.33
   6   6 -12    0.14    0.22
   6   6 -12    0.19    0.24
   6   6 -12    0.18    0.26
   6   6 -11   14.28    1.01
   6   6 -11   14.69    1.04
   6   6 -10   19.49    1.26
   6   6 -10   19.26    1.28
   6   6 -10   16.10    1.25
   6   6 -10   19.18    1.24
   6   6  -9   57.74    3.11
   6   6  -9   52.32    3.11
   6   6  -9   48.27    3.13
   6   6  -9   50.72    3.07
  -6  -6   8    3.43    0.43
   6   6  -8    3.31    0.55
   6   6  -8    2.47    0.41
   6   6  -8    3.72    0.46
   6   6  -8    2.87    0.47
   6   6  -8    3.08    0.41
  -6  -6   7   40.35    2.98
   6   6  -7   36.17    2.22
   6   6  -7   42.28    2.36
   6   6  -7   38.08    2.66
   6   6  -7   40.20    2.33
  -6  -6   7   39.08    2.35
   6   6  -6    1.51    0.75
  -6  -6   6    2.01    0.36
   6   6  -6    1.08    0.44
   6   6  -6    2.00    0.32
   6   6  -6    1.53    0.23
   6   6  -6    1.56    0.34
  -6  -6   6    0.57    0.53
  -6  -6   5    5.79    0.99
  -6  -6   5    5.90    0.58
   6   6  -5    5.34    1.06
   6   6  -5    6.22    0.81
   6   6  -5    5.55    0.55
   6   6  -5    5.92    0.47
   6   6  -5    5.84    0.56
  -6  -6   4    0.14    0.59
   6   6  -4    0.18    0.66
  -6  -6   4    0.03    0.29
   6   6  -4    0.15    0.28
   6   6  -4    0.10    0.27
   6   6  -4   -0.13    0.19
  -6  -6   3    7.15    1.07
   6   6  -3    6.71    0.57
   6   6  -3    7.46    1.24
   6   6  -3    7.84    0.63
   6   6  -3    7.94    0.88
   6   6  -3    6.47    0.59
   6   6  -3    6.68    0.52
  -6  -6   2    5.95    1.01
  -6  -6   2    5.08    0.52
   6   6  -2    3.27    1.05
   6   6  -2    4.34    0.49
   6   6  -2    4.36    0.67
  -6  -6   2    4.39    0.55
  -6  -6   1   -0.04    0.29
   6   6  -1   -0.44    0.39
   6   6  -1    0.41    0.21
  -6  -6   1    0.08    0.35
  -6  -6   1    0.36    0.29
  -6  -6   1    0.57    0.59
   6   6   0   29.38    3.02
  -6  -6   0   37.08    2.85
   6   6   0   34.55    2.53
  -6  -6   0   37.85    2.31
  -6  -6   0   38.69    2.26
  -6  -6  -1   13.86    1.03
  -6  -6  -1   12.32    0.92
  -6  -6  -2   11.58    0.79
  -6  -6  -2   12.00    0.96
  -6  -6  -3   11.19    0.90
  -6  -6  -3   10.96    0.75
  -6  -6  -4    2.73    0.32
  -6  -6  -4    3.30    0.54
  -6  -6  -4    3.18    0.45
  -6  -6  -5    1.92    0.26
   6   6   5    2.11    0.28
  -6  -6  -5    1.64    0.37
  -6  -6  -5    2.57    0.42
  -6  -6  -6    0.03    0.25
  -6  -6  -6   -0.21    0.22
  -6  -6  -7    2.42    0.23
  -6  -6  -7    1.98    0.24
   6   7 -14    0.46    0.17
   6   7 -13    8.54    0.56
   6   7 -13    7.87    0.57
   6   7 -12    5.88    0.48
   6   7 -12    5.83    0.55
   6   7 -11    9.82    0.73
   6   7 -11    9.16    0.76
   6   7 -11    9.50    0.73
   6   7 -10    1.67    0.34
   6   7 -10    2.03    0.38
   6   7 -10    1.67    0.34
   6   7  -9   23.90    1.48
   6   7  -9   24.36    1.48
   6   7  -9   18.75    1.50
   6   7  -9   22.34    1.46
   6   7  -8   27.83    1.70
   6   7  -8   26.46    1.68
   6   7  -8   23.68    1.66
  -6  -7   8   28.14    1.69
  -6  -7   7   19.11    1.21
   6   7  -7   17.05    1.92
  -6  -7   7   15.72    1.70
   6   7  -7   16.02    1.17
   6   7  -7   16.47    1.48
   6   7  -7   17.57    1.16
   6   7  -7   17.54    1.05
   6   7  -7   15.47    1.21
  -6  -7   6   20.10    1.32
   6   7  -6   17.80    1.98
  -6  -7   6   21.83    1.97
   6   7  -6   19.00    1.63
   6   7  -6   17.52    1.30
   6   7  -6   19.13    1.25
   6   7  -6   19.17    1.17
  -6  -7   5   10.07    0.83
   6   7  -5   11.94    1.55
   6   7  -5   10.58    1.11
   6   7  -5   11.72    0.87
   6   7  -5   11.70    0.74
   6   7  -4    8.93    1.53
   6   7  -4   13.25    0.93
   6   7  -4   10.63    1.16
   6   7  -4   11.23    0.91
   6   7  -4   13.70    0.84
  -6  -7   3    5.40    0.56
  -6  -7   3    3.68    0.91
   6   7  -3    4.42    0.73
   6   7  -3    6.01    0.56
   6   7  -3    4.48    0.52
   6   7  -3    5.47    0.46
  -6  -7   3    5.61    0.59
  -6  -7   2    0.15    0.58
   6   7  -2    0.63    0.81
  -6  -7   2    0.51    0.32
   6   7  -2    0.57    0.39
  -6  -7   2    0.95    0.39
   6   7  -2    0.72    0.24
  -6  -7   1    7.62    0.71
   6   7  -1    9.87    1.52
   6   7  -1    8.48    0.96
  -6  -7   1   10.30    0.81
  -6  -7   1    8.46    1.22
  -6  -7   0   39.52    2.32
  -6  -7   0   34.85    2.22
  -6  -7  -1   18.91    1.33
  -6  -7  -2    3.49    0.50
  -6  -7  -3    0.07    0.17
  -6  -7  -3    0.05    0.39
   6   7   3    0.53    0.25
  -6  -7  -3    0.11    0.31
   6   7   4   -0.11    0.19
  -6  -7  -4    0.42    0.33
  -6  -7  -4   -0.03    0.26
   6   7   5    1.76    0.22
  -6  -7  -5    2.48    0.36
  -6  -7  -5    2.18    0.29
   6   8 -13    4.91    0.33
   6   8 -13    4.64    0.29
   6   8 -12    9.86    0.67
   6   8 -12    9.25    0.72
   6   8 -11    3.17    0.40
   6   8 -11    3.06    0.37
   6   8 -11    3.92    0.44
   6   8 -10    0.91    0.30
   6   8 -10    1.18    0.34
   6   8 -10    0.88    0.30
   6   8 -10    1.62    0.32
   6   8  -9   15.89    1.05
   6   8  -9   15.68    1.06
  -6  -8   9   13.44    1.01
   6   8  -8   39.29    2.40
   6   8  -8   40.09    2.40
  -6  -8   8   39.73    2.41
  -6  -8   7   14.71    1.05
   6   8  -7   15.21    1.04
   6   8  -7   15.61    1.02
   6   8  -7   13.19    1.07
   6   8  -7   13.76    0.90
  -6  -8   6   12.27    0.93
   6   8  -6   12.66    0.90
   6   8  -6   11.18    0.76
   6   8  -6   11.64    0.93
  -6  -8   5   18.84    1.31
   6   8  -5   19.73    1.18
   6   8  -5   20.99    1.22
   6   8  -4   22.52    1.44
  -6  -8   4   24.52    1.57
  -6  -8   3    0.74    0.31
  -6  -8   3    0.53    0.36
  -6  -8   2   17.46    1.29
  -6  -8   2   22.11    1.37
  -6  -8   1    0.03    0.25
  -6  -8   1    0.04    0.34
  -6  -8   0   39.49    2.23
  -6  -8   0   33.15    2.13
   6   8   1    4.38    0.45
  -6  -8  -1    3.21    0.47
  -6  -8  -1    4.15    0.37
   6   8   2    1.59    0.31
  -6  -8  -2    1.17    0.33
  -6  -8  -3    0.81    0.36
   6   8   3    0.54    0.21
  -6  -8  -3    0.25    0.23
   6   8   4    0.10    0.15
  -6  -8  -4    0.03    0.23
  -6  -8  -4    0.33    0.18
   6   9 -13    1.18    0.20
   6   9 -13    1.10    0.22
   6   9 -12    0.37    0.17
   6   9 -12    0.34    0.23
   6   9 -11    1.24    0.26
   6   9 -11    0.91    0.30
   6   9 -11    1.22    0.26
   6   9 -10    0.72    0.16
   6   9 -10    0.50    0.28
   6   9 -10    0.30    0.23
   6   9 -10    0.12    0.25
  -6  -9   9    0.19    0.25
   6   9  -9    0.03    0.27
   6   9  -9   -0.03    0.25
   6   9  -9   -0.16    0.28
  -6  -9   8    0.07    0.26
   6   9  -8    0.36    0.27
   6   9  -8    0.24    0.26
   6   9  -8    0.10    0.30
  -6  -9   7   12.64    0.99
   6   9  -7   13.20    0.97
   6   9  -7   15.00    0.96
  -6  -9   6    0.26    0.29
   6   9  -6   -0.06    0.29
   6   9  -5    2.62    0.32
  -6  -9   5    1.63    0.40
   6   9  -4   14.36    0.91
  -6  -9   4   14.12    1.00
  -6  -9   3    1.26    0.33
   6   9  -3    1.90    0.32
  -6  -9   3    1.78    0.40
   6   9  -2   10.47    0.73
  -6  -9   2   10.26    0.80
  -6  -9   1    1.00    0.27
   6   9  -1    1.19    0.29
  -6  -9   1    1.41    0.33
  -6  -9   0    7.69    0.68
  -6  -9   0    8.89    0.61
   6   9   1    0.94    0.25
  -6  -9  -1    0.90    0.26
  -6  -9  -1    0.89    0.19
  -6  -9  -2    5.60    0.57
   6   9   2    5.78    0.46
  -6  -9  -3    0.15    0.16
   6   9   3    0.08    0.14
  -6  -9  -3   -0.05    0.21
   6  10 -13    0.50    0.14
   6  10 -13    0.33    0.14
   6  10 -12    1.88    0.26
   6  10 -11    4.00    0.40
   6  10 -11    4.08    0.38
   6  10 -10    0.41    0.25
   6  10 -10    0.39    0.14
   6  10 -10    0.18    0.21
   6  10 -10    0.46    0.24
   6  10 -10    0.43    0.25
  -6 -10   9    3.81    0.41
   6  10  -9    3.69    0.33
   6  10  -9    3.73    0.44
   6  10  -9    2.76    0.37
   6  10  -9    4.16    0.44
   6  10  -8   10.15    0.74
   6  10  -8   10.84    0.79
  -6 -10   8    9.57    0.78
  -6 -10   7    0.41    0.28
  -6 -10   7    0.41    0.30
   6  10  -7   -0.09    0.27
  -6 -10   6    7.17    0.65
  -6 -10   6    8.64    0.70
   6  10  -5    2.47    0.32
  -6 -10   5    2.63    0.40
  -6 -10   4    0.84    0.28
   6  10  -4    1.45    0.29
  -6 -10   4    1.18    0.32
  -6 -10   3   -0.15    0.23
   6  10  -3    0.15    0.22
  -6 -10   3    0.27    0.27
  -6 -10   2    0.08    0.20
   6  10  -2    0.21    0.17
   6  10  -2    0.35    0.23
   6  10  -1   -0.06    0.14
   6  10  -1    0.02    0.21
  -6 -10   1    0.08    0.19
   6  10   0    4.96    0.41
  -6 -10   0    3.70    0.34
   6  10   1    5.40    0.43
  -6 -10  -1    5.31    0.51
  -6 -10  -2    1.35    0.23
   6  10   2    0.98    0.16
   6  11 -12    2.75    0.24
   6  11 -12    1.67    0.22
   6  11 -11    0.45    0.17
   6  11 -11    0.42    0.17
   6  11 -10    0.10    0.20
   6  11 -10    0.07    0.11
   6  11 -10   -0.11    0.18
   6  11 -10    0.09    0.20
   6  11  -9    0.42    0.16
   6  11  -9    0.48    0.24
   6  11  -9    0.13    0.18
  -6 -11   9    0.29    0.18
   6  11  -9    0.54    0.22
   6  11  -8   -0.13    0.17
   6  11  -8   -0.07    0.23
  -6 -11   7    0.32    0.24
   6  11  -7    0.75    0.20
   6  11  -7    0.34    0.23
  -6 -11   6    2.46    0.36
   6  11  -6    2.38    0.32
  -6 -11   5    0.43    0.24
   6  11  -5    0.32    0.18
   6  11  -5    0.42    0.19
   6  11  -5    0.44    0.22
  -6 -11   4    0.29    0.21
   6  11  -4    0.08    0.16
   6  11  -4   -0.10    0.19
   6  11  -3    1.08    0.19
   6  11  -3    0.76    0.22
  -6 -11   3    1.06    0.25
   6  11  -2   -0.21    0.19
   6  11  -2    0.08    0.12
  -6 -11   2    0.21    0.18
   6  11  -1   -0.03    0.17
  -6 -11   1    0.24    0.15
  -6 -11   0    2.37    0.30
   6  11   0    2.27    0.24
   6  12  -9    0.39    0.16
   6  12  -9    0.39    0.13
   6  12  -8   -0.03    0.16
   6  12  -8    0.06    0.13
  -6 -12   8    0.13    0.17
  -6 -12   7    1.06    0.23
   6  12  -7    0.61    0.17
   6  12  -6    1.36    0.20
  -6 -12   6    1.66    0.26
   6  12  -6    1.16    0.20
   6  12  -5    0.48    0.16
   6  12  -5    0.21    0.14
   6  12  -4    0.15    0.12
   6  12  -4   -0.07    0.15
   6  12  -3    0.02    0.09
   6  12  -3    0.10    0.14
  -6 -12   3   -0.14    0.16
   6  12  -2    0.24    0.11
   7 -13   2    0.47    0.15
  -7  13  -2    0.24    0.15
   7 -13   3    0.27    0.16
  -7  13  -3    0.22    0.17
  -7  13  -3    0.20    0.16
   7 -13   4    0.82    0.18
  -7  13  -4    1.19    0.23
  -7  13  -4    1.19    0.23
  -7  13  -5    0.86    0.19
  -7  13  -5    1.27    0.25
  -7  13  -6    2.06    0.27
  -7  13  -6    2.64    0.30
  -7  13  -6    2.37    0.28
  -7  13  -7    3.26    0.30
  -7  13  -7    2.87    0.31
  -7  13  -7    3.11    0.29
  -7  13  -8    0.30    0.15
  -7  13  -8    0.16    0.16
   7 -12   0    0.47    0.19
   7 -12   1    0.40    0.23
   7 -12   1    0.18    0.20
  -7  12  -1    0.27    0.17
   7 -12   2    0.52    0.22
  -7  12  -2    0.58    0.26
  -7  12  -2    0.84    0.22
   7 -12   3    1.42    0.25
  -7  12  -3    1.15    0.24
  -7  12  -3    1.61    0.33
  -7  12  -3    1.79    0.30
  -7  12  -4    3.66    0.44
  -7  12  -4    3.55    0.41
  -7  12  -5    0.31    0.24
  -7  12  -6    1.07    0.28
  -7  12  -6    1.21    0.29
  -7  12  -7    8.19    0.60
  -7  12  -7    7.98    0.58
  -7  12  -7    6.63    0.53
  -7  12  -8    1.66    0.28
  -7  12  -8    1.45    0.23
  -7  12  -8    1.64    0.25
  -7  12  -9   -0.02    0.17
  -7  12  -9    0.34    0.20
  -7  12  -9    0.06    0.17
  -7  12 -10    0.55    0.17
   7 -11  -2    0.63    0.20
   7 -11  -2    0.48    0.20
   7 -11  -2    0.34    0.18
   7 -11  -1   -0.07    0.21
   7 -11  -1   -0.13    0.18
   7 -11   0    1.99    0.33
   7 -11   0    2.09    0.29
  -7  11   0    2.26    0.29
   7 -11   1    0.98    0.29
  -7  11  -1    1.56    0.31
   7 -11   2    0.11    0.24
  -7  11  -2    0.12    0.17
  -7  11  -2    0.15    0.30
  -7  11  -3   16.08    0.95
  -7  11  -3   16.35    1.07
  -7  11  -4   16.28    1.09
   7 -11   4   14.86    1.01
  -7  11  -5   12.03    0.84
  -7  11  -5   13.97    1.00
  -7  11  -5   13.83    0.96
  -7  11  -6    2.83    0.31
  -7  11  -6    2.69    0.30
  -7  11  -6    2.62    0.41
  -7  11  -6    3.45    0.46
  -7  11  -6    3.17    0.43
  -7  11  -6    2.47    0.35
  -7  11  -7    3.44    0.35
  -7  11  -7    3.94    0.37
  -7  11  -7    4.66    0.50
  -7  11  -7    4.54    0.48
  -7  11  -7    5.36    0.48
  -7  11  -7    4.61    0.45
  -7  11  -8    0.18    0.20
  -7  11  -8    0.30    0.28
  -7  11  -8    0.83    0.23
  -7  11  -8    0.34    0.25
  -7  11  -9    0.50    0.19
  -7  11  -9    0.19    0.22
  -7  11  -9    0.28    0.25
  -7  11  -9    0.55    0.25
  -7  11 -10    1.68    0.22
  -7  11 -10    2.11    0.26
  -7  11 -10    1.53    0.27
  -7  11 -10    2.03    0.28
  -7  11 -11    0.29    0.15
  -7  11 -11    0.15    0.15
   7 -10  -4    0.10    0.14
   7 -10  -4    0.02    0.15
   7 -10  -3   -0.19    0.20
   7 -10  -3    0.30    0.21
   7 -10  -3    0.21    0.22
   7 -10  -2    1.16    0.28
   7 -10  -2    0.74    0.28
   7 -10  -2    1.39    0.28
   7 -10  -1    5.28    0.50
  -7  10   1    4.57    0.44
   7 -10  -1    5.27    0.52
   7 -10   0    0.10    0.27
  -7  10   0    0.02    0.16
   7 -10   0   -0.03    0.22
  -7  10   0    0.35    0.26
   7 -10   1    1.27    0.33
  -7  10  -1    0.99    0.23
   7 -10   1    0.74    0.26
  -7  10  -1    1.14    0.34
   7 -10   2    1.93    0.36
  -7  10  -2    2.46    0.30
  -7  10  -2    1.69    0.38
  -7  10  -3   14.93    0.94
  -7  10  -3   14.87    0.94
   7 -10   3   12.96    0.98
  -7  10  -4   21.33    1.26
   7 -10   4   18.74    1.28
  -7  10  -5   16.87    1.19
  -7  10  -5   20.37    1.19
  -7  10  -5   19.85    1.34
  -7  10  -5   18.68    1.29
  -7  10  -5   19.30    1.24
  -7  10  -6   27.99    1.94
  -7  10  -6   35.69    1.94
  -7  10  -6   35.36    2.06
  -7  10  -6   34.88    2.10
  -7  10  -6   33.21    2.03
  -7  10  -6   31.75    2.00
  -7  10  -7   -0.02    0.23
  -7  10  -7    0.04    0.17
  -7  10  -7    0.03    0.30
  -7  10  -7    0.42    0.32
  -7  10  -7    0.27    0.28
  -7  10  -7    0.20    0.30
  -7  10  -8    0.83    0.26
  -7  10  -8    0.56    0.31
  -7  10  -8    1.10    0.33
  -7  10  -8    0.86    0.24
  -7  10  -9   -0.11    0.22
  -7  10  -9    0.17    0.26
  -7  10  -9   -0.12    0.27
  -7  10  -9    0.42    0.29
  -7  10 -10    1.74    0.27
  -7  10 -10    1.72    0.28
  -7  10 -10    1.88    0.32
  -7  10 -10    2.09    0.32
  -7  10 -11    4.51    0.38
  -7  10 -11    4.85    0.39
  -7  10 -11    3.96    0.34
  -7  10 -11    5.13    0.41
   7  -9  -5    0.18    0.14
   7  -9  -5    0.19    0.13
   7  -9  -4    0.73    0.25
   7  -9  -4    1.22    0.27
   7  -9  -4    0.78    0.26
   7  -9  -3    3.18    0.42
   7  -9  -3    3.09    0.42
   7  -9  -3    2.63    0.39
   7  -9  -2    1.19    0.37
   7  -9  -2    0.41    0.28
   7  -9  -1    1.69    0.37
  -7   9   1    2.53    0.28
   7  -9  -1    1.91    0.37
  -7   9   1    2.19    0.35
   7  -9   0    3.50    0.46
  -7   9   0    3.99    0.36
   7  -9   0    3.08    0.43
  -7   9   0    3.83    0.47
  -7   9  -1   10.76    0.65
   7  -9   1    8.34    0.70
  -7   9  -1    8.64    0.75
   7  -9   1    6.21    0.68
   7  -9   2    9.01    0.74
   7  -9   3    8.07    0.67
  -7   9  -4   20.09    1.29
  -7   9  -5    3.75    0.37
  -7   9  -5    3.07    0.41
  -7   9  -5    3.26    0.51
  -7   9  -5    3.62    0.47
  -7   9  -5    3.05    0.41
  -7   9  -6   49.19    2.91
  -7   9  -6   52.24    2.88
  -7   9  -6   50.37    2.81
  -7   9  -6   50.16    2.94
  -7   9  -6   49.70    2.97
  -7   9  -6   41.23    2.88
  -7   9  -7    1.78    0.33
  -7   9  -7    1.59    0.25
  -7   9  -7    2.61    0.43
  -7   9  -7    2.22    0.43
  -7   9  -7    1.63    0.35
  -7   9  -7    2.17    0.40
  -7   9  -8    4.25    0.45
  -7   9  -8    4.10    0.49
  -7   9  -8    4.29    0.51
  -7   9  -8    4.28    0.42
  -7   9  -8    4.44    0.52
  -7   9  -9    0.16    0.25
  -7   9  -9    0.27    0.27
  -7   9  -9    0.03    0.28
  -7   9  -9    0.23    0.31
  -7   9 -10    0.68    0.24
  -7   9 -10    0.73    0.26
  -7   9 -10    0.36    0.26
  -7   9 -10    0.60    0.30
  -7   9 -11    0.36    0.21
  -7   9 -11    0.35    0.20
  -7   9 -11    0.18    0.17
  -7   9 -11    0.33    0.23
  -7   9 -12    0.49    0.17
  -7   9 -12    0.94    0.18
   7  -8  -6    0.75    0.16
   7  -8  -6    0.83    0.22
   7  -8  -5    0.07    0.22
   7  -8  -5    0.07    0.21
   7  -8  -4   -0.22    0.28
   7  -8  -4   -0.20    0.28
   7  -8  -4   -0.29    0.28
   7  -8  -3    0.36    0.33
   7  -8  -3    0.20    0.32
   7  -8  -3    0.31    0.30
   7  -8  -2    0.21    0.30
  -7   8   2   -0.15    0.26
   7  -8  -1    1.01    0.35
   7  -8  -1    0.89    0.34
  -7   8   1    0.27    0.29
   7  -8   0    2.66    0.41
   7  -8   0    2.38    0.39
  -7   8   0    2.32    0.42
   7  -8   1    3.53    0.47
  -7   8  -1    3.85    0.50
   7  -8   1    4.45    0.49
   7  -8   2    0.07    0.26
  -7   8  -2    0.09    0.36
   7  -8   3    0.62    0.29
   7  -8   3    0.46    0.53
  -7   8  -4    2.52    0.36
  -7   8  -4    2.23    0.37
  -7   8  -5    0.75    0.29
  -7   8  -5    1.13    0.39
  -7   8  -5    0.83    0.35
  -7   8  -5    1.24    0.32
  -7   8  -6   61.43    3.51
  -7   8  -6   56.58    3.54
  -7   8  -6   62.42    3.60
  -7   8  -6   59.08    3.52
  -7   8  -6   61.98    3.55
  -7   8  -7    0.09    0.26
  -7   8  -7    0.12    0.17
  -7   8  -7   -0.12    0.33
  -7   8  -7    0.21    0.26
  -7   8  -7    0.19    0.32
  -7   8  -8    6.59    0.59
  -7   8  -8    6.81    0.63
  -7   8  -8    6.89    0.65
  -7   8  -8    6.04    0.63
  -7   8  -9    4.43    0.49
  -7   8  -9    4.43    0.50
  -7   8  -9    4.66    0.51
  -7   8  -9    5.60    0.56
  -7   8 -10   15.29    1.00
  -7   8 -10   13.65    1.01
  -7   8 -10   15.61    1.04
  -7   8 -11    0.22    0.22
  -7   8 -11    0.09    0.16
  -7   8 -12    1.35    0.21
   7  -7  -7    1.10    0.23
   7  -7  -6    0.20    0.20
   7  -7  -6    0.20    0.21
   7  -7  -6    0.03    0.27
   7  -7  -5    2.19    0.37
   7  -7  -5    2.34    0.39
   7  -7  -4    0.70    0.32
   7  -7  -4    0.64    0.35
   7  -7  -4    1.43    0.37
   7  -7  -3    0.97    0.35
   7  -7  -3    1.44    0.42
   7  -7  -3    1.20    0.36
   7  -7  -2    7.40    0.68
  -7   7   2    8.33    0.68
   7  -7  -1   31.84    2.64
   7  -7  -1   30.90    2.00
  -7   7   1   34.13    2.01
  -7   7   1   31.78    2.27
   7  -7  -1   31.75    2.01
   7  -7   0    3.69    0.47
  -7   7   0    4.40    0.67
   7  -7   0    3.26    0.81
   7  -7   0    3.78    0.46
  -7   7   0    3.34    0.47
   7  -7   1    0.51    0.31
  -7   7  -1   -0.32    0.40
   7  -7   1    0.15    0.51
   7  -7   1    0.26    0.29
  -7   7  -1    0.11    0.30
   7  -7   2    3.04    0.41
  -7   7  -2    3.32    0.61
   7  -7   3    2.78    0.38
  -7   7  -3    2.20    0.53
   7  -7   3    2.05    0.73
  -7   7  -4    3.50    0.61
   7  -7   4    3.40    0.81
  -7   7  -4    2.78    0.43
  -7   7  -4    3.59    0.43
  -7   7  -5    2.47    0.53
  -7   7  -5    3.34    0.41
   7  -7   5    4.32    0.86
  -7   7  -5    2.78    0.45
  -7   7  -5    3.49    0.48
  -7   7  -5    2.68    0.42
  -7   7  -5    3.11    0.44
  -7   7  -6   33.28    2.04
  -7   7  -6   32.40    2.08
  -7   7  -6   33.76    2.11
  -7   7  -6   33.67    2.05
  -7   7  -6   34.63    2.10
  -7   7  -7   33.66    2.01
  -7   7  -7   32.90    2.06
  -7   7  -7   31.55    1.97
  -7   7  -7   33.01    2.05
  -7   7  -8    7.85    0.68
  -7   7  -8    6.97    0.69
  -7   7  -8    7.91    0.70
  -7   7  -9    0.84    0.32
  -7   7  -9    0.27    0.28
  -7   7  -9    0.44    0.33
  -7   7  -9    0.51    0.25
  -7   7 -10    4.21    0.44
  -7   7 -10    3.60    0.43
  -7   7 -10    4.18    0.40
  -7   7 -11    7.01    0.54
  -7   7 -11    6.77    0.53
  -7   7 -11    5.60    0.46
  -7   7 -11    7.32    0.56
  -7   7 -11    6.94    0.50
  -7   7 -12    0.77    0.20
   7  -6  -8    0.61    0.19
   7  -6  -7    2.69    0.31
   7  -6  -7    3.79    0.42
   7  -6  -6    1.89    0.33
   7  -6  -6    1.55    0.33
   7  -6  -6    1.44    0.25
   7  -6  -6    1.46    0.36
   7  -6  -6    1.46    0.24
   7  -6  -5    0.36    0.30
   7  -6  -5   -0.12    0.32
   7  -6  -5   -0.02    0.18
   7  -6  -5    0.30    0.35
   7  -6  -4    0.35    0.33
   7  -6  -4   -0.30    0.36
   7  -6  -4    0.28    0.19
   7  -6  -4    0.27    0.33
   7  -6  -3    1.29    0.38
   7  -6  -3    1.28    0.41
   7  -6  -3    1.59    0.25
   7  -6  -3    0.76    0.36
  -7   6   2    6.04    0.76
   7  -6  -2    8.46    0.54
   7  -6  -2    5.78    0.99
   7  -6  -2    5.63    0.62
   7  -6  -2    6.49    1.10
  -7   6   2    6.42    0.62
   7  -6  -1    0.28    0.30
  -7   6   1    0.08    0.34
   7  -6  -1    0.11    0.18
   7  -6  -1    0.14    0.52
   7  -6  -1    0.31    0.30
  -7   6   1    0.17    0.29
   7  -6   0   10.61    0.83
  -7   6   0   11.78    0.86
  -7   6   0   10.09    1.04
   7  -6   0   12.22    0.86
   7  -6   1   22.35    2.19
   7  -6   1   26.04    1.65
  -7   6  -1   27.61    1.68
  -7   6  -1   26.22    1.92
   7  -6   1   26.80    1.67
   7  -6   2    0.03    0.25
   7  -6   2    0.41    0.61
  -7   6  -3    0.77    0.40
   7  -6   3    0.42    0.55
  -7   6  -3    0.39    0.29
   7  -6   4   21.88    2.12
  -7   6  -4   23.48    1.58
  -7   6  -4   26.21    1.62
  -7   6  -4   26.43    1.59
  -7   6  -4   23.61    1.58
  -7   6  -4   28.32    1.89
   7  -6   5   19.45    1.89
  -7   6  -5   20.20    1.36
  -7   6  -5   19.76    1.36
  -7   6  -5   21.03    1.32
  -7   6  -5   20.80    1.35
  -7   6  -5   19.25    1.56
  -7   6  -6   19.39    1.25
  -7   6  -6   19.00    1.26
  -7   6  -6   16.31    1.17
  -7   6  -6   18.05    1.24
  -7   6  -6   17.93    1.42
  -7   6  -7   23.70    1.57
  -7   6  -7   26.46    1.63
  -7   6  -7   23.99    1.62
  -7   6  -7   26.18    1.65
  -7   6  -8    2.29    0.38
  -7   6  -8    3.28    0.45
  -7   6  -8    2.94    0.42
  -7   6  -8    2.63    0.44
  -7   6  -8    2.86    0.39
  -7   6  -9   11.48    0.89
  -7   6  -9   11.79    0.90
  -7   6  -9   12.71    0.88
  -7   6  -9   13.48    0.94
  -7   6 -10    1.10    0.31
  -7   6 -10    1.34    0.29
  -7   6 -10    1.18    0.25
  -7   6 -10    1.12    0.28
  -7   6 -11    9.91    0.72
  -7   6 -11    9.70    0.69
  -7   6 -11    9.63    0.65
  -7   6 -11   11.45    0.74
  -7   6 -11    9.35    0.69
  -7   6 -12    0.45    0.18
   7  -5  -9   -0.09    0.19
   7  -5  -8   -0.17    0.23
   7  -5  -8    0.01    0.14
   7  -5  -7    2.89    0.35
   7  -5  -7    3.20    0.33
   7  -5  -7    2.78    0.41
   7  -5  -7    2.46    0.31
   7  -5  -6    2.48    0.39
   7  -5  -6    2.84    0.45
   7  -5  -6    2.96    0.33
   7  -5  -6    2.79    0.44
   7  -5  -6    2.53    0.35
   7  -5  -5   18.21    1.26
   7  -5  -5   17.57    1.10
   7  -5  -5   16.42    1.22
   7  -5  -5   17.31    1.22
   7  -5  -4    0.58    0.33
   7  -5  -4    0.47    0.36
   7  -5  -4    0.85    0.22
   7  -5  -4   -0.15    0.52
   7  -5  -4    0.47    0.24
   7  -5  -3   17.37    0.99
   7  -5  -3   14.62    1.50
   7  -5  -3   12.25    1.05
   7  -5  -3   14.83    1.62
  -7   5   3   15.51    1.04
   7  -5  -3   14.21    1.07
  -7   5   2   12.58    1.14
   7  -5  -2   13.11    1.45
   7  -5  -2   12.86    0.98
  -7   5   2   15.27    0.98
   7  -5  -2   12.82    0.98
   7  -5  -1   11.37    1.37
   7  -5  -1   13.06    0.95
  -7   5   1   12.86    0.94
  -7   5   1   14.60    1.18
   7  -5  -1   13.15    0.95
   7  -5   0   22.28    1.94
   7  -5   0   22.71    1.38
  -7   5   0   18.27    1.35
  -7   5   0   21.51    1.61
   7  -5   0   22.00    1.38
   7  -5   1    0.21    0.24
  -7   5  -1    0.74    0.34
   7  -5   1    0.26    0.25
  -7   5  -1    0.25    0.28
  -7   5  -2    9.33    0.73
   7  -5   2    9.54    1.19
  -7   5  -2    9.44    0.76
  -7   5  -2   11.94    1.03
   7  -5   2   10.16    0.74
   7  -5   3   18.12    1.64
  -7   5  -3   15.34    1.06
  -7   5  -3   14.27    1.05
  -7   5  -3   15.97    1.05
  -7   5  -3   16.43    1.31
  -7   5  -4    1.46    0.43
   7  -5   4    1.60    0.64
  -7   5  -4    0.82    0.30
  -7   5  -4    1.01    0.31
  -7   5  -4    1.91    0.33
  -7   5  -4    1.43    0.32
  -7   5  -5   24.90    1.76
  -7   5  -5   23.98    1.49
   7  -5   5   23.62    2.06
  -7   5  -5   24.55    1.53
  -7   5  -5   23.44    1.53
  -7   5  -5   22.91    1.49
  -7   5  -5   23.82    1.54
  -7   5  -5   23.55    1.50
  -7   5  -6    1.82    0.33
  -7   5  -6    1.76    0.36
  -7   5  -6    1.56    0.29
  -7   5  -6    2.54    0.40
  -7   5  -6    1.74    0.34
  -7   5  -7   24.75    1.66
  -7   5  -7   26.64    1.71
  -7   5  -7   26.44    1.70
  -7   5  -7   29.75    1.74
  -7   5  -8   13.28    0.93
  -7   5  -8   12.35    0.95
  -7   5  -8   13.12    0.94
  -7   5  -8   12.31    0.96
  -7   5  -9    5.87    0.56
  -7   5  -9    6.18    0.55
  -7   5  -9    5.26    0.52
  -7   5  -9    6.77    0.57
  -7   5 -10    0.32    0.25
  -7   5 -10    0.08    0.24
  -7   5 -10    0.04    0.20
  -7   5 -10   -0.02    0.22
  -7   5 -10    0.64    0.29
  -7   5 -10    0.27    0.27
  -7   5 -11    0.04    0.22
  -7   5 -11    0.20    0.15
  -7   5 -11   -0.02    0.18
  -7   5 -11    0.11    0.23
  -7   5 -12    4.05    0.33
   7  -4 -10    0.34    0.20
   7  -4 -10    0.06    0.17
   7  -4  -9   -0.27    0.26
   7  -4  -9   -0.08    0.15
   7  -4  -9   -0.09    0.18
   7  -4  -8    1.50    0.25
   7  -4  -8    1.49    0.32
   7  -4  -8    1.70    0.27
   7  -4  -7    0.03    0.25
   7  -4  -7    0.43    0.28
   7  -4  -7    0.22    0.20
   7  -4  -7    0.40    0.31
   7  -4  -7    0.05    0.23
   7  -4  -6    9.48    0.75
   7  -4  -6    8.72    0.63
   7  -4  -6    7.10    0.72
   7  -4  -6    8.34    0.72
   7  -4  -5   55.06    3.40
   7  -4  -5   57.61    3.39
   7  -4  -5   61.61    3.30
   7  -4  -5   52.84    3.39
   7  -4  -5   56.40    4.05
   7  -4  -4   37.67    2.36
   7  -4  -4   40.52    2.23
   7  -4  -4   35.84    2.89
   7  -4  -4   34.48    2.30
   7  -4  -3    1.04    0.32
  -7   4   3    1.18    0.41
   7  -4  -3    0.96    0.51
   7  -4  -3    0.07    0.29
   7  -4  -3    0.53    0.52
  -7   4   3    0.42    0.26
   7  -4  -2  137.15    7.09
   7  -4  -2  118.16    7.57
   7  -4  -2  123.93    7.05
   7  -4  -2  114.29    7.03
  -7   4   2  128.75    7.04
  -7   4   2  124.14    7.29
   7  -4  -1    6.61    0.60
  -7   4   1    5.62    0.72
   7  -4  -1    5.65    0.93
   7  -4  -1    6.74    0.58
  -7   4   1    6.69    0.57
   7  -4  -1    6.43    0.58
   7  -4   0  109.76    6.32
   7  -4   0  114.08    6.91
   7  -4   0  107.29    6.30
  -7   4   0  119.23    6.32
   7  -4   0  109.07    6.31
  -7   4   0  115.80    6.60
   7  -4   1   50.45    3.51
   7  -4   1   50.21    2.94
  -7   4  -2   11.37    0.82
   7  -4   2   10.15    1.26
  -7   4  -2   12.37    0.85
  -7   4  -2   11.29    1.07
   7  -4   3   18.61    1.71
  -7   4  -3   16.07    1.11
  -7   4  -3   16.96    1.12
  -7   4  -3   18.04    1.12
  -7   4  -3   16.75    1.35
  -7   4  -3   16.03    1.10
   7  -4   4   18.36    1.76
  -7   4  -4   19.34    1.27
  -7   4  -4   18.53    1.23
  -7   4  -4   17.73    1.25
  -7   4  -4   18.59    1.47
  -7   4  -4   21.82    1.27
  -7   4  -5    0.39    0.30
  -7   4  -5    0.13    0.23
   7  -4   5    0.47    0.43
  -7   4  -5    0.26    0.28
  -7   4  -5    0.69    0.25
  -7   4  -5    0.41    0.30
  -7   4  -5    0.22    0.27
  -7   4  -6   12.10    0.93
  -7   4  -6   14.13    1.01
  -7   4  -6   15.22    1.00
  -7   4  -7   14.75    1.07
  -7   4  -7   14.26    1.01
  -7   4  -7   14.76    1.06
  -7   4  -7   15.78    1.08
  -7   4  -8   29.28    1.78
  -7   4  -8   27.48    1.76
  -7   4  -8   28.79    1.82
  -7   4  -9    1.82    0.24
  -7   4  -9    1.76    0.34
  -7   4  -9    1.79    0.33
  -7   4  -9    2.11    0.36
  -7   4 -10    2.27    0.23
  -7   4 -10    2.67    0.36
  -7   4 -10    2.06    0.29
  -7   4 -10    2.11    0.37
  -7   4 -10    2.93    0.37
  -7   4 -11    6.49    0.51
  -7   4 -11    6.06    0.45
  -7   4 -11    7.62    0.52
  -7   4 -11    7.10    0.53
   7  -3 -11    3.05    0.26
   7  -3 -11    1.79    0.26
   7  -3 -10    1.70    0.32
   7  -3 -10    1.08    0.27
   7  -3 -10    1.36    0.20
   7  -3  -9    0.69    0.22
   7  -3  -9    0.79    0.24
   7  -3  -9    0.20    0.31
   7  -3  -9    0.46    0.22
   7  -3  -8    0.56    0.21
   7  -3  -8    0.71    0.31
   7  -3  -8    0.78    0.25
   7  -3  -7    6.96    0.52
   7  -3  -7    6.66    0.63
   7  -3  -7    5.49    0.56
   7  -3  -7    6.00    0.56
   7  -3  -6   17.95    1.24
   7  -3  -6   17.97    1.12
   7  -3  -6   15.99    1.69
   7  -3  -6   16.92    1.22
   7  -3  -6   17.24    1.19
   7  -3  -5    1.02    0.33
   7  -3  -5    1.22    0.36
   7  -3  -5    0.84    0.25
   7  -3  -5    0.41    0.32
   7  -3  -5    1.09    0.60
   7  -3  -5    0.71    0.23
   7  -3  -4   36.71    2.19
   7  -3  -4   33.26    2.09
   7  -3  -4   38.45    2.08
   7  -3  -4   32.11    2.52
   7  -3  -4   35.98    2.71
  -7   3   4   34.03    2.34
   7  -3  -4   32.94    2.15
   7  -3  -3    9.23    0.75
   7  -3  -3    9.11    1.08
   7  -3  -3    8.58    0.72
   7  -3  -3    9.84    1.13
  -7   3   3    9.18    0.70
  -7   3   3    7.36    0.84
   7  -3  -3    8.80    0.72
   7  -3  -2   13.45    0.91
   7  -3  -2   10.17    1.21
   7  -3  -2   11.06    0.87
  -7   3   2   11.76    0.86
  -7   3   2   12.18    1.10
   7  -3  -2   12.64    0.89
   7  -3  -1   30.81    2.39
  -7   3   1   31.44    1.91
  -7   3   1   30.90    2.16
   7  -3  -1   31.20    1.91
  -7   3   0   64.67    4.01
   7  -3   1    0.46    0.57
   7  -3   2   40.28    2.97
  -7   3  -2   42.41    2.48
  -7   3  -2   41.69    2.76
   7  -3   3   11.78    1.31
  -7   3  -3   12.28    0.90
  -7   3  -3   13.10    0.90
  -7   3  -3   13.23    0.89
  -7   3  -3   12.72    0.91
  -7   3  -3   12.82    1.13
  -7   3  -4   40.65    2.36
   7  -3   4   39.35    2.86
  -7   3  -4   43.29    2.42
  -7   3  -4   40.50    2.37
  -7   3  -4   38.09    2.40
  -7   3  -4   39.63    2.41
  -7   3  -4   38.36    2.62
  -7   3  -5   36.61    2.26
  -7   3  -5   36.44    2.20
  -7   3  -5   37.11    2.25
  -7   3  -5   37.72    2.27
  -7   3  -5   38.18    2.43
  -7   3  -6    4.64    0.46
  -7   3  -6    3.89    0.48
  -7   3  -6    4.62    0.52
  -7   3  -7    6.99    0.57
  -7   3  -7    5.61    0.56
  -7   3  -7    6.69    0.64
  -7   3  -7    6.08    0.62
  -7   3  -8    3.22    0.36
  -7   3  -8    4.51    0.44
  -7   3  -8    3.88    0.42
  -7   3  -8    3.12    0.43
  -7   3  -9    3.94    0.35
  -7   3  -9    3.80    0.44
  -7   3  -9    3.25    0.40
  -7   3  -9    3.99    0.44
  -7   3  -9    3.72    0.46
  -7   3 -10    6.60    0.43
  -7   3 -10    5.62    0.49
  -7   3 -10    5.73    0.47
  -7   3 -10    5.16    0.50
  -7   3 -11    1.60    0.26
   7  -2 -11    0.38    0.23
   7  -2 -11    0.39    0.19
   7  -2 -10    2.28    0.39
   7  -2 -10    1.84    0.34
   7  -2 -10    1.85    0.27
   7  -2  -9    1.17    0.28
   7  -2  -9    1.60    0.29
   7  -2  -8    6.43    0.55
   7  -2  -8    6.90    0.62
   7  -2  -8    7.57    0.61
   7  -2  -8    7.09    0.58
   7  -2  -7   50.38    2.91
   7  -2  -7   49.75    3.00
   7  -2  -7   50.23    2.97
   7  -2  -7   51.23    2.97
   7  -2  -6    1.93    0.36
   7  -2  -6    1.47    0.37
   7  -2  -6    1.70    0.29
   7  -2  -6    1.31    0.28
   7  -2  -6    1.63    0.39
   7  -2  -6    2.23    0.70
   7  -2  -5   15.35    1.15
   7  -2  -5   16.57    1.13
   7  -2  -5   18.33    1.07
   7  -2  -5   14.99    1.13
   7  -2  -5   15.50    1.55
   7  -2  -5   16.36    1.09
   7  -2  -4   19.06    1.23
   7  -2  -4   14.88    1.58
   7  -2  -4   18.47    1.66
   7  -2  -4   20.35    1.26
  -7   2   4   19.03    1.51
   7  -2  -4   21.40    1.31
   7  -2  -3    3.32    0.44
   7  -2  -3    3.66    0.42
  -7   2   3    3.72    0.62
   7  -2  -3    4.15    0.74
   7  -2  -3    4.55    0.46
   7  -2  -3    4.02    0.68
  -7   2   3    5.24    0.47
   7  -2  -2    7.22    0.95
   7  -2  -2    7.18    0.61
  -7   2   2    7.54    0.86
   7  -2  -1    8.50    1.06
  -7   2   1    9.16    0.94
   7  -2   0   55.47    3.70
   7  -2   1    8.97    1.10
  -7   2  -1    9.17    0.96
   7  -2   2   51.93    3.36
  -7   2  -2   46.77    3.14
   7  -2   3   12.57    0.86
   7  -2   3   11.78    1.26
  -7   2  -3   11.80    0.88
  -7   2  -3   13.40    0.90
  -7   2  -3   12.30    0.90
  -7   2  -3   11.14    1.10
  -7   2  -4   18.38    1.20
   7  -2   4   20.29    1.67
  -7   2  -4   19.88    1.28
  -7   2  -4   18.03    1.26
  -7   2  -4   21.23    1.31
  -7   2  -4   18.91    1.47
  -7   2  -5   11.83    0.81
  -7   2  -5   12.16    0.88
  -7   2  -5   11.38    0.89
  -7   2  -5   11.18    0.89
  -7   2  -6   43.97    2.54
  -7   2  -6   37.18    2.55
  -7   2  -6   43.49    2.60
  -7   2  -6   49.24    2.64
  -7   2  -6   44.15    2.62
  -7   2  -7    2.03    0.34
  -7   2  -7    1.57    0.35
  -7   2  -7    1.93    0.40
  -7   2  -7    2.15    0.43
  -7   2  -8    0.08    0.20
  -7   2  -8    0.25    0.25
  -7   2  -8    0.12    0.25
  -7   2  -8    0.07    0.26
  -7   2  -9    3.28    0.33
  -7   2  -9    3.31    0.38
  -7   2  -9    3.83    0.38
  -7   2  -9    2.85    0.41
  -7   2 -10   -0.10    0.14
  -7   2 -10   -0.06    0.16
  -7   2 -10   -0.17    0.23
  -7   2 -10   -0.07    0.24
  -7   2 -11   -0.18    0.19
  -7   2 -11    0.64    0.20
   7  -1 -12    3.45    0.32
   7  -1 -12    3.29    0.31
   7  -1 -12    3.28    0.29
   7  -1 -11    2.27    0.36
   7  -1 -11    2.45    0.32
   7  -1 -11    2.12    0.28
   7  -1 -10    1.30    0.25
   7  -1 -10    1.39    0.28
   7  -1 -10    0.39    0.33
   7  -1 -10    1.01    0.35
   7  -1  -9    4.60    0.43
   7  -1  -9    4.51    0.47
   7  -1  -9    5.08    0.49
   7  -1  -8    0.19    0.24
   7  -1  -8   -0.02    0.21
   7  -1  -8   -0.23    0.27
   7  -1  -8    0.10    0.28
   7  -1  -7   47.48    2.85
   7  -1  -7   48.96    2.78
   7  -1  -7   46.37    2.81
   7  -1  -6   10.37    0.85
   7  -1  -6   11.31    0.80
   7  -1  -6   11.86    0.85
   7  -1  -5    3.11    0.41
   7  -1  -5    3.27    0.45
  -7   1   5    3.02    0.54
   7  -1  -5    3.37    0.64
   7  -1  -5    3.76    0.45
   7  -1  -5    4.51    0.74
   7  -1  -5    3.34    0.38
   7  -1  -4    0.98    0.29
   7  -1  -4    1.04    0.26
  -7   1   4    2.67    0.51
   7  -1  -4    1.09    0.48
   7  -1  -4    1.56    0.29
   7  -1  -4    1.42    0.32
   7  -1  -4    2.31    0.52
   7  -1  -3    1.69    0.33
   7  -1  -3    1.36    0.31
   7  -1  -3    1.37    0.46
  -7   1   3    1.72    0.27
  -7   1   2    2.37    0.32
   7  -1  -2    2.57    0.66
   7  -1  -2    2.98    0.49
  -7   1   1   13.72    0.91
  -7   1   1   13.75    1.30
   7  -1   0   24.07    1.93
   7  -1   1    2.77    0.63
  -7   1  -1    3.38    0.36
  -7   1  -2    7.24    0.55
  -7   1  -2    7.16    0.61
   7  -1   3    2.87    0.33
  -7   1  -3    3.62    0.60
  -7   1  -3    2.57    0.31
   7  -1   3    3.91    0.68
  -7   1  -3    3.54    0.44
  -7   1  -3    2.48    0.40
  -7   1  -4    7.03    0.83
  -7   1  -4    8.44    0.64
   7  -1   4    9.19    1.02
  -7   1  -4    8.25    0.70
  -7   1  -4    9.93    0.75
  -7   1  -4   10.92    0.77
  -7   1  -4    9.84    0.76
  -7   1  -5    5.75    0.56
  -7   1  -5    5.81    0.56
  -7   1  -6   21.50    1.41
  -7   1  -6   21.53    1.45
  -7   1  -6   25.80    1.55
  -7   1  -6   23.64    1.52
  -7   1  -7    2.44    0.32
  -7   1  -7    2.03    0.35
  -7   1  -7    1.30    0.40
  -7   1  -7    1.73    0.39
  -7   1  -8    2.52    0.31
  -7   1  -8    2.52    0.34
  -7   1  -8    1.90    0.40
  -7   1  -9    2.37    0.28
  -7   1  -9    2.46    0.29
  -7   1  -9    2.06    0.37
  -7   1  -9    2.37    0.36
  -7   1 -10    2.98    0.26
  -7   1 -10    2.75    0.36
  -7   1 -10    2.56    0.33
  -7   1 -11    0.45    0.16
  -7   1 -11    0.50    0.15
   7   0 -12    3.85    0.41
   7   0 -12    4.68    0.40
   7   0 -12    4.84    0.40
   7   0 -11    4.43    0.49
   7   0 -11    4.38    0.46
   7   0 -11    3.74    0.40
   7   0 -10   40.73    2.37
   7   0 -10   42.24    2.51
   7   0 -10   39.76    2.42
   7   0  -9    0.02    0.19
   7   0  -9    0.11    0.23
   7   0  -8   15.84    0.95
   7   0  -8   13.29    0.99
   7   0  -8   14.38    1.08
   7   0  -8   13.22    1.01
   7   0  -7   16.23    1.02
   7   0  -7   14.23    1.09
   7   0  -7   17.73    1.07
   7   0  -7   14.96    1.08
   7   0  -7   16.17    1.08
   7   0  -6    8.56    0.59
   7   0  -6    8.44    0.69
   7   0  -6    7.38    0.62
   7   0  -6    7.25    0.64
   7   0  -5    0.53    0.26
   7   0  -5    0.25    0.19
   7   0  -5    0.66    0.41
   7   0  -5    0.13    0.27
  -7   0   5    0.21    0.20
   7   0  -5    0.08    0.23
   7   0  -4   12.24    0.85
   7   0  -4   12.15    1.23
   7   0  -4   13.49    0.91
  -7   0   4   12.47    0.86
   7   0  -4   13.63    0.89
  -7   0   4   12.93    1.26
   7   0  -4   12.09    0.89
   7   0  -3    0.39    0.46
  -7   0   3    0.49    0.43
  -7   0   3    0.07    0.21
   7   0  -2  147.85    8.74
  -7   0   2  147.15    8.26
  -7   0   2  152.62    8.75
   7   0  -1   11.59    1.14
   7   0  -1   12.45    1.22
   7   0   0   21.71    1.79
  -7   0   0   22.59    1.41
  -7   0   0   23.62    1.82
   7   0   1    0.58    0.46
  -7   0  -1   -0.10    0.43
  -7   0  -1    0.24    0.23
  -7   0  -2    0.19    0.40
   7   0   2   -0.10    0.42
  -7   0  -2    0.17    0.23
  -7   0  -2    0.02    0.20
  -7   0  -2    0.03    0.26
  -7   0  -2    0.10    0.28
   7   0   3    4.34    0.68
  -7   0  -3    3.42    0.36
  -7   0  -3    3.51    0.42
  -7   0  -3    2.88    0.43
  -7   0  -3    4.16    0.47
  -7   0  -4   38.39    2.26
  -7   0  -4   38.07    2.30
  -7   0  -4   35.56    2.29
  -7   0  -5    5.28    0.54
  -7   0  -5    6.56    0.62
  -7   0  -5    4.86    0.57
  -7   0  -6   26.18    1.75
  -7   0  -6   30.62    1.84
  -7   0  -6   28.48    1.80
  -7   0  -7    2.54    0.32
  -7   0  -7    2.60    0.39
  -7   0  -7    2.37    0.44
  -7   0  -7    2.84    0.43
  -7   0  -8    0.66    0.22
  -7   0  -8    1.03    0.26
  -7   0  -8    0.69    0.27
  -7   0  -8    0.36    0.29
  -7   0  -9    3.66    0.32
  -7   0  -9    2.74    0.37
  -7   0  -9    3.72    0.42
  -7   0  -9    3.22    0.38
  -7   0 -10    0.16    0.13
  -7   0 -10    0.44    0.20
  -7   0 -10    0.05    0.17
   7   1 -12    5.17    0.47
   7   1 -12    4.39    0.43
   7   1 -12    5.30    0.45
   7   1 -11   12.94    0.86
   7   1 -11   13.66    0.97
   7   1 -11   13.16    0.94
   7   1 -10   73.02    3.96
   7   1 -10   70.93    4.08
   7   1 -10   65.02    4.06
   7   1 -10   68.00    4.02
   7   1  -9    6.35    0.49
   7   1  -9    5.89    0.51
   7   1  -9    5.95    0.61
   7   1  -9    5.90    0.63
   7   1  -9    6.78    0.67
   7   1  -9    5.45    0.57
   7   1  -8    4.95    0.46
   7   1  -8    6.95    0.55
   7   1  -8    7.12    0.65
   7   1  -8    5.81    0.52
   7   1  -8    5.76    0.54
   7   1  -7    0.55    0.34
   7   1  -7    0.85    0.23
   7   1  -7    1.40    0.29
   7   1  -7    1.13    0.30
   7   1  -7    0.97    0.29
   7   1  -6   11.49    0.70
  -7  -1   6   10.16    0.71
   7   1  -6    9.44    0.75
   7   1  -6    8.24    0.76
   7   1  -6    9.43    0.73
   7   1  -6   10.25    0.75
   7   1  -5   21.09    1.32
   7   1  -5   23.56    1.38
  -7  -1   5   23.60    1.35
   7   1  -5   18.31    1.35
   7   1  -5   20.96    1.35
  -7  -1   5   21.13    1.75
   7   1  -5   20.35    1.35
  -7  -1   4   23.30    1.88
   7   1  -4   22.80    1.42
   7   1  -4   24.21    1.85
   7   1  -4   23.58    1.46
  -7  -1   4   22.97    1.44
   7   1  -4   22.62    1.44
   7   1  -4   23.25    1.46
  -7  -1   3   45.96    3.00
   7   1  -3   37.79    2.78
   7   1  -3   43.40    2.90
  -7  -1   3   41.60    2.46
  -7  -1   2  105.68    6.28
   7   1  -2  102.79    6.20
  -7  -1   2  100.63    5.74
   7   1  -1    3.09    0.65
  -7  -1   0   11.20    1.18
   7   1   0   10.05    1.10
  -7  -1   0   11.27    0.79
  -7  -1  -1   13.31    1.33
   7   1   1   13.63    1.29
  -7  -1  -1   14.89    0.97
  -7  -1  -1   12.63    0.93
  -7  -1  -1   14.78    0.98
   7   1   2   10.87    0.75
  -7  -1  -2   11.14    0.81
  -7  -1  -2   10.50    0.77
  -7  -1  -2   11.69    0.84
   7   1   2   10.28    0.70
  -7  -1  -2   10.34    0.83
  -7  -1  -2   11.03    1.19
  -7  -1  -3   31.42    1.90
  -7  -1  -3   31.87    1.96
  -7  -1  -3   34.04    2.01
  -7  -1  -3   36.06    2.38
  -7  -1  -3   29.66    1.98
  -7  -1  -4    2.88    0.46
  -7  -1  -4    3.34    0.47
  -7  -1  -5   53.30    3.32
  -7  -1  -5   56.23    3.37
  -7  -1  -5   61.31    3.41
  -7  -1  -5   58.00    3.37
  -7  -1  -6    4.07    0.47
  -7  -1  -6    3.78    0.52
  -7  -1  -6    4.05    0.54
  -7  -1  -7    0.27    0.26
  -7  -1  -7    0.32    0.32
  -7  -1  -7   -0.16    0.31
  -7  -1  -8    0.23    0.20
  -7  -1  -8    0.19    0.28
  -7  -1  -8    0.47    0.28
  -7  -1  -9    1.64    0.22
  -7  -1  -9    1.67    0.26
  -7  -1  -9    1.62    0.30
  -7  -1  -9    1.40    0.24
  -7  -1 -10    3.49    0.32
   7   2 -13    1.22    0.20
   7   2 -13    0.92    0.20
   7   2 -12    3.64    0.39
   7   2 -12    3.95    0.40
   7   2 -12    3.71    0.41
   7   2 -11    9.59    0.66
   7   2 -11    8.11    0.73
   7   2 -11    9.62    0.75
   7   2 -11   10.40    0.72
   7   2 -10    7.61    0.56
   7   2 -10    7.87    0.69
   7   2 -10    7.67    0.69
   7   2 -10    7.00    0.63
   7   2  -9    0.94    0.22
   7   2  -9    0.94    0.28
   7   2  -9    1.34    0.38
   7   2  -9    1.41    0.35
   7   2  -8   12.24    0.83
   7   2  -8   14.36    0.91
   7   2  -8   12.73    0.96
   7   2  -8   12.03    0.97
   7   2  -8   13.67    0.92
   7   2  -8   12.13    0.91
   7   2  -7    0.22    0.20
   7   2  -7    0.18    0.25
   7   2  -7    0.04    0.30
   7   2  -7    0.19    0.32
   7   2  -7    0.03    0.25
   7   2  -7    0.18    0.27
   7   2  -6    2.35    0.30
  -7  -2   6    2.36    0.60
   7   2  -6    2.25    0.35
   7   2  -6    2.19    0.37
   7   2  -6    2.07    0.36
   7   2  -6    2.30    0.35
  -7  -2   6    2.55    0.32
   7   2  -5   37.93    2.14
  -7  -2   5   37.11    2.68
   7   2  -5   36.16    2.17
   7   2  -5   35.01    2.18
  -7  -2   5   33.15    2.16
   7   2  -5   35.46    2.17
   7   2  -5   39.90    2.19
   7   2  -4   19.52    1.21
   7   2  -4   20.21    1.24
   7   2  -4   18.92    1.67
  -7  -2   4   18.84    1.68
   7   2  -4   19.47    1.24
   7   2  -4   18.21    1.23
  -7  -2   4   18.87    1.25
   7   2  -3   39.54    2.38
   7   2  -3   40.87    2.92
  -7  -2   3   45.48    3.00
   7   2  -3   41.29    2.40
   7   2  -2  146.33    8.71
  -7  -2   2  143.19    8.67
   7   2  -1   25.95    1.58
  -7  -2   1   26.67    2.12
   7   2   0   60.02    3.37
  -7  -2   0   59.06    3.94
  -7  -2   0   56.11    3.40
  -7  -2   0   59.97    3.44
   7   2   1    2.27    0.31
  -7  -2  -1    1.73    0.63
  -7  -2  -1    2.57    0.39
   7   2   1    2.18    0.28
  -7  -2  -1    3.33    0.37
  -7  -2  -1    2.75    0.42
  -7  -2  -1    3.17    0.44
  -7  -2  -2   51.87    3.59
   7   2   2   51.93    3.05
   7   2   2   56.91    3.09
  -7  -2  -2   59.18    3.18
  -7  -2  -2   51.87    3.11
  -7  -2  -2   53.41    3.19
  -7  -2  -2   50.28    3.17
  -7  -2  -3   42.66    2.63
  -7  -2  -3   52.41    2.74
   7   2   3   43.34    2.59
  -7  -2  -3   49.18    2.78
  -7  -2  -3   45.43    2.74
  -7  -2  -4    1.59    0.41
  -7  -2  -4    1.02    0.39
  -7  -2  -4    1.40    0.37
  -7  -2  -5   61.56    3.55
  -7  -2  -5   61.15    3.61
  -7  -2  -5   66.12    3.70
  -7  -2  -5   64.16    3.69
  -7  -2  -5   58.68    3.62
  -7  -2  -6    0.15    0.22
  -7  -2  -6    0.06    0.26
  -7  -2  -6    0.29    0.33
  -7  -2  -6    0.21    0.33
  -7  -2  -6    0.16    0.27
  -7  -2  -7   28.93    1.74
  -7  -2  -7   29.89    1.86
  -7  -2  -8    4.74    0.47
  -7  -2  -8    5.01    0.50
  -7  -2  -8    4.82    0.42
  -7  -2  -9    0.01    0.13
  -7  -2  -9    0.32    0.21
   7   3 -13   11.34    0.76
   7   3 -13   12.69    0.79
   7   3 -12    0.90    0.25
   7   3 -11    0.03    0.28
   7   3 -11    0.23    0.30
   7   3 -11    0.28    0.26
   7   3 -10    6.90    0.50
   7   3 -10    7.77    0.64
   7   3 -10    7.47    0.67
   7   3 -10    7.18    0.59
   7   3  -9   30.13    1.69
   7   3  -9   26.92    1.82
   7   3  -9   30.61    1.80
   7   3  -9   27.22    1.78
   7   3  -9   27.29    1.72
   7   3  -8    6.64    0.47
   7   3  -8    5.34    0.59
   7   3  -8    6.92    0.63
   7   3  -8    5.49    0.54
   7   3  -8    5.59    0.54
   7   3  -8    5.63    0.50
   7   3  -7   39.52    2.25
   7   3  -7   41.92    2.23
   7   3  -7   37.11    2.33
  -7  -3   7   37.99    2.27
   7   3  -7   35.59    2.55
   7   3  -7   37.82    2.33
   7   3  -7   42.51    2.34
   7   3  -7   38.58    2.29
   7   3  -7   32.58    2.25
   7   3  -6    0.59    0.22
  -7  -3   6    0.72    0.51
   7   3  -6    0.82    0.32
   7   3  -6    1.38    0.31
   7   3  -6    0.63    0.27
  -7  -3   6    0.32    0.23
   7   3  -6    1.00    0.24
   7   3  -5    9.95    0.70
   7   3  -5   10.12    1.20
  -7  -3   5   10.87    1.23
   7   3  -5    9.16    0.74
   7   3  -4   51.36    3.02
   7   3  -4   45.52    3.56
  -7  -3   4   54.29    3.67
   7   3  -4   50.95    3.04
   7   3  -4   56.06    3.06
   7   3  -3   27.13    1.59
   7   3  -3   23.24    2.16
  -7  -3   3   23.72    2.11
   7   3  -3   25.05    1.59
  -7  -3   3   25.09    1.63
   7   3  -3   26.99    1.59
   7   3  -2   93.26    5.12
   7   3  -2   86.30    5.83
   7   3  -2   89.93    5.12
   7   3  -2   89.43    5.11
   7   3  -1    0.78    0.23
  -7  -3   1    0.91    0.27
   7   3  -1    1.04    0.25
  -7  -3   1    0.65    0.61
   7   3  -1    0.58    0.22
   7   3   0    1.57    0.28
  -7  -3   0    2.03    0.35
  -7  -3   0    2.45    0.71
   7   3   0    1.43    0.26
  -7  -3   0    1.71    0.38
   7   3   1   17.68    1.12
  -7  -3  -1   16.70    1.66
  -7  -3  -1   19.57    1.22
  -7  -3  -1   17.39    1.17
   7   3   1   17.46    1.10
  -7  -3  -1   17.21    1.24
  -7  -3  -1   16.75    1.22
  -7  -3  -2   10.52    1.20
  -7  -3  -2   11.50    0.87
  -7  -3  -2   10.21    0.79
   7   3   2    8.67    0.98
   7   3   2   11.67    0.75
  -7  -3  -2   11.55    0.91
  -7  -3  -2   11.94    0.89
  -7  -3  -3    4.27    0.51
  -7  -3  -3    4.60    0.57
  -7  -3  -3    3.47    0.55
  -7  -3  -3    4.06    0.51
  -7  -3  -4   11.71    0.82
  -7  -3  -4   12.10    0.98
  -7  -3  -4   11.97    0.91
  -7  -3  -5   23.16    1.46
  -7  -3  -5   24.97    1.62
  -7  -3  -5   24.45    1.53
  -7  -3  -6   12.42    0.86
  -7  -3  -6   13.67    0.99
  -7  -3  -6   13.39    0.91
  -7  -3  -7   26.98    1.53
  -7  -3  -7   24.31    1.53
  -7  -3  -8    0.83    0.18
  -7  -3  -8    0.77    0.23
   7   4 -13    3.00    0.29
   7   4 -12    1.92    0.31
   7   4 -12    2.22    0.34
   7   4 -11    7.03    0.63
   7   4 -11    8.00    0.65
   7   4 -11    6.99    0.59
   7   4 -10    0.21    0.32
   7   4 -10   -0.13    0.23
   7   4 -10   -0.15    0.33
   7   4 -10    0.38    0.26
   7   4  -9   62.76    3.59
   7   4  -9   62.92    3.58
   7   4  -9   61.67    3.53
   7   4  -9   57.41    3.50
   7   4  -8   81.09    4.47
   7   4  -8   77.64    4.60
   7   4  -8   84.52    4.62
   7   4  -8   76.93    4.54
   7   4  -8   78.35    4.55
   7   4  -7    6.54    0.53
   7   4  -7    6.68    0.48
  -7  -4   7    6.81    0.96
   7   4  -7    6.48    0.63
  -7  -4   7    6.44    0.57
   7   4  -7    6.07    0.59
   7   4  -7    6.03    0.78
   7   4  -7    7.43    0.56
   7   4  -7    6.76    0.61
   7   4  -6    3.08    0.36
   7   4  -6    2.54    0.74
  -7  -4   6    4.53    0.86
   7   4  -6    3.16    0.42
   7   4  -6    2.40    0.57
   7   4  -6    2.77    0.37
   7   4  -5    7.90    0.58
   7   4  -5    5.90    1.03
   7   4  -5    6.98    0.62
   7   4  -5    6.80    0.85
   7   4  -5    7.13    0.62
  -7  -4   5    6.60    1.05
  -7  -4   5    7.49    0.66
   7   4  -4    8.50    0.62
   7   4  -4    8.88    1.20
   7   4  -4    6.80    0.63
   7   4  -4    7.52    0.90
  -7  -4   4    6.16    1.05
  -7  -4   4    8.10    0.69
   7   4  -4    7.90    0.64
   7   4  -3   29.01    2.45
  -7  -4   3   24.84    2.24
   7   4  -3   25.13    1.67
   7   4  -3   29.17    1.68
  -7  -4   3   27.17    1.73
   7   4  -2    0.72    0.25
   7   4  -2   -0.34    0.60
  -7  -4   2    0.86    0.32
   7   4  -2    0.98    0.28
  -7  -4   2    0.43    0.59
   7   4  -2    0.50    0.22
   7   4  -1   60.66    3.46
   7   4  -1   55.33    4.28
  -7  -4   1   61.93    4.18
   7   4  -1   62.10    3.47
   7   4  -1   51.56    3.77
   7   4  -1   58.60    3.43
  -7  -4   1   65.22    3.56
   7   4   0   50.24    3.01
  -7  -4   0   47.43    3.65
   7   4   0   51.82    2.99
   7   4   0   43.60    3.31
  -7  -4   0   49.45    3.09
   7   4   1    5.11    0.47
  -7  -4  -1    4.45    0.86
   7   4   1    4.60    0.71
   7   4   1    4.68    0.45
  -7  -4  -1    5.63    0.58
  -7  -4  -2   40.40    2.30
  -7  -4  -2   37.26    2.33
  -7  -4  -2   35.16    2.38
  -7  -4  -3    2.98    0.36
  -7  -4  -3    3.83    0.54
  -7  -4  -3    3.80    0.46
  -7  -4  -4    1.40    0.27
  -7  -4  -4    1.47    0.42
  -7  -4  -4    1.79    0.48
  -7  -4  -4    1.11    0.33
  -7  -4  -5   20.37    1.31
  -7  -4  -5   21.60    1.46
  -7  -4  -5   22.63    1.46
  -7  -4  -5   22.07    1.36
  -7  -4  -6    9.89    0.68
  -7  -4  -6   10.09    0.80
  -7  -4  -6   10.88    0.81
  -7  -4  -7    3.90    0.33
  -7  -4  -7    3.96    0.43
  -7  -4  -8    0.03    0.16
   7   5 -13    3.78    0.33
   7   5 -12    0.08    0.17
   7   5 -12    0.05    0.24
   7   5 -12   -0.05    0.26
   7   5 -11    5.60    0.55
   7   5 -11    6.46    0.59
   7   5 -10    2.06    0.31
   7   5 -10    2.41    0.41
   7   5 -10    2.01    0.38
   7   5 -10    2.47    0.42
   7   5 -10    2.60    0.34
   7   5  -9   51.95    3.04
   7   5  -9   51.10    3.03
   7   5  -9   51.07    3.05
   7   5  -9   49.03    2.97
   7   5  -9   52.68    3.00
  -7  -5   8   66.12    3.93
   7   5  -8   71.79    3.99
   7   5  -8   69.54    4.02
   7   5  -8   67.59    3.96
   7   5  -7    3.53    0.47
  -7  -5   7    3.44    0.82
   7   5  -7    3.76    0.62
   7   5  -7    3.58    0.42
   7   5  -7    3.77    0.49
   7   5  -6   -0.11    0.25
  -7  -5   6    0.22    0.32
   7   5  -6    0.32    0.56
   7   5  -6    0.17    0.28
   7   5  -6   -0.07    0.27
   7   5  -6   -0.28    0.38
  -7  -5   6   -0.29    0.58
   7   5  -6    0.23    0.25
   7   5  -5    1.79    0.32
   7   5  -5    1.99    0.72
  -7  -5   5    1.89    0.39
   7   5  -5    1.97    0.37
   7   5  -5    1.33    0.44
   7   5  -5    1.87    0.35
  -7  -5   5    2.09    0.70
   7   5  -4   23.57    1.51
   7   5  -4   23.26    2.30
  -7  -5   4   23.82    2.16
   7   5  -4   25.72    1.56
   7   5  -4   21.28    1.83
   7   5  -4   24.54    1.54
  -7  -5   4   25.07    1.59
   7   5  -3    6.35    0.55
   7   5  -3    7.65    0.60
   7   5  -3    7.61    0.59
   7   5  -3    5.73    0.81
   7   5  -3    6.46    0.52
   7   5  -2    0.79    0.27
   7   5  -2    0.38    0.68
  -7  -5   2    0.57    0.33
   7   5  -2    0.77    0.28
   7   5  -2    0.75    0.40
   7   5  -2    0.54    0.24
  -7  -5   2    1.52    0.64
  -7  -5   2    0.61    0.36
   7   5  -1   61.47    3.71
   7   5  -1   60.27    4.64
  -7  -5   1   59.76    4.41
   7   5  -1   58.76    4.07
   7   5  -1   67.49    3.69
  -7  -5   1   70.07    3.84
  -7  -5   1   65.21    3.80
   7   5   0    6.94    0.60
   7   5   0    8.67    0.94
  -7  -5   0    7.00    1.11
   7   5   0    8.97    0.61
  -7  -5   0    8.55    0.76
  -7  -5   0    7.22    0.68
  -7  -5   0    8.00    0.72
  -7  -5  -1   41.41    2.38
  -7  -5  -1   42.48    2.56
  -7  -5  -1   39.67    2.48
  -7  -5  -2   16.52    1.03
  -7  -5  -2   17.87    1.23
  -7  -5  -2   14.23    1.09
  -7  -5  -3    1.08    0.25
  -7  -5  -3    0.96    0.42
  -7  -5  -3    0.73    0.39
  -7  -5  -3    0.87    0.30
  -7  -5  -4    0.32    0.21
  -7  -5  -4   -0.27    0.37
  -7  -5  -4    0.12    0.34
  -7  -5  -5    3.74    0.35
  -7  -5  -5    4.46    0.50
  -7  -5  -5    3.19    0.46
  -7  -5  -6    5.86    0.46
  -7  -5  -6    7.36    0.57
   7   5   6    7.35    0.48
  -7  -5  -6    6.79    0.56
  -7  -5  -7    0.31    0.16
   7   6 -13   14.20    0.92
   7   6 -13   16.65    0.98
   7   6 -12    9.09    0.62
   7   6 -12    8.54    0.65
   7   6 -12    7.40    0.57
   7   6 -11    3.83    0.44
   7   6 -11    4.80    0.48
   7   6 -10    0.85    0.35
   7   6 -10    1.17    0.34
   7   6 -10    1.07    0.32
   7   6 -10    1.14    0.30
   7   6  -9   17.68    1.22
   7   6  -9   20.05    1.24
   7   6  -9   16.44    1.25
   7   6  -9   17.32    1.19
   7   6  -8  130.11    7.28
   7   6  -8  128.77    7.45
   7   6  -8  139.96    7.40
   7   6  -8  126.18    7.38
  -7  -6   7   -0.07    0.27
  -7  -6   7    0.30    0.51
   7   6  -7    0.06    0.26
   7   6  -7   -0.13    0.19
   7   6  -6    6.95    1.20
   7   6  -6    7.12    0.65
   7   6  -6    7.75    0.91
   7   6  -6    7.36    0.66
   7   6  -6    6.87    0.53
  -7  -6   6    6.20    1.11
  -7  -6   6    7.29    0.67
   7   6  -5   34.96    3.18
  -7  -6   5   33.91    3.03
   7   6  -5   41.87    2.45
   7   6  -5   41.29    2.82
  -7  -6   5   40.07    2.47
   7   6  -5   41.64    2.46
   7   6  -5   40.25    2.35
   7   6  -4    0.78    0.80
  -7  -6   4    0.46    0.32
   7   6  -4    0.39    0.32
   7   6  -4    0.87    0.31
   7   6  -4    0.51    0.22
  -7  -6   4   -0.16    0.56
   7   6  -3   61.12    3.95
   7   6  -3   74.83    5.09
  -7  -6   3   69.58    4.76
   7   6  -3   76.95    4.02
   7   6  -3   68.97    4.39
   7   6  -3   67.73    3.99
   7   6  -3   70.40    3.93
  -7  -6   3   70.54    4.05
   7   6  -2   23.44    2.34
  -7  -6   2   21.25    2.02
   7   6  -2   20.27    1.68
  -7  -6   2   20.44    1.41
  -7  -6   2   19.53    1.37
   7   6  -1   85.99    5.99
  -7  -6   1   89.07    5.68
   7   6  -1   81.11    5.26
   7   6  -1   84.60    4.83
  -7  -6   1   90.76    4.99
  -7  -6   1   82.43    4.91
  -7  -6   1   87.71    4.94
  -7  -6   0   11.86    0.93
  -7  -6   0   10.50    0.84
  -7  -6  -1   19.95    1.38
  -7  -6  -1   23.43    1.51
  -7  -6  -1   22.97    1.42
  -7  -6  -2    3.03    0.33
  -7  -6  -2    3.32    0.50
  -7  -6  -3   -0.02    0.17
  -7  -6  -3   -0.18    0.37
  -7  -6  -4    0.41    0.18
  -7  -6  -4    0.41    0.34
  -7  -6  -4    0.13    0.28
  -7  -6  -5    2.43    0.25
   7   6   5    3.21    0.29
  -7  -6  -5    2.40    0.36
  -7  -6  -5    2.54    0.35
  -7  -6  -6    1.61    0.22
   7   7 -13   14.88    0.90
   7   7 -13   16.08    0.95
   7   7 -13   14.43    0.89
   7   7 -12   10.02    0.72
   7   7 -12   10.63    0.76
   7   7 -12   11.08    0.72
   7   7 -11   17.15    1.12
   7   7 -11   16.87    1.14
   7   7 -11   17.37    1.11
   7   7 -10    1.17    0.32
   7   7 -10    1.37    0.32
   7   7 -10    1.41    0.31
   7   7  -9    4.06    0.54
   7   7  -9    4.79    0.50
   7   7  -9    4.12    0.48
   7   7  -9    4.78    0.49
   7   7  -8   58.91    3.41
   7   7  -8   63.58    3.44
  -7  -7   8   58.03    3.42
   7   7  -8   53.50    3.41
   7   7  -7   11.26    0.95
   7   7  -7   11.98    0.80
   7   7  -7   12.74    0.89
  -7  -7   7   13.79    0.95
   7   7  -6   22.13    1.36
   7   7  -6   18.29    1.37
   7   7  -6   19.99    1.24
  -7  -7   6   20.78    1.38
   7   7  -5   27.49    1.71
   7   7  -5   28.51    1.61
   7   7  -5   24.70    1.71
  -7  -7   5   24.43    1.71
   7   7  -4   11.60    0.83
   7   7  -4   10.76    0.73
   7   7  -3   33.95    2.24
   7   7  -3   37.42    2.18
  -7  -7   3   39.45    2.33
  -7  -7   3   37.77    2.29
  -7  -7   2    0.04    0.29
  -7  -7   2    0.26    0.38
  -7  -7   2   -0.20    0.30
  -7  -7   1   73.48    4.22
  -7  -7   1   70.36    4.16
  -7  -7   0   24.93    1.65
  -7  -7  -1    0.67    0.34
  -7  -7  -2    2.80    0.42
   7   7   3    0.18    0.21
  -7  -7  -3    0.15    0.33
  -7  -7  -3    0.15    0.27
   7   7   4    0.80    0.20
  -7  -7  -4    0.63    0.27
  -7  -7  -4    1.03    0.25
   7   8 -13    5.77    0.39
   7   8 -13    4.35    0.35
   7   8 -12    6.22    0.46
   7   8 -12    6.14    0.49
   7   8 -11   30.20    1.82
   7   8 -11   30.22    1.84
   7   8 -11   31.35    1.84
   7   8 -10    1.67    0.32
   7   8 -10    1.11    0.29
   7   8 -10    1.91    0.32
   7   8  -9    2.54    0.38
   7   8  -9    1.87    0.34
   7   8  -9    2.24    0.38
  -7  -8   8   -0.07    0.26
   7   8  -8    0.06    0.29
   7   8  -8    0.03    0.25
   7   8  -7   21.09    1.43
   7   8  -7   20.56    1.25
  -7  -8   7   21.14    1.39
   7   8  -6    4.39    0.56
   7   8  -6    4.75    0.41
  -7  -8   6    5.03    0.54
  -7  -8   5    1.06    0.34
   7   8  -5    0.46    0.30
   7   8  -5    1.02    0.22
   7   8  -5    0.99    0.22
  -7  -8   5    0.53    0.35
  -7  -8   4    0.04    0.29
   7   8  -4    0.15    0.21
  -7  -8   4   -0.08    0.35
  -7  -8   3    7.12    0.68
  -7  -8   3    6.08    0.60
  -7  -8   2    9.66    0.79
  -7  -8   2    8.51    0.73
  -7  -8   1   12.74    0.92
  -7  -8   1   10.44    0.83
  -7  -8   0   15.64    1.10
   7   8   1    5.34    0.48
  -7  -8  -1    4.91    0.52
  -7  -8  -1    5.49    0.41
  -7  -8  -2   12.89    0.96
   7   8   2   14.04    0.88
  -7  -8  -2   12.62    0.90
   7   8   3    0.27    0.17
  -7  -8  -3    0.39    0.23
  -7  -8  -3   -0.02    0.19
   7   9 -12   11.49    0.72
   7   9 -12   11.87    0.76
   7   9 -11    2.48    0.31
   7   9 -11    2.88    0.33
   7   9 -11    3.09    0.33
   7   9 -10    1.66    0.20
   7   9 -10    1.71    0.30
   7   9 -10    1.62    0.28
   7   9  -9    3.41    0.39
   7   9  -9    3.58    0.39
   7   9  -9    3.38    0.38
  -7  -9   8    0.48    0.26
   7   9  -8    0.33    0.28
   7   9  -8    0.68    0.31
   7   9  -7   16.20    1.10
  -7  -9   7   15.98    1.11
  -7  -9   6    4.27    0.50
  -7  -9   6    5.91    0.59
   7   9  -5    0.43    0.20
  -7  -9   5    0.63    0.34
  -7  -9   4    0.27    0.26
   7   9  -4    0.69    0.23
  -7  -9   4    1.02    0.35
  -7  -9   3    0.10    0.25
   7   9  -3   -0.05    0.21
  -7  -9   3    0.21    0.31
  -7  -9   2    0.86    0.25
   7   9  -2    1.37    0.28
  -7  -9   2    1.09    0.33
   7   9  -1    0.31    0.22
  -7  -9   1   -0.18    0.29
  -7  -9   0    4.10    0.42
  -7  -9   0    3.85    0.34
   7   9   1    2.93    0.30
  -7  -9  -1    2.34    0.37
  -7  -9  -1    2.07    0.29
   7   9   2    2.50    0.25
  -7  -9  -2    1.87    0.29
   7  10 -12   15.80    0.95
   7  10 -11    0.12    0.15
   7  10 -10    5.17    0.35
   7  10 -10    5.83    0.45
   7  10  -9    0.22    0.14
  -7 -10   9    0.65    0.29
   7  10  -9    0.04    0.21
   7  10  -9    0.48    0.24
  -7 -10   8    0.50    0.23
  -7 -10   8    0.42    0.30
   7  10  -8    0.29    0.23
  -7 -10   7   10.06    0.76
   7  10  -7    9.78    0.73
  -7 -10   7    9.08    0.73
  -7 -10   6    1.40    0.30
  -7 -10   6    2.59    0.39
   7  10  -5    7.21    0.55
  -7 -10   5    6.98    0.61
  -7 -10   4    1.45    0.30
   7  10  -4    1.34    0.24
  -7 -10   4    1.85    0.33
  -7 -10   3    0.25    0.20
   7  10  -3    0.04    0.19
  -7 -10   3    0.08    0.24
   7  10  -2    5.06    0.39
   7  10  -2    5.32    0.45
  -7 -10   2    5.68    0.48
  -7 -10   2    5.79    0.44
   7  10  -1    0.31    0.19
  -7 -10   1    0.83    0.18
  -7 -10   0    2.24    0.32
   7  10   1    0.19    0.11
   7  11 -10    7.84    0.54
   7  11  -9    2.49    0.22
  -7 -11   9    2.68    0.24
   7  11  -9    2.48    0.28
   7  11  -8    0.04    0.14
   7  11  -8    0.10    0.20
   7  11  -7    7.49    0.46
   7  11  -7    4.99    0.47
   7  11  -6    0.81    0.18
   7  11  -6    0.86    0.22
   7  11  -5    0.06    0.15
   7  11  -5    0.05    0.12
   7  11  -5   -0.09    0.18
   7  11  -4    4.74    0.34
   7  11  -4    3.73    0.34
   7  11  -4    3.92    0.34
   7  11  -3    4.51    0.32
   7  11  -3    3.83    0.34
  -7 -11   3    4.03    0.35
   7  11  -2    0.20    0.14
  -7 -11   2    0.32    0.14
   7  11  -1    0.80    0.15
   7  12  -8    0.86    0.14
  -7 -12   7    0.21    0.15
   7  12  -6    0.68    0.14
  -7 -12   6    0.82    0.18
   7  12  -5    0.38    0.11
  -7 -12   5    0.14    0.14
  -7 -12   4    0.47    0.13
   8 -12   1    0.19    0.14
   8 -12   1   -0.02    0.15
   8 -12   2   -0.03    0.15
   8 -12   2    0.03    0.16
  -8  12  -2    0.13    0.17
   8 -12   3   -0.04    0.13
   8 -12   3   -0.08    0.16
  -8  12  -3    0.27    0.23
  -8  12  -3    0.15    0.19
  -8  12  -4    0.96    0.19
  -8  12  -4    1.21    0.26
  -8  12  -4    1.70    0.26
  -8  12  -5    5.23    0.44
  -8  12  -5    4.87    0.42
  -8  12  -6    3.96    0.37
  -8  12  -6    4.77    0.42
  -8  12  -6    3.97    0.38
  -8  12  -7    5.55    0.44
  -8  12  -7    5.32    0.45
  -8  12  -7    5.76    0.43
  -8  12  -8    2.74    0.26
  -8  12  -8    1.52    0.24
   8 -11  -1    0.29    0.18
   8 -11   0    0.54    0.22
   8 -11   0    1.01    0.26
  -8  11   0    1.27    0.20
   8 -11   1    0.28    0.20
   8 -11   1    0.51    0.24
  -8  11  -1    0.34    0.21
   8 -11   2    0.13    0.21
   8 -11   2    0.10    0.23
  -8  11  -2    0.10    0.24
   8 -11   3    0.77    0.21
   8 -11   3    0.74    0.25
  -8  11  -3    0.85    0.22
  -8  11  -3    1.13    0.34
  -8  11  -3    1.33    0.31
   8 -11   4    0.87    0.24
  -8  11  -4    0.67    0.25
  -8  11  -4    0.94    0.32
  -8  11  -5    0.32    0.15
  -8  11  -5    0.52    0.24
  -8  11  -5    0.73    0.29
  -8  11  -5    0.60    0.27
  -8  11  -6    1.62    0.24
  -8  11  -6    2.43    0.34
  -8  11  -6    1.97    0.35
  -8  11  -6    2.28    0.34
  -8  11  -7    5.68    0.45
  -8  11  -7    7.11    0.54
  -8  11  -7    6.15    0.54
  -8  11  -7    6.63    0.51
  -8  11  -8    0.37    0.17
  -8  11  -8    0.73    0.25
  -8  11  -8    0.23    0.23
  -8  11  -8    0.74    0.17
  -8  11  -8    0.89    0.19
  -8  11  -9    0.11    0.13
  -8  11  -9   -0.09    0.19
  -8  11  -9    0.03    0.15
   8 -10  -3    0.85    0.19
   8 -10  -3    0.66    0.19
   8 -10  -3    0.69    0.18
   8 -10  -2    1.45    0.27
   8 -10  -2    1.52    0.26
   8 -10  -1    1.44    0.30
   8 -10  -1    2.71    0.36
   8 -10  -1    1.80    0.28
  -8  10   1    2.28    0.27
   8 -10   0   -0.17    0.25
   8 -10   0    0.18    0.28
   8 -10   0   -0.09    0.20
  -8  10   0   -0.22    0.23
   8 -10   1    0.68    0.28
   8 -10   1    0.41    0.29
  -8  10  -1    0.51    0.18
  -8  10  -1    0.64    0.27
   8 -10   2    0.08    0.23
   8 -10   2    0.62    0.30
  -8  10  -2    0.13    0.19
  -8  10  -2    0.20    0.18
  -8  10  -2    0.38    0.29
   8 -10   3    0.74    0.26
   8 -10   3    0.76    0.27
  -8  10  -3    0.49    0.22
  -8  10  -3    0.40    0.21
  -8  10  -3    0.80    0.26
  -8  10  -3    0.63    0.33
   8 -10   4    5.65    0.54
  -8  10  -4    7.30    0.53
  -8  10  -4    6.41    0.58
  -8  10  -4    6.91    0.65
  -8  10  -5    3.40    0.34
  -8  10  -5    2.95    0.36
  -8  10  -5    3.80    0.43
  -8  10  -5    3.56    0.47
  -8  10  -5    4.09    0.46
  -8  10  -6    8.75    0.62
  -8  10  -6    8.68    0.66
  -8  10  -6    9.50    0.73
  -8  10  -6   10.75    0.78
  -8  10  -6    8.82    0.71
  -8  10  -6    8.45    0.66
  -8  10  -7    0.07    0.22
  -8  10  -7    0.27    0.27
  -8  10  -7   -0.03    0.27
  -8  10  -7   -0.07    0.23
  -8  10  -7    0.13    0.23
  -8  10  -8   -0.02    0.20
  -8  10  -8    0.45    0.26
  -8  10  -8    0.11    0.25
  -8  10  -8    0.16    0.17
  -8  10  -8    0.17    0.22
  -8  10  -9    7.39    0.56
  -8  10  -9    8.57    0.61
  -8  10  -9    7.22    0.59
  -8  10  -9    8.18    0.59
  -8  10 -10    1.02    0.19
  -8  10 -10    1.24    0.22
  -8  10 -10    1.27    0.20
  -8  10 -10    1.25    0.23
   8  -9  -5    0.06    0.12
   8  -9  -4   -0.14    0.17
   8  -9  -4   -0.09    0.18
   8  -9  -4    0.27    0.20
   8  -9  -3    0.32    0.23
   8  -9  -3    0.21    0.23
   8  -9  -3    0.19    0.22
   8  -9  -2    0.88    0.28
   8  -9  -1    3.35    0.42
   8  -9  -1    3.20    0.44
  -8   9   1    3.09    0.29
   8  -9  -1    2.99    0.40
  -8   9   1    2.43    0.37
   8  -9   0    0.43    0.29
   8  -9   0    0.54    0.32
  -8   9   0    0.32    0.19
   8  -9   0   -0.03    0.25
  -8   9   0    0.63    0.31
   8  -9   1    1.35    0.34
  -8   9  -1    1.28    0.23
   8  -9   1    0.98    0.27
  -8   9  -1    0.90    0.32
   8  -9   2    4.25    0.46
  -8   9  -2    4.19    0.44
  -8   9  -2    4.57    0.53
   8  -9   3    0.27    0.25
   8  -9   3    0.06    0.25
  -8   9  -3    0.53    0.26
  -8   9  -3    0.58    0.29
  -8   9  -4    7.34    0.59
  -8   9  -4    5.82    0.60
  -8   9  -4    8.01    0.69
  -8   9  -4    6.52    0.64
  -8   9  -5   18.27    1.26
  -8   9  -5   22.20    1.23
  -8   9  -5   19.38    1.32
  -8   9  -5   19.85    1.37
  -8   9  -5   18.21    1.31
  -8   9  -6   23.95    1.45
  -8   9  -6   23.82    1.39
  -8   9  -6   23.38    1.51
  -8   9  -6   22.44    1.52
  -8   9  -6   21.96    1.47
  -8   9  -6   22.48    1.46
  -8   9  -7    0.16    0.24
  -8   9  -7    0.20    0.15
  -8   9  -7    0.16    0.28
  -8   9  -7    0.07    0.29
  -8   9  -7    0.05    0.22
  -8   9  -7   -0.27    0.29
  -8   9  -8    0.88    0.27
  -8   9  -8    1.07    0.31
  -8   9  -8    1.19    0.31
  -8   9  -9    7.93    0.63
  -8   9  -9    8.67    0.67
  -8   9  -9    8.97    0.66
  -8   9  -9    9.05    0.67
  -8   9 -10   -0.24    0.20
  -8   9 -10   -0.08    0.19
  -8   9 -10    0.15    0.17
  -8   9 -10   -0.02    0.21
  -8   9 -11    2.19    0.23
  -8   9 -11    1.95    0.24
   8  -8  -6    0.56    0.17
   8  -8  -5   -0.15    0.18
   8  -8  -5   -0.06    0.18
   8  -8  -4   -0.32    0.25
   8  -8  -4   -0.25    0.26
   8  -8  -4    0.16    0.24
   8  -8  -3    0.48    0.32
   8  -8  -3   -0.03    0.31
   8  -8  -3    0.30    0.29
   8  -8  -2    0.78    0.32
  -8   8   2    0.16    0.25
   8  -8  -1    2.25    0.40
   8  -8  -1    1.97    0.41
   8  -8  -1    1.59    0.36
  -8   8   1    1.69    0.35
   8  -8   0    0.18    0.30
   8  -8   0   -0.20    0.33
   8  -8   0    0.03    0.27
  -8   8   0    0.21    0.30
   8  -8   1   13.14    0.90
  -8   8  -1   11.80    0.94
   8  -8   1   12.25    0.92
   8  -8   2    1.21    0.33
  -8   8  -2    0.80    0.28
  -8   8  -2    1.38    0.40
   8  -8   3    4.15    0.46
   8  -8   3    4.14    0.48
  -8   8  -3    4.23    0.47
  -8   8  -4    0.18    0.25
  -8   8  -4    0.07    0.26
  -8   8  -4   -0.17    0.32
  -8   8  -4   -0.11    0.32
  -8   8  -5    0.51    0.27
  -8   8  -5    0.39    0.31
  -8   8  -5    0.62    0.36
  -8   8  -5    0.49    0.31
  -8   8  -5    0.89    0.29
  -8   8  -6    3.03    0.39
  -8   8  -6    3.31    0.44
  -8   8  -6    2.92    0.45
  -8   8  -6    2.38    0.39
  -8   8  -6    1.81    0.38
  -8   8  -7    1.94    0.34
  -8   8  -7    1.83    0.23
  -8   8  -7    1.99    0.41
  -8   8  -7    1.19    0.36
  -8   8  -7    2.62    0.34
  -8   8  -7    1.97    0.36
  -8   8  -8    4.34    0.44
  -8   8  -8    3.41    0.44
  -8   8  -8    4.17    0.47
  -8   8  -9   18.99    1.22
  -8   8  -9   18.86    1.24
  -8   8 -10    0.08    0.20
  -8   8 -10    0.47    0.19
  -8   8 -10    0.50    0.25
  -8   8 -11    3.19    0.30
  -8   8 -11    3.64    0.32
   8  -7  -7    1.32    0.20
   8  -7  -6    0.38    0.18
   8  -7  -6    0.95    0.26
   8  -7  -5    0.43    0.26
   8  -7  -5    0.32    0.26
   8  -7  -5    0.42    0.18
   8  -7  -4    0.30    0.31
   8  -7  -4    0.22    0.29
   8  -7  -4   -0.03    0.27
   8  -7  -3    0.29    0.31
   8  -7  -3    0.37    0.23
   8  -7  -3    0.31    0.31
   8  -7  -3    0.56    0.24
   8  -7  -2    0.53    0.32
   8  -7  -2    0.54    0.37
   8  -7  -2    0.25    0.28
  -8   7   2    0.29    0.28
   8  -7  -1    0.45    0.33
   8  -7  -1    0.99    0.35
   8  -7  -1    0.71    0.32
  -8   7   1    1.17    0.32
   8  -7   0    3.07    0.45
   8  -7   0    3.41    0.47
   8  -7   0    3.51    0.45
  -8   7   0    3.99    0.49
   8  -7   1   17.93    1.31
   8  -7   1   21.42    1.31
  -8   7  -1   21.01    1.35
   8  -7   1   18.36    1.30
   8  -7   2   26.00    1.66
  -8   7  -2   25.12    1.63
  -8   7  -2   26.63    1.69
   8  -7   2   26.78    1.66
  -8   7  -3    9.75    0.79
  -8   7  -3   11.26    0.85
  -8   7  -4    0.09    0.26
  -8   7  -4   -0.21    0.28
  -8   7  -4    0.04    0.30
  -8   7  -4    0.32    0.31
  -8   7  -5    0.49    0.26
  -8   7  -5    0.29    0.31
  -8   7  -5    0.44    0.32
  -8   7  -5    0.64    0.30
  -8   7  -5    0.62    0.28
  -8   7  -6    1.46    0.35
  -8   7  -6    1.22    0.35
  -8   7  -6    1.35    0.32
  -8   7  -6    1.17    0.35
  -8   7  -7    0.21    0.29
  -8   7  -7   -0.25    0.27
  -8   7  -7   -0.03    0.22
  -8   7  -7    0.07    0.28
  -8   7  -8    1.30    0.31
  -8   7  -8    1.42    0.36
  -8   7  -8    1.26    0.32
  -8   7  -8    1.05    0.35
  -8   7  -9    6.40    0.57
  -8   7  -9    7.48    0.59
  -8   7  -9    7.21    0.61
  -8   7 -10    1.31    0.28
  -8   7 -10    0.90    0.23
  -8   7 -10    1.09    0.23
  -8   7 -10    1.43    0.30
  -8   7 -10    0.99    0.20
  -8   7 -11    1.28    0.23
  -8   7 -11    1.47    0.18
   8  -6  -8   -0.05    0.16
   8  -6  -7    5.29    0.43
   8  -6  -7    3.82    0.35
   8  -6  -6    7.48    0.62
   8  -6  -6    7.58    0.63
   8  -6  -6    6.57    0.53
   8  -6  -6    8.61    0.61
   8  -6  -5    0.03    0.29
   8  -6  -5    0.39    0.32
   8  -6  -5    0.37    0.17
   8  -6  -4    2.32    0.42
   8  -6  -4    2.52    0.45
   8  -6  -4    2.15    0.31
   8  -6  -4    1.99    0.27
   8  -6  -4    2.12    0.41
   8  -6  -3    2.57    0.29
  -8   6   3    3.17    0.38
   8  -6  -2   12.33    0.98
   8  -6  -2   13.32    0.82
   8  -6  -2   10.82    0.90
  -8   6   2   12.18    0.91
   8  -6  -2   10.86    0.92
   8  -6  -1   20.08    1.46
   8  -6  -1   24.37    1.35
   8  -6  -1   22.51    2.05
   8  -6  -1   20.91    1.43
  -8   6   1   22.61    1.45
  -8   6   1   19.93    1.66
   8  -6  -1   20.20    1.43
   8  -6   0   18.13    1.27
   8  -6   0   16.99    1.81
   8  -6   0   19.81    1.26
  -8   6   0   18.80    1.27
  -8   6   0   15.16    1.46
   8  -6   0   19.20    1.27
   8  -6   1   22.22    1.41
   8  -6   1   20.56    1.37
  -8   6  -1   19.45    1.39
  -8   6  -1   23.96    1.70
   8  -6   1   22.76    1.41
   8  -6   2    0.13    0.27
   8  -6   2    0.44    0.29
   8  -6   2    0.75    0.63
  -8   6  -2    0.15    0.25
   8  -6   3   31.88    2.59
  -8   6  -3   31.65    1.89
  -8   6  -3   29.13    1.90
  -8   6  -3   29.34    2.18
  -8   6  -4    2.49    0.54
  -8   6  -4    2.84    0.41
  -8   6  -4    3.26    0.45
  -8   6  -4    2.55    0.41
  -8   6  -4    3.60    0.39
  -8   6  -5    5.79    0.60
  -8   6  -5    5.77    0.60
  -8   6  -5    7.00    0.59
  -8   6  -5    6.32    0.59
  -8   6  -6   11.00    0.82
  -8   6  -6   11.66    0.86
  -8   6  -6   10.89    0.84
  -8   6  -6   10.94    0.79
  -8   6  -6    9.64    0.83
  -8   6  -7    0.24    0.27
  -8   6  -7    0.30    0.26
  -8   6  -7    0.11    0.31
  -8   6  -8    8.92    0.73
  -8   6  -8    8.82    0.72
  -8   6  -8    9.79    0.78
  -8   6  -8   10.17    0.71
  -8   6  -9    2.02    0.33
  -8   6  -9    1.62    0.29
  -8   6  -9    1.18    0.29
  -8   6  -9    1.86    0.35
  -8   6  -9    1.65    0.29
  -8   6 -10    0.37    0.21
  -8   6 -10   -0.19    0.19
  -8   6 -10    0.36    0.26
  -8   6 -10   -0.12    0.20
  -8   6 -11    0.05    0.16
  -8   6 -11    0.14    0.11
  -8   6 -11    0.17    0.15
   8  -5  -9    0.02    0.16
   8  -5  -9   -0.06    0.15
   8  -5  -8    1.22    0.24
   8  -5  -8    1.42    0.19
   8  -5  -7    0.83    0.24
   8  -5  -7    1.65    0.23
   8  -5  -7    0.95    0.29
   8  -5  -7    1.07    0.23
   8  -5  -6    3.97    0.48
   8  -5  -6    4.43    0.39
   8  -5  -6    3.82    0.50
   8  -5  -6    4.29    0.43
   8  -5  -6    4.67    0.49
   8  -5  -5    0.99    0.36
   8  -5  -5    1.15    0.38
   8  -5  -5    1.01    0.23
   8  -5  -4   18.98    1.31
   8  -5  -4   17.92    1.18
   8  -5  -4   20.86    1.15
   8  -5  -4   15.60    1.23
   8  -5  -4   15.39    1.23
   8  -5  -3   14.06    0.85
  -8   5   3   12.23    0.91
   8  -5  -2   52.54    3.20
   8  -5  -2   56.48    3.85
   8  -5  -2   49.45    3.17
   8  -5  -2   54.38    3.83
  -8   5   2   57.63    3.18
  -8   5   2   53.02    3.44
   8  -5  -2   54.11    3.19
   8  -5  -1   72.04    4.01
   8  -5  -1   64.05    4.59
   8  -5  -1   66.54    3.97
  -8   5   1   72.75    3.99
  -8   5   1   65.68    4.24
   8  -5  -1   64.72    3.97
   8  -5   0   26.80    1.59
   8  -5   0   22.42    2.15
   8  -5   0   24.77    1.55
  -8   5   0   23.20    1.55
  -8   5   0   21.84    1.80
   8  -5   0   23.40    1.55
   8  -5   1   14.09    1.08
  -8   5  -1   16.33    1.05
   8  -5   1   17.46    1.09
  -8   5  -1   15.37    1.09
  -8   5  -1   17.39    1.39
   8  -5   1   14.46    1.08
  -8   5  -2    5.98    0.80
  -8   5  -2    6.35    0.58
   8  -5   2    6.64    1.09
  -8   5  -2    7.74    0.64
   8  -5   2    6.99    0.61
  -8   5  -3   12.76    0.89
  -8   5  -3   11.94    0.89
  -8   5  -3   11.92    0.89
  -8   5  -3   13.00    1.16
  -8   5  -4    5.53    0.72
   8  -5   4    4.71    0.88
  -8   5  -4    4.63    0.49
  -8   5  -4    4.14    0.49
  -8   5  -4    5.41    0.52
  -8   5  -4    4.06    0.48
  -8   5  -5    5.34    0.71
  -8   5  -5    5.41    0.51
   8  -5   5    4.36    0.87
  -8   5  -5    4.85    0.53
  -8   5  -5    5.12    0.53
  -8   5  -5    4.57    0.50
  -8   5  -5    6.33    0.57
  -8   5  -5    6.00    0.53
  -8   5  -6    0.42    0.27
  -8   5  -6    0.29    0.29
  -8   5  -6    0.36    0.30
  -8   5  -6   -0.09    0.27
  -8   5  -7    5.71    0.55
  -8   5  -7    6.69    0.61
  -8   5  -8    0.20    0.27
  -8   5  -8   -0.12    0.27
  -8   5  -8    0.17    0.30
  -8   5  -9    9.42    0.63
  -8   5  -9   10.40    0.75
  -8   5  -9   10.26    0.74
  -8   5  -9   11.43    0.78
  -8   5  -9    9.82    0.73
  -8   5 -10    0.51    0.23
  -8   5 -10    0.14    0.18
  -8   5 -10    0.08    0.21
  -8   5 -11    4.24    0.36
  -8   5 -11    4.85    0.37
   8  -4  -9    1.17    0.19
   8  -4  -9    0.87    0.22
   8  -4  -9    0.89    0.26
   8  -4  -9    1.21    0.17
   8  -4  -8    0.17    0.18
   8  -4  -8    0.12    0.22
   8  -4  -8    0.30    0.20
   8  -4  -7    0.06    0.24
   8  -4  -7    0.14    0.17
   8  -4  -7    0.16    0.32
   8  -4  -7    0.15    0.23
   8  -4  -6    1.83    0.37
   8  -4  -6    1.51    0.37
   8  -4  -6    1.35    0.27
   8  -4  -6    1.37    0.38
   8  -4  -5   -0.19    0.30
   8  -4  -5   -0.04    0.33
   8  -4  -5   -0.02    0.21
   8  -4  -5    0.38    0.33
   8  -4  -5    0.03    0.22
   8  -4  -4    1.59    0.38
   8  -4  -4    1.78    0.33
   8  -4  -4    2.35    0.30
   8  -4  -4    1.16    0.38
   8  -4  -4    1.56    0.68
   8  -4  -4    1.37    0.33
   8  -4  -3   14.94    1.02
   8  -4  -3    9.14    1.30
   8  -4  -3   11.65    0.96
   8  -4  -3   11.72    1.40
  -8   4   3   14.66    0.97
  -8   4   3   13.93    1.21
   8  -4  -2    2.59    0.41
   8  -4  -2    2.82    0.44
  -8   4   2    2.55    0.54
   8  -4  -2    1.64    0.64
   8  -4  -2    2.42    0.42
   8  -4  -2    2.45    0.66
  -8   4   2    2.96    0.42
   8  -4  -1    9.13    0.74
   8  -4  -1    7.33    1.10
   8  -4  -1    7.92    0.69
  -8   4   1    8.98    0.72
  -8   4   1    8.00    0.92
   8  -4  -1    8.39    0.71
   8  -4   0    0.24    0.26
   8  -4   0   -0.07    0.26
  -8   4   0    0.17    0.37
   8  -4   0   -0.14    0.52
   8  -4   0    0.06    0.26
  -8   4   0   -0.03    0.27
   8  -4   1   23.20    1.42
   8  -4   1   21.44    1.99
  -8   4  -1   21.70    1.38
   8  -4   1   23.10    1.40
   8  -4   1   19.77    1.39
   8  -4   2    9.47    1.29
  -8   4  -2   10.12    0.78
  -8   4  -2   11.56    0.82
  -8   4  -2    9.04    1.02
   8  -4   2   10.86    0.79
   8  -4   3   63.00    4.02
  -8   4  -3   55.89    3.29
  -8   4  -3   56.26    3.30
  -8   4  -3   58.35    3.29
  -8   4  -3   50.99    3.56
  -8   4  -3   55.69    3.29
  -8   4  -4    0.47    0.37
  -8   4  -4    0.31    0.24
   8  -4   4   -0.13    0.51
  -8   4  -4    0.68    0.31
  -8   4  -4    0.43    0.29
  -8   4  -4   -0.13    0.26
  -8   4  -4    0.26    0.27
   8  -4   5   79.51    4.54
  -8   4  -5   80.27    4.54
  -8   4  -5   76.74    4.57
  -8   4  -5   80.12    4.58
  -8   4  -5   79.37    4.80
  -8   4  -5   79.94    4.57
  -8   4  -6    1.96    0.34
  -8   4  -6    1.36    0.36
  -8   4  -6    1.75    0.37
  -8   4  -7    1.16    0.31
  -8   4  -7    1.38    0.32
  -8   4  -7    1.53    0.36
  -8   4  -7    1.29    0.35
  -8   4  -8    0.32    0.19
  -8   4  -8    0.22    0.26
  -8   4  -8    0.09    0.26
  -8   4  -8    0.21    0.31
  -8   4  -9   14.94    0.93
  -8   4  -9   15.81    1.02
  -8   4  -9   16.56    1.02
  -8   4  -9   14.20    1.01
  -8   4 -10    0.34    0.20
  -8   4 -10    0.25    0.17
  -8   4 -10    0.30    0.17
  -8   4 -10   -0.08    0.22
  -8   4 -11    8.75    0.59
   8  -3 -10    1.13    0.25
   8  -3 -10    0.90    0.21
   8  -3 -10    1.59    0.24
   8  -3  -9    3.14    0.34
   8  -3  -9    3.78    0.35
   8  -3  -8    1.56    0.27
   8  -3  -8    1.93    0.27
   8  -3  -8    1.43    0.31
   8  -3  -8    1.96    0.31
   8  -3  -7    6.71    0.52
   8  -3  -7    5.93    0.60
   8  -3  -7    6.67    0.57
   8  -3  -7    6.14    0.57
   8  -3  -6    7.93    0.72
   8  -3  -6    7.79    0.60
   8  -3  -6    7.28    0.70
   8  -3  -6    8.83    0.63
   8  -3  -6    7.59    0.69
   8  -3  -5   28.25    1.86
   8  -3  -5   26.54    1.76
   8  -3  -5   31.23    1.75
   8  -3  -5   28.01    1.84
   8  -3  -5   30.03    1.84
   8  -3  -4   11.96    0.84
   8  -3  -4   12.63    0.82
   8  -3  -4   11.70    1.27
   8  -3  -4    8.96    1.22
   8  -3  -4   10.83    0.85
   8  -3  -4   11.86    0.91
   8  -3  -3    0.66    0.33
   8  -3  -3    0.83    0.29
  -8   3   3    1.50    0.46
   8  -3  -3    1.01    0.56
   8  -3  -3    0.95    0.35
   8  -3  -3    1.41    0.54
   8  -3  -2    1.32    0.33
   8  -3  -2    0.89    0.33
  -8   3   2    0.77    0.40
   8  -3  -2    0.39    0.49
   8  -3  -2    1.19    0.33
   8  -3  -2    0.98    0.47
  -8   3   2    0.82    0.30
   8  -3  -1    0.41    0.30
   8  -3  -1    0.24    0.28
  -8   3   1    0.09    0.38
   8  -3  -1    0.66    0.59
   8  -3  -1    0.30    0.28
  -8   3   1    0.03    0.29
   8  -3   0    5.95    0.56
   8  -3   0    7.03    0.58
  -8   3   0    6.61    0.59
   8  -3   0    6.21    0.58
   8  -3   1   11.37    1.33
  -8   3  -1   10.75    0.81
   8  -3   1   12.44    0.82
  -8   3  -1   11.98    0.86
  -8   3  -1   10.30    0.82
  -8   3  -1   11.39    1.11
   8  -3   1   10.53    0.81
   8  -3   2   14.00    1.57
  -8   3  -2   16.02    1.08
  -8   3  -2   16.30    1.09
  -8   3  -2   16.08    1.09
  -8   3  -2   14.50    1.34
   8  -3   3   14.76    1.04
   8  -3   3   13.30    1.47
  -8   3  -3   16.59    1.06
  -8   3  -3   16.10    1.04
  -8   3  -3   14.49    1.03
  -8   3  -3   13.66    1.05
  -8   3  -3   14.71    1.31
   8  -3   4    0.12    0.24
  -8   3  -4    0.55    0.34
  -8   3  -4    0.67    0.25
   8  -3   4    0.50    0.48
  -8   3  -4    0.42    0.28
  -8   3  -4    0.07    0.27
  -8   3  -4    0.28    0.29
  -8   3  -5   39.24    2.35
  -8   3  -5   41.89    2.42
  -8   3  -5   37.53    2.41
  -8   3  -6    1.04    0.29
  -8   3  -6    1.38    0.37
  -8   3  -6    1.30    0.35
  -8   3  -7    0.47    0.25
  -8   3  -7    0.52    0.29
  -8   3  -7    0.80    0.36
  -8   3  -7    0.28    0.32
  -8   3  -8    1.15    0.23
  -8   3  -8    1.17    0.27
  -8   3  -8    1.33    0.30
  -8   3  -9   15.63    0.94
  -8   3  -9   15.33    1.00
  -8   3  -9   14.38    0.99
  -8   3  -9   16.49    1.04
  -8   3 -10    0.85    0.14
  -8   3 -10    0.80    0.18
  -8   3 -10    1.32    0.24
   8  -2 -11    3.18    0.29
   8  -2 -11    3.22    0.30
   8  -2 -10    0.83    0.27
   8  -2 -10    0.53    0.25
   8  -2 -10    0.51    0.19
   8  -2  -9    0.63    0.23
   8  -2  -9    0.67    0.32
   8  -2  -9    0.67    0.24
   8  -2  -8    3.15    0.38
   8  -2  -8    1.50    0.33
   8  -2  -7   16.01    1.00
   8  -2  -7   15.35    1.09
   8  -2  -7   14.69    1.06
   8  -2  -7   14.68    1.04
   8  -2  -6   16.08    1.03
   8  -2  -6   15.78    1.13
   8  -2  -6   15.82    1.06
   8  -2  -6   15.35    1.10
   8  -2  -5   20.21    1.40
   8  -2  -5   19.20    1.29
   8  -2  -5   23.11    1.31
   8  -2  -5   19.87    1.39
   8  -2  -5   20.33    1.34
   8  -2  -5   21.49    1.38
   8  -2  -4    0.07    0.29
   8  -2  -4    0.04    0.31
   8  -2  -4   -0.06    0.24
  -8   2   4    0.17    0.33
   8  -2  -4    0.12    0.43
   8  -2  -4   -0.10    0.26
   8  -2  -3   71.52    4.03
   8  -2  -3   69.67    3.97
   8  -2  -3   70.52    4.54
   8  -2  -3   65.85    4.00
   8  -2  -3   68.77    3.99
  -8   2   3   68.66    4.33
   8  -2  -2    0.72    0.30
   8  -2  -2    1.05    0.33
   8  -2  -2    1.03    0.30
  -8   2   2    1.76    0.55
   8  -2  -2    2.13    0.66
   8  -2  -2    1.84    0.36
   8  -2  -1   16.78    1.10
   8  -2  -1   16.35    1.10
   8  -2  -1   15.25    1.56
   8  -2  -1   14.97    1.08
  -8   2   1   14.41    1.40
   8  -2  -1   17.12    1.11
   8  -2   0    0.27    0.25
   8  -2   0   -0.15    0.27
   8  -2   0    0.19    0.27
   8  -2   0    0.26    0.49
   8  -2   0    0.09    0.23
  -8   2   0    0.13    0.27
   8  -2   1   52.07    3.09
   8  -2   1   53.87    3.67
  -8   2  -1   57.80    3.10
   8  -2   1   56.16    3.07
  -8   2  -1   50.06    3.10
  -8   2  -1   44.26    3.37
   8  -2   1   50.76    3.06
   8  -2   2    3.07    0.40
  -8   2  -2    3.00    0.61
  -8   2  -2    3.45    0.41
  -8   2  -2    3.57    0.46
   8  -2   3    1.46    0.32
  -8   2  -3    2.34    0.53
   8  -2   3    1.33    0.58
  -8   2  -3    2.44    0.39
  -8   2  -3    1.53    0.39
   8  -2   4   13.80    0.99
  -8   2  -4   15.21    0.99
   8  -2   4   17.04    1.50
  -8   2  -4   15.81    1.08
  -8   2  -4   15.49    1.09
  -8   2  -4   12.45    1.22
  -8   2  -5   52.43    3.10
  -8   2  -5   51.55    3.15
  -8   2  -5   56.97    3.20
  -8   2  -5   54.45    3.19
  -8   2  -6    3.64    0.40
  -8   2  -6    2.95    0.44
  -8   2  -6    4.16    0.49
  -8   2  -6    4.48    0.53
  -8   2  -7    2.07    0.31
  -8   2  -7    2.33    0.37
  -8   2  -7    1.92    0.37
  -8   2  -7    1.95    0.40
  -8   2  -8    0.12    0.19
  -8   2  -8   -0.07    0.21
  -8   2  -8   -0.13    0.24
  -8   2  -8   -0.03    0.24
  -8   2  -9    0.21    0.15
  -8   2  -9    0.10    0.19
  -8   2  -9    0.32    0.22
  -8   2 -10    3.18    0.26
  -8   2 -10    3.58    0.34
   8  -1 -11    1.74    0.27
   8  -1 -11    2.10    0.28
   8  -1 -10    5.65    0.53
   8  -1 -10    5.42    0.51
   8  -1 -10    5.20    0.54
   8  -1 -10    5.67    0.47
   8  -1  -9    8.61    0.58
   8  -1  -9    7.48    0.60
   8  -1  -9    7.06    0.66
   8  -1  -9    7.98    0.70
   8  -1  -9    7.58    0.63
   8  -1  -8    8.05    0.57
   8  -1  -8    7.59    0.64
   8  -1  -8    5.96    0.67
   8  -1  -7   21.57    1.36
   8  -1  -7   21.42    1.44
   8  -1  -7   22.91    1.39
   8  -1  -7   22.03    1.45
   8  -1  -7   22.59    1.43
   8  -1  -6   20.39    1.25
   8  -1  -6   18.57    1.29
   8  -1  -6   17.86    1.27
   8  -1  -5   -0.04    0.29
   8  -1  -5    0.03    0.21
   8  -1  -5    0.11    0.38
   8  -1  -5   -0.15    0.32
   8  -1  -5    0.06    0.25
   8  -1  -4    0.32    0.28
   8  -1  -4   -0.05    0.24
  -8   1   4    0.19    0.39
   8  -1  -4    0.11    0.46
   8  -1  -4   -0.03    0.25
   8  -1  -4   -0.06    0.25
   8  -1  -3   13.27    0.89
   8  -1  -3   10.66    0.81
   8  -1  -3   12.68    1.31
   8  -1  -3   12.20    0.86
   8  -1  -3   10.93    0.84
   8  -1  -3   12.39    0.87
   8  -1  -2    6.53    0.59
   8  -1  -2    5.19    0.92
  -8   1   2    7.08    0.58
   8  -1  -2    7.80    0.62
   8  -1  -2    7.06    0.60
   8  -1  -2    6.89    0.61
  -8   1   1   26.57    1.63
   8  -1  -1   27.30    1.65
   8  -1  -1   25.45    1.64
   8  -1   0    0.23    0.23
   8  -1   0    0.41    0.26
   8  -1   0    0.12    0.50
   8  -1   0    0.17    0.24
  -8   1   0    0.72    0.27
   8  -1   1   61.38    3.55
   8  -1   1   56.75    4.04
  -8   1  -1   66.22    3.55
  -8   1  -1   58.02    3.52
  -8   1  -1   61.22    3.59
   8  -1   2   17.17    1.09
   8  -1   2   16.08    1.57
  -8   1  -2   16.67    1.10
  -8   1  -2   15.70    1.10
  -8   1  -2   14.96    1.14
  -8   1  -2   17.93    1.48
   8  -1   3    5.40    0.52
  -8   1  -3    4.82    0.72
  -8   1  -3    6.21    0.50
   8  -1   3    5.27    0.87
  -8   1  -3    6.13    0.56
  -8   1  -3    6.10    0.58
  -8   1  -3    7.19    0.61
  -8   1  -3    5.60    0.60
  -8   1  -4   31.85    1.89
  -8   1  -4   31.58    1.95
  -8   1  -4   31.95    1.98
  -8   1  -4   34.92    2.01
  -8   1  -4   28.43    1.98
  -8   1  -5    2.62    0.41
  -8   1  -5    3.21    0.44
  -8   1  -5    3.05    0.48
  -8   1  -6    4.80    0.52
  -8   1  -6    5.82    0.58
  -8   1  -7    2.99    0.32
  -8   1  -7    2.49    0.35
  -8   1  -7    2.96    0.43
  -8   1  -8    5.59    0.43
  -8   1  -8    5.09    0.46
  -8   1  -8    4.28    0.48
  -8   1  -9    0.34    0.16
  -8   1  -9    0.46    0.18
  -8   1  -9    0.20    0.22
  -8   1  -9    0.54    0.24
  -8   1 -10    1.06    0.14
  -8   1 -10    1.14    0.19
   8   0 -12    4.61    0.36
   8   0 -11    0.22    0.22
   8   0 -11    0.24    0.23
   8   0 -11    0.19    0.18
   8   0 -10    1.87    0.26
   8   0 -10    1.95    0.34
   8   0 -10    2.02    0.35
   8   0 -10    1.86    0.36
   8   0  -9    3.18    0.34
   8   0  -9    3.82    0.39
   8   0  -9    3.25    0.45
   8   0  -9    2.92    0.46
   8   0  -9    2.99    0.47
   8   0  -9    3.86    0.44
   8   0  -8    0.17    0.19
   8   0  -8    0.16    0.32
   8   0  -8   -0.06    0.26
   8   0  -8    0.07    0.30
   8   0  -8    0.19    0.22
   8   0  -8    0.51    0.31
   8   0  -7   18.70    1.16
   8   0  -7   20.33    1.25
   8   0  -7   15.61    1.22
   8   0  -7   16.05    1.26
   8   0  -7   18.70    1.20
   8   0  -7   19.77    1.24
   8   0  -6    1.51    0.35
   8   0  -6    0.87    0.24
   8   0  -6    0.85    0.32
   8   0  -6    0.76    0.31
   8   0  -6    0.47    0.26
   8   0  -5   28.07    1.77
   8   0  -5   28.24    2.25
   8   0  -5   30.33    1.85
   8   0  -5   28.28    1.81
   8   0  -5   32.43    1.84
   8   0  -5   30.99    1.85
  -8   0   5   24.32    2.11
   8   0  -4    2.69    0.39
   8   0  -4    2.34    0.34
   8   0  -4    3.18    0.71
   8   0  -4    1.49    0.32
  -8   0   4    2.73    0.34
   8   0  -4    2.86    0.38
   8   0  -3    6.71    0.58
  -8   0   3    6.50    0.95
   8   0  -3    8.02    1.01
  -8   0   3    6.85    0.59
   8   0  -3    7.95    0.63
   8   0  -3    7.02    0.61
   8   0  -2    2.81    0.37
   8   0  -2    2.58    0.37
  -8   0   2    3.86    0.76
   8   0  -2    2.35    0.63
   8   0  -2    2.51    0.36
   8   0  -2    2.77    0.37
  -8   0   2    2.72    0.37
   8   0  -1    1.34    0.30
   8   0  -1    1.41    0.54
   8   0  -1    0.98    0.28
   8   0   0    6.88    0.59
  -8   0   0    7.72    1.00
   8   0   0    6.55    0.97
  -8   0   0    7.69    0.62
  -8   0   0    7.78    0.60
   8   0   0    7.07    0.59
  -8   0   0    6.79    0.62
   8   0   1   25.99    1.60
   8   0   1   26.11    2.09
  -8   0  -1   25.79    1.60
  -8   0  -1   26.08    1.61
   8   0   1   25.21    1.58
  -8   0  -1   26.30    1.64
  -8   0  -1   28.72    2.14
  -8   0  -1   23.98    1.65
   8   0   2    9.86    0.77
   8   0   2   11.45    1.23
  -8   0  -2   10.82    0.78
  -8   0  -2   11.14    0.81
  -8   0  -2   10.91    0.84
  -8   0  -2   11.02    0.88
   8   0   3   44.98    2.62
  -8   0  -3   43.77    2.67
  -8   0  -3   48.08    2.72
  -8   0  -3   41.37    2.98
  -8   0  -4   15.44    1.06
  -8   0  -4   14.57    1.10
  -8   0  -5   23.91    1.53
  -8   0  -5   21.79    1.50
  -8   0  -6   50.89    2.93
  -8   0  -6   49.91    2.99
  -8   0  -6   48.37    2.96
  -8   0  -7    0.86    0.24
  -8   0  -7    0.65    0.27
  -8   0  -7    1.02    0.31
  -8   0  -7    1.41    0.33
  -8   0  -8    1.65    0.25
  -8   0  -8    1.98    0.27
  -8   0  -8    1.53    0.32
  -8   0  -9    0.01    0.14
  -8   0  -9   -0.04    0.19
  -8   0  -9   -0.09    0.18
   8   1 -12    0.47    0.19
   8   1 -11    0.65    0.28
   8   1 -11    0.54    0.22
   8   1 -10    3.44    0.34
   8   1 -10    3.71    0.45
   8   1 -10    4.04    0.47
   8   1 -10    3.74    0.41
   8   1  -9    0.28    0.19
   8   1  -9    0.28    0.32
   8   1  -9    0.53    0.31
   8   1  -9    0.36    0.22
   8   1  -9    0.58    0.30
   8   1  -8    4.26    0.37
   8   1  -8    3.98    0.42
   8   1  -8    3.31    0.47
   8   1  -8    4.06    0.50
   8   1  -8    3.17    0.41
   8   1  -8    3.34    0.43
   8   1  -7   39.85    2.28
   8   1  -7   39.50    2.35
   8   1  -7   34.66    2.35
   8   1  -7   37.15    2.37
   8   1  -7   41.30    2.35
   8   1  -7   39.64    2.34
   8   1  -6   29.10    1.77
   8   1  -6   29.31    1.76
  -8  -1   6   27.91    1.78
   8   1  -6   29.95    1.84
   8   1  -6   28.78    1.84
   8   1  -6   28.27    1.85
   8   1  -6   33.62    1.85
   8   1  -5   12.26    0.82
   8   1  -5   12.69    0.87
  -8  -1   5   10.46    0.83
   8   1  -5   13.06    0.89
   8   1  -5   11.81    0.86
   8   1  -5   10.40    0.85
  -8  -1   5   10.92    1.25
   8   1  -4    4.63    0.45
   8   1  -4    3.75    0.77
  -8  -1   4    5.01    0.85
   8   1  -4    4.53    0.48
  -8  -1   4    4.24    0.46
   8   1  -4    4.20    0.45
   8   1  -3    9.90    0.71
   8   1  -3   10.48    1.16
  -8  -1   3    8.21    1.13
   8   1  -3   10.31    0.74
  -8  -1   3   10.00    0.74
   8   1  -3    9.32    0.70
   8   1  -3    7.75    0.70
  -8  -1   2    0.13    0.49
   8   1  -2    0.09    0.23
  -8  -1   2    0.12    0.29
   8   1  -1   21.76    1.37
   8   1  -1   18.72    1.85
   8   1  -1   21.99    1.84
   8   1  -1   21.76    1.36
  -8  -1   1   22.52    1.91
   8   1   0   10.25    0.75
   8   1   0   10.13    1.17
  -8  -1   0    9.65    1.19
  -8  -1   0   10.56    0.76
  -8  -1   0   10.53    0.79
   8   1   0    9.77    0.73
  -8  -1   0   10.29    0.82
   8   1   1    4.02    0.42
  -8  -1  -1    3.80    0.79
  -8  -1  -1    4.34    0.46
  -8  -1  -1    3.76    0.46
  -8  -1  -1    5.04    0.53
   8   1   2    0.51    0.24
  -8  -1  -2    0.46    0.46
  -8  -1  -2    0.13    0.30
  -8  -1  -2    0.22    0.24
   8   1   2   -0.06    0.17
  -8  -1  -2    0.82    0.35
  -8  -1  -2   -0.16    0.34
  -8  -1  -3  161.04    8.93
  -8  -1  -3  163.27    9.00
  -8  -1  -3  162.00    9.04
  -8  -1  -3  153.84    9.02
  -8  -1  -4   39.06    2.32
  -8  -1  -4   42.96    2.39
  -8  -1  -5   61.25    3.49
  -8  -1  -5   62.97    3.63
  -8  -1  -5   58.84    3.58
  -8  -1  -6   30.36    1.88
  -8  -1  -6   30.82    1.92
  -8  -1  -6   34.50    2.02
  -8  -1  -6   32.74    1.97
  -8  -1  -7    1.62    0.30
  -8  -1  -7    1.36    0.34
  -8  -1  -8    3.72    0.33
  -8  -1  -8    3.73    0.41
  -8  -1  -8    4.18    0.38
  -8  -1  -9    0.55    0.13
  -8  -1  -9    0.61    0.18
  -8  -1  -9    0.57    0.15
   8   2 -12    3.40    0.33
   8   2 -12    3.03    0.34
   8   2 -11    0.11    0.24
   8   2 -11    0.16    0.21
   8   2 -10    2.88    0.29
   8   2 -10    2.44    0.41
   8   2 -10    2.65    0.42
   8   2 -10    2.91    0.39
   8   2  -9   10.67    0.72
   8   2  -9    9.71    0.82
   8   2  -9    9.93    0.84
   8   2  -9   11.91    0.80
   8   2  -9   10.81    0.80
   8   2  -8    0.48    0.20
   8   2  -8    0.55    0.34
   8   2  -8    0.52    0.27
   8   2  -8    0.57    0.33
   8   2  -8    0.28    0.28
   8   2  -7   18.79    1.16
   8   2  -7   17.83    1.15
   8   2  -7   18.98    1.27
   8   2  -7   16.50    1.24
   8   2  -7   21.82    1.27
   8   2  -7   17.96    1.22
   8   2  -6  107.97    5.85
  -8  -2   6   99.94    5.86
   8   2  -6   99.74    5.90
   8   2  -6  101.24    5.89
   8   2  -6  110.53    5.91
  -8  -2   6  101.49    6.41
   8   2  -5   30.27    1.71
  -8  -2   5   26.22    1.72
   8   2  -5   27.40    1.74
  -8  -2   5   23.60    2.18
   8   2  -4    1.03    0.28
  -8  -2   4    0.66    0.57
   8   2  -4    0.59    0.27
   8   2  -4    0.81    0.26
  -8  -2   4    0.64    0.29
  -8  -2   3   32.17    2.57
   8   2  -3   32.92    1.97
   8   2  -3   33.20    1.98
  -8  -2   3   30.49    2.00
   8   2  -3   33.97    1.99
   8   2  -2   88.44    5.09
   8   2  -2   98.60    5.87
   8   2  -2   89.65    5.10
  -8  -2   1   21.12    1.89
   8   2  -1   17.83    1.27
   8   2  -1   19.97    1.94
  -8  -2   1   23.29    1.31
  -8  -2   1   19.55    1.32
   8   2  -1   20.09    1.28
  -8  -2   1   19.69    1.35
  -8  -2   0  118.24    7.61
   8   2   0  122.13    6.97
  -8  -2   0  135.32    7.02
  -8  -2   0  124.87    7.02
   8   2   0  122.05    6.95
  -8  -2   0  124.24    7.05
  -8  -2   0  119.00    7.05
   8   2   1   15.62    0.99
  -8  -2  -1   16.67    1.07
  -8  -2  -1   16.03    1.04
   8   2   1   13.09    0.94
  -8  -2  -1   14.25    1.08
  -8  -2  -1   13.50    1.08
  -8  -2  -1   15.40    1.55
   8   2   2    5.90    0.50
  -8  -2  -2    4.49    0.87
  -8  -2  -2    5.77    0.52
  -8  -2  -2    6.59    0.59
   8   2   2    5.60    0.46
  -8  -2  -2    4.45    0.60
  -8  -2  -2    6.12    0.64
  -8  -2  -3    3.32    0.47
   8   2   3    3.25    0.32
  -8  -2  -3    4.29    0.54
  -8  -2  -3    3.35    0.49
  -8  -2  -4    3.74    0.48
  -8  -2  -4    4.78    0.56
  -8  -2  -4    4.17    0.51
  -8  -2  -5   13.97    0.95
  -8  -2  -5   13.47    1.03
  -8  -2  -6    5.03    0.43
  -8  -2  -6    5.07    0.55
  -8  -2  -6    4.91    0.49
  -8  -2  -7    0.76    0.19
  -8  -2  -7    0.74    0.29
  -8  -2  -8    5.07    0.43
  -8  -2  -8    4.52    0.36
   8   3 -12    1.26    0.26
   8   3 -12    1.69    0.27
   8   3 -11   -0.03    0.25
   8   3 -11    0.14    0.22
   8   3 -10    1.13    0.28
   8   3 -10    1.06    0.33
   8   3 -10    1.12    0.28
   8   3  -9    5.19    0.41
   8   3  -9    4.93    0.54
   8   3  -9    5.23    0.54
   8   3  -9    5.34    0.51
   8   3  -9    5.20    0.50
   8   3  -8    1.07    0.21
   8   3  -8    1.06    0.37
   8   3  -8    1.22    0.31
   8   3  -8    1.30    0.34
   8   3  -8    0.74    0.28
   8   3  -8    1.10    0.26
   8   3  -7    2.12    0.30
   8   3  -7    3.31    0.31
   8   3  -7    3.11    0.45
   8   3  -7    2.86    0.41
   8   3  -7    2.82    0.38
  -8  -3   7    2.50    0.35
   8   3  -7    1.65    0.33
   8   3  -7    2.38    0.34
  -8  -3   6   42.89    3.21
   8   3  -6   46.40    2.63
  -8  -3   6   43.25    2.66
   8   3  -6   42.68    2.68
   8   3  -6   36.13    2.93
   8   3  -6   45.68    2.66
   8   3  -6   49.97    2.71
   8   3  -6   45.37    2.63
   8   3  -5   72.52    3.90
  -8  -3   5   61.41    4.49
   8   3  -5   63.21    3.91
  -8  -3   5   64.68    3.92
   8   3  -5   72.13    3.94
   8   3  -4   27.48    1.58
  -8  -3   4   25.94    2.22
   8   3  -4   21.62    2.07
   8   3  -4   26.20    1.59
  -8  -3   4   23.51    1.61
   8   3  -4   24.14    1.59
   8   3  -3   28.67    2.39
  -8  -3   3   28.17    2.38
   8   3  -3   28.04    1.69
  -8  -3   3   23.93    1.71
   8   3  -3   28.44    1.69
   8   3  -2   12.78    0.88
   8   3  -2   11.52    1.49
   8   3  -2   12.11    0.88
   8   3  -2   13.74    0.90
   8   3  -1   10.24    0.77
   8   3  -1   10.04    1.45
  -8  -3   1   12.03    0.82
  -8  -3   1    8.36    1.25
  -8  -3   1   10.17    0.84
   8   3  -1   10.63    0.77
  -8  -3   1   11.38    0.89
   8   3   0  376.39   20.27
  -8  -3   0  345.53   20.98
  -8  -3   0  405.09   20.33
  -8  -3   0  376.39   20.33
   8   3   0  354.20   20.23
  -8  -3   0  359.67   20.37
  -8  -3   0  342.23   20.35
  -8  -3  -1   57.82    4.06
   8   3   1   59.97    3.41
  -8  -3  -1   67.80    3.51
  -8  -3  -1   53.40    3.44
   8   3   1   51.74    3.75
   8   3   1   58.85    3.38
  -8  -3  -1   61.36    3.55
  -8  -3  -1   60.28    3.52
   8   3   2    0.02    0.19
  -8  -3  -2    0.53    0.32
  -8  -3  -2    0.34    0.24
   8   3   2    0.08    0.19
  -8  -3  -2    0.13    0.36
  -8  -3  -2    0.40    0.37
  -8  -3  -3    3.66    0.39
  -8  -3  -3    3.41    0.47
  -8  -3  -3    4.52    0.55
  -8  -3  -3    3.67    0.49
  -8  -3  -4    0.02    0.22
  -8  -3  -4   -0.66    0.34
  -8  -3  -4    0.04    0.35
  -8  -3  -4    0.03    0.28
  -8  -3  -5   13.46    0.88
  -8  -3  -5   13.46    0.97
  -8  -3  -5   13.10    1.00
  -8  -3  -5   13.85    0.94
  -8  -3  -6    0.95    0.21
  -8  -3  -6    0.71    0.32
  -8  -3  -7    0.01    0.15
  -8  -3  -7    0.38    0.22
  -8  -3  -7    0.27    0.16
  -8  -3  -8    7.29    0.51
   8   4 -13    0.71    0.15
   8   4 -13    0.62    0.17
   8   4 -12    0.54    0.22
   8   4 -12    0.56    0.23
   8   4 -11    2.16    0.34
   8   4 -11    2.10    0.35
   8   4 -10    4.35    0.47
   8   4 -10    3.79    0.44
   8   4 -10    4.15    0.41
   8   4  -9    3.98    0.48
   8   4  -9    4.02    0.47
   8   4  -9    3.80    0.47
   8   4  -9    3.91    0.40
   8   4  -9    4.16    0.41
   8   4  -8   13.70    1.01
   8   4  -8   13.75    0.99
   8   4  -8   15.17    1.03
   8   4  -8   13.52    0.93
   8   4  -8   12.99    0.94
   8   4  -7    8.00    0.60
   8   4  -7    8.04    0.55
   8   4  -7    7.50    0.68
  -8  -4   7    6.40    0.61
   8   4  -7    7.65    0.65
   8   4  -7    8.50    0.70
   8   4  -6    0.46    0.25
  -8  -4   6    0.14    0.59
   8   4  -6    0.10    0.30
   8   4  -6    0.48    0.38
  -8  -4   6    0.34    0.29
   8   4  -5   35.21    2.12
   8   4  -5   28.95    2.71
  -8  -4   5   34.25    2.80
   8   4  -5   35.10    2.15
   8   4  -5   31.33    2.48
   8   4  -5   39.44    2.19
   8   4  -4    0.31    0.26
   8   4  -4    0.33    0.56
  -8  -4   4    0.61    0.62
   8   4  -4    0.22    0.30
   8   4  -4    0.20    0.38
   8   4  -4    0.46    0.29
   8   4  -3    1.24    0.29
   8   4  -3    0.36    0.62
   8   4  -3    0.51    0.29
   8   4  -3    1.12    0.45
   8   4  -3    0.62    0.28
   8   4  -2   35.49    2.14
   8   4  -2   31.18    2.91
  -8  -4   2   39.78    2.94
   8   4  -2   36.55    2.14
   8   4  -2   31.02    2.48
   8   4  -2   37.16    2.15
   8   4  -2   34.42    2.09
  -8  -4   2   35.99    2.24
   8   4  -1   29.66    1.73
   8   4  -1   24.68    2.53
  -8  -4   1   24.50    2.34
   8   4  -1   28.65    1.72
   8   4  -1   26.78    2.12
   8   4  -1   26.20    1.68
  -8  -4   1   30.34    1.85
   8   4   0   62.68    3.56
  -8  -4   0   61.37    4.29
   8   4   0   53.58    4.45
   8   4   0   56.48    3.93
  -8  -4   0   61.10    3.61
   8   4   0   63.72    3.54
  -8  -4   0   59.87    3.67
  -8  -4   0   64.14    3.67
   8   4   1    0.10    0.21
   8   4   1    0.37    0.22
  -8  -4  -1   -0.16    0.26
  -8  -4  -1   -0.24    0.35
  -8  -4  -2    0.16    0.20
  -8  -4  -2    0.05    0.32
  -8  -4  -2    0.40    0.32
  -8  -4  -3    2.37    0.31
  -8  -4  -3    3.29    0.48
  -8  -4  -3    2.27    0.40
  -8  -4  -4    0.04    0.19
  -8  -4  -4   -0.33    0.30
  -8  -4  -4    0.49    0.27
  -8  -4  -5    1.32    0.22
  -8  -4  -5    1.39    0.30
  -8  -4  -5    1.35    0.25
  -8  -4  -6    1.11    0.19
  -8  -4  -7    0.10    0.11
  -8  -4  -7    0.20    0.17
   8   5 -13    1.53    0.18
   8   5 -13    1.41    0.20
   8   5 -12    0.02    0.19
   8   5 -12    0.33    0.22
   8   5 -11    1.33    0.22
   8   5 -11    1.39    0.30
   8   5 -11    1.85    0.31
   8   5 -10    1.81    0.28
   8   5 -10    1.46    0.32
   8   5 -10    1.79    0.34
   8   5  -9    0.19    0.28
   8   5  -9    0.32    0.26
   8   5  -9    0.19    0.21
   8   5  -9    0.19    0.23
  -8  -5   8    9.58    0.73
   8   5  -8   10.66    0.81
   8   5  -8    8.73    0.75
   8   5  -8   10.73    0.82
   8   5  -8   10.13    0.77
   8   5  -7   50.10    2.86
  -8  -5   7   45.25    2.82
   8   5  -7   47.85    2.80
   8   5  -6    4.53    0.47
   8   5  -6    5.37    0.55
   8   5  -6    5.18    0.54
   8   5  -5  123.78    7.33
   8   5  -5  135.09    7.39
   8   5  -5  124.01    8.17
  -8  -5   5  134.06    8.17
   8   5  -5  139.86    7.38
   8   5  -5  120.11    7.74
   8   5  -4   54.28    4.22
  -8  -5   4   53.51    4.07
   8   5  -4   63.29    3.40
   8   5  -4   57.33    3.38
   8   5  -4   55.56    3.30
   8   5  -3   68.18    4.03
   8   5  -3   70.29    5.01
   8   5  -3   74.12    4.06
   8   5  -3   61.04    4.40
   8   5  -3   71.77    4.06
   8   5  -2  126.94    7.59
   8   5  -2  135.12    8.70
  -8  -5   2  136.08    8.44
   8   5  -2  145.59    7.62
   8   5  -2  121.44    7.99
   8   5  -2  133.73    7.61
   8   5  -2  140.39    7.57
   8   5  -1   21.01    1.43
   8   5  -1   24.03    1.42
  -8  -5   1   23.07    1.57
  -8  -5   1   23.81    1.54
  -8  -5   0   11.86    0.86
   8   5   0   11.31    0.78
  -8  -5   0   10.94    0.92
  -8  -5   0   10.40    0.88
  -8  -5  -1   20.69    1.25
  -8  -5  -1   18.60    1.30
  -8  -5  -1   22.59    1.45
  -8  -5  -1   20.61    1.37
  -8  -5  -2   -0.02    0.19
  -8  -5  -2    0.27    0.36
  -8  -5  -2   -0.38    0.36
  -8  -5  -2    0.03    0.28
  -8  -5  -3    5.62    0.45
  -8  -5  -3    6.22    0.61
  -8  -5  -3    6.24    0.61
  -8  -5  -3    5.32    0.50
  -8  -5  -4    0.28    0.17
  -8  -5  -4    0.25    0.27
  -8  -5  -4    0.26    0.29
  -8  -5  -5    0.06    0.14
  -8  -5  -5    0.09    0.20
  -8  -5  -5   -0.05    0.23
  -8  -5  -6    8.07    0.57
   8   6 -13    0.18    0.14
   8   6 -12    0.24    0.20
   8   6 -12    0.54    0.20
   8   6 -11    4.53    0.45
   8   6 -11    4.64    0.45
   8   6 -10   11.29    0.79
   8   6 -10    9.45    0.75
   8   6 -10    9.57    0.79
   8   6 -10   10.52    0.74
   8   6  -9    2.22    0.43
   8   6  -9    2.47    0.36
   8   6  -9    2.06    0.34
   8   6  -8    1.07    0.35
   8   6  -8    0.52    0.26
   8   6  -8    0.49    0.19
  -8  -6   8    0.48    0.26
   8   6  -8    0.45    0.28
   8   6  -7    5.92    0.57
   8   6  -7    5.66    0.59
   8   6  -7    5.06    0.44
   8   6  -6    5.95    0.59
   8   6  -6    5.00    0.59
   8   6  -6    6.39    0.49
   8   6  -5   26.02    1.59
   8   6  -5   24.26    1.60
   8   6  -5   23.96    1.49
  -8  -6   4    4.63    0.53
   8   6  -4    4.14    0.48
   8   6  -4    3.49    0.46
   8   6  -4    4.23    0.41
   8   6  -3   26.31    1.57
   8   6  -3   22.50    1.54
  -8  -6   3   26.24    1.66
  -8  -6   3   22.88    1.59
   8   6  -2   12.01    0.84
  -8  -6   2   12.75    1.01
  -8  -6   2   12.59    0.96
   8   6  -1   40.48    2.32
  -8  -6   1   43.00    2.48
  -8  -6   1   35.82    2.39
  -8  -6   0    0.39    0.37
  -8  -6   0    0.40    0.27
  -8  -6   0    0.23    0.28
  -8  -6  -1   11.37    0.89
  -8  -6  -1   10.16    0.78
  -8  -6  -2   -0.31    0.34
  -8  -6  -2   -0.07    0.32
  -8  -6  -3    0.27    0.15
  -8  -6  -3    0.25    0.28
  -8  -6  -4    0.63    0.14
   8   6   4    0.63    0.20
  -8  -6  -4    0.73    0.23
  -8  -6  -4    0.57    0.25
  -8  -6  -5    1.82    0.24
   8   7 -12    3.15    0.30
   8   7 -12    3.24    0.31
   8   7 -12    2.81    0.27
   8   7 -11    0.69    0.24
   8   7 -11    0.75    0.23
   8   7 -10   12.86    0.85
   8   7 -10   10.96    0.81
   8   7 -10   11.65    0.81
   8   7  -9    1.44    0.37
   8   7  -9    2.62    0.34
   8   7  -9    2.28    0.35
   8   7  -8   -0.12    0.31
   8   7  -8    0.24    0.16
  -8  -7   8    0.03    0.24
   8   7  -8    0.25    0.28
   8   7  -7    2.38    0.41
   8   7  -7    2.53    0.44
   8   7  -7    3.24    0.31
   8   7  -6   18.71    1.19
   8   7  -6   15.65    1.20
   8   7  -6   17.34    1.08
  -8  -7   5    0.76    0.33
   8   7  -5    1.20    0.34
   8   7  -5    0.54    0.32
   8   7  -5    0.81    0.23
   8   7  -4   22.51    1.33
   8   7  -4   18.56    1.31
   8   7  -4   19.33    1.23
  -8  -7   4   19.13    1.37
  -8  -7   3   -0.15    0.28
   8   7  -3    0.35    0.25
   8   7  -3    0.11    0.21
  -8  -7   3   -0.04    0.37
  -8  -7   3    0.21    0.31
  -8  -7   2   -0.04    0.34
  -8  -7   2   -0.16    0.28
  -8  -7   1   20.51    1.34
  -8  -7   1   18.49    1.24
  -8  -7   0   -0.05    0.18
  -8  -7   0   -0.11    0.34
  -8  -7  -1    9.40    0.76
   8   7   2    0.15    0.19
  -8  -7  -2   -0.09    0.27
  -8  -7  -2   -0.03    0.25
   8   7   3    1.67    0.24
  -8  -7  -3    1.48    0.25
  -8  -7  -3    1.32    0.26
  -8  -7  -4    1.41    0.20
   8   8 -12    1.00    0.16
   8   8 -12    1.07    0.18
   8   8 -12    1.38    0.19
   8   8 -11   -0.02    0.19
   8   8 -11    0.17    0.17
   8   8 -10    1.81    0.29
   8   8 -10    1.45    0.25
   8   8 -10    1.30    0.28
   8   8  -9    5.47    0.48
   8   8  -9    5.65    0.53
   8   8  -8    0.54    0.28
   8   8  -7   -0.06    0.29
   8   8  -7   -0.09    0.15
   8   8  -6    5.71    0.56
   8   8  -6    6.11    0.47
  -8  -8   6    7.14    0.65
  -8  -8   5    0.35    0.28
  -8  -8   5    0.65    0.37
  -8  -8   4    1.20    0.32
   8   8  -4    1.26    0.25
  -8  -8   4    1.79    0.41
  -8  -8   4    1.57    0.35
   8   8  -3    5.28    0.48
  -8  -8   3    6.40    0.62
   8   8  -2    1.68    0.29
  -8  -8   2    1.96    0.39
   8   8  -1   10.47    0.73
  -8  -8   1   12.09    0.82
   8   8   0    3.53    0.37
  -8  -8   0    3.50    0.43
  -8  -8  -1    4.80    0.50
   8   8   1    6.32    0.47
  -8  -8  -1    5.63    0.49
   8   8   2    0.02    0.16
  -8  -8  -2    0.02    0.16
  -8  -8  -2    0.16    0.18
   8   9 -11    0.37    0.16
   8   9 -10    0.18    0.19
   8   9 -10    0.18    0.20
   8   9  -9    4.00    0.39
  -8  -9   8    0.47    0.31
  -8  -9   7    1.70    0.37
   8   9  -7    1.69    0.32
  -8  -9   6    1.09    0.35
  -8  -9   5    0.07    0.29
   8   9  -4    2.98    0.33
  -8  -9   4    4.50    0.47
   8   9  -3    0.22    0.19
  -8  -9   3    0.24    0.27
   8   9  -2    2.85    0.32
  -8  -9   2    3.45    0.39
   8   9  -1    3.43    0.27
   8   9  -1    3.30    0.34
  -8  -9   1    3.10    0.37
  -8  -9   1    3.66    0.30
  -8  -9   0    5.04    0.47
   8   9   0    5.90    0.43
  -8  -9   0    5.31    0.44
   8   9   1    6.97    0.48
  -8 -10  10   -0.05    0.19
   8  10  -9    0.27    0.12
  -8 -10   9    0.22    0.22
   8  10  -9    0.22    0.19
   8  10  -8    0.04    0.14
  -8 -10   8    0.05    0.24
   8  10  -8    0.06    0.20
  -8 -10   7    0.32    0.24
   8  10  -7    0.48    0.23
  -8 -10   6    0.91    0.28
   8  10  -6    0.46    0.23
  -8 -10   5    0.45    0.25
   8  10  -4    0.34    0.16
  -8 -10   4    0.70    0.24
   8  10  -3    0.54    0.15
   8  10  -3    0.59    0.17
  -8 -10   3    0.44    0.20
   8  10  -2    2.51    0.21
   8  10  -2    2.38    0.26
  -8 -10   2    2.37    0.27
  -8 -10   2    2.67    0.24
   8  10  -1    0.57    0.15
   8  11  -9   -0.01    0.12
   8  11  -8    0.06    0.10
  -8 -11   8    0.01    0.12
   8  11  -8    0.01    0.14
   8  11  -7    0.18    0.12
  -8 -11   7    0.10    0.16
   8  11  -7    0.15    0.15
   8  11  -6    0.14    0.12
   8  11  -6   -0.04    0.14
  -8 -11   6    0.36    0.17
   8  11  -5    1.31    0.16
   8  11  -5    0.86    0.17
   8  11  -4    0.60    0.11
  -8 -11   4    0.66    0.15
  -9  12  -3    0.07    0.14
  -9  12  -4    1.21    0.21
  -9  12  -4    1.59    0.21
  -9  12  -5    1.19    0.19
  -9  12  -5    1.03    0.19
   9 -11   0    0.05    0.13
   9 -11   0    0.06    0.15
  -9  11   0    0.05    0.16
   9 -11   1    0.38    0.16
   9 -11   1    0.73    0.19
   9 -11   1    0.43    0.15
  -9  11  -1    0.56    0.21
   9 -11   2    0.19    0.15
   9 -11   2    0.10    0.16
  -9  11  -2   -0.07    0.21
  -9  11  -2   -0.02    0.20
   9 -11   3    0.35    0.16
  -9  11  -3    0.34    0.24
  -9  11  -3    0.36    0.23
  -9  11  -4    1.10    0.20
  -9  11  -4    1.15    0.27
  -9  11  -5    5.98    0.44
  -9  11  -5    7.37    0.52
  -9  11  -5    6.72    0.49
  -9  11  -6    1.33    0.18
  -9  11  -6    1.94    0.25
  -9  11  -6    1.52    0.27
  -9  11  -6    2.17    0.27
   9 -11   7    2.62    0.26
  -9  11  -7    3.72    0.33
  -9  11  -7    3.38    0.33
   9 -10  -2    0.50    0.17
   9 -10  -2    0.70    0.15
   9 -10  -1    0.75    0.21
   9 -10  -1    1.19    0.24
   9 -10  -1    0.56    0.16
   9 -10   0    0.30    0.19
   9 -10   0    0.20    0.22
  -9  10   0    0.65    0.22
   9 -10   1    0.57    0.23
   9 -10   1    0.28    0.22
  -9  10  -1    0.40    0.15
  -9  10  -1    0.07    0.24
   9 -10   2    0.77    0.23
   9 -10   2    0.67    0.23
  -9  10  -2    0.65    0.18
  -9  10  -2    0.59    0.30
  -9  10  -2    0.87    0.29
   9 -10   3    3.41    0.37
  -9  10  -3    3.94    0.35
  -9  10  -3    4.23    0.34
  -9  10  -3    3.71    0.36
  -9  10  -3    3.56    0.45
  -9  10  -3    4.36    0.45
  -9  10  -4    0.22    0.19
  -9  10  -4    0.03    0.18
  -9  10  -4    0.02    0.21
  -9  10  -4   -0.12    0.27
  -9  10  -4    0.27    0.28
  -9  10  -5    7.75    0.56
  -9  10  -5    8.10    0.60
  -9  10  -5    8.34    0.65
  -9  10  -5    6.71    0.60
  -9  10  -6    0.95    0.23
  -9  10  -6    0.71    0.26
  -9  10  -6    0.67    0.28
  -9  10  -6    1.00    0.26
   9 -10   7    1.68    0.24
  -9  10  -7    2.21    0.27
  -9  10  -7    2.72    0.33
  -9  10  -7    2.42    0.32
  -9  10  -8    3.37    0.30
  -9  10  -8    3.10    0.32
  -9  10  -8    2.40    0.27
  -9  10  -9   -0.06    0.13
   9  -9  -4    0.06    0.13
   9  -9  -4    0.15    0.14
   9  -9  -3   -0.07    0.19
   9  -9  -3    0.21    0.20
   9  -9  -3   -0.03    0.17
   9  -9  -2    0.25    0.23
   9  -9  -2    0.74    0.25
   9  -9  -2    0.14    0.20
   9  -9  -1   -0.08    0.23
   9  -9  -1   -0.03    0.25
   9  -9  -1    0.16    0.21
   9  -9  -1   -0.28    0.21
   9  -9   0    0.16    0.23
   9  -9   0   -0.29    0.27
  -9   9   0    0.23    0.15
   9  -9   0   -0.02    0.20
  -9   9   0   -0.22    0.26
   9  -9   1    1.63    0.31
   9  -9   1    1.84    0.33
  -9   9  -1    2.00    0.25
  -9   9  -1    2.41    0.36
   9  -9   2    0.98    0.26
   9  -9   2    1.31    0.29
  -9   9  -2    0.94    0.24
  -9   9  -2    1.30    0.22
  -9   9  -2    1.04    0.34
   9  -9   3    1.95    0.32
  -9   9  -3    2.61    0.34
  -9   9  -3    2.16    0.32
  -9   9  -3    2.95    0.42
  -9   9  -4   22.10    1.29
  -9   9  -4   21.36    1.24
  -9   9  -4   18.63    1.29
  -9   9  -4   19.68    1.35
  -9   9  -4   18.91    1.32
  -9   9  -5   -0.05    0.23
  -9   9  -5    0.20    0.17
  -9   9  -5   -0.03    0.24
  -9   9  -5   -0.17    0.28
  -9   9  -5    0.20    0.27
  -9   9  -6    8.82    0.70
  -9   9  -6    9.94    0.64
  -9   9  -6   10.55    0.76
  -9   9  -6    9.75    0.75
  -9   9  -6    9.92    0.73
   9  -9   7    0.07    0.19
  -9   9  -7   -0.24    0.21
  -9   9  -7   -0.08    0.25
  -9   9  -7   -0.10    0.24
  -9   9  -7    0.11    0.20
  -9   9  -8    0.35    0.21
  -9   9  -8    0.11    0.20
  -9   9  -8   -0.20    0.20
  -9   9  -9    1.31    0.22
  -9   9  -9    1.10    0.20
  -9   9  -9    1.62    0.24
  -9   9 -10    1.43    0.19
   9  -8  -5    0.03    0.13
   9  -8  -5    0.22    0.17
   9  -8  -4    3.85    0.38
   9  -8  -4    3.71    0.37
   9  -8  -4    3.05    0.35
   9  -8  -3    4.28    0.43
   9  -8  -2    1.00    0.32
   9  -8  -2    0.79    0.32
   9  -8  -2    0.57    0.23
   9  -8  -2    0.59    0.27
   9  -8  -2    0.61    0.22
   9  -8  -1   -0.31    0.27
   9  -8  -1    0.37    0.29
   9  -8  -1    0.11    0.26
  -9   8   1    0.72    0.30
   9  -8   0    0.79    0.31
   9  -8   0    0.71    0.30
   9  -8   0    0.68    0.25
  -9   8   0    0.71    0.31
   9  -8   1    0.28    0.28
   9  -8   1    0.36    0.29
  -9   8  -1    0.14    0.31
   9  -8   2    1.38    0.32
   9  -8   2    1.69    0.32
  -9   8  -2    1.80    0.39
  -9   8  -3    9.51    0.67
  -9   8  -3    8.36    0.73
  -9   8  -4    0.17    0.25
  -9   8  -4    0.09    0.26
  -9   8  -4    0.11    0.30
  -9   8  -4   -0.10    0.29
  -9   8  -5   11.11    0.81
  -9   8  -5   10.62    0.83
  -9   8  -5   11.10    0.86
  -9   8  -5   11.10    0.83
  -9   8  -6    0.05    0.25
  -9   8  -6    0.23    0.16
  -9   8  -6    0.22    0.29
  -9   8  -6   -0.13    0.27
  -9   8  -6    0.33    0.24
  -9   8  -6    0.15    0.23
   9  -8   7    2.25    0.29
  -9   8  -7    2.36    0.34
  -9   8  -7    2.25    0.35
  -9   8  -7    2.41    0.34
  -9   8  -8    0.24    0.21
  -9   8  -8    0.33    0.24
  -9   8  -9    0.55    0.21
  -9   8  -9    0.84    0.23
  -9   8 -10    4.62    0.35
  -9   8 -10    3.55    0.31
   9  -7  -6    0.93    0.16
   9  -7  -6    0.81    0.20
   9  -7  -5    5.35    0.46
   9  -7  -5    4.29    0.37
   9  -7  -5    5.62    0.45
   9  -7  -4    0.19    0.27
   9  -7  -4    0.39    0.30
   9  -7  -4   -0.13    0.27
   9  -7  -3    3.35    0.35
   9  -7  -3    3.47    0.43
   9  -7  -3    3.53    0.37
   9  -7  -2    0.88    0.31
   9  -7  -2    1.38    0.38
   9  -7  -2    0.91    0.29
   9  -7  -2    0.88    0.32
   9  -7  -1    3.46    0.46
   9  -7  -1    4.34    0.52
   9  -7  -1    3.38    0.44
  -9   7   1    4.45    0.49
   9  -7   0    1.96    0.39
   9  -7   0    1.98    0.39
   9  -7   0    2.01    0.34
  -9   7   0    2.06    0.39
   9  -7   1   36.36    2.18
   9  -7   1   34.61    2.12
  -9   7  -1   35.90    2.19
   9  -7   1   34.89    2.16
   9  -7   2   13.96    0.95
  -9   7  -2   12.92    0.92
   9  -7   2   13.07    0.94
  -9   7  -3   10.74    0.80
  -9   7  -3   10.55    0.85
  -9   7  -3   10.74    0.84
  -9   7  -4    3.03    0.42
  -9   7  -4    3.15    0.43
  -9   7  -4    3.52    0.46
  -9   7  -4    3.69    0.45
  -9   7  -5    3.80    0.46
  -9   7  -5    3.56    0.45
  -9   7  -5    3.77    0.44
  -9   7  -5    2.43    0.36
   9  -7   6    0.60    0.26
  -9   7  -6    0.23    0.28
  -9   7  -6    0.59    0.26
  -9   7  -6    0.63    0.26
  -9   7  -7    0.55    0.27
  -9   7  -7    0.53    0.31
  -9   7  -7    0.24    0.23
  -9   7  -7    0.48    0.26
  -9   7  -8    2.90    0.37
  -9   7  -8    3.28    0.39
  -9   7  -9    1.30    0.25
  -9   7  -9    1.22    0.25
  -9   7  -9    1.13    0.27
  -9   7 -10    2.73    0.28
  -9   7 -10    2.41    0.25
   9  -6  -7    2.14    0.25
   9  -6  -7    1.45    0.26
   9  -6  -6    1.26    0.25
   9  -6  -6    1.07    0.27
   9  -6  -6    1.43    0.21
   9  -6  -5    3.00    0.38
   9  -6  -5    2.05    0.38
   9  -6  -5    3.05    0.33
   9  -6  -4   12.64    0.75
   9  -6  -4   10.15    0.84
   9  -6  -4   10.86    0.77
   9  -6  -4   10.46    0.85
   9  -6  -3    0.15    0.31
   9  -6  -3    0.08    0.24
   9  -6  -3    0.23    0.18
   9  -6  -3   -0.14    0.32
   9  -6  -3   -0.09    0.24
   9  -6  -2    0.15    0.30
   9  -6  -2    0.19    0.31
   9  -6  -2   -0.02    0.19
   9  -6  -2   -0.21    0.30
  -9   6   2    0.07    0.28
   9  -6  -1    1.02    0.35
   9  -6  -1    0.84    0.37
   9  -6  -1    0.87    0.22
   9  -6  -1    1.00    0.33
  -9   6   1    1.40    0.37
   9  -6   0   37.69    2.43
   9  -6   0   42.39    2.42
  -9   6   0   39.73    2.44
   9  -6   0   40.48    2.44
   9  -6   1   29.15    1.84
   9  -6   1   29.17    1.81
  -9   6  -1   30.13    1.87
   9  -6   1   29.55    1.84
   9  -6   2   49.31    3.00
  -9   6  -2   50.03    2.99
   9  -6   2   54.45    3.03
  -9   6  -3   13.61    0.95
  -9   6  -3   13.21    0.97
  -9   6  -3   12.73    0.96
  -9   6  -4   26.66    1.67
  -9   6  -4   28.96    1.70
  -9   6  -4   25.27    1.68
  -9   6  -4   26.06    1.69
  -9   6  -5    0.84    0.30
  -9   6  -5    1.06    0.32
  -9   6  -5    0.34    0.30
  -9   6  -5    0.84    0.28
   9  -6   6    2.79    0.36
  -9   6  -6    2.85    0.39
  -9   6  -6    3.08    0.43
  -9   6  -6    1.98    0.37
  -9   6  -7    0.03    0.24
  -9   6  -7    0.03    0.25
  -9   6  -7    0.09    0.21
  -9   6  -8   26.24    1.63
  -9   6  -8   29.29    1.67
  -9   6  -8   25.58    1.59
  -9   6  -9    1.73    0.28
  -9   6  -9    2.12    0.28
  -9   6  -9    2.09    0.31
  -9   6  -9    1.54    0.23
  -9   6 -10    3.23    0.31
  -9   6 -10    3.40    0.29
   9  -5  -8    0.39    0.15
   9  -5  -8    0.16    0.18
   9  -5  -7    0.72    0.20
   9  -5  -7    1.11    0.26
   9  -5  -7    0.55    0.19
   9  -5  -7    0.84    0.19
   9  -5  -6    3.57    0.41
   9  -5  -6    4.38    0.34
   9  -5  -6    3.95    0.44
   9  -5  -6    3.97    0.39
   9  -5  -5   16.78    1.24
   9  -5  -5   19.20    1.14
   9  -5  -5   17.60    1.14
   9  -5  -5   19.58    1.24
   9  -5  -4    1.59    0.37
   9  -5  -4    1.59    0.28
   9  -5  -4    1.21    0.24
   9  -5  -4    1.29    0.36
   9  -5  -4    1.44    0.29
   9  -5  -3    1.52    0.39
   9  -5  -3    1.32    0.31
   9  -5  -3    1.34    0.31
   9  -5  -3    0.95    0.25
   9  -5  -3    0.97    0.34
   9  -5  -2   55.14    3.28
   9  -5  -2   51.55    3.23
   9  -5  -2   61.96    3.18
   9  -5  -2   47.36    3.23
  -9   5   2   59.36    3.27
   9  -5  -2   52.94    3.26
   9  -5  -1    0.82    0.34
   9  -5  -1    1.42    0.35
   9  -5  -1    1.27    0.35
  -9   5   1    1.25    0.35
   9  -5   0   20.46    1.35
   9  -5   0   19.56    1.31
  -9   5   0   20.40    1.35
   9  -5   0   18.86    1.32
   9  -5   1   17.00    1.17
   9  -5   1   17.08    1.14
   9  -5   1   17.31    1.17
  -9   5  -2   15.56    1.07
  -9   5  -2   15.81    1.11
   9  -5   2   15.74    1.07
  -9   5  -3   47.33    2.77
  -9   5  -3   45.68    2.78
   9  -5   4   14.89    1.11
  -9   5  -4   16.76    1.10
  -9   5  -4   15.54    1.12
  -9   5  -4   18.55    1.14
  -9   5  -4   15.38    1.09
   9  -5   5    1.94    0.36
  -9   5  -5    2.07    0.35
  -9   5  -5    1.71    0.36
  -9   5  -5    1.66    0.35
  -9   5  -5    2.46    0.36
  -9   5  -6    0.20    0.26
  -9   5  -6    0.23    0.27
  -9   5  -6    0.48    0.24
  -9   5  -7    1.23    0.29
  -9   5  -7    1.04    0.30
  -9   5  -7    1.29    0.33
  -9   5  -8   28.56    1.75
  -9   5  -8   31.45    1.84
  -9   5  -8   29.55    1.84
  -9   5  -8   32.99    1.88
  -9   5  -8   32.44    1.83
  -9   5  -9    5.14    0.42
  -9   5  -9    4.34    0.40
  -9   5  -9    4.51    0.41
  -9   5 -10    4.32    0.36
  -9   5 -10    4.72    0.36
  -9   5 -10    5.14    0.37
   9  -4  -9    1.44    0.22
   9  -4  -8    0.10    0.23
   9  -4  -8    0.23    0.20
   9  -4  -8    0.15    0.18
   9  -4  -8    0.21    0.17
   9  -4  -7    0.59    0.24
   9  -4  -7    0.64    0.19
   9  -4  -7    0.45    0.26
   9  -4  -7    0.37    0.22
   9  -4  -7    0.77    0.24
   9  -4  -6    0.15    0.26
   9  -4  -6    0.19    0.18
   9  -4  -6    0.16    0.30
   9  -4  -6    0.41    0.23
   9  -4  -6    0.47    0.26
   9  -4  -5    7.23    0.68
   9  -4  -5    8.65    0.58
   9  -4  -5    7.90    0.60
   9  -4  -4   25.28    1.54
   9  -4  -4   26.22    1.52
   9  -4  -4   22.17    1.59
   9  -4  -4   25.89    1.58
   9  -4  -4   23.06    1.60
   9  -4  -3   40.12    2.53
   9  -4  -3   40.56    2.47
   9  -4  -3   43.70    2.43
   9  -4  -3   37.62    2.50
   9  -4  -3   44.09    2.51
   9  -4  -3   40.64    2.52
   9  -4  -2   32.37    2.06
   9  -4  -2   32.37    2.03
   9  -4  -2   34.53    2.06
   9  -4  -2   32.06    2.04
   9  -4  -1   13.01    0.97
   9  -4  -1   14.37    1.54
   9  -4  -1   12.42    0.95
  -9   4   1   13.58    0.97
  -9   4   1   10.73    1.18
   9  -4  -1   13.03    0.96
   9  -4   0    0.89    0.33
   9  -4   0    1.02    0.33
  -9   4   0    0.74    0.43
   9  -4   0    0.92    0.31
  -9   4   0    1.64    0.39
   9  -4   1   23.36    1.52
   9  -4   1   25.23    1.52
   9  -4   1   24.89    1.55
  -9   4  -2    3.37    0.60
   9  -4   2    2.37    0.73
  -9   4  -2    4.13    0.45
  -9   4  -2    3.94    0.48
   9  -4   3   94.72    5.50
  -9   4  -3   97.94    5.50
  -9   4  -3   92.51    5.82
  -9   4  -3   97.84    5.48
   9  -4   4    0.13    0.27
  -9   4  -4    0.12    0.24
  -9   4  -4    0.03    0.27
  -9   4  -4    0.62    0.30
   9  -4   5   17.55    1.15
  -9   4  -5   15.84    1.15
  -9   4  -5   18.19    1.19
  -9   4  -5   18.97    1.20
  -9   4  -6    4.65    0.46
  -9   4  -6    5.27    0.51
  -9   4  -6    5.35    0.52
  -9   4  -7    0.96    0.27
  -9   4  -7    0.45    0.30
  -9   4  -8   11.77    0.73
  -9   4  -8   10.50    0.78
  -9   4  -8   11.92    0.81
  -9   4  -9    5.21    0.37
  -9   4  -9    5.85    0.42
  -9   4  -9    5.12    0.43
  -9   4  -9    4.67    0.43
  -9   4 -10    2.98    0.25
  -9   4 -10    2.18    0.26
   9  -3  -9    0.73    0.17
   9  -3  -9    0.75    0.22
   9  -3  -9    0.91    0.22
   9  -3  -9    0.61    0.24
   9  -3  -9    0.91    0.19
   9  -3  -8    0.40    0.17
   9  -3  -8    0.44    0.22
   9  -3  -8    0.11    0.22
   9  -3  -8   -0.21    0.28
   9  -3  -8    0.17    0.20
   9  -3  -7    0.14    0.23
   9  -3  -7    0.31    0.18
   9  -3  -7    0.42    0.27
   9  -3  -7    0.39    0.25
   9  -3  -7   -0.27    0.26
   9  -3  -6    6.42    0.50
   9  -3  -6    5.65    0.59
   9  -3  -6    7.26    0.53
   9  -3  -6    6.56    0.57
   9  -3  -5    3.68    0.49
   9  -3  -5    3.77    0.39
   9  -3  -5    4.25    0.40
   9  -3  -5    3.57    0.42
   9  -3  -5    4.48    0.45
   9  -3  -4   33.35    2.15
   9  -3  -4   33.60    2.08
   9  -3  -4   37.39    2.06
   9  -3  -4   31.74    2.13
   9  -3  -4   33.74    2.11
   9  -3  -4   35.95    2.15
   9  -3  -3   36.66    2.20
   9  -3  -3   34.65    2.14
   9  -3  -3   35.64    2.18
  -9   3   3   34.42    2.46
   9  -3  -3   34.44    2.17
   9  -3  -3   35.10    2.18
   9  -3  -2   28.40    1.70
   9  -3  -2   25.27    1.66
   9  -3  -2   19.85    2.12
   9  -3  -2   28.64    1.70
  -9   3   2   22.11    1.93
   9  -3  -2   26.60    1.69
   9  -3  -1   13.29    0.98
   9  -3  -1   12.75    0.97
   9  -3  -1   11.11    1.42
   9  -3  -1   14.41    0.98
  -9   3   1   13.12    1.27
   9  -3  -1   14.32    1.01
   9  -3   0    1.79    0.36
   9  -3   0    1.23    0.31
   9  -3   0    1.96    0.37
  -9   3   0    1.32    0.32
   9  -3   1   37.54    2.48
   9  -3   1   45.23    2.46
  -9   3  -1   41.38    2.48
  -9   3  -1   41.42    2.85
   9  -3   1   42.27    2.47
   9  -3   2   10.40    0.83
   9  -3   2   11.32    1.36
  -9   3  -2   12.61    0.87
   9  -3   3   63.77    3.70
   9  -3   3   62.53    4.33
  -9   3  -3   65.86    3.68
  -9   3  -3   61.53    3.71
  -9   3  -3   61.46    4.02
   9  -3   4   16.60    1.11
  -9   3  -4   16.81    1.10
  -9   3  -4   14.40    1.09
  -9   3  -4   17.78    1.14
  -9   3  -4   17.38    1.17
  -9   3  -5    1.79    0.32
  -9   3  -5    1.87    0.36
  -9   3  -5    2.25    0.40
  -9   3  -5    2.02    0.39
  -9   3  -6   38.72    2.27
  -9   3  -6   36.18    2.29
  -9   3  -6   40.45    2.34
  -9   3  -7    4.52    0.44
  -9   3  -7    4.92    0.50
  -9   3  -8   21.07    1.24
  -9   3  -8   19.22    1.26
  -9   3  -8   22.58    1.31
  -9   3  -9    0.25    0.13
  -9   3  -9    0.26    0.18
  -9   3  -9    0.35    0.21
  -9   3 -10    1.26    0.19
   9  -2 -10    2.38    0.27
   9  -2 -10    2.62    0.28
   9  -2 -10    2.01    0.23
   9  -2  -9    0.30    0.18
   9  -2  -9    0.15    0.22
   9  -2  -9   -0.11    0.22
   9  -2  -9    0.03    0.24
   9  -2  -9    0.22    0.20
   9  -2  -8    0.10    0.29
   9  -2  -8    0.23    0.25
   9  -2  -8    0.03    0.25
   9  -2  -8    0.36    0.25
   9  -2  -7    0.72    0.28
   9  -2  -7    0.64    0.29
   9  -2  -7    0.17    0.27
   9  -2  -7    0.81    0.22
   9  -2  -6   23.76    1.37
   9  -2  -6   21.36    1.45
   9  -2  -6   25.07    1.42
   9  -2  -6   21.91    1.44
   9  -2  -5    9.46    0.69
   9  -2  -5    9.99    0.75
   9  -2  -5   10.01    0.70
   9  -2  -5    9.32    0.78
   9  -2  -5    7.15    0.70
   9  -2  -5   10.16    0.78
   9  -2  -4   37.69    2.27
   9  -2  -4   36.57    2.33
   9  -2  -4   39.40    2.31
   9  -2  -3   47.04    2.92
   9  -2  -3   47.51    3.49
   9  -2  -3   49.01    2.97
   9  -2  -3   51.08    2.95
  -9   2   3   55.71    3.38
   9  -2  -3   50.21    2.98
   9  -2  -2   42.61    2.63
   9  -2  -2   43.32    3.23
   9  -2  -2   45.91    2.66
  -9   2   2   41.62    3.00
   9  -2  -2   45.00    2.66
   9  -2  -1    1.30    0.35
  -9   2   1    1.56    0.59
   9  -2  -1    1.27    0.67
   9  -2  -1    1.74    0.37
  -9   2   1    2.26    0.40
   9  -2   0   32.71    2.14
   9  -2   0   33.27    2.73
   9  -2   0   38.36    2.15
  -9   2   0   34.71    2.17
   9  -2   0   34.96    2.14
   9  -2   1   17.38    1.17
   9  -2   1   15.01    1.64
  -9   2  -1   15.99    1.11
  -9   2  -1   18.97    1.22
  -9   2  -1   16.00    1.51
   9  -2   2  109.16    6.00
   9  -2   2  113.74    6.70
  -9   2  -2   98.84    5.97
  -9   2  -2  112.31    6.05
  -9   2  -2   98.85    6.37
   9  -2   3    0.88    0.28
  -9   2  -3    0.63    0.43
  -9   2  -3    0.94    0.26
   9  -2   3    1.54    0.63
  -9   2  -3    0.19    0.28
  -9   2  -3    0.51    0.33
   9  -2   4   17.70    1.12
  -9   2  -4   16.56    1.10
  -9   2  -4   15.65    1.15
  -9   2  -4   18.88    1.22
  -9   2  -5    2.96    0.35
  -9   2  -5    2.93    0.40
  -9   2  -5    2.36    0.43
  -9   2  -6   22.96    1.47
  -9   2  -6   24.98    1.54
  -9   2  -6   25.31    1.57
  -9   2  -7    2.68    0.30
  -9   2  -7    2.74    0.36
  -9   2  -7    2.42    0.38
  -9   2  -8    0.64    0.18
  -9   2  -8    0.49    0.23
  -9   2  -9    1.10    0.16
  -9   2  -9    1.16    0.19
   9  -1 -11    4.32    0.33
   9  -1 -11    4.12    0.33
   9  -1 -10    6.87    0.57
   9  -1 -10    8.71    0.61
   9  -1 -10    8.15    0.57
   9  -1  -9    0.33    0.17
   9  -1  -9    0.05    0.24
   9  -1  -9    0.06    0.27
   9  -1  -8    6.92    0.54
   9  -1  -8    8.24    0.62
   9  -1  -8    6.73    0.60
   9  -1  -8    6.63    0.64
   9  -1  -8    8.46    0.64
   9  -1  -7   11.98    0.80
   9  -1  -7   11.74    0.87
   9  -1  -7   10.01    0.84
   9  -1  -7   11.60    0.90
   9  -1  -7   13.45    0.84
   9  -1  -7   10.92    0.86
   9  -1  -6   14.62    0.93
   9  -1  -6   14.71    1.02
   9  -1  -6   12.35    0.96
   9  -1  -6   14.20    0.97
   9  -1  -6   13.11    0.99
   9  -1  -5    2.11    0.40
   9  -1  -5    3.31    0.37
   9  -1  -5    3.14    0.45
   9  -1  -5    2.31    0.37
   9  -1  -5    3.25    0.40
   9  -1  -4   70.74    4.21
   9  -1  -4   71.49    4.78
   9  -1  -4   81.25    4.28
  -9   1   4   66.27    4.60
   9  -1  -3   98.83    5.79
   9  -1  -3   96.46    6.37
   9  -1  -3  103.65    5.84
  -9   1   3   97.83    6.23
   9  -1  -3  108.39    5.85
   9  -1  -2   30.22    1.92
   9  -1  -2   30.17    2.48
   9  -1  -2   33.10    1.95
   9  -1  -2   32.55    1.94
  -9   1   2   25.81    2.28
   9  -1  -2   30.80    1.94
   9  -1  -1  154.50    8.06
   9  -1  -1  137.44    8.04
   9  -1  -1  146.88    8.06
   9  -1   0   20.83    1.38
   9  -1   0   21.48    1.94
  -9   1   0   22.87    1.44
   9  -1   0   19.78    1.38
  -9   1   0   22.18    1.81
   9  -1   1    8.81    0.67
  -9   1  -1    6.96    0.94
   9  -1   1    8.19    1.10
  -9   1  -1    6.69    0.61
   9  -1   1    6.82    0.61
  -9   1  -1    8.07    0.73
   9  -1   2  149.43    8.27
   9  -1   2  142.99    8.86
  -9   1  -2  143.92    8.27
   9  -1   2  149.56    8.25
  -9   1  -2  154.37    8.35
  -9   1  -2  133.28    8.66
   9  -1   3    5.25    0.50
  -9   1  -3    4.62    0.72
  -9   1  -3    5.65    0.47
  -9   1  -3    5.20    0.54
  -9   1  -3    5.85    0.57
  -9   1  -3    6.02    0.61
  -9   1  -4  116.54    6.60
  -9   1  -4  121.95    6.63
  -9   1  -4  111.17    6.64
  -9   1  -5    0.49    0.27
  -9   1  -5    0.45    0.29
  -9   1  -5    0.26    0.33
  -9   1  -6    6.17    0.57
  -9   1  -7    0.96    0.22
  -9   1  -7    0.73    0.24
  -9   1  -7    0.97    0.27
  -9   1  -8    4.42    0.35
  -9   1  -8    4.51    0.38
  -9   1  -8    3.62    0.38
  -9   1  -9   17.56    0.97
  -9   1  -9   14.77    1.00
   9   0 -11    4.19    0.37
   9   0 -11    4.98    0.39
   9   0 -10   11.79    0.84
   9   0 -10   11.88    0.85
   9   0 -10   13.53    0.84
   9   0  -9    2.35    0.27
   9   0  -9    2.31    0.36
   9   0  -9    2.14    0.38
   9   0  -9    2.93    0.36
   9   0  -8   14.13    0.86
   9   0  -8   13.91    0.92
   9   0  -8   11.20    0.92
   9   0  -8   10.86    0.93
   9   0  -8   13.98    0.90
   9   0  -8   13.53    0.93
   9   0  -7   14.23    0.90
   9   0  -7   14.24    0.98
   9   0  -7   11.78    0.95
   9   0  -7   12.38    0.98
   9   0  -7   14.99    0.96
   9   0  -7   13.22    0.97
   9   0  -6    5.12    0.44
   9   0  -6    4.96    0.44
   9   0  -6    4.51    0.51
   9   0  -6    3.87    0.49
   9   0  -6    5.01    0.50
   9   0  -6    3.70    0.49
   9   0  -5   38.04    2.21
   9   0  -5   40.97    2.29
   9   0  -5   34.39    2.22
   9   0  -5   34.96    2.24
   9   0  -5   40.93    2.27
  -9   0   5   30.26    2.57
   9   0  -4   36.38    2.15
   9   0  -4   36.89    2.72
   9   0  -4   35.63    2.14
  -9   0   4   31.31    2.55
   9   0  -3  274.57   16.28
   9   0  -3  304.43   16.32
   9   0  -3  291.41   16.92
  -9   0   3  284.74   16.29
   9   0  -3  321.76   16.34
   9   0  -2   51.52    3.00
   9   0  -2   48.93    3.57
  -9   0   2   54.83    3.02
   9   0  -2   47.30    2.99
   9   0  -1  349.01   19.55
   9   0  -1  331.07   20.17
   9   0  -1  374.36   19.56
  -9   0   1  343.68   19.57
   9   0   0   -0.06    0.27
   9   0   0    0.44    0.29
   9   0   0    0.26    0.51
  -9   0   0    0.53    0.28
  -9   0   0    0.96    0.33
  -9   0   0    0.04    0.31
  -9   0   0    1.32    0.43
   9   0   1   52.30    3.32
   9   0   1   57.90    3.92
  -9   0  -1   57.25    3.34
  -9   0  -1   60.16    3.34
   9   0   1   57.54    3.32
  -9   0  -1   60.94    3.40
  -9   0  -1   55.78    3.41
   9   0   2   73.80    4.18
  -9   0  -2   79.01    4.23
   9   0   2   70.08    4.12
  -9   0  -2   73.98    4.25
  -9   0  -2   76.92    4.29
  -9   0  -2   61.39    4.56
   9   0   3   20.86    1.24
  -9   0  -3   18.17    1.27
  -9   0  -3   19.45    1.31
  -9   0  -3   17.92    1.33
  -9   0  -4  131.20    7.61
  -9   0  -4  140.13    7.66
  -9   0  -5   -0.03    0.27
  -9   0  -5    0.11    0.30
  -9   0  -5    0.04    0.31
  -9   0  -6    4.90    0.51
  -9   0  -6    5.10    0.52
  -9   0  -7   17.44    1.08
  -9   0  -7   17.37    1.11
  -9   0  -7   18.09    1.15
  -9   0  -8    4.85    0.35
  -9   0  -8    4.84    0.39
   9   1 -11    1.20    0.23
   9   1 -11    0.91    0.23
   9   1 -11    0.78    0.20
   9   1 -10    4.34    0.44
   9   1 -10    4.53    0.44
   9   1 -10    4.25    0.42
   9   1  -9    1.82    0.25
   9   1  -9    1.55    0.34
   9   1  -9    1.32    0.32
   9   1  -9    1.51    0.26
   9   1  -9    2.20    0.32
   9   1  -8    6.28    0.50
   9   1  -8    5.93    0.59
   9   1  -8    6.58    0.60
   9   1  -8    7.27    0.58
   9   1  -8    6.56    0.57
   9   1  -7    0.17    0.20
   9   1  -7   -0.20    0.29
   9   1  -7    0.03    0.25
   9   1  -7    0.32    0.29
   9   1  -7   -0.16    0.25
   9   1  -6    1.37    0.27
   9   1  -6    1.09    0.26
   9   1  -6    1.13    0.33
   9   1  -6    0.91    0.32
   9   1  -6    0.87    0.32
   9   1  -5   59.81    3.51
  -9  -1   5   60.22    3.53
   9   1  -5   56.87    3.53
   9   1  -5   67.99    3.58
   9   1  -4    3.38    0.39
  -9  -1   4    1.74    0.66
   9   1  -4    2.41    0.39
   9   1  -4    2.94    0.41
  -9  -1   4    2.23    0.38
   9   1  -3  122.08    7.09
   9   1  -3  129.15    7.12
  -9  -1   3  127.10    7.12
  -9  -1   3  128.24    7.79
   9   1  -2   41.06    2.39
  -9  -1   2   37.42    2.39
  -9  -1   2   42.51    3.05
   9   1  -1  363.49   19.88
  -9  -1   1  355.36   19.90
   9   1  -1  357.14   19.87
  -9  -1   1  363.64   19.93
  -9  -1   1  358.21   20.59
   9   1   0   14.64    1.03
  -9  -1   0   14.78    1.06
  -9  -1   0   14.73    1.03
   9   1   0   15.71    1.03
  -9  -1   0   15.82    1.11
  -9  -1   0   13.31    1.53
  -9  -1   0   15.35    1.14
   9   1   1    0.74    0.29
  -9  -1  -1    0.42    0.29
  -9  -1  -1    0.51    0.27
   9   1   1    0.65    0.21
  -9  -1  -1    0.85    0.36
   9   1   2   26.46    1.60
  -9  -1  -2   27.77    1.62
  -9  -1  -2   25.48    1.64
   9   1   2   24.58    1.54
  -9  -1  -2   26.06    1.70
  -9  -1  -3   17.61    1.23
  -9  -1  -3   19.44    1.30
  -9  -1  -3   18.17    1.29
  -9  -1  -4   19.69    1.35
  -9  -1  -4   22.63    1.43
  -9  -1  -4   20.38    1.40
  -9  -1  -5    0.33    0.21
  -9  -1  -5   -0.06    0.26
  -9  -1  -5    0.04    0.30
  -9  -1  -5   -0.13    0.30
  -9  -1  -6    4.31    0.37
  -9  -1  -6    3.77    0.40
  -9  -1  -6    3.71    0.45
  -9  -1  -6    3.98    0.43
  -9  -1  -7   17.32    1.12
  -9  -1  -8    3.32    0.31
  -9  -1  -8    3.25    0.28
   9   2 -12    0.81    0.17
   9   2 -11    2.83    0.33
   9   2 -11    3.14    0.34
   9   2 -11    2.79    0.30
   9   2 -10    8.10    0.63
   9   2 -10    7.65    0.63
   9   2 -10    7.95    0.60
   9   2  -9    8.06    0.58
   9   2  -9    8.52    0.69
   9   2  -9    8.87    0.69
   9   2  -9    9.20    0.67
   9   2  -9    8.33    0.66
   9   2  -8    1.27    0.23
   9   2  -8    1.52    0.37
   9   2  -8    1.67    0.31
   9   2  -8    1.78    0.36
   9   2  -8    1.65    0.30
   9   2  -7    2.24    0.29
   9   2  -7    2.46    0.29
   9   2  -7    1.67    0.37
   9   2  -7    2.08    0.37
   9   2  -7    2.59    0.35
   9   2  -6    0.49    0.23
   9   2  -6    0.61    0.22
   9   2  -6    0.81    0.33
   9   2  -6    1.19    0.33
  -9  -2   6    0.85    0.29
   9   2  -6    0.48    0.24
   9   2  -5   97.66    5.27
  -9  -2   5   92.29    5.29
   9   2  -5   88.47    5.28
  -9  -2   5   91.49    5.91
   9   2  -4   92.88    5.02
  -9  -2   4   83.18    5.04
   9   2  -4   87.93    5.02
   9   2  -4   90.93    5.05
  -9  -2   4   77.33    5.61
   9   2  -3    8.33    0.68
  -9  -2   3    8.53    1.21
  -9  -2   3    8.51    0.73
   9   2  -3    7.83    0.66
   9   2  -3    9.69    0.71
   9   2  -2    5.11    0.51
   9   2  -2    5.52    0.52
  -9  -2   2    5.18    0.60
   9   2  -1  243.42   13.54
  -9  -2   1  236.77   13.58
   9   2  -1  259.89   13.55
  -9  -2   1  234.14   13.61
  -9  -2   1  236.29   14.27
   9   2   0   62.73    3.69
  -9  -2   0   64.29    3.73
  -9  -2   0   69.38    3.72
   9   2   0   65.82    3.67
   9   2   0   58.08    3.64
  -9  -2   0   69.76    3.81
  -9  -2   0   63.96    3.80
  -9  -2   0   56.05    4.29
   9   2   1   88.10    4.98
  -9  -2  -1   87.90    5.01
  -9  -2  -1   91.78    5.03
   9   2   1   86.65    4.94
  -9  -2  -1   88.83    5.09
  -9  -2  -1   82.45    5.07
   9   2   2    3.04    0.36
  -9  -2  -2    3.53    0.46
  -9  -2  -2    3.07    0.39
   9   2   2    3.52    0.33
  -9  -2  -2    3.22    0.49
  -9  -2  -2    3.19    0.49
  -9  -2  -3    2.89    0.43
  -9  -2  -3    3.13    0.49
  -9  -2  -3    2.96    0.45
  -9  -2  -4    5.27    0.44
  -9  -2  -4    5.12    0.50
  -9  -2  -4    5.60    0.57
  -9  -2  -4    3.75    0.51
  -9  -2  -5    9.05    0.69
  -9  -2  -5    7.99    0.63
  -9  -2  -6    0.42    0.17
  -9  -2  -6    0.20    0.25
  -9  -2  -6    0.60    0.25
  -9  -2  -7    3.67    0.29
  -9  -2  -7    3.64    0.37
  -9  -2  -7    3.38    0.31
   9   3 -12    1.05    0.19
   9   3 -11    7.01    0.52
   9   3 -11    5.89    0.51
   9   3 -10    5.38    0.50
   9   3 -10    6.13    0.52
   9   3 -10    4.77    0.46
   9   3 -10    5.66    0.48
   9   3  -9   21.39    1.40
   9   3  -9   22.91    1.40
   9   3  -9   20.53    1.38
   9   3  -9   21.98    1.36
   9   3  -8    6.57    0.49
   9   3  -8    6.19    0.61
   9   3  -8    7.86    0.61
   9   3  -8    7.70    0.63
   9   3  -8    6.57    0.56
   9   3  -7   13.47    0.90
   9   3  -7   16.05    0.89
  -9  -3   7   12.09    0.91
   9   3  -7   13.42    0.98
   9   3  -7   13.45    0.95
   9   3  -7   15.28    1.01
   9   3  -7   13.29    0.92
   9   3  -7   11.62    0.90
   9   3  -6   25.09    1.51
   9   3  -6   24.83    1.45
  -9  -3   6   22.82    1.52
   9   3  -6   22.73    1.53
   9   3  -5   66.90    3.65
  -9  -3   5   60.81    3.68
   9   3  -5   61.32    3.66
   9   3  -5   62.79    3.69
  -9  -3   4  125.13    7.86
   9   3  -4  125.99    7.11
  -9  -3   4  125.21    7.15
   9   3  -4  123.31    7.11
   9   3  -4  131.62    7.15
   9   3  -3    3.42    0.41
   9   3  -3    4.45    0.47
  -9  -3   3    4.27    0.51
  -9  -3   2  103.00    6.94
   9   3  -2  110.22    6.21
   9   3  -2  112.71    6.22
  -9  -3   2  107.47    6.29
   9   3  -1    5.81    0.57
   9   3  -1    5.98    1.17
  -9  -3   1    4.92    1.02
  -9  -3   1    6.46    0.63
   9   3  -1    7.78    0.59
   9   3  -1    6.94    0.56
  -9  -3   1    6.92    0.70
  -9  -3   1    7.33    0.70
   9   3   0   12.83    0.94
  -9  -3   0   15.74    1.00
  -9  -3   0   13.29    0.98
   9   3   0   13.85    0.92
  -9  -3   0   13.66    1.07
  -9  -3   0   12.95    1.06
   9   3   1    0.44    0.23
  -9  -3  -1    0.67    0.31
  -9  -3  -1    1.01    0.29
   9   3   1    0.73    0.22
  -9  -3  -1    0.62    0.38
  -9  -3  -1    0.38    0.37
   9   3   2    8.59    0.62
  -9  -3  -2    8.37    0.63
  -9  -3  -2    8.43    0.70
   9   3   2    7.75    0.58
  -9  -3  -2    8.43    0.77
  -9  -3  -2    8.23    0.73
  -9  -3  -3   15.98    1.03
  -9  -3  -3   17.68    1.20
  -9  -3  -3   16.04    1.14
  -9  -3  -4    2.90    0.30
  -9  -3  -4    2.57    0.41
  -9  -3  -4    1.95    0.35
  -9  -3  -5    2.69    0.27
  -9  -3  -5    2.40    0.38
  -9  -3  -5    2.16    0.31
  -9  -3  -6    1.84    0.21
  -9  -3  -6    2.30    0.31
  -9  -3  -7    1.75    0.17
  -9  -3  -7    2.10    0.22
   9   4 -12    4.32    0.33
   9   4 -12    3.31    0.32
   9   4 -11   -0.02    0.19
   9   4 -10    2.42    0.36
   9   4 -10    2.28    0.33
   9   4 -10    2.58    0.33
   9   4 -10    2.32    0.30
   9   4  -9    9.83    0.75
   9   4  -9   10.47    0.74
   9   4  -9    9.83    0.76
   9   4  -9    8.93    0.67
   9   4  -8   11.06    0.80
   9   4  -8    9.16    0.73
   9   4  -8   11.23    0.80
   9   4  -8    9.79    0.70
   9   4  -8    9.25    0.71
   9   4  -7   34.19    2.09
  -9  -4   7   34.72    2.12
   9   4  -7   37.13    2.17
   9   4  -7   38.79    2.21
   9   4  -7   33.34    2.11
   9   4  -6   29.44    1.81
  -9  -4   6   27.40    1.84
   9   4  -6   30.72    1.86
   9   4  -6   31.61    1.89
   9   4  -5    2.51    0.37
   9   4  -5    2.72    0.42
   9   4  -5    2.83    0.43
  -9  -4   5    3.05    0.45
   9   4  -4  157.52    8.80
   9   4  -4  158.97    8.81
  -9  -4   4  148.54    8.83
   9   4  -4  163.13    8.83
   9   4  -3    0.36    0.28
   9   4  -3    0.48    0.28
   9   4  -3    0.30    0.26
  -9  -4   3    0.09    0.38
   9   4  -2  209.27   11.66
  -9  -4   2  211.76   11.73
   9   4  -2  216.57   11.65
   9   4  -2  203.18   11.66
   9   4  -2  207.22   11.62
  -9  -4   2  211.27   11.77
   9   4  -1    0.57    0.25
   9   4  -1    0.32    0.24
  -9  -4   1    0.04    0.31
  -9  -4   1    0.04    0.41
  -9  -4   1    0.09    0.37
   9   4   0   40.23    2.50
  -9  -4   0   43.50    2.56
   9   4   0   44.29    2.48
  -9  -4   0   45.31    2.64
  -9  -4   0   39.56    2.58
  -9  -4  -1    6.36    0.47
   9   4   1    5.07    0.48
  -9  -4  -1    5.59    0.53
   9   4   1    6.36    0.48
  -9  -4  -1    6.31    0.67
  -9  -4  -1    6.74    0.62
  -9  -4  -2    0.46    0.19
  -9  -4  -2    0.57    0.35
  -9  -4  -2    0.40    0.30
  -9  -4  -3    3.10    0.30
  -9  -4  -3    2.61    0.44
  -9  -4  -3    3.05    0.38
  -9  -4  -4    1.27    0.20
  -9  -4  -4    1.00    0.25
  -9  -4  -5   -0.11    0.13
  -9  -4  -5   -0.02    0.22
  -9  -4  -6   -0.09    0.09
   9   5 -12   10.38    0.67
   9   5 -12   10.60    0.67
   9   5 -11    1.92    0.27
   9   5 -10    5.63    0.50
   9   5 -10    6.21    0.47
   9   5  -9    2.40    0.37
   9   5  -9    1.97    0.36
   9   5  -9    1.77    0.29
   9   5  -9    1.56    0.21
   9   5  -9    2.35    0.29
   9   5  -8    4.08    0.46
   9   5  -8    3.18    0.37
   9   5  -8    3.38    0.32
   9   5  -8    3.33    0.38
  -9  -5   7   46.41    2.71
   9   5  -7   49.06    2.75
   9   5  -7   43.75    2.63
   9   5  -6    5.88    0.54
  -9  -5   6    5.76    0.59
   9   5  -6    7.52    0.64
   9   5  -6    7.01    0.63
   9   5  -6    6.71    0.52
   9   5  -5    1.37    0.31
   9   5  -5    1.64    0.32
   9   5  -5    0.69    0.31
   9   5  -5    1.27    0.27
  -9  -5   5    1.27    0.35
   9   5  -4   39.19    2.24
  -9  -5   4   34.97    2.27
   9   5  -4   36.90    2.25
   9   5  -4   36.43    2.17
   9   5  -3   -0.06    0.25
   9   5  -3    0.06    0.28
   9   5  -3   -0.10    0.24
   9   5  -2   17.93    1.26
  -9  -5   2   19.50    1.32
   9   5  -2   19.21    1.27
   9   5  -2   20.15    1.24
  -9  -5   2   21.62    1.38
   9   5  -1    0.89    0.27
   9   5  -1    1.59    0.27
  -9  -5   1    1.28    0.33
  -9  -5   1    0.66    0.38
  -9  -5   0   36.77    2.29
   9   5   0   38.30    2.24
  -9  -5   0   40.28    2.35
  -9  -5  -1    4.02    0.34
  -9  -5  -1    3.68    0.47
  -9  -5  -2    5.62    0.43
  -9  -5  -2    6.43    0.52
  -9  -5  -3    0.69    0.17
  -9  -5  -3    1.18    0.22
  -9  -5  -4    0.44    0.13
  -9  -5  -4    0.48    0.23
  -9  -5  -5    3.36    0.31
   9   6 -12    1.02    0.17
   9   6 -11    2.65    0.30
   9   6 -11    2.85    0.29
   9   6 -10   17.32    1.09
   9   6 -10   17.37    1.07
   9   6  -9    0.24    0.26
   9   6  -9    0.20    0.27
   9   6  -9    0.28    0.20
   9   6  -9    0.21    0.22
   9   6  -8    0.47    0.30
   9   6  -8    0.03    0.15
  -9  -6   8    0.23    0.21
   9   6  -8    0.11    0.24
  -9  -6   7   25.44    1.53
   9   6  -7   26.09    1.55
   9   6  -7   22.01    1.56
   9   6  -7   23.22    1.44
   9   6  -6   -0.15    0.29
   9   6  -6    0.30    0.31
   9   6  -6    0.20    0.20
  -9  -6   6    0.27    0.27
   9   6  -5    2.12    0.36
   9   6  -5    1.01    0.33
   9   6  -5    1.59    0.27
  -9  -6   5    1.60    0.35
   9   6  -4   19.63    1.22
   9   6  -4   16.73    1.22
   9   6  -4   17.94    1.14
  -9  -6   4   18.63    1.29
  -9  -6   3    6.31    0.59
   9   6  -3    5.06    0.53
  -9  -6   3    7.93    0.69
  -9  -6   3    6.68    0.65
   9   6  -2    2.01    0.29
  -9  -6   2    2.84    0.46
  -9  -6   2    2.05    0.38
  -9  -6   2    1.44    0.36
  -9  -6   1    1.96    0.33
  -9  -6   1    2.27    0.44
  -9  -6   1    1.46    0.34
  -9  -6   0    6.68    0.54
  -9  -6   0    6.70    0.64
  -9  -6   0    6.58    0.57
  -9  -6  -1    9.62    0.75
  -9  -6  -1    8.53    0.65
  -9  -6  -2    1.44    0.32
  -9  -6  -3    0.83    0.25
   9   6   4    0.01    0.11
  -9  -6  -4   -0.15    0.16
   9   7 -11    1.11    0.20
   9   7 -11    0.70    0.16
   9   7 -10   16.02    1.00
   9   7  -9   -0.12    0.24
   9   7  -9    0.02    0.20
   9   7  -8    1.87    0.34
   9   7  -8    2.17    0.37
   9   7  -8    1.93    0.21
  -9  -7   8    1.73    0.28
   9   7  -8    1.69    0.32
   9   7  -7    1.56    0.32
   9   7  -7    1.04    0.32
   9   7  -7    1.61    0.22
  -9  -7   7    1.32    0.30
   9   7  -6    0.34    0.28
   9   7  -6    0.32    0.29
   9   7  -6    0.31    0.17
  -9  -7   6    0.48    0.34
  -9  -7   6    0.65    0.27
   9   7  -5    5.91    0.50
  -9  -7   5    4.59    0.49
   9   7  -5    3.91    0.48
   9   7  -5    4.95    0.42
  -9  -7   5    5.09    0.55
   9   7  -4    2.26    0.34
   9   7  -4    1.98    0.27
   9   7  -4    2.50    0.28
  -9  -7   4    2.47    0.42
  -9  -7   4    1.91    0.37
  -9  -7   3   11.52    0.88
  -9  -7   3   12.14    0.90
  -9  -7   2    0.22    0.24
  -9  -7   2    0.22    0.33
  -9  -7   2    0.27    0.25
  -9  -7   1    0.05    0.19
  -9  -7   1    0.23    0.31
  -9  -7   1   -0.04    0.22
  -9  -7   0    0.63    0.29
  -9  -7  -1    0.89    0.27
   9   7   2    1.96    0.23
  -9  -7  -2    1.77    0.27
   9   8 -11    0.41    0.14
   9   8 -10    1.81    0.24
   9   8 -10    2.00    0.26
   9   8  -9    0.18    0.19
   9   8  -8    1.99    0.29
  -9  -8   8    2.36    0.38
   9   8  -8    1.68    0.30
   9   8  -7    0.77    0.25
  -9  -8   7    1.15    0.34
  -9  -8   7    0.78    0.24
   9   8  -7    0.96    0.27
  -9  -8   6    4.89    0.49
  -9  -8   6    2.95    0.38
  -9  -8   5    1.32    0.35
  -9  -8   5    1.26    0.30
   9   8  -4    0.25    0.16
  -9  -8   4    0.58    0.32
  -9  -8   4    0.03    0.21
  -9  -8   4   -0.02    0.22
  -9  -8   3    6.39    0.58
   9   8  -3    8.27    0.56
  -9  -8   3    8.24    0.66
   9   8  -2    0.92    0.22
  -9  -8   2    1.59    0.32
   9   8  -1    0.41    0.20
  -9  -8   1    0.30    0.24
   9   8   0    0.29    0.17
  -9  -8   0    0.12    0.20
  -9  -8  -1    0.26    0.16
   9   9 -10    0.77    0.16
  -9  -9  10    0.79    0.22
   9   9  -9    0.28    0.11
  -9  -9   9    0.29    0.23
   9   9  -9    0.41    0.17
  -9  -9   8    0.49    0.26
  -9  -9   7    0.46    0.27
  -9  -9   7    0.08    0.19
  -9  -9   6    0.47    0.26
  -9  -9   5    2.38    0.35
   9   9  -4    0.75    0.14
  -9  -9   4    2.62    0.31
   9   9  -3    2.77    0.26
  -9  -9   3    2.67    0.33
   9   9  -2    0.16    0.10
   9   9  -2    0.07    0.14
  -9  -9   2    0.02    0.19
  -9  -9   2   -0.01    0.12
   9   9  -1    2.20    0.22
  -9  -9   1    1.92    0.23
   9  10  -8    0.12    0.09
   9  10  -8    0.11    0.14
   9  10  -7    0.20    0.12
  -9 -10   7    0.27    0.17
   9  10  -7   -0.03    0.15
  -9 -10   6    0.18    0.18
   9  10  -6    0.52    0.17
   9  10  -5    0.40    0.12
  -9 -10   5    0.45    0.17
   9  10  -5    0.32    0.16
   9  10  -4    1.38    0.21
  -9 -10   4    1.88    0.21
  10 -11   3    0.13    0.13
  10 -11   4    0.77    0.16
  10 -10   0    1.07    0.18
  10 -10   0    1.14    0.19
 -10  10   0    0.97    0.20
  10 -10   1    0.35    0.15
  10 -10   1    0.35    0.16
  10 -10   1    0.26    0.16
 -10  10  -1    0.12    0.18
  10 -10   1    0.13    0.15
  10 -10   2    0.35    0.15
  10 -10   2    0.15    0.18
 -10  10  -2    0.23    0.13
 -10  10  -2    0.73    0.21
 -10  10  -3    1.51    0.20
 -10  10  -3    1.45    0.26
  10 -10   4    0.53    0.21
 -10  10  -4    0.66    0.17
 -10  10  -4    0.66    0.21
  10 -10   5    1.85    0.25
 -10  10  -5    2.23    0.24
 -10  10  -5    2.20    0.27
  10 -10   6   -0.05    0.13
 -10  10  -6   -0.01    0.15
 -10  10  -6   -0.06    0.14
 -10  10  -7    3.82    0.29
 -10  10  -7    3.24    0.29
  10  -9  -2    1.66    0.22
  10  -9  -2    1.15    0.18
  10  -9  -1    0.48    0.19
  10  -9  -1    0.64    0.20
  10  -9  -1    0.21    0.14
  10  -9  -1    0.37    0.15
 -10   9   1    0.36    0.15
  10  -9  -1    0.57    0.16
  10  -9   0    2.19    0.29
  10  -9   0    2.42    0.30
  10  -9   0    1.99    0.28
 -10   9   0    2.56    0.25
  10  -9   0    2.02    0.28
  10  -9   1    0.72    0.22
  10  -9   1    0.39    0.20
  10  -9   1    0.66    0.24
 -10   9  -1    0.79    0.20
 -10   9  -1    0.94    0.27
  10  -9   2    0.07    0.18
  10  -9   2   -0.07    0.17
 -10   9  -2   -0.09    0.19
 -10   9  -2    0.19    0.23
 -10   9  -2    0.23    0.24
 -10   9  -3   -0.06    0.20
 -10   9  -3    0.13    0.23
  10  -9   4    1.55    0.28
 -10   9  -4    1.78    0.26
 -10   9  -4    1.96    0.30
 -10   9  -4    1.13    0.25
 -10   9  -4    2.01    0.32
  10  -9   5    8.13    0.59
 -10   9  -5    8.61    0.58
 -10   9  -5    7.63    0.59
 -10   9  -5    7.33    0.59
  10  -9   6    1.06    0.20
 -10   9  -6    0.93    0.22
 -10   9  -6    0.76    0.20
 -10   9  -7   -0.08    0.17
 -10   9  -7   -0.16    0.18
 -10   9  -8    0.85    0.17
 -10   9  -8    0.93    0.18
  10  -8  -4    0.62    0.16
  10  -8  -4    0.61    0.15
  10  -8  -3    4.58    0.38
  10  -8  -3    4.64    0.35
  10  -8  -2    1.53    0.26
  10  -8  -2    1.15    0.27
  10  -8  -2    0.98    0.20
  10  -8  -2    1.06    0.24
  10  -8  -2    0.94    0.20
  10  -8  -1    0.97    0.26
  10  -8  -1    1.32    0.27
  10  -8  -1    1.21    0.25
  10  -8  -1    0.86    0.22
  10  -8  -1    0.90    0.24
  10  -8   0    1.86    0.30
  10  -8   0    1.58    0.30
  10  -8   0    1.67    0.31
  10  -8   0    2.00    0.27
  10  -8   1    1.51    0.28
  10  -8   1    2.07    0.32
 -10   8  -1    1.71    0.33
 -10   8  -1    2.09    0.34
  10  -8   2   17.90    1.29
 -10   8  -2   24.54    1.34
 -10   8  -2   24.01    1.39
 -10   8  -2   22.77    1.38
  10  -8   2   19.33    1.30
 -10   8  -3    8.74    0.60
 -10   8  -3    6.01    0.54
 -10   8  -3    6.76    0.60
 -10   8  -3    8.27    0.63
  10  -8   4   18.44    1.28
 -10   8  -4   22.49    1.29
 -10   8  -4   19.66    1.26
 -10   8  -4   20.14    1.29
  10  -8   5    0.44    0.24
 -10   8  -5    0.35    0.23
 -10   8  -5    0.62    0.24
 -10   8  -5    0.32    0.25
  10  -8   6    2.00    0.27
 -10   8  -7    2.42    0.31
 -10   8  -8    0.91    0.21
 -10   8  -8    0.29    0.17
 -10   8  -9    9.61    0.61
  10  -7  -5   -0.04    0.15
  10  -7  -5    0.01    0.15
  10  -7  -4    2.06    0.28
  10  -7  -4    1.66    0.27
  10  -7  -4    1.46    0.22
  10  -7  -3    8.94    0.66
  10  -7  -3    7.69    0.60
  10  -7  -3    7.97    0.57
  10  -7  -2    1.10    0.29
  10  -7  -2    0.49    0.26
  10  -7  -2    0.69    0.23
  10  -7  -2    1.62    0.29
  10  -7  -2    1.44    0.28
  10  -7  -1    0.26    0.25
  10  -7  -1    0.60    0.28
  10  -7  -1    0.26    0.25
  10  -7  -1    0.91    0.26
  10  -7   0    4.80    0.49
  10  -7   0    5.07    0.52
  10  -7   0    5.83    0.48
  10  -7   0    5.08    0.50
  10  -7   1   17.56    1.17
 -10   7  -1   18.96    1.22
 -10   7  -1   17.91    1.21
  10  -7   1   17.78    1.18
 -10   7  -2   51.61    2.97
  10  -7   2   49.56    2.93
 -10   7  -3   15.97    1.09
 -10   7  -3   18.11    1.15
  10  -7   4    1.33    0.32
 -10   7  -4    1.80    0.32
  10  -7   5    3.18    0.38
 -10   7  -5    3.15    0.39
  10  -7   6    2.77    0.32
 -10   7  -6    3.36    0.36
 -10   7  -6    2.70    0.32
 -10   7  -7    1.52    0.28
 -10   7  -7    2.00    0.29
 -10   7  -8    0.23    0.18
 -10   7  -8    0.16    0.18
 -10   7  -9    3.99    0.33
 -10   7  -9    4.17    0.33
  10  -6  -6    0.15    0.17
  10  -6  -6    0.25    0.13
  10  -6  -5    1.52    0.26
  10  -6  -5    1.13    0.25
  10  -6  -5    1.58    0.23
  10  -6  -4    2.78    0.36
  10  -6  -4    2.08    0.33
  10  -6  -4    2.57    0.29
  10  -6  -3    4.87    0.48
  10  -6  -3    3.10    0.37
  10  -6  -3    3.77    0.34
  10  -6  -3    3.58    0.42
  10  -6  -3    4.21    0.41
  10  -6  -3    4.78    0.46
  10  -6  -2    0.19    0.30
  10  -6  -2    0.36    0.28
  10  -6  -2    0.45    0.26
  10  -6  -2    0.30    0.17
  10  -6  -2    0.12    0.25
  10  -6  -2    0.09    0.26
  10  -6  -1    0.86    0.31
  10  -6  -1    0.56    0.30
  10  -6  -1    0.12    0.27
  10  -6  -1    0.97    0.20
  10  -6  -1    0.58    0.29
  10  -6   0    1.62    0.33
  10  -6   0    1.33    0.31
  10  -6   0    0.89    0.31
  10  -6   0    1.44    0.30
  10  -6   1   12.89    0.92
  10  -6   1   13.31    0.93
  10  -6   2   36.49    2.16
  10  -6   2   34.39    2.11
  10  -6   3    0.57    0.28
 -10   6  -3    0.47    0.27
  10  -6   4    2.53    0.37
 -10   6  -4    2.32    0.36
  10  -6   5    0.10    0.23
 -10   6  -5    0.69    0.26
 -10   6  -6    1.94    0.33
 -10   6  -6    2.00    0.33
 -10   6  -6    2.52    0.31
 -10   6  -7    0.09    0.22
 -10   6  -7    0.04    0.22
 -10   6  -8    2.19    0.28
 -10   6  -9    0.50    0.16
 -10   6  -9    0.46    0.16
  10  -5  -7    1.76    0.25
  10  -5  -7    1.41    0.20
  10  -5  -6    0.38    0.21
  10  -5  -6    0.53    0.23
  10  -5  -6    0.41    0.19
  10  -5  -5   11.10    0.81
  10  -5  -5   11.60    0.75
  10  -5  -5   11.41    0.81
  10  -5  -4    1.87    0.27
  10  -5  -4    2.09    0.26
  10  -5  -4    2.09    0.36
  10  -5  -4    2.17    0.31
  10  -5  -3    6.07    0.58
  10  -5  -3    5.16    0.50
  10  -5  -3    6.20    0.47
  10  -5  -3    5.07    0.53
  10  -5  -3    5.67    0.53
  10  -5  -3    5.36    0.55
  10  -5  -2    0.85    0.31
  10  -5  -2    0.42    0.30
  10  -5  -2    1.23    0.30
  10  -5  -2    0.90    0.23
  10  -5  -2    0.54    0.29
  10  -5  -2    0.84    0.30
  10  -5  -1    6.03    0.56
  10  -5  -1    5.79    0.55
  10  -5  -1    5.04    0.53
  10  -5  -1    4.87    0.54
  10  -5   0    0.10    0.28
  10  -5   0   -0.20    0.26
  10  -5   0   -0.10    0.29
  10  -5   0   -0.03    0.26
  10  -5   1    0.66    0.29
  10  -5   1    0.71    0.31
  10  -5   1    0.48    0.22
  10  -5   2   20.64    1.38
  10  -5   3    0.39    0.31
 -10   5  -3   -0.21    0.27
  10  -5   4   31.91    2.01
 -10   5  -4   34.39    2.01
  10  -5   5    1.07    0.27
 -10   5  -5    0.67    0.26
 -10   5  -5    0.29    0.24
 -10   5  -5    0.91    0.25
 -10   5  -6    0.37    0.23
 -10   5  -6    0.51    0.26
 -10   5  -7    2.69    0.33
 -10   5  -7    2.20    0.32
 -10   5  -7    3.07    0.31
 -10   5  -8    0.83    0.14
 -10   5  -8    0.79    0.21
 -10   5  -8    0.71    0.19
 -10   5  -9    1.42    0.20
  10  -4  -8    2.92    0.29
  10  -4  -8    2.84    0.25
  10  -4  -7    0.34    0.20
  10  -4  -7    0.74    0.24
  10  -4  -7    0.40    0.19
  10  -4  -6   -0.18    0.23
  10  -4  -6   -0.10    0.16
  10  -4  -6    0.08    0.25
  10  -4  -6   -0.09    0.23
  10  -4  -5   11.46    0.75
  10  -4  -5   11.46    0.79
  10  -4  -5   11.03    0.84
  10  -4  -4   18.51    1.23
  10  -4  -4   21.28    1.22
  10  -4  -4   18.42    1.29
  10  -4  -4   19.39    1.27
  10  -4  -3   13.41    0.93
  10  -4  -3   14.06    0.89
  10  -4  -3   11.73    0.94
  10  -4  -3   13.56    0.97
  10  -4  -3   12.99    0.97
  10  -4  -2    0.07    0.30
  10  -4  -2    0.04    0.29
  10  -4  -2   -0.03    0.27
  10  -4  -2    0.10    0.32
  10  -4  -2    0.25    0.29
  10  -4  -1    8.51    0.73
  10  -4  -1    9.25    0.74
  10  -4  -1    9.36    0.75
  10  -4   0    4.62    0.49
  10  -4   0    4.98    0.52
  10  -4   1    0.88    0.27
  10  -4   1    0.55    0.31
  10  -4   2    5.34    0.53
 -10   4  -2    4.33    0.45
  10  -4   3   11.80    0.83
 -10   4  -3   10.09    0.79
 -10   4  -3   10.10    0.78
 -10   4  -3   11.82    0.82
  10  -4   4   26.94    1.58
 -10   4  -4   23.58    1.56
 -10   4  -4   23.34    1.56
  10  -4   4   25.64    1.56
 -10   4  -4   26.70    1.59
  10  -4   5    3.19    0.35
 -10   4  -5    3.29    0.37
 -10   4  -5    2.74    0.38
 -10   4  -5    3.36    0.40
 -10   4  -6    1.99    0.30
 -10   4  -6    2.38    0.33
 -10   4  -6    2.02    0.33
 -10   4  -7    7.02    0.49
 -10   4  -7    7.56    0.55
 -10   4  -7    6.91    0.56
 -10   4  -8    2.82    0.24
 -10   4  -8    2.16    0.26
 -10   4  -9    7.55    0.47
 -10   4  -9    6.55    0.47
  10  -3  -9    1.82    0.21
  10  -3  -8    3.30    0.29
  10  -3  -8    2.88    0.32
  10  -3  -8    2.69    0.28
  10  -3  -7    1.32    0.27
  10  -3  -7    0.97    0.22
  10  -3  -7    0.99    0.28
  10  -3  -7    1.25    0.26
  10  -3  -6    1.79    0.33
  10  -3  -6    1.87    0.26
  10  -3  -6    1.71    0.33
  10  -3  -6    1.86    0.34
  10  -3  -6    2.00    0.29
  10  -3  -5   17.42    1.16
  10  -3  -5   20.32    1.18
  10  -3  -5   19.68    1.23
  10  -3  -5   17.94    1.25
  10  -3  -4   51.91    3.25
  10  -3  -4   62.34    3.25
  10  -3  -4   53.27    3.31
  10  -3  -4   57.66    3.31
  10  -3  -3    7.69    0.65
  10  -3  -3    7.62    0.67
  10  -3  -3    7.31    0.67
  10  -3  -3    8.14    0.69
  10  -3  -2   38.16    2.38
  10  -3  -2   41.97    2.40
  10  -3  -2   38.18    2.40
  10  -3  -1    6.18    0.60
  10  -3  -1    7.07    0.60
  10  -3  -1    5.14    0.59
  10  -3  -1    6.67    0.60
  10  -3   0   28.77    1.84
  10  -3   0   29.44    1.85
 -10   3   0   29.19    1.82
  10  -3   0   29.11    1.83
  10  -3   1    0.31    0.31
  10  -3   1    0.65    0.31
 -10   3  -1    0.68    0.32
  10  -3   2   16.61    1.14
 -10   3  -2   16.03    1.10
  10  -3   2   16.54    1.14
 -10   3  -2   17.87    1.16
  10  -3   3  115.15    6.37
 -10   3  -3  112.61    6.34
 -10   3  -3  108.31    6.35
  10  -3   3  108.87    6.35
 -10   3  -3  120.53    6.41
  10  -3   4    2.91    0.36
 -10   3  -4    2.61    0.34
 -10   3  -4    2.23    0.36
 -10   3  -4    1.96    0.38
 -10   3  -5    6.75    0.55
 -10   3  -5    6.60    0.58
 -10   3  -5    7.47    0.62
 -10   3  -6    2.41    0.31
 -10   3  -6    2.51    0.35
 -10   3  -7    0.04    0.16
 -10   3  -7   -0.21    0.18
 -10   3  -8    0.21    0.13
 -10   3  -8    0.24    0.19
 -10   3  -8    0.11    0.19
 -10   3  -9    0.01    0.11
 -10   3  -9   -0.05    0.12
  10  -2  -9   -0.04    0.14
  10  -2  -9   -0.03    0.17
  10  -2  -9   -0.02    0.15
  10  -2  -8    2.26    0.29
  10  -2  -8    3.15    0.35
  10  -2  -7    2.21    0.33
  10  -2  -7    1.58    0.28
  10  -2  -7    2.19    0.35
  10  -2  -7    2.17    0.28
  10  -2  -7    2.42    0.34
  10  -2  -6    9.39    0.76
  10  -2  -6    8.71    0.69
  10  -2  -6    9.66    0.75
  10  -2  -5   10.43    0.72
  10  -2  -5   11.29    0.73
  10  -2  -5    8.54    0.75
  10  -2  -5   10.27    0.77
  10  -2  -5    9.52    0.79
  10  -2  -4   95.56    5.42
  10  -2  -4   93.33    5.47
  10  -2  -4   98.18    5.47
  10  -2  -3    1.11    0.35
  10  -2  -3    0.97    0.31
  10  -2  -3    1.72    0.37
  10  -2  -2   47.27    2.87
  10  -2  -2   49.83    2.89
  10  -2  -2   48.00    2.89
 -10   2   2   47.64    2.88
  10  -2  -2   49.26    2.89
  10  -2  -1    1.02    0.33
 -10   2   1    1.20    0.37
  10  -2   0   30.57    1.86
  10  -2   0   28.45    1.84
 -10   2   0   29.35    1.87
  10  -2   1    0.73    0.32
 -10   2  -1    1.27    0.26
  10  -2   1    1.37    0.34
 -10   2  -1    0.55    0.33
  10  -2   2   23.43    1.44
 -10   2  -2   21.51    1.39
 -10   2  -2   19.98    1.39
  10  -2   2   24.13    1.43
 -10   2  -2   22.84    1.49
  10  -2   3   91.81    4.85
 -10   2  -3   80.52    4.80
 -10   2  -3   79.10    4.83
 -10   2  -3   92.03    4.91
  10  -2   4   38.65    2.12
 -10   2  -4   32.86    2.09
 -10   2  -4   33.83    2.14
 -10   2  -4   38.42    2.21
 -10   2  -5    0.67    0.21
 -10   2  -5    1.43    0.30
 -10   2  -5    1.13    0.31
 -10   2  -6    8.14    0.64
 -10   2  -6    9.19    0.70
 -10   2  -7   29.08    1.69
 -10   2  -8    1.11    0.16
 -10   2  -8    1.34    0.19
 -10   2  -8    0.95    0.21
  10  -1 -10    0.26    0.13
  10  -1 -10    0.13    0.14
  10  -1  -9   -0.13    0.17
  10  -1  -9   -0.10    0.19
  10  -1  -9    0.04    0.19
  10  -1  -8    2.82    0.28
  10  -1  -8    2.06    0.31
  10  -1  -8    2.90    0.29
  10  -1  -8    2.46    0.35
  10  -1  -8    2.23    0.32
  10  -1  -7    1.21    0.23
  10  -1  -7    1.14    0.30
  10  -1  -7    0.77    0.26
  10  -1  -7    1.07    0.29
  10  -1  -7    1.36    0.26
  10  -1  -7    1.61    0.30
  10  -1  -6   26.38    1.53
  10  -1  -6   27.95    1.55
  10  -1  -6   26.32    1.62
  10  -1  -6   21.81    1.54
  10  -1  -6   22.72    1.57
  10  -1  -6   28.04    1.61
  10  -1  -5   -0.05    0.22
  10  -1  -5    0.05    0.22
  10  -1  -5   -0.05    0.22
  10  -1  -5    0.55    0.29
  10  -1  -4   77.31    4.41
  10  -1  -4   79.50    4.45
  10  -1  -4   74.19    4.43
  10  -1  -3    2.93    0.41
  10  -1  -3    3.48    0.45
  10  -1  -3    2.75    0.43
  10  -1  -2   16.20    1.15
  10  -1  -2   16.21    1.16
 -10   1   2   18.82    1.23
  10  -1  -1    3.12    0.43
  10  -1  -1    3.63    0.44
 -10   1   1    2.91    0.51
  10  -1   0    4.72    0.53
  10  -1   0    5.87    0.54
 -10   1   0    5.35    0.60
  10  -1   1    0.10    0.29
 -10   1  -1    0.11    0.25
  10  -1   1   -0.09    0.24
 -10   1  -1   -0.33    0.39
 -10   1  -2    6.86    0.57
 -10   1  -2    7.32    0.64
  10  -1   2    7.72    0.61
 -10   1  -2    7.31    0.72
  10  -1   3   56.71    3.22
 -10   1  -3   53.60    3.24
 -10   1  -3   56.68    3.31
 -10   1  -4   36.70    2.24
 -10   1  -4   38.20    2.29
 -10   1  -5   20.68    1.36
 -10   1  -5   23.03    1.43
 -10   1  -6    1.69    0.25
 -10   1  -6    1.17    0.27
 -10   1  -6    1.58    0.33
 -10   1  -7   28.36    1.64
 -10   1  -8    6.00    0.40
 -10   1  -8    6.56    0.45
  10   0 -10    0.22    0.16
  10   0 -10    0.02    0.16
  10   0 -10    0.11    0.15
  10   0  -9    0.24    0.20
  10   0  -9    0.22    0.21
  10   0  -9   -0.25    0.20
  10   0  -8    0.38    0.17
  10   0  -8    0.52    0.23
  10   0  -8    0.50    0.21
  10   0  -8    0.23    0.24
  10   0  -8    0.52    0.23
  10   0  -7    2.00    0.26
  10   0  -7    1.04    0.28
  10   0  -7    1.52    0.31
  10   0  -7    0.79    0.28
  10   0  -7    1.65    0.31
  10   0  -6    6.18    0.48
  10   0  -6    6.46    0.48
  10   0  -6    5.11    0.51
  10   0  -6    4.76    0.50
  10   0  -6    6.16    0.55
  10   0  -6    5.35    0.52
  10   0  -5    5.96    0.51
  10   0  -5    5.34    0.50
  10   0  -5    5.44    0.54
  10   0  -4   10.86    0.80
  10   0  -3   10.36    0.79
  10   0  -3   10.42    0.81
  10   0  -2    9.59    0.77
  10   0  -1   -0.07    0.28
  10   0  -1    0.10    0.27
 -10   0   1    0.15    0.31
 -10   0   1   -0.04    0.38
  10   0   0   50.65    3.01
  10   0   0   49.51    3.00
 -10   0   0   54.03    3.05
 -10   0   0   50.67    3.10
  10   0   1   19.36    1.28
 -10   0  -1   18.40    1.25
  10   0   1   21.26    1.27
 -10   0  -1   19.79    1.31
 -10   0  -1   18.71    1.37
  10   0   2    6.40    0.54
 -10   0  -2    5.71    0.55
 -10   0  -2    5.67    0.60
 -10   0  -2    7.72    0.70
  10   0   3   28.14    1.64
 -10   0  -3   25.31    1.68
 -10   0  -3   27.78    1.72
 -10   0  -3   27.23    1.76
 -10   0  -4    0.65    0.28
 -10   0  -4    0.87    0.31
 -10   0  -5    6.28    0.47
 -10   0  -5    5.84    0.50
 -10   0  -5    6.03    0.55
 -10   0  -6    7.18    0.56
 -10   0  -6    7.62    0.60
 -10   0  -6    8.80    0.63
 -10   0  -7    0.03    0.09
  10   1 -10    3.27    0.31
  10   1 -10    2.93    0.31
  10   1 -10    3.02    0.31
  10   1  -9    1.73    0.28
  10   1  -9    1.94    0.26
  10   1  -9    1.65    0.28
  10   1  -9    2.01    0.28
  10   1  -8    0.03    0.16
  10   1  -8    0.18    0.24
  10   1  -8    0.08    0.21
  10   1  -8    0.10    0.22
  10   1  -8    0.05    0.22
  10   1  -7    3.57    0.33
  10   1  -7    2.44    0.37
  10   1  -7    3.63    0.41
  10   1  -7    2.67    0.36
  10   1  -7    2.42    0.35
  10   1  -6    4.46    0.39
  10   1  -6    3.23    0.35
  10   1  -6    3.20    0.40
  10   1  -6    3.78    0.46
  10   1  -6    3.27    0.39
  10   1  -5   10.06    0.70
  10   1  -5    7.88    0.68
  10   1  -4   29.46    1.79
 -10  -1   4   27.60    1.80
  10   1  -4   30.43    1.84
  10   1  -3   98.34    5.42
 -10  -1   3   85.65    5.41
  10   1  -3   99.86    5.45
 -10  -1   3   98.51    5.47
 -10  -1   2    0.79    0.32
  10   1  -2    0.89    0.30
 -10  -1   2    1.16    0.39
  10   1  -1   20.99    1.35
 -10  -1   1   18.10    1.34
  10   1  -1   22.14    1.36
 -10  -1   1   20.36    1.40
 -10  -1   1   21.55    1.46
  10   1   0   31.65    2.02
 -10  -1   0   33.16    2.05
 -10  -1   0   33.27    2.00
  10   1   0   34.14    2.02
 -10  -1   0   33.18    2.09
 -10  -1   0   34.85    2.15
  10   1   1   -0.11    0.24
 -10  -1  -1   -0.03    0.27
  10   1   1    0.26    0.20
 -10  -1  -1   -0.08    0.31
  10   1   2   15.68    1.05
 -10  -1  -2   16.26    1.09
  10   1   2   16.42    1.00
 -10  -1  -2   16.02    1.14
 -10  -1  -3   -0.11    0.26
 -10  -1  -3   -0.11    0.28
 -10  -1  -3   -0.40    0.35
 -10  -1  -4    0.20    0.20
 -10  -1  -4    0.13    0.25
 -10  -1  -4    0.39    0.28
 -10  -1  -4    0.35    0.30
 -10  -1  -5    5.64    0.43
 -10  -1  -5    5.28    0.47
 -10  -1  -5    6.88    0.53
 -10  -1  -5    5.12    0.51
 -10  -1  -6    0.93    0.17
 -10  -1  -6    0.85    0.24
 -10  -1  -7    1.49    0.17
 -10  -1  -7    1.54    0.20
  10   2 -11    0.14    0.15
  10   2 -10    4.48    0.40
  10   2 -10    4.36    0.39
  10   2 -10    5.25    0.39
  10   2  -9    0.11    0.23
  10   2  -9    0.17    0.21
  10   2  -9    0.24    0.21
  10   2  -9    0.16    0.20
  10   2  -8    0.89    0.19
  10   2  -8    1.18    0.28
  10   2  -8    1.70    0.31
  10   2  -8    1.16    0.26
  10   2  -8    0.90    0.24
  10   2  -7    6.78    0.51
  10   2  -7    7.11    0.50
  10   2  -7    6.20    0.56
  10   2  -7    6.78    0.59
  10   2  -7    6.15    0.54
  10   2  -6    6.71    0.56
  10   2  -6    7.83    0.53
  10   2  -6    6.72    0.59
  10   2  -6    7.80    0.64
  10   2  -6    5.99    0.55
  10   2  -5   22.26    1.43
 -10  -2   5   21.76    1.45
  10   2  -5   24.33    1.45
  10   2  -5   22.82    1.49
  10   2  -4    5.81    0.51
 -10  -2   4    4.69    0.51
  10   2  -4    3.72    0.44
  10   2  -4    5.01    0.52
 -10  -2   3  116.09    6.63
  10   2  -3  118.61    6.62
 -10  -2   3  115.69    6.67
  10   2  -2   11.67    0.86
  10   2  -2   12.13    0.87
 -10  -2   2   11.73    0.95
  10   2  -1   16.89    1.14
 -10  -2   1   15.07    1.15
  10   2  -1   18.82    1.14
  10   2  -1   16.36    1.08
 -10  -2   1   17.99    1.23
  10   2   0   13.54    0.96
 -10  -2   0   14.51    1.01
 -10  -2   0   14.71    0.97
  10   2   0   13.08    0.92
 -10  -2   0   15.69    1.09
  10   2   1   24.90    1.49
 -10  -2  -1   24.86    1.51
 -10  -2  -1   22.57    1.50
  10   2   1   23.25    1.44
 -10  -2  -1   23.86    1.59
 -10  -2  -1   24.68    1.60
  10   2   2    0.44    0.21
 -10  -2  -2    0.97    0.29
  10   2   2    0.59    0.18
 -10  -2  -2    1.01    0.35
 -10  -2  -2    0.53    0.34
 -10  -2  -3    0.09    0.19
 -10  -2  -3    0.43    0.31
 -10  -2  -3    0.69    0.32
 -10  -2  -4    7.93    0.57
 -10  -2  -4    9.35    0.69
 -10  -2  -4    8.03    0.66
 -10  -2  -5    2.21    0.24
 -10  -2  -5    2.31    0.33
 -10  -2  -5    2.14    0.30
 -10  -2  -6    1.00    0.15
 -10  -2  -6    0.61    0.20
  10   3 -11    0.31    0.16
  10   3 -10    3.48    0.34
  10   3 -10    3.05    0.30
  10   3 -10    2.78    0.30
  10   3 -10    3.19    0.29
  10   3  -9    4.78    0.43
  10   3  -9    4.67    0.41
  10   3  -9    4.98    0.45
  10   3  -9    4.14    0.38
  10   3  -8    2.99    0.37
  10   3  -8    3.35    0.40
  10   3  -8    2.27    0.31
  10   3  -7   -0.02    0.19
  10   3  -7    0.03    0.14
  10   3  -7    0.11    0.26
  10   3  -7   -0.30    0.30
  10   3  -6    0.61    0.23
  10   3  -6    0.78    0.19
  10   3  -6    0.46    0.27
 -10  -3   6    0.55    0.24
  10   3  -5   24.18    1.47
 -10  -3   5   22.09    1.48
  10   3  -5   22.47    1.46
  10   3  -5   24.25    1.52
  10   3  -4   -0.09    0.27
  10   3  -4    0.16    0.24
  10   3  -4   -0.03    0.29
 -10  -3   4   -0.07    0.28
 -10  -3   3   43.54    2.68
  10   3  -3   47.85    2.67
 -10  -3   3   41.97    2.71
  10   3  -2    0.91    0.30
  10   3  -2    0.74    0.28
 -10  -3   2    0.96    0.31
  10   3  -2    1.04    0.24
 -10  -3   2    0.73    0.38
 -10  -3   2    1.43    0.47
  10   3  -1    1.73    0.32
  10   3  -1    0.72    0.26
 -10  -3   1    1.31    0.34
  10   3  -1    1.07    0.25
 -10  -3   1    1.58    0.41
 -10  -3   1    1.61    0.42
  10   3   0    0.03    0.24
 -10  -3   0   -0.16    0.26
  10   3   0   -0.08    0.21
 -10  -3   0   -0.13    0.35
 -10  -3   0    0.04    0.35
  10   3   1    9.16    0.67
 -10  -3  -1   10.25    0.71
  10   3   1    8.82    0.63
 -10  -3  -1    9.11    0.81
 -10  -3  -1    9.40    0.80
 -10  -3  -2    1.68    0.25
 -10  -3  -2    1.72    0.37
 -10  -3  -3    0.10    0.17
 -10  -3  -3    0.10    0.29
 -10  -3  -3    0.49    0.27
 -10  -3  -4    4.90    0.35
 -10  -3  -4    4.35    0.46
 -10  -3  -4    4.25    0.42
 -10  -3  -5    2.87    0.24
 -10  -3  -5    2.63    0.31
  10   4 -11    3.34    0.30
  10   4 -10    0.45    0.21
  10   4 -10    0.68    0.21
  10   4 -10    0.63    0.18
  10   4  -9    0.85    0.26
  10   4  -9    0.41    0.25
  10   4  -9    0.54    0.15
  10   4  -8    0.08    0.26
  10   4  -8    0.22    0.25
  10   4  -8   -0.03    0.16
  10   4  -7    0.61    0.26
 -10  -4   7    0.55    0.22
  10   4  -7    0.77    0.23
  10   4  -6    0.05    0.22
  10   4  -6    0.17    0.25
  10   4  -6    0.14    0.27
 -10  -4   6    0.36    0.26
  10   4  -5   14.88    0.98
 -10  -4   5   14.92    1.01
  10   4  -5   15.10    0.98
  10   4  -5   14.91    1.03
  10   4  -5   12.51    0.92
  10   4  -4    0.05    0.25
  10   4  -4    0.57    0.26
 -10  -4   4    0.41    0.29
 -10  -4   4    0.04    0.35
  10   4  -3    5.02    0.50
  10   4  -3    5.56    0.50
  10   4  -3    6.45    0.55
  10   4  -3    5.88    0.50
 -10  -4   3    6.00    0.64
  10   4  -2    1.32    0.29
  10   4  -2    0.83    0.26
  10   4  -2    0.87    0.24
 -10  -4   2    0.78    0.29
 -10  -4   2    0.59    0.35
 -10  -4   2    0.37    0.37
  10   4  -1    1.24    0.28
 -10  -4   1    0.35    0.26
  10   4  -1    0.93    0.24
 -10  -4   1    1.40    0.41
 -10  -4   1    0.39    0.36
 -10  -4   0    0.55    0.19
  10   4   0    0.35    0.23
 -10  -4   0    0.62    0.25
  10   4   0    0.44    0.20
 -10  -4   0    0.71    0.36
 -10  -4   0    0.65    0.35
 -10  -4  -1    1.67    0.22
 -10  -4  -1    0.88    0.20
 -10  -4  -1    1.58    0.38
 -10  -4  -1    2.11    0.36
 -10  -4  -2    1.42    0.20
 -10  -4  -2    1.34    0.33
 -10  -4  -2    2.14    0.32
 -10  -4  -3    1.11    0.17
 -10  -4  -3    1.23    0.29
 -10  -4  -3    1.27    0.24
 -10  -4  -4    0.03    0.11
 -10  -4  -4   -0.17    0.22
  10   5 -11    4.34    0.34
  10   5 -10    0.36    0.20
  10   5  -9    2.74    0.33
  10   5  -9    2.33    0.32
  10   5  -9    1.87    0.19
  10   5  -8    0.20    0.26
  10   5  -8    0.37    0.16
  10   5  -8   -0.14    0.18
  10   5  -7    0.53    0.27
  10   5  -7    0.33    0.28
 -10  -5   7    0.20    0.20
  10   5  -7    0.44    0.19
  10   5  -7    0.34    0.22
  10   5  -6    2.68    0.37
  10   5  -6    2.35    0.39
  10   5  -6    2.77    0.30
 -10  -5   6    2.46    0.36
  10   5  -5    0.64    0.28
  10   5  -5    0.71    0.29
  10   5  -5    0.28    0.21
 -10  -5   5    0.38    0.27
 -10  -5   5   -0.11    0.34
  10   5  -4    1.21    0.28
  10   5  -4    1.03    0.30
 -10  -5   4    0.65    0.28
 -10  -5   4    0.67    0.34
  10   5  -3    0.46    0.25
  10   5  -3    0.15    0.23
  10   5  -3    0.45    0.22
 -10  -5   3    0.64    0.27
 -10  -5   3    0.83    0.38
 -10  -5   3    0.64    0.36
  10   5  -2    0.14    0.21
 -10  -5   2    0.06    0.25
 -10  -5   2    0.55    0.37
 -10  -5   2    0.32    0.33
 -10  -5   1   -0.03    0.21
  10   5  -1    0.24    0.19
 -10  -5   1    0.64    0.34
 -10  -5   1    0.56    0.31
 -10  -5   0    0.21    0.19
 -10  -5   0    0.21    0.30
 -10  -5   0    0.17    0.27
 -10  -5  -1    1.48    0.35
 -10  -5  -1    1.59    0.30
 -10  -5  -2    1.78    0.25
  10   6 -11   -0.03    0.12
  10   6 -10    0.86    0.20
  10   6  -9    0.58    0.17
  10   6  -9    0.49    0.21
  10   6  -9    0.42    0.24
  10   6  -8    1.18    0.26
  10   6  -8    1.10    0.30
  10   6  -8    0.75    0.15
  10   6  -8    0.77    0.22
  10   6  -7    0.07    0.24
  10   6  -7    0.06    0.26
 -10  -6   7    0.53    0.22
  10   6  -7   -0.01    0.15
  10   6  -7    0.12    0.22
  10   6  -6    0.84    0.26
  10   6  -6    0.26    0.28
  10   6  -6    0.47    0.19
 -10  -6   6    0.52    0.25
  10   6  -5    3.12    0.37
  10   6  -5    2.83    0.39
  10   6  -5    3.14    0.32
 -10  -6   5    2.94    0.38
  10   6  -4    1.38    0.29
  10   6  -4    1.02    0.23
 -10  -6   4    1.41    0.36
 -10  -6   3    2.99    0.37
 -10  -6   3    2.40    0.40
 -10  -6   2    0.54    0.24
 -10  -6   2    0.94    0.30
 -10  -6   1    0.07    0.22
 -10  -6   0    0.53    0.21
 -10  -6  -1   -0.27    0.25
 -10  -6  -1    0.07    0.14
 -10  -6  -2    3.80    0.36
  10   7 -10   -0.19    0.14
  10   7  -9    0.69    0.20
  10   7  -9    0.84    0.18
  10   7  -8    1.71    0.26
  10   7  -8    1.67    0.26
  10   7  -7    0.48    0.22
  10   7  -7    0.53    0.25
  10   7  -7    0.60    0.15
 -10  -7   7    0.34    0.30
  10   7  -7    0.33    0.21
  10   7  -6   -0.06    0.24
  10   7  -6   -0.04    0.15
 -10  -7   6   -0.03    0.27
  10   7  -5    1.53    0.22
 -10  -7   5    1.36    0.26
 -10  -7   5    2.10    0.36
 -10  -7   5    1.47    0.33
 -10  -7   4    0.58    0.22
 -10  -7   4    0.58    0.31
 -10  -7   4    0.08    0.25
  10   7  -3    0.91    0.19
 -10  -7   3    1.33    0.32
 -10  -7   3    1.29    0.26
  10   7  -2    0.30    0.18
 -10  -7   2   -0.08    0.19
  10   7  -1   -0.03    0.16
 -10  -7   1    0.37    0.24
  10   7   0    1.50    0.21
 -10  -7   0    1.37    0.25
  10   7   1    0.24    0.14
 -10  -7  -1    0.14    0.15
  10   8  -9    0.67    0.16
 -10  -8   9    0.80    0.22
 -10  -8   8    0.04    0.22
 -10  -8   8    0.26    0.21
  10   8  -8    0.52    0.17
 -10  -8   7    4.46    0.43
 -10  -8   7    4.14    0.39
  10   8  -7    3.92    0.36
 -10  -8   6    0.84    0.28
 -10  -8   6    0.76    0.23
  10   8  -6    0.81    0.22
 -10  -8   5    3.35    0.38
 -10  -8   5    3.14    0.33
 -10  -8   4    0.21    0.22
 -10  -8   4    0.03    0.16
  10   8  -3    1.04    0.16
 -10  -8   3    1.74    0.28
  10   8  -2    0.16    0.12
 -10  -8   2    0.27    0.21
  10   8  -1    0.30    0.12
 -10  -8   1    0.47    0.18
  10   9  -8    0.85    0.14
 -10  -9   7    1.01    0.21
  10   9  -7    0.98    0.17
 -10  -9   6    0.03    0.18
 -10  -9   5    1.85    0.25
  10   9  -5    1.57    0.22
 -10  -9   4    0.57    0.18
  11  -9   0    0.86    0.15
  11  -9   0    0.72    0.15
  11  -9   1    5.88    0.45
 -11   9  -1    6.50    0.44
  11  -9   1    6.78    0.47
 -11   9  -2    1.04    0.18
  11  -9   3   -0.15    0.16
 -11   9  -3   -0.04    0.14
  11  -9   3   -0.02    0.15
  11  -9   4    2.51    0.27
 -11   9  -4    3.07    0.28
  11  -9   4    3.03    0.28
  11  -9   5    9.74    0.63
  11  -9   5    8.90    0.63
 -11   9  -6    0.85    0.15
  11  -8  -2    2.71    0.26
  11  -8  -1    1.08    0.20
  11  -8  -1    1.00    0.18
  11  -8  -1    1.09    0.19
  11  -8   0    1.51    0.22
  11  -8   0    1.31    0.23
 -11   8   0    1.24    0.21
  11  -8   0    1.27    0.24
  11  -8   1    4.15    0.40
 -11   8  -1    5.13    0.39
  11  -8   1    4.37    0.37
 -11   8  -2    1.18    0.23
  11  -8   3    0.77    0.22
 -11   8  -3    1.17    0.23
  11  -8   4    5.47    0.45
 -11   8  -4    4.70    0.39
  11  -8   5    6.72    0.45
 -11   8  -5    5.70    0.43
  11  -8   5    5.76    0.44
 -11   8  -6    0.68    0.16
 -11   8  -7    1.99    0.22
  11  -7  -4    4.79    0.35
  11  -7  -3    1.27    0.21
  11  -7  -3    1.45    0.21
  11  -7  -3    1.04    0.16
  11  -7  -2   -0.04    0.19
  11  -7  -2    0.10    0.15
  11  -7  -2    0.06    0.16
  11  -7  -2   -0.03    0.16
  11  -7  -1    1.06    0.23
  11  -7  -1    1.09    0.24
  11  -7  -1    1.22    0.21
  11  -7  -1    0.84    0.24
  11  -7   0    2.72    0.35
  11  -7   0    3.95    0.39
  11  -7   0    3.22    0.35
  11  -7   1    1.89    0.27
  11  -7   1    2.43    0.32
  11  -7   2   -0.09    0.23
  11  -7   3    3.14    0.36
  11  -7   4    6.19    0.50
 -11   7  -4    7.00    0.51
 -11   7  -4    5.43    0.45
  11  -7   4    6.46    0.50
  11  -7   5   10.00    0.64
 -11   7  -5   10.39    0.67
 -11   7  -5    8.83    0.63
  11  -7   5    8.62    0.62
 -11   7  -6    1.21    0.22
 -11   7  -6    0.78    0.19
 -11   7  -7   10.10    0.65
 -11   7  -7    9.68    0.64
  11  -6  -5    9.75    0.63
  11  -6  -5    9.95    0.62
  11  -6  -4    5.21    0.41
  11  -6  -4    4.93    0.37
  11  -6  -4    5.31    0.41
  11  -6  -3   11.13    0.75
  11  -6  -3   11.34    0.79
  11  -6  -3   11.39    0.80
  11  -6  -2   -0.10    0.22
  11  -6  -2    0.10    0.20
  11  -6  -2    0.02    0.19
  11  -6  -2    0.32    0.21
  11  -6  -1    0.17    0.22
  11  -6  -1    0.46    0.25
  11  -6  -1    0.27    0.21
  11  -6  -1    0.13    0.23
  11  -6   0    1.71    0.28
  11  -6   0    1.61    0.31
  11  -6   1    0.22    0.25
  11  -6   2    2.56    0.35
 -11   6  -2    2.46    0.35
  11  -6   2    2.13    0.32
  11  -6   3    0.73    0.26
 -11   6  -3    0.94    0.26
 -11   6  -3    0.45    0.19
  11  -6   3    0.39    0.21
  11  -6   4    9.78    0.69
 -11   6  -4   10.91    0.72
 -11   6  -4    9.02    0.66
  11  -6   4    9.27    0.68
  11  -6   5   13.71    0.90
 -11   6  -5   15.42    0.94
 -11   6  -5   14.03    0.92
 -11   6  -6    0.11    0.19
 -11   6  -6   -0.02    0.18
 -11   6  -7    5.09    0.38
 -11   6  -7    4.39    0.37
  11  -5  -6    2.97    0.26
  11  -5  -5   10.29    0.46
  11  -5  -5   11.35    0.47
  11  -5  -4    9.50    0.68
  11  -5  -4    9.90    0.67
  11  -5  -3   25.73    1.57
  11  -5  -3   25.50    1.59
  11  -5  -3   29.09    1.61
  11  -5  -3   24.67    1.60
  11  -5  -2    0.65    0.27
  11  -5  -2    0.74    0.25
  11  -5  -2    0.92    0.20
  11  -5  -2    0.83    0.26
  11  -5  -2    0.71    0.28
  11  -5  -1    7.21    0.62
  11  -5  -1    8.13    0.61
  11  -5  -1    8.09    0.63
  11  -5   0   -0.43    0.25
  11  -5   0   -0.06    0.26
  11  -5   1    0.06    0.27
  11  -5   1   -0.14    0.24
  11  -5   2    4.26    0.45
 -11   5  -2    4.63    0.45
  11  -5   2    4.41    0.45
  11  -5   3    1.78    0.31
 -11   5  -3    2.46    0.34
 -11   5  -3    1.51    0.25
  11  -5   3    1.39    0.28
  11  -5   4    9.83    0.65
 -11   5  -4    8.27    0.63
 -11   5  -4    8.24    0.61
  11  -5   4    7.74    0.60
  11  -5   5   16.03    0.96
 -11   5  -5   15.45    0.99
 -11   5  -5   14.28    0.97
 -11   5  -6   33.79    1.92
 -11   5  -6   31.91    1.92
 -11   5  -7    0.52    0.12
 -11   5  -7    0.45    0.16
 -11   5  -7    0.32    0.17
 -11   5  -8    0.29    0.12
  11  -4  -7    0.62    0.15
  11  -4  -6   -0.10    0.16
  11  -4  -6    0.03    0.18
  11  -4  -5    5.93    0.48
  11  -4  -5    5.53    0.45
  11  -4  -4    6.22    0.48
  11  -4  -4    6.75    0.48
  11  -4  -4    5.77    0.52
  11  -4  -4    6.36    0.53
  11  -4  -3   29.92    1.90
  11  -4  -3   35.30    1.88
  11  -4  -3   30.31    1.92
  11  -4  -3   32.21    1.94
  11  -4  -3   31.02    1.94
  11  -4  -2    0.86    0.29
  11  -4  -2    0.77    0.27
  11  -4  -2    0.98    0.27
  11  -4  -2    0.69    0.27
  11  -4  -1    8.13    0.67
  11  -4  -1    8.26    0.68
  11  -4   0   -0.09    0.25
  11  -4   1    4.59    0.48
  11  -4   1    4.36    0.46
  11  -4   2    0.34    0.25
 -11   4  -2    0.24    0.24
 -11   4  -2    0.04    0.19
  11  -4   2    0.14    0.24
  11  -4   3    4.85    0.47
 -11   4  -3    5.98    0.48
 -11   4  -3    4.95    0.45
  11  -4   3    5.00    0.46
 -11   4  -3    5.12    0.45
  11  -4   4    2.43    0.30
 -11   4  -4    2.06    0.29
 -11   4  -4    2.36    0.30
 -11   4  -4    1.52    0.28
 -11   4  -5    6.45    0.52
 -11   4  -5    7.54    0.54
 -11   4  -5    6.77    0.53
 -11   4  -6   34.01    2.03
 -11   4  -6   36.58    2.05
 -11   4  -7    6.63    0.41
 -11   4  -7    6.62    0.46
 -11   4  -7    5.41    0.44
  11  -3  -8    2.74    0.24
  11  -3  -7    2.77    0.26
  11  -3  -6   12.23    0.72
  11  -3  -6   12.26    0.76
  11  -3  -5    6.84    0.49
  11  -3  -5    6.74    0.50
  11  -3  -5    6.40    0.55
  11  -3  -5    7.31    0.55
  11  -3  -4    3.72    0.37
  11  -3  -4    3.72    0.35
  11  -3  -4    3.45    0.41
  11  -3  -4    3.64    0.41
  11  -3  -3    3.24    0.41
  11  -3  -3    4.52    0.39
  11  -3  -3    3.35    0.43
  11  -3  -3    4.20    0.45
  11  -3  -2    6.41    0.57
  11  -3  -1    7.19    0.65
  11  -3  -1    8.88    0.68
  11  -3   0    4.24    0.45
  11  -3   0    3.41    0.42
  11  -3   1    8.85    0.71
  11  -3   1    8.51    0.70
 -11   3  -1    8.97    0.70
  11  -3   2    1.34    0.30
 -11   3  -2    1.31    0.27
 -11   3  -2    0.90    0.24
  11  -3   2    0.80    0.26
 -11   3  -2    1.19    0.30
  11  -3   3    2.28    0.32
 -11   3  -3    2.86    0.33
 -11   3  -3    1.95    0.30
  11  -3   3    2.46    0.31
 -11   3  -3    1.77    0.34
  11  -3   4    6.36    0.48
 -11   3  -4    5.75    0.48
 -11   3  -4    5.94    0.49
 -11   3  -4    5.42    0.52
 -11   3  -5    0.22    0.17
 -11   3  -5    0.39    0.21
 -11   3  -5    0.09    0.23
 -11   3  -6   22.51    1.26
 -11   3  -6   19.68    1.28
 -11   3  -7   11.90    0.71
 -11   3  -7   11.12    0.73
 -11   3  -7   12.11    0.75
  11  -2  -8    7.32    0.51
  11  -2  -7    2.47    0.27
  11  -2  -7    2.14    0.27
  11  -2  -6   22.90    1.30
  11  -2  -6   18.74    1.29
  11  -2  -5    6.32    0.48
  11  -2  -5    5.75    0.52
  11  -2  -4    4.22    0.40
  11  -2  -4    3.06    0.35
  11  -2  -4    3.53    0.41
  11  -2  -3    0.52    0.26
  11  -2  -2   26.82    1.72
  11  -2  -2   29.14    1.76
 -11   2   2   27.76    1.73
  11  -2  -1    2.00    0.35
 -11   2   1    2.10    0.38
  11  -2   0    0.24    0.28
  11  -2   0    0.40    0.27
 -11   2   0    0.17    0.32
  11  -2   1    0.12    0.25
 -11   2  -1    0.05    0.20
  11  -2   1    0.06    0.25
 -11   2  -1    0.31    0.32
  11  -2   2    1.34    0.29
 -11   2  -2    1.76    0.26
 -11   2  -2    1.41    0.27
  11  -2   2    1.64    0.27
 -11   2  -2    1.57    0.37
  11  -2   3    6.12    0.48
 -11   2  -3    5.29    0.43
 -11   2  -3    4.43    0.44
 -11   2  -3    4.73    0.51
 -11   2  -4   14.34    0.95
 -11   2  -4   14.72    1.00
 -11   2  -5    0.10    0.20
 -11   2  -5    0.10    0.22
 -11   2  -6   17.66    1.01
 -11   2  -6   15.70    1.03
 -11   2  -7    0.89    0.14
 -11   2  -7    0.83    0.16
 -11   2  -7    1.22    0.18
  11  -1  -9    3.96    0.31
  11  -1  -8    4.01    0.34
  11  -1  -8    4.68    0.36
  11  -1  -7    0.06    0.19
  11  -1  -7    0.36    0.21
  11  -1  -6    4.60    0.39
  11  -1  -6    5.34    0.41
  11  -1  -6    5.50    0.47
  11  -1  -6    4.44    0.44
  11  -1  -5    0.09    0.19
  11  -1  -5   -0.04    0.19
  11  -1  -5   -0.03    0.25
  11  -1  -4    2.33    0.32
 -11   1   4    1.50    0.34
  11  -1  -3    2.83    0.37
  11  -1  -3    2.13    0.37
 -11   1   3    1.82    0.39
  11  -1  -2   42.01    2.59
  11  -1  -2   44.06    2.61
 -11   1   2   45.39    2.65
  11  -1  -1    0.64    0.28
  11  -1  -1    1.28    0.29
 -11   1   1    0.31    0.37
  11  -1   0   24.72    1.51
  11  -1   0   22.92    1.49
 -11   1   0   23.71    1.57
  11  -1   1    3.07    0.38
 -11   1  -1    3.15    0.35
  11  -1   1    3.31    0.37
  11  -1   1    3.08    0.31
 -11   1  -1    3.68    0.50
  11  -1   2    0.12    0.22
 -11   1  -2    0.30    0.22
 -11   1  -2    0.50    0.34
  11  -1   3    1.25    0.24
 -11   1  -3    0.94    0.25
 -11   1  -3    1.69    0.36
 -11   1  -4   11.43    0.77
 -11   1  -4   11.07    0.82
 -11   1  -5    9.28    0.68
 -11   1  -5   11.46    0.75
 -11   1  -6    7.24    0.50
 -11   1  -7    3.00    0.22
  11   0  -9    2.21    0.21
  11   0  -9    2.36    0.24
  11   0  -8    1.19    0.20
  11   0  -8    1.62    0.22
  11   0  -8    1.67    0.24
  11   0  -7    5.70    0.47
  11   0  -7    7.07    0.53
  11   0  -7    6.43    0.51
  11   0  -6    4.82    0.41
  11   0  -6    5.23    0.42
  11   0  -6    5.93    0.49
  11   0  -6    4.33    0.44
  11   0  -5    2.80    0.32
  11   0  -5    2.58    0.30
  11   0  -5    1.82    0.33
  11   0  -4    3.44    0.39
  11   0  -4    3.07    0.41
  11   0  -3    0.93    0.28
  11   0  -3    0.29    0.28
 -11   0   3    0.94    0.37
  11   0  -2   13.78    0.97
 -11   0   2   13.35    1.03
  11   0  -1    0.06    0.26
  11   0  -1    0.18    0.24
 -11   0   1    0.04    0.34
  11   0   0   22.10    1.45
  11   0   0   23.42    1.45
 -11   0   0   23.83    1.55
  11   0   1    2.89    0.37
 -11   0  -1    3.20    0.35
  11   0   1    3.43    0.32
 -11   0  -1    3.46    0.49
  11   0   2    0.47    0.21
 -11   0  -2    0.18    0.21
 -11   0  -2    0.43    0.33
  11   0   3    6.13    0.46
 -11   0  -3    5.77    0.49
 -11   0  -3    6.41    0.58
 -11   0  -4    1.34    0.25
 -11   0  -4    1.26    0.32
 -11   0  -5   16.37    0.98
 -11   0  -6   -0.03    0.12
  11   1  -9    0.43    0.16
  11   1  -9    0.11    0.15
  11   1  -8    1.57    0.24
  11   1  -8    1.78    0.26
  11   1  -8    1.64    0.24
  11   1  -7    8.65    0.66
  11   1  -7   10.83    0.73
  11   1  -7   10.28    0.68
  11   1  -6   15.69    1.05
  11   1  -6   19.29    1.07
  11   1  -6   15.38    1.05
  11   1  -6   19.34    1.15
  11   1  -6   16.17    1.07
  11   1  -5    6.70    0.50
  11   1  -5    6.35    0.47
 -11  -1   5    6.02    0.54
  11   1  -4    4.07    0.44
  11   1  -4    5.29    0.50
 -11  -1   4    4.41    0.49
  11   1  -3    2.80    0.38
  11   1  -3    2.98    0.39
 -11  -1   3    2.50    0.40
 -11  -1   3    2.81    0.49
  11   1  -2    3.69    0.41
  11   1  -2    4.00    0.44
 -11  -1   2    2.51    0.43
 -11  -1   2    3.71    0.53
  11   1  -1    0.28    0.26
  11   1  -1    0.22    0.22
 -11  -1   1    0.66    0.34
 -11  -1   1   -0.08    0.37
  11   1   0    8.31    0.63
  11   1   0    7.50    0.60
  11   1   0    7.53    0.56
 -11  -1   0    8.08    0.68
 -11  -1   0    7.65    0.72
  11   1   1    1.40    0.26
 -11  -1  -1    1.08    0.25
  11   1   1    1.08    0.21
 -11  -1  -1    1.33    0.33
 -11  -1  -1    1.23    0.38
  11   1   2    5.59    0.45
 -11  -1  -2    5.28    0.47
 -11  -1  -2    5.73    0.53
 -11  -1  -3    8.36    0.65
 -11  -1  -4    0.42    0.17
 -11  -1  -4    0.81    0.25
 -11  -1  -5   -0.05    0.12
 -11  -1  -5   -0.03    0.18
  11   2  -9    2.93    0.26
  11   2  -9    3.00    0.28
  11   2  -9    2.24    0.20
  11   2  -9    2.25    0.23
  11   2  -8    0.21    0.18
  11   2  -8    0.02    0.20
  11   2  -8    0.11    0.16
  11   2  -7    5.52    0.44
  11   2  -7    6.65    0.49
  11   2  -7    7.28    0.55
  11   2  -7    5.99    0.46
  11   2  -6    3.30    0.34
  11   2  -6    3.35    0.31
  11   2  -6    3.31    0.36
 -11  -2   6    3.62    0.41
  11   2  -5    1.08    0.25
  11   2  -5    1.50    0.23
  11   2  -5    1.30    0.25
  11   2  -5    1.11    0.32
 -11  -2   5    0.70    0.31
  11   2  -4    0.16    0.24
  11   2  -4   -0.06    0.26
 -11  -2   4    0.24    0.30
 -11  -2   3    7.51    0.63
  11   2  -3    7.69    0.64
 -11  -2   3    7.68    0.69
 -11  -2   3    8.50    0.74
  11   2  -2    2.44    0.33
  11   2  -2    1.63    0.30
  11   2  -2    1.40    0.27
 -11  -2   2    1.09    0.36
 -11  -2   2    1.61    0.43
  11   2  -1    0.77    0.26
  11   2  -1    0.59    0.24
  11   2  -1    0.65    0.22
 -11  -2   1    0.58    0.33
  11   2   0    2.75    0.35
  11   2   0    3.21    0.31
 -11  -2   0    2.93    0.44
  11   2   1    1.15    0.24
  11   2   1    1.69    0.22
 -11  -2  -1    1.86    0.36
 -11  -2  -1    1.40    0.37
 -11  -2  -2    6.40    0.48
  11   2   2    5.89    0.48
 -11  -2  -2    8.52    0.62
 -11  -2  -2    8.23    0.63
 -11  -2  -3    1.48    0.20
 -11  -2  -3    1.40    0.29
 -11  -2  -3    1.57    0.29
 -11  -2  -4    0.18    0.13
 -11  -2  -4   -0.04    0.18
 -11  -2  -4    0.16    0.20
 -11  -2  -5    0.36    0.10
  11   3  -9    0.19    0.15
  11   3  -9    0.19    0.17
  11   3  -9    0.34    0.10
 -11  -3   9    0.05    0.17
  11   3  -8    0.30    0.19
  11   3  -8    0.20    0.21
  11   3  -8    0.28    0.14
  11   3  -7    0.33    0.19
  11   3  -6    0.88    0.23
  11   3  -6    0.91    0.22
  11   3  -6    1.40    0.29
 -11  -3   6    0.50    0.28
  11   3  -5    1.35    0.26
  11   3  -5    1.83    0.21
  11   3  -5    1.48    0.26
 -11  -3   5    1.84    0.29
  11   3  -5    2.20    0.35
 -11  -3   5    1.37    0.35
  11   3  -4    0.20    0.23
 -11  -3   4    0.03    0.24
  11   3  -4    0.24    0.26
 -11  -3   4    0.45    0.33
  11   3  -3    0.21    0.24
 -11  -3   3    0.32    0.25
  11   3  -3    0.53    0.26
  11   3  -3    0.12    0.20
 -11  -3   3    0.07    0.32
  11   3  -2    0.93    0.26
 -11  -3   2    0.84    0.28
  11   3  -2    0.50    0.22
  11   3  -2    0.86    0.22
 -11  -3   2    0.58    0.31
  11   3  -1    0.15    0.22
 -11  -3   1    0.14    0.22
  11   3  -1    0.02    0.18
 -11  -3   1    0.07    0.29
 -11  -3   1    0.51    0.35
  11   3   0    0.36    0.21
  11   3   0    0.53    0.18
 -11  -3   0    0.33    0.31
 -11  -3   0    0.57    0.32
 -11  -3  -1    0.06    0.14
 -11  -3  -1    0.21    0.27
 -11  -3  -1    0.32    0.28
 -11  -3  -2    0.11    0.14
 -11  -3  -2    0.29    0.25
 -11  -3  -2    0.19    0.24
 -11  -3  -3    3.80    0.29
 -11  -3  -3    4.32    0.40
 -11  -3  -3    4.29    0.37
 -11  -3  -4   -0.09    0.15
  11   4  -9    0.23    0.16
  11   4  -9   -0.10    0.19
 -11  -4   9    0.17    0.20
  11   4  -8    3.08    0.30
  11   4  -8    2.60    0.34
  11   4  -8    2.90    0.25
 -11  -4   8    2.14    0.32
  11   4  -7    0.47    0.20
  11   4  -7    0.19    0.25
  11   4  -7    0.20    0.16
 -11  -4   7    0.47    0.26
 -11  -4   6    7.59    0.58
  11   4  -6    8.40    0.57
  11   4  -6    8.07    0.63
  11   4  -6    8.17    0.55
 -11  -4   6    8.35    0.65
  11   4  -6    6.11    0.53
  11   4  -5    6.56    0.54
 -11  -4   5    6.81    0.56
  11   4  -5    6.85    0.53
  11   4  -5    7.68    0.60
  11   4  -5    6.47    0.51
 -11  -4   5    7.41    0.62
 -11  -4   4   -0.03    0.21
  11   4  -4    0.03    0.24
 -11  -4   4   -0.07    0.29
 -11  -4   4   -0.28    0.32
  11   4  -3    1.09    0.27
  11   4  -3    1.31    0.27
  11   4  -3    1.47    0.25
 -11  -4   3    1.67    0.38
  11   4  -2    0.14    0.21
 -11  -4   2   -0.10    0.21
  11   4  -2    0.10    0.18
 -11  -4   2    0.17    0.28
 -11  -4   2    0.30    0.32
 -11  -4   1    0.70    0.22
  11   4  -1    0.34    0.18
 -11  -4   1    0.32    0.32
 -11  -4   1    0.71    0.31
 -11  -4   0    0.12    0.28
 -11  -4   0   -0.19    0.24
 -11  -4  -1    0.89    0.27
 -11  -4  -1    0.46    0.23
 -11  -4  -2    0.66    0.22
 -11  -4  -2    0.40    0.19
 -11  -4  -3    0.08    0.15
  11   5  -9    0.90    0.18
  11   5  -9    1.18    0.22
 -11  -5   9    0.77    0.22
  11   5  -8    0.66    0.19
  11   5  -8    0.29    0.11
 -11  -5   8    0.52    0.23
  11   5  -7    0.35    0.19
  11   5  -7    0.13    0.23
  11   5  -7    0.40    0.15
 -11  -5   7   -0.03    0.25
  11   5  -7    0.43    0.17
  11   5  -6    1.63    0.24
  11   5  -6    1.39    0.29
  11   5  -6    1.60    0.21
 -11  -5   6    1.48    0.33
  11   5  -6    1.15    0.23
  11   5  -5    3.15    0.38
  11   5  -5    3.58    0.32
 -11  -5   5    3.68    0.42
 -11  -5   5    3.40    0.44
 -11  -5   4    0.82    0.23
  11   5  -4    0.96    0.24
 -11  -5   4    1.19    0.32
 -11  -5   4    0.45    0.30
 -11  -5   3    1.34    0.26
  11   5  -3    1.42    0.25
  11   5  -3    1.67    0.24
 -11  -5   3    1.99    0.36
 -11  -5   3    1.80    0.32
  11   5  -2    2.23    0.25
 -11  -5   2    2.13    0.35
 -11  -5   2    2.30    0.36
 -11  -5   1    1.59    0.32
 -11  -5   1    1.82    0.31
 -11  -5   0    0.10    0.24
 -11  -5   0   -0.06    0.19
 -11  -5  -1    5.13    0.44
 -11  -5  -1    4.89    0.38
 -11  -5  -2    1.29    0.21
  11   6  -9    2.18    0.21
 -11  -6   9    2.11    0.25
  11   6  -8    0.56    0.16
  11   6  -8    0.52    0.10
 -11  -6   8    0.33    0.22
  11   6  -7   -0.16    0.22
  11   6  -7    0.22    0.12
 -11  -6   7   -0.14    0.23
  11   6  -7   -0.14    0.16
  11   6  -6    0.14    0.21
  11   6  -6    0.29    0.14
 -11  -6   6    0.37    0.24
 -11  -6   6    0.10    0.24
  11   6  -6    0.21    0.18
  11   6  -5    0.09    0.20
  11   6  -5    0.36    0.16
 -11  -6   5    0.18    0.24
 -11  -6   5    0.54    0.27
 -11  -6   4    2.70    0.36
 -11  -6   4    2.65    0.34
 -11  -6   3    0.08    0.24
 -11  -6   3    0.13    0.21
  11   6  -2    0.02    0.13
 -11  -6   2    0.05    0.23
 -11  -6   2    0.09    0.18
 -11  -6   1    0.15    0.15
  11   6   0    1.94    0.21
 -11  -7   8    1.12    0.21
 -11  -7   7    0.51    0.20
  11   7  -7    0.55    0.15
 -11  -7   6    0.19    0.19
  11   7  -6    0.37    0.16
 -11  -7   5    2.71    0.30
 -11  -7   4    0.03    0.16
 -11  -7   3    0.76    0.17
 -11  -7   2    2.15    0.26
 -11  -7   1    0.19    0.14
 -11  -8   6    0.21    0.15
 -11  -8   5    0.37    0.14
  12  -8   1    3.37    0.29
 -12   8  -1    4.60    0.31
  12  -8   2    0.41    0.13
 -12   8  -2    0.26    0.13
  12  -8   2    0.56    0.13
  12  -8   3    1.28    0.16
  12  -8   3    0.79    0.14
 -12   7   2    0.93    0.14
  12  -7  -1    1.34    0.17
 -12   7   1    1.11    0.18
  12  -7  -1    1.32    0.18
  12  -7   0    0.12    0.15
  12  -7   1    6.28    0.46
  12  -7   2    1.46    0.22
 -12   7  -2    1.72    0.24
  12  -7   2    1.54    0.21
  12  -7   3    2.00    0.23
  12  -7   3    1.77    0.22
  12  -7   4    1.93    0.20
 -12   7  -4    2.11    0.23
 -12   7  -5    0.22    0.13
  12  -6  -3    5.13    0.38
  12  -6  -2    0.29    0.14
  12  -6  -2    0.33    0.16
  12  -6  -1    0.56    0.19
  12  -6  -1    0.52    0.19
  12  -6   0    0.05    0.17
 -12   6   0    0.06    0.18
  12  -6   0    0.13    0.16
  12  -6   1    0.19    0.18
 -12   6  -1    0.23    0.18
  12  -6   1    0.18    0.17
  12  -6   2    0.93    0.21
 -12   6  -2    1.20    0.23
  12  -6   2    0.87    0.20
  12  -6   3    6.09    0.46
  12  -6   3    5.61    0.45
  12  -6   4    0.35    0.15
 -12   6  -4    0.54    0.19
  12  -6   4    0.17    0.12
 -12   6  -5    1.15    0.19
  12  -5  -4    6.77    0.45
  12  -5  -3    1.01    0.17
  12  -5  -3    1.14    0.20
  12  -5  -2    1.12    0.21
  12  -5  -2    1.47    0.24
  12  -5  -1    0.45    0.20
  12  -5   0    2.63    0.32
  12  -5   1    0.10    0.20
 -12   5  -1    0.06    0.20
  12  -5   1    0.24    0.20
  12  -5   2    2.55    0.31
 -12   5  -2    2.68    0.31
  12  -5   2    3.24    0.32
  12  -5   3    1.23    0.22
 -12   5  -3    1.27    0.23
  12  -5   3    0.99    0.19
  12  -5   4    0.84    0.17
 -12   5  -4    0.31    0.18
 -12   5  -4    0.68    0.14
 -12   5  -5    0.32    0.15
 -12   5  -5    0.18    0.12
  12  -4  -5    3.32    0.28
  12  -4  -5    3.76    0.31
  12  -4  -4    1.00    0.16
  12  -4  -4    1.51    0.22
  12  -4  -3    0.19    0.16
  12  -4  -3    0.04    0.20
  12  -4  -2    0.31    0.20
  12  -4  -1    0.95    0.24
  12  -4  -1    1.10    0.26
  12  -4   0    6.94    0.55
  12  -4   1    0.30    0.21
 -12   4  -1    0.52    0.22
  12  -4   1    0.21    0.21
  12  -4   2    8.77    0.62
 -12   4  -2    8.38    0.61
  12  -4   2    8.52    0.61
  12  -4   3    0.02    0.17
 -12   4  -3   -0.07    0.17
  12  -4   3   -0.01    0.14
  12  -4   4    1.90    0.21
 -12   4  -4    2.33    0.24
 -12   4  -4    1.95    0.23
 -12   4  -5    0.37    0.14
  12  -3  -6    0.08    0.15
  12  -3  -5    3.85    0.34
  12  -3  -5    3.63    0.34
  12  -3  -4    1.94    0.23
  12  -3  -4    1.97    0.28
  12  -3  -3    9.08    0.63
  12  -3  -2    0.02    0.20
  12  -3  -2    0.50    0.23
  12  -3  -1    0.02    0.21
  12  -3   0    2.42    0.32
  12  -3   0    2.59    0.32
  12  -3   1    0.57    0.24
 -12   3  -1    0.62    0.21
  12  -3   1    0.79    0.21
  12  -3   2    2.99    0.32
 -12   3  -2    2.28    0.27
  12  -3   2    2.21    0.27
 -12   3  -2    2.40    0.29
  12  -3   3    0.31    0.17
 -12   3  -3   -0.12    0.14
 -12   3  -3   -0.18    0.15
 -12   3  -3    0.07    0.18
 -12   3  -4   12.50    0.79
 -12   3  -4   12.94    0.81
 -12   3  -5    0.87    0.15
 -12   3  -5    0.81    0.15
  12  -2  -7    4.38    0.33
  12  -2  -6    0.46    0.16
  12  -2  -6    0.43    0.17
  12  -2  -5    0.43    0.14
  12  -2  -5    0.49    0.19
  12  -2  -5    0.52    0.20
  12  -2  -4    1.44    0.23
  12  -2  -4    1.54    0.27
  12  -2  -3    6.93    0.52
  12  -2  -3    6.47    0.49
  12  -2  -3    6.59    0.55
  12  -2  -2    0.14    0.22
  12  -2  -2    0.10    0.23
  12  -2  -1    1.01    0.25
 -12   2   1    0.49    0.23
  12  -2   0   -0.09    0.21
 -12   2   0    0.11    0.17
  12  -2   0    0.02    0.20
 -12   2   0    0.22    0.23
  12  -2   1    1.15    0.26
 -12   2  -1    0.98    0.19
  12  -2   1    0.91    0.21
 -12   2  -1    0.94    0.27
  12  -2   2    2.15    0.27
 -12   2  -2    1.57    0.29
  12  -2   3    0.59    0.17
 -12   2  -3    0.82    0.17
 -12   2  -3    0.21    0.21
 -12   2  -4    9.50    0.64
 -12   2  -4   11.29    0.70
 -12   2  -5    0.16    0.12
  12  -1  -7    8.32    0.56
  12  -1  -7    8.94    0.57
  12  -1  -6    5.38    0.41
  12  -1  -6    4.15    0.37
  12  -1  -5    0.03    0.15
  12  -1  -5    0.31    0.21
  12  -1  -5   -0.16    0.17
  12  -1  -4   -0.11    0.19
  12  -1  -4   -0.03    0.16
  12  -1  -3    0.37    0.21
  12  -1  -3   -0.03    0.22
 -12   1   3    0.22    0.24
  12  -1  -2    3.63    0.40
 -12   1   2    3.79    0.42
  12  -1  -1    0.05    0.21
  12  -1  -1   -0.17    0.21
 -12   1   1   -0.20    0.27
  12  -1   0    0.86    0.24
  12  -1   0    0.57    0.21
  12  -1   0    0.23    0.15
 -12   1   0    0.69    0.30
  12  -1   1    7.46    0.56
  12  -1   1    7.48    0.54
 -12   1  -1    7.56    0.62
  12  -1   2    4.24    0.36
 -12   1  -2    3.61    0.32
 -12   1  -2    4.14    0.42
  12  -1   3    0.02    0.13
 -12   1  -3    0.11    0.15
 -12   1  -3   -0.02    0.23
 -12   1  -4    3.62    0.28
 -12   1  -4    3.10    0.33
 -12   1  -5    0.72    0.13
  12   0  -7    0.72    0.18
  12   0  -7    0.50    0.15
  12   0  -6    3.96    0.31
  12   0  -6    4.80    0.40
  12   0  -6    3.88    0.34
  12   0  -5    1.30    0.22
 -12   0   5    1.05    0.25
  12   0  -4    1.94    0.27
  12   0  -4    1.94    0.23
  12   0  -4    1.86    0.31
  12   0  -4    1.62    0.23
 -12   0   4    1.25    0.30
  12   0  -3    5.62    0.45
  12   0  -3    5.13    0.46
 -12   0   3    4.27    0.48
  12   0  -2   -0.07    0.20
 -12   0   2    0.22    0.30
  12   0  -1   -0.05    0.21
  12   0  -1    0.02    0.21
  12   0  -1    0.13    0.17
 -12   0   1    0.19    0.30
  12   0   0    8.97    0.65
  12   0   0    8.39    0.63
  12   0   0    9.68    0.61
 -12   0   0    9.24    0.73
  12   0   1    2.12    0.28
 -12   0  -1    2.77    0.37
  12   0   2    1.50    0.22
 -12   0  -2    1.98    0.33
 -12   0  -3    4.23    0.33
 -12   0  -3    4.18    0.41
 -12   0  -4    0.11    0.11
 -12   0  -4    0.11    0.18
  12   1  -7    2.10    0.23
  12   1  -7    1.47    0.16
  12   1  -6    0.26    0.13
  12   1  -6    0.46    0.21
 -12  -1   6    0.54    0.23
  12   1  -5    2.25    0.28
 -12  -1   5    2.42    0.36
  12   1  -4    2.23    0.29
  12   1  -4    2.56    0.32
 -12  -1   4    2.11    0.37
  12   1  -3    5.49    0.45
  12   1  -3    4.36    0.44
 -12  -1   3    4.97    0.52
  12   1  -2    2.39    0.31
  12   1  -2    2.39    0.32
  12   1  -2    2.17    0.27
 -12  -1   2    2.20    0.40
  12   1  -1    2.06    0.29
  12   1  -1    2.11    0.28
  12   1  -1    1.80    0.24
 -12  -1   1    2.10    0.38
  12   1   0    9.40    0.64
  12   1   0    8.88    0.59
 -12  -1   0    8.85    0.72
  12   1   1    0.17    0.17
 -12  -1  -1   -0.05    0.27
 -12  -1  -2    5.75    0.39
 -12  -1  -2    5.26    0.48
 -12  -1  -3    2.53    0.22
 -12  -1  -4    0.33    0.15
  12   2  -8    2.53    0.26
  12   2  -8    2.83    0.21
  12   2  -7   11.66    0.73
  12   2  -7   11.11    0.67
 -12  -2   7    9.41    0.71
  12   2  -6    0.50    0.16
  12   2  -6    0.57    0.16
 -12  -2   6    0.14    0.24
  12   2  -5    2.47    0.29
  12   2  -5    2.71    0.32
 -12  -2   5    2.90    0.30
 -12  -2   5    2.43    0.36
  12   2  -4    0.86    0.22
  12   2  -4    0.76    0.25
  12   2  -4    1.03    0.21
 -12  -2   4    0.90    0.25
 -12  -2   4    1.08    0.32
  12   2  -3    0.12    0.19
  12   2  -3    0.10    0.16
 -12  -2   3    0.33    0.23
 -12  -2   3   -0.15    0.28
  12   2  -2    8.03    0.58
  12   2  -2    7.23    0.56
  12   2  -2    7.59    0.54
 -12  -2   2    7.29    0.59
 -12  -2   2    8.25    0.66
  12   2  -1    5.79    0.48
  12   2  -1    6.20    0.44
 -12  -2   1    5.60    0.51
 -12  -2   1    6.98    0.58
  12   2   0   12.09    0.77
  12   2   0   11.61    0.72
 -12  -2   0   11.36    0.80
 -12  -2  -1    0.01    0.12
 -12  -2  -1    0.09    0.19
 -12  -2  -2    6.66    0.41
 -12  -2  -2    7.54    0.50
 -12  -2  -3    0.30    0.16
  12   3  -8    0.08    0.14
  12   3  -7    6.11    0.40
 -12  -3   7    5.35    0.46
  12   3  -6    4.27    0.39
  12   3  -6    4.00    0.32
 -12  -3   6    3.50    0.35
 -12  -3   6    3.66    0.40
  12   3  -5    5.76    0.46
  12   3  -5    7.28    0.52
 -12  -3   5    6.56    0.50
 -12  -3   5    5.57    0.53
  12   3  -4    2.11    0.28
  12   3  -4    2.50    0.31
  12   3  -4    2.75    0.27
 -12  -3   4    2.44    0.33
 -12  -3   4    2.93    0.38
  12   3  -3    1.73    0.27
  12   3  -3    1.99    0.28
  12   3  -3    2.20    0.25
 -12  -3   3    2.59    0.33
 -12  -3   3    2.82    0.38
  12   3  -2    8.78    0.66
  12   3  -2    9.73    0.66
  12   3  -2   10.23    0.64
 -12  -3   2   10.36    0.71
  12   3  -1    4.37    0.35
 -12  -3   1    5.08    0.44
 -12  -3   1    5.13    0.47
 -12  -3   0   10.49    0.70
 -12  -3   0    9.61    0.70
 -12  -3  -1    6.39    0.50
 -12  -3  -1    7.29    0.52
 -12  -3  -2    1.04    0.18
  12   4  -8    0.27    0.14
 -12  -4   8    0.26    0.16
  12   4  -7    0.22    0.18
  12   4  -7    0.35    0.12
 -12  -4   7    0.23    0.16
 -12  -4   7    0.16    0.21
  12   4  -6    3.49    0.34
  12   4  -6    3.70    0.28
 -12  -4   6    2.98    0.32
 -12  -4   6    3.01    0.36
  12   4  -5   16.48    1.03
 -12  -4   5   16.02    1.03
  12   4  -4    9.83    0.70
  12   4  -4   10.72    0.66
 -12  -4   4   10.35    0.72
  12   4  -3    0.13    0.16
  12   4  -3    0.24    0.14
 -12  -4   3   -0.02    0.22
 -12  -4   3    0.45    0.25
  12   4  -2    2.41    0.23
 -12  -4   2    2.06    0.30
 -12  -4   2    2.48    0.34
 -12  -4   1    0.23    0.20
 -12  -4   1    0.29    0.20
 -12  -4   0    1.01    0.21
 -12  -4   0    1.33    0.21
  12   5  -7    4.77    0.37
  12   5  -6    0.02    0.17
  12   5  -6    0.02    0.10
 -12  -5   6   -0.05    0.17
 -12  -5   6    0.25    0.20
  12   5  -5   15.11    0.85
 -12  -5   5   15.58    0.91
 -12  -5   5   14.08    0.91
 -12  -5   4   14.35    0.93
 -12  -5   4   14.90    0.94
 -12  -5   3    0.42    0.20
 -12  -5   3    0.29    0.19
 -12  -5   2    0.60    0.20
 -12  -5   2    0.42    0.18
 -12  -5   1    3.04    0.28
 -12  -5   1    2.62    0.25
 -12  -6   5    7.56    0.52
 -12  -6   5    7.66    0.52
 -12  -6   4    1.17    0.18
  13  -5  -1    0.10    0.11
 -13   5   1    0.36    0.12
  13  -5  -1    0.34    0.13
 -13   5   0   -0.02    0.12
  13  -5   0    0.04    0.12
  13  -5   1    1.91    0.21
  13  -5   1    1.90    0.20
  13  -5   2    0.16    0.11
  13  -4  -3    0.06    0.11
  13  -4  -3   -0.13    0.11
  13  -4  -2    0.16    0.11
 -13   4   2    0.10    0.12
  13  -4  -1    1.61    0.20
 -13   4   1    1.38    0.19
  13  -4  -1    1.74    0.21
  13  -4   0    0.37    0.15
 -13   4   0    0.13    0.13
  13  -4   0    0.23    0.14
  13  -4   1   -0.05    0.13
 -13   4  -1    0.05    0.12
  13  -4   1    0.12    0.12
  13  -4   2    0.02    0.11
  13  -3  -4    6.26    0.43
  13  -3  -3    3.14    0.25
  13  -3  -3    2.68    0.25
  13  -3  -2    4.51    0.36
 -13   3   2    4.77    0.35
  13  -3  -2    5.23    0.39
 -13   3   1    5.45    0.40
  13  -3  -1    5.73    0.38
  13  -3   0    1.01    0.19
 -13   3   0    0.80    0.14
  13  -3   0    1.08    0.18
  13  -3   1    4.11    0.33
  13  -3   1    4.06    0.31
  13  -3   2   -0.05    0.11
  13  -2  -4   -0.02    0.10
  13  -2  -3    2.70    0.24
  13  -2  -3    2.62    0.27
  13  -2  -3    1.94    0.21
  13  -2  -2    5.81    0.38
 -13   2   2    4.42    0.33
  13  -2  -2    5.90    0.40
  13  -2  -2    3.58    0.32
  13  -2  -1   10.85    0.69
  13  -2  -1   11.63    0.69
  13  -2  -1    9.79    0.63
  13  -2   0    1.85    0.23
  13  -2   0    1.47    0.20
  13  -2   1   10.21    0.65
  13  -2   2    0.57    0.12
  13  -1  -5    1.14    0.18
  13  -1  -4    0.98    0.16
  13  -1  -4    0.97    0.18
  13  -1  -3    0.82    0.17
  13  -1  -3    0.56    0.17
  13  -1  -2    0.48    0.17
  13  -1  -2    0.06    0.12
  13  -1  -1   12.99    0.77
  13  -1  -1   12.89    0.77
  13  -1  -1   11.44    0.72
 -13   1   1   11.27    0.76
  13  -1   0    4.75    0.35
  13  -1   0    3.71    0.32
 -13   1   0    4.19    0.35
  13  -1   1   14.02    0.84
 -13   1  -1   13.58    0.86
 -13   1  -2   -0.01    0.14
  13   0  -5    1.20    0.16
  13   0  -4    3.74    0.29
  13   0  -4    3.70    0.32
  13   0  -4    3.34    0.28
  13   0  -3    0.41    0.16
  13   0  -3    0.42    0.16
  13   0  -3    0.40    0.13
 -13   0   3    0.33    0.16
  13   0  -2    1.48    0.22
  13   0  -2    1.68    0.18
 -13   0   2    1.46    0.24
  13   0  -1    9.00    0.59
  13   0  -1    8.92    0.58
  13   0  -1    8.96    0.55
 -13   0   1    8.48    0.61
  13   0   0    1.54    0.20
 -13   0   0    1.42    0.23
  13   0   1    3.83    0.30
 -13   0  -1    4.77    0.36
 -13   0  -2    7.50    0.50
  13   1  -6    0.60    0.11
  13   1  -5    1.40    0.19
  13   1  -5    0.99    0.15
  13   1  -4    6.51    0.44
  13   1  -4    7.42    0.48
  13   1  -4    6.38    0.43
 -13  -1   4    5.64    0.45
  13   1  -3   -0.02    0.15
  13   1  -3    0.07    0.12
 -13  -1   3    0.29    0.20
  13   1  -2   -0.01    0.15
  13   1  -2    0.31    0.15
  13   1  -2    0.20    0.11
 -13  -1   2    0.14    0.19
  13   1  -1    0.88    0.17
  13   1  -1    0.73    0.12
 -13  -1   1    0.73    0.22
  13   1   0   -0.07    0.12
 -13  -1   0    0.21    0.18
 -13  -1  -1    0.64    0.17
  13   2  -6    3.86    0.31
  13   2  -5   -0.07    0.14
  13   2  -4   -0.07    0.13
  13   2  -4    0.05    0.11
 -13  -2   4    0.12    0.17
  13   2  -3    0.03    0.12
  13   2  -3   -0.06    0.11
 -13  -2   3    0.07    0.18
  13   2  -2    0.05    0.10
 -13  -2   2   -0.08    0.17
 -13  -2   1    6.62    0.49
 -13  -2   0    3.21    0.29
  13   3  -4    2.44    0.20
 -13  -3   4    2.23    0.25
  13   3  -3    1.26    0.14
 -13  -3   3    1.35    0.21
   0   0   0    0.00    0.00





TITL 210114_1 in P-1
REM P-1 (#2 in standard setting)
CELL 1.54184  10.975392  12.115016  12.334681 116.4313  95.0477  94.4703
ZERR    2.00   0.000223   0.000355   0.000289   0.0026   0.0018   0.0020
LATT  1
SFAC C H N
UNIT 112.00 68.00 4.00
TREF
HKLF 4
END
_computing_structure_solution     'SHELXT 2014/5 (Sheldrick, 2014)'
_computing_structure_solution     'SHELXT 2014/5 (Sheldrick, 2014)'
_computing_structure_solution     'SHELXT 2014/5 (Sheldrick, 2014)'
_computing_structure_solution     'SHELXT 2014/5 (Sheldrick, 2014)'
;
_shelx_hkl_checksum              58301
_olex2_submission_special_instructions 'No special instructions were received'
_oxdiff_exptl_absorpt_empirical_details
;
Empirical correction (ABSPACK) includes:
- Absorption correction using spherical harmonics
- Frame scaling
;
_oxdiff_exptl_absorpt_empirical_full_max 1.735
_oxdiff_exptl_absorpt_empirical_full_min 0.538
loop_
_space_group_symop_operation_xyz
'x, y, z'
'-x, -y, -z'
loop_
_atom_site_label
_atom_site_type_symbol
_atom_site_fract_x
_atom_site_fract_y
_atom_site_fract_z
_atom_site_U_iso_or_equiv
_atom_site_adp_type
_atom_site_occupancy
_atom_site_site_symmetry_order
_atom_site_calc_flag
_atom_site_refinement_flags_posn
_atom_site_refinement_flags_adp
_atom_site_refinement_flags_occupancy
_atom_site_disorder_assembly
_atom_site_disorder_group
N18 N 1.00008(15) 0.3709(2) 0.34635(16) 0.0660(6) Uani 1 1 d . . . . .
C13 C 1.08402(14) 0.47941(17) 0.12652(15) 0.0409(4) Uani 1 1 d . . . . .
C23 C 0.84054(14) 0.44911(19) 0.01942(16) 0.0446(4) Uani 1 1 d . . . . .
H23 H 0.759448 0.438979 -0.016013 0.054 Uiso 1 1 calc R . . . .
C2 C 1.30387(15) 0.41277(18) 0.12793(15) 0.0420(4) Uani 1 1 d . . . . .
C1 C 1.20882(14) 0.48933(18) 0.20105(15) 0.0423(4) Uani 1 1 d . . . . .
C22 C 1.06283(14) 0.50792(17) 0.02771(14) 0.0393(4) Uani 1 1 d . . . . .
C4 C 1.40188(15) 0.61640(19) 0.23385(16) 0.0455(4) Uani 1 1 d . . . . .
C9 C 1.28140(16) 0.61934(19) 0.26400(15) 0.0453(4) Uani 1 1 d . . . . .
C3 C 1.41604(15) 0.48826(19) 0.15159(16) 0.0440(4) Uani 1 1 d . . . . .
C12 C 0.98636(15) 0.43721(19) 0.16929(16) 0.0455(4) Uani 1 1 d . . . . .
C24 C 0.86333(15) 0.4224(2) 0.11469(16) 0.0481(5) Uani 1 1 d . . . . .
H24 H 0.798473 0.394657 0.143858 0.058 Uiso 1 1 calc R . . . .
C10 C 1.16510(16) 0.4437(2) 0.28904(16) 0.0500(5) Uani 1 1 d . . . . .
C11 C 1.04017(16) 0.4154(2) 0.26890(17) 0.0520(5) Uani 1 1 d . . . . .
C25 C 1.51782(17) 0.4370(2) 0.09915(19) 0.0556(5) Uani 1 1 d . . . . .
H25 H 1.592537 0.486859 0.115104 0.067 Uiso 1 1 calc R . . . .
C5 C 1.4841(2) 0.7261(2) 0.2807(2) 0.0611(6) Uani 1 1 d . . . . .
H5 H 1.563809 0.724932 0.260528 0.073 Uiso 1 1 calc R . . . .
C28 C 1.29270(19) 0.2874(2) 0.05284(19) 0.0566(5) Uani 1 1 d . . . . .
H28 H 1.218403 0.237094 0.037409 0.068 Uiso 1 1 calc R . . . .
C8 C 1.2437(2) 0.7301(2) 0.34145(19) 0.0649(6) Uani 1 1 d . . . . .
H8 H 1.164217 0.732257 0.362406 0.078 Uiso 1 1 calc R . . . .
C26 C 1.5064(2) 0.3117(3) 0.0235(2) 0.0661(6) Uani 1 1 d . . . . .
H26 H 1.573797 0.276444 -0.012422 0.079 Uiso 1 1 calc R . . . .
C14 C 1.21124(18) 0.4174(3) 0.38488(19) 0.0620(6) Uani 1 1 d . . . . .
C27 C 1.3954(2) 0.2369(2) 0.0000(2) 0.0692(6) Uani 1 1 d . . . . .
H27 H 1.389206 0.152120 -0.051625 0.083 Uiso 1 1 calc R . . . .
C7 C 1.3269(3) 0.8390(3) 0.3879(2) 0.0822(8) Uani 1 1 d . . . . .
H7 H 1.302427 0.914336 0.439962 0.099 Uiso 1 1 calc R . . . .
C6 C 1.4447(3) 0.8361(2) 0.3576(2) 0.0773(7) Uani 1 1 d . . . . .
H6 H 1.498607 0.909697 0.389459 0.093 Uiso 1 1 calc R . . . .
C19 C 1.10483(19) 0.3712(3) 0.4189(2) 0.0742(8) Uani 1 1 d . . . . .
C21 C 0.8750(6) 0.3127(6) 0.3434(6) 0.0481(14) Uani 0.5 1 d . . P A 1
H21A H 0.817442 0.369753 0.344082 0.058 Uiso 0.5 1 calc R . P A 1
H21B H 0.873886 0.306481 0.419052 0.058 Uiso 0.5 1 calc R . P A 1
C29 C 0.4056(9) 0.0665(10) 0.2053(8) 0.088(2) Uani 0.5 1 d . . P A 1
H29A H 0.447316 -0.006905 0.172629 0.105 Uiso 0.5 1 calc R . P A 1
H29B H 0.408053 0.101003 0.147960 0.105 Uiso 0.5 1 calc R . P A 1
C9AA C 0.2412(9) 0.0090(9) 0.1941(9) 0.091(2) Uani 0.5 1 d . . P A 1
H9AA H 0.229059 0.027767 0.277225 0.110 Uiso 0.5 1 calc R . P A 1
H9AB H 0.195473 0.064294 0.174120 0.110 Uiso 0.5 1 calc R . P A 1
C5AA C 0.8249(6) 0.1863(6) 0.2397(7) 0.0778(18) Uani 0.5 1 d . . P A 1
H5AA H 0.853530 0.121728 0.257763 0.093 Uiso 0.5 1 calc R . P A 1
H5AB H 0.854349 0.177923 0.164898 0.093 Uiso 0.5 1 calc R . P A 1
C2AA C 0.5884(5) 0.1274(6) 0.2326(5) 0.0803(15) Uani 0.5 1 d . . P A 2
H2AA H 0.619013 0.064034 0.251449 0.096 Uiso 0.5 1 calc R . P A 2
H2AB H 0.596199 0.104395 0.147747 0.096 Uiso 0.5 1 calc R . P A 2
C4AA C 0.6635(5) 0.2453(5) 0.3093(5) 0.0705(12) Uani 0.5 1 d . . P A 2
H4AA H 0.657002 0.267448 0.394282 0.085 Uiso 0.5 1 calc R . P A 2
H4AB H 0.631717 0.309003 0.291748 0.085 Uiso 0.5 1 calc R . P A 2
C1AA C 0.4534(7) 0.1307(11) 0.2493(7) 0.100(3) Uani 0.5 1 d . . P A 2
H1AA H 0.424037 0.196692 0.234163 0.120 Uiso 0.5 1 calc R . P A 2
H1AB H 0.445533 0.150358 0.333506 0.120 Uiso 0.5 1 calc R . P A 2
C7AA C 0.0132(7) -0.0820(8) 0.2653(7) 0.100(2) Uani 0.5 1 d . . P A 1
H7AA H 0.066475 -0.118755 0.303525 0.119 Uiso 0.5 1 calc R . P A 1
H7AB H 0.033074 0.007572 0.311251 0.119 Uiso 0.5 1 calc R . P A 1
C6AA C 0.0425(8) -0.1232(9) 0.1313(7) 0.106(2) Uani 0.5 1 d . . P A 1
H6AA H 0.006035 -0.208864 0.080916 0.127 Uiso 0.5 1 calc R . P A 1
H6AB H 0.003137 -0.072678 0.099459 0.127 Uiso 0.5 1 calc R . P A 1
C8AA C -0.1195(9) -0.1178(8) 0.2746(11) 0.125(4) Uani 0.5 1 d . . P A 1
H8AA H -0.173129 -0.085184 0.232214 0.151 Uiso 0.5 1 calc R . P A 1
H8AB H -0.137978 -0.207692 0.232809 0.151 Uiso 0.5 1 calc R . P A 1
C0BA C 0.1737(8) -0.1132(7) 0.1197(7) 0.106(2) Uani 0.5 1 d . . P A 1
H0BA H 0.210940 -0.171961 0.141338 0.127 Uiso 0.5 1 calc R . P A 1
H0BB H 0.182084 -0.137062 0.034762 0.127 Uiso 0.5 1 calc R . P A 1
C2BA C -0.1464(8) -0.0759(7) 0.3919(9) 0.122(3) Uani 0.5 1 d . . P A 1
H2BA H -0.087222 -0.098653 0.437911 0.183 Uiso 0.5 1 calc GR . P A 1
H2BB H -0.227602 -0.112648 0.390438 0.183 Uiso 0.5 1 calc GR . P A 1
H2BC H -0.143056 0.012975 0.429531 0.183 Uiso 0.5 1 calc GR . P A 1
C0AA C 1.3277(2) 0.4293(3) 0.4490(2) 0.0752(8) Uani 1 1 d . . . . .
H0AA H 1.398402 0.458776 0.428514 0.090 Uiso 1 1 calc R . . . .
C3AA C 1.3356(2) 0.3967(4) 0.5426(3) 0.1021(12) Uani 1 1 d . . . . .
H3AA H 1.412479 0.404701 0.585596 0.123 Uiso 1 1 calc R . . . .
C3BA C 1.1142(2) 0.3374(4) 0.5129(3) 0.1030(12) Uani 1 1 d . . . . .
H3BA H 1.044830 0.306161 0.533698 0.124 Uiso 1 1 calc R . . . .
C1BA C 1.2305(3) 0.3518(4) 0.5743(3) 0.1159(14) Uani 1 1 d . . . . .
H1BA H 1.238991 0.330995 0.638436 0.139 Uiso 1 1 calc R . . . .
C4BA C 0.1870(8) -0.0137(10) 0.1059(8) 0.120(3) Uani 0.5 1 d . . P A 2
H4BA H 0.203627 -0.097124 0.087944 0.144 Uiso 0.5 1 calc R . P A 2
H4BB H 0.211518 0.001926 0.039785 0.144 Uiso 0.5 1 calc R . P A 2
C7BA C -0.0017(8) -0.1547(9) 0.1864(10) 0.106(2) Uani 0.5 1 d . . P A 2
H7BA H 0.082510 -0.157385 0.215587 0.127 Uiso 0.5 1 calc R . P A 2
H7BB H -0.020195 -0.217565 0.101871 0.127 Uiso 0.5 1 calc R . P A 2
C6BA C -0.0100(8) -0.0357(8) 0.1916(9) 0.115(2) Uani 0.5 1 d . . P A 2
H6BA H 0.025281 0.027856 0.272580 0.138 Uiso 0.5 1 calc R . P A 2
H6BB H -0.096468 -0.026309 0.179827 0.138 Uiso 0.5 1 calc R . P A 2
C8BA C -0.0862(8) -0.1860(10) 0.2597(9) 0.116(3) Uani 0.5 1 d . . P A 2
H8BA H -0.074399 -0.266026 0.253845 0.173 Uiso 0.5 1 calc GR . P A 2
H8BB H -0.170152 -0.187710 0.228910 0.173 Uiso 0.5 1 calc GR . P A 2
H8BC H -0.068613 -0.124283 0.343707 0.173 Uiso 0.5 1 calc GR . P A 2
C5BA C 0.0526(9) -0.0142(12) 0.1005(10) 0.152(4) Uani 0.5 1 d . . P A 2
H5BA H 0.015283 -0.077530 0.020137 0.183 Uiso 0.5 1 calc R . P A 2
H5BB H 0.034473 0.065225 0.106387 0.183 Uiso 0.5 1 calc R . P A 2
C1CA C 0.6760(6) 0.1708(6) 0.2220(6) 0.0949(19) Uani 0.5 1 d . . P A 1
H1CA H 0.647283 0.244554 0.222161 0.114 Uiso 0.5 1 calc R . P A 1
H1CB H 0.643117 0.099914 0.144542 0.114 Uiso 0.5 1 calc R . P A 1
C0CA C 0.6358(9) 0.1531(8) 0.3186(7) 0.116(3) Uani 0.5 1 d . . P A 1
H0CA H 0.678793 0.217688 0.395669 0.139 Uiso 0.5 1 calc R . P A 1
H0CB H 0.655097 0.073482 0.311337 0.139 Uiso 0.5 1 calc R . P A 1
C9BA C 0.4855(7) 0.1568(9) 0.3172(9) 0.098(2) Uani 0.5 1 d . . P A 1
H9BA H 0.461491 0.143990 0.385040 0.117 Uiso 0.5 1 calc R . P A 1
H9BB H 0.469184 0.239576 0.332150 0.117 Uiso 0.5 1 calc R . P A 1
C2CA C 0.8020(5) 0.2432(7) 0.2905(6) 0.0659(12) Uani 0.5 1 d . . P A 2
H2CA H 0.835778 0.181497 0.309936 0.079 Uiso 0.5 1 calc R . P A 2
H2CB H 0.810071 0.221656 0.205927 0.079 Uiso 0.5 1 calc R . P A 2
C3CA C 0.8701(7) 0.3693(6) 0.3727(7) 0.0519(15) Uani 0.5 1 d . . P A 2
H3CA H 0.831481 0.431873 0.358329 0.062 Uiso 0.5 1 calc R . P A 2
H3CB H 0.868361 0.387665 0.457452 0.062 Uiso 0.5 1 calc R . P A 2
C4CA C 0.2674(9) 0.0708(9) 0.2152(10) 0.094(3) Uani 0.5 1 d . . P A 2
H4CA H 0.248259 0.064352 0.287648 0.113 Uiso 0.5 1 calc R . P A 2
H4CB H 0.273923 0.156524 0.229152 0.113 Uiso 0.5 1 calc R . P A 2
C5CA C 0.3720(11) 0.0090(10) 0.1654(10) 0.101(3) Uani 0.5 1 d . . P A 2
H5CA H 0.371902 -0.015682 0.079035 0.122 Uiso 0.5 1 calc R . P A 2
H5CB H 0.386202 -0.059117 0.184083 0.122 Uiso 0.5 1 calc R . P A 2
loop_
_atom_site_aniso_label
_atom_site_aniso_U_11
_atom_site_aniso_U_22
_atom_site_aniso_U_33
_atom_site_aniso_U_23
_atom_site_aniso_U_13
_atom_site_aniso_U_12
N18 0.0356(8) 0.1278(17) 0.0566(10) 0.0641(11) 0.0030(7) -0.0019(9)
C13 0.0258(7) 0.0638(11) 0.0352(8) 0.0248(8) 0.0035(6) 0.0045(7)
C23 0.0237(7) 0.0734(12) 0.0410(9) 0.0301(8) 0.0039(6) 0.0045(7)
C2 0.0310(8) 0.0625(11) 0.0386(8) 0.0284(8) 0.0050(6) 0.0064(7)
C1 0.0275(8) 0.0686(11) 0.0366(8) 0.0293(8) 0.0034(6) 0.0057(7)
C22 0.0261(8) 0.0599(10) 0.0341(8) 0.0234(7) 0.0046(6) 0.0050(7)
C4 0.0315(8) 0.0666(11) 0.0427(9) 0.0306(8) -0.0020(7) 0.0017(7)
C9 0.0353(8) 0.0660(11) 0.0348(8) 0.0239(8) -0.0008(6) 0.0076(8)
C3 0.0283(8) 0.0680(11) 0.0437(9) 0.0327(8) 0.0038(6) 0.0063(7)
C12 0.0290(8) 0.0760(12) 0.0377(8) 0.0314(9) 0.0057(6) 0.0054(7)
C24 0.0259(8) 0.0824(13) 0.0443(9) 0.0367(9) 0.0064(7) 0.0025(8)
C10 0.0326(8) 0.0867(14) 0.0415(9) 0.0391(10) 0.0052(7) 0.0058(8)
C11 0.0323(9) 0.0916(15) 0.0428(9) 0.0410(10) 0.0054(7) 0.0033(8)
C25 0.0325(9) 0.0862(15) 0.0593(11) 0.0407(11) 0.0131(8) 0.0139(9)
C5 0.0433(10) 0.0784(15) 0.0630(12) 0.0385(12) -0.0086(9) -0.0062(10)
C28 0.0475(10) 0.0649(13) 0.0563(11) 0.0275(10) 0.0053(8) 0.0035(9)
C8 0.0532(12) 0.0824(15) 0.0464(11) 0.0179(10) 0.0009(9) 0.0175(11)
C26 0.0499(12) 0.0924(17) 0.0651(13) 0.0389(13) 0.0205(10) 0.0279(11)
C14 0.0369(10) 0.1128(18) 0.0540(11) 0.0552(12) 0.0020(8) 0.0042(10)
C27 0.0722(15) 0.0689(14) 0.0632(13) 0.0243(11) 0.0144(11) 0.0228(12)
C7 0.0824(18) 0.0680(15) 0.0657(15) 0.0070(12) -0.0128(13) 0.0124(13)
C6 0.0770(17) 0.0652(15) 0.0707(15) 0.0224(12) -0.0222(13) -0.0076(12)
C19 0.0394(10) 0.145(2) 0.0650(13) 0.0745(16) 0.0006(9) -0.0005(12)
C21 0.039(2) 0.069(4) 0.044(3) 0.033(3) 0.010(2) 0.004(3)
C29 0.077(6) 0.109(8) 0.057(6) 0.021(5) 0.008(4) 0.005(5)
C9AA 0.082(6) 0.111(7) 0.084(5) 0.047(6) 0.015(4) 0.008(5)
C5AA 0.062(3) 0.060(3) 0.096(4) 0.020(3) 0.034(3) 0.001(3)
C2AA 0.053(3) 0.107(4) 0.068(3) 0.031(3) 0.010(2) -0.002(3)
C4AA 0.070(3) 0.074(3) 0.068(3) 0.031(3) 0.023(2) 0.007(2)
C1AA 0.067(5) 0.163(9) 0.045(4) 0.028(5) -0.003(3) 0.005(5)
C7AA 0.109(5) 0.102(5) 0.068(4) 0.020(4) -0.007(3) 0.042(4)
C6AA 0.117(6) 0.104(5) 0.079(4) 0.024(4) 0.009(4) 0.036(5)
C8AA 0.098(6) 0.076(5) 0.158(9) 0.018(5) -0.006(5) 0.019(4)
C0BA 0.129(6) 0.098(5) 0.082(4) 0.031(4) 0.019(4) 0.029(4)
C2BA 0.104(5) 0.088(5) 0.140(7) 0.019(5) 0.037(5) 0.011(4)
C0AA 0.0390(10) 0.141(2) 0.0725(15) 0.0752(17) -0.0012(10) 0.0030(12)
C3AA 0.0487(13) 0.204(4) 0.100(2) 0.116(2) -0.0111(13) -0.0016(17)
C3BA 0.0531(14) 0.209(4) 0.096(2) 0.120(2) -0.0023(13) -0.0102(18)
C1BA 0.0609(15) 0.237(4) 0.111(2) 0.141(3) -0.0121(15) -0.010(2)
C4BA 0.105(6) 0.157(8) 0.101(6) 0.068(6) 0.005(5) -0.014(5)
C7BA 0.101(6) 0.121(7) 0.101(6) 0.056(6) 0.006(5) 0.023(5)
C6BA 0.099(5) 0.111(6) 0.134(7) 0.055(5) 0.018(5) 0.010(4)
C8BA 0.097(6) 0.152(8) 0.111(6) 0.077(7) 0.009(4) -0.018(6)
C5BA 0.113(7) 0.214(12) 0.141(8) 0.102(8) 0.000(6) -0.033(7)
C1CA 0.098(5) 0.086(4) 0.074(4) 0.022(3) 0.004(3) -0.034(3)
C0CA 0.162(8) 0.099(5) 0.079(4) 0.047(4) -0.028(5) -0.012(5)
C9BA 0.067(4) 0.138(6) 0.095(5) 0.060(5) 0.018(4) -0.003(4)
C2CA 0.055(3) 0.078(4) 0.068(3) 0.036(3) 0.012(3) 0.001(3)
C3CA 0.038(2) 0.078(4) 0.051(3) 0.039(4) 0.014(2) 0.007(3)
C4CA 0.076(5) 0.105(7) 0.112(6) 0.060(6) 0.021(4) -0.007(5)
C5CA 0.097(7) 0.105(7) 0.088(7) 0.029(5) 0.021(5) 0.014(5)
loop_
_atom_type_symbol
_atom_type_description
_atom_type_scat_dispersion_real
_atom_type_scat_dispersion_imag
_atom_type_scat_source
C C 0.0181 0.0091 'International Tables Vol C Tables 4.2.6.8 and 6.1.1.4'
H H 0.0000 0.0000 'International Tables Vol C Tables 4.2.6.8 and 6.1.1.4'
N N 0.0311 0.0180 'International Tables Vol C Tables 4.2.6.8 and 6.1.1.4'
loop_
_exptl_crystal_face_index_h
_exptl_crystal_face_index_k
_exptl_crystal_face_index_l
_exptl_crystal_face_perp_dist
-1 -3 8 0.0469
2 3 -8 0.0369
0 6 2 0.0283
0 -7 0 0.0019
0 4 -8 0.0148
0 -4 8 0.0371
5 -1 4 0.1233
-3 3 -7 0.0516
loop_
_geom_angle_atom_site_label_1
_geom_angle_atom_site_label_2
_geom_angle_atom_site_label_3
_geom_angle
_geom_angle_site_symmetry_1
_geom_angle_site_symmetry_3
_geom_angle_publ_flag
C11 N18 C19 106.57(16) . . ?
C11 N18 C21 128.6(3) . . ?
C11 N18 C3CA 122.6(3) . . ?
C19 N18 C21 124.1(3) . . ?
C19 N18 C3CA 127.4(3) . . ?
C22 C13 C1 127.93(14) . . ?
C12 C13 C1 111.11(14) . . ?
C12 C13 C22 120.96(15) . . ?
C22 C23 H23 119.0 2_765 . ?
C24 C23 H23 119.0 . . ?
C24 C23 C22 121.91(15) . 2_765 ?
C3 C2 C1 110.41(16) . . ?
C28 C2 C1 128.88(17) . . ?
C28 C2 C3 120.64(17) . . ?
C2 C1 C13 115.85(14) . . ?
C9 C1 C13 114.42(15) . . ?
C9 C1 C2 101.29(13) . . ?
C10 C1 C13 100.17(13) . . ?
C10 C1 C2 112.00(15) . . ?
C10 C1 C9 113.73(15) . . ?
C13 C22 C23 123.03(14) . 2_765 ?
C13 C22 C22 118.11(18) . 2_765 ?
C23 C22 C22 118.86(18) 2_765 2_765 ?
C9 C4 C3 108.48(16) . . ?
C5 C4 C9 120.2(2) . . ?
C5 C4 C3 131.28(18) . . ?
C4 C9 C1 110.71(16) . . ?
C8 C9 C1 128.92(18) . . ?
C8 C9 C4 120.4(2) . . ?
C2 C3 C4 109.04(15) . . ?
C25 C3 C2 120.38(19) . . ?
C25 C3 C4 130.59(18) . . ?
C13 C12 C24 120.54(16) . . ?
C13 C12 C11 106.68(14) . . ?
C24 C12 C11 132.77(16) . . ?
C23 C24 C12 119.62(15) . . ?
C23 C24 H24 120.2 . . ?
C12 C24 H24 120.2 . . ?
C11 C10 C1 110.75(15) . . ?
C11 C10 C14 108.15(16) . . ?
C14 C10 C1 141.08(16) . . ?
N18 C11 C12 137.61(16) . . ?
C10 C11 N18 111.08(16) . . ?
C10 C11 C12 111.28(16) . . ?
C3 C25 H25 120.5 . . ?
C26 C25 C3 118.9(2) . . ?
C26 C25 H25 120.5 . . ?
C4 C5 H5 120.7 . . ?
C6 C5 C4 118.6(2) . . ?
C6 C5 H5 120.7 . . ?
C2 C28 H28 120.7 . . ?
C2 C28 C27 118.5(2) . . ?
C27 C28 H28 120.7 . . ?
C9 C8 H8 120.6 . . ?
C9 C8 C7 118.8(2) . . ?
C7 C8 H8 120.6 . . ?
C25 C26 H26 119.6 . . ?
C25 C26 C27 120.7(2) . . ?
C27 C26 H26 119.6 . . ?
C10 C14 C19 105.21(16) . . ?
C0AA C14 C10 135.93(19) . . ?
C0AA C14 C19 118.83(18) . . ?
C28 C27 H27 119.6 . . ?
C26 C27 C28 120.8(2) . . ?
C26 C27 H27 119.6 . . ?
C8 C7 H7 119.6 . . ?
C6 C7 C8 120.8(2) . . ?
C6 C7 H7 119.6 . . ?
C5 C6 H6 119.4 . . ?
C7 C6 C5 121.2(2) . . ?
C7 C6 H6 119.4 . . ?
N18 C19 C14 108.98(17) . . ?
C3BA C19 N18 129.4(2) . . ?
C3BA C19 C14 121.6(2) . . ?
N18 C21 H21A 107.4 . . ?
N18 C21 H21B 107.4 . . ?
N18 C21 C5AA 119.5(5) . . ?
H21A C21 H21B 107.0 . . ?
C5AA C21 H21A 107.4 . . ?
C5AA C21 H21B 107.4 . . ?
H29A C29 H29B 106.2 . . ?
C9AA C29 H29A 105.8 . . ?
C9AA C29 H29B 105.8 . . ?
C9BA C29 H29A 105.8 . . ?
C9BA C29 H29B 105.8 . . ?
C9BA C29 C9AA 126.2(7) . . ?
C29 C9AA H9AA 104.8 . . ?
C29 C9AA H9AB 104.8 . . ?
H9AA C9AA H9AB 105.8 . . ?
C0BA C9AA C29 130.0(8) . . ?
C0BA C9AA H9AA 104.8 . . ?
C0BA C9AA H9AB 104.8 . . ?
C21 C5AA H5AA 109.8 . . ?
C21 C5AA H5AB 109.8 . . ?
C21 C5AA C1CA 109.4(5) . . ?
H5AA C5AA H5AB 108.2 . . ?
C1CA C5AA H5AA 109.8 . . ?
C1CA C5AA H5AB 109.8 . . ?
H2AA C2AA H2AB 107.8 . . ?
C4AA C2AA H2AA 109.1 . . ?
C4AA C2AA H2AB 109.1 . . ?
C4AA C2AA C1AA 112.7(6) . . ?
C1AA C2AA H2AA 109.1 . . ?
C1AA C2AA H2AB 109.1 . . ?
C2AA C4AA H4AA 109.0 . . ?
C2AA C4AA H4AB 109.0 . . ?
C2AA C4AA C2CA 112.9(5) . . ?
H4AA C4AA H4AB 107.8 . . ?
C2CA C4AA H4AA 109.0 . . ?
C2CA C4AA H4AB 109.0 . . ?
C2AA C1AA H1AA 108.9 . . ?
C2AA C1AA H1AB 108.9 . . ?
C2AA C1AA C5CA 113.5(9) . . ?
H1AA C1AA H1AB 107.7 . . ?
C5CA C1AA H1AA 108.9 . . ?
C5CA C1AA H1AB 108.9 . . ?
H7AA C7AA H7AB 107.6 . . ?
C6AA C7AA H7AA 108.6 . . ?
C6AA C7AA H7AB 108.6 . . ?
C8AA C7AA H7AA 108.6 . . ?
C8AA C7AA H7AB 108.6 . . ?
C8AA C7AA C6AA 114.7(8) . . ?
C7AA C6AA H6AA 108.6 . . ?
C7AA C6AA H6AB 108.6 . . ?
H6AA C6AA H6AB 107.5 . . ?
C0BA C6AA C7AA 114.8(6) . . ?
C0BA C6AA H6AA 108.6 . . ?
C0BA C6AA H6AB 108.6 . . ?
C7AA C8AA H8AA 108.6 . . ?
C7AA C8AA H8AB 108.6 . . ?
H8AA C8AA H8AB 107.6 . . ?
C2BA C8AA C7AA 114.5(9) . . ?
C2BA C8AA H8AA 108.6 . . ?
C2BA C8AA H8AB 108.6 . . ?
C9AA C0BA C6AA 114.7(7) . . ?
C9AA C0BA H0BA 108.6 . . ?
C9AA C0BA H0BB 108.6 . . ?
C6AA C0BA H0BA 108.6 . . ?
C6AA C0BA H0BB 108.6 . . ?
H0BA C0BA H0BB 107.6 . . ?
C8AA C2BA H2BA 109.5 . . ?
C8AA C2BA H2BB 109.5 . . ?
C8AA C2BA H2BC 109.5 . . ?
H2BA C2BA H2BB 109.5 . . ?
H2BA C2BA H2BC 109.5 . . ?
H2BB C2BA H2BC 109.5 . . ?
C14 C0AA H0AA 120.5 . . ?
C3AA C0AA C14 119.0(2) . . ?
C3AA C0AA H0AA 120.5 . . ?
C0AA C3AA H3AA 119.3 . . ?
C0AA C3AA C1BA 121.3(2) . . ?
C1BA C3AA H3AA 119.3 . . ?
C19 C3BA H3BA 121.2 . . ?
C1BA C3BA C19 117.6(2) . . ?
C1BA C3BA H3BA 121.2 . . ?
C3AA C1BA H1BA 119.2 . . ?
C3BA C1BA C3AA 121.7(2) . . ?
C3BA C1BA H1BA 119.2 . . ?
H4BA C4BA H4BB 106.9 . . ?
C5BA C4BA H4BA 107.2 . . ?
C5BA C4BA H4BB 107.2 . . ?
C4CA C4BA H4BA 107.2 . . ?
C4CA C4BA H4BB 107.2 . . ?
C4CA C4BA C5BA 120.3(9) . . ?
H7BA C7BA H7BB 107.7 . . ?
C6BA C7BA H7BA 108.8 . . ?
C6BA C7BA H7BB 108.8 . . ?
C6BA C7BA C8BA 113.9(9) . . ?
C8BA C7BA H7BA 108.8 . . ?
C8BA C7BA H7BB 108.8 . . ?
C7BA C6BA H6BA 108.7 . . ?
C7BA C6BA H6BB 108.7 . . ?
C7BA C6BA C5BA 114.3(10) . . ?
H6BA C6BA H6BB 107.6 . . ?
C5BA C6BA H6BA 108.7 . . ?
C5BA C6BA H6BB 108.7 . . ?
C7BA C8BA H8BA 109.5 . . ?
C7BA C8BA H8BB 109.5 . . ?
C7BA C8BA H8BC 109.5 . . ?
H8BA C8BA H8BB 109.5 . . ?
H8BA C8BA H8BC 109.5 . . ?
H8BB C8BA H8BC 109.5 . . ?
C4BA C5BA C6BA 118.9(9) . . ?
C4BA C5BA H5BA 107.6 . . ?
C4BA C5BA H5BB 107.6 . . ?
C6BA C5BA H5BA 107.6 . . ?
C6BA C5BA H5BB 107.6 . . ?
H5BA C5BA H5BB 107.0 . . ?
C5AA C1CA H1CA 110.0 . . ?
C5AA C1CA H1CB 110.0 . . ?
H1CA C1CA H1CB 108.4 . . ?
C0CA C1CA C5AA 108.3(7) . . ?
C0CA C1CA H1CA 110.0 . . ?
C0CA C1CA H1CB 110.0 . . ?
C1CA C0CA H0CA 109.5 . . ?
C1CA C0CA H0CB 109.5 . . ?
C1CA C0CA C9BA 110.7(7) . . ?
H0CA C0CA H0CB 108.1 . . ?
C9BA C0CA H0CA 109.5 . . ?
C9BA C0CA H0CB 109.5 . . ?
C29 C9BA C0CA 116.9(7) . . ?
C29 C9BA H9BA 108.1 . . ?
C29 C9BA H9BB 108.1 . . ?
C0CA C9BA H9BA 108.1 . . ?
C0CA C9BA H9BB 108.1 . . ?
H9BA C9BA H9BB 107.3 . . ?
C4AA C2CA H2CA 110.0 . . ?
C4AA C2CA H2CB 110.0 . . ?
H2CA C2CA H2CB 108.4 . . ?
C3CA C2CA C4AA 108.3(5) . . ?
C3CA C2CA H2CA 110.0 . . ?
C3CA C2CA H2CB 110.0 . . ?
N18 C3CA C2CA 108.4(5) . . ?
N18 C3CA H3CA 110.0 . . ?
N18 C3CA H3CB 110.0 . . ?
C2CA C3CA H3CA 110.0 . . ?
C2CA C3CA H3CB 110.0 . . ?
H3CA C3CA H3CB 108.4 . . ?
C4BA C4CA H4CA 113.5 . . ?
C4BA C4CA H4CB 113.5 . . ?
C4BA C4CA C5CA 90.5(9) . . ?
H4CA C4CA H4CB 110.8 . . ?
C5CA C4CA H4CA 113.5 . . ?
C5CA C4CA H4CB 113.5 . . ?
C1AA C5CA H5CA 114.1 . . ?
C1AA C5CA H5CB 114.1 . . ?
C4CA C5CA C1AA 87.3(8) . . ?
C4CA C5CA H5CA 114.1 . . ?
C4CA C5CA H5CB 114.1 . . ?
H5CA C5CA H5CB 111.3 . . ?
loop_
_geom_bond_atom_site_label_1
_geom_bond_atom_site_label_2
_geom_bond_distance
_geom_bond_site_symmetry_2
_geom_bond_publ_flag
N18 C11 1.376(2) . ?
N18 C19 1.392(3) . ?
N18 C21 1.484(7) . ?
N18 C3CA 1.491(7) . ?
C13 C1 1.546(2) . ?
C13 C22 1.413(2) . ?
C13 C12 1.394(2) . ?
C23 H23 0.9300 . ?
C23 C22 1.423(2) 2_765 ?
C23 C24 1.359(2) . ?
C2 C1 1.528(2) . ?
C2 C3 1.400(2) . ?
C2 C28 1.370(3) . ?
C1 C9 1.525(3) . ?
C1 C10 1.516(2) . ?
C22 C22 1.443(3) 2_765 ?
C4 C9 1.404(2) . ?
C4 C3 1.458(3) . ?
C4 C5 1.397(3) . ?
C9 C8 1.378(3) . ?
C3 C25 1.389(3) . ?
C12 C24 1.416(2) . ?
C12 C11 1.454(2) . ?
C24 H24 0.9300 . ?
C10 C11 1.360(2) . ?
C10 C14 1.418(3) . ?
C25 H25 0.9300 . ?
C25 C26 1.371(3) . ?
C5 H5 0.9300 . ?
C5 C6 1.378(4) . ?
C28 H28 0.9300 . ?
C28 C27 1.397(3) . ?
C8 H8 0.9300 . ?
C8 C7 1.397(4) . ?
C26 H26 0.9300 . ?
C26 C27 1.385(4) . ?
C14 C19 1.430(3) . ?
C14 C0AA 1.405(3) . ?
C27 H27 0.9300 . ?
C7 H7 0.9300 . ?
C7 C6 1.375(4) . ?
C6 H6 0.9300 . ?
C19 C3BA 1.390(3) . ?
C21 H21A 0.9700 . ?
C21 H21B 0.9700 . ?
C21 C5AA 1.512(8) . ?
C29 H29A 0.9700 . ?
C29 H29B 0.9700 . ?
C29 C9AA 1.853(13) . ?
C29 C9BA 1.471(10) . ?
C9AA H9AA 0.9700 . ?
C9AA H9AB 0.9700 . ?
C9AA C0BA 1.443(12) . ?
C5AA H5AA 0.9700 . ?
C5AA H5AB 0.9700 . ?
C5AA C1CA 1.614(9) . ?
C2AA H2AA 0.9700 . ?
C2AA H2AB 0.9700 . ?
C2AA C4AA 1.446(8) . ?
C2AA C1AA 1.515(9) . ?
C4AA H4AA 0.9700 . ?
C4AA H4AB 0.9700 . ?
C4AA C2CA 1.558(7) . ?
C1AA H1AA 0.9700 . ?
C1AA H1AB 0.9700 . ?
C1AA C5CA 1.522(12) . ?
C7AA H7AA 0.9700 . ?
C7AA H7AB 0.9700 . ?
C7AA C6AA 1.571(11) . ?
C7AA C8AA 1.515(13) . ?
C6AA H6AA 0.9700 . ?
C6AA H6AB 0.9700 . ?
C6AA C0BA 1.461(11) . ?
C8AA H8AA 0.9700 . ?
C8AA H8AB 0.9700 . ?
C8AA C2BA 1.373(14) . ?
C0BA H0BA 0.9700 . ?
C0BA H0BB 0.9700 . ?
C2BA H2BA 0.9600 . ?
C2BA H2BB 0.9600 . ?
C2BA H2BC 0.9600 . ?
C0AA H0AA 0.9300 . ?
C0AA C3AA 1.374(3) . ?
C3AA H3AA 0.9300 . ?
C3AA C1BA 1.397(4) . ?
C3BA H3BA 0.9300 . ?
C3BA C1BA 1.382(4) . ?
C1BA H1BA 0.9300 . ?
C4BA H4BA 0.9700 . ?
C4BA H4BB 0.9700 . ?
C4BA C5BA 1.470(12) . ?
C4BA C4CA 1.438(13) . ?
C7BA H7BA 0.9700 . ?
C7BA H7BB 0.9700 . ?
C7BA C6BA 1.425(12) . ?
C7BA C8BA 1.490(12) . ?
C6BA H6BA 0.9700 . ?
C6BA H6BB 0.9700 . ?
C6BA C5BA 1.474(12) . ?
C8BA H8BA 0.9600 . ?
C8BA H8BB 0.9600 . ?
C8BA H8BC 0.9600 . ?
C5BA H5BA 0.9700 . ?
C5BA H5BB 0.9700 . ?
C1CA H1CA 0.9700 . ?
C1CA H1CB 0.9700 . ?
C1CA C0CA 1.402(10) . ?
C0CA H0CA 0.9700 . ?
C0CA H0CB 0.9700 . ?
C0CA C9BA 1.652(11) . ?
C9BA H9BA 0.9700 . ?
C9BA H9BB 0.9700 . ?
C2CA H2CA 0.9700 . ?
C2CA H2CB 0.9700 . ?
C2CA C3CA 1.494(8) . ?
C3CA H3CA 0.9700 . ?
C3CA H3CB 0.9700 . ?
C4CA H4CA 0.9700 . ?
C4CA H4CB 0.9700 . ?
C4CA C5CA 1.451(15) . ?
C5CA H5CA 0.9700 . ?
C5CA H5CB 0.9700 . ?
loop_
_exptl_oxdiff_crystal_face_indexfrac_h
_exptl_oxdiff_crystal_face_indexfrac_k
_exptl_oxdiff_crystal_face_indexfrac_l
_exptl_oxdiff_crystal_face_x
_exptl_oxdiff_crystal_face_y
_exptl_oxdiff_crystal_face_z
-0.5980 -3.3338 8.0042 -0.1482 -0.0114 -0.9889
1.6257 3.0457 -7.9190 0.2912 0.0227 0.9564
0.1819 6.1254 1.5499 -0.0254 -0.9785 -0.2048
-0.0940 -6.9692 0.0022 0.0260 0.9996 0.0089
-0.3998 3.5631 -7.9234 0.0080 -0.0026 1.0000
0.0601 -3.6427 7.9689 -0.0550 0.0193 -0.9983
5.3633 -1.0909 4.4007 0.7024 -0.2487 -0.6669
-2.8115 2.7217 -6.9966 -0.3310 0.1173 0.9363
