#------------------------------------------------------------------------------
#$Date: 2024-02-04 13:31:42 +0200 (Sun, 04 Feb 2024) $
#$Revision: 289418 $
#$URL: file:///home/coder/svn-repositories/cod/cif/1/57/05/1570512.cif $
#------------------------------------------------------------------------------
#
# This file is available in the Crystallography Open Database (COD),
# http://www.crystallography.net/
#
# All data on this site have been placed in the public domain by the
# contributors.
#
data_1570512
loop_
_publ_author_name
'Wang, Hui'
'Liu, Hui'
'Wang, Mingsen'
'Hou, Jiaheng'
'Li, Yongjun'
'Wang, Yuancheng'
'Zhao, Yingjie'
_publ_section_title
;
 Cucurbituril-based supramolecular host-guest complexes: single-crystal
 structures and dual-state fluorescence enhancement.
;
_journal_issue                   2
_journal_name_full               'Chemical science'
_journal_page_first              458
_journal_page_last               465
_journal_paper_doi               10.1039/d3sc04813f
_journal_volume                  15
_journal_year                    2024
_chemical_absolute_configuration unk
_chemical_formula_sum            'C160 H150 I4 N68 O32'
_chemical_formula_weight         4045.07
_chemical_name_common            M1_CB[8]
_chemical_name_systematic        M1_CB[8]
_space_group_crystal_system      tetragonal
_space_group_IT_number           112
_space_group_name_Hall           'P -4 2c'
_space_group_name_H-M_alt        'P -4 2 c'
_atom_sites_solution_hydrogens   geom
_atom_sites_solution_primary     direct
_audit_creation_method
;FinalCif V118 by Daniel Kratzert, Freiburg 2023,
https://dkratzert.de/finalcif.html
;
_audit_update_record
;
2023-07-31 deposited with the CCDC.	2023-11-29 downloaded from the CCDC.
;
_cell_angle_alpha                90
_cell_angle_beta                 90
_cell_angle_gamma                90
_cell_formula_units_Z            4
_cell_length_a                   18.6227(4)
_cell_length_b                   18.6227(4)
_cell_length_c                   90.614(3)
_cell_measurement_reflns_used    9837
_cell_measurement_temperature    220(2)
_cell_measurement_theta_max      20.1885
_cell_measurement_theta_min      1.916
_cell_volume                     31425.4(14)
_computing_cell_refinement       'SAINT V8.40B'
_computing_data_collection
'Bruker BIS V6.2.16/2021-10-23 && APEX4 2022.10-0'
_computing_data_reduction        'SAINT V8.40B'
_computing_structure_refinement  'SHELXL-2019/2 (Sheldrick, 2019)'
_computing_structure_solution    'SHELXT (G. Sheldrick)'
_diffrn_ambient_environment      N~2~
_diffrn_ambient_temperature      220(2)
_diffrn_detector                 CPAD
_diffrn_detector_area_resol_mean 7.41
_diffrn_detector_type            'Bruker PHOTON III'
_diffrn_measured_fraction_theta_full 0.994
_diffrn_measured_fraction_theta_max 0.994
_diffrn_measurement_device       'three-circle diffractometer'
_diffrn_measurement_device_type  'Bruker D8 VENTURE dual wavelength Mo/Cu'
_diffrn_measurement_method       '\w and \f scans'
_diffrn_measurement_specimen_support 'MiTeGen micromount'
_diffrn_radiation_monochromator  'mirror optics'
_diffrn_radiation_probe          x-ray
_diffrn_radiation_type           MoK\a
_diffrn_radiation_wavelength     0.71073
_diffrn_reflns_av_R_equivalents  0.0752
_diffrn_reflns_av_unetI/netI     0.0715
_diffrn_reflns_Laue_measured_fraction_full 0.994
_diffrn_reflns_Laue_measured_fraction_max 0.994
_diffrn_reflns_limit_h_max       22
_diffrn_reflns_limit_h_min       -22
_diffrn_reflns_limit_k_max       22
_diffrn_reflns_limit_k_min       -18
_diffrn_reflns_limit_l_max       101
_diffrn_reflns_limit_l_min       -107
_diffrn_reflns_number            155754
_diffrn_reflns_point_group_measured_fraction_full 0.985
_diffrn_reflns_point_group_measured_fraction_max 0.985
_diffrn_reflns_theta_full        24.974
_diffrn_reflns_theta_max         24.974
_diffrn_reflns_theta_min         2.052
_diffrn_source                   'microfocus sealed X-ray tube'
_diffrn_source_type              'Incoatec I\ms'
_exptl_absorpt_coefficient_mu    0.448
_exptl_absorpt_correction_T_max  0.7452
_exptl_absorpt_correction_T_min  0.6234
_exptl_absorpt_correction_type   multi-scan
_exptl_absorpt_process_details
;SADABS 2016/2: Krause, L., Herbst-Irmer, R., Sheldrick G.M. & Stalke D.,
 J. Appl. Cryst. 48 (2015) 3-10
;
_exptl_crystal_colour            orange
_exptl_crystal_density_diffrn    0.855
_exptl_crystal_description       block
_exptl_crystal_F_000             8216
_exptl_crystal_size_max          0.2
_exptl_crystal_size_mid          0.1
_exptl_crystal_size_min          0.1
_refine_diff_density_max         1.523
_refine_diff_density_min         -0.472
_refine_diff_density_rms         0.085
_refine_ls_abs_structure_details
;
 Refined as an inversion twin.
;
_refine_ls_abs_structure_Flack   0.15(3)
_refine_ls_extinction_method     none
_refine_ls_goodness_of_fit_ref   1.049
_refine_ls_hydrogen_treatment    constr
_refine_ls_matrix_type           full
_refine_ls_number_parameters     1185
_refine_ls_number_reflns         27225
_refine_ls_number_restraints     948
_refine_ls_restrained_S_all      1.080
_refine_ls_R_factor_all          0.1406
_refine_ls_R_factor_gt           0.0880
_refine_ls_shift/su_max          0.002
_refine_ls_shift/su_mean         0.000
_refine_ls_structure_factor_coef Fsqd
_refine_ls_weighting_details
'w=1/[\s^2^(Fo^2^)+(0.1717P)^2^] where P=(Fo^2^+2Fc^2^)/3'
_refine_ls_weighting_scheme      calc
_refine_ls_wR_factor_gt          0.2464
_refine_ls_wR_factor_ref         0.2812
_reflns_Friedel_coverage         0.845
_reflns_Friedel_fraction_full    0.976
_reflns_Friedel_fraction_max     0.976
_reflns_number_gt                15284
_reflns_number_total             27225
_reflns_threshold_expression     'I > 2\s(I)'
_cod_data_source_file            d3sc04813f2.cif
_cod_data_source_block           S6_CCF_SA_0m_sq_sq
_cod_depositor_comments
'Adding full bibliography for 1570510--1570512.cif.'
_cod_original_cell_volume        31425.4(17)
_cod_database_code               1570512
_shelx_shelxl_version_number     2019/2
_shelx_space_group_comment
;
The symmetry employed for this shelxl refinement is uniquely defined
by the following loop, which should always be used as a source of
symmetry information in preference to the above space-group names.
They are only intended as comments.
;
_diffrn_measurement_ambient_temperature_device_make 'Oxford Cryostream 800'
_shelx_res_file
;
TITL S6_CCF_S_0m_a_a.res in P-42c
    S6_CCF_SA_0m_sq_sq.res
    created by SHELXL-2019/2 at 11:57:22 on 06-Jul-2023
REM Old TITL S6_CCF_S_0m_a.res in P-42c
REM SHELXT solution in P-42c: R1 0.418, Rweak 0.053, Alpha 0.073
REM <I/s>   1.924 for  420 systematic absences,  Orientation as input
REM Flack x =  0.363 ( 0.012 ) from  3339 Parsons' quotients
REM Formula found by SHELXT:  C504 N214 O96 I5
CELL  0.71073  18.6227  18.6227  90.6140   90.000   90.000   90.000
ZERR  4  0.0004   0.0004   0.0031    0.000    0.000    0.000
LATT -1
SYMM -X, -Y, Z
SYMM Y, -X, -Z
SYMM -Y, X, -Z
SYMM -X, Y, 1/2-Z
SYMM X, -Y, 1/2-Z
SYMM -Y, -X, 1/2+Z
SYMM Y, X, 1/2+Z
SFAC  C  H  N  O  I
UNIT 640 600 272 128 16
DFIX 2.1 0.01 H10 H13
DFIX 2.1 0.01 H11 H8
LIST 4 ! automatically inserted. Change 6 to 4 for CHECKCIF!!
OMIT 0 2 32
OMIT 0 5 11
OMIT 0 2 0
OMIT 1 3 0
OMIT 0 5 9
OMIT 0 1 9
OMIT -1 2 23
OMIT 1 2 23
OMIT 0 1 11
OMIT 0 2 2
sump 2 0.0000000000001  1 2  1 3 1 4 1 5 1 6 1 7 1 8 1 9
RIGU_GU8 O1 > C42
SIMU_GU8 O1 > C42
SAME_GU8 O1 > C42
SIMU 0.04 0.08 1
TEMP -53
L.S. 5 0  729
BOND
acta
FMAP 2
TWIN
EQIV $1 1-x, 2-y, +z
DFIX 1.39 0.01 C3 C3_$1
PLAN 500
simu 0.01 0.02 2
REM ABIN
ACTA
DFIX   1.34 0.01 C10 C11
DFIX   1.54 0.01 C11 C12 C7 C10 C2 C18
sadi   0.01 C11 C13 C11 C16 C10 C6 C10 C8
flat   0.01 C11 > C17
DFIX   1.39 0.01 C2 C3
DFIX   2.2 0.005 C7 C11 C12 C10
ABIN
WGHT    0.171700
BASF   0.14945
FVAR       0.05945   0.19742   0.22752   0.36412   0.40910   0.41544   0.17162
FVAR       0.12238   0.09245
C1    1    0.529425    0.976256    0.572369    11.00000    0.05937    0.06622 =
         0.06210    0.00091   -0.00707   -0.00524
C2    1    0.561641    0.952397    0.558999    11.00000    0.05443    0.06810 =
         0.06496   -0.00481   -0.00346   -0.01466
C3    1    0.530407    0.978059    0.546258    11.00000    0.06712    0.05526 =
         0.04923    0.00823   -0.00776   -0.00774
AFIX  66
C4    1    0.560332    0.957625    0.530899    11.00000    0.08307    0.07972 =
         0.05243    0.00360    0.00216   -0.01034
C5    1    0.609501    1.002978    0.524093    11.00000    0.08879    0.08140 =
         0.07207   -0.00042    0.00320   -0.01898
AFIX  43
H5    2    0.632606    1.039004    0.529593    11.00000   -1.20000
AFIX  65
C6    1    0.624505    0.995060    0.509155    11.00000    0.11161    0.09078 =
         0.06522   -0.00701   -0.00160    0.00388
AFIX  43
H6    2    0.657756    1.025731    0.504553    11.00000   -1.20000
AFIX  65
C7    1    0.590339    0.941788    0.501022    11.00000    0.10685    0.10517 =
         0.07157   -0.00958   -0.02253    0.01694
C8    1    0.541170    0.896435    0.507827    11.00000    0.10779    0.10976 =
         0.07050   -0.02101    0.00941   -0.01533
AFIX  43
H8    2    0.518065    0.860410    0.502328    11.00000   -1.20000
AFIX  65
C9    1    0.526165    0.904353    0.522766    11.00000    0.10273    0.10989 =
         0.06579   -0.01593   -0.00164   -0.01594
AFIX  43
H9    2    0.492914    0.873682    0.527368    11.00000   -1.20000
AFIX   0
C10   1    0.602975    0.942262    0.484594    11.00000    0.13125    0.14742 =
         0.10657   -0.03294   -0.03480    0.04939
AFIX  43
H10   2    0.642184    0.966737    0.480426    11.00000   -1.20000
AFIX   0
C11   1    0.562974    0.911684    0.477435    11.00000    0.18056    0.14714 =
         0.12001   -0.01251   -0.04761    0.07120
AFIX  43
H11   2    0.527104    0.882603    0.481624    11.00000   -1.20000
AFIX  66
C12   1    0.570120    0.919908    0.461077    11.00000    0.24675    0.15557 =
         0.13176   -0.02057   -0.02980    0.07393
C13   1    0.611834    0.973015    0.454544    11.00000    0.26034    0.18793 =
         0.14341   -0.03360   -0.01270    0.06948
AFIX  43
H13   2    0.637158    1.005834    0.460462    11.00000   -1.20000
AFIX  65
C14   1    0.616103    0.977591    0.439258    11.00000    0.27367    0.19400 =
         0.13761   -0.04434   -0.00485    0.07882
AFIX  43
H14   2    0.644313    1.013505    0.434840    11.00000   -1.20000
AFIX  65
N1    3    0.578657    0.929059    0.430505    11.00000    0.28523    0.17105 =
         0.13938   -0.07558    0.01434    0.07184
C15   1    0.536943    0.875952    0.437039    11.00000    0.29718    0.14865 =
         0.15826   -0.06131   -0.00858    0.05006
AFIX  43
H15   2    0.511620    0.843132    0.431120    11.00000   -1.20000
AFIX  65
C16   1    0.532673    0.871375    0.452325    11.00000    0.29026    0.14709 =
         0.13873   -0.02874   -0.01018    0.04547
AFIX  43
H16   2    0.504463    0.835461    0.456743    11.00000   -1.20000
AFIX   0
sadi   0.01 C17 C14 C17 C15
DFIX   1.47 N1 C17
C17   1    0.584182    0.935685    0.414707    11.00000    0.30719    0.23518 =
         0.15383   -0.05385    0.01762    0.01933
AFIX 137
H17A  2    0.628665    0.959888    0.412202    11.00000   -1.50000
H17B  2    0.543876    0.963344    0.411011    11.00000   -1.50000
H17C  2    0.583725    0.888286    0.410270    11.00000   -1.50000
AFIX   0
C18   1    0.628302    0.901899    0.558814    11.00000    0.08420    0.08682 =
         0.05731    0.01250    0.00117   -0.00522
AFIX 137
H18A  2    0.651234    0.904247    0.549214    11.00000   -1.50000
H18B  2    0.613149    0.852971    0.560758    11.00000   -1.50000
H18C  2    0.662041    0.917028    0.566353    11.00000   -1.50000
AFIX  66
C19   1    0.563682    0.953878    0.587164    11.00000    0.10128    0.08397 =
         0.05900   -0.00945   -0.00974   -0.00969
C20   1    0.539821    0.890062    0.593429    11.00000    0.13428    0.08514 =
         0.07745    0.00528   -0.03292   -0.00494
AFIX  43
H20   2    0.513052    0.857365    0.587755    11.00000   -1.20000
AFIX  65
C21   1    0.555544    0.874594    0.608084    11.00000    0.13933    0.10417 =
         0.08674    0.00727   -0.03906    0.00350
AFIX  43
H21   2    0.539408    0.831438    0.612320    11.00000   -1.20000
AFIX  65
C22   1    0.595128    0.922943    0.616474    11.00000    0.11238    0.12384 =
         0.06196   -0.02041   -0.03712    0.01167
C23   1    0.618990    0.986760    0.610209    11.00000    0.10563    0.13084 =
         0.07309   -0.00304   -0.01982   -0.02275
AFIX  43
H23   2    0.645759    1.019456    0.615883    11.00000   -1.20000
AFIX  65
C24   1    0.603267    1.002228    0.595554    11.00000    0.10726    0.12052 =
         0.08130   -0.00095   -0.01697   -0.02590
AFIX  43
H24   2    0.619404    1.045385    0.591317    11.00000   -1.20000
AFIX   0
C25   1    0.598111    0.911902    0.633033    11.00000    0.11975    0.12852 =
         0.07765   -0.02468   -0.04076    0.01279
DFIX   1.5 0.01 C22 C25
AFIX  43
H25A  2    0.599507    0.864085    0.636343    11.00000   -1.20000
AFIX   0
C26   1    0.598892    0.957970    0.642467    11.00000    0.16634    0.18989 =
         0.09132    0.00247   -0.03036    0.00481
AFIX  43
H26   2    0.610263    1.003367    0.638580    11.00000   -1.20000
AFIX  66
C27   1    0.585852    0.960735    0.659307    11.00000    0.22741    0.20821 =
         0.11239    0.01392   -0.00962   -0.02158
C28   1    0.542765    0.904280    0.664027    11.00000    0.26489    0.18830 =
         0.13750    0.04028   -0.02179   -0.02273
AFIX  43
H28   2    0.522869    0.872391    0.657102    11.00000   -1.20000
AFIX  65
C29   1    0.529098    0.894978    0.678986    11.00000    0.26395    0.18529 =
         0.13552    0.04388   -0.01264   -0.02651
AFIX  43
H29   2    0.499959    0.856799    0.682177    11.00000   -1.20000
AFIX  65
N2    3    0.558517    0.942131    0.689225    11.00000    0.23168    0.17362 =
         0.10906    0.01515   -0.01344   -0.02064
C30   1    0.601604    0.998587    0.684505    11.00000    0.23421    0.19761 =
         0.09685    0.02400    0.00412    0.00449
AFIX  43
H30   2    0.621499    1.030475    0.691429    11.00000   -1.20000
AFIX  65
C31   1    0.615272    1.007890    0.669546    11.00000    0.24403    0.21230 =
         0.12042    0.02770   -0.00943   -0.01353
AFIX  43
H31   2    0.644410    1.046068    0.666355    11.00000   -1.20000
AFIX   0
DFIX   1.47 0.01 N2 C32
C32   1    0.572873    0.926457    0.704878    11.00000    0.15513    0.14035 =
         0.07868   -0.01024    0.00278   -0.01350
AFIX 137
H32A  2    0.554283    0.965155    0.710939    11.00000   -1.50000
H32B  2    0.624240    0.922090    0.706408    11.00000   -1.50000
H32C  2    0.549553    0.881800    0.707597    11.00000   -1.50000
RESI 0
AFIX   0
RESI 2 M2
DFIX_2 1.54 0.01 C1 C2 C6 C7 C17 C18 C11 C12
isor_2 0.01 O3
C1    1    0.788004    1.168925    0.458823    11.00000    0.05710    0.07166 =
         0.06629    0.00211    0.00975    0.00223
AFIX  13
H1    2    0.838324    1.186025    0.459077    11.00000   -1.20000
AFIX   0
C2    1    0.736133    1.232776    0.459581    11.00000    0.04586    0.06218 =
         0.06257    0.00727    0.00361   -0.00187
AFIX  13
H2    2    0.762156    1.279098    0.459220    11.00000   -1.20000
AFIX   0
C3    1    0.716507    1.167972    0.438015    11.00000    0.06184    0.04384 =
         0.05554    0.00580    0.00101    0.00061
C4    1    0.816228    1.077270    0.439423    11.00000    0.07305    0.05447 =
         0.06415   -0.00205    0.01761    0.01267
AFIX  23
H4A   2    0.805048    1.071624    0.428919    11.00000   -1.20000
H4B   2    0.866511    1.092399    0.440134    11.00000   -1.20000
AFIX   0
C5    1    0.790256    0.948149    0.438909    11.00000    0.06404    0.06290 =
         0.06126   -0.00384    0.01240   -0.00617
C6    1    0.844946    0.905951    0.459148    11.00000    0.05676    0.05523 =
         0.06964   -0.00616    0.00325    0.01675
AFIX  13
H6    2    0.893936    0.885367    0.458827    11.00000   -1.20000
AFIX   0
C7    1    0.847909    0.987107    0.459075    11.00000    0.04806    0.06375 =
         0.06263   -0.00620    0.00475    0.00347
AFIX  13
H7    2    0.898368    1.003811    0.458867    11.00000   -1.20000
AFIX   0
C8    1    0.722984    1.166077    0.480827    11.00000    0.06465    0.05226 =
         0.06996    0.00445    0.00136    0.00127
C9    1    0.339855    0.718560    0.480037    11.00000    0.06059    0.05868 =
         0.05636   -0.00360    0.00078   -0.00007
AFIX  23
H9A   2    0.311407    0.674354    0.479539    11.00000   -1.20000
H9B   2    0.345746    0.731243    0.490463    11.00000   -1.20000
AFIX   0
C10   1    0.598616    0.663085    0.480125    11.00000    0.04608    0.05822 =
         0.07139   -0.00403   -0.00720    0.00604
AFIX  23
H10A  2    0.608775    0.611612    0.479287    11.00000   -1.20000
H10B  2    0.597773    0.675543    0.490631    11.00000   -1.20000
AFIX   0
C11   1    0.503481    0.641823    0.459881    11.00000    0.04618    0.07255 =
         0.06741   -0.00077   -0.00497    0.00360
AFIX  13
H11   2    0.510527    0.589138    0.460064    11.00000   -1.20000
AFIX   0
C12   1    0.423076    0.663980    0.459607    11.00000    0.05560    0.06838 =
         0.05847   -0.00553    0.00273   -0.00092
AFIX  13
H12   2    0.391565    0.621167    0.459518    11.00000   -1.20000
AFIX   0
C13   1    0.345383    0.713900    0.438878    11.00000    0.06164    0.07186 =
         0.06008   -0.00888   -0.00165    0.01249
AFIX  23
H13A  2    0.316466    0.670438    0.440244    11.00000   -1.20000
H13B  2    0.353292    0.720763    0.428280    11.00000   -1.20000
AFIX   0
C14   1    0.477667    0.708421    0.438294    11.00000    0.05445    0.07180 =
         0.05452   -0.00344   -0.00104    0.01186
C15   1    0.807155    0.815686    0.440004    11.00000    0.06967    0.06103 =
         0.06422   -0.00058    0.01068    0.01245
AFIX  23
H15A  2    0.800993    0.818741    0.429282    11.00000   -1.20000
H15B  2    0.853454    0.792525    0.441947    11.00000   -1.20000
AFIX   0
C16   1    0.693514    0.745951    0.438209    11.00000    0.06027    0.06969 =
         0.05762   -0.00249    0.00087   -0.00027
C17   1    0.691527    0.684519    0.460248    11.00000    0.05286    0.07214 =
         0.06369    0.00379   -0.00845    0.00165
AFIX  13
H17   2    0.706076    0.633446    0.460750    11.00000   -1.20000
AFIX   0
C18   1    0.758730    0.733243    0.459548    11.00000    0.05707    0.06367 =
         0.06244   -0.00653    0.00287    0.00205
AFIX  13
H18   2    0.803665    0.704839    0.459620    11.00000   -1.20000
AFIX   0
C19   1    0.798206    0.949579    0.481573    11.00000    0.05571    0.05651 =
         0.05256   -0.00429   -0.00205   -0.00004
C20   1    0.805611    0.817957    0.479840    11.00000    0.07064    0.05784 =
         0.06552   -0.00892   -0.01586    0.00783
AFIX  23
H20A  2    0.851906    0.793988    0.478365    11.00000   -1.20000
H20B  2    0.797007    0.821080    0.490491    11.00000   -1.20000
AFIX   0
C21   1    0.693132    0.755666    0.481667    11.00000    0.04948    0.04724 =
         0.05207   -0.00059    0.00086    0.01814
C22   1    0.821651    1.081789    0.478830    11.00000    0.07460    0.04881 =
         0.06190   -0.00301   -0.00999   -0.00192
AFIX  23
H22A  2    0.817269    1.082134    0.489607    11.00000   -1.20000
H22B  2    0.869872    1.098978    0.476324    11.00000   -1.20000
AFIX   0
C23   1    0.474701    0.709693    0.481692    11.00000    0.05534    0.07064 =
         0.06496   -0.00400   -0.00649    0.00874
C24   1    0.597331    0.658841    0.440255    11.00000    0.05054    0.06635 =
         0.07175   -0.02663   -0.00784   -0.00503
AFIX  23
H24A  2    0.594289    0.671272    0.429765    11.00000   -1.20000
H24B  2    0.607251    0.607274    0.440959    11.00000   -1.20000
AFIX   0
N1    3    0.773698    1.131891    0.444993    11.00000    0.06962    0.05350 =
         0.06557   -0.01143    0.00423    0.00417
N2    3    0.695491    1.219033    0.445478    11.00000    0.05982    0.05371 =
         0.06314    0.00984   -0.00953    0.00619
N3    3    0.809851    1.011681    0.446030    11.00000    0.07204    0.05865 =
         0.05881   -0.00318    0.01371    0.00623
N4    3    0.808080    0.890365    0.446372    11.00000    0.07162    0.05151 =
         0.06144   -0.00893   -0.00263    0.00894
N5    3    0.770312    1.129453    0.472795    11.00000    0.06241    0.05587 =
         0.06155    0.00330    0.00116    0.01449
N6    3    0.302209    0.774676    0.472692    11.00000    0.05119    0.04861 =
         0.05668   -0.00183   -0.00661    0.01346
N7    3    0.413763    0.704989    0.473209    11.00000    0.05074    0.05779 =
         0.06112   -0.00814   -0.00595    0.00521
N8    3    0.529566    0.678312    0.473672    11.00000    0.04070    0.07749 =
         0.07533    0.00142   -0.00859    0.00386
N9    3    0.413537    0.706111    0.446355    11.00000    0.04758    0.06910 =
         0.05565   -0.00577   -0.00322    0.00864
N10   3    0.529528    0.673624    0.447141    11.00000    0.04869    0.07079 =
         0.05485   -0.01051   -0.00792   -0.00380
N11   3    0.750292    0.771997    0.446133    11.00000    0.05895    0.06619 =
         0.05745    0.00159    0.00264    0.01076
N12   3    0.656483    0.698315    0.446895    11.00000    0.05995    0.07328 =
         0.06004   -0.01178   -0.00851   -0.00386
N13   3    0.809562    0.890242    0.473775    11.00000    0.06519    0.05420 =
         0.05381   -0.00018    0.00056    0.01082
N14   3    0.813410    1.006509    0.473419    11.00000    0.06671    0.05513 =
         0.05713   -0.00059    0.00081    0.00832
N15   3    0.750075    0.775294    0.473246    11.00000    0.06062    0.04890 =
         0.06528   -0.01671   -0.00286    0.00043
N16   3    0.654594    0.703392    0.472824    11.00000    0.04732    0.06916 =
         0.05792   -0.00652   -0.00767    0.00300
O1    4    0.695698    1.148450    0.425364    11.00000    0.07733    0.06601 =
         0.07018    0.01086   -0.00144   -0.00788
O2    4    0.760124    0.946141    0.425660    11.00000    0.08988    0.08020 =
         0.06681   -0.00250   -0.00148    0.01874
isor 0.01 O3_2
O3    4    0.703122    1.151078    0.493327    11.00000    0.07189    0.05997 =
         0.04866    0.00132   -0.00377    0.00828
O4    4    0.478523    0.733853    0.493982    11.00000    0.05550    0.08677 =
         0.05845   -0.00963   -0.00080    0.00241
O5    4    0.481693    0.733264    0.426260    11.00000    0.06845    0.12573 =
         0.04547   -0.00352   -0.00194    0.00935
O6    4    0.675329    0.768490    0.426556    11.00000    0.07913    0.07914 =
         0.05370   -0.00479    0.00035   -0.00012
O7    4    0.775949    0.950676    0.493969    11.00000    0.05991    0.05831 =
         0.06522   -0.00027   -0.02058    0.00248
O8    4    0.676605    0.776806    0.493798    11.00000    0.06552    0.06370 =
         0.06164    0.00101    0.00366    0.01580
RESI 3 M3
part 1
I1    5    0.000000    0.500000    0.750000    21.00000    0.08834    0.05744 =
         0.10833    0.00000    0.00000    0.00000
part 2
I2    5    0.961041    0.995071    0.409808    31.00000    0.12577    0.09000 =
         0.08847   -0.00246    0.00162    0.04502
part 3
I3    5    0.500000    0.500000    0.409404    41.00000    0.05824    0.41592 =
         0.06398    0.00000    0.00000    0.04408
part 4
I4    5    0.000000    0.000000    0.645060    51.00000    0.05004    0.16970 =
         0.05829    0.00000    0.00000   -0.02243
part  5
I5    5    0.500000    0.500000    0.645445    61.00000    0.23828    0.06677 =
         0.05051    0.00000    0.00000   -0.06442
part 6
I6    5    0.000000    0.000000    0.485504    71.00000    0.05100    0.12953 =
         0.09078    0.00000    0.00000    0.03087
part 7
I7    5    0.889832    0.507875    0.693225    81.00000    0.12699    0.05495 =
         0.05934    0.02864   -0.00841   -0.02898
part 8
I8    5    0.990497    0.610907    0.691208    91.00000    0.07087    0.10813 =
         0.03375    0.01581   -0.02677   -0.05761
part 0
RESI 4 M11
C1    1    0.156800    0.978522    0.616521    11.00000    0.09334    0.07130 =
         0.06407   -0.00161    0.00535   -0.01529
AFIX  13
H1    2    0.110079    0.953261    0.616986    11.00000   -1.20000
AFIX   0
C2    1    0.146925    1.058496    0.616423    11.00000    0.07204    0.06776 =
         0.06376   -0.00889    0.01109   -0.00811
AFIX  13
H2    2    0.095260    1.070938    0.616137    11.00000   -1.20000
AFIX   0
C3    1    0.205921    1.030325    0.638126    11.00000    0.08595    0.07210 =
         0.05733   -0.00407   -0.00501   -0.01469
C4    1    0.206633    1.020565    0.594846    11.00000    0.08582    0.07560 =
         0.04964   -0.01795    0.00274   -0.01797
C5    1    0.203624    0.896695    0.638444    11.00000    0.08064    0.07725 =
         0.06276    0.00226    0.00891   -0.00160
AFIX  23
H5A   2    0.216966    0.906004    0.648730    11.00000   -1.20000
H5B   2    0.156672    0.872934    0.638362    11.00000   -1.20000
AFIX   0
C6    1    0.310987    0.819197    0.639135    11.00000    0.08057    0.07012 =
         0.05537    0.01678    0.01178   -0.01584
C7    1    0.295363    0.748127    0.618505    11.00000    0.08210    0.07120 =
         0.06098    0.00396    0.00217   -0.01551
AFIX  13
H7    2    0.271395    0.700771    0.619121    11.00000   -1.20000
AFIX   0
C8    1    0.236499    0.810552    0.618091    11.00000    0.08395    0.07663 =
         0.05416    0.00530    0.00348   -0.02338
AFIX  13
H8    2    0.186950    0.791483    0.618650    11.00000   -1.20000
AFIX   0
C9    1    0.789715    0.754853    0.615480    11.00000    0.06524    0.06810 =
         0.05258    0.00284    0.00236    0.00980
AFIX  13
H9    2    0.837159    0.731395    0.614456    11.00000   -1.20000
AFIX   0
C10   1    0.725467    0.699809    0.615940    11.00000    0.06824    0.05799 =
         0.05124    0.00991   -0.00500    0.00939
AFIX  13
H10   2    0.743046    0.649656    0.615665    11.00000   -1.20000
AFIX   0
C11   1    0.725423    0.768034    0.638104    11.00000    0.08336    0.06991 =
         0.05755    0.00745   -0.00380   -0.00523
C12   1    0.198698    0.890868    0.597153    11.00000    0.09483    0.07055 =
         0.05828   -0.00171   -0.01073    0.00296
AFIX  23
H12A  2    0.210820    0.895446    0.586671    11.00000   -1.20000
H12B  2    0.150970    0.868943    0.597825    11.00000   -1.20000
AFIX   0
C13   1    0.304441    0.807293    0.595868    11.00000    0.07600    0.07356 =
         0.05991    0.00190   -0.00666   -0.02643
C14   1    0.823074    0.850325    0.596148    11.00000    0.06878    0.06228 =
         0.06231    0.00824    0.01630    0.00226
AFIX  23
H14A  2    0.871965    0.832010    0.597503    11.00000   -1.20000
H14B  2    0.813773    0.853833    0.585528    11.00000   -1.20000
AFIX   0
C15   1    0.716073    0.770078    0.595197    11.00000    0.06486    0.05303 =
         0.05603   -0.00679    0.00192    0.00666
C16   1    0.378366    0.710589    0.637741    11.00000    0.07843    0.09111 =
         0.05686    0.01536    0.00710   -0.01725
AFIX  23
H16A  2    0.354352    0.663821    0.637263    11.00000   -1.20000
H16B  2    0.383874    0.722912    0.648194    11.00000   -1.20000
AFIX   0
C17   1    0.513086    0.706831    0.638455    11.00000    0.08548    0.06451 =
         0.04989    0.00685    0.00620   -0.01572
C18   1    0.540479    0.642599    0.618004    11.00000    0.07609    0.06796 =
         0.04492    0.00721    0.00046   -0.01771
AFIX  13
H18   2    0.551986    0.590746    0.618463    11.00000   -1.20000
AFIX   0
C19   1    0.459525    0.658736    0.617236    11.00000    0.07218    0.06899 =
         0.04598   -0.00534    0.00228   -0.01053
AFIX  13
H19   2    0.431604    0.613696    0.618105    11.00000   -1.20000
AFIX   0
C20   1    0.375095    0.698755    0.597963    11.00000    0.07670    0.06568 =
         0.07294   -0.00092   -0.01742   -0.00259
AFIX  43
H20   2    0.357860    0.668166    0.590510    11.00000   -1.20000
AFIX   0
C21   1    0.503077    0.704040    0.595456    11.00000    0.06721    0.06599 =
         0.05503    0.00231   -0.00473   -0.00257
C22   1    0.633401    0.667848    0.596851    11.00000    0.07278    0.07406 =
         0.05044    0.00082    0.00443   -0.01092
AFIX  23
H22A  2    0.630327    0.674338    0.586137    11.00000   -1.20000
H22B  2    0.648904    0.618384    0.598716    11.00000   -1.20000
AFIX   0
C23   1    0.640326    0.668679    0.635878    11.00000    0.07317    0.06537 =
         0.05942    0.00471    0.01253   -0.00133
AFIX  43
H23   2    0.651407    0.632370    0.642715    11.00000   -1.20000
AFIX   0
C24   1    0.166713    1.154082    0.635111    11.00000    0.06868    0.08082 =
         0.05925   -0.01043    0.00512    0.00357
AFIX  23
H24A  2    0.168298    1.152922    0.645919    11.00000   -1.20000
H24B  2    0.118517    1.169647    0.632175    11.00000   -1.20000
AFIX   0
N1    3    0.199391    0.966520    0.630077    11.00000    0.08608    0.07635 =
         0.06071   -0.00445    0.00124   -0.00344
N2    3    0.178964    1.084140    0.629642    11.00000    0.07952    0.07434 =
         0.04732   -0.00758   -0.00348   -0.00509
N3    3    0.196324    0.959012    0.603454    11.00000    0.08550    0.06545 =
         0.06258   -0.00373    0.00466   -0.01319
N4    3    0.182733    1.080738    0.602644    11.00000    0.08431    0.07455 =
         0.05573   -0.00995    0.00713   -0.00782
N5    3    0.256879    0.850574    0.631577    11.00000    0.08278    0.07347 =
         0.06424    0.00878   -0.00030   -0.00817
N6    3    0.334183    0.760853    0.631304    11.00000    0.08009    0.07032 =
         0.05431    0.01654    0.00997   -0.01243
N8    3    0.780948    0.793791    0.629782    11.00000    0.07482    0.06568 =
         0.05589   -0.00453   -0.00125   -0.00940
N9    3    0.689252    0.715334    0.629834    11.00000    0.07487    0.06837 =
         0.05113    0.00121    0.00846    0.00117
N10   3    0.251002    0.843532    0.604256    11.00000    0.08902    0.06627 =
         0.05732   -0.00582    0.00142   -0.01890
N11   3    0.331781    0.754984    0.604504    11.00000    0.07359    0.06458 =
         0.05502    0.00535   -0.00633   -0.01381
N12   3    0.771185    0.799986    0.602924    11.00000    0.05872    0.05919 =
         0.05405    0.00403    0.00395    0.00035
N13   3    0.688313    0.717687    0.602790    11.00000    0.06559    0.07254 =
         0.05074    0.00378    0.00338   -0.00390
N14   3    0.451932    0.702830    0.631120    11.00000    0.07103    0.08340 =
         0.04768   -0.01097   -0.00343   -0.02139
N15   3    0.568929    0.683566    0.630175    11.00000    0.06529    0.06015 =
         0.04886    0.00680    0.00978   -0.01009
N17   3    0.443377    0.693889    0.603556    11.00000    0.07530    0.07371 =
         0.05240   -0.00133   -0.00192   -0.00517
N18   3    0.561062    0.678280    0.603324    11.00000    0.07614    0.06620 =
         0.05142    0.00790    0.00082   -0.01598
O1    4    0.228984    1.035051    0.651129    11.00000    0.09923    0.09354 =
         0.05002    0.00649    0.01172   -0.02378
O2    4    0.229073    1.022221    0.582530    11.00000    0.08190    0.06886 =
         0.07595   -0.00821    0.00732   -0.01845
O3    4    0.332881    0.839584    0.651084    11.00000    0.09956    0.10497 =
         0.05854   -0.00879    0.00025   -0.01234
O4    4    0.710075    0.785963    0.650295    11.00000    0.08374    0.07912 =
         0.05186    0.01056   -0.01080   -0.01872
O5    4    0.319902    0.820299    0.583887    11.00000    0.11646    0.09381 =
         0.05481    0.00157   -0.02384   -0.02202
O6    4    0.697607    0.788382    0.582183    11.00000    0.08103    0.05493 =
         0.04944   -0.00166   -0.00161    0.00860
O7    4    0.520457    0.735330    0.651546    11.00000    0.09367    0.08632 =
         0.05509   -0.00489   -0.00625   -0.00412
O8    4    0.507546    0.722506    0.582953    11.00000    0.08590    0.07049 =
         0.03872   -0.00182    0.01961   -0.00253
resi 0

HKLF 4




REM  S6_CCF_S_0m_a_a.res in P-42c
REM wR2 = 0.2812, GooF = S = 1.049, Restrained GooF = 1.080 for all data
REM R1 = 0.0880 for 15284 Fo > 4sig(Fo) and 0.1406 for all 27225 data
REM 1185 parameters refined using 948 restraints

END

WGHT      0.1847      0.0000

REM Highest difference peak  1.523,  deepest hole -0.472,  1-sigma level  0.085
Q1    1   0.5011  0.4675  0.4105  11.00000  0.05    1.52
Q2    1   0.5273  0.4949  0.6455  11.00000  0.05    1.13
Q3    1   0.8917  0.5018  0.6888  11.00000  0.05    0.56
Q4    1   0.9012  0.9933  0.4071  11.00000  0.05    0.56
Q5    1   0.6022  0.9082  0.4520  11.00000  0.05    0.52
Q6    1   0.5754  0.9236  0.6898  11.00000  0.05    0.49
Q7    1   0.5429  0.8917  0.4298  11.00000  0.05    0.49
Q8    1   1.0065  0.6001  0.6932  11.00000  0.05    0.48
Q9    1   0.6055  0.9047  0.6660  11.00000  0.05    0.44
Q10   1   0.9434  0.9529  0.4062  11.00000  0.05    0.41
Q11   1   0.5000  1.0000  0.6329  10.50000  0.05    0.41
Q12   1   0.9966  0.5123  0.7107  11.00000  0.05    0.40
Q13   1   0.6180  0.9165  0.6814  11.00000  0.05    0.40
Q14   1   0.0184  0.0659  0.4795  11.00000  0.05    0.39
Q15   1   0.8237  1.0192  0.4142  11.00000  0.05    0.36
Q16   1   1.0000  0.5000  0.7007  10.50000  0.05    0.36
Q17   1   0.4888  0.8889  0.4529  11.00000  0.05    0.35
Q18   1   0.5403  0.8939  0.6439  11.00000  0.05    0.35
Q19   1   0.4969  0.9090  0.4847  11.00000  0.05    0.35
Q20   1   0.5874  1.1050  0.6647  11.00000  0.05    0.35
Q21   1   0.4609  0.8905  0.4289  11.00000  0.05    0.35
Q22   1   0.5921  0.9022  0.4373  11.00000  0.05    0.35
Q23   1   0.5126  0.8874  0.6430  11.00000  0.05    0.34
Q24   1   0.7193  1.2118  0.5047  11.00000  0.05    0.34
Q25   1   0.4964  0.8918  0.6425  11.00000  0.05    0.33
Q26   1   0.4034  0.8644  0.4631  11.00000  0.05    0.33
Q27   1   0.5937  1.0009  0.4762  11.00000  0.05    0.33
Q28   1   0.6175  1.0800  0.6805  11.00000  0.05    0.33
Q29   1   0.6002  1.0861  0.4507  11.00000  0.05    0.33
Q30   1   0.4794  0.8983  0.6279  11.00000  0.05    0.32
Q31   1   0.6800  1.1826  0.4151  11.00000  0.05    0.32
Q32   1   0.5830  0.9930  0.6845  11.00000  0.05    0.32
Q33   1   0.5146  0.9679  0.4826  11.00000  0.05    0.31
Q34   1   0.5879  0.8880  0.6087  11.00000  0.05    0.31
Q35   1   0.4200  0.8937  0.4506  11.00000  0.05    0.31
Q36   1   0.3080  0.7322  0.5807  11.00000  0.05    0.31
Q37   1   0.8495  0.5172  0.6765  11.00000  0.05    0.31
Q38   1   0.6182  1.0028  0.5678  11.00000  0.05    0.30
Q39   1   0.4771  0.9682  0.4839  11.00000  0.05    0.30
Q40   1   0.1287  0.9029  0.5862  11.00000  0.05    0.30
Q41   1   0.7315  0.8737  0.5707  11.00000  0.05    0.30
Q42   1   0.6876  0.8263  0.5536  11.00000  0.05    0.30
Q43   1   0.5000  1.0000  0.4276  10.50000  0.05    0.30
Q44   1   1.0062  0.6599  0.6765  11.00000  0.05    0.29
Q45   1   0.7087  0.9212  0.4992  11.00000  0.05    0.29
Q46   1   0.7072  0.8347  0.5560  11.00000  0.05    0.29
Q47   1   0.6016  1.0260  0.4111  11.00000  0.05    0.29
Q48   1   0.2776  0.7403  0.4936  11.00000  0.05    0.29
Q49   1   0.3719  0.8676  0.5827  11.00000  0.05    0.29
Q50   1   0.9414  0.9465  0.4311  11.00000  0.05    0.29
Q51   1   0.4757  0.6756  0.4143  11.00000  0.05    0.28
Q52   1   0.5239  0.9819  0.5204  11.00000  0.05    0.28
Q53   1   0.4926  0.9147  0.6849  11.00000  0.05    0.28
Q54   1   0.0000  0.5000  0.7800  10.50000  0.05    0.28
Q55   1   0.3953  0.6323  0.4751  11.00000  0.05    0.28
Q56   1  -0.0135 -0.0049  0.4832  11.00000  0.05    0.28
Q57   1   0.7722  1.1600  0.5002  11.00000  0.05    0.28
Q58   1  -0.0706 -0.0409  0.6460  11.00000  0.05    0.27
Q59   1   0.5338  0.8888  0.4125  11.00000  0.05    0.27
Q60   1   0.6307  1.0886  0.5178  11.00000  0.05    0.27
Q61   1   0.5435  1.0434  0.5881  11.00000  0.05    0.27
Q62   1   0.6061  1.0941  0.5157  11.00000  0.05    0.27
Q63   1   0.5888  0.8974  0.6204  11.00000  0.05    0.27
Q64   1   0.5814  0.5915  0.4494  11.00000  0.05    0.26
Q65   1   0.5935  1.0062  0.6288  11.00000  0.05    0.26
Q66   1   0.6017  0.9523  0.4296  11.00000  0.05    0.26
Q67   1   0.8019  0.8886  0.5859  11.00000  0.05    0.26
Q68   1   0.2288  0.7585  0.6202  11.00000  0.05    0.26
Q69   1   0.3857  0.5962  0.6412  11.00000  0.05    0.26
Q70   1   0.5394  0.8915  0.4630  11.00000  0.05    0.25
Q71   1   0.5000  1.0000  0.5294  10.50000  0.05    0.25
Q72   1   0.6563  0.6161  0.6343  11.00000  0.05    0.25
Q73   1   0.9519  0.6405  0.6769  11.00000  0.05    0.25
Q74   1   0.5223  0.9024  0.4772  11.00000  0.05    0.25
Q75   1   0.5158  0.4769  0.4286  11.00000  0.05    0.25
Q76   1   0.5565  0.8894  0.4734  11.00000  0.05    0.25
Q77   1   0.5151  0.9893  0.4646  11.00000  0.05    0.25
Q78   1   0.5561  1.0467  0.5119  11.00000  0.05    0.25
Q79   1   0.6625  0.8800  0.4176  11.00000  0.05    0.25
Q80   1   0.9232  0.9266  0.4349  11.00000  0.05    0.25
Q81   1   0.6436  0.8323  0.4151  11.00000  0.05    0.25
Q82   1   0.4997  0.8080  0.6879  11.00000  0.05    0.25
Q83   1   0.5895  1.0012  0.6968  11.00000  0.05    0.24
Q84   1   0.6103  0.9427  0.6173  11.00000  0.05    0.24
Q85   1   0.5889  0.9057  0.5943  11.00000  0.05    0.24
Q86   1  -0.0367 -0.0746  0.6532  11.00000  0.05    0.24
Q87   1   0.7374  0.7629  0.4737  11.00000  0.05    0.24
Q88   1   0.5159  0.4077  0.4034  11.00000  0.05    0.24
Q89   1   0.6138  0.7540  0.6525  11.00000  0.05    0.23
Q90   1   0.4656  0.8985  0.6031  11.00000  0.05    0.23
Q91   1   0.5265  0.8192  0.5763  11.00000  0.05    0.23
Q92   1   0.1933  0.9536  0.6568  11.00000  0.05    0.23
Q93   1   0.4744  0.8029  0.4230  11.00000  0.05    0.23
Q94   1   0.6485  1.0756  0.6967  11.00000  0.05    0.23
Q95   1   0.5358  0.7774  0.4164  11.00000  0.05    0.23
Q96   1   0.5430  0.6968  0.4157  11.00000  0.05    0.23
Q97   1   0.4971  0.8986  0.5713  11.00000  0.05    0.23
Q98   1   0.8899  0.4076  0.6928  11.00000  0.05    0.23
Q99   1   0.1502  0.8256  0.6259  11.00000  0.05    0.22
Q100  1   0.6714  0.9914  0.5879  11.00000  0.05    0.22
Q101  1   0.6115  0.7568  0.5849  11.00000  0.05    0.22
Q102  1   0.4778  0.9057  0.6952  11.00000  0.05    0.22
Q103  1   0.5000  1.0000  0.5141  10.50000  0.05    0.22
Q104  1   0.6214  1.1156  0.4914  11.00000  0.05    0.22
Q105  1   1.0736  0.6279  0.6828  11.00000  0.05    0.22
Q106  1   0.4939  0.9756  0.5902  11.00000  0.05    0.22
Q107  1   0.5505  0.8726  0.5669  11.00000  0.05    0.22
Q108  1   0.6544  1.0528  0.4150  11.00000  0.05    0.22
Q109  1   0.7399  0.6496  0.4470  11.00000  0.05    0.22
Q110  1   0.4311  0.9374  0.4883  11.00000  0.05    0.22
Q111  1   0.7052  0.9925  0.4212  11.00000  0.05    0.22
Q112  1   0.2577  0.6954  0.6264  11.00000  0.05    0.22
Q113  1   0.2763  0.6966  0.6151  11.00000  0.05    0.22
Q114  1   0.5812  1.1082  0.6073  11.00000  0.05    0.22
Q115  1   0.3484  0.8604  0.6295  11.00000  0.05    0.22
Q116  1   0.5358  0.9986  0.6974  11.00000  0.05    0.21
Q117  1   0.6508  0.8420  0.6273  11.00000  0.05    0.21
Q118  1   0.6832  1.0466  0.5149  11.00000  0.05    0.21
Q119  1   0.1271  1.0982  0.5970  11.00000  0.05    0.21
Q120  1   0.7828  0.7696  0.4234  11.00000  0.05    0.21
Q121  1   0.4360  0.6764  0.5857  11.00000  0.05    0.21
Q122  1   0.3767  0.6397  0.6064  11.00000  0.05    0.21
Q123  1   0.4783  0.7971  0.5117  11.00000  0.05    0.21
Q124  1   0.3427  0.8670  0.6116  11.00000  0.05    0.21
Q125  1   0.7335  1.3180  0.4561  11.00000  0.05    0.21
Q126  1   0.3528  0.8556  0.6380  11.00000  0.05    0.21
Q127  1   0.6256  0.8669  0.4287  11.00000  0.05    0.21
Q128  1   0.8902  0.5781  0.6860  11.00000  0.05    0.21
Q129  1   0.4452  0.6023  0.4716  11.00000  0.05    0.21
Q130  1   0.6850  0.8082  0.6618  11.00000  0.05    0.21
Q131  1   0.6989  1.0162  0.4169  11.00000  0.05    0.21
Q132  1   0.6775  0.7252  0.5822  11.00000  0.05    0.21
Q133  1   0.4000  0.6821  0.5875  11.00000  0.05    0.21
Q134  1   0.5809  0.7481  0.4951  11.00000  0.05    0.21
Q135  1   0.3649  0.8580  0.6523  11.00000  0.05    0.20
Q136  1   0.5739  0.8802  0.5511  11.00000  0.05    0.20
Q137  1   0.3455  0.7781  0.4833  11.00000  0.05    0.20
Q138  1   0.5881  1.0970  0.5918  11.00000  0.05    0.20
Q139  1   0.9216  0.8123  0.4897  11.00000  0.05    0.20
Q140  1   0.5338  0.9766  0.4392  11.00000  0.05    0.20
Q141  1   0.3879  0.9042  0.6480  11.00000  0.05    0.20
Q142  1   0.7640  0.7667  0.5847  11.00000  0.05    0.20
Q143  1   0.3624  0.7930  0.5731  11.00000  0.05    0.20
Q144  1   0.5560  1.0889  0.5921  11.00000  0.05    0.20
Q145  1   0.2596  0.9917  0.6295  11.00000  0.05    0.20
Q146  1   0.7371  0.6082  0.4585  11.00000  0.05    0.20
Q147  1   0.6597  1.1103  0.4655  11.00000  0.05    0.20
Q148  1   0.4177  0.6274  0.6118  11.00000  0.05    0.20
Q149  1   0.5393  0.5945  0.4731  11.00000  0.05    0.20
Q150  1   0.7463  0.8839  0.4155  11.00000  0.05    0.20
Q151  1   0.2440  0.7648  0.5834  11.00000  0.05    0.20
Q152  1   0.4755  0.7131  0.5095  11.00000  0.05    0.20
Q153  1   0.6113  0.7233  0.5787  11.00000  0.05    0.20
Q154  1   0.8724  0.9048  0.4411  11.00000  0.05    0.20
Q155  1   0.2736  0.9933  0.5944  11.00000  0.05    0.20
Q156  1   0.6810  0.8423  0.6535  11.00000  0.05    0.20
Q157  1   0.4942  0.9180  0.5975  11.00000  0.05    0.20
Q158  1   0.6974  0.9706  0.4727  11.00000  0.05    0.20
Q159  1   0.5303  0.7600  0.6066  11.00000  0.05    0.19
Q160  1   0.6064  1.0400  0.4279  11.00000  0.05    0.19
Q161  1   0.7873  0.7485  0.6424  11.00000  0.05    0.19
Q162  1   0.1590  0.8960  0.6082  11.00000  0.05    0.19
Q163  1   0.8661  0.7732  0.5854  11.00000  0.05    0.19
Q164  1   0.7680  0.7218  0.4307  11.00000  0.05    0.19
Q165  1   0.3001  0.6654  0.6388  11.00000  0.05    0.19
Q166  1   0.5833  0.7398  0.5076  11.00000  0.05    0.19
Q167  1   0.7803  1.0539  0.4273  11.00000  0.05    0.19
Q168  1   0.8992  1.0512  0.4133  11.00000  0.05    0.19
Q169  1   0.5971  0.7315  0.4888  11.00000  0.05    0.19
Q170  1   0.7931  0.7810  0.5757  11.00000  0.05    0.19
Q171  1   0.6072  1.0683  0.6054  11.00000  0.05    0.19
Q172  1   0.6219  0.6696  0.4611  11.00000  0.05    0.19
Q173  1   0.7850  1.1550  0.4882  11.00000  0.05    0.19
Q174  1   0.3107  0.6618  0.6234  11.00000  0.05    0.19
Q175  1   0.2373  0.9578  0.6170  11.00000  0.05    0.19
Q176  1   0.4614  0.4342  0.4026  11.00000  0.05    0.19
Q177  1   0.2084  0.7628  0.6062  11.00000  0.05    0.19
Q178  1   0.3388  0.6198  0.6332  11.00000  0.05    0.19
Q179  1   0.5042  0.9574  0.6971  11.00000  0.05    0.19
Q180  1   0.8339  1.0016  0.5047  11.00000  0.05    0.19
Q181  1   0.6422  0.7911  0.5094  11.00000  0.05    0.19
Q182  1   0.4234  0.8464  0.6942  11.00000  0.05    0.19
Q183  1   0.8717  1.0334  0.5115  11.00000  0.05    0.19
Q184  1   0.5456  0.8832  0.4852  11.00000  0.05    0.19
Q185  1   0.6640  0.8127  0.6530  11.00000  0.05    0.19
Q186  1   0.8395  0.7035  0.4694  11.00000  0.05    0.18
Q187  1   0.4698  0.7617  0.6283  11.00000  0.05    0.18
Q188  1   0.5139  0.7685  0.6019  11.00000  0.05    0.18
Q189  1   0.7477  0.8677  0.4988  11.00000  0.05    0.18
Q190  1   0.7462  0.8779  0.5877  11.00000  0.05    0.18
Q191  1   0.7970  0.9384  0.5115  11.00000  0.05    0.18
Q192  1   0.6058  0.9094  0.5157  11.00000  0.05    0.18
Q193  1   0.3410  0.7302  0.4216  11.00000  0.05    0.18
Q194  1   0.5009  0.8265  0.4848  11.00000  0.05    0.18
Q195  1   0.2034  0.8320  0.5880  11.00000  0.05    0.18
Q196  1   0.5654  0.7314  0.4855  11.00000  0.05    0.18
Q197  1   0.7740  0.9163  0.5092  11.00000  0.05    0.18
Q198  1   0.6237  1.0563  0.4830  11.00000  0.05    0.18
Q199  1   0.8101  0.7943  0.5081  11.00000  0.05    0.18
Q200  1   0.6212  0.6620  0.6350  11.00000  0.05    0.18
Q201  1   0.8981  1.0520  0.4741  11.00000  0.05    0.18
Q202  1   0.7333  0.8717  0.5458  11.00000  0.05    0.18
Q203  1   0.5357  0.8297  0.4640  11.00000  0.05    0.18
Q204  1   0.6829  1.1156  0.4261  11.00000  0.05    0.18
Q205  1   0.6724  1.0341  0.5763  11.00000  0.05    0.18
Q206  1   0.3207  0.7104  0.4145  11.00000  0.05    0.18
Q207  1   0.2741  0.7777  0.4739  11.00000  0.05    0.18
Q208  1   0.6815  0.9870  0.5740  11.00000  0.05    0.18
Q209  1   0.5692  0.7058  0.6575  11.00000  0.05    0.18
Q210  1   0.5000  0.5000  0.5000  10.25000  0.05    0.18
Q211  1   0.4547  0.6907  0.4292  11.00000  0.05    0.18
Q212  1   0.6063  1.0423  0.6202  11.00000  0.05    0.18
Q213  1   0.7594  0.9433  0.4620  11.00000  0.05    0.18
Q214  1   0.2163  0.8356  0.6491  11.00000  0.05    0.18
Q215  1   0.7714  0.9142  0.7477  11.00000  0.05    0.18
Q216  1   0.5580  0.9580  0.5142  11.00000  0.05    0.18
Q217  1   0.7770  1.0567  0.4972  11.00000  0.05    0.18
Q218  1   0.4480  0.8962  0.6529  11.00000  0.05    0.18
Q219  1   0.6232  0.7914  0.5117  11.00000  0.05    0.18
Q220  1   0.5000  1.0000  0.7176  10.50000  0.05    0.18
Q221  1   0.3418  0.7024  0.4916  11.00000  0.05    0.18
Q222  1   0.5252  0.9788  0.4472  11.00000  0.05    0.18
Q223  1   0.6556  0.8002  0.6409  11.00000  0.05    0.18
Q224  1   0.5962  0.6515  0.4518  11.00000  0.05    0.18
Q225  1   0.2303  1.0685  0.5692  11.00000  0.05    0.18
Q226  1   0.5913  0.8919  0.5259  11.00000  0.05    0.17
Q227  1   0.5000  1.0000  0.6566  10.50000  0.05    0.17
Q228  1   1.0627  0.6436  0.6971  11.00000  0.05    0.17
Q229  1   0.5000  1.0000  0.4145  10.50000  0.05    0.17
Q230  1   0.2639  0.6151  0.4379  11.00000  0.05    0.17
Q231  1   0.3779  0.6922  0.4236  11.00000  0.05    0.17
Q232  1   0.6669  1.0550  0.5038  11.00000  0.05    0.17
Q233  1   0.1894  0.8265  0.6384  11.00000  0.05    0.17
Q234  1  -0.0029  1.1591  0.6256  11.00000  0.05    0.17
Q235  1   0.8591  0.7374  0.4419  11.00000  0.05    0.17
Q236  1   0.4096  0.7670  0.6537  11.00000  0.05    0.17
Q237  1   0.8857  0.8966  0.4496  11.00000  0.05    0.17
Q238  1   0.6221  0.9307  0.5273  11.00000  0.05    0.17
Q239  1   0.3842  0.6593  0.6349  11.00000  0.05    0.17
Q240  1   0.6262  0.9835  0.5802  11.00000  0.05    0.17
Q241  1   0.7319  0.8511  0.6474  11.00000  0.05    0.17
Q242  1   0.4178  0.7196  0.4267  11.00000  0.05    0.17
Q243  1   0.5484  0.6900  0.4340  11.00000  0.05    0.17
Q244  1   0.0719  1.0948  0.6171  11.00000  0.05    0.17
Q245  1   0.7004  0.9231  0.4206  11.00000  0.05    0.17
Q246  1   0.4551  0.8607  0.4852  11.00000  0.05    0.17
Q247  1   0.4371  0.6833  0.5742  11.00000  0.05    0.17
Q248  1   0.5833  0.5566  0.6118  11.00000  0.05    0.17
Q249  1   0.5474  0.8971  0.6558  11.00000  0.05    0.17
Q250  1   0.7850  0.6353  0.6109  11.00000  0.05    0.17
Q251  1   0.6217  0.9397  0.5917  11.00000  0.05    0.17
Q252  1   0.4106  0.7000  0.5007  11.00000  0.05    0.17
Q253  1   0.6923  0.9418  0.6141  11.00000  0.05    0.17
Q254  1   0.8566  1.0581  0.4910  11.00000  0.05    0.17
Q255  1   0.6305  0.7641  0.5733  11.00000  0.05    0.16
Q256  1   0.7621  1.2137  0.4689  11.00000  0.05    0.16
Q257  1   0.0083  1.1470  0.6167  11.00000  0.05    0.16
Q258  1   0.8151  0.7847  0.5879  11.00000  0.05    0.16
Q259  1   0.3411  0.6559  0.6476  11.00000  0.05    0.16
Q260  1   0.1779  1.0760  0.6601  11.00000  0.05    0.16
Q261  1   0.8590  0.9126  0.5869  11.00000  0.05    0.16
Q262  1   0.6024  0.6180  0.5886  11.00000  0.05    0.16
Q263  1   0.4737  0.8997  0.4647  11.00000  0.05    0.16
Q264  1   0.4805  0.8613  0.5823  11.00000  0.05    0.16
Q265  1   0.2168  0.6398  0.4800  11.00000  0.05    0.16
Q266  1   0.5946  0.4756  0.6481  11.00000  0.05    0.16
Q267  1   0.3736  0.5196  0.6176  11.00000  0.05    0.16
Q268  1   0.7366  1.0771  0.5061  11.00000  0.05    0.16
Q269  1   0.6053  0.8136  0.4286  11.00000  0.05    0.16
Q270  1   0.2672  1.0126  0.6057  11.00000  0.05    0.16
Q271  1   0.5980  0.9663  0.4126  11.00000  0.05    0.16
Q272  1   0.3728  0.6768  0.6179  11.00000  0.05    0.16
Q273  1   0.5666  1.0999  0.5771  11.00000  0.05    0.16
Q274  1   0.7384  0.6941  0.6187  11.00000  0.05    0.16
Q275  1   0.4447  0.6992  0.6584  11.00000  0.05    0.16
Q276  1   0.4202  0.7387  0.4290  11.00000  0.05    0.16
Q277  1   0.5027  0.7960  0.4726  11.00000  0.05    0.16
Q278  1  -0.0351  0.0042  0.6815  11.00000  0.05    0.16
Q279  1   0.5949  1.1119  0.5252  11.00000  0.05    0.16
Q280  1   0.8342  0.8309  0.4468  11.00000  0.05    0.16
Q281  1   0.2848  0.8555  0.5729  11.00000  0.05    0.16
Q282  1   0.9194  1.0349  0.4752  11.00000  0.05    0.16
Q283  1   0.5134  0.8911  0.7049  11.00000  0.05    0.16
Q284  1   0.8822  0.7111  0.4589  11.00000  0.05    0.16
Q285  1   0.5981  0.7289  0.4264  11.00000  0.05    0.16
Q286  1   0.2878  1.0955  0.6124  11.00000  0.05    0.16
Q287  1   0.5885  1.0127  0.5531  11.00000  0.05    0.16
Q288  1   0.6605  0.6235  0.4923  11.00000  0.05    0.16
Q289  1   0.5394  0.4103  0.4156  11.00000  0.05    0.16
Q290  1   1.1577  0.7373  0.6926  11.00000  0.05    0.16
Q291  1   0.6010  1.0954  0.4382  11.00000  0.05    0.16
Q292  1   0.6091  0.9353  0.5061  11.00000  0.05    0.16
Q293  1   0.4984  0.8814  0.5812  11.00000  0.05    0.16
Q294  1   0.7620  0.6706  0.4385  11.00000  0.05    0.15
Q295  1   0.8253  1.0522  0.5028  11.00000  0.05    0.15
Q296  1   0.5609  0.8893  0.5073  11.00000  0.05    0.15
Q297  1   0.6921  0.9032  0.6975  11.00000  0.05    0.15
Q298  1   0.6780  0.9543  0.6102  11.00000  0.05    0.15
Q299  1   0.6435  0.8606  0.6046  11.00000  0.05    0.15
Q300  1   0.0377  1.0959  0.6099  11.00000  0.05    0.15
Q301  1   0.6792  0.9259  0.4613  11.00000  0.05    0.15
Q302  1   0.1502  1.0633  0.6116  11.00000  0.05    0.15
Q303  1   0.3919  0.6382  0.6263  11.00000  0.05    0.15
Q304  1   0.8127  1.2299  0.4589  11.00000  0.05    0.15
Q305  1   0.0923  0.9002  0.6422  11.00000  0.05    0.15
Q306  1   0.3392  0.6054  0.5888  11.00000  0.05    0.15
Q307  1   0.6471  0.5394  0.4860  11.00000  0.05    0.15
Q308  1   0.7105  0.7027  0.7475  11.00000  0.05    0.15
Q309  1   0.4795  0.7866  0.4626  11.00000  0.05    0.15
Q310  1   0.6436  0.9227  0.5216  11.00000  0.05    0.15
Q311  1   0.4957  0.7791  0.4418  11.00000  0.05    0.15
Q312  1   0.5014  0.7141  0.5800  11.00000  0.05    0.15
Q313  1   0.7022  0.6841  0.7489  11.00000  0.05    0.15
Q314  1   0.7837  0.6864  0.4434  11.00000  0.05    0.15
Q315  1   0.5194  0.8229  0.6232  11.00000  0.05    0.15
Q316  1   0.6391  0.6414  0.7439  11.00000  0.05    0.15
Q317  1   0.2859  0.9966  0.6549  11.00000  0.05    0.15
Q318  1   0.7671  0.6805  0.6118  11.00000  0.05    0.15
Q319  1   0.4750  0.8396  0.5316  11.00000  0.05    0.15
Q320  1   0.7829  0.8440  0.5927  11.00000  0.05    0.15
Q321  1   0.2739  0.6730  0.4437  11.00000  0.05    0.15
Q322  1   0.7691  0.6266  0.6997  11.00000  0.05    0.14
Q323  1   0.8347  0.5215  0.7126  11.00000  0.05    0.14
Q324  1   0.5114  0.8790  0.7145  11.00000  0.05    0.14
Q325  1   0.8854  1.1028  0.4839  11.00000  0.05    0.14
Q326  1   0.9483  0.9733  0.4686  11.00000  0.05    0.14
Q327  1   0.5369  0.8822  0.7144  11.00000  0.05    0.14
Q328  1   0.6262  0.7960  0.4888  11.00000  0.05    0.14
Q329  1   0.7673  0.8712  0.4272  11.00000  0.05    0.14
Q330  1   0.7963  0.8901  0.4886  11.00000  0.05    0.14
Q331  1   0.1332  0.5000  0.7500  10.50000  0.05    0.14
Q332  1   0.5362  1.0475  0.7144  11.00000  0.05    0.14
Q333  1   0.5864  0.5000  0.7500  10.50000  0.05    0.14
Q334  1   0.5605  1.0318  0.6169  11.00000  0.05    0.14
Q335  1   0.6938  1.0587  0.5272  11.00000  0.05    0.14
Q336  1   0.8026  1.1896  0.4741  11.00000  0.05    0.14
Q337  1   0.4090  0.6111  0.5942  11.00000  0.05    0.14
Q338  1   0.1797  0.8812  0.5748  11.00000  0.05    0.14
Q339  1   0.1886  1.0652  0.6036  11.00000  0.05    0.14
Q340  1   0.7158  0.8297  0.4902  11.00000  0.05    0.14
Q341  1   0.8054  1.1361  0.4711  11.00000  0.05    0.14
Q342  1   0.8944  0.8776  0.5894  11.00000  0.05    0.14
Q343  1   0.5125  0.8476  0.6272  11.00000  0.05    0.14
Q344  1   0.6747  0.9974  0.4788  11.00000  0.05    0.14
Q345  1   0.6202  0.7978  0.6594  11.00000  0.05    0.14
Q346  1   0.8742  0.7031  0.6005  11.00000  0.05    0.14
Q347  1   0.4853  0.7492  0.6185  11.00000  0.05    0.14
Q348  1   0.8039  1.0554  0.4354  11.00000  0.05    0.14
Q349  1   0.6721  0.9791  0.6026  11.00000  0.05    0.14
Q350  1   0.1357  1.2205  0.6822  11.00000  0.05    0.14
Q351  1   0.5568  0.7600  0.5800  11.00000  0.05    0.14
Q352  1   0.8080  0.6951  0.4460  11.00000  0.05    0.14
Q353  1   0.6204  0.6910  0.4699  11.00000  0.05    0.14
Q354  1   0.4385  0.8461  0.5047  11.00000  0.05    0.14
Q355  1   0.9423  1.0573  0.4290  11.00000  0.05    0.14
Q356  1   0.5214  0.7655  0.5063  11.00000  0.05    0.14
Q357  1   0.5409  0.7832  0.4609  11.00000  0.05    0.14
Q358  1   0.7590  0.8649  0.7374  11.00000  0.05    0.14
Q359  1   0.6518  1.0000  0.7500  10.50000  0.05    0.13
Q360  1   0.4615  0.7326  0.7384  11.00000  0.05    0.13
Q361  1   0.2378  0.6666  0.4378  11.00000  0.05    0.13
Q362  1   0.8910  0.6388  0.6418  11.00000  0.05    0.13
Q363  1   0.5118  0.7593  0.6152  11.00000  0.05    0.13
Q364  1   0.6140  0.6584  0.6528  11.00000  0.05    0.13
Q365  1  -0.0564 -0.0152  0.6973  11.00000  0.05    0.13
Q366  1   0.2781  0.7132  0.6031  11.00000  0.05    0.13
Q367  1   0.3599  0.7431  0.7000  11.00000  0.05    0.13
Q368  1   0.7859  1.1484  0.4754  11.00000  0.05    0.13
Q369  1   0.8169  1.1512  0.4689  11.00000  0.05    0.13
Q370  1   0.5787  0.5360  0.6393  11.00000  0.05    0.13
Q371  1   0.7926  0.8177  0.5995  11.00000  0.05    0.13
Q372  1   0.5598  0.7416  0.6139  11.00000  0.05    0.13
Q373  1   0.8309  0.9107  0.5700  11.00000  0.05    0.13
Q374  1   0.4566  0.6580  0.6214  11.00000  0.05    0.13
Q375  1   0.6119  0.5484  0.6943  11.00000  0.05    0.13
Q376  1   0.1969  0.8757  0.6200  11.00000  0.05    0.13
Q377  1   0.6547  0.6273  0.4827  11.00000  0.05    0.13
Q378  1   0.4431  0.7554  0.4343  11.00000  0.05    0.13
Q379  1   0.8705  0.7016  0.6140  11.00000  0.05    0.13
Q380  1   0.5405  0.4854  0.4889  11.00000  0.05    0.13
Q381  1   0.0971  0.5052  0.7581  11.00000  0.05    0.13
Q382  1   0.6693  0.5982  0.5888  11.00000  0.05    0.13
Q383  1   0.8160  1.1717  0.4729  11.00000  0.05    0.13
Q384  1   0.5142  0.8350  0.5875  11.00000  0.05    0.13
Q385  1   0.5202  1.0224  0.6575  11.00000  0.05    0.13
Q386  1   0.5467  0.4205  0.4301  11.00000  0.05    0.13
Q387  1   0.6084  0.7400  0.7421  11.00000  0.05    0.13
Q388  1  -0.0353  0.0958  0.6440  11.00000  0.05    0.13
Q389  1   0.4381  0.7490  0.4173  11.00000  0.05    0.13
Q390  1   0.3553  0.7080  0.4762  11.00000  0.05    0.13
Q391  1   0.2510  0.7366  0.6818  11.00000  0.05    0.13
Q392  1   0.7322  0.7622  0.6178  11.00000  0.05    0.13
Q393  1   0.8216  0.8999  0.4866  11.00000  0.05    0.13
Q394  1   0.6984  0.7988  0.4679  11.00000  0.05    0.13
Q395  1   0.3666  0.6963  0.5732  11.00000  0.05    0.13
Q396  1   0.6614  0.8414  0.6810  11.00000  0.05    0.13
Q397  1   0.6809  1.0288  0.4762  11.00000  0.05    0.13
Q398  1   0.7639  1.0026  0.5091  11.00000  0.05    0.13
Q399  1   0.6298  0.6191  0.5979  11.00000  0.05    0.13
Q400  1   0.7666  0.9749  0.5503  11.00000  0.05    0.13
Q401  1   0.2974  0.4911  0.7556  11.00000  0.05    0.13
Q402  1   0.1360  1.1252  0.6946  11.00000  0.05    0.13
Q403  1   0.5587  0.7606  0.6622  11.00000  0.05    0.13
Q404  1   0.3122  0.9240  0.6318  11.00000  0.05    0.13
Q405  1   0.7507  1.1372  0.4230  11.00000  0.05    0.13
Q406  1   0.6463  0.6604  0.7466  11.00000  0.05    0.13
Q407  1   0.5045  0.7461  0.6971  11.00000  0.05    0.13
Q408  1   0.6590  0.9796  0.6433  11.00000  0.05    0.13
Q409  1   0.2825  0.7456  0.4260  11.00000  0.05    0.13
Q410  1   0.7673  0.3214  0.6919  11.00000  0.05    0.13
Q411  1   0.5457  0.8151  0.5082  11.00000  0.05    0.13
Q412  1   0.6993  0.8788  0.4257  11.00000  0.05    0.12
Q413  1   0.6628  0.6775  0.6449  11.00000  0.05    0.12
Q414  1   0.8207  0.7460  0.6731  11.00000  0.05    0.12
Q415  1   0.2896  0.7173  0.4672  11.00000  0.05    0.12
Q416  1   0.8853  0.9696  0.4721  11.00000  0.05    0.12
Q417  1   0.0919  0.9255  0.6841  11.00000  0.05    0.12
Q418  1   0.7216  0.6415  0.6268  11.00000  0.05    0.12
Q419  1   0.8086  0.7452  0.4780  11.00000  0.05    0.12
Q420  1   0.7284  0.7741  0.5919  11.00000  0.05    0.12
Q421  1   0.6002  0.5839  0.4300  11.00000  0.05    0.12
Q422  1   0.3074  0.6801  0.5983  11.00000  0.05    0.12
Q423  1   0.2473  0.7622  0.5935  11.00000  0.05    0.12
Q424  1   0.5426  0.6347  0.4846  11.00000  0.05    0.12
Q425  1   0.8866  0.7474  0.4471  11.00000  0.05    0.12
Q426  1   0.6629  0.5637  0.6936  11.00000  0.05    0.12
Q427  1   0.5291  0.5802  0.6864  11.00000  0.05    0.12
Q428  1   0.4971  0.9174  0.6700  11.00000  0.05    0.12
Q429  1   0.6054  0.7615  0.6386  11.00000  0.05    0.12
Q430  1   0.6821  0.9953  0.6892  11.00000  0.05    0.12
Q431  1   0.5077  0.4615  0.6821  11.00000  0.05    0.12
Q432  1   0.4722  0.9422  0.5265  11.00000  0.05    0.12
Q433  1   0.0461  0.7706  0.7561  11.00000  0.05    0.12
Q434  1   0.8082  0.5167  0.6440  11.00000  0.05    0.12
Q435  1   1.0000  0.5000  0.6447  10.50000  0.05    0.12
Q436  1   0.4932  0.8092  0.5251  11.00000  0.05    0.12
Q437  1   0.5325  0.4997  0.6991  11.00000  0.05    0.12
Q438  1   0.7597  0.6341  0.6894  11.00000  0.05    0.12
Q439  1   0.7501  0.9434  0.6898  11.00000  0.05    0.12
Q440  1   0.6864  0.9401  0.6270  11.00000  0.05    0.12
Q441  1   0.6585  0.9972  0.5405  11.00000  0.05    0.12
Q442  1   0.6792  0.6860  0.6214  11.00000  0.05    0.12
Q443  1   0.6849  0.7444  0.4096  11.00000  0.05    0.12
Q444  1   0.7829  0.7635  0.7461  11.00000  0.05    0.12
Q445  1   0.9180  1.0992  0.7397  11.00000  0.05    0.12
Q446  1   0.6448  0.5368  0.4930  11.00000  0.05    0.12
Q447  1  -0.0268  0.0888  0.6933  11.00000  0.05    0.12
Q448  1   0.2725  0.4563  0.7498  11.00000  0.05    0.12
Q449  1   0.8711  0.7516  0.6973  11.00000  0.05    0.12
Q450  1   0.4052  0.6433  0.6939  11.00000  0.05    0.12
Q451  1   0.9527  0.8923  0.4270  11.00000  0.05    0.12
Q452  1   0.5071  0.9465  0.5408  11.00000  0.05    0.12
Q453  1   0.9536  0.9651  0.7521  11.00000  0.05    0.12
Q454  1   0.2196  0.8459  0.5971  11.00000  0.05    0.12
Q455  1   0.3913  0.8180  0.4728  11.00000  0.05    0.12
Q456  1   0.3378  0.6590  0.6822  11.00000  0.05    0.12
Q457  1   0.5996  0.5585  0.7476  11.00000  0.05    0.12
Q458  1   0.6843  0.6818  0.4763  11.00000  0.05    0.12
Q459  1   0.9831  0.7702  0.4762  11.00000  0.05    0.12
Q460  1   0.7832  0.6609  0.5962  11.00000  0.05    0.12
Q461  1   0.2015  1.1537  0.6504  11.00000  0.05    0.12
Q462  1   0.8920  1.1231  0.7387  11.00000  0.05    0.12
Q463  1   0.4659  0.8140  0.5768  11.00000  0.05    0.12
Q464  1   0.7526  0.7585  0.7591  11.00000  0.05    0.12
Q465  1   0.6289  1.1386  0.6884  11.00000  0.05    0.12
Q466  1   0.5009  0.5366  0.4517  11.00000  0.05    0.12
Q467  1   0.0768  1.1950  0.6386  11.00000  0.05    0.12
Q468  1   0.9890  0.8019  0.6795  11.00000  0.05    0.12
Q469  1   0.3993  0.6468  0.4912  11.00000  0.05    0.12
Q470  1   0.6741  0.5570  0.4371  11.00000  0.05    0.12
Q471  1   0.6198  0.6373  0.4719  11.00000  0.05    0.12
Q472  1   0.7405  1.1799  0.4772  11.00000  0.05    0.12
Q473  1   0.6805  1.0427  0.6786  11.00000  0.05    0.12
Q474  1   0.5496  0.7859  0.6859  11.00000  0.05    0.11
Q475  1   0.8001  0.8634  0.4737  11.00000  0.05    0.11
Q476  1   0.8634  0.9771  0.4970  11.00000  0.05    0.11
Q477  1   0.9392  0.8238  0.7404  11.00000  0.05    0.11
Q478  1   0.7436  0.7181  0.6254  11.00000  0.05    0.11
Q479  1   0.5506  0.6047  0.7391  11.00000  0.05    0.11
Q480  1   0.5000  0.5000  0.6645  10.50000  0.05    0.11
Q481  1   0.6366  0.5525  0.4439  11.00000  0.05    0.11
Q482  1   0.6037  0.5550  0.6848  11.00000  0.05    0.11
Q483  1   0.3774  0.7230  0.6971  11.00000  0.05    0.11
Q484  1   0.6878  0.9156  0.6401  11.00000  0.05    0.11
Q485  1   0.7521  0.7158  0.7350  11.00000  0.05    0.11
Q486  1   0.6131  0.9568  0.6039  11.00000  0.05    0.11
Q487  1   0.2182  1.0989  0.6603  11.00000  0.05    0.11
Q488  1   0.9407  0.8454  0.6919  11.00000  0.05    0.11
Q489  1   0.3202  0.7460  0.6763  11.00000  0.05    0.11
Q490  1   0.6895  0.8218  0.5841  11.00000  0.05    0.11
Q491  1   0.4588  0.6770  0.6301  11.00000  0.05    0.11
Q492  1   0.9060  0.7680  0.4324  11.00000  0.05    0.11
Q493  1   0.7246  0.9786  0.4369  11.00000  0.05    0.11
Q494  1   0.6492  0.9853  0.7389  11.00000  0.05    0.11
Q495  1   0.8323  1.1260  0.4252  11.00000  0.05    0.11
Q496  1   0.6934  0.3922  0.6918  11.00000  0.05    0.11
Q497  1   0.6040  0.5618  0.6766  11.00000  0.05    0.11
Q498  1   0.7176  1.1535  0.6836  11.00000  0.05    0.11
Q499  1   0.5005  0.4901  0.6795  11.00000  0.05    0.11
Q500  1   0.1270  1.1613  0.6360  11.00000  0.05    0.11
;
_shelx_res_checksum              50529
_shelx_fab_file
;
    1    2    0      2.51     -2.73
    2    2    0   -402.29     34.37
    0    3    0    -61.20      5.00
    2    3    0    -29.59     -6.02
    3    3    0   -549.99     -7.38
    0    4    0    449.34     -6.58
    1    4    0      0.82      0.56
    2    4    0    -38.73      1.69
    3    4    0    -36.44     -4.51
    4    4    0     75.54      4.30
    0    5    0    121.83     -4.66
    1    5    0    148.62     15.92
    2    5    0    -44.06     -6.34
    3    5    0    -28.94      1.32
    4    5    0     35.02    -13.48
    5    5    0     75.76      2.13
    0    6    0    116.73     29.28
    1    6    0      7.62     -4.61
    2    6    0    -10.89    -13.27
    3    6    0     -2.50    -23.24
    4    6    0    196.79     10.92
    5    6    0    -39.50     -2.51
    6    6    0     53.65     -8.86
    0    7    0     36.88     -0.96
    1    7    0     94.88     -9.92
    2    7    0   -119.65     -2.27
    3    7    0    -29.01     -7.25
    4    7    0    -13.68     -1.32
    5    7    0    103.42     -5.68
    6    7    0    -10.86     -1.31
    7    7    0    -28.66      5.92
    0    8    0   -140.83    -26.77
    1    8    0    -29.85      3.13
    2    8    0     71.62     -0.74
    3    8    0    -68.70      0.72
    4    8    0    -63.52      2.33
    5    8    0     -9.62      5.23
    6    8    0      6.64     -7.13
    7    8    0    -17.04      0.65
    8    8    0     96.93     -1.38
    0    9    0    -16.74      3.70
    1    9    0    -76.53      9.51
    2    9    0     21.86     -4.44
    3    9    0    -12.98     -1.03
    4    9    0     -7.57      1.64
    5    9    0     17.34      6.70
    6    9    0    -24.36      5.77
    7    9    0      4.18     -3.22
    8    9    0     28.90      2.10
    9    9    0     91.84     -8.52
    0   10    0    121.98      7.75
    1   10    0      8.94     -0.08
    2   10    0    -26.01     -1.95
    3   10    0     -7.97     -5.38
    4   10    0     73.45      2.67
    5   10    0     31.17      0.28
    6   10    0     37.60      1.47
    7   10    0      1.18     -1.41
    8   10    0     11.18      4.07
    9   10    0     16.17     -3.36
   10   10    0      2.79      0.86
    0   11    0      4.78     -3.39
    1   11    0     49.92      9.96
    2   11    0    -13.77     -5.44
    3   11    0     35.27     -4.81
    4   11    0      5.49     -2.99
    5   11    0      2.56      9.21
    6   11    0      9.26     -0.92
    7   11    0     10.67      1.82
    8   11    0    -11.41    -10.43
    9   11    0    -25.00      3.48
   10   11    0     21.37      5.20
   11   11    0     -8.44      2.56
    0   12    0   -108.00     30.53
    1   12    0      6.29     -9.05
    2   12    0     48.19      1.49
    3   12    0     -2.51     -7.10
    4   12    0    -47.74      6.03
    5   12    0    -27.09     -1.29
    6   12    0    -26.66     -0.40
    7   12    0      6.21     -1.49
    8   12    0    -11.72     -0.77
    9   12    0     -0.36     -1.73
   10   12    0     -3.83     -4.26
   11   12    0     -7.14     -1.94
   12   12    0     -4.71     -1.65
    0   13    0    -11.18      5.59
    1   13    0    -34.55      4.04
    2   13    0     -7.58     -4.66
    3   13    0    -16.14      2.68
    4   13    0      2.82     -5.61
    5   13    0     36.04     -1.66
    6   13    0      7.34      5.04
    7   13    0     -9.58      0.49
    8   13    0     -8.50     -7.76
    9   13    0      5.93      1.28
   10   13    0      5.73      6.03
   11   13    0     -4.05     -0.69
   12   13    0      0.61     -1.19
   13   13    0      0.32     -1.76
    0   14    0      7.13     -2.56
    1   14    0     -0.93      0.74
    2   14    0    -22.83     -4.67
    3   14    0     -4.43     -0.18
    4   14    0      1.77     -1.84
    5   14    0      4.06      1.41
    6   14    0     -9.53     -0.21
    7   14    0     21.04     -0.91
    8   14    0     23.68     -3.56
    9   14    0      0.47      0.78
   10   14    0      9.05      1.51
   11   14    0      0.74     -0.53
   12   14    0     -1.32      0.55
   13   14    0      6.55      0.61
   14   14    0      8.35      0.08
    0   15    0      2.92     -0.79
    1   15    0     15.73     -1.23
    2   15    0     34.86     -0.65
    3   15    0     13.64     -0.21
    4   15    0    -15.70      4.78
    5   15    0      0.83     -1.55
    6   15    0    -12.18      2.76
    7   15    0     -6.81     -0.80
    8   15    0     10.64     -3.89
    9   15    0    -13.19     -0.79
   10   15    0     13.68     -0.76
   11   15    0     -7.15     -1.73
   12   15    0      3.24     -1.72
   13   15    0     -5.44     -0.19
   14   15    0     -7.61     -2.13
   15   15    0     -9.31     -2.76
    0   16    0      4.63     -5.97
    1   16    0     -0.06      5.29
    2   16    0    -11.23      0.13
    3   16    0      6.39     -0.02
    4   16    0     16.55     -1.47
    5   16    0     10.05      6.17
    6   16    0     -9.65     -2.39
    7   16    0     -2.67     -2.00
    8   16    0    -38.89      0.74
    9   16    0     -8.90      2.81
   10   16    0    -14.04     -2.10
   11   16    0      6.39    -10.11
   12   16    0     -3.80      0.97
   13   16    0     -0.16     -0.12
   14   16    0     -4.71     -1.53
    0   17    0     31.22      6.31
    1   17    0     28.27      2.72
    2   17    0      7.28     -5.29
    3   17    0     10.88      0.84
    4   17    0     -7.86      4.45
    5   17    0     -8.29     -0.78
    6   17    0      9.78      2.68
    7   17    0     -3.84     -1.77
    8   17    0      4.16     -1.21
    9   17    0    -13.82     -0.35
   10   17    0    -13.18     -0.36
   11   17    0     -3.24     -0.59
   12   17    0     -7.06     -0.13
   13   17    0      8.54     -0.16
   14   17    0      1.59     -1.42
    0   18    0      4.31     -5.62
    1   18    0      9.53     -1.03
    2   18    0      3.57      1.36
    3   18    0     -3.74     -1.78
    4   18    0      0.34      1.73
    5   18    0      8.29      5.66
    6   18    0     -5.13      0.54
    7   18    0     -4.05     -3.48
    8   18    0     -2.66      1.31
    9   18    0     -0.42      0.03
   10   18    0     -0.68     -2.05
   11   18    0     -5.28      1.18
   12   18    0     -4.31     -0.36
    0   19    0     -6.97      3.69
    1   19    0     -7.84     -1.71
    2   19    0     -1.55    -14.21
    3   19    0     -5.94      1.76
    4   19    0     -0.42     -1.86
    5   19    0      4.59     -0.37
    6   19    0     -9.46     -2.62
    7   19    0     -7.29      1.85
    8   19    0     -3.49      1.33
    9   19    0      1.84     -0.44
   10   19    0     -3.06     -1.09
   11   19    0     10.73      4.15
    0   20    0     -8.73     -3.12
    1   20    0      6.49      1.50
    2   20    0      8.35      3.97
    3   20    0     -8.97    -14.91
    4   20    0      3.15      0.27
    5   20    0     -7.04      0.91
    6   20    0    -11.68     -1.02
    7   20    0    -15.85     -3.49
    9   20    0     -0.96     -3.00
    0   21    0     11.14      1.96
    1   21    0     -6.01      2.36
    2   21    0      3.75     -5.02
    3   21    0     -8.98      0.36
    4   21    0      2.83     -0.09
    5   21    0      9.02      2.12
    6   21    0     -3.22     -0.16
    0   22    0     13.20      1.24
    1   22    0      6.57      3.49
    2   22    0    -24.38      2.50
    1    2    1    -16.30    192.62
    0    2    1     -3.83     19.63
    2    3    1    196.70      3.84
    1    3    1     35.83     -5.30
    0    3    1     29.07   -105.21
    3    4    1    105.22    -98.80
    2    4    1    -63.64     -8.62
    1    4    1    -27.18     11.71
    0    4    1     -5.14    -21.77
    4    5    1    -82.14      3.85
    3    5    1      9.57     15.75
    2    5    1     38.61   -170.33
    1    5    1    -56.83     -5.62
    0    5    1     21.09    317.46
    5    6    1    -99.19     -8.28
    4    6    1    -43.07     41.91
    3    6    1      3.40    -80.85
    2    6    1     22.52    -13.08
    1    6    1     13.87     62.01
    0    6    1      4.84     31.51
    6    7    1    -48.72     -5.93
    5    7    1      6.03      4.37
    4    7    1    -19.09    -49.53
    3    7    1    -51.91     30.89
    2    7    1     21.65     10.61
    1    7    1    -11.45      2.58
    0    7    1    -48.92     18.17
    7    8    1     39.82    -23.34
    6    8    1      6.71     -3.92
    5    8    1     -2.68     17.23
    4    8    1    -13.51      0.08
    3    8    1     32.67    -16.34
    2    8    1    -55.71      4.93
    1    8    1     32.02     71.89
    0    8    1     -4.87      0.03
    8    9    1     23.37    -49.87
    7    9    1     -7.03     -8.04
    6    9    1     -6.60     -4.34
    5    9    1      6.70      7.89
    4    9    1     -6.82    -30.96
    3    9    1    -29.15    -19.55
    2    9    1     26.44     62.22
    1    9    1     26.80      2.68
    0    9    1      2.57     -1.32
    9   10    1      3.82    -12.14
    8   10    1      6.88    -17.53
    7   10    1     -0.99    -24.68
    6   10    1      3.07    -16.66
    5   10    1    -18.51    -15.80
    4   10    1     -6.81    -17.38
    3   10    1     17.72    -34.58
    2   10    1     -2.26      7.89
    1   10    1      4.29    -57.31
    0   10    1     -2.79    -16.42
   10   11    1     -2.28      2.57
    9   11    1     -9.26     -4.33
    8   11    1    -11.46      8.65
    7   11    1     -7.89    -14.00
    6   11    1     -0.71     -6.96
    5   11    1     16.72      0.85
    4   11    1    -12.31    -32.24
    3   11    1    -33.68     -9.69
    2   11    1     19.63     30.86
    1   11    1    -18.21      7.79
    0   11    1     14.23   -135.13
   11   12    1     -4.05    -10.82
   10   12    1      2.24     13.06
    9   12    1      4.53     28.86
    8   12    1     -3.18    -16.32
    7   12    1     -6.21     14.45
    6   12    1     -0.45      1.44
    5   12    1      4.96     11.95
    4   12    1     -6.49     -8.74
    3   12    1      9.43      0.37
    2   12    1    -13.73      8.22
    1   12    1     25.67    -10.61
    0   12    1      3.56     18.60
   12   13    1      3.86    -26.77
   11   13    1      2.33      7.81
   10   13    1     -3.65      9.83
    9   13    1     -8.33      9.08
    8   13    1      4.59     14.34
    7   13    1     -5.62    -11.39
    6   13    1     -3.91      8.53
    5   13    1      6.51      4.48
    4   13    1    -11.54     -3.59
    3   13    1      2.98     -5.21
    2   13    1    -10.42     11.57
    1   13    1     -2.80      6.21
    0   13    1     10.07    -49.24
   13   14    1     -2.82    -11.79
   12   14    1     -2.27    -14.00
   11   14    1      0.46     -4.99
   10   14    1      1.50     14.01
    9   14    1      5.55     -9.29
    8   14    1     -7.83      1.71
    7   14    1     -0.70    -20.10
    6   14    1     -1.72     26.99
    5   14    1      3.26     -6.62
    4   14    1      6.98     -6.48
    3   14    1    -35.21      5.33
    2   14    1    -10.80      0.65
    1   14    1      6.47     -3.78
    0   14    1     -1.93     13.59
   14   15    1     -8.52      6.30
   13   15    1     -3.40     -3.70
   12   15    1      0.84      7.43
   11   15    1      4.28     -1.08
   10   15    1     -3.69    -18.55
    9   15    1     -2.71      6.27
    8   15    1     13.65    -26.72
    7   15    1     -4.51     12.28
    6   15    1    -13.49    -26.89
    5   15    1      1.99     17.87
    4   15    1     13.63     10.81
    3   15    1      6.81    -13.75
    2   15    1      7.94      1.49
    1   15    1    -13.94     16.12
    0   15    1      4.41    -15.04
   15   16    1      3.02      7.07
   14   16    1     -6.90     -7.95
   13   16    1     -5.94     -6.66
   12   16    1      7.31     -8.05
   11   16    1     -9.17      0.50
   10   16    1      2.13     -5.08
    9   16    1      2.92      0.89
    8   16    1     -3.95     -4.23
    7   16    1     -8.62      8.96
    6   16    1      5.98      2.50
    5   16    1      7.26    -15.57
    4   16    1     -3.19    -14.16
    3   16    1     -8.02     -3.16
    2   16    1    -13.75      6.45
    1   16    1      1.17      6.19
    0   16    1      0.96      6.74
   14   17    1      2.76      3.92
   13   17    1      2.59      2.02
   12   17    1     -1.77      0.85
   11   17    1     -4.48     -8.77
   10   17    1     -0.67      5.89
    9   17    1      3.38     -5.93
    8   17    1      3.68     -2.09
    7   17    1      4.68      1.55
    6   17    1     -3.40      2.60
    5   17    1     -6.11      4.38
    4   17    1     -0.55     13.69
    3   17    1     13.08     -9.96
    2   17    1     -7.64     -8.15
    1   17    1      4.42      6.45
    0   17    1     -9.84     34.71
   12   18    1      1.49      5.14
   11   18    1     -0.38     -4.28
   10   18    1      0.59      6.29
    9   18    1      8.01     -2.52
    8   18    1    -12.55     -4.22
    7   18    1     -6.17     -9.78
    6   18    1      3.88      0.95
    5   18    1      9.42      5.91
    4   18    1      8.96      3.26
    3   18    1     11.39     11.84
    2   18    1     -7.61     -8.49
    1   18    1     -3.30    -16.00
    0   18    1     -1.32     16.24
   11   19    1      1.35      5.67
   10   19    1      2.71    -11.30
    9   19    1     -2.96      1.16
    8   19    1     -2.59      5.90
    7   19    1     -3.79      5.82
    6   19    1      1.30     -3.41
    5   19    1      1.92     10.58
    4   19    1      6.99     -6.15
    3   19    1     -8.72      3.67
    2   19    1     -9.71      8.67
    1   19    1      5.68      1.47
    0   19    1     -2.49    -29.23
    9   20    1      2.96     -9.50
    8   20    1      1.53      7.40
    7   20    1     -1.68     13.47
    6   20    1      4.83      9.40
    5   20    1     -9.08      6.92
    4   20    1     -4.06      6.17
    3   20    1     -8.93     -7.47
    2   20    1      4.77     15.50
    1   20    1    -14.79    -12.85
    0   20    1      0.65    -10.75
    6   21    1     -3.06      1.79
    5   21    1      6.02     -0.34
    4   21    1      3.57      1.39
    3   21    1     -2.35      6.25
    2   21    1      1.82     -0.67
    1   21    1     -1.11      7.95
    0   21    1     -1.34     18.21
    2   22    1      1.46     -9.12
    1   22    1     -1.17      2.74
    0   22    1      4.55      2.50
    2    2    2   -166.73    116.57
    1    2    2    -39.91      7.89
    3    3    2    -46.78    -64.66
    2    3    2    -27.66    -23.17
    1    3    2     64.81    -19.04
    0    3    2    -62.22      3.69
    4    4    2   -134.65    -55.41
    3    4    2    -25.78     45.59
    2    4    2     76.92     43.54
    1    4    2    -49.52    -20.70
    5    5    2    128.18    -18.58
    4    5    2     12.21     -0.75
    3    5    2    -23.33     63.99
    2    5    2    -12.69     17.76
    1    5    2    121.89    -18.45
    0    5    2    -27.84    -20.02
    6    6    2     67.11      4.90
    5    6    2      5.31     19.50
    4    6    2    -92.94    -22.89
    3    6    2      6.59     43.35
    2    6    2     26.00     24.03
    1    6    2    -21.48     -7.13
    0    6    2     72.08      9.65
    7    7    2     81.64     16.15
    6    7    2     -9.92     -4.97
    5    7    2    -81.33     83.15
    4    7    2     -2.11     10.01
    3    7    2    -36.99    -67.93
    2    7    2    -40.33      1.26
    1    7    2     17.25     -8.85
    0    7    2    -26.01     -2.82
    8    8    2    -96.83     18.37
    7    8    2    -19.47     -7.18
    6    8    2     -5.67      3.05
    5    8    2     -5.82      0.62
    4    8    2     34.41    -21.10
    3    8    2    -25.93      1.09
    2    8    2    -84.77    -25.08
    1    8    2    -23.63    -15.81
    0    8    2    195.00     62.11
    9    9    2    -64.41     34.00
    8    9    2      0.94    -22.49
    7    9    2    -11.71    -13.95
    6    9    2     -1.53     -6.76
    5    9    2     23.73     46.21
    4    9    2     -5.39      9.96
    3    9    2    -21.63    -33.68
    2    9    2    -16.84     -1.05
    1    9    2     26.80     62.63
    0    9    2    -10.20     -2.16
   10   10    2     -4.57    -36.69
    9   10    2     -6.80      3.54
    8   10    2     -2.66     20.55
    7   10    2    -10.37     -6.48
    6   10    2     21.73      0.93
    5   10    2     18.71     -1.18
    4   10    2    -64.08      2.09
    3   10    2    -22.02     19.63
    2   10    2     28.13    -26.34
    1   10    2     -3.07      3.26
    0   10    2    -83.82     14.68
   11   11    2     -2.33      5.77
   10   11    2     -9.26     -2.53
    9   11    2     31.27     -1.73
    8   11    2      5.94      8.49
    7   11    2    -10.65     11.42
    6   11    2     -4.04      6.86
    5   11    2     13.37    -29.01
    4   11    2    -21.27     -6.32
    3   11    2    -23.73     -3.46
    2   11    2     -0.10     -4.55
    1   11    2     -0.06     30.38
    0   11    2      2.24     -0.41
   12   12    2     18.20      5.60
   11   12    2     -1.27     -0.18
   10   12    2     11.75     -4.04
    9   12    2      6.48     -3.52
    8   12    2     -2.34    -12.42
    7   12    2      7.48     -8.47
    6   12    2     20.22      2.18
    5   12    2    -12.03      6.60
    4   12    2     65.32    -23.27
    3   12    2     -1.01     -7.52
    2   12    2    -34.98      5.30
    1   12    2    -11.35     -7.78
    0   12    2     90.11    -14.52
   13   13    2      4.11     -4.95
   12   13    2    -13.34     -6.12
   11   13    2     11.13    -13.48
   10   13    2     13.01     -3.42
    9   13    2     -1.56     -8.76
    8   13    2     -4.44    -10.18
    7   13    2     21.59     22.02
    6   13    2      0.25     12.35
    5   13    2    -12.61     -9.82
    4   13    2     -4.77     -1.25
    3   13    2     12.30    -16.99
    2   13    2    -16.92      5.68
    1   13    2     22.13     24.21
    0   13    2      9.02     -4.67
   14   14    2    -10.20     -0.43
   13   14    2     -2.78     -6.20
   12   14    2      7.09     -9.67
   11   14    2     10.60      1.06
   10   14    2     -9.00     12.97
    9   14    2    -14.56    -16.05
    8   14    2     -9.48     16.05
    7   14    2      2.58     -0.80
    6   14    2      9.06      2.78
    5   14    2    -15.02     10.88
    4   14    2      0.08    -14.71
    3   14    2    -10.20     -6.35
    2   14    2     20.51     23.25
    1   14    2     -4.95      5.71
    0   14    2     -4.53      9.42
   14   15    2      6.61     -0.46
   13   15    2      5.47     -1.59
   12   15    2    -10.36      7.43
   11   15    2      3.29      8.54
   10   15    2     -5.56      1.32
    9   15    2     12.49      6.79
    8   15    2     -8.57    -10.45
    7   15    2      4.10     13.84
    6   15    2      1.97      4.11
    5   15    2     18.12     -0.45
    4   15    2      0.31     -5.37
    3   15    2     -5.60     -7.77
    2   15    2    -11.26    -26.98
    1   15    2    -13.28     12.10
    0   15    2      8.33      4.80
   15   16    2      8.03     -0.88
   14   16    2      3.26     -3.81
   13   16    2     -3.96     10.42
   12   16    2      0.53     -2.78
   11   16    2      0.26      7.97
   10   16    2     12.36      4.49
    9   16    2      1.84     -2.57
    8   16    2     30.03     -0.05
    7   16    2      1.84      5.71
    6   16    2      7.43     16.87
    5   16    2     -4.33     14.67
    4   16    2     -2.44     -3.03
    3   16    2     -2.19      1.35
    2   16    2      8.64     11.33
    1   16    2     16.22     -0.47
    0   16    2    -21.94      5.74
   14   17    2     -7.60     -3.12
   13   17    2     -3.44     -3.88
   12   17    2      5.68      5.95
   11   17    2     -1.46      6.21
   10   17    2      5.00      0.40
    9   17    2     14.05     -9.79
    8   17    2     -0.75     -9.94
    7   17    2     -0.89      1.36
    6   17    2     -2.50      4.46
    5   17    2      5.55      1.86
    4   17    2     -1.44     11.19
    3   17    2     -6.98     -1.08
    2   17    2      6.91     -7.83
    1   17    2    -13.84      9.32
    0   17    2    -12.45     -1.86
   12   18    2      3.22     -3.52
   11   18    2      3.34     -1.76
   10   18    2      5.00     -1.78
    9   18    2      2.05      3.56
    8   18    2     -5.81      0.79
    7   18    2      5.82      3.53
    6   18    2      4.22     -0.23
    5   18    2      1.37     -6.84
    4   18    2      1.28     -6.76
    3   18    2     -0.94      9.22
    2   18    2     -2.87      4.47
    1   18    2     -8.17      2.75
    0   18    2      8.78      1.60
   11   19    2     -2.65     -7.19
   10   19    2      3.15     -3.10
    9   19    2     -4.85      0.77
    8   19    2      2.71     -2.73
    7   19    2     10.88     -2.11
    6   19    2      4.90      5.22
    5   19    2      0.16      0.28
    4   19    2     -6.18     -1.84
    3   19    2      3.22      3.90
    2   19    2      2.87     -6.60
    1   19    2     -0.24     11.12
    0   19    2      3.11      1.06
    9   20    2      1.94      3.53
    8   20    2      4.32     -7.61
    7   20    2      9.00     -4.84
    6   20    2      6.94     -0.58
    5   20    2     -1.49      4.09
    4   20    2      5.62      5.51
    3   20    2      9.20      7.69
    2   20    2      2.59     -2.66
    1   20    2     -5.09    -13.78
    0   20    2     13.20      0.05
    6   21    2      2.06     -3.18
    5   21    2     -1.72     -1.20
    4   21    2     -7.24      3.26
    3   21    2      0.27     -4.27
    2   21    2      4.12      0.10
    1   21    2      6.03      4.92
    2   22    2     13.27      4.35
    1   22    2     -0.24     -4.37
    1    2    3    -15.46   -155.27
    0    2    3     -1.31     14.47
    2    3    3    -90.69     23.81
    1    3    3     27.88      2.38
    0    3    3      4.06     76.25
    3    4    3      7.76     -2.75
    2    4    3    -29.05    -34.15
    1    4    3     23.16     -4.60
    0    4    3     -3.70    -33.25
    4    5    3     57.22     13.44
    3    5    3    -20.78     -3.55
    2    5    3     10.97    -21.07
    1    5    3    -37.74     10.43
    0    5    3     -9.79   -340.23
    5    6    3      6.52     19.72
    4    6    3    -12.79     -4.96
    3    6    3     33.33    -29.83
    2    6    3     28.77    -10.21
    1    6    3    -18.43    -64.88
    0    6    3    -18.07     79.91
    6    7    3    -15.11     -4.59
    5    7    3    -14.57      8.88
    4    7    3     38.90    116.71
    3    7    3      7.79     20.68
    2    7    3    -16.38    -30.60
    1    7    3    -33.62    -18.52
    0    7    3     61.21     47.15
    7    8    3     -8.90     26.83
    6    8    3      0.06     -1.04
    5    8    3    -27.72    -43.39
    4    8    3     -4.58     10.92
    3    8    3      2.67    -41.35
    2    8    3    -42.03     -9.97
    1    8    3    -24.99    -31.14
    0    8    3      5.57     -6.35
    8    9    3      9.70     16.07
    7    9    3      5.60      5.81
    6    9    3     20.00    -10.86
    5    9    3      6.16      5.65
    4    9    3     -3.23     10.50
    3    9    3      8.33    -23.68
    2    9    3    -35.09    -69.64
    1    9    3     30.22     -7.37
    0    9    3      2.87     13.87
    9   10    3      2.49     -7.84
    8   10    3     13.46     -3.28
    7   10    3    -12.45     -1.97
    6   10    3     -8.11     -8.99
    5   10    3      1.02     38.48
    4   10    3     15.58     18.01
    3   10    3    -10.02      2.20
    2   10    3     -2.93    -21.91
    1   10    3    -69.56     63.24
    0   10    3      4.85    -32.67
   10   11    3      6.86     10.09
    9   11    3      2.37      8.46
    8   11    3     -4.39     -7.46
    7   11    3    -10.56      2.10
    6   11    3    -10.76      7.94
    5   11    3    -12.85     -9.85
    4   11    3      9.04     33.89
    3   11    3    -27.80     -1.15
    2   11    3     10.39    -30.95
    1   11    3      0.76     -2.44
    0   11    3     -6.52    160.69
   11   12    3     -8.95     20.55
   10   12    3     10.26    -14.85
    9   12    3     -9.65    -24.09
    8   12    3    -21.49      0.31
    7   12    3     -0.02     -0.26
    6   12    3    -20.34      0.41
    5   12    3    -11.41     -2.38
    4   12    3    -16.11     29.42
    3   12    3      6.14     -1.29
    2   12    3     -1.09      6.07
    1   12    3    -27.76     16.32
    0   12    3     -3.40     -3.79
   12   13    3    -10.52     19.21
   11   13    3     -2.66     -2.82
   10   13    3    -18.21     -9.04
    9   13    3      9.31     -9.95
    8   13    3      0.73    -15.67
    7   13    3      2.34      8.07
    6   13    3     -8.74    -14.30
    5   13    3     -8.26     16.53
    4   13    3     10.82    -10.94
    3   13    3     -7.80     14.06
    2   13    3    -24.00    -41.21
    1   13    3     20.13     -4.29
    0   13    3    -10.70     59.76
   13   14    3     -1.45     -8.34
   12   14    3     -0.20      7.49
   11   14    3     -4.49      2.16
   10   14    3     -3.32     -0.64
    9   14    3      0.66      1.28
    8   14    3      3.11      6.54
    7   14    3    -28.74      5.14
    6   14    3     14.84    -15.45
    5   14    3     -2.53     -8.18
    4   14    3    -10.15      0.22
    3   14    3     32.44     -0.17
    2   14    3      5.33     -3.40
    1   14    3      0.97     -8.17
    0   14    3      0.38     -6.32
   14   15    3     14.46     -2.14
   13   15    3      8.97     11.61
   12   15    3      2.50     -6.11
   11   15    3      5.02      0.04
   10   15    3     -6.66      4.14
    9   15    3      1.08    -12.75
    8   15    3     -7.64      9.07
    7   15    3     -3.21    -10.28
    6   15    3      2.70      0.23
    5   15    3     -5.83     -4.07
    4   15    3     31.73     -1.85
    3   15    3     -5.18      8.70
    2   15    3    -18.13    -16.52
    1   15    3      4.21    -21.04
    0   15    3     -4.12      9.88
   15   16    3      0.86      1.87
   14   16    3      8.77     -1.13
   13   16    3     10.96      8.51
   12   16    3     -6.32      2.26
   11   16    3     -0.64     -1.58
   10   16    3      0.69     -1.41
    9   16    3      4.40     -5.04
    8   16    3      3.33     -9.87
    7   16    3     11.12    -12.92
    6   16    3     -6.07      5.24
    5   16    3     31.45     14.70
    4   16    3      5.50      2.27
    3   16    3     -1.01      2.29
    2   16    3     21.70      1.39
    1   16    3     -7.30     20.33
    0   16    3      3.59      4.59
   14   17    3     -5.61     -0.41
   13   17    3     -3.81      2.89
   12   17    3      1.32      1.22
   11   17    3      6.09      3.12
   10   17    3      6.48     -2.07
    9   17    3     -3.25      2.58
    8   17    3      2.09      4.15
    7   17    3     -0.75     -4.83
    6   17    3      6.78    -18.40
    5   17    3      5.91      3.91
    4   17    3     13.55     -4.14
    3   17    3    -16.20      7.92
    2   17    3     -4.74      7.65
    1   17    3     -2.44     -7.59
    0   17    3     16.01    -20.69
   12   18    3     -2.08     -4.93
   11   18    3     -3.03     -1.54
   10   18    3     -0.47     -1.96
    9   18    3      4.51     -0.43
    8   18    3     10.19     -1.70
    7   18    3     -1.46      6.51
    6   18    3     -6.53      1.08
    5   18    3     -2.41      0.01
    4   18    3    -12.60     -4.57
    3   18    3      0.39     -5.27
    2   18    3     -3.23     10.27
    1   18    3     -1.62     -6.60
    0   18    3      6.66    -10.20
   11   19    3     -2.91     -9.76
   10   19    3     -5.34      4.89
    9   19    3     -1.46      2.71
    8   19    3     -6.07     -0.86
    7   19    3     -6.23     -6.68
    6   19    3      0.75      4.29
    5   19    3     -4.90      1.60
    4   19    3     -7.04      9.04
    3   19    3     -0.74     -8.95
    2   19    3      8.38     -3.66
    1   19    3      0.16      2.41
    0   19    3      2.13     20.69
    9   20    3     -5.13      7.51
    8   20    3     -5.02     -7.72
    7   20    3     -3.24     -9.09
    6   20    3     -7.65     -3.50
    5   20    3      8.59      1.30
    4   20    3      8.48     -2.67
    3   20    3      7.54      8.31
    2   20    3     -4.02     -8.42
    1   20    3     -6.50     11.41
    0   20    3      0.56     -1.34
    6   21    3      6.19     -4.03
    5   21    3     -0.83      0.90
    4   21    3      4.51     -0.27
    3   21    3      2.31     -8.15
    1   21    3      2.49     -1.84
    0   21    3      0.85    -10.83
    2   21    3     -3.11      5.14
    2   22    3      2.24      4.22
    1   22    3      1.96     -6.83
    0   22    3     -4.85     -4.19
    2    2    4    107.12   -117.54
    1    2    4    -19.82      1.63
    0    2    4   -120.37    110.87
    3    3    4     28.66    -53.98
    2    3    4    -37.32     53.92
    1    3    4     91.52    -18.66
    0    3    4    -37.80    -16.19
    4    4    4     54.50     48.95
    3    4    4    -33.56     34.34
    2    4    4      3.40     29.61
    1    4    4    -47.69     30.03
    0    4    4    140.57    -18.42
    5    5    4    -82.09    138.41
    4    5    4    -37.08     16.81
    3    5    4     89.46   -105.19
    2    5    4     -6.43     -6.07
    1    5    4   -166.73     18.86
    0    5    4    -18.34     20.41
    6    6    4     94.90    -31.30
    5    6    4     -5.06     12.05
    4    6    4    -16.56     23.69
    3    6    4    -24.28     20.04
    2    6    4     33.98    -31.11
    1    6    4     22.62      4.90
    0    6    4    -44.78    -18.31
    7    7    4    -12.64    -29.91
    6    7    4      2.34    -25.02
    5    7    4     71.21    -20.87
    4    7    4     -7.14    -28.30
    3    7    4     24.82     28.94
    2    7    4      1.48      8.81
    1    7    4     71.32     58.27
    0    7    4    -15.64     -4.22
    8    8    4     43.37    -14.48
    7    8    4      5.09     -8.65
    6    8    4      0.01     -5.60
    5    8    4    -27.81    -18.60
    4    8    4    -70.42     51.56
    3    8    4    -18.22    -29.67
    2    8    4     74.15     59.22
    1    8    4     -1.58     -6.77
    0    8    4   -119.56    -20.47
    9    9    4     14.13    -37.02
    8    9    4      4.39     -0.73
    7    9    4    -12.62     20.47
    6    9    4     -9.16     -2.49
    5    9    4    -35.50    -18.53
    4    9    4    -14.00      3.31
    3    9    4      6.05      6.80
    2    9    4    -24.81     38.97
    1    9    4    -13.18     22.39
    0    9    4     -2.16      1.63
   10   10    4     -6.68     38.03
    9   10    4     -5.88      1.33
    8   10    4      2.61    -27.82
    7   10    4     -4.58     11.55
    6   10    4     -5.57     36.05
    5   10    4    -16.48     21.92
    4   10    4     32.83    -16.17
    3   10    4    -12.70     26.15
    2   10    4     10.88    -19.59
    1   10    4    -16.36    -17.27
    0   10    4     84.35      3.45
   11   11    4    -10.16    -14.64
   10   11    4      1.27      9.17
    9   11    4      7.72      7.60
    8   11    4      3.80    -13.67
    7   11    4     20.25    -18.39
    6   11    4     -3.57     18.54
    5   11    4     -3.81     15.87
    4   11    4     -5.49     -6.88
    3   11    4     31.58     -0.32
    2   11    4     -5.95     -2.47
    1   11    4     46.01     49.81
    0   11    4     16.91     -3.13
   12   12    4      2.10     -7.59
   11   12    4    -11.12      3.60
   10   12    4      3.35     -0.63
    9   12    4     -2.49     -1.38
    8   12    4     13.26    -15.56
    7   12    4      4.06    -10.94
    6   12    4     -4.86      1.40
    5   12    4      0.04    -15.21
    4   12    4    -33.47     -8.45
    3   12    4      9.12     17.08
    2   12    4     65.85      7.80
    1   12    4     17.22      1.10
    0   12    4    -58.11     11.90
   13   13    4      1.84      3.34
   12   13    4      7.11      5.69
   11   13    4     -9.06      5.43
   10   13    4     -4.35      3.36
    9   13    4      8.15     -5.71
    8   13    4     -0.73     -2.31
    7   13    4    -16.20      1.27
    6   13    4     15.87     -0.42
    5   13    4     16.14     -0.21
    4   13    4     -5.94     16.88
    3   13    4    -25.96    -23.48
    2   13    4      2.18      2.84
    1   13    4     -4.64    -13.67
    0   13    4      7.60      2.78
   14   14    4     -5.95      8.36
   13   14    4      2.88      9.50
   12   14    4    -18.65     13.29
   11   14    4     -2.52     -1.92
   10   14    4      8.22     -7.81
    9   14    4     10.41     17.01
    8   14    4     20.23    -18.88
    7   14    4      7.66     -1.30
    6   14    4    -18.34     -1.45
    5   14    4     -7.50     -0.03
    4   14    4     -4.37     -4.65
    3   14    4      7.25      7.07
    2   14    4     -3.21     12.30
    1   14    4     -3.21      0.49
    0   14    4    -29.69     -6.08
   15   15    4     -8.63     -7.74
   14   15    4      8.57     -6.68
   13   15    4      1.22      5.77
   12   15    4      7.87     -1.86
   11   15    4     -2.40     -0.38
   10   15    4     -3.39      4.35
    9   15    4     -1.82    -28.88
    8   15    4      8.03     15.24
    7   15    4     -5.18      0.00
    6   15    4     -3.82      1.32
    5   15    4    -13.71    -14.24
    4   15    4    -10.24      5.42
    3   15    4      2.05     13.28
    2   15    4      0.73     15.22
    1   15    4     -8.91     16.73
    0   15    4     -9.58     -1.52
   15   16    4     -1.68      4.83
   14   16    4      0.17     11.86
   13   16    4     -2.77     -7.29
   12   16    4     -3.16     -5.08
   11   16    4     -3.30     -4.08
   10   16    4      3.76     -9.34
    9   16    4     -4.83      0.91
    8   16    4     -7.72     13.69
    7   16    4     -9.99      5.03
    6   16    4      8.98     -3.02
    5   16    4     -2.92     -3.64
    4   16    4    -19.68    -12.55
    3   16    4    -14.18      2.45
    2   16    4      4.01      5.27
    1   16    4      1.30     16.47
    0   16    4     19.19     -0.82
   14   17    4      5.54     -1.91
   13   17    4      3.85      3.57
   12   17    4     -1.56     -1.16
   11   17    4      5.68      2.45
   10   17    4     -5.22     -2.74
    9   17    4      1.57     13.86
    8   17    4      2.40      5.07
    7   17    4     -0.22      6.74
    6   17    4     -4.89     -1.12
    5   17    4    -15.11    -10.07
    4   17    4      8.11     -8.97
    3   17    4      5.60     -4.32
    2   17    4     -3.79     -6.82
    1   17    4     -1.69     -9.63
    0   17    4     -9.62     -0.85
   12   18    4     -0.17     -0.15
   11   18    4     -4.48     -2.49
   10   18    4     -0.01      7.72
    9   18    4      3.89     -7.17
    8   18    4      0.17     -2.22
    7   18    4      0.67     -2.25
    6   18    4      9.20      1.85
    5   18    4     -4.66     -5.11
    4   18    4     -6.36    -10.39
    3   18    4      1.66    -17.22
    2   18    4     -3.87     -0.61
    1   18    4      5.08     -2.22
   11   19    4      1.21      2.34
   10   19    4     -4.17     -0.09
    9   19    4      8.03     -4.11
    8   19    4      4.57     -0.62
    7   19    4     -0.34      6.89
    6   19    4     -1.74      1.69
    5   19    4      3.12     -4.05
    4   19    4      3.15     -0.24
    3   19    4      1.13     -6.38
    2   19    4     -4.72      2.33
    1   19    4      5.63     10.56
    0   19    4      9.90      0.94
    9   20    4     -3.27     -4.23
    8   20    4     -3.80      1.20
    7   20    4     -2.90     15.99
    6   20    4      6.15      1.52
    5   20    4     -2.83     -6.42
    4   20    4     -2.21      0.46
    3   20    4      7.99      0.68
    2   20    4     -0.11      9.90
    1   20    4     -2.20     11.87
    0   20    4      1.86      0.56
    6   21    4     -7.72     10.57
    5   21    4     -0.08     -0.35
    4   21    4      6.51     -0.47
    3   21    4     -2.99      0.74
    1   21    4      2.79     -4.83
    0   21    4     14.43      1.02
    2   21    4     -2.40      7.59
    1   22    4     -7.49     -0.90
    0   22    4     -0.81      2.68
    2   22    4     -9.04      1.00
    1    2    5     36.64   -133.70
    0    2    5      2.13     35.77
    2    3    5    -39.90    -87.87
    1    3    5     19.62    -12.02
    0    3    5     13.01   -281.10
    3    4    5    -33.12    117.55
    2    4    5     -4.89     -8.52
    1    4    5      7.59    -33.15
    0    4    5    -13.39     -7.19
    4    5    5    -21.97     60.60
    3    5    5      6.40     39.60
    2    5    5    -70.96     31.10
    1    5    5     23.43      9.45
    0    5    5     18.49    188.52
    5    6    5    -36.72      3.70
    4    6    5     27.69    -17.16
    3    6    5    -23.96    132.24
    2    6    5     30.81     35.74
    1    6    5    -15.71    -22.99
    0    6    5     10.89    -23.37
    6    7    5     15.22    -41.33
    5    7    5     -2.30     -0.75
    4    7    5     17.40    -62.69
    3    7    5     -2.15     -4.61
    2    7    5      1.95      8.02
    1    7    5      6.11    -27.21
    0    7    5    -25.45    -90.53
    7    8    5     17.21    -23.60
    6    8    5      6.46      6.40
    5    8    5    -17.12      1.34
    4    8    5     -9.10     -4.56
    3    8    5     49.74     -7.91
    2    8    5      4.59    -16.90
    1    8    5    -14.25     25.03
    0    8    5     -4.47    -25.82
    8    9    5     -6.39      1.08
    7    9    5    -21.98     11.58
    6    9    5     -4.53     -5.12
    5    9    5     -8.50    -17.68
    4    9    5     24.40     38.14
    3    9    5    -16.30     21.74
    2    9    5      6.42     17.07
    1    9    5      0.45     -8.35
    0    9    5      6.53    -48.11
    9   10    5      4.35     -0.91
    8   10    5     -3.13     -2.84
    7   10    5     -0.31     35.69
    6   10    5     -3.38      5.50
    5   10    5      4.78    -18.39
    4   10    5     -2.22      9.16
    3   10    5     29.83      4.64
    2   10    5      7.73     14.29
    1   10    5     -8.06    -36.29
    0   10    5     -5.07    -16.05
   10   11    5     10.83     -9.48
    9   11    5      3.74    -16.71
    8   11    5      1.46      7.91
    7   11    5     19.40    -10.86
    6   11    5    -16.01     -5.07
    5   11    5     16.50     15.81
    4   11    5      2.79    -14.66
    3   11    5     -0.65    -10.21
    2   11    5     25.38     49.10
    1   11    5      4.32     -4.99
    0   11    5      7.59    -36.64
   11   12    5      0.36     -1.83
   10   12    5    -12.40     -8.37
    9   12    5     14.77     -0.87
    8   12    5     12.62     -3.05
    7   12    5    -27.68    -17.74
    6   12    5      8.92      4.36
    5   12    5     14.92      7.03
    4   12    5      7.42     -5.90
    3   12    5      2.86      4.56
    2   12    5    -12.79      7.59
    1   12    5    -26.47     18.40
    0   12    5      1.67    -12.21
   12   13    5     -1.60    -12.92
   11   13    5     -3.13      2.70
   10   13    5     12.34      2.19
    9   13    5     -6.19      7.58
    8   13    5      1.64     -0.21
    7   13    5      1.33    -12.36
    6   13    5      3.69     11.93
    5   13    5    -11.05     10.61
    4   13    5     17.92     -1.23
    3   13    5     21.74     -6.00
    2   13    5    -25.87     29.05
    1   13    5    -14.21     -2.84
    0   13    5     10.38    -13.81
   13   14    5     -3.73      2.95
   12   14    5     -6.94      3.59
   11   14    5     11.68     -2.41
   10   14    5     -1.62     -4.94
    9   14    5     10.53     -2.22
    8   14    5      0.91     -8.96
    7   14    5      3.86      3.93
    6   14    5    -13.36     -0.25
    5   14    5     10.66     -1.46
    4   14    5     16.23      8.48
    3   14    5     -2.71    -13.48
    2   14    5     -0.69      2.25
    1   14    5     -5.37      9.74
    0   14    5     -0.53     -6.76
   14   15    5     -8.89      0.04
   13   15    5     -8.75     -5.02
   12   15    5      2.13     -0.76
   11   15    5     -3.18     -4.11
   10   15    5      6.23     -3.65
    9   15    5      6.70      7.70
    8   15    5      6.36      1.93
    7   15    5      1.80    -12.34
    6   15    5     -9.94     11.05
    5   15    5      4.20     11.37
    4   15    5     -7.11      3.83
    3   15    5      4.35      0.52
    2   15    5     10.14     10.45
    1   15    5    -20.18     20.62
    0   15    5      6.57      7.70
   15   16    5     -1.93     -2.92
   14   16    5     -5.52      3.16
   13   16    5     -5.06    -10.02
   12   16    5      7.11    -10.46
   11   16    5     -6.78      0.52
   10   16    5     10.78      0.18
    9   16    5      5.45     11.86
    8   16    5     12.20      4.52
    7   16    5     -8.36     14.66
    6   16    5      6.14      1.38
    5   16    5    -14.63    -15.58
    4   16    5     -3.02     20.09
    3   16    5     -1.67     -4.50
    2   16    5     11.54     -1.64
    1   16    5    -11.62     -6.92
    0   16    5     -1.09      3.37
   14   17    5      1.60     -8.05
   13   17    5      2.07      6.08
   12   17    5      1.92     -3.99
   11   17    5     -2.85    -10.42
   10   17    5     -2.56     -2.19
    9   17    5      2.42      1.40
    8   17    5     -3.36      6.25
    7   17    5     -4.94     -0.35
    6   17    5    -14.67      7.78
    5   17    5      3.76     11.44
    4   17    5     -1.39      2.85
    3   17    5     13.21      5.50
    2   17    5    -16.13     -2.21
    1   17    5    -14.52      9.80
    0   17    5    -18.59     19.73
   12   18    5     -6.73     -1.84
   11   18    5     -1.88     -4.29
   10   18    5     -3.01      4.06
    9   18    5      1.25     -2.27
    8   18    5     -5.26     -4.47
    7   18    5     -2.69     -8.47
    6   18    5     -5.28      3.12
    5   18    5     -3.88      4.36
    4   18    5      2.62      2.04
    3   18    5      0.96     -0.20
    2   18    5      3.25      2.41
    1   18    5    -12.66      5.05
    0   18    5     -7.76      7.95
   11   19    5      2.31      0.68
   10   19    5     -0.46      2.11
    9   19    5     -2.87     -2.31
    8   19    5      9.26      6.75
    7   19    5      1.21     12.90
    6   19    5      2.42      0.16
    5   19    5     -2.21     -2.22
    4   19    5      8.62     -3.72
    3   19    5     -3.16      1.59
    2   19    5     -6.20      3.93
    1   19    5      0.59     -8.31
    0   19    5     -1.46      2.56
    9   20    5      0.27     -2.66
    7   20    5      0.46      2.72
    6   20    5      1.67      2.78
    5   20    5     -1.05     -2.62
    4   20    5     -4.30     -5.47
    3   20    5     -0.55     -1.24
    2   20    5      3.17     -7.54
    1   20    5     -4.69      5.79
    0   20    5     -3.62      1.33
    8   20    5      5.54      0.56
    6   21    5     -7.94      0.76
    5   21    5     -1.14     -4.40
    4   21    5     -8.39     -0.91
    3   21    5     -3.64      3.39
    2   21    5      1.67      0.82
    1   21    5      7.57     -5.76
    0   21    5      3.46      5.65
    1   22    5     -0.22     -4.65
    0   22    5      7.41      6.26
    2   22    5      1.61     -9.83
    1    1    6    308.68    -37.95
    2    2    6     24.50   -122.01
    1    2    6    -43.09     -9.26
    0    2    6    -85.91    -65.80
    3    3    6    -38.61     39.16
    2    3    6    -28.14     46.63
    1    3    6   -122.40     90.63
    0    3    6    -37.92     -0.12
    4    4    6   -190.13    175.47
    3    4    6    -38.77    -11.69
    2    4    6    130.35    -60.00
    1    4    6    -17.49     -7.09
    0    4    6     52.20     32.70
    5    5    6    164.75     52.26
    4    5    6     -8.34     24.28
    3    5    6    -26.60     20.14
    2    5    6    -22.54      6.36
    1    5    6    202.32     10.78
    0    5    6      0.27    -26.22
    6    6    6    -35.96     -8.60
    5    6    6     -4.37    -17.64
    4    6    6     92.07    -38.05
    3    6    6     -6.77     18.00
    2    6    6     54.07      8.29
    1    6    6    -30.68     33.89
    0    6    6    116.57     52.22
    7    7    6     31.96    -85.19
    6    7    6    -10.23     -7.79
    5    7    6    -52.06     33.37
    4    7    6      4.42     25.40
    3    7    6     75.98    -51.33
    2    7    6    -17.48     -9.95
    1    7    6    -25.13    -72.10
    0    7    6     -0.14      1.26
    8    8    6     32.80      6.43
    7    8    6     -9.37     -7.12
    6    8    6     -7.84     38.21
    5    8    6     24.74     10.55
    4    8    6     58.06     25.35
    3    8    6    -18.28     31.27
    2    8    6    -25.26    -37.14
    1    8    6     -9.44    -46.32
    0    8    6     56.85     11.71
    9    9    6     11.18     61.62
    8    9    6      0.80     -2.59
    7    9    6     39.53     -6.77
    6    9    6      3.57     -3.89
    5    9    6     25.00     54.50
    4    9    6     -6.59     12.26
    3    9    6     51.63     -7.80
    2    9    6    -17.03     12.48
    1    9    6    -17.27    -25.39
    0    9    6    -22.91      0.39
   10   10    6     -2.73     -5.05
    9   10    6     -3.53     -0.42
    8   10    6     16.99     14.48
    7   10    6     -9.52     -2.42
    6   10    6     14.12    -26.10
    5   10    6      0.79    -15.71
    4   10    6      5.38     29.81
    3   10    6      8.75     22.87
    2   10    6      6.82     -7.73
    1   10    6     -8.27      6.96
    0   10    6    -54.48      2.85
   11   11    6     19.61     15.14
   10   11    6      0.47     -9.86
    9   11    6    -12.72    -12.43
    8   11    6    -15.38     -2.33
    7   11    6     -9.30    -10.29
    6   11    6      4.10    -19.51
    5   11    6    -11.49     -3.36
    4   11    6     -1.58      1.14
    3   11    6     31.35     -5.02
    2   11    6    -10.65    -16.65
    1   11    6    -29.32    -35.33
    0   11    6     -2.25      3.52
   12   12    6     14.28     -7.77
   11   12    6      2.23     -6.80
   10   12    6     -9.42      4.80
    9   12    6     -8.15      8.65
    8   12    6     -8.69      2.42
    7   12    6      3.86      0.84
    6   12    6      4.36      3.36
    5   12    6    -13.84    -14.30
    4   12    6     19.30     26.60
    3   12    6      5.27      4.23
    2   12    6    -36.57     -3.48
    1   12    6    -20.33     -8.70
    0   12    6      9.40    -11.08
   13   13    6     -2.86     -3.99
   12   13    6     -5.40     -0.49
   11   13    6     11.17     -4.44
   10   13    6     -2.46     -6.50
    9   13    6      2.27     -1.57
    8   13    6     -0.81      3.29
    7   13    6     10.78      0.52
    6   13    6    -11.65     12.84
    5   13    6    -24.81    -20.21
    4   13    6     -0.39     -3.23
    3   13    6     20.44     13.39
    2   13    6    -12.90     10.76
    1   13    6    -15.07    -12.25
    0   13    6     -5.59     -2.97
   14   14    6     -5.56      4.63
   13   14    6     -1.00     -2.71
   12   14    6     21.11    -10.19
   11   14    6     -8.84      1.38
   10   14    6    -11.79     16.47
    9   14    6      1.53     -9.57
    8   14    6    -15.62      5.65
    7   14    6    -16.74      5.15
    6   14    6     11.34      2.52
    5   14    6     -1.51      0.59
    4   14    6      1.92    -16.76
    3   14    6     -1.94      4.59
    2   14    6      6.39    -29.55
    1   14    6    -10.09      4.50
    0   14    6     10.47     13.66
   15   15    6      4.19     -2.52
   14   15    6     -6.02      9.69
   13   15    6     -1.27     -5.15
   12   15    6     -4.96     -9.30
   11   15    6      4.02     10.32
   10   15    6     -7.80     -0.74
    9   15    6    -11.63     19.27
    8   15    6     -3.43     -8.38
    7   15    6     -5.64      6.08
    6   15    6     -0.68     -7.80
    5   15    6     12.77    -12.27
    4   15    6      4.55     -5.02
    3   15    6      5.20     28.39
    2   15    6     -0.98      0.08
    1   15    6     15.43    -22.72
    0   15    6      2.80     -6.52
   14   16    6     -3.47    -11.59
   13   16    6     -6.15      4.29
   12   16    6     12.30     -3.12
   11   16    6     -2.97      5.82
   10   16    6     -2.04      7.97
    9   16    6      4.25     -4.09
    8   16    6    -18.45    -12.51
    7   16    6      5.30     -5.05
    6   16    6     -1.08      4.49
    5   16    6      3.08      2.73
    4   16    6     21.93      7.66
    3   16    6     18.01    -19.13
    2   16    6      9.34      3.63
    1   16    6      4.46     -9.20
    0   16    6     18.12      0.72
   15   16    6     -2.70     -3.06
   14   17    6     -2.38      7.29
   13   17    6      2.97      1.52
   12   17    6     -0.22     -4.39
   11   17    6     -0.47      7.28
   10   17    6     -3.92     -4.15
    9   17    6     -6.18    -13.33
    8   17    6      6.06      6.34
    7   17    6      1.80     11.60
    6   17    6      1.76     -0.85
    5   17    6      8.83     -3.80
    4   17    6      1.36      9.05
    3   17    6      2.15      2.10
    2   17    6      5.40     20.37
    1   17    6     10.05      9.26
    0   17    6      8.28      2.79
   12   18    6      2.16      7.76
   11   18    6      0.29      3.22
   10   18    6      3.80      0.54
    9   18    6     -4.10     -1.60
    8   18    6     -8.90      2.81
    7   18    6     -0.17     -0.15
    6   18    6     -8.52     -6.51
    5   18    6      1.23      6.32
    4   18    6      3.81      6.32
    3   18    6     -3.82     14.69
    2   18    6      0.77     11.33
    1   18    6     10.51     -4.21
   11   19    6      0.50      0.63
   10   19    6     -1.27      0.40
    9   19    6     -5.29     -1.30
    8   19    6     -4.53      4.60
    7   19    6     -2.59     -2.99
    6   19    6     -0.80     -5.77
    5   19    6     -4.80     -0.38
    4   19    6     11.33     -0.18
    3   19    6     -0.85      4.82
    2   19    6      5.23     -3.34
    1   19    6     -6.98     -4.71
    0   19    6      1.51      3.20
    9   20    6     -1.80      5.24
    8   20    6      1.07     -1.56
    7   20    6      2.61     -5.95
    6   20    6     -8.03     -2.41
    5   20    6     -0.82      3.15
    4   20    6     -4.92    -11.89
    3   20    6     -6.79      4.35
    2   20    6     -2.78     -2.51
    1   20    6      5.44     -6.76
    0   20    6     -7.23      2.71
    6   21    6      1.82     -9.67
    5   21    6     -0.91      0.08
    4   21    6    -14.54     11.28
    1   21    6      0.20      5.47
    0   21    6     -6.74      0.05
    2   21    6     -1.38     -7.15
    3   21    6      0.74     -4.73
    2   22    6      5.27      2.93
    1   22    6      6.99      0.06
    1    2    7     59.88   -428.72
    0    2    7      1.27     40.68
    2    3    7     -3.45     27.51
    1    3    7     32.30      1.74
    0    3    7    -24.52    -84.97
    3    4    7     82.66    152.45
    2    4    7    -11.62     21.21
    1    4    7     20.52    -63.92
    0    4    7      6.94     -4.28
    4    5    7     56.90    -10.81
    3    5    7     29.50     20.18
    2    5    7     43.56    134.82
    1    5    7    -32.23     42.16
    0    5    7      8.16   -226.80
    5    6    7     27.83     -2.65
    4    6    7     -8.19    -17.60
    3    6    7     14.77    -28.30
    2    6    7     23.87     60.43
    1    6    7     36.58    -67.90
    0    6    7    -13.13    -45.93
    6    7    7    -68.55     -0.62
    5    7    7     16.55    -24.03
    4    7    7     23.07     36.62
    3    7    7      5.40    -35.41
    2    7    7    -36.70     24.59
    1    7    7     -8.35    -17.36
    0    7    7     64.75     -4.08
    7    8    7    -33.90     -2.09
    6    8    7      5.45    -13.74
    5    8    7     25.72    -76.12
    4    8    7     41.26    -33.28
    3    8    7    -15.78     54.73
    2    8    7      3.48     -5.30
    1    8    7     36.76    -49.96
    0    8    7     -3.16    -46.56
    8    9    7     24.46     -1.53
    7    9    7     15.83      8.28
    6    9    7     14.67    -32.13
    5    9    7      9.62    -22.32
    4    9    7    -15.84    -40.06
    3    9    7     18.60     18.30
    2    9    7    -33.27    -12.59
    1    9    7     13.68      1.45
    0    9    7      5.44    -68.88
    9   10    7     18.71    -17.58
    8   10    7     -7.88     -3.40
    7   10    7      4.14    -20.53
    6   10    7     -0.14     15.96
    5   10    7     19.68     12.46
    4   10    7      4.69     12.88
    3   10    7    -35.09      8.59
    2   10    7     -3.21     -7.91
    1   10    7      4.45     14.15
    0   10    7      3.36     30.24
   10   11    7     -9.05     -0.27
    9   11    7     -5.03      9.15
    8   11    7     -5.14      2.22
    7   11    7      4.33      1.41
    6   11    7     -3.01     -7.78
    5   11    7     -5.59    -10.42
    4   11    7     24.81     -0.75
    3   11    7      5.37      6.86
    2   11    7    -17.02     12.46
    1   11    7      6.97      7.95
    0   11    7      9.59      2.80
   11   12    7      5.38     -4.57
   10   12    7      9.47     -1.02
    9   12    7    -16.17     12.21
    8   12    7     -5.49     11.88
    7   12    7     29.51     10.52
    6   12    7      1.78    -23.97
    5   12    7      6.38    -42.38
    4   12    7      8.99     -7.10
    3   12    7    -11.19     19.39
    2   12    7      9.29      0.47
    1   12    7     32.27    -33.90
    0   12    7      3.44     -2.90
   12   13    7      5.58     -1.08
   11   13    7     -2.95     -7.64
   10   13    7     -4.53     -0.71
    9   13    7      3.86      3.50
    8   13    7     12.14     -6.26
    7   13    7     -0.30    -10.23
    6   13    7     12.54     -7.66
    5   13    7      4.36     14.78
    4   13    7    -13.96     -0.31
    3   13    7     -3.43      3.07
    2   13    7      9.12    -20.19
    1   13    7     14.58     -9.25
    0   13    7     -2.32     -8.79
   13   14    7      8.42     -7.40
   12   14    7      5.79      8.62
   11   14    7     -2.72      5.11
   10   14    7     -3.42     -4.77
    9   14    7     -3.70     -5.36
    8   14    7    -10.89      5.34
    7   14    7      9.06    -10.24
    6   14    7      5.37     17.33
    5   14    7      2.08     -8.34
    4   14    7    -22.34     -5.06
    3   14    7     -7.57     16.05
    2   14    7    -12.11    -12.92
    1   14    7      9.89     -7.36
    0   14    7     -0.79      3.92
   14   15    7     -4.88      0.61
   13   15    7      8.69      3.69
   12   15    7     -2.77     -1.52
   11   15    7     -5.84     -5.73
   10   15    7      2.68     -4.87
    9   15    7     -1.00      3.88
    8   15    7      4.28     -9.28
    7   15    7     -0.09      1.36
    6   15    7     -4.47    -18.86
    5   15    7     -9.17     -4.27
    4   15    7     -3.98     -4.30
    3   15    7     -4.64     10.10
    2   15    7      3.40    -12.71
    1   15    7     -4.61     -7.49
    0   15    7     -0.59    -14.75
   14   16    7      5.44     -0.73
   13   16    7      0.05      1.21
   12   16    7     -0.01      6.96
   11   16    7      2.58      0.59
   10   16    7     -7.62     -3.48
    9   16    7    -10.90    -25.10
    8   16    7     -5.47     -9.07
    7   16    7      7.77    -16.34
    6   16    7    -10.25      3.50
    5   16    7     -1.99      6.40
    4   16    7      5.32     -0.76
    3   16    7      6.63      2.03
    2   16    7     -3.74      4.58
    1   16    7      8.60     -8.29
    0   16    7     -2.96      0.45
   14   17    7      0.84      6.86
   13   17    7     -0.99     -6.66
   12   17    7      1.00      6.54
   11   17    7     -3.63      0.87
   10   17    7     -6.86     -2.43
    9   17    7      5.88     -6.75
    8   17    7      0.75     -3.67
    7   17    7      7.55      1.53
    6   17    7     10.72     -9.30
    5   17    7      2.99     -7.87
    4   17    7     -4.98     -4.79
    3   17    7      5.65     -6.18
    2   17    7      9.19      5.23
    1   17    7     -4.13      1.44
    0   17    7     10.08      7.52
   12   18    7      4.92     -0.63
   11   18    7     -1.08      3.79
   10   18    7      0.44      3.29
    9   18    7     -2.85      3.84
    8   18    7      5.24      2.68
    7   18    7     -5.93      1.18
    6   18    7     -3.02      1.14
    5   18    7    -11.36     -2.12
    4   18    7      2.92     11.16
    3   18    7      3.99     10.06
    2   18    7     -2.65    -10.69
    1   18    7      7.99     -0.06
    0   18    7     12.42    -11.74
   11   19    7      2.78      2.55
   10   19    7     -4.73     -4.24
    9   19    7      6.69     -0.19
    8   19    7     -4.17     -6.53
    7   19    7     -1.69     -5.45
    6   19    7     -1.20      1.36
    5   19    7     -0.06      2.87
    4   19    7     -7.61      2.29
    3   19    7      5.65     -2.60
    2   19    7      9.37     -7.96
    1   19    7      4.65     -1.23
    0   19    7     -1.45    -20.97
    9   20    7      2.11     10.22
    8   20    7      0.55      0.31
    7   20    7      0.86      2.90
    6   20    7      0.69     -9.43
    5   20    7      4.91     -1.07
    4   20    7      0.39      6.15
    3   20    7      4.85      8.12
    2   20    7     -5.94      0.97
    1   20    7      9.32     -2.01
    0   20    7      5.23      1.77
    6   21    7     -3.89     11.02
    5   21    7      3.52      7.70
    4   21    7      5.41      2.46
    3   21    7      2.59     -3.68
    2   21    7     -3.02     -1.15
    1   21    7     -8.25      7.60
    0   21    7    -14.15     -8.08
    1   22    7     -3.47      4.97
    0   22    7     -6.34     10.31
    1    1    8   -487.27    -14.79
    0    1    8    -40.52     -9.79
    2    2    8    -30.89    -60.78
    1    2    8    -65.49      6.91
    0    2    8    125.83     39.22
    3    3    8   -139.17    113.09
    2    3    8    -31.02     30.77
    1    3    8     89.29    -14.22
    0    3    8    -26.22     -2.81
    4    4    8    229.30    118.40
    3    4    8    -22.95    -41.89
    2    4    8    -71.05    -67.26
    1    4    8    -10.55    -10.54
    0    4    8    -83.79    -14.19
    5    5    8    -78.19      4.68
    4    5    8      0.91     33.29
    3    5    8     85.30    -35.73
    2    5    8    -24.81      7.35
    1    5    8   -112.48    -31.62
    0    5    8    -19.29     11.37
    6    6    8     78.92    -38.53
    5    6    8    -11.60    -34.30
    4    6    8    -48.44     50.70
    3    6    8     -9.24      3.96
    2    6    8    -38.63    -69.48
    1    6    8    -31.30     56.27
    0    6    8    -14.45    -35.17
    7    7    8    -33.46    -30.13
    6    7    8     -4.56     -3.39
    5    7    8     16.86     40.58
    4    7    8    -10.64    -15.03
    3    7    8    -72.03     -1.30
    2    7    8    -35.56     -4.31
    1    7    8     41.57     43.86
    0    7    8      9.49     -2.38
    8    8    8    -75.55    -11.46
    7    8    8    -11.74      4.81
    6    8    8     21.52     19.75
    5    8    8     -9.97    -21.11
    4    8    8    -19.68     -8.42
    3    8    8    -14.90     -4.53
    2    8    8      9.78    -13.55
    1    8    8     -4.11    -32.30
    0    8    8     60.95      0.83
    9    9    8    -20.97     -6.51
    8    9    8    -18.42     -2.20
    7    9    8    -31.87     12.54
    6    9    8    -29.78     10.57
    5    9    8      4.07      6.66
    4    9    8      0.92      1.51
    3    9    8    -67.79    -42.59
    2    9    8     11.96     31.79
    1    9    8     68.80     51.43
    0    9    8    -13.25     -0.36
   10   10    8     23.93     -5.52
    9   10    8    -11.18      9.39
    8   10    8    -25.26      6.09
    7   10    8      1.27     10.50
    6   10    8    -12.05    -12.20
    5   10    8     22.81    -17.42
    4   10    8    -22.61     -6.07
    3   10    8     -7.54     32.96
    2   10    8    -15.43    -13.95
    1   10    8     18.63    -14.38
    0   10    8     89.02     -1.79
   11   11    8      2.34     -2.52
   10   11    8    -11.81     -1.35
    9   11    8     14.53    -12.82
    8   11    8    -14.33      0.52
    7   11    8     12.40     16.92
    6   11    8      5.97      2.43
    5   11    8     28.47     11.00
    4   11    8     13.80     -8.16
    3   11    8    -39.08    -24.33
    2   11    8      5.63    -11.70
    1   11    8     27.13     44.17
    0   11    8      6.03     -2.86
   12   12    8    -19.05      8.93
   11   12    8     -6.14      2.19
   10   12    8     15.47    -12.00
    9   12    8      2.55    -10.09
    8   12    8     20.52     -2.23
    7   12    8     -8.22      3.17
    6   12    8      2.54    -10.53
    5   12    8     -9.70     -3.68
    4   12    8    -14.82    -13.15
    3   12    8     -5.72      3.68
    2   12    8     -0.66      6.46
    1   12    8      1.20      4.80
    0   12    8     41.21      9.88
   13   13    8    -13.22      0.54
   12   13    8      1.58     -4.45
   11   13    8      4.70      0.67
   10   13    8     -1.60     -5.17
    9   13    8    -11.73     -2.81
    8   13    8    -10.84      6.59
    7   13    8    -15.74     10.36
    6   13    8      0.25    -16.39
    5   13    8     23.69     -0.21
    4   13    8     -8.09     -0.20
    3   13    8    -12.41    -25.74
    2   13    8     -4.91     17.99
    1   13    8     41.13     13.76
    0   13    8      2.22      3.17
   14   14    8      5.94    -14.28
   13   14    8      0.49      3.23
   12   14    8     -0.73      1.45
   11   14    8      4.59     -9.52
   10   14    8      9.73      4.86
    9   14    8    -22.85      7.75
    8   14    8     -2.90     -9.41
    7   14    8     -2.94     -3.35
    6   14    8      0.02     16.42
    5   14    8      4.23      4.81
    4   14    8     -1.09    -12.16
    3   14    8      5.07      3.49
    2   14    8      1.30     35.59
    1   14    8    -12.26     -1.94
    0   14    8      7.69     -9.69
   15   15    8      1.86      2.18
   14   15    8      0.86     -2.71
   13   15    8      4.42      2.61
   12   15    8      0.36     14.15
   11   15    8     -2.28     -5.26
   10   15    8     -6.88      0.97
    9   15    8     22.85    -13.99
    8   15    8      6.08      8.46
    7   15    8     18.53      8.44
    6   15    8      2.31      0.55
    5   15    8     -7.69     11.01
    4   15    8    -13.54      2.80
    3   15    8     -1.11     -3.47
    2   15    8      4.47     -3.91
    1   15    8    -13.26     13.25
    0   15    8      8.77      1.08
   15   16    8      3.72     -1.97
   14   16    8      0.97      4.90
   13   16    8      9.14      5.97
   12   16    8     -8.25      1.34
   11   16    8     -0.02     -2.20
   10   16    8     12.83     -5.01
    9   16    8      2.11      8.56
    8   16    8     26.65     -9.05
    7   16    8     -2.64      3.20
    6   16    8     -2.43     24.94
    5   16    8      6.80      1.47
    4   16    8    -24.53    -16.65
    3   16    8    -17.57      2.36
    2   16    8    -14.11      1.40
    1   16    8     -4.46      2.80
    0   16    8    -36.66     -5.05
   14   17    8      3.77     -1.17
   13   17    8      1.88     -5.44
   12   17    8      6.33      1.90
   11   17    8     -2.53     -5.95
   10   17    8      1.28      8.61
    9   17    8     12.39     -3.40
    8   17    8     -8.96     11.27
    7   17    8      5.84      2.13
    6   17    8      1.47     -5.44
    5   17    8    -18.32     -3.88
    4   17    8      0.92    -12.08
    3   17    8      0.59     -1.44
    2   17    8     -6.15     -1.85
    1   17    8    -16.46     -6.13
    0   17    8    -13.12     -4.00
   12   18    8     -0.01      1.82
   11   18    8     -3.77     -1.38
   10   18    8      0.13     -2.91
    9   18    8      5.89      6.09
    8   18    8      3.82      6.12
    7   18    8      3.94     -2.67
    6   18    8      3.45      8.55
    5   18    8     -0.56     -1.46
    4   18    8     -0.30     -2.08
    3   18    8     -1.31     -6.37
    2   18    8      0.43      7.12
    1   18    8     -9.79     -0.40
   11   19    8      0.80     -0.88
   10   19    8     -4.71     -1.13
    9   19    8      2.06     -3.94
    8   19    8      4.18     -0.87
    7   19    8     -0.66      0.80
    6   19    8      5.45     -0.93
    5   19    8      3.48      5.49
    4   19    8     -9.77     -2.00
    3   19    8      1.38     -5.62
    2   19    8     -7.24      0.47
    1   19    8     -0.44      9.94
    0   19    8     -7.90      0.44
    9   20    8      3.84      2.36
    8   20    8      0.81     -3.10
    7   20    8     -5.48      4.21
    6   20    8      0.82     -1.00
    5   20    8     -0.07     -8.44
    4   20    8     -3.20      2.10
    3   20    8     -1.84      3.55
    2   20    8      0.53     -6.84
    1   20    8      0.81     -2.42
    0   20    8      2.74     -1.57
    6   21    8      0.40      8.05
    5   21    8      4.61      5.19
    4   21    8     13.73     -5.54
    3   21    8      9.40     -1.00
    2   21    8     -2.18     -0.20
    1   21    8     -4.50      5.31
    0   21    8     -7.05     -2.18
    1   22    8     -3.35      6.16
    0   22    8     -0.28      5.11
    1    2    9     33.90     43.73
    0    2    9      2.39     30.27
    2    3    9     54.42    -41.42
    1    3    9     24.10    -12.03
    0    3    9      5.43   -155.13
    3    4    9   -128.40    -15.57
    2    4    9    -44.50     12.57
    1    4    9     -6.30    -23.80
    0    4    9      3.67      9.00
    4    5    9    -34.39    217.78
    3    5    9     23.03      0.79
    2    5    9    -53.80    -39.14
    1    5    9    -28.00      4.23
    5    6    9     22.81     95.80
    4    6    9    -11.03      1.20
    3    6    9    -60.10    132.54
    2    6    9     50.37      2.75
    1    6    9      5.04     53.12
    0    6    9      2.14     -8.00
    6    7    9     32.43     -1.63
    5    7    9     27.02      2.13
    4    7    9     -0.06    -47.91
    3    7    9     41.58    -11.96
    2    7    9     18.66     29.43
    1    7    9     -8.86     -5.20
    0    7    9     -9.82     11.13
    7    8    9      8.39    -61.77
    6    8    9     10.60     -4.89
    5    8    9     22.01     44.72
    4    8    9     12.47    -18.88
    3    8    9    -47.74    -47.06
    2    8    9     24.74      5.80
    1    8    9    -11.08     -8.25
    0    8    9      2.04     -3.19
    8    9    9    -11.39    -14.94
    7    9    9     -1.01     14.02
    6    9    9     -8.21     12.20
    5    9    9      8.80      4.33
    4    9    9    -11.26     40.07
    3    9    9      2.07     11.12
    2    9    9    -30.22    -12.92
    1    9    9      1.04     -9.13
    0    9    9     11.76      8.15
    9   10    9     -2.89     13.72
    8   10    9    -13.56     -2.88
    7   10    9    -34.55     47.07
    6   10    9     -0.42      6.02
    5   10    9     -8.75    -12.08
    4   10    9      3.76     -6.62
    3   10    9     31.41     24.68
    2   10    9      9.72     -2.17
    1   10    9     45.01    -13.03
    0   10    9     -4.21      6.71
   10   11    9      4.89      6.47
    9   11    9      5.39    -17.06
    8   11    9     -8.98     -1.35
    7   11    9    -12.90      4.13
    6   11    9     36.29      4.34
    5   11    9      9.67     -7.69
    4   11    9    -32.45     31.28
    3   11    9      0.49     18.06
    2   11    9     15.81    -34.91
    1   11    9     -8.27      0.30
    0   11    9     -0.63     54.98
   11   12    9    -13.82     30.69
   10   12    9      3.20     -9.07
    9   12    9     26.27    -22.80
    8   12    9    -14.12      7.24
    7   12    9      2.47    -20.87
    6   12    9     14.58      2.21
    5   12    9      3.71     48.31
    4   12    9     -1.20      5.25
    3   12    9     -3.17      3.92
    2   12    9     -1.06     12.31
    1   12    9      8.15     32.94
    0   12    9     -0.94    -14.50
   12   13    9    -10.62      9.24
   11   13    9      8.44      5.83
   10   13    9      5.71      2.09
    9   13    9     -0.86      4.51
    8   13    9     -5.01      6.64
    7   13    9     -2.55     -6.61
    6   13    9    -10.83     25.33
    5   13    9      0.47      4.00
    4   13    9      7.36     -4.78
    3   13    9     -7.14    -14.73
    2   13    9     26.70      9.22
    1   13    9     -6.72     -7.69
    0   13    9      0.43     11.94
   13   14    9     -8.21     -4.19
   12   14    9      2.78      7.85
   11   14    9      0.39    -14.79
   10   14    9      4.17     -3.87
    9   14    9    -19.27      9.56
    8   14    9     11.60      8.34
    7   14    9      8.24     24.44
    6   14    9      9.84    -20.71
    5   14    9     -9.22     -4.56
    4   14    9     18.81      2.51
    3   14    9      6.91     -6.33
    2   14    9     11.05      5.36
    1   14    9     10.76      3.52
    0   14    9      5.51    -19.41
   14   15    9     13.49     -1.18
   13   15    9     -4.86     -0.30
   12   15    9     -6.40     -5.45
   11   15    9     -5.73      0.73
   10   15    9     -5.59      9.79
    9   15    9     -4.79     11.67
    8   15    9      0.70    -10.83
    7   15    9     -0.11     -9.18
    6   15    9      2.08     19.83
    5   15    9     23.18     -2.68
    4   15    9     -8.17      4.68
    3   15    9      5.76     -2.66
    2   15    9      0.37      3.98
    1   15    9      6.57      4.80
    0   15    9     -2.66     24.92
   15   16    9      1.24     -0.72
   14   16    9     -9.12     -3.98
   13   16    9     -0.53     -1.96
   12   16    9      5.58     -3.95
   11   16    9      4.59     -0.71
   10   16    9     11.48      1.87
    9   16    9     -2.17     15.78
    8   16    9     -7.25     -0.27
    7   16    9      3.49     15.68
    6   16    9      3.61    -16.01
    5   16    9     -1.89    -10.02
    4   16    9     -6.14      6.12
    3   16    9    -10.61      9.99
    2   16    9     -4.39      3.41
    1   16    9     -1.21     11.65
    0   16    9     -2.74      4.50
   14   17    9      9.34     -4.06
   13   17    9      2.17      5.20
   12   17    9     -6.85     -5.24
   11   17    9     12.09     -2.62
   10   17    9      6.32     -1.85
    9   17    9     -5.89     -0.02
    8   17    9      1.95      2.69
    7   17    9      6.79      3.03
    6   17    9      6.01     -1.73
    5   17    9     -3.14      3.54
    4   17    9     -6.50      9.89
    3   17    9    -12.57     13.00
    2   17    9      8.63     -6.33
    1   17    9      3.97     -7.85
    0   17    9     -0.39    -10.87
   12   18    9     -1.44     -1.52
   11   18    9      2.09      0.42
   10   18    9      2.04     -1.56
    9   18    9      5.09     -6.99
    8   18    9      0.45      0.43
    7   18    9     12.86      6.39
    6   18    9     12.64      6.41
    5   18    9     -1.90     -0.06
    4   18    9      6.80     -1.92
    3   18    9      5.89    -13.86
    2   18    9    -10.69      4.28
    1   18    9     13.69     -4.78
    0   18    9      2.56      1.02
   11   19    9      0.67     -1.04
   10   19    9      8.26      1.29
    9   19    9     -7.06      4.15
    8   19    9      3.40      9.52
    7   19    9      3.26      4.15
    6   19    9      5.12     -1.68
    5   19    9     -1.73      3.13
    4   19    9      1.86      5.14
    3   19    9     -4.37     -4.06
    2   19    9     -0.58      8.69
    1   19    9      0.54      8.65
    0   19    9      0.73     14.04
    9   20    9     -0.62      2.75
    8   20    9    -10.10     -3.52
    7   20    9      3.84     -5.03
    6   20    9     -6.08      6.69
    5   20    9     -6.94     10.11
    4   20    9      1.44      1.57
    3   20    9     -6.44      4.08
    2   20    9     -3.45      3.19
    1   20    9     -6.13      4.91
    0   20    9     -3.23     -8.97
    6   21    9      5.37     -9.26
    5   21    9     -5.41     -5.40
    4   21    9     -6.80     -3.57
    3   21    9     -9.40     -5.52
    1   21    9      2.08      0.45
    0   21    9      5.46      6.42
    2   21    9      8.99      0.26
    1   22    9      1.91    -12.23
    0   22    9      2.42     -9.20
    0    0   10    185.37     18.86
    1    1   10    244.32    -67.81
    0    1   10    -17.99      1.08
    2    2   10     68.80     71.45
    1    2   10    -30.65    -33.32
    0    2   10   -142.00     -9.48
    3    3   10     42.35    -50.11
    2    3   10    -23.11     13.79
    1    3   10    -14.13     34.47
    0    3   10    -28.59     -4.37
    4    4   10   -107.07    -94.48
    3    4   10     17.22    -51.21
    2    4   10     40.27     30.32
    1    4   10     -4.83    -32.98
    0    4   10    101.98     -8.58
    5    5   10    104.42     36.65
    4    5   10    -20.43     -8.87
    3    5   10     89.83    -37.19
    2    5   10    -43.45    -45.02
    1    5   10    191.37     95.52
    0    5   10     11.18      0.60
    6    6   10     -7.14     49.55
    5    6   10     15.98     11.55
    4    6   10    109.35    -41.78
    3    6   10     13.62    -20.37
    2    6   10     15.38     35.09
    1    6   10    -73.32     21.46
    0    6   10    148.38     17.30
    7    7   10     91.54    -44.70
    6    7   10    -12.62     -4.18
    5    7   10    -12.94    -14.01
    4    7   10    -19.20     10.87
    3    7   10     -6.29     23.99
    2    7   10    -30.49    -24.63
    1    7   10     34.72     17.88
    0    7   10     18.54      1.85
    8    8   10     32.93    -13.48
    7    8   10     -5.28      8.77
    6    8   10    -25.45     -3.00
    5    8   10    -10.20     18.12
    4    8   10     73.29    -25.12
    3    8   10     -5.54    -14.28
    2    8   10    -43.83     58.22
    1    8   10     -1.11     -3.61
    0    8   10    -84.12     -6.41
    9    9   10     -1.78    -28.52
    8    9   10     -0.76     10.64
    7    9   10     26.73     19.80
    6    9   10     -4.72     -3.46
    5    9   10     -2.12     13.58
    4    9   10     35.53    -27.62
    3    9   10     66.48     25.07
    2    9   10    -11.14      6.78
    1    9   10    -36.94    -26.52
    0    9   10     -6.22     -0.03
   10   10   10    -17.89     13.46
    9   10   10     -4.06      2.08
    8   10   10     30.19    -30.23
    7   10   10     -1.64      5.30
    6   10   10     -4.47     11.56
    5   10   10      0.24     -2.49
    4   10   10      7.13      3.45
    3   10   10    -18.41     -4.62
    2   10   10     10.43     21.38
    1   10   10      6.85     -2.32
    0   10   10     14.93      0.64
   11   11   10      3.50     38.08
   10   11   10     -0.04      0.10
    9   11   10    -20.04      1.83
    8   11   10      5.84     -5.30
    7   11   10    -11.90    -20.01
    6   11   10    -13.34     -0.56
    5   11   10    -18.06     -0.54
    4   11   10     10.65      9.43
    3   11   10      5.08      0.27
    2   11   10     -2.14     -5.49
    1   11   10    -15.00     24.66
    0   11   10     -5.84     -4.43
   12   12   10     14.25     -5.88
   11   12   10      2.47      2.39
   10   12   10    -12.40      2.94
    9   12   10      0.46      1.46
    8   12   10    -21.54     22.66
    7   12   10      0.97      1.27
    6   12   10     -9.99     20.15
    5   12   10     -5.51     -3.83
    4   12   10      5.92     -8.40
    3   12   10    -11.71    -13.13
    2   12   10      4.33      3.38
    1   12   10     -8.54    -15.33
    0   12   10    -18.94    -12.48
   13   13   10      8.57      4.06
   12   13   10     -7.60      9.07
   11   13   10     -1.71      3.15
   10   13   10     -6.96      1.09
    9   13   10     18.54    -15.55
    8   13   10     -5.42      8.57
    7   13   10     10.58      1.76
    6   13   10     -0.07     -1.41
    5   13   10     -8.88      8.83
    4   13   10     -2.28     -2.43
    3   13   10     13.28      9.88
    2   13   10    -10.51      5.59
    1   13   10    -13.31     -8.28
    0   13   10     -2.13     -6.77
   14   14   10      2.44     -1.30
   13   14   10     -0.38     -0.86
   12   14   10      1.34      3.75
   11   14   10     -6.54      1.34
   10   14   10     -5.55     -1.14
    9   14   10     -4.32     -5.63
    8   14   10     28.73    -13.58
    7   14   10     -9.14      5.62
    6   14   10     -3.89     -9.94
    5   14   10      8.06     12.73
    4   14   10      8.89    -10.24
    3   14   10      0.72     -1.48
    2   14   10      5.73      2.84
    1   14   10      1.82     -4.00
    0   14   10     17.82      5.58
   15   15   10      3.49     -0.90
   14   15   10      5.62      2.43
   13   15   10     -4.62      3.97
   12   15   10     -9.47     -2.08
   11   15   10      8.00      4.17
   10   15   10      1.93      1.08
    9   15   10    -12.29     -8.00
    8   15   10     -7.81     -8.41
    7   15   10    -19.98     14.10
    6   15   10      0.58     -1.24
    5   15   10     -2.21    -24.96
    4   15   10      9.24     -1.81
    3   15   10     -8.27     19.90
    2   15   10     -9.92     -6.98
    1   15   10     16.47     -4.20
    0   15   10     -5.00      3.47
   15   16   10     -3.83      3.42
   14   16   10     -1.95      1.72
   13   16   10     -0.19     -4.70
   12   16   10      4.92      0.47
   11   16   10     -3.00      3.16
   10   16   10    -11.82      2.58
    9   16   10      2.24      3.70
    8   16   10    -16.55     13.77
    7   16   10     -9.54      4.81
    6   16   10    -13.93    -11.98
    5   16   10      1.85    -10.09
    4   16   10     21.80    -11.25
    3   16   10     -0.09      7.96
    2   16   10     -6.40     12.67
    1   16   10     -1.13     12.65
    0   16   10     24.58      1.22
   14   17   10     -5.85      4.76
   13   17   10      0.72      2.53
   12   17   10     -8.00      0.79
   11   17   10      1.43      8.19
   10   17   10     -4.63     -6.60
    9   17   10     -7.23      4.25
    8   17   10     -0.26    -14.12
    7   17   10     -5.92      3.13
    6   17   10     -0.29      9.24
    5   17   10     11.67    -12.30
    4   17   10      1.98     14.85
    3   17   10    -10.16     -2.18
    2   17   10      1.39     -2.47
    1   17   10      1.77      8.93
    0   17   10     -6.30      1.71
   12   18   10      3.10     -0.05
   11   18   10    -11.98      0.64
   10   18   10      3.68      4.69
    9   18   10      5.51     -8.46
    8   18   10      6.61     -4.23
    7   18   10     -5.08     -1.11
    6   18   10     -8.16     -7.91
    5   18   10     19.24      3.00
    4   18   10      1.06     -7.03
    3   18   10     -6.79      6.44
    2   18   10     -2.52     -0.80
    1   18   10      0.19    -15.05
    0   18   10     25.59      1.61
   11   19   10     -3.06      1.17
   10   19   10      2.96     -5.30
    9   19   10     -1.67     -3.79
    8   19   10     -3.80    -11.93
    7   19   10     -3.41      4.82
    6   19   10     -0.39     -0.54
    5   19   10     -7.58     -7.97
    4   19   10      5.91      4.98
    3   19   10      1.41     -4.54
    2   19   10      5.25      2.93
    1   19   10     -3.14      9.70
    0   19   10     15.62     -2.95
    9   20   10     -4.03     -2.56
    8   20   10      4.80      6.99
    7   20   10      3.10     -2.08
    6   20   10      3.38     -0.44
    5   20   10     -3.88      8.36
    4   20   10      0.86     -2.29
    3   20   10     10.37      3.91
    2   20   10      1.64      6.62
    1   20   10     -3.06      4.94
    0   20   10    -11.50     -3.14
    6   21   10      0.69    -11.12
    5   21   10      3.13     -7.16
    4   21   10     -8.30      1.59
    3   21   10    -12.23      6.17
    2   21   10     -8.14      0.89
    1   21   10      1.78     -3.78
    0   21   10     11.88      1.09
    1   22   10      6.21     -5.09
    0   22   10     -0.96     -6.89
    1    2   11    -28.17   -135.69
    0    2   11      3.56     -6.76
    2    3   11    -29.25    -22.64
    1    3   11     34.21    -13.77
    0    3   11     -8.85    190.78
    3    4   11      2.74    -15.76
    2    4   11    -21.50     -2.23
    1    4   11    -53.67    100.96
    0    4   11     -4.08     10.68
    4    5   11    -24.26    -32.05
    3    5   11     12.06      2.93
    2    5   11     71.93     -4.63
    1    5   11    -19.87      3.38
    5    6   11     48.86    -49.53
    4    6   11    -15.50     -8.04
    3    6   11     26.92    -37.37
    2    6   11      3.60     25.42
    1    6   11     -2.10    -24.21
    0    6   11     -0.34    -38.90
    6    7   11    -30.61      0.81
    5    7   11     36.70    -12.87
    4    7   11     61.58     62.11
    3    7   11     14.42     -0.36
    2    7   11    -13.52      2.57
    1    7   11    -30.28     15.75
    0    7   11     26.22     53.05
    7    8   11     -9.81     17.02
    6    8   11     13.28     -7.24
    5    8   11    -13.72    -26.20
    4    8   11     28.14    -20.70
    3    8   11     -5.78     93.36
    2    8   11    -11.23      8.30
    1    8   11     24.96    -27.69
    0    8   11      1.75     -4.16
    8    9   11      1.56    -10.63
    7    9   11     -1.25      3.64
    6    9   11     23.67     -7.09
    5    9   11      5.80    -27.69
    4    9   11     24.37     -8.55
    3    9   11    -10.59      7.64
    2    9   11     -3.79    -12.62
    1    9   11    -11.82    -26.65
    0    9   11     -8.75    -23.75
    9   10   11     16.34      1.27
    8   10   11     -3.83     -9.61
    7   10   11     -2.37    -19.00
    6   10   11    -11.67    -11.30
    5   10   11     21.86     31.28
    4   10   11     -6.03      4.80
    3   10   11     -6.77    -16.05
    2   10   11     -9.66      0.93
    1   10   11     -6.43      6.54
    0   10   11      8.19     -7.51
   10   11   11     20.06     -5.35
    9   11   11    -11.81     11.57
    8   11   11      7.43     22.81
    7   11   11      1.22      2.45
    6   11   11      2.58     -2.39
    5   11   11     10.87     13.57
    4   11   11     20.70    -10.97
    3   11   11     14.68     -8.14
    2   11   11    -29.21     60.58
    1   11   11     -2.86      4.29
    0   11   11      2.84    -51.85
   11   12   11     11.11    -25.43
   10   12   11      3.78     11.90
    9   12   11     11.30     20.99
    8   12   11      6.44      4.78
    7   12   11     15.35     23.09
    6   12   11     15.58     -0.13
    5   12   11      3.76    -27.82
    4   12   11     19.12      2.68
    3   12   11     -2.94     11.18
    2   12   11     -0.70     -4.80
    1   12   11     -8.37    -15.86
    0   12   11      2.08     -3.35
   12   13   11     -1.09    -17.71
   11   13   11     -5.73      4.03
   10   13   11     10.62      4.45
    9   13   11      4.92      0.31
    8   13   11     -0.02    -11.31
    7   13   11     -3.86      1.39
    6   13   11     18.69     -7.54
    5   13   11    -13.51      1.62
    4   13   11     13.84      4.45
    3   13   11     21.59    -10.69
    2   13   11    -18.13    -12.85
    1   13   11      7.04      0.26
    0   13   11      0.97     -4.77
   13   14   11     -4.40      2.62
   12   14   11     -7.35      5.15
   11   14   11      2.46     -4.47
   10   14   11     -1.79      5.68
    9   14   11     10.28    -13.17
    8   14   11    -25.40     -8.87
    7   14   11     -1.15    -17.55
    6   14   11     -0.01      7.17
    5   14   11      1.93      7.48
    4   14   11     -6.02      6.31
    3   14   11     -4.95      4.01
    2   14   11    -17.20     -1.07
    1   14   11     -3.46     -7.09
    0   14   11     -0.84     -4.01
   14   15   11     -0.52     -0.56
   13   15   11      3.84      5.01
   12   15   11     -0.98      7.53
   11   15   11     11.39      1.76
   10   15   11      3.24    -13.02
    9   15   11      1.07    -11.65
    8   15   11     11.69     27.13
    7   15   11     -6.65      4.54
    6   15   11    -11.26    -21.59
    5   15   11    -13.33      1.91
    4   15   11     -6.29     -2.33
    3   15   11     -8.41      3.05
    2   15   11     -2.73     -9.26
    1   15   11    -10.34    -14.79
    0   15   11      2.90    -33.91
   15   16   11     -0.44      5.79
   14   16   11      0.61      1.02
   13   16   11      8.31     -1.62
   12   16   11     -3.11     -4.59
   11   16   11      3.61      8.35
   10   16   11     -3.04      9.90
    9   16   11     -2.69    -11.10
    8   16   11      3.47     -5.40
    7   16   11      2.69      9.22
    6   16   11     -5.64      7.78
    5   16   11    -18.59      6.80
    4   16   11      2.95     -3.19
    3   16   11      8.31    -13.95
    2   16   11      4.30    -12.99
    1   16   11     -9.24     -7.21
    0   16   11      4.05      7.02
   13   17   11     -0.23     -1.88
   12   17   11      3.17      8.62
   11   17   11     -6.13      9.85
   10   17   11    -12.17     -1.19
    9   17   11      3.82      1.92
    8   17   11     -2.98     13.61
    7   17   11     -2.79     -4.45
    6   17   11    -16.73      1.71
    5   17   11      8.18     -3.63
    4   17   11     -0.20      5.15
    3   17   11      4.67     -5.57
    2   17   11     -1.11     -3.97
    1   17   11      3.61     -3.49
    0   17   11     -4.86     14.53
   12   18   11      3.62      5.25
   11   18   11     -1.83      4.24
   10   18   11     -2.49     -1.79
    9   18   11     -5.14      7.90
    8   18   11      5.81     -4.93
    7   18   11    -11.62     -1.64
    6   18   11      2.06     -4.01
    5   18   11     -2.40      2.70
    4   18   11      2.81     -5.79
    3   18   11      3.32      7.11
    2   18   11      5.53     -3.54
    1   18   11    -16.64      2.77
    0   18   11      0.88      4.69
   11   19   11      2.32     -0.26
   10   19   11     -4.35     -1.35
    9   19   11      0.96     -4.76
    8   19   11     -6.32      0.92
    7   19   11      1.14     -3.16
    6   19   11      0.09     -1.22
    5   19   11     -4.50      0.76
    4   19   11     -5.84     -2.86
    3   19   11      7.61     10.55
    2   19   11     -1.54     -3.21
    1   19   11      0.56     -3.46
    0   19   11     -0.35    -10.07
    9   20   11      4.00     -7.40
    8   20   11     10.31     -2.23
    7   20   11     -2.54      6.05
    6   20   11      1.31     -2.12
    5   20   11      1.32    -10.08
    4   20   11     -0.87      1.08
    3   20   11      1.10     -2.86
    2   20   11      4.30     -1.97
    1   20   11      6.76     -0.17
    0   20   11      2.09      2.73
    6   21   11     -5.21      6.05
    5   21   11     -0.18     -3.71
    4   21   11      1.37      2.65
    3   21   11      7.02     -4.11
    0   21   11     -3.47     -0.25
    2   21   11      3.86      2.17
    0   22   11      0.74      0.67
    0    0   12   -116.66     50.02
    1    1   12     10.17    -23.97
    0    1   12    -28.58     -4.10
    2    2   12    169.32     11.33
    1    2   12    -26.35    -18.85
    0    2   12    133.34      6.53
    3    3   12    147.22     25.24
    2    3   12    -11.68     15.82
    1    3   12     39.59    -60.79
    0    3   12    -11.70      6.60
    4    4   12    -75.98    119.60
    3    4   12    -24.58    -48.19
    2    4   12     42.17     12.98
    1    4   12      6.05     -9.15
    0    4   12   -235.97     13.62
    5    5   12      9.13    -31.20
    4    5   12    -26.19    -10.44
    3    5   12   -111.17     -2.56
    2    5   12      1.56      6.18
    1    5   12   -175.12    -58.73
    0    5   12    -38.99     -5.38
    6    6   12    -41.17     -7.21
    5    6   12    -31.99    -19.92
    4    6   12    -36.69    -15.14
    3    6   12      0.48    -29.13
    2    6   12     62.50     34.12
    1    6   12     -2.13     28.15
    0    6   12    -78.05    -14.45
    7    7   12      0.62      0.06
    6    7   12     15.06      2.33
    5    7   12     -5.02     -1.00
    4    7   12     12.19    -35.32
    3    7   12     88.80     -4.69
    2    7   12    -13.92    -14.79
    1    7   12     10.51     23.69
    0    7   12     -8.37     -1.54
    8    8   12     47.02    -19.56
    7    8   12     -3.24     14.40
    6    8   12     38.22      0.16
    5    8   12    -16.12      9.15
    4    8   12     60.69    -13.99
    3    8   12    -14.78     10.82
    2    8   12     27.12    -43.77
    1    8   12      5.63    -16.76
    0    8   12     55.18      3.31
    9    9   12    -16.19     24.18
    8    9   12     -2.35     -6.51
    7    9   12      5.11      2.05
    6    9   12    -13.90     13.97
    5    9   12     25.13    -12.28
    4    9   12    -23.90      5.77
    3    9   12    -60.19    -37.10
    2    9   12      9.28    -17.21
    1    9   12     56.02     21.55
    0    9   12    -21.05     -0.39
   10   10   12     18.09      3.63
    9   10   12     -9.76     -2.82
    8   10   12    -28.07     48.33
    7   10   12    -14.16     -1.76
    6   10   12     -2.58      1.21
    5   10   12     17.59    -21.01
    4   10   12    -26.81     -6.94
    3   10   12    -12.99    -12.06
    2   10   12     -2.00      1.07
    1   10   12     -8.13    -13.38
    0   10   12    -18.28     -9.34
   11   11   12      0.68     -3.66
   10   11   12     -8.10      2.80
    9   11   12      8.86     -9.99
    8   11   12     -0.94      7.58
    7   11   12      2.08     13.94
    6   11   12     11.43      1.81
    5   11   12     19.20    -11.16
    4   11   12      1.97     -6.32
    3   11   12     -5.47      9.36
    2   11   12      5.17      0.43
    1   11   12    -31.57      6.36
    0   11   12    -29.84      6.52
   12   12   12     -0.55      3.86
   11   12   12     -1.90      1.17
   10   12   12     11.49     -6.82
    9   12   12      1.79      0.92
    8   12   12      7.27    -21.06
    7   12   12     -5.89     -1.28
    6   12   12     37.55    -13.42
    5   12   12      5.59      9.59
    4   12   12      6.53     -6.10
    3   12   12      5.25     -5.60
    2   12   12    -15.48     -9.13
    1   12   12      8.76     -2.47
    0   12   12     -6.91      3.09
   13   13   12     -7.60     -4.43
   12   13   12      1.76     -6.25
   11   13   12     17.78     -6.60
   10   13   12     -2.11     -1.24
    9   13   12    -20.16     17.00
    8   13   12    -10.94     -5.63
    7   13   12     12.12      6.36
    6   13   12     -8.84     -4.33
    5   13   12     12.55     -5.17
    4   13   12      5.03    -10.60
    3   13   12     -8.83     -9.69
    2   13   12     -5.02      4.48
    1   13   12      5.97      6.02
    0   13   12      6.60      6.76
   14   14   12      3.72      4.10
   13   14   12     -1.16     -4.17
   12   14   12     -4.24     -3.72
   11   14   12    -10.84      0.05
   10   14   12     10.02      1.05
    9   14   12      0.71     -3.36
    8   14   12    -32.45     15.87
    7   14   12     -0.73    -14.65
    6   14   12      3.83     16.05
    5   14   12      6.80    -10.67
    4   14   12      3.16      8.19
    3   14   12     -0.05    -15.50
    2   14   12      0.91      5.31
    1   14   12     -1.38      0.11
    0   14   12     14.70      0.77
   15   15   12     -6.48    -13.07
   14   15   12     -7.93      1.19
   13   15   12      3.47     -9.80
   12   15   12      5.39      1.04
   11   15   12     -0.64     -6.20
   10   15   12     -6.23      7.75
    9   15   12     -3.19     17.91
    8   15   12      6.44     -6.14
    7   15   12      1.57    -13.73
    6   15   12     -5.56     11.36
    5   15   12     14.96     18.38
    4   15   12     -0.57     -2.52
    3   15   12      9.90     -8.53
    2   15   12      7.11      1.41
    1   15   12     -3.67     10.55
    0   15   12     -6.55      5.38
   15   16   12     -9.72      1.79
   14   16   12      1.92     -5.59
   13   16   12     -3.32      6.65
   12   16   12     -2.35     -3.39
   11   16   12     -5.07      6.02
   10   16   12     10.46     -9.23
    9   16   12      0.74     -1.68
    8   16   12     -1.63    -20.27
    7   16   12    -10.24      4.68
    6   16   12     16.47     16.21
    5   16   12      3.98     12.58
    4   16   12     -7.48      7.53
    3   16   12    -11.00     -8.23
    2   16   12      1.66     -8.42
    1   16   12      4.77     14.58
    0   16   12    -13.19     -0.16
   13   17   12      3.97     -3.88
   12   17   12     -0.48      3.28
   11   17   12      1.15     -8.43
   10   17   12      5.56      6.69
    9   17   12      5.27    -15.70
    8   17   12      0.65      5.87
    7   17   12     -5.52     -3.13
    6   17   12      7.80      3.91
    5   17   12     -2.66     11.50
    4   17   12     -3.15     -6.37
    3   17   12     14.80     -7.96
    2   17   12     -1.31     -9.44
    1   17   12      4.08     -4.65
    0   17   12     -0.66      0.19
   12   18   12     -1.78     -2.40
   11   18   12      3.02     -0.21
   10   18   12     -0.17     -5.02
    9   18   12     -4.90     -0.13
    8   18   12     -8.76      3.56
    7   18   12      0.54     -7.03
    6   18   12     -1.42     -1.33
    5   18   12     -7.52     -7.65
    4   18   12     -1.63      2.60
    3   18   12     -0.84    -22.91
    2   18   12     -0.75      1.09
    1   18   12     -1.04     21.18
    0   18   12     -0.11     -1.32
   11   19   12     -0.14      4.11
   10   19   12      2.67      2.13
    9   19   12      0.02      2.33
    8   19   12     -0.23      4.09
    7   19   12     -3.65     -1.34
    6   19   12     -1.76     -2.32
    5   19   12      7.05      6.02
    4   19   12     -2.23     -7.86
    3   19   12     -1.31      2.53
    2   19   12     -2.54     -4.60
    1   19   12      0.62     -5.48
    0   19   12     -6.28      9.42
    9   20   12      3.99      3.09
    8   20   12     -4.30     -8.90
    7   20   12     -4.97     -2.60
    6   20   12     -8.50      9.27
    5   20   12     11.99     -2.51
    4   20   12      6.93      4.09
    3   20   12     -5.40     -8.09
    2   20   12     -4.48     -5.99
    1   20   12      6.66    -11.34
    0   20   12      3.25      5.73
    6   21   12     -1.15      7.10
    5   21   12     -1.47     -0.75
    4   21   12     -0.04      3.69
    3   21   12      7.46     -7.07
    2   21   12      7.58     -3.64
    1   21   12      6.05      0.95
    0    1   13    -16.63    -21.32
    1    2   13      4.11    -37.63
    0    2   13     -4.05    -28.90
    2    3   13    -38.40   -134.21
    1    3   13      8.15     -5.29
    0    3   13     13.41   -151.95
    3    4   13     22.13     28.18
    2    4   13    -14.87     11.67
    1    4   13      2.65     42.00
    0    4   13      0.87     13.36
    4    5   13     31.87    113.72
    3    5   13    -23.90      0.08
    2    5   13    -60.60    110.13
    1    5   13    -30.02      1.69
    0    5   13    -12.17    252.86
    5    6   13     16.92     85.26
    4    6   13      6.27      5.43
    3    6   13      7.40     46.40
    2    6   13     -2.90      6.70
    1    6   13    -27.93    123.21
    0    6   13     -4.06    -22.71
    6    7   13     17.07    -10.26
    5    7   13     -6.95    -10.44
    4    7   13     18.24    -65.99
    3    7   13      7.95     11.33
    2    7   13      2.53    -17.23
    1    7   13     -8.70      8.97
    0    7   13     -9.33    -70.90
    7    8   13    -41.76    -42.22
    6    8   13     -0.26      4.02
    5    8   13     23.68     20.11
    4    8   13     -2.35     -5.37
    3    8   13    -36.26   -104.95
    2    8   13     -3.23      6.81
    1    8   13      5.86      2.21
    0    8   13     -2.62      9.02
    8    9   13    -17.91      2.09
    7    9   13    -17.16      3.22
    6    9   13    -69.23      9.72
    5    9   13    -18.50    -15.67
    4    9   13      7.19     -1.13
    3    9   13      5.24     -6.52
    2    9   13    -22.80      5.20
    1    9   13    -30.69      4.46
    0    9   13     11.23      3.99
    9   10   13     -8.76      0.45
    8   10   13      7.82      9.85
    7   10   13    -11.30     14.47
    6   10   13     10.14      2.38
    5   10   13      7.41      1.02
    4   10   13     -7.51     -3.73
    3   10   13     -9.29     15.51
    2   10   13    -17.66     12.61
    1   10   13     25.48     -7.88
    0   10   13     -3.64     17.86
   10   11   13     -5.22     10.06
    9   11   13      4.25      0.01
    8   11   13     -5.65    -20.66
    7   11   13      4.39     -4.75
    6   11   13     -8.82     22.68
    5   11   13      1.82    -13.45
    4   11   13      3.29     14.83
    3   11   13     22.30     -4.44
    2   11   13     26.07    -40.57
    1   11   13    -12.23     22.44
    0   11   13     -1.57     20.75
   11   12   13     -1.22      1.76
   10   12   13      2.18     -4.74
    9   12   13     -7.35     -0.64
    8   12   13     -4.69     22.12
    7   12   13     -0.52    -10.36
    6   12   13     -1.80    -21.67
    5   12   13      3.12     21.83
    4   12   13     -8.19    -20.85
    3   12   13     -5.81    -26.55
    2   12   13     -1.57      6.03
    1   12   13      3.56     -3.50
    0   12   13      9.02    -12.81
   12   13   13      4.86      8.09
   11   13   13      3.30      5.41
   10   13   13     -3.21     -2.19
    9   13   13      2.49     11.63
    8   13   13      1.22      9.46
    7   13   13     -2.13     -6.63
    6   13   13     -2.15     -7.78
    5   13   13      0.07     -2.50
    4   13   13     -6.81      4.00
    3   13   13    -11.92    -14.97
    2   13   13     22.45     -1.61
    1   13   13    -14.77     -6.70
    0   13   13      1.49    -19.97
   13   14   13     -5.25      7.20
   12   14   13     -2.72     -6.40
   11   14   13     -4.56      4.81
   10   14   13     -5.84      4.85
    9   14   13    -14.30      1.64
    8   14   13     14.99     -1.00
    7   14   13     10.71     12.45
    6   14   13     -7.02     -5.41
    5   14   13    -18.59     -1.30
    4   14   13     -0.70     -6.14
    3   14   13     10.30     -5.84
    2   14   13      0.03    -10.27
    1   14   13      6.64    -12.04
    0   14   13      0.88    -11.82
   14   15   13     -5.34     12.33
   13   15   13      1.13     -8.37
   12   15   13     -0.59    -15.58
   11   15   13    -14.13      3.40
   10   15   13     -2.70     19.63
    9   15   13     -4.81      6.12
    8   15   13    -15.02    -27.71
    7   15   13     -1.45      5.86
    6   15   13     16.80     21.76
    5   15   13     10.13    -12.98
    4   15   13      4.95     10.46
    3   15   13      9.20     -6.94
    2   15   13    -14.71     -4.39
    1   15   13     12.57     20.67
    0   15   13     -0.56     37.64
   15   16   13      4.70      0.00
   14   16   13      1.09     -0.38
   13   16   13     -4.86      0.37
   12   16   13     -2.52      8.56
   11   16   13      3.30     -0.88
   10   16   13     -3.58     -0.43
    9   16   13      2.73      8.74
    8   16   13     13.01      4.52
    7   16   13      1.92    -19.09
    6   16   13     -4.87     -5.13
    5   16   13      4.16      5.10
    4   16   13      3.30      1.49
    3   16   13     -9.85     11.26
    2   16   13     14.07      8.93
    1   16   13      9.70      5.95
    0   16   13     -2.87      0.66
   13   17   13      1.51      3.61
   12   17   13      0.77     -5.55
   11   17   13      5.98      0.30
   10   17   13     12.99     -1.74
    9   17   13      1.08     -3.54
    8   17   13     -0.91     -3.73
    7   17   13      2.96      0.79
    6   17   13     15.76     -1.29
    5   17   13     -6.43     -4.20
    4   17   13     -1.82     -7.04
    3   17   13      4.99      6.08
    2   17   13     15.05     14.29
    1   17   13     -2.78     -9.52
    0   17   13      4.54     -8.81
   12   18   13     -4.81     -8.00
   11   18   13     -4.95      4.31
   10   18   13      8.00      5.47
    9   18   13      0.05     -5.41
    8   18   13      2.58      3.41
    7   18   13     10.07      0.34
    6   18   13     -6.38     -1.34
    5   18   13      5.86      3.22
    4   18   13     -0.09      0.49
    3   18   13      2.48     -6.61
    2   18   13     -9.23      5.41
    1   18   13     11.83     -9.35
    0   18   13     -1.89     -2.88
   11   19   13     -2.55      0.98
   10   19   13      2.21      0.90
    9   19   13     -4.07      1.82
    8   19   13      2.44      1.93
    7   19   13     -2.34     -3.76
    6   19   13      4.73     -0.20
    5   19   13     -1.51      3.66
    4   19   13     -5.35      0.56
    3   19   13      0.75     -2.36
    2   19   13      4.79     -7.06
    1   19   13      1.92      2.68
    0   19   13     -0.07     -3.71
    9   20   13     -0.69      5.22
    8   20   13     -7.58      6.36
    7   20   13      1.71     -2.13
    6   20   13     -2.18     -3.66
    5   20   13      2.59      6.53
    4   20   13      0.38     -4.71
    3   20   13     -1.86     -7.00
    2   20   13     -7.35      4.38
    1   20   13     -3.82     -4.03
    0   20   13      4.32     -6.81
    6   21   13     -0.68      2.54
    5   21   13     -1.03      5.10
    4   21   13      3.67      3.79
    3   21   13    -12.47     -1.75
    2   21   13     -3.02      4.29
    1   21   13      5.32     -9.55
    0    0   14   -517.29   -128.27
    1    1   14   -152.37   -118.07
    0    1   14    -20.26     -4.47
    2    2   14     89.04    153.72
    1    2   14    -13.25    -28.56
    0    2   14   -171.41     -2.78
    3    3   14    -40.45     16.05
    2    3   14     15.24     -9.93
    1    3   14     54.80    -16.08
    0    3   14    -27.34     -8.48
    4    4   14     66.66   -136.65
    3    4   14     -6.42    -48.33
    2    4   14    -31.06     20.77
    1    4   14    -22.77    -46.41
    0    4   14    117.32     -6.00
    5    5   14    -28.50     15.83
    4    5   14    -25.49      2.38
    3    5   14    169.85     45.75
    2    5   14    -34.84    -43.13
    1    5   14    -44.14    -27.72
    0    5   14    -12.26      9.87
    6    6   14    -16.29     36.37
    5    6   14     -6.60     -7.96
    4    6   14      6.59    -15.65
    3    6   14     -5.85      0.48
    2    6   14     10.64    -28.45
    1    6   14    -20.17     20.58
    0    6   14     47.93     -5.00
    7    7   14    -15.60    -35.58
    6    7   14      1.19     15.05
    5    7   14     16.18    -10.31
    4    7   14     -4.86     18.29
    3    7   14    -93.61      4.38
    2    7   14     13.80    -23.31
    1    7   14      4.34    -54.33
    0    7   14    -17.93      1.24
    8    8   14    -80.58    -21.50
    7    8   14      4.46      4.50
    6    8   14     -4.40      4.79
    5    8   14     -6.30     -4.93
    4    8   14    -61.26    -12.78
    3    8   14     -5.57    -12.70
    2    8   14     20.97     61.74
    1    8   14      9.05     -9.31
    0    8   14    -79.50    -25.47
    9    9   14    -10.16    -31.17
    8    9   14      0.14     17.04
    7    9   14    -25.83     30.01
    6    9   14     -6.93     -8.21
    5    9   14    -17.31      1.39
    4    9   14    -10.90    -13.06
    3    9   14     63.67     -6.27
    2    9   14     -8.19      1.60
    1    9   14    -37.92     10.54
    0    9   14    -11.47      5.17
   10   10   14     -4.16      3.11
    9   10   14     -6.35      3.93
    8   10   14     16.72    -27.55
    7   10   14      0.56     -9.33
    6   10   14     -0.43    -19.33
    5   10   14    -18.29     -0.39
    4   10   14     21.35     22.77
    3   10   14     -1.05      8.86
    2   10   14     11.23      1.98
    1   10   14    -18.81      3.03
    0   10   14      2.62     -2.20
   11   11   14      7.10      5.07
   10   11   14     10.27      1.09
    9   11   14     -5.29     -4.73
    8   11   14      9.22     10.20
    7   11   14      9.20    -13.27
    6   11   14     -1.15     -0.47
    5   11   14    -15.76     -3.46
    4   11   14    -17.84     -7.38
    3   11   14      1.52     14.82
    2   11   14    -11.56    -18.92
    1   11   14     33.85     -5.57
    0   11   14     32.91     -0.36
   12   12   14    -18.74      1.29
   11   12   14     -4.78      1.41
   10   12   14     -1.11     -5.89
    9   12   14     -0.31      0.09
    8   12   14      2.47     26.19
    7   12   14      4.75     -2.26
    6   12   14    -11.75     20.44
    5   12   14     -3.08      2.44
    4   12   14      9.20     -1.82
    3   12   14     -3.27     -8.54
    2   12   14     26.93      9.97
    1   12   14     -0.35     -5.45
    0   12   14      7.58     -3.04
   13   13   14      0.38      1.19
   12   13   14      4.66     -4.87
   11   13   14    -12.50      3.91
   10   13   14      2.46      2.74
    9   13   14     24.48     -4.35
    8   13   14      4.28     -0.83
    7   13   14    -12.89      2.01
    6   13   14     -0.15      1.83
    5   13   14     -6.63     10.69
    4   13   14     -3.49      0.45
    3   13   14     17.15     22.80
    2   13   14      8.63     -1.53
    1   13   14     -3.04    -10.25
    0   13   14      2.73     -2.17
   14   14   14      8.44      0.67
   13   14   14     -5.88     -1.33
   12   14   14     10.27      7.31
   11   14   14      4.84      2.47
   10   14   14     -4.23      2.15
    9   14   14      4.94      2.16
    8   14   14     18.68    -23.64
    7   14   14     -6.27     10.19
    6   14   14     -0.31      7.73
    5   14   14      0.90      6.99
    4   14   14    -14.68      4.94
    3   14   14      2.00      1.43
    2   14   14      7.27      1.49
    1   14   14      4.74     14.32
    0   14   14    -26.86     -3.84
   15   15   14      7.36      5.04
   14   15   14     -0.86     -1.67
   13   15   14      1.39      2.70
   12   15   14     -4.17     -4.58
   11   15   14      7.48      1.93
   10   15   14     -0.26     -9.39
    9   15   14     11.36     -2.28
    8   15   14     -5.11      6.75
    7   15   14     15.80     -1.50
    6   15   14      6.57     -6.74
    5   15   14    -16.92    -10.18
    4   15   14     -1.66      3.29
    3   15   14      7.80     -0.18
    2   15   14    -16.67    -11.64
    1   15   14     -7.03     -5.79
    0   15   14     -1.06     -2.36
   15   16   14      8.66      0.41
   14   16   14      1.28     -7.09
   13   16   14     12.81     -1.28
   12   16   14     -3.96     -1.96
   11   16   14      2.18      6.52
   10   16   14     -4.94      4.38
    9   16   14      7.07      1.01
    8   16   14     27.48      7.52
    7   16   14     12.13     -8.67
    6   16   14    -17.03     -4.01
    5   16   14      1.33     -8.79
    4   16   14     16.56      5.56
    3   16   14     -8.67     -4.44
    2   16   14     -5.23     -2.82
    1   16   14      0.30      7.96
    0   16   14     -1.99     -5.45
   13   17   14     -1.04      4.50
   12   17   14      4.59      0.35
   11   17   14     -2.49      0.07
   10   17   14      2.18      0.27
    9   17   14      2.46      8.74
    8   17   14      0.89     -0.54
    7   17   14     14.01     -9.89
    6   17   14     -6.86      4.22
    5   17   14    -11.12     19.15
    4   17   14     10.24      2.65
    3   17   14     -6.20     -3.65
    2   17   14      0.67      8.79
    1   17   14    -15.29     -0.28
    0   17   14    -10.90     -1.31
   12   18   14      3.21      3.12
   11   18   14     -6.91      1.28
   10   18   14     -1.12      2.45
    9   18   14      0.99      5.31
    8   18   14      9.77     -6.13
    7   18   14     -2.85      2.31
    6   18   14     -3.95     -5.30
    5   18   14      5.34     12.43
    4   18   14      6.63     -0.89
    3   18   14     -5.53     19.61
    2   18   14    -10.46     -1.98
    1   18   14     -1.05     -6.30
    0   18   14     -2.11      0.86
   10   19   14     -1.94     -0.04
    9   19   14      4.38     -3.03
    8   19   14     -8.34     -3.12
    7   19   14      5.09      0.88
    6   19   14     -0.98      6.40
    5   19   14     -1.99      6.01
    4   19   14     -4.43     -0.55
    3   19   14      4.90     -3.46
    2   19   14     -2.90     12.87
    1   19   14      0.96      2.07
    0   19   14      7.28     -0.07
    9   20   14     -2.60     -6.17
    8   20   14      3.59      3.80
    7   20   14      3.60     -8.13
    6   20   14      9.71     -1.87
    5   20   14     -6.90     -1.65
    4   20   14      0.62      7.35
    3   20   14     -1.85      5.77
    2   20   14      5.81     -4.13
    1   20   14     -6.89      4.22
    0   20   14     -8.62     -0.63
    6   21   14     -1.33     -4.54
    5   21   14      6.72      2.64
    4   21   14      7.44     -8.48
    3   21   14     -2.31      4.93
    2   21   14    -10.83      0.22
    0   21   14     -0.37      0.47
    1   21   14     -7.70     -4.93
    0    1   15     71.62    147.05
    1    2   15    -17.40    130.13
    0    2   15     -4.56    -23.76
    2    3   15     -3.29      4.48
    1    3   15     13.64      7.38
    0    3   15    -16.20     89.11
    3    4   15     28.90     29.44
    2    4   15     -2.88      3.08
    1    4   15     20.90   -127.70
    0    4   15     -6.52     -7.82
    4    5   15     15.44     -9.98
    3    5   15    -46.35     -9.87
    2    5   15     -6.12     -1.65
    1    5   15      0.06      2.99
    0    5   15     16.78   -118.07
    5    6   15      6.84      6.36
    4    6   15      1.19     13.54
    3    6   15    -12.04    -31.69
    2    6   15    -32.84    -18.63
    1    6   15     71.96    -34.11
    0    6   15      3.87    -35.99
    6    7   15     17.79      4.26
    5    7   15     -8.25     -9.49
    4    7   15    -16.33     30.58
    3    7   15     -0.78    -15.81
    2    7   15    -12.38     94.16
    1    7   15     -6.85     -0.42
    0    7   15      4.47     60.01
    7    8   15     28.70     21.74
    6    8   15      1.70      4.51
    5    8   15    -12.58      2.19
    4    8   15    -24.05    -14.52
    3    8   15     -1.61    102.35
    2    8   15     -9.92     10.22
    1    8   15     -4.01     17.91
    0    8   15      4.89     -9.51
    8    9   15     -5.25      6.97
    7    9   15      6.48     -7.71
    6    9   15     43.83     15.66
    5    9   15      1.11      3.93
    4    9   15    -22.09      8.69
    3    9   15     -5.44     24.09
    2    9   15     31.47     48.04
    1    9   15     -7.58    -13.50
    0    9   15     -1.67    -12.32
    9   10   15      0.85     10.37
    8   10   15      2.53     -9.95
    7   10   15      9.82    -16.39
    6   10   15    -11.13     14.84
    5   10   15      1.24    -13.61
    4   10   15     -1.60     -1.69
    3   10   15    -12.71    -13.36
    2   10   15     -1.49      6.94
    1   10   15    -24.75     23.69
    0   10   15      1.20     -0.51
   10   11   15     -0.01     -0.40
    9   11   15     -6.79     -2.62
    8   11   15     14.73     27.45
    7   11   15     -0.21     -1.40
    6   11   15      0.38    -12.02
    5   11   15    -13.39     16.41
    4   11   15    -14.92     11.07
    3   11   15    -14.69     17.92
    2   11   15      0.35     19.99
    1   11   15      1.58     -8.62
    0   11   15      0.88    -30.68
   11   12   15      3.14     -3.77
   10   12   15      1.37     12.44
    9   12   15     -2.82      7.18
    8   12   15     -1.83    -10.95
    7   12   15      0.30     18.80
    6   12   15    -19.39      4.71
    5   12   15     -3.22    -12.31
    4   12   15      5.06     -2.98
    3   12   15    -13.26     31.00
    2   12   15     -4.74     -4.66
    1   12   15      9.62     -5.62
    0   12   15    -20.68    -13.16
   12   13   15     -6.03    -10.76
   11   13   15     -2.69     -5.60
   10   13   15     -3.25      8.23
    9   13   15    -10.94      0.55
    8   13   15      1.02    -17.14
    7   13   15     -0.12      5.34
    6   13   15     -4.96     13.26
    5   13   15      2.94     -3.61
    4   13   15      2.45      0.17
    3   13   15      0.50    -11.21
    2   13   15    -15.81     18.65
    1   13   15     -3.35     -7.11
    0   13   15     -8.12     37.26
   13   14   15      6.22     -2.31
   12   14   15      4.98      6.30
   11   14   15     -1.37     -6.73
   10   14   15      1.07      0.67
    9   14   15     -4.66      3.57
    8   14   15     -5.38     -5.39
    7   14   15     -1.31      0.86
    6   14   15     -0.25     -4.89
    5   14   15      6.33      2.27
    4   14   15     -2.83      6.59
    3   14   15     -3.63     23.74
    2   14   15      3.97     -0.21
    1   14   15     -0.44     18.47
    0   14   15     -1.30    -15.26
   14   15   15      2.34     -5.34
   13   15   15      0.00      4.02
   12   15   15      1.84      4.83
   11   15   15      7.28     -4.88
   10   15   15     -2.03    -18.85
    9   15   15     13.30      4.22
    8   15   15      8.53     38.26
    7   15   15     -3.40      3.26
    6   15   15    -11.35    -16.17
    5   15   15     -1.60     -2.91
    4   15   15    -12.30     -2.81
    3   15   15      7.12      0.05
    2   15   15     18.37     16.13
    1   15   15     -6.03     -6.94
    0   15   15      1.64    -32.66
   14   16   15     -1.16     -1.06
   13   16   15      2.56     -3.52
   12   16   15      3.61     -2.79
   11   16   15      0.55      3.37
   10   16   15      2.83     11.81
    9   16   15     -5.25      0.93
    8   16   15    -22.99     -0.63
    7   16   15     17.88     21.10
    6   16   15     11.52      0.34
    5   16   15      2.23     -0.71
    4   16   15      2.03     -6.33
    3   16   15     24.23    -14.10
    2   16   15    -11.81     -8.05
    1   16   15    -10.84    -10.20
    0   16   15      1.11      3.28
   13   17   15     -1.47      1.84
   12   17   15      1.23      2.43
   11   17   15     -2.96      9.18
   10   17   15     -4.36      1.92
    9   17   15     -1.07     -9.25
    8   17   15      2.73      6.78
    7   17   15    -10.54     -3.60
    6   17   15      3.48      4.07
    5   17   15      6.41     -6.62
    4   17   15     -0.78      2.58
    3   17   15     -4.98      0.94
    2   17   15      0.64    -20.32
    1   17   15    -14.61      4.90
    0   17   15     -1.89     -6.30
   12   18   15      4.83      2.36
   11   18   15     -3.86     -2.43
   10   18   15     -4.68     -0.04
    9   18   15     -1.26     -0.66
    8   18   15     -1.31     -1.52
    7   18   15     -3.56      2.80
    6   18   15     -1.13      2.57
    5   18   15     -4.42      8.20
    4   18   15     -5.48     -3.74
    3   18   15     -6.71      5.01
    2   18   15     -1.49     -6.01
    1   18   15     -7.68     11.48
    0   18   15      4.92      8.32
   10   19   15     -1.68     -0.52
    9   19   15      8.01     -6.44
    8   19   15     -0.81     -3.52
    7   19   15      1.81      4.24
    6   19   15     -8.65      2.14
    5   19   15      2.71     -2.08
    4   19   15      5.02      0.80
    3   19   15      0.57      2.40
    2   19   15     -7.93      6.94
    1   19   15     -3.47      0.49
    0   19   15     -2.50      8.66
    8   20   15      5.41    -18.28
    7   20   15      1.52      4.73
    6   20   15     -3.52     -1.98
    5   20   15      1.63     -5.19
    4   20   15      8.71     -0.65
    3   20   15     -0.82      1.59
    2   20   15     -0.37      2.81
    1   20   15      3.83      8.80
    0   20   15     -4.72      6.31
    6   21   15      5.70     -4.49
    5   21   15      2.43     -3.28
    4   21   15     -4.19      5.74
    3   21   15     18.20     -2.44
    1   21   15      0.56     -2.95
    2   21   15      2.89     -6.19
    0    0   16    221.73    254.18
    1    1   16    212.20    122.28
    0    1   16      7.68     -8.40
    2    2   16    176.24   -102.08
    1    2   16      5.75    -18.25
    0    2   16    269.80     -7.07
    3    3   16    195.47      4.22
    2    3   16     -9.10     86.10
    1    3   16     17.63     -0.35
    0    3   16     13.55     -4.03
    4    4   16     84.43     -2.66
    3    4   16     -8.18     -3.12
    2    4   16     53.95    -57.33
    1    4   16    -16.80     -2.05
    0    4   16   -147.37     13.69
    5    5   16    -33.16    -68.84
    4    5   16    -31.11     -1.57
    3    5   16   -148.86    -12.44
    2    5   16     32.12     -6.34
    1    5   16    101.32     67.35
    0    5   16    -33.95    -17.88
    6    6   16    -48.60     54.31
    5    6   16     -3.48    -32.66
    4    6   16     -8.15    -25.95
    3    6   16    -22.44    -15.31
    2    6   16    -19.23     70.67
    1    6   16     33.49     60.46
    0    6   16     24.53     -6.56
    7    7   16      5.60     55.68
    6    7   16      8.69    -17.00
    5    7   16     20.93    -18.84
    4    7   16    -11.57      6.95
    3    7   16    142.93     75.60
    2    7   16     21.88     -6.12
    1    7   16    -70.88     52.41
    0    7   16    -25.20     -1.00
    8    8   16    127.60     17.48
    7    8   16     17.12      8.06
    6    8   16     24.68    -10.60
    5    8   16    -10.34     -1.00
    4    8   16     87.11     -4.17
    3    8   16     -1.32    -10.09
    2    8   16    -23.83      8.31
    1    8   16     -5.55     10.50
    0    8   16     68.44      4.77
    9    9   16     54.69    -10.58
    8    9   16      3.68      7.43
    7    9   16     44.49     -3.83
    6    9   16     -3.31      3.93
    5    9   16     -5.64    -44.27
    4    9   16    -17.02    -19.88
    3    9   16     10.49      8.08
    2    9   16    -16.41     17.99
    1    9   16      1.63    -58.79
    0    9   16     29.63    -15.82
   10   10   16     -9.11     -2.47
    9   10   16      2.08     -7.80
    8   10   16    -18.82      0.76
    7   10   16      7.86      3.97
    6   10   16     -9.83    -13.94
    5   10   16    -15.28    -12.62
    4   10   16     -6.90    -11.57
    3   10   16      3.80      1.94
    2   10   16     -5.67     35.47
    1   10   16     -8.99     -7.74
    0   10   16     -7.80     -7.67
   11   11   16    -12.76     25.67
   10   11   16      3.72     -4.16
    9   11   16     -0.76     -7.47
    8   11   16     12.03      4.45
    7   11   16     -3.36     24.17
    6   11   16    -22.56     -4.24
    5   11   16     11.38      3.45
    4   11   16     -1.86     -1.50
    3   11   16     25.52     -2.24
    2   11   16    -11.56     -0.30
    1   11   16    -19.51     11.51
    0   11   16    -15.04      0.18
   12   12   16     13.93      3.03
   11   12   16      0.99      1.41
   10   12   16     -8.87     12.07
    9   12   16      0.85      3.54
    8   12   16     -1.26      4.26
    7   12   16      1.55      7.47
    6   12   16     20.95    -17.04
    5   12   16     -4.60      0.14
    4   12   16      0.19      9.88
    3   12   16     -6.84     13.23
    2   12   16    -10.01      4.07
    1   12   16     -1.97      5.15
    0   12   16    -53.08     -1.54
   13   13   16     -4.49     -9.04
   12   13   16     -5.66      8.36
   11   13   16      5.17     -9.30
   10   13   16     -9.09     -1.97
    9   13   16    -11.57      1.32
    8   13   16      7.50     14.12
    7   13   16     11.56    -11.10
    6   13   16     -2.00    -13.81
    5   13   16      3.19      1.39
    4   13   16      7.94      0.78
    3   13   16     -2.81      2.07
    2   13   16      3.50      6.04
    1   13   16     -5.90     -9.03
    0   13   16      0.06     -2.65
   13   14   16     -5.07      2.13
   12   14   16     -7.08      3.46
   11   14   16     -9.79     -0.67
   10   14   16     12.70    -13.37
    9   14   16      6.96     -3.91
    8   14   16     -3.89      1.22
    7   14   16      1.44      6.76
    6   14   16      0.30    -20.63
    5   14   16     -7.44    -10.02
    4   14   16     15.95      7.27
    3   14   16     -4.78     -5.04
    2   14   16      3.25     -2.07
    1   14   16     -7.42     -7.74
    0   14   16     11.46      1.62
   15   15   16      0.21     -0.49
   14   15   16     -0.58      4.24
   13   15   16     -0.90     -4.68
   12   15   16     -0.14     -1.51
   11   15   16     -8.94     -7.47
   10   15   16     -0.09     -3.66
    9   15   16    -15.20      9.18
    8   15   16      3.58     -3.50
    7   15   16     -6.96    -18.40
    6   15   16    -14.29      2.19
    5   15   16     18.80     -6.39
    4   15   16      1.83     -2.10
    3   15   16      4.95      5.95
    2   15   16     17.48     -6.47
    1   15   16      6.47     -4.55
    0   15   16     -0.78     -1.32
   14   16   16     -6.65      3.65
   13   16   16    -10.46      2.11
   12   16   16     -1.74      4.99
   11   16   16     -1.10     -3.56
   10   16   16      6.35     -3.70
    9   16   16     -3.39     -2.17
    8   16   16    -30.52      2.08
    7   16   16    -10.38     -5.81
    6   16   16     12.61      3.08
    5   16   16      1.90    -11.27
    4   16   16     -4.68     -5.86
    3   16   16      9.95     10.21
    2   16   16    -12.03    -14.90
    1   16   16     -0.58     -9.89
    0   16   16      5.94      3.20
   13   17   16     -4.32     -7.51
   12   17   16     -9.04      5.58
   11   17   16      6.05     -1.58
   10   17   16      5.15     -1.63
    9   17   16     -9.70     -2.72
    8   17   16     -4.17      5.48
    7   17   16    -10.37      2.02
    6   17   16      4.43     -4.88
    5   17   16      1.31    -11.51
    4   17   16     -4.81     -5.08
    3   17   16      6.61     -3.10
    2   17   16      2.47     -2.72
    1   17   16     13.51     -2.12
    0   17   16     11.07     -2.49
   12   18   16     -0.42     -2.94
   11   18   16      4.13     -7.78
   10   18   16     -1.31      3.31
    9   18   16      4.52      1.36
    8   18   16     -3.62      3.12
    7   18   16     -2.64      4.22
    6   18   16     -2.46     -7.40
    5   18   16     -1.23      5.44
    4   18   16     11.72     10.43
    3   18   16      7.70     -6.01
    2   18   16      8.68     -1.56
    1   18   16      6.94      2.07
    0   18   16      4.90      0.64
   10   19   16     -5.77     -0.55
    9   19   16      1.64      5.39
    8   19   16      1.36     -0.14
    7   19   16     -1.46      2.76
    6   19   16     -7.00     -8.77
    5   19   16      2.14      3.12
    4   19   16     -0.14     -2.95
    3   19   16      2.89     -5.26
    2   19   16     -1.54     -0.06
    1   19   16     -1.22     -1.49
    0   19   16     -5.50      1.36
    8   20   16     -1.44     -0.66
    7   20   16     -2.43     -3.57
    6   20   16     -4.13     -4.73
    5   20   16     -3.17     -2.38
    4   20   16      2.06     -2.95
    3   20   16     -2.52     -5.96
    2   20   16      1.81     -3.93
    1   20   16      2.96      4.14
    0   20   16      1.71      0.35
    6   21   16      8.88      3.52
    5   21   16     -1.82     -6.82
    3   21   16      5.65     -1.35
    2   21   16     -1.22     -3.59
    1   21   16     14.06      0.70
    4   21   16     -2.36      5.96
    0    1   17    -45.06   -189.43
    1    2   17   -129.77    -97.15
    0    2   17     -1.85     -5.77
    2    3   17    -84.43    -12.66
    1    3   17      0.23      4.23
    0    3   17      7.74     67.10
    3    4   17    -41.62      3.58
    2    4   17     23.87     -2.59
    1    4   17     17.23     97.66
    0    4   17      6.78     32.67
    4    5   17     22.58     22.83
    3    5   17    -37.96     -1.03
    2    5   17     26.14     19.74
    1    5   17     34.47     24.59
    0    5   17    -17.53     -3.81
    5    6   17     19.82    -16.69
    4    6   17     -5.10     -2.85
    3    6   17    -22.40     67.95
    2    6   17    -18.59     37.76
    1    6   17      1.00    -11.79
    0    6   17    -10.40    -46.26
    6    7   17     13.34    -17.85
    5    7   17    -12.40      7.08
    4    7   17      6.01    -66.82
    3    7   17    -36.56    -24.11
    2    7   17      4.91    -16.26
    1    7   17     -6.46    -11.60
    0    7   17      0.26    -36.79
    7    8   17    -11.35    -38.78
    6    8   17     -8.36    -10.73
    5    8   17     10.94      7.72
    4    8   17    -41.14    -30.79
    3    8   17     46.70    -20.87
    2    8   17    -40.42      6.78
    1    8   17     38.68    -88.28
    0    8   17     -1.15     -0.12
    8    9   17    -20.33    -32.50
    7    9   17    -13.75      1.68
    6    9   17    -24.83    -20.12
    5    9   17    -20.08    -34.68
    4    9   17     -1.10      3.46
    3    9   17     -6.16     21.25
    2    9   17     13.18    -15.30
    1    9   17     -9.53      0.13
    0    9   17     -8.59    -52.27
    9   10   17    -17.21     -3.71
    8   10   17     -3.58     -0.89
    7   10   17      8.65      6.84
    6   10   17      7.89      0.09
    5   10   17     -2.40    -37.78
    4   10   17     -2.76     -1.12
    3   10   17    -10.01      5.59
    2   10   17     -6.53    -11.90
    1   10   17      9.47      6.87
    0   10   17      2.99     -7.46
   10   11   17     -0.70      1.40
    9   11   17      6.99      1.43
    8   11   17      3.27     -3.81
    7   11   17     15.21      6.38
    6   11   17      1.47     -7.80
    5   11   17     -0.86    -12.98
    4   11   17      6.25    -26.48
    3   11   17    -20.01     -0.99
    2   11   17     13.34      1.33
    1   11   17      1.03    -21.68
    0   11   17     -2.85    -54.57
   11   12   17     14.29     -3.61
   10   12   17     -4.63      1.17
    9   12   17     -8.76      0.54
    8   12   17     12.41     20.34
    7   12   17    -12.32    -16.69
    6   12   17     -3.58     -7.04
    5   12   17      3.68      0.62
    4   12   17     -2.96     -9.39
    3   12   17     18.53    -16.33
    2   12   17     19.24     12.85
    1   12   17     10.76    -11.08
    0   12   17     22.01     11.17
   12   13   17      4.28      9.39
   11   13   17     -1.16      3.69
   10   13   17     -1.25    -15.13
    9   13   17      5.87     -2.98
    8   13   17     -4.16     23.37
    7   13   17     -2.74     -9.58
    6   13   17      4.59     -7.87
    5   13   17     12.22      3.91
    4   13   17    -20.01     -0.63
    3   13   17     -0.84      2.38
    2   13   17      3.81     -0.87
    1   13   17     -9.62      5.39
    0   13   17     13.02    -12.04
   13   14   17     -2.79      2.48
   12   14   17     -0.64      1.80
   11   14   17      4.02      4.28
   10   14   17      0.80    -14.97
    9   14   17      2.76      8.62
    8   14   17      4.85    -10.96
    7   14   17      7.52      4.49
    6   14   17      3.33      7.04
    5   14   17    -20.08    -10.55
    4   14   17     -8.66      2.21
    3   14   17     -0.99     -3.63
    2   14   17      5.43     10.41
    1   14   17     -2.23      4.65
    0   14   17      7.77     -3.06
   14   15   17      1.20      1.94
   13   15   17      0.64      2.38
   12   15   17     -4.62      2.30
   11   15   17    -11.95      3.55
   10   15   17      9.13     14.85
    9   15   17     -6.84     -9.46
    8   15   17    -12.92    -31.42
    7   15   17     -5.99      0.25
    6   15   17      6.70     14.09
    5   15   17     -7.81     -6.15
    4   15   17     -7.62     -7.49
    3   15   17     -5.38     11.13
    2   15   17     -4.90    -11.06
    1   15   17      1.52      4.30
    0   15   17     -1.95     10.30
   14   16   17     -2.43     -3.96
   13   16   17      0.62      5.97
   12   16   17     -2.97     -0.78
   11   16   17     -4.33      3.82
   10   16   17     -4.43     -5.79
    9   16   17      5.10     -2.95
    8   16   17     -1.61     -7.67
    7   16   17      1.00     -6.76
    6   16   17     -8.38     -1.54
    5   16   17    -12.45     -8.41
    4   16   17      3.64      2.44
    3   16   17    -18.52     -6.28
    2   16   17      0.30     -5.87
    1   16   17      3.56     -3.65
    0   16   17      1.34     12.08
   13   17   17     -0.44     -5.83
   12   17   17      4.29      2.56
   11   17   17     -1.96     -0.06
   10   17   17     -2.80      4.78
    9   17   17     -4.22     -0.39
    8   17   17      1.67      6.08
    7   17   17      8.77     10.15
    6   17   17     -9.27      0.03
    5   17   17      0.30     -5.37
    4   17   17     -0.35    -12.47
    3   17   17      4.01     16.52
    2   17   17     -1.78     21.09
    1   17   17     19.23    -11.14
    0   17   17      1.15      0.62
   12   18   17     -1.71     -1.58
   11   18   17      1.81      2.42
   10   18   17      3.75     -0.73
    9   18   17     -3.82      3.42
    8   18   17     -2.13     -0.35
    7   18   17      2.54     -2.77
    6   18   17      8.15     -1.95
    5   18   17     -3.36     -5.15
    4   18   17     14.09      1.52
    3   18   17      6.19     -4.16
    2   18   17      5.53      1.94
    1   18   17      4.77      1.88
    0   18   17    -10.27     -8.32
   10   19   17     -7.93      2.62
    9   19   17     -3.67      2.46
    8   19   17      2.44     -2.04
    7   19   17      1.24      7.25
    6   19   17     15.72      4.09
    5   19   17     -3.35    -11.17
    4   19   17     -8.13     -3.74
    3   19   17     -1.82     -4.56
    2   19   17      7.28     -2.37
    1   19   17     -2.63      1.11
    0   19   17      2.26     -7.60
    8   20   17    -11.11      8.96
    7   20   17     -5.44      0.11
    6   20   17     -4.04     -3.45
    5   20   17     -3.78     -2.03
    4   20   17     -3.80     -2.46
    3   20   17      1.23      5.52
    2   20   17      1.16      0.25
    1   20   17     -0.78     -2.81
    0   20   17      6.02    -15.31
    6   21   17     -2.52     11.64
    5   21   17      6.24     -5.47
    4   21   17      5.56     -2.82
    3   21   17    -13.97     -0.93
    2   21   17     -2.70      7.42
    1   21   17     -1.39     -0.18
    0   21   17     -0.11      5.41
    0    0   18   -150.89   -129.56
    1    1   18    -90.38   -117.67
    0    1   18    -19.29     -5.07
    2    2   18    -30.56    -14.79
    1    2   18      8.00    -22.66
    0    2   18     76.40     32.11
    3    3   18    -44.93    -25.51
    2    3   18      6.32     68.79
    1    3   18     55.40     18.41
    0    3   18      1.86     -9.73
    4    4   18     19.74     82.54
    3    4   18    -26.86      6.31
    2    4   18    -62.32     -4.74
    1    4   18    -25.64      2.34
    0    4   18     17.52     16.49
    5    5   18    -57.15     50.27
    4    5   18     -5.23     -0.17
    3    5   18    -19.19    -28.01
    2    5   18     13.39    -31.95
    1    5   18    -99.41     11.54
    0    5   18      7.41      8.82
    6    6   18      2.77    -35.39
    5    6   18    -20.27    -35.35
    4    6   18    -19.28      4.46
    3    6   18      5.99     14.44
    2    6   18    -16.59    -42.22
    1    6   18     16.72     66.97
    0    6   18   -164.34      5.03
    7    7   18    -51.04    -64.30
    6    7   18     -3.72     12.69
    5    7   18      9.81     48.07
    4    7   18     -5.33     17.00
    3    7   18    -30.78    -46.68
    2    7   18      4.20     34.42
    1    7   18     63.59    -53.72
    0    7   18    -40.55     -1.39
    8    8   18    -67.28    -33.10
    7    8   18      4.45      6.25
    6    8   18     22.60     49.53
    5    8   18     -7.97      4.96
    4    8   18    -60.48    -46.16
    3    8   18      1.11     19.11
    2    8   18     40.44     15.74
    1    8   18    -15.57     -3.25
    0    8   18     13.16    -14.19
    9    9   18    -32.09     -2.57
    8    9   18      0.49    -11.00
    7    9   18    -18.45     37.35
    6    9   18      6.07    -14.08
    5    9   18     44.09      8.10
    4    9   18    -20.63    -12.70
    3    9   18     12.02     -8.54
    2    9   18     10.40      9.01
    1    9   18     -2.16      5.09
    0    9   18      3.99      9.17
   10   10   18      4.50    -10.65
    9   10   18      8.83     11.37
    8   10   18      2.65      3.27
    7   10   18      6.95      3.12
    6   10   18      0.07      1.86
    5   10   18    -19.44    -17.92
    4   10   18      5.58      2.52
    3   10   18     -9.67      1.53
    2   10   18     -5.70     -7.51
    1   10   18    -18.25     25.49
    0   10   18     -6.11     -3.18
   11   11   18     12.37     -4.96
   10   11   18      2.35    -12.01
    9   11   18     13.59     -9.45
    8   11   18     -3.71     -0.96
    7   11   18      0.44     -6.34
    6   11   18     14.60      1.78
    5   11   18      2.06    -30.32
    4   11   18    -15.24      7.86
    3   11   18    -20.54     12.85
    2   11   18     -8.13     11.97
    1   11   18    -25.63    -24.08
    0   11   18    -24.34     -3.65
   12   12   18      4.59     12.42
   11   12   18      7.79      2.20
   10   12   18      9.17    -12.14
    9   12   18     -3.85      2.64
    8   12   18      9.71      6.26
    7   12   18     -3.37      1.23
    6   12   18      6.43     15.46
    5   12   18      0.25     -1.88
    4   12   18     22.58    -15.65
    3   12   18      5.65     -8.36
    2   12   18     -2.26    -11.82
    1   12   18     15.55     15.70
    0   12   18     13.41      0.18
   13   13   18     19.40      9.69
   12   13   18      4.12     -0.90
   11   13   18     -8.90      7.78
   10   13   18      7.73      0.36
    9   13   18     14.23      3.43
    8   13   18      0.26      2.45
    7   13   18      2.93     16.70
    6   13   18     -6.80     -3.86
    5   13   18     15.91      2.39
    4   13   18      1.93    -13.50
    3   13   18      3.79     -3.07
    2   13   18     15.60     13.69
    1   13   18     23.23      8.47
    0   13   18      9.59     -4.12
   13   14   18     -3.71     -0.35
   12   14   18      7.36    -11.21
   11   14   18      8.98     -7.22
   10   14   18      1.12     12.86
    9   14   18      8.20     -7.47
    8   14   18     -4.49     -3.48
    7   14   18     -4.16     -9.60
    6   14   18     -0.70     18.56
    5   14   18      4.19      5.08
    4   14   18     -1.01    -21.48
    3   14   18      4.47     -9.71
    2   14   18     -3.00     22.23
    1   14   18      5.13      7.01
    0   14   18     -6.17     -1.27
   14   14   18     -3.12     -1.77
   14   15   18      0.66     -3.67
   13   15   18      5.31      2.03
   12   15   18      0.97     -1.02
   11   15   18      3.34     -1.13
   10   15   18      9.05      5.63
    9   15   18     -0.87     -8.31
    8   15   18      2.12     -5.47
    7   15   18      1.78     13.09
    6   15   18      3.88      1.31
    5   15   18      0.26     14.29
    4   15   18      1.12     -4.12
    3   15   18      4.23     -3.86
    2   15   18    -19.13      4.39
    1   15   18     -9.50      8.93
    0   15   18      5.93     -0.05
   15   15   18     -2.60    -13.75
   14   16   18     13.87     -5.27
   13   16   18      3.28     -3.77
   12   16   18      3.94     -3.97
   11   16   18      4.85      3.21
   10   16   18     -9.72      4.83
    9   16   18     -1.40      3.81
    8   16   18     24.14     -8.87
    7   16   18      5.71     15.33
    6   16   18     -4.12      0.91
    5   16   18     -2.24      3.60
    4   16   18      8.51     -0.42
    3   16   18      4.14     -9.31
    2   16   18     10.41      8.09
    1   16   18      0.91     23.20
    0   16   18      3.29     -3.95
   13   17   18     -3.16      2.88
   12   17   18      5.81     -1.86
   11   17   18      1.82      5.53
   10   17   18     -6.42      1.38
    9   17   18      8.03      1.84
    8   17   18     10.79     -4.71
    7   17   18      8.75      0.89
    6   17   18    -12.90     16.03
    5   17   18     -8.61     10.11
    4   17   18     11.99     -0.13
    3   17   18      0.48      3.90
    2   17   18     12.16      4.10
    1   17   18    -18.54      9.42
    0   17   18      9.54      2.47
   12   18   18      0.19      0.90
   11   18   18      4.13      6.14
   10   18   18     -7.30     -2.19
    9   18   18     -0.43      2.82
    8   18   18     -3.55      2.57
    7   18   18     -2.52      1.22
    6   18   18      0.34      1.76
    5   18   18     -6.14      1.15
    4   18   18     -2.66      2.73
    3   18   18      5.02     -9.71
    2   18   18     -1.90      7.80
    1   18   18     -9.76      2.08
    0   18   18     -4.57      0.10
   10   19   18      7.91     -0.29
    9   19   18     -6.10    -10.61
    8   19   18     -0.39     -0.67
    7   19   18      3.76      2.71
    6   19   18      0.12     -0.38
    5   19   18      6.27     -2.02
    4   19   18     -3.89     -2.70
    3   19   18     -1.40     -2.09
    2   19   18    -10.32      0.83
    1   19   18      7.47      2.11
    0   19   18     -3.51     -6.45
    8   20   18      7.03      1.88
    7   20   18     -9.34      7.35
    6   20   18      3.50      2.56
    5   20   18     -2.00      4.85
    4   20   18      2.29      1.45
    3   20   18     -6.91      6.50
    2   20   18      1.18     -6.29
    1   20   18     -0.53     -4.57
    0   20   18      3.65     -1.25
    5   21   18      1.24      1.42
    4   21   18      9.01     -1.67
    3   21   18     -8.20     -0.91
    2   21   18      8.81      5.33
    1   21   18     -9.63     -4.27
    0   21   18     -4.31      0.45
    0    1   19    -15.38    -98.16
    1    2   19    -12.66   -223.59
    0    2   19     -1.09     23.59
    2    3   19     81.66   -129.26
    1    3   19    -21.26     15.25
    0    3   19     26.04   -105.60
    3    4   19     45.14     29.89
    2    4   19     17.74     -6.08
    1    4   19     -9.07   -128.54
    0    4   19      2.05     13.21
    4    5   19      4.59    136.37
    3    5   19    -34.87     -6.33
    2    5   19     37.14    -14.96
    1    5   19     -4.57      3.77
    0    5   19      9.65    -12.65
    5    6   19    -41.82     -1.15
    4    6   19      4.69      4.27
    3    6   19     27.43     16.26
    2    6   19    -13.41     10.60
    1    6   19    -25.33     97.67
    0    6   19      4.22    -35.81
    6    7   19     18.83     34.41
    5    7   19      4.29     25.25
    4    7   19    -17.34    -30.63
    3    7   19      8.38     -1.79
    2    7   19    -14.75     41.85
    1    7   19     12.98    -23.63
    0    7   19     -1.65     37.42
    7    8   19      8.40     27.59
    6    8   19     -3.16     -8.32
    5    8   19     10.74      0.16
    4    8   19      2.87    -17.32
    3    8   19     -4.18     -0.41
    2    8   19      1.96    -14.82
    1    8   19     10.30     28.58
    0    8   19      1.78     18.30
    8    9   19     -4.12     13.94
    7    9   19      9.80      1.44
    6    9   19    -19.81     -7.33
    5    9   19     -3.83    -16.77
    4    9   19      1.71     -9.24
    3    9   19     -4.89     18.90
    2    9   19    -31.43     -1.51
    1    9   19     -8.54    -11.61
    0    9   19     15.61     31.60
    9   10   19    -13.72     -7.15
    8   10   19      7.00    -26.96
    7   10   19    -30.29     -2.62
    6   10   19     14.36     23.65
    5   10   19    -11.54     -4.71
    4   10   19     16.68     31.64
    3   10   19    -34.55      0.06
    2   10   19    -18.55    -19.59
    1   10   19     10.84     19.89
    0   10   19      2.45     10.12
   10   11   19    -19.14    -10.66
    9   11   19    -13.52      2.66
    8   11   19      3.53     -2.45
    7   11   19     -0.01      7.18
    6   11   19     -8.31    -26.39
    5   11   19     -1.93      3.92
    4   11   19     -1.50     25.17
    3   11   19      5.55      6.85
    2   11   19     -5.62    -16.82
    1   11   19     -4.70     20.58
    0   11   19     -6.20    109.43
   11   12   19     -3.39      6.08
   10   12   19      7.38    -10.50
    9   12   19     -3.24     -1.16
    8   12   19    -11.69     -1.49
    7   12   19     -1.95     10.05
    6   12   19     -2.46    -13.13
    5   12   19      8.62      5.03
    4   12   19     -3.85     -1.32
    3   12   19      0.75     24.96
    2   12   19    -17.16     16.01
    1   12   19     -0.16      8.36
    0   12   19     -4.69    -17.02
   12   13   19      1.41     -0.52
   11   13   19      7.86      4.99
   10   13   19      4.41      9.87
    9   13   19     -1.36     -1.78
    8   13   19      4.65     -2.59
    7   13   19     -4.84    -13.25
    6   13   19     -4.34     -1.48
    5   13   19     -2.96     10.14
    4   13   19      9.13     -1.85
    3   13   19    -18.20      1.25
    2   13   19     -4.81    -17.09
    1   13   19      1.68    -15.55
    0   13   19     -4.17     -5.68
   13   14   19      0.65      3.40
   12   14   19      1.93     -6.22
   11   14   19     -4.19     -9.06
   10   14   19     -1.67     11.20
    9   14   19      5.23     -7.85
    8   14   19     -7.27     10.16
    7   14   19    -13.34     -8.13
    6   14   19      6.69      5.30
    5   14   19     13.91     -5.35
    4   14   19     -8.56     -2.28
    3   14   19      0.77     -5.00
    2   14   19     -8.12      3.65
    1   14   19      2.91     17.59
    0   14   19     -7.94     -6.89
   14   15   19     -2.47     -3.11
   13   15   19     -5.61    -11.69
   12   15   19      5.86      1.86
   11   15   19      4.98      0.81
   10   15   19    -18.87    -17.05
    9   15   19      1.71      4.67
    8   15   19     -5.35      9.32
    7   15   19      4.74      4.32
    6   15   19     11.28     -4.69
    5   15   19      5.56    -13.09
    4   15   19     14.02     16.00
    3   15   19    -13.88      7.38
    2   15   19     -0.62      6.40
    1   15   19      2.74    -11.07
    0   15   19      4.18     10.67
   14   16   19     -5.01      4.97
   13   16   19      1.45    -12.32
   12   16   19     -2.07     -0.88
   11   16   19      3.65    -14.54
   10   16   19      2.19      3.57
    9   16   19      1.22     -4.43
    8   16   19     -2.69      3.96
    7   16   19    -12.74      0.24
    6   16   19      5.73     -8.04
    5   16   19     28.65     16.91
    4   16   19    -10.09    -10.90
    3   16   19      5.70     16.93
    2   16   19      3.11     11.78
    1   16   19      4.07      3.77
    0   16   19     -2.01     -2.55
   13   17   19     -5.86     -3.75
   12   17   19     -1.13      1.72
   11   17   19      3.98      2.57
   10   17   19      9.63     -7.49
    9   17   19      0.71     -7.90
    8   17   19      3.83     -9.84
    7   17   19    -12.33      3.39
    6   17   19     14.08     -2.56
    5   17   19      2.18     -1.54
    4   17   19      0.41     -3.59
    3   17   19     -6.98      1.63
    2   17   19     11.18     -0.84
    1   17   19     -7.43      2.02
    0   17   19     -3.82    -15.61
   12   18   19     -1.56      1.38
   11   18   19     -1.23      4.97
   10   18   19     -1.70     -4.40
    9   18   19      2.12     -7.68
    8   18   19      2.24      3.86
    7   18   19      0.93      0.50
    6   18   19     -6.72      1.83
    5   18   19     20.85     -6.62
    4   18   19    -11.71      3.70
    3   18   19    -11.08     -8.17
    2   18   19     -2.45     -4.12
    1   18   19      7.40     -1.37
    0   18   19     11.13     -0.64
   10   19   19      0.50     -3.11
    9   19   19      5.02     -5.34
    8   19   19      0.97     -0.49
    7   19   19    -10.23     -3.66
    6   19   19     -8.29      0.79
    5   19   19      7.38     -2.06
    4   19   19     11.12     -0.54
    3   19   19     -4.99      6.15
    2   19   19     -9.26      4.57
    1   19   19     -1.70     -0.25
    0   19   19     -3.13     -4.04
    8   20   19      6.44     -1.65
    7   20   19      2.28      1.76
    6   20   19     15.06      4.08
    5   20   19     -2.28      6.89
    4   20   19      1.79      5.85
    3   20   19     -0.18      2.92
    2   20   19      0.18      5.20
    1   20   19     -4.85      1.14
    0   20   19     11.71      2.85
    5   21   19      7.18      3.68
    4   21   19     -9.74      1.56
    3   21   19     11.09      1.45
    2   21   19     -3.42     -5.05
    1   21   19      3.24      4.57
    0   21   19      0.96      3.56
    0    0   20    168.33     45.39
    1    1   20    -73.49     16.19
    0    1   20      5.60     -1.43
    2    2   20   -124.35    -50.12
    1    2   20    -11.37     -0.43
    0    2   20   -207.44    -40.62
    3    3   20     29.87    -53.81
    2    3   20      7.02     82.54
    1    3   20    -14.43     50.85
    0    3   20     -2.60      1.81
    4    4   20    115.78     33.75
    3    4   20     22.84     -7.78
    2    4   20     50.42    -32.77
    1    4   20     -1.71     -3.02
    0    4   20    132.19    -19.67
    5    5   20     94.08     47.76
    4    5   20     14.34      3.53
    3    5   20     19.87    -42.39
    2    5   20     -1.53      5.03
    1    5   20     58.27    -13.05
    0    5   20     13.56     -0.32
    6    6   20    -53.71     74.41
    5    6   20     -6.40     -9.69
    4    6   20      5.23      0.59
    3    6   20    -10.27     33.97
    2    6   20    -19.74     40.40
    1    6   20      4.65     61.74
    0    6   20     86.74     -5.32
    7    7   20    -25.32     73.17
    6    7   20     10.57    -19.48
    5    7   20    -14.72      5.79
    4    7   20     -2.11     18.10
    3    7   20    -42.24     51.96
    2    7   20     -6.71     15.95
    1    7   20     -1.89    -18.84
    0    7   20    -14.55      0.35
    8    8   20     23.44     -0.55
    7    8   20    -13.01     -1.86
    6    8   20     -4.70     -6.65
    5    8   20     -5.53     -6.23
    4    8   20     18.12    -12.67
    3    8   20      1.54     -5.48
    2    8   20    -14.70    -28.99
    1    8   20      4.11     -0.23
    0    8   20     10.86     13.50
    9    9   20     57.89    -22.57
    8    9   20     -5.03     -2.40
    7    9   20    -11.80    -33.70
    6    9   20     -7.88     -7.69
    5    9   20    -34.43     -4.28
    4    9   20     -7.00      0.16
    3    9   20      3.36     12.36
    2    9   20     15.61     26.17
    1    9   20     -5.22     16.28
    0    9   20    -11.23     -5.36
   10   10   20      0.34    -13.15
    9   10   20      2.27      7.41
    8   10   20      3.80    -15.35
    7   10   20    -11.86      0.40
    6   10   20      9.46     13.89
    5   10   20      6.89     -7.03
    4   10   20      0.01     21.05
    3   10   20      8.01     10.76
    2   10   20     10.66    -31.85
    1   10   20      0.58     11.13
    0   10   20     36.73      4.60
   11   11   20    -32.18     13.18
   10   11   20      5.82      3.74
    9   11   20    -12.31      5.97
    8   11   20     -1.70     -4.42
    7   11   20     -3.87      4.99
    6   11   20    -14.39      3.00
    5   11   20     -8.50     35.09
    4   11   20     -5.69      5.93
    3   11   20     21.34    -18.31
    2   11   20     -7.78     -2.37
    1   11   20     49.65     23.80
    0   11   20     11.07      5.80
   12   12   20    -10.77     -0.80
   11   12   20    -13.15      1.33
   10   12   20     -4.09      9.34
    9   12   20      6.22     -0.94
    8   12   20    -11.14     -0.10
    7   12   20     -1.77     -6.78
    6   12   20     -9.28     -0.23
    5   12   20      5.80      4.05
    4   12   20    -18.55     20.13
    3   12   20     -4.68     -2.82
    2   12   20     19.92     -3.15
    1   12   20      2.05      7.52
    0   12   20      1.81     -1.84
   13   13   20     -8.13      0.69
   12   13   20     -3.71     -0.69
   11   13   20     -0.35    -12.26
   10   13   20      0.21     -6.95
    9   13   20     11.54    -13.93
    8   13   20     -3.83      6.07
    7   13   20      5.00    -14.81
    6   13   20      1.99      6.52
    5   13   20    -11.16      1.85
    4   13   20     -0.67     -3.36
    3   13   20      0.39      9.90
    2   13   20      3.19      9.83
    1   13   20    -34.14    -22.34
    0   13   20      1.54      6.41
   14   14   20      5.72     -6.23
   13   14   20      2.54     -1.75
   12   14   20    -12.53     -0.41
   11   14   20      1.17     -1.92
   10   14   20      6.61     -7.13
    9   14   20     -2.31      2.61
    8   14   20     21.61    -25.15
    7   14   20      3.29     13.10
    6   14   20      4.63     -3.52
    5   14   20    -13.76     -2.13
    4   14   20      0.98     -2.49
    3   14   20     -9.93      3.82
    2   14   20     11.34     -7.09
    1   14   20      4.18     -1.73
    0   14   20      2.37     -5.57
   15   15   20     -2.98      8.92
   14   15   20     -2.19      4.05
   13   15   20     -3.91      0.30
   12   15   20      6.39      0.50
   11   15   20      2.24      1.88
   10   15   20     -3.71     -0.32
    9   15   20      7.15     11.47
    8   15   20     -1.46      6.15
    7   15   20     10.24    -18.43
    6   15   20     -3.08     -6.14
    5   15   20     -2.29     -6.49
    4   15   20     -9.66      0.78
    3   15   20      0.83      1.90
    2   15   20      0.79      7.13
    1   15   20      0.08    -30.99
    0   15   20    -13.32      6.68
   14   16   20     -5.62      7.77
   13   16   20     -6.29      6.84
   12   16   20     -5.10     -0.74
   11   16   20      1.66      0.19
   10   16   20      3.86      6.75
    9   16   20     -4.76     -6.91
    8   16   20     -5.05      9.44
    7   16   20      2.79     -2.21
    6   16   20     -4.11     11.01
    5   16   20     -6.86     -2.08
    4   16   20     -3.61     -5.52
    3   16   20     -5.13     -0.54
    2   16   20    -13.47     -1.62
    1   16   20     -8.99     -4.45
    0   16   20     -7.34     -0.65
   13   17   20      2.76      1.22
   12   17   20     -2.71      5.97
   11   17   20      2.42      4.45
   10   17   20      8.50      3.49
    9   17   20     -3.67     -1.05
    8   17   20     -3.51      9.49
    7   17   20      0.47      2.52
    6   17   20     15.44     -8.90
    5   17   20      3.53     -1.03
    4   17   20     -5.41     -0.86
    3   17   20     -9.43     -7.78
    2   17   20    -12.45      6.40
    1   17   20      3.99     10.54
    0   17   20     -0.52     -3.30
   12   18   20      1.31      1.06
   11   18   20      2.49     -0.32
   10   18   20      3.80     -8.18
    9   18   20     -6.16      4.31
    8   18   20     11.25      3.42
    7   18   20      0.06      1.74
    6   18   20      0.67     -4.62
    5   18   20      1.62      3.92
    4   18   20     -5.67      1.40
    3   18   20     -5.32      9.24
    2   18   20     -5.62    -10.06
    1   18   20      8.00    -11.50
    0   18   20      9.91     -1.41
   10   19   20     -9.09     -3.30
    9   19   20      2.76      1.73
    8   19   20     -4.79     -7.69
    7   19   20      3.98     -5.06
    6   19   20     -8.17      8.03
    5   19   20      3.01     -7.19
    4   19   20     -4.46     -3.19
    3   19   20      5.26     -5.65
    2   19   20      5.34     13.62
    1   19   20      5.26     -0.58
    0   19   20      2.71      1.16
    8   20   20     -4.28      0.10
    7   20   20      4.70     -7.46
    6   20   20      0.99      0.15
    5   20   20      7.13     -6.05
    4   20   20      1.64     -5.51
    3   20   20      7.11     -1.38
    2   20   20      4.94      2.31
    1   20   20     -4.15      1.27
    0   20   20     -0.84      0.75
    5   21   20     -3.36     -2.07
    4   21   20     -0.28     -4.03
    3   21   20      6.20      7.81
    2   21   20     -4.46     -2.98
    1   21   20      2.40      7.03
    0   21   20      9.33      1.42
    0    1   21     45.88     60.53
    1    2   21     13.77    194.89
    0    2   21     -1.58     57.87
    2    3   21      0.57     38.98
    1    3   21     -8.38     -2.12
    0    3   21    -92.82    228.08
    3    4   21     63.78    -69.44
    2    4   21     13.89    -18.69
    1    4   21    -13.11    -91.21
    0    4   21     -0.68     15.35
    4    5   21     12.43    -83.40
    3    5   21      7.98     -8.63
    2    5   21    -31.42    -49.54
    1    5   21     -7.55      6.09
    0    5   21     -7.05   -192.56
    5    6   21    -12.80      5.26
    4    6   21      5.48     16.60
    3    6   21      6.47     -5.89
    2    6   21     -5.92     12.04
    1    6   21     41.44     -2.54
    0    6   21     -8.20      9.36
    6    7   21     -6.17     13.79
    5    7   21    -13.62     23.99
    4    7   21    -26.84     46.99
    3    7   21     -1.75      0.04
    2    7   21     24.88      8.36
    1    7   21     12.91    -18.16
    0    7   21     -3.55    -10.48
    7    8   21     -1.19    -27.42
    6    8   21      4.27     -5.37
    5    8   21    -32.05      8.02
    4    8   21      2.04     -2.89
    3    8   21    -17.38     29.90
    2    8   21     14.43      0.91
    1    8   21     -4.30    -33.32
    0    8   21     -0.41    -22.05
    8    9   21     15.07    -24.18
    7    9   21      0.91    -12.81
    6    9   21     26.04    -24.33
    5    9   21     -2.54     -5.25
    4    9   21     -2.02     -3.88
    3    9   21      7.18      4.53
    2    9   21     65.34    -10.08
    1    9   21     -1.22    -18.10
    0    9   21    -30.78    -44.85
    9   10   21     10.80      4.02
    8   10   21      2.11    -10.39
    7   10   21     48.00     -6.23
    6   10   21    -21.40      4.46
    5   10   21     -1.05    -20.52
    4   10   21    -17.56     -7.58
    3   10   21     33.65    -32.08
    2   10   21     10.95     -2.02
    1   10   21     -3.64    -13.15
    0   10   21      0.66    -41.89
   10   11   21     24.98      8.31
    9   11   21      6.70      6.00
    8   11   21     12.26     20.31
    7   11   21     -5.65     -0.09
    6   11   21     -4.83      7.10
    5   11   21      3.46      1.79
    4   11   21    -16.32    -20.75
    3   11   21     -0.19      7.31
    2   11   21      5.28     23.37
    1   11   21      7.76    -13.35
    0   11   21     -5.40    -39.72
   11   12   21      5.62     -2.43
   10   12   21     -8.94     -4.91
    9   12   21      5.26      4.25
    8   12   21      3.30     -3.32
    7   12   21    -12.21      0.61
    6   12   21     -2.53     16.59
    5   12   21    -12.08     10.44
    4   12   21      4.33      5.73
    3   12   21     -1.46      5.68
    2   12   21      8.90      4.50
    1   12   21      4.97      1.24
    0   12   21      6.45     -2.35
   12   13   21      0.64     -5.08
   11   13   21      0.87     -7.58
   10   13   21    -16.30     -4.30
    9   13   21     -3.82    -12.03
    8   13   21     -4.96      3.75
    7   13   21      8.40     -2.76
    6   13   21     -8.07      1.25
    5   13   21      4.17     11.43
    4   13   21    -14.62      2.54
    3   13   21      7.28      6.83
    2   13   21      2.19      8.79
    1   13   21      2.09     11.61
    0   13   21     -5.61     68.51
   13   14   21     -4.74      0.40
   12   14   21      3.91      5.54
   11   14   21     -9.11      2.89
   10   14   21      2.63    -21.39
    9   14   21      7.66      4.05
    8   14   21     -0.36    -11.35
    7   14   21      3.47      2.53
    6   14   21     -4.94     -2.33
    5   14   21     -9.01    -14.33
    4   14   21     13.83      0.67
    3   14   21     -8.81     -2.58
    2   14   21     -0.83     -5.22
    1   14   21     -6.43     13.09
    0   14   21      1.49    -10.85
   14   15   21      9.30     -0.15
   13   15   21      1.38      9.99
   12   15   21     -0.42      4.21
   11   15   21      8.47     -7.33
   10   15   21     10.40      1.38
    9   15   21      3.33     -9.77
    8   15   21      8.14     -0.86
    7   15   21     -1.64     -7.68
    6   15   21     -7.94      2.31
    5   15   21     -3.30      9.18
    4   15   21      8.37    -15.73
    3   15   21     11.84      3.07
    2   15   21     -6.82      2.16
    1   15   21      9.64      1.03
    0   15   21      0.43     -6.87
   14   16   21      3.38      1.04
   13   16   21     -0.09     -2.96
   12   16   21     -0.16      7.83
   11   16   21     -2.11     11.26
   10   16   21     -0.05     -5.55
    9   16   21      1.66      8.99
    8   16   21      4.21     -4.88
    7   16   21     -9.13     14.51
    6   16   21      8.31     10.15
    5   16   21    -20.08    -11.58
    4   16   21     18.04     13.54
    3   16   21      4.15    -30.21
    2   16   21     -8.94     -5.33
    1   16   21      0.03     -6.83
    0   16   21      1.06     21.70
   13   17   21      6.41      1.60
   12   17   21      2.86      2.22
   11   17   21     -6.35      2.48
   10   17   21     -2.84     -0.65
    9   17   21     -8.09     -3.64
    8   17   21     -2.75      7.68
    7   17   21      6.49      6.42
    6   17   21    -11.63     11.18
    5   17   21      6.72      2.29
    4   17   21      0.89    -17.62
    3   17   21     -3.66     14.98
    2   17   21    -17.92      2.04
    1   17   21     11.04     -4.78
    0   17   21      5.37     21.44
   12   18   21      5.32     -5.69
   11   18   21     -0.74     -0.42
   10   18   21     -4.23      0.11
    9   18   21      2.01      3.97
    8   18   21     -2.42     -0.26
    7   18   21     -3.56      2.47
    6   18   21     -2.26      5.85
    5   18   21    -10.23     11.15
    4   18   21     -3.13      3.71
    3   18   21      6.11     -5.69
    2   18   21     -0.31      3.76
    1   18   21    -20.88      6.43
    0   18   21     -7.63      1.77
   10   19   21      2.16      1.30
    9   19   21     -5.91     -4.45
    8   19   21     -8.16      3.58
    7   19   21      3.06     -4.31
    6   19   21     -8.07      8.17
    5   19   21      1.56     -4.42
    4   19   21      0.82     -5.68
    3   19   21     -5.38     -7.79
    2   19   21     -3.86      6.74
    1   19   21      1.51     -2.11
    0   19   21      3.35      4.40
    8   20   21      7.25     -3.32
    7   20   21     -3.07      7.71
    6   20   21     -6.28     -6.36
    5   20   21      1.02     -7.50
    4   20   21      4.14     -5.10
    3   20   21      0.54      3.72
    2   20   21      1.70     -1.35
    1   20   21      2.11      7.20
    0   20   21     -8.02    -15.58
    5   21   21     -7.48      2.14
    4   21   21      9.81     -0.88
    3   21   21     -4.57     -7.53
    2   21   21     -2.92      2.09
    1   21   21      2.20     -6.16
    0   21   21     -4.55     16.45
    0    0   22    -11.30      1.93
    1    1   22    201.00    152.24
    0    1   22     -1.53     -6.04
    2    2   22     29.07    -11.78
    1    2   22     38.69    -27.68
    0    2   22    220.82     -0.05
    3    3   22    117.21    -39.51
    2    3   22     -3.73     48.20
    1    3   22     19.52    -27.08
    0    3   22     12.96      1.39
    4    4   22   -130.15     25.29
    3    4   22    -25.39     40.87
    2    4   22      0.94     24.67
    1    4   22      7.06    -26.34
    0    4   22    -97.71      6.37
    5    5   22    -81.70    -65.28
    4    5   22     -1.54      3.02
    3    5   22    -10.11     13.93
    2    5   22     -4.36      2.69
    1    5   22    -10.26      4.14
    0    5   22    -15.21      3.15
    6    6   22      6.68    -12.75
    5    6   22      3.47     -1.47
    4    6   22     -0.97     -3.20
    3    6   22     -0.50      2.50
    2    6   22     51.96      0.20
    1    6   22      3.71      7.37
    0    6   22     16.45     -5.23
    7    7   22     49.40    -45.63
    6    7   22      4.26     -9.55
    5    7   22     41.04     22.47
    4    7   22     -2.51      2.09
    3    7   22     76.81     -0.49
    2    7   22     12.80     13.96
    1    7   22    -42.31     14.41
    0    7   22      0.41      2.55
    8    8   22     13.76     36.75
    7    8   22      7.66     -2.43
    6    8   22      7.37     17.50
    5    8   22      0.71      1.88
    4    8   22     16.19     24.20
    3    8   22      5.07    -17.11
    2    8   22      7.37      7.60
    1    8   22    -11.87      6.43
    0    8   22    -47.65     -6.20
    9    9   22    -27.50      0.86
    8    9   22     -4.98    -11.88
    7    9   22     38.25     -0.18
    6    9   22      0.81      6.35
    5    9   22      0.86     -3.07
    4    9   22     -2.91      5.85
    3    9   22    -10.89     -9.45
    2    9   22     -3.35     26.91
    1    9   22      5.38    -28.60
    0    9   22      1.64      0.04
   10   10   22      5.57      6.26
    9   10   22     -3.56      1.40
    8   10   22     19.01      7.84
    7   10   22      9.02      9.87
    6   10   22      1.97    -18.28
    5   10   22    -12.61      5.08
    4   10   22     -2.76    -10.69
    3   10   22     -4.56     18.88
    2   10   22     12.01      1.40
    1   10   22     -1.77     -1.70
    0   10   22    -77.56    -11.78
   11   11   22     21.67     10.63
   10   11   22      1.54     -4.99
    9   11   22      5.44     -3.12
    8   11   22      8.97     -5.92
    7   11   22     -6.02     -5.61
    6   11   22     -1.12      9.33
    5   11   22      7.70    -22.65
    4   11   22      6.31     -7.45
    3   11   22    -15.46     13.17
    2   11   22     20.37      1.57
    1   11   22    -24.77     28.73
    0   11   22    -14.57     -1.36
   12   12   22     27.92      5.03
   11   12   22      5.96      3.91
   10   12   22     -3.90     -0.27
    9   12   22    -12.99      2.80
    8   12   22     11.76     -6.87
    7   12   22     -3.90     -3.43
    6   12   22     -2.39      0.21
    5   12   22     -1.44    -19.69
    4   12   22     25.82     -9.98
    3   12   22      7.40     15.29
    2   12   22     -9.35     -6.77
    1   12   22     -6.64     -0.13
    0   12   22     21.72      0.17
   13   13   22      3.25      0.20
   12   13   22      3.54      5.68
   11   13   22      2.50     -0.82
   10   13   22     -4.09      2.20
    9   13   22     -1.37     15.63
    8   13   22     -2.32     -4.46
    7   13   22      0.10    -16.83
    6   13   22     -2.00     -0.39
    5   13   22     -2.83      7.01
    4   13   22      2.92      8.31
    3   13   22      9.56    -32.84
    2   13   22      3.67     -6.73
    1   13   22     23.26      5.35
    0   13   22     -4.83     -4.07
   14   14   22     -5.87     -5.32
   13   14   22     -1.52      2.05
   12   14   22      4.77     -0.13
   11   14   22     -0.87      9.03
   10   14   22    -10.61      5.52
    9   14   22      4.85     -9.28
    8   14   22    -18.47      7.37
    7   14   22     -1.91      5.81
    6   14   22    -10.53    -18.34
    5   14   22      1.78     -0.38
    4   14   22     -4.69     -2.11
    3   14   22      6.86     -6.73
    2   14   22    -10.25      7.72
    1   14   22      0.15      9.79
    0   14   22      0.39      1.45
   15   15   22      1.54    -11.27
   14   15   22      3.02      3.57
   13   15   22      5.02      0.63
   12   15   22     -1.67      2.06
   11   15   22      0.50     -2.97
   10   15   22      0.53     -1.11
    9   15   22    -12.37     -2.72
    8   15   22     -7.65     -2.77
    7   15   22    -21.30     -4.99
    6   15   22      0.19     -2.60
    5   15   22      3.44      6.18
    4   15   22      7.11     -0.69
    3   15   22    -12.62     -1.62
    2   15   22     -7.23     -2.24
    1   15   22      0.86     26.69
    0   15   22     -3.12     -1.63
   14   16   22      3.06     -6.71
   13   16   22      8.31     -3.79
   12   16   22     -9.14     12.10
   11   16   22     -3.29      1.47
   10   16   22     -2.76     -0.45
    9   16   22      2.38     -5.11
    8   16   22    -10.11     -5.04
    7   16   22     -8.63      4.27
    6   16   22     -0.06      6.88
    5   16   22     -1.41     -2.69
    4   16   22      9.45      4.16
    3   16   22     11.93      0.41
    2   16   22     27.52     -8.96
    1   16   22      5.62      6.49
    0   16   22     12.59     -1.83
   13   17   22     -0.61     -3.03
   12   17   22     -7.30     -7.28
   11   17   22     -2.31      5.55
   10   17   22     -5.06     -5.40
    9   17   22     -4.29      5.64
    8   17   22     -2.38      3.10
    7   17   22    -10.28     -6.66
    6   17   22    -10.06      2.36
    5   17   22      8.63     -4.71
    4   17   22      2.27      1.59
    3   17   22     10.13      5.91
    2   17   22      0.02     -2.94
    1   17   22      8.60     -8.29
    0   17   22     11.18      2.46
   12   18   22      1.19     -6.90
   11   18   22     -3.32     -0.17
   10   18   22     11.56      9.56
    9   18   22      3.93     -2.66
    8   18   22     -6.67     -7.21
    7   18   22      5.40      1.45
    6   18   22     -2.61     -3.92
    5   18   22     -4.17     -1.73
    4   18   22      0.63     -2.82
    3   18   22      9.51    -17.62
    2   18   22      3.13      6.62
    1   18   22     -8.70      9.85
    0   18   22    -10.97      0.86
   10   19   22      7.53      1.17
    9   19   22     -0.24     -6.36
    8   19   22     -3.38     16.97
    7   19   22     -8.16      4.28
    6   19   22      2.21     -4.30
    5   19   22     -4.46      6.79
    4   19   22      4.19     -3.51
    3   19   22     -1.36      0.08
    2   19   22     -1.36     -3.10
    1   19   22     -5.57      0.14
    0   19   22     -5.43     -2.22
    8   20   22     -0.68      2.35
    7   20   22      5.74      8.19
    6   20   22      1.96     -7.68
    5   20   22     -9.85      8.03
    4   20   22      1.61      2.20
    3   20   22     -2.20     -1.03
    2   20   22     -7.08     -1.57
    1   20   22      4.67     -1.04
    0   20   22      5.35     -4.27
    5   21   22      1.79     -1.43
    4   21   22     -7.35      2.77
    3   21   22     -9.62     -1.72
    2   21   22      6.29      5.06
    1   21   22      1.25     -0.21
    0   21   22     -2.72     -1.11
    0    1   23     -7.95   -131.31
    0    2   23    -12.64      2.80
    2    3   23    -35.73     15.78
    1    3   23    -66.00    -15.10
    0    3   23    194.26   -152.28
    3    4   23    -86.34    105.03
    2    4   23     20.10    -18.46
    1    4   23     47.52     32.87
    0    4   23    -12.82    -14.74
    4    5   23    -55.94     12.80
    3    5   23     49.19      9.49
    2    5   23     11.55    -47.44
    1    5   23     74.99     -1.80
    0    5   23     -4.90    180.78
    5    6   23     13.92    -29.84
    4    6   23     30.28      8.30
    3    6   23    -30.08     -7.56
    2    6   23     -0.98    -11.26
    1    6   23    -25.01    -56.83
    0    6   23      3.90     41.53
    6    7   23     17.75     -5.60
    5    7   23     11.67     -1.03
    4    7   23    -29.27    -15.79
    3    7   23      0.30     10.85
    2    7   23     17.18    -19.10
    1    7   23     17.81      5.71
    0    7   23     -4.13    -13.77
    7    8   23      9.21     11.74
    6    8   23    -11.16     -1.13
    5    8   23      6.53     10.95
    4    8   23      7.21     -4.00
    3    8   23     13.63    -69.06
    2    8   23     31.22     -8.50
    1    8   23    -38.72     26.83
    0    8   23      0.95      3.77
    8    9   23     -4.11     -7.30
    7    9   23     -0.79      0.31
    6    9   23    -27.03     13.46
    5    9   23     17.95      6.74
    4    9   23      4.33      7.79
    3    9   23     14.60    -23.34
    2    9   23    -16.12    -12.93
    1    9   23      5.72      4.59
    0    9   23      8.27    -22.65
    9   10   23    -19.40    -30.02
    8   10   23      3.29     -1.98
    7   10   23      9.46    -10.54
    6   10   23     16.80    -16.69
    5   10   23    -18.08      3.21
    4   10   23     13.96     13.47
    3   10   23     -6.63      1.93
    2   10   23     10.78     -7.87
    1   10   23    -12.31     19.07
    0   10   23      1.24    -13.76
   10   11   23    -38.59      1.56
    9   11   23     -3.32      0.31
    8   11   23     -8.04    -20.90
    7   11   23      7.30    -12.30
    6   11   23     15.78    -16.33
    5   11   23     -4.40     10.34
    4   11   23      4.37      6.87
    3   11   23     16.92    -13.40
    2   11   23     14.47    -22.66
    1   11   23      2.13     -4.41
    0   11   23     -0.47     70.98
   11   12   23     -2.42     15.13
   10   12   23      0.49     -4.72
    9   12   23    -11.82    -17.99
    8   12   23      6.49     -3.18
    7   12   23     23.38      2.88
    6   12   23      0.22     -1.28
    5   12   23      0.90      6.90
    4   12   23     -0.62     -2.60
    3   12   23     21.48    -11.23
    2   12   23     -4.33      5.01
    1   12   23    -20.63    -16.38
    0   12   23     -7.81      9.18
   12   13   23      6.17      4.49
   11   13   23     -3.51      3.14
   10   13   23     26.50     -2.35
    9   13   23      1.85     -3.30
    8   13   23      6.89     -0.49
    7   13   23     -4.68     -1.70
    6   13   23     -0.71      2.46
    5   13   23     -1.10     12.04
    4   13   23      4.27     -5.34
    3   13   23     -4.36     -5.77
    2   13   23     20.13    -12.09
    1   13   23      4.23      0.05
    0   13   23     12.53    -23.97
   13   14   23      3.77     -1.09
   12   14   23      3.05     -3.26
   11   14   23     12.06      7.46
   10   14   23      1.47      9.89
    9   14   23      3.95     -5.90
    8   14   23      0.28      7.14
    7   14   23     15.42     -6.27
    6   14   23      7.16     11.23
    5   14   23     -6.32     -1.62
    4   14   23     -2.28      4.33
    3   14   23      5.53     -9.45
    2   14   23     -4.51      4.53
    1   14   23      7.69     -6.67
    0   14   23     -8.63    -16.67
   14   15   23     -4.05     -0.70
   13   15   23      4.13      1.65
   12   15   23      2.82      0.62
   11   15   23     -4.20      1.43
   10   15   23     -6.18     -1.29
    9   15   23     -0.03     -2.78
    8   15   23      0.10    -18.29
    7   15   23     10.33     10.31
    6   15   23      5.26      2.62
    5   15   23    -11.92     -3.67
    4   15   23    -21.27      5.37
    3   15   23     -3.40      0.21
    2   15   23     -4.69     -6.59
    1   15   23      6.38      1.72
    0   15   23     -6.37     20.89
   14   16   23     -5.65     -4.99
   13   16   23      3.11      3.33
   12   16   23      8.02     -6.11
   11   16   23     -0.14     -6.55
   10   16   23     -2.73     -5.98
    9   16   23     -3.45    -10.05
    8   16   23     -0.48     -2.70
    7   16   23     -6.38    -16.23
    6   16   23      2.75      6.26
    5   16   23      3.13     11.18
    4   16   23    -20.75     -1.10
    3   16   23     -4.16     -5.82
    2   16   23      2.54      3.47
    1   16   23      0.56      8.86
    0   16   23      1.83     -5.96
   13   17   23     -6.08     -8.25
   12   17   23     -4.75     -5.36
   11   17   23      4.07     -2.23
   10   17   23     -3.14      3.54
    9   17   23      5.61      4.67
    8   17   23      7.62     -5.73
    7   17   23     -1.66      3.74
    6   17   23     -9.13    -15.20
    5   17   23     -2.84      4.21
    4   17   23      1.20     -6.59
    3   17   23      0.62      2.08
    2   17   23     15.03     -0.05
    1   17   23     -3.33     14.01
    0   17   23     -6.26    -26.92
   11   18   23      0.65     -3.36
   10   18   23     -1.86      2.05
    9   18   23     -0.46     -6.41
    8   18   23     -0.69     -2.33
    7   18   23      6.50    -11.10
    6   18   23      1.77     -4.06
    5   18   23      7.71     -4.19
    4   18   23     -1.68      0.58
    3   18   23    -16.86     -2.25
    2   18   23      5.28      9.08
    1   18   23     19.87      1.42
    0   18   23     -0.19     -3.13
   10   19   23      2.93      0.44
    9   19   23      3.53      1.78
    8   19   23      0.91      1.13
    7   19   23      1.43      7.13
    6   19   23      1.74      1.96
    5   19   23      3.10      1.44
    4   19   23      0.98      0.24
    3   19   23      4.09     -2.44
    2   19   23     -1.49     -8.05
    1   19   23      4.26     -0.55
    0   19   23     -6.42     -0.27
    8   20   23     -5.91     -1.91
    7   20   23      6.09     -4.07
    6   20   23      5.25      1.04
    5   20   23     -6.46     12.01
    4   20   23     -3.35    -12.72
    3   20   23     -4.65      0.56
    2   20   23     -0.40     -2.69
    1   20   23     -1.50     -5.63
    0   20   23      2.27      4.23
    5   21   23      1.23     -1.85
    4   21   23     -6.13      2.71
    3   21   23      2.24     10.23
    2   21   23      1.70      1.23
    1   21   23      2.61     -1.22
    0   21   23     11.93     -7.28
    0    0   24   -530.97     -5.93
    1    1   24   -381.57     17.79
    0    1   24     21.77      2.87
    2    2   24     78.19   -105.48
    1    2   24      2.03    -20.16
    0    2   24   -210.47     19.02
    3    3   24     11.89    -11.49
    2    3   24    -19.55      8.25
    1    3   24    -64.60     54.33
    0    3   24      1.94     -6.70
    4    4   24     70.59    -35.34
    3    4   24     40.97     16.18
    2    4   24    -80.33      8.01
    1    4   24     -7.18    -17.23
    0    4   24     30.61     -0.08
    5    5   24    -36.23     64.19
    4    5   24     -5.13    -16.35
    3    5   24      0.63     22.45
    2    5   24    -20.14     -7.42
    1    5   24    -80.04      9.64
    0    5   24    -18.71      6.90
    6    6   24      4.31     -4.18
    5    6   24     -4.66      1.85
    4    6   24    -30.09    -14.95
    3    6   24     -4.00     30.34
    2    6   24     18.83    -47.87
    1    6   24      5.39      9.06
    0    6   24   -167.32      8.93
    7    7   24    -17.42      0.35
    6    7   24    -14.52     -6.69
    5    7   24    -35.47      1.38
    4    7   24      5.20      8.38
    3    7   24    -28.24    -28.04
    2    7   24     39.07     16.55
    1    7   24     22.85    -68.70
    0    7   24     11.82      0.86
    8    8   24    -51.06      6.98
    7    8   24     -5.82      3.29
    6    8   24     -6.55      1.27
    5    8   24      8.76      0.78
    4    8   24    -56.78      1.78
    3    8   24     35.49     -3.16
    2    8   24     74.74     53.28
    1    8   24      3.16    -11.94
    0    8   24     55.26     -1.90
    9    9   24      1.85    -11.16
    8    9   24    -17.85      0.60
    7    9   24    -28.31     23.25
    6    9   24     16.17    -27.51
    5    9   24    -18.73      6.63
    4    9   24      5.09      1.64
    3    9   24      9.96      0.42
    2    9   24     -8.35     13.87
    1    9   24     17.64      9.44
    0    9   24    -10.10      1.57
   10   10   24      5.52     -8.67
    9   10   24     -0.30      1.88
    8   10   24     -7.84      3.15
    7   10   24     -4.06    -10.54
    6   10   24    -22.48     24.98
    5   10   24    -25.19     10.26
    4   10   24     22.67    -13.70
    3   10   24     14.33     12.16
    2   10   24    -33.50    -54.69
    1   10   24      6.53      2.65
    0   10   24      5.54      2.23
   11   11   24     -6.49    -29.91
   10   11   24     -2.28     -0.47
    9   11   24     -6.53     18.62
    8   11   24    -22.83      6.05
    7   11   24     18.30     22.42
    6   11   24     -3.57      2.98
    5   11   24    -11.32      7.55
    4   11   24      9.06     -0.12
    3   11   24     27.03      5.14
    2   11   24      3.34      8.71
    1   11   24      9.61    -43.14
    0   11   24     -4.50     -1.12
   12   12   24    -12.23      4.67
   11   12   24     -2.33      4.19
   10   12   24     -0.40     -6.36
    9   12   24     -0.35      4.27
    8   12   24     12.00     -5.48
    7   12   24    -10.92     -5.71
    6   12   24     -2.82     -0.86
    5   12   24     16.36      7.47
    4   12   24    -30.62      6.83
    3   12   24     -2.61      9.71
    2   12   24     20.28     11.74
    1   12   24     -6.89      5.49
    0   12   24    -10.56     -0.16
   12   13   24     -0.61     -5.30
   11   13   24     -1.20      2.80
   10   13   24      2.41      3.08
    9   13   24      7.84    -14.34
    8   13   24     -2.42     -2.66
    7   13   24      3.74     30.44
    6   13   24     -1.55     -1.80
    5   13   24     -0.18    -14.29
    4   13   24     -5.69     -2.00
    3   13   24     -1.65     -2.53
    2   13   24     13.26      4.31
    1   13   24    -11.14     -7.72
    0   13   24    -20.64     -1.19
   13   13   24     -0.85      8.98
   14   14   24      2.92      5.20
   13   14   24     -1.21     -1.40
   12   14   24      5.02      3.05
   11   14   24      6.13     -3.88
   10   14   24      1.04     -3.29
    9   14   24     -2.99      6.42
    8   14   24     12.86     -1.47
    7   14   24    -14.14      1.10
    6   14   24      7.69     25.77
    5   14   24     -2.07     -4.27
    4   14   24      3.81    -17.42
    3   14   24     -3.87     -2.56
    2   14   24    -16.08      2.22
    1   14   24    -12.12     -1.93
    0   14   24    -21.11     -2.25
   15   15   24      3.93      2.99
   14   15   24      4.58      5.47
   13   15   24      1.37     -5.91
   12   15   24     -2.29     -2.74
   11   15   24     -3.20     -3.80
   10   15   24      3.49      6.01
    9   15   24     11.56     -7.92
    8   15   24     -3.66      0.95
    7   15   24     21.98     12.44
    6   15   24      4.76     -6.76
    5   15   24    -18.60      1.33
    4   15   24     -1.62      3.65
    3   15   24     16.12      4.68
    2   15   24      3.69      2.11
    1   15   24      9.84     -3.23
    0   15   24     -2.18      4.82
   14   16   24      1.41     10.79
   13   16   24     -7.96     -3.89
   12   16   24     17.64    -14.16
   11   16   24     10.75      4.92
   10   16   24      0.74     -6.04
    9   16   24     -5.49      0.85
    8   16   24     18.66      8.24
    7   16   24     19.73      1.00
    6   16   24     -3.16      2.62
    5   16   24     -2.27      6.89
    4   16   24    -11.09     -1.90
    3   16   24      5.17     10.72
    2   16   24     -2.56      5.80
    1   16   24    -17.11     11.62
    0   16   24    -13.72      1.84
   12   17   24      7.22      2.16
   11   17   24     -1.12     -2.01
   10   17   24      2.57     -0.55
    9   17   24     -1.37     -4.08
    8   17   24      7.72     -0.32
    7   17   24     11.57      2.63
    6   17   24      4.58     12.15
    5   17   24     -5.13     -0.75
    4   17   24     -4.39      0.00
    3   17   24      0.50     -1.65
    2   17   24     -2.94      8.78
    1   17   24     -5.94      3.46
    0   17   24    -10.04      0.87
   13   17   24      0.26      1.54
   11   18   24      2.56     -0.64
   10   18   24     -6.73     -3.93
    9   18   24    -11.56      3.68
    8   18   24      6.02      3.75
    7   18   24     -0.68     -1.07
    6   18   24      2.28     -2.20
    5   18   24     -8.84     -1.27
    4   18   24     -7.10      2.23
    3   18   24     -1.42     10.99
    2   18   24      4.67     -2.92
    1   18   24      2.01     -3.61
    0   18   24     -0.41      1.08
   10   19   24     -8.00      2.65
    9   19   24      0.81      1.51
    8   19   24     -2.20     -8.78
    7   19   24     11.88     10.66
    6   19   24      0.43     -4.01
    5   19   24      2.91     -7.23
    4   19   24     -1.78     -3.09
    3   19   24     -1.46     -1.06
    2   19   24     -2.81     -0.69
    1   19   24      6.42      4.30
    0   19   24     -4.62     -0.13
    8   20   24     -0.42     -9.46
    7   20   24     -1.17     -6.61
    6   20   24     -0.89      4.26
    5   20   24      3.50     -8.37
    4   20   24     -3.80      2.46
    3   20   24     -0.42      1.09
    2   20   24      1.98      1.52
    1   20   24     -3.91      8.68
    0   20   24     -3.26      0.86
    4   21   24      3.83      6.96
    3   21   24      4.74      0.01
    2   21   24     -1.28     -1.01
    1   21   24     -2.75     -2.04
    0   21   24     -5.99     -1.25
    0    1   25      0.25     24.93
    1    2   25    -11.54    -40.57
    0    2   25     -2.30     -1.39
    2    3   25     -6.39    -56.64
    1    3   25    -27.73     -6.41
    0    3   25   -114.45     73.29
    3    4   25    -12.28    -14.44
    2    4   25     47.54    -19.22
    1    4   25      7.52      5.08
    0    4   25      0.85     -7.38
    4    5   25      4.58    -25.49
    3    5   25     34.44     -5.82
    2    5   25    -16.62     47.48
    1    5   25     48.61     22.73
    0    5   25      5.86    -92.12
    5    6   25     54.37      8.17
    4    6   25     19.94      8.24
    3    6   25    -20.34     -2.56
    2    6   25    -19.05      8.56
    1    6   25    -40.00     -4.61
    0    6   25     -4.93     11.20
    6    7   25     -6.51     -3.03
    5    7   25    -15.68     24.61
    4    7   25    -24.62     -1.86
    3    7   25     23.50      2.12
    2    7   25    -12.83     46.16
    1    7   25      9.39    -21.08
    0    7   25      4.73     20.61
    7    8   25     -5.22     64.60
    6    8   25     -0.80      0.85
    5    8   25      1.17     -1.29
    4    8   25     -2.26     23.19
    3    8   25    -13.29     38.44
    2    8   25     52.88    -14.58
    1    8   25     13.39     16.33
    0    8   25     -2.44      2.59
    8    9   25    -22.79     36.17
    7    9   25      7.98      9.09
    6    9   25     39.64     10.01
    5    9   25     -6.56     -9.72
    4    9   25     -2.66      2.40
    3    9   25     34.26      9.83
    2    9   25    -16.67     19.57
    1    9   25    -11.36      4.41
    0    9   25     -1.81     -3.62
    9   10   25     19.61      4.42
    8   10   25    -12.63     -2.00
    7   10   25     -4.84     -2.07
    6   10   25     -1.69     10.17
    5   10   25     18.22      4.93
    4   10   25      3.14      6.38
    3   10   25    -15.36    -22.37
    2   10   25     -6.19      0.41
    1   10   25     23.03      9.88
    0   10   25      1.57     -4.12
   10   11   25     21.56    -16.22
    9   11   25     12.79     -3.08
    8   11   25     11.74      8.51
    7   11   25      0.65      8.98
    6   11   25    -11.07      1.88
    5   11   25     -6.05      1.41
    4   11   25     19.90     -0.95
    3   11   25      2.00    -12.12
    2   11   25    -31.89     15.74
    1   11   25     26.95     -5.04
    0   11   25     -1.89    -48.47
   11   12   25     -2.33     -9.71
   10   12   25     -7.96     -1.55
    9   12   25      5.57      4.18
    8   12   25      5.17     10.42
    7   12   25    -13.36     13.77
    6   12   25      0.13     -1.97
    5   12   25     -2.20     -1.60
    4   12   25      5.46     11.50
    3   12   25    -14.09     15.54
    2   12   25     14.67      5.93
    1   12   25     10.17     17.93
    0   12   25      4.62     -2.63
   12   13   25     -1.60     -5.11
   11   13   25      0.35     -4.48
   10   13   25     -7.43     11.04
    9   13   25     -3.86      2.39
    8   13   25    -17.26      5.01
    7   13   25      1.79     -4.15
    6   13   25      6.50      2.70
    5   13   25      1.38     -0.14
    4   13   25     -9.65      2.90
    3   13   25      0.03     17.43
    2   13   25     -9.35      6.53
    1   13   25     -0.07      8.14
    0   13   25    -30.14     41.67
   13   14   25      7.43     -8.05
   12   14   25     -1.32      2.70
   11   14   25    -11.42     -6.61
   10   14   25      5.54      2.96
    9   14   25      5.27      6.21
    8   14   25      4.08     -2.80
    7   14   25    -15.22      6.78
    6   14   25     -2.44     -0.57
    5   14   25     11.59     -1.48
    4   14   25    -10.65     -6.54
    3   14   25      1.17     22.38
    2   14   25     14.76    -10.31
    1   14   25    -37.64     15.10
    0   14   25      6.51      5.35
   14   15   25      0.65     -2.72
   13   15   25      9.71     -3.02
   12   15   25     -8.93     -8.53
   11   15   25      3.13      2.74
   10   15   25     12.10    -11.96
    9   15   25     -9.04      8.66
    8   15   25    -12.88     16.86
    7   15   25      8.24      1.22
    6   15   25      9.89      2.16
    5   15   25     17.22     -2.95
    4   15   25      6.97      6.68
    3   15   25      2.28    -16.33
    2   15   25     17.80     18.20
    1   15   25      3.58     -6.64
    0   15   25      5.40    -27.72
   14   16   25      4.83      4.68
   13   16   25     -5.27      2.29
   12   16   25     -9.45      2.97
   11   16   25      5.96     -5.15
   10   16   25      8.74      3.29
    9   16   25     -2.65      8.17
    8   16   25      0.51     -7.89
    7   16   25     -2.34      5.38
    6   16   25     -2.03      3.09
    5   16   25      2.76     -4.37
    4   16   25     16.98      1.26
    3   16   25      7.18      8.93
    2   16   25      1.72      2.79
    1   16   25     13.64    -10.43
    0   16   25     -0.02     -0.71
   13   17   25      1.46     15.22
   12   17   25      0.44     -0.22
   11   17   25     -3.38     -5.43
   10   17   25      2.05      3.88
    9   17   25     -4.31      1.89
    8   17   25    -10.61      6.86
    7   17   25      1.91      2.40
    6   17   25      9.47     -3.27
    5   17   25     -7.63      4.84
    4   17   25     -8.21     -5.19
    3   17   25     -2.66      5.38
    2   17   25     -5.34     -1.87
    1   17   25      6.87      0.71
    0   17   25      2.92     -8.06
   11   18   25      6.76     -2.30
   10   18   25     -2.59     -0.64
    9   18   25     -3.10      3.92
    8   18   25     -1.17      1.02
    7   18   25     -0.78      3.16
    6   18   25      1.30      7.72
    5   18   25     -7.53      1.78
    4   18   25     -5.98     -2.79
    3   18   25      8.12      1.14
    2   18   25     -2.09     -4.49
    1   18   25    -11.68    -12.70
    0   18   25     -1.55      4.69
   10   19   25     -3.91      7.48
    9   19   25      6.03     -4.68
    8   19   25      7.71     -2.15
    7   19   25      4.75     -6.69
    6   19   25     -5.05     -1.19
    5   19   25      0.88     -1.83
    4   19   25      3.20      5.88
    3   19   25     -1.20     -3.54
    2   19   25      2.39     10.97
    1   19   25     -0.71     -1.19
    0   19   25      4.21      0.01
    7   20   25     -6.61      4.32
    6   20   25     -0.53      5.75
    5   20   25      0.97     -8.21
    4   20   25     -1.84      3.02
    3   20   25      7.91     -0.09
    2   20   25     -3.35      6.39
    1   20   25      4.87      0.58
    0   20   25      0.00    -10.97
    4   21   25      3.80     -2.36
    3   21   25     -2.46     -3.42
    2   21   25     -4.74     -3.63
    1   21   25     -3.13      2.29
    0    0   26   -274.17      4.11
    1    1   26     57.11    -65.84
    0    1   26     59.59     -4.43
    2    2   26    -25.52     73.28
    1    2   26     20.55     -8.93
    0    2   26    151.23     -5.73
    3    3   26    315.88    -88.52
    2    3   26     -0.74     -1.49
    1    3   26    -83.38    -30.65
    0    3   26     37.37     -0.84
    4    4   26    115.74     -1.20
    3    4   26     -0.79    -23.65
    2    4   26    158.18      2.53
    1    4   26     16.92     -1.71
    0    4   26    -30.44     27.27
    5    5   26    -39.61     58.49
    4    5   26     -0.42      0.52
    3    5   26     -0.88      7.52
    2    5   26     -9.00    -26.19
    1    5   26     68.40    -19.27
    0    5   26    -26.33     -2.92
    6    6   26    -41.00     27.82
    5    6   26      5.43    -10.62
    4    6   26      8.46    -15.76
    3    6   26    -27.30    -19.75
    2    6   26    -59.38     50.78
    1    6   26     -8.02     -3.77
    0    6   26    -39.75     -8.10
    7    7   26    -46.71     55.69
    6    7   26    -21.57     -1.54
    5    7   26      6.29     -6.72
    4    7   26     -7.34     -5.35
    3    7   26     42.10     22.28
    2    7   26     26.54    -17.74
    1    7   26    -65.22     27.13
    0    7   26      9.78      4.11
    8    8   26     37.13    -34.85
    7    8   26      8.75      1.80
    6    8   26    -19.17     -0.53
    5    8   26     26.66     11.23
    4    8   26     45.59     -2.13
    3    8   26     30.27      0.60
    2    8   26     -6.61    -24.75
    1    8   26     -8.77     -3.46
    0    8   26    -20.12    -11.11
    9    9   26      7.92      5.45
    8    9   26     -0.56      5.65
    7    9   26     53.30    -34.39
    6    9   26      8.63     24.84
    5    9   26    -10.23     -3.34
    4    9   26     21.12     -7.25
    3    9   26     22.52    -19.34
    2    9   26      0.49     -4.71
    1    9   26     16.71    -24.76
    0    9   26     17.86      2.65
   10   10   26      6.57     -8.32
    9   10   26     -0.11     14.68
    8   10   26      9.38    -13.91
    7   10   26    -11.35      1.86
    6   10   26      5.10    -30.59
    5   10   26    -20.84     -2.51
    4   10   26      4.08      9.57
    3   10   26     15.89      0.77
    2   10   26     36.67     19.77
    1   10   26     13.25     -0.78
    0   10   26     -1.97      1.36
   11   11   26     -0.75     15.30
   10   11   26    -13.24      0.30
    9   11   26     -7.07    -14.78
    8   11   26     -7.40      0.84
    7   11   26    -10.15     -8.84
    6   11   26     -7.72      6.20
    5   11   26    -11.62     -0.77
    4   11   26      0.91      1.22
    3   11   26    -29.56      1.85
    2   11   26     -1.35      5.03
    1   11   26    -18.67     31.14
    0   11   26    -14.64      4.46
   12   12   26     -6.69     -1.63
   11   12   26      5.67    -10.63
   10   12   26    -17.71      8.39
    9   12   26     -8.71     -1.11
    8   12   26    -12.42    -15.77
    7   12   26     -0.80     -4.05
    6   12   26    -28.52     12.08
    5   12   26     13.37      1.95
    4   12   26      0.64     11.14
    3   12   26     -4.22     -5.01
    2   12   26    -38.01     -5.96
    1   12   26     -8.38     -2.51
    0   12   26     70.73      7.31
   13   13   26      2.27     -2.76
   12   13   26      0.84      5.91
   11   13   26     -3.93     -8.73
   10   13   26    -11.06      4.82
    9   13   26    -16.16      9.15
    8   13   26      9.35      3.92
    7   13   26    -15.36    -15.94
    6   13   26     -0.77     -9.31
    5   13   26    -18.10      9.15
    4   13   26    -12.45      6.43
    3   13   26     10.61     13.02
    2   13   26     12.36     -0.85
    1   13   26     27.23    -13.33
    0   13   26     -1.07     -1.81
   13   14   26      6.39     11.01
   12   14   26     -6.40     -7.50
   11   14   26     -4.30      1.76
   10   14   26     -2.81      0.37
    9   14   26      5.29     -5.53
    8   14   26      5.98     -1.22
    7   14   26      5.23     -1.61
    6   14   26      0.35    -18.66
    5   14   26      2.19    -10.40
    4   14   26     12.07     13.90
    3   14   26     11.88      8.13
    2   14   26      9.04     -0.25
    1   14   26      6.87      2.27
    0   14   26     22.24     -2.10
   14   14   26      1.41     -4.44
   14   15   26     -6.01     -4.44
   13   15   26     -7.65     10.15
   12   15   26      8.50      0.08
   11   15   26      4.91     -2.11
   10   15   26     -8.70     -0.85
    9   15   26     -1.94      0.90
    8   15   26     -0.30     10.57
    7   15   26     -1.77    -12.08
    6   15   26      6.08     -7.78
    5   15   26      2.19    -10.63
    4   15   26     -1.74     -4.38
    3   15   26    -25.72      8.29
    2   15   26     -2.79    -12.44
    1   15   26      0.07    -21.69
    0   15   26    -19.50     -0.63
   15   15   26     -1.77      2.24
   14   16   26      0.54     -2.79
   13   16   26      1.85      7.36
   12   16   26     -1.93      7.40
   11   16   26    -10.32     -4.66
   10   16   26     -4.27      9.09
    9   16   26     -7.78      4.13
    8   16   26    -20.37     -8.05
    7   16   26     -3.73      2.48
    6   16   26      0.54     -9.55
    5   16   26     -0.71     -5.93
    4   16   26     -8.63      0.09
    3   16   26     -3.76      5.14
    2   16   26    -15.08     -3.99
    1   16   26    -13.16     -7.41
    0   16   26     23.25     -7.66
   12   17   26     -6.50      5.33
   11   17   26      5.37      2.57
   10   17   26      2.45      0.20
    9   17   26     -3.20     -0.17
    8   17   26    -10.53     -1.08
    7   17   26     -1.45     10.62
    6   17   26      0.30     -4.76
    5   17   26      4.99     -9.41
    4   17   26     -6.76     11.64
    3   17   26    -11.75     -2.66
    2   17   26     -2.50    -11.35
    1   17   26      3.79     -1.67
    0   17   26      0.17      5.62
   11   18   26      0.71      1.38
   10   18   26     -3.92     -2.38
    9   18   26     -2.92      4.86
    8   18   26      1.11     -4.97
    7   18   26      3.58     -0.97
    6   18   26     10.72      6.68
    5   18   26     -5.92    -11.64
    4   18   26      2.90     -6.61
    3   18   26      1.93      5.15
    2   18   26     12.92      2.64
    1   18   26     -3.22      1.67
    0   18   26     -1.07     -3.51
    9   19   26      2.02     -4.34
    8   19   26      4.25     -1.07
    7   19   26     -0.46    -12.32
    6   19   26     10.55      5.45
    5   19   26     -7.83      6.74
    4   19   26      5.51     -5.27
    3   19   26     -2.17      1.90
    2   19   26     11.03     -0.62
    1   19   26      1.28     -7.75
    0   19   26     -0.96     -1.26
    7   20   26      3.82     11.99
    6   20   26      5.39     -0.65
    5   20   26     -2.60      5.46
    4   20   26     -3.90     -2.76
    3   20   26     -4.94      8.80
    2   20   26     -3.98      3.75
    1   20   26      1.79     -2.80
    0   20   26     -0.23     -0.40
    4   21   26     -2.93     -2.16
    3   21   26      2.89     -6.89
    2   21   26     -1.36      6.02
    1   21   26     -3.60      5.68
    0   21   26     -1.68     -1.12
    0    1   27      2.36     65.56
    1    2   27     36.40    -24.62
    0    2   27     -0.32     -6.34
    2    3   27    -31.68     67.14
    1    3   27    -59.39     -3.97
    0    3   27     44.22    -25.81
    3    4   27   -102.21     32.25
    2    4   27     40.15     19.96
    1    4   27     22.02      3.53
    0    4   27      1.69    -12.42
    4    5   27     75.02     34.06
    3    5   27     34.97     17.14
    2    5   27    -52.81     39.95
    1    5   27     31.56      2.96
    0    5   27     -3.95    -18.91
    5    6   27      8.40    -40.12
    4    6   27     16.38      0.52
    3    6   27    -20.40     -3.88
    2    6   27    -20.18     -0.20
    1    6   27     -9.14     33.46
    0    6   27      7.14    -33.75
    6    7   27     38.17    -25.64
    5    7   27     -7.61     -4.36
    4    7   27    -13.45     -0.45
    3    7   27     -4.48     -5.32
    2    7   27     14.36      2.72
    1    7   27     16.52      2.62
    0    7   27      1.87    -26.86
    7    8   27     -2.98    -77.68
    6    8   27     -2.34    -21.22
    5    8   27     21.88     20.59
    4    8   27      5.55    -15.70
    3    8   27     16.29     -6.01
    2    8   27     34.01     -3.21
    1    8   27    -38.82    -36.33
    0    8   27      3.20     18.07
    8    9   27     31.79    -13.77
    7    9   27    -13.53    -18.62
    6    9   27      6.14    -24.59
    5    9   27      6.73     -8.99
    4    9   27      6.65      8.07
    3    9   27      3.23     -0.10
    2    9   27    -28.77     -7.89
    1    9   27     11.85      4.03
    0    9   27     -6.31    -31.19
    9   10   27    -18.35      5.86
    8   10   27     -7.40     16.28
    7   10   27     10.77     33.59
    6   10   27      5.25     -3.27
    5   10   27    -21.65     -0.07
    4   10   27     -3.19      7.79
    3   10   27     -0.59     17.02
    2   10   27     12.85     -7.69
    1   10   27    -13.18    -19.03
    0   10   27      0.81     -2.76
   10   11   27    -33.92     18.94
    9   11   27     -6.38      6.07
    8   11   27     -8.15    -14.12
    7   11   27      3.93      3.40
    6   11   27     11.67     20.51
    5   11   27    -11.31      3.96
    4   11   27    -11.09     -6.61
    3   11   27     13.33      6.02
    2   11   27     -2.87    -14.67
    1   11   27      8.98      8.59
    0   11   27     -0.17      5.66
   11   12   27     12.01      8.82
   10   12   27     -1.68     -9.13
    9   12   27    -20.99     -7.05
    8   12   27     -0.83      1.32
    7   12   27     -9.38     -8.79
    6   12   27     10.84      2.06
    5   12   27     12.58      6.96
    4   12   27      8.12    -14.05
    3   12   27    -17.89    -11.67
    2   12   27      9.52      6.06
    1   12   27      2.23    -15.77
    0   12   27     -2.65      5.58
   12   13   27     11.77     -4.18
   11   13   27      4.26      2.18
   10   13   27     22.77      0.66
    9   13   27     -5.49      1.81
    8   13   27     11.00      0.87
    7   13   27     -6.11      0.98
    6   13   27     17.58      0.95
    5   13   27      9.08      5.42
    4   13   27      5.73      0.21
    3   13   27      6.34    -22.54
    2   13   27     -0.38     -7.18
    1   13   27      2.00      0.33
    0   13   27     13.56    -41.65
   13   14   27      7.92      6.00
   12   14   27      5.73     -4.62
   11   14   27     12.53      6.55
   10   14   27     -3.33      0.27
    9   14   27      1.78    -11.20
    8   14   27      4.53     -2.10
    7   14   27     23.27      8.06
    6   14   27     -0.83     -8.70
    5   14   27      5.52     -3.13
    4   14   27      2.15      8.87
    3   14   27    -16.03    -17.84
    2   14   27      9.37      5.70
    1   14   27     23.72     -0.70
    0   14   27      0.24    -10.96
   14   15   27      0.15      5.45
   13   15   27     -5.63     11.10
   12   15   27     11.02     10.26
   11   15   27      4.13     -9.28
   10   15   27      2.74     12.68
    9   15   27     10.49     -2.63
    8   15   27     -7.21    -16.34
    7   15   27      7.39      2.86
    6   15   27      4.44      5.45
    5   15   27    -14.03      2.83
    4   15   27    -28.62    -11.85
    3   15   27      4.37     -5.62
    2   15   27     -9.18    -30.38
    1   15   27      6.52      0.51
    0   15   27     -7.13     27.81
   14   16   27     -2.77      1.28
   13   16   27      2.90     -7.69
   12   16   27      8.08     -1.97
   11   16   27      0.02      2.46
   10   16   27     -1.57      6.15
    9   16   27     -2.14     -4.45
    8   16   27      5.60      8.41
    7   16   27     -8.40      3.63
    6   16   27     11.33      2.54
    5   16   27     -8.08      3.66
    4   16   27     -3.81      0.24
    3   16   27    -13.00    -10.62
    2   16   27      8.24      1.29
    1   16   27    -10.96     14.28
    0   16   27      3.11      3.52
   13   17   27      8.21    -13.33
   12   17   27     -2.34      8.04
   11   17   27      2.94      5.75
   10   17   27     -1.86     -5.50
    9   17   27     -2.31     -2.94
    8   17   27      0.50      1.84
    7   17   27      1.59      0.48
    6   17   27     -3.90     13.67
    5   17   27     12.78      5.25
    4   17   27     -2.78     -7.94
    3   17   27     -8.24     -3.40
    2   17   27     -5.50     -4.87
    1   17   27     -1.01      5.67
    0   17   27     -1.74      3.00
   11   18   27      4.06      4.78
   10   18   27     -0.95      0.17
    9   18   27     -6.10      3.60
    8   18   27      5.29     -1.66
    7   18   27     -0.62      2.02
    6   18   27     -3.99      2.23
    5   18   27      5.52     -0.56
    4   18   27     -3.30     -5.49
    3   18   27    -15.75    -10.86
    2   18   27     14.88     13.99
    1   18   27      8.79      7.70
    0   18   27      3.08     -4.51
    9   19   27     -4.83     -3.45
    8   19   27     -4.11      0.92
    7   19   27     -0.38     -5.73
    6   19   27     -2.08     -0.21
    5   19   27     -0.39     -0.88
    4   19   27     -7.43     -3.07
    3   19   27     -6.25     -1.72
    2   19   27      0.15     -5.27
    1   19   27     -2.58      0.47
    0   19   27     -1.27      6.74
    7   20   27      5.70      2.58
    6   20   27     -0.37     -3.72
    5   20   27     -4.39      0.52
    4   20   27     -2.82      0.24
    3   20   27     -6.53      2.84
    2   20   27      8.55     -2.56
    1   20   27      1.38      3.59
    0   20   27     -1.89      6.34
    4   21   27     -5.99      1.81
    3   21   27      4.75     -0.83
    2   21   27      1.26      1.27
    1   21   27      6.66     -0.58
    0    0   28   -120.45      3.56
    1    1   28     77.62     72.27
    0    1   28     32.28      1.64
    2    2   28     46.65     20.73
    1    2   28     -5.25     -7.88
    0    2   28   -116.70     -0.79
    3    3   28   -155.73     75.34
    2    3   28     -5.71     -6.15
    1    3   28     -7.66    -19.33
    0    3   28     33.99      1.32
    4    4   28    -40.19     53.25
    3    4   28     17.04    -22.47
    2    4   28   -148.44     11.06
    1    4   28      7.35    -17.43
    0    4   28     82.46    -33.09
    5    5   28    -16.61    -34.97
    4    5   28     -6.40    -21.98
    3    5   28     39.54      1.17
    2    5   28     -0.19    -12.85
    1    5   28     -9.19     10.76
    0    5   28      9.21      5.92
    6    6   28     27.98    -37.82
    5    6   28      1.04     -5.76
    4    6   28    -13.08    -18.04
    3    6   28      5.87      7.99
    2    6   28     -9.08    -28.91
    1    6   28      2.56      3.57
    0    6   28    -65.25     12.95
    7    7   28    -26.84    -98.05
    6    7   28      6.57      9.72
    5    7   28      8.06     -3.74
    4    7   28      7.51     -0.99
    3    7   28    -36.36    -17.35
    2    7   28     22.50     -5.90
    1    7   28    -41.25    -29.81
    0    7   28      5.13     -1.56
    8    8   28    -44.56     -6.10
    7    8   28     -2.78      7.24
    6    8   28     51.30    -24.70
    5    8   28      5.49      4.64
    4    8   28    -30.75     17.08
    3    8   28      7.57     -0.26
    2    8   28      5.62    -29.46
    1    8   28     14.06     -0.21
    0    8   28     -3.13     11.10
    9    9   28     33.99     13.95
    8    9   28    -11.35      8.13
    7    9   28     -7.75     33.07
    6    9   28     10.14     -8.79
    5    9   28     18.53     -9.49
    4    9   28     -0.94     -4.52
    3    9   28      1.42     15.77
    2    9   28      0.65     -2.07
    1    9   28     19.87      2.99
    0    9   28      8.26     -2.97
   10   10   28     18.29     30.12
    9   10   28      4.32     -7.70
    8   10   28     10.71     15.36
    7   10   28     12.19     -2.60
    6   10   28      4.37     26.67
    5   10   28     -4.86     -4.45
    4   10   28     31.94     15.87
    3   10   28     11.50     -1.15
    2   10   28    -36.09    -18.89
    1   10   28    -13.84      5.45
    0   10   28    -15.41      6.32
   11   11   28     19.20     15.69
   10   11   28      4.69      0.08
    9   11   28    -11.99      8.83
    8   11   28     -5.00      2.38
    7   11   28      8.52     -4.70
    6   11   28      7.53     -0.96
    5   11   28     19.43     -0.39
    4   11   28     -3.62     -6.09
    3   11   28     10.53    -11.22
    2   11   28     -4.61     -6.75
    1   11   28    -30.34     -0.85
    0   11   28    -10.39     -4.76
   12   12   28     -0.66      3.08
   11   12   28      0.25      1.99
   10   12   28     -0.50     -0.47
    9   12   28      4.49      4.95
    8   12   28     12.87     16.04
    7   12   28     -7.32      5.07
    6   12   28     -3.72     -8.80
    5   12   28      4.95     -7.20
    4   12   28    -14.49      7.06
    3   12   28     -1.89      2.75
    2   12   28      7.63    -11.14
    1   12   28    -13.28     -2.43
    0   12   28    -18.91     -1.62
   13   13   28     -7.30    -10.89
   12   13   28      9.49     -5.26
   11   13   28      7.77      9.35
   10   13   28     -0.99     -2.56
    9   13   28      5.85    -10.12
    8   13   28     -0.78      4.73
    7   13   28     -2.04      3.86
    6   13   28      5.11      1.16
    5   13   28      5.94     -4.41
    4   13   28     12.06    -11.65
    3   13   28    -21.87     -8.11
    2   13   28      5.08      9.82
    1   13   28    -30.11     17.05
    0   13   28    -30.27      6.30
   13   14   28     -8.14      0.33
   12   14   28     12.36      2.10
   11   14   28     -0.87      2.67
   10   14   28     -1.65      6.80
    9   14   28     -8.84      1.83
    8   14   28    -13.75      0.50
    7   14   28    -10.31      3.24
    6   14   28     10.21     15.85
    5   14   28     11.34     16.62
    4   14   28     -8.28    -13.51
    3   14   28      4.80    -12.22
    2   14   28    -26.76      1.08
    1   14   28      7.74    -10.96
    0   14   28    -15.21     -1.56
   14   14   28     -9.60    -14.71
   15   15   28      7.22      7.97
   14   15   28     -2.90      9.82
   13   15   28      0.42    -13.72
   12   15   28     -6.68     -5.11
   11   15   28     -0.71      8.19
   10   15   28     -1.44      4.80
    9   15   28     -9.48    -11.98
    8   15   28     -0.53      0.31
    7   15   28      1.31     11.99
    6   15   28      1.63      5.68
    5   15   28      0.70     14.05
    4   15   28      4.52      2.28
    3   15   28      2.13    -12.66
    2   15   28      2.13     12.72
    1   15   28     12.64     17.36
    0   15   28     10.90      4.19
   13   16   28      1.50     -5.34
   12   16   28      5.31     -2.42
   11   16   28      6.08      6.78
   10   16   28     -1.63    -13.65
    9   16   28      3.58     -0.11
    8   16   28      5.17    -16.58
    7   16   28      3.15     -6.64
    6   16   28      2.15     11.18
    5   16   28     -2.05      4.02
    4   16   28      6.28     -7.32
    3   16   28      8.92      4.16
    2   16   28     40.71      0.44
    1   16   28     -5.24      5.75
    0   16   28     10.12      7.39
   14   16   28     -0.91     -5.00
   12   17   28      3.22     -9.53
   11   17   28      1.25      0.91
   10   17   28     -5.27      1.57
    9   17   28     -2.02     -1.76
    8   17   28      5.30     -3.88
    7   17   28      2.55    -10.86
    6   17   28    -14.45      0.44
    5   17   28      6.14      8.08
    4   17   28      4.76     -5.27
    3   17   28     13.10     -3.36
    2   17   28     -9.64     13.23
    1   17   28     13.99      1.38
    0   17   28    -10.11      1.63
   11   18   28     -6.78    -10.21
   10   18   28      4.15      5.87
    9   18   28     -2.78     -4.42
    8   18   28     -0.94      8.14
    7   18   28     -0.90      0.27
    6   18   28     -0.70      0.49
    5   18   28     -0.88     -2.70
    4   18   28     -5.43     -0.79
    3   18   28     -2.25      4.70
    2   18   28     -4.98      1.16
    1   18   28     -8.85      0.05
    0   18   28     -3.29      3.34
    9   19   28     -0.90      0.60
    8   19   28     -6.31     -3.06
    7   19   28     -9.67      6.92
    6   19   28     -7.31     -6.86
    5   19   28      7.25      5.79
    4   19   28     -2.95      6.23
    3   19   28     -4.51     -7.35
    2   19   28     -4.05      4.01
    1   19   28      4.17      7.05
    0   19   28     -8.23      3.10
    7   20   28      3.56     -3.82
    6   20   28     -2.37      1.17
    5   20   28      3.46     -0.79
    4   20   28     -2.39     -6.56
    3   20   28      8.48      3.42
    2   20   28      2.55     -3.02
    1   20   28      1.25     -0.01
    0   20   28      0.06      0.08
    3   21   28     -3.86     -2.09
    2   21   28      5.31     -1.10
    1   21   28      3.21      0.94
    0   21   28     -0.47     -0.15
    0    1   29     -8.61    -26.75
    1    2   29     70.40     55.50
    0    2   29     -4.44    -12.81
    2    3   29    -32.86    -26.71
    1    3   29    -52.16     -2.88
    0    3   29     -4.72     49.02
    3    4   29     26.53    -62.48
    2    4   29     18.60     -0.31
    1    4   29     26.36     68.62
    0    4   29      5.62    -19.39
    4    5   29    -41.22     54.44
    3    5   29     -4.35    -15.22
    2    5   29     33.18    -66.92
    1    5   29     30.12     -3.80
    0    5   29     -2.76     84.61
    5    6   29    -10.48     74.78
    4    6   29      5.05     -4.03
    3    6   29    -10.21     33.84
    2    6   29    -14.82      7.90
    1    6   29     30.79     26.66
    0    6   29     -2.25     11.99
    6    7   29     -3.14     37.63
    5    7   29      6.16      2.20
    4    7   29    -16.69     -0.11
    3    7   29    -20.53     -3.21
    2    7   29    -16.86    -31.43
    1    7   29     11.01      9.46
    0    7   29      0.75     52.45
    7    8   29    -13.12     40.74
    6    8   29    -10.15     11.07
    5    8   29     -1.65      4.83
    4    8   29     -4.53     11.43
    3    8   29    -13.60    -15.90
    2    8   29     19.15      3.32
    1    8   29    -22.07     -6.45
    0    8   29     -7.06      0.64
    8    9   29    -14.73    -10.70
    7    9   29      5.57      7.24
    6    9   29      9.48     36.53
    5    9   29     -7.84     -3.41
    4    9   29    -19.58    -15.24
    3    9   29     -0.70      1.02
    2    9   29     24.35    -10.09
    1    9   29    -21.91     -1.68
    0    9   29     -0.94     23.19
    9   10   29     -4.78      7.51
    8   10   29    -13.26     -7.06
    7   10   29     -4.56    -49.68
    6   10   29     -6.20      9.26
    5   10   29     31.31    -10.09
    4   10   29     -5.27    -14.41
    3   10   29      1.92    -27.90
    2   10   29      4.11     -3.95
    1   10   29     27.91      1.64
    0   10   29      0.61     42.91
   10   11   29      8.79    -13.35
    9   11   29     15.17     10.23
    8   11   29    -10.93     -8.07
    7   11   29     -2.80     -1.67
    6   11   29     -4.57    -14.44
    5   11   29     -1.75      3.96
    4   11   29      0.73     21.45
    3   11   29     18.40      8.59
    2   11   29    -20.64      7.92
    1   11   29      5.43     -4.91
    0   11   29     -5.99      2.86
   11   12   29    -15.88      3.62
   10   12   29      5.00     12.16
    9   12   29     15.51      6.61
    8   12   29      7.50      6.15
    7   12   29      3.47      8.46
    6   12   29      0.00      0.29
    5   12   29      1.53      7.41
    4   12   29     -3.13      4.85
    3   12   29     -4.73      8.29
    2   12   29      0.37    -13.95
    1   12   29      8.27     11.92
    0   12   29      6.11      9.32
   12   13   29    -10.38     -1.99
   11   13   29      9.68     -0.02
   10   13   29     -5.74     11.11
    9   13   29      1.97      6.16
    8   13   29     -8.98      6.18
    7   13   29      8.21     15.77
    6   13   29     -2.64     22.43
    5   13   29     -5.02     -8.76
    4   13   29     -3.86      2.90
    3   13   29      3.98      4.58
    2   13   29     29.16      9.96
    1   13   29      2.94      3.01
    0   13   29     -4.79     28.88
   13   14   29      6.00     -9.54
   12   14   29     -3.55      6.70
   11   14   29     -8.41     -1.14
   10   14   29     -0.28      2.69
    9   14   29     10.79      7.69
    8   14   29     -4.69      2.93
    7   14   29    -13.47    -12.39
    6   14   29     -2.52      2.59
    5   14   29      4.48      9.86
    4   14   29      1.09    -11.98
    3   14   29      9.22     -2.08
    2   14   29      6.83     -9.60
    1   14   29    -13.72    -13.18
    0   14   29      3.71      1.08
   14   15   29      1.06     -0.54
   13   15   29     -0.44     -0.85
   12   15   29     -1.96     -1.43
   11   15   29     -2.77      6.90
   10   15   29     -0.30    -12.98
    9   15   29     -7.77      3.73
    8   15   29     -7.03      1.98
    7   15   29      9.94      4.68
    6   15   29      3.00     -4.10
    5   15   29      5.99     -9.29
    4   15   29     -3.29      1.68
    3   15   29     -5.51     -1.60
    2   15   29      0.94     17.41
    1   15   29      1.24     -0.49
    0   15   29      1.24    -20.81
   14   16   29     12.00    -11.29
   13   16   29     -4.36      6.67
   12   16   29     -5.78      4.17
   11   16   29    -10.95     -0.67
   10   16   29      1.47      6.09
    9   16   29     -0.45     -3.06
    8   16   29     -8.91      2.92
    7   16   29     -0.82    -10.75
    6   16   29     -9.97     -4.39
    5   16   29     -4.81     -3.34
    4   16   29     -4.82     -5.60
    3   16   29     14.53     10.43
    2   16   29    -12.94     -1.14
    1   16   29      6.70    -14.51
    0   16   29     -5.61     -4.51
   12   17   29      1.42     -8.02
   11   17   29      2.71      0.95
   10   17   29     -7.41     -0.38
    9   17   29     -1.90      5.40
    8   17   29      1.80     -4.04
    7   17   29     -7.40     -0.68
    6   17   29      5.50    -11.54
    5   17   29    -16.23     -4.96
    4   17   29      4.38     13.55
    3   17   29      6.36      4.27
    2   17   29     11.66     -2.51
    1   17   29      0.33     -0.78
    0   17   29      1.66      4.07
   11   18   29     -1.60      4.26
    9   18   29      2.30      5.87
    8   18   29      5.21      2.17
    7   18   29     11.60     -2.08
    6   18   29      4.71     -4.93
    5   18   29     -5.20     -7.37
    4   18   29      7.79      3.54
    3   18   29      9.67     -3.84
    2   18   29      0.80     -8.39
    1   18   29      8.88    -11.40
    0   18   29     -3.77      9.07
   10   18   29     -2.03      3.69
    9   19   29      4.59      6.34
    8   19   29      2.68     -3.11
    7   19   29     -2.70      2.41
    6   19   29     -2.51      4.98
    5   19   29     11.37     -2.65
    4   19   29      6.56      2.68
    3   19   29     -0.66     -1.43
    2   19   29      2.65      0.16
    1   19   29      4.30      1.43
    0   19   29      0.01    -12.63
    7   20   29     -0.28     -8.02
    6   20   29      1.91      1.57
    5   20   29     -3.20      0.40
    4   20   29      7.79      0.54
    3   20   29      5.98      0.72
    2   20   29     -3.27      4.94
    1   20   29      1.42     -5.07
    0   20   29     -0.54     -2.77
    3   21   29     -2.87      0.99
    2   21   29     -2.04      0.81
    1   21   29     -6.17     -3.48
    0    0   30   -296.04    -11.19
    1    1   30   -109.58    -98.61
    0    1   30     19.11      2.45
    2    2   30    -35.97      2.10
    1    2   30     18.27      8.34
    0    2   30     19.25    -14.49
    3    3   30    117.29    -36.26
    2    3   30     22.28    -43.83
    1    3   30    -38.23     52.24
    0    3   30     40.83      1.32
    4    4   30    -15.34    -12.60
    3    4   30     10.45    -30.79
    2    4   30      5.75     28.84
    1    4   30     12.00      7.81
    0    4   30   -107.51     -0.77
    5    5   30     -5.41    -39.48
    4    5   30     35.87     12.70
    3    5   30    -44.78     -4.68
    2    5   30      0.86     14.62
    1    5   30    -79.76    -19.65
    0    5   30     14.63      0.59
    6    6   30    -11.38     41.50
    5    6   30      5.41     -7.54
    4    6   30    -27.27     57.06
    3    6   30    -22.92    -31.10
    2    6   30      9.50    -46.43
    1    6   30     12.77     -0.29
    0    6   30     18.66    -18.27
    7    7   30     18.65     52.50
    6    7   30    -18.49      6.27
    5    7   30    -16.47    -35.12
    4    7   30     -6.38      0.46
    3    7   30     11.27      6.81
    2    7   30     -1.49    -25.14
    1    7   30     10.82     29.16
    0    7   30     -2.31      3.86
    8    8   30     -6.86    -25.91
    7    8   30      4.77      9.06
    6    8   30    -48.45      5.70
    5    8   30      4.70    -11.78
    4    8   30     -2.65    -44.13
    3    8   30      4.93     -2.10
    2    8   30     13.03     44.90
    1    8   30     -2.36     28.79
    0    8   30    -30.34    -11.85
    9    9   30    -57.55    -20.24
    8    9   30      1.31      1.94
    7    9   30    -14.41    -36.65
    6    9   30     -2.84     12.48
    5    9   30     -0.94     24.09
    4    9   30     14.14      7.22
    3    9   30    -15.21    -17.49
    2    9   30      7.79     -2.79
    1    9   30     12.07    -19.00
    0    9   30      1.74     -0.33
   10   10   30     -9.47    -17.17
    9   10   30     -1.96      8.28
    8   10   30    -11.58     -1.92
    7   10   30     -2.94     -0.55
    6   10   30     -3.16      8.17
    5   10   30      6.07      6.73
    4   10   30      0.49    -19.52
    3   10   30    -11.34    -11.44
    2   10   30      5.07     11.53
    1   10   30     19.74      0.45
    0   10   30     15.01     -1.91
   11   11   30     -7.40    -29.95
   10   11   30     -7.27      1.18
    9   11   30      0.40     -9.70
    8   11   30      5.74      4.70
    7   11   30      3.69     -2.49
    6   11   30     -6.02     11.72
    5   11   30     -7.42     13.73
    4   11   30      5.79     -7.05
    3   11   30     -9.39     17.42
    2   11   30      4.83      2.85
    1   11   30      9.24    -15.01
    0   11   30     -4.38      2.21
   12   12   30     -4.63     -6.42
   11   12   30      5.43     -5.34
   10   12   30     -3.12     -2.20
    9   12   30      0.76     -2.01
    8   12   30    -11.12     -6.71
    7   12   30     -6.23     -0.75
    6   12   30      2.74     15.15
    5   12   30     14.64      3.52
    4   12   30     -8.30      9.79
    3   12   30     -6.89     -4.98
    2   12   30    -18.31      5.32
    1   12   30      4.01     -0.86
    0   12   30     25.13      7.02
   12   13   30      4.09     -5.61
   11   13   30     -9.97      4.45
   10   13   30      5.52      4.23
    9   13   30     -8.83      4.55
    8   13   30     12.86     -0.99
    7   13   30      9.42     -6.39
    6   13   30      2.09     -9.89
    5   13   30    -10.41     14.84
    4   13   30    -14.24     -0.73
    3   13   30     17.04      4.06
    2   13   30      2.85     -1.12
    1   13   30      5.96      2.28
    0   13   30     14.89     -5.76
   13   13   30      1.64      7.88
   14   14   30      7.89      5.87
   13   14   30      3.72     -3.15
   12   14   30     -9.86      0.39
   11   14   30     -3.23      4.25
   10   14   30     -0.77    -13.47
    9   14   30      5.38      7.31
    8   14   30      7.39     -4.42
    7   14   30     -2.83     -9.49
    6   14   30      1.64     13.80
    5   14   30      5.68     -8.16
    4   14   30      3.67      1.75
    3   14   30     -3.85     -5.71
    2   14   30      8.90     -6.79
    1   14   30      3.72      2.04
    0   14   30     14.63      2.27
   14   15   30      2.26      4.98
   13   15   30      3.19      9.88
   12   15   30      6.12      1.70
   11   15   30     -4.83    -19.56
   10   15   30     -2.14     -2.25
    9   15   30     12.08      5.65
    8   15   30     -3.74      9.81
    7   15   30     11.89     -4.48
    6   15   30      6.29     -5.37
    5   15   30     -5.61     -3.43
    4   15   30     -0.85      5.05
    3   15   30      1.07      6.79
    2   15   30     -3.21     -4.07
    1   15   30    -11.38    -16.76
    0   15   30    -10.40     -0.93
   15   15   30      7.01     -6.50
   13   16   30     -3.30      2.97
   12   16   30     -7.56     -4.85
   11   16   30      3.24     -2.00
   10   16   30      0.63      4.38
    9   16   30     -0.02     15.98
    8   16   30      2.75      0.45
    7   16   30      9.67      0.63
    6   16   30      2.59    -17.73
    5   16   30     -7.94     -1.62
    4   16   30     -5.19     12.39
    3   16   30     -4.40     -2.35
    2   16   30    -16.88      2.20
    1   16   30     -6.14      5.75
    0   16   30    -10.48     -2.64
   12   17   30      1.18      3.39
   11   17   30     -0.34     -9.90
   10   17   30     -2.60      0.80
    9   17   30      1.22     -2.18
    8   17   30     -8.75      0.49
    7   17   30      6.55     15.63
    6   17   30     11.14      7.44
    5   17   30      6.47     -7.83
    4   17   30    -12.71      9.53
    3   17   30     -7.59      6.53
    2   17   30      1.16     -7.63
    1   17   30     -5.89      1.95
    0   17   30     -0.79     -2.14
   11   18   30      5.99      4.44
   10   18   30      1.36     -2.68
    9   18   30      0.14     -3.13
    8   18   30      7.20      1.34
    7   18   30      2.83     -3.36
    6   18   30      4.96      3.73
    5   18   30     -1.17      7.50
    4   18   30      0.61      4.67
    3   18   30     -6.43     -6.57
    2   18   30     13.37     -2.92
    1   18   30      2.93     -9.97
    0   18   30     -6.81     -1.96
    9   19   30     -5.32     -1.81
    8   19   30      9.11      1.70
    7   19   30     10.42     -5.21
    6   19   30      8.33     -0.87
    5   19   30     -1.70     -3.48
    4   19   30     -1.29     -0.18
    3   19   30     -1.19      2.12
    2   19   30      3.94      2.05
    1   19   30     -3.73     -7.17
    0   19   30     -5.04     -3.83
    7   20   30     -6.44     -3.93
    5   20   30      5.70      0.79
    4   20   30     -4.31     -2.23
    3   20   30     -5.30     -4.93
    2   20   30      1.88      5.34
    1   20   30      0.56     -6.72
    0   20   30      1.02     -0.55
    6   20   30     -0.47     -0.99
    3   21   30      3.39      1.37
    2   21   30     -2.60      0.98
    1   21   30     -5.37     -1.22
    0   21   30    -11.18      4.78
    0    1   31      5.80     17.56
    1    2   31    -57.74     69.43
    0    2   31     -0.71     -2.76
    2    3   31     21.58     21.72
    1    3   31    -38.91     -6.30
    0    3   31     12.81     66.93
    3    4   31    -12.59    -39.98
    2    4   31     28.17     19.44
    1    4   31      2.38     28.61
    0    4   31      1.61    -17.99
    4    5   31     -4.75    -83.42
    3    5   31     -1.82    -53.38
    2    5   31    -38.72    -30.27
    1    5   31    -14.72    -16.16
    0    5   31     -4.72     -6.75
    5    6   31     19.27    -31.07
    4    6   31      7.10     -7.35
    3    6   31     47.70    -26.21
    2    6   31    -23.25     -6.26
    1    6   31    -52.24    -27.52
    0    6   31      3.99    -34.50
    6    7   31     10.44     -7.18
    5    7   31     -7.77     11.86
    4    7   31     -0.31     24.36
    3    7   31      2.40      4.00
    2    7   31     19.82     17.39
    1    7   31     -3.37     29.52
    0    7   31     -6.78     56.70
    7    8   31     10.54    -52.35
    6    8   31    -12.41     10.57
    5    8   31    -14.73     31.39
    4    8   31     -8.25     11.82
    3    8   31     -6.82     36.66
    2    8   31      6.58      8.91
    1    8   31     -1.83     80.74
    0    8   31     19.30     26.90
    8    9   31      4.50     25.11
    7    9   31     -6.22     -0.05
    6    9   31    -36.53    -26.87
    5    9   31     -6.94      9.90
    4    9   31     22.92     12.73
    3    9   31      0.52     -6.34
    2    9   31    -26.70     -1.08
    1    9   31     -6.17      1.97
    0    9   31     -9.34     34.60
    9   10   31     -6.98     25.80
    8   10   31      3.93     11.33
    7   10   31     13.22     20.61
    6   10   31      8.71     -4.42
    5   10   31    -17.04     16.84
    4   10   31     -0.92     -7.03
    3   10   31    -11.30     -5.84
    2   10   31    -10.96      2.98
    1   10   31    -12.04    -29.30
    0   10   31      1.12      7.37
   10   11   31     -8.54      8.71
    9   11   31     -8.62    -13.00
    8   11   31      5.73      3.36
    7   11   31     -4.07      1.66
    6   11   31    -26.02     17.36
    5   11   31     -6.11     -1.15
    4   11   31     -4.07    -24.60
    3   11   31    -13.81      4.22
    2   11   31    -10.16    -18.32
    1   11   31     -5.64      9.14
    0   11   31     16.54    -36.59
   11   12   31      4.06    -11.82
   10   12   31     -7.57    -13.37
    9   12   31     -8.23     -1.62
    8   12   31      2.10      5.89
    7   12   31      4.24    -11.71
    6   12   31     -8.53      4.19
    5   12   31     -6.86      1.14
    4   12   31      4.17      1.76
    3   12   31     -5.79     -1.07
    2   12   31      6.35     -5.18
    1   12   31    -15.39     18.29
    0   12   31     -3.16     10.71
   12   13   31      5.63     -3.10
   11   13   31     -9.31      1.07
   10   13   31    -15.87      0.35
    9   13   31      2.32      3.70
    8   13   31     -1.50    -15.17
    7   13   31     -5.12     -8.01
    6   13   31     -1.97    -11.30
    5   13   31     13.12      0.41
    4   13   31     -3.99     -0.33
    3   13   31      9.93    -11.77
    2   13   31    -25.21     20.72
    1   13   31      7.91      2.55
    0   13   31     -7.17     -9.20
   13   14   31     -1.06      5.77
   12   14   31      1.48      3.55
   11   14   31     -8.13     -6.43
   10   14   31     11.82      4.52
    9   14   31    -18.26      7.86
    8   14   31     -0.09      7.94
    7   14   31      6.55     16.76
    6   14   31     12.77    -14.36
    5   14   31     -7.01      6.35
    4   14   31     13.37      3.54
    3   14   31    -14.63     16.39
    2   14   31      6.05     -7.80
    1   14   31     -6.87     -4.55
    0   14   31     -4.67     15.81
   14   15   31      7.67     -2.73
   13   15   31     -3.22      0.24
   12   15   31     -1.23     -0.97
   11   15   31      4.30      0.73
   10   15   31     -2.69     14.86
    9   15   31     -2.11      1.50
    8   15   31      7.64      6.02
    7   15   31      1.46     -7.33
    6   15   31     10.24      8.22
    5   15   31      1.49      3.53
    4   15   31      2.78     -1.62
    3   15   31     12.34     -4.48
    2   15   31      1.28     -4.21
    1   15   31      0.88      4.10
    0   15   31      1.90      2.89
   13   16   31      3.18     -0.11
   12   16   31      5.74     -3.43
   11   16   31     10.45     -3.91
   10   16   31      4.85     -2.33
    9   16   31     -0.32      5.37
    8   16   31      4.58      5.19
    7   16   31      5.01      7.09
    6   16   31     -8.62     -0.67
    5   16   31      5.52      8.17
    4   16   31     -0.97     -0.70
    3   16   31     -7.41     -1.75
    2   16   31      1.62     -6.14
    1   16   31      4.43      0.52
    0   16   31      9.70      8.34
   11   17   31      5.52     -2.26
   10   17   31      5.27     -1.35
    9   17   31      3.57      6.05
    8   17   31      3.62     -0.75
    7   17   31      1.51     -0.86
    6   17   31      8.43     10.06
    5   17   31      5.11      2.64
    4   17   31     -5.23     -2.58
    3   17   31     -6.93     -7.50
    2   17   31     -3.38      3.87
    1   17   31      9.89      6.15
    0   17   31     -2.06    -10.33
   12   17   31      0.55      2.68
   11   18   31      2.33     -2.63
   10   18   31     -7.79     -6.53
    9   18   31     -5.56     -2.16
    8   18   31     -2.97     -1.04
    7   18   31     -1.18     -4.37
    6   18   31      8.82     -7.76
    5   18   31      2.02      7.33
    4   18   31     -8.25     -1.68
    3   18   31     -2.12     11.37
    2   18   31      2.21      3.21
    1   18   31    -19.21     10.84
    0   18   31     11.21      0.67
    9   19   31      1.45     -6.01
    8   19   31     -6.95      6.56
    7   19   31      5.48     -4.32
    6   19   31     -1.44     -3.17
    5   19   31     -0.48     13.14
    4   19   31     -4.52     -1.25
    3   19   31     10.06      4.39
    2   19   31     -5.30     -0.23
    1   19   31      4.04      5.69
    0   19   31     -1.02      8.62
    6   20   31      2.72     -2.86
    5   20   31     -5.13      1.13
    4   20   31     -5.68      4.07
    3   20   31    -10.70      0.30
    2   20   31     -0.75     -5.06
    1   20   31     -1.14      1.72
    0   20   31      1.70      4.28
    2   21   31     -1.62      0.02
    0   21   31      0.84     12.08
    1   21   31      9.85      5.93
    0    0   32    209.91     -6.17
    1    1   32     57.44     21.74
    0    1   32     18.74     -1.82
    2    2   32     67.85     56.09
    1    2   32      8.00     19.12
    3    3   32    105.94    140.87
    2    3   32     32.08    -23.76
    1    3   32      9.76    -30.55
    0    3   32     41.62      6.90
    4    4   32      3.64    -60.14
    3    4   32     25.07    -20.43
    2    4   32     72.31    -51.76
    1    4   32      5.82     11.53
    0    4   32     51.30      3.52
    5    5   32    -48.35    -69.47
    4    5   32    -11.71      7.72
    3    5   32    -18.83     15.09
    2    5   32      9.03     26.21
    1    5   32     33.95     26.59
    0    5   32    -22.29     -1.72
    6    6   32     -6.21     -1.30
    5    6   32    -12.48     15.46
    4    6   32     18.99    -40.44
    3    6   32     10.86    -15.17
    2    6   32     20.08     62.52
    1    6   32     10.68     -6.95
    0    6   32    -58.84      1.77
    7    7   32    -18.75      0.44
    6    7   32      4.96      2.31
    5    7   32     36.69      0.19
    4    7   32     11.95     -7.42
    3    7   32     -0.21     38.39
    2    7   32      2.00    -13.64
    1    7   32    -19.03     34.10
    0    7   32      4.87      0.46
    8    8   32     31.58     23.07
    7    8   32     10.42      3.93
    6    8   32     24.87    -20.21
    5    8   32      2.68      0.61
    4    8   32      1.63     15.67
    3    8   32     19.58     -1.44
    2    8   32     -1.64    -36.70
    1    8   32      2.66      7.26
    0    8   32     14.06      3.72
    9    9   32     21.15     -4.38
    8    9   32     10.92      3.03
    7    9   32     36.51     26.05
    6    9   32      4.40     -9.99
    5    9   32     -8.83    -21.73
    4    9   32     -5.47      9.24
    3    9   32      4.45     -5.55
    2    9   32     -8.31     -6.94
    1    9   32    -20.80      8.29
    0    9   32      6.88      2.89
   10   10   32      5.68     18.31
    9   10   32     11.28     -1.89
    8   10   32     16.03     -6.74
    7   10   32      5.98      5.48
    6   10   32      8.60    -56.15
    5   10   32    -17.76    -11.90
    4   10   32    -26.27      1.98
    3   10   32      5.18    -13.32
    2   10   32      2.04     22.15
    1   10   32     -4.59     -6.28
    0   10   32    -56.40      1.98
   11   11   32      5.21      3.12
   10   11   32      6.90      1.25
    9   11   32     -2.76     -3.04
    8   11   32      5.78      6.95
    7   11   32     -3.54      1.82
    6   11   32     -5.55    -11.65
    5   11   32      7.86     -6.67
    4   11   32      0.86     -4.74
    3   11   32     -3.83     -8.38
    2   11   32      7.46     -0.31
    1   11   32      4.89     31.97
    0   11   32     -7.74      0.13
   12   12   32     -1.37      5.40
   11   12   32     -2.10     -4.26
   10   12   32      3.88    -13.16
    9   12   32      5.38      5.29
    8   12   32     -6.29      5.56
    7   12   32      5.82      1.45
    6   12   32    -10.28    -10.91
    5   12   32     11.42      8.91
    4   12   32      8.26     -2.91
    3   12   32     -3.78      5.14
    2   12   32      6.11      0.29
    1   12   32     -3.34      2.30
    0   12   32      8.70      2.29
   13   13   32     -1.24     -4.00
   12   13   32     -3.83     -2.57
   11   13   32     -9.15     -3.30
   10   13   32      0.49     -5.32
    9   13   32     -8.63      6.79
    8   13   32      9.03     -4.03
    7   13   32      5.27     13.02
    6   13   32     11.03     -2.38
    5   13   32      3.14     -2.05
    4   13   32      0.86     -3.94
    3   13   32    -10.10     18.96
    2   13   32      6.84    -10.34
    1   13   32     11.05     -6.78
    0   13   32    -12.60      1.15
   14   14   32     -1.36      7.73
   13   14   32      2.43      1.30
   12   14   32     -7.23     -3.86
   11   14   32     -1.62     -6.11
   10   14   32      4.34      0.20
    9   14   32      4.91      3.76
    8   14   32     -1.33     31.33
    7   14   32     11.38      2.23
    6   14   32     -4.84    -43.21
    5   14   32    -12.00     -1.98
    4   14   32     -3.45     25.94
    3   14   32     -2.69     -2.80
    2   14   32    -13.81     -9.57
    1   14   32      9.96     -0.95
    0   14   32    -17.92      1.75
   13   15   32     -3.73     -4.74
   12   15   32     -4.58      5.84
   11   15   32      9.31     11.01
   10   15   32      6.30      0.04
    9   15   32     -5.13     -5.32
    8   15   32     -9.29      1.21
    7   15   32    -10.03     -3.86
    6   15   32     -1.57      6.07
    5   15   32     -1.34    -17.54
    4   15   32      9.29      4.03
    3   15   32    -11.95      3.09
    2   15   32     11.86      3.99
    1   15   32      7.58     -1.40
    0   15   32      8.36     -0.39
   14   15   32     -2.04      2.17
   13   16   32      3.20     -7.28
   12   16   32     -0.24      5.91
   11   16   32     -9.23      4.49
   10   16   32      0.74    -10.20
    9   16   32     -2.03     -2.99
    8   16   32     -0.07      0.53
    7   16   32     -7.07      5.49
    6   16   32     -7.11     -2.19
    5   16   32     -2.92     13.07
    4   16   32     -4.02     -3.36
    3   16   32    -11.99      8.33
    2   16   32      5.26     -8.83
    1   16   32      3.80     -2.97
    0   16   32      3.11      7.15
   11   17   32     -8.56     -1.18
   10   17   32      3.95      0.48
    9   17   32     -1.42      8.22
    8   17   32      0.72      1.32
    7   17   32     -8.87    -10.60
    6   17   32     -6.48    -14.97
    5   17   32      6.94      4.25
    4   17   32     -4.68     -1.32
    3   17   32      9.65     -7.75
    2   17   32     -6.29      3.76
    1   17   32     17.82     -5.64
    0   17   32     -1.75     -2.39
   12   17   32     -5.73     -2.44
   11   18   32     -2.54     -0.55
   10   18   32     -0.73      0.17
    9   18   32     -3.04      3.33
    8   18   32     -0.98      1.17
    7   18   32      1.51     -3.49
    6   18   32     -4.28     -3.50
    5   18   32     -0.72     -3.92
    4   18   32     -1.95     -0.52
    3   18   32      7.82     13.72
    2   18   32     -0.03     -6.37
    1   18   32     -2.54     -0.95
    0   18   32     14.60     -2.56
    9   19   32     10.88      7.29
    8   19   32     -4.02     -3.81
    7   19   32     -3.84     -4.57
    6   19   32      5.11      6.16
    5   19   32     -1.67      3.48
    4   19   32     -5.42      2.78
    3   19   32      6.63     -8.73
    2   19   32     11.28      2.67
    1   19   32      3.71     -0.27
    0   19   32      2.85     -1.63
    6   20   32     -0.96     -0.94
    5   20   32     -4.28     -6.67
    4   20   32     10.66     -1.74
    3   20   32     -0.28     11.35
    2   20   32      1.48    -10.26
    1   20   32      2.48     -0.24
    0   20   32      3.63      0.15
    2   21   32      7.24     -0.87
    1   21   32      3.79      1.89
    0   21   32      8.30     -1.75
    0    1   33     -7.69    102.08
    1    2   33     41.81     62.36
    0    2   33      8.29     -3.36
    2    3   33     55.63     73.95
    1    3   33    -24.62     -2.33
    0    3   33    -11.65     -7.46
    3    4   33    -12.75     20.41
    2    4   33     13.72     22.43
    1    4   33    -35.62      2.62
    0    4   33     -5.16     13.25
    4    5   33    -48.17     -0.30
    3    5   33     -9.76      5.62
    2    5   33      9.53     28.80
    1    5   33     10.79    -19.20
    0    5   33      4.29     65.16
    5    6   33     -1.34     -5.13
    4    6   33     -0.39    -11.40
    3    6   33     19.42    -62.02
    2    6   33    -27.31    -20.79
    1    6   33     19.33    -33.50
    0    6   33      6.39      3.58
    6    7   33     39.34    -26.40
    5    7   33     -9.91    -19.99
    4    7   33     -1.86    -41.27
    3    7   33    -11.98      7.83
    2    7   33     10.79    -62.68
    1    7   33      2.49      6.52
    0    7   33     -2.34    -73.57
    7    8   33     23.85     13.83
    6    8   33    -18.51     19.37
    5    8   33     12.35     -5.11
    4    8   33    -20.98      1.60
    3    8   33     12.33    -33.88
    2    8   33    -12.05      8.11
    1    8   33     -6.20    -38.33
    0    8   33     -7.61     -4.23
    8    9   33    -21.37     -2.74
    7    9   33     -5.13      9.38
    6    9   33     28.19     22.86
    5    9   33      6.47      9.80
    4    9   33     13.71     -7.38
    3    9   33     -2.71      4.55
    2    9   33     17.47     30.86
    1    9   33     -2.79      5.50
    0    9   33     16.53     19.28
    9   10   33     -5.35     -7.96
    8   10   33     -1.10     -8.11
    7   10   33    -19.01    -10.34
    6   10   33     -2.61    -13.32
    5   10   33    -11.71      8.92
    4   10   33     -5.10     -2.22
    3   10   33      7.01     15.44
    2   10   33     -2.09      1.04
    1   10   33      6.40     16.10
    0   10   33      3.00      1.39
   10   11   33     -4.33    -10.42
    9   11   33     16.73     13.27
    8   11   33    -10.86    -16.60
    7   11   33     -4.95     -0.52
    6   11   33     15.07      7.56
    5   11   33      2.38     -3.07
    4   11   33     -0.20    -17.60
    3   11   33      7.39    -16.63
    2   11   33    -10.14     -0.55
    1   11   33     -4.06     -7.36
    0   11   33    -10.19     -7.79
   11   12   33      2.13     -5.89
   10   12   33     18.41     16.30
    9   12   33     -9.68     -1.49
    8   12   33     -3.81      3.40
    7   12   33     -3.21    -12.58
    6   12   33     -2.34     -1.23
    5   12   33     -4.63    -30.76
    4   12   33     -2.31    -10.02
    3   12   33     -3.77    -19.95
    2   12   33     11.04    -16.76
    1   12   33      5.98    -11.85
    0   12   33      0.51      2.96
   12   13   33      3.93      5.06
   11   13   33      4.38     -7.21
   10   13   33     22.53      9.52
    9   13   33     -4.16     -6.16
    8   13   33    -11.56     -4.79
    7   13   33      7.76      0.81
    6   13   33     10.28     -9.10
    5   13   33     -3.80     -8.89
    4   13   33     -6.54    -14.79
    3   13   33    -13.87     19.82
    2   13   33     12.52     -8.66
    1   13   33     -3.99      2.24
    0   13   33      7.76    -19.35
   12   14   33     -8.49    -11.03
   11   14   33     13.75      5.84
   10   14   33     -3.58     -2.19
    9   14   33     15.58      5.19
    8   14   33      7.11     -9.79
    7   14   33     -4.41     -6.48
    6   14   33    -24.23      4.48
    5   14   33      3.05      5.33
    4   14   33      7.33     15.15
    3   14   33     14.07    -11.91
    2   14   33     -6.69     13.40
    1   14   33     -5.84     -3.85
    0   14   33      8.91     23.37
   13   14   33      0.32      6.89
   14   15   33    -13.16      2.42
   13   15   33      5.24     -2.71
   12   15   33      7.59     -5.93
   11   15   33      1.07     -4.22
   10   15   33     -3.23     -4.47
    9   15   33      1.15      0.76
    8   15   33    -11.53     -9.76
    7   15   33     -3.25      5.70
    6   15   33      1.02     -5.84
    5   15   33     -1.29     -2.12
    4   15   33    -11.93     -6.16
    3   15   33      4.76      5.80
    2   15   33     -3.48     -3.59
    1   15   33     16.20      0.11
    0   15   33     -0.24      6.42
   13   16   33     -8.88     -1.95
   12   16   33     -5.84      4.96
   11   16   33     -8.88      0.77
   10   16   33     -1.54      3.10
    9   16   33     -6.69      0.91
    8   16   33      2.68     -2.51
    7   16   33     -5.75    -18.87
    6   16   33     10.99     -0.62
    5   16   33     -3.92     -5.97
    4   16   33     -3.16     -0.96
    3   16   33      8.68     -8.37
    2   16   33     -8.84     -5.41
    1   16   33    -10.87      4.66
    0   16   33      3.54     -3.37
   12   17   33     -6.50     -7.48
   11   17   33     -9.92     12.51
   10   17   33     -2.59      6.01
    9   17   33      2.89     -0.59
    8   17   33    -11.35      1.74
    7   17   33     -2.92     -6.53
    6   17   33     -1.92     -8.81
    5   17   33    -11.66     -4.54
    4   17   33      7.58      4.47
    3   17   33     11.14     -6.23
    2   17   33     -2.05     -5.54
    1   17   33     -3.05    -10.36
    0   17   33     -0.20      7.98
   10   18   33     11.32      1.66
    9   18   33     -0.13      7.66
    8   18   33     -4.22      4.38
    7   18   33     -1.73      3.28
    6   18   33     -6.80      2.04
    5   18   33      3.87      0.14
    4   18   33      9.83      0.81
    3   18   33     -8.89     -6.84
    2   18   33      2.84     -3.89
    1   18   33     13.87     -9.29
    0   18   33     -2.10      0.38
    9   19   33      3.45      2.32
    8   19   33     -2.16     -6.22
    7   19   33     -2.00     -0.68
    6   19   33     -1.78     -5.77
    5   19   33      0.31     -6.02
    4   19   33     -6.96     -0.74
    3   19   33      5.95      3.54
    2   19   33      1.02     -2.61
    1   19   33     -3.42      4.11
    0   19   33      0.10      7.00
    6   20   33     -7.05     -0.96
    5   20   33      2.27     -1.57
    4   20   33     -2.58      3.91
    3   20   33      4.07      0.63
    2   20   33      5.35      0.63
    1   20   33      1.97     -0.28
    0   20   33     -9.75      4.65
    1   21   33     -4.33     -5.74
    0   21   33      0.25     -4.85
    0    0   34     66.36      4.31
    1    1   34    -55.16     59.13
    0    1   34    -13.59      4.22
    2    2   34    -80.24    -33.46
    1    2   34     36.22     11.19
    0    2   34    -57.16      3.66
    3    3   34   -171.72    -75.32
    2    3   34     32.64     -3.30
    1    3   34     11.82    -17.91
    0    3   34     -6.09     -2.51
    4    4   34     49.57    -37.97
    3    4   34    -10.72      8.16
    2    4   34   -151.02     86.18
    1    4   34     21.58     13.98
    0    4   34    -45.81    -16.22
    5    5   34    -36.57     50.39
    4    5   34     24.18     16.05
    3    5   34    -39.73     41.58
    2    5   34     19.57     35.06
    1    5   34    -12.80    -64.79
    0    5   34    -11.15      2.13
    6    6   34    -41.16      0.07
    5    6   34     15.26      6.98
    4    6   34    -23.29      9.34
    3    6   34      3.76     13.79
    2    6   34    -55.25    -69.83
    1    6   34     21.57    -24.23
    0    6   34    -36.75     -2.22
    7    7   34     25.33    -19.75
    6    7   34    -13.49     -6.99
    5    7   34     -0.28    -20.75
    4    7   34     -0.88      1.21
    3    7   34    -23.32    -17.90
    2    7   34     17.71     -8.29
    1    7   34    -42.51      0.10
    0    7   34      5.23     -0.38
    8    8   34    -11.07     -9.56
    7    8   34     -1.70     16.71
    6    8   34      1.54     -7.70
    5    8   34     10.24      2.63
    4    8   34    -33.88     24.89
    3    8   34     -5.25      5.15
    2    8   34     16.62     16.30
    1    8   34      1.25     15.77
    0    8   34    -16.53    -10.58
    9    9   34     18.67     44.32
    8    9   34     13.24     -4.46
    7    9   34    -43.07      3.21
    6    9   34      5.93     -7.38
    5    9   34     23.80      5.84
    4    9   34     16.05     19.99
    3    9   34    -14.90     -0.89
    2    9   34     -6.44      0.39
    1    9   34      7.35     -3.41
    0    9   34      8.35      1.91
   10   10   34     -2.02    -10.04
    9   10   34      1.22    -13.77
    8   10   34     -9.88     15.20
    7   10   34      0.80     -9.67
    6   10   34     12.30     31.57
    5   10   34      2.84      9.96
    4   10   34     47.29     -2.23
    3   10   34     -3.17     -2.78
    2   10   34     -7.29      3.77
    1   10   34     -9.25     -9.15
    0   10   34     18.86     -0.18
   11   11   34    -13.31    -20.17
   10   11   34      0.04     -7.51
    9   11   34     10.13     -7.48
    8   11   34     11.27      7.53
    7   11   34     19.48     -1.69
    6   11   34     -3.35      5.07
    5   11   34     -7.83    -21.10
    4   11   34     -9.58     -6.12
    3   11   34      6.37     23.19
    2   11   34    -15.28      3.75
    1   11   34     -8.91    -31.06
    0   11   34      2.36     -0.49
   12   12   34      0.14    -13.71
   11   12   34      1.90     -1.35
   10   12   34      0.35      7.54
    9   12   34      6.06      4.18
    8   12   34      7.48     -2.92
    7   12   34     -0.11      4.01
    6   12   34     16.54    -23.66
    5   12   34     -1.21     -7.47
    4   12   34     -6.56     -2.25
    3   12   34     -4.89     -2.99
    2   12   34      3.24     -2.64
    1   12   34      0.26    -13.58
    0   12   34    -25.56      0.01
   13   13   34      2.96     -7.15
   12   13   34      5.87      9.86
   11   13   34     16.73      5.30
   10   13   34     -1.44      5.29
    9   13   34      1.66      3.05
    8   13   34     -8.91     -2.96
    7   13   34    -11.66      0.53
    6   13   34    -11.26      5.83
    5   13   34     -8.10    -11.24
    4   13   34     12.86     15.33
    3   13   34     -8.26      6.38
    2   13   34      3.31     -7.61
    1   13   34    -29.83     -6.96
    0   13   34     -1.76     -3.67
   14   14   34     12.79      3.42
   13   14   34      1.94     -0.12
   12   14   34      4.65      8.35
   11   14   34      2.61     -0.34
   10   14   34     -3.06     -4.36
    9   14   34      9.23     -1.27
    8   14   34     -3.48     -8.06
    7   14   34      3.62      8.03
    6   14   34     21.23     37.45
    5   14   34      8.01      1.93
    4   14   34      4.74    -26.57
    3   14   34    -11.94     -5.49
    2   14   34      1.90     25.53
    1   14   34     16.50     12.46
    0   14   34      2.86     -1.99
   14   15   34     -5.15     -2.08
   13   15   34     -0.43     -5.74
   12   15   34      1.24     -4.41
   11   15   34     -6.96     -1.42
   10   15   34      4.59      9.08
    9   15   34     -8.07      0.18
    8   15   34      5.97     11.13
    7   15   34     13.20     -4.68
    6   15   34     -0.78     -3.76
    5   15   34      6.49      8.72
    4   15   34      0.03     -1.30
    3   15   34     18.93     -6.10
    2   15   34     -2.77     -4.13
    1   15   34     -2.84      5.19
    0   15   34      9.13     -3.04
   12   16   34      1.11     -6.77
   11   16   34      1.80      0.13
   10   16   34     -7.34     -0.11
    9   16   34     -3.82     -0.67
    8   16   34      3.48      7.71
    7   16   34      2.68     -8.00
    6   16   34     14.22     -2.65
    5   16   34     -7.09      4.38
    4   16   34      3.07     11.33
    3   16   34     12.26     -6.43
    2   16   34     11.17      0.81
    1   16   34      3.37     -1.93
    0   16   34      4.50     -0.40
   13   16   34     -1.03      2.33
   12   17   34      2.75      2.58
   11   17   34      5.34     -4.52
   10   17   34      3.07     -4.73
    9   17   34     -4.79     -4.76
    8   17   34     -2.17     -1.88
    7   17   34      3.23      1.77
    6   17   34      3.86      3.92
    5   17   34     -2.30      0.71
    4   17   34     -9.19     -3.24
    3   17   34     -1.12     13.28
    2   17   34     -5.53     -5.25
    1   17   34     -8.77     -0.57
    0   17   34      4.62      1.46
   10   18   34     -8.21      1.69
    9   18   34      5.08     -0.63
    8   18   34     -3.91     -2.04
    7   18   34     -5.18     10.76
    6   18   34      5.35      3.10
    5   18   34     -0.28     -5.83
    4   18   34     10.04      5.72
    3   18   34    -13.44     -7.49
    2   18   34      2.58      1.83
    1   18   34     -5.26      4.53
    0   18   34     -3.32     -1.08
    8   19   34     -3.47     -1.47
    7   19   34      2.21     -0.29
    6   19   34     -1.25     -4.04
    5   19   34      2.76     -8.06
    4   19   34      5.34     -7.52
    3   19   34     -7.02      6.90
    2   19   34     -2.75     -9.53
    1   19   34     -1.24     -0.23
    0   19   34     -1.26      2.99
    6   20   34      5.88     -5.36
    5   20   34     -1.26      7.98
    4   20   34     -5.23      0.32
    3   20   34     -1.62     -7.59
    2   20   34     -4.34      6.56
    1   20   34     -1.56     -3.77
    0   20   34     -3.47      0.76
    0    1   35     32.00     75.93
    1    2   35    -71.94     33.49
    0    2   35    -16.17      3.94
    2    3   35      2.07    -27.72
    1    3   35    -16.76     -9.33
    0    3   35     -1.65     31.78
    3    4   35    -12.76    -77.41
    2    4   35      2.64     -1.29
    1    4   35     33.96      6.74
    0    4   35     -1.50    -53.24
    4    5   35     37.95    -22.71
    3    5   35     10.00    -12.27
    2    5   35     16.42    -49.30
    1    5   35     19.65     -5.34
    0    5   35      0.89     15.42
    5    6   35    -16.24    -10.64
    4    6   35     12.61     -0.49
    3    6   35    -26.42     13.05
    2    6   35    -11.65     -0.19
    1    6   35      9.09      3.12
    0    6   35     -5.62     15.77
    6    7   35     -2.80     11.33
    5    7   35    -11.98     11.15
    4    7   35     -7.35     44.35
    3    7   35     -8.49     24.27
    2    7   35    -16.66    -17.84
    1    7   35     21.75      2.25
    0    7   35     -4.81     60.33
    7    8   35      1.25     21.53
    6    8   35      2.30     -2.60
    5    8   35     -4.17      1.67
    4    8   35     -8.61     14.94
    3    8   35     -9.53     -0.52
    2    8   35     11.19     -1.24
    1    8   35    -27.29     52.44
    0    8   35      3.07      5.05
    8    9   35     -5.76     28.27
    7    9   35     -3.53     -9.69
    6    9   35    -12.67    -11.97
    5    9   35     -5.97     16.98
    4    9   35    -11.68    -10.08
    3    9   35     -2.27    -14.87
    2    9   35     21.84     10.21
    1    9   35     -0.55      7.72
    0    9   35     -9.84     37.50
    9   10   35    -25.71      9.04
    8   10   35      8.61      3.93
    7   10   35     -0.73    -11.04
    6   10   35      5.48      0.75
    5   10   35     -1.58      2.10
    4   10   35    -14.79     -6.46
    3   10   35     -5.51    -10.71
    2   10   35      4.02      5.55
    1   10   35     -1.25      0.57
    0   10   35     -2.65    -12.57
   10   11   35      1.79      8.55
    9   11   35      1.28    -13.64
    8   11   35     -7.06     -6.30
    7   11   35     -0.95     -7.77
    6   11   35     -8.75    -17.17
    5   11   35     -4.38     -4.03
    4   11   35      3.67     11.41
    3   11   35      1.39      0.19
    2   11   35    -17.26      5.51
    1   11   35     15.76     -6.75
    0   11   35     15.02    -19.41
   11   12   35     11.21     -7.22
   10   12   35     -7.71     -3.17
    9   12   35      3.05     -8.52
    8   12   35     16.27    -10.16
    7   12   35    -28.47      8.54
    6   12   35      4.82      8.56
    5   12   35     -5.30     12.04
    4   12   35     -0.29     19.84
    3   12   35     -5.57      9.18
    2   12   35     -9.91     -7.29
    1   12   35      5.57     19.50
    0   12   35     -1.94      6.59
   12   13   35     -2.14    -12.94
   11   13   35     -1.11     13.61
   10   13   35    -19.43     -0.69
    9   13   35      9.01      5.14
    8   13   35     -0.18     -4.02
    7   13   35      4.22     16.30
    6   13   35    -18.56      2.10
    5   13   35     15.78      7.95
    4   13   35      7.88     13.87
    3   13   35     -2.55     -8.24
    2   13   35    -13.14     11.03
    1   13   35    -11.90      7.84
    0   13   35     -2.29      7.45
   13   14   35     -5.43     -6.77
   12   14   35     -6.36     -7.32
   11   14   35    -14.18     -1.96
   10   14   35     -0.55      1.29
    9   14   35    -18.27     -8.61
    8   14   35      6.11      4.48
    7   14   35     -8.70     -6.43
    6   14   35     15.90      0.68
    5   14   35      0.10     -8.64
    4   14   35     -1.74     -4.60
    3   14   35    -12.41      8.31
    2   14   35     16.30      2.45
    1   14   35     10.79    -11.89
    0   14   35      0.65      6.13
   14   15   35     -1.26      6.14
   13   15   35     -8.07     -0.68
   12   15   35     -9.53      4.25
   11   15   35      0.37     -3.28
   10   15   35      8.70     -5.02
    9   15   35     -0.96     -9.37
    8   15   35      0.81     12.26
    7   15   35     -7.15      1.31
    6   15   35      5.68     -3.65
    5   15   35     -8.93     -0.54
    4   15   35     17.59      5.96
    3   15   35     -6.77    -16.77
    2   15   35     -1.89      9.73
    1   15   35      0.01      4.43
    0   15   35      2.02    -25.52
   12   16   35     -5.92     -2.41
   11   16   35      7.61     -8.81
   10   16   35      0.84      2.71
    9   16   35     12.53      2.44
    8   16   35     -7.14      2.36
    7   16   35     15.53      3.23
    6   16   35     -3.66      5.58
    5   16   35      8.97      4.57
    4   16   35      7.08      4.45
    3   16   35      2.21     24.09
    2   16   35     -8.03     -1.69
    1   16   35     11.28     11.94
    0   16   35     -1.11      2.32
   13   16   35      2.86     10.43
   12   17   35      1.05     10.49
   11   17   35      3.31    -13.08
   10   17   35     -2.72     -7.11
    9   17   35      3.81      6.64
    8   17   35      7.61      2.29
    7   17   35     -0.42     -3.80
    6   17   35     -0.68      2.34
    5   17   35      1.21     -1.82
    4   17   35     -1.24      8.64
    3   17   35     -4.65      7.49
    2   17   35      3.03      4.23
    1   17   35     -1.11     10.96
    0   17   35     -3.45      0.54
   10   18   35      0.75      0.85
    9   18   35     -9.31     -5.84
    8   18   35      2.01     -7.22
    7   18   35     -4.01     -2.41
    6   18   35      8.37     -4.36
    5   18   35     -0.98      2.02
    4   18   35     -0.21     -1.21
    3   18   35     -5.56      9.03
    2   18   35      5.86     -2.43
    1   18   35     -7.97      0.23
    0   18   35     -0.14     12.68
    8   19   35      5.14      2.49
    7   19   35      4.99      5.52
    6   19   35     -7.93      4.40
    5   19   35      6.97      5.96
    4   19   35     -1.36      5.87
    3   19   35     -3.86     -7.56
    2   19   35      3.05    -10.37
    1   19   35     -2.00     -1.83
    0   19   35     -1.20     -3.51
    6   20   35      3.46      5.11
    5   20   35      7.07     -4.13
    4   20   35      9.56      1.27
    3   20   35    -12.58      2.86
    2   20   35     -2.03      4.03
    1   20   35      0.70     -2.76
    0   20   35     10.92     -0.12
    0    0   36   -215.91     -2.43
    1    1   36    -29.84    -32.53
    0    1   36     22.91      1.22
    2    2   36     -9.59     41.99
    1    2   36     22.63     27.58
    0    2   36     55.76    -19.16
    3    3   36    163.73     -4.33
    2    3   36     -0.77    -53.19
    1    3   36    -13.76      8.61
    0    3   36     -1.99     -1.18
    4    4   36     39.02    -12.00
    3    4   36     20.56     49.37
    2    4   36     54.76    -22.67
    1    4   36      9.31     21.44
    0    4   36    -30.29     18.83
    5    5   36     25.41    -55.32
    4    5   36      7.01     -3.59
    3    5   36    -21.18    -40.70
    2    5   36     19.07     17.36
    1    5   36     22.49     12.54
    0    5   36      3.84     -3.93
    6    6   36    -17.70      4.99
    5    6   36     15.34     22.76
    4    6   36    -19.19     -7.18
    3    6   36    -22.82      8.44
    2    6   36     -4.54     58.53
    1    6   36     19.37    -21.30
    0    6   36     52.47      1.16
    7    7   36    -79.24     69.79
    6    7   36     -1.72      4.08
    5    7   36     -6.89     19.33
    4    7   36     -6.88     -7.95
    3    7   36     31.25      9.99
    2    7   36      0.35      8.28
    1    7   36     28.87     14.32
    0    7   36     -5.77      0.52
    8    8   36     12.90     36.56
    7    8   36     11.04     -8.07
    6    8   36    -26.04     12.53
    5    8   36    -12.92     -6.93
    4    8   36     12.30    -17.19
    3    8   36     14.72      5.69
    2    8   36    -25.20     13.61
    1    8   36    -10.88      3.64
    0    8   36     38.47      6.00
    9    9   36     -0.27    -37.22
    8    9   36    -14.72     -6.03
    7    9   36      8.37    -19.76
    6    9   36     17.03    -10.34
    5    9   36    -23.02    -11.25
    4    9   36      5.65     -8.79
    3    9   36      2.06    -18.39
    2    9   36     -7.43     -0.33
    1    9   36     14.91      4.46
    0    9   36     32.31     -4.19
   10   10   36    -10.78     -5.96
    9   10   36      8.00     -3.23
    8   10   36     -7.71    -17.56
    7   10   36      3.98     -2.75
    6   10   36     -9.15     -1.77
    5   10   36    -13.01      8.35
    4   10   36     -0.38     -7.43
    3   10   36     12.72      1.04
    2   10   36     23.45    -25.81
    1   10   36     -1.00     -4.13
    0   10   36      3.08     -2.43
   11   11   36     10.43     -2.73
   10   11   36      2.39      0.13
    9   11   36      5.80     13.84
    8   11   36      0.95    -11.76
    7   11   36    -30.61     -7.72
    6   11   36      3.32      3.60
    5   11   36     10.12     -6.01
    4   11   36      0.10     -4.62
    3   11   36    -12.28     -3.79
    2   11   36     -0.57     -2.04
    1   11   36     35.80      6.03
    0   11   36     14.81     -2.11
   12   12   36    -14.06      1.38
   11   12   36      9.50     -1.02
   10   12   36      7.52    -10.90
    9   12   36      1.41      8.94
    8   12   36     -9.25     -7.90
    7   12   36     -0.52     -2.96
    6   12   36    -16.03     27.78
    5   12   36      5.33      4.78
    4   12   36    -20.92     11.83
    3   12   36     -1.72      1.31
    2   12   36    -14.52     -0.07
    1   12   36      5.40      6.88
    0   12   36     20.42      4.56
   13   13   36     -6.90     -7.28
   12   13   36      2.95     -7.33
   11   13   36    -15.17      1.19
   10   13   36      3.85      6.08
    9   13   36      0.34     -3.83
    8   13   36     10.64     -2.60
    7   13   36     -0.16      2.74
    6   13   36      1.06      0.59
    5   13   36     -3.76     10.84
    4   13   36     -5.01      8.17
    3   13   36      3.83     -5.53
    2   13   36     -0.60      5.40
    1   13   36      7.56      4.28
    0   13   36      7.01      9.32
   14   14   36    -10.43     -8.11
   13   14   36      1.48      1.06
   12   14   36     -1.73     -0.59
   11   14   36     -1.56     -0.10
   10   14   36     -0.67      3.30
    9   14   36      7.18      5.63
    8   14   36     -2.21     13.93
    7   14   36      5.69     -3.44
    6   14   36    -12.61    -45.67
    5   14   36     -2.55      8.40
    4   14   36     -8.49     37.70
    3   14   36      6.13      5.62
    2   14   36     10.08    -43.21
    1   14   36      0.06     -4.11
    0   14   36      2.34     -1.09
   13   15   36     -2.05      4.32
   12   15   36      1.49      2.16
   11   15   36     -0.53      1.04
   10   15   36      6.11    -11.02
    9   15   36     12.49     -3.96
    8   15   36     -0.63     13.12
    7   15   36     -6.02     -3.10
    6   15   36     -0.99     -1.27
    5   15   36      1.01     -5.93
    4   15   36     -2.32      2.47
    3   15   36     -9.78     -0.51
    2   15   36      1.39     -5.00
    1   15   36      1.14     -9.67
    0   15   36     -9.42      7.35
   14   15   36      4.98      1.41
   12   16   36     -2.02     -1.87
   11   16   36      4.32      0.32
   10   16   36     12.73      4.62
    9   16   36     -2.97      7.02
    8   16   36      2.61     -5.30
    7   16   36     -3.00     -6.77
    6   16   36     -8.04    -13.62
    5   16   36     -0.66     -8.83
    4   16   36     -3.50      4.15
    3   16   36     -6.09      4.29
    2   16   36    -14.54    -11.82
    1   16   36      2.20     -0.09
    0   16   36     -2.58     -0.16
   12   17   36     -1.59     -0.81
   11   17   36     -2.04      8.05
   10   17   36     -0.29     11.03
    9   17   36      4.51     11.13
    8   17   36      6.42     -8.14
    7   17   36     -1.44     -0.06
    6   17   36     -9.58     -0.50
    5   17   36      6.25      0.05
    4   17   36     -3.23      8.11
    3   17   36      1.10     -3.19
    2   17   36      1.16      2.66
    1   17   36      2.93     -2.08
    0   17   36      9.10     -2.78
   10   18   36      3.92      4.08
    9   18   36     -3.97     -3.05
    8   18   36     -1.03      2.39
    7   18   36     12.20      1.55
    6   18   36      1.71     -3.89
    5   18   36     -5.62      3.71
    4   18   36     -3.39     -0.73
    3   18   36     17.58      9.16
    2   18   36      5.59     -0.85
    1   18   36      9.54     -7.67
    0   18   36     -5.17      2.41
    8   19   36      8.10      2.79
    7   19   36     -4.68     -5.75
    6   19   36     -5.91      0.54
    5   19   36     -6.90     12.20
    4   19   36     -1.11     10.42
    3   19   36      8.83     -5.76
    2   19   36     -4.44      9.53
    1   19   36      2.31     -2.46
    0   19   36     -4.68     -6.96
    5   20   36     -1.37    -11.94
    4   20   36     -3.97     -3.66
    3   20   36     -3.25     11.12
    2   20   36      5.26     -4.98
    1   20   36     -1.36      3.57
    0   20   36     -1.60     -0.25
    0    1   37    -23.04     19.54
    1    2   37      3.40     17.42
    0    2   37     14.79    -35.06
    2    3   37    -46.28     29.85
    1    3   37     12.22     15.06
    0    3   37     -7.96    -92.53
    3    4   37     10.56     20.14
    2    4   37     31.98     -6.79
    1    4   37      0.50      5.90
    0    4   37     -1.67      4.46
    4    5   37      5.59    -20.91
    3    5   37    -37.38      9.39
    2    5   37    -20.43    -78.53
    1    5   37     38.37      2.69
    0    5   37     -3.95    -61.92
    5    6   37    -11.88    -11.89
    4    6   37     23.27     -9.28
    3    6   37     29.97    -22.48
    2    6   37     -7.00     -8.42
    1    6   37     -9.96    -39.76
    0    6   37      8.99     20.57
    6    7   37     32.37    -29.87
    5    7   37    -10.12      7.70
    4    7   37     -9.62     12.68
    3    7   37     17.43      2.42
    2    7   37     22.74     12.70
    1    7   37     30.32    -15.76
    0    7   37      0.75    -12.60
    7    8   37     13.05    -21.59
    6    8   37     -7.52     13.50
    5    8   37     24.83     -7.44
    4    8   37      4.89     15.96
    3    8   37     27.01     11.92
    2    8   37      2.02     -7.91
    1    8   37     21.99      9.84
    0    8   37     -4.41      8.91
    8    9   37    -12.02    -16.54
    7    9   37     13.11     12.09
    6    9   37    -16.14     -2.29
    5    9   37     -5.52     -5.08
    4    9   37     -8.85     17.36
    3    9   37     -4.79      4.55
    2    9   37     -8.36    -11.99
    1    9   37     13.79     -4.91
    0    9   37      6.83    -15.64
    9   10   37     13.00     12.08
    8   10   37     -1.65     -8.37
    7   10   37     -1.21     13.00
    6   10   37      3.45    -12.14
    5   10   37      7.05     -8.29
    4   10   37     10.11     14.23
    3   10   37     -5.33     -9.16
    2   10   37     -0.82    -11.14
    1   10   37    -14.85    -12.34
    0   10   37     -5.75      7.66
   10   11   37      2.67      0.82
    9   11   37      5.17      2.55
    8   11   37     23.54      2.57
    7   11   37      0.95      8.56
    6   11   37      5.77      3.89
    5   11   37    -10.58     -3.66
    4   11   37     -3.19    -12.90
    3   11   37      2.02     -3.86
    2   11   37      6.60      4.26
    1   11   37      6.36     -4.64
    0   11   37     -2.26     11.61
   11   12   37    -11.43      8.04
   10   12   37      6.77     -0.31
    9   12   37    -12.94     -5.13
    8   12   37      7.77      4.41
    7   12   37     24.42    -27.06
    6   12   37     -5.68      2.10
    5   12   37    -12.24    -22.11
    4   12   37    -15.76      7.83
    3   12   37      4.65    -14.42
    2   12   37     15.94     -1.92
    1   12   37     -9.33     -0.30
    0   12   37     -1.87     -5.61
   12   13   37     -1.81      4.00
   11   13   37      0.12     -1.33
   10   13   37     -1.23    -10.96
    9   13   37      6.67     -6.55
    8   13   37    -11.27      5.46
    7   13   37      3.78      8.19
    6   13   37      2.28     -6.98
    5   13   37      8.12    -11.50
    4   13   37    -20.98    -19.70
    3   13   37     -0.17     24.39
    2   13   37     -2.45      6.87
    1   13   37     20.90      8.96
    0   13   37      1.66      4.96
   13   14   37      9.49     -0.06
   12   14   37     -7.70     -1.23
   11   14   37      6.01      4.55
   10   14   37      5.15     -6.03
    9   14   37      6.60      6.67
    8   14   37      3.33     -7.76
    7   14   37      4.55     -6.02
    6   14   37     -9.45    -11.70
    5   14   37    -11.38      1.03
    4   14   37      5.07     22.11
    3   14   37     25.16     -2.65
    2   14   37      6.31     -7.02
    1   14   37    -23.79      3.81
    0   14   37    -10.01     10.63
   13   15   37     -0.42     -0.22
   12   15   37      2.49      2.58
   11   15   37     -3.06     -0.31
   10   15   37     -6.44      3.36
    9   15   37      4.08     -1.11
    8   15   37      2.12     -9.83
    7   15   37      3.27    -13.07
    6   15   37      6.39     11.07
    5   15   37      7.80      6.41
    4   15   37    -17.44      0.56
    3   15   37     -6.27     13.23
    2   15   37     18.38    -14.50
    1   15   37      6.54      1.18
    0   15   37      0.27     21.91
   14   15   37      3.49     -8.48
   12   16   37      0.61      1.92
   11   16   37     -8.25      1.53
   10   16   37     -5.59     -3.07
    9   16   37     -1.38     -6.58
    8   16   37      1.49     -5.07
    7   16   37     -2.32     -4.96
    6   16   37      1.30    -11.37
    5   16   37     -7.79      2.69
    4   16   37     -2.89    -11.40
    3   16   37     -2.24    -21.24
    2   16   37      0.92      3.62
    1   16   37    -10.42    -13.24
    0   16   37     -9.98     -4.65
   13   16   37      3.66    -12.71
   11   17   37     -0.56      5.82
   10   17   37      0.58      1.23
    9   17   37      3.64     -3.59
    8   17   37    -10.74     -5.90
    7   17   37     -1.69     -2.12
    6   17   37    -15.78      0.46
    5   17   37     -0.57      7.91
    4   17   37     -4.16      1.73
    3   17   37     -1.72    -11.62
    2   17   37     -9.96     -2.07
    1   17   37      5.93     -3.83
    0   17   37      2.76      3.22
   10   18   37     -0.73      2.46
    9   18   37     -1.25      3.74
    8   18   37      4.44     10.83
    7   18   37     -0.91     -1.61
    6   18   37      0.15      8.64
    5   18   37     -1.93     -0.70
    4   18   37     -3.91      8.86
    3   18   37     -8.56     -2.99
    2   18   37      2.82      2.25
    1   18   37      4.00      0.37
    0   18   37     -4.32     -9.63
    8   19   37     -1.79     -3.69
    7   19   37     -4.46      3.94
    6   19   37      9.38     -4.88
    5   19   37     -4.87      3.18
    4   19   37      2.93     -3.73
    3   19   37     12.80      4.49
    2   19   37     -1.43      7.13
    1   19   37     -3.88     -1.70
    0   19   37      3.03     13.74
    5   20   37     -2.33     -1.01
    4   20   37    -10.94      6.84
    3   20   37     12.67     -2.57
    2   20   37      1.96    -13.65
    1   20   37      2.76      7.15
    0   20   37     -6.97      8.59
    0    0   38     31.33    -17.62
    1    1   38     69.63     21.94
    0    1   38     42.47     -7.97
    2    2   38    -14.00    -68.01
    1    2   38      6.85     12.61
    0    2   38    -32.28     24.69
    3    3   38   -118.23      3.93
    2    3   38     12.45     10.92
    1    3   38    -53.18    -30.78
    0    3   38     18.43     -3.66
    4    4   38     -7.14     31.05
    3    4   38    -40.46     -4.07
    2    4   38    -25.37     20.17
    1    4   38      9.76     36.59
    0    4   38     83.92    -10.49
    5    5   38    -24.36     58.95
    4    5   38     19.62      5.82
    3    5   38     39.64      4.87
    2    5   38     42.95      4.05
    1    5   38     11.50     -6.42
    0    5   38     -9.74     -1.10
    6    6   38     16.79    -26.58
    5    6   38     18.18      9.31
    4    6   38     16.30     45.31
    3    6   38     12.09     11.01
    2    6   38      0.35    -21.95
    1    6   38     29.53     -1.63
    0    6   38    -16.27      5.54
    7    7   38    -13.10    -44.88
    6    7   38     10.99      7.71
    5    7   38     45.53     27.43
    4    7   38     -2.97      3.32
    3    7   38    -38.12    -41.39
    2    7   38     17.42     14.96
    1    7   38    -44.90     10.18
    0    7   38     -9.74     -6.86
    8    8   38     30.18      6.19
    7    8   38    -12.67     -8.67
    6    8   38     14.67      1.20
    5    8   38     16.24      0.77
    4    8   38    -32.49     12.32
    3    8   38     -8.84     -9.55
    2    8   38    -11.34    -10.52
    1    8   38      4.93      6.49
    0    8   38    -39.91     -3.84
    9    9   38     36.40     37.90
    8    9   38      1.94     -2.29
    7    9   38      2.92      2.27
    6    9   38      7.17      0.98
    5    9   38     15.83     26.88
    4    9   38     -5.74     10.77
    3    9   38    -24.54     26.57
    2    9   38      0.81      1.53
    1    9   38    -26.46     -4.65
    0    9   38      5.25     -2.98
   10   10   38     -2.69      5.62
    9   10   38     -7.14     -3.35
    8   10   38      8.07      2.50
    7   10   38      1.96     10.11
    6   10   38      6.38     -3.00
    5   10   38     -4.22      8.20
    4   10   38    -10.03    -28.36
    3   10   38      9.79     -5.24
    2   10   38      2.48     31.48
    1   10   38      4.83      9.91
    0   10   38     15.30      2.58
   11   11   38    -13.55      0.42
   10   11   38     -6.37     -9.53
    9   11   38      9.38     -3.55
    8   11   38     -3.18     15.99
    7   11   38      7.94     -7.69
    6   11   38     -6.69      4.48
    5   11   38     -8.68    -15.33
    4   11   38      2.66     -5.48
    3   11   38     30.15     -3.26
    2   11   38     -9.49      8.38
    1   11   38      2.63      3.88
    0   11   38      5.63      4.09
   12   12   38     12.54    -12.45
   11   12   38    -12.54      1.99
   10   12   38      0.16     11.59
    9   12   38     -3.02     -6.05
    8   12   38      6.54     -2.71
    7   12   38     -5.96     -3.77
    6   12   38     23.26    -11.16
    5   12   38     20.64    -11.31
    4   12   38     10.71    -10.92
    3   12   38      8.04     11.54
    2   12   38     20.40      6.21
    1   12   38    -10.37      4.76
    0   12   38    -22.56     -7.19
   13   13   38     20.42      5.03
   12   13   38      5.75     11.71
   11   13   38     -4.48     -3.41
   10   13   38     -5.97    -17.66
    9   13   38      7.53      3.92
    8   13   38     11.59      6.54
    7   13   38     -4.21     -3.79
    6   13   38     -3.20      3.81
    5   13   38     12.13    -24.63
    4   13   38     -1.23     -9.57
    3   13   38     -6.92      6.54
    2   13   38      1.33      4.48
    1   13   38      0.90     -8.43
    0   13   38      2.27     -4.17
   14   14   38      3.71     10.39
   13   14   38     -2.28      7.56
   12   14   38     -8.69     -9.18
   11   14   38      0.10     -1.29
   10   14   38     -1.23      6.90
    9   14   38      5.05     -1.82
    8   14   38    -18.34     -6.33
    7   14   38     -7.72      2.41
    6   14   38     -3.40     12.86
    5   14   38     -9.42      1.29
    4   14   38     -7.78    -33.20
    3   14   38     -2.79      3.08
    2   14   38      0.49     34.58
    1   14   38    -11.47      1.63
    0   14   38      1.40     -1.70
   13   15   38      1.97      1.37
   12   15   38     -0.64      2.87
   11   15   38     -6.31      2.88
   10   15   38     -4.41      6.26
    9   15   38     -0.26      0.68
    8   15   38     -0.53     -9.79
    7   15   38     -1.58      1.69
    6   15   38     -6.31      7.45
    5   15   38      0.76     -8.28
    4   15   38      5.70     -0.13
    3   15   38      8.02      7.93
    2   15   38    -13.66      7.26
    1   15   38      4.48      1.33
    0   15   38     11.50    -18.90
   14   15   38     -3.53      0.18
   11   16   38     -0.39     -0.66
   10   16   38     -3.67     -0.11
    9   16   38     -0.23     -0.07
    8   16   38     -0.75      5.88
    7   16   38      2.01      6.28
    6   16   38      2.89      4.98
    5   16   38     -3.34     -5.76
    4   16   38      7.09     -4.94
    3   16   38     15.45    -15.80
    2   16   38     21.65     14.03
    1   16   38     -2.29    -12.71
    0   16   38      8.38      0.71
   12   16   38      0.07      2.54
   11   17   38      1.77     -5.35
   10   17   38     -3.76    -10.49
    9   17   38      5.64     -2.07
    8   17   38     -2.20      9.33
    7   17   38     -3.23      4.59
    6   17   38     -1.56     -1.16
    5   17   38      2.82      4.89
    4   17   38     10.07    -10.40
    3   17   38     -0.74     -1.79
    2   17   38      4.57     -6.72
    1   17   38     -1.85     12.09
    0   17   38      5.13     -2.90
   10   18   38     -4.29     -2.19
    9   18   38      1.58      2.12
    8   18   38      1.32      1.17
    7   18   38    -11.14     -3.71
    6   18   38      1.28      0.28
    5   18   38      0.16     -7.50
    4   18   38      4.59     -3.76
    3   18   38    -11.18     -2.36
    2   18   38     -1.40     -2.98
    1   18   38     -5.60      7.85
    0   18   38      3.84     -6.15
    8   19   38     -1.22     -2.44
    7   19   38      0.06    -10.36
    6   19   38      2.30     10.80
    5   19   38      6.01     -9.57
    4   19   38     -6.14     -1.50
    3   19   38     -1.29     -9.13
    2   19   38     -6.67     -7.36
    1   19   38     -0.46     -0.28
    0   19   38     -2.67      2.90
    5   20   38      0.24     10.28
    4   20   38      2.24     -3.42
    3   20   38     -3.34     -5.18
    2   20   38     -5.55      2.22
    1   20   38      3.83    -14.56
    0   20   38      2.71      2.49
    0    1   39     13.40    -47.39
    1    2   39     -3.08    -19.56
    0    2   39      2.88     49.40
    2    3   39     -8.30     22.32
    1    3   39     11.64     36.37
    0    3   39    -18.99     42.98
    3    4   39     37.66     23.62
    2    4   39     33.92     -6.24
    1    4   39      9.39    -18.34
    0    4   39      2.25      2.56
    4    5   39     -4.01    -41.66
    3    5   39     -2.54      7.00
    2    5   39     18.56     62.80
    1    5   39      8.38     -5.70
    0    5   39      0.76     46.72
    5    6   39    -30.82    -15.79
    4    6   39      8.56    -13.19
    3    6   39     -9.74      5.12
    2    6   39      0.51      2.65
    1    6   39      9.54     -8.84
    0    6   39     -3.72     17.73
    6    7   39    -12.37     28.52
    5    7   39     -0.82     -0.90
    4    7   39    -45.89     -7.38
    3    7   39     11.44     -6.43
    2    7   39    -51.89    -45.29
    1    7   39     18.05     -3.13
    0    7   39    -11.03    -20.82
    7    8   39     10.21     26.50
    6    8   39    -17.07      2.32
    5    8   39    -21.26     -6.73
    4    8   39      7.66    -12.17
    3    8   39    -12.34    -18.22
    2    8   39      7.17      9.71
    1    8   39     -7.90     -5.14
    0    8   39      1.38     -7.29
    8    9   39     14.82      4.97
    7    9   39      2.26     -4.32
    6    9   39     20.88     -5.55
    5    9   39    -13.13      2.21
    4    9   39     31.87      5.27
    3    9   39      5.78    -12.22
    2    9   39     34.50      1.41
    1    9   39    -12.86      5.74
    0    9   39     -2.40     -9.51
    9   10   39    -15.82    -16.88
    8   10   39      7.58     -2.53
    7   10   39     27.11     -8.33
    6   10   39      2.48     10.89
    5   10   39     14.26     12.47
    4   10   39     12.31    -16.01
    3   10   39    -19.05      6.16
    2   10   39     12.82     -0.18
    1   10   39     23.63      0.22
    0   10   39      6.57    -21.77
   10   11   39     -8.43     -3.65
    9   11   39      4.22     -4.60
    8   11   39      5.13    -10.43
    7   11   39     -2.63     -6.97
    6   11   39    -25.95     -1.18
    5   11   39     12.79      1.50
    4   11   39      5.92      0.51
    3   11   39     16.15     -1.27
    2   11   39    -15.49     -7.16
    1   11   39     -0.52     -7.35
    0   11   39      3.19    -13.60
   11   12   39      3.26      3.44
   10   12   39      3.62     -1.17
    9   12   39      4.04      0.42
    8   12   39      1.17     -9.56
    7   12   39    -19.57      8.40
    6   12   39      4.71      2.66
    5   12   39      8.87     10.70
    4   12   39      9.24      8.05
    3   12   39     -0.70     15.70
    2   12   39     -6.84     -4.27
    1   12   39     14.63    -11.91
    0   12   39      3.17     12.46
   12   13   39      3.85     -3.68
   11   13   39     -4.35      1.04
   10   13   39     -5.96      9.30
    9   13   39      7.79      4.61
    8   13   39     11.56     -3.23
    7   13   39      6.69     -7.95
    6   13   39    -19.73     -1.20
    5   13   39     -6.01     15.44
    4   13   39      4.35      8.87
    3   13   39     -1.80      5.86
    2   13   39      1.57    -18.11
    1   13   39    -11.24     -6.78
    0   13   39      4.07    -14.78
   13   14   39    -13.13      3.74
   12   14   39      7.82     -1.11
   11   14   39     -5.24     -0.77
   10   14   39     -4.44      6.99
    9   14   39     -6.40      1.12
    8   14   39      4.91      4.88
    7   14   39     -5.69      4.22
    6   14   39      0.19      7.94
    5   14   39      4.35     12.84
    4   14   39      4.21    -14.41
    3   14   39    -14.97     -6.46
    2   14   39     -6.35     17.07
    1   14   39     -4.37     -9.23
    0   14   39      1.97      6.64
   13   15   39     -2.01     -6.84
   12   15   39      0.89      9.37
   11   15   39     -0.26     -3.17
   10   15   39     -3.06     -3.73
    9   15   39     -2.72     -2.51
    8   15   39      7.75     -7.33
    7   15   39     -6.43      3.27
    6   15   39     -9.38    -16.53
    5   15   39     -5.67      3.78
    4   15   39     22.64     -4.37
    3   15   39     -2.20      6.78
    2   15   39    -23.73      4.21
    1   15   39      9.53      1.17
    0   15   39      3.78    -16.89
   12   16   39      2.48     -9.25
   11   16   39      2.20     -3.05
   10   16   39      0.38     -5.81
    9   16   39      0.04      3.38
    8   16   39      8.20      1.16
    7   16   39     -4.24     -2.69
    6   16   39    -15.15      0.79
    5   16   39     -5.17    -12.33
    4   16   39     -1.08     14.54
    3   16   39      7.22      6.90
    2   16   39      0.29     -8.28
    1   16   39     -7.08     10.57
    0   16   39      4.14    -13.82
   11   17   39      3.63     -5.00
   10   17   39     -3.91      0.32
    9   17   39     -1.88      3.68
    8   17   39      6.80     -4.53
    7   17   39      8.47      0.29
    6   17   39      0.71     -8.82
    5   17   39      7.37     -1.80
    4   17   39      4.61     -5.30
    3   17   39      7.73      0.92
    2   17   39     -2.71     -2.14
    1   17   39     -3.69    -12.40
    0   17   39     -1.59     -1.88
   10   18   39      7.86      0.50
    9   18   39      6.82     -7.04
    8   18   39     -5.52      1.73
    7   18   39    -11.52     -0.86
    6   18   39     -9.21     -6.12
    5   18   39     -5.81      0.20
    4   18   39      6.08      0.84
    3   18   39     -3.06      0.05
    2   18   39      8.31    -11.61
    1   18   39      2.47     -1.78
    0   18   39      0.78      0.84
    8   19   39      3.65      1.56
    7   19   39      8.11     -0.06
    6   19   39    -13.52      5.73
    5   19   39      4.63      0.41
    4   19   39      3.13      1.63
    3   19   39      1.48      8.66
    2   19   39     -4.15     -2.79
    1   19   39     -4.44     10.18
    0   19   39     -1.02    -15.58
    5   20   39      3.58      4.58
    4   20   39     11.99     -2.95
    3   20   39     -7.70      5.08
    2   20   39      3.92      9.93
    1   20   39      2.20     -4.99
    0   20   39      1.36     -5.39
    0    0   40    -61.88      2.41
    1    1   40    -51.22    -15.12
    0    1   40      7.16     13.62
    2    2   40    -89.49     -2.94
    1    2   40     -4.29     12.65
    0    2   40    -39.95    -18.72
    3    3   40    -43.47     42.52
    2    3   40     12.92    -29.76
    1    3   40    -64.94     48.50
    0    3   40      9.36      6.16
    4    4   40      2.89     -6.10
    3    4   40     10.65     15.56
    2    4   40    -59.96    -53.06
    1    4   40      2.33     -3.49
    0    4   40      4.05      0.63
    5    5   40     26.21    -48.78
    4    5   40     -1.99     -3.77
    3    5   40    -52.22    -16.26
    2    5   40     13.88      1.01
    1    5   40    -25.39    -11.37
    0    5   40     -0.06      4.01
    6    6   40    -16.92     -3.53
    5    6   40     11.21     19.41
    4    6   40     -7.81    -29.81
    3    6   40      8.20     -0.08
    2    6   40    -22.81      8.76
    1    6   40     -2.78    -20.43
    0    6   40     52.64     -4.07
    7    7   40     23.24     44.64
    6    7   40      6.58      0.34
    5    7   40    -47.10    -12.54
    4    7   40     -1.65     -7.66
    3    7   40      9.62     27.68
    2    7   40     -9.98     -4.81
    1    7   40     30.63    -26.93
    0    7   40      3.07      1.42
    8    8   40    -16.64     43.03
    7    8   40     -5.49      2.67
    6    8   40    -17.10    -10.99
    5    8   40    -14.75    -11.00
    4    8   40     -8.61      1.23
    3    8   40     13.51      4.31
    2    8   40     -9.68    -15.56
    1    8   40    -13.60     -1.18
    0    8   40     16.23      1.45
    9    9   40    -42.83      3.74
    8    9   40    -18.31    -13.31
    7    9   40    -30.08     -4.47
    6    9   40     -3.54      5.67
    5    9   40      2.64     -3.79
    4    9   40     13.78     11.38
    3    9   40    -14.59    -21.70
    2    9   40     -5.48      6.27
    1    9   40      9.15     22.23
    0    9   40     -2.04     -1.43
   10   10   40     -6.61    -28.34
    9   10   40      9.64    -11.81
    8   10   40    -12.99     17.30
    7   10   40      5.21     -0.33
    6   10   40    -13.88     -8.20
    5   10   40     15.04     -7.25
    4   10   40     -1.47     16.40
    3   10   40     -0.98     10.43
    2   10   40      1.59    -26.45
    1   10   40      2.03     -8.16
    0   10   40      4.45     -6.54
   11   11   40      4.38    -17.94
   10   11   40     -0.37     10.65
    9   11   40     -6.46      7.49
    8   11   40     -2.45    -12.51
    7   11   40     -1.31      3.46
    6   11   40     12.46     -4.01
    5   11   40      6.32     13.08
    4   11   40     12.17      3.53
    3   11   40     -7.35     -6.30
    2   11   40      6.40     -6.54
    1   11   40      6.33    -10.37
    0   11   40      5.99     -9.23
   11   12   40     10.11      6.71
   10   12   40     10.93     -6.64
    9   12   40     -5.84      1.84
    8   12   40     -5.24     10.11
    7   12   40    -11.48      7.22
    6   12   40    -10.94    -11.91
    5   12   40     -7.58     -0.49
    4   12   40    -19.91     -2.36
    3   12   40     -0.36      3.98
    2   12   40     -9.91    -11.02
    1   12   40      7.88     -3.87
    0   12   40      2.77     -1.02
   12   12   40     -0.80     11.47
   13   13   40    -10.16     -0.14
   12   13   40     -1.54      4.55
   11   13   40      3.30      2.02
   10   13   40      9.82     11.23
    9   13   40     -2.76      0.22
    8   13   40     -8.19    -10.45
    7   13   40      8.86      8.87
    6   13   40      0.56     16.64
    5   13   40    -20.84      6.85
    4   13   40      0.79      6.15
    3   13   40      4.58    -11.35
    2   13   40    -13.49     -6.63
    1   13   40     -2.76      1.59
    0   13   40      4.19     -2.23
   14   14   40      1.64     -6.25
   13   14   40     13.38      0.84
   12   14   40      6.08      4.44
   11   14   40      7.97     -3.55
   10   14   40      5.28     -1.15
    9   14   40     -5.14     -1.22
    8   14   40      4.75     12.39
    7   14   40      4.92      4.84
    6   14   40      0.50     -0.34
    5   14   40     18.23      1.67
    4   14   40      7.01      5.11
    3   14   40    -14.31     11.30
    2   14   40      4.97    -17.57
    1   14   40     -1.43     -1.31
    0   14   40     -4.15     -0.30
   13   15   40      5.08      0.73
   12   15   40      3.83      5.92
   11   15   40      2.75     -5.84
   10   15   40      4.69     -5.84
    9   15   40      0.35     -1.73
    8   15   40      2.45      5.93
    7   15   40     -2.73     10.67
    6   15   40      9.45     -8.24
    5   15   40      2.69     14.85
    4   15   40     -1.39     -4.64
    3   15   40      0.99    -18.79
    2   15   40     10.93     11.34
    1   15   40      4.13     17.13
    0   15   40      6.95      8.27
   11   16   40     -1.15      4.44
   10   16   40     -5.18      0.98
    9   16   40     -1.69     -1.42
    8   16   40      1.43     -1.47
    7   16   40     -3.76     -5.36
    6   16   40     -0.53     -6.39
    5   16   40     -3.43     13.58
    4   16   40     -4.42      8.87
    3   16   40     -8.63      0.57
    2   16   40    -14.92      3.43
    1   16   40      3.14      2.53
    0   16   40    -17.23      3.00
   12   16   40      5.17     -6.74
   11   17   40     -8.60     -0.01
   10   17   40      1.81     -3.53
    9   17   40     -4.13      1.07
    8   17   40     -3.25     -4.95
    7   17   40     -4.86     -3.22
    6   17   40      4.05     -2.07
    5   17   40     -2.32     -6.03
    4   17   40     -5.36      5.66
    3   17   40     -3.71      8.73
    2   17   40     -9.63      3.92
    1   17   40      8.23    -10.53
    0   17   40      1.59     -0.04
    9   18   40      0.94     -7.39
    8   18   40     -3.09     -0.57
    7   18   40      5.07      7.95
    6   18   40     -4.45     -1.68
    5   18   40      7.92      4.79
    4   18   40     -0.52      1.80
    3   18   40     -0.17      8.48
    2   18   40      0.36      2.40
    1   18   40      0.11     -2.35
    0   18   40      4.52      9.16
    7   19   40     -1.23      7.01
    6   19   40    -10.85     -4.05
    5   19   40     -0.84     -9.62
    4   19   40     10.17      4.07
    3   19   40      0.81     16.89
    2   19   40     -6.71     -1.63
    1   19   40      1.32     -1.27
    0   19   40     -2.91     -8.10
    4   20   40     -0.38      2.95
    3   20   40     -0.36      2.55
    2   20   40     -4.97     -2.78
    1   20   40    -11.76     11.95
    0    1   41     -4.54    -66.75
    1    2   41     84.60     -2.14
    0    2   41      8.95     15.69
    2    3   41     14.48     22.00
    1    3   41     -5.80    -34.08
    0    3   41     12.09     10.37
    3    4   41    -51.89     -6.25
    2    4   41    -20.48    -21.22
    1    4   41    -31.28    -27.02
    0    4   41     -2.21    -14.29
    4    5   41    -13.21    -17.57
    3    5   41      3.58      5.15
    2    5   41     19.25    -53.85
    1    5   41    -16.88     -2.52
    0    5   41      2.76      3.82
    5    6   41     34.01    -12.05
    4    6   41     -0.70     16.94
    3    6   41     -7.03      6.33
    2    6   41     13.93      5.01
    1    6   41     -1.82     -3.76
    0    6   41      2.14     14.41
    6    7   41      4.37      6.76
    5    7   41     15.61    -11.53
    4    7   41     14.94     26.86
    3    7   41     22.40     10.39
    2    7   41    -11.30     41.12
    1    7   41     15.01      3.40
    0    7   41      3.19     22.97
    7    8   41    -26.61      9.35
    6    8   41    -11.14      4.28
    5    8   41     -3.28      4.12
    4    8   41     22.40     20.20
    3    8   41    -21.76      3.25
    2    8   41      6.06     -1.72
    1    8   41     -9.60      8.23
    0    8   41      0.17     -4.90
    8    9   41    -11.76      1.15
    7    9   41     16.62     -1.46
    6    9   41    -12.68      8.52
    5    9   41     10.73     23.54
    4    9   41    -23.45    -20.24
    3    9   41     -3.53     -4.63
    2    9   41     -5.81     -3.23
    1    9   41     -0.22     19.35
    0    9   41     -3.49      9.50
    9   10   41     18.50      1.64
    8   10   41     16.72      2.21
    7   10   41     -8.86     11.00
    6   10   41      0.85     -0.34
    5   10   41    -25.17     -0.82
    4   10   41     -6.41     -4.16
    3   10   41     30.26     22.76
    2   10   41     15.82      4.87
    1   10   41    -20.01    -11.45
    0   10   41     -7.26      3.24
   10   11   41     20.52      1.32
    9   11   41      9.10      8.33
    8   11   41     -5.91      7.36
    7   11   41     -1.59      6.48
    6   11   41     32.78      4.03
    5   11   41     -2.02     -1.88
    4   11   41      4.16     12.22
    3   11   41     16.61      0.41
    2   11   41    -10.45     20.53
    1   11   41     -5.60      3.83
    0   11   41     -2.18     33.05
   11   12   41     -1.44      0.70
   10   12   41    -11.30      2.81
    9   12   41      5.37     -0.46
    8   12   41      3.38      0.97
    7   12   41     16.53     -4.33
    6   12   41      8.07     15.28
    5   12   41    -19.32      3.08
    4   12   41      7.36     -9.54
    3   12   41     13.48    -10.98
    2   12   41     -5.33      7.29
    1   12   41    -21.79     25.44
    0   12   41     -0.17      5.38
   12   13   41      0.40      0.66
   11   13   41     -2.67     -0.03
   10   13   41     -5.59     -4.31
    9   13   41      4.35    -15.55
    8   13   41     -7.33     -1.29
    7   13   41      0.48      9.44
    6   13   41    -14.75    -10.57
    5   13   41     -1.71     -3.05
    4   13   41      8.67     -5.37
    3   13   41     -8.17      4.59
    2   13   41      6.65      2.15
    1   13   41     11.19     -4.95
    0   13   41     -0.47     -0.71
   13   14   41      7.35     -0.49
   12   14   41     -4.30      3.56
   11   14   41     -0.27     -7.16
   10   14   41      8.70     -3.62
    9   14   41      1.43     -4.85
    8   14   41      1.69     11.29
    7   14   41     -0.29     -6.40
    6   14   41     -7.88      3.62
    5   14   41     -3.60     -5.05
    4   14   41      1.62      0.00
    3   14   41     16.31      7.14
    2   14   41      0.57    -17.27
    1   14   41    -14.47     -0.11
    0   14   41     -3.77      6.08
   12   15   41      2.28    -10.05
   11   15   41      2.09     11.27
   10   15   41      2.10     -3.29
    9   15   41      0.22      3.67
    8   15   41      1.51      9.27
    7   15   41      5.40      1.12
    6   15   41      1.48      7.52
    5   15   41     10.46     -3.32
    4   15   41    -10.40     18.86
    3   15   41     -2.52     -1.94
    2   15   41     18.62     -1.03
    1   15   41    -11.17     -8.90
    0   15   41     -5.30     14.96
   13   15   41     -2.69      6.27
   11   16   41      3.20      0.64
   10   16   41      3.37     -3.09
    9   16   41      7.04      2.39
    8   16   41      3.72     -9.03
    7   16   41     -8.41      6.01
    6   16   41      5.89     -2.00
    5   16   41      1.90      7.92
    4   16   41     -3.75     -8.40
    3   16   41      8.02      0.61
    2   16   41     -9.75     15.51
    1   16   41      3.69      0.47
    0   16   41      0.20      1.85
   12   16   41    -11.02     11.93
   11   17   41     -5.98      1.19
   10   17   41      1.51    -14.07
    9   17   41      4.35      5.43
    8   17   41     -7.38      1.57
    7   17   41     -1.76     -1.98
    6   17   41     -6.26      2.64
    5   17   41     -5.16      1.34
    4   17   41     -0.70      8.37
    3   17   41     -9.68     -8.88
    2   17   41     -8.04      2.02
    1   17   41     -2.37     12.24
    0   17   41      2.16      7.14
    9   18   41     -2.96     -2.42
    8   18   41      5.55      0.29
    7   18   41      5.44     -3.16
    6   18   41      7.75     11.03
    5   18   41     -0.83     -1.34
    4   18   41      0.62      2.48
    3   18   41     -0.92     -4.78
    2   18   41      1.21     14.56
    1   18   41     -4.48      2.18
    0   18   41     -0.34     -7.65
    7   19   41      2.26     -7.29
    6   19   41      6.73     -9.61
    5   19   41      1.32     13.26
    4   19   41     -2.53     -1.89
    3   19   41      0.82     -7.02
    2   19   41      7.05     -6.74
    1   19   41      3.85     -9.52
    0   19   41      0.00     10.79
    4   20   41     -6.26      1.14
    3   20   41      3.59     -6.63
    2   20   41     -0.23    -11.06
    1   20   41      2.74     -3.61
    0   20   41     -5.05     12.19
    0    0   42     62.72    -11.73
    1    1   42    -55.97     65.92
    0    1   42     17.97     -6.55
    2    2   42     10.05    -44.12
    1    2   42      2.07     -0.65
    0    2   42    -56.83      1.31
    3    3   42     -0.02    -15.23
    2    3   42     25.69    -35.52
    1    3   42     43.08    -11.03
    0    3   42      1.31      1.08
    4    4   42     20.18     -8.28
    3    4   42      4.62     -4.71
    2    4   42     32.67     47.47
    1    4   42     16.79    -11.14
    0    4   42    -43.66     -3.60
    5    5   42     -3.36     27.78
    4    5   42     20.03    -20.26
    3    5   42     68.67     17.24
    2    5   42     -3.70     11.29
    1    5   42     42.08     -3.79
    0    5   42      5.77     -2.61
    6    6   42     26.07    -71.67
    5    6   42      7.52     13.11
    4    6   42     35.21     29.14
    3    6   42      4.71      9.59
    2    6   42    -11.93    -20.97
    1    6   42     -5.94    -33.08
    0    6   42     62.66     -0.99
    7    7   42    -24.01      3.65
    6    7   42     -5.25      8.76
    5    7   42     23.88     12.65
    4    7   42     -3.95      8.47
    3    7   42     -9.04    -16.83
    2    7   42     -3.05     -5.46
    1    7   42      0.50     53.37
    0    7   42     12.63      7.58
    8    8   42      1.80     13.33
    7    8   42     -5.64     -4.78
    6    8   42    -22.69     32.92
    5    8   42      7.95     -3.87
    4    8   42     22.17     18.93
    3    8   42      2.99      0.30
    2    8   42    -26.05      8.96
    1    8   42      9.11      2.64
    0    8   42    -25.32      4.42
    9    9   42      3.64     -3.66
    8    9   42     -5.86      8.65
    7    9   42      4.70    -10.09
    6    9   42     -7.24     -2.38
    5    9   42    -15.33    -11.51
    4    9   42      6.12      3.06
    3    9   42    -10.82     20.78
    2    9   42      6.30    -35.39
    1    9   42     -6.49    -22.11
    0    9   42     11.13      6.96
   10   10   42     -0.55     15.10
    9   10   42    -13.43     -6.49
    8   10   42     -7.14    -28.21
    7   10   42      5.12     -6.20
    6   10   42     -9.68      1.14
    5   10   42      5.15     14.04
    4   10   42     -4.92    -15.31
    3   10   42      4.70    -14.85
    2   10   42     12.20     19.69
    1   10   42     14.54    -10.78
    0   10   42     14.40     -0.37
   11   11   42     -5.49     -7.33
   10   11   42      1.09     -4.46
    9   11   42     -3.89      0.52
    8   11   42     -0.25     -1.97
    7   11   42     -2.89     11.02
    6   11   42      3.94     -0.66
    5   11   42     -2.95      5.34
    4   11   42     24.30      2.62
    3   11   42    -10.51     -3.91
    2   11   42     -0.78      7.63
    1   11   42     20.46    -12.21
    0   11   42     10.83      5.04
   12   12   42    -14.81      7.46
   11   12   42     -8.08     -0.28
   10   12   42      0.41      2.96
    9   12   42     -7.05      1.55
    8   12   42     -0.13     -0.68
    7   12   42      9.28     -1.07
    6   12   42     -0.05     12.29
    5   12   42     -1.41     -3.13
    4   12   42     16.15     -2.09
    3   12   42      5.32      2.58
    2   12   42     14.74     15.87
    1   12   42      0.14     -1.91
    0   12   42     16.35      1.48
   13   13   42      3.40      6.28
   12   13   42     -9.00      2.42
   11   13   42     -5.52     -4.85
   10   13   42    -14.83     -1.40
    9   13   42    -10.89     -1.79
    8   13   42      0.33      3.47
    7   13   42    -12.91    -17.67
    6   13   42    -10.39      2.15
    5   13   42      9.56      6.71
    4   13   42     -5.35     10.53
    3   13   42      7.99     -0.92
    2   13   42    -15.87    -10.71
    1   13   42      1.04     -4.18
    0   13   42    -17.21      4.40
   13   14   42     -1.59     -5.92
   12   14   42     -6.72     -0.73
   11   14   42      1.78      1.79
   10   14   42    -10.16    -12.16
    9   14   42     -4.11      1.53
    8   14   42      1.12     -3.84
    7   14   42      0.27    -10.12
    6   14   42     12.43    -13.04
    5   14   42    -17.00      3.74
    4   14   42     -2.94     12.82
    3   14   42      0.51      5.84
    2   14   42      3.95     -7.82
    1   14   42    -13.39     -1.22
    0   14   42     17.77      0.76
   12   15   42      1.79      3.24
   11   15   42     -5.21      6.13
   10   15   42      7.95     -4.06
    9   15   42      7.56     -0.36
    8   15   42      2.09     -7.00
    7   15   42     -8.12     -4.60
    6   15   42     -5.35     -8.50
    5   15   42     -3.52     -0.55
    4   15   42      9.16     -4.40
    3   15   42     -0.94     16.92
    2   15   42     -8.91      1.10
    1   15   42      3.63    -24.35
    0   15   42    -15.33      4.78
   13   15   42    -13.45     -6.73
   11   16   42     -3.20     -4.76
   10   16   42      6.80      2.80
    9   16   42      5.48     -2.80
    8   16   42      4.22      2.66
    7   16   42      1.55      2.62
    6   16   42      0.97      6.01
    5   16   42     11.55     -6.23
    4   16   42      3.83      0.96
    3   16   42      4.44      3.42
    2   16   42      7.10    -10.19
    1   16   42     -5.41    -12.60
    0   16   42      6.09     -2.27
   12   16   42     -0.67     10.54
   11   17   42      4.74      0.78
   10   17   42     -5.40      9.02
    9   17   42      8.09     -4.97
    8   17   42      6.03      5.40
    7   17   42     -0.52     -1.92
    6   17   42      0.03     -4.57
    5   17   42      8.25     -9.67
    4   17   42      2.52      0.46
    3   17   42     -2.99     -8.51
    2   17   42     -0.48     -2.21
    1   17   42     -9.31      5.11
    0   17   42      7.81      3.12
    9   18   42     -3.11      5.03
    8   18   42      4.17     -7.40
    7   18   42      0.99     -2.01
    6   18   42      3.08      7.62
    5   18   42    -11.66      7.20
    4   18   42      3.04     -9.63
    3   18   42     -2.10     -5.09
    2   18   42     -3.27     -8.61
    1   18   42     -4.83     -0.42
    0   18   42      2.00     -4.86
    7   19   42      2.37     -6.63
    6   19   42      4.63     -0.98
    5   19   42     -0.46      5.12
    4   19   42     -5.31      0.08
    3   19   42      1.29     -9.23
    2   19   42      7.72      3.14
    1   19   42     -3.03     -3.45
    0   19   42      2.84      2.52
    3   20   42     -6.62     -7.44
    2   20   42      5.56      5.18
    1   20   42      9.65    -10.09
    0   20   42      1.37      2.70
    0    1   43     -6.86    119.50
    1    2   43    -28.37     70.80
    0    2   43     -3.22    -30.36
    2    3   43     11.15     52.82
    1    3   43     32.09     -3.91
    0    3   43      1.14    -56.40
    3    4   43      3.67      2.90
    2    4   43     10.41     12.27
    1    4   43    -17.72     32.09
    0    4   43     -5.08      5.90
    4    5   43     -1.16    -20.76
    3    5   43    -14.29     25.93
    2    5   43     -8.26     24.84
    1    5   43      7.45     -6.90
    0    5   43     -0.16     10.40
    5    6   43    -37.14     -8.00
    4    6   43     -2.45      1.95
    3    6   43      8.39     -7.87
    2    6   43      3.94    -17.19
    1    6   43     -6.53    -16.06
    0    6   43      0.00     14.61
    6    7   43     -6.18    -22.37
    5    7   43      7.20    -28.97
    4    7   43    -27.70      7.74
    3    7   43      0.09     -4.05
    2    7   43     41.93    -26.91
    1    7   43    -12.12     -0.94
    0    7   43     -2.62    -36.04
    7    8   43      8.41     11.67
    6    8   43      6.72     -4.35
    5    8   43     35.49    -17.79
    4    8   43      0.20    -11.41
    3    8   43    -30.20      2.29
    2    8   43     18.10     11.19
    1    8   43     17.04     -6.11
    0    8   43      2.02     -4.98
    8    9   43     35.26     10.85
    7    9   43      8.50     -1.50
    6    9   43     -2.24     12.60
    5    9   43      4.44      3.39
    4    9   43      3.81     -1.12
    3    9   43      4.07      5.02
    2    9   43     -1.84    -17.29
    1    9   43     -1.22     -4.50
    0    9   43      1.51    -10.98
    9   10   43     -1.73    -13.01
    8   10   43    -19.60      8.88
    7   10   43     -3.25      1.57
    6   10   43      3.77    -12.77
    5   10   43     20.87     16.83
    4   10   43     -0.01     -9.95
    3   10   43    -17.44      0.81
    2   10   43     -1.22     13.44
    1   10   43     36.57     -8.29
    0   10   43      8.67     -9.62
   10   11   43    -21.90      0.27
    9   11   43      6.86     -5.80
    8   11   43      2.50     -3.29
    7   11   43     -9.52     -6.87
    6   11   43     -6.05      0.75
    5   11   43      3.05     -9.31
    4   11   43     -6.97     -2.56
    3   11   43      8.93     -4.53
    2   11   43     -9.80    -11.34
    1   11   43     -0.43      0.76
    0   11   43      0.68    -25.94
   11   12   43      1.68      4.83
   10   12   43     -2.52      0.72
    9   12   43      5.05     -1.46
    8   12   43     -1.04     -1.20
    7   12   43      7.72     22.02
    6   12   43      9.59      5.48
    5   12   43    -15.43    -13.03
    4   12   43    -16.07      7.00
    3   12   43    -16.03     -8.12
    2   12   43     23.92    -11.95
    1   12   43     14.05    -33.55
    0   12   43     -0.60    -12.19
   12   13   43     -7.69      9.01
   11   13   43      0.23      7.69
   10   13   43     10.09      6.08
    9   13   43      3.06      7.80
    8   13   43     -4.38     10.40
    7   13   43      0.34      8.82
    6   13   43     20.93      7.54
    5   13   43     -1.94     -7.77
    4   13   43     -0.69      4.03
    3   13   43      6.94      1.78
    2   13   43      0.62    -16.21
    1   13   43     -4.19      9.71
    0   13   43      0.57    -20.16
   13   14   43     -5.44     -8.03
   12   14   43      2.75     -1.58
   11   14   43      0.51      9.50
   10   14   43     -2.47     11.33
    9   14   43     -3.40     -3.97
    8   14   43      1.45     -4.84
    7   14   43      8.49      9.50
    6   14   43    -10.67      1.58
    5   14   43      3.83      4.20
    4   14   43      3.56     -2.41
    3   14   43    -12.19     -4.49
    2   14   43      0.58      8.17
    1   14   43     11.46      3.72
    0   14   43      4.66     10.44
   12   15   43     -3.40      8.87
   11   15   43     -4.91     -8.53
   10   15   43      2.10      0.17
    9   15   43     -5.53     -4.94
    8   15   43      4.74      0.57
    7   15   43    -11.20     -9.38
    6   15   43     -5.54      6.06
    5   15   43     -2.51     12.77
    4   15   43      5.47    -17.53
    3   15   43      5.92     -6.76
    2   15   43    -17.43     -8.12
    1   15   43     16.13      0.09
    0   15   43     -0.65     -5.97
   13   15   43      8.66     -2.84
   12   16   43      7.74     -3.41
   10   16   43     -4.86     -2.00
    9   16   43     -4.76      2.11
    8   16   43      2.92      3.34
    7   16   43     -4.02     -1.12
    6   16   43      0.54      4.61
    5   16   43    -11.12     -2.80
    4   16   43      5.55     -1.15
    3   16   43     -4.76    -11.59
    2   16   43     17.75     -8.17
    1   16   43     -7.43     -2.84
    0   16   43      1.42      5.34
   11   16   43     -3.67      3.84
   11   17   43      5.19     -6.04
   10   17   43     -5.17     13.79
    8   17   43      3.32     -1.45
    7   17   43      5.48     -2.55
    6   17   43     -7.56      5.76
    5   17   43     -5.25      9.53
    4   17   43     -8.18     -4.42
    3   17   43     15.44      0.50
    2   17   43     -6.57     -8.34
    1   17   43      8.06      0.94
    0   17   43     -2.94    -10.51
    9   17   43      6.30      0.01
    9   18   43      0.66     -3.66
    8   18   43     -2.38      0.86
    7   18   43    -10.21      5.39
    6   18   43      8.56     -1.13
    5   18   43      7.44     -0.72
    4   18   43      3.57      2.07
    3   18   43     -7.40      6.45
    2   18   43      2.05     -2.89
    1   18   43      2.13      0.24
    0   18   43     -0.27      2.15
    7   19   43     -0.25      9.84
    6   19   43     -8.27      0.36
    5   19   43     -8.25     -6.74
    4   19   43      7.34     -2.23
    3   19   43      6.63      2.92
    2   19   43     -8.92      4.76
    1   19   43     -4.09     -4.56
    0   19   43     -0.57     -6.02
    3   20   43     -3.86    -10.81
    2   20   43      2.44      9.53
    1   20   43     -5.63      3.06
    0   20   43      2.28     -9.57
    0    0   44    -17.05      1.77
    1    1   44     23.84      2.56
    0    1   44     18.93      1.11
    2    2   44      3.83     61.04
    1    2   44      3.26     -6.66
    0    2   44     40.97      8.72
    3    3   44    -46.49      4.77
    2    3   44    -18.35    -31.66
    1    3   44    -35.84    -25.72
    0    3   44     23.25     -4.49
    4    4   44    -50.77      1.90
    3    4   44     -0.56     14.14
    2    4   44    -38.97     12.06
    1    4   44     19.66     -7.90
    0    4   44     -0.34      7.58
    5    5   44    -15.84    -29.09
    4    5   44     -4.63     -6.89
    3    5   44     -0.99     11.08
    2    5   44      5.52    -15.95
    1    5   44    -28.56      3.43
    0    5   44     -5.56      5.26
    6    6   44    -11.79      9.79
    5    6   44     18.94     20.03
    4    6   44     -1.04    -10.78
    3    6   44     12.60    -13.95
    2    6   44     10.61     -2.67
    1    6   44    -13.21    -44.89
    0    6   44    -39.13      1.95
    7    7   44     29.20    -25.23
    6    7   44     -5.81      9.55
    5    7   44    -14.53    -28.80
    4    7   44    -12.78    -13.18
    3    7   44    -23.34    -20.20
    2    7   44    -12.00      0.88
    1    7   44    -33.40    -37.26
    0    7   44     30.87     -6.16
    8    8   44     12.59      6.74
    7    8   44     -1.97     -7.98
    6    8   44     10.43    -60.05
    5    8   44     -3.20      6.79
    4    8   44    -10.67     12.94
    3    8   44     -4.27    -17.57
    2    8   44    -22.44     -4.38
    1    8   44    -13.74      2.11
    0    8   44    -47.98    -10.42
    9    9   44      0.72      6.75
    8    9   44     -5.68    -10.31
    7    9   44      7.30     -4.52
    6    9   44      6.64     12.14
    5    9   44     16.85     10.13
    4    9   44     13.76     -1.38
    3    9   44    -25.29      4.52
    2    9   44    -11.79     -5.64
    1    9   44      8.38     38.63
    0    9   44     -0.73     -2.31
   10   10   44     -5.73     -0.75
    9   10   44     12.38      2.74
    8   10   44      2.45     22.66
    7   10   44     10.07      4.34
    6   10   44      1.56     17.86
    5   10   44      3.90      9.31
    4   10   44      3.50     11.64
    3   10   44      3.59     -3.28
    2   10   44      3.89      1.93
    1   10   44      1.31     -5.83
    0   10   44    -29.56     -1.07
   11   11   44      1.95      3.61
   10   11   44     -2.38      1.39
    9   11   44     -0.42     19.17
    8   11   44     -4.84     -0.57
    7   11   44      9.78     -0.51
    6   11   44    -13.09      3.14
    5   11   44      0.13    -10.56
    4   11   44      6.10     -2.83
    3   11   44     18.35     13.02
    2   11   44     10.56      0.97
    1   11   44    -22.58     22.44
    0   11   44      2.21      2.52
   12   12   44      6.59    -10.83
   11   12   44      1.15     10.81
   10   12   44      8.49      7.93
    9   12   44      1.00     -4.43
    8   12   44      4.13    -15.35
    7   12   44    -11.04      9.29
    6   12   44     11.66    -11.06
    5   12   44     -3.77     -2.47
    4   12   44     -4.83     -0.84
    3   12   44     -6.62      3.30
    2   12   44    -10.59     -7.91
    1   12   44     -9.23     -5.49
    0   12   44     -8.39     -8.90
   12   13   44     -6.08      7.00
   11   13   44     13.93      5.11
   10   13   44      5.33     -0.32
    9   13   44     -3.66     -4.09
    8   13   44     -3.25     -1.63
    7   13   44      4.44      1.05
    6   13   44     -1.11      7.76
    5   13   44     -6.28    -18.39
    4   13   44      4.08     -3.21
    3   13   44     -8.20    -16.43
    2   13   44    -10.20     -3.09
    1   13   44     -4.24      9.00
    0   13   44     -3.67      0.14
   13   13   44      6.19    -12.84
   13   14   44     -0.34      3.83
   12   14   44      0.57     -6.97
   11   14   44      1.01      0.08
   10   14   44     -5.62      7.43
    9   14   44      6.47     -8.77
    8   14   44    -14.23      1.32
    7   14   44      0.48      5.11
    6   14   44    -14.55      7.57
    5   14   44     10.59    -11.50
    4   14   44     -2.47     -8.49
    3   14   44     -0.37     10.10
    2   14   44     -2.65     10.39
    1   14   44      1.52     -9.31
    0   14   44     -3.76     -3.06
   12   15   44     -3.22     -2.29
   11   15   44      0.44     -1.95
   10   15   44      1.59     -0.10
    9   15   44     -4.85      4.71
    8   15   44      1.58     -4.96
    7   15   44     -1.09     13.90
    6   15   44      0.27      6.05
    5   15   44     -5.54     19.26
    4   15   44      7.29      3.43
    3   15   44      2.51    -20.54
    2   15   44      2.80      1.34
    1   15   44      1.94     43.99
    0   15   44      1.36      0.51
   13   15   44      9.62      3.86
   12   16   44      7.19     -5.03
   11   16   44     -2.93      1.50
   10   16   44     -0.19     -5.00
    9   16   44      0.63      0.97
    8   16   44     -9.56      2.34
    7   16   44      5.45     -3.70
    6   16   44     -2.09      5.37
    5   16   44     -4.99      7.56
    4   16   44      5.96     -0.81
    3   16   44     -0.43     -3.49
    2   16   44      1.79      9.99
    1   16   44      9.47     -7.20
    0   16   44     -2.27      0.43
   10   17   44      6.35     -5.63
    9   17   44     -7.93     -1.08
    8   17   44     -6.56      1.22
    7   17   44      2.15     -8.20
    6   17   44     -4.00      8.94
    5   17   44      3.19      6.76
    4   17   44     -0.11     -6.59
    3   17   44      6.86      2.30
    2   17   44     -0.08     -1.12
    1   17   44     11.39     -8.30
    0   17   44     -9.10      4.72
    9   18   44     -0.57     -0.10
    8   18   44     -1.19     -0.13
    7   18   44    -13.01     -0.96
    5   18   44      9.36     -9.69
    4   18   44     -4.93     -2.98
    3   18   44     -4.47      0.79
    2   18   44      5.32     -2.13
    1   18   44      0.84      5.75
    0   18   44      7.94      2.06
    6   18   44     -6.69     -7.88
    6   19   44     -7.80      6.70
    5   19   44     -0.31     -2.23
    4   19   44      2.53      8.45
    3   19   44      2.81      7.38
    2   19   44    -12.84     -1.64
    1   19   44      0.62      1.28
    0   19   44     -7.77      4.69
    1   20   44     -4.51      6.73
    0   20   44      3.70     -1.08
    2   20   44    -11.18      0.99
    0    1   45      9.94     54.29
    1    2   45     44.75     -1.85
    0    2   45      8.48      4.35
    2    3   45    -15.77     -6.58
    1    3   45    -15.50     -9.61
    0    3   45     -1.98    -43.28
    3    4   45    -27.88     -7.21
    2    4   45     -9.62    -35.30
    1    4   45     15.81     75.74
    0    4   45      5.80      4.29
    4    5   45     -9.85    -10.50
    3    5   45      8.35      5.62
    2    5   45      3.62     65.88
    1    5   45     -8.13     -7.99
    0    5   45      0.64     31.31
    5    6   45     45.11    -18.84
    4    6   45    -15.89     10.21
    3    6   45    -40.78     -3.34
    2    6   45     -5.36     -6.67
    1    6   45    -14.59     25.90
    0    6   45     -4.69     45.00
    6    7   45     -8.04      2.25
    5    7   45     13.38      2.71
    4    7   45      7.94    -14.17
    3    7   45      1.63      6.50
    2    7   45    -48.68    -26.77
    1    7   45      8.64     11.00
    0    7   45      1.98    -13.14
    7    8   45    -23.68     15.33
    6    8   45      0.96     -5.73
    5    8   45    -36.00      0.16
    4    8   45      4.12      8.06
    3    8   45      5.76    -18.61
    2    8   45     11.29    -10.84
    1    8   45    -16.41    -22.47
    0    8   45     -4.80      8.15
    8    9   45    -21.08      1.27
    7    9   45      2.97      6.42
    6    9   45     10.66      7.56
    5    9   45     -4.85     12.84
    4    9   45      0.80      1.51
    3    9   45     -9.25    -16.59
    2    9   45     -0.91     12.18
    1    9   45    -10.12     21.29
    0    9   45     -0.26      6.23
    9   10   45     13.98      6.89
    8   10   45     14.17      9.28
    7   10   45      3.02     -6.18
    6   10   45     -7.01     -1.80
    5   10   45     18.00      0.01
    4   10   45     -6.68    -18.12
    3   10   45     17.38     11.73
    2   10   45      4.74     14.09
    1   10   45    -12.43      8.34
    0   10   45     -9.74      2.96
   10   11   45     15.43     -0.16
    9   11   45    -16.01      2.06
    8   11   45      0.01     -1.59
    7   11   45      6.96      5.64
    6   11   45      8.77      4.63
    5   11   45      2.06      0.10
    4   11   45      2.38     18.56
    3   11   45      7.50     -3.74
    2   11   45     -8.79     12.68
    1   11   45      0.54      7.33
    0   11   45     -1.84     13.89
   11   12   45      1.68      2.28
   10   12   45     -5.41      8.25
    9   12   45      7.69     -2.64
    8   12   45      5.06    -10.11
    7   12   45    -17.62     -3.87
    6   12   45     -3.72      2.68
    5   12   45     -2.07     10.86
    4   12   45     15.57     -0.58
    3   12   45      3.98      1.17
    2   12   45     -8.59      4.47
    1   12   45     -1.82     13.00
    0   12   45     -4.46     13.06
   12   13   45      3.12     -1.68
   11   13   45     -5.40      1.94
   10   13   45     -3.23     -2.45
    9   13   45      3.44      3.92
    8   13   45      5.73      3.04
    7   13   45      1.87      4.44
    6   13   45    -21.32     -8.97
    5   13   45      0.01    -13.13
    4   13   45     -1.27     11.28
    3   13   45     -7.41      5.14
    2   13   45      2.94     -1.88
    1   13   45     -0.55     -6.42
    0   13   45     -3.94     16.65
   13   14   45      1.36      0.55
   12   14   45      1.69     -2.41
   10   14   45     -1.77      3.84
    9   14   45     -1.04     -1.09
    8   14   45      4.19     12.59
    7   14   45     -3.12    -11.41
    6   14   45      4.65     -8.72
    5   14   45     -5.21     -3.75
    4   14   45     -8.27    -10.59
    3   14   45     18.82      2.94
    2   14   45      0.40     -4.67
    1   14   45    -30.56    -20.23
    0   14   45     -8.56    -21.19
   11   14   45     -4.71      1.26
   13   15   45     -2.14     -3.13
   11   15   45     -1.53      6.08
   10   15   45      4.25     -1.88
    9   15   45      1.22      4.65
    8   15   45      0.83     -0.95
    7   15   45      9.57     10.01
    6   15   45      0.56     -2.11
    5   15   45     -0.28    -10.42
    4   15   45     -7.89     13.90
    3   15   45     -2.13      0.96
    2   15   45     12.47      8.50
    1   15   45     -3.03      1.19
    0   15   45      3.85      5.81
   12   15   45     -3.83     -3.23
   11   16   45      3.23      4.63
   10   16   45     -4.66      6.56
    9   16   45     -3.94     -5.13
    8   16   45      2.56     -1.78
    7   16   45     10.58      0.40
    6   16   45      2.89     -2.45
    5   16   45      1.88    -10.71
    4   16   45     10.13      2.50
    3   16   45      0.32     17.70
    2   16   45     -4.71      7.76
    1   16   45      7.63      1.15
    0   16   45     -1.84     -9.96
   10   17   45      6.40     -5.94
    9   17   45      2.32      4.03
    8   17   45     -5.57     -2.52
    7   17   45     -2.33     -1.85
    6   17   45     -1.33     -9.74
    5   17   45      1.87     -6.43
    4   17   45      1.76     -0.47
    3   17   45     -0.67      3.42
    2   17   45      5.79      2.76
    1   17   45     -6.86     -0.74
    0   17   45      0.28     12.03
    8   18   45      1.23      1.60
    7   18   45      5.12     -4.41
    6   18   45      0.73      3.35
    5   18   45    -12.01     -0.92
    4   18   45     -0.72     -4.13
    3   18   45      3.83     -5.91
    2   18   45    -12.10      4.46
    1   18   45     -1.80     -2.00
    0   18   45     -0.47      1.54
    6   19   45      7.09     -4.93
    5   19   45      2.76      2.47
    4   19   45     -6.93      0.84
    3   19   45      4.74    -10.07
    2   19   45     13.29     -6.04
    1   19   45      0.28      2.13
    0   19   45      2.14      6.57
    1   20   45      9.89    -10.21
    0   20   45     -1.49      0.90
    0    0   46   -169.66      9.35
    1    1   46    -17.68    -41.39
    0    1   46      8.97     -7.54
    2    2   46     27.90     17.18
    1    2   46     -8.95     10.69
    0    2   46    -44.93     -5.13
    3    3   46     54.69    -15.96
    2    3   46     21.72    -15.94
    1    3   46    -42.65      4.22
    0    3   46     -9.02      1.62
    4    4   46    -20.03    -31.12
    3    4   46     24.36     -4.20
    2    4   46    -22.20     -1.34
    1    4   46     15.06     -2.01
    0    4   46     -5.00     -2.46
    5    5   46     14.07     -8.59
    4    5   46      4.84     -3.62
    3    5   46    -18.73     10.71
    2    5   46     -2.29     13.94
    1    5   46     -0.47     -4.21
    0    5   46    -11.41     -4.91
    6    6   46     42.73    -27.82
    5    6   46     -7.18     16.64
    4    6   46     -2.72      0.78
    3    6   46     -8.73    -12.29
    2    6   46    -12.47     14.73
    1    6   46      3.42     -9.54
    0    6   46     26.90      4.24
    7    7   46     12.53     18.59
    6    7   46      3.82     11.46
    5    7   46    -20.72    -17.44
    4    7   46      8.02      0.39
    3    7   46     14.11     -5.08
    2    7   46     20.01      2.19
    1    7   46      2.84     30.07
    0    7   46     -5.51      2.83
    8    8   46    -39.25      2.53
    7    8   46     -3.22    -10.89
    6    8   46    -17.53     20.43
    5    8   46      5.49     -3.29
    4    8   46      2.05     -4.21
    3    8   46      2.68     -4.12
    2    8   46     21.61     -3.61
    1    8   46      6.66     -0.02
    0    8   46     16.05     11.11
    9    9   46    -32.29     16.49
    8    9   46      7.05     -2.35
    7    9   46    -11.82     -5.55
    6    9   46      6.59     -0.90
    5    9   46    -13.06      0.12
    4    9   46     -3.40    -13.56
    3    9   46     13.33     16.84
    2    9   46      6.48    -14.48
    1    9   46      0.96     -9.10
    0    9   46    -12.40      3.40
   10   10   46     10.24      9.88
    9   10   46      2.27    -10.06
    8   10   46    -16.98     -2.19
    7   10   46     -1.45      2.45
    6   10   46      2.12    -13.17
    5   10   46      2.84      8.46
    4   10   46      4.43     -8.06
    3   10   46     -9.74    -11.30
    2   10   46    -12.05     -2.27
    1   10   46     11.91     14.24
    0   10   46      9.33      1.57
   11   11   46      4.01    -10.12
   10   11   46      6.02      8.37
    9   11   46     -2.68     -4.83
    8   11   46      4.50     -7.51
    7   11   46     -9.83     -2.18
    6   11   46     13.88     -0.54
    5   11   46      7.72      9.93
    4   11   46     -1.06      0.00
    3   11   46    -15.95     -6.05
    2   11   46     -5.45      7.56
    1   11   46      0.13    -32.39
    0   11   46      3.04     -1.88
   11   12   46      5.15     -4.12
   10   12   46    -12.67     -7.56
    9   12   46     -0.27     -2.86
    8   12   46    -14.73      4.59
    7   12   46      4.07     -0.08
    6   12   46     -3.15     18.38
    5   12   46      3.30     15.19
    4   12   46     -2.95      0.04
    3   12   46     -5.81    -13.36
    2   12   46      1.58     17.04
    1   12   46     -8.39     -6.00
    0   12   46      3.08      3.40
   12   13   46      2.53     -7.66
   11   13   46     -8.14      0.32
   10   13   46     -0.79     -0.49
    9   13   46     -2.78      8.86
    8   13   46     -3.08     -5.09
    7   13   46     -6.62     -3.55
    6   13   46     -0.19      0.73
    5   13   46     10.47     17.29
    4   13   46     -7.88     -1.04
    3   13   46     12.75      6.40
    2   13   46      1.29     -0.90
    1   13   46      1.78     19.14
    0   13   46      5.47      1.48
   13   13   46     -4.41      6.89
   13   14   46     -0.29     -2.65
   11   14   46     -2.00      0.68
   10   14   46     10.94     -8.28
    9   14   46     -4.54      0.20
    8   14   46      7.84      2.50
    7   14   46      1.68      1.34
    6   14   46      6.67     10.72
    5   14   46     -9.40     10.01
    4   14   46      9.55      8.70
    3   14   46      2.89     -2.48
    2   14   46     -8.15    -15.63
    1   14   46     -4.81      2.81
    0   14   46     -0.15      5.51
   12   14   46     -0.52      0.61
   14   14   46     -8.38      8.50
   13   15   46    -10.57     -7.37
   12   15   46      3.16      4.28
   11   15   46     -1.54     -0.94
   10   15   46     -0.65      3.43
    9   15   46      4.09     -6.98
    8   15   46     -4.70      2.05
    7   15   46      4.47     -6.35
    6   15   46      7.69      6.43
    5   15   46     11.90     -2.73
    4   15   46     -6.68     -6.32
    3   15   46    -12.30      5.04
    2   15   46     -4.77      2.80
    1   15   46     -6.99    -13.65
    0   15   46     -8.01     -1.36
   10   16   46     -8.48      4.50
    9   16   46     11.63     -1.55
    8   16   46     10.38     -6.10
    7   16   46      0.03      0.97
    6   16   46      0.34     -5.53
    5   16   46      7.26     -6.20
    4   16   46      1.67      6.10
    3   16   46     -2.52      0.65
    2   16   46     -4.98     -0.48
    1   16   46     -6.02     -1.00
    0   16   46      1.13     -4.48
   11   16   46      7.67      0.23
   10   17   46     -3.82     -2.44
    9   17   46      5.30     -6.00
    8   17   46     -1.28     -9.34
    7   17   46     -0.74     10.48
    6   17   46      5.22      1.47
    5   17   46      7.39     -2.97
    4   17   46      6.82     10.54
    3   17   46     -4.95      1.50
    2   17   46      0.10     -6.93
    1   17   46     -0.32      4.40
    0   17   46      0.87     -1.18
    8   18   46      2.49     -2.90
    7   18   46      4.73     -5.62
    6   18   46      6.84      6.45
    5   18   46     -1.92      8.17
    4   18   46      8.75     -5.25
    3   18   46     -0.33      6.18
    2   18   46      2.03      2.68
    1   18   46     -0.38      4.90
    0   18   46     -1.43      2.08
    6   19   46      6.78     -1.13
    5   19   46      0.92     -2.15
    4   19   46     -5.87     -4.66
    3   19   46      0.60      7.64
    2   19   46     -5.08     -2.93
    1   19   46     -1.22     -8.55
    0   19   46      2.60      2.29
    0    1   47    -10.94     -4.35
    1    2   47    -11.66      7.33
    0    2   47     -3.58    -20.92
    2    3   47    -22.43     20.57
    1    3   47     12.06      2.55
    0    3   47     -3.82      0.90
    3    4   47      9.52      9.93
    2    4   47    -14.24      2.15
    1    4   47    -20.42    -42.43
    0    4   47     -1.11     -2.56
    4    5   47     11.26     -6.32
    3    5   47     -0.61      0.09
    2    5   47     -7.43     -6.15
    1    5   47     -9.06     -8.52
    0    5   47      1.26    -15.52
    5    6   47      7.16      2.49
    4    6   47    -14.64      6.07
    3    6   47     50.24     -0.35
    2    6   47     -9.67     -6.14
    1    6   47      6.94      9.62
    0    6   47      8.16    -16.70
    6    7   47     -0.95    -10.74
    5    7   47    -19.12     -6.73
    4    7   47      9.28      2.22
    3    7   47     -2.46      2.21
    2    7   47     18.31     47.79
    1    7   47    -20.06      3.95
    0    7   47     -0.04     -7.10
    7    8   47     -2.34     -1.63
    6    8   47      3.72     -7.18
    5    8   47     13.12    -17.45
    4    8   47      8.70     -7.61
    3    8   47     -9.43      6.87
    2    8   47    -34.75     21.66
    1    8   47     -3.52     -1.52
    0    8   47      2.38     -9.66
    8    9   47     13.84     -5.14
    7    9   47      3.45    -19.14
    6    9   47    -28.80     -3.86
    5    9   47     -3.48     -1.51
    4    9   47     -6.20    -22.81
    3    9   47      9.40      2.61
    2    9   47      5.12    -10.78
    1    9   47      4.50    -11.27
    0    9   47     -2.64     -9.33
    9   10   47      2.88     -0.48
    8   10   47     -3.04      9.58
    7   10   47     -3.54     -1.45
    6   10   47      5.50      4.01
    5   10   47    -20.85     -1.24
    4   10   47     -0.58     -6.40
    3   10   47    -11.19     11.09
    2   10   47      3.28     19.44
    1   10   47     -1.97      5.05
    0   10   47      2.44     15.52
   10   11   47     -9.74      3.42
    9   11   47     11.94      2.41
    8   11   47     10.16      1.35
    7   11   47      0.37      8.36
    6   11   47    -23.00     12.56
    5   11   47     -2.44      3.46
    4   11   47     -5.17      0.12
    3   11   47      6.28     10.35
    2   11   47     11.24     -0.90
    1   11   47    -11.95      1.88
    0   11   47     -0.03     -1.49
   11   12   47    -11.99     -3.31
   10   12   47     -1.98     -3.94
    9   12   47     -6.49     13.61
    8   12   47    -14.31      6.48
    7   12   47      7.98      0.84
    6   12   47     15.41     -5.41
    5   12   47      6.57      0.31
    4   12   47     -7.27     -4.91
    3   12   47      3.36    -15.99
    2   12   47     -2.28     11.01
    1   12   47    -15.92     -4.94
    0   12   47     -2.38    -12.86
   12   13   47      0.37     -2.88
   11   13   47     -2.07      2.54
   10   13   47     -0.78     -2.30
    9   13   47     -7.67      6.49
    8   13   47     -1.89     -7.41
    7   13   47      0.44      7.36
    6   13   47     11.55      6.20
    5   13   47    -14.19    -11.43
    4   13   47      3.85     -1.32
    3   13   47     12.54    -16.14
    2   13   47      1.31      2.64
    1   13   47      0.23     -0.08
    0   13   47      8.71    -23.59
   13   14   47      4.21      3.29
   12   14   47      3.65      6.68
   11   14   47     -0.85      0.79
   10   14   47      1.00      0.91
    9   14   47     -2.95      2.63
    8   14   47     -5.21    -11.16
    7   14   47     -1.29     14.22
    6   14   47     -7.32     14.11
    5   14   47      4.40     13.93
    4   14   47      3.09      4.48
    3   14   47    -10.57     -0.63
    2   14   47     -1.16    -10.02
    1   14   47     37.58     14.93
    0   14   47      7.93     12.02
   12   15   47      3.77     -4.27
   11   15   47      1.32     -1.12
   10   15   47     -0.86      6.26
    9   15   47     -1.97      3.12
    8   15   47     -4.61      6.69
    7   15   47     -3.46      3.31
    6   15   47     -3.84      2.13
    5   15   47     13.11     -0.22
    4   15   47      2.49      1.20
    3   15   47      4.39      0.88
    2   15   47     -7.19     -3.11
    1   15   47     -8.67      9.06
    0   15   47     -8.10      6.11
   13   15   47      2.72      7.20
   11   16   47     -6.48      1.94
   10   16   47     -0.56     -4.35
    9   16   47      4.12      0.31
    8   16   47     -0.22      5.02
    7   16   47      0.15      9.01
    6   16   47     -0.37     -0.59
    5   16   47     -4.49     15.71
    4   16   47     -4.60     -4.39
    3   16   47     -3.73     -9.00
    2   16   47      4.14      2.32
    1   16   47     -4.68     -2.84
    0   16   47      2.35      5.41
   10   17   47     -2.40      1.35
    9   17   47     -5.57     -1.28
    8   17   47      5.32      7.20
    7   17   47      3.90      3.40
    6   17   47     12.35     10.06
    5   17   47      3.32      1.15
    4   17   47      7.06      1.46
    3   17   47      1.09     -2.84
    2   17   47     -3.99     -0.71
    1   17   47      4.36     12.14
    0   17   47      2.23    -11.10
    8   18   47     -0.59     -9.51
    7   18   47     -2.20      6.23
    6   18   47     -4.98     -0.78
    5   18   47      4.46      0.01
    4   18   47     -1.16     -1.93
    3   18   47      0.39     13.13
    2   18   47      7.38     -3.57
    1   18   47      2.51     -1.56
    0   18   47     -1.88     -5.85
    5   19   47     -1.01     -1.95
    4   19   47      0.31     -1.13
    3   19   47     -5.33     14.57
    2   19   47     -5.63      2.06
    1   19   47      5.77     -6.34
    0   19   47      0.98     -6.52
    0    0   48    143.47     -5.28
    1    1   48     58.71      3.18
    0    1   48    -10.34      6.88
    2    2   48     30.39     40.91
    1    2   48      4.87     -7.82
    0    2   48     27.60     -0.70
    3    3   48    -72.11     41.92
    2    3   48     12.98     -7.67
    1    3   48     44.03    -35.24
    0    3   48     12.25     -0.32
    4    4   48      9.02      1.50
    3    4   48      5.21     10.77
    2    4   48     34.15    -10.42
    1    4   48      9.15      7.05
    0    4   48     13.89     -1.80
    5    5   48     -3.69      0.63
    4    5   48      2.42    -16.31
    3    5   48     69.00     22.91
    2    5   48     -1.22    -11.24
    1    5   48     -0.96     20.29
    0    5   48      0.55     -1.21
    6    6   48    -17.51    -15.11
    5    6   48    -16.15     -5.79
    4    6   48      1.67     16.20
    3    6   48      0.65      7.04
    2    6   48     -2.42    -13.56
    1    6   48     -3.61    -24.84
    0    6   48     23.05      1.54
    7    7   48    -28.79     -5.58
    6    7   48      4.18     12.94
    5    7   48     22.10    -12.59
    4    7   48     10.42     -3.22
    3    7   48    -28.89     10.97
    2    7   48     -3.74      2.87
    1    7   48    -12.88    -37.38
    0    7   48      2.49     -3.95
    8    8   48     27.10    -16.53
    7    8   48      8.64     -3.68
    6    8   48      9.93     -6.67
    5    8   48    -11.18      2.85
    4    8   48      4.38     14.81
    3    8   48    -11.68      3.25
    2    8   48    -18.28    -10.34
    1    8   48      0.20     12.05
    0    8   48    -34.57     -3.65
    9    9   48     27.91    -21.73
    8    9   48      6.45      2.49
    7    9   48      9.22      9.86
    6    9   48     -6.90     11.16
    5    9   48     13.02    -14.33
    4    9   48     -2.21     -6.45
    3    9   48     17.41     23.40
    2    9   48    -12.75    -25.45
    1    9   48      6.21     -3.21
    0    9   48     -3.51     -5.48
   10   10   48     -2.36     -5.98
    9   10   48      1.78     -5.18
    8   10   48     17.60    -13.67
    7   10   48      4.05      0.85
    6   10   48      2.99     11.26
    5   10   48      4.27      6.33
    4   10   48    -12.63     -0.60
    3   10   48      5.49    -13.04
    2   10   48     14.32     22.38
    1   10   48     -1.68    -12.25
    0   10   48     13.90     -2.13
   11   11   48      2.14     10.47
   10   11   48     -2.93      0.06
    9   11   48      4.28     -0.87
    8   11   48      2.03      3.45
    7   11   48     11.52     -2.54
    6   11   48     11.43     -2.29
    5   11   48    -13.65     16.11
    4   11   48    -11.03     15.97
    3   11   48      4.22     -3.67
    2   11   48      4.88      2.92
    1   11   48     -1.03      5.56
    0   11   48      3.59     -1.33
   12   12   48      6.61      5.82
   11   12   48     -2.37      3.49
   10   12   48      5.79      0.87
    9   12   48      5.81     -8.21
    8   12   48      7.83      0.72
    7   12   48      3.00     15.43
    6   12   48    -11.44    -11.14
    5   12   48    -12.14     -2.44
    4   12   48     10.43    -12.20
    3   12   48      4.13     -5.31
    2   12   48     -6.10     -2.53
    1   12   48      6.65     -0.87
    0   12   48    -16.63     -0.26
   13   13   48     -7.23     -9.86
   12   13   48      0.04      3.80
   11   13   48     -4.47     -7.05
   10   13   48      0.80      8.13
    9   13   48     -9.10     -7.81
    8   13   48      6.68     -2.06
    7   13   48      1.43    -12.80
    6   13   48      6.13      2.63
    5   13   48      4.96     -3.99
    4   13   48    -12.71     -3.28
    3   13   48     -7.29      7.93
    2   13   48     -4.96    -11.42
    1   13   48     14.70     -1.44
    0   13   48     -0.82     -1.47
   13   14   48     -0.76     -0.41
   12   14   48     -3.56      2.16
   11   14   48      0.77      5.96
   10   14   48     -9.05      3.00
    9   14   48     -5.30     -3.29
    8   14   48      0.84     -0.03
    7   14   48     -4.02     -5.26
    6   14   48     -6.40     -0.01
    5   14   48      5.07     -9.03
    4   14   48     -7.54     -0.11
    3   14   48     -7.93     -1.98
    2   14   48     -2.97     -5.05
    1   14   48     -2.28    -11.33
    0   14   48      7.13     -3.03
   12   15   48     -3.27      1.14
   11   15   48      2.64      5.60
    9   15   48     -0.83      0.53
    8   15   48      0.89     -8.95
    7   15   48     -3.49     12.28
    6   15   48     -5.64      1.52
    5   15   48     -9.07      2.24
    4   15   48      3.58      5.03
    3   15   48      4.94    -10.51
    2   15   48      6.27    -10.36
    1   15   48      6.66     16.63
    0   15   48     19.67     -1.69
   10   15   48     -1.94    -12.83
   11   16   48     -5.58     -2.72
   10   16   48      3.89      3.62
    9   16   48     -1.99     -1.05
    8   16   48     -7.39     -1.76
    7   16   48      3.23     -4.21
    6   16   48      0.58      0.30
    5   16   48      1.34     -0.23
    4   16   48     -0.45      1.08
    3   16   48      1.15     -3.57
    2   16   48     -3.36      7.05
    1   16   48      7.33      0.37
    0   16   48     -1.09      1.21
   10   17   48      3.43      8.17
    9   17   48      1.77     -3.29
    8   17   48      1.43      4.49
    7   17   48      5.01      0.97
    6   17   48     -2.73      0.04
    5   17   48     -1.92     -8.88
    4   17   48     -9.72     -8.95
    3   17   48     -0.45    -14.03
    2   17   48      2.36      3.03
    1   17   48     -0.37     -2.18
    0   17   48     -3.86     -1.75
    8   18   48      2.95     -3.74
    7   18   48    -13.47     10.39
    6   18   48     -2.20      4.63
    5   18   48     -3.48      6.86
    4   18   48     -2.00     -5.85
    3   18   48     -4.17     -6.19
    2   18   48     -5.10      0.15
    1   18   48      0.38      0.36
    0   18   48      3.53      0.51
    5   19   48     -0.38      2.25
    4   19   48      0.16      6.69
    3   19   48      1.47     -3.25
    2   19   48     11.48     -3.15
    1   19   48     10.82      6.16
    0   19   48     -2.94      0.37
    0    1   49     11.34     40.10
    1    2   49     42.09     37.85
    0    2   49      1.94    -39.47
    2    3   49     26.11    -12.62
    1    3   49     -0.99     19.90
    0    3   49     -7.45     18.06
    3    4   49      4.93     -1.92
    2    4   49     -3.41     14.06
    1    4   49    -10.88     30.88
    0    4   49      0.42     22.75
    4    5   49      7.94     -7.77
    3    5   49     -3.54     15.90
    2    5   49     21.03     37.62
    1    5   49    -30.64     -7.43
    0    5   49      3.87      3.95
    5    6   49    -19.49      6.87
    4    6   49     -5.78     -2.10
    3    6   49     -3.34    -18.75
    2    6   49     -9.72      2.21
    1    6   49     37.36     -2.29
    0    6   49     -7.85    -14.62
    6    7   49    -31.67     -1.59
    5    7   49     12.63    -25.01
    4    7   49     12.99    -15.47
    3    7   49    -12.48    -18.20
    2    7   49     -0.79    -35.47
    1    7   49      3.19      5.41
    0    7   49     -7.72    -19.90
    7    8   49      6.23     -2.92
    6    8   49     11.92     -1.28
    5    8   49    -10.72    -10.99
    4    8   49      5.85     -3.31
    3    8   49      0.81     -1.64
    2    8   49     -8.06     -3.50
    1    8   49     23.86    -16.76
    0    8   49      0.35    -19.61
    8    9   49      1.91      4.30
    7    9   49     -5.25      7.73
    6    9   49     22.79     -0.83
    5    9   49      2.50     -5.72
    4    9   49      5.74     -5.53
    3    9   49    -11.37     -2.34
    2    9   49      3.38     -7.97
    1    9   49      3.42     11.98
    0    9   49     -4.83     16.85
    9   10   49      7.75     10.51
    8   10   49      0.84      4.15
    7   10   49     -1.88    -12.45
    6   10   49      9.25      3.92
    5   10   49      5.17    -12.47
    4   10   49      5.72      6.37
    3   10   49     -7.40     -9.10
    2   10   49    -13.67      8.55
    1   10   49     -1.20    -11.16
    0   10   49     -0.42    -11.74
   10   11   49      7.76     -4.12
    9   11   49    -13.69     -4.10
    8   11   49    -15.06      9.26
    7   11   49      1.54     -9.65
    6   11   49      4.96    -19.12
    5   11   49      4.32      1.96
    4   11   49      1.63     -9.86
    3   11   49     -7.60      5.30
    2   11   49    -13.31     -4.68
    1   11   49      5.55      7.24
    0   11   49     -1.65    -18.69
   11   12   49     -7.57      0.47
   10   12   49     -1.53     -5.29
    9   12   49     -3.19     11.74
    8   12   49     -0.59    -10.88
    7   12   49     -0.09      2.55
    6   12   49     -7.80      6.96
    5   12   49     -0.63     -3.20
    4   12   49      5.84    -11.12
    3   12   49    -16.43      9.89
    2   12   49     -2.21     -1.71
    1   12   49     20.63      3.27
    0   12   49      2.89      5.61
   12   13   49      1.00      8.07
   11   13   49     -1.06     -8.17
   10   13   49     -6.85      1.62
    9   13   49      1.02    -11.03
    8   13   49      8.17     14.79
    7   13   49     -7.07     -9.54
    6   13   49     -0.01    -12.51
    5   13   49      1.19     -7.91
    4   13   49     -1.58     -5.35
    3   13   49      5.80     -2.95
    2   13   49      0.40     -5.24
    1   13   49      6.70      1.56
    0   13   49     -5.26      2.63
   13   14   49     -3.20     -4.34
   11   14   49      9.96     -1.05
   10   14   49     -1.34     -4.52
    9   14   49     -0.66     -9.16
    8   14   49      9.07     -3.28
    7   14   49     -3.28     -4.81
    6   14   49     10.34    -10.13
    5   14   49      9.30     -8.26
    4   14   49      3.85     -4.95
    3   14   49     -0.10     -9.85
    2   14   49     -0.30     13.16
    1   14   49    -34.46    -11.16
    0   14   49     -3.59     -2.35
   11   15   49     -1.07     12.46
   10   15   49     -5.27      0.63
    9   15   49      5.41      3.51
    8   15   49      1.97     -1.62
    7   15   49      1.64     -6.54
    6   15   49     -8.76     -8.85
    5   15   49      2.65     12.46
    4   15   49     -3.93    -10.72
    3   15   49     -4.13      2.27
    2   15   49     -7.21     -2.97
    1   15   49      1.36      0.11
    0   15   49      6.70     -3.55
   12   15   49     -2.59     -0.73
   11   16   49      4.30     -0.11
    9   16   49     -4.17      0.72
    8   16   49      0.45     -3.45
    7   16   49     -4.05     -7.05
    6   16   49     -5.99      3.17
    5   16   49      0.72    -11.68
    4   16   49      6.37      1.53
    3   16   49     -4.03      7.92
    2   16   49     10.74     -1.06
    1   16   49      0.67     -0.53
    0   16   49     -0.82      1.18
   10   16   49     -3.84      1.70
    9   17   49      1.57     -1.71
    8   17   49      0.06     -7.17
    7   17   49     -9.17     -3.38
    6   17   49     -6.42     -3.54
    5   17   49      1.13     -2.79
    4   17   49     -0.84     -0.76
    3   17   49      2.07     -5.18
    2   17   49     -8.19     -0.37
    1   17   49     -6.28     -3.65
    0   17   49     -0.12      6.52
    7   18   49     -0.04     -2.80
    6   18   49      7.51      1.52
    5   18   49      1.05     -7.86
    4   18   49      3.01     -3.56
    3   18   49     -0.77    -11.84
    2   18   49     -4.85      1.71
    1   18   49     -6.12      7.19
    0   18   49      8.52      2.50
    5   19   49      3.42     -1.06
    4   19   49      3.26     -4.27
    3   19   49      5.84     -6.98
    2   19   49      0.03      0.76
    1   19   49    -15.29      8.75
    0   19   49     -2.15      1.46
    0    0   50    102.91      3.71
    1    1   50    -39.14    -70.15
    0    1   50    -17.72     -7.91
    2    2   50    -44.18     11.77
    1    2   50      4.72     22.49
    0    2   50    -10.75      3.62
    3    3   50    -37.54     29.32
    2    3   50     11.43     -0.28
    1    3   50     11.87     20.99
    0    3   50     14.60      1.24
    4    4   50    -31.12    -22.85
    3    4   50      6.64     25.96
    2    4   50    -14.64     -8.30
    1    4   50     -1.33      7.23
    0    4   50    -65.13      1.02
    5    5   50    -18.97    -20.81
    4    5   50     12.18      3.62
    3    5   50    -67.50    -10.85
    2    5   50     -5.04      3.24
    1    5   50    -12.34    -25.73
    0    5   50      1.02     -0.10
    6    6   50     18.65      8.92
    5    6   50     -6.94      4.20
    4    6   50    -14.78     -9.94
    3    6   50      6.62     -2.34
    2    6   50    -13.08     10.83
    1    6   50     11.62     -0.99
    0    6   50    -41.49     -3.69
    7    7   50     62.40     18.11
    6    7   50     10.08     -4.46
    5    7   50    -14.35     -6.26
    4    7   50     12.33     15.93
    3    7   50     26.77      2.47
    2    7   50    -14.24      6.93
    1    7   50     -4.29     39.77
    0    7   50     20.47      1.39
    8    8   50     -0.96    -12.35
    7    8   50      4.67     -8.56
    6    8   50      7.19    -14.30
    5    8   50      4.60      6.23
    4    8   50     -6.95    -19.96
    3    8   50      1.19      9.49
    2    8   50      8.10      3.55
    1    8   50     -6.38      9.41
    0    8   50     32.62      0.56
    9    9   50    -11.86     26.45
    8    9   50      7.96      3.28
    7    9   50    -10.33     -2.08
    6    9   50      4.46     -4.35
    5    9   50      0.95     -8.70
    4    9   50    -30.00      7.21
    3    9   50    -14.47      1.59
    2    9   50      3.04     -5.63
    1    9   50    -27.35      2.10
    0    9   50     -3.81     -1.13
   10   10   50     -5.61     11.60
    9   10   50      7.07      3.57
    8   10   50     -1.31     12.72
    7   10   50     -1.89     -8.64
    6   10   50     16.56     -6.16
    5   10   50     10.07      3.34
    4   10   50     -0.16     11.71
    3   10   50     -7.09    -17.56
    2   10   50     -6.81     15.26
    1   10   50      4.87      9.81
    0   10   50    -25.09      5.22
   11   11   50      8.52    -13.57
   10   11   50      8.13      5.30
    9   11   50      2.09     -6.40
    8   11   50      6.26     -7.12
    7   11   50     -1.58      4.56
    6   11   50      0.13     -2.18
    5   11   50      8.08    -22.84
    4   11   50     -5.81      6.00
    3   11   50      5.12     -0.12
    2   11   50     -8.01    -15.05
    1   11   50    -10.34    -22.80
    0   11   50     -9.59     -0.56
   12   12   50     -3.68     -1.32
   11   12   50      5.86     -6.21
   10   12   50      7.84      8.90
    9   12   50     -1.55     -0.06
    8   12   50     -2.73      0.07
    7   12   50      4.25      2.83
    6   12   50     14.20    -15.27
    5   12   50     -1.55      1.88
    4   12   50      6.81     -9.39
    3   12   50     -9.62     11.45
    2   12   50      6.33      8.50
    1   12   50     -7.72      6.55
    0   12   50     -0.71     -2.51
   13   13   50     -1.24      0.32
   12   13   50     -7.14     -0.76
   11   13   50      2.92     12.23
   10   13   50      7.06     -3.57
    9   13   50     -1.58      2.44
    8   13   50     -2.21      3.28
    7   13   50      8.24      5.02
    6   13   50     -7.26      7.14
    5   13   50    -11.59      9.26
    4   13   50      4.80     -0.39
    3   13   50     11.44      1.88
    2   13   50     -5.93     -7.49
    1   13   50    -16.23     12.21
    0   13   50     16.82      0.97
   12   14   50     12.84     -7.09
   11   14   50     -2.24     -0.18
   10   14   50     -0.31     -0.53
    9   14   50     -2.19      3.54
    8   14   50     -0.20      6.74
    7   14   50      5.87      2.46
    6   14   50     -0.68     11.28
    5   14   50     -2.05      1.52
    4   14   50     -1.21      3.83
    3   14   50     20.07      6.15
    2   14   50      2.07      8.52
    1   14   50      4.65    -10.90
    0   14   50     -2.23      2.36
   13   14   50     -4.99     -0.48
   11   15   50     -0.39     -4.94
   10   15   50      7.64     10.14
    9   15   50      4.09      1.80
    8   15   50     11.04     -6.15
    7   15   50     -2.97    -10.17
    6   15   50      8.60      2.77
    5   15   50      4.82      5.05
    4   15   50     -3.74     -1.89
    3   15   50      0.29      0.19
    2   15   50      3.13      4.78
    1   15   50    -10.75      4.11
    0   15   50      2.40     -2.16
   12   15   50      4.13     -4.67
   11   16   50     -0.20      0.97
   10   16   50     -6.87     -6.94
    9   16   50      6.40     -0.44
    8   16   50      2.78     -4.17
    7   16   50     -4.86      3.65
    6   16   50      1.60     -1.21
    5   16   50      1.92      6.76
    4   16   50      7.10      4.83
    3   16   50     -0.18     -5.65
    2   16   50      3.72     -1.00
    1   16   50    -10.80     -3.03
    0   16   50      4.49      1.61
    9   17   50    -10.07      6.02
    8   17   50     -2.56      7.66
    7   17   50     -1.39     -5.08
    6   17   50      1.10     -4.65
    5   17   50     -2.36      5.83
    4   17   50     -3.11      1.76
    3   17   50      0.55      6.92
    2   17   50     -4.78     -4.19
    1   17   50      2.87      2.53
    0   17   50     -1.87     -1.59
    6   18   50      1.14     -4.30
    5   18   50     -0.02      6.45
    4   18   50     -0.37      4.97
    3   18   50     -6.79     -0.35
    2   18   50      2.43     -3.77
    1   18   50     -2.92      2.25
    0   18   50      1.02     -1.22
    4   19   50      0.76      4.38
    3   19   50     -6.37      6.85
    2   19   50     -3.05      7.50
    1   19   50     -5.66     -5.27
    0    1   51     -7.83     13.58
    1    2   51    -69.06      0.31
    0    2   51    -16.33      8.04
    2    3   51      8.75      6.14
    1    3   51     19.17      3.25
    0    3   51      4.90    -38.64
    3    4   51     13.63    -33.98
    2    4   51    -21.00     -3.80
    1    4   51     15.57    -28.39
    0    4   51      4.08     19.09
    4    5   51     -2.36     -7.17
    3    5   51    -10.89     -6.01
    2    5   51    -14.39      1.74
    1    5   51     -9.51      1.56
    0    5   51     -8.06     32.86
    5    6   51     -2.44      8.17
    4    6   51    -12.63      6.37
    3    6   51      6.46     28.81
    2    6   51     15.92    -11.95
    1    6   51    -28.86     32.62
    0    6   51      8.56     18.89
    6    7   51     21.47      5.86
    5    7   51     -4.83      7.48
    4    7   51     17.67     -8.65
    3    7   51     -8.07      5.40
    2    7   51    -10.26      1.27
    1    7   51     -1.20      5.03
    0    7   51      7.76     -6.09
    7    8   51    -14.84    -17.03
    6    8   51     11.28     -1.46
    5    8   51      0.31      2.26
    4    8   51      8.01      4.93
    3    8   51      8.61     -8.46
    2    8   51    -13.98     -1.52
    1    8   51     -2.44    -19.90
    0    8   51     -4.26     -0.36
    8    9   51     -3.69    -14.31
    7    9   51      3.36      6.10
    6    9   51    -38.92      0.84
    5    9   51      1.45     14.52
    4    9   51      5.35     -4.24
    3    9   51    -10.35     -5.59
    2    9   51     -1.92      3.20
    1    9   51     16.55     -7.78
    0    9   51      5.66     20.70
    9   10   51     -9.86      1.04
    8   10   51     -1.96     12.14
    7   10   51    -12.16     -0.61
    6   10   51     -6.86     11.27
    5   10   51      2.75     -0.53
    4   10   51    -18.66    -16.11
    3   10   51      7.54     21.92
    2   10   51      6.82      6.01
    1   10   51      1.30     12.29
    0   10   51      2.12     13.72
   10   11   51      1.89      3.53
    9   11   51      5.73     -2.73
    8   11   51      1.74      4.20
    7   11   51     -1.72      0.42
    6   11   51      4.56     11.16
    5   11   51     -0.53      8.61
    4   11   51      0.55     14.39
    3   11   51      4.62     12.89
    2   11   51     12.61     14.29
    1   11   51    -19.77     12.88
    0   11   51     -0.47      8.16
   11   12   51      6.38      0.99
   10   12   51      0.23     -8.64
    9   12   51     12.79     -8.71
    8   12   51      1.16     -8.64
    7   12   51    -15.86    -10.62
    6   12   51      2.43     -2.95
    5   12   51     -3.18      9.33
    4   12   51    -14.54     16.12
    3   12   51     10.05     -4.19
    2   12   51      4.39     -6.84
    1   12   51     -3.68     22.68
    0   12   51      0.47     -6.25
   12   13   51     -2.09     -2.40
   11   13   51      2.28     -4.19
   10   13   51     -2.30     -6.18
    9   13   51     -1.40     -1.16
    8   13   51      0.97    -13.42
    7   13   51     15.42      4.42
    6   13   51     -9.41      1.52
    5   13   51     -6.71      4.12
    4   13   51     16.45      3.60
    3   13   51     -1.28      0.46
    2   13   51     -2.64     11.98
    1   13   51     -4.43    -12.07
    0   13   51      4.85     -4.21
   12   14   51     -0.28     -1.18
   10   14   51      1.39      0.56
    9   14   51      0.61      6.45
    8   14   51      3.31     13.13
    7   14   51      2.64     -2.45
    6   14   51     -1.74      2.10
    5   14   51      3.60      1.74
    4   14   51     -4.35     -2.47
    3   14   51    -10.83      5.52
    2   14   51     -5.37    -10.99
    1   14   51     28.97      0.69
    0   14   51      6.13      4.48
   11   14   51     -0.80    -12.09
   10   15   51     -4.59     -1.87
    9   15   51     -4.42     -7.48
    8   15   51     -7.56     -2.47
    7   15   51      0.96      4.18
    6   15   51      2.27      1.12
    5   15   51     -5.46     -6.54
    4   15   51      2.35     -1.18
    3   15   51      6.02      3.78
    2   15   51      0.51      0.05
    1   15   51    -12.96     -6.27
    0   15   51     -6.29     -5.45
   11   15   51      1.06     -6.72
   12   15   51      1.49     -0.98
   11   16   51     -2.33      3.09
   10   16   51     -2.62     -1.75
    9   16   51     -1.06     -5.07
    8   16   51     -5.54      9.38
    7   16   51      5.68      9.46
    6   16   51     -2.24      1.32
    5   16   51      6.04      2.37
    4   16   51     -3.23     -2.31
    3   16   51     -2.16      5.57
    2   16   51     -7.02      9.63
    1   16   51      0.12      0.87
    0   16   51      2.47      6.64
    9   17   51      2.65     -4.22
    8   17   51      1.75      0.58
    7   17   51      0.84      2.20
    6   17   51      9.42      6.40
    5   17   51     -1.84      2.74
    4   17   51     -2.09      6.57
    3   17   51      5.24      5.40
    2   17   51      9.09      3.61
    1   17   51      7.83     -2.07
    0   17   51      0.48      4.98
    7   18   51      7.30     -0.37
    6   18   51     -3.76     -1.56
    5   18   51      3.71      6.69
    4   18   51      1.96      4.25
    3   18   51     13.94      6.61
    2   18   51      1.18     -0.47
    1   18   51      7.36     -1.32
    0   18   51     -1.75     -4.55
    4   19   51     -4.10      7.24
    3   19   51     -6.52      5.98
    2   19   51      0.32      1.14
    1   19   51     12.16     -9.23
    0   19   51      2.53     -8.63
    0    0   52    114.73     -1.55
    1    1   52     11.93     37.16
    0    1   52     16.02      0.47
    2    2   52     26.95     14.32
    1    2   52    -13.77     -2.64
    0    2   52    -37.54     -3.35
    3    3   52    -35.97     -7.43
    2    3   52    -11.99     -1.52
    1    3   52     16.06    -29.56
    0    3   52    -12.22     -0.32
    4    4   52    -31.27     -6.74
    3    4   52      9.15      1.24
    2    4   52     -1.89    -17.80
    1    4   52     14.94     14.10
    0    4   52      7.21     -9.27
    5    5   52      1.40    -17.37
    4    5   52      3.10      2.12
    3    5   52      3.90      5.18
    2    5   52      5.51     11.33
    1    5   52     -2.29     36.36
    0    5   52     41.63     -4.85
    6    6   52      3.13      1.87
    5    6   52      0.16     -5.11
    4    6   52     14.82     47.24
    3    6   52      0.61     -5.71
    2    6   52     22.93      8.63
    1    6   52     -8.93     -5.67
    0    6   52     58.69      0.73
    7    7   52     -9.26     18.41
    6    7   52      6.11      5.47
    5    7   52      4.31     10.75
    4    7   52    -11.33     -5.32
    3    7   52      1.09    -15.31
    2    7   52     -2.97      5.67
    1    7   52     55.80    -27.83
    0    7   52     -6.14      0.26
    8    8   52     -2.96     18.67
    7    8   52     -5.39     -2.94
    6    8   52    -17.12     11.38
    5    8   52     -4.09     -8.06
    4    8   52     -0.23      0.34
    3    8   52     -6.61     -4.79
    2    8   52     30.87    -15.76
    1    8   52      1.85     11.95
    0    8   52      7.54      2.83
    9    9   52     -6.84    -27.24
    8    9   52      5.93      5.62
    7    9   52    -13.04      1.71
    6    9   52     -6.00     -3.20
    5    9   52     -1.28     10.25
    4    9   52     -2.16     -4.02
    3    9   52     14.32     15.02
    2    9   52     15.03      0.58
    1    9   52     14.95     -4.65
    0    9   52     -6.21      1.83
   10   10   52      9.63    -12.44
    9   10   52     -1.89      0.62
    8   10   52     -9.73    -12.44
    7   10   52     11.93      5.04
    6   10   52     -2.05     20.72
    5   10   52      1.49     -5.97
    4   10   52    -14.78      0.15
    3   10   52     -2.42      4.81
    2   10   52     -1.68     -5.86
    1   10   52    -10.20     14.95
    0   10   52     21.27      0.49
   11   11   52    -11.70      6.56
   10   11   52      6.25      2.93
    9   11   52      7.90      0.00
    8   11   52      4.29      5.26
    7   11   52     -4.48     -6.87
    6   11   52      1.52      1.37
    5   11   52     -3.12      7.53
    4   11   52     -6.46      4.12
    3   11   52    -14.25    -11.00
    2   11   52     16.40     10.29
    1   11   52      8.41      3.04
    0   11   52     10.52      3.24
   12   12   52      1.35      7.27
   11   12   52     -2.39      6.58
   10   12   52     -1.91    -12.70
    9   12   52      5.76     -0.66
    8   12   52     -6.40      2.42
    7   12   52      3.81    -10.00
    6   12   52    -11.63     19.77
    5   12   52    -12.68      6.42
    4   12   52     12.03     -1.14
    3   12   52     15.36     -9.50
    2   12   52      3.74     -8.08
    1   12   52      2.51      0.84
    0   12   52     11.45     -0.71
   12   13   52     -0.59     -4.72
   11   13   52     -0.44     -4.96
   10   13   52     -6.12      5.61
    9   13   52     -0.13     -2.88
    8   13   52     -3.93     -2.71
    7   13   52     -6.56      0.62
    6   13   52      6.69     -4.27
    5   13   52     15.40      0.25
    4   13   52    -11.85     -4.00
    3   13   52    -12.76     -7.35
    2   13   52      7.85     -1.32
    1   13   52     15.37     -5.80
    0   13   52     -8.73     -0.18
   13   13   52     -3.71      4.19
   13   14   52     10.44      0.65
   12   14   52    -12.83      9.03
   11   14   52      3.84      1.69
   10   14   52      2.13     -6.37
    9   14   52      3.10     -1.39
    8   14   52     -1.65     -4.71
    7   14   52      2.72    -11.85
    6   14   52      1.31    -15.82
    5   14   52    -10.27     -6.38
    4   14   52      9.97     -0.45
    3   14   52    -14.80     -6.75
    2   14   52     -7.39    -12.72
    1   14   52      2.78     11.43
    0   14   52      4.91      0.87
   12   15   52     -2.33      4.54
   11   15   52      9.98      4.51
   10   15   52      2.66     -8.82
    9   15   52     -2.12     -0.52
    8   15   52     -8.88     -0.03
    7   15   52      4.45      4.20
    6   15   52     -7.08      4.26
    5   15   52     -4.99     -2.11
    4   15   52     -3.37     -9.14
    3   15   52     -3.27     -2.44
    2   15   52     -2.90      2.22
    1   15   52     -5.05     -5.95
    0   15   52     -5.35      1.63
   10   16   52      1.21     -2.07
    9   16   52     -5.03      1.29
    8   16   52      6.49      3.83
    7   16   52      0.89     -0.68
    6   16   52      2.94     -0.18
    5   16   52     -8.34     -1.85
    4   16   52     -6.05     -5.44
    3   16   52      4.85      3.14
    2   16   52     -4.22      7.81
    1   16   52     11.09     -2.64
    0   16   52    -11.76      1.24
    9   17   52      5.83     -5.18
    8   17   52      1.16     -8.10
    7   17   52      0.02      3.77
    6   17   52     -1.26      0.90
    5   17   52      4.24      6.66
    4   17   52      0.87      3.30
    3   17   52      1.73      1.53
    2   17   52      4.61      1.02
    1   17   52     -2.92     -3.77
    0   17   52     -1.74     -2.57
    6   18   52     -0.74      0.54
    5   18   52      1.17     -4.55
    4   18   52      2.61     -1.14
    3   18   52      4.25     -8.93
    2   18   52     -2.02     -2.00
    1   18   52      1.47    -11.46
    0   18   52      2.14     -0.51
    7   18   52      4.98     -6.49
    3   19   52     13.30     -2.48
    2   19   52      4.24     -9.51
    1   19   52      1.51      5.31
    0   19   52     -3.50     -2.71
    0    1   53      4.59     31.24
    1    2   53     55.96     19.57
    0    2   53     17.53      0.17
    2    3   53     14.49    -14.94
    1    3   53     -9.16     32.54
    0    3   53     -1.14    -11.82
    3    4   53     12.27      1.52
    2    4   53      5.92      4.42
    1    4   53    -42.58     -4.60
    0    4   53    -19.77     19.20
    4    5   53     -3.57      4.71
    3    5   53     -6.51      0.70
    2    5   53     26.45      4.40
    1    5   53    -14.03    -26.49
    0    5   53      7.87    -41.10
    5    6   53    -11.51     -7.62
    4    6   53    -13.25    -16.34
    3    6   53     32.47    -17.60
    2    6   53      8.73     -7.87
    1    6   53     28.19    -17.27
    0    6   53    -12.88     -3.53
    6    7   53    -19.36    -14.99
    5    7   53      7.51    -14.55
    4    7   53      6.28      5.27
    3    7   53     -4.19      1.67
    2    7   53      9.09     -8.83
    1    7   53      5.96      7.58
    0    7   53     -4.13      3.80
    7    8   53      5.40      9.49
    6    8   53     13.23      1.19
    5    8   53    -20.14    -26.17
    4    8   53      1.00     -1.05
    3    8   53     -1.19      6.73
    2    8   53     -8.99     14.85
    1    8   53      8.72      4.17
    0    8   53      1.43    -19.99
    8    9   53      5.08     14.45
    7    9   53      9.19     -8.73
    6    9   53     16.20     -8.23
    5    9   53     12.16      5.12
    4    9   53    -20.35     -0.29
    3    9   53      8.54     12.10
    2    9   53      1.13      4.97
    1    9   53      2.43      5.08
    0    9   53     -1.84      8.88
    9   10   53     10.90      4.45
    8   10   53      4.78     -9.69
    7   10   53     12.63     -0.47
    6   10   53     14.35      1.32
    5   10   53    -16.00      3.07
    4   10   53      2.55      8.00
    3   10   53      7.44    -18.22
    2   10   53      4.55      8.49
    1   10   53     -5.25    -10.94
    0   10   53     -0.75     -0.49
    9   11   53    -12.44      1.84
    8   11   53      4.00     -1.17
    7   11   53      5.56     10.53
    6   11   53    -17.61     -8.71
    5   11   53     17.18     -9.87
    4   11   53     -8.99    -13.92
    3   11   53    -23.09      5.49
    2   11   53      5.58    -10.15
    1   11   53     -2.69    -15.11
    0   11   53     -2.58      4.41
   10   11   53      5.28     -0.46
   11   12   53     -2.36    -10.87
   10   12   53      0.18      4.69
    9   12   53     -0.68      1.23
    8   12   53    -11.96      4.07
    7   12   53     14.90      3.08
    6   12   53     15.03     -6.31
    5   12   53      8.92    -17.84
    4   12   53      7.77    -15.13
    3   12   53     -3.64     -8.49
    2   12   53     -1.14      4.91
    1   12   53      1.29    -20.42
    0   12   53     -1.31     -1.03
   12   13   53     -1.72     -0.49
   11   13   53      5.00     -1.41
   10   13   53     -5.18      1.29
    9   13   53     -3.86    -11.84
    8   13   53     -6.62      9.15
    7   13   53      3.47     -9.05
    6   13   53     20.87     -6.94
    5   13   53      9.13     -4.91
    4   13   53    -19.72    -11.55
    3   13   53     -6.90      5.26
    2   13   53      5.53      2.68
    1   13   53     -3.56      4.64
    0   13   53     -1.08     -1.38
   13   14   53    -10.55      0.25
   12   14   53      3.40     -2.68
    9   14   53     -1.76      2.71
    8   14   53    -11.62    -17.08
    7   14   53    -19.75     -3.14
    6   14   53      4.41     -4.18
    5   14   53     -1.08     -2.86
    4   14   53      3.04      1.12
    3   14   53      0.94      0.92
    2   14   53     -0.53      6.12
    1   14   53     15.57     -7.79
    0   14   53     -1.26      8.64
   10   14   53      1.88     -3.95
   11   14   53     -4.67      7.41
   10   15   53      4.44      0.05
    8   15   53      4.84      6.04
    7   15   53     -1.48     -5.63
    6   15   53     -8.45      0.73
    5   15   53      7.02     10.21
    4   15   53      1.15     -4.38
    3   15   53    -16.47      7.45
    2   15   53     -2.49      3.74
    1   15   53      3.71      6.64
    0   15   53      3.60      3.80
    9   15   53     -7.38     -5.32
   11   15   53      2.71      0.66
   10   16   53     -1.45     -0.83
    9   16   53     -1.49      9.06
    8   16   53      4.64      5.83
    7   16   53      1.55     -2.03
    6   16   53     14.22     -0.65
    5   16   53     -9.85     -8.58
    4   16   53     -4.84      5.40
    3   16   53    -12.57     -4.24
    2   16   53     -1.99      2.98
    1   16   53      6.09     -5.84
    0   16   53      1.18     -3.31
    8   17   53     -8.10      6.05
    7   17   53      6.47     -1.06
    6   17   53     -2.23      3.79
    5   17   53      7.62     -2.31
    4   17   53      6.43     -1.78
    3   17   53    -10.93     -1.06
    2   17   53     -6.63      3.43
    1   17   53     -4.52      3.56
    0   17   53      0.25      1.86
    9   17   53     -3.57      2.61
    6   18   53      9.71     -2.53
    5   18   53     -2.50     -4.29
    4   18   53     -5.22     -4.27
    3   18   53     -5.16      1.35
    2   18   53     -5.32      5.83
    1   18   53    -13.02      4.80
    0   18   53      1.04     -0.79
    3   19   53      0.23     -4.77
    2   19   53     -0.55      2.21
    1   19   53     -2.32      6.20
    0    0   54     51.91     -6.55
    1    1   54     20.14    -43.89
    0    1   54    -21.71      1.47
    2    2   54    -44.70     -9.32
    1    2   54     22.97     23.85
    0    2   54     17.44     -1.28
    3    3   54    -14.44      0.15
    2    3   54     10.42      9.22
    1    3   54      9.10     20.37
    0    3   54      1.95      1.09
    4    4   54     -2.82      0.57
    3    4   54    -14.21      6.34
    2    4   54     15.48      4.16
    1    4   54    -20.10     12.51
    0    4   54     20.30      1.91
    5    5   54      2.63      0.62
    4    5   54      5.50     -3.59
    3    5   54     12.96     -5.76
    2    5   54     -0.98      6.74
    1    5   54     17.99    -29.47
    0    5   54    -11.95      7.49
    6    6   54      2.72      8.68
    5    6   54    -15.04      0.04
    4    6   54     -7.53    -22.73
    3    6   54      7.18      7.10
    2    6   54      8.35     15.13
    1    6   54      7.80      0.71
    0    6   54    -23.64     -0.63
    7    7   54     19.95     -5.25
    6    7   54     -6.35     -0.03
    5    7   54     -1.81      3.30
    4    7   54      8.61      0.59
    3    7   54    -13.91     22.29
    2    7   54     -9.24     13.72
    1    7   54     -9.44     12.86
    0    7   54    -13.29     -5.15
    8    8   54     12.99     -8.81
    7    8   54      5.02      2.29
    6    8   54     20.10      4.25
    5    8   54      0.57      7.10
    4    8   54     -1.04      0.90
    3    8   54      6.59     -0.63
    2    8   54    -12.68      7.66
    1    8   54      0.16     -2.66
    0    8   54     -8.23      0.38
    9    9   54     37.11     -1.49
    8    9   54     -1.60     -8.96
    7    9   54     13.72     -3.78
    6    9   54      5.79      0.45
    5    9   54      9.40    -13.64
    4    9   54      2.28      3.70
    3    9   54     -0.47     -3.44
    2    9   54     10.31      0.44
    1    9   54     -1.36     19.40
    0    9   54     12.15      0.71
   10   10   54     -7.42     14.85
    9   10   54     -7.37      0.89
    8   10   54     26.01     -1.94
    7   10   54    -14.58     -2.90
    6   10   54     -1.30     -2.03
    5   10   54      2.01     12.61
    4   10   54     -9.28    -15.81
    3   10   54     -2.49     -6.54
    2   10   54      9.86      4.04
    1   10   54     -2.17     -7.66
    0   10   54    -14.91     -0.81
   11   11   54     -3.71      6.24
   10   11   54     -5.89      3.47
    9   11   54      4.91     -6.20
    8   11   54     -2.70      5.86
    7   11   54      0.87     13.21
    6   11   54      6.38     -6.30
    5   11   54     -3.88    -11.55
    4   11   54    -12.79     -2.07
    3   11   54     14.03      7.03
    2   11   54     -1.98     -9.54
    1   11   54     10.80     -4.87
    0   11   54    -22.30      1.07
   12   12   54      8.19    -12.56
   11   12   54      4.15     -1.01
   10   12   54      2.81     10.16
    9   12   54     -8.37     -0.62
    8   12   54     -2.86    -12.33
    7   12   54      8.67      2.33
    6   12   54     -1.18    -12.25
    5   12   54     -2.93     -1.98
    4   12   54     -1.00    -10.65
    3   12   54    -16.23      5.42
    2   12   54      8.86      7.77
    1   12   54      4.75     -0.28
    0   12   54     -6.07      1.55
   11   13   54      0.84      6.24
   10   13   54      0.16     -0.79
    9   13   54      6.11     -2.40
    8   13   54     -2.11     -4.62
    7   13   54      7.33     -1.82
    6   13   54      7.49     -0.50
    5   13   54    -11.94    -14.14
    4   13   54      9.65     -7.90
    3   13   54      8.09     -1.11
    2   13   54     -2.71      5.19
    1   13   54     -0.16      9.99
    0   13   54     -2.26      2.54
   12   13   54      2.99     -0.62
   13   13   54      8.57     -1.33
   10   14   54      2.54      1.45
    9   14   54     -2.64      5.05
    8   14   54      3.64     -2.78
    7   14   54      4.01      7.72
    6   14   54     -3.07      9.37
    5   14   54      1.61      2.86
    4   14   54     -1.85     -4.16
    3   14   54     -1.03      0.39
    2   14   54     10.77      9.02
    1   14   54     11.70    -14.39
    0   14   54      7.61     -2.59
   11   14   54      2.76      6.92
   12   14   54      2.05     -5.08
   13   14   54    -13.52     -3.19
   10   15   54    -13.07      7.69
    9   15   54     -2.11      2.31
    8   15   54      1.25     -0.76
    7   15   54     -5.59      0.23
    6   15   54     -0.84     -2.62
    5   15   54     10.22      4.17
    4   15   54     -2.01     10.57
    3   15   54      4.46     -7.86
    2   15   54      4.04     -2.54
    1   15   54     10.31      8.47
    0   15   54      4.44      3.38
   11   15   54     -6.15      2.77
   10   16   54      4.16      5.73
    9   16   54      3.21      2.66
    8   16   54     -4.01      1.49
    7   16   54      1.52      0.88
    6   16   54     -3.99     -1.90
    5   16   54      7.71     -3.35
    4   16   54     -0.06     -1.16
    3   16   54    -11.83      5.26
    2   16   54      0.99     -0.60
    1   16   54      3.28     10.88
    0   16   54      1.96     -0.02
    8   17   54     -2.93      6.19
    7   17   54     -0.66      0.38
    6   17   54      4.15     -5.48
    5   17   54     -3.47     -2.64
    4   17   54     -2.52     -9.43
    3   17   54     -5.10     -5.14
    2   17   54     -5.96      5.38
    1   17   54     -0.20      0.09
    0   17   54      5.63     -1.77
    6   18   54      2.01     -1.85
    5   18   54     -2.05     -3.10
    4   18   54     -1.86     -9.87
    3   18   54      3.91      5.16
    2   18   54     -3.77      1.59
    1   18   54      4.64     15.46
    0   18   54     -4.37      0.26
    2   19   54     -1.81      5.22
    1   19   54     -0.84     -1.66
    0   19   54      5.67      2.67
    0    1   55      1.69    -40.85
    1    2   55    -63.59      0.02
    0    2   55     -3.85     35.34
    2    3   55     11.82      5.13
    1    3   55     29.73      6.99
    0    3   55      0.75     52.50
    3    4   55     34.82     20.86
    2    4   55    -22.78     -7.59
    1    4   55     16.63    -10.24
    0    4   55      7.35     10.29
    4    5   55    -13.87    -13.45
    3    5   55     18.12     -0.39
    2    5   55    -13.05     -1.70
    1    5   55    -14.28     -1.06
    0    5   55     -0.01     18.92
    5    6   55    -11.23     10.85
    4    6   55      3.14     -8.89
    3    6   55    -12.82    -18.38
    2    6   55      5.87      9.92
    1    6   55    -17.03      5.54
    0    6   55      7.31     24.76
    6    7   55      0.50     11.50
    5    7   55     13.50     19.68
    4    7   55    -13.90     10.11
    3    7   55     -5.70      9.58
    2    7   55      2.51    -17.65
    1    7   55    -15.04     -3.02
    0    7   55      5.63    -37.88
    7    8   55     13.60      3.66
    6    8   55      0.25      6.65
    5    8   55     -9.96     10.07
    4    8   55      3.68     -1.05
    3    8   55     11.25     -7.66
    2    8   55     -7.67    -14.54
    1    8   55     -4.37     -4.80
    0    8   55     -5.34      8.04
    8    9   55     -3.39    -12.01
    7    9   55     -9.12      7.31
    6    9   55     -9.37     10.56
    5    9   55     25.21     -6.23
    4    9   55     10.17      7.20
    3    9   55     -7.67    -14.56
    2    9   55     -0.12     -6.63
    1    9   55      9.20    -18.88
    0    9   55      0.43     -3.25
    9   10   55     -5.14    -10.44
    8   10   55     -5.53      5.18
    7   10   55     -1.36     10.86
    6   10   55      0.04    -15.17
    5   10   55     17.06      5.03
    4   10   55     11.54     12.96
    3   10   55      6.90     16.71
    2   10   55     -0.67      8.59
    1   10   55    -10.03     13.15
    0   10   55     -3.17     -1.60
   10   11   55      4.28      4.09
    9   11   55      0.11     -5.71
    8   11   55     -1.88      2.67
    7   11   55      1.36    -12.96
    6   11   55     21.78     -3.27
    5   11   55     -9.47      8.69
    4   11   55      5.15     -2.20
    3   11   55     -3.34      0.39
    2   11   55     14.84      9.58
    1   11   55    -18.21      7.97
    0   11   55      2.67     -7.69
   11   12   55      2.81      6.25
   10   12   55      4.83     -6.08
    9   12   55      6.80      5.10
    8   12   55     -6.94     -9.09
    7   12   55     -4.02     -6.77
    6   12   55    -17.84      7.61
    5   12   55      4.75      9.78
    4   12   55      2.41     22.86
    3   12   55      5.80      8.61
    2   12   55    -10.80     -6.02
    1   12   55     -1.87     -0.05
    0   12   55     -0.87     -7.54
   11   13   55     -5.50      0.46
   10   13   55      1.75    -11.96
    9   13   55     -6.88      6.52
    8   13   55      7.54    -15.04
    7   13   55      1.34     10.92
    6   13   55    -16.71      9.15
    5   13   55     -9.73      1.09
    4   13   55     10.52      2.77
    3   13   55     11.06     -2.85
    2   13   55    -21.48     -3.42
    1   13   55    -10.02      6.12
    0   13   55     -1.91      3.12
   12   13   55      4.08      3.47
   11   14   55      7.33     -1.17
   10   14   55     -2.56     -7.89
    9   14   55     -6.60     -7.64
    8   14   55      8.10      4.99
    7   14   55      1.49      4.83
    6   14   55     -2.36     -2.81
    5   14   55     -3.26    -15.45
    4   14   55     -0.72      4.81
    3   14   55     -0.76    -15.94
    2   14   55    -10.10      5.57
    1   14   55    -15.49      4.52
    0   14   55      2.20    -21.32
   12   14   55     -2.24      1.74
   11   15   55      3.86      5.76
   10   15   55      1.94      7.81
    9   15   55      9.54      1.27
    8   15   55     -0.53     -7.95
    7   15   55      4.04      1.69
    6   15   55      4.92      1.01
    5   15   55      2.46      3.94
    4   15   55      8.59    -11.07
    3   15   55     15.46      0.19
    2   15   55     -3.77    -11.40
    1   15   55    -12.31      3.74
    0   15   55     -0.30    -16.83
   10   16   55      8.25     -1.19
    9   16   55     -0.85     -7.46
    8   16   55      2.30     -7.61
    7   16   55     -0.83     -5.68
    6   16   55     -4.35     10.14
    5   16   55     -1.28      1.98
    4   16   55      7.96      2.00
    3   16   55     -1.61      0.40
    2   16   55      4.92     -1.90
    1   16   55      1.93      3.31
    0   16   55     -8.41     -1.86
    7   17   55     -8.11      3.15
    6   17   55     -0.57     -0.62
    5   17   55     -1.16      1.39
    4   17   55     -1.99     -2.91
    3   17   55      5.75     -5.02
    2   17   55      2.86     -0.49
    1   17   55      7.98     -3.43
    0   17   55     -1.00    -11.70
    8   17   55     -1.92    -11.21
    5   18   55     -1.00      1.73
    4   18   55      5.80     -0.31
    3   18   55      6.52     -1.72
    2   18   55     -1.87     -7.02
    1   18   55      3.55     -9.02
    0   18   55     -0.91      1.69
    6   18   55    -16.94     -9.10
    0   19   55      0.80     -0.97
    0    0   56     53.25     -3.12
    1    1   56    -41.73     51.23
    0    1   56    -11.94      3.50
    2    2   56    -19.20      7.07
    1    2   56      9.06    -17.77
    0    2   56    -32.03      1.09
    3    3   56    -38.67     22.15
    2    3   56     -2.41    -16.63
    1    3   56      3.13    -16.27
    0    3   56    -18.25      6.06
    4    4   56    -43.29      0.45
    3    4   56     14.48      4.16
    2    4   56      5.31    -11.29
    1    4   56     -9.23     -1.53
    0    4   56    -39.40      2.85
    5    5   56    -11.27     25.21
    4    5   56    -11.23     -5.77
    3    5   56    -29.17    -10.46
    2    5   56     -3.75     -1.95
    1    5   56    -44.97     18.25
    0    5   56     16.14    -12.79
    6    6   56     -5.40     -8.04
    5    6   56     12.42     -3.49
    4    6   56     -6.92      5.30
    3    6   56      7.94    -11.70
    2    6   56     -7.28     -1.04
    1    6   56    -10.14     -4.70
    0    6   56      5.48      1.50
    7    7   56     -1.18      1.75
    6    7   56      5.29     -6.01
    5    7   56     -4.07     12.91
    4    7   56     -3.38     -8.27
    3    7   56     15.36    -29.28
    2    7   56      6.07      2.59
    1    7   56     20.40     -3.99
    0    7   56      4.76      5.26
    8    8   56     12.27     11.18
    7    8   56     -2.32      0.87
    6    8   56    -23.60      3.20
    5    8   56      3.37      2.05
    4    8   56     -0.62     -1.21
    3    8   56      0.26     14.72
    2    8   56     -6.07     -0.32
    1    8   56      5.71    -11.30
    0    8   56     24.74      1.84
    9    9   56    -16.41     10.76
    8    9   56     -6.73     11.62
    7    9   56    -16.33      3.78
    6    9   56     -9.23     -5.93
    5    9   56    -11.63      9.44
    4    9   56     -4.09    -10.05
    3    9   56      6.85     19.06
    2    9   56      8.13      7.61
    1    9   56     -2.30     -8.30
    0    9   56    -29.59      0.36
    9   10   56    -10.38      1.62
    8   10   56    -18.47      3.08
    7   10   56      1.02      3.63
    6   10   56      5.77     -5.59
    5   10   56     -4.05     -6.03
    4   10   56     18.34      3.78
    3   10   56     -8.01     -3.21
    2   10   56     -4.45     -9.59
    1   10   56      1.03     -6.90
    0   10   56      8.17     -0.19
   10   10   56     -6.92     -1.81
   11   11   56      5.51     -0.32
   10   11   56     -4.08      1.20
    9   11   56      1.12      8.95
    8   11   56      0.83     -8.91
    7   11   56     -7.74     -2.85
    6   11   56     -8.95      0.20
    5   11   56      7.98      0.68
    4   11   56      6.27     12.43
    3   11   56    -15.05      0.15
    2   11   56     -9.47      7.26
    1   11   56      8.80    -10.78
    0   11   56      0.55      6.20
   11   12   56      4.81      5.24
   10   12   56     -0.01     -3.72
    9   12   56      4.79     -1.51
    8   12   56     11.73      0.83
    7   12   56     -9.36     -4.93
    6   12   56     -4.66      6.54
    5   12   56      2.97      1.28
    4   12   56     -1.90     -3.33
    3   12   56     12.13     -7.92
    2   12   56     -8.73      1.58
    1   12   56     -1.33      1.09
    0   12   56    -17.77     -0.27
   12   12   56    -18.15     -2.18
   12   13   56      6.40      6.29
   11   13   56      1.93     -3.81
   10   13   56     -1.74     -0.70
    9   13   56     -3.09      4.71
    8   13   56      0.40      5.51
    7   13   56     -2.47      7.01
    6   13   56     -7.17      2.36
    5   13   56      8.27      2.01
    4   13   56     10.63     17.35
    3   13   56     -2.73     14.46
    2   13   56     -3.46     -0.91
    1   13   56      0.32     -6.69
    0   13   56     11.80      2.62
   13   13   56     -4.76     -1.20
   11   14   56     -5.91     -2.90
   10   14   56      1.60     11.74
    9   14   56      2.36      5.21
    8   14   56     -0.81     -0.36
    7   14   56     -4.03      1.48
    6   14   56     -1.79      0.35
    5   14   56     -2.55      6.28
    4   14   56      3.00      4.12
    3   14   56     -0.13      5.52
    2   14   56      2.91     -7.61
    1   14   56    -16.27      2.32
    0   14   56      2.02      1.46
   11   15   56      3.78     -9.06
   10   15   56      8.25      0.14
    9   15   56      1.56     -5.06
    8   15   56     -0.63     -7.70
    7   15   56      9.38     -4.48
    6   15   56     -0.22      3.57
    5   15   56     -4.03    -12.65
    4   15   56      7.79    -16.61
    3   15   56      5.86      1.86
    2   15   56    -11.05      3.74
    1   15   56     -4.76     -2.07
    0   15   56     -6.46    -10.17
   10   16   56     -0.42     -2.05
    9   16   56     -5.20    -13.72
    8   16   56      0.23     -0.52
    7   16   56     -0.98     -8.47
    6   16   56      1.44      5.25
    5   16   56      1.57     -6.67
    4   16   56     -0.10     -0.80
    3   16   56      0.90     -6.15
    2   16   56     -4.43      1.73
    1   16   56     -5.24    -19.00
    0   16   56      2.06     -1.12
    8   17   56      4.22     -4.29
    7   17   56      4.14     -5.19
    6   17   56     -3.19      1.41
    5   17   56      1.76      2.17
    4   17   56      6.79      2.64
    3   17   56      3.57      5.58
    2   17   56      8.05    -12.15
    1   17   56      2.70      1.04
    0   17   56     -3.57      3.33
    5   18   56     -4.89      1.89
    4   18   56      1.40     10.78
    3   18   56     -8.92    -10.78
    2   18   56      4.54      7.17
    1   18   56     -1.14     -5.74
    0   18   56     -2.25     -0.97
    0    1   57     -1.13    -34.12
    1    2   57      5.36    -26.32
    0    2   57      0.32    -32.36
    2    3   57    -27.27      8.45
    1    3   57    -10.21    -10.44
    0    3   57      2.79    -38.34
    3    4   57      0.10      5.62
    2    4   57     -8.81      1.46
    1    4   57     -7.44      3.18
    0    4   57     -4.01     -6.59
    4    5   57     15.74     -6.55
    3    5   57     13.94     18.91
    2    5   57     -3.41      9.73
    1    5   57      9.41    -11.85
    0    5   57     -4.28     21.70
    5    6   57     -7.69      1.64
    4    6   57     -5.00     -0.60
    3    6   57    -17.33      9.37
    2    6   57     30.30      7.31
    1    6   57    -16.58      4.80
    0    6   57     -8.63      0.83
    6    7   57    -14.29      4.09
    5    7   57     -0.77      4.76
    4    7   57     19.66     15.47
    3    7   57      2.36      1.19
    2    7   57     -9.27     13.04
    1    7   57     -0.86     13.45
    0    7   57     -1.90     31.54
    7    8   57    -11.61     -0.71
    6    8   57     -1.54    -14.47
    5    8   57     13.87     -5.55
    4    8   57      6.00     13.80
    3    8   57      5.11      3.21
    2    8   57      2.52     12.60
    1    8   57     -5.02     20.37
    0    8   57     -3.92    -37.00
    8    9   57      1.38      5.85
    7    9   57      1.93     -7.12
    6    9   57     10.02    -13.02
    5    9   57     -6.39     -0.78
    4    9   57    -13.69      1.58
    3    9   57     -3.47      7.28
    2    9   57     -0.96    -28.60
    1    9   57     14.00     19.39
    0    9   57      0.45     -0.86
    9   10   57      4.96     -1.08
    8   10   57      7.17     -1.20
    7   10   57     -1.61     10.88
    6   10   57    -18.13     10.94
    5   10   57    -20.21      4.89
    4   10   57      9.49     -1.41
    3   10   57    -11.08    -10.26
    2   10   57      1.45      0.07
    1   10   57     -8.33     -4.89
    0   10   57      3.79     20.92
   10   11   57     -1.63     -4.58
    9   11   57      3.38      3.44
    8   11   57      2.89      4.15
    7   11   57     -6.17      6.49
    6   11   57      0.82      6.40
    5   11   57      6.16     -1.18
    4   11   57      4.62     19.54
    3   11   57     -5.38      3.60
    2   11   57      4.65     -5.54
    1   11   57     18.41      0.94
    0   11   57     -2.57     14.40
   11   12   57     -4.39     -2.30
   10   12   57     -1.54      5.55
    9   12   57      2.29     -5.59
    8   12   57      8.09      0.64
    7   12   57     -0.75      9.20
    6   12   57     10.46     -4.78
    5   12   57      0.10     10.22
    4   12   57    -10.90      0.34
    3   12   57      9.03     -6.58
    2   12   57     -4.44     -6.87
    1   12   57      2.83     12.22
    0   12   57     -3.76    -12.29
   12   13   57     -4.91     -6.66
   11   13   57      3.52     -2.26
   10   13   57     -2.29      1.47
    9   13   57      5.33     -6.21
    8   13   57     -1.66      7.73
    7   13   57     -2.40    -10.64
    6   13   57      5.27     -2.24
    5   13   57      1.81     -4.23
    4   13   57    -11.85     -3.29
    3   13   57     -0.24     -2.02
    2   13   57     20.34     -0.67
    1   13   57      3.35     -7.69
    0   13   57      2.75     -0.53
   10   14   57      8.89      0.87
    9   14   57     -3.50      1.96
    8   14   57     -1.42     -3.67
    7   14   57     -2.23    -11.12
    6   14   57     14.07      2.01
    5   14   57      2.83     11.69
    4   14   57     -1.17      2.99
    3   14   57      0.83      9.96
    2   14   57      0.42     -4.74
    1   14   57     24.15     -3.51
    0   14   57     -1.91     21.68
   11   14   57     -7.51     -3.70
   12   14   57     -2.48     -0.38
   10   15   57      0.12     -0.74
    9   15   57     -0.59      1.62
    8   15   57      0.44      1.71
    7   15   57     -1.26      2.68
    6   15   57     -2.15     -1.58
    5   15   57     -4.30      6.35
    4   15   57     -8.98     11.56
    3   15   57    -12.58     -4.82
    2   15   57      3.04     10.06
    1   15   57      3.13      3.12
    0   15   57     -0.96      7.09
   11   15   57     -0.21     -4.98
    9   16   57      4.49      8.08
    8   16   57     -5.18      2.60
    6   16   57      3.78    -12.88
    5   16   57      0.35     -1.09
    4   16   57     -1.17     10.62
    3   16   57     -1.62      6.58
    2   16   57     -6.79      3.30
    1   16   57     -2.98     -1.80
    0   16   57      1.44     -6.01
    7   16   57      7.19      9.89
    7   17   57      1.41     -5.38
    6   17   57     -0.53      1.76
    5   17   57      7.20     -3.02
    4   17   57     -2.05     -1.37
    3   17   57     -5.06     -0.31
    2   17   57      0.76     -2.05
    1   17   57     -7.02      3.01
    0   17   57      0.67     12.42
    5   18   57     -1.73     -1.54
    4   18   57     -4.24      4.02
    3   18   57     -3.64      4.46
    2   18   57      2.73     -2.74
    1   18   57      9.91      7.93
    0   18   57      0.54     -0.41
    0    0   58     24.41      6.16
    1    1   58      2.06    -30.54
    0    1   58     46.81     -1.20
    2    2   58     14.36    -33.04
    1    2   58     -3.32     11.00
    0    2   58    -23.81     -2.33
    3    3   58     31.89    -35.09
    2    3   58    -39.84      8.64
    1    3   58     13.01     15.47
    0    3   58    -12.99      1.44
    4    4   58     36.52      7.32
    3    4   58    -30.76     -6.88
    2    4   58     12.62     -3.47
    1    4   58     -3.06     -2.08
    0    4   58     61.25      0.63
    5    5   58      8.25     -1.77
    4    5   58      4.66      5.70
    3    5   58     23.27     18.61
    2    5   58     -5.27    -10.95
    1    5   58     31.38     -1.21
    0    5   58     13.50     20.02
    6    6   58     -3.58    -19.95
    5    6   58    -12.24     -3.70
    4    6   58     -0.97     14.94
    3    6   58     -0.90     15.99
    2    6   58     -0.34      2.81
    1    6   58     11.18     -5.27
    0    6   58      7.13     -1.38
    7    7   58     -0.66     -1.18
    6    7   58      4.35      1.77
    5    7   58    -13.48      3.57
    4    7   58      2.81     -4.26
    3    7   58     15.02      2.88
    2    7   58     -5.71      1.30
    1    7   58      8.11    -23.18
    0    7   58     -9.17      0.32
    8    8   58    -23.77     -9.80
    7    8   58      0.58     -0.95
    6    8   58     14.15     -0.12
    5    8   58      1.24      3.50
    4    8   58      9.06     -2.19
    3    8   58    -10.48     -6.36
    2    8   58     44.43     -0.94
    1    8   58      2.20    -25.47
    0    8   58     17.20      0.35
    9    9   58     16.28    -11.82
    8    9   58     -5.78     -4.40
    7    9   58      2.23    -12.41
    6    9   58      1.06    -10.76
    5    9   58     -0.56     -3.57
    4    9   58     -5.61      5.87
    3    9   58     -0.32    -11.96
    2    9   58      7.27     -1.12
    1    9   58     -1.32      5.15
    0    9   58     -3.16      2.45
   10   10   58      8.07      0.36
    9   10   58    -11.31     -1.89
    8   10   58      6.90    -11.11
    7   10   58    -13.02     -0.41
    6   10   58     -9.30     23.03
    5   10   58      0.41     -3.38
    4   10   58    -12.93     -1.20
    3   10   58      6.79     -4.42
    2   10   58      7.77      0.22
    1   10   58      1.21     12.25
    0   10   58      1.51     -3.01
   10   11   58     -6.65     -0.34
    9   11   58     -3.48     -7.10
    8   11   58    -10.67      5.98
    7   11   58     -6.48     11.44
    6   11   58      3.68    -12.81
    5   11   58    -11.76      5.21
    4   11   58    -10.72      7.71
    3   11   58     10.92     -1.10
    2   11   58     11.82     -8.51
    1   11   58     -1.92      8.71
    0   11   58     -9.03    -10.38
   11   11   58    -15.01      4.69
   12   12   58      5.01     -0.67
   11   12   58     -4.70     -0.63
   10   12   58     -0.72      4.33
    9   12   58     -0.84      5.50
    8   12   58     -7.86     -2.78
    7   12   58     12.13     -1.76
    6   12   58     -0.14      3.44
    5   12   58     -4.15      6.96
    4   12   58      3.89      0.95
    3   12   58     -4.31      8.38
    2   12   58     17.82      4.56
    1   12   58     -9.04      4.57
    0   12   58      3.62      0.99
   13   13   58      6.57      5.46
   11   13   58     -3.63     -5.09
   10   13   58      0.69      6.83
    9   13   58      0.33    -10.71
    8   13   58      1.05     -1.17
    7   13   58     -5.33      4.05
    6   13   58      7.07     -0.11
    5   13   58      5.14     -9.58
    4   13   58    -11.67     -9.39
    3   13   58      0.40     -6.22
    2   13   58      0.07      5.59
    1   13   58      5.11     -3.27
    0   13   58     -5.70     -2.23
   12   13   58      2.41     -6.72
   12   14   58     -4.18     -6.92
   11   14   58     -2.61     -1.45
   10   14   58      5.30     -4.44
    9   14   58    -12.06     -6.52
    8   14   58      3.71     -0.74
    7   14   58     -1.65     -6.83
    6   14   58      4.25      0.40
    5   14   58      4.91     -4.00
    4   14   58     -7.84     -6.31
    3   14   58      4.48      5.36
    2   14   58      9.77     -0.76
    1   14   58      1.87      5.11
    0   14   58     10.02     -1.12
   10   15   58     -7.82     -2.05
    9   15   58      4.07      1.49
    8   15   58      2.32     -1.81
    7   15   58     -1.12      2.33
    6   15   58     -2.73     -2.73
    5   15   58      0.45     -3.06
    4   15   58    -12.40     10.19
    3   15   58      6.59      2.74
    2   15   58      4.22     -7.80
    1   15   58      2.64     -3.65
    0   15   58      8.05      1.17
   11   15   58     -3.77      5.84
    9   16   58     -4.28      7.51
    8   16   58      3.17      3.38
    7   16   58     -4.09     -0.26
    6   16   58      0.54     -5.00
    5   16   58     -3.18      2.49
    4   16   58     -2.17     -6.38
    3   16   58      0.77      4.24
    2   16   58      8.34      1.53
    1   16   58     -5.59     10.27
    0   16   58      5.66      0.73
    7   17   58     -0.26      7.09
    6   17   58      1.66     -4.09
    5   17   58     -6.44     -3.09
    4   17   58     -4.66      1.40
    3   17   58     -5.21     -2.49
    2   17   58      4.16     15.68
    1   17   58     -9.68      2.85
    0   17   58     -2.40     -8.62
    3   18   58      9.94     14.03
    2   18   58     -5.33     -2.27
    1   18   58      4.74      0.14
    0   18   58     -2.63     -0.16
    4   18   58      0.75     -2.85
    0    1   59     -0.26     -5.77
    1    2   59      1.47    -32.94
    0    2   59      5.66     14.64
    2    3   59     14.96    -26.80
    1    3   59     13.87     -3.12
    0    3   59     -6.18     -2.96
    3    4   59      6.69      3.30
    2    4   59      1.75     -4.98
    1    4   59     12.42    -28.49
    0    4   59      0.62     -0.28
    4    5   59      4.39     21.58
    3    5   59      5.13      7.64
    2    5   59     14.73      3.35
    1    5   59     -9.70      7.69
    0    5   59      4.95    -56.56
    5    6   59     -4.43     11.26
    4    6   59    -11.73    -14.08
    3    6   59    -10.66     17.72
    2    6   59      2.60      2.40
    1    6   59     19.62    -12.30
    0    6   59      8.51    -11.29
    6    7   59    -14.26    -11.31
    5    7   59     -7.69     -6.44
    4    7   59    -16.17      7.34
    3    7   59    -12.23    -11.43
    2    7   59     16.91      2.55
    1    7   59      7.41    -19.09
    0    7   59     -2.98    -10.12
    7    8   59      8.86      8.51
    6    8   59      6.12     -1.66
    5    8   59    -14.74    -19.24
    4    8   59      6.34     -2.48
    3    8   59      2.69      9.91
    2    8   59     -9.08     -2.98
    1    8   59      8.36    -31.33
    0    8   59      1.22     15.71
    8    9   59     12.71     -3.27
    7    9   59     -4.84     -5.14
    6    9   59      2.28      7.44
    5    9   59      3.42     12.48
    4    9   59     -6.99     15.82
    3    9   59      8.45     -1.64
    2    9   59     -5.20      2.36
    1    9   59     12.18      7.25
    0    9   59      1.10    -28.29
    9   10   59      2.32     -7.85
    8   10   59     -5.66      9.93
    7   10   59      9.04      1.18
    6   10   59      3.21    -10.00
    5   10   59    -11.33    -10.42
    4   10   59     -7.61     11.86
    3   10   59     14.69     -2.61
    2   10   59     -0.38     -1.89
    1   10   59     -1.79     -8.09
    0   10   59     -7.31    -13.78
   10   11   59     -0.36      1.15
    9   11   59    -13.35      9.15
    8   11   59      5.73      4.74
    7   11   59     -6.72      2.31
    6   11   59      8.17      1.82
    5   11   59     -2.77      2.90
    4   11   59    -12.04    -18.00
    3   11   59      7.41     -4.89
    2   11   59      5.11     -3.81
    1   11   59      0.88     -1.79
    0   11   59      3.27    -13.90
   11   12   59      3.57     11.57
   10   12   59      7.55     -7.76
    9   12   59    -11.45      2.98
    8   12   59     -9.56      5.59
    7   12   59     10.24     -8.69
    6   12   59     -3.56    -11.15
    5   12   59     -2.02    -14.94
    4   12   59     12.18      4.11
    3   12   59     -4.13      9.35
    2   12   59     -7.50      4.65
    1   12   59     -2.98    -15.61
    0   12   59      9.18     10.28
   11   13   59      2.68     -5.15
   10   13   59     -6.21     -3.68
    9   13   59      4.02      7.14
    8   13   59     -0.78      2.61
    7   13   59     -4.09     -6.01
    6   13   59      7.19     -0.60
    5   13   59      6.76      3.42
    4   13   59      5.59     -8.01
    3   13   59      3.23     -2.42
    2   13   59     -6.08      4.53
    1   13   59     -0.85      2.66
    0   13   59     -5.81     -7.40
   12   13   59      6.03      5.29
   12   14   59      5.18      4.21
   10   14   59     -3.69      7.96
    9   14   59      6.15      2.96
    8   14   59     -3.52      2.28
    7   14   59      4.58     13.05
    6   14   59     -4.53     -3.76
    5   14   59      5.79     -6.86
    4   14   59     -3.03      7.04
    3   14   59     -3.43     -6.50
    2   14   59      7.72     -0.57
    1   14   59     -7.81     -3.22
    0   14   59     -1.00     -2.99
   11   14   59     12.38      2.48
    9   15   59      3.60     -0.48
    8   15   59      2.05      3.23
    7   15   59     -2.28     -2.34
    6   15   59    -11.16      4.77
    5   15   59      1.03     -3.85
    4   15   59      2.49    -12.28
    3   15   59      4.58      7.06
    2   15   59      1.34    -12.54
    1   15   59     -4.87     -5.17
    0   15   59      0.64     -2.75
   10   15   59     -3.08      7.92
    9   16   59     -1.40     -0.53
    8   16   59      2.17      0.03
    7   16   59     -8.61      0.23
    6   16   59     -2.84      7.84
    5   16   59      2.64     -5.35
    4   16   59     -6.79     -0.12
    3   16   59    -11.07     -9.09
    2   16   59     -0.91     -1.34
    1   16   59     -1.65     -5.49
    0   16   59      0.07      5.42
    7   17   59      5.55      2.54
    6   17   59     -9.57     -3.79
    5   17   59     -6.30      1.34
    4   17   59     -0.21     -1.67
    3   17   59     -1.52     -0.41
    2   17   59     -5.00     -4.07
    1   17   59      1.41     -6.86
    0   17   59      2.74     -4.38
    4   18   59      6.45     -2.31
    3   18   59      6.99     -7.64
    2   18   59     -5.51      2.91
    1   18   59    -11.74     -6.16
    0   18   59     -6.47     -4.03
    0    0   60     21.46     -0.10
    1    1   60     26.48    -29.84
    0    1   60    -27.23      7.51
    2    2   60    -39.97     41.63
    1    2   60      4.31     -2.14
    0    2   60     37.33      3.94
    3    3   60    -26.43     33.68
    2    3   60      1.40      0.49
    1    3   60     -6.94      4.27
    0    3   60     -4.14     -1.21
    4    4   60    -36.11     38.38
    3    4   60     12.40     -2.37
    2    4   60      6.02    -15.77
    1    4   60     -1.31     -7.01
    0    4   60    -26.10     -0.89
    5    5   60      8.99     10.13
    4    5   60     -3.14    -21.53
    3    5   60      5.24    -25.58
    2    5   60      2.50    -17.77
    1    5   60    -17.14     19.45
    0    5   60     22.43    -10.61
    6    6   60      9.73     -0.17
    5    6   60      5.49    -16.71
    4    6   60     -0.10     -6.27
    3    6   60      5.42    -19.19
    2    6   60     -4.86      5.97
    1    6   60    -16.88     -8.04
    0    6   60    -27.22     -2.10
    7    7   60     13.56    -14.60
    6    7   60     -2.41     -3.07
    5    7   60      6.48      3.08
    4    7   60      4.23     -2.10
    3    7   60    -19.42    -14.80
    2    7   60     -5.96      3.28
    1    7   60    -10.66     11.06
    0    7   60     -3.28      3.39
    8    8   60     21.63     -5.87
    7    8   60     -3.16     -2.37
    6    8   60      1.89     -5.15
    5    8   60     -9.38     -6.24
    4    8   60      5.36      9.23
    3    8   60      2.65     16.65
    2    8   60    -45.77     -3.88
    1    8   60      4.20      4.59
    0    8   60    -14.79     -0.25
    9    9   60      1.47      2.96
    8    9   60     -4.68      8.41
    7    9   60      7.01     -1.27
    6    9   60     -2.36     14.25
    5    9   60     -5.18      4.29
    4    9   60      2.32     -1.47
    3    9   60      6.53      5.95
    2    9   60      6.16     -1.78
    1    9   60     -9.73     10.75
    0    9   60      4.79      4.95
   10   10   60    -10.08    -12.80
    9   10   60      2.14      8.40
    8   10   60      3.17     10.02
    7   10   60      3.52      5.31
    6   10   60      4.50     -5.85
    5   10   60     -1.75     -4.71
    4   10   60     -2.84     12.74
    3   10   60     -7.16     11.61
    2   10   60      2.73      4.58
    1   10   60    -16.95      3.89
    0   10   60      2.47      1.27
   11   11   60      4.09      4.61
   10   11   60     -7.30      2.24
    9   11   60      1.46      9.79
    8   11   60     -4.88      5.87
    7   11   60     13.15     -9.50
    6   11   60      3.12     -5.77
    5   11   60     10.95      0.25
    4   11   60     -2.81     -0.36
    3   11   60     -9.17      2.88
    2   11   60    -12.29     -7.16
    1   11   60     -5.00    -11.73
    0   11   60      0.16      4.60
   11   12   60      5.46     -3.83
   10   12   60      0.06      8.14
    9   12   60     -7.24     -3.94
    8   12   60      9.63      5.85
    7   12   60     -5.04     -3.72
    6   12   60     -0.23      2.42
    5   12   60    -10.19     -3.85
    4   12   60     -4.93     -0.34
    3   12   60      3.94     -6.57
    2   12   60     -5.77     -3.97
    1   12   60      5.26     13.25
    0   12   60     -4.63     -2.11
   11   13   60      1.07      1.44
   10   13   60      0.54     -7.35
    9   13   60      7.36     -3.05
    8   13   60     -8.18      9.37
    7   13   60      8.22      0.61
    6   13   60     -5.97     -5.60
    5   13   60     -7.27      1.56
    4   13   60      5.72     -0.91
    3   13   60      8.28      6.00
    2   13   60     -4.21      1.14
    1   13   60     -0.10      0.55
    0   13   60      1.02      0.87
   12   13   60     -2.30      6.46
   10   14   60     -6.18     -3.99
    9   14   60     -1.52     16.19
    8   14   60      6.69     -8.43
    7   14   60      8.76     -8.37
    6   14   60      2.25      0.18
    5   14   60      3.83     -0.67
    4   14   60      2.76      3.32
    3   14   60      6.07     -7.32
    2   14   60      0.99      8.11
    1   14   60     -2.75      0.56
    0   14   60     -3.28      0.63
   11   14   60      6.35      0.25
   10   15   60     -2.06      5.55
    9   15   60     -1.56      2.10
    7   15   60     -1.71      7.35
    6   15   60      5.31     -0.70
    5   15   60      2.49      4.28
    4   15   60     -0.74      0.30
    3   15   60      2.04      6.73
    2   15   60      1.44      4.29
    1   15   60      9.51     -4.29
    0   15   60     -9.39     -1.27
    8   15   60     -2.64     -0.48
    8   16   60     -1.83      2.45
    6   16   60      4.19     -1.25
    5   16   60      3.38     -9.34
    4   16   60      1.61     -3.30
    3   16   60     -5.41      2.01
    2   16   60     -2.83     -3.80
    1   16   60      6.52      0.88
    0   16   60     -4.86     -3.01
    7   16   60     -4.90      5.57
    9   16   60     -1.41      1.94
    6   17   60     -2.02     -0.04
    5   17   60     -2.17      6.09
    4   17   60      0.27      0.30
    3   17   60     -3.84     -1.80
    2   17   60     -3.23     -4.35
    1   17   60      3.60     -1.24
    0   17   60     -8.78     14.11
    3   18   60     -6.82     -0.17
    2   18   60      3.80     -0.23
    1   18   60     -7.55      2.96
    0   18   60      0.13      0.26
    0    1   61     -3.46    -16.88
    1    2   61      2.92      2.43
    0    2   61     -5.88      7.99
    2    3   61    -10.40      3.71
    1    3   61     21.00      2.99
    0    3   61      3.28     17.60
    3    4   61      8.65     12.06
    2    4   61    -10.94    -11.14
    1    4   61     -1.41     31.62
    0    4   61     -3.46     -6.64
    4    5   61      3.84      2.29
    3    5   61      6.01    -11.28
    2    5   61      2.84      1.52
    1    5   61     -9.39      8.28
    0    5   61     -6.01     19.80
    5    6   61      9.50     11.91
    4    6   61     -0.98     19.45
    3    6   61      3.26     -6.67
    2    6   61      9.33     -1.58
    1    6   61    -18.76     24.88
    0    6   61     -9.75     -3.30
    6    7   61     -1.52     22.88
    5    7   61     -4.98     -1.57
    4    7   61      4.56     -4.66
    3    7   61     -0.62    -15.25
    2    7   61     -1.88      8.74
    1    7   61    -17.56     13.05
    0    7   61      0.54     14.25
    7    8   61     -1.47     -1.10
    6    8   61     -2.08      0.45
    5    8   61      1.78     12.73
    4    8   61     -7.02      0.82
    3    8   61     -0.65     -7.39
    2    8   61     -5.28     -4.23
    1    8   61     10.80     -3.46
    0    8   61     -7.38     -5.95
    8    9   61     -5.49     -5.30
    7    9   61      3.11      3.85
    6    9   61      9.14      2.33
    5    9   61      7.25    -25.11
    4    9   61     -1.78    -13.02
    3    9   61    -11.28      2.40
    2    9   61    -11.39    -11.22
    1    9   61      0.02      5.60
    0    9   61     -2.30     14.68
    9   10   61     -5.69     -6.56
    8   10   61      1.08     -8.27
    7   10   61      5.73     10.32
    6   10   61     -2.44     -1.74
    5   10   61     15.62      3.03
    4   10   61     11.42     -6.48
    3   10   61     -6.58      7.45
    2   10   61     -1.56     -2.26
    1   10   61      1.23     -9.19
    0   10   61     23.11     28.97
   10   11   61      3.90     -3.45
    9   11   61      6.80      2.25
    8   11   61    -19.22     -1.32
    7   11   61      3.64     -8.65
    6   11   61      4.39      0.89
    5   11   61      0.13      8.94
    4   11   61      3.66     20.11
    3   11   61     -6.49      7.00
    2   11   61      6.16      9.44
    1   11   61     -3.43      2.93
    0   11   61     -2.01     13.29
   11   12   61      0.94     -8.99
   10   12   61     -5.77      9.24
    9   12   61      6.25     -0.99
    8   12   61     -1.81     -5.42
    7   12   61      3.64      8.87
    6   12   61      1.26     11.62
    5   12   61      0.41     17.20
    4   12   61     -6.43     -0.79
    3   12   61      6.13     -3.66
    2   12   61      0.81     -0.95
    1   12   61     -9.01      5.38
    0   12   61     -1.76      1.87
   12   13   61     -4.70      5.10
   11   13   61     -1.56      1.96
   10   13   61      3.15      0.86
    9   13   61     -6.94     -3.74
    8   13   61      3.52      6.21
    7   13   61     -3.48      9.85
    6   13   61      4.02     10.87
    5   13   61    -22.00      1.36
    4   13   61     -0.08      1.05
    3   13   61      7.43      3.66
    2   13   61     -6.56     -6.25
    1   13   61      1.43     -7.46
    0   13   61      3.84     -6.46
   11   14   61     -4.89      0.82
   10   14   61     -1.54     -0.62
    9   14   61     -9.62     -5.40
    8   14   61     -5.70      1.97
    7   14   61      6.62     -5.80
    6   14   61     -3.37      4.32
    5   14   61     -2.88      8.70
    4   14   61      3.30    -22.85
    3   14   61     -0.65      2.16
    2   14   61      1.98     -0.26
    1   14   61      4.34      7.19
    0   14   61      6.90     -1.15
   10   15   61      3.49     -5.79
    9   15   61      4.05     -0.41
    7   15   61      0.13     -2.87
    6   15   61     10.55     -5.46
    5   15   61      5.07      0.91
    4   15   61     -3.78     11.67
    3   15   61      3.58      8.09
    2   15   61     -1.69     11.68
    1   15   61    -10.39    -11.22
    0   15   61      0.28      5.51
    8   15   61     -3.99      2.26
    7   16   61      3.53     -3.14
    6   16   61      1.85      2.20
    5   16   61      1.40     -4.12
    4   16   61      5.24     -6.06
    3   16   61     -0.08      9.21
    2   16   61      8.18      0.40
    1   16   61      6.79     -0.98
    0   16   61     -2.11     -6.18
    8   16   61      4.44     -2.78
    5   17   61      0.43      4.34
    4   17   61     -7.61     -1.42
    3   17   61      9.60      4.15
    2   17   61     11.64      3.90
    1   17   61      6.58     13.02
    0   17   61     -0.48      1.78
    6   17   61     14.57      2.55
    2   18   61      6.72      0.52
    1   18   61     10.70     -1.55
    0   18   61      6.95      8.59
    0    0   62    -10.51      3.25
    1    1   62     21.90     44.91
    0    1   62     24.27    -16.39
    2    2   62     58.04    -10.10
    1    2   62    -12.28     -0.53
    0    2   62    -44.01     -2.06
    3    3   62    -12.28    -16.92
    2    3   62    -24.56     -4.52
    1    3   62      2.15     -0.03
    0    3   62    -10.72     -0.68
    4    4   62    -31.49     -3.50
    3    4   62      7.75    -13.14
    2    4   62     -1.94     16.76
    1    4   62     -0.55     -2.10
    0    4   62     17.89      1.14
    5    5   62      8.05     17.40
    4    5   62     -4.30     15.74
    3    5   62     -7.82      0.27
    2    5   62     -4.06     21.66
    1    5   62    -14.72      0.06
    0    5   62     25.64     10.44
    6    6   62     -9.86    -21.28
    5    6   62     -3.15     -5.62
    4    6   62      7.18      7.24
    3    6   62      2.55      6.98
    2    6   62     -1.69     -9.25
    1    6   62    -14.28     13.76
    0    6   62     27.34     -2.12
    7    7   62     -0.30     -5.99
    6    7   62      0.08     10.04
    5    7   62    -14.13     -7.08
    4    7   62     -7.90     -4.94
    3    7   62      2.91     -7.80
    2    7   62     -6.99     -6.28
    1    7   62     38.32      5.80
    0    7   62    -10.19     -2.92
    8    8   62    -13.92     -1.22
    7    8   62     -7.07      4.98
    6    8   62     -4.70     -6.28
    5    8   62      2.06    -11.32
    4    8   62     10.74    -11.37
    3    8   62     -5.64      1.47
    2    8   62     12.52    -11.11
    1    8   62      4.18      2.65
    0    8   62     21.70     -1.13
    9    9   62    -24.16      8.52
    8    9   62     10.24      4.41
    7    9   62     -9.29     -2.79
    6    9   62    -15.90      2.63
    5    9   62     11.90     -5.50
    4    9   62    -10.49     -9.91
    3    9   62      8.88      4.07
    2    9   62     -1.99      0.32
    1    9   62     -2.37    -10.30
    0    9   62    -25.12     -1.34
   10   10   62      8.46     12.48
    9   10   62     -2.67     -9.09
    8   10   62    -17.01     -9.96
    7   10   62     -5.89     -0.58
    6   10   62     -5.18     -1.55
    5   10   62      3.44     -9.36
    4   10   62     -1.66      4.81
    3   10   62     -3.20     -0.35
    2   10   62    -21.56    -10.72
    1   10   62     -6.18      7.22
    0   10   62     -0.92      2.10
   11   11   62      3.57      2.67
   10   11   62     12.20     -9.13
    9   11   62     -3.69    -12.07
    8   11   62      3.26     -8.05
    7   11   62     -4.29     11.16
    6   11   62     -4.92      2.81
    5   11   62      1.88     11.41
    4   11   62      3.35     -5.16
    3   11   62     -3.46     -1.75
    2   11   62      4.36     -2.36
    1   11   62     -5.70     11.34
    0   11   62     -5.64      0.25
   11   12   62     -6.97      0.91
   10   12   62     -0.63     -6.88
    9   12   62      1.87      1.18
    8   12   62     -5.63      7.01
    7   12   62     -2.10      3.77
    6   12   62      8.50     -2.51
    5   12   62     -8.36      0.30
    4   12   62     -3.07      9.12
    3   12   62      0.30      1.06
    2   12   62     -0.17     11.96
    1   12   62      7.52      3.97
    0   12   62     -6.24      1.71
   12   12   62     -5.05     -2.96
   12   13   62      0.18     -3.12
   11   13   62      3.43      0.08
   10   13   62     -5.95     -3.17
    9   13   62     -3.13      0.22
    8   13   62     -3.07     -3.38
    7   13   62     -4.65     -1.69
    6   13   62     -2.63      7.53
    5   13   62      9.80      4.43
    4   13   62      4.12      1.20
    3   13   62     -4.26      0.86
    2   13   62     -2.48      8.03
    1   13   62     -2.48     -3.34
    0   13   62     -3.75     -0.90
   11   14   62     -1.11     -4.98
   10   14   62      5.76     -3.57
    9   14   62      1.06     -7.28
    8   14   62    -10.43     -1.98
    7   14   62     -5.98      9.04
    6   14   62     11.04      4.42
    5   14   62      0.61     -1.78
    4   14   62      3.89      1.86
    3   14   62     -8.78      2.17
    2   14   62      0.30     -4.35
    1   14   62     -3.47      6.65
    0   14   62      4.81     -3.79
   10   15   62     -0.81     -6.31
    9   15   62      2.97      5.40
    8   15   62      0.86      1.68
    7   15   62      7.56     -3.79
    6   15   62     -8.97      4.48
    5   15   62     -5.95      6.84
    4   15   62      0.45     -3.37
    3   15   62     -0.66     -6.68
    2   15   62     -7.14      3.45
    1   15   62      0.31      3.24
    0   15   62     -2.22      2.31
    8   16   62     -5.29      1.34
    7   16   62     -0.30      1.09
    6   16   62      6.96      0.49
    5   16   62     -1.14      7.49
    4   16   62     -7.01      0.28
    3   16   62     -1.90      1.57
    2   16   62      6.48      6.12
    1   16   62     -6.16     -4.57
    0   16   62      1.26      4.80
    6   17   62      3.12      0.01
    5   17   62     -1.88      1.88
    4   17   62      7.80      1.73
    3   17   62      5.85      4.53
    2   17   62      4.29     -2.33
    1   17   62      0.68      2.91
    0   17   62      3.80    -11.96
    1   18   62      5.53     -3.85
    0   18   62      1.85     -0.38
    0    1   63     -1.83    -12.28
    1    2   63      5.03    -19.08
    0    2   63      5.92    -20.51
    2    3   63     -5.29    -12.53
    1    3   63     -5.54    -18.10
    0    3   63     -1.46     -2.57
    3    4   63      5.54    -15.06
    2    4   63    -12.63      4.89
    1    4   63     -9.44    -12.69
    0    4   63     13.43     -1.77
    4    5   63     11.00     -4.25
    3    5   63     -4.50     18.75
    2    5   63     -9.33     -2.98
    1    5   63     -5.44     -9.05
    0    5   63      1.28    -12.51
    5    6   63      4.45      8.81
    4    6   63    -17.42     -3.74
    3    6   63     -2.38     -5.92
    2    6   63     -4.56      5.49
    1    6   63     21.14     -2.07
    0    6   63      8.50      9.95
    6    7   63    -15.75     -7.02
    5    7   63     -2.24     -8.23
    4    7   63     20.60      0.93
    3    7   63      0.31      5.70
    2    7   63      2.69     -7.26
    1    7   63      1.53      4.34
    0    7   63      0.33    -18.14
    7    8   63    -20.61     -6.28
    6    8   63      5.89     -5.06
    5    8   63     13.15     -8.29
    4    8   63      0.52     17.97
    3    8   63      0.25     -5.90
    2    8   63      1.85      2.96
    1    8   63     -3.71      1.31
    0    8   63     19.80      8.96
    8    9   63      1.46      2.97
    7    9   63      0.32     -7.64
    6    9   63     -4.69     -0.82
    5    9   63     -1.23     24.17
    4    9   63     -6.67     -3.37
    3    9   63      2.89      4.31
    2    9   63      5.85    -11.02
    1    9   63     -7.27     -3.55
    0    9   63      1.46      1.35
    9   10   63      1.98      0.41
    8   10   63      1.54      6.15
    7   10   63     -4.95      3.55
    6   10   63    -15.04      3.47
    5   10   63    -21.94      5.42
    4   10   63     -1.48     -9.18
    3   10   63      8.40      4.19
    2   10   63      7.61      2.61
    1   10   63      1.87     -6.48
    0   10   63    -24.83     15.23
   10   11   63      1.07     -0.83
    9   11   63     -9.72      3.81
    8   11   63      4.22     -4.08
    7   11   63     -9.08     10.38
    6   11   63     -5.09      8.37
    5   11   63      1.01    -10.41
    4   11   63    -10.75    -16.70
    3   11   63     -8.55      1.97
    2   11   63      3.44     -9.28
    1   11   63     -2.39      6.27
    0   11   63     -5.24      5.98
   11   12   63      1.72      5.26
   10   12   63      4.38      2.02
    9   12   63      0.24      6.77
    8   12   63     -4.95      4.37
    7   12   63      4.29     -9.66
    6   12   63     -3.02     -4.69
    5   12   63     -6.38     -8.13
    4   12   63      8.23     -2.59
    3   12   63     -1.70      2.26
    2   12   63     -2.91      2.00
    1   12   63     -3.65     -3.51
    0   12   63      4.53     -7.43
   12   13   63     -0.21      1.23
   11   13   63      3.96      2.46
   10   13   63      5.25     -3.27
    9   13   63      1.62      3.45
    8   13   63     -5.80     -6.01
    7   13   63     -4.95     -3.66
    6   13   63      1.46     -8.42
    5   13   63     15.30     -9.46
    4   13   63    -11.19      2.44
    3   13   63     -3.33     -9.01
    2   13   63     14.92     -4.49
    1   13   63     -7.76      8.92
    0   13   63     -0.69      8.30
   11   14   63     -4.77      4.11
   10   14   63      8.93     -1.51
    7   14   63      0.52      1.94
    6   14   63      2.77     -5.36
    5   14   63     -5.19     -2.63
    4   14   63    -10.19      8.83
    3   14   63      2.68     -4.13
    2   14   63     -9.45      0.74
    1   14   63      9.31      6.97
    0   14   63    -11.56     -5.53
    8   14   63     -1.05     -2.81
    9   14   63      2.90      7.22
    9   15   63      1.48      2.83
    8   15   63      7.83     -0.54
    7   15   63      2.80      3.47
    6   15   63     -3.33      3.82
    5   15   63     -2.51      0.83
    4   15   63      8.01      2.19
    3   15   63      3.24     -8.14
    2   15   63      3.99     -3.68
    1   15   63      3.17      6.80
    0   15   63      2.37    -11.45
    8   16   63     -0.49      2.85
    7   16   63      1.29      1.23
    6   16   63      6.47      3.85
    5   16   63     -3.33      7.90
    4   16   63      0.77      1.74
    3   16   63      2.41     -5.56
    2   16   63     -0.35     -0.59
    1   16   63     -5.45      8.57
    0   16   63      0.54     -1.05
    5   17   63      4.61     -4.43
    4   17   63      4.34      2.93
    3   17   63     -5.96      8.68
    2   17   63     -3.09     -5.88
    1   17   63     -8.97     -7.15
    0   17   63     -1.15      3.90
    0    0   64    -10.22      2.50
    1    1   64      1.91    -52.62
    0    1   64    -29.23     10.37
    2    2   64     38.26     17.49
    1    2   64     -5.80     17.24
    0    2   64     41.60      0.61
    3    3   64     18.37     -4.45
    2    3   64      8.70     -1.35
    1    3   64     12.78      2.44
    0    3   64      4.57     -8.03
    4    4   64     -1.62      8.08
    3    4   64      8.54    -19.11
    2    4   64     18.48     -8.22
    1    4   64     -2.20      2.06
    0    4   64    -22.56     -3.99
    5    5   64      8.50    -14.67
    4    5   64    -13.46      6.53
    3    5   64      5.73     19.24
    2    5   64     -4.61    -15.72
    1    5   64      7.68      5.45
    0    5   64     -8.37     -3.06
    6    6   64     -5.15     26.35
    5    6   64      3.62     -2.71
    4    6   64     12.76     -6.21
    3    6   64      9.84      0.27
    2    6   64     16.80    -15.28
    1    6   64    -15.68      8.68
    0    6   64     -6.41      0.57
    7    7   64     27.54      2.09
    6    7   64     -2.93      3.11
    5    7   64     -0.61      7.50
    4    7   64      0.11      3.90
    3    7   64      8.88     14.23
    2    7   64      2.85    -17.42
    1    7   64    -20.77     -0.63
    0    7   64     -2.05      1.61
    8    8   64     -2.77    -21.23
    7    8   64      5.18     -6.76
    6    8   64     19.14      9.61
    5    8   64     -1.86      3.20
    4    8   64     17.46      7.46
    3    8   64    -13.26      3.81
    2    8   64      4.96      4.63
    1    8   64      8.02    -15.88
    0    8   64     -6.04      2.33
    9    9   64     12.61    -15.76
    8    9   64      3.25     -8.94
    7    9   64     16.17      1.20
    6    9   64      7.81      4.01
    5    9   64    -11.74      9.10
    4    9   64      4.52     -1.88
    3    9   64      9.50    -21.11
    2    9   64      4.60      8.36
    1    9   64     23.48     24.70
    0    9   64      6.95      4.74
   10   10   64     -2.56    -20.10
    9   10   64      6.51      2.76
    8   10   64     20.34      5.68
    7   10   64     -3.53     -3.25
    6   10   64      6.64      8.30
    5   10   64      7.29      3.66
    4   10   64     -4.50     -9.94
    3   10   64     -5.82     -4.28
    2   10   64      7.70      9.56
    1   10   64     -3.26      0.05
    0   10   64    -13.30      0.37
   11   11   64     -5.51      0.22
   10   11   64     -9.90     10.23
    9   11   64     -5.25      7.49
    8   11   64      1.89     -0.93
    7   11   64     -0.18     -2.47
    6   11   64     -7.09      3.26
    5   11   64     -5.86      5.89
    4   11   64     -0.44     -3.27
    3   11   64     -2.85     -7.89
    2   11   64     -2.00      6.01
    1   11   64     -5.70     -2.02
    0   11   64      1.92      3.87
   12   12   64     -1.27     -5.14
   11   12   64      0.71     -0.10
   10   12   64     -5.45      6.43
    9   12   64      1.51     -1.26
    8   12   64      1.59     -5.13
    7   12   64      2.86      6.20
    6   12   64     -6.36      0.72
    5   12   64     -3.18     -4.95
    4   12   64     11.46     -5.29
    3   12   64      0.00    -11.55
    2   12   64      4.08      0.78
    1   12   64     -1.76     -5.84
    0   12   64      9.88     -0.84
   12   13   64     -0.73     -2.98
   10   13   64      8.13      4.26
    9   13   64      5.31     -3.93
    8   13   64      3.27      2.03
    7   13   64     12.45      2.95
    6   13   64      2.34     -0.69
    5   13   64     -1.16      0.51
    4   13   64      5.76     -0.57
    3   13   64      3.22      2.27
    2   13   64     -3.53     -4.74
    1   13   64      1.51      1.39
    0   13   64      6.63      1.63
   11   13   64      4.34     -5.75
   10   14   64     -2.28     -0.95
    8   14   64     11.95     -1.40
    7   14   64     -0.02      0.39
    6   14   64     -3.43     -1.51
    5   14   64     -4.32      6.13
    4   14   64     -8.93      3.11
    3   14   64      4.01     -1.77
    2   14   64      0.03      3.98
    1   14   64     -3.30     -2.85
    0   14   64      0.49      8.01
    9   14   64     -4.25      2.71
    9   15   64      0.90     -3.27
    8   15   64     -5.89      2.08
    7   15   64     -5.95     -1.25
    6   15   64     -5.42     -4.72
    5   15   64      1.82     -9.03
    4   15   64      2.22     -0.52
    3   15   64      2.12      5.01
    2   15   64      1.35     -2.61
    1   15   64     -8.51     -0.34
    0   15   64      2.49     -2.20
    7   16   64     -1.76     -1.09
    6   16   64     -5.65      3.31
    5   16   64     -4.71     -4.59
    4   16   64      5.30     -5.59
    3   16   64     -5.47     -2.47
    2   16   64    -10.04     -2.97
    1   16   64      2.79      6.22
    0   16   64      1.88     -5.73
    4   17   64      5.20     -0.98
    2   17   64      2.08     12.11
    1   17   64     -3.27     -6.46
    0   17   64     -1.32      7.89
    3   17   64     -1.36     -5.53
    5   17   64      0.70     -2.98
    0    1   65      2.42     -0.71
    1    2   65    -22.07      2.32
    0    2   65     -9.80     -0.71
    2    3   65      3.42     13.48
    1    3   65     -0.99     -4.35
    0    3   65      1.12    -12.70
    3    4   65      0.77      1.62
    2    4   65     -5.54     -8.85
    1    4   65     17.58     10.90
    0    4   65     -8.78    -15.95
    4    5   65      0.86     11.29
    3    5   65      2.89      4.98
    2    5   65      0.32      9.40
    1    5   65     -7.54      5.44
    0    5   65     -0.70    -11.15
    5    6   65     14.57      0.11
    4    6   65      0.20    -10.17
    3    6   65     17.57     -8.42
    2    6   65      5.02      1.68
    1    6   65    -12.37    -18.38
    0    6   65      0.26     -5.59
    6    7   65      6.98      0.95
    5    7   65     -0.88      3.93
    4    7   65     16.22     -4.60
    3    7   65     -2.41     -9.43
    2    7   65     31.83     -1.29
    1    7   65    -27.26    -12.77
    0    7   65     -1.49      7.33
    7    8   65      6.52     -1.47
    6    8   65     -5.81     -4.70
    5    8   65    -11.60      2.66
    4    8   65     -6.85    -11.58
    3    8   65      0.73     10.72
    2    8   65    -10.57    -10.23
    1    8   65      1.51     -8.81
    0    8   65     -4.14      8.55
    8    9   65      2.73     -5.62
    7    9   65      1.62     -3.49
    6    9   65      0.63     -2.17
    5    9   65     -2.82    -13.51
    4    9   65      7.56     -7.60
    3    9   65      5.83      0.30
    2    9   65    -25.19      5.92
    1    9   65     -3.08     10.08
    0    9   65     -0.53     -8.68
    9   10   65      2.09     -0.75
    8   10   65     -1.38     -4.12
    7   10   65     -4.48     -9.11
    6   10   65      6.25    -12.07
    5   10   65      3.01     -3.33
    4   10   65      6.47     15.26
    3   10   65      1.25     -7.57
    2   10   65     -5.83    -13.31
    1   10   65     -4.98      7.42
    0   10   65     19.07     -1.29
   10   11   65      6.71     -0.32
    9   11   65      0.08     -3.81
    8   11   65    -16.43      5.20
    7   11   65      6.59    -10.91
    6   11   65      5.23     -6.76
    5   11   65      5.19     11.04
    4   11   65     -1.50     -0.08
    3   11   65      3.67     -0.73
    2   11   65      5.46     -6.31
    1   11   65      8.11     -9.10
    0   11   65      3.29     -6.82
   11   12   65     -2.88     -2.38
   10   12   65     -7.48      8.51
    9   12   65     -9.45     -6.23
    8   12   65      7.25      8.25
    7   12   65      9.18      2.83
    6   12   65     -7.28     -0.56
    5   12   65      0.04    -10.00
    4   12   65      0.85     -0.43
    3   12   65      8.35     -5.63
    2   12   65      2.27     -8.27
    1   12   65     -4.42    -11.38
    0   12   65     -1.26      9.30
   11   13   65     -5.03     -2.09
   10   13   65      1.50      1.54
    9   13   65     -0.62      3.68
    8   13   65      5.82      0.87
    7   13   65     -3.69     -3.83
    6   13   65      9.05      0.24
    5   13   65     -3.31     10.45
    4   13   65     16.28     -1.53
    3   13   65     -0.58      0.42
    2   13   65    -13.50      3.47
    1   13   65      8.81     -7.25
    0   13   65     -1.65     -9.39
    8   14   65     -6.76      0.97
    7   14   65      5.28      1.73
    6   14   65     -1.20      0.53
    5   14   65     -2.73      4.30
    4   14   65      7.24      8.22
    3   14   65      2.80      3.46
    2   14   65      8.24      2.28
    1   14   65    -10.44     -8.29
    0   14   65      9.54      2.01
    9   14   65     -3.56      2.68
   10   14   65     -8.48     -1.03
    9   15   65     -4.73     -0.40
    8   15   65     -7.38      0.88
    7   15   65     -3.95      1.36
    6   15   65      0.65     -1.47
    5   15   65     -0.92     -5.58
    4   15   65     -5.25      6.37
    3   15   65      2.64      6.35
    2   15   65     -7.08      1.15
    1   15   65      2.35      2.25
    0   15   65     -2.22     13.90
    7   16   65      2.76     -0.50
    6   16   65     -5.15     -8.12
    5   16   65      4.14     -3.78
    4   16   65      0.49      1.19
    3   16   65     -2.47      0.94
    2   16   65      2.25      0.71
    1   16   65      5.43     -5.43
    0   16   65      1.69     11.99
    4   17   65      2.35     -2.20
    3   17   65      5.28     -9.34
    2   17   65     -1.30     -3.99
    1   17   65     -0.25      1.97
    0   17   65     -0.37    -11.18
    0    0   66     -5.73     -4.05
    1    1   66     -8.21     20.05
    0    1   66     -4.68     -7.11
    2    2   66    -12.42      3.34
    1    2   66     -0.74     -8.22
    0    2   66    -14.19     -1.07
    3    3   66     17.29     14.03
    2    3   66      2.27      7.78
    1    3   66     11.59    -12.70
    0    3   66     -0.26      6.30
    4    4   66      6.04     -5.50
    3    4   66      3.25      8.24
    2    4   66     -5.07      8.65
    1    4   66     -2.27      5.02
    0    4   66     -7.99      5.74
    5    5   66    -19.16     12.06
    4    5   66      5.86     11.43
    3    5   66     -2.78      0.08
    2    5   66     -1.68      0.67
    1    5   66    -14.83     -1.51
    0    5   66     -3.96      0.60
    6    6   66     -4.02     -1.51
    5    6   66     -8.84     -1.08
    4    6   66    -15.02     -2.34
    3    6   66     -5.85     -6.62
    2    6   66     -8.79     -1.12
    1    6   66     11.36      8.35
    0    6   66    -23.59      0.64
    7    7   66     12.77    -23.45
    6    7   66      0.36    -13.34
    5    7   66     -1.40     -6.48
    4    7   66      6.16    -15.14
    3    7   66    -11.67     -7.82
    2    7   66      7.58      1.86
    1    7   66     -0.55     -0.58
    0    7   66    -15.79      7.38
    8    8   66     21.30     19.05
    7    8   66     -2.81     12.34
    6    8   66     -6.37     -4.15
    5    8   66     -4.94      7.86
    4    8   66      5.16      1.90
    3    8   66      4.21     -4.28
    2    8   66    -13.55      3.24
    1    8   66      0.66     -7.00
    0    8   66     10.19     -0.09
    9    9   66    -11.81     17.37
    8    9   66     16.34      9.01
    7    9   66      5.55     -6.69
    6    9   66     -5.26      9.08
    5    9   66      3.59      5.85
    4    9   66     -7.35      7.30
    3    9   66      9.25     16.30
    2    9   66     -8.34      7.57
    1    9   66    -14.96    -29.34
    0    9   66    -25.80     -4.93
   10   10   66      9.38     22.19
    9   10   66     -4.21      3.81
    8   10   66     -2.34      0.01
    7   10   66      2.28      5.83
    6   10   66      0.76    -21.08
    5   10   66     -4.43     -8.10
    4   10   66      7.22     14.02
    3   10   66     -4.19     10.75
    2   10   66     -3.77     -8.93
    1   10   66    -12.76    -10.52
    0   10   66     12.65     -2.26
   11   11   66     17.04     -3.94
   10   11   66      1.75    -15.11
    9   11   66      4.01     -4.72
    8   11   66      0.95      4.19
    7   11   66     16.51     -9.03
    6   11   66     -9.11     -3.85
    5   11   66      1.84     -4.01
    4   11   66     -9.50     -2.11
    3   11   66     -7.26      5.13
    2   11   66     -4.76     -3.28
    1   11   66     -2.41     -3.25
    0   11   66     -0.74     -4.62
   12   12   66     15.25      0.00
   11   12   66      1.28      0.74
   10   12   66      3.45     -2.07
    9   12   66      5.56     -3.35
    8   12   66      9.41     -3.00
    7   12   66     -5.56     -2.86
    6   12   66      8.60    -10.62
    5   12   66     -0.44      8.01
    4   12   66    -11.30      5.54
    3   12   66     -7.33     -4.20
    2   12   66     -2.33     -2.68
    1   12   66      4.82     -4.02
    0   12   66    -24.19     -0.89
   11   13   66      0.29      1.30
   10   13   66     -3.90     -7.90
    9   13   66     -4.33      1.06
    8   13   66      2.59      7.34
    7   13   66     -8.97     -6.18
    6   13   66      1.81     -5.02
    5   13   66      1.77      3.96
    4   13   66     -4.47     -5.25
    3   13   66     -1.48     -2.91
    2   13   66      1.72      5.18
    1   13   66      1.78      4.10
    0   13   66     -3.90     -3.90
   10   14   66      3.86      7.76
    9   14   66      1.53     -0.63
    8   14   66     -2.39      1.28
    7   14   66      2.27      1.72
    6   14   66     -2.28      3.73
    5   14   66      7.10     -2.59
    4   14   66      5.73      3.43
    3   14   66      3.29      1.49
    2   14   66      3.88      1.88
    1   14   66     -2.83      7.47
    0   14   66      1.84     -2.03
    8   15   66      2.12      0.21
    7   15   66      7.29      2.87
    5   15   66     -6.77     -2.87
    4   15   66     -6.31     -0.25
    3   15   66      1.22      5.23
    2   15   66      1.34     -4.57
    1   15   66      4.31     -7.21
    0   15   66      6.69      0.96
    6   15   66      4.28      7.26
    7   16   66     -1.02      4.17
    6   16   66      7.46     -2.66
    5   16   66      2.59      2.35
    4   16   66     -1.59      8.01
    3   16   66      3.23     -3.41
    2   16   66      6.35      0.81
    1   16   66      6.73     -2.99
    0   16   66      3.76      1.24
    2   17   66     -8.70     -9.67
    1   17   66     -2.35      0.03
    0   17   66      1.95     -2.71
    3   17   66      4.43      9.63
    4   17   66     -5.62     -4.19
    0    1   67      1.10     11.83
    1    2   67    -10.45    -14.63
    0    2   67      6.61     -9.55
    2    3   67     -4.24    -24.12
    1    3   67     19.14     -6.80
    0    3   67      1.90      5.65
    3    4   67      4.28      0.30
    2    4   67      2.88     29.93
    1    4   67     -7.44     -2.72
    0    4   67     10.34     10.91
    4    5   67     17.85      8.45
    3    5   67     -1.56     -3.68
    2    5   67     -7.78     -2.63
    1    5   67    -15.24     13.29
    0    5   67      0.67      8.70
    5    6   67      8.37     -1.60
    4    6   67     -2.11      4.11
    3    6   67    -29.69     -7.33
    2    6   67     12.89      7.66
    1    6   67      1.72     10.69
    0    6   67      0.85    -10.82
    6    7   67    -11.48     -0.74
    5    7   67     -9.59     11.65
    4    7   67     15.45     -5.78
    3    7   67     -3.79     14.93
    2    7   67    -18.28      3.76
    1    7   67     -2.35     -0.04
    0    7   67      0.43      1.61
    7    8   67      0.00      1.80
    6    8   67     19.35     15.69
    5    8   67     11.65      4.08
    4    8   67    -20.05      1.64
    3    8   67     11.09    -14.99
    2    8   67     -1.83     13.76
    1    8   67     15.03     15.63
    0    8   67      1.73     -5.61
    8    9   67     -8.05      7.49
    7    9   67     -6.52      3.65
    6    9   67      9.99     -3.97
    5    9   67      8.35     -3.26
    4    9   67      5.16     10.80
    3    9   67     -2.56      2.36
    2    9   67      8.55     -0.23
    1    9   67     15.43    -13.82
    0    9   67     -1.50      1.90
    9   10   67     -2.43     -5.01
    8   10   67     10.87     -0.26
    7   10   67      3.84      4.16
    6   10   67     -3.13      6.15
    5   10   67      6.80     -7.20
    4   10   67      4.36      0.01
    3   10   67     -4.07      2.81
    2   10   67     -9.27      6.85
    1   10   67      3.96      6.13
    0   10   67    -10.35     -1.33
   10   11   67    -11.06     -3.02
    9   11   67      0.21      5.23
    8   11   67     10.51     -6.48
    7   11   67      5.44      3.59
    6   11   67     -1.88      1.90
    5   11   67     -7.58     -0.82
    4   11   67      4.44      7.81
    3   11   67    -18.60      2.16
    2   11   67     -3.67      4.43
    1   11   67      8.33     12.90
    0   11   67     -3.48      4.62
   11   12   67     -0.84      0.67
   10   12   67      5.29     -5.70
    9   12   67      2.37     -1.91
    8   12   67     -7.47     -1.07
    7   12   67    -10.86     -6.74
    6   12   67     -5.29     -5.23
    5   12   67     11.39     12.60
    4   12   67    -13.35      2.18
    3   12   67     -8.17     -2.35
    2   12   67     -3.71      9.94
    1   12   67     -9.88      4.17
    0   12   67     -4.80      0.00
   11   13   67     -2.92     -3.80
   10   13   67      1.04     -0.40
    8   13   67     -3.83     -3.12
    7   13   67     -1.46      0.43
    6   13   67      0.46     -2.78
    5   13   67      0.23     -5.78
    4   13   67    -17.56      5.56
    3   13   67     -1.60      0.53
    2   13   67     -2.02     -3.29
    1   13   67      2.12      6.99
    0   13   67     -3.14     10.42
    9   13   67     -2.00     -2.00
   10   14   67      2.27     -1.92
    9   14   67      5.91     -6.57
    7   14   67     -3.89      2.59
    6   14   67      3.63      3.52
    5   14   67     -2.55     -0.29
    4   14   67      3.10     -5.78
    3   14   67     -5.22     -5.66
    2   14   67      2.15      0.50
    1   14   67      9.66      8.09
    0   14   67     -2.95     -2.96
    8   14   67      6.99      3.74
    8   15   67      3.71     -2.43
    7   15   67      1.95     -0.71
    5   15   67      1.55      3.93
    4   15   67      3.39     -0.26
    3   15   67     -0.33     -4.81
    2   15   67      8.34      7.43
    1   15   67      1.94     -0.67
    0   15   67     -0.05     -1.59
    6   15   67     -0.61     -7.03
    5   16   67      6.67      5.22
    3   16   67      4.38      9.69
    2   16   67      0.24     -3.13
    1   16   67      6.29      2.25
    0   16   67     -0.68     -1.48
    4   16   67      5.34      0.59
    6   16   67      1.38      2.60
    3   17   67      0.76      7.56
    2   17   67      2.64      2.44
    1   17   67      2.10      1.47
    0   17   67     -0.21      6.53
    0    0   68     21.14      1.46
    1    1   68      3.70     -5.80
    0    1   68     -3.42      4.29
    2    2   68     10.33     -1.96
    1    2   68     -4.39     -8.68
    0    2   68     22.00      0.04
    3    3   68     -0.12    -18.61
    2    3   68    -10.08      0.38
    1    3   68      2.63     -1.67
    0    3   68      2.49     -1.67
    4    4   68     -1.05      7.99
    3    4   68      5.74     -7.79
    2    4   68      3.33    -20.27
    1    4   68    -12.28      7.36
    0    4   68     -7.96      0.82
    5    5   68     33.74     19.67
    4    5   68    -10.39      8.65
    3    5   68    -18.80     -6.58
    2    5   68    -14.93     11.43
    1    5   68     22.83      1.40
    0    5   68     10.42      0.30
    6    6   68     -8.78     30.43
    5    6   68     -5.29     -5.00
    4    6   68      1.97      8.07
    3    6   68     -5.78      3.54
    2    6   68      4.08      4.33
    1    6   68      0.33      7.67
    0    6   68     -5.56      0.16
    7    7   68    -18.11     19.02
    6    7   68      0.22      0.80
    5    7   68      0.51      6.52
    4    7   68     15.91      5.72
    3    7   68      7.93     10.35
    2    7   68     -7.65      8.27
    1    7   68     16.15    -15.85
    0    7   68      8.24     -4.63
    8    8   68    -23.61    -18.44
    7    8   68     10.92     -8.99
    6    8   68     18.58      0.01
    5    8   68      1.71     -4.58
    4    8   68      2.02      5.33
    3    8   68     -8.82     11.38
    2    8   68     22.07     -6.36
    1    8   68      8.89      4.45
    0    8   68     31.58      1.89
    9    9   68      2.86    -10.88
    8    9   68     -5.27     -0.30
    7    9   68     -1.59      8.41
    6    9   68     -1.44     -9.00
    5    9   68      0.44     -9.22
    4    9   68      6.62     -9.08
    3    9   68     20.57    -19.24
    2    9   68      1.93      4.62
    1    9   68      8.86      5.69
    0    9   68     23.04      0.41
    9   10   68      3.93     -1.32
    8   10   68     -6.77     -2.37
    7   10   68     -8.02      1.77
    6   10   68     -3.69     11.62
    5   10   68      8.30     -0.91
    4   10   68     -7.68    -13.41
    3   10   68      1.35     -7.16
    2   10   68      1.35     -6.95
    1   10   68     -1.40     13.58
    0   10   68      4.37      6.05
   10   10   68     -0.32     -7.39
   11   11   68    -11.80      0.58
   10   11   68     -3.17      8.97
    9   11   68      0.74      2.11
    8   11   68     -0.66      2.49
    7   11   68    -13.19     -5.12
    6   11   68      5.88      3.09
    5   11   68     -6.98      5.14
    4   11   68     -8.11     -2.20
    3   11   68      1.15     -2.18
    2   11   68     -3.51      3.70
    1   11   68     -1.09     13.05
    0   11   68      2.90      4.00
   12   12   68    -11.78     -3.06
   11   12   68      0.96     -2.30
   10   12   68     -6.75      0.77
    9   12   68      2.24      2.59
    8   12   68     -8.63      4.36
    7   12   68     13.07      1.34
    6   12   68     -3.14      1.72
    5   12   68     -4.27      4.83
    4   12   68      4.22      4.26
    3   12   68     -1.77     -1.31
    2   12   68     -0.15     -3.61
    1   12   68      0.71      5.57
    0   12   68      8.55      6.09
   10   13   68      3.35      1.23
    8   13   68     -4.47     -4.00
    7   13   68      5.48     -3.72
    6   13   68      7.03     -0.79
    5   13   68      4.46     -0.07
    4   13   68     13.55     -0.90
    3   13   68      0.42     11.19
    2   13   68      1.10      6.51
    1   13   68      7.90      0.04
    0   13   68      5.94      0.91
    9   13   68      6.37      5.02
   11   13   68     -0.09     -3.56
    8   14   68      4.19     -3.85
    7   14   68     -1.94      5.89
    6   14   68      0.02     -2.33
    5   14   68     -5.25      2.27
    4   14   68      4.27      2.25
    3   14   68      5.75    -12.10
    2   14   68     -1.62      0.32
    1   14   68      3.18     -1.90
    0   14   68    -10.58     -1.33
    9   14   68     -4.78     -1.45
    8   15   68     -2.88      5.53
    7   15   68     -1.49    -14.85
    6   15   68      2.46     -2.16
    5   15   68      6.72      3.29
    4   15   68     -5.38      0.21
    3   15   68     -4.85     -7.21
    2   15   68     -0.49     -2.40
    1   15   68      0.61      7.68
    0   15   68      1.81     -0.95
    6   16   68     -4.49     -5.40
    5   16   68     -1.54     -2.23
    4   16   68     -1.15     -3.86
    3   16   68      3.76      1.49
    2   16   68    -13.07     -3.04
    1   16   68     -3.85     -1.57
    0   16   68     -6.33     -0.42
    2   17   68      3.92      5.86
    1   17   68      0.08      5.57
    0   17   68     -9.99     -0.13
    0    1   69     -0.18    -20.13
    1    2   69    -34.91      5.42
    0    2   69    -25.24      7.57
    2    3   69      6.43    -29.49
    1    3   69     -0.57     -1.09
    0    3   69    -13.27     14.57
    3    4   69      1.68    -14.26
    2    4   69      1.38      3.11
    1    4   69      7.45     -9.06
    0    4   69     -3.46     -6.88
    4    5   69    -10.31      8.54
    3    5   69    -12.55     -4.87
    2    5   69     -2.06    -10.03
    1    5   69      8.00      9.24
    0    5   69      2.90    -32.79
    5    6   69      1.03      9.22
    4    6   69     -7.03     -6.01
    3    6   69     14.46      9.34
    2    6   69     -3.36      1.60
    1    6   69     21.52     -1.90
    0    6   69     -0.92    -13.81
    6    7   69      8.99     10.69
    5    7   69      1.67     -1.08
    4    7   69      1.79    -16.69
    3    7   69      7.68     -5.68
    2    7   69      8.21      7.92
    1    7   69     17.05      4.62
    0    7   69     -1.83      9.96
    7    8   69      1.77     -6.70
    6    8   69      1.12    -16.22
    5    8   69      2.78      2.34
    4    8   69      9.16      2.97
    3    8   69      0.10     17.55
    2    8   69     -6.45     -7.71
    1    8   69     -0.18     -6.97
    0    8   69     -0.08     16.59
    8    9   69      4.35    -10.45
    7    9   69     -1.88      6.24
    6    9   69     -3.69     -2.88
    5    9   69    -11.63      0.16
    4    9   69     -5.91     -3.78
    3    9   69      4.37      9.10
    2    9   69    -12.50      2.35
    1    9   69    -10.80     12.69
    0    9   69      7.34     -1.68
    9   10   69     11.51      4.62
    8   10   69     -6.19      4.72
    7   10   69     -4.07     -2.32
    6   10   69      1.04     17.06
    5   10   69    -15.11      0.78
    4   10   69    -11.11      6.15
    3   10   69     -3.55    -22.75
    2   10   69      9.88    -13.10
    1   10   69     -2.59    -13.27
    0   10   69     -1.00     -3.06
   10   11   69      0.43      6.11
    9   11   69     -3.37     -6.52
    8   11   69     -0.89      2.53
    7   11   69      1.04      6.90
    6   11   69     -4.75     -9.59
    5   11   69      8.41      6.67
    4   11   69     -2.94     -8.32
    3   11   69      8.00      0.76
    2   11   69     24.17    -22.11
    1   11   69      6.54    -11.10
    0   11   69     -0.09    -12.98
   11   12   69      4.33     -4.00
   10   12   69     -8.29     -8.83
    9   12   69     -5.42      5.73
    8   12   69      2.21     -4.73
    7   12   69      7.16      0.11
    6   12   69      6.26      2.24
    5   12   69     -1.40    -17.17
    4   12   69     17.73     -8.21
    3   12   69      2.20      5.02
    2   12   69     -1.41     -4.25
    1   12   69      6.61      2.41
    0   12   69     10.18      4.98
   10   13   69     -0.87      1.64
    9   13   69      2.63     -3.30
    8   13   69      5.57     -0.63
    7   13   69      0.80     -8.17
    6   13   69     -0.42     -6.34
    5   13   69     -4.36      5.19
    4   13   69      4.66      1.04
    3   13   69     -2.72     -1.19
    2   13   69      8.72      4.92
    1   13   69     -4.75     -2.67
    0   13   69      1.06     -4.70
    9   14   69      1.77      0.68
    8   14   69     -0.10     -4.33
    7   14   69     -0.39     -8.45
    6   14   69      3.18      1.38
    5   14   69      1.95     -1.45
    4   14   69    -15.24      5.23
    3   14   69      8.26      2.81
    2   14   69     -1.44      1.06
    1   14   69     -0.07     -4.19
    0   14   69     -1.05     -4.23
    7   15   69      0.37     -0.51
    6   15   69      1.81      1.94
    5   15   69     -9.13     -0.99
    4   15   69      0.47      4.15
    3   15   69     -0.31      1.70
    2   15   69     -5.56     -9.94
    1   15   69     -2.12      5.21
    0   15   69     -2.10     -1.99
    5   16   69      1.61      4.53
    4   16   69     -8.75     -7.55
    3   16   69     -2.32     -5.07
    2   16   69     -3.86      1.89
    1   16   69     -5.56     -3.64
    0   16   69     -2.22     -4.42
    0    0   70      4.78     -5.86
    1    1   70    -16.67     -5.00
    0    1   70    -19.45      6.00
    2    2   70     -7.75     -8.69
    1    2   70     10.32     15.36
    0    2   70    -20.35      0.14
    3    3   70     -1.71    -26.86
    2    3   70      4.54     15.20
    1    3   70     11.39     17.00
    0    3   70    -15.93     -0.13
    4    4   70      6.11     -9.69
    3    4   70      6.39     -9.74
    2    4   70      4.71     14.90
    1    4   70      0.68     -7.73
    0    4   70     16.12     -4.39
    5    5   70     -0.41      0.66
    4    5   70     -6.52     -1.50
    3    5   70     10.92     -0.35
    2    5   70     -4.16     -7.38
    1    5   70    -12.58     -2.19
    0    5   70     -4.55     -2.74
    6    6   70     -2.83     14.61
    5    6   70     -2.42     -2.92
    4    6   70      8.62     -4.54
    3    6   70     13.92     -7.31
    2    6   70      3.76      9.78
    1    6   70    -11.77     14.88
    0    6   70     13.30      3.91
    7    7   70      8.10     10.34
    6    7   70      0.87    -11.84
    5    7   70      5.16      9.40
    4    7   70      3.83     -1.42
    3    7   70      2.37      0.89
    2    7   70      4.09     -1.65
    1    7   70      2.27      8.55
    0    7   70     -7.55     -0.30
    8    8   70     22.28     -6.27
    7    8   70     -6.67      3.49
    6    8   70     -0.11     18.28
    5    8   70      4.83     12.28
    4    8   70      6.12    -17.07
    3    8   70     -9.32     -8.36
    2    8   70     -4.15     11.32
    1    8   70     10.20     -8.26
    0    8   70     -2.36      0.47
    8    9   70      8.36      4.35
    7    9   70     13.24     -0.97
    6    9   70     -0.32     12.32
    5    9   70      1.74      3.98
    4    9   70      0.91      6.34
    3    9   70     -2.42     -6.48
    2    9   70      0.98      5.05
    1    9   70     -8.53     -1.38
    0    9   70      6.06     -3.23
    9    9   70      8.77     -3.52
   10   10   70      5.69    -23.34
    9   10   70     -0.70     10.64
    8   10   70      8.01      7.44
    7   10   70      4.35     -3.87
    6   10   70      1.71    -13.70
    5   10   70      7.19      3.16
    4   10   70     -8.06      6.56
    3   10   70      7.91      5.67
    2   10   70     -4.38      7.06
    1   10   70     -4.65     -6.43
    0   10   70     14.60     -5.81
   10   11   70      1.78     -0.03
    9   11   70      6.31     -3.04
    8   11   70     -2.16     -5.25
    7   11   70      1.03     -3.94
    6   11   70     -8.44     -5.84
    5   11   70      4.30      1.92
    4   11   70      0.67      0.17
    3   11   70      5.14     -4.12
    2   11   70    -11.06     -5.67
    1   11   70     -2.44      1.60
    0   11   70      1.72     -2.73
   11   11   70      7.66      5.45
   11   12   70     -6.07      2.64
   10   12   70      4.27     -3.66
    9   12   70     -9.31      1.28
    8   12   70      9.89     -0.03
    7   12   70    -12.84      3.73
    6   12   70      6.10     -3.93
    5   12   70      0.45     -6.15
    4   12   70      1.85     -2.37
    3   12   70      0.52      3.20
    2   12   70     10.81     -4.44
    1   12   70     -1.67      3.31
    0   12   70     -6.27     -9.40
   10   13   70      0.06      1.00
    9   13   70     -1.59      3.16
    7   13   70     -8.55     -3.25
    6   13   70     -6.03      0.12
    5   13   70      3.98     -0.23
    4   13   70      1.33      2.60
    3   13   70      5.58    -16.05
    2   13   70      3.77     -3.84
    1   13   70      1.85      8.06
    0   13   70     -1.72     -3.57
    8   13   70      6.14     11.33
    9   14   70      7.61      0.61
    8   14   70      0.34      0.20
    7   14   70      7.43     -9.91
    6   14   70     -5.17     -4.24
    5   14   70      0.83     -1.45
    4   14   70     -4.07    -11.21
    3   14   70     -5.41      4.97
    2   14   70      1.42     -2.89
    1   14   70     -4.56     -3.20
    0   14   70      6.84      1.01
    7   15   70     -1.02      3.80
    6   15   70     -8.92      2.27
    5   15   70     -7.43     -7.24
    4   15   70      6.30     -0.29
    3   15   70     -2.99      5.95
    2   15   70     -3.22     -1.86
    1   15   70     -1.66     -6.91
    0   15   70      3.11     -0.11
    5   16   70     -5.02      2.03
    4   16   70      9.78     -5.30
    3   16   70      0.45     -1.23
    2   16   70      3.83     -0.45
    1   16   70      0.20     11.96
    0   16   70     -2.79     -1.25
    0    1   71     -0.32     30.61
    1    2   71     -5.40      8.01
    0    2   71      2.06     -6.41
    2    3   71      4.79     -1.45
    1    3   71     20.84      9.49
    0    3   71      6.93     10.79
    3    4   71     10.12     -1.29
    2    4   71     -0.43      7.06
    1    4   71     -1.03    -24.64
    0    4   71     -1.55     14.94
    4    5   71     14.52      0.16
    3    5   71     -7.67     -0.53
    2    5   71    -12.00    -26.03
    1    5   71      6.40     -1.23
    0    5   71     -0.24     11.20
    5    6   71     -6.16      0.49
    4    6   71      7.72      6.18
    3    6   71      5.76      4.29
    2    6   71    -10.18     -2.37
    1    6   71     -4.01     -3.20
    0    6   71      3.54     -3.25
    6    7   71    -13.25      8.86
    5    7   71     -3.03      8.25
    4    7   71     -0.11     17.01
    3    7   71     14.01    -10.42
    2    7   71     -8.03      4.25
    1    7   71    -14.87     -8.67
    0    7   71      2.74     -0.08
    7    8   71     -5.32     -7.68
    6    8   71     -1.90      6.87
    5    8   71     -1.14     21.98
    4    8   71     -8.95    -10.85
    3    8   71     -1.82     -3.13
    2    8   71      6.22      1.87
    1    8   71      2.95     17.53
    0    8   71     -1.35      2.23
    8    9   71      0.81      3.49
    7    9   71     -0.21      1.25
    6    9   71     12.16    -15.62
    5    9   71      2.55      2.00
    4    9   71     -4.02     19.74
    3    9   71    -16.21     -2.34
    2    9   71      4.35      7.15
    1    9   71     10.70    -11.06
    0    9   71     -6.81      7.75
    9   10   71     -6.29     -0.64
    8   10   71      3.20    -12.38
    7   10   71      0.85      1.62
    6   10   71      7.52     -2.87
    5   10   71     23.04    -12.46
    4   10   71      8.62     10.95
    3   10   71     -1.13      8.21
    2   10   71    -11.72     -0.77
    1   10   71     -3.11      5.14
    0   10   71      4.51      3.86
   10   11   71     -0.18     -7.53
    9   11   71      0.51      2.76
    8   11   71      3.26     -3.16
    7   11   71      4.13     -8.29
    6   11   71     13.05     -3.89
    5   11   71     -7.04     -5.60
    4   11   71     -0.30     -0.34
    3   11   71     -2.35      2.55
    2   11   71     -1.75      7.34
    1   11   71      8.17     11.97
    0   11   71      1.71      7.09
   11   12   71     -3.78      3.56
   10   12   71      8.68      7.53
    9   12   71     -1.51      2.85
    8   12   71     -2.51      0.14
    7   12   71      3.75     -7.93
    6   12   71      0.80     -0.80
    5   12   71      9.28      8.34
    4   12   71    -16.21      5.65
    3   12   71     -4.61      0.38
    2   12   71      7.49     14.86
    1   12   71    -12.21     -5.93
    0   12   71     -4.25      0.55
   10   13   71      2.78      4.90
    9   13   71     -4.13      6.31
    8   13   71     -4.15      2.73
    7   13   71      4.65      8.01
    6   13   71     -0.71      4.67
    5   13   71      0.85      3.08
    4   13   71     -4.16     -4.77
    3   13   71     -5.61     -6.79
    2   13   71     -2.56     -4.47
    1   13   71      7.28      0.15
    0   13   71     -0.70     -5.24
    8   14   71     -5.86      2.23
    7   14   71      3.32      6.51
    6   14   71      0.31      4.86
    5   14   71     -3.44      0.92
    4   14   71      2.05      6.31
    3   14   71     -4.76     -6.32
    2   14   71     -1.17     -3.77
    1   14   71     -1.61      4.84
    0   14   71      3.20      5.60
    7   15   71     -1.96     -0.63
    6   15   71      1.40     -5.23
    5   15   71      9.62     -5.13
    4   15   71     -0.70     -7.36
    3   15   71     -4.90      0.17
    2   15   71      7.36      3.30
    1   15   71      4.64      0.71
    0   15   71      1.51     -7.32
    4   16   71      2.43      1.93
    3   16   71      0.41     -4.30
    2   16   71      6.24     -5.36
    0   16   71      3.51     16.14
    1   16   71     -5.28      2.72
    0    0   72    -24.89      2.66
    1    1   72     -3.71     23.74
    0    1   72     -0.49     -5.64
    2    2   72     14.24     -2.81
    1    2   72     -1.88    -16.06
    0    2   72     23.39     -0.12
    3    3   72      1.12     12.39
    2    3   72      2.63      9.98
    1    3   72     -4.17    -12.30
    0    3   72      1.10      1.84
    4    4   72      0.30    -10.70
    3    4   72      1.41      4.67
    2    4   72     11.25     -0.83
    1    4   72     -1.84      3.59
    0    4   72    -38.12      1.67
    5    5   72     -3.18     -1.92
    4    5   72    -11.10      6.45
    3    5   72    -16.12    -13.40
    2    5   72      2.21     -9.12
    1    5   72     -4.41     13.45
    0    5   72      0.74      1.31
    6    6   72     -4.76     -1.39
    5    6   72      6.07     -5.49
    4    6   72    -14.45     -8.76
    3    6   72      1.97      9.31
    2    6   72      0.35    -11.01
    1    6   72     -7.06     15.54
    0    6   72    -21.27     -5.16
    7    7   72      2.59     -1.60
    6    7   72     -9.71     -2.32
    5    7   72     -9.56     -2.55
    4    7   72      1.63     -3.50
    3    7   72     -8.94     12.60
    2    7   72      6.40     -7.52
    1    7   72      0.24     13.65
    0    7   72      7.13     -2.98
    7    8   72      1.64     -1.36
    6    8   72      1.87     -7.92
    5    8   72     -7.67    -10.42
    4    8   72     -3.98      1.78
    3    8   72     10.44     -2.20
    2    8   72     -4.91      0.19
    1    8   72    -11.26     11.50
    0    8   72     17.18     -0.87
    8    8   72    -11.95     12.63
    9    9   72     -3.05      6.56
    8    9   72     -3.16      3.10
    7    9   72    -16.11     -2.88
    6    9   72     -2.72     -8.81
    5    9   72     -3.98     -2.45
    4    9   72     11.67      7.57
    3    9   72      3.19      6.00
    2    9   72      2.54     10.87
    1    9   72      0.23    -16.19
    0    9   72    -14.55     -1.45
   10   10   72     -5.70     14.37
    9   10   72      3.22      4.66
    7   10   72     -6.22     10.27
    6   10   72      2.76      1.33
    5   10   72     -5.80     -7.87
    4   10   72     -5.28     -6.57
    3   10   72     -3.78      9.45
    2   10   72     -0.53     -1.13
    1   10   72      1.44      6.52
    0   10   72    -21.50      9.57
    8   10   72     -9.66     -3.83
   11   11   72      0.80     -3.21
   10   11   72     -3.10      1.01
    9   11   72     -8.60      4.72
    8   11   72     -3.28      8.81
    7   11   72      2.12     -5.62
    6   11   72      0.81      0.52
    5   11   72     -1.55     -5.14
    4   11   72      4.09     -2.36
    3   11   72     -9.17     -5.95
    2   11   72     -0.14     -4.37
    1   11   72      8.50      5.56
    0   11   72      9.32     -1.34
   11   12   72     -4.08      2.28
   10   12   72      3.41     -3.47
    8   12   72      1.27      2.56
    7   12   72      1.46     -6.73
    6   12   72      2.64      0.43
    5   12   72      0.58     -4.95
    4   12   72      4.26      7.58
    3   12   72      9.37      0.65
    2   12   72      0.96      2.74
    1   12   72      2.14     -7.26
    0   12   72     15.29      4.59
    9   12   72      6.32      0.85
   10   13   72      0.92     -0.94
    9   13   72      5.39     -2.11
    8   13   72      0.44     -4.98
    7   13   72      4.12      1.39
    6   13   72      2.63     -0.98
    5   13   72      4.48      1.82
    4   13   72     -2.64     -4.17
    3   13   72     -2.50      4.12
    2   13   72     -4.75      5.28
    1   13   72      0.86    -10.29
    0   13   72      9.84      2.20
    8   14   72     -5.25     -4.54
    7   14   72      0.82      6.44
    6   14   72     -3.44     -5.47
    5   14   72      4.26     -3.64
    4   14   72      6.87      0.06
    3   14   72      2.79      3.44
    2   14   72      6.35      3.33
    1   14   72      6.86      8.17
    0   14   72      2.91     -0.43
    6   15   72      6.57     -1.37
    5   15   72      8.04      2.42
    4   15   72     -6.48      1.44
    3   15   72      0.64      1.43
    2   15   72      2.52      5.99
    1   15   72      0.40     -2.12
    0   15   72     -6.51      0.91
    3   16   72     -4.88     -0.13
    2   16   72     -2.92      6.54
    1   16   72     -3.08     -2.89
    0   16   72      2.00      2.10
    0    1   73     -4.98    -41.94
    1    2   73     -7.93    -12.37
    0    2   73     10.93     14.78
    2    3   73    -10.99      5.89
    1    3   73     18.96      5.69
    0    3   73     -1.22     20.25
    3    4   73      3.03      0.92
    2    4   73     -5.78     -6.57
    1    4   73     -5.16     11.10
    0    4   73      2.73    -17.97
    4    5   73     -8.02     -7.59
    3    5   73     -1.23     -8.58
    2    5   73     -8.83     12.82
    1    5   73     -5.13      9.19
    0    5   73     -1.73     -8.18
    5    6   73     -1.57      3.20
    4    6   73     -7.11     -3.84
    3    6   73    -15.75     -0.51
    2    6   73      5.99     10.28
    1    6   73     -9.71      5.34
    0    6   73     -0.26     11.16
    6    7   73     17.05      6.75
    5    7   73      5.35      5.79
    4    7   73     -0.88     -8.55
    3    7   73    -12.35     20.36
    2    7   73     -2.96      3.17
    1    7   73     14.46      4.32
    0    7   73     -2.70     15.51
    7    8   73      8.20      7.13
    6    8   73     -1.74      1.61
    5    8   73     12.19     -0.73
    4    8   73     -2.23     12.46
    3    8   73     -4.18     -1.23
    2    8   73     -0.46      7.73
    1    8   73     -7.20    -10.97
    0    8   73      4.04      7.73
    8    9   73      0.66     -9.26
    7    9   73      1.42      5.71
    6    9   73     -7.59      9.57
    5    9   73     -4.00      2.25
    4    9   73      5.44     -5.08
    3    9   73      3.97      2.12
    2    9   73     -0.64      3.77
    1    9   73    -15.32      4.63
    0    9   73      8.80    -12.65
    9   10   73     -1.33      2.18
    8   10   73     -4.02     -4.71
    7   10   73      7.36     -9.55
    6   10   73     -7.06      2.29
    5   10   73    -10.17     15.56
    4   10   73     -8.10     -2.79
    3   10   73     12.52    -10.10
    2   10   73      6.81     -1.54
    1   10   73     -1.98     -2.36
    0   10   73     -7.69    -11.22
   10   11   73     10.39      7.38
    9   11   73     -0.01      0.15
    8   11   73     -0.55     -0.52
    7   11   73     -5.11     -1.67
    6   11   73     -0.87      7.58
    5   11   73     -0.53     -2.37
    4   11   73      7.81      0.65
    3   11   73     -4.62      1.16
    2   11   73     -0.96    -16.84
    1   11   73    -10.62     -3.49
    0   11   73      1.91     -1.82
   10   12   73     -8.58      5.63
    9   12   73      2.41     -9.60
    8   12   73      3.37      2.21
    7   12   73     -3.00     -0.25
    6   12   73     -2.30     -2.15
    5   12   73     -1.50      4.40
    4   12   73      7.43      3.04
    3   12   73      7.61      2.85
    2   12   73     -2.31     -9.12
    1   12   73      5.23     -5.95
    0   12   73      4.84     12.11
    9   13   73      4.79     -3.24
    8   13   73      3.90     -5.20
    7   13   73     -5.14      0.00
    6   13   73      1.16      4.34
    5   13   73      2.25      9.75
    4   13   73     -1.52      1.25
    3   13   73     -0.60     17.16
    2   13   73     -5.89     -0.18
    1   13   73     -2.37     -0.86
    0   13   73      0.97     16.03
    8   14   73      5.99     -2.08
    7   14   73     -8.20    -11.64
    6   14   73     -8.88     -8.81
    5   14   73     -1.52      0.16
    4   14   73     -7.41      0.91
    3   14   73     -1.24      5.34
    2   14   73      3.79      7.12
    1   14   73      5.44     -2.62
    0   14   73      0.42    -14.51
    6   15   73      0.82      4.12
    5   15   73     -9.21      2.30
    4   15   73      8.34      5.74
    3   15   73      1.29      4.44
    2   15   73      1.12      2.47
    1   15   73     -6.08     -5.56
    0   15   73     -1.25     -0.62
    1   16   73     11.51     -5.36
    0   16   73      0.94    -12.29
    2   16   73     -5.15     13.56
    0    0   74     11.65     -7.14
    1    1   74      6.78      9.76
    0    1   74      1.69     11.63
    2    2   74    -24.09    -11.05
    1    2   74      0.96     -0.91
    0    2   74    -29.07      0.46
    3    3   74     19.14    -30.11
    2    3   74     -1.97     -5.99
    1    3   74      0.94     30.37
    0    3   74    -14.63     -4.40
    4    4   74      5.70      4.81
    3    4   74    -12.03     -3.19
    2    4   74    -17.22      1.69
    1    4   74     -7.52     -2.08
    0    4   74     49.31      1.53
    5    5   74     10.06     -3.53
    4    5   74      0.94     -8.30
    3    5   74     -2.78      5.86
    2    5   74      6.57      0.73
    1    5   74      9.66    -12.36
    0    5   74    -10.41     -0.40
    6    6   74     -0.38     15.41
    5    6   74      4.74     -8.40
    4    6   74     16.02     -5.81
    3    6   74      3.18      2.90
    2    6   74     10.40      9.16
    1    6   74      8.04     -4.13
    0    6   74     28.11      1.69
    7    7   74    -11.17      5.55
    6    7   74     12.25     -9.80
    5    7   74      9.89      7.16
    4    7   74    -17.06      9.17
    3    7   74     15.11      1.27
    2    7   74     -3.27      2.85
    1    7   74     11.15    -19.80
    0    7   74     -4.99      4.43
    8    8   74     -4.70     -8.18
    7    8   74     -1.46     10.92
    6    8   74     -2.54      0.17
    5    8   74      5.30      0.33
    4    8   74     -7.28     -1.83
    3    8   74      0.90      7.87
    2    8   74     -2.02      5.79
    1    8   74     10.22    -13.66
    0    8   74    -14.17     -0.14
    9    9   74    -11.16    -13.62
    8    9   74     -5.26     -5.09
    7    9   74      1.09      2.83
    6    9   74      3.92     -0.68
    5    9   74     -2.65      3.53
    4    9   74     -4.20      0.22
    3    9   74     -5.25    -16.38
    2    9   74     -1.50     -0.51
    1    9   74     -1.19     11.43
    0    9   74      7.45      2.11
   10   10   74      3.54     -0.27
    9   10   74     -7.03      4.48
    8   10   74     -2.80     -0.18
    7   10   74     -1.29     -2.80
    6   10   74    -13.98      2.55
    5   10   74     -2.23     -1.91
    4   10   74      9.10     -3.76
    3   10   74      4.48      6.33
    2   10   74     -2.45     -5.13
    1   10   74      1.44    -10.46
    0   10   74     18.81     -4.60
   11   11   74     -2.72     -2.35
   10   11   74     -6.86      4.30
    9   11   74      4.97    -10.47
    8   11   74      2.59     -9.44
    7   11   74     -7.93      4.35
    6   11   74      1.56      8.47
    5   11   74     -4.20     -2.30
    4   11   74    -11.75      2.09
    3   11   74      3.27     13.58
    2   11   74      1.28      4.28
    1   11   74     -2.52      2.61
    0   11   74     -6.72      2.32
   10   12   74     -1.14      3.40
    9   12   74     -8.56      0.24
    8   12   74     -3.04     -1.34
    7   12   74      0.16     -1.14
    6   12   74     -3.04      1.84
    5   12   74      1.08     -0.93
    4   12   74     -0.33      1.05
    3   12   74     -0.35      4.38
    2   12   74     -3.10     -9.30
    1   12   74      3.02      5.20
    0   12   74    -10.35      0.19
    9   13   74     -6.80     -2.28
    8   13   74     -0.87     -1.51
    7   13   74      1.00      4.20
    6   13   74     -2.52      1.55
    5   13   74      4.71     -7.26
    4   13   74      9.24      6.45
    3   13   74      4.76     -6.83
    2   13   74      0.47     -5.24
    1   13   74     -1.56      2.54
    0   13   74     -5.82     -0.87
    7   14   74     -5.85      1.39
    6   14   74      4.19     -2.94
    4   14   74      6.81     -1.51
    3   14   74     -2.61     -2.52
    2   14   74     -0.71     -1.04
    1   14   74     -3.18     -2.79
    0   14   74     -0.87      0.14
    5   14   74     -5.77     13.56
    5   15   74     -3.12     -3.62
    4   15   74     -0.45      4.17
    3   15   74      5.77     -7.38
    2   15   74     -6.12     -1.18
    1   15   74     -8.35     -4.35
    0   15   74      0.25      0.65
    1   16   74      4.36     -1.49
    0   16   74      0.44     -0.29
    0    1   75      1.12      6.28
    1    2   75      8.32      5.92
    0    2   75     -1.46      3.16
    2    3   75     -0.24      0.26
    1    3   75     -8.46     -2.36
    0    3   75     -0.69      0.87
    3    4   75    -14.71      6.44
    2    4   75      2.66     11.30
    1    4   75     11.52    -16.63
    0    4   75     -1.54    -15.53
    4    5   75      2.62      9.66
    3    5   75    -11.51    -10.43
    2    5   75      4.83    -12.13
    1    5   75     24.65    -10.51
    0    5   75      1.17      7.57
    5    6   75     -0.37    -13.66
    4    6   75     11.25     -8.02
    3    6   75     -1.29      3.94
    2    6   75      7.33     -1.37
    1    6   75     -2.21    -16.55
    0    6   75      2.87     -8.33
    6    7   75     -0.85     -4.35
    5    7   75     -6.45     -0.39
    4    7   75     -2.68     -7.77
    3    7   75     10.65     -5.59
    2    7   75     16.03      8.27
    1    7   75     -9.06     -4.78
    0    7   75      6.20    -24.65
    7    8   75     -2.37     -5.66
    6    8   75     -4.48      1.44
    5    8   75     -5.70     12.73
    4    8   75     -4.25     -8.64
    3    8   75      3.17     -1.67
    2    8   75      6.83     -0.98
    1    8   75     -8.23     25.92
    0    8   75     -0.15     14.03
    8    9   75     -0.50      5.43
    7    9   75     -8.13      1.33
    6    9   75      2.48     -0.62
    5    9   75     -3.86     -5.80
    4    9   75      8.92      6.20
    3    9   75     -6.25      9.69
    2    9   75     -0.64      1.89
    1    9   75     10.96     15.17
    0    9   75     -5.05     -6.97
    9   10   75      6.40     -4.22
    8   10   75      2.38     -0.10
    7   10   75     -9.45      3.17
    6   10   75     -8.71      2.75
    5   10   75      5.74    -15.39
    4   10   75      9.14      6.99
    3   10   75     -3.61     -6.64
    2   10   75      4.62      8.11
    1   10   75     10.07     -4.25
    0   10   75     12.38     -9.19
   10   11   75     -7.44     -8.09
    9   11   75     -3.52     -0.69
    8   11   75      0.66      4.47
    7   11   75      2.70      1.12
    6   11   75     -7.43     -8.07
    5   11   75     11.73     -6.71
    4   11   75     -9.94     -5.21
    3   11   75      1.24    -10.58
    2   11   75     -2.02     -3.62
    1   11   75     12.16     -3.21
    0   11   75     -2.86      2.37
   10   12   75      6.92     -3.27
    9   12   75      6.19      5.18
    7   12   75     -2.82      4.70
    6   12   75     -3.57      5.20
    5   12   75     -0.98     -6.33
    4   12   75     -6.23    -20.21
    3   12   75     -5.56     -2.12
    2   12   75     -1.73      5.38
    1   12   75      5.33     -4.04
    0   12   75     -9.56    -12.99
    8   12   75      3.29      1.35
    9   13   75     -4.26      5.73
    8   13   75     -6.19      2.94
    7   13   75      2.22     -0.28
    6   13   75     -0.28     -5.55
    5   13   75     -0.70      1.30
    4   13   75      0.66      2.96
    3   13   75     -6.84     -3.33
    2   13   75      5.60     -2.85
    1   13   75     -4.38      4.28
    0   13   75      0.04     -8.45
    7   14   75     -1.05     11.07
    6   14   75      5.07      5.03
    4   14   75     -1.15     -7.86
    3   14   75      9.90     -1.87
    2   14   75     -5.39      3.36
    1   14   75      4.18     -0.63
    0   14   75     -0.28      9.42
    5   14   75      7.48      1.79
    5   15   75      1.47     -0.11
    4   15   75     -0.37    -11.47
    3   15   75      0.19     -8.96
    2   15   75      2.21     -1.02
    1   15   75      5.66     12.45
    0   15   75      0.50      5.82
    0    0   76    -42.92      6.98
    1    1   76     -5.38     45.53
    0    1   76      3.33      3.22
    2    2   76      2.14    -33.92
    1    2   76      2.85    -10.78
    0    2   76     38.62     -0.50
    3    3   76     12.98      3.51
    2    3   76      2.79     13.02
    1    3   76     -1.38     -9.54
    0    3   76      8.87     11.78
    4    4   76     11.53      3.43
    3    4   76      3.67      2.41
    2    4   76     19.22      7.49
    1    4   76     -3.15     -9.98
    0    4   76    -19.27     -2.56
    5    5   76     -0.19      0.82
    4    5   76     -9.46      8.78
    3    5   76      9.70     -2.56
    2    5   76     -0.06    -17.57
    1    5   76      2.89      2.41
    0    5   76      0.06      2.76
    6    6   76      2.42      4.34
    5    6   76      0.20     -4.61
    4    6   76     -7.10     -3.52
    3    6   76     -0.84     -7.33
    2    6   76    -13.88     -2.36
    1    6   76    -10.21     16.26
    0    6   76    -26.70     -1.29
    7    7   76     -4.24    -18.27
    6    7   76    -13.70      6.05
    5    7   76    -11.73    -15.20
    4    7   76     11.62      9.06
    3    7   76    -12.72     -0.55
    2    7   76     16.32      2.83
    1    7   76    -23.08      1.47
    0    7   76    -10.31     -0.88
    7    8   76      4.11     -6.56
    6    8   76     -2.20     -2.29
    5    8   76      7.78      5.35
    4    8   76      6.60     -5.70
    3    8   76     -2.79     -5.97
    2    8   76    -19.51      1.94
    1    8   76     -4.37      2.55
    0    8   76      2.59     -0.93
    8    8   76     12.50    -12.58
    9    9   76      2.14      7.69
    8    9   76      4.73      1.53
    7    9   76     11.08      1.53
    6    9   76      1.75     -0.64
    5    9   76     -3.40     -4.26
    4    9   76     -0.10     -6.05
    3    9   76     -4.33      6.45
    2    9   76     -3.08     -2.64
    1    9   76      1.81    -13.43
    0    9   76     -4.41     -2.05
   10   10   76      3.16      2.02
    8   10   76      4.32      2.70
    7   10   76     -7.16     -0.48
    6   10   76      1.72     -7.33
    5   10   76     -7.22      0.51
    4   10   76      9.55     11.86
    3   10   76     -0.47     -2.74
    2   10   76     -1.06     -6.50
    1   10   76     -1.86     -7.65
    0   10   76    -11.28      1.00
    9   10   76     -5.29     -0.32
   11   11   76     -0.29     -3.32
   10   11   76      0.54     -0.08
    8   11   76     -6.89      8.84
    7   11   76     10.63      0.38
    6   11   76     -2.84     -6.59
    5   11   76      8.70      4.96
    4   11   76     15.76     -1.48
    3   11   76     -0.51      2.67
    2   11   76     -1.85      7.51
    1   11   76      8.32      6.70
    0   11   76     12.03     -0.78
    9   11   76      4.77      7.77
   10   12   76      1.03     -1.02
    9   12   76      9.46      2.05
    7   12   76      0.65      1.63
    6   12   76     -1.23     -1.07
    5   12   76      0.41      2.39
    4   12   76      7.87      7.69
    3   12   76     -4.75      5.43
    2   12   76      3.90     -4.36
    1   12   76     -2.38     -7.56
    0   12   76      4.21      2.77
    8   12   76     -0.17      0.55
    8   13   76     -1.03      7.34
    7   13   76     -0.53     -9.49
    6   13   76      8.76     -4.01
    5   13   76     -4.70      1.87
    4   13   76     -4.48      3.05
    3   13   76     -4.55     -1.00
    2   13   76      4.84     -0.72
    1   13   76     -4.27     -3.02
    0   13   76      2.48     -1.42
    7   14   76     -1.19      0.99
    6   14   76     -3.22     -4.11
    5   14   76     -3.07     -8.73
    4   14   76     -7.12     -1.21
    3   14   76     -9.30      4.02
    2   14   76     -2.66     -0.35
    1   14   76      3.56      6.42
    0   14   76      1.70      1.33
    4   15   76      3.86      2.17
    3   15   76     -1.70      4.76
    2   15   76     -4.49      2.27
    1   15   76     10.57      4.15
    0   15   76      3.21      3.22
    0    1   77     -1.97    -25.21
    1    2   77      0.42     -5.26
    0    2   77      2.92     14.57
    2    3   77     10.98     -3.92
    1    3   77      7.22     -4.61
    0    3   77     -1.08     10.09
    3    4   77      5.20      3.14
    2    4   77     14.30    -12.99
    1    4   77      5.92      8.37
    0    4   77     10.07     14.77
    4    5   77     -7.11     -3.22
    3    5   77      0.03     -7.49
    2    5   77     -1.09      0.43
    1    5   77     -7.80     14.55
    0    5   77     -5.07    -21.34
    5    6   77      5.56      4.16
    4    6   77    -13.57     11.16
    3    6   77     -4.69     -1.76
    2    6   77    -22.52     -1.79
    1    6   77     10.11      6.05
    0    6   77     -2.72    -12.62
    6    7   77    -10.54      7.39
    5    7   77      3.57      0.85
    4    7   77     -4.93      8.01
    3    7   77     -7.33     -1.61
    2    7   77     -9.28     -5.14
    1    7   77      3.86     -1.99
    0    7   77     -4.36     29.51
    7    8   77      2.57      6.96
    6    8   77     -3.46     11.70
    5    8   77     -2.77     -0.02
    4    8   77     -5.11     -9.57
    3    8   77     -3.39     11.52
    2    8   77      5.70     -2.67
    1    8   77      6.25    -12.07
    0    8   77     -1.75     -7.89
    8    9   77      8.05      3.77
    7    9   77     -5.74      1.45
    6    9   77     20.64     -7.65
    5    9   77     -3.86      7.98
    4    9   77    -14.43      3.37
    3    9   77     -1.75      4.71
    2    9   77     11.56     -1.07
    1    9   77     -7.72     -4.01
    0    9   77      1.11     -8.15
    8   10   77     -2.29      2.16
    7   10   77     14.43     -5.53
    6   10   77     -2.70     -0.62
    5   10   77      9.99      6.29
    4   10   77     -4.77     -2.38
    3   10   77     -4.23     -5.98
    2   10   77     -3.35     -4.35
    1   10   77     -3.20      1.30
    0   10   77     -8.64      9.70
    9   10   77     -0.75      2.14
   10   11   77     -2.00      1.96
    9   11   77      5.77     -6.43
    8   11   77      0.74     -4.40
    7   11   77     -0.18     -5.14
    6   11   77      3.98      1.58
    5   11   77    -12.11     -4.76
    4   11   77      4.23     -1.39
    3   11   77      1.95     -1.08
    2   11   77     -2.62      0.66
    1   11   77      8.33      1.12
    0   11   77      0.92     -1.98
    9   12   77     -2.07     -3.35
    8   12   77      1.60     -3.43
    7   12   77      2.04      6.78
    6   12   77     -9.04     -3.55
    5   12   77     -3.16      6.20
    4   12   77      3.93     13.01
    3   12   77     -5.50      7.00
    2   12   77      4.58      9.25
    1   12   77      2.88     -3.22
    0   12   77      4.03     -3.53
    8   13   77      1.29     -4.64
    7   13   77     -9.40      4.32
    6   13   77      2.15      7.74
    5   13   77     -4.16      4.75
    4   13   77      3.20      2.90
    3   13   77      5.02      5.13
    2   13   77     -3.52      0.60
    1   13   77      3.15      4.48
    0   13   77      0.14     14.00
    6   14   77     -4.01      7.09
    5   14   77     -3.34     -6.18
    4   14   77      0.65     10.98
    3   14   77     -2.40      1.04
    2   14   77      7.27      0.63
    1   14   77      0.53     -3.82
    0   14   77     -0.84     -9.12
    3   15   77     -0.25      3.70
    2   15   77     -0.96     -5.87
    0   15   77     -1.80     -5.01
    1   15   77      6.44     -9.42
    0    0   78     13.86     -2.83
    1    1   78     -2.06    -29.18
    0    1   78     -0.38     -1.19
    2    2   78    -10.17      8.17
    1    2   78     -4.76    -15.24
    0    2   78    -19.91     -3.63
    3    3   78     -0.69     -8.95
    2    3   78      2.03     11.56
    1    3   78     -2.94     12.95
    0    3   78     -6.66     -3.47
    4    4   78     14.46    -12.30
    3    4   78     -2.59      5.41
    2    4   78    -16.16     10.60
    1    4   78      4.95    -10.40
    0    4   78     33.37      5.67
    5    5   78      1.63     -1.94
    4    5   78     -3.40     -8.87
    3    5   78      7.24     -8.86
    2    5   78      8.44      2.83
    1    5   78     -3.95     -9.90
    0    5   78     -3.40      0.90
    5    6   78      4.44      2.14
    4    6   78     -6.04    -10.68
    3    6   78     -3.50     -0.09
    2    6   78     -7.56      9.40
    1    6   78     13.93    -11.64
    0    6   78     -3.33     -1.48
    6    6   78     -5.38    -13.45
    7    7   78    -21.04      4.43
    6    7   78      7.16      2.28
    5    7   78      4.79     -0.25
    4    7   78     -7.81     -2.74
    3    7   78    -13.25      3.71
    2    7   78      0.30      7.14
    1    7   78     -4.65     -0.85
    0    7   78      1.21     -0.23
    8    8   78    -14.81     13.38
    7    8   78      0.70      7.37
    6    8   78    -12.25      0.86
    5    8   78     -1.11     -7.33
    4    8   78     -5.76     11.66
    3    8   78      0.68      6.97
    2    8   78     14.28     -5.63
    1    8   78      0.58     -7.11
    0    8   78    -15.48      1.42
    8    9   78     -6.47      1.69
    7    9   78     -5.73     -5.89
    6    9   78     -5.30      4.10
    5    9   78      4.66     -5.55
    4    9   78     -2.64     -3.42
    3    9   78     -2.75     -6.33
    2    9   78      5.80     -1.21
    1    9   78     -3.73      3.49
    0    9   78      4.82      4.05
    9    9   78      3.19     -0.09
   10   10   78     -3.19      4.31
    8   10   78     -2.04     -4.32
    7   10   78     -2.41      0.70
    6   10   78    -11.23     -4.43
    5   10   78      1.12      2.86
    4   10   78      4.84     -0.35
    3   10   78     -3.84      9.76
    2   10   78     -2.99     -1.18
    1   10   78     -0.34     -0.68
    0   10   78      3.24     -2.59
    9   10   78     10.48     -1.35
   10   11   78      2.82     -6.83
    9   11   78     -9.60      4.55
    8   11   78     -0.78     -1.27
    7   11   78     -8.36      0.03
    6   11   78      1.07      2.99
    5   11   78     -9.74      1.99
    4   11   78    -14.99      2.46
    3   11   78     -0.27     -1.41
    2   11   78     -5.43      0.63
    1   11   78    -13.20      8.28
    0   11   78    -11.42     -6.21
    9   12   78     -4.13     -2.70
    8   12   78      3.48     -7.91
    7   12   78     -6.18     -2.87
    6   12   78      5.89     -0.09
    5   12   78      3.79      6.42
    4   12   78    -14.01     -2.67
    3   12   78     -0.02     -3.54
    2   12   78    -14.44     -4.25
    1   12   78     -4.12     -1.43
    0   12   78     -5.87     -2.04
    7   13   78     -7.99      4.06
    6   13   78    -17.00      3.32
    5   13   78      5.69     -2.97
    4   13   78     13.27     -0.98
    3   13   78      4.83     -2.19
    2   13   78     -3.79     -0.04
    1   13   78      3.14     -1.27
    0   13   78      2.31      1.34
    6   14   78      6.50     -2.92
    5   14   78      0.39      1.78
    4   14   78     10.58      2.35
    3   14   78      7.98      5.75
    2   14   78      6.37     -1.97
    1   14   78     -1.73     -5.96
    0   14   78     -9.50     -0.20
    2   15   78      0.55     -4.83
    1   15   78      0.96     -6.17
    0   15   78     -0.35    -11.81
    0    1   79      0.54     28.06
    1    2   79     -0.29      2.40
    0    2   79     -0.75     11.42
    2    3   79     -3.51      4.88
    1    3   79     -2.53     -5.93
    0    3   79      3.74     -3.95
    3    4   79     -7.99      0.14
    2    4   79     -6.27     12.29
    1    4   79      8.22      2.16
    0    4   79     -9.96     -4.90
    4    5   79     -4.55      8.00
    3    5   79      5.11    -10.07
    2    5   79      6.92     -9.03
    1    5   79      8.86     -4.10
    0    5   79      5.39     23.15
    5    6   79      3.19    -11.37
    4    6   79     11.18     -1.71
    3    6   79     -2.72      1.71
    2    6   79     14.24      4.25
    1    6   79     -1.82      3.65
    0    6   79      3.40      1.51
    6    7   79      6.80     -3.86
    5    7   79     -3.49     -3.41
    4    7   79     -4.17    -15.58
    3    7   79     11.27      3.33
    2    7   79      8.02     14.13
    1    7   79      3.18      6.97
    0    7   79      1.45    -27.81
    7    8   79      1.09     -5.03
    6    8   79     -5.57      1.46
    5    8   79      7.58     -0.07
    4    8   79     -1.58      5.09
    3    8   79      5.14    -24.44
    2    8   79     -1.93      2.00
    1    8   79     -3.48      9.31
    0    8   79     -0.35     16.13
    8    9   79     -0.82     -5.74
    7    9   79      4.16      0.68
    6    9   79    -15.16     -4.98
    5    9   79     -7.99     -5.32
    4    9   79     12.66     -7.30
    3    9   79      3.24     -0.03
    2    9   79     -4.66     -2.37
    1    9   79     -6.93     -2.07
    0    9   79      0.60    -12.80
    8   10   79     -5.50     -0.10
    7   10   79    -11.59     -0.24
    6   10   79     -7.50      3.46
    5   10   79     -7.13    -14.23
    4   10   79      8.50      0.81
    3   10   79      9.90     -1.18
    2   10   79     -6.68      5.79
    1   10   79      0.59     -5.07
    0   10   79      2.70    -12.70
    9   10   79      1.70     -5.88
   10   11   79      1.13     -2.15
    9   11   79     -1.76     -1.20
    7   11   79      3.77      4.04
    6   11   79      1.70     -5.57
    5   11   79     -3.31      8.20
    4   11   79      2.69     -0.18
    3   11   79      5.06     -8.01
    2   11   79     -1.97    -10.40
    1   11   79     -5.99     -1.03
    0   11   79      1.35      5.49
    8   11   79      2.81      6.60
    9   12   79     -3.40      5.63
    8   12   79     -1.87     -1.23
    7   12   79     -2.63      2.51
    6   12   79      6.30     -3.17
    5   12   79      1.09     -1.06
    4   12   79      0.49     -7.31
    3   12   79     -2.33     -2.51
    2   12   79     -6.34      0.89
    1   12   79     -0.95      1.03
    0   12   79     -1.77      7.81
    7   13   79      2.80     -6.27
    6   13   79     -2.89      1.24
    5   13   79      4.70     -5.15
    4   13   79      3.11      4.03
    3   13   79     -4.02     -7.55
    2   13   79      2.63      2.02
    1   13   79      4.74     -0.07
    0   13   79     -1.20     -7.40
    5   14   79      3.04      0.09
    4   14   79     -2.77     -6.19
    3   14   79      1.57      4.14
    2   14   79      0.57      7.88
    1   14   79     -3.22     11.99
    0   14   79      1.31      0.65
    0   15   79      0.52     -4.51
    0    0   80     -9.97     -1.61
    1    1   80     22.28     32.76
    0    1   80      4.42     -1.38
    2    2   80     -0.69     -1.88
    1    2   80      8.04     -1.95
    0    2   80     21.47      3.07
    3    3   80      9.25     -3.44
    2    3   80    -10.54     10.05
    1    3   80    -16.87     -9.58
    0    3   80     -2.05     -1.99
    4    4   80    -12.88      2.71
    3    4   80     -1.28     -2.58
    2    4   80     18.15      1.79
    1    4   80      0.84     -2.75
    0    4   80    -15.64    -14.22
    5    5   80     20.71     12.85
    4    5   80      5.76     13.15
    3    5   80    -10.39     11.66
    2    5   80     -4.34      2.62
    1    5   80     18.38      3.61
    0    5   80      4.07     -1.88
    6    6   80      7.36     -2.15
    5    6   80     -2.23      3.43
    4    6   80      2.65      0.99
    3    6   80      0.68      6.93
    2    6   80     21.76    -18.37
    1    6   80    -12.02     12.22
    0    6   80     -1.63     -0.22
    7    7   80      4.90     -1.98
    6    7   80     -8.11     -7.97
    5    7   80     -4.90     -2.57
    4    7   80     -1.25      8.08
    3    7   80      9.59     -0.45
    2    7   80     -0.72     -4.29
    1    7   80     -4.27     -0.55
    0    7   80     13.29     -3.75
    8    8   80     -0.50     -9.89
    7    8   80      3.06     -7.15
    6    8   80      2.02      0.82
    5    8   80      2.60     11.02
    4    8   80      5.58    -11.58
    3    8   80     -4.55      1.83
    2    8   80    -14.18      1.12
    1    8   80      0.96      0.14
    0    8   80     -0.40     -1.24
    8    9   80     -0.72     -3.37
    7    9   80      4.38      1.41
    6    9   80     -1.43      0.35
    5    9   80      4.31      0.19
    4    9   80      3.94      0.34
    3    9   80     -5.50     -2.82
    2    9   80     -6.98      3.80
    1    9   80      5.43      4.40
    0    9   80    -10.26    -10.31
    9    9   80     -8.69     -1.08
   10   10   80     13.11    -10.75
    9   10   80      3.24     -0.75
    8   10   80      0.70      3.00
    7   10   80      7.74     -1.03
    6   10   80     11.41      0.41
    5   10   80      0.35     -8.78
    4   10   80      8.86     -7.67
    3   10   80      1.61      6.88
    2   10   80     -3.41      3.14
    1   10   80      4.90     -2.43
    0   10   80      4.38      0.41
    9   11   80     11.39     -6.47
    8   11   80      0.29     -1.44
    7   11   80     -0.34     -0.26
    6   11   80      3.43      6.00
    5   11   80      7.16      0.62
    4   11   80      9.72      2.62
    3   11   80      4.37     -0.81
    2   11   80      5.53      5.36
    1   11   80      5.82     -3.09
    0   11   80      3.26     -2.44
    8   12   80     -2.03     13.57
    7   12   80      0.20     10.05
    6   12   80     -4.35     -8.80
    5   12   80     -2.31      2.67
    4   12   80      7.38     10.46
    3   12   80      3.64      9.55
    2   12   80     -1.69      0.24
    1   12   80      5.62      0.66
    0   12   80      9.82      1.91
    7   13   80      3.97     -1.07
    6   13   80      3.33      2.23
    5   13   80      3.28     -2.25
    4   13   80    -20.19      5.85
    3   13   80     -5.06     -4.09
    2   13   80      0.84      6.07
    1   13   80     -4.01     -3.17
    0   13   80     -2.62     -0.56
    4   14   80     -9.13      2.06
    3   14   80     -1.41    -12.62
    2   14   80     -5.24      4.00
    1   14   80     -3.14      5.54
    0    1   81     -0.16    -18.04
    1    2   81     22.36      0.05
    0    2   81     -0.63    -12.27
    2    3   81      8.56     -6.29
    1    3   81     -9.06     -7.16
    0    3   81      0.89      6.90
    3    4   81     -3.64    -11.72
    2    4   81      3.58     -4.14
    1    4   81      8.88     -0.49
    0    4   81     14.57      6.29
    4    5   81      6.06     -4.01
    3    5   81      4.64      7.12
    2    5   81     -6.62      0.36
    1    5   81      4.77     15.37
    0    5   81     -4.78    -35.51
    5    6   81     -9.27      9.02
    4    6   81      3.45     13.15
    3    6   81     11.42      3.54
    2    6   81    -11.01     -8.06
    1    6   81      4.87     -7.54
    0    6   81     -1.44     -4.77
    6    7   81      0.17     -4.06
    5    7   81    -11.11      9.46
    4    7   81     -1.58      4.44
    3    7   81     -3.85     -5.11
    2    7   81      1.72      1.54
    1    7   81     -9.68    -11.62
    0    7   81      1.73     27.67
    6    8   81      1.66     -2.63
    5    8   81     -2.89      4.57
    4    8   81     -8.20     -2.67
    3    8   81      0.86      5.11
    2    8   81     -3.76     -7.35
    1    8   81     -2.42     -5.11
    0    8   81      0.63     -6.16
    7    8   81      6.36      0.20
    8    9   81     -5.21      0.01
    7    9   81     -3.95      2.62
    6    9   81      6.89     -6.56
    5    9   81     -1.23      6.00
    4    9   81     -2.03      0.78
    3    9   81      3.91      1.79
    2    9   81      1.99      4.57
    1    9   81      6.07     -5.98
    0    9   81     -0.38      3.66
    9   10   81     -1.79     -0.16
    8   10   81      1.07     -3.86
    7   10   81      0.30     -6.82
    6   10   81      5.74     -4.10
    5   10   81      0.50      1.70
    4   10   81     -4.74     -0.81
    3   10   81     -7.84     -0.30
    2   10   81     15.07    -11.00
    1   10   81      0.12     -1.53
    0   10   81      0.53      3.55
    9   11   81      0.29      2.50
    8   11   81      2.02      1.39
    6   11   81     -5.88      4.13
    5   11   81      2.96     -0.46
    4   11   81     -5.25    -11.76
    3   11   81     -1.51      4.25
    2   11   81     -2.47      2.05
    1   11   81      4.77      0.24
    0   11   81      0.53     -1.89
    7   11   81     -0.90      2.17
    8   12   81      0.20      2.60
    7   12   81     -0.39     -1.06
    6   12   81     -2.48      1.32
    5   12   81     -5.88    -10.18
    4   12   81      4.30      3.32
    3   12   81      1.01      7.30
    2   12   81      3.74      3.83
    1   12   81      2.42      2.48
    0   12   81     -0.20     -9.92
    6   13   81      5.85      1.01
    5   13   81     -8.79     11.64
    4   13   81     -1.80      0.48
    3   13   81     10.25     10.12
    2   13   81     -1.33     -2.58
    1   13   81     -2.72      0.27
    0   13   81      5.21     -7.81
    4   14   81      2.31     -1.86
    1   14   81      3.58     -2.73
    0   14   81     -0.36     -1.40
    2   14   81     -8.33     -6.17
    3   14   81      1.21     -9.67
    0    0   82    -36.16      2.52
    1    1   82    -16.30    -22.34
    0    1   82      5.21     -3.27
    2    2   82     10.84      6.73
    1    2   82    -10.04     -7.62
    0    2   82    -14.38     -3.02
    3    3   82      8.62     -3.07
    2    3   82     11.68      3.01
    1    3   82     10.09     -0.84
    0    3   82      1.63     -2.64
    4    4   82     -8.10     -7.94
    3    4   82      9.31     15.56
    2    4   82    -10.70     -5.24
    1    4   82     11.00    -10.37
    0    4   82      7.30     21.79
    5    5   82    -26.47    -12.20
    4    5   82     -6.73      3.14
    3    5   82      9.83     -7.56
    2    5   82      0.81     -8.19
    1    5   82    -27.51     -8.32
    0    5   82     -0.76     -2.41
    6    6   82      9.44     13.11
    5    6   82      1.46     -0.87
    4    6   82     -6.04     -8.97
    3    6   82      2.12     -2.79
    2    6   82    -16.49      9.35
    1    6   82     14.27     -8.19
    0    6   82    -17.46      0.92
    7    7   82     -3.42      2.71
    6    7   82      9.38      5.03
    5    7   82     10.43     -4.90
    4    7   82     10.04     -3.13
    3    7   82     -6.54      6.60
    2    7   82      6.41      0.33
    1    7   82     -0.96      9.41
    0    7   82     -7.86     -1.20
    8    8   82      1.88     -6.97
    6    8   82      8.55     -2.13
    5    8   82     -6.15      1.61
    4    8   82    -12.26      9.37
    3    8   82     -1.00     -1.48
    2    8   82      9.78    -10.79
    1    8   82      1.10     -0.10
    0    8   82     -9.55      1.27
    7    8   82     -2.87      4.30
    8    9   82      5.07     -4.99
    7    9   82      3.98      4.37
    6    9   82      0.63      5.49
    5    9   82     -1.35      5.77
    4    9   82     -7.66     -2.11
    3    9   82     -2.25      0.98
    2    9   82     -1.76     -6.18
    1    9   82     -8.44    -12.48
    0    9   82      1.11     10.57
    9   10   82     -4.34      2.47
    7   10   82      0.53      1.67
    6   10   82      0.11      4.98
    5   10   82      2.06     10.09
    4   10   82     -8.37     14.71
    3   10   82     -2.50     -2.06
    2   10   82      3.12      2.85
    1   10   82      0.90     -0.63
    0   10   82      1.59      1.96
    8   10   82      4.58      3.66
   10   10   82    -13.62      7.07
    9   11   82     -7.43      0.14
    8   11   82      5.08     -1.96
    7   11   82     -0.57     -8.74
    6   11   82      6.73      6.42
    5   11   82      3.03     -1.14
    4   11   82      0.41     -2.34
    3   11   82     -5.56     -5.93
    2   11   82      7.37     -0.98
    1   11   82     -6.09     -6.10
    0   11   82     -2.44     -0.90
    7   12   82     -0.08     -3.00
    6   12   82      0.69      2.38
    5   12   82     -1.35     -2.72
    4   12   82     -6.03    -17.38
    3   12   82      1.90     -6.19
    2   12   82      3.57     -6.85
    1   12   82     -2.80     -9.26
    0   12   82      2.91     -1.92
    6   13   82     -3.57      0.53
    5   13   82     -0.15     -1.23
    4   13   82      2.67     -6.82
    3   13   82      1.77     -2.32
    2   13   82      0.93     -8.12
    1   13   82     -4.03      1.83
    0   13   82     -1.87     -0.35
    3   14   82     -4.58      9.52
    2   14   82     -0.88     -0.19
    1   14   82      2.01     -2.43
    0   14   82     10.37      2.67
    0    1   83     -0.41     21.98
    1    2   83     -1.54      3.21
    0    2   83     -4.76      0.40
    2    3   83     -0.50      7.89
    1    3   83     -7.80      2.78
    0    3   83     -0.34    -16.46
    3    4   83      0.68      8.12
    2    4   83      8.87    -12.43
    1    4   83     -8.69     -0.74
    0    4   83     -6.11      9.08
    4    5   83     -3.34      3.54
    3    5   83     -0.69     -4.74
    2    5   83     16.30      0.88
    1    5   83     -2.94     -1.57
    0    5   83      4.94     20.50
    5    6   83      0.61     -5.38
    4    6   83      2.79      4.34
    3    6   83     -3.40     -6.42
    2    6   83     -3.96     -8.06
    1    6   83     -8.38     -3.59
    0    6   83     -5.10      9.00
    6    7   83      2.04      6.57
    5    7   83     -8.07     -2.26
    4    7   83      4.04    -10.71
    3    7   83     -8.51     10.04
    2    7   83     -1.03     -4.21
    1    7   83      9.42     -2.81
    0    7   83      0.24    -17.18
    6    8   83      1.08      7.68
    5    8   83      0.40      2.96
    4    8   83      2.92      8.29
    3    8   83      5.69      1.70
    2    8   83      4.99     -8.36
    1    8   83     -0.56      6.54
    0    8   83      6.38     16.50
    7    8   83     -8.22      0.01
    8    9   83      3.95     -3.17
    7    9   83      2.96      2.73
    6    9   83      6.61      9.71
    5    9   83      4.56     -4.62
    4    9   83      2.26     -4.49
    3    9   83      6.17     -4.75
    2    9   83     -0.60      9.08
    1    9   83     -8.44     -3.08
    0    9   83      0.76     10.38
    9   10   83      4.96      5.53
    7   10   83      6.62     -5.59
    6   10   83      0.60     -5.13
    5   10   83      2.86     -1.75
    4   10   83     -5.27      3.86
    3   10   83      2.59     -1.11
    2   10   83     -9.64     -5.06
    1   10   83      4.05     10.78
    0   10   83      1.37    -11.69
    8   10   83      4.68     -3.56
    8   11   83     -9.79     -7.62
    7   11   83     -1.13      1.70
    6   11   83      3.97      1.59
    5   11   83     -5.21     -3.41
    4   11   83      5.17      2.28
    3   11   83      1.66     -1.11
    2   11   83    -11.54     -1.60
    1   11   83     -6.70      2.62
    0   11   83     -0.30     11.33
    7   12   83      1.78     -1.23
    6   12   83      2.66      4.05
    5   12   83      5.34      9.86
    4   12   83     -5.73     -2.23
    3   12   83     -0.72    -10.41
    2   12   83     -2.02      0.99
    1   12   83     -2.72     -3.54
    0   12   83      0.77     12.69
    5   13   83      1.52     -4.24
    4   13   83      4.93     -5.59
    3   13   83     -6.18      3.09
    2   13   83      3.79     -1.47
    1   13   83      6.06      1.51
    0   13   83     -0.76      8.66
    1   14   83     -3.27     -1.07
    0   14   83     -0.85      1.31
    0    0   84     22.20     -1.43
    1    1   84      5.06      1.93
    0    1   84      5.37      0.01
    2    2   84    -15.64    -17.64
    1    2   84     -2.24      0.17
    0    2   84     11.38      1.92
    3    3   84     -9.41      2.88
    2    3   84     -7.15      8.54
    1    3   84    -11.19      1.38
    0    3   84     13.45      1.13
    4    4   84      9.68      0.96
    3    4   84    -15.06      0.01
    2    4   84      3.75      7.98
    1    4   84     -6.67      5.45
    0    4   84     -8.34    -18.68
    5    5   84      3.00     -5.77
    4    5   84      7.64     -0.49
    3    5   84    -12.52      2.60
    2    5   84     11.58      5.29
    1    5   84     19.12     -2.17
    0    5   84     -3.06      1.15
    6    6   84      0.33      6.44
    5    6   84      0.49      8.85
    4    6   84      1.09      8.02
    3    6   84     -2.91     -0.30
    2    6   84      6.96    -13.57
    1    6   84      4.29      9.67
    0    6   84      2.13      0.77
    7    7   84      0.49     -9.14
    6    7   84      5.88      0.50
    5    7   84    -12.80      0.23
    4    7   84     -4.65      9.98
    3    7   84      3.02      4.76
    2    7   84      5.25      0.17
    1    7   84      4.71     -2.09
    0    7   84      6.84      0.76
    8    8   84     -1.76      5.13
    6    8   84     -9.77     -1.83
    5    8   84     -0.91     -0.68
    4    8   84     -2.77     -9.86
    3    8   84      6.52     -0.89
    2    8   84     -2.68      5.74
    1    8   84     -0.05      7.48
    0    8   84      7.58     -0.21
    7    8   84     -1.11      1.61
    9    9   84    -14.36      0.00
    7    9   84     -4.39      1.92
    6    9   84      3.84      1.90
    5    9   84     -4.48     -5.76
    4    9   84      1.15      4.93
    3    9   84      2.08     -9.02
    2    9   84     -0.74      6.51
    1    9   84     10.96     11.57
    0    9   84    -11.59     -7.77
    8    9   84     -9.77      2.81
    9   10   84      1.60     -3.26
    8   10   84      4.18     -4.56
    6   10   84     -2.28    -10.31
    5   10   84     -4.16      0.63
    4   10   84      4.38    -10.89
    3   10   84     -0.45      6.63
    2   10   84      1.12     -0.96
    1   10   84     -1.89     -1.07
    0   10   84    -10.19      1.42
    7   10   84     -4.04     -1.56
    8   11   84      0.06      4.46
    7   11   84      3.18      1.52
    6   11   84      2.55      6.53
    5   11   84     -0.96     -8.70
    4   11   84      1.27     -0.13
    3   11   84      7.32      0.12
    2   11   84      6.90      2.68
    1   11   84     -1.25      3.26
    0   11   84      8.38      0.24
    6   12   84     -4.56     -4.27
    5   12   84      7.55      3.29
    4   12   84      0.22      4.18
    3   12   84     -0.32      4.71
    2   12   84     -6.80      4.14
    1   12   84      2.16     -0.22
    0   12   84      2.77      1.40
    4   13   84      0.89      7.12
    3   13   84     -2.21      7.83
    2   13   84      6.11     -1.40
    1   13   84     -4.29     -5.00
    0   13   84    -13.54      0.22
    0    1   85      0.22    -11.18
    1    2   85      9.13     -6.03
    0    2   85     14.00      9.31
    2    3   85     -6.97     -1.77
    1    3   85    -14.46     -0.62
    0    3   85     -1.20      5.67
    3    4   85     -5.32     -4.62
    2    4   85     -0.26     10.66
    1    4   85    -10.04     14.19
    0    4   85      1.51    -13.63
    4    5   85     -2.76     -2.92
    3    5   85      5.43     -5.19
    2    5   85    -17.59      5.20
    1    5   85     10.63      3.08
    0    5   85    -10.20     10.73
    5    6   85     -1.36     -6.19
    4    6   85      3.97      5.46
    3    6   85      9.11      0.78
    2    6   85      7.36     -0.81
    1    6   85     -2.02      7.17
    0    6   85     11.06     -5.59
    6    7   85     -2.52     -2.78
    5    7   85      7.34      2.93
    4    7   85     -2.79    -13.46
    3    7   85      2.27      1.13
    2    7   85     -1.13    -11.14
    1    7   85    -14.11      9.36
    0    7   85      0.86      5.05
    7    8   85      5.65     -1.73
    6    8   85      1.70      5.81
    5    8   85     -4.19     -9.54
    4    8   85     -7.73      3.54
    3    8   85     -2.26     -0.91
    2    8   85      3.91      9.55
    1    8   85     -5.29     -3.69
    0    8   85    -12.51     -3.49
    7    9   85      2.57      5.23
    6    9   85    -11.18      6.75
    5    9   85     -6.28      0.57
    4    9   85      8.55     -5.02
    3    9   85      5.79      4.43
    2    9   85      0.57      5.48
    1    9   85     -1.33     -5.10
    0    9   85      0.98     11.38
    8    9   85     -1.91      1.56
    9   10   85     -0.63      1.19
    8   10   85     -2.56      5.45
    7   10   85     -8.75      4.12
    5   10   85     -0.76      4.18
    4   10   85      1.15      0.79
    3   10   85      9.66      4.49
    2   10   85      3.67      5.68
    1   10   85      0.34     -5.16
    0   10   85    -12.46     -4.51
    6   10   85      7.01     10.48
    7   11   85      3.92      0.83
    6   11   85    -12.96     -8.47
    5   11   85      3.15     -2.75
    4   11   85     -1.40     -8.88
    3   11   85     -1.06     -2.61
    2   11   85      3.19      5.77
    1   11   85     -9.19     -8.65
    0   11   85      0.17    -15.69
    6   12   85     -3.54     -1.49
    5   12   85     -0.04    -13.06
    4   12   85     -1.26     -0.13
    3   12   85      3.12     -2.82
    2   12   85      3.76     -1.78
    1   12   85      3.43     -4.56
    0   12   85     -6.61     -6.81
    3   13   85      0.07     -1.77
    2   13   85     -0.44      3.80
    1   13   85    -10.62     -1.30
    0   13   85      0.07      1.09
    0    0   86     -4.73     -0.40
    1    1   86     -5.59     14.07
    0    1   86      3.88     -7.96
    2    2   86      0.00     -2.74
    1    2   86      5.91     -0.84
    0    2   86    -23.31     -4.54
    3    3   86      7.70      6.40
    2    3   86     14.57     -1.42
    1    3   86     -0.35     -8.53
    0    3   86      5.08     -1.44
    4    4   86      2.62      7.28
    3    4   86      5.70     -0.10
    2    4   86     -5.41     -1.53
    1    4   86     -1.29     -1.90
    0    4   86      7.62      6.42
    5    5   86     -5.33     -4.42
    4    5   86      1.98      8.95
    3    5   86      3.58      1.67
    2    5   86     -5.57      3.49
    1    5   86     -2.88    -11.37
    0    5   86    -14.09     -0.76
    6    6   86     -0.41     -4.00
    5    6   86      5.63     -0.98
    4    6   86     -1.78     -1.45
    3    6   86     -2.39      5.47
    2    6   86     -0.22      2.34
    1    6   86     -4.34     -1.93
    0    6   86     -3.13      2.99
    6    7   86     -0.27     -6.13
    5    7   86     14.66      0.42
    4    7   86     -2.94      1.76
    3    7   86     -1.32     -8.26
    2    7   86      0.91     -1.20
    1    7   86    -11.71     -1.74
    0    7   86      3.81      2.95
    7    7   86     -1.02      2.95
    8    8   86      5.15     -4.57
    7    8   86     -1.12      2.40
    6    8   86     -2.54      1.26
    5    8   86      5.14      2.60
    4    8   86      5.91      5.14
    3    8   86      9.97    -10.87
    2    8   86      6.66      0.03
    1    8   86      6.78      0.24
    0    8   86    -13.54     -1.55
    9    9   86     11.57     -4.91
    8    9   86      7.55     -5.10
    7    9   86      7.25     -2.16
    6    9   86      4.91     -4.57
    4    9   86      2.09      0.40
    3    9   86     -6.34      7.89
    2    9   86      0.55     -4.67
    1    9   86      1.97     -8.09
    0    9   86     13.64      2.65
    5    9   86      7.48      8.13
    7   10   86      4.89     -1.12
    6   10   86      6.99      8.40
    5   10   86      5.78     -1.45
    4   10   86      4.08      3.78
    3   10   86      4.85      3.46
    2   10   86     -4.25      1.63
    1   10   86      3.67      3.63
    0   10   86     19.15     -3.39
    8   10   86      3.80     -1.87
    7   11   86     -3.85      1.46
    6   11   86     -5.96      3.67
    5   11   86     -6.89      2.97
    4   11   86      2.69     -5.79
    3   11   86      9.42      4.95
    2   11   86      1.16      1.72
    1   11   86      5.09     -0.44
    0   11   86     -7.59      5.23
    5   12   86      2.72      0.90
    4   12   86     -1.53     -4.75
    3   12   86     -0.42     -0.66
    2   12   86      2.01     -5.48
    1   12   86     -2.04      4.58
    0   12   86     -3.14     -0.72
    2   13   86     -0.85      7.29
    0   13   86      3.97      0.33
    1   13   86      6.95     -1.59
    0    1   87     -3.07      6.58
    1    2   87     -3.45      6.41
    0    2   87    -20.93     -9.11
    2    3   87     19.88      6.41
    1    3   87     -1.94     -4.50
    0    3   87      0.67     -5.59
    3    4   87      8.36     -4.97
    2    4   87     -3.25      2.24
    1    4   87     11.72     -9.70
    0    4   87     -1.96      7.60
    4    5   87     -6.60     12.25
    3    5   87     -2.97     -5.68
    2    5   87     15.35    -17.52
    1    5   87     -3.02     -0.84
    0    5   87      8.81     -4.25
    5    6   87      1.16     -2.59
    4    6   87     10.64     -4.03
    3    6   87     -4.50      7.14
    2    6   87     -9.15      3.54
    1    6   87      3.30    -10.50
    0    6   87    -21.11     -2.26
    6    7   87      1.64     -8.79
    5    7   87      1.45     -1.78
    4    7   87     -1.39     16.85
    3    7   87      6.51      6.13
    2    7   87     -6.07      3.79
    1    7   87      7.22    -13.55
    0    7   87      2.03      9.60
    7    8   87     -2.43     -6.92
    6    8   87     -0.35     -1.69
    5    8   87     -6.06     12.32
    4    8   87      0.63     -9.98
    3    8   87      0.76      6.31
    2    8   87      0.52    -15.55
    1    8   87      4.40     15.35
    0    8   87      8.19     -9.48
    8    9   87     -2.07      2.39
    7    9   87     -4.48     -5.60
    5    9   87      8.74     -1.77
    4    9   87     -3.00      7.50
    3    9   87      0.69     -0.99
    2    9   87      0.57      7.87
    1    9   87     -5.81     -2.05
    0    9   87     -1.40     -6.55
    6    9   87      9.90     -0.87
    8   10   87     -2.93      0.58
    7   10   87      3.11     -0.84
    6   10   87     -1.04     -1.20
    5   10   87      6.49     -5.56
    4   10   87     -4.38      6.88
    3   10   87    -14.48      5.41
    2   10   87      6.23     -6.68
    1   10   87     -4.15      9.24
    0   10   87      4.46     -0.09
    6   11   87      3.95      6.81
    5   11   87     -1.44      4.46
    4   11   87      0.49     -1.73
    3   11   87     -1.90      5.78
    2   11   87      1.20     -0.62
    1   11   87      4.76      2.44
    0   11   87      1.63      5.09
    5   12   87      4.17     -1.76
    4   12   87     -6.29     -0.67
    3   12   87     -3.11      6.10
    2   12   87      1.74      5.83
    1   12   87      2.33      5.89
    0   12   87      2.25      5.37
    0   13   87      0.54     -8.02
    0    0   88    -36.12     -1.77
    1    1   88    -10.14    -16.20
    0    1   88     -1.45     12.99
    2    2   88    -16.98     -7.55
    1    2   88      0.34     -3.37
    0    2   88     14.42     -1.19
    3    3   88      2.95     -0.97
    2    3   88      0.96    -11.22
    1    3   88     -4.64      5.23
    0    3   88      6.49      3.62
    4    4   88      7.46    -11.86
    3    4   88      6.49      5.85
    2    4   88      2.49     -3.43
    1    4   88      1.97     10.36
    0    4   88     -4.22     -0.17
    5    5   88     -3.23     11.05
    4    5   88      4.58      1.16
    3    5   88      1.00     -4.69
    2    5   88     -5.45     -3.24
    1    5   88      0.28      3.22
    0    5   88      7.76      4.13
    6    6   88     -3.53      3.97
    5    6   88     -1.10     10.85
    4    6   88     -4.16     -6.54
    3    6   88      1.85     -2.17
    2    6   88     -3.80      3.70
    1    6   88      6.75     -0.12
    0    6   88     -0.92     -3.59
    6    7   88     -6.85      1.54
    5    7   88     -3.94     -3.06
    4    7   88      7.81     -5.01
    3    7   88    -11.32      1.82
    2    7   88      3.79     -0.74
    1    7   88     -6.63      6.93
    0    7   88     11.07     -3.19
    7    7   88    -11.21     -6.74
    7    8   88     -1.62      1.36
    6    8   88     -5.50     -5.55
    5    8   88      8.56      1.04
    4    8   88    -14.42     -2.11
    3    8   88      7.63      0.70
    2    8   88     -8.94     -0.63
    1    8   88    -13.66     -4.42
    0    8   88      4.08     -0.89
    8    8   88     -6.82     -3.28
    8    9   88     -8.51      3.57
    7    9   88     -4.52      1.71
    5    9   88     -2.12      0.91
    4    9   88      6.13      3.08
    3    9   88     -5.87    -11.15
    2    9   88     -3.78      1.75
    1    9   88      1.49      4.28
    0    9   88      3.48     -3.49
    9    9   88     -7.14     -5.59
    7   10   88      3.45      3.66
    6   10   88     -4.88    -10.57
    5   10   88      2.23      7.34
    4   10   88      0.62     -1.83
    3   10   88      8.55     -3.72
    2   10   88      1.18     -2.78
    1   10   88      6.73     -3.48
    0   10   88     -9.85     -0.36
    6   11   88      5.71     -2.33
    5   11   88      7.44     -1.36
    4   11   88      3.40      9.62
    3   11   88     -5.18     -5.98
    2   11   88     -2.04     -0.02
    1   11   88     -0.21     -4.39
    0   11   88      1.97     -5.17
    4   12   88      1.69      1.21
    3   12   88     -0.08     -0.13
    2   12   88     -6.69     -0.06
    1   12   88      0.57    -10.11
    0   12   88     10.07     -2.36
    0    1   89      1.75     -9.32
    1    2   89     -2.23     -5.34
    0    2   89     21.96     -3.09
    2    3   89    -15.42     -6.84
    1    3   89    -26.16      7.35
    0    3   89     -2.88      3.16
    3    4   89    -10.47      4.06
    2    4   89     11.63     -7.67
    1    4   89     -8.60      8.52
    0    4   89     -1.59     -7.61
    4    5   89     -1.78     -1.73
    3    5   89      1.57     -2.49
    2    5   89    -12.61     -2.68
    1    5   89      7.23     -3.21
    0    5   89     -0.88     13.07
    5    6   89     -7.64     17.50
    4    6   89      1.67      6.45
    3    6   89      3.37     -3.40
    2    6   89     -5.71      4.00
    1    6   89     -3.24     -2.83
    0    6   89     12.61     10.54
    6    7   89      9.48      5.91
    5    7   89      9.65     10.22
    4    7   89     -7.13      2.20
    3    7   89     -9.79      3.56
    2    7   89    -14.41      6.89
    1    7   89      2.86      8.00
    0    7   89     -1.55      4.85
    6    8   89      4.48     -3.31
    5    8   89      2.07     -3.57
    4    8   89      0.66     -1.63
    3    8   89      2.66      0.94
    2    8   89      2.24     -0.79
    1    8   89     -0.27      1.55
    0    8   89     -6.00      9.11
    8    9   89      1.33      4.34
    7    9   89      0.23      2.55
    5    9   89     -3.83     -0.87
    4    9   89      5.99      1.90
    3    9   89     -7.11      1.03
    2    9   89     10.07     -7.07
    1    9   89     -2.31    -10.20
    0    9   89      4.03      1.67
    6    9   89     -2.55     -7.95
    6   10   89      0.97      0.44
    5   10   89     -2.54      2.50
    4   10   89     -0.29     -5.79
    3   10   89      3.34     -7.86
    2   10   89     -9.71      1.86
    1   10   89      1.55     -4.54
    0   10   89     -7.44      4.02
    7   10   89     -0.78      0.01
    5   11   89     -0.30      1.69
    4   11   89      0.89      9.43
    3   11   89      1.28     -2.24
    2   11   89     -0.39     -5.11
    1   11   89    -11.36      7.59
    0   11   89      0.90      4.47
    3   12   89      7.26     -2.58
    2   12   89     -2.51     -3.71
    0   12   89     -4.08     -1.59
    1   12   89      5.92     -0.47
    0    0   90     26.53     -0.70
    1    1   90     -1.77     10.21
    0    1   90     -4.14     -4.59
    2    2   90      2.34     -2.77
    1    2   90      1.11      1.74
    0    2   90     -4.82      2.12
    3    3   90     -5.61     -6.16
    2    3   90     -1.02      4.74
    1    3   90      2.29     -4.50
    0    3   90     10.42      0.56
    4    4   90      2.56     -0.35
    3    4   90     -1.11      0.17
    2    4   90     -5.63      4.49
    1    4   90     -2.89     -3.63
    0    4   90     -0.51     -6.91
    5    5   90     10.39      2.58
    4    5   90     11.46      3.22
    3    5   90    -10.02     -6.62
    2    5   90     -3.05      0.77
    1    5   90      4.46     -0.27
    0    5   90     -4.91     -4.74
    5    6   90      4.16      1.25
    4    6   90     -3.75     -2.10
    3    6   90     -0.36      3.20
    2    6   90      1.06     -2.84
    1    6   90      3.98      4.25
    0    6   90      4.73      3.08
    6    6   90      9.15     -4.61
    6    7   90      5.54     -3.25
    5    7   90     -0.41     -1.43
    4    7   90     -2.06      5.73
    3    7   90      9.34     -3.96
    2    7   90     -6.37     -4.22
    1    7   90     11.22      0.30
    0    7   90      2.23      3.06
    7    7   90     -3.31    -11.15
    7    8   90      3.55     -3.28
    6    8   90     -0.16      1.15
    5    8   90     -6.24      3.32
    4    8   90     -4.78     -1.24
    3    8   90     -9.97      0.38
    2    8   90      1.33      0.37
    1    8   90      0.96      4.15
    0    8   90      6.83     -2.28
    8    8   90     -3.89     -1.52
    7    9   90     -2.71     -0.38
    6    9   90      1.81     -5.88
    5    9   90     -5.36     -5.74
    4    9   90      4.09      7.64
    3    9   90     -8.26      2.21
    2    9   90      4.62      2.04
    1    9   90     -8.81     -3.38
    0    9   90      7.19     -0.12
    8    9   90     -3.17     -0.94
    6   10   90     -1.41      3.93
    5   10   90     -5.85     -1.61
    4   10   90     -4.24     -3.55
    3   10   90     -4.81      3.25
    2   10   90     -2.76      3.53
    1   10   90      0.38      0.79
    0   10   90      9.70     -1.03
    5   11   90     -4.74     -2.69
    4   11   90      2.71     -2.98
    3   11   90     -0.24     -1.76
    2   11   90      0.68      2.19
    1   11   90      1.01      2.55
    0   11   90      6.67      5.75
    1   12   90     -3.59      9.56
    0   12   90     -2.20      0.56
    0    1   91      0.46     -1.44
    1    2   91      8.33     -1.23
    0    2   91    -29.75      5.05
    2    3   91     10.10      4.28
    1    3   91     12.80     -2.64
    0    3   91     -1.15     15.80
    3    4   91      2.28     -2.02
    2    4   91      1.13      2.50
    1    4   91      0.52      5.07
    0    4   91     -0.72      5.86
    4    5   91      3.53     -7.63
    3    5   91     -1.64      2.03
    2    5   91     10.61     -0.65
    1    5   91      5.72     -3.16
    0    5   91     -1.30     -6.22
    5    6   91     -5.32    -12.16
    4    6   91      2.58      0.93
    3    6   91     -1.34     -1.41
    2    6   91      6.58    -15.02
    1    6   91      8.23      1.96
    0    6   91     -2.40      0.73
    6    7   91    -11.15     -2.28
    5    7   91      0.10     -7.14
    4    7   91     -0.91      2.42
    3    7   91      6.92     -7.20
    2    7   91     12.92     -3.88
    1    7   91      4.05      0.10
    0    7   91      2.12      2.57
    7    8   91     -9.49     -5.31
    5    8   91      1.47      2.61
    4    8   91      2.28     -0.83
    3    8   91     -6.14     -4.65
    2    8   91      5.24      6.05
    1    8   91      4.44      6.93
    0    8   91      0.18     10.24
    5    9   91     -3.93      1.65
    4    9   91     -8.46     -3.90
    3    9   91      3.76     -2.30
    2    9   91     -3.98      3.26
    1    9   91      0.78     -0.84
    0    9   91     -2.16      5.56
    6    9   91     -4.63      2.68
    7    9   91      2.67      1.04
    6   10   91      3.17     -1.97
    5   10   91     -1.46      6.06
    4   10   91     -4.12      1.56
    3   10   91     -1.12      2.63
    2   10   91      2.32     -8.88
    1   10   91      6.74      0.88
    0   10   91      4.66     -3.71
    4   11   91      3.01     -2.21
    3   11   91      2.06      0.50
    2   11   91      4.51      6.40
    1   11   91     10.76     -0.86
    0   11   91      1.22     -6.03
    0    0   92    -18.88      4.61
    1    1   92     -3.34    -12.34
    0    1   92     14.86      1.98
    2    2   92      3.30      9.88
    1    2   92      2.97      5.39
    0    2   92     -9.09     -2.53
    3    3   92     -2.64      6.77
    2    3   92      1.41      0.62
    1    3   92     -6.37      7.82
    0    3   92     -6.18      0.22
    4    4   92     -6.00      4.92
    3    4   92      2.13     -2.92
    2    4   92      3.16     -3.75
    1    4   92     11.49      0.43
    0    4   92     -1.88      2.72
    5    5   92    -19.31     -3.37
    4    5   92      3.89      1.26
    3    5   92      6.30      0.66
    2    5   92      6.44      9.41
    1    5   92    -10.20      0.05
    0    5   92     -2.39      8.26
    5    6   92      4.86      3.26
    4    6   92      4.28     -3.38
    3    6   92     -1.66     -3.87
    2    6   92     -2.39     -1.53
    1    6   92     -3.66     -7.07
    0    6   92      0.02     -2.83
    6    6   92     -0.99     -5.53
    6    7   92      1.64     -0.14
    5    7   92      6.70      1.57
    4    7   92      1.82     -3.94
    3    7   92      4.05     -9.90
    2    7   92     -5.36     -2.55
    1    7   92     -4.22      4.03
    0    7   92     -4.83     -1.54
    7    7   92    -11.37      3.39
    7    8   92     -0.05      1.91
    6    8   92     -0.54     -0.42
    5    8   92      4.07     -1.64
    4    8   92     -0.70     -7.35
    3    8   92     15.03     -2.99
    2    8   92     -2.90     -3.54
    1    8   92     -0.60      2.83
    0    8   92    -14.59      1.15
    8    8   92      4.25      0.41
    7    9   92     -5.43     -3.04
    5    9   92     -2.96      8.07
    4    9   92      5.42      1.08
    3    9   92     -5.85     -2.19
    2    9   92      8.52     -3.06
    1    9   92     -7.31      6.36
    0    9   92     -8.84      9.97
    6    9   92     -2.40      4.03
    5   10   92     -0.88     -0.03
    4   10   92     -2.11      3.44
    3   10   92      4.89     -0.65
    2   10   92     -0.88     -3.32
    1   10   92      4.44      4.24
    0   10   92    -11.81     -0.26
    3   11   92      7.62     -3.91
    2   11   92      4.55     -4.31
    1   11   92      1.86      3.03
    0   11   92    -14.71     -0.16
    0    1   93     -1.71      4.45
    1    2   93      6.92     -2.51
    0    2   93     22.11     -5.64
    2    3   93     -3.63      7.97
    1    3   93     -2.51      4.22
    0    3   93     -1.30    -27.06
    3    4   93      3.00      3.44
    2    4   93     -9.93    -11.55
    1    4   93     -0.46      3.18
    0    4   93      3.13      1.22
    4    5   93     -3.29      4.54
    3    5   93      1.57     -3.02
    2    5   93      3.16      2.52
    1    5   93    -10.19     -2.79
    0    5   93      2.72      9.68
    5    6   93      1.79      6.21
    4    6   93      3.96     -5.15
    3    6   93      0.80      1.79
    2    6   93     -7.46      6.46
    1    6   93     -7.26     -1.92
    0    6   93     -2.88     -8.69
    5    7   93      1.29     -3.50
    4    7   93     -1.37      0.87
    3    7   93     -0.15      0.69
    2    7   93     -6.84     -1.10
    1    7   93      0.19      3.43
    0    7   93     -0.41     -8.98
    7    8   93     11.68      1.02
    6    8   93      1.17     -1.23
    5    8   93      3.64     -6.53
    4    8   93      5.35      8.84
    3    8   93      1.06      6.85
    2    8   93     -6.42     -4.15
    1    8   93      0.09     -6.61
    0    8   93      3.21    -15.91
    5    9   93      2.60      1.40
    4    9   93      3.58      4.30
    3    9   93     -5.12    -13.47
    2    9   93      7.18      7.18
    1    9   93      6.98     -3.23
    0    9   93      0.07     -3.10
    6    9   93      1.91      2.38
    4   10   93     -0.58     -3.19
    3   10   93      0.57      2.69
    2   10   93     -2.72      8.50
    1   10   93     -6.65      0.65
    0   10   93     -1.18      3.64
    0   11   93     -0.92      2.25
    1   11   93    -11.40      3.14
    1    1   94      1.30      0.71
    0    1   94     -9.70      2.24
    2    2   94      0.03    -14.01
    1    2   94      0.31      9.97
    0    2   94     11.48      2.01
    3    3   94      3.38    -10.54
    2    3   94      7.19    -14.26
    1    3   94      2.50    -11.47
    0    3   94     -2.57     -0.04
    4    4   94     14.43     -6.87
    3    4   94     -5.55     -0.55
    2    4   94    -13.29      0.43
    1    4   94     -0.61      9.12
    0    4   94      1.83     -0.97
    5    5   94      8.92     -2.02
    4    5   94      4.66     -6.33
    3    5   94     -1.94     -6.72
    2    5   94      2.20      2.35
    1    5   94      5.97     -1.96
    0    5   94      2.28      0.02
    5    6   94    -15.81      1.81
    4    6   94     -5.99     -1.94
    3    6   94      0.39     12.15
    2    6   94     -5.65      4.92
    1    6   94      1.57     -0.67
    0    6   94     14.28      0.06
    7    7   94      5.76     -8.65
    6    7   94      0.38      3.96
    5    7   94    -10.35     -5.54
    4    7   94      0.60      3.69
    3    7   94    -16.08     -0.65
    2    7   94      1.27      8.21
    1    7   94     -5.28     -5.93
    0    7   94      5.25      1.66
    7    8   94      2.22     10.38
    6    8   94     -4.30     -8.70
    5    8   94      1.46     -0.05
    4    8   94     -3.43     -1.18
    3    8   94      4.49      0.47
    2    8   94     -9.44      7.83
    1    8   94      7.79      4.95
    0    8   94     -9.13     -4.09
    5    9   94      2.21     -2.50
    4    9   94     -3.44      1.19
    3    9   94     -2.78      2.59
    2    9   94     -7.97     -1.80
    1    9   94      6.86     -1.33
    0    9   94     11.10     -2.47
    3   10   94     -4.30      5.05
    2   10   94      3.43     -3.90
    1   10   94     -5.82      4.93
    0   10   94      7.56     -1.55
    0    1   95      0.54     -0.57
    1    2   95      8.41      2.66
    0    2   95     -2.08      9.11
    2    3   95     -5.20      1.97
    1    3   95    -10.34      8.75
    0    3   95      2.39     15.98
    3    4   95    -11.70     -1.63
    2    4   95      2.09     15.64
    1    4   95     -5.31      6.75
    0    4   95     -4.46    -19.24
    4    5   95     -5.11     -6.81
    3    5   95     -0.99      0.23
    2    5   95     -0.30      1.69
    1    5   95     14.85      0.15
    0    5   95     -3.69     -1.46
    5    6   95      5.71     -5.00
    4    6   95     -2.95     -1.26
    3    6   95     -4.57      3.02
    2    6   95     -6.21     -7.01
    1    6   95     -0.53     -6.09
    0    6   95      5.08     13.11
    6    7   95      4.81      0.35
    5    7   95      3.01     -6.22
    4    7   95      3.33     -0.33
    3    7   95     -4.16      1.40
    2    7   95      0.66      3.00
    1    7   95      0.32      6.43
    0    7   95     -1.52     -3.65
    6    8   95      2.97      0.56
    5    8   95      2.75     -8.31
    4    8   95     -2.66     -2.98
    3    8   95      0.99     -9.03
    2    8   95      8.95      1.77
    1    8   95      1.02      2.24
    0    8   95     -3.07     -2.73
    5    9   95      0.86     -0.34
    4    9   95      3.15     -8.25
    3    9   95      7.31      9.02
    2    9   95     -3.02     -3.47
    1    9   95     -9.26      3.90
    0    9   95      0.94     -5.46
    2   10   95      0.43     -0.68
    1   10   95      5.64     -1.22
    0   10   95     -0.12     -8.11
    1    1   96     -0.83      7.48
    0    1   96      3.49      2.56
    2    2   96      2.03      2.30
    1    2   96      0.83     -5.75
    0    2   96     -3.88     -1.71
    3    3   96      1.10     15.09
    2    3   96    -10.50      3.00
    1    3   96    -10.10      1.67
    0    3   96     14.54      1.31
    4    4   96     -5.49      9.92
    3    4   96      8.06     14.24
    2    4   96     -3.47     -2.03
    1    4   96      4.49     -7.39
    0    4   96      4.20     -1.92
    4    5   96      4.65     -4.44
    3    5   96      3.09      2.85
    2    5   96      0.77     -0.10
    1    5   96     -0.46     -3.64
    0    5   96      7.04      0.41
    5    5   96     -4.50      4.57
    5    6   96     19.68      4.17
    4    6   96      8.10      1.19
    3    6   96     -9.24     -4.19
    2    6   96     -0.61     -5.27
    1    6   96     -3.31     -7.87
    0    6   96     -2.65     -1.09
    6    6   96      2.95     -3.88
    6    7   96      0.47      6.06
    5    7   96      5.57      5.36
    4    7   96     -2.01      1.29
    3    7   96      6.93     -4.20
    2    7   96     -3.42     -3.66
    1    7   96     -0.27     -6.62
    0    7   96     -0.65      0.45
    7    7   96    -11.68     -2.48
    5    8   96      2.03     -2.13
    4    8   96     -2.47      3.93
    3    8   96      1.68      7.55
    2    8   96     -0.18    -12.80
    1    8   96     -8.71      0.23
    0    8   96     -0.10      2.00
    4    9   96     -2.33     -0.03
    3    9   96      1.13     -0.78
    2    9   96      1.65     -2.01
    1    9   96     -2.60     -7.60
    0    9   96      7.07     -1.06
    0   10   96      2.30     -0.80
    1    2   97     -2.32      1.88
    0    2   97     -1.22     -8.84
    2    3   97      0.88      6.07
    1    3   97      4.55    -11.85
    0    3   97     -5.25     -7.36
    3    4   97      4.05      8.00
    2    4   97      4.65     -5.38
    1    4   97      3.45     -0.26
    0    4   97      4.48     15.91
    4    5   97     -5.30      4.13
    3    5   97     -0.81      0.26
    2    5   97      5.64     -3.11
    1    5   97     -7.27     -1.34
    0    5   97     -1.28      0.24
    4    6   97     13.95      2.07
    3    6   97      2.68     -3.03
    2    6   97      7.57      6.62
    1    6   97      8.15      4.61
    0    6   97     -0.33    -16.30
    5    6   97     -4.27     -1.99
    6    7   97     -4.15    -10.66
    4    7   97     -3.40     -0.43
    3    7   97      5.10     -6.93
    2    7   97      1.18     -2.82
    1    7   97      1.69     -6.23
    0    7   97     -0.66      5.17
    5    7   97      2.38      0.10
    4    8   97      6.37     -2.45
    3    8   97     -3.84      6.52
    2    8   97     -6.11     -5.35
    1    8   97      5.94     -2.96
    0    8   97      1.50      6.60
    5    8   97     -1.89     -0.88
    3    9   97     -2.33     -0.97
    2    9   97      0.34     -2.31
    1    9   97      3.03      1.48
    0    9   97     -1.75     -0.30
    1    1   98     -2.67    -19.76
    0    1   98     16.48      0.66
    2    2   98      1.90     -7.66
    1    2   98      3.37     -1.28
    0    2   98      2.93      0.16
    3    3   98     -4.61     -5.70
    2    3   98      3.96      0.77
    1    3   98      4.91     -1.15
    0    3   98    -13.11      3.89
    4    4   98     -0.03     -0.41
    3    4   98     -6.64     -8.78
    2    4   98     -2.84     -5.07
    1    4   98     -3.99      4.92
    0    4   98    -12.03      1.62
    4    5   98     -2.45      5.25
    3    5   98     -3.10      4.06
    2    5   98      2.43      1.39
    1    5   98     -4.21     -5.91
    0    5   98      5.30      1.48
    5    6   98    -19.56     -3.57
    4    6   98     -5.36      2.70
    3    6   98      9.93      6.62
    2    6   98     -0.24     -5.93
    1    6   98      5.45      1.31
    0    6   98      2.18     -0.70
    6    6   98     -0.91      0.66
    4    7   98      3.12      6.30
    3    7   98    -13.72      1.77
    2    7   98     -0.97      5.83
    1    7   98     -2.41     -0.59
    0    7   98      5.66     -0.87
    5    7   98     -5.06     -5.09
    4    8   98      4.73     -1.67
    3    8   98     -3.33     -3.16
    2    8   98     -1.92      2.61
    1    8   98      8.62     -2.27
    0    8   98    -13.57     -3.96
    1    9   98     -0.07      2.25
    1    2   99     -2.49     -0.76
    0    2   99      0.06      3.54
    2    3   99      5.75     -7.17
    1    3   99     12.09      9.45
    0    3   99      3.64      0.31
    3    4   99     -3.42     -8.83
    2    4   99     -2.58      7.12
    1    4   99     -0.99     -8.29
    0    4   99     -0.72     -4.20
    4    5   99      2.59     -2.17
    3    5   99     -8.78      2.95
    2    5   99     -3.18      0.93
    1    5   99      1.81     -2.30
    0    5   99      4.07      3.08
    5    6   99     10.04      0.74
    4    6   99    -14.20    -14.01
    3    6   99     -8.84      5.93
    2    6   99     -2.92     -0.09
    1    6   99     -3.74      4.84
    0    6   99      1.08      6.54
    4    7   99     -1.50      5.38
    3    7   99     -1.15      3.49
    2    7   99      1.40      2.45
    1    7   99      5.09     -3.69
    0    7   99     -1.73      0.49
    5    7   99      1.37      5.07
    3    8   99     -1.35     -0.13
    2    8   99      6.79      8.74
    1    8   99     -2.71     -5.92
    0    8   99      3.51     -9.54
    0    0  100     -3.96      3.22
    1    1  100     -0.59      2.21
    0    1  100    -12.39     -1.20
    2    2  100      7.63     10.53
    1    2  100     -0.40      7.98
    0    2  100     -4.57      0.82
    3    3  100     -7.66      5.56
    2    3  100      1.03     -8.45
    1    3  100     -3.49     -9.86
    0    3  100      8.49     -3.67
    4    4  100     -0.63     -1.09
    3    4  100      7.82     -1.85
    2    4  100     -6.85     -1.27
    1    4  100     12.16      3.19
    0    4  100     -3.84     -1.38
    3    5  100     -0.25     -1.02
    2    5  100     -4.76      6.13
    1    5  100      5.04     12.09
    0    5  100     -1.42      0.51
    4    5  100      0.97     -5.01
    5    5  100     -3.53     -1.87
    5    6  100     11.91      8.40
    4    6  100     -4.80     -1.93
    3    6  100     -1.94     -2.13
    2    6  100      4.98      1.78
    1    6  100     -0.65     -0.69
    0    6  100      9.72     -0.25
    4    7  100      3.59     -3.54
    3    7  100      6.48     -0.35
    2    7  100     -1.74     -0.49
    1    7  100     -2.64      0.95
    0    7  100     -6.16     -0.67
    1    8  100     -3.91      2.79
    0    1  101     -0.04      9.41
    1    2  101      2.01     13.46
    0    2  101     -0.04     -1.65
    2    3  101     -8.04     10.16
    1    3  101    -16.48     -3.60
    0    3  101     -0.52      1.23
    3    4  101     -3.90     -2.67
    2    4  101      2.15     -0.99
    1    4  101     -4.06      9.27
    0    4  101      0.78     -4.57
    4    5  101     -4.49     -4.69
    3    5  101     18.92      3.80
    2    5  101      2.32      1.86
    1    5  101      0.45      3.50
    0    5  101     -3.58     -6.35
    4    6  101      3.57      2.10
    3    6  101      1.62     -4.29
    2    6  101      4.01     -4.43
    1    6  101     -4.12     -9.68
    0    6  101     -0.46      1.48
    3    7  101     -0.61     -3.34
    2    7  101     -5.09      2.26
    1    7  101     -2.15      1.15
    0    7  101      0.87     -2.04
    1    1  102     -4.64     -3.55
    0    1  102      6.61      2.41
    2    2  102     -3.14      9.30
    1    2  102     -0.66     -2.78
    0    2  102      2.07      0.73
    3    3  102     -2.07      1.41
    2    3  102      5.53      1.38
    1    3  102     -0.57      3.35
    0    3  102      3.02      2.65
    4    4  102     -2.73      3.78
    3    4  102     -3.84      9.98
    2    4  102      1.13     -2.91
    1    4  102     -9.94     -0.55
    0    4  102    -15.47      1.94
    4    5  102      3.70     -0.44
    3    5  102      0.23     -0.30
    1    5  102     -5.07     -9.76
    0    5  102     -1.88     -3.41
    3    6  102     -0.28      0.73
    2    6  102     -1.71     -1.73
    1    6  102      5.30     -1.56
    0    6  102     -9.38      0.99
    0    7  102     -3.54      0.80
    0    1  103      0.88      4.95
    1    2  103     -0.58      0.24
    1    3  103      7.52     -8.29
    0    3  103     -1.79     -2.34
    2    3  103     -5.04      0.12
    3    4  103      4.23      3.19
    2    4  103      1.82     -2.35
    1    4  103     -4.02     -3.45
    0    4  103     -0.72      4.82
    4    5  103      5.32      4.07
    3    5  103     -8.11     -3.39
    2    5  103     -5.83      4.25
    0    5  103     -1.24     -2.47
    1    5  103     -6.80     -0.99
    2    6  103     -0.48      2.56
    1    6  103     -3.30      9.40
    0    6  103      2.22    -12.29
    0    0  104     -9.32      0.77
    0    1  104      1.24     -1.94
    1    1  104     -3.52     -3.33
    1    2  104      6.95     -5.90
    0    2  104     -6.20     -1.39
    2    2  104      1.39     -6.27
    3    3  104      0.83      2.88
    2    3  104      6.77     -2.53
    1    3  104     -2.04      3.17
    0    3  104     -5.27     -1.28
    3    4  104      1.78     -7.28
    2    4  104     -1.91      0.79
    1    4  104      5.46     -6.43
    0    4  104     15.37     -1.72
    4    4  104      0.19     -2.44
    2    5  104      0.81      0.57
    1    5  104     -0.15      5.01
    0    5  104     -6.39      1.30
    0    1  105      0.52      6.93
    1    2  105     -4.11      3.19
    0    2  105     -2.95     -0.12
    2    3  105      2.79     -4.78
    1    3  105      1.83     -0.77
    2    4  105     -3.62      5.23
    1    4  105     -5.68     -2.63
    1    1  106      6.44      7.60
    2    2  106     -7.03      4.31
    0    2  106     -0.55      2.13
    1    2  106     -3.07      6.79
    1    3  106     -0.42     -3.98
    0    3  106     -0.95     -0.43
    2    3  106     -5.71     -1.31
    0    1  107     -1.08      1.54
    0    2  107     12.38      2.31
    0    1    0   -117.34      1.97
    1    1    0    567.39     42.40
    0    2    0   -240.47     62.15
    1    3    0     84.71     10.85
   15   16    0     -3.89      0.13
   13   18    0     -3.38     -1.67
    8   20    0      3.25      0.66
    7   21    0      7.67      1.76
    3   22    0      0.97     -2.77
    0    1    1     35.75    331.99
   13   18    1      4.12      4.22
    7   21    1      1.62      3.93
    3   22    1      4.51     -0.83
    0    0    2  -2409.02    -31.28
    0    1    2    -62.88     -3.84
    1    1    2   -288.13    119.55
    0    2    2    313.73    -74.68
    0    4    2   -111.52     17.29
   15   15    2      0.37     10.19
   13   18    2      0.98     -4.89
    0   21    2    -11.79     -1.12
    7   21    2     -3.33     -2.05
    0   22    2    -14.39     -2.85
    3   22    2      2.08      3.33
    0    1    3     -8.88    216.86
   13   18    3     -4.92      2.11
    7   21    3     -1.91     -4.70
    3   22    3     -3.96      1.08
    0    0    4    943.83      0.60
    0    1    4    -63.83     -1.81
    1    1    4    300.51    -55.41
    0   18    4    -33.35     -2.44
   13   18    4     -3.05      3.31
    7   21    4      0.80     -0.76
    3   22    4     -2.73     -3.72
    0    1    5    -10.42   -523.42
   13   18    5      3.40     -6.84
    7   21    5     -0.43      0.93
    3   22    5      1.74     -3.82
    0    0    6    140.45     -0.25
    0    1    6    -12.61      0.34
    0   18    6     25.05      2.22
   13   18    6     -1.90     -3.90
    7   21    6     -4.19      4.27
    0   22    6      3.95     -4.97
    3   22    6     -1.39      2.13
    0    1    7     -0.17   -484.50
   15   16    7      1.81      7.25
   13   18    7     -2.39     10.78
    7   21    7      4.39     -0.31
    2   22    7     -3.93      8.22
    3   22    7     -1.81     -0.53
    0    0    8   -287.03      3.25
    0   18    8    -17.70     -1.43
   13   18    8     -2.23      0.61
    7   21    8      2.82     -3.45
    2   22    8      2.09      2.36
    3   22    8      2.04      0.67
    0    1    9    -12.23    122.09
    0    5    9     -9.66    188.59
   13   18    9      3.99     -9.56
    7   21    9     -3.93     -3.58
    2   22    9      4.99    -13.72
    3   22    9     -0.92      3.93
   13   18   10      6.83     -0.08
    7   21   10      1.34      5.30
    2   22   10      2.74     -1.28
    3   22   10     -4.81     -0.86
    0    1   11     -8.04    -35.50
    0    5   11     26.34   -237.66
   14   17   11     -7.43      2.74
    1   21   11     -2.68      2.23
    7   21   11      6.81     -4.69
    1   22   11      1.36      8.86
    2   22   11     -1.38      0.18
   14   17   12      3.36     -5.04
    0   21   12      5.26      2.09
    7   21   12     -0.77     -5.51
    0   22   12     -2.62      6.32
    1   22   12     -8.06      4.80
    2   22   12      0.98      1.67
   14   17   13      6.19      6.99
    0   21   13      0.73      2.91
    7   21   13     -6.46     -2.60
    0   22   13      1.90     -2.86
    1   22   13     -0.39      4.16
    2   22   13     -1.58      3.53
   14   17   14     -2.90      6.17
   11   19   14      1.13     -0.93
    0   22   14     -4.26     -2.14
    1   22   14      3.90      0.24
    2   22   14      2.62     -5.66
   15   16   15     -3.77     -4.38
   14   17   15     -2.63     -5.77
   11   19   15      1.31      2.11
    9   20   15     -0.19      0.08
    0   21   15     -0.72      9.89
    0   22   15     -2.96      2.44
    1   22   15      0.61      0.59
    2   22   15      3.01     -6.06
   14   14   16     -1.93    -15.52
   15   16   16     -8.21     -1.76
   14   17   16     -3.20     -1.94
   11   19   16     -1.76     -2.33
    9   20   16     -3.35      0.41
    0   21   16     -2.91     -2.82
    0   22   16      5.32      0.57
    1   22   16      2.24     -1.08
   15   16   17     -0.11      6.96
   14   17   17     -4.81      4.61
   11   19   17      5.39      1.37
    9   20   17     -1.58     -0.95
    0   22   17      1.27     -5.60
    1   22   17     -4.70      3.12
   15   16   18      1.46     -0.08
   11   19   18      5.34      5.41
    9   20   18     -2.36      4.22
    6   21   18    -11.55      0.61
    0   22   18     -4.96      3.14
   15   16   19      3.59     -1.72
   11   19   19      0.76      1.87
    9   20   19      0.01      6.16
    6   21   19      1.76     -2.87
    6   21   20      9.12     -0.10
    6   21   21     -2.72      3.85
    6   21   22     -0.35      9.30
    1    2   23     24.60    -62.05
   12   18   23     -3.48      3.52
   12   18   24      1.50      2.88
    5   21   24     -3.90      0.57
   12   18   25      5.04     -5.16
    8   20   25      3.06      0.94
    0   21   25     -6.44     -0.45
    5   21   25      0.23      9.01
   13   17   26     -4.79     -4.33
   12   18   26     -1.38     -5.06
   10   19   26      2.24     -0.30
    8   20   26     -2.72      4.00
    5   21   26     -0.70     -3.16
   10   19   27      3.71    -12.76
    8   20   27      0.64     -2.77
    0   21   27      2.02      4.35
    5   21   27     -1.45     -2.72
   13   17   28      2.29     -0.11
   10   19   28     -0.18      1.35
    8   20   28      2.33     -0.53
    4   21   28     -2.79      2.74
   13   17   29     -6.27      3.66
   10   19   29      0.06      7.59
    0   21   29     -1.12    -14.00
    4   21   29     -0.83     -2.81
   14   16   30      0.65      6.29
   13   17   30     -1.25     -1.28
    4   21   30     -5.28     -0.96
   14   16   31     -3.85      7.95
    7   20   31      1.91      6.25
    3   21   31     -3.39     -1.65
    4   21   31      3.38      0.73
    0    2   32     97.47      7.27
   15   15   32     -9.41      5.57
   14   16   32      2.10     -8.86
    7   20   32      1.30     -1.39
    3   21   32      1.05     -2.71
   11   18   33     -0.47     -4.20
    7   20   33     -1.74     -4.43
    2   21   33      3.90      0.02
    3   21   33      4.53     -2.15
   11   18   34      5.70     -5.18
    9   19   34     -5.74      2.03
    0   21   34     -6.25     -1.83
    1   21   34      4.13     -2.07
    2   21   34     -2.28      2.23
   11   18   35     -5.07      1.13
    9   19   35     -2.48      5.56
    0   21   35      1.15      1.34
    1   21   35      0.46      0.77
    2   21   35     -3.29     -2.85
   13   16   36      4.76      9.16
    9   19   36      5.27     -1.21
    6   20   36     -1.45     -1.80
    0   21   36      3.10      0.89
    1   21   36     -3.41     -1.27
   12   17   37      0.97     -9.74
    6   20   37      4.99     -4.98
   13   16   38     -3.13     -2.36
   12   17   38     -1.51      1.21
    6   20   38     -1.33     -2.78
   14   15   39     -0.95     -0.85
   13   16   39     -1.91      6.77
   12   17   39      1.25      2.07
   14   15   40      6.93     -0.14
   13   16   40     -0.90      5.01
   10   18   40      0.72     -4.91
    8   19   40      2.23      4.10
    0   20   40      1.19     -1.61
    5   20   40     -2.57     -7.25
   14   15   41     -1.42     -1.69
   13   16   41      1.73     -7.40
   10   18   41     -1.58      3.83
    8   19   41     -2.36      0.56
    5   20   41      4.16     -3.77
   14   14   42     -1.91      3.03
   14   15   42      2.01     -1.07
    4   20   42      2.64     -3.22
    4   20   43     -1.23     -3.43
   14   14   44     -2.09     -7.32
   11   17   44     -0.56      0.08
    7   19   44     -2.43      7.83
    3   20   44      3.58      2.38
    4   20   44      1.11      7.18
   12   16   45     -4.02      2.98
   11   17   45     -1.81      1.74
    9   18   45      5.65     -3.99
    7   19   45      3.73     -6.44
    2   20   45     -2.77     -2.27
    3   20   45      3.84      2.63
   12   12   46    -20.93     -6.39
   12   16   46     -1.24     -2.66
    9   18   46     -0.01      0.12
    0   20   46     -6.17      1.45
    1   20   46     -5.22      1.18
    2   20   46      4.92      1.52
   12   16   47      1.71     -1.66
    6   19   47     -0.72      3.18
    0   20   47     -1.53      1.92
    1   20   47     -7.72      5.11
    2   20   47      4.90     -1.76
   14   14   48      6.23     -6.49
   13   15   48     -0.39      1.10
   12   16   48      3.15      1.43
    6   19   48     -5.06      2.85
    0   20   48     12.76     -0.04
   12   14   49      1.67      8.64
   13   15   49     -0.11     -3.50
   10   17   49     -2.74      2.78
    8   18   49     -1.37      5.54
   14   14   50     -4.59      1.85
   10   17   50     -0.26     -0.34
    7   18   50      0.36     -1.34
    8   18   50      1.67      6.68
    0   19   50      4.74      0.38
    5   19   50      4.99     -3.50
   13   14   51      1.55     -0.85
    5   19   51      0.83     -3.81
   11   16   52      0.86      2.64
    4   19   52     -3.34     -4.48
   12   15   53     -1.83     -2.35
   11   16   53      3.67     -5.56
    7   18   53     -1.72      5.47
    0   19   53     -2.25      6.72
    4   19   53     -2.55     -6.36
   12   15   54      1.98     -0.98
    9   17   54     -4.39      5.79
    7   18   54     -1.33      8.32
    3   19   54     -4.01      2.61
   13   14   55      5.02      4.30
   12   15   55      0.73     -1.71
    9   17   55     -3.63     -6.10
    1   19   55     -3.50     -5.36
    2   19   55      0.01     -1.53
    3   19   55     -4.71      7.31
   12   14   56      8.31      7.28
   13   14   56      5.74      3.78
    6   18   56      1.11      5.90
    0   19   56     -6.22      0.93
    1   19   56      0.43      1.98
    2   19   56     -2.60     -2.94
   10   16   57     -6.10     -2.35
    8   17   57      0.07      3.76
    6   18   57      9.98      6.77
    8   17   58     -2.22      5.13
    5   18   58      7.07     -0.78
   11   15   59      6.11      1.57
    5   18   59      6.15      1.55
   12   12   60      4.39      6.29
   13   13   60     -3.60     -1.09
   12   14   60      1.36      0.51
    7   17   60      1.50     -8.40
    4   18   60     -9.04      2.84
   12   14   61     -6.17     -6.90
    9   16   61     -3.12      1.58
    7   17   61     -5.64     -2.28
    3   18   61     -6.11      5.22
    4   18   61      0.46     -0.26
    2   18   62     -3.82      3.62
    3   18   62      5.32     -0.43
   10   15   63     -0.84      2.99
    6   17   63     -4.55      1.59
    0   18   63     -5.65     -0.96
    1   18   63     -6.46     -0.11
    2   18   63     -7.37      1.70
   11   14   64     -5.86      4.46
    8   16   64      2.16      1.08
    0   18   64     -3.41      0.42
   12   13   65      1.75      1.19
   11   14   65      5.08      0.92
    5   17   65     -3.47     -2.56
   12   13   66     -0.62      3.20
    9   15   66     -6.17      6.42
    9   15   67      7.96      0.57
    7   16   67      0.15     -3.88
    4   17   67     -2.19      4.89
   10   14   68     -3.36     -5.32
    3   17   68     -2.49     -3.88
   11   13   69      4.38      1.79
   10   14   69     -1.96      0.06
    8   15   69     -5.69      4.27
    6   16   69     -2.57     -3.50
    0   17   69     -1.17     -6.05
    1   17   69     -2.89      0.58
    2   17   69      0.98     -4.51
   12   12   70      9.75      3.02
   11   13   70      3.41      2.98
    8   15   70      2.50     -0.94
    0   17   70      7.71      0.00
    1   17   70     -2.14     -3.57
    9   14   71     -4.65      3.83
    5   16   71     -2.70     -4.18
    9   14   72     -4.26      1.43
    7   15   72      1.35     -3.68
    4   16   72     -6.21      3.45
   11   12   73      4.53     -2.59
   10   13   73      3.17     -3.07
    3   16   73      1.11     -0.15
    4   16   73     -4.38      1.46
   11   12   74      4.46     -1.11
    8   14   74      2.06      2.87
    6   15   74     -8.66      0.79
    2   16   74     -3.51     -4.66
    3   16   74      1.63     -0.28
    8   14   75      0.37      2.00
    0   16   75     -3.08      9.99
    1   16   75     -4.33     -4.31
    2   16   75      2.45     -7.99
    9   13   76      7.52      2.58
    5   15   76      3.58      0.85
   10   12   77     -6.37      0.76
    7   14   77      6.15     -4.18
    4   15   77     -3.61      0.30
    8   13   78     -4.36     -0.53
    3   15   78     -0.80      1.08
    8   13   79      2.98      3.84
    6   14   79     -1.19     -2.58
    1   15   79     -4.65      2.21
    2   15   79      5.12      4.54
    3   15   79     -4.55      0.59
   10   11   80     -1.91      1.88
    9   12   80     -1.04      2.93
    0   14   80     -1.42     -1.93
    5   14   80      0.26      0.57
    0   15   80     -3.86      8.00
    1   15   80     -7.47      0.41
    7   13   81     -2.85      3.98
    9    9   82     18.00      2.94
    8   12   82      2.95     -8.95
    4   14   82      4.06     -1.69
    9   11   83      1.58     -7.59
    6   13   83     -6.90     -5.19
    2   14   83      1.62      6.78
    3   14   83     -1.41      6.90
    7   12   84      3.16      2.17
    5   13   84     -7.25      4.28
    0   14   84     -8.37     -0.56
    1   14   84     -0.72     -0.98
    8   11   85      7.81      5.32
    4   13   85      8.15      4.08
    9   10   86     -4.65      6.41
    8   11   86      0.03     -0.13
    6   12   86      1.87     -1.51
    3   13   86     -4.52     -7.53
    4   13   86     -1.92     -1.72
    7   11   87     -3.31      5.00
    1   13   87     -0.36      5.37
    2   13   87      2.23     -2.93
    3   13   87     -2.02      0.38
    6    9   88      1.31      5.25
    8   10   88      0.44      1.49
    7   11   88     -0.53     -1.66
    5   12   88      0.01      5.50
    0   13   88      0.35     -0.41
    1   13   88     -0.74      0.94
    7    8   89     10.27      6.77
    6   11   89      2.75     -4.20
    4   12   89      0.51      6.04
    7   10   90      3.09     -1.91
    2   12   90      9.25     -2.13
    3   12   90      6.42      2.53
    6    8   91     -9.80     -2.90
    8    9   91     -0.85     -5.36
    5   11   91     -5.12     -1.23
    0   12   91      3.39      5.83
    1   12   91     -0.76      0.15
    2   12   91      0.66     -1.45
    6   10   92      4.11      1.88
    4   11   92      0.78      8.04
    6    7   93     11.26      0.95
    7    9   93      0.33      1.01
    5   10   93      4.92     -4.39
    2   11   93     -4.62      3.77
    3   11   93     -1.59     -0.30
    0    0   94    -10.51     -0.94
    6    6   94    -12.64     -3.94
    6    9   94      5.29     -2.72
    4   10   94     -0.14     -5.20
    0   11   94      7.39      2.86
    1   11   94     -5.23     -9.44
    7    8   95     -6.19      1.67
    3   10   95      0.67      1.79
    4   10   95     -0.38     -0.64
    0    0   96    -17.02      3.04
    6    8   96     -4.72      3.85
    5    9   96      2.97      0.39
    1   10   96      5.29     -5.53
    2   10   96     -4.32     -2.51
    0    1   97      1.55      3.64
    6    8   97     -3.30      3.73
    4    9   97     -5.71     -4.49
    0   10   97      1.45     10.96
    0    0   98    -11.63     -3.17
    5    5   98      4.27     -3.91
    6    7   98      2.79      1.61
    5    8   98      1.19      1.74
    0    9   98      2.84      2.72
    2    9   98      7.52     -1.11
    3    9   98     -1.96      2.70
    0    1   99     -0.54     -2.91
    4    8   99     -1.68      5.60
    0    9   99     -0.18     -1.47
    1    9   99      0.84      3.20
    6    6  100      1.33     -2.21
    5    7  100     -1.26      2.31
    0    8  100      1.14      2.97
    2    8  100      5.72      2.15
    3    8  100      0.18     -0.42
    5    6  101     -2.38     -0.28
    4    7  101      1.29     -8.35
    0    8  101     -3.80     11.05
    1    8  101     -2.40     -0.09
    0    0  102      9.00     -5.84
    2    5  102      8.11     -3.12
    5    5  102     -2.23     -3.20
    4    6  102      4.04      2.90
    1    7  102      4.35     -3.00
    2    7  102      1.40      1.12
    3    7  102      1.07      2.61
    0    2  103      5.14     -5.41
    3    6  103     -0.56      2.49
    0    7  103     -3.15      0.92
    3    5  104      2.67      2.59
    0    6  104      8.19      1.80
    1    6  104     -2.91     -3.86
    2    6  104     -5.75      0.29
    0    3  105      3.21      0.23
    0    4  105     -0.27     -4.10
    3    4  105     -1.32     -4.78
    0    5  105      0.70      4.41
    1    5  105      3.12     -0.95
    2    5  105     -4.72     -0.16
    0    0  106     11.76     -0.36
    0    1  106     -2.99     -1.01
    3    3  106    -10.75     -1.25
    0    4  106     -3.91      2.81
    1    4  106      3.37      5.16
    2    4  106     -0.33     -0.56
    1    2  107     -3.79      6.55
    0    3  107     -3.20      9.59
    1    3  107      0.94      9.45
    2    3  107     -3.07      3.64
    0    0    0      0.00      0.00
# SQUEEZE RESULTS (Version = 100117)
# Note: Data are Listed for all Voids in the P1 Unit Cell
# i.e. Centre of Gravity, Solvent Accessible Volume,
# Recovered number of Electrons in the Void and
# Details about the Squeezed Material
loop_
  _platon_squeeze_void_nr
  _platon_squeeze_void_average_x
  _platon_squeeze_void_average_y
  _platon_squeeze_void_average_z
  _platon_squeeze_void_volume
  _platon_squeeze_void_count_electrons
  _platon_squeeze_void_content
   1 -0.500  0.500  0.000       972       331 ' '
   2 -0.022  0.073  0.250      6575      2239 ' '
   3  0.500  0.500  0.500       972       331 ' '
   4 -0.014  0.262  0.749      6574      2239 ' '
   5  0.202  0.621  0.017        12         6 ' '
   6  0.202  0.379  0.483        12         5 ' '
   7  0.379  0.797  0.517        12         6 ' '
   8  0.379  0.203  0.983        12         5 ' '
   9  0.621  0.202  0.517        12         6 ' '
  10  0.621  0.797  0.983        12         6 ' '
  11  0.797  0.379  0.017        12         6 ' '
  12  0.797  0.621  0.483        12         6 ' '
# Missing Reflections Below sin(th)/lambda = 0.25
loop_
  _platon_missing_refln_index_h
  _platon_missing_refln_index_k
  _platon_missing_refln_index_l
  _platon_missing_refln_theta
    0    1    0     1.093
    1    1    0     1.546
    0    2    0     2.187
    1    3    0     3.460
    0    1    1     1.116
    0    0    2     0.449
    0    1    2     1.182
    1    1    2     1.610
    0    2    2     2.233
    0    4    2     4.401
    0    1    3     1.285
    0    0    4     0.899
    0    1    4     1.415
    1    1    4     1.789
    0    1    5     1.568
    0    0    6     1.348
    0    1    6     1.736
    0    1    7     1.916
    0    0    8     1.798
    0    1    9     2.300
    0    5    9     5.839
    0    1   11     2.704
    0    5   11     6.011
    1    2   23     5.727
    0    2   32     7.537
_platon_squeeze_void_probe_radius                  1.20
_platon_squeeze_details
)
TITL S6_CCF_SA_P -4 2 c     R = 0.24
CELL   18.6227   18.6227   90.6140     90.00     90.00     90.00
SPGR P-42c
# Solvent Accessible Volume =     15172
# Electrons Found in S.A.V. =      5056
# Note: Atoms in Void as Cxxx and Qxxx all others
Q101 0.381 0.802 0.516 !       5.45 eA-3
C102 0.189 0.684 0.771 !       4.89 eA-3
C103 1.000 0.962 0.191 !       4.86 eA-3
C104 0.705 0.193 0.793 !       4.73 eA-3
C105 0.702 0.194 0.714 !       4.66 eA-3
C106 0.800 0.698 0.757 !       4.57 eA-3
Q107 0.157 0.700 0.481 !       4.52 eA-3
C108 0.545 0.685 0.297 !       4.43 eA-3
C109 0.953 0.192 0.703 !       4.30 eA-3
C110 0.499 0.526 0.691 !       4.28 eA-3
C111 0.457 0.784 0.554 !       4.10 eA-3
C112 0.112 0.362 0.441 !       4.07 eA-3
C113 0.050 0.193 0.184 !       4.04 eA-3
C114 0.540 0.393 0.938 !       3.85 eA-3
C115 0.501 0.493 0.016 !       3.82 eA-3
C116 0.009 0.810 0.023 !       3.70 eA-3
Q117 0.846 0.702 0.903 !       3.68 eA-3
C118 0.017 0.226 0.882 !       3.62 eA-3
C119 0.939 0.045 0.817 !       3.52 eA-3
C120 0.437 0.546 0.316 !       3.50 eA-3
C121 0.032 0.871 0.323 !       3.45 eA-3
C122 0.549 0.691 0.685 !       3.44 eA-3
C123 0.576 0.442 0.684 !       3.41 eA-3
C124 0.749 0.398 0.467 !       3.25 eA-3
C125 0.253 0.429 0.034 !       3.22 eA-3
C126 0.066 0.058 0.316 !       3.21 eA-3
C127 0.040 0.262 0.758 !       3.19 eA-3
C128 0.305 0.687 0.199 !       3.14 eA-3
C129 0.217 0.686 0.782 !       3.11 eA-3
C130 0.528 0.638 0.521 !       3.11 eA-3
C131 0.718 0.177 0.144 !       3.10 eA-3
C132 0.972 0.471 0.250 !       3.04 eA-3
C133 0.185 0.807 0.198 !       3.04 eA-3
C134 0.188 0.268 0.780 !       3.03 eA-3
C135 0.612 0.465 0.820 !       3.03 eA-3
C136 0.189 0.271 0.712 !       3.01 eA-3
C137 0.703 0.482 0.649 !       3.01 eA-3
C138 0.541 0.764 0.259 !       3.00 eA-3
C139 0.559 0.799 0.252 !       2.99 eA-3
C140 0.879 0.215 0.317 !       2.98 eA-3
C141 0.682 0.474 0.785 !       2.97 eA-3
C142 0.206 0.016 0.203 !       2.97 eA-3
C143 0.689 0.328 0.309 !       2.97 eA-3
C144 0.751 0.706 0.706 !       2.93 eA-3
C145 0.234 0.686 0.720 !       2.93 eA-3
C146 0.249 0.068 0.280 !       2.90 eA-3
C147 0.173 0.060 0.191 !       2.88 eA-3
Q148 0.481 0.342 0.403 !       2.87 eA-3
C149 0.833 0.808 0.196 !       2.87 eA-3
C150 0.048 0.871 0.179 !       2.84 eA-3
C151 0.106 0.574 0.884 !       2.83 eA-3
C152 0.372 0.516 0.326 !       2.82 eA-3
C153 0.781 0.204 0.325 !       2.78 eA-3
C154 0.438 0.663 0.312 !       2.76 eA-3
Q155 0.041 0.060 0.438 !       2.76 eA-3
C156 0.199 0.442 0.732 !       2.75 eA-3
C157 0.843 0.353 0.859 !       2.74 eA-3
C158 0.281 0.033 0.245 !       2.74 eA-3
C159 0.034 0.823 0.447 !       2.74 eA-3
C160 0.971 0.119 0.820 !       2.73 eA-3
C161 0.306 0.950 0.270 !       2.72 eA-3
C162 0.521 0.219 0.258 !       2.71 eA-3
C163 0.565 0.369 0.680 !       2.71 eA-3
C164 0.435 0.755 0.219 !       2.70 eA-3
C165 0.796 0.997 0.150 !       2.69 eA-3
Q166 1.004 0.714 0.200 !       2.69 eA-3
C167 0.206 0.997 0.104 !       2.63 eA-3
C168 0.282 0.683 0.826 !       2.61 eA-3
C169 0.578 0.778 0.164 !       2.60 eA-3
C170 1.003 0.222 0.310 !       2.60 eA-3
C171 0.500 0.609 0.251 !       2.59 eA-3
C172 0.020 0.814 0.637 !       2.59 eA-3
C173 0.431 0.842 0.407 !       2.58 eA-3
C174 0.034 0.166 0.716 !       2.58 eA-3
C175 0.709 0.776 0.246 !       2.55 eA-3
C176 0.746 0.638 0.320 !       2.55 eA-3
C177 0.224 0.140 0.813 !       2.54 eA-3
C178 0.282 0.939 0.338 !       2.53 eA-3
C179 0.345 0.255 0.313 !       2.52 eA-3
C180 0.630 0.224 0.212 !       2.51 eA-3
Q181 0.343 0.949 0.406 !       2.50 eA-3
C182 0.767 0.840 0.312 !       2.48 eA-3
C183 0.576 0.697 0.813 !       2.48 eA-3
C184 0.715 0.728 0.241 !       2.46 eA-3
C185 0.066 0.185 0.317 !       2.42 eA-3
C186 0.582 0.632 0.766 !       2.42 eA-3
C187 0.625 0.149 0.250 !       2.41 eA-3
C188 0.657 0.123 0.247 !       2.41 eA-3
C189 0.092 0.127 0.266 !       2.40 eA-3
C190 0.876 0.788 0.688 !       2.40 eA-3
C191 0.715 0.728 0.741 !       2.40 eA-3
C192 0.765 0.191 0.797 !       2.38 eA-3
Q193 0.190 0.475 0.714 !       2.38 eA-3
C194 0.736 0.529 0.317 !       2.37 eA-3
C195 0.703 0.736 0.703 !       2.37 eA-3
C196 0.706 0.375 0.811 !       2.37 eA-3
C197 0.483 0.201 0.270 !       2.36 eA-3
C198 0.969 0.864 0.813 !       2.34 eA-3
C199 0.370 0.242 0.195 !       2.33 eA-3
)
;
_shelx_fab_checksum              7904
loop_
_space_group_symop_operation_xyz
'x, y, z'
'-x, -y, z'
'y, -x, -z'
'-y, x, -z'
'-x, y, -z+1/2'
'x, -y, -z+1/2'
'-y, -x, z+1/2'
'y, x, z+1/2'
loop_
_atom_site_label
_atom_site_type_symbol
_atom_site_fract_x
_atom_site_fract_y
_atom_site_fract_z
_atom_site_U_iso_or_equiv
_atom_site_adp_type
_atom_site_occupancy
_atom_site_site_symmetry_order
_atom_site_calc_flag
_atom_site_refinement_flags_posn
_atom_site_refinement_flags_adp
_atom_site_refinement_flags_occupancy
_atom_site_disorder_assembly
_atom_site_disorder_group
C1 C 0.5294(5) 0.9763(5) 0.57237(11) 0.063(2) Uani 1 1 d . U . . .
C2 C 0.5616(5) 0.9524(5) 0.55900(11) 0.062(2) Uani 1 1 d D U . . .
C3 C 0.5304(4) 0.9781(4) 0.54626(10) 0.057(2) Uani 1 1 d D U . . .
C4 C 0.5603(4) 0.9576(4) 0.53090(5) 0.072(3) Uani 1 1 d G U . . .
C5 C 0.6095(4) 1.0030(4) 0.52409(6) 0.081(3) Uani 1 1 d G U . . .
H5 H 0.632606 1.039004 0.529593 0.097 Uiso 1 1 calc R U . . .
C6 C 0.6245(4) 0.9951(4) 0.50915(6) 0.089(3) Uani 1 1 d DG U . . .
H6 H 0.657756 1.025731 0.504553 0.107 Uiso 1 1 calc R U . . .
C7 C 0.5903(4) 0.9418(4) 0.50102(5) 0.095(3) Uani 1 1 d DG U . . .
C8 C 0.5412(4) 0.8964(4) 0.50783(7) 0.096(3) Uani 1 1 d DG U . . .
H8 H 0.518065 0.860410 0.502328 0.115 Uiso 1 1 calc DR U . . .
C9 C 0.5262(4) 0.9044(4) 0.52277(7) 0.093(3) Uani 1 1 d G U . . .
H9 H 0.492914 0.873682 0.527368 0.111 Uiso 1 1 calc R U . . .
C10 C 0.6030(7) 0.9423(7) 0.48459(9) 0.128(4) Uani 1 1 d D U . . .
H10 H 0.642184 0.966737 0.480426 0.154 Uiso 1 1 calc DR U . . .
C11 C 0.5630(7) 0.9117(6) 0.47744(8) 0.149(5) Uani 1 1 d D U . . .
H11 H 0.527104 0.882603 0.481624 0.179 Uiso 1 1 calc DR U . . .
C12 C 0.5701(5) 0.9199(5) 0.46108(8) 0.178(5) Uani 1 1 d DG U . . .
C13 C 0.6118(6) 0.9730(5) 0.45454(9) 0.197(6) Uani 1 1 d DG U . . .
H13 H 0.637158 1.005834 0.460462 0.237 Uiso 1 1 calc DR U . . .
C14 C 0.6161(6) 0.9776(6) 0.43926(10) 0.202(6) Uani 1 1 d DG U . . .
H14 H 0.644313 1.013505 0.434840 0.242 Uiso 1 1 calc R U . . .
N1 N 0.5787(6) 0.9291(6) 0.43051(8) 0.199(6) Uani 1 1 d DG U . . .
C15 C 0.5369(6) 0.8760(6) 0.43704(10) 0.201(6) Uani 1 1 d DG U . . .
H15 H 0.511620 0.843132 0.431120 0.242 Uiso 1 1 calc R U . . .
C16 C 0.5327(6) 0.8714(5) 0.45232(10) 0.192(6) Uani 1 1 d DG U . . .
H16 H 0.504463 0.835461 0.456743 0.230 Uiso 1 1 calc R U . . .
C17 C 0.5842(9) 0.9357(9) 0.4147(2) 0.232(11) Uani 1 1 d D U . . .
H17A H 0.628665 0.959888 0.412202 0.348 Uiso 1 1 calc R U . . .
H17B H 0.543876 0.963344 0.411011 0.348 Uiso 1 1 calc R U . . .
H17C H 0.583725 0.888286 0.410270 0.348 Uiso 1 1 calc R U . . .
C18 C 0.6283(5) 0.9019(6) 0.55881(12) 0.076(3) Uani 1 1 d D U . . .
H18A H 0.651234 0.904247 0.549214 0.114 Uiso 1 1 calc R U . . .
H18B H 0.613149 0.852971 0.560758 0.114 Uiso 1 1 calc R U . . .
H18C H 0.662041 0.917028 0.566353 0.114 Uiso 1 1 calc R U . . .
C19 C 0.5637(5) 0.9539(4) 0.58716(6) 0.081(3) Uani 1 1 d G U . . .
C20 C 0.5398(5) 0.8901(4) 0.59343(8) 0.099(3) Uani 1 1 d G U . . .
H20 H 0.513052 0.857365 0.587755 0.119 Uiso 1 1 calc R U . . .
C21 C 0.5555(5) 0.8746(4) 0.60808(8) 0.110(4) Uani 1 1 d G U . . .
H21 H 0.539408 0.831438 0.612320 0.132 Uiso 1 1 calc R U . . .
C22 C 0.5951(5) 0.9229(5) 0.61647(6) 0.099(3) Uani 1 1 d DG U . . .
C23 C 0.6190(4) 0.9868(5) 0.61021(8) 0.103(3) Uani 1 1 d G U . . .
H23 H 0.645759 1.019456 0.615883 0.124 Uiso 1 1 calc R U . . .
C24 C 0.6033(5) 1.0022(4) 0.59555(8) 0.103(3) Uani 1 1 d G U . . .
H24 H 0.619404 1.045385 0.591317 0.124 Uiso 1 1 calc R U . . .
C25 C 0.5981(8) 0.9119(9) 0.63303(12) 0.109(4) Uani 1 1 d D U . . .
H25A H 0.599507 0.864085 0.636343 0.130 Uiso 1 1 calc R U . . .
C26 C 0.5989(10) 0.9580(12) 0.64247(17) 0.149(5) Uani 1 1 d . U . . .
H26 H 0.610263 1.003367 0.638580 0.179 Uiso 1 1 calc R U . . .
C27 C 0.5859(9) 0.9607(9) 0.65931(10) 0.183(5) Uani 1 1 d G U . . .
C28 C 0.5428(9) 0.9043(7) 0.66403(14) 0.197(6) Uani 1 1 d G U . . .
H28 H 0.522869 0.872391 0.657102 0.236 Uiso 1 1 calc R U . . .
C29 C 0.5291(8) 0.8950(7) 0.67899(16) 0.195(6) Uani 1 1 d G U . . .
H29 H 0.499959 0.856799 0.682177 0.234 Uiso 1 1 calc R U . . .
N2 N 0.5585(8) 0.9421(8) 0.68922(10) 0.171(5) Uani 1 1 d DG U . . .
C30 C 0.6016(7) 0.9986(7) 0.68450(13) 0.176(5) Uani 1 1 d G U . . .
H30 H 0.621499 1.030475 0.691429 0.211 Uiso 1 1 calc R U . . .
C31 C 0.6153(7) 1.0079(8) 0.66955(15) 0.192(6) Uani 1 1 d G U . . .
H31 H 0.644410 1.046068 0.666355 0.231 Uiso 1 1 calc R U . . .
C32 C 0.5729(9) 0.9265(9) 0.70488(14) 0.125(5) Uani 1 1 d D U . . .
H32A H 0.554283 0.965155 0.710939 0.187 Uiso 1 1 calc R U . . .
H32B H 0.624240 0.922090 0.706408 0.187 Uiso 1 1 calc R U . . .
H32C H 0.549553 0.881800 0.707597 0.187 Uiso 1 1 calc R U . . .
C1_2 C 0.7880(5) 1.1689(5) 0.45882(11) 0.065(2) Uani 1 1 d D U . . .
H1_2 H 0.838324 1.186025 0.459077 0.078 Uiso 1 1 calc R U . . .
C2_2 C 0.7361(5) 1.2328(5) 0.45958(12) 0.057(2) Uani 1 1 d D U . . .
H2_2 H 0.762156 1.279098 0.459220 0.068 Uiso 1 1 calc R U . . .
C3_2 C 0.7165(5) 1.1680(5) 0.43801(11) 0.054(2) Uani 1 1 d . U . . .
C4_2 C 0.8162(5) 1.0773(5) 0.43942(11) 0.064(2) Uani 1 1 d . U . . .
H4A_2 H 0.805048 1.071624 0.428919 0.077 Uiso 1 1 calc R U . . .
H4B_2 H 0.866511 1.092399 0.440134 0.077 Uiso 1 1 calc R U . . .
C5_2 C 0.7903(5) 0.9481(5) 0.43891(11) 0.063(2) Uani 1 1 d . U . . .
C6_2 C 0.8449(5) 0.9060(4) 0.45915(11) 0.061(2) Uani 1 1 d D U . . .
H6_2 H 0.893936 0.885367 0.458827 0.073 Uiso 1 1 calc R U . . .
C7_2 C 0.8479(5) 0.9871(4) 0.45908(10) 0.058(2) Uani 1 1 d D U . . .
H7_2 H 0.898368 1.003811 0.458867 0.070 Uiso 1 1 calc R U . . .
C8_2 C 0.7230(5) 1.1661(5) 0.48083(12) 0.062(2) Uani 1 1 d . U . . .
C9_2 C 0.3399(5) 0.7186(5) 0.48004(10) 0.059(2) Uani 1 1 d . U . . .
H9A_2 H 0.311407 0.674354 0.479539 0.070 Uiso 1 1 calc R U . . .
H9B_2 H 0.345746 0.731243 0.490463 0.070 Uiso 1 1 calc R U . . .
C10_2 C 0.5986(4) 0.6631(5) 0.48012(11) 0.059(2) Uani 1 1 d . U . . .
H10A_2 H 0.608775 0.611612 0.479287 0.070 Uiso 1 1 calc R U . . .
H10B_2 H 0.597773 0.675543 0.490631 0.070 Uiso 1 1 calc R U . . .
C11_2 C 0.5035(4) 0.6418(5) 0.45988(10) 0.062(2) Uani 1 1 d D U . . .
H11_2 H 0.510527 0.589138 0.460064 0.074 Uiso 1 1 calc R U . . .
C12_2 C 0.4231(4) 0.6640(5) 0.45961(10) 0.061(2) Uani 1 1 d D U . . .
H12_2 H 0.391565 0.621167 0.459518 0.073 Uiso 1 1 calc R U . . .
C13_2 C 0.3454(5) 0.7139(5) 0.43888(11) 0.065(2) Uani 1 1 d . U . . .
H13A_2 H 0.316466 0.670438 0.440244 0.077 Uiso 1 1 calc R U . . .
H13B_2 H 0.353292 0.720763 0.428280 0.077 Uiso 1 1 calc R U . . .
C14_2 C 0.4777(5) 0.7084(5) 0.43829(11) 0.060(2) Uani 1 1 d . U . . .
C15_2 C 0.8072(5) 0.8157(5) 0.44000(11) 0.065(2) Uani 1 1 d . U . . .
H15A_2 H 0.800993 0.818741 0.429282 0.078 Uiso 1 1 calc R U . . .
H15B_2 H 0.853454 0.792525 0.441947 0.078 Uiso 1 1 calc R U . . .
C16_2 C 0.6935(5) 0.7460(6) 0.43821(12) 0.063(2) Uani 1 1 d . U . . .
C17_2 C 0.6915(4) 0.6845(5) 0.46025(11) 0.063(2) Uani 1 1 d D U . . .
H17_2 H 0.706076 0.633446 0.460750 0.075 Uiso 1 1 calc R U . . .
C18_2 C 0.7587(5) 0.7332(5) 0.45955(12) 0.061(2) Uani 1 1 d D U . . .
H18_2 H 0.803665 0.704839 0.459620 0.073 Uiso 1 1 calc R U . . .
C19_2 C 0.7982(5) 0.9496(5) 0.48157(11) 0.055(2) Uani 1 1 d . U . . .
C20_2 C 0.8056(5) 0.8180(5) 0.47984(11) 0.065(2) Uani 1 1 d . U . . .
H20A_2 H 0.851906 0.793988 0.478365 0.078 Uiso 1 1 calc R U . . .
H20B_2 H 0.797007 0.821080 0.490491 0.078 Uiso 1 1 calc R U . . .
C21_2 C 0.6931(5) 0.7557(5) 0.48167(11) 0.050(2) Uani 1 1 d . U . . .
C22_2 C 0.8217(5) 1.0818(5) 0.47883(11) 0.062(2) Uani 1 1 d . U . . .
H22A_2 H 0.817269 1.082134 0.489607 0.074 Uiso 1 1 calc R U . . .
H22B_2 H 0.869872 1.098978 0.476324 0.074 Uiso 1 1 calc R U . . .
C23_2 C 0.4747(5) 0.7097(5) 0.48169(12) 0.064(2) Uani 1 1 d . U . . .
C24_2 C 0.5973(5) 0.6588(5) 0.44026(11) 0.063(2) Uani 1 1 d . U . . .
H24A_2 H 0.594289 0.671272 0.429765 0.075 Uiso 1 1 calc R U . . .
H24B_2 H 0.607251 0.607274 0.440959 0.075 Uiso 1 1 calc R U . . .
N1_2 N 0.7737(4) 1.1319(4) 0.44499(9) 0.0629(19) Uani 1 1 d . U . . .
N2_2 N 0.6955(4) 1.2190(4) 0.44548(9) 0.0589(19) Uani 1 1 d . U . . .
N3_2 N 0.8099(4) 1.0117(4) 0.44603(8) 0.0632(19) Uani 1 1 d . U . . .
N4_2 N 0.8081(4) 0.8904(4) 0.44637(9) 0.0615(19) Uani 1 1 d . U . . .
N5_2 N 0.7703(4) 1.1295(4) 0.47280(8) 0.0599(18) Uani 1 1 d . U . . .
N6_2 N 0.3022(4) 0.7747(4) 0.47269(8) 0.0522(18) Uani 1 1 d . U . . .
N7_2 N 0.4138(4) 0.7050(4) 0.47321(8) 0.0565(18) Uani 1 1 d . U . . .
N8_2 N 0.5296(4) 0.6783(4) 0.47367(9) 0.0645(19) Uani 1 1 d . U . . .
N9_2 N 0.4135(4) 0.7061(4) 0.44635(8) 0.0574(18) Uani 1 1 d . U . . .
N10_2 N 0.5295(4) 0.6736(4) 0.44714(8) 0.0581(18) Uani 1 1 d . U . . .
N11_2 N 0.7503(4) 0.7720(4) 0.44613(9) 0.061(2) Uani 1 1 d . U . . .
N12_2 N 0.6565(4) 0.6983(4) 0.44689(8) 0.064(2) Uani 1 1 d . U . . .
N13_2 N 0.8096(4) 0.8902(4) 0.47377(8) 0.0577(18) Uani 1 1 d . U . . .
N14_2 N 0.8134(4) 1.0065(4) 0.47342(8) 0.0597(18) Uani 1 1 d . U . . .
N15_2 N 0.7501(4) 0.7753(4) 0.47325(10) 0.0583(19) Uani 1 1 d . U . . .
N16_2 N 0.6546(4) 0.7034(4) 0.47282(8) 0.0581(18) Uani 1 1 d . U . . .
O1_2 O 0.6957(4) 1.1485(4) 0.42536(8) 0.0712(18) Uani 1 1 d . U . . .
O2_2 O 0.7601(4) 0.9461(4) 0.42566(8) 0.0790(19) Uani 1 1 d . U . . .
O3_2 O 0.7031(3) 1.1511(3) 0.49333(7) 0.0602(16) Uani 1 1 d . U . . .
O4_2 O 0.4785(3) 0.7339(4) 0.49398(7) 0.0669(17) Uani 1 1 d . U . . .
O5_2 O 0.4817(3) 0.7333(4) 0.42626(7) 0.080(2) Uani 1 1 d . U . . .
O6_2 O 0.6753(4) 0.7685(4) 0.42656(7) 0.0707(18) Uani 1 1 d . U . . .
O7_2 O 0.7759(3) 0.9507(3) 0.49397(7) 0.0611(16) Uani 1 1 d . U . . .
O8_2 O 0.6766(3) 0.7768(3) 0.49380(7) 0.0636(16) Uani 1 1 d . U . . .
I1_3 I 0.000000 0.500000 0.750000 0.0847(9) Uani 0.790(7) 4 d S T P A 1
I2_3 I 0.9610(2) 0.9951(2) 0.40981(4) 0.1014(16) Uani 0.228(2) 1 d . . P B 2
I3_3 I 0.500000 0.500000 0.40940(2) 0.1794(16) Uani 0.728(4) 2 d S T P C 3
I4_3 I 0.000000 0.000000 0.64506(2) 0.0927(6) Uani 0.818(4) 2 d S T P D 4
I5_3 I 0.500000 0.500000 0.64544(2) 0.1185(8) Uani 0.831(4) 2 d S T P E 5
I6_3 I 0.000000 0.000000 0.48550(3) 0.0904(14) Uani 0.343(4) 2 d S T P F 6
I7_3 I 0.8898(4) 0.5079(3) 0.69322(6) 0.080(2) Uani 0.122(2) 1 d . . P G 7
I8_3 I 0.9905(4) 0.6109(4) 0.69121(6) 0.071(3) Uani 0.092(2) 1 d . . P H 8
C1_4 C 0.1568(6) 0.9785(5) 0.61652(11) 0.076(3) Uani 1 1 d . U . . .
H1_4 H 0.110079 0.953261 0.616986 0.091 Uiso 1 1 calc R U . . .
C2_4 C 0.1469(6) 1.0585(5) 0.61642(11) 0.068(2) Uani 1 1 d . U . . .
H2_4 H 0.095260 1.070938 0.616137 0.081 Uiso 1 1 calc R U . . .
C3_4 C 0.2059(6) 1.0303(6) 0.63813(12) 0.072(3) Uani 1 1 d . U . . .
C4_4 C 0.2066(6) 1.0206(6) 0.59485(11) 0.070(3) Uani 1 1 d . U . . .
C5_4 C 0.2036(6) 0.8967(6) 0.63844(12) 0.074(3) Uani 1 1 d . U . . .
H5A_4 H 0.216966 0.906004 0.648730 0.088 Uiso 1 1 calc R U . . .
H5B_4 H 0.156672 0.872934 0.638362 0.088 Uiso 1 1 calc R U . . .
C6_4 C 0.3110(6) 0.8192(6) 0.63914(13) 0.069(3) Uani 1 1 d . U . . .
C7_4 C 0.2954(6) 0.7481(6) 0.61850(12) 0.071(2) Uani 1 1 d . U . . .
H7_4 H 0.271395 0.700771 0.619121 0.086 Uiso 1 1 calc R U . . .
C8_4 C 0.2365(6) 0.8106(6) 0.61809(11) 0.072(2) Uani 1 1 d . U . . .
H8_4 H 0.186950 0.791483 0.618650 0.086 Uiso 1 1 calc R U . . .
C9_4 C 0.7897(6) 0.7549(5) 0.61548(11) 0.062(2) Uani 1 1 d . U . . .
H9_4 H 0.837159 0.731395 0.614456 0.074 Uiso 1 1 calc R U . . .
C10_4 C 0.7255(5) 0.6998(5) 0.61594(10) 0.059(2) Uani 1 1 d . U . . .
H10_4 H 0.743046 0.649656 0.615665 0.071 Uiso 1 1 calc R U . . .
C11_4 C 0.7254(6) 0.7680(6) 0.63810(14) 0.070(3) Uani 1 1 d . U . . .
C12_4 C 0.1987(6) 0.8909(6) 0.59715(11) 0.075(3) Uani 1 1 d . U . . .
H12A_4 H 0.210820 0.895446 0.586671 0.089 Uiso 1 1 calc R U . . .
H12B_4 H 0.150970 0.868943 0.597825 0.089 Uiso 1 1 calc R U . . .
C13_4 C 0.3044(6) 0.8073(6) 0.59587(14) 0.070(3) Uani 1 1 d . U . . .
C14_4 C 0.8231(5) 0.8503(5) 0.59615(11) 0.064(2) Uani 1 1 d . U . . .
H14A_4 H 0.871965 0.832010 0.597503 0.077 Uiso 1 1 calc R U . . .
H14B_4 H 0.813773 0.853833 0.585528 0.077 Uiso 1 1 calc R U . . .
C15_4 C 0.7161(5) 0.7701(5) 0.59520(12) 0.058(2) Uani 1 1 d . U . . .
C16_4 C 0.3784(6) 0.7106(6) 0.63774(11) 0.075(3) Uani 1 1 d . U . . .
H16A_4 H 0.354352 0.663821 0.637263 0.091 Uiso 1 1 calc R U . . .
H16B_4 H 0.383874 0.722912 0.648194 0.091 Uiso 1 1 calc R U . . .
C17_4 C 0.5131(6) 0.7068(5) 0.63845(11) 0.067(2) Uani 1 1 d . U . . .
C18_4 C 0.5405(5) 0.6426(5) 0.61800(10) 0.063(2) Uani 1 1 d . U . . .
H18_4 H 0.551986 0.590746 0.618463 0.076 Uiso 1 1 calc R U . . .
C19_4 C 0.4595(5) 0.6587(5) 0.61724(10) 0.062(2) Uani 1 1 d . U . . .
H19_4 H 0.431604 0.613696 0.618105 0.075 Uiso 1 1 calc R U . . .
C20_4 C 0.3751(6) 0.6988(6) 0.59796(12) 0.072(3) Uani 1 1 d . U . . .
H20_4 H 0.357860 0.668166 0.590510 0.086 Uiso 1 1 calc R U . . .
C21_4 C 0.5031(6) 0.7040(5) 0.59546(11) 0.063(2) Uani 1 1 d . U . . .
C22_4 C 0.6334(5) 0.6678(6) 0.59685(11) 0.066(2) Uani 1 1 d . U . . .
H22A_4 H 0.630327 0.674338 0.586137 0.079 Uiso 1 1 calc R U . . .
H22B_4 H 0.648904 0.618384 0.598716 0.079 Uiso 1 1 calc R U . . .
C23_4 C 0.6403(5) 0.6687(5) 0.63588(11) 0.066(2) Uani 1 1 d . U . . .
H23_4 H 0.651407 0.632370 0.642715 0.079 Uiso 1 1 calc R U . . .
C24_4 C 0.1667(6) 1.1541(6) 0.63511(12) 0.070(3) Uani 1 1 d . U . . .
H24A_4 H 0.168298 1.152922 0.645919 0.083 Uiso 1 1 calc R U . . .
H24B_4 H 0.118517 1.169647 0.632175 0.083 Uiso 1 1 calc R U . . .
N1_4 N 0.1994(5) 0.9665(5) 0.63008(9) 0.074(2) Uani 1 1 d . U . . .
N2_4 N 0.1790(4) 1.0841(5) 0.62964(9) 0.067(2) Uani 1 1 d . U . . .
N3_4 N 0.1963(5) 0.9590(5) 0.60345(9) 0.071(2) Uani 1 1 d . U . . .
N4_4 N 0.1827(5) 1.0807(5) 0.60264(9) 0.072(2) Uani 1 1 d . U . . .
N5_4 N 0.2569(5) 0.8506(5) 0.63158(9) 0.073(2) Uani 1 1 d . U . . .
N6_4 N 0.3342(5) 0.7609(5) 0.63130(9) 0.068(2) Uani 1 1 d . U . . .
N8_4 N 0.7809(4) 0.7938(4) 0.62978(9) 0.065(2) Uani 1 1 d . U . . .
N9_4 N 0.6893(4) 0.7153(4) 0.62983(9) 0.0648(19) Uani 1 1 d . U . . .
N10_4 N 0.2510(5) 0.8435(4) 0.60426(9) 0.071(2) Uani 1 1 d . U . . .
N11_4 N 0.3318(4) 0.7550(4) 0.60450(9) 0.0644(19) Uani 1 1 d . U . . .
N12_4 N 0.7712(4) 0.8000(4) 0.60292(8) 0.0573(18) Uani 1 1 d . U . . .
N13_4 N 0.6883(4) 0.7177(5) 0.60279(9) 0.0630(19) Uani 1 1 d . U . . .
N14_4 N 0.4519(5) 0.7028(4) 0.63112(8) 0.067(2) Uani 1 1 d . U . . .
N15_4 N 0.5689(4) 0.6836(4) 0.63017(8) 0.0581(18) Uani 1 1 d . U . . .
N17_4 N 0.4434(5) 0.6939(4) 0.60356(9) 0.067(2) Uani 1 1 d . U . . .
N18_4 N 0.5611(5) 0.6783(4) 0.60332(9) 0.0646(19) Uani 1 1 d . U . . .
O1_4 O 0.2290(4) 1.0351(4) 0.65113(7) 0.081(2) Uani 1 1 d . U . . .
O2_4 O 0.2291(4) 1.0222(3) 0.58253(8) 0.0756(19) Uani 1 1 d . U . . .
O3_4 O 0.3329(4) 0.8396(4) 0.65108(9) 0.088(2) Uani 1 1 d . U . . .
O4_4 O 0.7101(4) 0.7860(4) 0.65029(8) 0.072(2) Uani 1 1 d . U . . .
O5_4 O 0.3199(5) 0.8203(4) 0.58389(9) 0.088(2) Uani 1 1 d . U . . .
O6_4 O 0.6976(3) 0.7884(3) 0.58218(7) 0.0618(17) Uani 1 1 d . U . . .
O7_4 O 0.5205(4) 0.7353(4) 0.65155(7) 0.078(2) Uani 1 1 d . U . . .
O8_4 O 0.5075(4) 0.7225(3) 0.58295(6) 0.0650(16) Uani 1 1 d . U . . .
loop_
_atom_site_aniso_label
_atom_site_aniso_U_11
_atom_site_aniso_U_22
_atom_site_aniso_U_33
_atom_site_aniso_U_23
_atom_site_aniso_U_13
_atom_site_aniso_U_12
C1 0.059(5) 0.066(5) 0.062(6) 0.001(4) -0.007(4) -0.005(4)
C2 0.054(5) 0.068(5) 0.065(6) -0.005(5) -0.003(4) -0.015(4)
C3 0.067(5) 0.055(5) 0.049(5) 0.008(4) -0.008(4) -0.008(4)
C4 0.083(6) 0.080(6) 0.052(5) 0.004(5) 0.002(5) -0.010(5)
C5 0.089(6) 0.081(6) 0.072(6) 0.000(6) 0.003(5) -0.019(5)
C6 0.112(7) 0.091(6) 0.065(6) -0.007(6) -0.002(5) 0.004(6)
C7 0.107(7) 0.105(7) 0.072(6) -0.010(6) -0.023(6) 0.017(6)
C8 0.108(7) 0.110(8) 0.070(6) -0.021(6) 0.009(6) -0.015(6)
C9 0.103(7) 0.110(7) 0.066(6) -0.016(6) -0.002(6) -0.016(6)
C10 0.131(9) 0.147(9) 0.107(8) -0.033(8) -0.035(7) 0.049(8)
C11 0.181(11) 0.147(10) 0.120(9) -0.013(8) -0.048(9) 0.071(9)
C12 0.247(12) 0.156(10) 0.132(9) -0.021(8) -0.030(9) 0.074(10)
C13 0.260(14) 0.188(12) 0.143(11) -0.034(10) -0.013(11) 0.069(11)
C14 0.274(14) 0.194(12) 0.138(10) -0.044(10) -0.005(11) 0.079(11)
N1 0.285(13) 0.171(11) 0.139(10) -0.076(8) 0.014(10) 0.072(11)
C15 0.297(15) 0.149(11) 0.158(11) -0.061(10) -0.009(11) 0.050(11)
C16 0.290(14) 0.147(10) 0.139(10) -0.029(9) -0.010(11) 0.045(11)
C17 0.31(2) 0.24(2) 0.154(18) -0.054(16) 0.018(17) 0.02(2)
C18 0.084(7) 0.087(7) 0.057(6) 0.013(6) 0.001(6) -0.005(6)
C19 0.101(6) 0.084(6) 0.059(6) -0.009(5) -0.010(5) -0.010(5)
C20 0.134(8) 0.085(7) 0.077(7) 0.005(6) -0.033(6) -0.005(6)
C21 0.139(8) 0.104(7) 0.087(7) 0.007(6) -0.039(7) 0.004(7)
C22 0.112(7) 0.124(7) 0.062(6) -0.020(6) -0.037(6) 0.012(6)
C23 0.106(7) 0.131(8) 0.073(6) -0.003(7) -0.020(6) -0.023(7)
C24 0.107(7) 0.121(7) 0.081(6) -0.001(7) -0.017(6) -0.026(7)
C25 0.120(8) 0.129(9) 0.078(7) -0.025(6) -0.041(7) 0.013(7)
C26 0.166(10) 0.190(11) 0.091(8) 0.002(8) -0.030(8) 0.005(9)
C27 0.227(11) 0.208(11) 0.112(9) 0.014(9) -0.010(9) -0.022(10)
C28 0.265(13) 0.188(12) 0.137(10) 0.040(10) -0.022(11) -0.023(11)
C29 0.264(13) 0.185(12) 0.136(10) 0.044(10) -0.013(11) -0.027(11)
N2 0.232(12) 0.174(11) 0.109(9) 0.015(8) -0.013(8) -0.021(10)
C30 0.234(13) 0.198(12) 0.097(8) 0.024(10) 0.004(9) 0.004(11)
C31 0.244(13) 0.212(12) 0.120(9) 0.028(10) -0.009(10) -0.014(11)
C32 0.155(13) 0.140(12) 0.079(9) -0.010(8) 0.003(9) -0.014(11)
C1_2 0.057(5) 0.072(5) 0.066(5) 0.002(5) 0.010(4) 0.002(4)
C2_2 0.046(5) 0.062(5) 0.063(6) 0.007(4) 0.004(4) -0.002(4)
C3_2 0.062(5) 0.044(5) 0.056(5) 0.006(4) 0.001(4) 0.001(4)
C4_2 0.073(5) 0.054(5) 0.064(5) -0.002(4) 0.018(5) 0.013(4)
C5_2 0.064(5) 0.063(5) 0.061(6) -0.004(5) 0.012(5) -0.006(4)
C6_2 0.057(5) 0.055(5) 0.070(5) -0.006(4) 0.003(4) 0.017(4)
C7_2 0.048(4) 0.064(5) 0.063(5) -0.006(4) 0.005(4) 0.003(4)
C8_2 0.065(6) 0.052(5) 0.070(6) 0.004(5) 0.001(5) 0.001(5)
C9_2 0.061(5) 0.059(5) 0.056(5) -0.004(4) 0.001(4) 0.000(4)
C10_2 0.046(5) 0.058(5) 0.071(5) -0.004(4) -0.007(4) 0.006(4)
C11_2 0.046(4) 0.073(5) 0.067(5) -0.001(4) -0.005(5) 0.004(4)
C12_2 0.056(5) 0.068(5) 0.058(5) -0.006(4) 0.003(4) -0.001(4)
C13_2 0.062(5) 0.072(6) 0.060(6) -0.009(5) -0.002(5) 0.012(5)
C14_2 0.054(5) 0.072(5) 0.055(5) -0.003(4) -0.001(4) 0.012(4)
C15_2 0.070(5) 0.061(5) 0.064(6) -0.001(4) 0.011(5) 0.012(4)
C16_2 0.060(5) 0.070(6) 0.058(6) -0.002(5) 0.001(5) 0.000(5)
C17_2 0.053(5) 0.072(5) 0.064(5) 0.004(5) -0.008(4) 0.002(4)
C18_2 0.057(5) 0.064(5) 0.062(5) -0.007(4) 0.003(4) 0.002(4)
C19_2 0.056(5) 0.057(5) 0.053(5) -0.004(5) -0.002(4) 0.000(4)
C20_2 0.071(5) 0.058(5) 0.066(6) -0.009(4) -0.016(5) 0.008(4)
C21_2 0.049(5) 0.047(5) 0.052(5) -0.001(4) 0.001(4) 0.018(4)
C22_2 0.075(6) 0.049(5) 0.062(5) -0.003(4) -0.010(5) -0.002(4)
C23_2 0.055(5) 0.071(5) 0.065(6) -0.004(5) -0.006(5) 0.009(4)
C24_2 0.051(5) 0.066(5) 0.072(5) -0.027(5) -0.008(4) -0.005(4)
N1_2 0.070(4) 0.053(4) 0.066(5) -0.011(4) 0.004(4) 0.004(4)
N2_2 0.060(4) 0.054(4) 0.063(5) 0.010(4) -0.010(4) 0.006(4)
N3_2 0.072(4) 0.059(5) 0.059(4) -0.003(4) 0.014(4) 0.006(4)
N4_2 0.072(5) 0.052(4) 0.061(5) -0.009(4) -0.003(4) 0.009(4)
N5_2 0.062(4) 0.056(4) 0.062(4) 0.003(4) 0.001(4) 0.014(4)
N6_2 0.051(4) 0.049(4) 0.057(5) -0.002(4) -0.007(4) 0.013(3)
N7_2 0.051(4) 0.058(4) 0.061(4) -0.008(4) -0.006(3) 0.005(3)
N8_2 0.041(4) 0.077(5) 0.075(5) 0.001(4) -0.009(4) 0.004(3)
N9_2 0.048(4) 0.069(4) 0.056(4) -0.006(4) -0.003(3) 0.009(3)
N10_2 0.049(4) 0.071(4) 0.055(4) -0.011(4) -0.008(3) -0.004(3)
N11_2 0.059(4) 0.066(4) 0.057(5) 0.002(4) 0.003(4) 0.011(4)
N12_2 0.060(4) 0.073(5) 0.060(5) -0.012(4) -0.009(4) -0.004(4)
N13_2 0.065(4) 0.054(4) 0.054(4) 0.000(3) 0.001(3) 0.011(3)
N14_2 0.067(4) 0.055(4) 0.057(4) -0.001(4) 0.001(3) 0.008(4)
N15_2 0.061(4) 0.049(4) 0.065(5) -0.017(4) -0.003(4) 0.000(3)
N16_2 0.047(4) 0.069(4) 0.058(4) -0.007(4) -0.008(3) 0.003(3)
O1_2 0.077(5) 0.066(4) 0.070(5) 0.011(4) -0.001(4) -0.008(3)
O2_2 0.090(5) 0.080(5) 0.067(5) -0.002(4) -0.001(4) 0.019(4)
O3_2 0.072(4) 0.060(4) 0.049(4) 0.001(3) -0.004(3) 0.008(3)
O4_2 0.056(4) 0.087(5) 0.058(4) -0.010(3) -0.001(3) 0.002(3)
O5_2 0.068(5) 0.126(6) 0.045(4) -0.004(4) -0.002(3) 0.009(4)
O6_2 0.079(5) 0.079(5) 0.054(4) -0.005(4) 0.000(4) 0.000(4)
O7_2 0.060(4) 0.058(4) 0.065(4) 0.000(3) -0.021(3) 0.002(3)
O8_2 0.066(4) 0.064(4) 0.062(4) 0.001(3) 0.004(3) 0.016(3)
I1_3 0.0883(14) 0.0574(12) 0.1083(18) 0.000 0.000 0.000
I2_3 0.126(3) 0.090(2) 0.088(3) -0.002(2) 0.002(2) 0.045(3)
I3_3 0.0582(10) 0.416(5) 0.0640(11) 0.000 0.000 0.0441(19)
I4_3 0.0500(7) 0.1697(15) 0.0583(8) 0.000 0.000 -0.0224(8)
I5_3 0.238(2) 0.0668(9) 0.0505(8) 0.000 0.000 -0.0644(11)
I6_3 0.0510(17) 0.130(3) 0.091(2) 0.000 0.000 0.0309(18)
I7_3 0.127(5) 0.055(4) 0.059(4) 0.029(3) -0.008(3) -0.029(3)
I8_3 0.071(5) 0.108(6) 0.034(4) 0.016(3) -0.027(3) -0.058(4)
C1_4 0.093(6) 0.071(5) 0.064(5) -0.002(5) 0.005(5) -0.015(5)
C2_4 0.072(5) 0.068(5) 0.064(5) -0.009(4) 0.011(5) -0.008(4)
C3_4 0.086(6) 0.072(6) 0.057(6) -0.004(5) -0.005(5) -0.015(5)
C4_4 0.086(6) 0.076(6) 0.050(5) -0.018(5) 0.003(5) -0.018(5)
C5_4 0.081(6) 0.077(6) 0.063(6) 0.002(5) 0.009(5) -0.002(5)
C6_4 0.081(6) 0.070(6) 0.055(6) 0.017(5) 0.012(5) -0.016(5)
C7_4 0.082(6) 0.071(5) 0.061(5) 0.004(5) 0.002(5) -0.016(5)
C8_4 0.084(6) 0.077(5) 0.054(5) 0.005(5) 0.003(5) -0.023(5)
C9_4 0.065(5) 0.068(5) 0.053(5) 0.003(4) 0.002(4) 0.010(4)
C10_4 0.068(5) 0.058(5) 0.051(5) 0.010(4) -0.005(4) 0.009(4)
C11_4 0.083(6) 0.070(6) 0.058(6) 0.007(5) -0.004(5) -0.005(5)
C12_4 0.095(6) 0.071(6) 0.058(6) -0.002(5) -0.011(5) 0.003(5)
C13_4 0.076(6) 0.074(6) 0.060(6) 0.002(5) -0.007(5) -0.026(5)
C14_4 0.069(6) 0.062(6) 0.062(6) 0.008(5) 0.016(5) 0.002(5)
C15_4 0.065(5) 0.053(5) 0.056(6) -0.007(4) 0.002(5) 0.007(4)
C16_4 0.078(6) 0.091(6) 0.057(5) 0.015(5) 0.007(5) -0.017(5)
C17_4 0.085(6) 0.065(5) 0.050(5) 0.007(4) 0.006(5) -0.016(5)
C18_4 0.076(5) 0.068(5) 0.045(5) 0.007(4) 0.000(4) -0.018(4)
C19_4 0.072(5) 0.069(5) 0.046(5) -0.005(4) 0.002(4) -0.011(4)
C20_4 0.077(6) 0.066(6) 0.073(6) -0.001(5) -0.017(5) -0.003(5)
C21_4 0.067(5) 0.066(5) 0.055(5) 0.002(4) -0.005(5) -0.003(5)
C22_4 0.073(6) 0.074(6) 0.050(5) 0.001(4) 0.004(4) -0.011(5)
C23_4 0.073(6) 0.065(5) 0.059(5) 0.005(5) 0.013(5) -0.001(5)
C24_4 0.069(6) 0.081(6) 0.059(6) -0.010(5) 0.005(5) 0.004(5)
N1_4 0.086(5) 0.076(5) 0.061(5) -0.004(4) 0.001(4) -0.003(4)
N2_4 0.080(5) 0.074(5) 0.047(4) -0.008(4) -0.003(4) -0.005(4)
N3_4 0.085(5) 0.065(5) 0.063(5) -0.004(4) 0.005(4) -0.013(4)
N4_4 0.084(5) 0.075(5) 0.056(5) -0.010(4) 0.007(4) -0.008(4)
N5_4 0.083(5) 0.073(5) 0.064(5) 0.009(4) 0.000(4) -0.008(4)
N6_4 0.080(5) 0.070(5) 0.054(4) 0.017(4) 0.010(4) -0.012(4)
N8_4 0.075(5) 0.066(5) 0.056(5) -0.005(4) -0.001(4) -0.009(4)
N9_4 0.075(5) 0.068(5) 0.051(4) 0.001(4) 0.008(4) 0.001(4)
N10_4 0.089(5) 0.066(5) 0.057(4) -0.006(4) 0.001(4) -0.019(4)
N11_4 0.074(5) 0.065(4) 0.055(4) 0.005(4) -0.006(4) -0.014(4)
N12_4 0.059(4) 0.059(4) 0.054(4) 0.004(3) 0.004(4) 0.000(3)
N13_4 0.066(4) 0.073(5) 0.051(4) 0.004(4) 0.003(4) -0.004(4)
N14_4 0.071(5) 0.083(5) 0.048(4) -0.011(4) -0.003(4) -0.021(4)
N15_4 0.065(4) 0.060(4) 0.049(4) 0.007(3) 0.010(4) -0.010(3)
N17_4 0.075(5) 0.074(5) 0.052(4) -0.001(4) -0.002(4) -0.005(4)
N18_4 0.076(5) 0.066(4) 0.051(4) 0.008(4) 0.001(4) -0.016(4)
O1_4 0.099(5) 0.094(5) 0.050(4) 0.006(4) 0.012(4) -0.024(4)
O2_4 0.082(5) 0.069(5) 0.076(5) -0.008(4) 0.007(4) -0.018(3)
O3_4 0.100(5) 0.105(6) 0.059(5) -0.009(4) 0.000(4) -0.012(5)
O4_4 0.084(5) 0.079(5) 0.052(5) 0.011(4) -0.011(4) -0.019(4)
O5_4 0.116(6) 0.094(5) 0.055(5) 0.002(4) -0.024(4) -0.022(5)
O6_4 0.081(4) 0.055(4) 0.049(4) -0.002(3) -0.002(3) 0.009(3)
O7_4 0.094(5) 0.086(5) 0.055(4) -0.005(4) -0.006(4) -0.004(4)
O8_4 0.086(4) 0.070(4) 0.039(3) -0.002(3) 0.020(3) -0.003(3)
loop_
_atom_type_symbol
_atom_type_description
_atom_type_scat_dispersion_real
_atom_type_scat_dispersion_imag
_atom_type_scat_source
C C 0.0033 0.0016 'International Tables Vol C Tables 4.2.6.8 and 6.1.1.4'
H H 0.0000 0.0000 'International Tables Vol C Tables 4.2.6.8 and 6.1.1.4'
N N 0.0061 0.0033 'International Tables Vol C Tables 4.2.6.8 and 6.1.1.4'
O O 0.0106 0.0060 'International Tables Vol C Tables 4.2.6.8 and 6.1.1.4'
I I -0.4742 1.8119 'International Tables Vol C Tables 4.2.6.8 and 6.1.1.4'
loop_
_geom_angle_atom_site_label_1
_geom_angle_atom_site_label_2
_geom_angle_atom_site_label_3
_geom_angle
_geom_angle_site_symmetry_1
_geom_angle_site_symmetry_3
_geom_angle_publ_flag
C1 C1 C2 121.6(5) 2_675 . ?
C1 C1 C19 119.4(5) 2_675 . ?
C2 C1 C19 118.8(9) . . ?
C3 C2 C1 115.3(8) . . ?
C3 C2 C18 122.5(9) . . ?
C1 C2 C18 122.3(9) . . ?
C2 C3 C3 123.0(5) . 2_675 ?
C2 C3 C4 121.1(7) . . ?
C3 C3 C4 115.9(4) 2_675 . ?
C5 C4 C9 120.0 . . ?
C5 C4 C3 119.1(5) . . ?
C9 C4 C3 119.2(5) . . ?
C4 C5 C6 120.0 . . ?
C7 C6 C5 120.0 . . ?
C6 C7 C8 120.0 . . ?
C6 C7 C10 116.6(4) . . ?
C8 C7 C10 123.0(4) . . ?
C9 C8 C7 120.0 . . ?
C8 C9 C4 120.0 . . ?
C11 C10 C7 117.2(9) . . ?
C10 C11 C12 117.0(9) . . ?
C13 C12 C16 120.0 . . ?
C13 C12 C11 123.0(5) . . ?
C16 C12 C11 117.0(5) . . ?
C12 C13 C14 120.0 . . ?
N1 C14 C13 120.0 . . ?
C14 N1 C15 120.0 . . ?
C14 N1 C17 118.4(5) . . ?
C15 N1 C17 121.6(5) . . ?
N1 C15 C16 120.0 . . ?
C15 C16 C12 120.0 . . ?
C20 C19 C24 120.0 . . ?
C20 C19 C1 117.0(6) . . ?
C24 C19 C1 121.3(6) . . ?
C21 C20 C19 120.0 . . ?
C20 C21 C22 120.0 . . ?
C23 C22 C21 120.0 . . ?
C23 C22 C25 120.6(8) . . ?
C21 C22 C25 118.2(7) . . ?
C24 C23 C22 120.0 . . ?
C23 C24 C19 120.0 . . ?
C26 C25 C22 127.1(16) . . ?
C25 C26 C27 135.9(19) . . ?
C28 C27 C31 120.0 . . ?
C28 C27 C26 111.7(13) . . ?
C31 C27 C26 128.2(13) . . ?
C27 C28 C29 120.0 . . ?
N2 C29 C28 120.0 . . ?
C29 N2 C30 120.0 . . ?
C29 N2 C32 126.1(11) . . ?
C30 N2 C32 110.0(10) . . ?
N2 C30 C31 120.0 . . ?
C30 C31 C27 120.0 . . ?
N1_2 C1_2 N5_2 117.0(8) . . ?
N1_2 C1_2 C2_2 106.9(8) . . ?
N5_2 C1_2 C2_2 101.8(7) . . ?
N6_2 C2_2 N2_2 116.7(8) 2_675 . ?
N6_2 C2_2 C1_2 106.5(7) 2_675 . ?
N2_2 C2_2 C1_2 98.4(7) . . ?
N2_2 C3_2 O1_2 128.6(9) . . ?
N2_2 C3_2 N1_2 111.2(9) . . ?
O1_2 C3_2 N1_2 120.1(9) . . ?
N3_2 C4_2 N1_2 116.6(8) . . ?
N4_2 C5_2 O2_2 123.4(9) . . ?
N4_2 C5_2 N3_2 113.0(9) . . ?
O2_2 C5_2 N3_2 123.6(9) . . ?
N4_2 C6_2 N13_2 118.7(8) . . ?
N4_2 C6_2 C7_2 103.0(7) . . ?
N13_2 C6_2 C7_2 102.3(7) . . ?
N3_2 C7_2 N14_2 115.0(7) . . ?
N3_2 C7_2 C6_2 107.5(7) . . ?
N14_2 C7_2 C6_2 102.8(7) . . ?
O3_2 C8_2 N5_2 126.1(9) . . ?
O3_2 C8_2 N6_2 124.3(9) . 2_675 ?
N5_2 C8_2 N6_2 109.6(9) . 2_675 ?
N6_2 C9_2 N7_2 112.0(7) . . ?
N8_2 C10_2 N16_2 110.8(8) . . ?
N10_2 C11_2 N8_2 112.7(8) . . ?
N10_2 C11_2 C12_2 102.2(7) . . ?
N8_2 C11_2 C12_2 101.8(7) . . ?
N9_2 C12_2 N7_2 113.7(7) . . ?
N9_2 C12_2 C11_2 106.0(7) . . ?
N7_2 C12_2 C11_2 103.9(7) . . ?
N9_2 C13_2 N2_2 108.9(7) . 2_675 ?
O5_2 C14_2 N9_2 123.0(8) . . ?
O5_2 C14_2 N10_2 131.1(9) . . ?
N9_2 C14_2 N10_2 105.8(8) . . ?
N11_2 C15_2 N4_2 112.4(8) . . ?
O6_2 C16_2 N11_2 124.3(10) . . ?
O6_2 C16_2 N12_2 126.6(10) . . ?
N11_2 C16_2 N12_2 108.5(9) . . ?
N16_2 C17_2 N12_2 115.9(8) . . ?
N16_2 C17_2 C18_2 106.8(8) . . ?
N12_2 C17_2 C18_2 103.5(8) . . ?
N11_2 C18_2 N15_2 115.9(8) . . ?
N11_2 C18_2 C17_2 104.1(8) . . ?
N15_2 C18_2 C17_2 100.9(8) . . ?
O7_2 C19_2 N14_2 125.8(9) . . ?
O7_2 C19_2 N13_2 124.6(9) . . ?
N14_2 C19_2 N13_2 109.6(9) . . ?
N15_2 C20_2 N13_2 113.0(8) . . ?
O8_2 C21_2 N15_2 128.6(9) . . ?
O8_2 C21_2 N16_2 126.5(9) . . ?
N15_2 C21_2 N16_2 104.9(8) . . ?
N5_2 C22_2 N14_2 113.1(8) . . ?
O4_2 C23_2 N7_2 126.2(9) . . ?
O4_2 C23_2 N8_2 126.9(9) . . ?
N7_2 C23_2 N8_2 106.8(8) . . ?
N10_2 C24_2 N12_2 112.9(7) . . ?
C4_2 N1_2 C3_2 128.2(8) . . ?
C4_2 N1_2 C1_2 123.9(8) . . ?
C3_2 N1_2 C1_2 107.4(7) . . ?
C3_2 N2_2 C2_2 115.9(8) . . ?
C3_2 N2_2 C13_2 123.8(8) . 2_675 ?
C2_2 N2_2 C13_2 115.4(7) . 2_675 ?
C4_2 N3_2 C5_2 125.3(8) . . ?
C4_2 N3_2 C7_2 126.6(8) . . ?
C5_2 N3_2 C7_2 103.7(8) . . ?
C5_2 N4_2 C6_2 112.7(8) . . ?
C5_2 N4_2 C15_2 123.8(8) . . ?
C6_2 N4_2 C15_2 121.5(8) . . ?
C8_2 N5_2 C22_2 123.9(8) . . ?
C8_2 N5_2 C1_2 110.8(7) . . ?
C22_2 N5_2 C1_2 119.0(7) . . ?
C2_2 N6_2 C8_2 110.7(7) 2_675 2_675 ?
C2_2 N6_2 C9_2 125.3(7) 2_675 . ?
C8_2 N6_2 C9_2 119.7(8) 2_675 . ?
C23_2 N7_2 C12_2 114.1(7) . . ?
C23_2 N7_2 C9_2 120.4(8) . . ?
C12_2 N7_2 C9_2 122.3(7) . . ?
C23_2 N8_2 C10_2 121.9(8) . . ?
C23_2 N8_2 C11_2 112.9(7) . . ?
C10_2 N8_2 C11_2 122.5(7) . . ?
C14_2 N9_2 C12_2 110.2(7) . . ?
C14_2 N9_2 C13_2 120.1(8) . . ?
C12_2 N9_2 C13_2 123.5(8) . . ?
C11_2 N10_2 C14_2 115.4(7) . . ?
C11_2 N10_2 C24_2 126.0(8) . . ?
C14_2 N10_2 C24_2 116.3(8) . . ?
C16_2 N11_2 C18_2 110.8(8) . . ?
C16_2 N11_2 C15_2 124.3(9) . . ?
C18_2 N11_2 C15_2 122.2(8) . . ?
C16_2 N12_2 C17_2 112.4(8) . . ?
C16_2 N12_2 C24_2 118.0(8) . . ?
C17_2 N12_2 C24_2 128.2(8) . . ?
C19_2 N13_2 C20_2 124.1(8) . . ?
C19_2 N13_2 C6_2 112.1(7) . . ?
C20_2 N13_2 C6_2 122.2(7) . . ?
C19_2 N14_2 C22_2 126.2(8) . . ?
C19_2 N14_2 C7_2 112.6(8) . . ?
C22_2 N14_2 C7_2 117.9(7) . . ?
C21_2 N15_2 C20_2 118.6(9) . . ?
C21_2 N15_2 C18_2 114.5(7) . . ?
C20_2 N15_2 C18_2 124.4(8) . . ?
C17_2 N16_2 C10_2 127.4(8) . . ?
C17_2 N16_2 C21_2 112.4(7) . . ?
C10_2 N16_2 C21_2 116.9(8) . . ?
N3_4 C1_4 N1_4 111.7(9) . . ?
N3_4 C1_4 C2_4 107.9(8) . . ?
N1_4 C1_4 C2_4 102.7(8) . . ?
N2_4 C2_4 N4_4 115.4(8) . . ?
N2_4 C2_4 C1_4 106.1(9) . . ?
N4_4 C2_4 C1_4 103.2(8) . . ?
O1_4 C3_4 N2_4 127.2(10) . . ?
O1_4 C3_4 N1_4 125.3(10) . . ?
N2_4 C3_4 N1_4 107.4(9) . . ?
O2_4 C4_4 N4_4 124.4(10) . . ?
O2_4 C4_4 N3_4 126.2(9) . . ?
N4_4 C4_4 N3_4 109.3(9) . . ?
N5_4 C5_4 N1_4 109.3(8) . . ?
O3_4 C6_4 N5_4 124.4(10) . . ?
O3_4 C6_4 N6_4 127.1(10) . . ?
N5_4 C6_4 N6_4 108.4(11) . . ?
N6_4 C7_4 N11_4 118.3(9) . . ?
N6_4 C7_4 C8_4 104.6(8) . . ?
N11_4 C7_4 C8_4 103.7(8) . . ?
N10_4 C8_4 N5_4 117.5(8) . . ?
N10_4 C8_4 C7_4 101.8(8) . . ?
N5_4 C8_4 C7_4 99.8(8) . . ?
N12_4 C9_4 N8_4 111.8(8) . . ?
N12_4 C9_4 C10_4 102.5(7) . . ?
N8_4 C9_4 C10_4 102.1(7) . . ?
N13_4 C10_4 N9_4 117.0(8) . . ?
N13_4 C10_4 C9_4 101.3(7) . . ?
N9_4 C10_4 C9_4 104.2(7) . . ?
O4_4 C11_4 N8_4 126.6(10) . . ?
O4_4 C11_4 N9_4 125.2(10) . . ?
N8_4 C11_4 N9_4 108.3(10) . . ?
N3_4 C12_4 N10_4 113.0(8) . . ?
O5_4 C13_4 N11_4 127.3(11) . . ?
O5_4 C13_4 N10_4 125.5(11) . . ?
N11_4 C13_4 N10_4 107.3(10) . . ?
N4_4 C14_4 N12_4 110.6(8) 2_675 . ?
O6_4 C15_4 N13_4 125.6(9) . . ?
O6_4 C15_4 N12_4 124.7(9) . . ?
N13_4 C15_4 N12_4 109.5(9) . . ?
N6_4 C16_4 N14_4 116.2(8) . . ?
O7_4 C17_4 N14_4 124.8(10) . . ?
O7_4 C17_4 N15_4 123.5(10) . . ?
N14_4 C17_4 N15_4 111.4(9) . . ?
N15_4 C18_4 N18_4 110.0(7) . . ?
N15_4 C18_4 C19_4 106.9(8) . . ?
N18_4 C18_4 C19_4 96.9(8) . . ?
N17_4 C19_4 N14_4 116.9(8) . . ?
N17_4 C19_4 C18_4 109.5(8) . . ?
N14_4 C19_4 C18_4 99.2(8) . . ?
N17_4 C20_4 N11_4 114.4(9) . . ?
O8_4 C21_4 N17_4 128.3(10) . . ?
O8_4 C21_4 N18_4 122.6(10) . . ?
N17_4 C21_4 N18_4 108.4(8) . . ?
N18_4 C22_4 N13_4 113.7(8) . . ?
N9_4 C23_4 N15_4 110.2(8) . . ?
N2_4 C24_4 N8_4 112.9(8) . 2_675 ?
C3_4 N1_4 C1_4 110.6(8) . . ?
C3_4 N1_4 C5_4 117.8(8) . . ?
C1_4 N1_4 C5_4 125.2(8) . . ?
C3_4 N2_4 C24_4 122.8(9) . . ?
C3_4 N2_4 C2_4 112.6(9) . . ?
C24_4 N2_4 C2_4 122.5(9) . . ?
C12_4 N3_4 C4_4 120.9(8) . . ?
C12_4 N3_4 C1_4 125.7(9) . . ?
C4_4 N3_4 C1_4 108.8(8) . . ?
C4_4 N4_4 C14_4 122.7(9) . 2_675 ?
C4_4 N4_4 C2_4 110.3(8) . . ?
C14_4 N4_4 C2_4 124.9(9) 2_675 . ?
C6_4 N5_4 C5_4 123.2(9) . . ?
C6_4 N5_4 C8_4 113.1(9) . . ?
C5_4 N5_4 C8_4 118.4(9) . . ?
C6_4 N6_4 C16_4 120.6(9) . . ?
C6_4 N6_4 C7_4 113.9(9) . . ?
C16_4 N6_4 C7_4 123.4(10) . . ?
C11_4 N8_4 C24_4 123.8(9) . 2_675 ?
C11_4 N8_4 C9_4 113.0(9) . . ?
C24_4 N8_4 C9_4 122.5(8) 2_675 . ?
C23_4 N9_4 C11_4 123.1(9) . . ?
C23_4 N9_4 C10_4 121.8(8) . . ?
C11_4 N9_4 C10_4 112.2(9) . . ?
C8_4 N10_4 C13_4 113.5(9) . . ?
C8_4 N10_4 C12_4 121.4(9) . . ?
C13_4 N10_4 C12_4 121.1(9) . . ?
C13_4 N11_4 C7_4 113.3(9) . . ?
C13_4 N11_4 C20_4 119.7(9) . . ?
C7_4 N11_4 C20_4 123.8(8) . . ?
C15_4 N12_4 C9_4 110.1(8) . . ?
C15_4 N12_4 C14_4 122.6(8) . . ?
C9_4 N12_4 C14_4 122.4(8) . . ?
C15_4 N13_4 C10_4 115.3(9) . . ?
C15_4 N13_4 C22_4 123.5(8) . . ?
C10_4 N13_4 C22_4 119.7(8) . . ?
C17_4 N14_4 C16_4 125.4(8) . . ?
C17_4 N14_4 C19_4 111.7(9) . . ?
C16_4 N14_4 C19_4 118.1(8) . . ?
C17_4 N15_4 C18_4 108.1(8) . . ?
C17_4 N15_4 C23_4 124.5(8) . . ?
C18_4 N15_4 C23_4 120.5(8) . . ?
C21_4 N17_4 C20_4 123.7(9) . . ?
C21_4 N17_4 C19_4 111.3(8) . . ?
C20_4 N17_4 C19_4 123.0(9) . . ?
C21_4 N18_4 C22_4 123.5(8) . . ?
C21_4 N18_4 C18_4 113.7(8) . . ?
C22_4 N18_4 C18_4 120.9(8) . . ?
loop_
_geom_bond_atom_site_label_1
_geom_bond_atom_site_label_2
_geom_bond_distance
_geom_bond_site_symmetry_2
_geom_bond_publ_flag
C1 C1 1.41(2) 2_675 ?
C1 C2 1.423(14) . ?
C1 C19 1.542(12) . ?
C2 C3 1.378(10) . ?
C2 C18 1.557(11) . ?
C3 C3 1.397(12) 2_675 ?
C3 C4 1.547(10) . ?
C4 C5 1.3900 . ?
C4 C9 1.3900 . ?
C5 C6 1.3900 . ?
C6 C7 1.3900 . ?
C7 C8 1.3900 . ?
C7 C10 1.507(8) . ?
C8 C9 1.3900 . ?
C10 C11 1.140(10) . ?
C11 C12 1.496(9) . ?
C12 C13 1.3900 . ?
C12 C16 1.3900 . ?
C13 C14 1.3900 . ?
C14 N1 1.3900 . ?
N1 C15 1.3900 . ?
N1 C17 1.441(19) . ?
C15 C16 1.3900 . ?
C19 C20 1.3900 . ?
C19 C24 1.3900 . ?
C20 C21 1.3900 . ?
C21 C22 1.3900 . ?
C22 C23 1.3900 . ?
C22 C25 1.516(11) . ?
C23 C24 1.3900 . ?
C25 C26 1.21(2) . ?
C26 C27 1.546(18) . ?
C27 C28 1.3900 . ?
C27 C31 1.3900 . ?
C28 C29 1.3900 . ?
C29 N2 1.3900 . ?
N2 C30 1.3900 . ?
N2 C32 1.473(11) . ?
C30 C31 1.3900 . ?
C1_2 N1_2 1.455(12) . ?
C1_2 N5_2 1.501(11) . ?
C1_2 C2_2 1.534(9) . ?
C2_2 N6_2 1.393(12) 2_675 ?
C2_2 N2_2 1.507(14) . ?
C3_2 N2_2 1.231(12) . ?
C3_2 O1_2 1.263(11) . ?
C3_2 N1_2 1.409(12) . ?
C4_2 N3_2 1.365(12) . ?
C4_2 N1_2 1.384(11) . ?
C5_2 N4_2 1.314(12) . ?
C5_2 O2_2 1.326(11) . ?
C5_2 N3_2 1.396(12) . ?
C6_2 N4_2 1.377(11) . ?
C6_2 N13_2 1.509(12) . ?
C6_2 C7_2 1.512(10) . ?
C7_2 N3_2 1.452(11) . ?
C7_2 N14_2 1.494(11) . ?
C8_2 O3_2 1.224(11) . ?
C8_2 N5_2 1.331(12) . ?
C8_2 N6_2 1.407(12) 2_675 ?
C9_2 N6_2 1.424(11) . ?
C9_2 N7_2 1.530(11) . ?
C10_2 N8_2 1.441(11) . ?
C10_2 N16_2 1.445(12) . ?
C11_2 N10_2 1.385(11) . ?
C11_2 N8_2 1.503(12) . ?
C11_2 C12_2 1.553(10) . ?
C12_2 N9_2 1.445(11) . ?
C12_2 N7_2 1.460(11) . ?
C13_2 N9_2 1.446(11) . ?
C13_2 N2_2 1.580(12) 2_675 ?
C14_2 O5_2 1.187(11) . ?
C14_2 N9_2 1.401(12) . ?
C14_2 N10_2 1.413(12) . ?
C15_2 N11_2 1.446(13) . ?
C15_2 N4_2 1.506(12) . ?
C16_2 O6_2 1.186(11) . ?
C16_2 N11_2 1.367(13) . ?
C16_2 N12_2 1.372(13) . ?
C17_2 N16_2 1.377(12) . ?
C17_2 N12_2 1.399(11) . ?
C17_2 C18_2 1.547(10) . ?
C18_2 N11_2 1.422(14) . ?
C18_2 N15_2 1.476(14) . ?
C19_2 O7_2 1.197(10) . ?
C19_2 N14_2 1.323(12) . ?
C19_2 N13_2 1.329(11) . ?
C20_2 N15_2 1.435(12) . ?
C20_2 N13_2 1.456(12) . ?
C21_2 O8_2 1.207(10) . ?
C21_2 N15_2 1.357(13) . ?
C21_2 N16_2 1.451(12) . ?
C22_2 N5_2 1.415(12) . ?
C22_2 N14_2 1.493(12) . ?
C23_2 O4_2 1.203(11) . ?
C23_2 N7_2 1.373(12) . ?
C23_2 N8_2 1.383(12) . ?
C24_2 N10_2 1.435(11) . ?
C24_2 N12_2 1.455(11) . ?
I2_3 I2_3 1.463(9) 2_775 ?
I6_3 I6_3 2.627(6) 3_556 ?
C1_4 N3_4 1.441(13) . ?
C1_4 N1_4 1.479(13) . ?
C1_4 C2_4 1.501(15) . ?
C2_4 N2_4 1.421(12) . ?
C2_4 N4_4 1.475(12) . ?
C3_4 O1_4 1.257(12) . ?
C3_4 N2_4 1.359(13) . ?
C3_4 N1_4 1.400(13) . ?
C4_4 O2_4 1.192(11) . ?
C4_4 N4_4 1.398(13) . ?
C4_4 N3_4 1.400(13) . ?
C5_4 N5_4 1.452(13) . ?
C5_4 N1_4 1.507(13) . ?
C6_4 O3_4 1.218(14) . ?
C6_4 N5_4 1.351(13) . ?
C6_4 N6_4 1.368(14) . ?
C7_4 N6_4 1.387(13) . ?
C7_4 N11_4 1.444(13) . ?
C7_4 C8_4 1.598(17) . ?
C8_4 N10_4 1.422(12) . ?
C8_4 N5_4 1.481(13) . ?
C9_4 N12_4 1.456(12) . ?
C9_4 N8_4 1.494(12) . ?
C9_4 C10_4 1.576(15) . ?
C10_4 N13_4 1.417(12) . ?
C10_4 N9_4 1.457(12) . ?
C11_4 O4_4 1.189(14) . ?
C11_4 N8_4 1.367(14) . ?
C11_4 N9_4 1.407(14) . ?
C12_4 N3_4 1.392(13) . ?
C12_4 N10_4 1.463(13) . ?
C13_4 O5_4 1.149(13) . ?
C13_4 N11_4 1.349(13) . ?
C13_4 N10_4 1.423(14) . ?
C14_4 N4_4 1.417(13) 2_675 ?
C14_4 N12_4 1.480(12) . ?
C15_4 O6_4 1.275(12) . ?
C15_4 N13_4 1.301(12) . ?
C15_4 N12_4 1.362(12) . ?
C16_4 N6_4 1.376(13) . ?
C16_4 N14_4 1.503(13) . ?
C17_4 O7_4 1.307(11) . ?
C17_4 N14_4 1.321(13) . ?
C17_4 N15_4 1.354(12) . ?
C18_4 N15_4 1.442(12) . ?
C18_4 N18_4 1.536(12) . ?
C18_4 C19_4 1.539(13) . ?
C19_4 N17_4 1.434(12) . ?
C19_4 N14_4 1.509(12) . ?
C20_4 N17_4 1.372(13) . ?
C20_4 N11_4 1.449(13) . ?
C21_4 O8_4 1.187(10) . ?
C21_4 N17_4 1.346(13) . ?
C21_4 N18_4 1.380(13) . ?
C22_4 N18_4 1.482(13) . ?
C22_4 N13_4 1.482(13) . ?
C23_4 N9_4 1.373(13) . ?
C23_4 N15_4 1.453(13) . ?
C24_4 N2_4 1.412(12) . ?
C24_4 N8_4 1.458(13) 2_675 ?
