#------------------------------------------------------------------------------
#$Date: 2024-02-05 14:09:55 +0200 (Mon, 05 Feb 2024) $
#$Revision: 289697 $
#$URL: file:///home/coder/svn-repositories/cod/cif/1/57/04/1570451.cif $
#------------------------------------------------------------------------------
#
# This file is available in the Crystallography Open Database (COD),
# http://www.crystallography.net/
#
# All data on this site have been placed in the public domain by the
# contributors.
#
data_1570451
loop_
_publ_author_name
'Sacharczuk, Natalia'
'Olejniczak, Anna'
'Bujak, Maciej'
'Dziubek, Kamil Filip'
'Katrusiak, Andrzej'
'Podsiad&#x142;o, Marcin'
_publ_section_title
;
 Conformation-aggregation interplay in the simplest aliphatic ethers
 probed under high pressure.
;
_journal_issue                   'Pt 1'
_journal_name_full               IUCrJ
_journal_page_first              57
_journal_page_last               61
_journal_paper_doi               10.1107/S2052252523009995
_journal_volume                  11
_journal_year                    2024
_chemical_formula_moiety         'C6 H14 O'
_chemical_formula_sum            'C6 H14 O'
_chemical_formula_weight         102.17
_chemical_name_systematic        'dipropyl ether'
_space_group_crystal_system      monoclinic
_space_group_IT_number           14
_space_group_name_Hall           '-P 2ybc'
_space_group_name_H-M_alt        'P 1 21/c 1'
_atom_sites_solution_hydrogens   geom
_atom_sites_solution_primary     dual
_audit_creation_date             2022-12-21
_audit_creation_method
;
Olex2 1.5
(compiled 2022.04.07 svn.rca3783a0 for OlexSys, GUI svn.r6498)
;
_cell_angle_alpha                90
_cell_angle_beta                 99.54(4)
_cell_angle_gamma                90
_cell_formula_units_Z            4
_cell_length_a                   9.198(9)
_cell_length_b                   4.0064(3)
_cell_length_c                   14.9459(15)
_cell_measurement_reflns_used    1140
_cell_measurement_temperature    295(2)
_cell_measurement_theta_max      24.9060
_cell_measurement_theta_min      5.2440
_cell_volume                     543.2(5)
_computing_cell_refinement       'CrysAlisPro 1.171.42.49 (Rigaku OD, 2022)'
_computing_data_collection       'CrysAlisPro 1.171.42.49 (Rigaku OD, 2022)'
_computing_data_reduction        'CrysAlisPro 1.171.42.49 (Rigaku OD, 2022)'
_computing_molecular_graphics    'Olex2 1.5 (Dolomanov et al., 2009)'
_computing_publication_material  'Olex2 1.5 (Dolomanov et al., 2009)'
_computing_structure_refinement  'SHELXL 2018/3 (Sheldrick, 2015)'
_computing_structure_solution    'SHELXT 2018/2 (Sheldrick, 2018)'
_diffrn_ambient_environment      'diamond-anvil cell'
_diffrn_ambient_pressure         3850000
_diffrn_ambient_temperature      295(2)
_diffrn_measured_fraction_theta_full 0.341
_diffrn_measured_fraction_theta_max 0.311
_diffrn_measurement_device_type  'KUMA KM4-CCD, Eos'
_diffrn_measurement_method       '\f- and \w-scans'
_diffrn_radiation_type           MoK\a
_diffrn_radiation_wavelength     0.71073
_diffrn_reflns_av_R_equivalents  0.0297
_diffrn_reflns_av_unetI/netI     0.0181
_diffrn_reflns_Laue_measured_fraction_full 0.341
_diffrn_reflns_Laue_measured_fraction_max 0.311
_diffrn_reflns_limit_h_max       4
_diffrn_reflns_limit_h_min       -4
_diffrn_reflns_limit_k_max       5
_diffrn_reflns_limit_k_min       -5
_diffrn_reflns_limit_l_max       18
_diffrn_reflns_limit_l_min       -18
_diffrn_reflns_number            2785
_diffrn_reflns_point_group_measured_fraction_full 0.341
_diffrn_reflns_point_group_measured_fraction_max 0.311
_diffrn_reflns_theta_full        25.242
_diffrn_reflns_theta_max         26.457
_diffrn_reflns_theta_min         5.274
_exptl_absorpt_coefficient_mu    0.081
_exptl_absorpt_correction_T_max  1.00000
_exptl_absorpt_correction_T_min  0.65044
_exptl_absorpt_correction_type   multi-scan
_exptl_absorpt_process_details
;  
CrysAlisPro 1.171.42.49 (Rigaku Oxford Diffraction, 2022)
Empirical absorption correction using spherical harmonics,
implemented in SCALE3 ABSPACK scaling algorithm.
;
_exptl_crystal_colour            colourless
_exptl_crystal_density_diffrn    1.249
_exptl_crystal_description       disc
_exptl_crystal_F_000             232
_exptl_crystal_size_max          0.38
_exptl_crystal_size_mid          0.36
_exptl_crystal_size_min          0.22
_refine_diff_density_max         0.055
_refine_diff_density_min         -0.063
_refine_diff_density_rms         0.018
_refine_ls_extinction_method     none
_refine_ls_goodness_of_fit_ref   1.111
_refine_ls_hydrogen_treatment    constr
_refine_ls_matrix_type           full
_refine_ls_number_parameters     66
_refine_ls_number_reflns         347
_refine_ls_number_restraints     0
_refine_ls_restrained_S_all      1.111
_refine_ls_R_factor_all          0.0424
_refine_ls_R_factor_gt           0.0308
_refine_ls_shift/su_max          0.000
_refine_ls_shift/su_mean         0.000
_refine_ls_structure_factor_coef Fsqd
_refine_ls_weighting_details
'w=1/[\s^2^(Fo^2^)+(0.0571P)^2^+0.0170P] where P=(Fo^2^+2Fc^2^)/3'
_refine_ls_weighting_scheme      calc
_refine_ls_wR_factor_gt          0.0810
_refine_ls_wR_factor_ref         0.0900
_reflns_Friedel_coverage         0.000
_reflns_number_gt                281
_reflns_number_total             347
_reflns_threshold_expression     'I > 2\s(I)'
_cod_data_source_file            lq5055.cif
_cod_data_source_block           dipropyl_ether_phase_alpha_3_85GPa
_cod_depositor_comments
'Adding full bibliography for 1570433--1570452.cif.'
_cod_original_cell_volume        543.1(5)
_cod_database_code               1570451
_shelx_shelxl_version_number     2018/3
_shelx_space_group_comment
;
The symmetry employed for this shelxl refinement is uniquely defined
by the following loop, which should always be used as a source of
symmetry information in preference to the above space-group names.
They are only intended as comments.
;
_exptl_absorpt_special_details
; 
Data were collected at room temperature (295(2) K) and pressure of 3.85(2) GPa
(3850000 kPa).
;
_olex2_refinement_description
;
1. Fixed Uiso
 At 1.2 times of:
  All C(H,H) groups
 At 1.5 times of:
  All C(H,H,H) groups
2.a Secondary CH2 refined with riding coordinates:
 C1(H11,H12), C2(H22,H21), C4(H41,H42), C5(H51,H52)
2.b Idealised Me refined as rotating group:
 C3(H33,H31,H32), C6(H63,H61,H62)
;
_shelx_res_file
;
TITL 4edp_b.res in P2(1)/c
    4edp.res
    created by SHELXL-2018/3 at 14:14:22 on 21-Dec-2022
REM Old TITL 4edp_b.res in P2(1)/c
REM SHELXT solution in P2(1)/c: R1 0.333, Rweak 0.011, Alpha 0.138
REM <I/s> 1.042 for 31 systematic absences, Orientation as input
REM Formula found by SHELXT: C O2
CELL 0.71073 9.1978 4.0064 14.9459 90 99.542 90
ZERR 4 0.009 0.0003 0.0015 0 0.035 0
LATT 1
SYMM -X,0.5+Y,0.5-Z
SFAC C H O
UNIT 24 56 4

L.S. 50
PLAN  10
CONF
BOND
LIST 6
fmap 2
MORE -1
BOND $H
ACTA
REM <olex2.extras>
REM <HklSrc "%.\\4edp.hkl">
REM </olex2.extras>

WGHT    0.057100    0.017000
FVAR       1.86044
O1    3    0.459027    0.857272    0.131404    11.00000    0.02752    0.03429 =
         0.03163   -0.00500   -0.00544    0.00254
C1    1    0.371783    0.713681    0.053405    11.00000    0.06100    0.02594 =
         0.02484   -0.00157    0.00394   -0.00222
AFIX  23
H11   2    0.376898    0.472271    0.057771    11.00000   -1.20000
H12   2    0.410512    0.780373   -0.000437    11.00000   -1.20000
AFIX   0
C2    1    0.217188    0.821505    0.045309    11.00000    0.06103    0.02863 =
         0.03214   -0.00069    0.00896    0.00502
AFIX  23
H22   2    0.213852    1.062364    0.051246    11.00000   -1.20000
H21   2    0.174194    0.724233    0.094321    11.00000   -1.20000
AFIX   0
C3    1    0.126560    0.718868   -0.044950    11.00000    0.04397    0.03680 =
         0.03023    0.00034    0.00115    0.00079
AFIX 137
H33   2    0.030179    0.816785   -0.050866    11.00000   -1.50000
H31   2    0.117814    0.480141   -0.047387    11.00000   -1.50000
H32   2    0.174456    0.794864   -0.093598    11.00000   -1.50000
AFIX   0
C4    1    0.603862    0.723569    0.148482    11.00000    0.03958    0.02984 =
         0.02627    0.00366   -0.00082    0.00421
AFIX  23
H41   2    0.656253    0.787994    0.099948    11.00000   -1.20000
H42   2    0.598715    0.481810    0.149553    11.00000   -1.20000
AFIX   0
C5    1    0.686422    0.846697    0.237277    11.00000    0.06298    0.02985 =
         0.02849    0.00278    0.00500    0.00366
AFIX  23
H51   2    0.682788    1.088614    0.238299    11.00000   -1.20000
H52   2    0.638802    0.764234    0.286161    11.00000   -1.20000
AFIX   0
C6    1    0.842793    0.736704    0.252649    11.00000    0.04111    0.03670 =
         0.02872    0.00298   -0.00354   -0.00469
AFIX 137
H63   2    0.892849    0.828515    0.308717    11.00000   -1.50000
H61   2    0.889671    0.813054    0.203603    11.00000   -1.50000
H62   2    0.846929    0.497451    0.255561    11.00000   -1.50000
AFIX   0
HKLF 4




REM  4edp_b.res in P2(1)/c
REM wR2 = 0.0900, GooF = S = 1.111, Restrained GooF = 1.111 for all data
REM R1 = 0.0308 for 281 Fo > 4sig(Fo) and 0.0424 for all 347 data
REM 66 parameters refined using 0 restraints

END

WGHT      0.0571      0.0170

REM Highest difference peak  0.055,  deepest hole -0.063,  1-sigma level  0.018
Q1    1   0.6312  0.8605  0.0635  11.00000  0.05    0.05
Q2    1   0.2066  1.4023  0.0561  11.00000  0.05    0.05
Q3    1   0.3416  0.1897  0.0578  11.00000  0.05    0.05
Q4    1   0.7708  1.1651  0.2364  11.00000  0.05    0.05
Q5    1   0.3276  0.7054 -0.0790  11.00000  0.05    0.05
Q6    1   0.1421  0.9539 -0.0852  11.00000  0.05    0.05
Q7    1   0.5242  0.9910  0.2376  11.00000  0.05    0.05
Q8    1   0.6425  1.3477  0.2430  11.00000  0.05    0.05
Q9    1   0.6384  1.0451  0.1202  11.00000  0.05    0.05
Q10   1   0.3967  0.8846 -0.0199  11.00000  0.05    0.05
;
_shelx_res_checksum              98841
_shelx_hkl_file
;
   0   0   4 1242.80   17.88
   0   0  -4 1210.75   16.88
   0   0   4 1268.04   17.94
   0   0  -4 1223.10   16.58
   0   0   4 1228.29   17.65
   0   0   5    2.88    1.59
   0   0  -5    3.35    1.63
   0   0   5    2.77    1.24
   0   0  -5    3.40    1.52
   0   0  -5    4.04    1.77
   0   0   5    2.22    1.33
   0   0   5    3.44    1.45
   0   0  -6 2710.16   28.58
   0   0  -6 2630.34   29.89
   0   0   6 2661.24   27.32
   0   0   6 2635.91   32.80
   0   0   6 2683.66   32.31
   0   0  -6 2724.48   31.49
   0   0   6 2592.83   31.95
   0   0   6 2698.42   29.45
   0   0  -7   -8.29    3.77
   0   0  -7   -7.43    3.10
   0   0   7   -3.73    2.34
   0   0   7   -6.57    3.20
   0   0   7   -5.28    3.25
   0   0  -7   -5.49    3.13
   0   0   7   -8.50    3.34
   0   0  -8  508.03   15.91
   0   0  -8  523.62   15.13
   0   0  -8  535.05   15.86
   0   0   8  511.59   16.78
   0   0   8  534.28   17.06
   0   0   8  557.52   15.87
   0   0   8  530.59   17.66
   0   0  -9   -2.74    2.98
   0   0   9   -2.09    2.68
   0   0   9    0.72    2.61
   0   0  -9   -3.53    3.27
   0   0   9    0.34    3.17
   0   0  -9    1.33    2.90
   0   0   9   -0.38    2.45
   0   0 -10 6970.87   63.90
   0   0 -10 6974.25   67.07
   0   0 -10 6801.57   61.04
   0   0  10 6665.75   67.63
   0   0  10 6763.48   71.58
   0   0  10 6599.85   62.32
   0   0  10 6764.22   69.47
   0   0  11   -0.54    2.89
   0   0 -11    2.79    3.18
   0   0  11    0.22    3.91
   0   0 -11   -3.35    4.45
   0   0  11    5.22    3.92
   0   0  11    1.28    3.33
   0   0 -11   -9.72    4.63
   0   0  12  472.14   21.51
   0   0 -12  465.93   18.98
   0   0 -12  473.27   19.84
   0   0  12  403.06   18.71
   0   0  12  450.61   20.06
   0   0 -12  452.38   17.41
   0   0 -13   -2.35    5.34
   0   0  13    1.24    4.24
   0   0  13   -0.25    4.96
   0   0 -13    1.49    5.91
   0   0  13   -5.06    4.78
   0   0 -14   65.02    9.48
   0   0  14   66.81    8.79
   0   0  14   74.02   10.04
   0   0  14   73.56    9.54
   0   0 -14   72.11   10.01
   0   0  15  -14.04    5.73
   0   0  15   -3.94    5.48
   0   0 -15   -4.99    7.09
   0   0 -16  143.71   14.37
   0   0  16  146.10   14.28
   0   0  16  113.73   12.05
   0   0  17    0.62    5.04
   0   0  17    9.07    6.04
   0   0 -17   17.52    7.74
   0   0 -17    7.21    6.53
   0   1   0    3.11    1.26
   0   1   0    7.16    1.62
   0  -1   0    6.39    1.64
   0  -1   1  227.24    7.30
   0   1   1  236.36    7.74
   0  -1   1  239.58    7.57
   0  -1   1  253.76    7.53
   0   1  -1  239.73    7.73
   0   1  -1  237.88    7.54
   0   1  -1  247.67    7.70
   0   1   1  250.90    7.60
   0  -1  -1  249.87    7.31
   0  -1  -1  242.69    7.58
   0   1   2 6803.66   41.50
   0   1  -2 6804.43   43.08
   0  -1   2 6796.56   38.99
   0   1  -2 6857.00   40.02
   0  -1   2 6781.62   40.93
   0  -1  -2 6820.52   40.25
   0  -1   2 6797.03   40.24
   0  -1   2 6844.36   42.07
   0   1  -2 6796.19   39.61
   0   1  -2 6931.23   43.68
   0   1   2 6548.59   42.04
   0  -1   3  271.04    7.76
   0   1   3  275.32    8.49
   0   1  -3  265.26    9.09
   0  -1   3  266.04    7.64
   0  -1   3  266.10    8.84
   0   1   3  282.48    8.70
   0   1  -3  267.38    8.91
   0  -1   3  266.78    9.03
   0   1  -3  270.33    7.79
   0  -1   3  278.84    8.92
   0   1  -3  277.13    8.17
   0  -1  -3  266.77    8.27
   0   1  -3  281.50    9.18
   0   1   3  286.84    9.53
   0   1   3  270.77    8.59
   0   1  -4    1.21    1.30
   0  -1  -4    0.02    1.10
   0  -1   4   -0.98    1.39
   0   1   4    0.54    0.97
   0  -1   4    0.76    1.27
   0   1   4   -0.40    1.19
   0   1   4   -0.16    0.87
   0  -1  -4   -0.05    1.09
   0   1   4    1.26    1.39
   0  -1   4    1.67    1.44
   0   1   4   -1.13    1.36
   0  -1   4    0.01    1.04
   0   1  -4    0.57    1.36
   0   1  -4    0.41    1.07
   0   1  -4    1.76    1.71
   0  -1   5   22.06    3.37
   0  -1   5   24.03    3.29
   0   1  -5   21.42    3.02
   0  -1  -5   25.73    3.04
   0   1   5   27.60    2.94
   0   1  -5   21.99    3.11
   0   1   5   24.40    3.39
   0  -1  -5   21.70    2.80
   0   1   5   23.36    2.79
   0   1  -5   24.90    3.34
   0   1  -5   22.85    3.53
   0  -1   5   23.87    3.19
   0   1   5   22.82    3.05
   0  -1   5   25.59    3.59
   0   1   5   24.47    3.39
   0  -1  -6  499.32   13.27
   0   1   6  527.70   13.80
   0   1   6  520.53   12.99
   0  -1  -6  511.94   12.38
   0  -1   6  472.95   15.02
   0  -1  -6  507.77   15.35
   0  -1   6  527.97   14.66
   0   1  -6  502.05   14.80
   0   1  -6  518.27   15.50
   0  -1   6  515.68   12.33
   0   1  -6  492.25   14.34
   0  -1   6  479.34   14.52
   0   1   6  524.13   15.26
   0  -1   6  500.45   13.69
   0   1   6  512.35   15.67
   0   1   6  479.06   14.96
   0   1  -6  507.80   14.15
   0  -1   7   31.04    3.58
   0   1  -7   33.79    4.78
   0  -1   7   34.85    4.85
   0   1   7   38.77    4.90
   0   1   7   35.31    3.73
   0  -1   7   28.04    4.27
   0   1  -7   33.84    3.94
   0  -1   7   33.19    4.13
   0  -1  -7   32.98    4.17
   0  -1   7   33.06    4.19
   0   1   7   31.81    4.22
   0  -1  -7   37.06    4.92
   0  -1  -7   32.30    3.48
   0   1   7   37.23    4.74
   0   1   7   34.66    4.07
   0   1  -7   31.46    4.13
   0   1  -7   33.75    4.69
   0   1   8  352.68   13.76
   0  -1   8  346.00   12.42
   0   1   8  365.34   15.08
   0  -1  -8  352.72   14.34
   0  -1   8  371.47   14.96
   0   1  -8  367.84   14.78
   0   1  -8  338.41   13.73
   0  -1  -8  340.74   12.74
   0  -1   8  352.00   14.67
   0   1   8  352.95   15.22
   0   1   8  368.62   13.72
   0  -1   8  371.75   13.03
   0  -1   8  377.52   12.78
   0   1  -8  344.06   12.85
   0  -1   9  273.74   13.85
   0   1   9  275.85   14.09
   0  -1  -9  283.23   13.69
   0   1  -9  242.56   10.95
   0   1   9  264.98   12.61
   0  -1  -9  254.19   11.96
   0  -1   9  289.44   11.83
   0  -1   9  291.35   13.87
   0   1   9  285.13   14.53
   0   1  -9  276.37   13.63
   0   1  -9  263.63   12.92
   0   1   9  271.60   12.75
   0  -1   9  279.46   11.80
   0  -1  10  223.45   11.49
   0   1  10  250.48   14.53
   0   1  10  225.08   12.26
   0   1  10  241.17   14.02
   0  -1  10  207.38   13.12
   0   1  10  224.22   12.60
   0  -1 -10  222.69   12.20
   0  -1  10  235.36   13.20
   0  -1 -10  244.22   13.62
   0   1 -10  234.48   13.22
   0   1 -10  235.22   13.26
   0   1  11  136.91   10.72
   0   1  11  125.57   10.04
   0   1  11  139.42   11.60
   0   1 -11  136.46   11.09
   0  -1 -11  134.30   10.40
   0  -1  11  122.96   10.68
   0   1 -11  147.84   11.39
   0   1  11  137.90   11.75
   0  -1 -11  144.54   11.36
   0  -1 -11  145.56   10.56
   0  -1  11  139.88   10.94
   0   1  12  599.87   24.42
   0  -1 -12  556.95   21.30
   0   1 -12  567.22   22.32
   0   1 -12  583.41   22.76
   0  -1  12  571.20   23.16
   0  -1  12  600.57   22.92
   0   1  12  593.69   22.28
   0   1  12  609.56   24.76
   0  -1 -12  583.04   22.61
   0  -1 -13   -6.50    5.72
   0  -1 -13   -3.63    5.54
   0   1 -13   -6.59    6.32
   0   1  13   -3.67    4.94
   0   1  13    7.97    5.08
   0  -1  13    3.64    5.08
   0   1 -13   -0.16    5.38
   0  -1  13   -2.88    4.96
   0   1  13   -3.42    4.62
   0   1 -14   24.59    7.10
   0  -1 -14   37.57    9.10
   0  -1 -14   27.84    7.83
   0  -1  14   31.63    7.17
   0   1  14   33.42    7.29
   0  -1  14   37.11    7.52
   0   1  14   32.76    7.47
   0   1 -14   34.06    7.41
   0   1  14   40.44    8.56
   0   1  15    3.56    5.33
   0   1  15    8.96    5.66
   0  -1 -15    0.25    6.58
   0   1 -15   -5.04    6.38
   0   1  15   -2.07    4.88
   0  -1  15   -2.37    4.98
   0  -1 -15    7.66    6.40
   0  -1  15    0.42    5.22
   0  -1 -15   -2.82    6.41
   0   1  16    9.09    4.88
   0  -1  16    4.41    6.29
   0  -1 -16  -11.36    7.33
   0  -1 -16   -2.81    6.36
   0  -1 -16    3.90    6.38
   0   1  16   -5.66    6.24
   0   1  16    4.37    5.82
   0   1  17    9.57    6.44
   0  -1 -17   17.00    7.30
   0   1  17   16.43    7.18
   0  -2   0 9999.00   51.32
   0   2   0 9918.02   63.67
   0   2   0 9828.43   69.48
   0  -2   0 9826.71   64.01
   0   2   0 9954.90   67.93
   0   2   0 9952.66   66.63
   0  -2   0 9881.20   60.89
   0  -2   0 9932.95   66.70
   0   2   0 9864.74   56.96
   0  -2   0 9976.78   68.41
   0   2   1 1231.13   18.13
   0  -2  -1 1129.51   17.32
   0   2   1 1159.94   22.77
   0   2  -1 1091.08   23.34
   0   2  -1 1224.82   21.23
   0   2  -1 1158.95   24.07
   0  -2   1 1260.11   24.64
   0  -2  -1 1251.96   16.48
   0   2   1 1231.72   17.97
   0  -2  -1 1133.31   21.36
   0  -2   1 1174.06   20.25
   0  -2   1 1237.34   23.58
   0   2  -1 1184.99   21.43
   0  -2  -1 1236.90   23.00
   0  -2  -1 1256.43   24.69
   0   2  -1 1127.14   23.26
   0   2   1 1260.68   22.85
   0  -2   1 1100.73   23.06
   0   2   1 1209.69   23.58
   0   2   1 1219.48   18.23
   0  -2  -1 1248.48   23.48
   0  -2   1 1199.26   19.82
   0   2   1 1304.49   25.66
   0   2   2   55.18    4.41
   0  -2  -2   48.51    5.26
   0   2   2   57.02    4.42
   0   2  -2   67.53    5.74
   0  -2   2   46.87    4.63
   0  -2  -2   62.89    5.36
   0   2  -2   63.36    6.38
   0   2   2   57.37    4.80
   0  -2   2   65.14    6.25
   0   2  -2   60.04    4.70
   0  -2  -2   53.71    5.55
   0  -2   2   60.85    5.89
   0   2   2   58.16    5.69
   0  -2  -2   50.60    4.35
   0  -2  -2   53.25    4.32
   0  -2   2   58.64    4.76
   0   2   2   55.75    5.47
   0   2  -2   61.52    5.89
   0   2   2   59.93    5.17
   0  -2   2   54.36    5.63
   0   2  -2   58.60    5.67
   0  -2   3   51.75    5.15
   0   2  -3   42.72    4.89
   0  -2  -3   40.03    5.06
   0  -2   3   38.19    4.98
   0   2  -3   43.33    4.84
   0   2  -3   42.27    4.79
   0  -2   3   45.17    4.97
   0   2   3   49.91    5.46
   0   2   3   50.93    4.48
   0  -2  -3   41.41    5.17
   0  -2  -3   46.71    4.40
   0   2   3   38.20    3.88
   0   2  -3   45.55    5.35
   0   2  -3   45.38    3.81
   0   2   3   52.03    4.77
   0   2   3   52.13    4.63
   0   2   3   46.10    5.00
   0  -2   3   46.72    5.12
   0  -2  -3   50.85    4.56
   0  -2  -3   47.06    4.29
   0  -2   3   46.04    3.58
   0  -2  -4  211.35    9.65
   0  -2  -4  219.85    8.31
   0   2   4  220.02    9.84
   0   2   4  219.38   11.26
   0  -2   4  199.40    9.85
   0   2  -4  198.28   11.06
   0  -2   4  217.14    8.53
   0   2   4  220.55    8.66
   0   2  -4  218.43   10.61
   0   2   4  203.64    9.85
   0  -2   4  223.72   10.69
   0   2  -4  214.55   11.33
   0  -2  -4  205.09   10.58
   0  -2   4  211.49   11.21
   0  -2   4  209.81   10.89
   0  -2  -4  210.84   10.93
   0   2  -4  192.63   10.26
   0   2   4  210.67   10.65
   0   2   4  231.85    9.42
   0  -2  -4  229.67    9.07
   0  -2   5    6.12    3.29
   0   2  -5    9.62    3.00
   0   2   5    8.26    3.17
   0   2   5    3.29    2.18
   0  -2   5    3.89    2.85
   0  -2  -5    1.62    2.84
   0  -2   5    7.58    3.69
   0   2  -5    9.51    4.06
   0  -2  -5    3.48    3.06
   0   2  -5    1.69    3.06
   0   2   5    6.14    3.07
   0   2   5    2.80    2.11
   0  -2  -5    4.57    3.08
   0  -2   5    6.21    2.82
   0  -2  -5    5.95    2.97
   0   2  -5   10.79    3.62
   0  -2   5    3.97    3.19
   0  -2   6  144.44    8.48
   0  -2  -6  149.44    9.31
   0   2   6  136.34    9.60
   0  -2   6  145.56    9.95
   0  -2   6  138.52    9.72
   0   2  -6  149.65   10.22
   0   2  -6  128.94    8.26
   0   2   6  143.07    9.15
   0   2  -6  138.96    9.85
   0  -2   6  122.54    8.19
   0   2   6  146.56    9.27
   0  -2   6  130.63    9.63
   0  -2  -6  122.46    8.40
   0   2   6  140.69    9.59
   0   2  -6  126.03    7.75
   0   2  -6  135.61    9.65
   0  -2  -6  140.79   10.05
   0  -2   7   70.57    7.44
   0  -2   7   64.99    7.33
   0   2  -7   57.57    6.08
   0   2   7   68.25    6.59
   0   2  -7   64.78    7.69
   0   2   7   63.11    7.18
   0   2  -7   70.04    7.94
   0  -2   7   59.55    6.89
   0   2  -7   61.21    7.18
   0  -2  -7   56.91    7.19
   0   2   7   68.18    7.02
   0  -2  -7   69.15    6.80
   0   2   7   69.76    7.51
   0  -2   7   55.04    6.04
   0  -2  -7   52.75    6.54
   0   2   8    2.99    3.04
   0  -2  -8    3.04    3.74
   0   2  -8   -0.64    3.88
   0  -2   8   -3.00    3.39
   0  -2   8    1.52    2.97
   0   2   8    1.56    2.91
   0   2  -8    0.52    3.26
   0  -2   8    6.99    4.21
   0   2  -8    2.34    3.44
   0   2  -8    1.73    3.04
   0  -2   8   -0.90    3.69
   0   2   8   -3.02    3.39
   0  -2  -8   -0.81    4.25
   0   2   8   -1.81    2.78
   0  -2  -8    4.31    3.18
   0  -2   9  401.00   17.10
   0   2  -9  405.40   16.75
   0   2   9  435.28   19.15
   0  -2   9  467.59   19.09
   0   2  -9  411.36   18.08
   0   2  -9  449.71   19.84
   0  -2   9  425.48   17.60
   0   2   9  431.34   18.85
   0   2  -9  441.12   19.23
   0  -2  -9  448.56   19.51
   0   2   9  425.06   19.51
   0  -2  -9  478.28   19.64
   0  -2   9  445.45   19.54
   0   2  10 1372.40   34.69
   0   2 -10 1337.80   35.01
   0  -2  10 1378.12   31.55
   0  -2  10 1315.34   31.81
   0  -2  10 1315.88   33.72
   0  -2 -10 1354.22   34.39
   0   2 -10 1318.87   31.84
   0   2  10 1234.14   32.76
   0   2 -10 1263.34   31.09
   0  -2 -10 1313.20   33.13
   0  -2  10 1349.89   32.87
   0   2  10 1431.24   37.55
   0   2 -11   41.40    7.71
   0  -2  11   32.07    5.76
   0   2  11   28.40    6.25
   0   2 -11   28.17    5.45
   0  -2 -11   30.87    6.58
   0   2 -11   24.14    6.30
   0  -2  11   11.22    5.00
   0   2  11   38.35    7.52
   0  -2  11   28.31    5.69
   0  -2 -11   29.82    6.96
   0  -2 -11   24.29    5.61
   0   2  11   22.06    5.94
   0   2 -12   36.81    8.38
   0  -2 -12   42.34    8.04
   0  -2  12   46.69    8.08
   0   2  12   41.60    8.21
   0  -2 -12   39.39    7.97
   0  -2  12   44.56    7.59
   0  -2 -12   50.38    8.80
   0   2  12   39.79    7.03
   0   2  12   48.52    8.01
   0   2  13   22.98    5.70
   0  -2 -13   40.61    8.19
   0  -2 -13   25.86    5.52
   0   2  13   14.33    5.42
   0  -2 -13   30.10    7.74
   0  -2  13   32.87    6.65
   0   2 -13   37.75    8.02
   0   2  13   35.94    7.41
   0  -2  13   28.35    6.63
   0  -2 -14   44.26    9.02
   0  -2  14   27.91    7.01
   0   2  14   32.18    7.87
   0  -2 -14   31.29    8.65
   0   2  14   21.48    6.10
   0  -2 -14   18.60    6.68
   0  -2  14   27.20    6.86
   0   2  14   24.78    5.98
   0  -2 -15   63.09   11.25
   0   2  15   48.97    9.87
   0   2  15   56.25    9.42
   0  -2 -15   61.72   10.88
   0   2  16   17.25    7.23
   0  -2 -16   22.48   10.68
   0  -2 -16   15.64    8.26
   0   2  16   28.75    8.13
   0  -3   0    3.89    3.65
   0  -3   0    5.24    3.84
   0   3   0    1.01    2.56
   0  -3   0    2.78    4.42
   0   3   0   -0.24    3.19
   0   3   0    0.69    3.79
   0   3   0    3.19    2.64
   0  -3   0    0.40    3.53
   0  -3   1   83.40    8.63
   0  -3  -1  103.50    8.76
   0   3   1   89.14    8.80
   0   3  -1   85.41    7.64
   0   3  -1   82.03    8.49
   0   3   1   88.55    8.79
   0  -3   1   89.91    8.45
   0   3  -1   99.16    9.23
   0  -3  -1   85.39    7.85
   0  -3   1  103.80    9.79
   0  -3  -1   74.86    8.77
   0   3   1   93.75    8.17
   0   3   1   92.68    8.11
   0   3  -1   91.33    8.55
   0  -3  -1  104.00    9.29
   0   3   2   29.79    5.38
   0  -3  -2   28.65    5.21
   0  -3  -2   34.68    5.86
   0  -3   2   23.83    5.34
   0   3   2   33.94    5.76
   0   3  -2   24.88    5.24
   0  -3   2   35.00    5.87
   0  -3   2   32.56    5.92
   0   3   2   29.91    5.92
   0  -3  -2   28.29    5.85
   0  -3  -2   31.11    5.60
   0   3  -2   38.86    6.17
   0   3   2   30.66    5.10
   0   3  -2   30.52    5.56
   0  -3   3   59.91    7.47
   0   3  -3   72.64    7.51
   0  -3   3   67.50    6.74
   0  -3   3   61.42    8.10
   0   3  -3   57.88    7.81
   0   3   3   63.54    7.35
   0  -3  -3   66.89    6.78
   0  -3  -3   67.50    8.03
   0  -3   3   63.20    7.85
   0   3  -3   69.25    7.79
   0  -3  -3   73.14    7.85
   0   3  -3   76.31    8.25
   0   3   3   61.89    7.65
   0  -3  -3   65.19    8.22
   0   3  -4    0.44    4.23
   0  -3  -4   -0.81    4.25
   0   3  -4    7.30    4.24
   0   3  -4    4.50    3.45
   0   3  -4    4.82    4.99
   0  -3   4    5.29    3.69
   0  -3   4   11.51    5.45
   0  -3  -4   -1.74    4.74
   0   3   4   -0.37    3.36
   0  -3   4   -3.02    4.15
   0   3   4    7.28    4.19
   0  -3   4    0.98    4.99
   0   3  -5    2.01    3.62
   0   3   5   -1.37    4.34
   0  -3   5    4.42    4.33
   0  -3  -5   -3.86    5.61
   0   3   5   -1.16    4.66
   0  -3   5    7.15    4.97
   0  -3  -5   -9.97    5.87
   0   3  -5    1.14    4.41
   0   3  -5   10.77    4.38
   0  -3   5    6.90    4.96
   0  -3   5    0.57    4.05
   0   3  -5    2.22    3.91
   0  -3   6    2.76    4.96
   0   3  -6    6.94    5.26
   0  -3   6    6.78    4.34
   0   3  -6    1.14    4.25
   0  -3   6   12.57    6.11
   0  -3   6    5.21    4.88
   0   3  -6   -3.39    5.30
   0  -3  -6    0.87    4.42
   0   3  -6   -0.09    4.02
   0  -3  -6    6.43    5.40
   0   3   6    0.57    3.96
   0   3   6   -0.23    3.54
   0  -3  -7   12.32    5.22
   0  -3   7   10.24    5.54
   0  -3   7   16.93    6.11
   0   3   7   13.34    5.45
   0   3  -7    9.21    4.95
   0  -3   7   13.60    5.02
   0   3  -7   16.58    5.58
   0  -3  -7   19.58    6.67
   0   3  -7    9.89    5.21
   0   3   7    8.08    4.73
   0   3  -8   55.22    9.12
   0  -3  -8   57.43    8.52
   0   3  -8   48.61    8.55
   0   3   8   22.85    7.38
   0   3   8   52.77    7.94
   0   3   8   34.25    8.10
   0  -3   8   40.65    7.71
   0  -3  -8   52.65    7.95
   0   3  -8   48.31    8.46
   0  -3  -8   53.66    9.05
   0  -3   8   46.53    8.07
   0  -3   8   58.96    8.72
   0  -3  -8   33.20    6.46
   0   3   8   53.75    7.58
   0  -3   9  132.20   12.49
   0   3  -9  101.43   11.01
   0  -3   9  123.73   11.95
   0  -3   9  101.75   11.00
   0  -3  -9  136.83   12.84
   0   3  -9  123.29   12.56
   0  -3  -9  136.21   11.64
   0   3   9  122.13   11.44
   0  -3  -9  114.02   11.64
   0   3   9  122.23   11.95
   0  -3 -10   58.29    9.13
   0   3 -10   68.90    9.78
   0   3  10   71.02    9.61
   0  -3  10   63.56    9.07
   0  -3  10   63.66    9.67
   0   3  10   68.47    8.95
   0  -3 -10   87.66   10.42
   0   3 -10   66.20    9.55
   0   3  10   45.97    9.37
   0  -3 -10   77.78   10.35
   0  -3  10   64.60    9.55
   0   3  11   79.82   10.26
   0   3  11   64.59   10.52
   0   3 -11   62.93   10.23
   0  -3 -11   53.75    9.58
   0   3  11   84.72   11.00
   0  -3  11   80.62   11.26
   0  -3 -11   77.37   11.63
   0  -3  11   57.28    8.59
   0  -3 -11   96.40   11.75
   0   3 -11   71.30   10.16
   0   3  12   32.46    8.59
   0  -3 -12   29.13    7.81
   0   3  12   33.59    7.82
   0   3  12   16.95    6.63
   0  -3 -12   19.83    7.29
   0  -3 -12   23.52    7.63
   0   3  13   -7.03    6.15
   0  -3 -13   -0.26    6.31
   0   3  13   -3.95    5.20
   0   3  13   -4.02    5.33
   0  -3 -13   -8.96    7.00
   0  -3 -13    8.50    7.49
   0   3  14    4.65    6.31
   0   3  14   -6.95    6.14
   0  -3 -14    4.94    7.23
   0  -3 -14   -1.32    7.11
   0   3  14    0.35    5.22
   0  -3 -14   -8.58    7.15
   0   4   0   46.21    8.50
   0  -4   0   43.90    8.75
   0  -4   0   64.84    9.72
   0   4   0   46.54    8.66
   0  -4   0   54.88    8.31
   0   4   0   54.18    8.33
   0  -4  -1   11.81    5.40
   0  -4   1   11.61    5.37
   0   4   1    9.12    5.57
   0   4  -1   15.72    5.75
   0   4  -1   22.49    6.37
   0  -4  -1    5.57    5.51
   0  -4   1   26.08    7.15
   0  -4   1   19.78    7.51
   0   4   1    7.79    4.79
   0  -4  -1   20.34    6.63
   0   4   1   13.51    4.97
   0   4  -1    8.48    5.64
   0  -4   2    8.32    5.61
   0  -4  -2   19.86    6.75
   0   4   2   17.43    5.52
   0   4  -2   25.84    8.16
   0  -4  -2   19.91    6.68
   0   4  -2   18.57    6.25
   0   4  -2   20.77    5.85
   0  -4   2   16.04    6.48
   0   4   2   35.36    7.93
   0  -4   2   20.58    7.12
   0  -4  -3    1.10    4.86
   0   4   3   -4.75    5.28
   0  -4   3   -1.42    5.78
   0   4  -3    3.84    4.85
   0   4  -3    2.10    4.58
   0  -4   3   -4.44    6.32
   0  -4  -3  -10.37    6.99
   0   4  -3   -1.13    5.83
   0   4   3   -1.20    5.26
   0  -4   3    0.60    4.98
   0   4  -4   30.02    8.38
   0   4  -4   41.17    8.00
   0   4   4   33.91    7.39
   0   4   4   33.13    7.03
   0  -4   4   29.37    7.60
   0  -4   4   35.57    8.43
   0  -4   4   33.08    7.60
   0  -4  -4   31.80    7.76
   0  -4  -4   36.03    8.12
   0   4  -4   31.36    7.79
   0  -4   5   61.90   10.20
   0   4   5   69.91    9.71
   0  -4  -5   54.55    9.62
   0  -4   5   64.08   10.39
   0   4   5   62.93    9.29
   0  -4  -5   69.05   10.77
   0   4  -5   52.70    8.83
   0   4  -5   51.15    9.52
   0  -4   5   50.41    8.64
   0   4  -5   66.01   10.20
   0   4  -6    9.61    8.06
   0   4  -6   -5.40    5.64
   0  -4   6   -2.28    6.25
   0  -4  -6    0.97    5.63
   0   4   6    0.95    4.90
   0  -4   6    0.42    5.79
   0  -4  -6    7.75    7.00
   0  -4   7   15.59    7.97
   0  -4  -7   -9.87    6.15
   0   4   7   10.42    5.97
   0  -4   7   10.35    6.82
   0   4   7    6.36    6.61
   0  -4  -7   -4.06    6.66
   0   4  -7    5.21    5.40
   0   4   8   40.87    9.91
   0  -4  -8   64.74   11.02
   0  -4   8   68.01   10.64
   0  -4   8   38.88    9.72
   0   4   8   41.43   10.09
   0  -4  -8   51.66    8.55
   0   4  -8   60.26   11.64
   0   4   9   12.95    6.72
   0  -4  -9   24.47    9.08
   0   5  -1   33.21    9.93
  -1   0  18  -12.85    6.34
  -1   0  17    1.47    4.87
   1   0 -17   -8.91    7.46
  -1   0  17    2.75    5.95
   1   0 -17    3.92    6.45
  -1   0  17   -0.87    6.06
   1   0 -17  -14.63    7.97
  -1   0  16   46.60   10.34
   1   0 -16   45.85    8.55
   1   0 -16   48.73    9.34
   1   0 -16   42.84    9.60
  -1   0  16   34.10    8.02
  -1   0  16   43.92    8.45
   1   0 -15    3.82    5.59
  -1   0  15    6.29    5.45
  -1   0  15    1.90    4.69
   1   0 -15   -2.96    6.01
  -1   0  15   -0.16    4.85
   1   0 -15   -6.72    5.93
   1   0 -14 1477.57   38.96
  -1   0  14 1646.19   40.89
  -1   0  14 1658.19   41.91
  -1   0  14 1696.84   44.03
   1   0 -14 1504.13   38.18
   1   0 -14 1462.61   36.59
  -1   0  13    1.22    4.13
  -1   0  13   -7.13    5.59
  -1   0  13   -1.68    4.03
   1   0 -13   -1.60    5.38
   1   0 -13   -7.24    5.38
   1   0 -13   -9.36    5.79
   1   0 -12  103.44    9.01
   1   0 -12  132.64   10.69
  -1   0  12  144.18   12.13
   1   0 -12  141.30   11.12
  -1   0  12  130.63   10.02
  -1   0  12  118.40   10.53
   1   0 -12  117.68   10.73
  -1   0  12  141.15   11.21
  -1   0  11   -0.55    2.98
  -1   0  11   -1.16    3.35
  -1   0  11   -2.78    3.09
  -1   0  11   -0.47    3.00
   1   0 -11    0.81    3.37
   1   0 -11   -5.23    4.45
   1   0 -11    0.83    3.61
   1   0 -11   -0.89    3.70
  -1   0  10   55.07    6.94
  -1   0  10   56.72    6.74
   1   0 -10   65.83    6.35
  -1   0  10   59.19    6.31
   1   0 -10   49.26    6.22
   1   0 -10   55.05    6.70
  -1   0  10   59.77    6.76
   1   0 -10   55.76    6.43
  -1   0   9   -0.40    2.56
  -1   0   9    5.03    2.92
  -1   0   9   -0.52    2.34
  -1   0   9    1.21    2.51
   1   0  -9    2.54    3.27
   1   0  -9    3.16    2.71
  -1   0   8  522.99   12.66
  -1   0   8  541.96   16.29
   1   0  -8  514.23   14.63
  -1   0   8  539.28   17.05
  -1   0   8  546.85   16.39
   1   0  -8  509.36   15.95
  -1   0   8  525.94   15.16
   1   0  -8  500.27   12.70
  -1   0   7   -4.57    2.06
  -1   0   7   -6.03    3.23
   1   0  -7  -14.50    3.68
  -1   0   7   -1.37    2.25
   1   0  -7  -12.96    3.91
  -1   0   7   -6.10    2.90
  -1   0   7   -8.42    3.17
   1   0  -7   -6.25    2.49
  -1   0   6   76.33    5.60
  -1   0   6   73.49    4.22
   1   0  -6   76.62    4.93
  -1   0   6   81.57    5.06
  -1   0   6   77.49    5.43
   1   0  -6   77.22    5.43
  -1   0   6   82.42    5.50
  -1   0   5    0.22    1.04
  -1   0   5    0.33    1.22
   1   0  -5    0.59    1.10
   1   0  -5    0.25    1.15
  -1   0   5    0.24    0.96
  -1   0   5    0.48    0.96
   1   0   6 2029.08   30.96
  -1   0  -6 2122.99   29.82
   1   0   6 2067.57   28.87
   1   0   7   -4.96    2.85
   1   0   7   -6.20    3.23
  -1   0  -7   -4.96    3.70
   1   0   7   -2.83    2.41
   1   0   8 1733.60   32.01
   1   0   8 1683.83   30.78
   1   0   8 1644.57   27.16
  -1   0  -8 1595.74   29.34
   1   0   9    0.23    2.44
   1   0   9    1.42    2.67
   1   0   9    1.03    2.66
  -1   0  -9   -0.86    3.07
   1   0  10  257.77   13.59
   1   0  10  270.03   12.65
  -1   0 -10  240.39   12.97
   1   0  10  278.71   14.53
   1   0  11    7.12    4.11
   1   0  11    1.01    3.16
   1   0  11   -0.79    2.98
  -1   0 -11   -2.20    4.89
  -1   1  18  104.98   13.31
   1  -1 -18   53.59    8.70
   1  -1 -17   21.77    9.15
  -1  -1  17   17.01    7.60
  -1   1  17   19.03    7.10
   1  -1 -17   11.59    7.47
  -1   1  17   22.02    7.80
  -1   1  17   16.99    7.71
   1  -1 -17   21.65    9.42
   1   1 -17   31.86    9.17
  -1  -1  16   11.32    7.62
  -1  -1  16   12.66    6.59
  -1   1  16   13.01    5.83
  -1   1  16   12.78    6.61
  -1   1  16   17.05    6.89
   1   1 -16    4.25    7.09
   1  -1 -16   -6.56    6.79
   1  -1 -16   17.45    8.13
   1   1 -16   24.17    8.06
   1  -1 -16   24.14    8.82
  -1   1  15   13.06    6.11
   1   1 -15   14.58    6.16
  -1  -1  15   25.38    7.34
  -1   1  15    3.77    4.75
  -1  -1  15    2.09    5.66
   1   1 -15   17.80    7.09
   1  -1 -15    9.67    7.24
  -1   1  15    8.64    4.80
   1  -1 -15    8.81    6.96
   1  -1 -15   13.31    7.47
  -1   1  14  130.43   12.39
  -1   1  14  114.44   12.01
  -1  -1  14  107.86   12.03
  -1   1  14  114.40   11.91
  -1  -1  14  139.46   13.18
   1  -1 -14  111.10   12.42
   1  -1 -14  135.33   12.57
   1   1 -14  125.05   12.31
   1   1 -14  116.27   11.96
   1  -1 -14  121.86   12.18
   1  -1 -13   16.21    5.72
   1   1 -13   11.47    5.18
  -1  -1  13    5.45    4.90
  -1   1  13   20.85    5.59
   1  -1 -13   12.81    6.60
   1   1 -13   17.46    6.68
  -1  -1  13   11.81    4.97
   1  -1 -13    4.60    5.56
  -1   1  13    8.46    4.60
  -1   1  13   16.42    6.22
  -1   1  12 2782.11   50.54
  -1   1  12 2686.21   51.18
  -1  -1  12 2826.21   49.21
   1   1 -12 2660.99   47.41
   1  -1 -12 2711.43   45.39
   1  -1 -12 2748.52   49.75
  -1   1  12 2802.72   48.67
  -1  -1  12 2669.62   49.41
   1  -1 -12 2730.19   48.29
   1   1 -12 2750.42   47.90
  -1   1  11  105.79    8.95
   1   1 -11  120.00   10.29
   1  -1 -11  112.98   10.61
  -1   1  11  105.12    9.80
  -1  -1  11  109.89    9.98
   1  -1 -11  108.25    9.03
  -1  -1  11  120.77   10.21
  -1   1  11   96.83    9.38
   1  -1 -11  107.10    9.49
  -1   1  11  119.14    9.63
   1  -1 -11  118.35   10.47
   1   1 -11  116.10   10.35
  -1   1  10  113.61    9.09
  -1   1  10  111.70    8.48
  -1  -1  10  113.66    9.60
  -1   1  10  109.51    9.45
   1  -1 -10  108.44    8.56
   1  -1 -10  114.99    8.74
  -1   1  10  114.89    9.82
   1   1 -10  114.02    9.39
   1  -1 -10  117.52    9.90
   1   1 -10  115.05    9.33
  -1  -1  10  123.96    9.76
   1  -1  -9   21.51    4.41
  -1   1   9   23.99    4.60
  -1   1   9   27.68    4.45
  -1  -1   9   32.08    4.46
   1   1  -9   26.80    4.39
  -1   1   9   25.72    4.83
  -1  -1   9   26.02    3.96
   1   1  -9   25.51    4.91
  -1   1   9   27.99    4.78
   1  -1  -9   26.44    5.07
  -1  -1   9   23.90    4.71
  -1  -1   9   33.33    5.23
   1   1  -9   29.19    5.23
   1   1  -9   27.83    4.16
   1   1  -9   24.81    4.25
  -1  -1   9   31.57    4.36
   1   1  -9   26.59    3.77
  -1  -1   9   30.83    4.67
   1  -1  -9   32.23    5.16
  -1   1   8  236.10   11.19
  -1  -1   8  231.19   11.61
  -1   1   8  257.68   11.54
   1   1  -8  234.28    9.52
  -1  -1   8  225.78   11.46
  -1  -1   8  240.49    9.58
   1   1  -8  232.61   10.18
  -1   1   8  229.64   11.88
  -1  -1   8  255.41   10.40
   1   1  -8  239.43   11.86
   1   1  -8  249.69    9.84
   1  -1  -8  247.30   12.24
  -1  -1   8  251.03   10.48
   1   1  -8  241.56   11.41
  -1  -1   8  245.00   10.28
   1  -1  -8  239.21   11.34
  -1   1   8  243.74   12.08
   1   1  -8  247.37   10.76
   1  -1  -7    6.15    2.76
  -1   1   7    5.92    2.51
  -1   1   7    6.25    2.38
  -1  -1   7    5.71    2.31
  -1  -1   7    6.59    2.31
  -1  -1   7    5.72    2.88
  -1  -1   7    3.77    2.52
  -1   1   7    8.55    2.66
   1   1  -7    5.30    3.10
   1   1  -7    4.21    2.04
   1   1  -7    3.70    2.04
  -1   1   7    4.97    2.13
  -1  -1   7    6.70    2.10
  -1   1   7    6.45    1.84
   1   1  -7    3.41    1.88
   1  -1  -7    9.65    3.00
   1  -1  -7    4.32    1.97
   1   1  -7    3.51    1.65
   1   1  -7    4.16    2.70
  -1  -1   7    2.61    1.64
   1   1  -6   -4.25    2.77
   1  -1  -6   -3.69    3.60
   1  -1  -6   -1.91    2.30
  -1  -1   6   -5.50    2.96
  -1  -1   6   -5.91    3.40
  -1   1   6   -0.77    2.57
   1   1  -6   -7.26    3.89
  -1  -1   6   -7.65    3.88
  -1   1   6   -5.20    2.93
  -1  -1   6   -6.44    3.61
   1   1  -6   -4.58    2.29
   1   1  -6   -2.36    2.72
  -1   1   6   -2.39    2.54
  -1  -1   6   -2.58    1.94
   1   1  -6   -2.20    2.98
  -1  -1   6   -4.83    2.19
   1  -1  -6   -5.41    3.93
  -1   1   6   -2.42    2.64
   1   1  -6   -3.53    3.57
  -1   1   6   -1.70    1.89
  -1  -1   5    0.58    1.71
  -1  -1   5    2.46    1.91
  -1   1   5    1.24    1.36
  -1   1   5    1.56    1.71
   1   1  -5    4.10    2.08
   1   1  -5   -0.61    1.38
  -1   1   5    1.37    1.40
  -1  -1   5   -0.41    1.61
   1   1  -5    1.01    1.74
   1  -1  -5    2.46    1.74
  -1  -1   5    1.34    1.48
  -1   1   5   -1.04    1.42
   1  -1  -5    0.31    1.23
   1  -1  -5    3.22    2.03
  -1   1   5    1.96    1.62
   1  -1  -4    0.15    1.38
  -1  -1   4    0.09    1.03
  -1  -1   4    0.46    1.43
   1   1  -4    0.42    1.67
  -1   1   4    1.06    1.03
   1  -1  -4   -1.58    1.60
  -1  -1   4   -0.08    1.39
  -1   1   4    0.94    1.36
  -1   1   4   -0.86    1.15
  -1   1   4    0.72    1.34
  -1  -1   4    1.78    1.55
   1   1  -4    0.56    1.22
  -1   1   4    1.22    1.08
   1   1  -4    0.74    1.10
   1  -1  -4   -0.78    1.18
  -1   1   3 2012.56   23.40
   1   1  -3 1980.89   24.16
  -1  -1   3 1975.73   21.00
  -1  -1   3 1924.13   23.43
   1  -1  -3 1998.86   24.51
  -1   1   3 1987.58   24.31
   1   1  -3 1995.84   22.19
  -1  -1   3 2011.23   24.02
  -1   1   3 1943.46   25.53
  -1  -1   3 2027.46   20.90
   1   1  -3 2051.54   24.65
   1   1  -3 1988.23   24.96
   1  -1  -3 2053.54   24.12
  -1   1   3 2025.28   24.03
  -1  -1   3 2004.00   24.26
   1   1  -1  195.36    7.15
   1   1  -1  196.03    7.34
  -1  -1   1  198.40    7.03
   1   1  -1  194.03    7.45
  -1  -1   1  189.83    6.75
  -1  -1   1  190.80    7.29
   1  -1  -1  184.41    7.07
   1  -1  -1  192.46    7.46
  -1  -1   0  128.26    5.52
   1   1   0  114.78    5.50
   1   1   0  118.10    5.47
   1   1   0  127.01    6.03
  -1  -1   0  107.04    4.98
   1   1   1   42.39    3.48
   1   1   1   44.90    3.38
   1   1   1   43.62    3.68
   1   1   1   41.95    3.23
   1   1   2 1000.59   17.57
   1   1   2  952.65   15.94
   1   1   2  967.44   17.74
   1   1   2  970.42   15.47
  -1  -1  -2  979.58   15.70
   1   1   3  107.33    6.34
   1   1   3  106.56    5.79
   1   1   3  105.49    6.12
   1   1   3   97.92    5.93
  -1  -1  -3   99.00    5.77
   1   1   4  782.86   17.84
   1   1   4  760.63   14.53
   1   1   4  789.30   16.99
   1   1   4  778.99   16.21
   1   1   4  836.88   18.48
  -1  -1  -4  774.65   16.54
   1   1   5  218.10    8.77
   1   1   5  216.52    9.90
   1   1   5  205.47    9.63
   1   1   5  219.65   10.54
  -1  -1  -5  205.04    9.13
   1   1   6  322.46   12.77
   1   1   6  302.16   13.22
   1   1   6  301.10   11.23
   1   1   6  284.64   12.09
  -1  -1  -6  273.81   11.13
   1   1   7  681.25   19.72
   1   1   7  644.20   17.58
  -1  -1  -7  628.86   15.12
   1   1   7  642.17   19.24
   1   1   7  669.35   20.34
  -1  -1  -7  611.37   17.83
   1   1   8 3938.99   50.02
   1   1   8 3861.69   51.48
   1   1   8 4047.69   47.19
   1   1   8 4065.17   51.16
  -1  -1  -8 3976.46   48.14
  -1  -1  -8 4008.94   45.32
   1   1   9  320.03   15.28
   1   1   9  289.08   13.46
   1   1   9  279.66   14.74
  -1  -1  -9  287.22   13.95
   1   1   9  278.38   14.56
  -1  -1  -9  287.16   13.24
   1   1  10  387.31   15.99
   1   1  10  382.31   17.35
  -1  -1 -10  366.56   16.56
   1   1  10  383.95   18.09
   1   1  11   16.22    4.34
   1   1  11   17.60    5.01
  -1  -1 -11   15.44    5.62
   1   1  11   21.13    4.98
   1   1  12   82.02    9.68
   1   1  12   77.73    8.24
   1   1  12   74.45    8.94
  -1  -1 -12   72.20    9.10
   1   1  13   38.99    7.31
   1   1  13   44.32    7.42
   1  -2 -16    1.56    7.63
  -1  -2  16    0.45    5.46
  -1   2  16   -5.62    5.54
   1   2 -16    4.65    6.92
  -1   2  16    0.94    5.49
  -1  -2  16    5.98    7.38
   1  -2 -16    0.42    7.85
   1   2 -16   -0.19    6.73
   1   2 -15   22.55    8.84
  -1  -2  15    2.04    5.40
  -1   2  15   22.29    7.69
  -1  -2  15   13.93    7.02
   1  -2 -15   19.29    7.55
   1  -2 -15   13.90    7.89
  -1   2  15   18.46    6.66
   1   2 -15   21.08    9.46
   1   2 -14  329.31   20.39
  -1   2  14  290.25   18.48
  -1  -2  14  322.91   20.04
   1  -2 -14  350.17   20.05
  -1  -2  14  349.31   21.11
  -1   2  14  332.61   20.74
  -1   2  14  345.44   21.92
   1  -2 -14  359.12   20.89
   1  -2 -14  338.27   20.49
   1   2 -14  332.31   19.77
   1  -2 -13   67.16   10.01
   1  -2 -13   55.00    9.45
  -1   2  13   61.39    8.79
   1   2 -13   61.70   10.18
  -1  -2  13   60.58    9.40
  -1  -2  13   56.60    9.17
  -1   2  13   69.35    9.66
  -1   2  13   50.95    8.53
   1   2 -13   60.45    9.64
   1  -2 -13   60.83    9.09
  -1   2  12    6.76    5.00
   1   2 -12    1.11    5.61
  -1  -2  12    1.60    4.50
   1  -2 -12    7.72    5.77
  -1   2  12    6.70    4.84
  -1   2  12    1.67    4.33
   1  -2 -12    5.71    6.41
   1   2 -12   -5.63    5.08
  -1  -2  12    4.22    5.25
   1  -2 -12   -3.77    4.95
  -1  -2  11    8.51    4.96
   1   2 -11    0.36    5.01
  -1  -2  11   15.98    5.69
  -1   2  11    9.30    4.86
   1  -2 -11    1.76    4.52
   1   2 -11    7.22    4.30
   1  -2 -11    2.30    5.01
  -1   2  11   17.12    5.61
   1  -2 -11   14.84    5.86
  -1  -2  11   16.87    5.66
   1   2 -11   10.44    5.28
  -1   2  11    7.51    4.19
   1   2 -11   15.59    4.76
  -1  -2  11   11.13    5.22
   1  -2 -10    2.52    4.45
  -1  -2  10    3.20    4.14
   1   2 -10    7.50    9.90
  -1   2  10    4.78    3.43
   1   2 -10   17.92    9.37
  -1  -2  10   25.06    7.37
   1   2 -10   -0.73    8.82
  -1   2  10    0.44    3.57
   1  -2 -10    0.22    4.41
   1   2 -10    6.39    8.49
   1  -2 -10  -10.05    5.57
  -1  -2  10   17.36    6.73
  -1   2  10    0.75    3.38
   1  -2  -9   41.36    7.09
  -1  -2   9   44.03    7.29
   1   2  -9   51.94    8.92
  -1  -2   9   35.21    6.11
  -1  -2   9   47.82    7.79
   1   2  -9   40.72    6.66
  -1   2   9   43.60    7.09
  -1  -2   9   58.96    9.01
  -1   2   9   43.98    6.68
   1  -2  -9   38.38    6.60
   1   2  -9   47.85    7.88
   1   2  -9   39.47    6.53
  -1   2   9   32.98    6.00
  -1   2   8    6.64    3.13
  -1   2   8    8.30    3.49
   1   2  -8   17.37    5.21
  -1  -2   8   10.63    3.56
  -1  -2   8   11.94    4.41
  -1  -2   8    9.83    3.88
   1  -2  -8   19.33    5.27
  -1   2   8   16.72    4.86
  -1  -2   8   17.74    4.95
   1  -2  -8   18.43    4.89
   1   2  -8    2.21    2.88
   1   2  -8   14.35    3.68
   1   2  -8   11.41    4.50
   1  -2  -8   15.78    4.17
  -1   2   8   14.22    3.69
  -1   2   7   95.76    8.52
  -1   2   7   92.39    7.95
  -1  -2   7   91.00    7.48
  -1  -2   7   92.31    8.45
   1   2  -7   94.25    8.60
   1   2  -7   96.75    8.26
  -1   2   7   93.76    8.14
  -1   2   7  101.67    7.79
  -1  -2   7  103.19    8.63
   1   2  -7   94.13    8.60
   1  -2  -7   96.72    7.95
  -1  -2   7   96.02    8.31
   1   2  -7   95.15    7.47
   1  -2  -7   93.35    8.31
   1  -2  -7   99.23    8.80
  -1   2   6    7.47    3.05
  -1  -2   6    7.94    3.59
  -1   2   6    2.70    2.50
  -1  -2   6    5.36    2.84
   1   2  -6    4.53    3.68
  -1  -2   6    9.39    2.75
  -1  -2   6    0.72    3.08
   1   2  -6    6.21    3.00
   1  -2  -6    4.84    2.62
  -1  -2   6    6.91    3.04
   1   2  -6    9.26    3.65
  -1   2   6    6.28    2.58
   1   2  -6    5.59    2.13
   1  -2  -6    3.82    2.74
   1   2  -6    6.97    3.25
  -1   2   6    4.26    2.62
   1  -2  -6    4.24    3.24
  -1   2   5  491.67   17.29
  -1  -2   5  518.10   14.02
  -1  -2   5  511.60   16.71
   1  -2  -5  497.85   16.03
  -1   2   5  492.74   15.87
  -1   2   5  505.13   16.20
  -1  -2   5  484.97   15.98
   1   2  -5  472.46   17.34
   1   2  -5  477.20   16.87
  -1   2   5  499.11   16.45
   1  -2  -5  529.15   16.93
  -1  -2   5  515.33   15.44
   1   2  -5  492.67   13.41
  -1  -2   5  504.78   16.99
   1   2  -5  472.39   16.28
   1   2  -5  488.14   15.97
   1  -2  -5  509.16   17.61
  -1   2   4  999.13   23.62
   1   2  -4  941.62   21.56
  -1  -2   4  957.32   17.19
  -1   2   4  943.30   20.52
   1  -2  -4  951.77   21.00
  -1   2   4  999.87   22.75
   1   2  -4  951.97   21.90
  -1  -2   4  939.69   20.85
  -1   2   4  962.99   17.96
   1   2  -4  939.90   23.55
   1  -2  -4 1019.52   17.76
  -1   2   4 1004.46   21.66
   1   2  -4  980.29   23.31
  -1  -2   4  985.53   22.67
   1  -2  -4  955.98   22.60
  -1  -2   4  919.62   20.77
  -1  -2   4  953.44   22.79
   1  -2  -4 1008.86   23.26
  -1  -2   3   -3.55    2.74
  -1   2   3    1.93    2.20
   1  -2  -3    0.33    2.14
   1   2  -3    0.70    1.61
   1   2  -3    2.32    2.80
  -1  -2   3    1.67    2.64
   1   2  -3   -3.23    2.49
  -1   2   3    1.93    1.82
   1  -2  -3    0.53    2.75
  -1  -2   3   -1.89    2.57
  -1  -2   3    1.42    2.52
  -1   2   3   -1.22    2.18
   1   2  -3    0.56    2.13
  -1   2   3   -0.60    1.77
   1   2  -3    1.44    2.35
   1  -2  -3   -4.66    3.27
  -1  -2   2    8.91    3.18
   1   2  -2    2.22    2.76
  -1   2   2    9.30    3.37
   1  -2  -2    8.95    2.78
   1   2  -2    4.33    1.90
  -1  -2   2    5.43    2.06
  -1  -2   2   10.07    3.38
   1   2  -2    2.84    2.18
  -1  -2   2    4.59    1.92
  -1   2   2    4.47    2.46
  -1   2   2    8.64    2.22
   1   2  -2    6.81    2.70
  -1  -2   2    5.74    3.12
  -1   2   2    8.63    2.60
   1  -2  -2    7.00    3.03
   1   2  -2    2.83    2.00
   1  -2  -2    7.02    2.93
   1  -2  -2    4.78    2.51
  -1   2   1  822.03   20.13
   1   2  -1  843.46   18.08
   1  -2  -1  860.99   19.48
   1   2  -1  808.65   16.71
  -1   2   1  814.61   20.23
   1  -2  -1  853.29   15.04
  -1   2   1  868.45   19.32
   1  -2  -1  850.29   18.38
  -1  -2   1  838.57   17.05
  -1   2   1  854.34   16.46
   1   2  -1  830.33   20.72
  -1   2   1  842.93   21.06
   1   2  -1  833.59   20.52
  -1  -2   1  825.61   19.10
  -1  -2   1  808.57   19.59
   1   2  -1  827.90   19.87
   1  -2  -1  807.61   20.43
  -1  -2   1  824.17   20.28
   1  -2  -1  866.36   19.88
   1   2   0   72.05    4.76
   1  -2   0   65.09    5.82
  -1   2   0   86.49    6.59
   1   2   0   74.72    5.98
   1  -2   0   73.37    5.04
  -1   2   0   79.19    6.71
  -1   2   0   63.88    5.64
   1  -2   0   72.52    5.61
  -1  -2   0   70.68    4.85
   1   2   0   71.15    6.38
   1   2   0   67.22    6.21
   1   2   0   66.97    5.55
  -1  -2   0   69.39    5.80
  -1   2   0   69.79    6.15
   1  -2   0   82.31    6.65
  -1  -2   0   73.43    6.44
  -1  -2   0   65.54    5.85
   1   2   1  110.89    7.38
  -1   2  -1  115.92    8.00
   1   2   1  115.35    5.40
  -1   2  -1  103.50    7.54
   1  -2   1  111.05    6.76
  -1   2  -1  129.56    8.64
   1  -2   1  121.93    7.64
   1   2   1  121.77    7.60
   1   2   1  120.35    5.70
  -1   2  -1  126.13    7.72
   1   2   1  118.02    7.23
   1   2   1  123.14    8.25
  -1  -2  -1  125.74    7.01
   1  -2   1  111.69    8.08
   1  -2   1  116.61    7.83
  -1  -2  -1  116.34    8.18
  -1  -2  -1  120.96    7.37
   1  -2   2   -0.16    2.76
  -1  -2  -2    5.12    3.43
  -1   2  -2    0.74    1.83
   1   2   2    6.75    2.74
   1   2   2    2.13    1.96
  -1  -2  -2   -0.79    2.36
   1  -2   2    0.33    2.43
  -1   2  -2    3.23    2.55
   1  -2   2    2.12    2.08
   1   2   2    4.33    1.74
   1   2   2    0.70    2.37
  -1   2  -2    6.77    2.38
   1   2   2    8.23    3.47
  -1   2  -2    4.72    2.08
   1   2   2    2.28    2.60
  -1  -2  -2   14.96    4.47
   1  -2   2    4.29    2.63
  -1  -2  -3   28.99    4.73
   1  -2   3   27.55    4.23
   1   2   3   23.77    4.07
   1   2   3   24.57    3.38
  -1  -2  -3   25.38    3.61
   1  -2   3   22.67    3.73
  -1  -2  -3   26.68    3.52
  -1   2  -3   23.03    4.51
   1   2   3   26.55    3.63
  -1   2  -3   24.96    4.09
   1   2   3   26.40    3.88
  -1   2  -3   23.32    4.47
   1   2   3   26.38    4.27
   1   2   3   26.48    3.69
  -1  -2  -3   22.61    4.11
   1  -2   3   27.53    4.58
   1   2   4   71.30    6.79
   1  -2   4   65.99    6.22
  -1   2  -4   60.21    6.39
   1  -2   4   62.67    6.35
   1   2   4   60.94    5.03
   1   2   4   64.04    5.65
   1   2   4   64.00    5.93
   1   2   4   70.34    6.80
   1  -2   4   55.17    6.19
   1   2   4   59.09    4.90
  -1  -2  -4   46.34    5.38
  -1  -2  -4   67.73    6.40
  -1   2  -4   59.01    5.99
  -1  -2  -4   64.59    5.10
   1   2   5  132.97    9.38
   1   2   5  161.58   10.14
   1  -2   5  143.69    9.45
  -1   2  -5  143.07   10.25
   1  -2   5  141.95    9.49
   1   2   5  154.77    9.17
   1   2   5  160.93    9.92
   1  -2   5  134.05    9.42
  -1  -2  -5  161.63    9.85
   1   2   6  468.68   18.34
   1  -2   6  429.82   16.67
  -1   2  -6  463.61   18.97
   1   2   6  473.59   16.64
   1   2   6  472.55   18.03
   1   2   6  480.65   17.61
  -1  -2  -6  465.86   16.20
  -1  -2  -6  479.94   16.80
   1   2   7 1081.10   28.55
   1   2   7 1100.73   26.99
   1   2   7 1180.04   29.33
   1   2   7 1119.13   27.19
  -1  -2  -7 1072.10   25.92
  -1  -2  -7 1092.19   25.44
   1   2   8    2.97    3.75
   1   2   8   -0.90    3.01
  -1  -2  -8   -0.72    3.41
   1   2   8    2.66    3.58
   1   2   8    0.74    2.29
  -1  -2  -8   -2.71    4.24
   1   2   9  239.90   15.05
   1   2   9  244.34   15.07
   1   2   9  263.62   14.85
  -1  -2  -9  267.79   14.64
   1   2  10   20.82    5.22
   1   2  10   19.09    5.44
   1   2  10   25.51    6.44
  -1  -2 -10   24.26    6.57
   1   2  11   14.77    5.27
   1   2  11   16.24    6.24
   1   2  11   11.70    4.82
  -1  -2 -11    5.17    5.83
   1   2  12    6.64    5.08
   1   2  12   -8.30    5.85
   1   2  12    2.27    4.01
  -1  -2 -12    4.14    5.57
   1   2  13   22.65    7.18
  -1  -2 -13    7.14    5.98
   1   2  13   29.19    6.62
  -1  -2 -13   22.73    7.46
  -1  -2 -14   25.72    7.39
   1   2  14   38.64    7.39
  -1   3  14   -0.65    5.87
  -1   3  14   -7.80    6.23
  -1   3  14    0.68    6.10
   1  -3 -14    8.65    8.34
   1  -3 -14    8.42    8.38
   1  -3 -14   10.39    7.83
   1   3 -13   22.30    8.15
  -1   3  13   21.11    6.98
   1  -3 -13   14.23    6.83
  -1   3  13   18.33    7.50
  -1  -3  13   21.53    7.42
  -1   3  13    8.45    5.72
   1  -3 -13   11.24    6.77
   1  -3 -13   21.16    8.09
   1   3 -12  270.87   19.37
  -1   3  12  254.88   19.21
  -1  -3  12  250.83   17.22
   1   3 -12  244.67   18.49
  -1  -3  12  258.64   19.13
   1   3 -12  237.53   17.32
  -1   3  12  247.99   18.14
   1  -3 -12  243.50   17.78
  -1   3  12  250.45   17.78
   1  -3 -12  286.47   18.66
  -1  -3  12  272.28   18.55
   1  -3 -12  268.48   18.62
  -1  -3  11   66.55    9.86
   1  -3 -11   80.31   11.05
  -1   3  11   43.08    9.16
   1   3 -11   78.84   11.48
  -1   3  11   65.30    9.61
   1  -3 -11   75.67   10.87
  -1  -3  11   78.61   11.06
   1   3 -11   68.88   10.21
   1  -3 -11   79.53   10.62
  -1   3  11   76.99    9.86
  -1  -3  11   70.35   10.50
   1   3 -11   56.96    8.78
  -1   3  10   16.18    5.90
  -1  -3  10   17.22    7.18
  -1   3  10    7.49    5.13
   1   3 -10   12.53    7.10
   1   3 -10   15.42    6.42
  -1  -3  10   19.43    6.71
  -1   3  10   13.24    5.83
   1  -3 -10   27.62    7.77
   1  -3 -10   14.70    6.47
  -1  -3  10   17.94    6.69
   1   3 -10   17.56    6.65
   1  -3 -10   13.75    6.01
  -1  -3   9    9.80    6.43
  -1   3   9    6.98    5.06
   1  -3  -9   10.51    5.81
   1   3  -9    9.98    5.51
  -1  -3   9    9.81    5.59
  -1   3   9    4.44    4.34
  -1   3   9    3.80    4.04
   1   3  -9   18.06    6.59
   1  -3  -9   12.05    6.28
  -1  -3   9   14.32    6.67
   1   3  -9    4.47    4.24
   1  -3  -9    8.29    5.46
  -1  -3   8   30.30    7.94
   1   3  -8   41.88    8.82
  -1  -3   8   32.32    7.59
   1   3  -8   23.92    6.33
  -1  -3   8   37.34    7.85
  -1   3   8   59.95   10.61
   1   3  -8   29.75    6.58
  -1   3   7   13.49    5.14
  -1   3   7   11.24    4.49
  -1  -3   7   27.91    7.31
   1   3  -7   13.40    5.45
  -1  -3   7   15.39    5.61
   1   3  -7   19.71    6.24
  -1   3   7   10.06    5.07
  -1  -3   7   22.95    6.73
   1  -3  -7   20.32    5.63
   1   3  -7   16.54    5.11
   1  -3  -7   20.04    6.28
  -1   3   6   57.01    8.36
  -1  -3   6   65.21    8.92
   1   3  -6   68.32    8.24
   1   3  -6   62.41    8.85
  -1  -3   6   59.26    7.66
   1   3  -6   72.22    8.26
  -1   3   6   37.21    7.96
  -1  -3   6   72.64    9.36
   1  -3  -6   68.86    9.20
   1   3  -6   65.82    8.53
  -1  -3   6   70.18    8.11
   1  -3  -6   78.79    9.45
  -1   3   5    2.12    3.91
  -1  -3   5    0.99    4.92
   1   3  -5   -2.51    4.38
   1   3  -5   -5.04    5.51
  -1  -3   5    0.03    3.59
  -1   3   5    2.22    3.14
   1   3  -5   -0.39    3.38
  -1  -3   5    0.76    4.43
   1  -3  -5   -0.51    4.20
   1   3  -5   -2.23    3.84
  -1  -3   5    2.56    3.73
   1  -3  -5    4.65    4.04
  -1   3   4  142.45   11.28
   1   3  -4  152.54   10.72
   1   3  -4  142.68   11.77
  -1  -3   4  137.56   10.06
  -1   3   4  144.62   11.12
   1   3  -4  138.41   10.97
  -1  -3   4  153.97   11.71
   1  -3  -4  189.68   14.21
  -1  -3   4  158.21   11.40
  -1  -3   4  135.91   11.39
   1  -3  -4  154.35   11.68
   1   3  -4  130.60   10.83
  -1   3   3  673.76   23.27
   1   3  -3  673.10   23.33
  -1  -3   3  669.76   19.88
   1   3  -3  660.11   23.93
  -1   3   3  676.21   20.64
  -1   3   3  680.68   23.93
   1   3  -3  696.94   23.98
  -1  -3   3  637.45   22.06
   1  -3  -3  669.86   23.57
  -1  -3   3  716.62   23.93
  -1  -3   3  705.18   24.11
   1  -3  -3  668.56   19.85
   1  -3  -3  683.78   22.59
  -1   3   2  908.15   26.21
   1   3  -2  945.20   27.65
  -1   3   2  894.31   24.89
   1   3  -2  911.83   26.34
   1  -3  -2  909.90   23.36
  -1   3   2  903.81   27.58
   1   3  -2  941.69   27.72
  -1  -3   2  907.42   25.32
   1  -3  -2  916.72   24.91
   1  -3  -2  872.73   26.93
  -1  -3   2  968.68   27.14
  -1  -3   2  970.54   27.57
   1  -3  -2  840.22   25.13
  -1  -3   1   61.27    7.55
  -1   3   1   73.53    7.68
   1   3  -1   79.76    8.42
   1  -3  -1   71.72    7.38
   1   3  -1   77.19    8.21
  -1   3   1   61.40    7.69
  -1   3   1   58.69    6.81
   1  -3  -1   74.10    7.68
  -1  -3   1   78.01    8.37
   1  -3  -1   53.98    7.28
   1   3  -1   71.20    7.82
   1  -3  -1   59.26    7.41
  -1  -3   1   72.91    8.35
  -1  -3   0    5.43    3.61
   1   3   0    4.79    3.51
  -1   3   0    5.10    2.87
   1   3   0    5.48    3.56
  -1  -3   0    5.01    3.86
   1  -3   0    2.74    3.38
  -1  -3   0    9.60    3.88
   1   3   0    5.20    4.12
  -1   3   0    0.93    3.20
   1   3   0    5.39    3.84
  -1   3   0    4.91    3.16
   1  -3   0   13.58    5.11
   1  -3   0   -2.05    3.58
  -1  -3   0    5.86    4.43
  -1  -3  -1   -0.73    4.31
   1   3   1    1.81    3.16
  -1   3  -1    5.92    3.02
   1   3   1    0.60    3.30
   1  -3   1    6.48    4.18
  -1  -3  -1   -8.74    4.80
  -1  -3  -1    8.49    4.05
  -1   3  -1    2.54    3.12
   1   3   1    5.43    3.44
   1   3   1   -4.91    4.20
  -1   3  -1    2.36    3.30
   1  -3   1   -6.44    4.94
   1  -3   1   -1.13    3.80
  -1  -3  -1    4.23    4.32
   1   3   2  229.62   13.37
  -1   3  -2  198.02   12.68
   1   3   2  207.02   12.03
   1  -3   2  207.56   12.47
  -1  -3  -2  216.53   12.06
  -1   3  -2  197.06   12.74
   1   3   2  217.34   12.02
   1   3   2  230.05   13.98
   1  -3   2  189.83   12.64
   1  -3   2  226.70   14.23
  -1  -3  -2  207.45   13.28
  -1  -3  -2  210.95   12.03
  -1  -3  -2  191.65   11.86
  -1  -3  -3   37.89    7.26
  -1  -3  -3   31.57    6.47
   1   3   3   36.90    6.39
   1  -3   3   30.45    6.30
  -1  -3  -3   36.13    6.16
   1  -3   3   35.62    5.55
  -1   3  -3   28.20    5.67
   1   3   3   40.10    6.84
  -1   3  -3   34.41    6.30
   1  -3   3   32.54    6.56
  -1  -3  -4    3.26    5.10
  -1  -3  -4   12.03    5.10
   1   3   4    2.56    3.36
   1  -3   4    7.06    4.59
   1  -3   4    4.60    3.22
  -1   3  -4    6.22    3.72
   1   3   4    6.26    4.46
  -1   3  -4    4.24    3.88
   1  -3   4   -3.17    4.40
  -1  -3  -5   56.55    7.78
  -1  -3  -5   66.01    8.67
   1   3   5   51.81    7.26
   1   3   5   65.59    8.65
  -1  -3  -6  140.48   11.51
  -1  -3  -6  165.12   13.16
  -1  -3  -7  339.00   17.43
  -1  -3  -7  370.86   19.24
   1   3   8  677.78   26.88
  -1  -3  -8  697.48   24.35
  -1  -3  -8  700.78   25.55
  -1  -3  -8  697.81   27.24
   1   3   9  196.49   16.24
   1   3   9  193.32   14.52
   1   3   9  215.10   15.25
  -1  -3  -9  210.07   15.47
  -1  -3  -9  209.46   14.58
  -1  -3  -9  211.92   15.80
  -1  -3 -10   11.32    6.47
   1   3  10    4.59    5.06
   1   3  10   -3.51    4.62
   1   3  10    5.65    4.50
  -1  -3 -10   -9.28    6.82
  -1  -3 -10   -3.13    5.47
  -1  -3 -11  -11.54    7.50
   1   3  11    2.38    5.16
   1   3  11    5.11    5.03
   1   3  11   -6.14    5.80
  -1  -3 -11   -0.59    6.03
  -1  -3 -11  -11.37    7.77
  -1  -3 -12   23.94    8.01
   1   3  12    1.68    4.92
   1   3  12    7.97    6.05
  -1  -3 -12    8.44    7.63
  -1  -3 -13   34.57    9.74
   1   3  13   23.90    8.50
   1   3  13   29.21    8.95
  -1  -3 -13   39.39   10.39
  -1  -4  10    6.72    7.97
   1   4 -10    3.44    6.39
   1   4 -10   12.99    7.53
  -1  -4  10   -0.84    8.00
   1   4 -10   -4.04    7.90
  -1  -4  10    1.56    6.29
  -1  -4   9    4.44    6.66
   1   4  -9   -7.73    6.22
  -1   4   9   -7.19    6.50
  -1  -4   9   -4.12    7.80
   1   4  -9    3.49    6.74
  -1  -4   9    4.41    6.69
   1   4  -9    9.68    7.24
   1  -4  -9    0.86    6.54
   1   4  -8   -5.08    6.80
  -1  -4   8   -6.54    7.06
  -1  -4   8  -10.86    8.03
  -1   4   8    1.63    5.12
   1   4  -8   -8.41    7.27
  -1   4   8    0.05    5.46
   1  -4  -8   13.92    7.58
   1  -4  -8    7.93    6.71
  -1   4   7    5.01    5.60
   1   4  -7   11.54    6.86
  -1  -4   7   12.89    7.65
  -1  -4   7   15.74    7.37
  -1   4   7   13.75    7.64
   1   4  -7   13.94    7.54
   1  -4  -7   18.54    7.95
   1  -4  -7   20.10    8.06
   1   4  -6    6.00    5.78
  -1  -4   6   -6.18    6.81
  -1  -4   6   -2.09    6.51
  -1   4   6  -13.00    7.12
   1   4  -6   18.44    7.48
  -1   4   6  -26.34    8.88
   1  -4  -6   -9.24    6.82
   1  -4  -6   -9.03    7.18
   1   4  -5   42.23    8.52
   1   4  -5   33.35    9.02
  -1  -4   5   29.74    8.86
  -1  -4   5   18.52    6.63
  -1   4   5   35.23    7.82
   1   4  -5   25.35    7.28
  -1   4   5   29.85    8.31
   1  -4  -5   32.90    8.64
  -1  -4   5   42.38    8.75
   1  -4  -5   22.66    7.14
   1   4  -4    0.99    4.68
  -1  -4   4   -1.90    6.02
  -1   4   4    2.86    4.60
  -1  -4   4    4.76    5.16
   1   4  -4   -3.73    5.39
   1   4  -4   -3.37    6.47
  -1   4   4   -7.32    5.99
   1  -4  -4    0.10    5.95
  -1  -4   4   -1.11    5.69
   1  -4  -4    5.05    5.93
  -1   4   3  111.84   12.24
  -1  -4   3  107.59   12.69
  -1  -4   3   93.64   10.77
   1   4  -3   91.39   10.99
   1   4  -3   95.31   11.70
  -1   4   3  116.32   12.88
   1   4  -3  102.04   11.90
   1  -4  -3  136.39   13.59
   1  -4  -3  110.32   12.85
  -1  -4   3   92.77   11.69
   1   4  -2   83.91   10.08
  -1  -4   2   94.64   11.78
  -1   4   2   88.87   10.27
  -1  -4   2   71.56    9.50
   1   4  -2   81.63   10.70
  -1   4   2   87.67   11.73
   1   4  -2   78.20   10.58
   1  -4  -2   96.67   12.09
  -1  -4   2   84.64   10.79
   1   4  -1   -3.13    4.50
  -1  -4   1    5.89    5.17
  -1  -4   1    1.04    5.08
   1  -4  -1    6.37    5.59
   1   4  -1   -1.17    5.49
  -1   4   1    8.00    5.49
   1  -4  -1   18.97    7.76
   1   4  -1    9.01    5.10
  -1   4   1   -0.06    4.69
  -1  -4   1    2.34    6.29
   1   4   0   68.34    9.26
  -1  -4   0   83.47   10.45
   1  -4   0   46.82    8.04
  -1  -4   0   51.72    8.51
   1   4   0   55.86    9.10
  -1   4   0   40.65    8.11
   1   4   0   69.41   10.01
  -1   4   0   54.95    8.80
   1  -4   0   73.32   10.94
  -1  -4   0   50.78    9.21
  -1  -4  -1    0.98    4.87
   1   4   1   -0.17    4.73
   1  -4   1   -8.97    6.26
   1   4   1    0.67    5.58
  -1  -4  -1    1.33    5.63
  -1   4  -1    5.16    5.30
   1   4   1    2.31    4.52
  -1   4  -1   -3.16    4.94
  -1  -4  -1    4.25    5.82
   1   4   2    9.24    4.91
   1   4   2   -2.68    4.91
  -1  -4  -2    0.94    5.91
  -1  -4  -2   -1.09    5.19
   1   4   3   35.32    7.26
   1   4   3   42.81    8.58
  -1  -4  -3   35.92    8.08
  -1  -4  -3   33.64    8.61
  -1  -4  -4    7.28    6.66
   1   4   4    4.02    4.76
   1   4   4    2.95    5.72
  -1  -4  -4    8.86    6.17
  -1  -4  -5   13.65    6.99
   1   4   5   16.65    6.24
   1   4   5    7.25    5.44
  -1  -4  -5    3.60    5.82
  -1  -4  -6  103.43   13.06
   1   4   6   83.80   11.00
   1   4   6   85.74   12.58
  -1  -4  -6  107.55   12.77
  -1  -4  -7  272.61   19.68
  -1  -4  -7  289.12   20.57
  -1  -4  -8  243.06   18.99
  -1  -4  -8  305.51   21.34
  -1  -4  -9    9.95    7.43
   1   4   9   -0.82    5.16
  -1  -5   1   48.94   10.96
   1   5  -1   62.03   11.65
  -2   0  18   -1.69    6.73
  -2   0  17    1.15    6.58
  -2   0  17   -6.38    5.58
  -2   0  17   10.01    6.49
   2   0 -17   14.47    7.18
   2   0 -17   -5.34    6.81
   2   0 -17   -5.75    6.80
  -2   0  16   30.15    7.68
  -2   0  16   47.65    8.78
   2   0 -16   32.36    8.06
   2   0 -16   34.59    8.46
   2   0 -16   31.73    8.65
  -2   0  16   38.47    8.01
  -2   0  15    0.76    5.42
  -2   0  15   -3.54    5.20
  -2   0  15    1.47    4.14
   2   0 -15   -4.46    5.29
   2   0 -15   -5.85    5.86
   2   0 -15   -1.21    6.31
  -2   0  14 2078.14   47.65
  -2   0  14 1916.44   43.34
  -2   0  14 1986.03   44.54
   2   0 -14 2044.47   43.45
   2   0 -14 2030.55   42.50
   2   0 -14 1894.67   42.87
  -2   0  13    6.55    5.39
  -2   0  13   -8.82    4.98
  -2   0  13   -4.78    4.18
   2   0 -13    0.43    4.21
   2   0 -13   -1.46    4.79
   2   0 -13   -0.59    5.08
   2   0 -12  159.64   10.89
  -2   0  12  150.56   11.87
  -2   0  12  115.43    9.90
  -2   0  12  152.77   10.42
  -2   0  12  147.37   11.12
   2   0 -12  150.12   11.00
   2   0 -12  153.37   11.45
  -2   0  11    3.65    3.45
   2   0 -11    3.04    3.63
  -2   0  11    2.50    3.20
  -2   0  11   -1.78    3.02
   2   0 -11   -1.11    3.59
  -2   0  11    4.81    3.33
   2   0 -10  190.77   11.70
   2   0 -10  189.41   10.54
  -2   0  10  183.62   11.93
  -2   0  10  183.53   10.67
  -2   0  10  166.85   10.40
  -2   0  10  188.27   11.07
   2   0  -9   -2.81    3.09
  -2   0   9   -1.77    2.61
   2   0  -9    4.83    3.14
  -2   0   9    2.73    2.40
  -2   0   9    0.46    2.02
  -2   0   8    7.40    1.92
  -2   0   8    9.51    3.28
   2   0  -8   12.47    3.04
  -2   0   8    9.69    2.93
  -2   0   8    7.32    2.61
  -2   0   8   11.37    3.10
   2   0  -8   10.27    3.45
  -2   0   7    5.58    2.93
  -2   0   7    5.08    2.21
  -2   0   7   10.06    4.01
  -2   0   7   10.86    2.58
   2   0  -7   14.56    3.93
  -2   0   7    9.43    3.74
  -2   0   7    7.04    2.85
   2   0  -7   15.11    3.93
   2   0  -7   10.96    2.57
  -2   0   6  230.53   10.22
  -2   0   6  230.75    9.70
  -2   0   6  220.79    8.75
  -2   0   6  218.40    9.52
   2   0  -6  226.17    9.54
  -2   0   5   -1.35    1.50
  -2   1  18    0.15    6.33
   2  -1 -18    9.86    8.01
   2   1 -17   26.22    9.04
  -2  -1  17   18.12    7.61
  -2   1  17   35.60    9.25
  -2   1  17   26.89    8.24
  -2   1  17   29.31    8.65
   2  -1 -17   23.26    8.38
   2  -1 -17   33.02   10.63
   2   1 -17   27.79    9.54
   2  -1 -17   21.97    8.83
   2   1 -16  715.00   29.37
   2  -1 -16  801.02   32.20
  -2  -1  16  765.19   32.99
  -2   1  16  772.10   31.60
  -2  -1  16  784.40   31.49
  -2   1  16  749.69   32.59
  -2   1  16  779.24   32.90
   2  -1 -16  765.88   30.50
   2   1 -16  656.54   25.99
   2  -1 -16  758.33   29.98
   2   1 -15    2.04    6.64
  -2  -1  15   -0.40    5.77
  -2   1  15   -1.09    4.89
  -2   1  15    4.35    4.83
  -2  -1  15    4.36    5.52
  -2   1  15    3.54    5.37
   2  -1 -15   -5.31    6.14
   2  -1 -15   -6.74    7.41
   2   1 -15   -2.73    6.13
   2  -1 -15    3.82    6.24
   2   1 -14   35.22    7.56
  -2  -1  14   18.12    7.10
  -2   1  14   13.55    5.99
  -2  -1  14   29.04    8.41
  -2   1  14   13.94    5.55
  -2   1  14   19.06    6.45
   2  -1 -14   14.71    6.23
   2  -1 -14   23.57    7.88
   2   1 -14   19.61    6.86
   2  -1 -14   20.36    6.73
   2   1 -13   -5.76    4.99
  -2  -1  13   -0.66    4.20
  -2   1  13   -4.43    4.64
  -2  -1  13  -11.08    5.50
  -2   1  13    0.79    4.11
  -2   1  13   -1.41    4.92
   2  -1 -13   -1.80    5.09
   2   1 -13   -8.37    6.55
   2  -1 -13   -1.00    4.98
   2   1 -12    6.60    5.35
  -2  -1  12   12.88    5.18
  -2  -1  12    8.30    4.54
  -2   1  12   52.05    8.64
   2   1 -12   11.44    5.54
  -2   1  11   32.32    5.31
   2   1 -11   41.23    6.93
  -2  -1  11   30.29    6.38
  -2   1  11   37.09    6.50
  -2  -1  11   39.64    6.11
  -2   1  11   34.14    5.95
  -2   1  11   43.89    7.18
   2  -1 -11   35.85    6.81
   2   1 -11   39.09    7.02
   2  -1 -11   39.01    6.52
  -2   1  10  109.03    8.58
   2   1 -10   93.44    8.64
  -2  -1  10   85.09    8.23
  -2   1  10   92.00    8.54
  -2  -1  10   95.86    8.69
  -2   1  10   89.56    8.52
  -2   1  10   91.80    8.94
   2  -1 -10   87.88    8.71
   2   1 -10   94.32    8.97
   2  -1 -10   88.63    8.31
  -2   1   9   84.17    7.31
   2   1  -9   84.27    8.02
  -2  -1   9   79.34    7.63
  -2   1   9   87.70    8.24
  -2   1   9   82.09    8.18
  -2  -1   9   88.47    8.00
   2   1  -9   92.99    7.19
  -2   1   9   82.27    7.86
  -2  -1   9   91.71    6.79
   2   1  -9   78.27    6.76
  -2  -1   9   82.82    6.54
   2   1  -9   86.16    6.39
   2  -1  -9   93.15    8.37
  -2  -1   9   97.95    7.32
  -2  -1   9   97.57    7.11
   2  -1  -9   81.89    7.08
  -2   1   8  135.72    8.78
   2   1  -8  121.71    8.77
  -2  -1   8  130.13    8.83
  -2   1   8  132.12    8.79
  -2  -1   8  131.79    8.80
   2   1  -8  129.52    8.08
  -2   1   8  123.68    8.79
  -2  -1   8  132.27    7.53
  -2  -1   8  137.76    7.42
   2   1  -8  124.35    8.08
   2   1  -8  115.42    7.04
   2  -1  -8  135.71    9.45
  -2   1   8  135.90    9.57
  -2  -1   8  140.48    8.19
  -2  -1   8  135.08    7.92
   2  -1  -8  119.69    8.73
  -2   1   7  518.71   16.58
   2   1  -7  514.40   16.60
  -2  -1   7  538.18   16.55
  -2   1   7  504.20   12.96
  -2   1   7  526.91   16.41
  -2   1   7  516.75   17.39
  -2  -1   7  510.12   16.24
   2   1  -7  532.10   15.80
  -2   1   7  449.62   16.20
  -2  -1   7  522.97   13.14
   2   1  -7  516.94   15.76
   2  -1  -7  508.63   16.79
  -2  -1   7  524.76   15.23
  -2  -1   7  525.21   15.07
   2  -1  -7  498.50   15.99
  -2   1   6 3079.43   39.33
  -2  -1   6 2992.11   28.78
   2   1  -6 3060.54   38.18
  -2  -1   6 2898.97   36.69
  -2  -1   6 3021.31   37.35
   2   1  -6 2929.53   36.33
  -2   1   6 2962.57   38.95
  -2   1   6 2962.57   34.84
  -2   1   6 2948.51   39.72
   2   1  -6 2952.90   36.73
   2  -1  -6 3009.96   39.06
  -2  -1   6 2964.25   27.62
  -2  -1   6 3017.41   35.26
   2  -1  -6 3006.93   37.86
  -2  -1   6 3054.72   35.08
  -2   1   5 1081.52   24.02
   2   1  -5 1088.84   22.29
  -2  -1   5 1127.56   21.12
  -2  -1   5 1090.57   21.44
   2   1  -5 1112.04   21.84
  -2  -1   5 1155.79   16.45
  -2   1   5 1108.04   23.88
   2   1  -5 1110.45   21.63
  -2  -1   5 1102.19   20.90
  -2  -1   5 1088.45   20.84
  -2  -1   4  100.42    6.33
   2   1  -4   97.26    6.45
   2   1  -4   96.67    6.36
  -2  -1   4   92.75    6.14
  -2  -1   4   99.93    6.25
  -2  -1   3  720.53   16.02
  -2  -1   3  722.43   15.61
   2   1  -3  730.25   16.43
   2   1  -3  742.58   16.78
  -2  -1   3  702.56   15.81
   2   2 -16   26.20    8.99
  -2  -2  16   26.75    8.31
  -2  -2  16   12.55    7.43
  -2   2  16   10.02    5.56
  -2   2  16   36.77    8.93
   2  -2 -16   32.79    9.15
   2   2 -16   25.74    8.17
   2  -2 -16   48.74   10.37
   2   2 -15   92.75   12.18
  -2  -2  15   73.76   11.36
  -2  -2  15   91.97   12.94
  -2   2  15   88.42   11.93
  -2   2  15   70.68   10.81
   2  -2 -15   75.03   11.49
   2  -2 -15   75.77   11.40
   2   2 -15   78.99   11.92
  -2   2  14  504.72   24.60
   2   2 -14  464.38   23.81
  -2  -2  14  505.71   25.22
  -2  -2  14  493.44   25.56
  -2   2  14  518.71   25.89
  -2   2  14  496.73   25.74
   2  -2 -14  522.88   26.11
   2  -2 -14  510.18   25.00
   2   2 -14  457.73   23.14
   2  -2 -14  537.17   24.75
  -2   2  13   71.68    9.61
   2   2 -13   64.10    9.79
  -2  -2  13   66.31    9.30
  -2  -2  13   69.24   10.15
  -2   2  13   68.09    9.68
   2  -2 -13   76.74   10.81
  -2   2  13   68.79    9.90
   2  -2 -13   85.12   11.29
   2   2 -13   86.07   10.60
   2  -2 -13   78.24    9.97
  -2   2  12   14.45    5.69
   2   2 -12    5.54    5.71
  -2  -2  12    6.50    4.67
  -2  -2  12    3.34    5.16
  -2   2  12    1.94    4.80
  -2   2  12   10.81    5.32
   2  -2 -12    1.61    5.40
   2   2 -12   -6.15    6.11
   2  -2 -12    7.67    6.14
  -2   2  11   38.89    6.78
   2   2 -11   40.06    6.69
  -2  -2  11   48.07    7.84
   2   2 -11   36.24    7.40
  -2  -2  11   42.88    7.19
  -2  -2  11   44.67    7.62
  -2   2  11   31.24    6.42
  -2  -2  11   40.38    7.84
  -2   2  11   41.71    7.20
   2   2 -11   35.16    6.83
   2  -2 -11   35.76    7.11
   2   2 -11   46.46    7.69
   2  -2 -11   32.49    6.87
  -2   2  10   42.05    7.46
   2   2 -10   24.46    5.15
  -2  -2  10   31.14    6.47
  -2   2  10   30.46    6.40
   2   2 -10   28.28    7.07
  -2  -2  10   26.90    5.55
  -2  -2  10   26.44    5.96
  -2  -2  10   41.54    7.16
  -2   2  10   26.29    5.71
   2   2 -10   37.23    6.53
   2  -2 -10   38.92    7.11
   2   2 -10   32.40    6.28
   2  -2 -10   26.97    6.37
   2   2  -9   18.90    4.79
  -2   2   9   12.47    4.27
  -2  -2   9   18.11    5.49
   2   2  -9   21.06    6.38
  -2  -2   9   19.53    4.89
  -2  -2   9   11.25    5.19
  -2   2   9   11.70    4.65
  -2  -2   9   13.08    4.55
  -2   2   9   21.70    5.28
   2   2  -9   29.38    6.48
   2  -2  -9   18.33    6.29
   2   2  -9   28.79    5.91
   2  -2  -9   19.36    5.44
   2   2  -8    7.55    3.65
  -2   2   8    7.87    3.88
  -2  -2   8   13.47    4.71
   2   2  -8    6.40    4.27
  -2  -2   8    4.36    3.24
  -2  -2   8    7.35    3.78
  -2  -2   8    4.81    4.02
  -2   2   8    7.42    3.86
  -2   2   8    6.81    3.22
  -2   2   8   10.21    3.39
   2   2  -8    1.72    3.74
   2  -2  -8    3.68    3.91
   2   2  -8    5.51    4.18
   2  -2  -8    7.71    4.55
  -2   2   7   73.59    7.84
  -2  -2   7   64.78    6.47
  -2  -2   7   62.97    7.06
   2   2  -7   68.20    7.59
  -2  -2   7   63.85    7.21
   2   2  -7   75.82    8.04
  -2   2   7   76.80    7.86
   2   2  -7   68.20    7.60
  -2   2   7   72.39    6.76
  -2   2   7   68.83    7.16
   2  -2  -7   70.02    7.58
  -2  -2   7   80.77    7.89
   2   2  -7   68.53    6.40
   2  -2  -7   65.64    7.42
  -2   2   6   61.49    7.09
   2   2  -6   61.06    7.17
  -2  -2   6   54.39    5.61
  -2  -2   6   53.88    6.26
  -2  -2   6   58.19    6.63
   2   2  -6   54.25    6.55
  -2   2   6   56.74    6.18
  -2   2   6   55.88    6.55
   2   2  -6   56.66    6.17
   2   2  -6   53.88    6.83
  -2  -2   6   59.02    5.78
  -2  -2   6   64.71    6.98
   2  -2  -6   64.61    7.97
  -2   2   5 1534.06   34.35
   2   2  -5 1423.28   28.98
  -2  -2   5 1434.00   24.38
  -2  -2   5 1452.61   28.65
  -2   2   5 1526.97   32.49
   2   2  -5 1451.44   30.76
   2   2  -5 1433.45   30.00
  -2   2   5 1470.45   30.90
   2   2  -5 1423.01   28.47
  -2  -2   5 1459.85   29.19
  -2  -2   5 1427.16   26.22
  -2  -2   5 1480.42   29.76
   2  -2  -5 1427.17   31.05
  -2   2   4 1448.43   35.18
   2   2  -4 1615.71   29.14
  -2  -2   4 1653.90   29.10
   2   2  -4 1629.55   32.19
   2   2  -4 1617.59   31.31
   2   2  -4 1544.76   30.01
  -2  -2   4 1569.13   29.51
  -2  -2   4 1556.69   27.83
  -2  -2   4 1528.79   30.08
   2  -2  -4 1601.78   32.91
  -2  -2   3    0.16    2.68
   2   2  -3   -5.89    3.24
  -2  -2   3   -0.05    3.01
   2   2  -3    0.82    2.42
  -2  -2   3    2.05    2.66
   2   2  -3   -4.87    3.45
   2   2  -3    0.82    2.47
  -2  -2   3    0.33    3.26
  -2  -2   2    2.92    2.97
  -2  -2   2    6.39    3.75
   2   2  -2    4.95    2.84
  -2  -2   2    4.21    3.06
   2   2  -2    4.01    3.38
  -2  -2   2    3.33    1.99
   2   2  -2    4.90    3.07
   2   2  -2    1.93    2.18
   2   2  -1   84.61    6.20
   2   2  -1   89.88    7.79
   2   2  -1   89.47    7.28
   2   2  -1   80.09    7.29
  -2  -2   1   90.43    7.85
  -2  -2   1   86.62    6.87
  -2  -2   1   92.75    7.56
   2   2   0  110.32    7.95
   2   2   0  110.36    6.69
   2   2   0  107.07    8.19
   2   2   0  108.94    7.83
   2   2   0  116.00    8.69
  -2  -2   0  117.07    8.87
  -2  -2   0   99.96    7.57
  -2  -2   0   88.95    7.10
  -2  -2  -1    2.65    3.24
   2   2   1   -0.13    2.12
  -2  -2  -1    1.77    2.88
   2   2   1    1.68    2.05
   2   2   1    0.39    1.80
   2   2   1    1.36    2.49
   2   2   1    3.41    2.89
  -2  -2  -1    0.33    2.37
  -2  -2  -2   -1.07    2.98
   2   2   2    1.25    1.99
  -2  -2  -2    2.67    2.68
   2   2   2    3.47    2.07
   2   2   2    0.50    2.48
   2   2   2    2.28    2.51
   2   2   3  577.19   19.89
   2   2   3  629.24   17.01
   2   2   3  618.94   17.46
   2   2   3  648.96   20.17
  -2  -2  -3  673.33   20.05
  -2  -2  -3  587.01   16.75
   2   2   4   62.48    6.97
   2   2   4   70.18    6.42
   2   2   4   72.87    6.00
   2   2   4   71.88    7.05
  -2  -2  -4   72.56    7.23
  -2  -2  -4   73.88    5.79
   2   2   5  470.52   19.15
   2   2   5  510.62   18.02
  -2  -2  -5  513.68   17.98
   2   2   6 1161.98   31.15
   2   2   6 1181.39   29.16
  -2  -2  -6 1158.02   27.85
   2   2   7  793.67   26.93
   2   2   7  821.46   26.12
  -2  -2  -7  754.34   24.69
  -2   3  14    1.04    5.57
  -2   3  14    9.01    6.13
  -2   3  14   -1.69    5.99
   2  -3 -14   -1.97    7.32
   2  -3 -14   -0.64    8.26
   2  -3 -14  -22.25   10.15
  -2   3  13    4.04    5.24
   2   3 -13    2.04    7.13
  -2  -3  13  -10.90    7.06
  -2   3  13   -2.37    5.19
  -2   3  13    0.99    5.59
   2  -3 -13    4.26    7.41
   2  -3 -13    8.74    6.57
   2  -3 -13   -8.22    7.41
  -2  -3  12   32.67    8.94
  -2   3  12   28.28    8.59
   2   3 -12   27.30    7.18
   2   3 -12   27.82    8.63
   2   3 -12   29.37    8.45
  -2  -3  12   40.13    9.43
  -2   3  12   46.40    9.48
  -2   3  12   34.96    8.26
  -2  -3  12   53.89   10.38
   2  -3 -12   49.67    9.81
   2  -3 -12   35.41    8.12
   2  -3 -12   46.00   10.19
   2   3 -11    7.74    5.66
  -2  -3  11    2.19    5.86
  -2   3  11    4.79    5.23
   2   3 -11    0.93    5.95
  -2  -3  11    1.41    5.07
  -2  -3  11    0.22    6.35
   2   3 -11   -0.60    6.31
  -2   3  11   -3.51    5.96
   2  -3 -11   -1.11    6.12
   2  -3 -11   11.20    6.52
   2   3 -10   13.39    5.52
  -2   3  10    3.23    5.15
  -2  -3  10    7.99    7.02
   2   3 -10    2.78    6.04
  -2  -3  10    5.86    5.90
  -2  -3  10    3.69    5.52
   2   3 -10   -1.64    5.02
  -2   3  10    4.79    4.57
   2  -3 -10    2.13    6.01
   2   3  -9   64.01    9.56
  -2   3   9   47.66    9.25
  -2  -3   9   57.02    9.15
   2   3  -9   60.53    9.37
  -2  -3   9   65.69    9.21
  -2  -3   9   48.79    8.35
  -2   3   9   68.25    9.33
   2   3  -9   65.17    9.56
   2  -3  -9   72.27   10.27
   2   3  -8    1.69    5.07
  -2   3   8    4.24    5.26
  -2  -3   8    7.33    6.86
   2   3  -8    1.85    5.49
  -2  -3   8   16.81    6.99
  -2  -3   8    5.37    5.49
  -2   3   8    4.05    4.20
   2   3  -8    0.29    5.62
  -2   3   8    5.43    5.06
   2  -3  -8   -9.61    5.85
  -2   3   7  311.03   19.60
   2   3  -7  335.45   18.08
  -2  -3   7  318.89   16.80
   2   3  -7  292.87   17.69
   2   3  -7  291.40   17.69
  -2   3   7  339.01   18.10
  -2  -3   7  278.00   16.47
  -2  -3   7  299.09   17.71
   2  -3  -7  346.44   19.03
  -2   3   6  145.95   14.30
   2   3  -6  150.44   11.81
  -2  -3   6  154.75   11.82
   2   3  -6  146.24   12.57
   2   3  -6  164.58   13.19
   2   3  -6  154.15   12.03
  -2  -3   6  155.77   12.42
  -2  -3   6  169.09   12.53
  -2  -3   6  159.83   13.34
   2  -3  -6  160.02   13.13
   2   3  -5  370.14   17.60
  -2  -3   5  364.29   16.61
   2   3  -5  354.64   18.93
   2   3  -5  335.11   17.85
  -2   3   5  376.60   21.02
   2   3  -5  349.56   17.75
  -2  -3   5  337.69   17.16
  -2  -3   5  390.81   17.59
  -2  -3   5  350.63   18.24
   2  -3  -5  387.32   19.57
   2   3  -4  182.30   11.92
  -2  -3   4  182.46   11.58
   2   3  -4  181.97   13.56
   2   3  -4  160.51   12.32
   2   3  -4  161.64   12.19
  -2  -3   4  163.73   12.08
  -2  -3   4  191.21   12.62
  -2  -3   4  163.50   12.82
   2   3  -3  195.99   13.73
   2   3  -3  207.63   13.72
   2   3  -3  203.60   13.69
  -2  -3   3  210.19   13.45
  -2  -3   3  197.77   13.31
  -2  -3   3  217.65   13.88
   2   3  -2  168.75   12.84
   2   3  -2  162.03   12.14
   2   3  -2  168.38   12.60
  -2  -3   2  160.72   12.44
  -2  -3   2  141.01   11.10
  -2  -3   2  157.07   12.32
  -2  -3   1    3.10    4.45
   2   3  -1    8.84    4.41
  -2  -3   1   13.65    4.80
  -2  -3   1   12.56    5.45
   2   3  -1   10.66    5.19
   2   3  -1    7.42    3.85
  -2  -3   0   21.78    6.56
   2   3   0   26.33    5.06
   2   3   0   30.16    5.64
  -2  -3   0   28.78    5.90
  -2  -3   0   34.43    6.23
   2   3   0   23.07    5.99
   2   3   0   34.86    6.60
  -2  -3  -1   14.45    4.63
  -2  -3  -1   21.32    6.76
   2   3   1   18.70    5.73
   2   3   1   13.86    4.46
  -2  -3  -1   19.62    5.82
   2   3   1   28.91    6.14
   2   3   1   10.95    4.70
  -2  -3  -2    5.15    4.52
   2   3   2    5.37    3.71
  -2  -3  -2    7.38    3.94
   2   3   2    4.65    3.04
  -2  -3  -2   12.64    5.00
   2   3   2    9.07    4.42
   2   3   2    5.45    4.22
  -2  -3  -3   69.35    9.11
   2   3   3   66.11    8.40
   2   3   3   68.27    8.79
   2   3   4  451.78   20.71
   2   3   4  481.19   21.92
  -2  -3  -4  452.29   20.61
   2   3   5 1383.25   37.25
   2   3   5 1367.24   36.50
  -2  -3  -5 1412.39   35.65
   2   3   6  265.18   17.81
  -2  -3  -6  293.91   17.10
  -2  -3  -7   56.73    8.64
   2   3   7   43.10    8.62
  -2  -3  -8   -8.73    5.53
   2   3   8    0.78    4.47
   2   3   9    6.09    5.93
  -2  -4  10   -1.86    7.51
   2   4 -10   -0.13    6.54
   2   4 -10   -7.75    9.02
  -2  -4  10    4.20    7.14
   2   4 -10    4.59    7.89
  -2  -4  10   -2.56    7.25
  -2  -4   9   11.50    8.13
   2   4  -9    5.79    6.55
   2   4  -9   -8.13    7.65
  -2  -4   9   -1.69    6.15
   2   4  -9   13.55    7.92
  -2  -4   9   -1.84    8.58
  -2  -4   8   11.51    8.58
   2   4  -8    8.48    6.07
   2   4  -8    6.73    6.70
  -2  -4   8    4.65    7.33
   2   4  -7   20.87    7.44
  -2  -4   7   27.01    8.93
   2   4  -7   35.11    9.58
  -2  -4   7   35.95    9.50
   2   4  -6  276.94   20.35
   2   4  -6  247.70   18.53
  -2  -4   6  278.43   20.06
  -2  -4   6  255.11   18.26
  -2  -4   5  104.82   13.58
   2   4  -5  101.59   12.46
   2   4  -5  113.89   13.40
   2   4  -5  107.47   12.33
  -2  -4   5  107.05   12.21
  -2  -4   5   97.62   11.87
  -2  -4   4   25.58    7.49
   2   4  -4   10.42    5.51
  -2  -4   4    7.10    6.12
   2   4  -4   13.29    7.53
   2   4  -4   20.34    6.94
  -2  -4   4   13.52    6.31
  -2  -4   3   55.28    9.56
   2   4  -3   53.06    8.76
  -2  -4   3   50.64   10.24
   2   4  -3   43.36    8.92
   2   4  -3   51.72   10.06
  -2  -4   3   54.71   10.25
  -2  -4   2    7.63    6.60
   2   4  -2    8.12    4.87
  -2  -4   2   17.11    6.21
   2   4  -2    9.36    6.65
   2   4  -2    7.96    5.11
  -2  -4   2    6.27    6.65
  -2  -4   1    8.67    5.44
   2   4  -1   14.38    5.40
  -2  -4   1   19.57    6.37
   2   4  -1    9.42    6.33
   2   4  -1   11.11    6.05
  -2  -4   1   19.62    7.43
  -2  -4   0   11.92    6.93
   2   4   0   11.31    4.87
  -2  -4   0   13.29    6.55
   2   4   0   12.83    5.89
   2   4   0   18.53    6.78
  -2  -4   0   26.44    8.23
  -2  -4  -1   14.06    6.32
   2   4   1    0.64    4.23
  -2  -4  -1   -0.34    5.42
   2   4   1    6.58    6.23
   2   4   1    3.15    4.92
  -2  -4  -1    7.09    7.22
   2   4   2   12.38    6.54
  -2  -4  -2    8.15    5.71
  -2  -4  -3   36.86    8.63
   2   4   3   28.28    7.67
   2   4   3   15.67    6.75
  -2  -4  -3   21.03    7.65
   2   4   4  312.02   20.58
   2   4   4  341.00   21.53
  -2  -4  -4  345.67   21.01
  -2  -4  -4  338.19   21.16
  -2  -4  -5   69.39   11.13
   2   4   5   47.45    8.97
   2   4   5   52.96    9.64
  -2  -4  -5   46.00    9.48
   2   4   6  201.11   18.17
   2   4   6  173.69   15.85
  -2  -4  -6  176.05   15.94
  -2  -4  -6  200.80   16.92
  -2  -4  -7  176.47   17.02
  -2  -4  -7  193.74   16.34
  -2  -4  -8   21.50    7.58
   2   4   8   25.16   10.12
  -3   0  17   -1.61    5.69
  -3   0  17   -4.48    5.34
   3   0 -17  -12.54    7.67
   3   0 -17   -1.93    7.63
  -3   0  16   12.62    7.35
  -3   0  16    4.33    5.42
   3   0 -16   -1.21    6.05
   3   0 -16    6.64    6.51
   3   0 -16   -1.01    6.49
  -3   0  16   16.58    6.68
  -3   0  15    0.85    5.08
  -3   0  15   -1.91    4.52
  -3   0  15    1.19    4.59
   3   0 -15    5.17    5.86
   3   0 -15   10.93    6.38
   3   0 -15   -5.20    6.40
  -3   0  14   39.97    8.50
  -3   0  14   35.58    6.92
  -3   0  14   47.81    8.03
   3   0 -14   49.06    8.51
   3   0 -14   24.49    6.49
  -3   0  13    0.81    4.54
  -3   0  13   -1.60    3.75
  -3   0  13    1.23    4.16
   3   0 -13   -1.87    4.87
   3   0 -12  148.99   10.88
  -3   0  12  152.22   12.38
  -3   0  12  136.58   11.24
  -3   0  12  142.58   10.92
   3   0 -12  162.11   12.08
  -3   0  11   -2.08    3.63
   3   0 -11   -3.08    4.02
  -3   0  11   -4.38    3.79
   3   0 -11   -7.43    4.32
   3   0 -10  205.08   11.42
  -3   0  10  207.95   13.11
  -3   0  10  196.98   11.74
  -3   0   9    4.56    3.44
   3   0  -9    2.74    2.83
  -3   0   9    1.01    2.53
  -3   1  18   21.35    8.76
   3   1 -17   45.28   11.03
  -3  -1  17   32.84    9.28
  -3   1  17   42.45    9.70
  -3   1  17   25.91    8.68
  -3   1  17   36.65    9.48
   3  -1 -17   39.91    9.74
   3  -1 -17   23.01    8.64
   3   1 -17   40.66   10.68
   3  -1 -17   44.91   11.44
   3   1 -16  353.65   21.38
  -3  -1  16  373.45   23.34
  -3   1  16  365.53   22.06
  -3  -1  16  341.68   21.41
  -3   1  16  359.21   23.14
  -3   1  16  390.16   23.64
   3  -1 -16  410.71   24.25
   3  -1 -16  418.72   24.17
   3   1 -16  379.59   22.85
   3  -1 -16  367.96   22.48
   3   1 -15    9.94    6.49
  -3  -1  15   15.74    6.64
  -3   1  15   16.72    6.41
  -3  -1  15   20.53    6.77
  -3   1  15   21.01    7.03
  -3   1  15   22.16    6.72
   3  -1 -15   28.04    8.14
   3   1 -15   36.66    8.71
   3  -1 -15   25.11    7.55
   3   1 -14   53.93    8.49
  -3  -1  14   71.51   10.37
  -3   1  14   68.14    9.40
  -3  -1  14   80.40   10.31
  -3   1  14   63.58    9.34
  -3   1  14   65.29    9.33
   3  -1 -14   81.93   11.16
   3   1 -14   75.60   10.35
   3  -1 -14   67.70    9.85
   3   1 -13   17.70    6.58
  -3  -1  13   19.38    6.18
  -3   1  13   26.62    6.37
  -3  -1  13   14.79    5.66
  -3   1  13   20.31    5.72
  -3   1  13   13.15    5.43
   3  -1 -13   28.50    7.95
   3   1 -13   17.62    6.57
   3   1 -12    7.02    5.01
  -3  -1  12    5.61    4.38
  -3   1  12   -1.23    4.07
  -3  -1  12    3.83    4.81
  -3   1  12   -1.68    3.96
  -3   1  12   -2.52    4.03
   3  -1 -12    0.01    4.80
  -3   1  11   20.70    5.19
  -3  -1  11   25.06    5.94
   3   1 -11   21.92    5.68
  -3  -1  11   22.01    5.60
  -3   1  11   16.65    5.17
  -3   1  11   21.02    5.74
   3  -1 -11   13.66    5.12
  -3   1  10    1.13    2.90
   3   1 -10   -6.17    4.59
  -3   1  10    1.03    3.74
   3  -1 -10   -0.39    4.26
   3   1  -9  250.47   13.64
  -3  -1   9  249.09   13.63
  -3  -1   9  254.98   13.66
   3   1  -9  256.42   12.52
  -3  -1   9  250.71   11.70
  -3  -1   8   13.72    3.59
  -3  -1   8    9.67    3.04
   3   1  -8   10.60    3.83
  -3  -1   8   14.84    3.96
  -3  -1   8   12.05    3.00
   3   1  -8   12.03    3.45
   3   1  -7  637.44   20.00
  -3  -1   7  673.66   19.61
   3   1  -7  666.85   19.20
  -3  -1   7  676.26   18.10
   3   2 -16    5.65    7.30
  -3  -2  16   10.81    7.00
  -3  -2  16    3.92    6.68
  -3   2  16   11.00    6.98
   3  -2 -16   26.08   11.18
   3   2 -16    8.59    8.40
   3   2 -15   -1.83    6.91
  -3  -2  15    4.55    6.63
  -3  -2  15   -8.73    7.36
  -3   2  15  -13.93    7.84
   3   2 -15    0.30    6.78
   3   2 -14   63.61   10.54
  -3  -2  14   71.03   10.58
  -3  -2  14   57.17   10.42
  -3   2  14   54.63   10.29
   3   2 -14   68.59   11.25
  -3   2  13   59.32    9.21
   3   2 -13   53.58    9.66
  -3  -2  13   38.50    7.18
  -3  -2  13   44.03    9.06
  -3   2  13   30.86    7.39
   3   2 -13   34.44    8.59
  -3   2  12    2.78    4.19
   3   2 -12   -0.49    6.06
  -3  -2  12   -1.35    5.72
  -3  -2  12    7.84    6.64
  -3   2  12    3.27    5.07
   3   2 -12    4.01    5.59
  -3   2  11   37.83    7.65
  -3  -2  11   18.53    5.19
  -3  -2  11   25.03    6.05
   3   2 -11    9.98    5.78
   3   2 -11   20.63    5.57
  -3  -2  11   21.16    5.84
  -3  -2  11   31.00    6.77
  -3   2  11   25.36    6.70
   3   2 -11   21.00    6.04
   3   2 -11   15.27    6.18
  -3  -2  10   -2.27    4.46
   3   2 -10    5.70    3.98
   3   2 -10   12.52    5.54
  -3  -2  10   17.41    5.03
  -3  -2  10   19.35    5.99
  -3  -2  10   10.09    4.68
   3   2 -10   15.96    5.74
  -3  -2   9  412.91   18.30
   3   2  -9  419.31   19.79
  -3  -2   9  421.49   18.03
  -3  -2   9  427.96   19.00
   3   2  -9  428.56   19.58
   3   2  -9  389.26   18.22
  -3  -2   9  419.62   18.11
  -3  -2   8  403.64   17.61
   3   2  -8  409.32   18.56
  -3  -2   8  370.41   17.08
   3   2  -8  392.71   18.41
   3   2  -8  384.00   18.02
  -3  -2   8  422.46   17.89
  -3  -2   7  973.68   26.29
   3   2  -7  974.11   27.36
  -3  -2   7  982.07   26.71
   3   2  -7  980.62   28.31
   3   2  -7  981.74   27.44
  -3  -2   7 1024.28   27.41
  -3  -2   6   25.54    4.76
   3   2  -6   23.68    5.06
  -3  -2   6   27.36    5.36
   3   2  -6   28.94    5.82
  -3  -2   6   29.01    5.14
   3   2  -6   28.96    5.51
  -3  -2   6   32.55    5.71
  -3  -2   5  341.65   15.16
   3   2  -5  337.36   14.75
  -3  -2   5  325.72   14.14
   3   2  -5  343.28   16.13
   3   2  -5  327.43   15.58
  -3  -2   5  338.67   14.81
  -3  -2   5  313.86   14.70
  -3  -2   4  138.22    9.34
   3   2  -4  129.83    8.83
   3   2  -4  118.57    9.36
   3   2  -4  133.31    9.61
  -3  -2   4  141.88    9.33
  -3  -2   4  140.24    9.64
   3   3 -13   34.03   10.18
  -3  -3  13   26.16    8.39
  -3  -3  12  -15.63    7.82
  -3  -3  12    4.67    6.40
   3   3 -12  -14.17    7.84
   3   3 -12   -3.99    5.30
  -3  -3  12    1.83    5.99
   3   3 -12    1.29    5.82
  -3  -3  11   13.26    7.27
   3   3 -11   10.96    5.72
   3   3 -11   10.62    7.47
  -3  -3  11    3.82    6.32
   3   3 -11   13.42    6.30
  -3  -3  11   19.57    7.43
  -3  -3  10    2.34    5.59
   3   3 -10    1.63    5.41
   3   3 -10    0.06    6.13
  -3  -3  10    9.22    5.44
  -3  -3  10    3.49    6.43
   3   3 -10    9.99    6.66
   3   3  -9  214.34   15.99
  -3  -3   9  206.50   15.31
   3   3  -9  198.44   16.19
   3   3  -9  225.20   16.68
  -3  -3   9  216.27   16.52
  -3  -3   9  234.17   16.59
   3   3  -8  355.14   19.57
  -3  -3   8  343.22   18.52
   3   3  -8  333.92   19.88
   3   3  -8  349.52   19.92
  -3  -3   8  388.35   20.39
  -3  -3   8  362.75   19.63
   3   3  -7  380.38   19.82
  -3  -3   7  385.79   19.03
   3   3  -7  352.35   20.23
   3   3  -7  380.99   20.61
  -3  -3   7  377.84   20.37
  -3  -3   7  376.99   19.76
  -3  -3   6   49.26    7.45
   3   3  -6   48.13    7.92
  -3  -3   6   50.99    8.29
   3   3  -6   56.37    8.43
  -3  -3   6   41.88    6.85
  -3  -3   6   50.22    8.09
   3   3  -6   42.08    7.58
  -3  -3   5   52.97    7.62
   3   3  -5   44.71    7.67
  -3  -3   5   46.05    8.23
   3   3  -5   57.08    8.57
  -3  -3   5   44.66    7.04
   3   3  -5   47.41    8.37
  -3  -3   5   65.70    9.09
   3   3  -5   47.92    7.15
  -3  -3   4   18.05    5.79
  -3  -3   4   20.70    5.81
   3   3  -4   27.85    6.44
  -3  -3   4   20.24    6.59
   3   3  -4   24.50    6.16
   3   3  -4   21.02    6.08
   3   3  -4   15.97    4.86
  -3  -3   3   -3.33    4.57
  -3  -3   3   -7.92    5.26
  -3  -3   3   -4.90    5.10
   3   3  -3   -1.20    3.55
   3   3  -3  -13.10    5.80
   3   3  -3   -0.91    3.25
  -3  -3   2    7.27    5.11
  -3  -3   2    9.68    5.06
  -3  -3   2    9.11    5.47
   3   3  -2   -5.49    4.16
   3   3  -2  -10.51    5.86
   3   3  -2    1.63    3.39
  -3  -3   1    0.03    4.56
  -3  -3   1    5.32    4.93
   3   3  -1   -3.40    4.71
   3   3  -1    2.45    3.66
  -3  -3   0   36.48    7.35
  -3  -3   0   39.78    7.08
   3   3   0   35.18    6.86
   3   3   0   30.92    6.30
   3   4 -10   14.01    8.80
  -3  -4  10    4.40    6.18
  -3  -4   9   96.68   13.29
   3   4  -9   90.79   13.11
   3   4  -9   96.07   12.96
  -3  -4   9   89.05   11.84
   3   4  -9   98.71   13.66
  -3  -4   9   82.00   12.47
  -3  -4   8   60.63   11.33
   3   4  -8   50.27   10.42
   3   4  -8   48.72   10.76
  -3  -4   8   53.12   10.16
   3   4  -7  481.65   26.66
   3   4  -7  473.91   26.66
  -3  -4   7  528.64   27.65
  -3  -4   7  511.72   26.71
   3   4  -6  300.35   21.27
   3   4  -6  303.38   21.02
  -3  -4   6  305.87   21.56
  -3  -4   6  316.93   20.61
  -3  -4   5   13.32    7.16
   3   4  -5   -4.01    5.24
  -3  -4   5   -5.20    6.83
   3   4  -5   -2.09    6.63
   3   4  -5   -3.18    5.38
  -3  -4   5    8.53    6.61
  -3  -4   4  116.50   13.72
   3   4  -4  106.93   12.23
   3   4  -4  104.04   12.62
   3   4  -4   98.62   12.37
  -3  -4   4  105.04   12.55
  -3  -4   4  141.73   14.48
  -3  -4   3    2.57    6.15
   3   4  -3   -0.99    5.21
  -3  -4   3    5.28    5.82
   3   4  -3    5.98    6.02
   3   4  -3    8.94    5.56
  -3  -4   3   15.03    7.11
  -3  -4   2    0.12    6.11
  -3  -4   2    0.03    6.26
   3   4  -2    5.09    4.80
  -3  -4   2  -10.69    5.75
   3   4  -2    3.06    5.78
   3   4  -2   -4.11    4.53
  -3  -4   1   47.00    9.40
  -3  -4   1   43.09    8.91
   3   4  -1   42.94    9.17
   3   4  -1   46.02    8.72
  -3  -4   0  -10.97    7.83
  -3  -4   0    3.03    4.98
   3   4   0    4.26    4.79
   3   4   0   10.86    6.20
  -3  -4  -1   32.84    7.98
  -3  -4  -1   30.06    7.58
   3   4   1   48.48    8.79
   3   4   1   43.88    8.58
   4   1 -17    5.39    8.59
   4   1 -16   10.96    7.84
  -4  -1  16   17.77    7.67
   4   1 -16   19.73    8.04
   4   1 -15   24.93    7.62
   4   1 -15   15.11    6.47
   4   1 -14   34.04    7.75
  -4  -2  16    7.01    6.90
   4   2 -16   -3.49    7.48
   4   2 -15    3.79    7.48
  -4  -2  15   17.12    7.62
   4   2 -15    8.08    7.18
   4   2 -14   -5.34    7.11
  -4  -2  14    7.59    6.09
   4   2 -14   -2.29    7.57
   4   2 -13   13.49    7.21
  -4  -2  13   32.34    7.85
   4   2 -13   32.61    8.04
   4   2 -12    1.39    5.93
  -4  -2  12    2.32    4.65
   4   2 -11  338.29   19.85
  -4  -2  11  319.43   18.28
   4   2 -11  347.30   18.91
  -4  -2  11  388.01   18.43
   4   3 -13   -2.92    7.20
  -4  -3  13    0.23    5.67
  -4  -3  12   -5.09    6.11
   4   3 -12   15.93    8.14
  -4  -3  12    5.38    6.07
   4   3 -12   -2.15    6.78
  -4  -3  11  105.04   12.38
   4   3 -11  107.46   12.13
  -4  -3  11   93.55   11.01
   4   3 -11   98.58   13.26
  -4  -3  10   59.63    9.49
   4   3 -10   59.13    9.59
   4   3 -10   67.49   10.51
   4   3  -9  557.71   24.55
   4   3  -9  537.89   25.97
   0   0   0    0.00    0.00



TITL 4edp in P2(1)/c
REM P2(1)/c (#14 in standard setting)
CELL 0.71073   9.197751   4.006389  14.945867  90.0000  99.5419  90.0000
ZERR    4.00   0.009017   0.000296   0.001533   0.0000   0.0348   0.0000
LATT  1
SYMM -x, y+1/2,-z+1/2
SFAC C H O
UNIT 24.00 56.00 4.00
TREF
HKLF 4
END
_computing_structure_solution     'SHELXT 2018/2 (Sheldrick, 2018)'
_computing_structure_solution     'SHELXT 2018/2 (Sheldrick, 2018)'
;
_shelx_hkl_checksum              26054
_olex2_submission_special_instructions 'No special instructions were received'
loop_
_space_group_symop_operation_xyz
'x, y, z'
'-x, y+1/2, -z+1/2'
'-x, -y, -z'
'x, -y-1/2, z-1/2'
loop_
_atom_site_label
_atom_site_type_symbol
_atom_site_fract_x
_atom_site_fract_y
_atom_site_fract_z
_atom_site_U_iso_or_equiv
_atom_site_adp_type
_atom_site_occupancy
_atom_site_site_symmetry_order
_atom_site_calc_flag
_atom_site_refinement_flags_posn
_atom_site_refinement_flags_adp
_atom_site_refinement_flags_occupancy
_atom_site_disorder_assembly
_atom_site_disorder_group
O1 O 0.4590(6) 0.8573(4) 0.13140(11) 0.032(3) Uani 1 1 d . . . . .
C1 C 0.3718(9) 0.7137(6) 0.05340(17) 0.038(5) Uani 1 1 d . . . . .
H11 H 0.376898 0.472271 0.057771 0.045 Uiso 1 1 calc R U . . .
H12 H 0.410512 0.780373 -0.000437 0.045 Uiso 1 1 calc R U . . .
C2 C 0.2172(11) 0.8215(6) 0.04531(19) 0.040(5) Uani 1 1 d . . . . .
H22 H 0.213852 1.062364 0.051246 0.049 Uiso 1 1 calc R U . . .
H21 H 0.174194 0.724233 0.094321 0.049 Uiso 1 1 calc R U . . .
C3 C 0.1266(7) 0.7189(4) -0.04495(14) 0.038(4) Uani 1 1 d . . . . .
H33 H 0.030179 0.816785 -0.050866 0.056 Uiso 1 1 calc R U . . .
H31 H 0.117814 0.480141 -0.047387 0.056 Uiso 1 1 calc R U . . .
H32 H 0.174456 0.794864 -0.093598 0.056 Uiso 1 1 calc R U . . .
C4 C 0.6039(8) 0.7236(5) 0.14848(16) 0.033(5) Uani 1 1 d . . . . .
H41 H 0.656253 0.787994 0.099948 0.039 Uiso 1 1 calc R U . . .
H42 H 0.598715 0.481810 0.149553 0.039 Uiso 1 1 calc R U . . .
C5 C 0.6864(10) 0.8467(6) 0.23728(17) 0.041(6) Uani 1 1 d . . . . .
H51 H 0.682788 1.088614 0.238299 0.049 Uiso 1 1 calc R U . . .
H52 H 0.638802 0.764234 0.286161 0.049 Uiso 1 1 calc R U . . .
C6 C 0.8428(10) 0.7367(7) 0.25265(18) 0.037(5) Uani 1 1 d . . . . .
H63 H 0.892849 0.828515 0.308717 0.055 Uiso 1 1 calc R U . . .
H61 H 0.889671 0.813054 0.203603 0.055 Uiso 1 1 calc R U . . .
H62 H 0.846929 0.497451 0.255561 0.055 Uiso 1 1 calc R U . . .
loop_
_atom_site_aniso_label
_atom_site_aniso_U_11
_atom_site_aniso_U_22
_atom_site_aniso_U_33
_atom_site_aniso_U_23
_atom_site_aniso_U_13
_atom_site_aniso_U_12
O1 0.028(10) 0.0343(10) 0.0316(10) -0.0050(6) -0.005(3) 0.0025(15)
C1 0.061(15) 0.0259(12) 0.0248(13) -0.0016(9) 0.004(4) -0.002(2)
C2 0.061(16) 0.0286(13) 0.0321(15) -0.0007(9) 0.009(4) 0.005(2)
C3 0.044(12) 0.0368(11) 0.0302(13) 0.0003(7) 0.001(3) 0.0008(18)
C4 0.040(15) 0.0298(12) 0.0263(15) 0.0037(8) -0.001(4) 0.004(2)
C5 0.063(18) 0.0299(13) 0.0285(14) 0.0028(9) 0.005(4) 0.004(2)
C6 0.041(18) 0.0367(16) 0.0287(15) 0.0030(9) -0.004(4) -0.005(3)
loop_
_atom_type_symbol
_atom_type_description
_atom_type_scat_dispersion_real
_atom_type_scat_dispersion_imag
_atom_type_scat_source
C C 0.0033 0.0016 'International Tables Vol C Tables 4.2.6.8 and 6.1.1.4'
H H 0.0000 0.0000 'International Tables Vol C Tables 4.2.6.8 and 6.1.1.4'
O O 0.0106 0.0060 'International Tables Vol C Tables 4.2.6.8 and 6.1.1.4'
loop_
_geom_angle_atom_site_label_1
_geom_angle_atom_site_label_2
_geom_angle_atom_site_label_3
_geom_angle
_geom_angle_site_symmetry_1
_geom_angle_site_symmetry_3
_geom_angle_publ_flag
C4 O1 C1 112.3(3) . . ?
O1 C1 H11 109.5 . . ?
O1 C1 H12 109.5 . . ?
O1 C1 C2 110.8(3) . . ?
H11 C1 H12 108.1 . . ?
C2 C1 H11 109.5 . . ?
C2 C1 H12 109.5 . . ?
C1 C2 H22 109.2 . . ?
C1 C2 H21 109.2 . . ?
C1 C2 C3 111.9(3) . . ?
H22 C2 H21 107.9 . . ?
C3 C2 H22 109.2 . . ?
C3 C2 H21 109.2 . . ?
C2 C3 H33 109.5 . . ?
C2 C3 H31 109.5 . . ?
C2 C3 H32 109.5 . . ?
H33 C3 H31 109.5 . . ?
H33 C3 H32 109.5 . . ?
H31 C3 H32 109.5 . . ?
O1 C4 H41 109.4 . . ?
O1 C4 H42 109.4 . . ?
O1 C4 C5 111.0(4) . . ?
H41 C4 H42 108.0 . . ?
C5 C4 H41 109.4 . . ?
C5 C4 H42 109.4 . . ?
C4 C5 H51 109.2 . . ?
C4 C5 H52 109.2 . . ?
H51 C5 H52 107.9 . . ?
C6 C5 C4 112.0(4) . . ?
C6 C5 H51 109.2 . . ?
C6 C5 H52 109.2 . . ?
C5 C6 H63 109.5 . . ?
C5 C6 H61 109.5 . . ?
C5 C6 H62 109.5 . . ?
H63 C6 H61 109.5 . . ?
H63 C6 H62 109.5 . . ?
H61 C6 H62 109.5 . . ?
loop_
_geom_bond_atom_site_label_1
_geom_bond_atom_site_label_2
_geom_bond_distance
_geom_bond_site_symmetry_2
_geom_bond_publ_flag
O1 C1 1.423(7) . ?
O1 C4 1.419(9) . ?
C1 H11 0.9700 . ?
C1 H12 0.9700 . ?
C1 C2 1.472(14) . ?
C2 H22 0.9700 . ?
C2 H21 0.9700 . ?
C2 C3 1.520(7) . ?
C3 H33 0.9600 . ?
C3 H31 0.9600 . ?
C3 H32 0.9600 . ?
C4 H41 0.9700 . ?
C4 H42 0.9700 . ?
C4 C5 1.499(6) . ?
C5 H51 0.9700 . ?
C5 H52 0.9700 . ?
C5 C6 1.485(13) . ?
C6 H63 0.9600 . ?
C6 H61 0.9600 . ?
C6 H62 0.9600 . ?
loop_
_geom_torsion_atom_site_label_1
_geom_torsion_atom_site_label_2
_geom_torsion_atom_site_label_3
_geom_torsion_atom_site_label_4
_geom_torsion
_geom_torsion_site_symmetry_1
_geom_torsion_site_symmetry_2
_geom_torsion_site_symmetry_3
_geom_torsion_site_symmetry_4
_geom_torsion_publ_flag
O1 C1 C2 C3 170.71(15) . . . . ?
O1 C4 C5 C6 -174.5(4) . . . . ?
C1 O1 C4 C5 -172.7(2) . . . . ?
C4 O1 C1 C2 171.8(3) . . . . ?
