#------------------------------------------------------------------------------
#$Date: 2024-02-05 14:10:53 +0200 (Mon, 05 Feb 2024) $
#$Revision: 289698 $
#$URL: file:///home/coder/svn-repositories/cod/cif/1/57/03/1570304.cif $
#------------------------------------------------------------------------------
#
# This file is available in the Crystallography Open Database (COD),
# http://www.crystallography.net/
#
# All data on this site have been placed in the public domain by the
# contributors.
#
data_1570304
loop_
_publ_author_name
'Chen, An'
'Cai, Peishan'
'Peng, Yayun'
'Guo, Minshan'
'Su, Yuan'
'Cai, Ting'
_publ_section_title
;
 The role of alkyl chain length in the melt and solution crystallization
 of paliperidone aliphatic prodrugs.
;
_journal_issue                   'Pt 1'
_journal_name_full               IUCrJ
_journal_page_first              23
_journal_page_last               33
_journal_paper_doi               10.1107/S2052252523009582
_journal_volume                  11
_journal_year                    2024
_chemical_formula_moiety         'C35 H49 F N4 O4'
_chemical_formula_sum            'C35 H49 F N4 O4'
_chemical_formula_weight         608.78
_space_group_crystal_system      monoclinic
_space_group_IT_number           14
_space_group_name_Hall           '-P 2ybc'
_space_group_name_H-M_alt        'P 1 21/c 1'
_atom_sites_solution_hydrogens   geom
_atom_sites_solution_primary     dual
_audit_creation_date             2020-09-30
_audit_creation_method
;
Olex2 1.2
(compiled 2018.05.29 svn.r3508 for OlexSys, GUI svn.r5506)
;
_cell_angle_alpha                90
_cell_angle_beta                 99.374(3)
_cell_angle_gamma                90
_cell_formula_units_Z            4
_cell_length_a                   31.029(3)
_cell_length_b                   9.9381(10)
_cell_length_c                   10.8384(11)
_cell_measurement_reflns_used    3105
_cell_measurement_temperature    170
_cell_measurement_theta_max      23.914
_cell_measurement_theta_min      2.443
_cell_volume                     3297.6(6)
_computing_cell_refinement       'SAINT V8.40A (?, 2016)'
_computing_data_reduction        'SAINT V8.40A (?, 2016)'
_computing_molecular_graphics    'Olex2 (Dolomanov et al., 2009)'
_computing_publication_material  'Olex2 (Dolomanov et al., 2009)'
_computing_structure_refinement  'ShelXL (Sheldrick, 2015)'
_computing_structure_solution    'ShelXT (Sheldrick, 2015)'
_diffrn_ambient_temperature      170.0
_diffrn_measured_fraction_theta_full 0.980
_diffrn_measured_fraction_theta_max 0.973
_diffrn_measurement_device_type  'Bruker APEX-II CCD'
_diffrn_measurement_method       '\f and \w scans'
_diffrn_radiation_type           MoK\a
_diffrn_radiation_wavelength     0.71073
_diffrn_reflns_av_R_equivalents  0.0925
_diffrn_reflns_av_unetI/netI     0.0901
_diffrn_reflns_Laue_measured_fraction_full 0.980
_diffrn_reflns_Laue_measured_fraction_max 0.973
_diffrn_reflns_limit_h_max       38
_diffrn_reflns_limit_h_min       -38
_diffrn_reflns_limit_k_max       11
_diffrn_reflns_limit_k_min       -12
_diffrn_reflns_limit_l_max       13
_diffrn_reflns_limit_l_min       -13
_diffrn_reflns_number            24015
_diffrn_reflns_point_group_measured_fraction_full 0.980
_diffrn_reflns_point_group_measured_fraction_max 0.973
_diffrn_reflns_theta_full        25.242
_diffrn_reflns_theta_max         26.376
_diffrn_reflns_theta_min         1.996
_diffrn_standards_number         0
_exptl_absorpt_coefficient_mu    0.084
_exptl_absorpt_correction_T_max  0.7454
_exptl_absorpt_correction_T_min  0.6667
_exptl_absorpt_correction_type   multi-scan
_exptl_absorpt_process_details
'SADABS-2016/2 (Bruker,2016/2) was used for absorption correction. wR2(int) was 0.1229 before and 0.0630 after correction. The Ratio of minimum to maximum transmission is 0.8944. The \l/2 correction factor is Not present.'
_exptl_crystal_colour            colourless
_exptl_crystal_colour_primary    colourless
_exptl_crystal_density_diffrn    1.226
_exptl_crystal_description       plate
_exptl_crystal_F_000             1312
_exptl_crystal_size_max          0.15
_exptl_crystal_size_mid          0.08
_exptl_crystal_size_min          0.03
_refine_diff_density_max         0.249
_refine_diff_density_min         -0.280
_refine_diff_density_rms         0.055
_refine_ls_extinction_method     none
_refine_ls_goodness_of_fit_ref   1.051
_refine_ls_hydrogen_treatment    constr
_refine_ls_matrix_type           full
_refine_ls_number_parameters     399
_refine_ls_number_reflns         6579
_refine_ls_number_restraints     0
_refine_ls_restrained_S_all      1.051
_refine_ls_R_factor_all          0.1392
_refine_ls_R_factor_gt           0.0590
_refine_ls_shift/su_max          0.001
_refine_ls_shift/su_mean         0.000
_refine_ls_structure_factor_coef Fsqd
_refine_ls_weighting_details
'w=1/[\s^2^(Fo^2^)+(0.0493P)^2^+0.8196P] where P=(Fo^2^+2Fc^2^)/3'
_refine_ls_weighting_scheme      calc
_refine_ls_wR_factor_gt          0.1112
_refine_ls_wR_factor_ref         0.1483
_reflns_Friedel_coverage         0.000
_reflns_number_gt                3505
_reflns_number_total             6579
_reflns_threshold_expression     'I > 2\s(I)'
_iucr_refine_instructions_details
;
TITL zz_a.res in P2(1)/c
    zz.res
    created by SHELXL-2018/3 at 09:11:41 on 30-Sep-2020
REM Old TITL ZZ in P2(1)/c
REM SHELXT solution in P2(1)/c
REM R1 0.206, Rweak 0.022, Alpha 0.036, Orientation as input
REM Formula found by SHELXT: C36 N3 O5
CELL 0.71073 31.0287 9.9381 10.8384 90 99.374 90
ZERR 4 0.0029 0.001 0.0011 0 0.003 0
LATT 1
SYMM -X,0.5+Y,0.5-Z
SFAC C H F N O
UNIT 140 196 4 16 16

L.S. 4 0 5
PLAN  20
SIZE 0.15 0.08 0.03
TEMP -103.15
BOND $H
list 4
fmap 2
acta
OMIT -19 3 10
OMIT -32 1 8
REM <olex2.extras>
REM <HklSrc "%.\\ZZ.hkl">
REM </olex2.extras>

WGHT    0.049300    0.819600
FVAR       0.36161
O3    5    0.236403    0.629742    0.247452    11.00000    0.02900    0.03625 =
         0.03378    0.00452    0.00942    0.00214
O2    5    0.386489    0.444275    0.107128    11.00000    0.04443    0.02881 =
         0.03204   -0.00439    0.00787    0.00250
O1    5    0.717573    0.508509    0.418732    11.00000    0.03623    0.03867 =
         0.04228    0.00717    0.00453    0.00363
F1    3    0.812054    0.769640    0.208266    11.00000    0.03817    0.07042 =
         0.07723    0.00118    0.02383   -0.00990
O4    5    0.188640    0.801958    0.224669    11.00000    0.04307    0.04367 =
         0.05256    0.00986    0.01130    0.01069
N3    4    0.326983    0.563321    0.143666    11.00000    0.03266    0.02565 =
         0.02246   -0.00042    0.00409   -0.00220
N2    4    0.516388    0.571816    0.271612    11.00000    0.02961    0.03349 =
         0.02526   -0.00036    0.00444   -0.00105
N4    4    0.330605    0.707567    0.316962    11.00000    0.03275    0.03116 =
         0.02468    0.00032    0.00626    0.00229
N1    4    0.670939    0.515245    0.413995    11.00000    0.03237    0.04068 =
         0.04218    0.00465    0.00816   -0.00047
C18   1    0.370975    0.524078    0.175694    11.00000    0.03582    0.02205 =
         0.02600    0.00332    0.00933   -0.00041
C16   1    0.373479    0.668990    0.355699    11.00000    0.03217    0.02383 =
         0.02692    0.00125    0.00714    0.00026
C6    1    0.691745    0.672621    0.283891    11.00000    0.03287    0.02646 =
         0.02658   -0.00360    0.00908   -0.00213
C7    1    0.656592    0.610990    0.334049    11.00000    0.03514    0.02628 =
         0.02684   -0.00123    0.00604   -0.00018
C15   1    0.394500    0.580667    0.290026    11.00000    0.03075    0.02491 =
         0.02522    0.00167    0.00762   -0.00228
C19   1    0.309495    0.655089    0.214583    11.00000    0.03114    0.02714 =
         0.02569    0.00101    0.00854    0.00058
C1    1    0.728566    0.604578    0.339902    11.00000    0.03836    0.02987 =
         0.02809   -0.00018    0.00673    0.00048
C8    1    0.608898    0.640611    0.300927    11.00000    0.03081    0.02962 =
         0.02693    0.00155    0.00499   -0.00044
AFIX  13
H8    2    0.605959    0.734230    0.266770    11.00000   -1.20000
AFIX   0
C5    1    0.695705    0.776874    0.200518    11.00000    0.03685    0.03278 =
         0.03340   -0.00223    0.00476   -0.00023
AFIX  43
H5    2    0.670700    0.824393    0.160648    11.00000   -1.20000
AFIX   0
C24   1    0.198870    0.690828    0.264650    11.00000    0.03019    0.03973 =
         0.03507   -0.00317    0.00409    0.00111
C14   1    0.441727    0.539954    0.322270    11.00000    0.03479    0.03119 =
         0.02545   -0.00015    0.00680    0.00065
AFIX  23
H14A  2    0.443884    0.440726    0.317994    11.00000   -1.20000
H14B  2    0.453068    0.567784    0.409203    11.00000   -1.20000
AFIX   0
C9    1    0.584515    0.634976    0.411470    11.00000    0.03525    0.03503 =
         0.02818    0.00041    0.00640    0.00077
AFIX  23
H9A   2    0.587890    0.544497    0.450050    11.00000   -1.20000
H9B   2    0.597105    0.701636    0.475157    11.00000   -1.20000
AFIX   0
C10   1    0.536386    0.664803    0.369700    11.00000    0.03674    0.02987 =
         0.02829   -0.00100    0.01044    0.00191
AFIX  23
H10A  2    0.520924    0.657719    0.442449    11.00000   -1.20000
H10B  2    0.533037    0.758204    0.337818    11.00000   -1.20000
AFIX   0
C12   1    0.586897    0.546008    0.198199    11.00000    0.03564    0.04286 =
         0.02619   -0.00447    0.00846   -0.00177
AFIX  23
H12A  2    0.601277    0.554608    0.123471    11.00000   -1.20000
H12B  2    0.590174    0.451764    0.227835    11.00000   -1.20000
AFIX   0
C20   1    0.263347    0.703724    0.172655    11.00000    0.03100    0.03225 =
         0.02839    0.00576    0.00604    0.00027
AFIX  13
H20   2    0.261611    0.802157    0.190352    11.00000   -1.20000
AFIX   0
C23   1    0.304017    0.505954    0.024854    11.00000    0.04424    0.03827 =
         0.02673   -0.00541    0.00179   -0.00356
AFIX  23
H23A  2    0.309117    0.407624    0.024659    11.00000   -1.20000
H23B  2    0.316364    0.545343   -0.045693    11.00000   -1.20000
AFIX   0
C2    1    0.770413    0.632813    0.318369    11.00000    0.02981    0.04396 =
         0.04270   -0.00389    0.00697    0.00373
AFIX  43
H2    2    0.795528    0.585001    0.357066    11.00000   -1.20000
AFIX   0
C17   1    0.393965    0.734774    0.475275    11.00000    0.04209    0.03453 =
         0.03239   -0.00896    0.00152   -0.00054
AFIX 137
H17A  2    0.390123    0.832483    0.467924    11.00000   -1.50000
H17B  2    0.425206    0.713405    0.492024    11.00000   -1.50000
H17C  2    0.379972    0.701481    0.544126    11.00000   -1.50000
AFIX   0
C26   1    0.134807    0.675220    0.380037    11.00000    0.03117    0.04590 =
         0.03934   -0.00320    0.00931    0.00138
AFIX  23
H26A  2    0.113305    0.697431    0.304899    11.00000   -1.20000
H26B  2    0.144897    0.760833    0.421738    11.00000   -1.20000
AFIX   0
C22   1    0.255426    0.532380    0.005587    11.00000    0.03950    0.05239 =
         0.02829   -0.00395   -0.00126   -0.00599
AFIX  23
H22A  2    0.241427    0.472848    0.060704    11.00000   -1.20000
H22B  2    0.242464    0.512828   -0.082198    11.00000   -1.20000
AFIX   0
C13   1    0.469937    0.602637    0.234611    11.00000    0.03102    0.04145 =
         0.02702    0.00515    0.00553    0.00079
AFIX  23
H13A  2    0.460063    0.569024    0.148671    11.00000   -1.20000
H13B  2    0.465917    0.701475    0.233711    11.00000   -1.20000
AFIX   0
C11   1    0.538794    0.579855    0.163587    11.00000    0.03624    0.05472 =
         0.02173   -0.00356    0.00829   -0.00438
AFIX  23
H11A  2    0.535685    0.671938    0.128417    11.00000   -1.20000
H11B  2    0.524962    0.516604    0.098374    11.00000   -1.20000
AFIX   0
C4    1    0.736607    0.809105    0.177507    11.00000    0.04259    0.03936 =
         0.03782   -0.00134    0.01215   -0.00593
AFIX  43
H4    2    0.740553    0.880520    0.122158    11.00000   -1.20000
AFIX   0
C21   1    0.247400    0.678268    0.035582    11.00000    0.03735    0.05285 =
         0.02919    0.00659    0.00362    0.00201
AFIX  23
H21A  2    0.263063    0.737756   -0.015515    11.00000   -1.20000
H21B  2    0.215800    0.698541    0.015307    11.00000   -1.20000
AFIX   0
C25   1    0.173439    0.604661    0.339522    11.00000    0.03579    0.04221 =
         0.04042   -0.00076    0.00998   -0.00250
AFIX  23
H25A  2    0.193185    0.572780    0.414896    11.00000   -1.20000
H25B  2    0.162760    0.524619    0.289301    11.00000   -1.20000
AFIX   0
C27   1    0.112344    0.591763    0.468583    11.00000    0.03405    0.05015 =
         0.03979   -0.00261    0.00848   -0.00081
AFIX  23
H27A  2    0.099873    0.509990    0.424294    11.00000   -1.20000
H27B  2    0.134381    0.562604    0.540128    11.00000   -1.20000
AFIX   0
C28   1    0.076402    0.667082    0.517634    11.00000    0.03479    0.05621 =
         0.04216   -0.00243    0.01221   -0.00049
AFIX  23
H28A  2    0.054196    0.694436    0.445798    11.00000   -1.20000
H28B  2    0.088881    0.750152    0.559495    11.00000   -1.20000
AFIX   0
C3    1    0.772076    0.735962    0.236185    11.00000    0.03384    0.04722 =
         0.04587   -0.00833    0.01385   -0.00850
C30   1    0.018808    0.666396    0.659588    11.00000    0.03481    0.05572 =
         0.04295   -0.00240    0.01383   -0.00023
AFIX  23
H30A  2    0.032191    0.747344    0.703314    11.00000   -1.20000
H30B  2   -0.003114    0.697353    0.588511    11.00000   -1.20000
AFIX   0
C29   1    0.053990    0.588742    0.608409    11.00000    0.04104    0.05122 =
         0.04485   -0.00280    0.01147   -0.00265
AFIX  23
H29A  2    0.076265    0.559329    0.679270    11.00000   -1.20000
H29B  2    0.040768    0.506922    0.565911    11.00000   -1.20000
AFIX   0
C31   1   -0.004442    0.588175    0.748775    11.00000    0.04325    0.06049 =
         0.04498   -0.00165    0.01698   -0.00190
AFIX  23
H31A  2   -0.018033    0.507578    0.704913    11.00000   -1.20000
H31B  2    0.017481    0.556698    0.819627    11.00000   -1.20000
AFIX   0
C32   1   -0.039227    0.666297    0.800101    11.00000    0.03921    0.05830 =
         0.04202   -0.00625    0.01126   -0.00433
AFIX  23
H32A  2   -0.060555    0.700557    0.729105    11.00000   -1.20000
H32B  2   -0.025422    0.745154    0.846471    11.00000   -1.20000
AFIX   0
C33   1   -0.063740    0.586799    0.886229    11.00000    0.04368    0.06216 =
         0.04977   -0.00336    0.01998   -0.00110
AFIX  23
H33A  2   -0.078069    0.509001    0.839343    11.00000   -1.20000
H33B  2   -0.042358    0.550955    0.956328    11.00000   -1.20000
AFIX   0
C34   1   -0.097814    0.665734    0.939352    11.00000    0.04577    0.08541 =
         0.05482   -0.00697    0.01774   -0.00582
AFIX  23
H34A  2   -0.117962    0.707149    0.869438    11.00000   -1.20000
H34B  2   -0.083186    0.739590    0.991451    11.00000   -1.20000
AFIX   0
C35   1   -0.124402    0.583773    1.017812    11.00000    0.06433    0.11374 =
         0.07941   -0.00249    0.04233   -0.00871
AFIX 137
H35A  2   -0.139051    0.510152    0.967317    11.00000   -1.50000
H35B  2   -0.146325    0.641631    1.046663    11.00000   -1.50000
H35C  2   -0.105028    0.546523    1.090204    11.00000   -1.50000
AFIX   0
HKLF 4




REM  zz_a.res in P2(1)/c
REM wR2 = 0.1483, GooF = S = 1.051, Restrained GooF = 1.051 for all data
REM R1 = 0.0590 for 3505 Fo > 4sig(Fo) and 0.1392 for all 6579 data
REM 399 parameters refined using 0 restraints

END  
     
WGHT      0.0487      0.8424 

REM Highest difference peak  0.249,  deepest hole -0.280,  1-sigma level  0.055
Q1    1   0.5611  0.7768  0.3965  11.00000  0.05    0.25
Q2    1   0.1681  0.4947  0.2443  11.00000  0.05    0.21
Q3    1  -0.1921  0.6314  1.0665  11.00000  0.05    0.19
Q4    1   0.5790  0.3092  0.2319  11.00000  0.05    0.19
Q5    1   0.2318  0.7995  0.2126  11.00000  0.05    0.19
Q6    1  -0.0874  0.7973  0.9742  11.00000  0.05    0.18
Q7    1   0.2011  0.9177  0.2210  11.00000  0.05    0.18
Q8    1   0.2199  0.8867  0.1437  11.00000  0.05    0.18
Q9    1   0.5231  0.4998  0.4167  11.00000  0.05    0.18
Q10   1   0.4675  0.6741  0.5587  11.00000  0.05    0.18
Q11   1   0.1300  0.4446  0.6237  11.00000  0.05    0.18
Q12   1   0.4922  0.4810  0.3411  11.00000  0.05    0.18
Q13   1   0.7092  0.3892  0.4331  11.00000  0.05    0.18
Q14   1   0.1286  0.4193  0.2444  11.00000  0.05    0.17
Q15   1   0.2715  0.3525  0.1068  11.00000  0.05    0.17
Q16   1   0.2970  0.5980  0.3410  11.00000  0.05    0.17
Q17   1  -0.0397  0.4448  0.9314  11.00000  0.05    0.17
Q18   1   0.1286  0.7975  0.3393  11.00000  0.05    0.17
Q19   1   0.5469  0.7356  0.1393  11.00000  0.05    0.17
Q20   1   0.7302  0.9934  0.0606  11.00000  0.05    0.17

  REM The information below was added by Olex2.
  REM
  REM R1 = 0.0590 for 3505 Fo > 4sig(Fo) and 0.1392 for all 24947 data
  REM n/a parameters refined using n/a restraints
  REM Highest difference peak 0.25, deepest hole -0.28
  REM Mean Shift 0, Max Shift 0.001.

  REM +++ Tabular Listing of Refinement Information +++
  REM R1_all = 0.1392
  REM R1_gt = 0.0590
  REM wR_ref = 0.1483
  REM GOOF = 1.051
  REM Shift_max = 0.001
  REM Shift_mean = 0
  REM Reflections_all = 24947
  REM Reflections_gt = 3505
  REM Parameters = n/a
  REM Hole = -0.28
  REM Peak = 0.25
  REM Flack = n/a

  
;
_cod_data_source_file            lq5053.cif
_cod_data_source_block           PC12
_cod_depositor_comments
'Adding full bibliography for 1570302--1570305.cif.'
_cod_database_code               1570304
_shelx_shelxl_version_number     2018/3
_shelx_space_group_comment
;
The symmetry employed for this shelxl refinement is uniquely defined
by the following loop, which should always be used as a source of
symmetry information in preference to the above space-group names.
They are only intended as comments.
;
_shelx_estimated_absorpt_t_max   0.997
_shelx_estimated_absorpt_t_min   0.988
_olex2_refinement_description
;
1. Fixed Uiso
 At 1.2 times of:
  All C(H) groups, All C(H,H) groups
 At 1.5 times of:
  All C(H,H,H) groups
2.a Ternary CH refined with riding coordinates:
 C8(H8), C20(H20)
2.b Secondary CH2 refined with riding coordinates:
 C14(H14A,H14B), C9(H9A,H9B), C10(H10A,H10B), C12(H12A,H12B), C23(H23A,H23B),
 C26(H26A,H26B), C22(H22A,H22B), C13(H13A,H13B), C11(H11A,H11B), C21(H21A,H21B),
  C25(H25A,H25B), C27(H27A,H27B), C28(H28A,H28B), C30(H30A,H30B), C29(H29A,
 H29B), C31(H31A,H31B), C32(H32A,H32B), C33(H33A,H33B), C34(H34A,H34B)
2.c Aromatic/amide H refined with riding coordinates:
 C5(H5), C2(H2), C4(H4)
2.d Idealised Me refined as rotating group:
 C17(H17A,H17B,H17C), C35(H35A,H35B,H35C)
;
_olex2_submission_special_instructions 'No special instructions were received'
loop_
_space_group_symop_operation_xyz
'x, y, z'
'-x, y+1/2, -z+1/2'
'-x, -y, -z'
'x, -y-1/2, z-1/2'
loop_
_atom_site_label
_atom_site_type_symbol
_atom_site_fract_x
_atom_site_fract_y
_atom_site_fract_z
_atom_site_U_iso_or_equiv
_atom_site_adp_type
_atom_site_occupancy
_atom_site_site_symmetry_order
_atom_site_calc_flag
_atom_site_refinement_flags_posn
_atom_site_refinement_flags_adp
_atom_site_refinement_flags_occupancy
_atom_site_disorder_assembly
_atom_site_disorder_group
O3 O 0.23640(6) 0.62974(18) 0.24745(16) 0.0325(5) Uani 1 1 d . . . . .
O2 O 0.38649(6) 0.44427(18) 0.10713(17) 0.0349(5) Uani 1 1 d . . . . .
O1 O 0.71757(6) 0.50851(19) 0.41873(18) 0.0393(5) Uani 1 1 d . . . . .
F1 F 0.81205(5) 0.76964(19) 0.20827(18) 0.0603(5) Uani 1 1 d . . . . .
O4 O 0.18864(6) 0.8020(2) 0.22467(19) 0.0460(6) Uani 1 1 d . . . . .
N3 N 0.32698(7) 0.5633(2) 0.14367(19) 0.0270(5) Uani 1 1 d . . . . .
N2 N 0.51639(7) 0.5718(2) 0.27161(19) 0.0295(5) Uani 1 1 d . . . . .
N4 N 0.33060(7) 0.7076(2) 0.3170(2) 0.0294(5) Uani 1 1 d . . . . .
N1 N 0.67094(7) 0.5152(2) 0.4140(2) 0.0382(6) Uani 1 1 d . . . . .
C18 C 0.37097(8) 0.5241(3) 0.1757(2) 0.0275(6) Uani 1 1 d . . . . .
C16 C 0.37348(8) 0.6690(3) 0.3557(2) 0.0274(6) Uani 1 1 d . . . . .
C6 C 0.69174(8) 0.6726(3) 0.2839(2) 0.0282(6) Uani 1 1 d . . . . .
C7 C 0.65659(9) 0.6110(3) 0.3340(2) 0.0293(6) Uani 1 1 d . . . . .
C15 C 0.39450(8) 0.5807(3) 0.2900(2) 0.0266(6) Uani 1 1 d . . . . .
C19 C 0.30949(8) 0.6551(3) 0.2146(2) 0.0276(6) Uani 1 1 d . . . . .
C1 C 0.72857(9) 0.6046(3) 0.3399(2) 0.0320(7) Uani 1 1 d . . . . .
C8 C 0.60890(8) 0.6406(3) 0.3009(2) 0.0291(6) Uani 1 1 d . . . . .
H8 H 0.605959 0.734230 0.266770 0.035 Uiso 1 1 calc R . . . .
C5 C 0.69571(9) 0.7769(3) 0.2005(3) 0.0344(7) Uani 1 1 d . . . . .
H5 H 0.670700 0.824393 0.160648 0.041 Uiso 1 1 calc R . . . .
C24 C 0.19887(9) 0.6908(3) 0.2646(3) 0.0351(7) Uani 1 1 d . . . . .
C14 C 0.44173(8) 0.5400(3) 0.3223(2) 0.0303(6) Uani 1 1 d . . . . .
H14A H 0.443884 0.440726 0.317994 0.036 Uiso 1 1 calc R . . . .
H14B H 0.453068 0.567784 0.409203 0.036 Uiso 1 1 calc R . . . .
C9 C 0.58452(8) 0.6350(3) 0.4115(2) 0.0327(7) Uani 1 1 d . . . . .
H9A H 0.587890 0.544497 0.450050 0.039 Uiso 1 1 calc R . . . .
H9B H 0.597105 0.701636 0.475157 0.039 Uiso 1 1 calc R . . . .
C10 C 0.53639(8) 0.6648(3) 0.3697(2) 0.0311(6) Uani 1 1 d . . . . .
H10A H 0.520924 0.657719 0.442449 0.037 Uiso 1 1 calc R . . . .
H10B H 0.533037 0.758204 0.337818 0.037 Uiso 1 1 calc R . . . .
C12 C 0.58690(8) 0.5460(3) 0.1982(2) 0.0345(7) Uani 1 1 d . . . . .
H12A H 0.601277 0.554608 0.123471 0.041 Uiso 1 1 calc R . . . .
H12B H 0.590174 0.451764 0.227835 0.041 Uiso 1 1 calc R . . . .
C20 C 0.26335(8) 0.7037(3) 0.1727(2) 0.0304(6) Uani 1 1 d . . . . .
H20 H 0.261611 0.802157 0.190352 0.036 Uiso 1 1 calc R . . . .
C23 C 0.30402(9) 0.5060(3) 0.0249(2) 0.0369(7) Uani 1 1 d . . . . .
H23A H 0.309117 0.407624 0.024659 0.044 Uiso 1 1 calc R . . . .
H23B H 0.316364 0.545343 -0.045693 0.044 Uiso 1 1 calc R . . . .
C2 C 0.77041(9) 0.6328(3) 0.3184(3) 0.0387(7) Uani 1 1 d . . . . .
H2 H 0.795528 0.585001 0.357066 0.046 Uiso 1 1 calc R . . . .
C17 C 0.39397(9) 0.7348(3) 0.4753(2) 0.0368(7) Uani 1 1 d . . . . .
H17A H 0.390123 0.832483 0.467924 0.055 Uiso 1 1 calc GR . . . .
H17B H 0.425206 0.713405 0.492024 0.055 Uiso 1 1 calc GR . . . .
H17C H 0.379972 0.701481 0.544126 0.055 Uiso 1 1 calc GR . . . .
C26 C 0.13481(9) 0.6752(3) 0.3800(3) 0.0384(7) Uani 1 1 d . . . . .
H26A H 0.113305 0.697431 0.304899 0.046 Uiso 1 1 calc R . . . .
H26B H 0.144897 0.760833 0.421738 0.046 Uiso 1 1 calc R . . . .
C22 C 0.25543(9) 0.5324(3) 0.0056(3) 0.0408(8) Uani 1 1 d . . . . .
H22A H 0.241427 0.472848 0.060704 0.049 Uiso 1 1 calc R . . . .
H22B H 0.242464 0.512828 -0.082198 0.049 Uiso 1 1 calc R . . . .
C13 C 0.46994(8) 0.6026(3) 0.2346(2) 0.0331(7) Uani 1 1 d . . . . .
H13A H 0.460063 0.569024 0.148671 0.040 Uiso 1 1 calc R . . . .
H13B H 0.465917 0.701475 0.233711 0.040 Uiso 1 1 calc R . . . .
C11 C 0.53879(8) 0.5799(3) 0.1636(2) 0.0372(7) Uani 1 1 d . . . . .
H11A H 0.535685 0.671938 0.128417 0.045 Uiso 1 1 calc R . . . .
H11B H 0.524962 0.516604 0.098374 0.045 Uiso 1 1 calc R . . . .
C4 C 0.73661(9) 0.8091(3) 0.1775(3) 0.0393(7) Uani 1 1 d . . . . .
H4 H 0.740553 0.880520 0.122158 0.047 Uiso 1 1 calc R . . . .
C21 C 0.24740(9) 0.6783(3) 0.0356(3) 0.0400(7) Uani 1 1 d . . . . .
H21A H 0.263063 0.737756 -0.015515 0.048 Uiso 1 1 calc R . . . .
H21B H 0.215800 0.698541 0.015307 0.048 Uiso 1 1 calc R . . . .
C25 C 0.17344(9) 0.6047(3) 0.3395(3) 0.0391(7) Uani 1 1 d . . . . .
H25A H 0.193185 0.572780 0.414896 0.047 Uiso 1 1 calc R . . . .
H25B H 0.162760 0.524619 0.289301 0.047 Uiso 1 1 calc R . . . .
C27 C 0.11234(9) 0.5918(3) 0.4686(3) 0.0411(7) Uani 1 1 d . . . . .
H27A H 0.099873 0.509990 0.424294 0.049 Uiso 1 1 calc R . . . .
H27B H 0.134381 0.562604 0.540128 0.049 Uiso 1 1 calc R . . . .
C28 C 0.07640(9) 0.6671(3) 0.5176(3) 0.0437(8) Uani 1 1 d . . . . .
H28A H 0.054196 0.694436 0.445798 0.052 Uiso 1 1 calc R . . . .
H28B H 0.088881 0.750152 0.559495 0.052 Uiso 1 1 calc R . . . .
C3 C 0.77208(9) 0.7360(3) 0.2362(3) 0.0415(8) Uani 1 1 d . . . . .
C30 C 0.01881(9) 0.6664(3) 0.6596(3) 0.0437(8) Uani 1 1 d . . . . .
H30A H 0.032191 0.747344 0.703314 0.052 Uiso 1 1 calc R . . . .
H30B H -0.003114 0.697353 0.588511 0.052 Uiso 1 1 calc R . . . .
C29 C 0.05399(9) 0.5887(3) 0.6084(3) 0.0452(8) Uani 1 1 d . . . . .
H29A H 0.076265 0.559329 0.679270 0.054 Uiso 1 1 calc R . . . .
H29B H 0.040768 0.506922 0.565911 0.054 Uiso 1 1 calc R . . . .
C31 C -0.00444(10) 0.5882(3) 0.7488(3) 0.0485(8) Uani 1 1 d . . . . .
H31A H -0.018033 0.507578 0.704913 0.058 Uiso 1 1 calc R . . . .
H31B H 0.017481 0.556698 0.819627 0.058 Uiso 1 1 calc R . . . .
C32 C -0.03923(9) 0.6663(3) 0.8001(3) 0.0460(8) Uani 1 1 d . . . . .
H32A H -0.060555 0.700557 0.729105 0.055 Uiso 1 1 calc R . . . .
H32B H -0.025422 0.745154 0.846471 0.055 Uiso 1 1 calc R . . . .
C33 C -0.06374(10) 0.5868(3) 0.8862(3) 0.0505(8) Uani 1 1 d . . . . .
H33A H -0.078069 0.509001 0.839343 0.061 Uiso 1 1 calc R . . . .
H33B H -0.042358 0.550955 0.956328 0.061 Uiso 1 1 calc R . . . .
C34 C -0.09781(11) 0.6657(4) 0.9394(3) 0.0609(10) Uani 1 1 d . . . . .
H34A H -0.117962 0.707149 0.869438 0.073 Uiso 1 1 calc R . . . .
H34B H -0.083186 0.739590 0.991451 0.073 Uiso 1 1 calc R . . . .
C35 C -0.12440(12) 0.5838(5) 1.0178(4) 0.0824(13) Uani 1 1 d . . . . .
H35A H -0.139051 0.510152 0.967317 0.124 Uiso 1 1 calc GR . . . .
H35B H -0.146325 0.641631 1.046663 0.124 Uiso 1 1 calc GR . . . .
H35C H -0.105028 0.546523 1.090204 0.124 Uiso 1 1 calc GR . . . .
loop_
_atom_site_aniso_label
_atom_site_aniso_U_11
_atom_site_aniso_U_22
_atom_site_aniso_U_33
_atom_site_aniso_U_23
_atom_site_aniso_U_13
_atom_site_aniso_U_12
O3 0.0290(10) 0.0363(11) 0.0338(11) 0.0045(9) 0.0094(9) 0.0021(9)
O2 0.0444(11) 0.0288(11) 0.0320(11) -0.0044(9) 0.0079(9) 0.0025(9)
O1 0.0362(11) 0.0387(12) 0.0423(12) 0.0072(10) 0.0045(9) 0.0036(9)
F1 0.0382(10) 0.0704(13) 0.0772(13) 0.0012(11) 0.0238(10) -0.0099(9)
O4 0.0431(12) 0.0437(13) 0.0526(13) 0.0099(11) 0.0113(10) 0.0107(10)
N3 0.0327(12) 0.0256(12) 0.0225(11) -0.0004(10) 0.0041(10) -0.0022(10)
N2 0.0296(12) 0.0335(13) 0.0253(12) -0.0004(10) 0.0044(10) -0.0011(10)
N4 0.0327(13) 0.0312(13) 0.0247(12) 0.0003(10) 0.0063(10) 0.0023(10)
N1 0.0324(13) 0.0407(15) 0.0422(15) 0.0046(12) 0.0082(11) -0.0005(11)
C18 0.0358(15) 0.0220(14) 0.0260(15) 0.0033(12) 0.0093(12) -0.0004(12)
C16 0.0322(15) 0.0238(14) 0.0269(15) 0.0012(12) 0.0071(12) 0.0003(12)
C6 0.0329(15) 0.0265(14) 0.0266(15) -0.0036(12) 0.0091(12) -0.0021(12)
C7 0.0351(15) 0.0263(15) 0.0268(15) -0.0012(12) 0.0060(12) -0.0002(12)
C15 0.0308(14) 0.0249(14) 0.0252(14) 0.0017(12) 0.0076(12) -0.0023(12)
C19 0.0311(14) 0.0271(14) 0.0257(15) 0.0010(13) 0.0085(12) 0.0006(12)
C1 0.0384(16) 0.0299(15) 0.0281(15) -0.0002(13) 0.0067(13) 0.0005(13)
C8 0.0308(14) 0.0296(15) 0.0269(15) 0.0016(12) 0.0050(12) -0.0004(12)
C5 0.0369(16) 0.0328(16) 0.0334(16) -0.0022(13) 0.0048(13) -0.0002(13)
C24 0.0302(15) 0.0397(18) 0.0351(17) -0.0032(14) 0.0041(13) 0.0011(14)
C14 0.0348(15) 0.0312(15) 0.0254(15) -0.0002(12) 0.0068(12) 0.0007(12)
C9 0.0353(15) 0.0350(16) 0.0282(15) 0.0004(13) 0.0064(13) 0.0008(13)
C10 0.0367(15) 0.0299(15) 0.0283(15) -0.0010(13) 0.0104(13) 0.0019(13)
C12 0.0356(16) 0.0429(17) 0.0262(15) -0.0045(13) 0.0085(13) -0.0018(14)
C20 0.0310(15) 0.0323(16) 0.0284(15) 0.0058(13) 0.0060(12) 0.0003(12)
C23 0.0442(17) 0.0383(17) 0.0267(15) -0.0054(13) 0.0018(13) -0.0036(14)
C2 0.0298(15) 0.0440(18) 0.0427(18) -0.0039(15) 0.0070(14) 0.0037(14)
C17 0.0421(17) 0.0345(16) 0.0324(16) -0.0090(14) 0.0015(13) -0.0005(14)
C26 0.0312(15) 0.0459(18) 0.0393(17) -0.0032(15) 0.0093(14) 0.0014(14)
C22 0.0395(17) 0.052(2) 0.0283(16) -0.0040(15) -0.0013(13) -0.0060(15)
C13 0.0310(15) 0.0414(17) 0.0270(15) 0.0052(13) 0.0055(12) 0.0008(13)
C11 0.0362(16) 0.055(2) 0.0217(15) -0.0036(14) 0.0083(13) -0.0044(15)
C4 0.0426(17) 0.0394(17) 0.0378(17) -0.0013(14) 0.0121(14) -0.0059(15)
C21 0.0374(16) 0.053(2) 0.0292(16) 0.0066(15) 0.0036(13) 0.0020(15)
C25 0.0358(16) 0.0422(18) 0.0404(17) -0.0008(15) 0.0100(14) -0.0025(14)
C27 0.0341(16) 0.0502(19) 0.0398(17) -0.0026(16) 0.0085(14) -0.0008(15)
C28 0.0348(16) 0.056(2) 0.0422(18) -0.0024(16) 0.0122(14) -0.0005(15)
C3 0.0338(17) 0.0472(19) 0.0459(19) -0.0083(16) 0.0139(15) -0.0085(15)
C30 0.0348(16) 0.056(2) 0.0430(18) -0.0024(16) 0.0138(14) -0.0002(15)
C29 0.0410(17) 0.051(2) 0.0448(19) -0.0028(16) 0.0115(15) -0.0027(15)
C31 0.0433(18) 0.060(2) 0.0450(18) -0.0016(17) 0.0170(15) -0.0019(16)
C32 0.0392(17) 0.058(2) 0.0420(18) -0.0063(17) 0.0113(15) -0.0043(16)
C33 0.0437(18) 0.062(2) 0.050(2) -0.0034(18) 0.0200(16) -0.0011(17)
C34 0.0458(19) 0.085(3) 0.055(2) -0.007(2) 0.0177(17) -0.006(2)
C35 0.064(2) 0.114(4) 0.079(3) -0.002(3) 0.042(2) -0.009(2)
loop_
_atom_type_symbol
_atom_type_description
_atom_type_scat_dispersion_real
_atom_type_scat_dispersion_imag
_atom_type_scat_source
C C 0.0033 0.0016 'International Tables Vol C Tables 4.2.6.8 and 6.1.1.4'
H H 0.0000 0.0000 'International Tables Vol C Tables 4.2.6.8 and 6.1.1.4'
F F 0.0171 0.0103 'International Tables Vol C Tables 4.2.6.8 and 6.1.1.4'
N N 0.0061 0.0033 'International Tables Vol C Tables 4.2.6.8 and 6.1.1.4'
O O 0.0106 0.0060 'International Tables Vol C Tables 4.2.6.8 and 6.1.1.4'
loop_
_geom_angle_atom_site_label_1
_geom_angle_atom_site_label_2
_geom_angle_atom_site_label_3
_geom_angle
_geom_angle_site_symmetry_1
_geom_angle_site_symmetry_3
_geom_angle_publ_flag
C24 O3 C20 115.8(2) . . ?
C1 O1 N1 107.33(19) . . ?
C18 N3 C23 114.7(2) . . ?
C19 N3 C18 120.4(2) . . ?
C19 N3 C23 124.7(2) . . ?
C13 N2 C10 110.4(2) . . ?
C11 N2 C10 110.3(2) . . ?
C11 N2 C13 110.2(2) . . ?
C19 N4 C16 118.3(2) . . ?
C7 N1 O1 106.7(2) . . ?
O2 C18 N3 119.1(2) . . ?
O2 C18 C15 125.0(2) . . ?
N3 C18 C15 115.9(2) . . ?
N4 C16 C17 113.2(2) . . ?
C15 C16 N4 122.6(2) . . ?
C15 C16 C17 124.2(2) . . ?
C1 C6 C7 104.5(2) . . ?
C1 C6 C5 119.7(2) . . ?
C5 C6 C7 135.8(2) . . ?
N1 C7 C6 111.2(2) . . ?
N1 C7 C8 121.1(2) . . ?
C6 C7 C8 127.6(2) . . ?
C18 C15 C14 115.5(2) . . ?
C16 C15 C18 118.7(2) . . ?
C16 C15 C14 125.7(2) . . ?
N3 C19 C20 119.4(2) . . ?
N4 C19 N3 123.9(2) . . ?
N4 C19 C20 116.7(2) . . ?
O1 C1 C6 110.2(2) . . ?
O1 C1 C2 125.8(2) . . ?
C6 C1 C2 123.9(3) . . ?
C7 C8 H8 107.4 . . ?
C7 C8 C9 113.9(2) . . ?
C7 C8 C12 111.1(2) . . ?
C9 C8 H8 107.4 . . ?
C9 C8 C12 109.3(2) . . ?
C12 C8 H8 107.4 . . ?
C6 C5 H5 120.9 . . ?
C4 C5 C6 118.3(3) . . ?
C4 C5 H5 120.9 . . ?
O3 C24 C25 111.2(2) . . ?
O4 C24 O3 122.8(3) . . ?
O4 C24 C25 126.0(3) . . ?
C15 C14 H14A 109.1 . . ?
C15 C14 H14B 109.1 . . ?
C15 C14 C13 112.4(2) . . ?
H14A C14 H14B 107.9 . . ?
C13 C14 H14A 109.1 . . ?
C13 C14 H14B 109.1 . . ?
C8 C9 H9A 109.6 . . ?
C8 C9 H9B 109.6 . . ?
H9A C9 H9B 108.1 . . ?
C10 C9 C8 110.5(2) . . ?
C10 C9 H9A 109.6 . . ?
C10 C9 H9B 109.6 . . ?
N2 C10 C9 111.9(2) . . ?
N2 C10 H10A 109.2 . . ?
N2 C10 H10B 109.2 . . ?
C9 C10 H10A 109.2 . . ?
C9 C10 H10B 109.2 . . ?
H10A C10 H10B 107.9 . . ?
C8 C12 H12A 109.6 . . ?
C8 C12 H12B 109.6 . . ?
H12A C12 H12B 108.1 . . ?
C11 C12 C8 110.4(2) . . ?
C11 C12 H12A 109.6 . . ?
C11 C12 H12B 109.6 . . ?
O3 C20 C19 105.9(2) . . ?
O3 C20 H20 109.5 . . ?
O3 C20 C21 109.7(2) . . ?
C19 C20 H20 109.5 . . ?
C21 C20 C19 112.7(2) . . ?
C21 C20 H20 109.5 . . ?
N3 C23 H23A 109.1 . . ?
N3 C23 H23B 109.1 . . ?
N3 C23 C22 112.4(2) . . ?
H23A C23 H23B 107.9 . . ?
C22 C23 H23A 109.1 . . ?
C22 C23 H23B 109.1 . . ?
C1 C2 H2 123.3 . . ?
C3 C2 C1 113.5(3) . . ?
C3 C2 H2 123.3 . . ?
C16 C17 H17A 109.5 . . ?
C16 C17 H17B 109.5 . . ?
C16 C17 H17C 109.5 . . ?
H17A C17 H17B 109.5 . . ?
H17A C17 H17C 109.5 . . ?
H17B C17 H17C 109.5 . . ?
H26A C26 H26B 107.7 . . ?
C25 C26 H26A 108.9 . . ?
C25 C26 H26B 108.9 . . ?
C25 C26 C27 113.3(2) . . ?
C27 C26 H26A 108.9 . . ?
C27 C26 H26B 108.9 . . ?
C23 C22 H22A 109.8 . . ?
C23 C22 H22B 109.8 . . ?
C23 C22 C21 109.4(2) . . ?
H22A C22 H22B 108.2 . . ?
C21 C22 H22A 109.8 . . ?
C21 C22 H22B 109.8 . . ?
N2 C13 C14 112.5(2) . . ?
N2 C13 H13A 109.1 . . ?
N2 C13 H13B 109.1 . . ?
C14 C13 H13A 109.1 . . ?
C14 C13 H13B 109.1 . . ?
H13A C13 H13B 107.8 . . ?
N2 C11 C12 111.6(2) . . ?
N2 C11 H11A 109.3 . . ?
N2 C11 H11B 109.3 . . ?
C12 C11 H11A 109.3 . . ?
C12 C11 H11B 109.3 . . ?
H11A C11 H11B 108.0 . . ?
C5 C4 H4 120.5 . . ?
C5 C4 C3 119.0(3) . . ?
C3 C4 H4 120.5 . . ?
C20 C21 C22 109.4(2) . . ?
C20 C21 H21A 109.8 . . ?
C20 C21 H21B 109.8 . . ?
C22 C21 H21A 109.8 . . ?
C22 C21 H21B 109.8 . . ?
H21A C21 H21B 108.2 . . ?
C24 C25 C26 114.0(2) . . ?
C24 C25 H25A 108.8 . . ?
C24 C25 H25B 108.8 . . ?
C26 C25 H25A 108.8 . . ?
C26 C25 H25B 108.8 . . ?
H25A C25 H25B 107.7 . . ?
C26 C27 H27A 109.0 . . ?
C26 C27 H27B 109.0 . . ?
H27A C27 H27B 107.8 . . ?
C28 C27 C26 113.1(3) . . ?
C28 C27 H27A 109.0 . . ?
C28 C27 H27B 109.0 . . ?
C27 C28 H28A 108.6 . . ?
C27 C28 H28B 108.6 . . ?
C27 C28 C29 114.8(3) . . ?
H28A C28 H28B 107.6 . . ?
C29 C28 H28A 108.6 . . ?
C29 C28 H28B 108.6 . . ?
F1 C3 C4 116.9(3) . . ?
C2 C3 F1 117.5(3) . . ?
C2 C3 C4 125.6(3) . . ?
H30A C30 H30B 107.5 . . ?
C29 C30 H30A 108.6 . . ?
C29 C30 H30B 108.6 . . ?
C31 C30 H30A 108.6 . . ?
C31 C30 H30B 108.6 . . ?
C31 C30 C29 114.8(3) . . ?
C28 C29 C30 114.3(3) . . ?
C28 C29 H29A 108.7 . . ?
C28 C29 H29B 108.7 . . ?
C30 C29 H29A 108.7 . . ?
C30 C29 H29B 108.7 . . ?
H29A C29 H29B 107.6 . . ?
C30 C31 H31A 108.6 . . ?
C30 C31 H31B 108.6 . . ?
H31A C31 H31B 107.6 . . ?
C32 C31 C30 114.6(3) . . ?
C32 C31 H31A 108.6 . . ?
C32 C31 H31B 108.6 . . ?
C31 C32 H32A 108.6 . . ?
C31 C32 H32B 108.6 . . ?
C31 C32 C33 114.8(3) . . ?
H32A C32 H32B 107.5 . . ?
C33 C32 H32A 108.6 . . ?
C33 C32 H32B 108.6 . . ?
C32 C33 H33A 108.6 . . ?
C32 C33 H33B 108.6 . . ?
H33A C33 H33B 107.6 . . ?
C34 C33 C32 114.7(3) . . ?
C34 C33 H33A 108.6 . . ?
C34 C33 H33B 108.6 . . ?
C33 C34 H34A 108.6 . . ?
C33 C34 H34B 108.6 . . ?
C33 C34 C35 114.5(3) . . ?
H34A C34 H34B 107.6 . . ?
C35 C34 H34A 108.6 . . ?
C35 C34 H34B 108.6 . . ?
C34 C35 H35A 109.5 . . ?
C34 C35 H35B 109.5 . . ?
C34 C35 H35C 109.5 . . ?
H35A C35 H35B 109.5 . . ?
H35A C35 H35C 109.5 . . ?
H35B C35 H35C 109.5 . . ?
loop_
_geom_bond_atom_site_label_1
_geom_bond_atom_site_label_2
_geom_bond_distance
_geom_bond_site_symmetry_2
_geom_bond_publ_flag
O3 C24 1.353(3) . ?
O3 C20 1.455(3) . ?
O2 C18 1.237(3) . ?
O1 N1 1.441(3) . ?
O1 C1 1.361(3) . ?
F1 C3 1.366(3) . ?
O4 C24 1.210(3) . ?
N3 C18 1.408(3) . ?
N3 C19 1.361(3) . ?
N3 C23 1.481(3) . ?
N2 C10 1.468(3) . ?
N2 C13 1.464(3) . ?
N2 C11 1.458(3) . ?
N4 C16 1.382(3) . ?
N4 C19 1.302(3) . ?
N1 C7 1.315(3) . ?
C18 C15 1.446(3) . ?
C16 C15 1.362(4) . ?
C16 C17 1.498(3) . ?
C6 C7 1.433(4) . ?
C6 C1 1.380(4) . ?
C6 C5 1.393(4) . ?
C7 C8 1.494(4) . ?
C15 C14 1.505(3) . ?
C19 C20 1.509(4) . ?
C1 C2 1.385(4) . ?
C8 H8 1.0000 . ?
C8 C9 1.519(4) . ?
C8 C12 1.530(3) . ?
C5 H5 0.9500 . ?
C5 C4 1.371(4) . ?
C24 C25 1.491(4) . ?
C14 H14A 0.9900 . ?
C14 H14B 0.9900 . ?
C14 C13 1.526(4) . ?
C9 H9A 0.9900 . ?
C9 H9B 0.9900 . ?
C9 C10 1.517(3) . ?
C10 H10A 0.9900 . ?
C10 H10B 0.9900 . ?
C12 H12A 0.9900 . ?
C12 H12B 0.9900 . ?
C12 C11 1.516(4) . ?
C20 H20 1.0000 . ?
C20 C21 1.509(4) . ?
C23 H23A 0.9900 . ?
C23 H23B 0.9900 . ?
C23 C22 1.511(4) . ?
C2 H2 0.9500 . ?
C2 C3 1.365(4) . ?
C17 H17A 0.9800 . ?
C17 H17B 0.9800 . ?
C17 H17C 0.9800 . ?
C26 H26A 0.9900 . ?
C26 H26B 0.9900 . ?
C26 C25 1.514(4) . ?
C26 C27 1.521(4) . ?
C22 H22A 0.9900 . ?
C22 H22B 0.9900 . ?
C22 C21 1.515(4) . ?
C13 H13A 0.9900 . ?
C13 H13B 0.9900 . ?
C11 H11A 0.9900 . ?
C11 H11B 0.9900 . ?
C4 H4 0.9500 . ?
C4 C3 1.384(4) . ?
C21 H21A 0.9900 . ?
C21 H21B 0.9900 . ?
C25 H25A 0.9900 . ?
C25 H25B 0.9900 . ?
C27 H27A 0.9900 . ?
C27 H27B 0.9900 . ?
C27 C28 1.510(4) . ?
C28 H28A 0.9900 . ?
C28 H28B 0.9900 . ?
C28 C29 1.510(4) . ?
C30 H30A 0.9900 . ?
C30 H30B 0.9900 . ?
C30 C29 1.514(4) . ?
C30 C31 1.512(4) . ?
C29 H29A 0.9900 . ?
C29 H29B 0.9900 . ?
C31 H31A 0.9900 . ?
C31 H31B 0.9900 . ?
C31 C32 1.508(4) . ?
C32 H32A 0.9900 . ?
C32 H32B 0.9900 . ?
C32 C33 1.518(4) . ?
C33 H33A 0.9900 . ?
C33 H33B 0.9900 . ?
C33 C34 1.504(4) . ?
C34 H34A 0.9900 . ?
C34 H34B 0.9900 . ?
C34 C35 1.515(5) . ?
C35 H35A 0.9800 . ?
C35 H35B 0.9800 . ?
C35 H35C 0.9800 . ?
loop_
_refln_index_h
_refln_index_k
_refln_index_l
_refln_F_squared_meas
_refln_F_squared_sigma
0 0 2 5522.75 126.99
0 0 -2 5573.54 126.99
0 0 -3 -0.1 3.2
0 0 3 -2.7 2.4
0 0 3 -4.9 2.8
0 0 -3 -1.6 2.1
0 0 4 338.17 15.7
0 0 -4 314.57 15.1
0 0 -4 310.27 13
0 0 4 329.77 13.7
0 0 -5 0 3.6
0 0 5 0.5 3.2
0 0 -5 5.8 3.7
0 0 5 -2.1 3.7
0 0 6 201.28 12.9
0 0 6 178.88 13.5
0 0 -6 184.08 13.3
0 0 -6 160.58 10.9
0 0 7 13.8 6.2
0 0 -7 7.4 4.8
0 0 -7 8.1 4.9
0 0 7 5.2 4.4
0 0 8 9.4 5
0 0 -8 7.9 6.2
0 0 -8 11.8 5
0 0 8 8.9 6.6
0 0 -9 0.1 5
0 0 -9 0.7 4.8
0 0 9 1.9 7.2
0 0 9 -1.7 5
0 0 10 -2.3 6.7
0 0 -10 4.7 5.9
0 0 10 12.6 8.5
0 0 -10 10.2 6.9
0 0 11 13.8 7.9
0 0 -11 2.1 7.1
0 0 -12 13.3 8.2
0 0 12 20.8 9.3
0 0 13 10.5 9
0 1 0 -0.4 0.6
0 -1 0 -0.2 0.6
0 1 1 78.69 4.8
0 1 -1 81.09 3.8
0 -1 -1 83.09 4.6
0 -1 -1 79.89 4.9
0 -1 1 83.89 4
0 1 -2 642.24 18.1
0 1 2 647.24 19.8
0 1 2 645.04 20.7
0 -1 -2 633.34 19.4
0 -1 2 645.94 18.5
0 -1 -2 619.94 20.6
0 -1 2 639.84 18
0 1 -3 951.9 27.2
0 1 -3 934.01 26.2
0 1 3 952.5 29.6
0 1 3 969.4 28.3
0 -1 -3 929.71 29.6
0 -1 -3 957.9 27.9
0 -1 3 958.7 26.2
0 -1 3 940.01 27.8
0 1 -4 129.99 8.6
0 1 4 134.99 9.3
0 1 4 134.19 10.2
0 1 -4 118.59 7.6
0 -1 -4 128.39 8.5
0 -1 -4 122.89 9.9
0 -1 4 123.89 7.8
0 -1 4 117.89 8.9
0 1 -5 6.7 4.1
0 1 5 9.2 4.5
0 1 5 3.8 4.4
0 1 -5 6.9 3.5
0 -1 5 13.7 5.1
0 -1 -5 6.7 5.3
0 -1 -5 10.1 4.5
0 -1 5 4 3.5
0 1 6 103.59 10.7
0 1 -6 99.99 9.4
0 1 -6 95.89 8.4
0 1 6 92.59 9.5
0 -1 6 78.89 9.5
0 -1 -6 106.99 11.1
0 -1 -6 111.89 9.3
0 1 7 164.98 14.3
0 1 -7 151.88 11.3
0 1 -7 173.28 13.1
0 1 7 153.88 12.9
0 -1 -7 152.78 14
0 -1 7 150.58 11.6
0 -1 7 149.49 12.9
0 -1 -7 179.98 12.3
0 1 8 -4.9 4.4
0 1 -8 8.9 5.4
0 1 -8 -2.3 3.8
0 1 8 7.2 5.8
0 -1 -8 -1.5 4.6
0 -1 8 2.9 4.7
0 -1 -8 0.4 4.4
0 -1 8 4.7 5.1
0 1 9 16.1 7.2
0 1 9 17.3 8.6
0 1 -9 -0.1 5.2
0 -1 -9 7.2 5.8
0 -1 9 -9.2 4.5
0 -1 -9 8.3 6.7
0 -1 9 4.3 5
0 1 -10 4.5 5.5
0 1 -10 -3.8 4.8
0 1 10 8.9 7.6
0 -1 -10 -7.4 4.4
0 -1 10 -1.5 5.3
0 -1 10 -4.4 4.6
0 1 -11 2.8 9.2
0 1 11 5.6 7.9
0 -1 11 6.2 6.9
0 -1 -11 3.1 6.5
0 1 12 -16 5.9
0 -1 -12 5.5 7.7
0 -1 12 6.4 6.9
0 1 13 17.5 10.1
0 -1 13 13.5 8
0 -1 -13 3.7 8.3
0 2 0 9.1 2.6
0 -2 0 7.5 2.7
0 2 1 5041.7 115.79
0 2 -2 1316.77 34.1
0 2 2 1387.86 37.7
0 -2 -2 1322.27 37.6
0 -2 -2 1333.17 36.7
0 -2 2 1324.97 34.3
0 2 3 247.08 13.3
0 2 -3 265.17 11.2
0 -2 3 275.67 11.1
0 -2 3 275.97 11.3
0 -2 -3 279.87 13.1
0 -2 -3 262.77 14
0 2 4 611.04 23.2
0 2 -4 520.85 19
0 -2 -4 593.84 24.4
0 -2 4 563.44 20.6
0 -2 -4 577.44 24.6
0 -2 4 598.44 19.7
0 2 5 35.4 7.3
0 2 -5 25.7 5.5
0 2 5 32.6 8.2
0 -2 5 31 6.4
0 -2 5 36.4 5.7
0 -2 -5 24.7 5.7
0 -2 -5 23 6.7
0 2 6 34.5 7.5
0 2 -6 38 6.3
0 2 6 38.7 8.3
0 -2 6 26.7 6.2
0 -2 -6 34.6 7
0 -2 -6 42.9 9.1
0 2 -7 101.89 9.7
0 2 7 111.89 12.2
0 2 7 107.49 11.4
0 -2 -7 91.39 13.6
0 -2 -7 92.19 10.1
0 -2 7 107.59 9.8
0 -2 7 104.99 11.2
0 2 -8 3.3 4.7
0 2 8 2.9 5.7
0 -2 -8 7 5.2
0 -2 8 7.2 5.3
0 -2 -8 0.2 5.6
0 -2 8 6.3 5.6
0 2 -9 33 9.8
0 2 9 34.8 9.4
0 -2 9 12.7 7
0 -2 9 31.6 8.4
0 -2 -9 27.7 8.2
0 -2 -9 19 8.7
0 2 10 -5.3 5.4
0 2 -10 -6.6 5.8
0 -2 -10 8.5 7.3
0 -2 10 4.1 5.8
0 -2 10 -11.9 5.9
0 2 11 13.2 8.2
0 -2 -11 17.4 8.7
0 -2 11 22.6 8.8
0 2 12 11.1 9.8
0 -2 12 39.7 9.6
0 -2 -12 32.9 11.3
0 -2 -13 -5.6 7.5
0 -2 13 8.2 6.9
0 3 0 -0.2 1.8
0 -3 0 -0.4 2.2
0 3 1 1041.7 29.5
0 -3 1 1076.69 28.8
0 -3 -1 1039.4 30.6
0 -3 1 1073.59 26.9
0 3 2 685.13 22.9
0 3 -2 665.53 20.5
0 -3 2 680.83 20.8
0 -3 -2 678.33 23.9
0 3 3 1114.69 34.9
0 3 -3 1070.19 30.6
0 -3 -3 1086.19 34.2
0 -3 -3 1092.39 35.7
0 -3 3 1069.09 30.7
0 3 -4 162.48 10
0 3 4 169.48 12.5
0 -3 4 158.68 9.7
0 -3 -4 154.88 12.9
0 -3 4 148.69 9.3
0 -3 -4 149.19 11.4
0 3 -5 409.26 18
0 3 5 451.75 21.9
0 -3 5 413.26 18.1
0 -3 5 410.86 17.1
0 -3 -5 385.96 21.5
0 -3 -5 424.86 20
0 3 6 97.59 11.2
0 3 -6 94.69 8.9
0 -3 -6 124.29 12.7
0 -3 6 109.39 10.2
0 -3 -6 111.79 10.8
0 -3 6 113.39 9.5
0 3 7 155.48 14.8
0 3 -7 174.08 12.6
0 -3 -7 192.18 16.9
0 -3 7 162.08 13.4
0 -3 -7 177.48 14.1
0 -3 7 176.18 12.2
0 3 -8 60.89 10.1
0 3 8 82.59 14.5
0 -3 -8 82.59 12.2
0 -3 8 65.09 10.1
0 -3 -8 89.59 15
0 -3 8 48.5 9.6
0 -3 9 5.9 5.5
0 -3 -9 19.6 8.3
0 -3 9 7.9 6.2
0 3 -10 2.9 5.9
0 -3 10 5.2 7.1
0 -3 -10 11.7 8
0 -3 10 -4.7 5.8
0 -3 11 6.1 6.3
0 -3 -11 2.6 6.3
0 -3 -12 -6.3 6.2
0 -3 12 14.6 7.9
0 4 0 82.69 5.7
0 -4 0 88.59 6.9
0 4 1 212.78 10.4
0 -4 1 211.98 9.2
0 -4 1 217.78 10.7
0 -4 -1 215.58 12
0 4 2 327.07 15.3
0 -4 2 343.17 14
0 -4 -2 348.37 17
0 -4 2 343.97 11.5
0 4 3 160.08 11.4
0 4 -3 170.08 9.7
0 -4 -3 158.88 11.6
0 -4 -3 152.68 12.4
0 -4 3 143.89 9.5
0 4 4 63.89 9.3
0 -4 4 44.7 6.8
0 -4 -4 62.99 10.1
0 -4 -4 40.2 7.8
0 4 -5 3 3.7
0 4 5 -1.8 4
0 -4 5 0.5 2.9
0 -4 -5 2.9 5.1
0 -4 5 4.5 3.6
0 -4 -5 3.3 4
0 4 -6 3.9 3.8
0 4 6 1.2 4.9
0 -4 -6 8.4 5.9
0 -4 6 8.2 4
0 -4 -6 1.7 4.7
0 -4 6 4.3 3.5
0 4 -7 256.87 15.8
0 4 7 275.57 19.6
0 -4 7 244.78 16.1
0 -4 -7 277.47 18.8
0 -4 -7 283.67 21.2
0 -4 7 297.57 16.1
0 4 8 62.09 12.2
0 4 -8 47.4 8.9
0 -4 -8 29.4 10.4
0 -4 -8 32.7 9.4
0 -4 8 38.4 8.5
0 -4 8 38.3 8.2
0 4 -9 8.4 6.1
0 -4 9 9.1 6.8
0 -4 -9 20.7 9.4
0 -4 9 3.1 4.8
0 4 -10 38.5 8.8
0 -4 10 36.2 10.7
0 -4 10 43 9.6
0 -4 -10 44.9 12.7
0 -4 -11 8.1 7.9
0 -4 11 23.1 8.5
0 -4 11 4.1 8.4
0 -4 12 -10.3 6.3
0 -4 -12 9.6 8
0 5 0 0.5 2.5
0 -5 0 0.7 3.4
0 5 1 15.6 4.1
0 -5 1 28.8 5.6
0 -5 -1 21.1 5.8
0 -5 1 16.3 4
0 5 2 183.68 11.3
0 -5 2 164.78 10.2
0 -5 -2 184.68 13.4
0 -5 2 162.78 8.7
0 5 3 69.39 8.4
0 -5 -3 68.39 10.3
0 -5 3 75.79 7.5
0 -5 3 82.39 5.6
0 5 -4 338.87 15.8
0 5 4 337.17 18.5
0 -5 4 311.27 18.5
0 -5 -4 307.17 18.2
0 -5 -4 336.47 20.2
0 5 -5 12.1 3.9
0 5 5 18.4 6.5
0 -5 5 10 4.1
0 -5 5 15 5.1
0 -5 -5 23.1 7.8
0 -5 -5 11.5 6.2
0 5 -6 -1.8 3.3
0 -5 6 2.4 3.6
0 -5 -6 0.7 5.7
0 -5 6 4.1 4
0 5 7 32.3 9.2
0 5 -7 29.7 7.7
0 -5 -7 21.9 8.1
0 -5 7 25.9 6.4
0 -5 7 39.1 7.8
0 -5 -7 22.4 9.6
0 5 -8 19.6 6.5
0 -5 8 0.7 4.8
0 -5 8 -4.5 4.6
0 5 -9 36.1 8.3
0 -5 9 57.19 10.1
0 -5 9 30.9 7.9
0 -5 -9 35.3 11.1
0 -5 10 2 5.4
0 -5 -10 -0.1 6.3
0 -5 -11 10.5 7.8
0 -5 11 8.3 7
0 -5 11 3.2 7.1
0 -5 -12 -0.1 8.1
0 -5 12 -18.5 6.4
0 6 0 31.9 4.9
0 -6 0 29.5 6.3
0 6 1 62.49 6.9
0 -6 1 63.09 7.3
0 -6 1 61.89 8.2
0 6 2 89.59 8.4
0 -6 2 86.79 7.3
0 -6 -2 86.19 10
0 -6 2 98.79 8.8
0 6 3 31.3 6.9
0 -6 -3 36.6 8.8
0 -6 3 43.3 6.9
0 -6 3 48.2 5.5
0 6 4 1.1 4.4
0 -6 4 8.6 3.2
0 -6 -4 20.9 6.6
0 -6 4 10.5 4.9
0 -6 -4 4.7 5.9
0 6 5 10.4 5.9
0 6 -5 6.1 4.2
0 -6 -5 13.4 7.7
0 -6 5 5.6 2.8
0 -6 -5 1.7 5.9
0 -6 5 5.6 5
0 6 6 4.5 6
0 6 -6 4.3 4.8
0 -6 6 2 3.9
0 -6 -6 4.4 6.8
0 -6 -6 -6.7 4.6
0 -6 6 8.1 5.5
0 6 -7 24.9 7
0 -6 -7 24.5 9.8
0 -6 7 32.2 7.3
0 -6 7 21.3 6.7
0 6 -8 17 7.9
0 -6 -8 13.7 9.5
0 -6 8 12.5 5.7
0 -6 8 14.8 6
0 6 -9 5 5.5
0 -6 9 -8.3 4.8
0 -6 -9 -6.1 7
0 -6 9 -9.9 4.2
0 -6 10 -4.7 8.9
0 -6 -10 12.6 8.7
0 -6 10 9.3 7.7
0 -6 -11 4.1 8
0 -6 11 12 6.4
0 -6 11 4.3 7.5
0 7 0 0.6 2.6
0 -7 0 -4.2 3.4
0 7 1 58.09 7.6
0 -7 -1 38.9 8.6
0 -7 1 49.2 7.6
0 -7 1 35.4 7.2
0 7 2 7.1 4.5
0 -7 -2 2.7 4.7
0 -7 2 4 3.8
0 -7 2 -1 3.2
0 7 3 23.7 6.3
0 -7 3 28.4 5.3
0 -7 3 3.2 5.1
0 -7 -3 19 7.7
0 7 4 10.8 5.7
0 -7 -4 32.7 8.7
0 -7 4 23.8 5.1
0 -7 4 25.8 7.2
0 -7 -4 16.1 7.8
0 7 5 264.07 18.8
0 -7 5 278.27 12.9
0 -7 -5 281.87 20.7
0 -7 -5 289.17 22.3
0 -7 5 262.87 16.8
0 -7 6 12 4.9
0 -7 6 16 6.6
0 -7 -6 32.9 10
0 -7 7 37.2 8.3
0 -7 -7 38.2 11.4
0 -7 7 47.4 8
0 7 -8 154.98 13.6
0 -7 8 127.39 13.3
0 -7 -8 149.49 21.2
0 -7 8 137.49 13.9
0 -7 -9 22.8 10.4
0 -7 9 29.2 8
0 -7 10 6.1 7.4
0 -7 -10 23.2 10.4
0 -7 10 9.4 6.9
0 -7 11 -4 8.1
0 -7 -11 -4.5 7.5
0 -7 11 -1.4 6.7
0 8 0 70.79 7.3
0 -8 0 82.09 11.3
0 8 1 45.1 7.4
0 -8 1 62.19 9.4
0 -8 -1 37.3 9
0 -8 1 46.8 8.7
0 8 2 44.1 7.9
0 -8 2 49.99 8.2
0 -8 -2 36.2 9.4
0 -8 2 40 8.3
0 -8 3 9 4.7
0 -8 -3 -6.7 5.8
0 -8 3 4 4.5
0 8 4 -0.5 5.7
0 -8 4 5.6 5.2
0 -8 -4 7.3 8.3
0 -8 5 -1.7 5.5
0 -8 -5 13.1 8.6
0 -8 5 -4.2 3.7
0 -8 -6 0.6 6.9
0 -8 6 16.8 5.5
0 -8 6 21.2 7.8
0 -8 6 21.6 5.1
0 -8 7 7.1 5.4
0 -8 -7 27.3 12.3
0 -8 7 20.1 7.6
0 -8 7 23.5 5.3
0 -8 8 18.7 4.8
0 -8 -8 19.4 10.5
0 -8 8 27 7.7
0 -8 8 11.3 5.4
0 -8 9 12.9 6.7
0 -8 -9 20.8 11.1
0 -8 9 36.6 9.4
0 -8 9 29.6 5.7
0 -8 10 -3.7 5.9
0 -8 10 4.3 7.3
0 -8 -10 -11.9 7.3
0 9 0 -0.5 3.4
0 -9 0 0.9 5.3
0 -9 0 -2.5 5.1
0 9 1 43.5 7
0 -9 -1 40.7 9
0 -9 1 39 8.5
0 -9 1 49.2 9.6
0 9 2 29 6.4
0 -9 -2 29 8.8
0 -9 2 4.9 5.4
0 -9 2 18.8 7.4
0 9 3 14.4 6
0 -9 3 16.9 6
0 -9 -3 13.4 8.3
0 -9 3 6.7 6.1
0 -9 4 4.7 6.3
0 -9 4 2.1 4.6
0 -9 -4 5.2 8.4
0 -9 5 14.4 6.7
0 -9 -5 -8.7 5.1
0 -9 5 -0.5 4.3
0 -9 6 -1.6 5.6
0 -9 6 2.9 4.1
0 -9 6 4.3 4.1
0 -9 -6 -12 6.3
0 -9 7 -2.7 3.9
0 -9 7 8.5 5.4
0 -9 7 8.9 7.6
0 -9 -7 13.5 9.6
0 -9 8 9.2 6.8
0 -9 -8 -3 9.9
0 -9 8 -1 5.8
0 -9 8 -2 3.8
0 -9 9 7.9 4.8
0 -9 -9 11.8 8.9
0 -9 9 -0.5 6.3
0 -9 9 4.4 6.9
0 -10 0 15.2 7
0 10 1 -2.3 4
0 -10 -1 19.8 7.9
0 -10 1 -3.1 5.4
0 -10 1 2 6
0 10 2 -0.5 4.7
0 -10 2 3 5.5
0 -10 -2 4 6.8
0 -10 2 -7 4.4
0 -10 3 -4.6 6
0 -10 3 -0.9 5
0 -10 -4 -0.2 7
0 -10 4 0.2 7
0 -10 4 -4.9 4.6
0 -10 5 -1.2 7.7
0 -10 5 7.2 4.7
0 -10 -5 12.8 8.8
0 -10 6 -2.2 4.1
0 -10 -6 -1 7.6
0 -10 6 -2 6.3
0 -10 -7 0.5 8.4
0 -10 7 -1 4.3
0 -10 7 14.4 7.5
0 -10 7 10.2 5.9
0 -11 0 -5.3 6
0 -11 0 -2.2 5.6
0 -11 -1 14.7 8.4
0 -11 1 5.1 6.1
0 -11 1 8.6 6
0 -11 -1 22.3 7.9
0 -11 -2 5.4 7.9
0 -11 2 3.1 6.3
0 -11 2 2.9 5.8
0 -11 -3 14.7 10
0 -11 3 12.8 8.1
0 -11 3 1.4 5.7
0 -11 4 1.5 6.6
0 -11 -4 16 9.5
0 -11 4 16.8 6
0 -11 -5 14.5 10.3
0 -11 5 15.5 8
0 -11 6 3.4 5.6
0 -11 6 16.1 8
0 -11 -6 -3.9 7.2
0 -12 0 4.1 7
0 -12 0 19.6 9.3
0 -12 -1 4.6 8.3
0 -12 1 -2.9 6.3
0 -12 1 12.1 8.1
0 -12 -1 -1.7 7.1
0 -12 2 5.4 7.1
0 -12 2 11.1 6.7
0 -12 -2 12.2 9.7
0 -12 -3 7 9.8
0 -12 3 6.1 7.3
0 -12 3 -7.8 6.1
-1 0 13 -2.5 7.5
1 0 -13 -0.8 6.5
1 0 -12 -5.6 5.5
-1 0 12 -15.9 6.7
-1 0 11 15.7 7.9
1 0 -11 3.8 6.4
1 0 -10 17.1 7.2
1 0 -10 24.2 9.3
-1 0 10 15.3 7.6
-1 0 10 19.2 8
-1 0 9 -6.2 5.9
1 0 -9 -2.9 4
-1 0 9 2.3 5.3
-1 0 8 28.9 7.9
1 0 -8 29.1 8.1
-1 0 8 30.8 8.5
1 0 -8 37.4 7.8
-1 0 7 -1.6 3.8
1 0 -7 1.5 3.6
1 0 -7 5.1 4.8
-1 0 7 8.4 4.5
1 0 -6 66.19 7.4
1 0 -6 64.59 9.5
-1 0 6 54.59 9.1
-1 0 5 -3.2 2.8
1 0 -5 -0.2 3.5
1 0 -5 -0.4 2.6
-1 0 4 945.91 27.5
1 0 -4 922.71 29.5
1 0 -4 846.52 26
-1 0 4 877.01 29.6
-1 0 3 0.5 2.9
-1 0 3 2.8 3.4
1 0 -3 0 2.2
1 0 -3 -2.5 2.7
1 0 -2 4645.24 106.29
-1 0 2 4625.24 106.39
1 0 -2 4549.54 103.99
-1 0 2 4559.44 104.39
1 0 1 0.7 0.9
1 0 1 -0.4 0.9
-1 0 -1 -0.1 0.9
-1 0 -1 0.2 0.8
1 0 2 9.2 3.6
-1 0 -2 6.9 2.9
1 0 2 8.7 3
-1 0 -2 6.8 3.2
-1 0 -3 -2 2.7
-1 0 -3 -1.4 2.1
1 0 3 -1.6 2.6
1 0 3 -4.8 1.9
-1 0 -4 39.1 5.3
-1 0 -4 40.3 6.3
1 0 4 32.3 5.3
1 0 4 47.4 7.1
-1 0 -5 0.4 3.1
-1 0 -5 8.4 4.6
1 0 5 0.1 4
1 0 5 5.3 4
1 0 6 35 7.4
-1 0 -6 34.9 6.2
-1 0 -6 36.4 7.9
1 0 6 32.1 6.8
1 0 7 -2.8 3.9
-1 0 -7 0.6 3.6
-1 0 -7 -3.4 3.3
1 0 7 0.4 3.8
-1 0 -8 54.59 9.2
1 0 8 44.3 9.4
1 0 8 41.5 8.8
-1 0 -8 62.69 11.5
-1 0 -9 -5.3 4.4
-1 0 -9 4.3 5.3
1 0 9 -0.9 6.6
1 0 9 0.9 5.5
1 0 10 1.1 6
1 0 10 5 6.6
-1 0 -10 -0.4 6
1 0 11 0.4 7.3
-1 0 -11 1 5.7
1 0 12 0.7 6.6
-1 0 -12 -9.1 6.2
1 0 13 -0.7 7.2
-1 0 -13 -4.9 6.8
-1 1 13 -4.8 7.4
1 -1 -13 -9.6 6
-1 -1 13 5.9 6.6
-1 1 12 -14.4 6.2
1 -1 -12 9.7 8
-1 -1 12 -10.8 5.1
-1 1 11 12.9 8.1
1 1 -11 13.3 6.3
1 -1 -11 8.1 6.8
1 1 -10 68.89 11.2
1 1 -10 51.29 10.7
-1 1 10 64.89 12.3
-1 -1 10 86.59 13.2
1 -1 -10 100.79 16
-1 -1 10 35 11.4
1 1 -9 132.39 14.5
-1 1 9 129.59 15.7
-1 1 9 127.59 15.8
1 1 -9 136.79 13
-1 -1 9 164.88 16.3
-1 -1 9 119.49 12.6
1 -1 -9 104.99 11.6
1 -1 -9 114.39 13.8
1 1 -8 83.39 10.5
-1 1 8 107.49 14.7
1 1 -8 74.29 11.1
-1 1 8 80.39 11.7
-1 -1 8 79.69 10.6
-1 -1 8 81.49 12.4
1 -1 -8 82.79 11
1 -1 -8 116.39 15.3
1 1 -7 34.6 7.6
-1 1 7 31.3 7.2
-1 1 7 37.3 8.5
1 1 -7 25.3 5.8
1 -1 -7 26.9 7.9
-1 -1 7 34.3 7.8
1 -1 -7 35.4 7.1
-1 -1 7 24.4 5.9
-1 1 6 4.8 4
1 1 -6 5.2 3.4
1 1 -6 4.6 4.4
-1 1 6 0.4 4.1
1 -1 -6 3.8 4.5
-1 -1 6 1.1 3.6
-1 -1 6 8.9 4.3
1 -1 -6 6.7 3.9
-1 1 5 -1.6 3.5
1 1 -5 -0.2 3
-1 1 5 0.7 4
1 1 -5 -3.1 3.4
1 -1 -5 -1.2 2.8
1 -1 -5 2.6 4
-1 -1 5 10 4.9
-1 -1 5 -0.3 3.2
1 1 -4 217.88 11.5
1 1 -4 230.28 10.4
-1 1 4 210.98 12.8
-1 1 4 226.68 12
-1 -1 4 211.08 11.9
1 -1 -4 216.38 13
1 -1 -4 229.78 11.4
-1 -1 4 231.58 10.5
-1 1 3 50.79 5.6
1 1 -3 49.99 4.7
-1 1 3 56.49 6.6
1 1 -3 57.99 5.5
1 -1 -3 45.1 5.3
-1 -1 3 52.49 5.8
-1 -1 3 51.09 4.7
1 -1 -3 60.69 6.9
-1 1 2 11.9 4.2
1 1 -2 14.5 2.8
-1 1 2 20.6 4.3
-1 -1 2 15.6 3
1 -1 -2 18.7 4.9
1 -1 -2 18.7 4.1
-1 -1 2 19.1 3.8
-1 1 1 211.18 8.1
1 1 -1 208.68 6.4
1 -1 -1 213.38 8.2
-1 -1 1 197.08 6.3
1 1 0 148.69 5
-1 1 0 140.59 4.7
1 -1 0 139.79 4.6
-1 -1 0 147.69 4.9
-1 1 -1 349.37 10.6
1 1 1 358.76 11.6
1 1 1 362.36 11.6
-1 -1 -1 370.96 12
1 -1 1 360.66 10.8
-1 -1 -1 347.27 11.3
1 1 2 783.02 22.8
-1 1 -2 776.02 20.9
1 1 2 723.93 23.3
-1 1 -2 756.42 21.4
1 -1 2 787.92 21.4
-1 -1 -2 769.52 22.4
-1 -1 -2 777.52 23.8
1 -1 2 780.22 21.3
-1 1 -3 133.49 7.7
1 1 3 137.79 9.1
-1 1 -3 125.69 7.2
1 1 3 127.19 8.3
-1 -1 -3 137.29 9.2
-1 -1 -3 128.89 8
1 -1 3 128.79 7.3
1 -1 3 150.18 8.4
-1 1 -4 73.89 7
1 1 4 87.49 7.8
1 1 4 92.19 8.5
-1 1 -4 90.69 6.9
1 -1 4 82.49 7
1 -1 4 87.49 7.7
-1 -1 -4 86.39 7.2
-1 -1 -4 91.99 8.7
1 1 5 9.2 4.8
-1 1 -5 10.6 4.7
1 1 5 8.7 4.5
1 -1 5 19.8 4.8
1 -1 5 11.3 4.7
-1 -1 -5 8.1 4.2
-1 -1 -5 15.1 5.8
-1 1 -6 10.3 4.7
-1 1 -6 21.4 5.4
1 1 6 8.8 5.2
1 1 6 14.3 5.6
-1 -1 -6 15.9 5.9
-1 -1 -6 4.2 3.6
1 -1 6 9.1 4.8
1 -1 6 12.1 4.9
-1 1 -7 133.19 11.6
1 1 7 126.09 12.6
-1 1 -7 136.29 10.9
1 1 7 126.29 11.9
1 -1 7 140.39 11.3
-1 -1 -7 127.19 12.9
-1 -1 -7 148.69 11.6
1 -1 7 130.59 12.2
1 1 8 70.29 12
1 1 8 74.69 11.4
-1 1 -8 78.39 11.3
-1 1 -8 85.59 9.9
-1 -1 -8 89.39 11.6
-1 -1 -8 77.09 12.5
1 -1 8 82.39 10.9
1 -1 8 88.39 12.9
-1 1 -9 92.09 13.7
1 1 9 92.89 13.9
1 1 9 84.59 14
-1 1 -9 86.39 12.5
-1 -1 -9 95.79 14.7
1 -1 9 92.79 13.9
-1 -1 -9 110.99 12.7
1 -1 9 112.69 12
-1 1 -10 0.6 5.9
1 1 10 2.9 5.8
-1 1 -10 14.4 6.2
1 -1 10 18.3 7.5
1 -1 10 20.7 8.1
-1 -1 -10 10 7
1 1 11 11.8 8.7
1 -1 11 9.2 7.1
-1 -1 -11 1.2 6.6
1 1 12 7.2 7.9
-1 1 -12 1.8 6.7
1 -1 12 3.6 7.2
-1 -1 -12 1.1 7
1 1 13 -0.2 6.6
1 -1 13 -17.5 6.7
-1 -1 -13 15.2 8.4
-1 -2 13 5.1 8.7
1 -2 -13 -0.8 8
1 -2 -12 -4.1 6.4
-1 -2 12 12.1 6.6
-1 2 11 -2.3 6.1
1 -2 -11 5 6.6
1 2 -10 5.3 5.8
-1 -2 10 4.9 6.4
1 -2 -10 4.6 6.6
-1 -2 10 1.9 6.6
1 2 -9 31.4 7.3
-1 2 9 36.8 10.5
-1 2 9 30.6 9.1
1 -2 -9 49.8 11.5
-1 -2 9 41.1 8.6
-1 -2 9 28.9 9.3
1 -2 -9 48 9.3
1 2 -8 11.8 5.7
-1 2 8 1.5 5.9
-1 -2 8 6.4 5.9
1 -2 -8 15.8 7.3
1 -2 -8 10.9 5.6
-1 -2 8 9.7 4.9
-1 2 7 0.6 4.2
1 2 -7 3.4 4.2
-1 2 7 -6.2 4.2
-1 -2 7 -0.3 3.5
-1 -2 7 2 4.9
1 -2 -7 0.7 4
1 -2 -7 1.7 4.7
-1 2 6 1.6 4.2
1 2 -6 6.5 3.9
-1 2 6 0.9 4.2
-1 -2 6 -1.4 2.6
-1 -2 6 -3.4 3.8
1 -2 -6 0.2 5
1 -2 -6 -2.2 3.2
-1 2 5 104.79 10.7
1 2 -5 103.09 8.2
-1 -2 5 99.19 7.9
1 -2 -5 82.69 8.5
1 -2 -5 78.09 10.7
-1 -2 5 90.39 9
1 2 -4 11.3 3.7
1 -2 -4 6 3.8
-1 -2 4 16 3.8
-1 -2 4 17.7 4.5
1 -2 -4 20.3 6
1 2 -3 757.52 22.1
-1 2 3 764.12 26.1
-1 -2 3 783.02 21.9
1 -2 -3 731.83 26
-1 -2 3 736.93 22.6
1 -2 -3 751.92 24.7
-1 2 2 2627.34 66.09
1 2 -2 2617.44 62.09
1 -2 -2 2633.54 66.59
-1 -2 2 2678.73 62.39
-1 2 1 5149.28 117.79
1 -2 -1 5099.89 118.19
1 2 0 1142.09 27.8
-1 2 0 1078.19 27.2
-1 -2 0 1133.19 28.2
1 -2 0 1114.69 27.9
1 2 2 139.49 9.3
-1 2 -2 160.68 7.9
-1 -2 -2 146.89 8.9
1 -2 2 161.18 8.3
-1 -2 -2 150.98 9.5
1 2 3 55.09 7.3
-1 2 -3 47.6 5.8
1 2 3 52.39 6.9
1 -2 3 43.8 4.9
1 -2 3 33 4
-1 -2 -3 42.1 6.7
-1 -2 -3 40.8 6
1 2 4 4.2 3.9
-1 2 -4 1.9 3.1
1 -2 4 -0.4 3
1 -2 4 1.4 2.9
-1 -2 -4 1 4.2
1 2 5 212.88 13.7
1 2 5 178.38 13.5
-1 2 -5 191.88 11.5
-1 -2 -5 215.68 15.2
1 -2 5 193.48 11.3
-1 -2 -5 185.08 12.2
1 -2 5 197.88 12.2
-1 2 -6 20.4 5.1
1 2 6 16 6.3
1 2 6 26 6.7
-1 2 -6 14.4 4.7
-1 -2 -6 22.7 7.1
-1 -2 -6 21.3 5.7
1 -2 6 20.9 5.3
1 -2 6 10.7 4.7
1 2 7 7.2 5.2
-1 2 -7 5.8 4.4
1 2 7 7.9 5.5
-1 2 -7 11 4.9
-1 -2 -7 2.8 4.6
1 -2 7 10.9 4.5
1 -2 7 3.6 4.3
-1 -2 -7 2.6 4.8
-1 2 -8 22.1 6.1
-1 2 -8 30.5 7.5
1 2 8 32.3 8.6
1 -2 8 24.5 6.9
-1 -2 -8 19.5 8.3
1 -2 8 32.5 8.4
1 2 9 2 6.2
-1 2 -9 4.5 6
1 2 9 10.8 7.5
-1 -2 -9 9.9 7.7
1 -2 9 11.6 6.6
1 -2 9 -5.7 5.5
-1 -2 -9 9.6 6.2
1 2 10 -5.6 5.5
-1 2 -10 3.8 5.8
1 -2 10 0.9 5.5
-1 -2 -10 0.9 5.8
1 -2 10 -9.3 4.4
1 2 11 10.4 8.2
1 -2 11 9.4 7.2
-1 -2 -11 -1.4 6.8
1 2 12 15.6 10.1
-1 -2 -12 10.8 9.4
1 -2 12 19.2 7.5
1 2 13 12.1 8.5
1 -2 13 -12.9 6
-1 -2 -13 10.2 8.6
-1 -3 13 -11.2 6.9
1 -3 -13 4.3 8.9
1 -3 -12 15.3 8.8
-1 -3 12 -2.9 6.9
1 -3 -11 -3.3 5.8
1 3 -10 -9.3 4.9
-1 -3 10 9.1 6.7
-1 -3 10 8.9 7.2
1 -3 -10 -1.3 6.9
1 3 -9 6.8 6.1
-1 -3 9 3.8 6.2
1 -3 -9 7.6 6.8
-1 -3 9 15 6.2
1 -3 -9 5.4 6.7
1 3 -8 144.69 12
-1 3 8 170.68 17.2
1 -3 -8 170.28 17
-1 -3 8 157.88 14.5
-1 -3 8 166.08 13.1
1 -3 -8 186.58 15
-1 3 7 7 6.3
1 3 -7 15.2 5.3
-1 -3 7 15.8 5.3
1 -3 -7 21.1 7
1 -3 -7 11.6 7.3
-1 -3 7 22.7 6.8
-1 3 6 2.3 4.3
1 3 -6 -1.7 3
-1 -3 6 3.3 3.8
1 -3 -6 0.6 3.9
1 -3 -6 1.4 4.6
-1 -3 6 1.9 3.4
-1 3 5 39.1 8.1
1 3 -5 36.5 6.4
1 -3 -5 44.4 7.6
1 -3 -5 36 8.2
-1 -3 5 49.5 6.6
-1 -3 5 45.7 7.1
1 3 -4 52.89 6.1
-1 3 4 48.8 8.4
-1 -3 4 38.6 5.5
1 -3 -4 46.2 7.6
1 -3 -4 42.7 8
-1 -3 4 46.4 6.3
-1 3 3 19.2 5.4
1 3 -3 17.4 3.5
-1 -3 3 20.6 4.1
1 -3 -3 22.3 6
1 -3 -3 26.8 5.7
1 3 -2 294.37 11.4
-1 3 2 305.77 13.8
1 -3 -2 299.37 14.4
-1 -3 2 309.97 11.8
-1 3 1 842.82 24.6
1 -3 -1 834.82 25.5
-1 -3 1 808.82 23.3
-1 -3 1 828.52 22.1
1 3 0 4.9 2.1
-1 3 0 5.7 2.2
1 -3 0 8.3 2.8
-1 -3 0 6.7 2.6
1 3 1 69.09 5.7
1 -3 1 63.29 4.1
1 -3 1 67.89 5.4
-1 -3 -1 79.99 6.6
-1 3 -2 251.67 10.9
1 3 2 255.97 12.4
-1 -3 -2 256.97 12.6
-1 -3 -2 254.77 13.2
1 -3 2 250.67 11.1
1 3 3 215.98 12.9
-1 3 -3 230.38 10.9
-1 -3 -3 244.38 13.4
1 -3 3 230.88 11.1
-1 -3 -3 232.28 14.3
-1 3 -4 348.77 15.2
1 3 4 358.76 18.3
1 -3 4 357.06 14.8
1 -3 4 359.56 15.5
-1 -3 -4 365.46 17.5
-1 3 -5 30.9 6.4
1 3 5 37 7.9
1 -3 5 18.6 5.4
1 -3 5 33.3 5.9
-1 -3 -5 38.8 7.2
-1 -3 -5 30.7 7.7
1 3 6 30.4 8
1 3 6 29.6 7.6
-1 3 -6 29.8 6.3
-1 -3 -6 37.6 8.8
-1 -3 -6 38.1 7.7
1 -3 6 31.2 6.4
-1 3 -7 16.1 5.4
1 3 7 6.9 5.6
1 3 7 7.3 5.6
-1 -3 -7 10.7 5.8
-1 -3 -7 5 6.2
1 -3 7 11.5 5.3
1 -3 7 7.9 4.4
-1 3 -8 17.6 6.1
1 3 8 28 8.7
1 3 8 28.8 9.1
-1 -3 -8 16 7.1
-1 -3 -8 27.2 9.7
1 -3 8 25.3 7.4
1 -3 8 11.9 5.7
-1 3 -9 -2.5 5
1 3 9 -3.7 5.2
1 -3 9 -1.1 4.8
1 -3 9 1.5 6.2
-1 -3 -9 -8.2 5.4
1 3 10 3 6.3
-1 3 -10 4.7 6.8
-1 -3 -10 1.1 6.8
1 -3 10 6.6 6.9
1 -3 10 2.4 5.5
-1 -3 -11 6.1 8.5
1 -3 11 2.8 6.5
1 -3 11 1.7 5.6
-1 -3 -12 -4.4 5.6
1 -3 12 0.8 5.4
-1 -4 12 -8.5 6
1 -4 -11 15.4 8.7
1 4 -10 8.5 6.2
-1 -4 10 11.1 7.2
-1 -4 10 11.2 5.7
1 -4 -10 17.8 8.9
1 4 -9 6.1 6.8
1 -4 -9 -0.3 5.7
-1 -4 9 19.2 7.4
-1 -4 9 2.3 4.5
-1 4 8 15.6 7.4
1 4 -8 5.8 5.3
-1 -4 8 22.4 6.4
-1 -4 8 16.4 7.1
1 -4 -8 14.2 8.3
1 -4 -8 19.6 8
-1 4 7 15.9 7.3
1 4 -7 9 4.7
-1 -4 7 11.7 5.4
1 -4 -7 17.5 8.4
-1 -4 7 13.4 5.9
-1 4 6 208.38 16.4
1 4 -6 177.78 12.1
-1 -4 6 205.38 13.6
1 -4 -6 226.38 17.7
1 -4 -6 200.88 14.8
-1 -4 6 188.98 12.1
1 4 -5 33.2 6.1
-1 4 5 34.3 8.1
-1 -4 5 41.4 6.6
1 -4 -5 48.7 8.6
-1 -4 5 46.7 7
1 -4 -5 39.4 8.8
-1 4 4 493.95 22.7
1 4 -4 492.75 18.4
1 -4 -4 498.25 22.3
-1 -4 4 475.85 18.6
1 -4 -4 487.05 24
-1 4 3 56.99 8.1
1 4 -3 61.89 6.4
-1 -4 3 55.19 6.7
1 -4 -3 56.49 8.8
-1 4 2 383.36 16.6
-1 -4 2 373.86 12.6
-1 -4 2 375.16 14.6
1 -4 -2 384.56 17.8
-1 4 1 43.3 5.1
1 -4 -1 59.39 7.4
-1 -4 1 48.8 5.9
-1 -4 1 48.8 5
1 4 0 71.89 5.5
-1 4 0 71.19 5.3
-1 -4 0 71.29 6.6
1 -4 0 71.99 6.2
-1 4 -1 142.09 6
1 4 1 141.69 8.5
-1 -4 -1 158.38 10
1 -4 1 153.78 9
1 -4 1 149.99 7.4
1 4 2 82.19 7.8
-1 -4 -2 73.59 8.6
1 -4 2 82.09 5.1
1 -4 2 80.79 7.3
-1 4 -3 185.28 11.1
1 4 3 188.58 12.5
-1 -4 -3 198.78 14.1
-1 -4 -3 210.08 13.3
1 -4 3 194.28 11
-1 4 -4 462.75 18.5
1 4 4 432.16 21
1 -4 4 488.55 19.2
1 -4 4 443.96 16.8
-1 -4 -4 493.55 23.8
-1 -4 -4 449.95 21.1
-1 4 -5 15.9 4.9
1 4 5 36.1 7.8
1 -4 5 29.1 5.9
-1 -4 -5 21.2 6.4
1 -4 5 27.3 5.2
-1 -4 -5 15.6 6.6
-1 4 -6 21.9 6.1
1 4 6 23.8 7.3
-1 -4 -6 24.2 8.1
1 -4 6 29.8 7.5
-1 -4 -6 18.9 6.4
1 -4 6 24.9 6.1
-1 4 -7 116.69 11.3
1 4 7 113.29 12.9
-1 -4 -7 90.19 14.8
-1 -4 -7 109.49 13.7
1 -4 7 114.59 10.9
1 -4 7 86.09 10.4
-1 4 -8 10.4 6.3
1 4 8 10.7 7.1
1 -4 8 4.5 5
1 -4 8 3.3 5.5
-1 -4 -8 8.5 7.2
-1 -4 -8 8.5 6.4
-1 4 -9 6.5 6.4
-1 -4 -9 7.2 8.3
1 -4 9 -0.1 4.6
1 -4 9 -7.6 5.2
1 -4 10 2.7 6.1
-1 -4 -10 1.6 7.3
1 -4 10 -0.8 8.3
1 -4 11 1 6.3
1 -4 11 -3.1 7.1
-1 -4 -11 -3.9 6.9
1 -4 12 3.1 6.5
-1 -4 -12 -18.2 6.3
1 -5 -12 7.5 7.5
-1 -5 12 -3.4 6.4
1 -5 -11 -13.2 5.6
-1 -5 11 8 6.1
-1 -5 11 -0.9 6.8
1 5 -10 8.2 6.4
-1 -5 10 -6 5.8
1 -5 -10 6.7 7.1
1 5 -9 6.5 5.7
-1 -5 9 19.4 7.4
-1 -5 9 5.8 5.8
1 -5 -9 11.3 8.3
1 5 -8 -5.8 4.7
-1 -5 8 0.7 4.5
-1 -5 8 -7.1 4.5
1 -5 -8 1.1 6.9
1 5 -7 366.66 18.5
-1 5 7 371.46 23.8
1 -5 -7 334.57 25
-1 -5 7 355.56 19.7
1 -5 -7 325.67 21.2
-1 -5 7 357.96 18.6
-1 5 6 65.19 12.8
1 5 -6 74.79 8.1
-1 -5 6 49.8 7.9
-1 -5 6 62.69 8.7
1 -5 -6 70.29 13.2
1 5 -5 282.97 14.4
-1 5 5 273.87 17.7
1 -5 -5 260.57 18.7
-1 -5 5 263.57 14.6
1 -5 -5 257.87 17.2
1 5 -4 97.49 8.4
-1 5 4 96.89 10.1
-1 -5 4 63.19 8.5
1 -5 -4 101.99 13.5
1 -5 -4 92.39 10.3
-1 5 3 10.3 4.8
-1 -5 3 7.8 2.9
1 -5 -3 15.8 6.6
-1 -5 3 5.1 3.5
-1 5 2 127.49 10
-1 -5 2 146.49 8.2
-1 -5 2 136.69 9.2
1 -5 -2 131.99 11.4
-1 5 1 190.68 10.6
-1 -5 1 204.38 11.4
1 -5 -1 209.98 12.9
-1 -5 1 198.98 10.4
-1 5 0 38 5
1 5 0 34 4.8
1 -5 0 31.8 5.4
-1 -5 0 34.2 5.9
-1 5 -1 52.19 4.3
1 5 1 51.29 7.6
1 -5 1 48.9 5.6
-1 -5 -1 44.7 7.3
1 -5 1 44.6 6.8
1 5 2 25.1 5.3
1 -5 2 18.9 4.7
1 -5 2 19.8 3.8
-1 -5 -2 21.1 7
1 5 3 -2.4 3
1 -5 3 3.2 3.6
-1 -5 -3 6.5 4.8
1 -5 3 6.7 2.5
-1 -5 -3 3.3 4
1 5 4 2.3 4.3
-1 5 -4 -0.3 3
1 -5 4 -5.8 3.5
-1 -5 -4 -6.3 3.7
-1 -5 -4 6.8 4.8
-1 5 -5 90.29 8.6
1 5 5 92.99 10.6
-1 -5 -5 79.49 12.8
-1 -5 -5 77.09 11.3
1 -5 5 82.89 7.7
1 -5 5 92.99 9.5
-1 5 -6 307.57 17
-1 -5 -6 313.07 22.1
1 -5 6 314.77 17.4
-1 5 -7 201.58 14.4
1 5 7 211.38 17.8
1 -5 7 216.48 14.5
1 -5 7 202.48 14.4
-1 -5 -7 183.78 15.8
-1 -5 -7 225.48 20.2
1 -5 8 117.59 12.3
1 -5 8 126.69 12.6
-1 5 -9 9.5 6.8
1 -5 9 16.5 6.5
1 -5 9 2.3 5.9
-1 -5 -9 21.2 10.5
-1 -5 -10 10.5 7.9
1 -5 10 12.4 7
1 -5 10 14 7.2
1 -5 11 16.3 8.3
1 -5 11 -6.9 6.2
-1 -5 -11 -0.8 7
1 -5 12 -6.4 6.5
-1 -5 -12 0.8 8.1
-1 -6 11 12.4 6.7
1 -6 -11 -9.4 8.1
-1 -6 11 -2.5 6.6
-1 -6 10 9 5.8
1 -6 -10 -8.4 7.5
-1 -6 10 -9.3 6.1
1 6 -9 14.8 6.3
-1 -6 9 13.3 6.4
-1 -6 9 15.6 7.2
1 -6 -9 6.4 8
1 6 -8 26.9 7.3
1 -6 -8 39.1 12.2
-1 -6 8 28.4 7.8
-1 -6 8 23 7.2
1 6 -7 136.59 11.6
-1 -6 7 107.29 10.7
1 -6 -7 179.08 18.4
-1 -6 7 129.49 11.8
1 6 -6 427.86 20.5
-1 6 6 435.66 24.9
1 -6 -6 434.56 28
1 -6 -6 452.45 25.1
-1 -6 6 426.66 20.1
-1 -6 6 441.16 21.1
-1 6 5 3.6 4.7
1 6 -5 8.8 4.7
1 -6 -5 12.9 7.2
1 -6 -5 14.2 7.3
-1 -6 5 2.3 4.4
-1 6 4 65.29 10.1
-1 -6 4 76.69 6.3
1 -6 -4 60.39 10.4
-1 -6 4 76.99 8.2
1 -6 -4 85.09 13.4
-1 6 3 5.8 4.2
-1 -6 3 15.5 3.9
-1 -6 3 5.2 4.3
1 -6 -3 17.1 6
-1 6 2 -0.8 2.8
-1 -6 2 0.9 2.7
1 -6 -2 9.5 5
-1 -6 2 3.7 3.4
-1 6 1 60.59 7.4
-1 -6 1 52.09 7.5
1 -6 -1 52.49 8.3
-1 -6 1 45.2 6.6
-1 6 0 2.8 3
1 6 0 11.7 3.6
1 -6 0 8 4.1
-1 -6 0 6.1 4.5
1 6 1 4.4 3.3
1 -6 1 8.5 3.8
1 -6 1 15.3 5
-1 -6 -1 8.4 4.7
1 6 2 175.48 11.6
1 -6 2 189.18 10.3
1 -6 2 196.78 12.4
-1 -6 -2 166.58 13.9
1 6 3 148.99 11.7
1 -6 3 143.39 8.5
-1 -6 -3 119.29 12.3
1 -6 3 148.59 11
1 6 4 17.5 6.2
1 -6 4 20.6 6
-1 -6 -4 13.8 6.9
1 -6 4 12.7 3.4
-1 -6 -4 20.7 6.8
-1 6 -5 6 4.9
1 -6 5 2.4 2.6
1 -6 5 -0.4 3.9
-1 -6 -5 3.4 6.1
1 -6 5 -0.8 3.1
-1 -6 -5 0.9 5.8
-1 6 -6 225.78 14.9
1 6 6 221.68 18.5
1 -6 6 247.38 14.6
-1 -6 -6 249.97 21
-1 -6 -6 229.08 17.8
1 -6 6 231.48 15.2
-1 6 -7 -3.3 5.3
1 -6 7 12.1 5
-1 -6 -7 13 8.5
1 -6 7 13.5 6.4
-1 6 -8 -1.3 5.5
1 -6 8 8.4 5.6
-1 -6 -8 8.3 9.1
1 -6 8 5.8 5.9
-1 6 -9 -12.3 6.3
1 -6 9 14.5 6.2
-1 -6 -9 1.5 7.2
1 -6 9 5.5 5.6
1 -6 10 12.2 6.6
-1 -6 -10 2 9.2
1 -6 10 10.3 6.2
1 -6 11 3.2 6.6
1 -6 11 -12.4 7.1
-1 -7 11 -4.5 5.2
1 -7 -11 -17.2 6.6
-1 -7 11 -14.7 5.8
1 -7 -10 9.8 9.4
-1 -7 10 23.5 8.1
-1 -7 10 13.7 7
1 7 -9 48.6 10.1
-1 -7 9 51.59 10
1 -7 -9 45.6 13.3
-1 -7 9 37.5 9.4
1 7 -8 6.8 6
-1 -7 8 4.8 6.2
1 -7 -8 0.4 7.9
-1 -7 8 -1.8 5.5
1 7 -7 9.3 6
1 -7 -7 22.4 10.1
-1 -7 7 10.1 5.9
-1 -7 7 13 6.2
1 -7 -6 119.69 17.9
-1 -7 6 147.69 12.5
-1 -7 6 146.79 11.5
-1 -7 6 154.08 9.6
-1 7 5 4.8 5.6
1 -7 -5 12.4 6.6
1 -7 -5 -4.9 5.5
-1 -7 5 7.2 5
-1 7 4 0.5 4.8
-1 -7 4 0.6 4.2
-1 -7 4 9.9 3.9
1 -7 -4 4.2 6.1
1 -7 -4 7.3 6
-1 7 3 150.88 12.9
-1 -7 3 160.38 10.4
1 -7 -3 151.98 14.5
-1 -7 3 155.08 12
-1 7 2 65.89 7.7
-1 -7 2 59.29 7.3
1 -7 -2 68.99 11.1
-1 -7 2 47.3 7.7
-1 7 1 37.6 5.9
-1 -7 1 39.2 7.2
1 -7 -1 26.3 6.7
-1 -7 1 44 8.2
-1 7 0 139.49 8.8
1 7 0 149.59 9.2
-1 -7 0 142.89 11.8
1 -7 0 119.49 17.1
1 7 1 216.18 12.1
1 -7 1 203.28 12.7
1 -7 1 208.28 14.1
-1 -7 -1 201.48 14.8
1 7 2 13.6 5
1 -7 2 10.6 4.2
1 -7 2 13.9 5
-1 -7 -2 4.1 5.7
1 7 3 6.7 5
-1 -7 -3 10.8 6.9
1 -7 3 2.7 4.6
1 -7 3 2.9 3.4
-1 -7 -4 16.8 8
-1 -7 -4 -1.8 6.1
1 -7 4 11.8 5.2
1 -7 4 7.6 3.8
1 7 5 173.08 15.6
1 -7 5 191.98 14.4
-1 -7 -5 179.48 16.4
-1 -7 -5 166.88 18.5
1 -7 5 181.78 10.2
-1 7 -6 21.8 7.3
1 -7 6 18.1 5.3
-1 -7 -6 31.3 10.8
1 -7 6 14.8 3.9
1 -7 6 22 7.5
-1 7 -7 13.7 6.5
1 -7 7 24.9 6.1
1 -7 7 17.7 5.9
-1 -7 -7 6.9 7.8
-1 7 -8 15.3 8.1
1 -7 8 16.2 7.2
-1 -7 -8 16.1 9.5
1 -7 8 12.2 6
1 -7 9 39.1 8.5
-1 -7 -9 65.39 16
1 -7 10 -11 5.9
1 -7 10 -2.8 6.3
-1 -7 -10 -19.8 7.1
-1 -8 10 16.9 8.1
-1 -8 10 33.4 8.7
1 -8 -10 43.1 13.3
-1 -8 9 -5.8 3.1
1 -8 -9 3.7 9.6
-1 -8 9 -11.9 5.4
1 -8 -8 -9 5.6
-1 -8 8 -1.1 3.8
-1 -8 8 8.5 4.9
-1 -8 8 -2 4.9
-1 -8 7 9 5.8
1 -8 -7 9.6 7.8
-1 -8 7 7.6 5.8
-1 -8 7 10.5 4.5
-1 -8 6 8.1 6.6
-1 -8 6 -2 3.5
1 -8 -6 -2.8 7.7
-1 -8 5 -7.5 4.4
-1 -8 5 0.9 3.4
1 -8 -5 1.4 6.5
-1 8 4 4.9 5.7
1 -8 -4 19.6 9.8
-1 -8 4 13.8 4.6
-1 -8 4 21 6.6
-1 8 3 64.09 9.5
-1 -8 3 39.5 7.6
-1 -8 3 56.09 8.1
1 -8 -3 52.49 11.7
-1 8 2 1.6 4.4
-1 -8 2 4 4.8
-1 -8 2 1.8 4.4
1 -8 -2 9.4 6.1
-1 8 1 47.6 7.2
-1 -8 1 33.8 7.5
1 -8 -1 46.1 8.9
-1 -8 1 50.99 9.1
1 8 0 1.1 3.3
-1 8 0 3.1 3.4
-1 -8 0 3.1 4.7
1 -8 0 0.7 5.2
1 8 1 25.2 5.7
1 -8 1 31.5 7.5
-1 -8 -1 28.1 8.4
1 -8 1 12 5.3
1 8 2 106.49 10.1
-1 -8 -2 82.09 13.1
1 -8 2 102.29 11.3
1 8 3 -2.5 4.3
1 -8 3 4.2 5.4
-1 -8 -3 -0.1 7
1 -8 3 7.4 4.1
1 8 4 2.7 4.8
1 -8 4 -0.7 3.6
-1 -8 -4 5.6 8.1
1 -8 4 -1.4 5.1
1 -8 5 27.6 8.7
-1 -8 -5 34.5 11.2
1 -8 5 47.3 6.7
-1 -8 -6 1.5 6.9
1 -8 6 -3.9 5
1 -8 6 0.9 4.1
-1 -8 -7 69.89 15
1 -8 7 73.39 9.7
1 -8 7 78.49 8
1 -8 7 69.29 11.7
1 -8 8 4.5 5.1
1 -8 8 -4.4 5.8
1 -8 8 3.3 3.7
-1 -8 -8 6.7 8.9
1 -8 9 22.2 7.4
1 -8 9 14.1 7.5
-1 -8 -9 36.4 11.8
1 -8 9 25.2 5.3
1 -8 10 8.9 8.1
1 -8 10 14.8 7.7
-1 -8 -10 13.2 10.6
-1 -9 9 4.4 6.2
-1 -9 9 -4.7 4.7
-1 -9 9 12 7
1 -9 -9 1.7 10.5
-1 -9 8 -4.2 3.8
1 -9 -8 8.1 9.7
-1 -9 8 5.9 5.9
-1 -9 8 -3.3 7.2
-1 -9 7 28.1 6.9
1 -9 -7 22.5 10.1
-1 -9 7 20 7.6
-1 -9 7 31.9 6.2
-1 -9 6 14.9 7.3
-1 -9 6 18.9 5.6
1 -9 -6 14.2 9.6
-1 -9 5 19.4 7.2
1 -9 -5 10.9 7.6
-1 -9 4 5.6 4.4
-1 -9 4 8.8 6.2
1 -9 -4 7.9 7.9
-1 9 3 51.79 9.8
-1 -9 3 48.2 8
1 -9 -3 46.9 11.9
-1 -9 3 36.4 8.5
1 -9 -2 -6.8 5.3
-1 -9 2 9.4 5.9
-1 -9 2 0 4.2
-1 9 1 -4.6 3.3
-1 -9 1 -0.3 4.8
1 -9 -1 16.8 6.4
-1 -9 1 1.5 4.5
-1 9 0 49.8 7
1 9 0 48.8 6.9
1 -9 0 59.59 11.4
-1 -9 0 61.49 10.9
1 -9 0 56.29 10.4
1 9 1 19.6 5.4
-1 -9 -1 12.9 7.8
1 -9 1 24 7.1
1 -9 1 25.9 6.7
1 9 2 38.8 7.5
1 -9 2 34 8.2
1 -9 2 33.1 7.2
-1 -9 -2 21.4 8.6
1 9 3 75.99 10.9
1 -9 3 48.9 8.2
-1 -9 -3 63.49 13
1 -9 3 69.09 11.8
1 -9 4 14 6.8
1 -9 4 38.2 6.8
1 -9 5 23 5.7
1 -9 5 29.5 8.6
-1 -9 -5 26.6 12.1
1 -9 6 2.9 4.1
1 -9 6 2.6 6.2
-1 -9 -6 3.2 8.4
1 -9 6 6 4.3
1 -9 7 1.3 7
1 -9 7 -2.1 4.5
-1 -9 -7 0.9 7.1
1 -9 8 17.8 6.2
1 -9 8 14.4 7.5
1 -9 8 22.3 5.6
-1 -9 -8 22.2 11.6
-1 -9 -9 -8.3 7.2
1 -9 9 -7.9 3.7
1 -9 9 8.1 7.2
1 -9 9 3.2 6.4
-1 -10 7 -11 5.1
1 -10 -7 -8.4 8.2
-1 -10 7 10.7 7
-1 -10 7 -2.2 4.4
-1 -10 6 -1.5 4.5
-1 -10 6 0.6 6.2
1 -10 -6 -9.6 7.3
-1 -10 5 -1.4 6.3
-1 -10 5 -0.4 3.9
1 -10 -5 -6.3 6.6
-1 -10 4 -11.8 5
1 -10 -4 -3.5 6.8
-1 -10 4 -0.5 4.2
-1 -10 3 3.1 5.2
-1 -10 3 -3.4 4.7
1 -10 -3 2.6 7.8
-1 10 2 4 4.2
-1 -10 2 3.1 4.9
-1 -10 2 -2.3 4.5
1 -10 -2 -9.7 5.3
-1 10 1 -2.1 3.7
1 -10 -1 2.8 6.8
-1 -10 1 -1.8 4.9
-1 -10 1 8.6 6.7
-1 -10 0 27 8.8
-1 -10 0 42.4 11.6
1 -10 0 27.9 9.1
1 -10 0 22.9 8.6
1 10 1 82.59 9
-1 -10 -1 82.59 13.3
1 -10 1 81.09 11.8
1 -10 2 7.8 5.4
1 -10 2 7.8 8.6
-1 -10 -2 -0.1 7.5
1 -10 3 25.7 7
-1 -10 -3 22.4 9.8
1 -10 3 34.9 14.2
1 -10 4 5.8 5.3
1 -10 4 21.9 9.5
-1 -10 -4 39 11.8
-1 -10 -5 -5.9 8.1
1 -10 5 -1.9 4
1 -10 5 -2.1 5.9
1 -10 6 3.9 4.8
1 -10 6 2.8 5
1 -10 6 -4.8 6.3
-1 -10 -6 8.8 8.5
1 -10 7 20.6 6.3
-1 -10 -7 19.1 10.6
1 -10 7 4 7.3
1 -10 7 12 5.8
-1 -11 6 -3.6 5.4
-1 -11 6 -4.5 6.7
1 -11 -6 1.9 8.7
-1 -11 5 4.7 7.1
-1 -11 5 -5.4 5.3
1 -11 -5 39.9 12.6
1 -11 -4 8.7 9.1
-1 -11 4 7.2 6.9
-1 -11 4 9.3 7.2
-1 -11 3 3.4 6.2
1 -11 -3 -11.6 6.8
-1 -11 3 -0.9 6.1
1 -11 -2 -10.8 7.1
-1 -11 2 10.2 7.3
-1 -11 2 8.7 6.8
1 -11 -1 8.7 7.2
-1 -11 1 -4.5 5.9
1 -11 -1 5.1 7
-1 -11 1 4.5 6.4
1 -11 0 7.2 6.2
-1 -11 0 4.4 5.9
1 -11 0 16.1 7.8
-1 -11 0 6.9 6.6
1 -11 1 6.5 6.4
1 -11 2 10.4 6.9
-1 -11 -2 24.3 10.2
1 -11 2 9.6 6.6
1 -11 3 9.5 6.9
-1 -11 -3 9 9.1
1 -11 3 -3.3 4.7
1 -11 4 12 6.2
1 -11 4 39 10.3
-1 -11 -4 -6.2 8.1
1 -11 5 2.7 6.5
-1 -11 -5 -8.8 6.6
1 -11 5 2.6 5.4
1 -11 6 -1.5 7.5
-1 -11 -6 13.9 10.5
1 -11 6 -7.3 4.3
1 -12 -3 11 9.1
-1 -12 3 11.2 7.7
-1 -12 3 -3.7 7.8
1 -12 -2 -15.9 6.3
-1 -12 2 -13 5.8
-1 -12 2 1.4 7.8
1 -12 -2 10.4 7
-1 -12 1 -4.3 8
-1 -12 1 29.2 9.1
1 -12 -1 -0.6 8.9
1 -12 -1 9.8 7.5
1 -12 0 10.4 9.9
-1 -12 0 24.8 9.7
-1 -12 0 6.2 8.6
1 -12 0 -7 5.8
1 -12 1 -13 6.3
-1 -12 -1 0.8 8
1 -12 1 21.2 8.6
-1 -12 -1 -3.9 7.3
1 -12 2 -1.2 6.2
-1 -12 -2 -7.6 8
1 -12 2 8.3 8
-1 -12 -3 7.3 9.4
1 -12 3 5.9 6.8
1 -12 3 -1.3 7
-2 0 13 7.4 7.4
2 0 -13 -9.3 6.8
-2 0 12 -4.3 6.5
2 0 -12 3.1 6.5
-2 0 11 -3.6 7.7
2 0 -11 3.2 6.1
2 0 -10 5.3 5.9
-2 0 10 -2.3 6.9
2 0 -10 18.7 7.3
-2 0 10 -1.7 6.2
2 0 -9 -2.2 4.1
-2 0 9 5.9 6.4
2 0 -9 -0.9 5
-2 0 9 3.6 5.7
-2 0 8 117.29 14.1
2 0 -8 107.99 12.2
2 0 -8 135.39 11.3
-2 0 8 152.38 13.4
2 0 -7 -6 3.1
2 0 -7 -1.4 3.6
-2 0 7 -1 3.8
-2 0 7 3.7 4.6
-2 0 6 0.3 3.7
2 0 -6 1.2 3.4
2 0 -6 4.6 4.3
-2 0 6 3.4 3.6
-2 0 5 -3.7 3.3
2 0 -5 1.2 3.2
-2 0 5 1 3.2
2 0 -5 -0.6 3.5
2 0 -4 930.31 27.6
2 0 -4 1024.9 31.5
-2 0 4 966.7 31.6
-2 0 4 964.4 28.7
2 0 -3 0 2.4
-2 0 3 2 2.5
-2 0 3 -0.6 3.1
2 0 -3 -1.9 2.7
-2 0 2 140.39 6.5
2 0 -2 136.19 7.6
-2 0 2 131.79 7.7
2 0 -2 126.19 6
-2 0 1 0.4 1
2 0 -1 -0.2 0.7
2 0 -1 0.7 1.1
2 0 1 -0.2 1
-2 0 -1 1.1 1.2
2 0 1 -0.3 1.1
-2 0 -1 -0.3 1.1
-2 0 -2 1334.97 34.4
2 0 2 1294.77 34
-2 0 -2 1282.57 33.3
2 0 2 1341.67 33.6
2 0 3 -0.6 2.5
-2 0 -3 -0.9 2.9
2 0 3 -1.4 2.3
-2 0 -3 -1.1 2.1
2 0 4 98.19 7.4
-2 0 -4 81.19 7.7
-2 0 -4 87.49 7
2 0 4 88.89 8.3
-2 0 -5 -0.8 2.9
-2 0 -5 3.2 4.2
2 0 5 2.3 4.1
2 0 5 -3.9 2.9
-2 0 -6 150.08 14.5
-2 0 -6 166.98 11.2
2 0 6 142.49 12.2
2 0 6 146.19 11.2
-2 0 -7 -3.1 3.7
2 0 7 -0.7 3.4
2 0 7 2.5 4.2
-2 0 -7 5.9 4.2
2 0 8 -0.3 5.7
-2 0 -8 4.2 4.7
-2 0 -8 7.6 5.2
2 0 9 0.6 4.8
-2 0 -9 -1.5 4.7
-2 0 -9 -0.3 5.4
2 0 10 11.5 7.6
2 0 10 3.6 5.6
-2 0 -10 8.7 6.9
2 0 11 1.4 7.4
-2 0 -11 -8.6 4.3
-2 0 -12 17.6 9.3
2 0 12 36.4 11.5
-2 0 -13 -2.9 7.6
2 0 13 0.3 8
-2 1 13 4.5 8.5
2 -1 -13 1.4 6.6
-2 -1 13 -7.7 6.9
-2 1 12 16.6 7.4
2 -1 -12 -1.7 7.2
-2 -1 12 -3.8 6.7
-2 1 11 1.6 6.3
2 -1 -11 -5.9 4.9
-2 -1 11 2.3 6
-2 1 10 61.29 12.1
2 1 -10 46.1 10
2 1 -10 43.1 10.1
-2 -1 10 18.5 9.4
2 -1 -10 45.5 10.9
-2 -1 10 35.3 9
2 -1 -10 37.3 8.9
-2 1 9 93.39 13.4
2 1 -9 102.49 12.2
-2 1 9 81.09 13.7
2 1 -9 84.39 11.3
-2 -1 9 98.09 17
2 -1 -9 89.69 14.3
-2 -1 9 100.09 12.8
2 -1 -9 84.49 11.7
2 1 -8 6.2 5
2 1 -8 2.6 4.1
-2 1 8 8.4 5.5
-2 1 8 2.2 5.2
2 -1 -8 15.2 6.8
-2 -1 8 -4 4.2
2 -1 -8 8.6 4.9
-2 -1 8 16.2 6.9
-2 1 7 83.59 12.3
-2 1 7 72.99 10.5
2 1 -7 90.19 8.8
2 1 -7 85.69 9.5
2 -1 -7 73.19 8.4
-2 -1 7 75.89 11
2 -1 -7 70.59 11.1
-2 -1 7 69.99 9.2
-2 1 6 49.9 9.3
2 1 -6 49.4 7.3
-2 1 6 50.59 8
-2 -1 6 42.6 7
2 -1 -6 58.99 8
2 -1 -6 54.19 9.5
-2 -1 6 40.8 8.3
2 1 -5 2.3 2.9
-2 1 5 -0.4 3.5
-2 1 5 0 4
2 1 -5 6.3 4.2
-2 -1 5 3.1 3
2 -1 -5 4.8 4.3
-2 -1 5 -4.8 3.1
-2 1 4 156.88 11.1
2 1 -4 161.58 10
2 1 -4 158.48 8.4
-2 1 4 142.99 9.9
-2 -1 4 166.18 8.7
2 -1 -4 173.18 9.7
2 -1 -4 179.48 11.7
-2 -1 4 154.98 10.3
-2 1 3 407.26 15.4
-2 1 3 415.36 17
2 1 -3 393.06 13
-2 -1 3 416.06 15.6
2 -1 -3 413.76 16.9
-2 -1 3 393.16 13
2 -1 -3 408.76 15
2 1 -2 89.39 4.9
-2 1 2 89.69 7.3
2 -1 -2 90.09 7.5
-2 -1 2 84.09 4.6
2 -1 -2 80.19 6.4
2 1 -1 3.3 1
-2 1 1 3 2
2 -1 -1 1.2 1.8
-2 -1 1 2.8 1
2 1 0 145.49 5
-2 1 0 142.79 4.6
-2 -1 0 145.79 5.1
2 -1 0 149.79 5.6
2 -1 0 141.79 4.6
2 1 1 80.59 5
2 1 1 89.39 5.1
-2 1 -1 88.49 4.9
2 -1 1 81.19 3.1
2 -1 1 82.09 4.9
-2 -1 -1 86.09 5.4
-2 -1 -1 85.09 5
-2 1 -2 372.96 12.3
2 1 2 393.46 14.7
-2 1 -2 425.46 14
2 1 2 387.06 14.2
2 -1 2 376.76 12.6
-2 -1 -2 413.86 15.4
2 -1 2 404.96 13.5
-2 -1 -2 393.56 14
2 1 3 1168.58 32.8
2 1 3 1113.69 33.5
-2 1 -3 1118.19 31.2
-2 1 -3 1123.49 31.2
2 -1 3 1107.79 31.3
-2 -1 -3 1154.08 32.1
2 -1 3 1167.28 31.4
-2 -1 -3 1138.39 34.2
2 1 4 2.4 3.5
-2 1 -4 4.6 3.3
-2 1 -4 1.2 2.8
2 1 4 2.7 3.2
-2 -1 -4 3.1 3.2
-2 -1 -4 4.8 3.8
2 -1 4 2.2 3.1
2 -1 4 1.1 3.1
2 1 5 251.97 15.2
-2 1 -5 231.48 13.5
2 1 5 264.77 14.9
-2 1 -5 257.47 13.1
2 -1 5 242.68 12.9
-2 -1 -5 284.47 14
-2 -1 -5 271.87 16
2 -1 5 261.97 14.5
-2 1 -6 326.27 16.2
2 1 6 312.97 18.3
2 1 6 369.06 18.5
-2 1 -6 336.97 17.4
-2 -1 -6 326.37 16.5
2 -1 6 344.87 16.8
-2 -1 -6 356.56 19.9
2 -1 6 330.27 17.8
2 1 7 32.2 7.8
-2 1 -7 25.1 6.4
2 1 7 20.6 7
-2 1 -7 29.6 6.3
-2 -1 -7 27.5 7.7
-2 -1 -7 15.8 5.5
2 -1 7 30.2 6.8
2 -1 7 29.8 7.5
2 1 8 82.99 12.8
-2 1 -8 84.19 10.3
2 1 8 67.89 11.1
-2 1 -8 72.19 10.2
2 -1 8 76.99 11
-2 -1 -8 77.19 12.9
2 -1 8 83.09 12.8
-2 -1 -8 80.49 10.9
-2 1 -9 0.5 5.1
2 1 9 1.7 5.7
-2 1 -9 -0.2 4.5
2 1 9 -4.8 4.9
2 -1 9 -3.3 4.8
-2 -1 -9 0.7 4.8
-2 -1 -9 7.3 7
2 -1 9 -7.2 5.3
-2 1 -10 9.4 6.5
2 -1 10 6.1 6.8
-2 -1 -10 4.7 7.5
2 -1 10 18.2 8.3
2 1 11 32.7 10.1
-2 -1 -11 48.6 12.3
2 -1 11 19.5 8.5
-2 1 -12 3.3 7.4
2 1 12 14.7 8.2
2 -1 12 -1.6 6
-2 -1 -12 6.5 7.8
2 1 13 4.8 8.2
-2 -1 -13 7.3 7.8
2 -1 13 10.3 8
2 -2 -13 10.3 8.5
-2 -2 13 -9.8 6.5
-2 -2 12 16.1 8
2 -2 -12 6 7.8
2 2 -10 -7.7 5.7
-2 2 10 4.7 6.8
2 -2 -10 8.1 6.7
-2 -2 10 7.4 6.4
-2 -2 10 4.9 5.5
-2 2 9 10 7.3
-2 2 9 10.5 6.9
2 2 -9 -3.6 4.6
2 -2 -9 1.8 5.7
-2 -2 9 -3.4 4.2
2 -2 -9 1.7 4.7
-2 -2 9 12.9 7
2 2 -8 147.39 11.9
-2 2 8 126.39 13.3
-2 -2 8 153.38 12.1
2 -2 -8 156.38 13.2
2 -2 -8 139.49 15.9
-2 -2 8 150.88 14.2
2 2 -7 35.2 6.8
-2 2 7 21.7 7.4
-2 2 7 25.6 7.3
-2 -2 7 29.2 6.2
2 -2 -7 25.5 7.1
-2 -2 7 30.1 7.7
2 -2 -7 26 8.2
-2 2 6 0.4 3.9
2 2 -6 -9.8 4
-2 2 6 9.2 5
2 -2 -6 -0.1 4.3
-2 -2 6 9.3 4.6
2 -2 -6 11.8 4.7
-2 -2 6 1.6 3
2 2 -5 64.49 6.7
-2 2 5 57.79 9.3
-2 -2 5 57.09 6
2 -2 -5 67.09 10.3
2 -2 -5 65.59 8.5
-2 -2 5 46.2 7.6
2 2 -4 7 3.1
-2 2 4 6.8 5.3
-2 -2 4 8.8 3
2 -2 -4 3.8 4.4
2 -2 -4 14.6 4.7
-2 -2 4 6.7 3.4
-2 2 3 21.9 5.1
2 2 -3 32 4.1
2 -2 -3 25.5 5.1
-2 -2 3 22.9 3.5
2 -2 -3 24 5.6
2 -2 -2 6324.07 146.99
-2 2 1 185.68 9.2
2 -2 -1 194.58 9.7
-2 -2 1 182.18 7.2
2 2 0 1027.3 25.9
-2 2 0 1020.4 25.4
2 -2 0 1043.4 26
-2 -2 0 1014.6 26.4
2 -2 1 5154.98 113.29
-2 -2 -1 5093.49 118.19
2 2 2 1519.65 40.6
2 2 2 1462.75 40.1
-2 2 -2 1497.55 38.6
-2 -2 -2 1472.05 41.3
2 -2 2 1530.15 39
-2 -2 -2 1467.55 40.1
2 -2 2 1484.85 36
2 2 3 58.59 6.5
2 2 3 55.29 7.3
-2 2 -3 45.6 5.4
2 -2 3 56.99 5.7
-2 -2 -3 62.49 6.2
-2 -2 -3 60.19 7.2
2 -2 3 55.69 4.9
2 2 4 853.91 29.1
-2 2 -4 848.72 26.8
2 2 4 826.52 30.3
-2 -2 -4 862.31 30.9
2 -2 4 840.42 26.6
-2 -2 -4 824.32 27.9
2 -2 4 829.12 26.4
-2 2 -5 27.9 5.4
2 2 5 23.5 6.3
2 2 5 31 6.9
-2 2 -5 34.7 6.3
2 -2 5 21.3 5.2
2 -2 5 26.8 5.4
-2 -2 -5 16.2 6.2
-2 -2 -5 25.9 5.8
-2 2 -6 7.8 4.1
2 2 6 -3 3.6
2 2 6 0.3 4.4
-2 2 -6 3.4 4.2
-2 -2 -6 12.3 5.8
2 -2 6 3 4.1
-2 -2 -6 2.8 4.1
2 -2 6 4.8 3.7
2 2 7 -4.5 3.7
-2 2 -7 -2.2 3.3
-2 2 -7 -1.9 3.4
2 2 7 -2.8 4
2 -2 7 3 4.1
2 -2 7 -1.1 4
-2 -2 -7 3.1 4.2
-2 -2 -7 -4.3 3.8
-2 2 -8 11.8 5.7
2 2 8 11.5 6.8
-2 2 -8 19.1 6.9
2 -2 8 9.5 5.9
-2 -2 -8 -3.4 4.8
2 -2 8 16 7
-2 -2 -8 7.4 7
2 2 9 43.2 10.5
-2 2 -9 52.19 10
2 2 9 41.5 11.1
-2 2 -9 52.69 9.7
-2 -2 -9 34.5 8.6
2 -2 9 41.1 9.5
2 -2 9 31.5 9.4
-2 -2 -9 32.5 9.8
2 2 10 7.5 7.1
2 -2 10 2.4 6
-2 -2 -10 3.7 7.5
2 -2 10 -1.2 5.3
2 2 11 11.3 7.9
-2 -2 -11 23.1 9
2 -2 11 19.1 8.3
2 2 12 6.4 8.1
-2 -2 -12 7.9 7.2
2 -2 12 6 6.9
-2 -2 -13 5 8.8
2 -2 13 21.5 9.4
-2 -3 13 -3.9 6.3
2 -3 -13 3.3 8.5
-2 -3 12 -9.8 5.7
2 -3 -12 -11.2 6.1
2 -3 -11 11.2 8.1
-2 -3 11 5.4 5.8
2 3 -10 28.9 8.5
-2 -3 10 34.8 9.6
-2 -3 10 23.7 7
2 -3 -10 53.09 13.5
2 3 -9 6.8 5.8
2 -3 -9 3.7 6
-2 -3 9 8.1 6.1
2 -3 -9 3.5 6.7
-2 -3 9 3.9 4.9
2 3 -8 46.2 8.2
-2 3 8 38.9 9.5
-2 -3 8 30.3 8.5
-2 -3 8 28.8 6.9
2 -3 -8 55.09 9.7
2 -3 -8 65.19 12.7
-2 3 7 10 6.1
2 3 -7 1.5 3.7
2 -3 -7 5.4 4.9
2 -3 -7 2.1 5.5
-2 -3 7 3.5 4.9
-2 -3 7 0.9 3.5
2 3 -6 19.3 5.1
-2 3 6 20.1 6.9
-2 -3 6 21.5 4.8
-2 -3 6 12.6 5.2
2 -3 -6 23.6 7
2 -3 -6 23.7 7.7
2 3 -5 363.06 15.5
-2 3 5 372.36 20.3
-2 -3 5 378.06 15.6
2 -3 -5 383.36 21
2 -3 -5 399.96 19.4
-2 -3 5 380.86 17.6
-2 3 4 83.39 9.6
2 3 -4 84.49 6.8
-2 -3 4 94.59 7
2 -3 -4 91.29 10.2
2 -3 -4 76.89 8.7
2 3 -3 63.29 5.5
-2 3 3 67.99 7.7
-2 -3 3 64.99 5.7
2 -3 -3 62.49 7.7
-2 3 2 138.49 9.2
2 -3 -2 134.49 9.6
-2 -3 2 152.98 7.3
-2 3 1 23.5 3.9
2 -3 -1 20.9 4.3
-2 -3 1 26.2 3.4
2 3 0 443.66 13.9
-2 3 0 419.86 13.1
2 -3 0 435.96 14.2
-2 -3 0 441.36 14.6
2 3 1 238.78 10.3
2 -3 1 232.78 8
-2 -3 -1 235.78 11.4
2 -3 1 232.18 10.2
-2 3 -2 593.84 19.3
2 3 2 592.04 20.9
2 -3 2 589.44 19.5
-2 -3 -2 589.34 21.3
-2 -3 -2 591.74 22
-2 3 -3 350.36 14.6
2 -3 3 347.77 14.6
2 -3 3 353.86 12.6
-2 -3 -3 342.37 18.5
-2 -3 -3 352.06 17.5
2 3 4 383.56 18.9
-2 3 -4 408.96 19.6
2 -3 4 412.96 16.9
-2 -3 -4 392.56 18.5
2 -3 4 387.46 15.4
2 3 5 553.14 25.3
2 3 5 586.44 25.1
-2 3 -5 544.35 21.9
2 -3 5 578.94 21.5
-2 -3 -5 554.24 23.6
2 -3 5 542.65 24.1
-2 -3 -5 535.95 25.8
2 3 6 59.19 10.3
2 3 6 65.39 10.5
-2 3 -6 69.19 9.4
-2 -3 -6 38.8 9.3
-2 -3 -6 61.19 9.6
2 -3 6 55.79 8.3
2 -3 6 49.5 7.9
2 3 7 7 5.5
-2 3 -7 -3.5 4.1
2 3 7 -0.4 4.4
2 -3 7 -1.6 3.9
-2 -3 -7 3.5 5.9
-2 -3 -7 1.7 4.7
2 -3 7 5.8 4.5
2 3 8 7.5 6.4
2 3 8 -1.3 4.4
-2 3 -8 3 4.9
2 -3 8 4.3 4.6
2 -3 8 -4 4
-2 -3 -8 -2.9 4.9
-2 -3 -8 7.6 7.1
-2 3 -9 -1.8 4.7
2 3 9 4.4 6.5
2 -3 9 4.3 5.8
2 -3 9 -2.6 5
-2 -3 -9 6.1 7.6
2 3 10 12 7.7
2 -3 10 0.3 5.4
-2 -3 -10 8.2 8.1
2 3 11 2.9 6.8
2 -3 11 1 6
-2 -3 -11 5.4 8.4
2 -3 11 7.3 7.8
2 -3 12 6.9 6.1
-2 -3 -12 23.2 10.4
-2 -4 12 -6.8 4.9
2 -4 -12 9.1 8.2
2 -4 -11 -16.7 5.9
-2 -4 11 7.4 6.7
2 4 -10 -2.5 5.9
2 -4 -10 20 9.6
-2 -4 10 9.4 6.2
-2 -4 10 14.9 7.3
2 4 -9 72.19 10.8
-2 -4 9 65.79 10.1
2 -4 -9 79.09 15.2
-2 -4 9 62.99 11.2
-2 4 8 0.1 5.5
2 4 -8 1.3 4.8
2 -4 -8 -2.5 5.4
-2 -4 8 0.9 4.9
-2 -4 8 5 4.6
2 -4 -8 -0.4 5.7
-2 4 7 360.26 23.4
2 4 -7 347.77 17.6
-2 -4 7 349.57 19.7
2 -4 -7 354.06 24.2
-2 -4 7 344.57 17.1
2 4 -6 146.89 10.3
-2 4 6 160.98 14.5
2 -4 -6 159.18 15.2
-2 -4 6 159.78 12.3
2 -4 -6 162.98 13.5
-2 4 5 32.5 7.4
-2 -4 5 13.9 5.4
-2 -4 5 26.3 5.2
2 -4 -5 23.1 6.8
2 -4 -5 33.6 8.3
2 4 -4 120.49 8.3
-2 4 4 133.29 11.5
2 -4 -4 148.19 12.5
2 -4 -4 132.99 11.2
-2 -4 4 125.79 8.7
-2 4 3 21.3 6
2 4 -3 26.1 4.7
2 -4 -3 34.5 7.6
-2 -4 3 19.3 4.3
-2 4 2 34.4 6
-2 -4 2 31.6 4.1
2 -4 -2 35.3 6.9
-2 -4 2 27.8 4.5
-2 4 1 90.99 7.1
-2 -4 1 87.19 6.4
2 -4 -1 77.99 7.7
2 4 0 575.34 18.1
-2 4 0 589.44 17.7
-2 -4 0 596.74 20.1
2 -4 0 571.24 19.2
-2 4 -1 56.39 3.7
2 4 1 61.69 5.9
-2 -4 -1 55.29 6.8
2 -4 1 55.39 4.9
2 -4 1 62.49 6.6
2 -4 2 66.59 4.5
-2 -4 -2 62.49 8.6
2 -4 2 84.79 7.5
2 4 3 443.56 19.9
-2 -4 -3 466.45 20.5
2 -4 3 435.96 18.2
2 4 4 40.9 7.5
-2 4 -4 34.8 6.4
2 -4 4 23.4 4.3
2 -4 4 25.9 6.1
-2 -4 -4 24.4 6.8
-2 -4 -4 34.5 7.2
-2 4 -5 134.09 10.6
2 4 5 124.39 11.8
2 -4 5 123.79 9.9
2 -4 5 120.19 9
-2 -4 -5 137.29 13.6
-2 -4 -5 124.39 11.4
-2 4 -6 -4 3.7
2 4 6 9.9 5.6
2 -4 6 10.5 4.3
-2 -4 -6 12.8 7
2 -4 6 8.8 4.7
-2 -4 -6 5.3 4.8
-2 4 -7 16.9 6.7
2 4 7 31.3 8.2
2 -4 7 17.3 6.5
-2 -4 -7 17.1 7.2
-2 -4 -7 23.4 8.8
2 -4 7 18.8 5.9
2 4 8 23.6 9.3
-2 4 -8 13.8 6.6
2 -4 8 -1.3 5
-2 -4 -8 5.8 6.5
2 -4 8 9.2 6.1
-2 -4 -8 12.7 8.4
-2 4 -9 58.19 11
2 -4 9 43.7 9.2
-2 -4 -9 40 11.7
2 -4 9 51.09 9.7
-2 -4 -10 23.6 9.6
2 -4 10 13.2 7.6
2 -4 10 31.5 8.9
2 -4 11 -0.3 6.2
-2 -4 -11 -2.7 7.5
2 -4 11 5.7 6.8
-2 -4 -12 18 8.9
2 -4 12 -0.9 7.2
-2 -5 12 -1 6
2 -5 -12 -0.8 8.4
2 -5 -11 9 9.4
-2 -5 10 12.4 7.1
2 -5 -10 6 7.2
-2 -5 10 7.4 6.7
2 5 -9 30.2 9
2 -5 -9 45.3 12
-2 -5 9 13.3 6.8
-2 -5 9 19.2 7.8
2 5 -8 1.4 4.9
-2 -5 8 0 4.4
2 -5 -8 -7.3 6
-2 -5 8 3.4 5.5
-2 5 7 835.22 36.9
2 5 -7 735.63 28.3
2 -5 -7 754.02 33.7
-2 -5 7 741.43 28.4
2 -5 -7 763.62 37.6
-2 -5 7 767.92 30.8
2 5 -6 26.5 5.8
-2 5 6 24 8
-2 -5 6 22.8 6.1
2 -5 -6 36.3 9.9
-2 -5 6 17.4 5.6
2 -5 -6 21.7 8.3
2 5 -5 30.5 5.9
-2 5 5 38.4 8.6
2 -5 -5 41.6 8.7
2 -5 -5 41 9.4
-2 -5 5 30.3 6.2
-2 5 4 261.77 16.3
2 5 -4 250.07 13
2 -5 -4 224.18 15.3
2 -5 -4 245.68 17.2
-2 -5 4 231.68 12.9
-2 5 3 1.9 3.7
-2 -5 3 -0.9 2.9
-2 -5 3 -0.6 2.2
2 -5 -3 0.3 3.7
-2 5 2 47.7 7.2
-2 -5 2 43 5.9
-2 -5 2 49.3 5.5
2 -5 -2 40.4 7.5
-2 5 1 111.99 8.1
2 -5 -1 128.19 10.3
-2 -5 1 113.99 8.2
2 5 0 160.58 8.6
-2 5 0 146.99 8
-2 -5 0 154.38 10.6
2 -5 0 156.98 9.9
-2 5 -1 1.8 1.8
2 5 1 -0.9 2.8
-2 -5 -1 0.8 4.2
2 -5 1 0.8 3.1
2 -5 1 -0.2 2.7
2 5 2 2.6 3.4
-2 -5 -2 -1.9 4
2 -5 2 3.5 3.5
2 -5 2 2.8 2.4
2 5 3 81.29 9.2
-2 5 -3 88.29 8.1
-2 -5 -3 113.39 11.4
2 -5 3 84.59 5.5
-2 -5 -3 81.39 10.7
2 5 4 37.8 7.7
-2 5 -4 29.5 6
-2 -5 -4 38.1 7.9
2 -5 4 36 6.8
-2 -5 -4 44.8 9.5
-2 5 -5 105.59 9.4
2 5 5 95.59 10.9
2 -5 5 94.29 8
-2 -5 -5 84.69 12.8
2 -5 5 103.49 9.8
-2 -5 -5 94.39 10.7
-2 5 -6 95.39 10
2 5 6 92.79 13.3
-2 -5 -6 92.19 14.7
2 -5 6 117.79 11.2
-2 -5 -6 103.19 13.8
2 -5 6 96.49 9.3
-2 5 -7 13.4 6.4
2 5 7 15.7 6.8
-2 -5 -7 8.2 8.5
2 -5 7 4.3 5.8
-2 -5 -7 15.2 6.3
2 -5 7 5.7 4.5
-2 5 -8 -8.4 4.5
-2 -5 -8 -1 8.4
2 -5 8 24 6.5
2 -5 8 6.3 6
-2 5 -9 68.49 11.9
2 -5 9 77.99 11.2
2 -5 9 83.99 12.4
-2 -5 -9 94.79 16.9
-2 -5 -10 0.8 7
2 -5 10 9.8 6.3
2 -5 10 -1.5 5.9
2 -5 11 4.8 6.9
2 -5 11 9 7.4
-2 -5 -11 -8.9 6.5
-2 -5 -12 10.6 10.2
2 -5 12 -9.4 6.6
-2 -6 11 9 6.9
2 -6 -11 14.8 10.4
2 6 -10 3.7 6.6
2 -6 -10 10.7 8.5
-2 -6 10 3.1 5.9
-2 -6 10 1 5.4
2 6 -9 1.3 5.8
2 -6 -9 -2.5 6.7
-2 -6 9 -4.2 5.9
-2 -6 9 7.2 5.7
2 6 -8 31.5 7.5
-2 -6 8 47.9 8.8
-2 -6 8 28.1 7.7
2 -6 -8 48.2 12.7
2 6 -7 4.2 5.4
2 -6 -7 22 9.4
-2 -6 7 14.8 5.7
-2 -6 7 11.1 5.6
-2 6 6 33.5 9.7
2 6 -6 30.5 7.1
-2 -6 6 36.2 7.3
2 -6 -6 33.6 9.4
2 -6 -6 48.2 11.5
-2 -6 6 49.3 8.3
-2 6 5 21.6 7.5
-2 -6 5 10 4.8
2 -6 -5 2.5 6.1
2 -6 -5 23.1 8.1
-2 6 4 100.09 10.8
-2 -6 4 93.69 7.1
2 -6 -4 82.49 12.7
-2 -6 4 91.09 9
-2 6 3 33.4 7.2
2 -6 -3 31.3 8.3
-2 -6 3 16.7 4.2
-2 6 2 0.3 2.9
2 -6 -2 4.7 5
-2 -6 2 -1.7 3.2
-2 -6 2 2.6 3
-2 6 1 21.9 5
-2 -6 1 17 4.7
2 -6 -1 23.5 6.2
2 6 0 237.38 11.4
-2 6 0 236.18 10.9
-2 -6 0 271.27 15
2 -6 0 247.18 13.9
-2 6 -1 320.47 11.8
2 6 1 323.37 14.9
2 -6 1 340.57 15.1
2 -6 1 365.96 17.1
-2 -6 -1 361.76 18.5
2 6 2 34.3 6.6
2 -6 2 15.5 5.1
-2 -6 -2 29.5 7.3
2 -6 2 27.4 4.8
2 6 3 282.17 16.2
2 -6 3 278.17 15.6
-2 -6 -3 288.97 19
-2 -6 -3 294.57 17.9
2 -6 3 291.47 11.9
2 6 4 86.19 11.5
2 -6 4 77.09 5.9
-2 -6 -4 96.09 12.8
-2 -6 -4 83.19 13.1
2 -6 4 67.79 9.4
2 6 5 -0.8 4.7
-2 6 -5 2.3 4.8
2 -6 5 0.3 2.2
-2 -6 -5 -0.6 5.5
2 -6 5 -6.8 2.7
2 -6 5 -2.2 3.7
-2 -6 -5 -7.3 4.6
-2 6 -6 119.19 12.1
2 6 6 170.88 16.7
2 -6 6 136.39 10.6
2 -6 6 148.69 12.5
-2 -6 -6 128.79 17.8
-2 -6 -6 129.69 14.1
-2 6 -7 21.8 8.4
2 -6 7 -2.5 4.4
-2 -6 -7 4 7.8
2 -6 7 -3.7 4
-2 6 -8 81.39 11.8
-2 -6 -8 62.49 14.3
2 -6 8 86.49 12.1
2 -6 8 93.59 10.7
-2 -6 -9 12.2 8.4
2 -6 9 -1.9 4.8
2 -6 9 -2.9 5
2 -6 10 8.6 6.8
-2 -6 -10 5.4 8.3
2 -6 10 4.7 6.6
2 -6 11 20 7.8
2 -6 11 12.1 7.5
-2 -7 11 -6.5 5.1
2 -7 -11 5.9 8.9
2 -7 -10 4.5 8.7
-2 -7 10 -1.9 5
-2 -7 10 1.2 6.7
2 7 -9 32.3 9
2 -7 -9 54.39 13.6
-2 -7 9 35.4 8.2
-2 -7 9 23.9 8.4
2 7 -8 120.29 16.4
-2 -7 8 129.89 12.7
-2 -7 8 114.99 12.6
2 -7 -8 110.29 18.7
2 7 -7 8.9 5.8
2 -7 -7 13.6 8.6
-2 -7 7 8.3 5.2
-2 -7 7 10.7 5.7
-2 7 6 122.49 24.5
-2 -7 6 118.39 11.6
-2 -7 6 94.19 8.2
2 -7 -6 109.09 16.9
-2 7 5 44.4 10.1
-2 -7 5 28 7.3
-2 -7 5 34.2 5.8
2 -7 -5 40.3 9.7
2 -7 -5 29.9 9.6
-2 7 4 -1.4 4.6
-2 -7 4 2.9 4.4
2 -7 -4 -3.6 4.5
-2 -7 4 1.2 3.7
-2 7 3 57.99 9.4
-2 -7 3 60.79 8.5
2 -7 -3 54.59 10.7
-2 7 2 64.89 8.6
-2 -7 2 71.09 7.9
-2 -7 2 63.69 8.7
2 -7 -2 59.09 10.3
-2 7 1 92.79 8.3
-2 -7 1 108.39 9.9
-2 -7 1 106.39 9.8
2 -7 -1 99.09 10.7
2 7 0 2.2 2.9
-2 7 0 -0.9 2.4
-2 -7 0 0 4.6
2 -7 0 6.8 4.6
2 7 1 129.49 9.6
2 -7 1 136.09 10.3
2 -7 1 125.59 11.1
-2 -7 -1 141.59 12.9
2 7 2 23.7 6
2 -7 2 25 5.1
2 -7 2 22.6 6.4
-2 -7 -2 32.4 8.7
2 7 3 16.3 5.5
2 -7 3 -0.4 3.2
2 -7 3 -1.9 4
-2 -7 -3 4.3 4.9
-2 -7 -3 6 5.7
2 7 4 104.39 11.6
2 -7 4 99.09 11.4
-2 -7 -4 91.19 14.6
2 -7 4 107.19 7.9
-2 -7 -4 121.89 13
2 7 5 45.6 9.3
-2 -7 -5 16.7 8.2
-2 -7 -5 34.9 10.9
2 -7 5 22.8 4.5
2 -7 5 19.6 6.6
2 -7 6 47.3 5.6
2 -7 6 64.69 10.8
-2 -7 -6 63.19 13.4
-2 7 -7 -3.3 5.8
2 -7 7 -0.5 2.7
-2 -7 -7 7.9 7.4
2 -7 7 5.7 5.4
2 -7 7 -6.5 3.9
-2 -7 -8 1.2 8.9
2 -7 8 0.9 5
2 -7 8 0.9 5.9
-2 -7 -9 6.5 8.6
2 -7 9 14.7 6.4
2 -7 9 3.1 6.9
2 -7 10 12.9 7.9
-2 -7 -10 13.8 10
2 -7 10 28.7 8.8
-2 -8 10 2.2 7.4
-2 -8 10 22.8 8.2
2 -8 -10 31.4 13.7
-2 -8 9 0.3 5.4
2 -8 -9 -9.7 7.8
-2 -8 9 2.2 8.5
2 -8 -8 7.2 8.2
-2 -8 8 -1.2 5.2
-2 -8 8 -4.3 5.3
-2 -8 8 3.3 3.7
-2 -8 7 22 6.8
2 -8 -7 21.7 11.1
-2 -8 7 29.2 5.7
-2 -8 7 27.1 8.1
-2 -8 6 13.4 6.9
2 -8 -6 13.7 8.7
-2 -8 6 13 4.7
-2 8 5 11.8 9.2
-2 -8 5 16.6 6.7
-2 -8 5 11.2 4.7
2 -8 -5 16.7 8.6
-2 8 4 22.4 7.4
2 -8 -4 38.3 10.4
-2 -8 4 23 5.7
-2 -8 4 21.4 7.2
-2 8 3 21.9 7
-2 -8 3 29.1 6.5
2 -8 -3 42.4 10
-2 -8 3 34.9 7.6
-2 8 2 8.9 4.8
-2 -8 2 22.1 6.6
-2 -8 2 11.2 5.3
2 -8 -2 11.9 6.8
-2 8 1 0.7 3.3
2 -8 -1 3.6 4.5
-2 -8 1 -0.9 4.3
-2 -8 1 0.9 4.5
-2 8 0 77.89 7.2
2 8 0 72.39 7.1
2 -8 0 99.89 11.5
2 -8 0 76.19 10.8
-2 -8 0 76.69 10.8
2 8 1 45.3 7.4
2 -8 1 34.9 7.4
2 -8 1 34.2 8
-2 -8 -1 27.7 8.9
2 8 2 63.09 9.3
2 -8 2 68.69 10.7
2 -8 2 64.19 8.5
-2 -8 -2 67.19 11.7
2 8 3 28.5 7
2 -8 3 19.3 5.4
-2 -8 -3 11.3 7.6
2 -8 3 24.1 7.6
-2 -8 -3 18.4 7.5
2 8 4 33.9 7.8
2 -8 4 15.1 6.5
2 -8 4 29.4 5.8
-2 -8 -4 32.1 10.2
2 -8 5 123.09 9.1
-2 -8 -5 125.29 20.7
2 -8 5 131.89 13.4
2 -8 6 58.59 10.6
2 -8 6 56.69 6.7
2 -8 6 43.9 7.4
-2 -8 -6 57.79 13.8
2 -8 7 16.1 7.6
2 -8 7 3.8 4.3
-2 -8 -7 9.3 7.3
2 -8 7 4.2 5.2
2 -8 8 2.5 6.5
-2 -8 -8 4.6 8.6
2 -8 8 -5.4 4.5
2 -8 8 6.2 3.8
2 -8 9 8.2 3.8
2 -8 9 -11.2 5.1
-2 -8 -9 -3.2 8.9
2 -8 9 8.6 5.5
2 -8 10 10.7 8.7
2 -8 10 18.4 4.5
2 -8 10 23.7 8.6
-2 -8 -10 -2.6 8.1
-2 -9 9 -11.5 5.6
-2 -9 9 2.1 4.7
-2 -9 8 3.3 6.6
-2 -9 8 -0.2 4.1
-2 -9 8 16 7.1
2 -9 -8 14.1 10.2
-2 -9 7 -4.1 5.2
-2 -9 7 -9.9 3.2
-2 -9 7 -3.1 5.4
2 -9 -7 -0.6 8.5
-2 -9 6 17.3 5.9
-2 -9 6 29.2 8.8
2 -9 -6 4.5 8.6
2 -9 -5 2.6 8.3
-2 -9 5 21.3 5.4
-2 -9 5 -2.4 5.8
2 -9 -4 4.4 6.6
-2 -9 4 17.6 7
-2 -9 4 6.3 5.1
-2 9 3 3.6 5.1
2 -9 -3 11.9 7.3
-2 -9 3 1 5.4
-2 -9 3 12.3 5.7
-2 9 2 7.8 5.3
-2 -9 2 2.1 5.1
2 -9 -2 -7.7 5.2
-2 -9 2 5.3 4.7
-2 9 1 84.99 8.8
2 -9 -1 80.29 12.3
-2 -9 1 50.39 9.4
-2 -9 1 68.69 10.9
2 9 0 2.8 3.5
-2 9 0 -0.1 3.3
2 -9 0 6.6 5.9
2 -9 0 -0.1 4.9
-2 -9 0 -2.2 5.6
2 9 1 -4.8 6.7
-2 -9 -1 11.6 6.8
2 -9 1 6.3 5.8
2 -9 1 8.4 5.1
2 9 2 -2.6 3.7
2 -9 2 4.7 4.4
-2 -9 -2 -2.7 6.1
2 -9 2 6.7 6.5
2 9 3 129.69 12.6
-2 -9 -3 119.49 17.8
2 -9 3 117.89 12
2 -9 3 122.19 14.1
2 -9 4 -1.9 5.8
2 -9 4 3.7 6.6
-2 -9 -4 -4.5 8.7
2 -9 5 22.8 5.8
2 -9 5 23.6 8.7
-2 -9 -5 31.4 11.2
2 -9 6 1.1 4
-2 -9 -6 13.3 10
2 -9 6 7.8 4.5
2 -9 6 9.4 10.8
2 -9 7 10.5 7.6
-2 -9 -7 -5.4 7
2 -9 7 4.3 4.5
2 -9 8 -2.5 4.9
-2 -9 -8 -10.6 8.4
2 -9 8 7.9 7
2 -9 8 0.8 5
-2 -9 -9 8 9
2 -9 9 17.9 8.7
2 -9 9 -1 4
-2 -10 8 10.1 6.2
-2 -10 7 12.5 5.8
2 -10 -7 -11.9 7
-2 -10 7 -5.6 4.3
-2 -10 7 7.3 7.4
-2 -10 6 22.2 6.8
2 -10 -6 45.2 12.6
-2 -10 6 14.8 8
-2 -10 5 -5.9 5.4
-2 -10 5 -1.7 4.7
2 -10 -5 -2.3 7.7
-2 -10 4 3 6.6
2 -10 -4 10.5 7.7
-2 -10 4 1.5 5.1
-2 -10 3 7.2 6.5
2 -10 -3 -8.4 6.7
-2 -10 3 5.8 5.9
-2 10 2 -11 3.8
-2 -10 2 0 5
2 -10 -2 -0.3 6.8
-2 -10 2 5.7 5.2
-2 10 1 0.6 4
2 -10 -1 -0.4 6.6
-2 -10 1 -2.7 5.7
-2 -10 1 5.9 5.5
-2 -10 0 63.99 12.2
2 -10 0 43.6 9.9
-2 -10 0 47.3 9.5
2 10 1 1.5 4.3
2 -10 1 -3.3 4.8
2 -10 1 -0.6 5.3
-2 -10 -1 12.6 7.9
-2 -10 -2 0.6 7.4
2 -10 2 2.5 5.9
2 -10 2 -1.4 4.5
-2 -10 -3 21.8 9.6
2 -10 3 14.4 7.7
2 -10 3 18.2 6.1
-2 -10 -4 17.3 10.7
2 -10 4 25.2 6.1
2 -10 4 30.4 9.2
2 -10 5 4.1 6.7
-2 -10 -5 4.6 8.5
2 -10 6 8.7 7.4
2 -10 6 5.7 4.7
-2 -10 -6 7.4 10.4
-2 -10 -7 1.5 8.2
2 -10 7 10.3 5.6
2 -10 7 -5.7 7
-2 -11 6 2.4 5.6
-2 -11 6 12.1 7.7
2 -11 -6 8.2 9.5
-2 -11 5 9.7 7.8
2 -11 -5 0.1 8.8
-2 -11 5 2.4 5.8
-2 -11 4 3.5 5.9
2 -11 -4 0.1 6.8
-2 -11 4 -3 6.4
2 -11 -3 -7.8 7
-2 -11 3 -3.4 5.4
-2 -11 3 6 7.4
-2 -11 2 9.6 7.9
-2 -11 2 10.9 6.7
-2 11 1 10.1 5.2
2 -11 -1 29.9 9.7
-2 -11 1 -10.9 5.4
-2 -11 1 11.4 7
2 -11 -1 5.5 7.1
-2 -11 0 21.6 8.5
2 -11 0 7.2 6.1
2 -11 0 16.6 8.1
-2 -11 0 -2.8 5.5
2 -11 1 7.8 6.5
2 -11 1 -4 5.2
-2 -11 -1 1.3 7.9
2 -11 2 1.8 5.3
-2 -11 -2 3.6 7.3
2 -11 2 0.9 6.9
2 -11 3 16.3 8.1
2 -11 3 14.4 7.3
-2 -11 -3 25.5 10.5
-2 -11 -4 -5.5 8.3
2 -11 4 0.6 5.3
2 -11 4 -6.6 5.5
2 -11 5 4.2 7.4
2 -11 5 6 5.9
-2 -11 -5 15.8 10.2
2 -11 6 11 7.5
-2 -11 -6 23.4 11.3
2 -12 -3 6.4 8.3
-2 -12 3 8.3 7.7
-2 -12 3 7.4 6.9
2 -12 -2 -4.1 6.9
-2 -12 2 6.2 7.4
2 -12 -2 12.4 8.7
-2 -12 2 10.7 6.5
2 -12 -1 -1.5 7.1
-2 -12 1 -1.3 5.1
-2 -12 1 12.7 8.4
2 -12 -1 -1.4 7.2
2 -12 0 26.8 9.4
-2 -12 0 10.4 8.5
2 -12 0 18.8 8.9
-2 -12 0 12.3 8.3
-2 -12 -1 31.7 9.9
2 -12 1 30.8 9.3
-2 -12 -1 15.5 10
2 -12 1 40.9 9.8
2 -12 2 9.2 8.9
-2 -12 -2 14.1 9.9
2 -12 2 24.3 10
2 -12 3 -5.6 6.4
2 -12 3 -7.1 5.9
-2 -12 -3 9.3 9.6
-3 0 13 9.6 7.4
-3 0 12 0.2 5.9
3 0 -12 -8.8 4.8
-3 0 11 -10.8 5.3
3 0 -11 -1.1 5.7
3 0 -10 50.09 11
-3 0 10 53.99 10.9
3 0 -10 50.09 9.9
3 0 -9 -2.8 4.9
-3 0 9 0.9 4.8
-3 0 9 11.8 7.4
3 0 -9 -0.9 4.9
3 0 -8 614.24 29.1
3 0 -8 641.94 25.5
-3 0 8 646.64 31
-3 0 8 613.74 27.3
-3 0 7 -2.7 3.8
3 0 -7 1.8 3.8
-3 0 7 2.8 3.9
3 0 -7 2.6 3.3
3 0 -6 8 3.7
-3 0 6 11 5
-3 0 6 12.6 4.5
3 0 -6 8.4 4.8
-3 0 5 -2.2 3.4
3 0 -5 -4.7 2.2
3 0 -5 -0.4 3.5
-3 0 5 0.2 4.3
-3 0 4 312.37 15.7
3 0 -4 305.77 12.3
-3 0 4 317.97 13.2
3 0 -4 314.07 14.9
-3 0 3 -0.6 3.1
3 0 -3 0.1 2.7
3 0 -3 0.9 2.2
-3 0 3 -1.2 2.2
3 0 -2 50.79 5.4
3 0 -2 52.89 4.2
-3 0 2 45 4.3
-3 0 2 49.3 5.6
-3 0 0 1206.58 29.5
3 0 1 -2.1 1.3
-3 0 -1 -2 1.3
-3 0 -1 -0.5 1.3
3 0 1 -0.4 1.2
3 0 2 19.7 4.2
-3 0 -2 15.9 3.8
-3 0 -2 20.3 4.3
3 0 2 16.1 3.9
3 0 3 -1.3 2.2
3 0 3 0.7 2.5
-3 0 -3 -3 2.6
-3 0 -3 -1.8 2.2
3 0 4 824.72 26.4
3 0 4 817.02 27.1
-3 0 -4 812.62 27.3
-3 0 -4 754.62 25.2
-3 0 -5 0.2 3.1
-3 0 -5 -3.2 3.8
3 0 5 1.4 3.8
3 0 5 -0.6 2.9
-3 0 -6 656.33 25.4
3 0 6 660.13 26.2
3 0 6 668.13 27.5
-3 0 -6 769.12 33.6
-3 0 -7 2.3 4.2
3 0 7 -2.6 3.6
3 0 7 -0.3 3.7
-3 0 -7 -0.4 3.9
-3 0 -8 18.7 7
-3 0 -8 9.7 6.1
3 0 8 6.3 5.9
3 0 8 3.5 5
3 0 9 2.5 5.5
-3 0 -9 7.1 6.3
-3 0 -9 1.1 5.2
-3 0 -10 39.6 9.8
3 0 10 47.6 12.3
-3 0 -11 -0.6 5.2
3 0 11 -0.9 6.3
3 0 12 1.3 6.9
-3 0 -12 -2.2 6.8
-3 0 -13 -0.8 7.6
3 0 13 -2.5 7.1
3 -1 -13 8 7.2
-3 -1 13 6 8.8
-3 1 12 -7.9 5.7
-3 -1 12 0.8 5.9
3 -1 -12 12.9 8
-3 1 11 44.9 10.7
3 -1 -11 43.7 11.9
-3 -1 11 37.7 9.9
3 1 -10 -1 5.7
-3 1 10 -1.2 5.3
3 -1 -10 -1.7 5.2
-3 -1 10 -1.5 5.4
3 -1 -10 7.2 5.5
-3 -1 10 -5.7 5.6
3 1 -9 0.8 4.3
3 1 -9 3.9 5.4
-3 1 9 6.8 5.9
-3 1 9 2.2 5.9
3 -1 -9 8.6 6.1
-3 -1 9 -1 5.3
3 1 -8 14.3 5.3
-3 1 8 19.1 7.7
3 1 -8 27 7.4
-3 1 8 19.3 6.8
-3 -1 8 26.3 8.3
-3 -1 8 32.7 7.1
3 -1 -8 21.5 6.2
3 -1 -8 15.1 6.7
-3 1 7 9.9 4.9
3 1 -7 2.3 4
3 1 -7 3.5 3.9
-3 1 7 6.7 5.3
3 -1 -7 8.8 5.8
3 -1 -7 6.2 4.3
-3 -1 7 9.7 4.5
-3 -1 7 7.1 5.1
-3 1 6 631.14 29
3 1 -6 613.94 25.7
3 1 -6 614.44 24.8
-3 1 6 740.43 29.6
-3 -1 6 603.44 26.6
3 -1 -6 617.64 23.6
3 -1 -6 595.94 26.9
-3 -1 6 619.14 23.1
-3 1 5 1.5 3.8
-3 1 5 3.2 4.3
3 1 -5 -0.3 3
3 1 -5 3.7 3.9
-3 -1 5 2.5 5.4
3 -1 -5 -2.4 2.5
-3 -1 5 -0.8 2.9
3 -1 -5 1.4 4.6
3 1 -4 118.69 6.9
-3 1 4 117.79 8.8
-3 1 4 120.79 9.8
3 -1 -4 102.49 8
-3 -1 4 121.99 9.2
3 -1 -4 108.49 9.5
-3 -1 4 108.59 6.9
3 1 -3 39 3.6
-3 1 3 39.3 6.3
3 -1 -3 39.1 6
-3 -1 3 41.8 5.9
-3 -1 3 32.6 3.8
3 -1 -3 31.5 4.8
3 1 -2 2.7 1.9
-3 1 2 8 4.1
3 -1 -2 3.7 3.8
-3 -1 2 4.9 1.9
-3 1 1 85.29 5.2
3 -1 -1 97.29 5.6
-3 -1 1 84.39 2.8
3 1 0 17 1.9
-3 1 0 24.7 2.6
-3 1 0 20.5 1.8
3 1 0 19.8 2.1
-3 -1 0 18.6 2.2
3 -1 0 20.9 2.5
-3 -1 0 21.2 2.2
3 -1 0 20.7 1.8
3 1 1 17.7 3.2
-3 1 -1 17.3 1.8
3 1 1 20.5 3.3
-3 1 -1 20.6 3.5
3 -1 1 21.8 3.6
-3 -1 -1 18.4 3.4
-3 -1 -1 18.7 3.2
3 -1 1 20.8 1.7
-3 1 -2 2.6 3.1
3 1 2 -3.3 2.8
-3 1 -2 -2.4 2.1
3 1 2 0.5 3.6
-3 -1 -2 3.6 2.6
3 -1 2 1 2.3
3 -1 2 0.1 2.9
-3 -1 -2 -3.3 3.3
-3 1 -3 241.88 11
3 1 3 266.37 12.6
-3 1 -3 247.78 10.7
3 1 3 241.38 11.5
3 -1 3 257.77 11.4
3 -1 3 234.68 10.5
-3 -1 -3 256.87 12.8
-3 -1 -3 238.18 11.2
-3 1 -4 99.59 7.6
-3 1 -4 87.99 7.5
3 1 4 96.29 9
3 1 4 99.29 8.3
-3 -1 -4 91.29 7.7
3 -1 4 94.59 7.7
-3 -1 -4 84.59 8.7
3 -1 4 97.99 7.7
-3 1 -5 223.78 12.3
-3 1 -5 218.98 12.9
3 1 5 226.78 14.3
3 -1 5 216.38 13
-3 -1 -5 207.58 12.2
-3 -1 -5 201.38 14.2
3 -1 5 214.38 12.3
3 1 6 4.7 4.5
-3 1 -6 7.2 4.1
3 1 6 2.2 4
-3 1 -6 -1.5 3.4
-3 -1 -6 8.9 4.4
3 -1 6 0.9 3.9
3 -1 6 0 3.4
-3 -1 -6 3.7 4.3
3 1 7 69.19 11.3
-3 1 -7 41.6 7.8
-3 1 -7 58.09 8.9
3 1 7 55.89 9.7
3 -1 7 49.5 8.6
3 -1 7 58.59 10
-3 -1 -7 55.99 8.7
-3 -1 -7 40.2 8.8
3 1 8 6.3 5.9
-3 1 -8 4.3 5.1
3 1 8 -3 4.6
-3 1 -8 11.1 6
3 -1 8 5.6 6.1
3 -1 8 5.9 5.2
-3 -1 -8 -2.1 5.5
3 1 9 86.69 13.7
-3 1 -9 82.59 11.7
-3 1 -9 83.29 12.6
3 1 9 61.59 11.6
-3 -1 -9 64.99 12.6
-3 -1 -9 73.79 11
3 -1 9 61.29 11.4
3 -1 9 70.29 12.5
-3 1 -10 3 4.9
3 1 10 9.2 6.7
3 -1 10 4 5.5
-3 -1 -10 -1.5 5.7
3 -1 10 1.2 5.9
3 1 11 3 7.1
3 -1 11 4.6 7
-3 -1 -11 -5.4 5.6
-3 1 -12 0.3 7.2
3 1 12 -1.3 6.6
-3 -1 -12 5.8 8.3
3 -1 12 13.8 7.5
3 1 13 8.2 9.4
-3 -1 -13 8.3 8.2
3 -1 13 -0.3 7.9
3 -2 -13 60.69 14.9
-3 -2 13 53.99 12.4
-3 -2 12 -4.2 5.4
3 -2 -12 3.6 7.1
3 -2 -11 9.1 7.2
-3 -2 11 -1.8 4.9
3 2 -10 10.4 6.2
3 -2 -10 0.4 5.2
-3 -2 10 0.9 5.6
-3 -2 10 2.5 5.5
3 2 -9 77.89 10.5
-3 2 9 89.79 16.1
3 -2 -9 80.59 11.6
-3 -2 9 71.69 10.6
3 -2 -9 74.39 13.6
-3 -2 9 91.99 13.8
3 2 -8 76.89 9.8
-3 2 8 83.59 12.2
3 -2 -8 92.19 10.7
-3 -2 8 83.89 9.5
-3 -2 8 74.19 12
3 -2 -8 102.09 14.8
-3 2 7 204.88 16.7
3 2 -7 239.08 13.2
3 -2 -7 226.18 17.4
-3 -2 7 252.87 13.9
-3 -2 7 222.18 16.2
3 -2 -7 207.68 14.3
-3 2 6 787.02 33.1
-3 -2 6 799.32 31
3 -2 -6 845.62 33.9
3 -2 -6 825.22 29.9
-3 -2 6 783.22 26.6
-3 2 5 45.3 8.8
3 2 -5 51.59 6.3
3 -2 -5 53.29 9.2
3 -2 -5 52.89 7.8
-3 -2 5 50.39 5.8
-3 -2 5 39.6 7.1
3 2 -4 8.1 3.2
-3 -2 4 9.3 4
3 -2 -4 19.7 4.8
3 -2 -4 15.6 5.2
-3 -2 4 6.3 2.8
-3 2 3 402.36 17.7
3 2 -3 414.96 13.5
-3 -2 3 444.46 13.4
3 -2 -3 403.76 17.8
3 -2 -3 413.96 16.6
-3 2 2 16.2 4.6
3 2 -2 19.9 2.7
-3 -2 2 23.8 3.1
3 -2 -2 21.7 4.8
-3 2 1 1245.68 32.5
3 -2 -1 1191.28 32.4
-3 2 0 463.15 13.2
3 2 0 478.85 14.1
3 -2 0 466.35 13.6
-3 -2 0 470.15 14.6
3 -2 0 472.05 15.2
-3 -2 -1 4878.91 108.49
3 -2 1 4470.95 102.99
-3 2 -2 280.67 11.5
3 2 2 274.17 12.3
3 2 2 269.57 12.3
-3 -2 -2 277.37 12
3 -2 2 257.27 8.6
3 -2 2 265.17 11.5
-3 -2 -2 268.77 12.8
-3 2 -3 71.39 6.6
3 2 3 87.79 7.8
3 2 3 84.09 7.6
3 -2 3 83.79 6.8
-3 -2 -3 86.49 7.4
3 -2 3 70.99 5.4
-3 -2 -3 88.09 8.3
3 2 4 180.48 11.9
3 2 4 152.58 11.5
-3 2 -4 173.58 9.3
-3 2 -4 160.58 10.4
-3 -2 -4 168.38 11.1
3 -2 4 178.88 10.8
3 -2 4 170.98 9.8
-3 -2 -4 160.78 12.4
3 2 5 343.37 17.7
-3 2 -5 327.77 16
3 2 5 313.87 17.7
-3 2 -5 321.17 14.7
-3 -2 -5 342.57 16.7
-3 -2 -5 326.67 18.7
3 -2 5 337.17 15.8
3 -2 5 322.37 15.9
-3 2 -6 2.2 3.4
3 2 6 4.2 4.2
-3 2 -6 5.8 4.3
3 2 6 -1.4 3.6
3 -2 6 3.3 3.8
-3 -2 -6 -0.6 3.6
-3 -2 -6 11.2 6.4
-3 2 -7 -0.1 3.7
-3 2 -7 2.8 4.8
3 2 7 4.7 5.3
3 2 7 3.9 5.1
-3 -2 -7 13.3 6.2
-3 -2 -7 -0.5 4.1
3 -2 7 7.8 4.5
3 -2 7 -0.3 4.6
3 2 8 22.7 7.7
-3 2 -8 28.9 7.5
-3 2 -8 23.9 6.6
3 2 8 8.8 7.9
-3 -2 -8 10.4 7.4
-3 -2 -8 29.7 7.7
3 -2 8 22.2 6.9
3 -2 8 9.8 6.1
-3 2 -9 31.3 8.7
-3 2 -9 18.3 7
3 2 9 6.7 7.8
3 2 9 33 10.1
-3 -2 -9 5.5 8.1
3 -2 9 24.6 8.2
3 -2 9 18.9 6.9
3 2 10 5.9 7.4
-3 2 -10 7.1 5.6
3 -2 10 0.5 5.9
3 -2 10 18.9 8.3
-3 -2 -10 2 6.3
3 2 11 10.5 8.6
-3 -2 -11 5.5 7.5
3 -2 11 -7.2 5.5
3 2 12 -2.3 6.9
3 -2 12 -0.3 6.4
-3 -2 -12 -3.7 7.1
-3 -3 13 24.5 9.7
3 -3 -13 28.2 10.9
3 -3 -12 18.7 9.3
-3 -3 12 -11.4 5
-3 -3 11 6.8 6.1
3 -3 -11 3.9 7.4
3 3 -10 45.3 9.1
-3 -3 10 50.49 11.1
-3 -3 10 42.1 9.1
3 -3 -10 41.1 11.5
3 3 -9 102.99 11.4
-3 -3 9 97.29 11
-3 -3 9 111.99 13.7
3 -3 -9 93.99 15.5
3 -3 -9 91.79 13.2
3 3 -8 43.3 8.2
-3 3 8 35.1 9.2
3 -3 -8 29.5 9.7
-3 -3 8 25.5 6.5
-3 -3 8 17.3 7.3
3 -3 -8 44.8 11.4
3 3 -7 75.09 8
-3 3 7 83.89 12.9
-3 -3 7 65.79 7.8
-3 -3 7 70.89 10.5
3 -3 -7 86.49 11.4
3 -3 -7 87.69 13.7
-3 3 6 -0.4 4.1
3 3 -6 -0.9 2.7
-3 -3 6 2.4 4
3 -3 -6 2.1 4.7
-3 -3 6 -3.2 2.4
3 -3 -6 -4.5 3
3 3 -5 202.38 10.8
-3 3 5 187.38 14.4
-3 -3 5 188.58 10.2
-3 -3 5 200.88 15
3 -3 -5 196.58 14.9
3 -3 -5 202.18 13.4
3 3 -4 27 4.4
-3 3 4 18.9 6
-3 -3 4 21 4.1
3 -3 -4 28.4 6.9
3 -3 -4 19.2 5.7
-3 3 3 0 3.2
3 3 -3 2.2 2.2
-3 -3 3 5.8 2.5
3 -3 -3 1.1 3.5
-3 3 2 33 5.5
3 -3 -2 27.8 5.4
-3 -3 2 30.6 3.8
-3 3 1 512.05 17.2
3 -3 -1 500.45 17.9
-3 -3 1 526.15 15.7
3 3 0 350.06 12.1
-3 3 0 341.57 11.3
-3 -3 0 344.67 12.8
3 -3 0 373.96 12.5
3 3 1 121.69 7.3
-3 -3 -1 127.29 8.4
3 -3 1 140.19 5.6
3 -3 1 135.99 7.8
-3 3 -2 5.2 3.1
3 3 2 4.2 3.2
3 -3 2 3.1 3.2
3 -3 2 1.6 1.1
-3 -3 -2 4.2 3.2
-3 -3 -2 5.2 3.6
3 3 3 164.78 11.3
-3 3 -3 166.08 9.9
3 -3 3 163.68 7.7
-3 -3 -3 147.79 11.9
3 -3 3 158.98 10.1
3 3 4 192.28 13.2
3 3 4 171.68 12.3
-3 3 -4 176.38 11.3
3 -3 4 168.48 10.9
3 -3 4 177.68 9.5
-3 -3 -4 173.78 13.5
-3 -3 -4 180.68 12.3
3 3 5 110.69 10.9
3 3 5 124.69 11.3
-3 3 -5 115.99 9.7
-3 -3 -5 132.89 10.8
3 -3 5 103.89 8.5
3 -3 5 102.49 9.8
-3 -3 -5 113.19 12.1
3 3 6 92.09 10.7
3 3 6 109.59 11.4
-3 3 -6 92.69 9.5
3 -3 6 82.79 8.8
-3 -3 -6 95.29 11.6
3 -3 6 110.79 9.4
-3 -3 -6 107.19 10.9
-3 3 -7 89.79 11.2
3 3 7 75.29 11.9
3 3 7 85.29 12.7
3 -3 7 78.49 9.2
-3 -3 -7 84.79 11.9
-3 -3 -7 80.59 13.3
3 -3 7 80.19 9.2
-3 3 -8 46.4 9
3 3 8 33.1 8.9
3 3 8 18.9 7.8
-3 -3 -8 16.8 7.3
3 -3 8 30.9 7.6
-3 -3 -8 32.4 11
3 -3 8 35 8.2
-3 3 -9 8.1 6
3 -3 9 19.9 7.6
-3 -3 -9 10.3 7.9
3 -3 9 14.9 6.6
3 3 10 -3.8 5.9
3 -3 10 -9.3 4.3
3 -3 10 -8.1 6
-3 -3 -10 -5.5 6.2
3 3 11 7.7 7.5
3 -3 11 1.3 6.6
3 -3 11 25.2 9.7
-3 -3 -11 14.5 10
-3 -3 -12 -0.6 6.6
3 -3 12 -1.8 6.9
-3 -4 12 -2.5 6.3
3 -4 -12 -0.7 7.5
-3 -4 11 3.9 5.7
3 -4 -11 6.8 7.3
-3 -4 10 -4.5 5.2
-3 -4 10 -0.4 6.5
3 -4 -10 -2.5 6
3 4 -9 52.39 9.3
3 -4 -9 50.49 12.9
-3 -4 9 70.19 12.3
-3 -4 9 47.7 8.6
3 4 -8 6.1 5
-3 4 8 -3.4 4.5
3 -4 -8 1.2 5.8
-3 -4 8 5.1 5.5
3 -4 -8 12 7.8
-3 -4 8 10.5 5.4
3 4 -7 -1.6 3.6
-3 4 7 5.3 6.4
3 -4 -7 8.9 7.3
-3 -4 7 1.6 4.2
3 -4 -7 8.4 6.7
-3 -4 7 -1 3.3
3 4 -6 1.9 3.3
-3 4 6 5.3 5
-3 -4 6 -4.1 3.1
-3 -4 6 3.9 3.7
3 -4 -6 1.4 4.5
3 -4 -6 -3.4 3.9
3 4 -5 352.56 15
-3 4 5 356.06 20.3
-3 -4 5 354.66 15.1
3 -4 -5 351.56 20.9
3 -4 -5 340.77 19
-3 4 4 252.17 16.2
3 4 -4 276.97 12.2
-3 -4 4 282.57 12.6
3 -4 -4 275.97 16
3 -4 -4 286.07 17.4
-3 4 3 94.79 9.6
3 -4 -3 110.09 10.4
-3 -4 3 84.69 6.8
-3 4 2 131.99 9.7
-3 -4 2 117.39 7.3
-3 -4 2 117.99 6.8
3 -4 -2 126.19 10.1
-3 4 1 130.09 8.3
3 -4 -1 126.69 9.1
-3 -4 1 122.19 7.7
3 4 0 104.49 6.5
-3 4 0 112.79 6.3
-3 -4 0 106.99 7.7
3 -4 0 95.69 7
3 4 1 419.66 15.9
-3 4 -1 410.76 11.9
3 -4 1 403.46 13.6
3 -4 1 418.06 16.5
-3 -4 -1 422.46 17.6
-3 4 -2 577.24 21.3
3 4 2 571.64 21.6
3 -4 2 585.04 16.2
-3 -4 -2 599.04 23.7
3 -4 2 583.14 21.3
3 4 3 251.47 14.3
-3 4 -3 246.28 13.2
-3 -4 -3 282.47 16.8
-3 -4 -3 269.67 15
3 -4 3 273.37 13.9
-3 4 -4 127.29 9.9
3 4 4 132.39 11.4
3 -4 4 125.99 7.7
-3 -4 -4 133.99 11.2
-3 -4 -4 119.39 12.3
-3 4 -5 10.3 4.6
3 4 5 5.5 4.9
3 -4 5 4.9 4.5
3 -4 5 17 4.2
-3 -4 -5 20.5 7.1
-3 -4 -5 11.4 5.4
3 4 6 1.6 4.9
-3 4 -6 0.8 4.3
-3 -4 -6 1.6 4.6
3 -4 6 4.9 3.9
3 -4 6 5.3 3.8
-3 -4 -6 5.6 5.9
-3 4 -7 4 5.4
3 4 7 10.6 6.7
3 -4 7 17.3 6.4
-3 -4 -7 3.6 7.1
3 -4 7 2.2 4
-3 -4 -7 8.4 5.8
3 -4 8 2.7 4.9
-3 -4 -8 7.6 7.2
3 -4 8 14.3 6.2
-3 4 -9 31.2 8.7
-3 -4 -9 20.5 10
3 -4 9 27.2 7.9
3 -4 9 29.5 8
3 -4 10 -7.6 4.6
3 -4 10 -4.3 4.7
-3 -4 -10 -2.6 7.2
3 -4 11 9 7.7
3 -4 11 11.9 7.9
-3 -4 -11 12.7 8.3
-3 -4 -12 23.4 11.5
3 -4 12 15 9
3 -5 -12 16 11.1
-3 -5 12 -1.3 6.4
3 -5 -11 39.8 12
-3 -5 11 18.1 7.6
3 5 -10 -3.7 5.6
-3 -5 10 3.1 5.8
-3 -5 10 -1.1 5.4
3 -5 -10 -7.2 5.9
3 5 -9 -3.6 4.7
-3 -5 9 0.7 4.9
3 -5 -9 2.7 7.2
-3 -5 9 6.6 4.7
3 5 -8 41.6 8.1
3 -5 -8 47 12.4
-3 -5 8 51.09 10
-3 -5 8 43.8 7.7
3 5 -7 81.49 10
-3 5 7 70.59 12.9
3 -5 -7 69.69 13.7
3 -5 -7 75.79 12.7
-3 -5 7 71.29 9.2
-3 -5 7 98.99 10.6
-3 5 6 91.39 13.7
3 5 -6 94.39 8.7
3 -5 -6 110.29 15.6
3 -5 -6 107.49 15.4
-3 -5 6 97.79 8.9
-3 -5 6 112.49 10.2
-3 5 5 123.59 12.4
3 5 -5 100.69 8.6
-3 -5 5 114.89 9.1
3 -5 -5 134.39 13.6
3 -5 -5 98.19 11.3
-3 5 4 266.07 16.4
3 -5 -4 308.97 18.9
-3 -5 4 225.28 12.5
-3 5 3 6.9 4.2
-3 -5 3 3.8 3.3
3 -5 -3 -6.5 3.6
-3 -5 3 4.8 2.7
-3 5 2 33.9 6.4
-3 -5 2 31 5
3 -5 -2 34.2 7.2
-3 -5 2 30.4 5.2
-3 5 1 49.99 6.5
3 -5 -1 51.69 7.7
-3 -5 1 49 5.8
-3 5 0 104.39 6.6
3 -5 0 100.09 8.2
-3 -5 0 88.69 8.2
-3 5 -1 30.6 3.6
3 5 1 28.5 5.4
3 -5 1 38 5.1
3 -5 1 27.4 5.9
-3 -5 -1 32.1 6.7
3 5 2 186.88 11.6
-3 -5 -2 179.28 13.4
3 -5 2 189.38 8.6
-3 -5 -2 175.68 12.3
-3 5 -3 6 4.3
3 5 3 16.9 5.1
-3 -5 -3 14.2 6.3
3 -5 3 11 2.6
3 -5 3 8.9 4.6
-3 -5 -3 18.6 6.1
3 5 4 13.8 5.2
-3 5 -4 4.5 3.7
-3 -5 -4 9 6
3 -5 4 5.9 2.1
-3 -5 -4 1.9 4.2
3 -5 4 8.6 2.9
3 -5 4 3.4 3.9
3 5 5 28.7 7.7
-3 5 -5 20.5 6.2
-3 -5 -5 10.8 5.9
3 -5 5 19.8 4.5
3 -5 5 21.9 6
-3 -5 -5 16.1 7.5
3 5 6 54.49 10.4
-3 5 -6 47.7 8.7
-3 -5 -6 47.5 11.2
-3 -5 -6 56.69 10
3 -5 6 38.7 7.8
3 -5 6 54.79 7.6
-3 5 -7 77.79 10.9
3 5 7 113.39 15.3
3 -5 7 82.49 9.3
-3 -5 -7 99.59 15.3
-3 -5 -7 89.69 13
3 -5 7 93.39 10.8
-3 5 -8 8.1 6.3
3 -5 8 6.7 5.5
-3 -5 -8 9 8.1
3 -5 8 3.8 4.8
-3 -5 -9 5.9 8.3
3 -5 9 32.8 8.1
3 -5 9 23.4 7.6
-3 -5 -10 10 8.9
3 -5 10 9.7 6.4
3 -5 10 7.6 6.2
3 -5 11 10.6 7.2
3 -5 11 11.8 7
-3 -5 -11 8.6 8.2
3 -5 12 22 8.6
-3 -5 -12 31.7 13.1
3 -6 -11 4.7 7.7
3 6 -10 -5.5 5.4
-3 -6 10 -2.2 6.7
-3 -6 10 2.5 5.6
3 -6 -10 10.4 7.6
3 -6 -9 -1.8 7.7
-3 -6 9 4 5.9
-3 -6 9 4.7 5.4
3 6 -8 -4.2 4.6
-3 -6 8 4.9 5.3
3 -6 -8 -1.9 7
-3 -6 8 5.2 4.5
3 6 -7 4.6 5
-3 -6 7 -4.7 3.7
3 -6 -7 2.5 7.6
-3 -6 7 3.2 5
3 6 -6 47.1 8
-3 6 6 41.7 9.9
3 -6 -6 55.89 11
3 -6 -6 74.49 13.9
-3 -6 6 71.69 8.8
-3 -6 6 52.19 8.1
-3 6 5 6.5 6.1
-3 -6 5 2.4 4
3 -6 -5 7.1 6.3
3 -6 -5 13.4 7.4
-3 6 4 13.3 5.7
-3 -6 4 7.2 7.3
-3 -6 4 6.9 3.2
3 -6 -4 5 4.9
-3 6 3 37.8 7.4
-3 -6 3 19.1 5
-3 -6 3 15.9 4.5
3 -6 -3 33.6 7.9
-3 6 2 46.4 7.1
-3 -6 2 49.7 6.9
3 -6 -2 61.09 9.5
-3 -6 2 44.4 6.4
-3 6 1 394.56 16.6
3 -6 -1 416.76 19.5
-3 -6 1 440.76 18.3
3 6 0 200.88 10.6
-3 6 0 211.88 10.2
3 -6 0 227.98 13.1
-3 -6 0 209.18 13.5
-3 6 -1 44.1 4.1
3 6 1 60.69 7.5
3 -6 1 47.5 7.8
-3 -6 -1 53.29 8.8
3 -6 1 49.5 6.4
3 6 2 -0.4 3.1
3 -6 2 2.8 2.8
-3 -6 -2 6.3 5
3 -6 2 4.2 3.7
3 6 3 14.6 5.3
-3 -6 -3 10.6 6.5
3 -6 3 16 5.4
-3 -6 -3 21.3 6.8
3 -6 3 14.4 3.5
-3 6 -4 118.09 10.6
3 6 4 110.69 11.4
3 -6 4 120.69 6.9
-3 -6 -4 117.29 12.4
3 -6 4 120.19 11.5
-3 -6 -4 141.39 14.3
3 6 5 8.4 6.3
-3 6 -5 -4.1 3.6
3 -6 5 5 4.4
3 -6 5 6.5 3.4
-3 -6 -5 -0.7 6.4
-3 -6 -5 4.1 5
3 -6 5 1.1 2.2
3 6 6 5.2 6.1
-3 6 -6 6.4 5.8
3 -6 6 10.6 4.5
3 -6 6 16.8 6.6
-3 -6 -6 3.6 6.9
-3 -6 -6 17 6.6
-3 6 -7 -4.4 4.6
3 -6 7 6.4 4.8
3 -6 7 7.4 5.8
-3 6 -8 121.89 14.8
3 -6 8 119.19 13.6
-3 -6 -8 147.99 21.1
3 -6 8 131.19 11.7
3 -6 9 0.2 4.7
-3 -6 -9 -4.3 6.6
-3 -6 -10 10.1 9.3
3 -6 10 12.3 7.6
3 -6 10 22.8 8.2
3 -6 11 46.9 11.1
3 -7 -11 5.5 8.9
-3 -7 11 -3.3 5.9
3 -7 -10 4.1 7.2
-3 -7 10 -17.3 6.8
-3 -7 10 9.7 5.9
3 7 -9 33.6 8.7
-3 -7 9 23.3 6.5
3 -7 -9 25.6 12.4
3 7 -8 34.3 8.1
3 -7 -8 27.7 10.9
-3 -7 8 27.2 7.1
-3 -7 8 25 7.8
-3 -7 7 38.6 8.5
3 -7 -7 71.79 14.9
-3 -7 7 48.8 8.3
-3 7 6 1.5 6.1
3 -7 -6 2 6.6
-3 -7 6 -6.6 3
-3 -7 6 7.4 5.3
-3 7 5 1.2 5.5
3 -7 -5 -7.2 4.7
-3 -7 5 5.7 4.8
3 -7 -5 -6.7 5
-3 -7 5 2.1 3.7
-3 7 4 -10.6 3.7
-3 -7 4 2.5 3.8
3 -7 -4 2.1 6.2
-3 -7 4 2.1 3.6
-3 7 3 5.4 4.9
3 -7 -3 7 6.2
-3 -7 3 4.3 4.2
-3 -7 3 6.8 4.5
-3 7 2 32.1 6.5
-3 -7 2 27.6 6.3
3 -7 -2 25 7.8
-3 -7 2 30.3 6.1
-3 7 1 15.8 4.5
3 -7 -1 15.5 5.6
-3 -7 1 13.9 5.1
3 7 0 76.49 7.1
-3 7 0 76.29 6.8
-3 -7 0 76.99 10.5
3 -7 0 76.99 9
3 -7 0 84.79 9.4
3 7 1 2.1 3.5
-3 -7 -1 6.3 4.8
3 -7 1 -1.4 3.6
3 -7 1 -4.6 3.7
3 7 2 16.5 5.5
3 -7 2 3.4 4.8
3 -7 2 8.3 3.7
-3 -7 -2 2 6
3 7 3 5.1 4.3
-3 -7 -3 -0.5 4.9
-3 -7 -3 3.3 6
3 -7 3 1.4 4.5
3 -7 3 3 3.2
3 7 4 147.89 13
-3 -7 -4 146.79 15.9
3 -7 4 116.49 11.8
-3 -7 -4 111.69 12.8
3 -7 4 140.09 8.5
3 7 5 156.98 15.1
3 -7 5 142.99 9.7
-3 -7 -5 140.49 16.9
-3 -7 -5 144.99 15.3
3 -7 5 168.88 13.9
3 -7 5 161.88 9
-3 7 -6 1.1 5.3
3 -7 6 -4.6 5.4
3 -7 6 3.9 3
3 -7 6 -2.8 3.1
-3 7 -7 6.2 6.8
3 -7 7 14 7.2
3 -7 7 7 3.1
-3 -7 -7 17.7 9.7
3 -7 7 16.8 7.3
3 -7 8 15.2 5
-3 -7 -8 -3.6 6.6
3 -7 8 2.2 5.6
-3 -7 -9 23.7 11.6
3 -7 9 -5.6 4.7
3 -7 9 -3.4 5.2
3 -7 10 8.5 6.7
3 -7 10 11.1 5.9
-3 -7 -10 -6 6.2
-3 -8 10 17.1 7.7
3 -8 -10 10.6 11.1
-3 -8 10 -0.4 7.1
-3 -8 9 13.5 7.2
-3 -8 9 0.9 5.4
3 -8 -9 -15.2 5.8
3 -8 -8 2.7 7
-3 -8 8 2.5 3.9
-3 -8 8 10 6.2
-3 -8 8 2.6 5
-3 -8 7 16.5 6.5
3 -8 -7 7.3 8.6
-3 -8 7 19.2 5
-3 -8 7 14.6 6.6
3 -8 -6 5.1 7
-3 -8 6 -0.3 4.9
-3 -8 6 -2.8 3.8
-3 8 5 46.1 10
-3 -8 5 43.7 6.9
3 -8 -5 58.99 13
-3 -8 5 39 8
-3 8 4 6.7 5.6
-3 -8 4 3.8 4.5
3 -8 -4 11.7 7.6
-3 -8 4 7 4.7
-3 8 3 -3.3 4.4
-3 -8 3 -4.2 3.8
-3 -8 3 -1.9 4.3
3 -8 -3 7.5 6.6
-3 8 2 14.3 5.4
3 -8 -2 8.1 6.2
-3 -8 2 21.5 6.3
-3 -8 2 15 5.8
-3 8 1 3.5 4.4
3 -8 -1 18.7 6.8
-3 -8 1 7.3 5
-3 -8 1 14.4 6.2
3 8 0 4.8 3.4
-3 8 0 4.9 3.4
-3 -8 0 4.4 5.3
3 -8 0 8.2 5.4
3 -8 0 -4.1 4.4
3 8 1 16.7 5.3
3 -8 1 10.4 5.2
3 -8 1 9.1 5.6
-3 -8 -1 31.5 9.1
3 8 2 9.8 5.3
3 -8 2 8.7 6.1
3 -8 2 9.2 4.8
-3 -8 -2 6.6 7.4
3 8 3 42.1 8.7
-3 -8 -3 32.9 9.3
-3 -8 -3 23 8.7
3 -8 3 23.6 7.4
3 -8 3 25.4 5.6
3 8 4 86.99 12.4
-3 -8 -4 84.49 15.1
3 -8 4 78.49 11.5
3 -8 4 80.49 7.8
3 -8 5 23.2 5
-3 -8 -5 24.5 12.3
3 -8 5 19.7 7.6
3 -8 5 16.2 4.6
3 -8 6 28.6 5
3 -8 6 25.3 8.7
-3 -8 -6 15.3 9.1
3 -8 7 -3.8 2.6
-3 -8 -7 6.3 8.2
3 -8 7 -1 5.2
3 -8 8 1.2 6.7
-3 -8 -8 -7.4 6.4
3 -8 8 -0.6 4.2
3 -8 8 4.7 4.6
3 -8 9 -4.2 5.7
3 -8 9 -4.7 3
3 -8 9 21.9 8.6
-3 -8 -9 2.3 8.9
-3 -8 -10 -0.6 8
-3 -9 9 11.3 8.6
-3 -9 9 1.4 4.7
-3 -9 9 -6.6 6
-3 -9 8 2.5 5
-3 -9 8 10.3 6.2
3 -9 -8 12.7 9.2
-3 -9 7 14.8 6.9
-3 -9 7 4.9 6
-3 -9 7 8 5
3 -9 -7 19.3 9.7
3 -9 -6 0.7 7.1
-3 -9 6 3.9 5.7
-3 -9 6 1.1 4.4
-3 -9 5 14.9 5.6
3 -9 -5 13.4 8.8
-3 -9 5 18.6 6.9
-3 9 4 3 6.3
-3 -9 4 10.8 5.3
3 -9 -4 12 8.5
-3 -9 4 12.5 6.7
-3 9 3 23.5 7.6
-3 -9 3 23.6 6.8
-3 -9 3 19.6 6.5
3 -9 -3 44.2 10.7
-3 9 2 -3.2 4.2
3 -9 -2 -7.6 5.5
-3 -9 2 -3 4.3
-3 -9 2 8.4 5.1
-3 9 1 24.5 6.2
-3 -9 1 26.7 7.4
-3 -9 1 26.7 8
3 -9 -1 18.8 7.6
-3 9 0 3 3.5
3 9 0 1.3 3.5
-3 -9 0 -2.3 5.9
3 -9 0 10.7 4.9
3 -9 0 -3.4 5.2
3 9 1 14.7 5.3
3 -9 1 10.4 6.4
3 -9 1 6.3 5.4
-3 -9 -1 22.6 7.9
3 9 2 6.9 4.6
3 -9 2 0.5 4.8
3 -9 2 -2.6 3.9
-3 -9 -2 4.4 7.1
3 -9 3 29 8.3
-3 -9 -3 33.8 10.4
3 -9 3 34.9 6.3
-3 -9 -4 31.2 10.3
3 -9 4 48.2 9.8
3 -9 4 42.1 6.5
-3 -9 -5 9.5 9.6
3 -9 5 0.4 5.8
3 -9 5 1.6 3.5
3 -9 6 14.5 4.4
3 -9 6 1.7 5.9
-3 -9 -6 24.8 10.5
3 -9 7 8.8 7.5
3 -9 7 2.1 3.3
-3 -9 -7 1.5 7.4
3 -9 8 -0.9 3.5
-3 -9 -8 1.6 7.7
3 -9 8 1.6 7.1
3 -9 8 -8.3 4.1
-3 -10 8 7.7 6.4
-3 -10 8 -2.7 7
-3 -10 8 1 6.3
3 -10 -7 23.8 12.3
-3 -10 7 0 5.4
-3 -10 7 3.3 9
-3 -10 6 1.3 5
-3 -10 6 -0.3 6.4
3 -10 -6 6.4 7.4
-3 -10 5 14.1 5.9
3 -10 -5 -2.1 6.9
-3 -10 5 -3.3 5.3
3 -10 -4 24.6 9.7
-3 -10 4 14.9 7.3
-3 -10 4 15.8 6.9
3 -10 -3 48.8 12.3
-3 -10 3 44.8 9.9
-3 -10 3 20.6 7.2
-3 10 2 7.4 4.6
-3 -10 2 0.5 5.8
3 -10 -2 15.1 7.9
-3 -10 2 0.8 5.2
-3 10 1 -1.8 3.5
-3 -10 1 0.6 5.1
3 -10 -1 2.8 6.1
-3 -10 1 1.8 6.6
3 -10 -1 -3.8 5.8
-3 10 0 -0.6 3.1
-3 -10 0 6.5 6.2
3 -10 0 -1.3 5
3 -10 0 1.9 5.4
-3 -10 0 -2 4.4
3 10 1 31.6 7
3 -10 1 45.8 8.8
-3 -10 -1 28.6 9.2
3 -10 1 47.2 9.7
3 -10 2 19.3 6.6
3 -10 2 23.2 8.4
3 -10 3 5 4.7
-3 -10 -3 7.5 8.5
3 -10 3 -4.3 5.9
3 -10 4 -4.1 5.1
-3 -10 -4 1.8 8.9
-3 -10 -5 6 8.4
3 -10 5 5.2 7.5
3 -10 5 5.1 4.1
3 -10 6 -5.9 5.3
-3 -10 -6 -1.7 6.1
3 -10 6 4.3 4.6
3 -10 7 6.1 7.7
3 -10 7 -1.7 4.6
-3 -10 -7 11.6 10.8
-3 -11 6 -4.4 6.2
3 -11 -6 -11.1 8.3
-3 -11 6 1.7 6.9
-3 -11 5 -0.8 6.5
-3 -11 5 0.8 6.4
3 -11 -5 6 9.3
-3 -11 4 18.5 7.3
3 -11 -4 4.3 8.5
-3 -11 4 24.3 7.8
-3 -11 3 0.4 6.3
-3 -11 3 3.2 6.4
3 -11 -3 -5.8 7.4
-3 -11 2 5.9 6.6
3 -11 -2 11.9 7.9
-3 -11 2 4.8 7.1
-3 11 1 3.2 4.7
3 -11 -1 -13.2 5.6
-3 -11 1 9.4 6.9
-3 -11 1 5 7.5
3 -11 -1 3.7 6.9
3 -11 0 -8.5 5
-3 -11 0 -2 8
-3 -11 0 5.1 6.3
3 -11 0 -13.9 5
3 -11 1 29.1 8.8
3 -11 1 25.3 7.7
-3 -11 -1 4.9 7.4
3 -11 2 17.3 8.1
-3 -11 -2 8.5 8.5
3 -11 2 4 4.9
3 -11 3 34.5 7.3
3 -11 3 26.1 9.2
-3 -11 -3 40.9 12
3 -11 4 -0.7 6.5
3 -11 4 -2.5 5.3
-3 -11 -4 2.4 7.4
3 -11 5 0.6 7.4
-3 -11 -5 4.5 11
-3 -12 3 -12.6 6.9
-3 -12 3 10.4 8.3
3 -12 -3 9.5 8.1
-3 -12 2 -2.9 7.1
3 -12 -2 6.6 7.8
3 -12 -2 9.1 7.9
-3 -12 2 -3.5 6.9
3 -12 -1 11.5 7.5
-3 -12 1 2.1 6.7
-3 -12 1 12.4 7.9
3 -12 0 -3.4 5.9
3 -12 0 8.1 7.7
-3 -12 0 15.6 7.4
-3 -12 0 3 7.1
3 -12 1 -8.6 6
-3 -12 -1 -12.8 7
3 -12 1 2 8
-3 -12 -1 12.7 8.3
3 -12 2 8.7 7.1
3 -12 2 -5.4 6.5
-3 -12 -2 -7.5 8
3 -12 3 -0.8 7.3
-3 -12 -3 20.2 10.8
3 -12 3 1.4 7
-4 0 13 5.1 7.7
4 0 -12 48.8 11.9
-4 0 12 70.49 13.2
4 0 -11 -8.8 4.5
-4 0 11 4.4 7.4
4 0 -10 76.79 11.8
4 0 -10 42.4 10.7
-4 0 10 75.59 12.3
4 0 -9 -4.2 3.9
-4 0 9 7.5 6.3
-4 0 9 4.2 5.2
4 0 -9 1.2 5.1
4 0 -8 82.69 9.2
-4 0 8 98.19 12
4 0 -8 81.09 12.2
-4 0 8 67.19 10.3
4 0 -7 1.2 3.8
-4 0 7 5.6 4.3
-4 0 7 1.8 5.6
4 0 -7 -3.9 3.2
4 0 -6 -0.1 3.6
-4 0 6 1.3 3.4
4 0 -6 3.5 3
-4 0 6 0.6 4.2
4 0 -5 0.6 3.6
4 0 -5 -0.8 2.8
-4 0 5 -3.2 3.4
-4 0 5 1.2 3.1
4 0 -4 182.78 8.9
-4 0 4 174.68 11.6
4 0 -4 174.98 10.9
-4 0 4 178.58 9.5
4 0 -3 1.2 2.8
4 0 -3 -1.2 2
-4 0 3 1.9 3.2
-4 0 3 -1.5 2
-4 0 2 87.39 7
4 0 -2 94.49 5.3
-4 0 0 170.08 6
4 0 1 -1.2 2
-4 0 -1 1.2 2.2
-4 0 -1 -1.4 1.7
4 0 1 -1.2 1.5
-4 0 -2 9999 219.68
4 0 2 9567.64 218.68
-4 0 -3 -0.9 2.7
4 0 3 -0.8 2.3
-4 0 -3 -0.5 2.4
4 0 3 -0.6 2.5
4 0 4 938.01 30.4
-4 0 -4 957.6 29.6
-4 0 -4 969 31.1
4 0 4 974.3 30
-4 0 -5 -2.2 3.6
-4 0 -5 0.9 3.4
4 0 5 -1.5 2.9
4 0 6 191.38 13.3
4 0 6 176.98 13.3
-4 0 -6 194.78 12.6
-4 0 -6 173.28 16
4 0 7 0.6 3.7
-4 0 -7 -0.9 3.8
-4 0 -7 1.6 4.5
4 0 7 -6.7 3.6
4 0 8 -2.7 4.5
-4 0 -8 3.6 5.3
-4 0 -8 8.3 5.7
4 0 8 9.3 5.9
-4 0 -9 -4.5 4.9
4 0 9 2.9 5.5
-4 0 -9 -0.7 5.7
4 0 10 57.39 11.9
4 0 10 93.39 14.3
-4 0 -10 86.99 14.3
-4 0 -11 -1.9 4.6
4 0 11 -4.2 5
4 0 12 47.3 12.7
-4 0 -12 58.79 13.3
4 0 13 14.8 9.1
-4 0 -13 15.5 8.1
-4 -1 13 21.7 9.1
4 -1 -13 5 7.1
-4 -1 12 7.4 7.6
4 -1 -12 1.7 6.3
-4 1 11 -2.2 7.1
4 1 -11 7.7 7.2
-4 -1 11 11.4 6.7
4 -1 -11 5.2 7.3
4 1 -10 12.9 5.8
-4 1 10 4.6 6.4
-4 -1 10 -2.3 5.8
4 -1 -10 -7.3 4.7
4 -1 -10 15.4 6.3
-4 -1 10 6.3 6.1
-4 1 9 25 8.9
-4 1 9 23 7.8
4 1 -9 17.1 5.8
4 -1 -9 34.8 8.1
-4 -1 9 36.1 11.2
-4 -1 9 23 7.2
4 -1 -9 23.1 8.3
-4 1 8 41 8.4
4 1 -8 33.9 6.7
-4 1 8 30.2 8.5
4 -1 -8 30.8 7.1
4 -1 -8 37.6 9.1
-4 -1 8 29.8 6.8
-4 -1 8 27 8
-4 1 7 57.19 9.2
4 1 -7 61.69 7.2
4 1 -7 82.39 9.3
-4 1 7 83.49 12.2
-4 -1 7 58.09 8.7
-4 -1 7 63.59 10.2
4 -1 -7 69.79 9.1
4 -1 -7 68.79 11
4 1 -6 -3 2.9
-4 1 6 7 5.2
-4 -1 6 -1.5 3
4 -1 -6 2.9 4
4 -1 -6 0.9 3.8
-4 -1 6 6.8 4.5
4 1 -5 60.79 6.1
-4 1 5 75.79 8.4
-4 1 5 69.69 10.1
-4 -1 5 62.29 6.3
4 -1 -5 84.29 11
4 -1 -5 69.09 8.3
-4 -1 5 66.49 10.6
4 1 -4 62.39 4.9
-4 1 4 64.19 7.7
4 -1 -4 62.69 6
-4 -1 4 57.99 6.8
4 -1 -4 47.2 7.3
-4 -1 4 64.79 5.3
4 1 -3 119.09 5.6
-4 1 3 111.09 8.8
-4 -1 3 128.19 8.5
4 -1 -3 112.39 8.8
-4 -1 3 114.19 5.7
4 -1 -3 120.49 7.5
4 1 -2 882.31 20.9
-4 1 2 841.92 26
-4 -1 2 850.21 20.9
4 -1 -2 906.81 26.2
-4 1 1 -2.7 2
4 -1 -1 1.1 2.1
-4 1 0 -0.1 1.2
-4 1 0 0.7 1.9
4 1 0 1 1.5
4 1 0 0.4 1.4
-4 -1 0 0.5 1.6
4 -1 0 -2.7 1.6
-4 -1 0 -0.8 1.4
4 1 1 1 2.6
-4 1 -1 2.7 1.4
4 1 1 2.2 2.7
-4 1 -1 6.3 3.2
-4 -1 -1 3 2.9
4 -1 1 7.6 3.3
4 -1 1 1.6 1.1
-4 -1 -1 4.2 3
4 1 2 2164.38 53.39
4 1 2 2109.39 53.29
-4 1 -2 2124.19 50.79
-4 1 -2 2110.69 52.99
-4 -1 -2 2139.69 54.19
-4 -1 -2 2170.08 52.99
4 -1 2 2118.59 50.49
4 -1 2 2211.58 53.09
-4 1 -3 447.96 15.6
4 1 3 436.16 16.8
4 1 3 435.06 16.9
-4 1 -3 431.46 16.3
4 -1 3 431.56 15.2
-4 -1 -3 455.55 18
4 -1 3 457.55 16.4
-4 -1 -3 443.16 16.3
-4 1 -4 325.87 14.7
4 1 4 338.97 16.1
4 1 4 327.77 15.5
-4 1 -4 331.77 14.6
4 -1 4 358.66 15.1
-4 -1 -4 348.57 17.1
4 -1 4 348.97 14.8
4 1 5 159.28 11.3
4 1 5 142.89 11.7
-4 1 -5 155.78 11
-4 1 -5 142.09 10.3
-4 -1 -5 159.98 10.8
-4 -1 -5 155.18 12.3
4 -1 5 146.59 10.6
-4 1 -6 183.38 12.8
4 1 6 176.58 13
4 1 6 170.08 13.4
-4 1 -6 179.88 12.1
4 -1 6 184.88 12.9
-4 -1 -6 183.38 14.7
4 -1 6 179.88 12.3
-4 -1 -6 177.88 12.2
4 1 7 25.4 7
4 1 7 17.9 6.5
-4 1 -7 17.2 5.8
-4 1 -7 19.1 5.8
-4 -1 -7 9.6 5.6
4 -1 7 11.3 5
-4 -1 -7 19.8 6.8
4 -1 7 10.8 5.3
-4 1 -8 8.1 5.2
4 1 8 4.3 5.6
4 1 8 -1.7 5.5
-4 1 -8 3.5 4.7
-4 -1 -8 4 6.4
4 -1 8 -2.9 4.7
4 -1 8 3.1 4.7
-4 -1 -8 -7.2 4.3
4 1 9 1.2 5.8
-4 1 -9 11.1 6.5
4 1 9 1.6 6.6
-4 1 -9 -0.4 5
-4 -1 -9 3.1 5.4
-4 -1 -9 1.7 6.5
4 -1 9 11.2 6.3
4 -1 9 4.9 6.3
-4 1 -10 8.1 6.5
4 1 10 8.3 6.8
4 -1 10 1 6.4
-4 -1 -10 21.5 9.1
-4 1 -11 18.9 10.4
4 1 11 27 9.2
-4 -1 -11 17 8.7
4 -1 11 15.5 8
-4 1 -12 -1.5 6.6
4 1 12 4 8.2
4 -1 12 -5.6 6.6
-4 -1 -12 6.6 7.8
-4 1 -13 -2.6 7.3
4 -1 13 24.2 9.3
-4 -1 -13 11.5 9.6
-4 -2 13 2.4 7.8
4 -2 -13 1.3 8.8
-4 -2 12 43.9 11
4 -2 -12 29.8 9.9
4 2 -11 -15.7 6.2
-4 -2 11 0.3 5.8
4 -2 -11 -2.7 5.7
4 -2 -10 49.3 11.9
-4 -2 10 62.89 10.7
-4 -2 10 55.29 11.5
4 2 -9 66.79 9.9
-4 2 9 74.59 14.3
4 -2 -9 81.09 14.2
-4 -2 9 59.99 14.5
-4 -2 9 88.29 11.4
4 2 -8 72.39 9.3
4 -2 -8 61.59 11.9
-4 -2 8 59.59 11.4
-4 -2 8 48.4 8.1
4 -2 -8 59.59 9.9
4 2 -7 70.19 7.8
-4 2 7 63.19 11.1
-4 -2 7 105.99 17.3
-4 -2 7 95.89 10.9
4 -2 -7 92.09 9.7
4 -2 -7 103.69 12.1
4 2 -6 57.19 8.3
-4 2 6 101.49 13.5
4 -2 -6 89.29 12.3
-4 -2 6 71.79 10.1
4 -2 -6 73.79 8.2
-4 -2 6 80.69 7.4
4 2 -5 2.6 2.9
-4 2 5 2.8 4.6
4 -2 -5 -1.1 3.3
4 -2 -5 4.1 4.3
-4 -2 5 2.8 2.9
-4 -2 5 -2.5 3.4
4 2 -4 8.4 2.9
-4 -2 4 12 4.2
4 -2 -4 8.2 5
-4 -2 4 9.4 2.9
4 -2 -4 9.6 4.5
-4 2 3 245.78 13.2
4 2 -3 253.47 9.1
-4 -2 3 245.58 8.8
4 -2 -3 247.58 13.3
4 2 -2 2736.73 61.59
-4 2 2 2658.33 67.49
-4 -2 2 2653.43 61.79
4 -2 -2 2748.02 67.89
-4 2 1 9 3.5
4 -2 -1 12.7 3.7
-4 2 0 155.58 6.4
4 2 0 163.98 7.1
-4 -2 0 146.09 7.2
4 -2 0 147.79 6.4
-4 -2 0 146.29 7.8
4 -2 0 164.98 8.3
4 2 1 198.08 8.8
-4 2 -1 181.58 8.8
4 2 1 192.58 9.3
4 -2 1 186.08 9.1
-4 -2 -1 189.58 9
-4 -2 -1 201.78 9.7
4 2 2 147.89 9
4 2 2 147.89 8.7
-4 2 -2 146.99 8.4
-4 -2 -2 149.59 8.6
4 -2 2 154.88 5.6
4 -2 2 161.08 8.7
-4 -2 -2 142.69 9.3
-4 2 -3 582.64 17.4
4 2 3 609.84 22
-4 2 -3 609.84 21
4 2 3 590.04 21.7
4 -2 3 587.74 17.8
-4 -2 -3 612.24 23.1
4 -2 3 579.84 20.5
-4 -2 -3 613.04 21.4
-4 2 -4 106.09 10.1
4 2 4 110.89 9.6
4 2 4 97.29 9.5
-4 2 -4 92.19 7
4 -2 4 97.39 7.5
-4 -2 -4 101.19 8.8
-4 -2 -4 92.99 10
4 -2 4 91.09 8.2
4 2 5 550.34 23.9
4 2 5 542.05 23.6
-4 2 -5 530.85 21.5
-4 2 -5 548.95 20.2
4 -2 5 546.65 22.1
4 -2 5 545.45 20.9
-4 -2 -5 565.44 25.3
-4 -2 -5 511.65 21.9
4 2 6 -3.7 3.4
4 2 6 2.2 4.1
-4 2 -6 2 3.3
-4 2 -6 2 4
4 -2 6 2.3 3.5
4 -2 6 2.9 3.8
-4 -2 -6 4 4.1
-4 -2 -6 7.4 5.8
4 2 7 71.29 11.1
-4 2 -7 61.09 9.3
4 2 7 63.49 10.6
-4 2 -7 38.6 7.9
4 -2 7 67.79 9.9
-4 -2 -7 53.59 8.9
4 -2 7 68.89 9.8
-4 -2 -7 74.09 12.3
4 2 8 3 5.9
-4 2 -8 0.4 4.2
-4 2 -8 8.1 5.5
4 2 8 3 5.9
-4 -2 -8 1.2 5.1
4 -2 8 2.7 4.9
4 -2 8 18.9 6.4
-4 -2 -8 10 7.4
4 2 9 -2.6 5.6
-4 2 -9 3.2 5.2
4 2 9 -6.2 5.9
-4 2 -9 -6 5.2
-4 -2 -9 10.7 6.7
4 -2 9 6.9 5.9
4 -2 9 1.4 5.5
4 2 10 32.2 10.2
-4 2 -10 40.9 9.3
4 -2 10 27.7 9.3
-4 -2 -10 33.5 10.7
4 2 11 52.59 13.1
-4 -2 -11 23.3 11
4 -2 11 20.9 8.8
4 2 12 13.5 9.7
-4 -2 -12 6.6 7
4 -2 12 8.3 7.6
4 -3 -13 24.6 9.4
-4 -3 13 15.6 8.7
-4 -3 12 13.9 7
4 -3 -12 -6.5 5.1
4 3 -11 -5.7 5.3
4 -3 -11 -6.8 5.2
-4 -3 11 9.9 6
-4 -3 10 -7.3 5.6
4 -3 -10 8.1 7.4
-4 -3 10 -1.3 5.1
4 3 -9 130.59 12.1
4 -3 -9 122.89 13.2
-4 -3 9 115.19 11.4
4 -3 -9 140.69 16.6
-4 -3 9 140.09 14.8
4 3 -8 54.99 8.5
-4 3 8 46.4 11.5
4 -3 -8 56.69 11.9
-4 -3 8 69.19 9.1
-4 -3 8 42.7 9.5
4 3 -7 12.7 5
-4 3 7 12.8 6.7
4 -3 -7 6 5.8
4 -3 -7 16.3 6.3
-4 -3 7 11.5 5.8
4 3 -6 29.5 5.7
-4 3 6 28.7 7.8
4 -3 -6 38.1 7.7
4 -3 -6 24.3 7.5
-4 -3 6 30.6 5.4
-4 -3 6 28.2 6.5
-4 3 5 4.2 4.3
4 3 -5 0.2 2.8
4 -3 -5 3.9 4.5
-4 -3 5 0.2 3
-4 -3 5 -2.1 2.3
4 -3 -5 1.2 3.6
4 3 -4 86.49 6.4
-4 3 4 85.39 9.5
4 -3 -4 87.29 8.9
-4 -3 4 85.29 6.2
4 -3 -4 95.69 10.8
-4 3 3 0.1 3.2
4 3 -3 0.6 1.9
4 -3 -3 0.6 3.4
-4 -3 3 -1.8 1.9
-4 3 2 175.78 10.6
4 -3 -2 185.18 11.1
-4 -3 2 175.58 7.4
-4 3 1 857.41 25.7
-4 -3 1 909.51 24.3
4 -3 -1 874.61 26.4
-4 3 0 1 1.7
4 3 0 1.1 1.9
-4 -3 0 3.3 2.5
4 -3 0 0.6 2.2
4 -3 0 -1.9 1.6
4 3 1 27.2 4.4
-4 3 -1 24.7 4.4
4 -3 1 20.2 2.4
-4 -3 -1 26.3 4.7
-4 -3 -1 16.2 4.2
4 -3 1 23.2 4.4
4 3 2 26.4 5
-4 3 -2 26.5 4.7
4 -3 2 42.8 6
-4 -3 -2 29.2 5.4
-4 -3 -2 30.7 5.9
4 -3 2 30.5 2
4 3 3 522.85 21.1
4 3 3 519.65 21.3
-4 3 -3 504.65 19.4
4 -3 3 497.25 19.3
-4 -3 -3 548.25 21.5
4 -3 3 506.35 15.7
-4 -3 -3 557.24 22.8
4 3 4 48.1 8.3
4 3 4 54.49 8.3
-4 3 -4 55.59 8
-4 -3 -4 61.99 8.7
4 -3 4 57.99 5.7
-4 -3 -4 46.4 8.8
4 -3 4 50.99 7.9
4 3 5 10.2 5.2
-4 3 -5 3.3 3.6
4 3 5 4.7 5
-4 -3 -5 4.7 5.5
4 -3 5 12 4.6
4 -3 5 8.9 4
-4 -3 -5 5.2 4.3
4 3 6 36 7.9
4 3 6 36.8 8.7
-4 3 -6 39.5 7.4
-4 -3 -6 29.6 8.5
-4 -3 -6 30.5 7
4 -3 6 38.7 7
4 -3 6 49.7 7.4
-4 3 -7 4.6 4.8
4 3 7 -1.6 5.3
4 3 7 3.9 5.4
4 -3 7 3.4 4.3
4 -3 7 5.2 4.6
-4 -3 -7 2 5.5
4 3 8 5.5 6.6
4 3 8 10.3 5.9
-4 -3 -8 0.9 5.4
4 -3 8 11.2 5.6
-4 -3 -8 1.5 6
4 -3 8 0.6 4.7
-4 3 -9 163.38 15.3
4 3 9 181.78 20.6
4 -3 9 162.98 14.6
-4 -3 -9 186.58 21.8
4 -3 9 182.38 15.9
4 3 10 16.7 8.7
4 -3 10 21 8.3
-4 -3 -10 22.3 9.1
4 -3 10 3.6 6.5
4 3 11 1.1 6.3
4 -3 11 4.8 7.9
4 -3 11 0.3 6.3
-4 -3 -11 -3 6
4 3 12 5 8.3
-4 -3 -12 15.8 9.6
4 -3 12 0.2 6.9
4 -4 -12 -9.9 6.6
-4 -4 12 -6 4.9
4 4 -11 40.9 8.8
4 -4 -11 26 10.4
-4 -4 11 42 9.4
4 -4 -10 31.4 11.1
-4 -4 10 17.1 7.9
-4 -4 10 25.2 7.8
4 4 -9 69.49 10.3
-4 -4 9 83.69 9.8
4 -4 -9 65.89 13.7
-4 -4 9 61.69 11.8
-4 4 8 45.9 11.2
4 4 -8 44.6 8.3
-4 -4 8 54.89 8.3
-4 -4 8 53.79 10.4
4 -4 -8 48.3 11.9
4 -4 -8 72.79 11.8
-4 4 7 155.98 18.5
4 4 -7 181.78 12.1
4 -4 -7 201.28 15.7
-4 -4 7 213.68 12.7
-4 -4 7 206.08 15.2
4 -4 -7 182.78 17.3
4 4 -6 37.8 6.2
-4 4 6 27.7 7.5
4 -4 -6 33.9 7.9
-4 -4 6 34.6 5.7
4 -4 -6 31.6 8.9
-4 -4 6 23.5 6.3
4 4 -5 147.19 9.2
-4 4 5 170.08 14.3
4 -4 -5 135.49 13.9
4 -4 -5 162.98 12.8
-4 -4 5 162.18 9.7
-4 4 4 94.69 10.3
4 4 -4 97.99 6.9
-4 -4 4 100.69 7.2
4 -4 -4 103.59 10.9
-4 4 3 107.29 10
-4 -4 3 111.99 7.2
4 -4 -3 92.29 10.4
-4 4 2 337.17 15.8
4 -4 -2 325.77 16.3
-4 -4 2 361.36 13.1
-4 -4 2 369.96 13.1
-4 4 1 87.89 7
-4 -4 1 104.99 7.3
4 -4 -1 94.59 7.9
-4 4 0 14.4 3
4 4 0 10.7 3
4 -4 0 11 3.3
4 -4 0 18.3 4.4
-4 -4 0 13.5 4.2
4 4 1 466.05 17.1
-4 4 -1 444.16 12.6
-4 -4 -1 495.35 19.5
4 -4 1 463.15 17.9
4 -4 1 450.65 14.4
-4 4 -2 173.58 10.7
4 4 2 160.38 10.1
-4 -4 -2 169.38 12
4 -4 2 141.59 6
4 -4 2 138.09 10
-4 -4 -2 147.89 13
-4 4 -3 60.39 6.8
4 4 3 45.8 7.6
-4 -4 -3 56.79 8.4
4 -4 3 49 3.2
4 -4 3 36 6.9
-4 -4 -3 52.89 9
4 -4 3 44.4 4
4 4 4 211.58 14.1
-4 4 -4 214.78 12.7
-4 -4 -4 249.97 16.7
4 -4 4 221.88 13.4
4 -4 4 209.28 9.9
-4 -4 -4 212.78 14
4 4 5 95.59 10.5
-4 4 -5 101.99 9.5
4 -4 5 97.99 9.7
4 -4 5 84.69 7.3
-4 -4 -5 90.69 13
-4 -4 -5 90.49 10
-4 4 -6 9.5 5.1
4 4 6 -0.5 4.2
-4 -4 -6 -1.8 5.5
4 -4 6 -2.5 2.8
-4 -4 -6 1.2 4.7
4 -4 6 7.1 4.8
4 4 7 9.6 5.9
-4 4 -7 5.3 5.7
-4 -4 -7 14.4 7.9
4 -4 7 10.6 6.1
4 -4 7 9.7 4.7
-4 -4 -7 8.2 6.8
-4 4 -8 3.6 5.3
4 -4 8 4.8 5
4 -4 8 -3.4 4.3
-4 -4 -8 -10.5 5.9
-4 4 -9 144.79 14.3
4 -4 9 125.49 13.9
-4 -4 -9 169.08 22.4
4 -4 9 122.29 12.5
4 -4 10 12.5 7.8
-4 -4 -10 4.6 7.6
4 -4 10 22.9 7.2
-4 -4 -11 14.7 9.8
4 -4 11 39.7 10.5
4 -4 11 22.7 8
-4 -4 -12 -2.6 10.7
4 -4 12 24.3 9.4
-4 -5 12 19.7 7.4
4 -5 -12 -4.6 6.3
4 5 -11 0.3 7
4 -5 -11 6.9 7.9
-4 -5 11 -3.1 5.4
4 5 -10 28.4 7.5
-4 -5 10 45.7 8.9
4 -5 -10 28.2 10.3
-4 -5 10 24.6 8.8
4 5 -9 8.9 5.5
4 -5 -9 16.5 8.8
-4 -5 9 12.2 5.6
-4 -5 9 6.5 7.9
4 5 -8 19 6.2
-4 -5 8 17.2 6.7
-4 -5 8 28.1 6.4
4 -5 -8 14.2 8.5
4 5 -7 156.38 11.7
-4 5 7 181.08 17.2
-4 -5 7 172.28 11.8
4 -5 -7 143.19 16.7
4 -5 -7 162.88 15.4
-4 -5 7 155.68 13.7
4 5 -6 1.1 3.3
-4 5 6 0.1 5.2
-4 -5 6 1.7 3.9
-4 -5 6 2.6 3.5
4 -5 -6 -4.3 4.5
4 -5 -6 1 5.6
-4 5 5 35.1 8.3
-4 -5 5 29 5.5
4 -5 -5 28.6 8.2
4 -5 -5 34.9 8.2
-4 5 4 4.6 4.4
-4 -5 4 3.7 3.3
4 -5 -4 3.2 4.9
-4 5 3 33.6 6.9
4 -5 -3 19.1 6.5
-4 -5 3 13.2 3.9
-4 -5 3 19 3.9
-4 -5 2 47.5 5.6
-4 -5 2 42.1 5.6
4 -5 -2 36 7.2
-4 5 1 206.58 11
-4 -5 1 226.08 11.8
4 -5 -1 224.68 13.1
4 5 0 36.6 5
-4 5 0 37.5 4.6
-4 -5 0 22.8 5.5
4 -5 0 47.1 8.5
4 -5 0 32.1 5.5
-4 5 -1 15.2 2.6
4 5 1 21.1 4.6
4 -5 1 21.8 6.2
-4 -5 -1 13.9 5.9
4 -5 1 13.9 3.7
4 5 2 315.37 15.1
4 -5 2 278.17 15
4 -5 2 299.17 11.1
-4 -5 -2 296.67 16.1
-4 -5 -2 308.97 17.1
4 5 3 209.28 13.4
-4 5 -3 234.88 13.8
4 -5 3 223.78 13.7
-4 -5 -3 206.98 14.1
-4 -5 -3 211.78 15.9
4 -5 3 217.68 8.3
-4 5 -4 51.59 7.8
4 5 4 42.3 8.4
4 -5 4 54.29 5.1
4 -5 4 47.3 3.8
-4 -5 -4 56.09 10.3
4 -5 4 47.2 7.5
-4 -5 -4 47.3 8.7
4 5 5 5.9 5
-4 5 -5 6.3 4.5
4 -5 5 2.3 4.3
-4 -5 -5 17.1 6.5
4 -5 5 9.2 3.5
-4 -5 -5 11.2 6.9
-4 5 -6 3.6 4.9
4 5 6 0.8 4.6
-4 -5 -6 -5.2 4.5
4 -5 6 -1.9 3.1
-4 -5 -6 -3.6 5.7
4 -5 6 -5.5 3.6
4 5 7 -2.6 5.1
-4 5 -7 -1.2 5.8
-4 -5 -7 -3.1 5.8
-4 -5 -7 1.5 5.9
4 -5 7 -0.1 5.5
-4 5 -8 1.7 5.2
4 -5 8 2.7 4.5
4 -5 8 4.8 6
-4 -5 -8 2.3 6.8
4 -5 9 0.3 5.3
4 -5 9 -0.8 5
-4 -5 -9 -0.4 5.9
-4 -5 -10 -9.7 8.2
4 -5 10 4.1 6.5
4 -5 10 -7.8 5.6
4 -5 11 -14.8 4.8
4 -5 11 8.6 7
-4 -5 -11 -4.3 7.8
4 -6 -11 -5.4 7.5
-4 -6 11 -13.2 4.5
4 6 -10 16.1 7.3
-4 -6 10 20.1 6.9
-4 -6 10 16.9 8.5
4 -6 -10 41.2 13.7
4 6 -9 10 6.2
-4 -6 9 21.9 6.2
4 -6 -9 17.1 9.1
4 6 -8 55.39 8.7
-4 -6 8 52.29 8.5
4 -6 -8 65.69 14.3
-4 -6 8 50.19 9.6
4 6 -7 4.8 4.7
-4 -6 7 -3.2 4.5
4 -6 -7 7.9 7.1
-4 -6 7 4.8 4.1
-4 6 6 227.98 17.8
4 6 -6 190.98 12.7
4 -6 -6 193.48 16.9
4 -6 -6 196.58 18.4
-4 -6 6 198.78 12.7
-4 6 5 -1.7 4.2
4 -6 -5 -1.1 5.2
4 -6 -5 0.3 5.7
-4 6 4 61.09 9.9
-4 -6 4 46 6.3
4 -6 -4 60.99 11
-4 -6 4 47.4 7.1
-4 6 3 135.89 11.4
-4 -6 3 143.99 9.9
4 -6 -3 143.59 12.9
-4 -6 3 119.09 13.8
-4 6 2 41.8 7.1
-4 -6 2 34.8 5.8
-4 -6 2 34.2 7.1
4 -6 -1 223.28 13.9
-4 -6 1 225.68 15.1
-4 6 0 31.7 4.5
4 6 0 21.8 4.6
4 -6 0 25.2 6.5
4 -6 0 31.4 6
-4 -6 0 19.2 5.5
4 6 1 21 4.9
-4 6 -1 22.7 3.3
4 -6 1 24.3 5.9
4 -6 1 28 5.1
-4 -6 -1 31.4 7.1
4 6 2 251.17 13.9
4 -6 2 266.27 15.2
-4 -6 -2 230.88 15.1
-4 -6 -2 238.78 16.6
4 -6 2 248.18 11.1
4 6 3 15.8 5.1
4 -6 3 9.2 5.3
-4 -6 -3 7.6 5.8
-4 -6 -3 14.4 6.2
4 -6 3 14.5 3.3
4 6 4 20.4 7
-4 6 -4 14.7 5.5
-4 -6 -4 19.9 7.7
4 -6 4 21.7 3.5
4 -6 4 22.1 6.1
-4 -6 -4 15 6.4
4 6 5 3.8 5.2
-4 6 -5 0.4 4.7
4 -6 5 1.7 2.2
-4 -6 -5 11.5 7.1
-4 -6 -5 11 6.5
4 -6 5 -4 4
4 -6 5 6.3 3.1
4 6 6 21.3 7.6
-4 6 -6 34.8 8
-4 -6 -6 29.1 10.2
4 -6 6 31.9 8
4 -6 6 22.7 5.5
-4 -6 -6 28.7 8.5
-4 6 -7 39.6 8.5
-4 -6 -7 33.8 11.2
4 -6 7 40 6.9
4 -6 7 32.1 9.1
-4 6 -8 7.9 7.3
4 -6 8 11.8 5.2
-4 -6 -8 8.7 8
4 -6 8 12.3 6.7
4 -6 9 3.1 5.8
-4 -6 -9 -0.4 8
4 -6 9 -3.9 4.6
4 -6 10 7.2 6.6
4 -6 10 -3.2 5.2
-4 -6 -10 4.3 7.7
4 -6 11 -8 6.7
-4 -6 -11 4.8 9.2
4 -6 11 7.2 6.7
-4 -7 11 -12 7.2
4 -7 -11 -14.2 7.1
4 7 -10 6.9 7.1
-4 -7 10 -4.6 5.1
4 -7 -10 2.9 8.6
4 7 -9 39.2 8.3
-4 -7 9 18.7 6.8
-4 -7 9 36.6 9.6
4 -7 -9 12.9 9.7
4 7 -8 -2.2 5.1
4 -7 -8 -7.9 6
-4 -7 8 5 5.2
-4 -7 8 5.2 5.2
-4 -7 7 5.2 5.5
-4 -7 7 -1.8 4.5
4 -7 -7 3.9 7.4
-4 7 6 214.68 18.5
4 -7 -6 175.68 18.5
-4 -7 6 188.58 11
-4 -7 6 176.88 12.8
-4 7 5 2.1 5.9
4 -7 -5 8.9 5.8
4 -7 -5 2.7 6.1
-4 -7 5 0.7 4.1
-4 -7 5 -1.9 3.8
-4 7 4 32.2 8.7
4 -7 -4 45.7 10.1
-4 -7 4 41.6 6.8
-4 -7 4 35.9 7
-4 7 3 -4.9 3.9
-4 -7 3 1.7 3.5
-4 -7 3 -0.5 3.7
4 -7 -3 -1.6 4.4
-4 7 2 3.2 3
-4 -7 2 4.6 3.6
4 -7 -2 5 4.9
-4 -7 2 -6.3 3
-4 7 1 26.7 5.4
-4 -7 1 24.1 5.9
4 -7 -1 31 8.2
4 7 0 -1.4 2.8
-4 7 0 1.4 2.8
-4 -7 0 4.2 4.8
4 -7 0 -4.3 3.4
4 -7 0 -1.8 3.1
4 7 1 13.1 4.4
-4 -7 -1 9.4 5.9
4 -7 1 16.9 5.9
4 -7 1 17.3 5
4 7 2 54.39 8.6
-4 -7 -2 74.69 11.6
-4 -7 -2 65.59 10.4
4 -7 2 57.19 6.7
4 -7 2 61.39 9.4
4 7 3 8.4 4.6
-4 -7 -3 -1.7 4.6
4 -7 3 -1.4 2.7
4 -7 3 3.8 4.9
-4 -7 -3 -1.2 5.3
4 7 4 -4.4 4
-4 -7 -4 3.5 5.2
4 -7 4 -2.5 4.3
4 -7 4 -0.6 2.6
-4 -7 -4 1.9 6.3
4 7 5 51.59 9.8
4 -7 5 41.6 6
-4 -7 -5 60.69 12.9
4 -7 5 34.5 8.4
4 -7 5 32.9 4.7
-4 -7 -5 52.79 10.1
-4 7 -6 6.6 6.4
4 -7 6 1.5 2.6
4 -7 6 -3.2 5.7
-4 -7 -6 2.6 8.9
4 -7 6 -3.6 3.1
-4 7 -7 -0.1 5.1
-4 -7 -7 14.8 8.7
4 -7 7 1.4 2.4
4 -7 7 -2.9 3.2
4 -7 7 0.7 5.6
-4 -7 -8 38.4 11.9
4 -7 8 35.7 6.6
4 -7 9 13.5 6.1
4 -7 9 7.1 6.9
-4 -7 -9 15.5 9.4
4 -7 10 3.4 6.2
-4 -7 -10 -5.1 7.3
4 -7 10 15.7 7.7
4 -8 -10 -5.8 9
-4 -8 10 1.5 5.6
-4 -8 9 -6.5 5.2
4 -8 -9 7.2 7.8
-4 -8 9 7.9 5.5
-4 -8 8 31.6 6.4
-4 -8 8 56.79 11.2
4 -8 -8 8.1 9.8
-4 -8 8 30.5 7.4
-4 -8 7 22.7 5.7
-4 -8 7 24.4 6.6
-4 -8 7 14.3 6.5
4 -8 -7 28.5 11.2
-4 -8 6 11.2 4.6
4 -8 -6 18.7 8.3
-4 -8 6 11.9 5.5
-4 8 5 61.69 11.6
4 -8 -5 49.8 12.1
-4 -8 5 46.4 7.5
-4 -8 5 50.89 8.9
-4 8 4 4.1 5
-4 -8 4 6.2 4.9
4 -8 -4 8.4 7.4
-4 -8 4 -1 4.2
-4 8 3 0.9 4.5
-4 -8 3 1.6 4.3
4 -8 -3 11.8 6.5
-4 -8 3 7.5 4.7
-4 8 2 -5 3.7
4 -8 -2 6.6 5.3
-4 -8 2 0.5 4
-4 -8 2 0.4 4.7
-4 8 1 17.5 5.1
-4 -8 1 12.3 6.2
4 -8 -1 14.2 6.5
-4 -8 1 16.9 6.1
4 8 0 10.1 4.3
-4 8 0 10 3.8
4 -8 0 6.2 4.2
-4 -8 0 12 6.6
4 -8 0 8.9 5.5
4 8 1 7.2 4.7
-4 -8 -1 0 6.1
4 -8 1 6.6 5.7
4 -8 1 1.5 3.9
4 8 2 6.4 6.9
-4 -8 -2 -10 4.6
4 -8 2 -4.5 5
4 -8 2 -3.4 3.3
-4 -8 -2 8.7 7.3
4 8 3 11.8 5.5
-4 -8 -3 11.7 6.6
4 -8 3 7.2 6
-4 -8 -3 3.4 7.3
4 -8 3 10.8 4.3
-4 -8 -4 31.9 10.6
4 -8 4 30.1 8.4
4 -8 4 36.9 5.8
4 -8 5 25.1 4.8
-4 -8 -5 20.3 8.7
4 -8 5 41.5 9.5
4 -8 5 34.1 5.5
4 -8 6 16.4 4.8
4 -8 6 23.4 8.7
4 -8 6 22.7 4.1
-4 -8 -6 32.7 10.6
-4 -8 -7 21.6 10.1
4 -8 7 17.2 4.1
4 -8 7 22.7 5.4
4 -8 7 11.4 8.7
4 -8 8 4.4 6.6
4 -8 8 5.5 3.7
-4 -8 -8 7 8.7
4 -8 9 27 9.3
4 -8 9 16 7.5
-4 -8 -9 -0.9 10.3
-4 -9 9 1.3 4.2
-4 -9 9 -0.9 6.3
-4 -9 9 -2.4 5.5
-4 -9 8 -2.1 6.1
-4 -9 8 15.4 6.1
4 -9 -8 25.2 11.9
-4 -9 8 27.9 8.3
-4 -9 7 6.5 7
4 -9 -7 10.2 8.9
-4 -9 7 -2.2 4.8
-4 -9 7 -0.5 4
4 -9 -6 6.9 7
-4 -9 6 6 4.8
-4 -9 6 3.6 5.5
4 -9 -5 -4.7 7.6
-4 -9 5 11.5 5.8
-4 -9 5 18.4 6.9
-4 9 4 3.7 5.2
4 -9 -4 7.8 7.9
-4 -9 4 -3.3 4.3
-4 -9 4 2.9 5
-4 9 3 14.9 6.2
-4 -9 3 22.8 6.8
4 -9 -3 11.5 8.1
-4 -9 3 4.4 5.3
-4 9 2 -0.7 4.5
-4 -9 2 -2.6 3.8
4 -9 -2 -1.9 5.4
-4 -9 2 8.3 5.5
-4 9 1 1.2 4
-4 -9 1 2.1 5.1
-4 -9 1 1 4.9
4 -9 -1 5.6 5.3
-4 9 0 23 5.1
4 -9 0 13.1 6
4 -9 0 15.8 7
-4 -9 0 21.9 8.2
4 9 1 54.99 8.4
4 -9 1 41.1 7.8
4 -9 1 53.19 10.2
-4 -9 -1 40.8 11.1
4 9 2 92.59 10.1
4 -9 2 91.39 12.9
-4 -9 -2 122.99 15.9
-4 -9 -2 100.29 15.6
4 -9 2 103.09 10.5
4 -9 3 -7.8 3.3
-4 -9 -3 3.5 7.5
4 -9 3 -5.8 5
4 -9 4 74.69 12.3
-4 -9 -4 84.79 15.5
4 -9 4 87.99 8.1
-4 -9 -5 -4.2 7.2
4 -9 5 8.2 4.2
4 -9 5 0.6 3.2
4 -9 6 15.6 4.4
4 -9 6 18.4 4.2
-4 -9 -6 7.6 9.7
4 -9 6 10.7 6.6
4 -9 7 10 8.1
4 -9 7 13.3 4.3
4 -9 7 7.8 4.5
-4 -9 -7 21.6 11.2
4 -9 8 -4.9 3.3
-4 -9 -8 7.6 8.9
4 -9 8 -10.1 4.2
4 -9 8 -4 7
-4 -10 8 -9.5 6.7
-4 -10 8 6.3 7.7
4 -10 -8 18 18.1
-4 -10 8 13.7 6.6
-4 -10 7 4.4 6.2
-4 -10 7 24.8 8.6
-4 -10 7 4.2 6.3
4 -10 -7 1.5 7.1
-4 -10 6 20.8 6.8
4 -10 -6 20.5 11.2
-4 -10 6 39.5 9.1
-4 -10 5 -2.1 5.1
4 -10 -5 10.3 8.6
-4 -10 5 -4.3 5.3
-4 -10 4 7.9 6.1
4 -10 -4 3.7 7.1
-4 -10 4 4.3 5.8
-4 10 3 18.1 7.4
4 -10 -3 42 10.9
-4 -10 3 24.2 7.8
-4 -10 3 20 7.4
-4 10 2 6 4.7
-4 -10 2 -0.2 5.1
4 -10 -2 -0.7 6.8
-4 -10 2 0.6 6.1
-4 10 1 3.6 3.9
-4 -10 1 3.9 6.1
4 -10 -1 -1.4 5.1
4 -10 -1 2.6 5.9
-4 -10 1 -0.2 5.3
-4 10 0 29.2 5.6
-4 -10 0 24.9 8.9
4 -10 0 42.5 9.6
4 -10 0 21.6 7.4
4 -10 1 29.5 8.4
-4 -10 -1 19.2 9
4 -10 1 25 7.4
-4 -10 -2 19.9 10.2
4 -10 2 3.5 6
4 -10 2 8.1 4.7
4 -10 3 14.2 7.7
-4 -10 -3 -5.4 7.3
4 -10 4 49 8.5
4 -10 4 50.89 10.9
-4 -10 -4 59.29 13.9
4 -10 5 -0.3 6.2
-4 -10 -5 0.3 8.5
4 -10 5 -4.1 3.8
-4 -10 -6 17.8 11.1
4 -10 6 11.9 4.2
4 -10 6 5.2 5.2
4 -10 6 17.1 8.9
-4 -10 -7 4.8 11.6
4 -10 7 -5.3 6.9
4 -10 7 -1.2 4.4
4 -10 7 -3.4 3.3
-4 -11 6 11.2 6.9
-4 -11 6 7.2 6.9
4 -11 -6 1.3 8.5
-4 -11 5 18.3 7
4 -11 -5 7.6 7.9
-4 -11 5 -5.2 6.2
-4 -11 4 -10.2 7
4 -11 -4 13.8 9.2
-4 -11 4 3.6 6.4
-4 -11 3 -6.5 4.8
-4 -11 3 8.4 7.3
4 -11 -3 4.7 6.6
4 -11 -2 17.9 8.4
4 -11 -2 20.8 8.8
-4 -11 2 26.1 8.5
-4 -11 2 1.5 7.3
-4 11 1 10.2 5.3
-4 -11 1 14.1 7.6
4 -11 -1 10.7 7.4
4 -11 -1 15.8 7.1
-4 -11 1 5.7 7.6
-4 -11 0 52.49 13.3
4 -11 0 63.09 12.2
4 -11 0 65.99 11.5
-4 -11 0 42.9 10.4
-4 -11 -1 28.6 10.7
4 -11 1 10 6.3
4 -11 1 10.4 8.1
4 -11 2 3.2 5
-4 -11 -2 7.4 8.2
4 -11 2 -0.2 6.6
4 -11 3 -4.2 6.2
4 -11 3 4.9 6
-4 -11 -3 11.1 9.8
-4 -11 -4 3.2 8.7
4 -11 4 -7.8 5.8
-4 -11 -5 17.1 10.6
4 -11 5 6.8 6.5
4 -11 5 3.7 5
-4 -12 3 2.6 7.4
4 -12 -3 7.1 10.5
-4 -12 3 5.9 8
-4 -12 2 -11.5 6.8
-4 -12 2 5 7
4 -12 -2 13 8.7
4 -12 -2 17.1 8.9
4 -12 -1 -5.1 7.2
-4 -12 1 4.3 7
-4 -12 1 10.6 8.7
4 -12 -1 12.3 8.9
-4 -12 0 4.8 7.5
-4 -12 0 -14.3 7
4 -12 0 22.9 8.2
4 -12 0 -7.6 5.9
4 -12 1 -14.3 6
-4 -12 -1 -1.1 7.8
4 -12 1 11.4 7.3
-4 -12 -1 5.5 7.2
4 -12 2 29.2 10.6
-4 -12 -2 -6 8.7
4 -12 2 4.9 8.6
-5 0 13 -7.5 5.9
-5 0 12 -8.1 5.4
5 0 -11 -1.2 5.6
-5 0 11 13.4 7.1
-5 0 10 88.49 13.5
5 0 -10 110.59 13.7
5 0 -10 74.89 13.1
-5 0 9 9.5 6.2
5 0 -9 -2.2 4.8
-5 0 9 2.7 5.8
5 0 -9 -1.4 4.8
5 0 -8 4.7 4.2
-5 0 8 23.4 7.7
-5 0 8 24.9 6.7
5 0 -8 11.2 7
5 0 -7 -0.6 3.7
-5 0 7 3.6 4.6
-5 0 7 3.1 4.1
5 0 -7 0.5 3.1
5 0 -6 8.5 4.7
5 0 -6 7.3 4.1
-5 0 6 26.7 6.9
-5 0 6 13.7 4.7
5 0 -5 3.6 3.1
-5 0 5 -6.7 3.2
-5 0 5 -1.6 3.2
5 0 -5 -3.5 3.2
5 0 -4 254.57 11
-5 0 4 263.57 11.6
5 0 -4 259.67 13.6
-5 0 4 284.97 14.9
5 0 -3 1 2.1
-5 0 3 -2.4 2.6
5 0 -3 -0.2 2.6
-5 0 2 348.67 13.6
5 0 -1 0.6 1.4
-5 0 0 6.8 2.1
5 0 0 6 2
-5 0 -1 -0.8 2.2
5 0 1 -0.2 2.6
5 0 1 2.8 2.1
-5 0 -1 4 2.8
5 0 2 5829.62 134.89
-5 0 -2 6060.09 135.89
5 0 3 0.2 2.5
-5 0 -3 0.2 2.8
5 0 3 -1.6 2.3
-5 0 -3 2.2 2.8
5 0 4 5.2 3.8
-5 0 -4 15 4.9
5 0 4 11.5 4.4
5 0 5 -0.3 3.4
-5 0 -5 -4.5 2.8
-5 0 -5 6.3 4.5
5 0 5 -0.9 3.8
-5 0 -6 87.49 9.8
-5 0 -6 79.99 10
5 0 6 83.59 9.3
5 0 6 63.89 9.1
5 0 7 -0.5 4.2
-5 0 -7 -2.8 3.4
5 0 7 3.4 4.2
-5 0 -7 1.9 4.3
5 0 8 -0.5 4.7
-5 0 -8 -2.7 4.2
5 0 8 -0.7 4.6
-5 0 -8 6.1 5.5
-5 0 -9 3 6.5
5 0 9 11.3 6.3
-5 0 -9 -2.9 5.5
-5 0 -10 64.19 12.5
5 0 10 35.8 9.9
5 0 10 45.9 10.9
5 0 11 2.6 7
-5 0 -11 -7 5.2
5 0 12 4 7.4
-5 0 -12 7 7.7
5 -1 -13 9.4 8.4
-5 -1 13 -1.8 7
5 -1 -12 17.5 9
-5 -1 12 18.3 8.5
5 1 -11 12.4 8
-5 -1 11 17 8.1
5 -1 -11 11.7 7.2
-5 1 10 -1.3 5.3
-5 -1 10 -7.5 5
5 -1 -10 0.2 5.3
-5 -1 10 6.9 7.5
-5 1 9 13.4 7.5
-5 1 9 0.5 4.9
5 1 -9 -1.8 3.8
5 -1 -9 3.6 6.5
5 -1 -9 6.9 5
-5 -1 9 3.4 5.6
-5 -1 9 15.4 7.3
-5 1 8 24.8 8.2
-5 1 8 25.5 7.5
5 1 -8 23.6 5.6
-5 -1 8 24.7 6.5
-5 -1 8 18.4 7.7
5 -1 -8 11.9 5.2
5 -1 -8 14.8 6.6
5 1 -7 49.9 6.8
-5 1 7 58.79 9.1
-5 1 7 51.29 9.8
5 -1 -7 60.49 8.7
5 -1 -7 45.9 9.4
-5 -1 7 49.3 9.5
-5 -1 7 43.9 8.7
-5 1 6 39.9 8.5
-5 1 6 24.3 5.9
5 1 -6 29.5 5.2
-5 -1 6 31.8 5.8
5 -1 -6 31.6 7.6
-5 -1 6 29.9 7
5 -1 -6 32.9 6
5 1 -5 38.5 5
-5 1 5 39.7 7.7
-5 -1 5 28.2 4.9
5 -1 -5 26.9 5.2
-5 -1 5 31.2 7
5 -1 -5 25.1 6.5
5 1 -4 455.65 14.4
5 -1 -4 433.46 17
5 -1 -4 456.15 19.5
-5 -1 4 444.86 15
-5 -1 4 425.56 18.5
-5 1 3 220.78 12.2
5 1 -3 221.68 7.7
-5 -1 3 223.38 8.2
5 -1 -3 226.08 11.9
5 -1 -3 221.88 10.5
5 1 -2 495.55 12.1
-5 1 2 501.45 17.8
-5 -1 2 471.15 12.2
5 -1 -2 480.45 17.1
-5 1 1 248.38 10.2
5 -1 -1 271.67 10.2
-5 1 0 381.26 12.5
5 1 0 401.26 11.4
-5 -1 0 391.86 11.1
-5 -1 0 405.36 11.9
5 -1 0 392.36 12.6
5 1 1 122.89 6.7
-5 1 -1 123.99 7.6
-5 1 -1 135.19 4.8
5 1 1 139.49 7.1
5 -1 1 129.59 7.6
5 -1 1 126.29 4.1
-5 -1 -1 134.29 6.8
-5 -1 -1 135.09 7.4
5 1 2 188.58 9.1
-5 1 -2 162.88 8.8
5 1 2 185.18 9.2
-5 1 -2 171.08 7.3
-5 -1 -2 194.48 9
-5 -1 -2 170.18 9.4
5 -1 2 178.68 9.2
5 -1 2 170.88 6.8
5 1 3 201.28 10.8
-5 1 -3 191.58 9.5
-5 1 -3 195.08 10.4
5 1 3 221.88 11
5 -1 3 205.38 10.5
-5 -1 -3 201.78 10.3
5 -1 3 194.88 9.2
-5 -1 -3 226.68 12.1
5 1 4 409.26 17.7
5 1 4 386.86 17.2
-5 1 -4 409.36 19.8
-5 1 -4 405.56 16.4
5 -1 4 384.16 15.8
-5 -1 -4 396.56 18.7
-5 -1 -4 393.36 16.9
5 -1 4 391.86 16.7
-5 1 -5 752.12 27.1
5 1 5 797.42 28.9
5 1 5 804.22 28.9
-5 1 -5 756.02 26.9
-5 -1 -5 770.62 29.9
5 -1 5 741.93 26.6
-5 -1 -5 742.63 26.8
5 -1 5 768.22 27.1
5 1 6 21.8 6.2
-5 1 -6 12.6 4.8
5 1 6 12.1 5.2
-5 1 -6 2.5 3.9
-5 -1 -6 11.9 5.2
-5 -1 -6 6 5.3
5 -1 6 9.1 5
5 -1 6 10.5 5.1
-5 1 -7 16.3 5.8
5 1 7 17.4 5.8
-5 1 -7 5.8 4.5
5 1 7 18.1 6.5
-5 -1 -7 7.6 5.3
-5 -1 -7 21 7.3
5 -1 7 13.1 5.7
5 -1 7 13 5.6
-5 1 -8 -2.6 4.5
5 1 8 6.7 6.4
5 1 8 -4.4 4.4
-5 -1 -8 13 6.3
-5 -1 -8 0.5 4.8
5 -1 8 3.1 4.7
5 -1 8 -6.1 4.4
5 1 9 2.7 5.6
-5 1 -9 -2.2 5.2
5 1 9 1.7 5.2
-5 1 -9 -3.6 5.2
5 -1 9 -4.1 6
-5 -1 -9 -1.4 5.7
5 -1 9 -7.1 4.5
-5 1 -10 9.4 6.6
5 1 10 15.5 7.6
-5 -1 -10 -4.6 6
5 -1 10 -0.1 6.8
5 -1 10 14 7.2
-5 1 -11 1.4 7.1
5 1 11 2.2 6.9
5 -1 11 1.5 6.6
-5 -1 -11 9.5 6.7
5 1 12 8.6 7.6
-5 1 -12 7.1 6
-5 -1 -12 8.2 7.9
5 -1 12 -7.8 6.4
-5 -2 13 0.6 7.5
5 -2 -13 5.8 7.2
-5 -2 12 28.9 10
5 -2 -12 26.5 11.6
5 2 -11 13.3 7.1
5 -2 -11 1.3 5.8
-5 -2 11 -2.4 5.9
5 2 -10 126.69 12.4
-5 -2 10 112.39 12.5
5 -2 -10 111.29 16.9
-5 -2 10 137.69 15.9
5 -2 -10 99.19 15.2
5 2 -9 55.29 9.1
5 -2 -9 76.09 11
-5 -2 9 52.09 9.3
5 -2 -9 70.49 13.5
-5 -2 9 37.3 15.4
-5 2 8 248.38 22.6
5 2 -8 227.68 13.8
-5 -2 8 233.88 14.4
5 -2 -8 224.38 15.4
-5 -2 8 234.78 18.2
5 -2 -8 237.38 18.6
5 2 -7 15.8 4.5
-5 2 7 9.9 6
-5 -2 7 14.4 4.5
-5 -2 7 5.4 5.2
5 -2 -7 5.2 4.3
5 -2 -7 7.5 5.5
-5 2 6 48.6 9.3
5 2 -6 60.19 6.2
5 -2 -6 50.19 8
5 -2 -6 75.39 11
-5 -2 6 59.29 9.1
-5 -2 6 69.89 6.9
5 2 -5 18.1 4
-5 2 5 21.9 6.5
-5 -2 5 29.7 4.7
5 -2 -5 26.3 5.9
-5 -2 5 25.6 6.3
5 -2 -5 29.2 7.3
5 2 -4 2.7 2.4
5 -2 -4 -1.8 3.5
-5 -2 4 3.4 2.2
5 -2 -4 2.2 3.3
-5 2 3 26.5 5.7
5 2 -3 29.3 3.2
5 -2 -3 27.3 5.5
-5 -2 3 19.5 2.6
-5 2 2 1952.1 52.39
-5 -2 2 2032.1 46.2
5 -2 -2 2045.2 52.79
-5 2 1 655.53 20.2
5 -2 -1 686.43 20.5
-5 2 0 523.65 14.8
5 2 0 536.95 15.7
5 -2 0 528.15 17.1
-5 -2 0 541.65 15.9
-5 -2 0 552.14 16.7
5 -2 0 523.35 14.7
5 2 1 -3 2.1
-5 2 -1 1.3 2.5
5 2 1 1 2.5
-5 -2 -1 -4 2.4
5 -2 1 -1.2 2.5
-5 -2 -1 -0.7 2.2
5 2 2 205.08 10.6
-5 2 -2 215.78 10.6
5 2 2 208.48 10.3
-5 -2 -2 202.68 11
5 -2 2 200.38 6.3
5 -2 2 233.78 10.8
-5 -2 -2 196.18 10
5 2 3 91.59 8.2
-5 2 -3 100.59 8.2
5 2 3 93.09 8.5
-5 2 -3 103.59 5.7
5 -2 3 101.69 5.9
5 -2 3 100.69 8
-5 -2 -3 99.99 8
-5 -2 -3 116.69 9.5
5 2 4 773.42 27.8
5 2 4 774.62 27.8
-5 2 -4 756.52 26.2
-5 2 -4 754.12 23.5
-5 -2 -4 765.32 29.2
5 -2 4 760.62 23.8
-5 -2 -4 776.02 26.9
5 -2 4 810.92 26.6
-5 2 -5 3 3.1
-5 2 -5 7 4.3
5 2 5 6.3 4.7
5 2 5 -4.1 3.6
5 -2 5 6.1 3.6
-5 -2 -5 3.1 4.5
5 -2 5 4 3.8
-5 -2 -5 0.8 3.3
-5 2 -6 35.6 7.1
-5 2 -6 39.6 6.7
5 2 6 43.8 8.9
5 2 6 33.6 7.5
5 -2 6 47.1 7.5
-5 -2 -6 44.2 9.5
5 -2 6 47.3 7.7
-5 -2 -6 36.4 7.2
-5 2 -7 37.2 8
-5 2 -7 43.1 8.9
5 2 7 42.8 9.5
5 2 7 51.79 9.2
5 -2 7 48.9 8.8
-5 -2 -7 37.9 9.6
-5 -2 -7 40.8 8
5 -2 7 39.3 7.8
5 2 8 -3.5 5.2
-5 2 -8 4.1 6
5 2 8 7 6.1
-5 2 -8 0.4 4.1
5 -2 8 7.2 5.1
-5 -2 -8 -5.8 5.1
5 -2 8 -5.2 4.1
-5 -2 -8 5.6 5.4
-5 2 -9 21 7
5 2 9 27.1 9.1
-5 2 -9 9.5 6.7
5 2 9 21.2 8.3
5 -2 9 25.4 8
5 -2 9 19.2 7.9
-5 -2 -9 23.5 9.6
5 2 10 6.2 7.6
-5 2 -10 -0.2 5.7
5 -2 10 -10.6 5.5
-5 -2 -10 -3.4 4.8
5 -2 10 5 5.7
-5 2 -11 16.4 7.3
5 2 11 12.9 7.4
5 -2 11 -2.2 5.1
5 -2 11 11 9
-5 -2 -11 7.9 8.6
5 2 12 -4.2 8.9
5 -2 12 5.1 6.9
-5 -2 -12 7.9 8.4
-5 -3 13 -0.9 7.4
5 -3 -13 -2.8 6.7
5 -3 -12 -5.1 7
5 3 -11 2.5 6.8
-5 -3 11 12.8 6.6
5 -3 -11 10.7 7.7
5 3 -10 11.8 5.8
5 -3 -10 10 7
-5 -3 10 15.4 6.6
-5 -3 10 10.8 7.5
5 3 -9 -1.2 4.7
-5 -3 9 6.8 5.1
5 -3 -9 3.1 6.9
5 -3 -9 -2.3 5.2
-5 3 8 -5.1 4.7
5 3 -8 -2.8 4.1
-5 -3 8 6.9 4.2
-5 -3 8 2.3 5.7
5 -3 -8 2.9 5.8
5 3 -7 207.68 12.2
-5 3 7 198.78 16.9
-5 -3 7 222.88 16.2
-5 -3 7 206.38 11.9
5 -3 -7 200.28 14.7
5 -3 -7 219.08 17.8
-5 3 6 113.39 12.3
5 3 -6 116.09 8.4
5 -3 -6 102.19 10.4
5 -3 -6 108.09 12.8
-5 -3 6 126.79 8.4
-5 -3 6 116.09 11
-5 3 5 331.87 19.4
5 3 -5 356.06 14
5 -3 -5 377.36 18.5
-5 -3 5 358.76 13.6
-5 -3 5 365.06 17.4
5 -3 -5 317.47 19.2
5 3 -4 0.1 2.2
-5 3 4 0.1 3.9
-5 -3 4 2.2 2.4
5 -3 -4 4.8 4.7
-5 3 3 14 4.6
5 3 -3 4.7 2.3
5 -3 -3 4.6 4.6
-5 -3 3 1.1 2.1
-5 3 2 260.27 13.1
-5 -3 2 262.87 9.2
5 -3 -2 277.97 13.5
-5 3 1 92.89 6.6
-5 -3 1 89.19 5.9
5 -3 -1 89.29 6.9
5 3 0 0.3 1.7
-5 3 0 1.4 1.6
-5 -3 0 1 2.3
5 -3 0 1.5 1.8
5 -3 0 2.2 2.6
5 3 1 314.07 12.5
-5 3 -1 312.57 13.3
-5 -3 -1 319.17 13.2
-5 -3 -1 298.57 13.4
5 -3 1 300.57 12.9
5 -3 1 298.67 8.8
-5 3 -2 182.18 10
5 3 2 195.58 10.4
5 -3 2 158.38 5.1
5 -3 2 176.38 10.2
-5 -3 -2 167.38 10.3
-5 -3 -2 176.58 11.2
5 -3 2 168.28 4.7
5 3 3 884.21 30.8
5 3 3 870.51 30
-5 3 -3 931.91 30
5 -3 3 845.22 23.5
-5 -3 -3 923.61 32.2
-5 -3 -3 906.31 30
5 -3 3 1041 30.2
-5 3 -4 349.27 16.5
5 3 4 356.96 18.3
5 3 4 342.37 17.5
-5 -3 -4 332.17 16.8
-5 -3 -4 354.66 19.3
5 -3 4 347.67 13.1
5 3 5 49.1 8.6
-5 3 -5 48.4 7.7
5 3 5 61.49 9.7
5 -3 5 45.8 6.1
-5 -3 -5 51.49 8.4
-5 -3 -5 58.89 10.7
5 -3 5 44.8 7.2
5 3 6 32.4 7.8
-5 3 -6 16 6
5 3 6 20.4 6.8
5 -3 6 22.4 5.6
5 -3 6 22.3 6.4
-5 -3 -6 11.7 5.4
-5 -3 -6 37.8 9.3
5 3 7 104.49 12.8
-5 3 -7 108.59 12.2
5 3 7 106.59 14.3
5 -3 7 105.69 10.2
5 -3 7 85.79 10.1
-5 -3 -7 101.49 14.7
-5 -3 -7 97.79 14.8
5 3 8 77.09 12.5
5 3 8 92.39 14.2
-5 3 -8 106.19 14.1
5 -3 8 88.09 10.2
-5 -3 -8 105.39 13.5
5 -3 8 99.19 12.9
-5 -3 -8 100.29 15.9
-5 3 -9 0.5 5.8
5 3 9 0 6.6
5 -3 9 1.1 5.3
5 -3 9 1.4 5.2
5 3 10 0.1 6.2
5 -3 10 13.6 6.6
5 -3 10 9 7.4
-5 -3 -10 4.4 7.5
5 3 11 -1.5 5.9
5 -3 11 3.9 7
-5 -3 -11 -7.4 6.2
5 3 12 3.1 7.5
-5 -3 -12 8.1 8.7
5 -3 12 -8.6 6.3
5 -4 -12 7.9 9.4
5 4 -11 13.9 7.6
5 -4 -11 35.6 11.2
-5 -4 11 25.4 7.6
5 4 -10 20.8 6.9
-5 -4 10 20 7
5 -4 -10 10.9 7.9
-5 -4 10 40.2 10.8
5 4 -9 236.08 15.4
-5 -4 9 239.48 15.4
5 -4 -9 255.77 22.8
-5 4 8 27.6 9.2
5 4 -8 2.7 5.4
5 -4 -8 18.3 7.8
5 -4 -8 26.3 9.6
-5 -4 8 27.5 8.3
-5 -4 8 18.5 5.5
-5 4 7 129.89 19.3
5 4 -7 121.59 10.1
5 -4 -7 158.68 16.4
5 -4 -7 133.09 13.1
-5 -4 7 133.09 12.2
-5 -4 7 137.69 11.5
5 4 -6 24.9 5.2
-5 4 6 17.5 6.9
-5 -4 6 27.7 5.2
5 -4 -6 24.4 7.2
5 -4 -6 14.9 7
-5 -4 6 19.4 6.1
-5 4 5 174.78 14.4
5 4 -5 180.98 9.8
5 -4 -5 184.68 14.2
5 -4 -5 185.58 15.1
-5 -4 5 170.88 9.6
5 4 -4 118.09 7.3
-5 4 4 121.69 11.2
5 -4 -4 91.49 10.5
-5 -4 4 117.59 7.3
-5 4 3 1335.27 42.4
-5 -4 3 1322.77 35.1
5 -4 -3 1312.67 42.2
-5 4 2 397.36 17.3
-5 -4 2 401.76 13.8
5 -4 -2 391.16 17.9
-5 -4 2 368.06 13.8
-5 4 1 212.58 10.6
-5 -4 1 218.48 10.7
5 -4 -1 208.88 11.4
-5 4 0 -2 1.8
5 4 0 3.1 2.4
-5 -4 0 2.4 3.3
5 -4 0 -0.3 3.2
5 -4 0 2.8 2.5
5 4 1 116.29 9.6
-5 4 -1 130.19 5
-5 -4 -1 134.69 9.6
5 -4 1 129.19 6.5
5 -4 1 126.79 9.1
-5 -4 -1 135.89 10.1
5 4 2 115.99 8.7
-5 4 -2 113.09 9
-5 -4 -2 129.49 11.1
5 -4 2 114.09 5
-5 -4 -2 107.89 9.4
5 -4 2 118.29 9.3
5 4 3 97.19 9
-5 4 -3 107.09 8.7
-5 -4 -3 113.39 11.3
5 -4 3 93.29 5.1
-5 -4 -3 92.99 9.3
5 -4 3 101.29 4.2
5 4 4 60.79 9.1
-5 4 -4 66.89 7.6
5 -4 4 81.59 8.5
5 -4 4 60.59 5
-5 -4 -4 79.49 10.4
-5 -4 -4 66.79 10.8
5 4 5 1 4
-5 4 -5 -2.3 3.5
-5 -4 -5 4.8 6.1
-5 -4 -5 5 4.6
5 -4 5 1.3 3.7
5 -4 5 8.1 3.3
-5 4 -6 3.9 4.5
5 4 6 4.6 5.2
5 4 6 4.9 5.1
5 -4 6 -2.1 4
-5 -4 -6 6.3 4.6
-5 -4 -6 -5.5 4.7
5 -4 6 3.1 3.2
5 4 7 -1.3 5
-5 4 -7 2.3 5.1
5 4 7 8 5.8
-5 -4 -7 0.3 6.3
-5 -4 -7 -1.2 4.6
5 -4 7 -1.2 4.1
5 4 8 3.4 6.3
-5 4 -8 -1.8 5.7
5 -4 8 5 5.3
5 -4 8 11.1 6.7
-5 -4 -8 15.1 9
5 4 9 9.1 7.3
5 -4 9 -5.3 4.4
5 -4 9 4.7 5.6
-5 -4 -9 1 6.5
5 -4 10 -1.5 6.7
5 -4 10 -7 5.6
-5 -4 -10 -4.8 6.1
5 -4 11 12.8 6.8
-5 -4 -11 9.6 9.2
5 -4 11 21.1 8.3
-5 -4 -12 5.5 14
5 -4 12 4.5 7.2
5 -5 -12 9.3 7.7
-5 -5 12 -1.5 6.5
5 5 -11 20.6 8.1
5 -5 -11 19.2 10.2
-5 -5 11 11.7 6.2
5 5 -10 69.59 11.7
-5 -5 10 49.4 11.2
-5 -5 10 60.29 9.9
5 -5 -10 64.69 14.4
5 5 -9 7.4 5.1
-5 -5 9 2.7 5.2
5 -5 -9 22.3 9.5
-5 -5 9 2.6 6.8
5 5 -8 9.4 5.3
-5 -5 8 18.8 7.4
5 -5 -8 56.19 13.1
-5 -5 8 23.8 5.9
5 5 -7 6.7 4.8
-5 5 7 9.7 6.8
5 -5 -7 4.6 6.6
-5 -5 7 5 4.8
5 -5 -7 3.4 5.7
-5 -5 7 8.9 4.5
5 5 -6 48 6.8
-5 5 6 50.69 9.9
5 -5 -6 44 10.7
-5 -5 6 59.99 6.9
5 -5 -6 60.09 10.6
-5 5 5 49 9.7
5 5 -5 50.99 6.6
5 -5 -5 64.69 10.2
-5 -5 5 58.69 6.5
5 -5 -5 55.09 10.8
-5 5 4 3.2 4.3
-5 -5 4 2.5 3
5 -5 -4 5.5 5
-5 5 3 37 7.4
5 -5 -3 22.1 7.7
-5 -5 3 41.6 5.4
-5 -5 3 39 5.5
-5 5 2 38.7 7.5
-5 -5 2 49 6
-5 -5 2 44.2 6
5 -5 -2 44.7 7.5
-5 5 1 11 4
-5 -5 1 11.8 4.1
5 -5 -1 8.3 4.4
-5 5 0 1.5 2.2
5 5 0 1.2 2.6
5 -5 0 1.5 3.4
-5 -5 0 1.6 3.4
5 -5 0 -1.3 2.6
-5 5 -1 7.3 2.1
5 5 1 11.5 3.8
-5 -5 -1 8.4 4.9
5 -5 1 4.4 3.9
5 -5 1 8.6 3
5 5 2 22.2 5.2
5 -5 2 26.4 3.4
-5 -5 -2 15.3 5.4
5 -5 2 31.4 6.2
-5 -5 -2 25.6 6.5
5 5 3 161.68 11.4
-5 5 -3 134.89 10.8
-5 -5 -3 141.79 11.6
-5 -5 -3 140.09 13.1
5 -5 3 146.59 6.1
5 -5 3 146.39 11.1
5 5 4 316.57 17.9
-5 5 -4 323.87 16.9
5 -5 4 329.97 10.2
-5 -5 -4 308.57 18.2
5 -5 4 333.77 17.3
-5 -5 -4 338.87 20.8
5 -5 4 325.17 12.1
5 5 5 -4.8 3.5
-5 5 -5 5.1 4.9
-5 -5 -5 0 4.5
-5 -5 -5 5.8 6.6
5 -5 5 -1.2 3.6
5 -5 5 -0.9 2.5
5 5 6 87.39 12.7
-5 5 -6 59.69 9.3
-5 -5 -6 91.39 12.6
5 -5 6 72.69 10.8
5 -5 6 76.79 7.6
-5 -5 -6 93.69 15.2
-5 5 -7 87.99 12.2
5 5 7 108.39 21.7
-5 -5 -7 78.69 14.7
5 -5 7 83.29 8.9
5 -5 7 103.49 11.9
-5 -5 -7 90.89 14.8
-5 5 -8 28.3 8.4
5 -5 8 19.1 6.4
-5 -5 -8 35 11.5
5 -5 8 47.4 9.7
-5 -5 -9 -6.4 6.3
5 -5 9 3.4 4.8
-5 -5 -10 18.4 10
5 -5 10 19.9 6.8
5 -5 10 17.3 7.2
-5 -5 -11 12.1 10.1
5 -5 11 16.3 8.4
5 6 -11 -6.4 6.1
-5 -6 11 4.2 5.8
5 -6 -11 12.5 8.8
5 6 -10 7.9 6.4
5 -6 -10 13.2 9.6
-5 -6 10 12.3 6.6
-5 -6 10 2.9 7.9
5 6 -9 -8.5 4.7
-5 -6 9 -0.9 4.1
-5 -6 9 -5.6 4.4
5 -6 -9 0.8 6.8
5 6 -8 40.7 7.8
-5 -6 8 50.79 9.4
5 -6 -8 50.29 12.7
-5 -6 8 53.29 8.3
5 6 -7 7.7 4.6
5 -6 -7 14.8 8.6
-5 -6 7 6.9 4.6
-5 -6 7 14.3 6.3
-5 6 6 17.3 7.5
5 -6 -6 16.1 7
5 -6 -6 -0.1 5.4
-5 -6 6 6.8 4.5
-5 6 5 3.7 5
5 -6 -5 8.2 6.3
5 -6 -5 4.5 5.6
-5 -6 5 1.6 3.3
-5 6 4 9.3 5.8
-5 -6 4 3.4 3.6
5 -6 -4 15.7 6.9
-5 -6 4 12.3 4.1
-5 6 3 72.89 8.8
5 -6 -3 71.99 10.7
-5 -6 3 73.99 7.2
-5 -6 3 61.49 7.2
-5 6 2 -1.2 3.3
5 -6 -2 -1.1 4.2
-5 -6 2 1.8 3
-5 -6 2 5.9 4.1
-5 6 1 85.89 7.4
5 -6 -1 100.69 9.4
-5 -6 1 86.19 8.9
5 6 0 89.29 7.1
-5 6 0 90.69 6.5
5 -6 0 87.49 8.2
5 -6 0 97.89 9.6
-5 -6 0 90.39 9.2
5 6 1 45.9 6.6
-5 6 -1 39.1 3.8
5 -6 1 40.5 5.8
5 -6 1 55.89 8.2
-5 -6 -1 47.1 8.6
5 6 2 82.19 8.4
-5 -6 -2 97.79 10.1
5 -6 2 79.59 6.3
-5 -6 -2 78.39 11.2
5 -6 2 100.59 9.5
5 6 3 -1.5 3.7
-5 -6 -3 0 4.7
-5 -6 -3 -2.7 3.5
5 -6 3 5 2.4
5 -6 3 1 3.5
5 6 4 13.6 5.7
-5 6 -4 14.7 5.9
5 -6 4 14.4 3.1
-5 -6 -4 12 5.9
5 -6 4 10.1 2.7
5 -6 4 21 6.4
-5 -6 -4 14.3 7.2
5 6 5 -1.7 4.6
-5 6 -5 0.9 4.9
-5 -6 -5 3.6 5.5
5 -6 5 4.8 2.5
-5 -6 -5 4.7 6.5
5 -6 5 4.5 6
5 -6 5 8.2 3.2
5 6 6 87.49 13.7
-5 6 -6 91.49 14.5
5 -6 6 86.99 7.7
-5 -6 -6 84.59 12.4
-5 -6 -6 86.79 15.9
5 -6 6 102.69 13.1
-5 6 -7 30.3 8.2
-5 -6 -7 17.6 9.5
5 -6 7 19.7 8.2
5 -6 7 29.6 5.9
5 -6 8 16 5.9
-5 -6 -8 7.2 8.1
5 -6 8 15.4 7.3
5 -6 9 6 5.1
5 -6 9 7.7 7.3
-5 -6 -9 13.9 9.2
-5 -6 -10 22.6 10.2
5 -6 10 17.2 7.9
5 -6 11 7.1 7.8
-5 -6 -11 -13 6.5
5 -6 11 -4.8 6.3
5 -7 -11 14.9 9.8
-5 -7 11 6 5.6
5 7 -10 12.9 7.2
-5 -7 10 -1.7 4.3
5 -7 -10 6.2 8.6
5 7 -9 -4 5.7
-5 -7 9 7 5.2
5 -7 -9 -10.4 6.5
-5 -7 9 1 6.3
-5 -7 8 -2.7 4.1
-5 -7 8 -4.3 5
5 -7 -8 -1.8 6.4
-5 -7 7 -3.2 4.9
-5 -7 7 -1.5 3.9
5 -7 -7 0.2 6.3
-5 -7 6 2 3.4
5 -7 -6 1.7 6.8
-5 -7 6 -1.7 4
-5 7 5 -10.4 4
5 -7 -5 -3.9 5.3
-5 -7 5 1.7 4.3
-5 -7 5 4.2 4
-5 7 4 14.1 7
5 -7 -4 8.6 6.7
-5 -7 4 5.5 4.3
-5 -7 4 9.1 4.4
-5 7 3 7 5.2
-5 -7 3 3.5 4.3
-5 -7 3 13 4.5
5 -7 -3 12.7 6.5
-5 7 2 45.8 7.6
5 -7 -2 40.2 8.8
-5 -7 2 43 7.1
-5 -7 2 40 7.2
-5 7 1 27.4 5.2
5 -7 -1 20.7 7
-5 -7 1 15.4 5.9
-5 7 0 5.2 3.3
5 7 0 5.5 3.5
5 -7 0 10.5 4.6
5 -7 0 7.5 5.2
-5 -7 0 -2.8 3.9
5 7 1 21.2 5.1
5 -7 1 22.2 6.2
-5 -7 -1 21.7 7.1
5 -7 1 18.5 4.8
5 7 2 120.39 10.4
-5 -7 -2 113.49 13.1
5 -7 2 131.59 11.7
-5 -7 -2 135.99 13.4
5 -7 2 119.09 8.6
5 7 3 47.9 12.3
-5 -7 -3 60.69 12.2
-5 -7 -3 44.8 9.4
5 -7 3 55.19 9.8
5 -7 3 44.3 5.5
5 7 4 6.7 5.1
-5 -7 -4 8.9 6.3
5 -7 4 0.8 5.7
5 -7 4 3.7 2.8
-5 -7 -4 9.1 7
-5 7 -5 28.2 7.7
-5 -7 -5 14 8.9
5 -7 5 13.2 6.2
5 -7 5 17.5 3.4
5 -7 5 14.8 3.9
-5 -7 -5 14.8 7.8
-5 7 -6 35.2 9.2
5 -7 6 12.2 6.6
5 -7 6 36.4 5.5
5 -7 6 32.1 4.2
-5 -7 -6 36.6 11.2
-5 -7 -7 8.9 7.7
5 -7 7 11.8 3.2
5 -7 7 4.5 6.1
5 -7 7 5.1 3.9
-5 -7 -8 -2.7 6.8
5 -7 8 19.5 7.8
-5 -7 -9 0.2 8.5
5 -7 9 0.6 4.7
5 -7 9 -1.9 6.9
5 -7 10 1.8 5.7
5 -7 10 11.9 7
-5 -8 10 1.8 5.6
-5 -8 9 11.7 6.9
-5 -8 9 6.5 5.7
5 -8 -9 -0.3 8.8
-5 -8 8 -0.9 3.8
5 -8 -8 -1.3 6.7
-5 -8 8 4.3 6.5
-5 -8 8 -2.8 4.2
-5 -8 7 5.4 5.8
-5 -8 7 2.5 4
5 -8 -7 -1 6.2
-5 -8 7 -5.5 3.7
-5 -8 6 13.8 5.8
-5 -8 6 9.1 4.8
5 -8 -6 15.2 13.7
-5 8 5 91.69 14.5
-5 -8 5 89.49 10.1
5 -8 -5 94.09 15.3
-5 -8 5 70.39 9.4
-5 8 4 -4.4 5.5
-5 -8 4 -5.5 3.5
5 -8 -4 -3 6
-5 -8 4 -0.4 4
-5 8 3 67.59 10.6
-5 -8 3 50.49 8.3
-5 -8 3 38.5 7.8
5 -8 -3 48.8 9.9
-5 8 2 0.9 4.2
5 -8 -2 5.7 6.3
-5 -8 2 2.2 4.8
-5 -8 2 3.6 4.8
-5 8 1 8.4 4.2
-5 -8 1 9 5.5
5 -8 -1 2.2 4.4
-5 8 0 -1.1 2.7
5 8 0 6.5 3.7
5 -8 0 2.7 4.8
-5 -8 0 0.9 6.2
5 8 1 10.6 4.5
-5 -8 -1 0.6 5.8
5 -8 1 15.6 5.1
5 -8 1 14.6 6.6
5 8 2 0.3 4.2
5 -8 2 9.3 4.4
-5 -8 -2 26 9.3
5 -8 2 19.8 7.6
5 8 3 3.3 4.7
5 -8 3 4.8 5.6
5 -8 3 -2.6 3.1
-5 -8 -3 6.4 6.5
-5 -8 -3 2 5.5
5 -8 4 1.1 2.8
-5 -8 -4 14.7 7.9
5 -8 4 -2.1 5.4
5 -8 5 73.79 12
-5 -8 -5 85.39 15.9
5 -8 5 93.59 6.9
5 -8 5 82.99 6.6
-5 -8 -6 26.1 11.1
5 -8 6 9.2 8.1
5 -8 6 19.3 4.5
5 -8 6 13.8 3.8
5 -8 7 30.3 8.7
5 -8 7 46.8 6.3
-5 -8 -7 47.4 13
5 -8 7 50.09 5.4
5 -8 8 -0.5 2.9
-5 -8 -8 -1.6 6.8
5 -8 8 -1.9 3.7
5 -8 8 -4.8 6.5
-5 -8 -9 8.1 11.9
5 -8 9 13.2 7.6
5 -8 9 11.8 4
-5 -9 9 -5.1 4.2
5 -9 -9 -5.7 6
-5 -9 9 -5 5.5
-5 -9 8 -0.4 4.9
-5 -9 8 9 6
5 -9 -8 2.3 8
-5 -9 8 3.1 6.7
-5 -9 7 13.8 6.4
-5 -9 7 22.4 6.1
5 -9 -7 29.4 10.8
-5 -9 6 17.1 6.4
5 -9 -6 4.1 8.3
-5 -9 6 18.2 6.5
-5 -9 5 28.7 7.6
-5 -9 5 33.6 7.6
-5 9 4 7.3 5.9
-5 -9 4 4.1 4.9
5 -9 -4 -9.8 5.3
-5 -9 4 0.5 4.9
-5 9 3 -0.8 4.9
-5 -9 3 7.7 5.6
5 -9 -3 12 7.1
-5 -9 3 -1.4 4
-5 9 2 13.1 5.5
-5 -9 2 -5.6 3.7
-5 -9 2 -3.9 5.3
5 -9 -2 1.2 4.7
-5 9 1 7.5 4.1
5 -9 -1 -0.1 5.2
5 -9 -1 7.5 5.7
-5 -9 1 -2.3 5.9
-5 -9 1 1.7 4.9
-5 9 0 10.7 4.1
5 -9 0 16.1 7.1
5 -9 0 20.1 6.7
-5 -9 0 8 7.5
5 9 1 21.5 5.8
5 -9 1 17.8 7.6
5 -9 1 25.5 7.5
-5 -9 -1 19.3 8.6
5 9 2 9.5 5.4
-5 -9 -2 14.1 9.3
-5 -9 -2 11.3 7.8
5 -9 2 12.6 4.4
5 -9 2 12.4 7.2
5 -9 3 12.3 7.5
5 -9 3 21 5.1
-5 -9 -4 -3.7 6.7
5 -9 4 0.8 3.3
5 -9 5 4.1 3.2
5 -9 5 8.5 6.8
5 -9 5 -1.3 2.7
-5 -9 -5 2.3 7.3
5 -9 6 1.6 3
5 -9 6 -1 3.2
5 -9 6 4.3 7.3
-5 -9 -6 22.6 9.7
5 -9 7 15.5 3.9
-5 -9 -7 30.8 12.2
5 -9 7 19.9 3.9
5 -9 7 20.5 9.8
-5 -9 -8 -8.6 8.3
5 -9 8 -4.6 6.9
5 -9 8 0.1 2.8
5 -9 8 9.4 4.6
-5 -10 8 9.6 8.2
-5 -10 8 -0.7 6.5
-5 -10 8 12.4 7.1
5 -10 -8 11.5 9.8
-5 -10 7 -4.7 5.4
-5 -10 7 9.5 6.1
5 -10 -7 -12.5 8.1
-5 -10 6 7 5.6
-5 -10 6 -9.3 4.8
5 -10 -6 24.3 9.7
5 -10 -5 -3.9 6.9
-5 -10 5 2.5 5.3
-5 -10 5 -3.4 5.4
5 -10 -4 -0.9 8.3
-5 -10 4 5.3 6.4
-5 -10 4 -8.2 4.8
-5 10 3 41.8 8.8
-5 -10 3 15.4 6.6
-5 -10 3 24.2 8.6
5 -10 -3 35.5 10.9
-5 10 2 2.1 4.7
5 -10 -2 6.6 7.2
-5 -10 2 0.2 4.6
-5 -10 2 3.9 6.4
-5 10 1 34.4 6.9
5 -10 -1 47.3 10.3
-5 -10 1 46.4 10.8
5 -10 -1 53.99 11.6
-5 -10 1 43.4 9.7
-5 10 0 48.8 6.3
-5 -10 0 61.49 12.5
5 -10 0 47 9
5 -10 0 36.4 9.6
-5 -10 -1 34 10.8
5 -10 1 31.2 8.8
5 -10 1 28.5 7.1
5 -10 2 40.1 10.5
-5 -10 -2 31.6 10.4
5 -10 2 40.1 8.6
-5 -10 -3 15.3 8.9
5 -10 3 -5 5.6
5 -10 3 -0.6 3.4
5 -10 4 30.3 6.2
5 -10 4 14.4 7.7
-5 -10 -4 27.1 11.1
5 -10 5 -2.6 2.8
-5 -10 -5 -23.2 7.9
5 -10 5 -0.7 3.9
5 -10 5 -13.4 6.1
5 -10 6 4.9 3.6
-5 -10 -6 15.3 10.9
5 -10 6 12.8 3.6
5 -10 6 3.4 8.2
5 -10 7 2.3 8
5 -11 -6 5 8.2
-5 -11 6 -3.4 6.4
-5 -11 6 -6.3 7.4
-5 -11 5 10 11.4
-5 -11 5 7 6.6
5 -11 -5 8.8 9.6
-5 -11 4 -2.3 5.7
5 -11 -4 -4.2 6.3
-5 -11 4 11.2 8.3
-5 -11 3 1 6.8
5 -11 -3 -1.3 6.3
-5 -11 3 -14.9 8.8
-5 11 2 27.3 7
-5 -11 2 16.4 8
-5 -11 2 12.1 8.6
5 -11 -2 18.5 8.1
5 -11 -2 30.8 10
-5 11 1 4.2 4.7
-5 -11 1 3.9 5.9
5 -11 -1 10.1 6.7
5 -11 -1 1.8 6.9
-5 -11 0 7.1 7.7
-5 -11 0 30.7 10.9
5 -11 0 26.5 8.2
5 -11 0 16.6 8.2
-5 -11 -1 16 8.8
5 -11 1 0 6.3
5 -11 1 -2.5 5
5 -11 2 -0.1 6.5
-5 -11 -2 -8.2 7
5 -11 2 -0.2 4.2
5 -11 3 6.3 8.3
-5 -11 -3 -12.5 6
5 -11 4 -14.5 5.3
-5 -11 -4 -13.1 8.3
5 -11 5 -1.7 6.6
-5 -11 -5 -9 8.8
5 -11 5 2.3 4
5 -11 5 -0.1 3.7
-5 -12 3 4.3 7.3
-5 -12 3 -1.4 7.2
5 -12 -3 -9.7 6.1
5 -12 -3 -0.7 8
-5 -12 2 3 8
-5 -12 2 3.1 7.1
5 -12 -2 4.8 8.2
5 -12 -2 10.1 8.1
5 -12 -1 3.7 6.2
-5 -12 1 13 9.1
5 -12 -1 0.3 8.2
-5 -12 1 -3.6 6.4
-5 -12 0 6.2 9.8
-5 -12 0 18.8 9.3
5 -12 0 17.2 7.7
5 -12 0 19.6 8.2
5 -12 1 -3.2 6
5 -12 1 -8.2 6.2
-5 -12 -1 9.6 8.4
5 -12 2 11.5 7.5
-5 -12 -2 18.8 11.8
5 -12 2 10.7 8.2
-6 0 12 139.59 16.4
6 0 -11 6.1 6.2
-6 0 11 3 6.4
6 0 -10 248.78 20.1
6 0 -10 248.58 17.7
-6 0 10 233.68 18.3
-6 0 9 4 6.2
6 0 -9 1.9 4.8
-6 0 9 2 5.1
6 0 -9 3.3 4.9
-6 0 8 63.89 11.8
6 0 -8 67.19 11.4
-6 0 8 54.29 9.2
6 0 -8 53.59 7.7
-6 0 7 -2.9 3.7
-6 0 7 2.5 4.6
6 0 -7 -2.7 3.5
6 0 -7 3.5 3.5
-6 0 6 91.59 10.7
6 0 -6 98.39 9.2
6 0 -6 107.69 10.3
-6 0 6 90.89 8.4
-6 0 5 0.5 4
6 0 -5 1.3 3.7
-6 0 5 1.9 3.4
6 0 -5 -0.8 2.6
-6 0 4 263.17 14.4
6 0 -4 248.18 13.2
6 0 -4 251.57 10.8
6 0 -3 0.2 2
-6 0 3 3.2 3.1
6 0 -1 1.5 1.8
-6 0 0 442.66 13.4
6 0 0 447.16 13.3
6 0 1 -0.8 2.7
6 0 1 2 2.2
-6 0 -1 1.9 2.9
-6 0 -1 2.3 2.2
6 0 2 3718.63 87.59
-6 0 -2 3857.01 89.49
-6 0 -2 3770.32 88.59
6 0 2 3789.22 89.29
6 0 3 -1.3 2.2
6 0 3 -1 2.4
-6 0 -3 3.5 2.8
-6 0 -3 -2 2.3
6 0 4 3.9 3.6
-6 0 -4 0.3 3.5
6 0 4 -1.4 3.2
-6 0 -4 3.9 3.8
-6 0 -5 -0.4 3.4
-6 0 -5 -3.4 2.9
6 0 5 1.3 3.6
-6 0 -6 22.7 6.2
6 0 6 22.9 6.3
6 0 6 15.4 5.4
-6 0 -6 25.4 6.9
6 0 7 4.4 4.8
-6 0 -7 3 4.5
6 0 7 -1.3 3.9
-6 0 -7 2 4.3
-6 0 -8 11.1 6.2
6 0 8 4.1 5.3
-6 0 -8 10.5 6.8
6 0 8 -0.2 4.6
6 0 9 -0.6 4.8
-6 0 -9 3.4 5.8
6 0 9 10.5 10.1
6 0 10 4 5.7
-6 0 -10 14.2 7.9
6 0 10 24.9 9
6 0 11 -3 6.6
-6 0 -11 -5.6 5.5
-6 0 -12 89.89 15.3
6 0 12 88.59 15.7
-6 -1 13 -7.7 7.4
6 -1 -13 5.9 7.8
-6 -1 12 0.3 7.2
6 -1 -12 9.7 7.7
6 -1 -11 132.59 20.6
6 1 -10 65.09 10.3
6 -1 -10 68.79 11.1
-6 -1 10 67.99 11.4
-6 1 9 30.2 9.7
6 1 -9 30.2 7.2
-6 -1 9 25.8 9.4
-6 -1 9 47.2 8.7
6 -1 -9 24.8 7.7
6 -1 -9 43.5 10.8
-6 1 8 139.09 14.6
6 1 -8 130.59 10.1
6 -1 -8 146.89 14.2
-6 -1 8 146.69 11.5
6 -1 -8 136.89 11.7
-6 -1 8 117.49 14.4
-6 1 7 21.1 7.2
6 1 -7 21.2 5.1
6 -1 -7 26.5 6.3
6 -1 -7 48.7 9.1
-6 -1 7 16.5 6.3
-6 -1 7 32.6 6.6
6 1 -6 -2.8 2.5
-6 1 6 1.6 4.5
6 -1 -6 6 3.5
-6 -1 6 -1.3 3.8
6 -1 -6 1.8 4.2
-6 -1 6 6.5 4
6 1 -5 0.9 2.4
-6 1 5 -3.6 3.7
6 -1 -5 -1.3 3
-6 -1 5 7 3.3
-6 -1 5 -0.1 3.7
-6 1 4 19.2 5.6
6 1 -4 22.1 3.3
6 -1 -4 20.7 4.6
-6 -1 4 22.6 5.4
6 -1 -4 16.5 4.9
-6 -1 4 21 3.6
-6 1 3 122.29 9.3
6 1 -3 120.19 5
6 -1 -3 116.59 8.5
-6 -1 3 120.59 5.5
6 1 -2 38 1.9
-6 1 2 34.1 5.4
6 -1 -2 37.3 5.4
-6 1 1 71.89 5.7
6 1 -1 60.99 2.6
-6 -1 1 61.99 2.8
-6 1 0 319.47 11.4
6 1 0 327.07 10.1
-6 -1 0 313.47 10.5
-6 -1 0 324.77 10.1
6 -1 0 328.47 11.6
6 1 1 385.26 12.6
-6 1 -1 381.46 10.4
-6 1 -1 394.66 14
6 1 1 379.56 13.1
6 -1 1 397.56 13.9
-6 -1 -1 395.66 13.1
-6 -1 -1 388.56 13.3
6 1 2 72.39 5.9
-6 1 -2 76.19 6.2
-6 1 -2 76.19 4.9
6 1 2 63.89 5.5
6 -1 2 71.89 6
-6 -1 -2 74.59 6.2
-6 -1 -2 65.89 6.6
6 -1 2 68.59 4.1
6 1 3 30.7 5.3
-6 1 -3 21.1 4.6
6 1 3 21.1 4.6
-6 1 -3 15.7 3.5
-6 -1 -3 16.9 4.5
-6 -1 -3 18.5 4.1
6 -1 3 17.4 3.4
6 -1 3 27.3 5
-6 1 -4 31.2 6.1
-6 1 -4 38.2 5.9
6 1 4 23.7 5.4
6 1 4 35.3 6.5
-6 -1 -4 24.8 5.4
-6 -1 -4 45.5 7.7
6 -1 4 30.9 5.2
6 -1 4 36.9 6.3
-6 1 -5 5.5 3.7
6 1 5 -0.3 3.7
-6 1 -5 2.3 3.5
6 1 5 -1.3 3.6
6 -1 5 0.4 3.2
-6 -1 -5 2.5 3.6
6 -1 5 3.7 3.6
-6 -1 -5 3 4.4
-6 1 -6 13.8 5.3
-6 1 -6 15.5 5.6
6 1 6 8.9 4.9
6 1 6 8.3 4.5
-6 -1 -6 17.7 5.9
6 -1 6 15.7 5.2
6 -1 6 11.4 5
-6 -1 -6 11.4 5.7
-6 1 -7 118.79 11.6
-6 1 -7 106.39 10.5
6 1 7 115.59 11.7
6 1 7 105.59 11.6
6 -1 7 98.59 10.8
-6 -1 -7 106.49 11
-6 -1 -7 98.29 12
6 -1 7 112.99 11.2
-6 1 -8 13.8 6.3
6 1 8 4.1 5.3
6 1 8 5.8 5.2
-6 1 -8 -2.8 4.3
-6 -1 -8 -7.2 4.8
6 -1 8 2 4.7
6 -1 8 0.4 4.8
-6 -1 -8 3.9 5.7
6 1 9 -10.6 3.6
-6 1 -9 3.1 5
6 1 9 -2.6 6
6 -1 9 6.6 5.2
-6 -1 -9 4.3 6.5
6 -1 9 -5.2 5.2
-6 1 -10 5.2 6.7
6 1 10 0.8 6.1
6 -1 10 15.4 7.2
6 -1 10 7.9 7.4
-6 -1 -10 13.9 9.2
6 1 11 5.4 7
-6 1 -11 4.4 7.5
6 -1 11 -2.8 6.2
-6 -1 -11 7.6 6.8
-6 1 -12 16 7.8
6 1 12 -9.3 6.8
6 -1 12 4.3 6.9
-6 -1 -12 3.4 8.1
6 -2 -13 0.2 6.9
-6 -2 13 4.9 7.6
6 -2 -12 24.9 9.7
6 2 -11 37.7 8.2
-6 -2 11 32.5 8.7
6 -2 -11 46.9 12
6 2 -10 89.69 11.4
-6 -2 10 51.39 12.2
6 -2 -10 58.49 11
6 -2 -10 46.3 12.1
-6 -2 10 68.99 11
-6 2 9 147.29 17.2
6 2 -9 161.38 12.7
-6 -2 9 165.78 17.5
6 -2 -9 142.69 15.8
-6 -2 9 166.88 13.3
6 -2 -9 146.69 14.5
6 2 -8 59.29 8.3
-6 2 8 36.8 9.8
6 -2 -8 78.79 12.8
-6 -2 8 64.29 11.2
6 -2 -8 81.99 11.2
-6 -2 8 69.99 9.2
6 2 -7 44.8 6.6
-6 2 7 38.6 9.4
6 -2 -7 60.99 10.4
-6 -2 7 52.39 10.1
6 -2 -7 53.99 8.8
-6 -2 7 52.09 7.1
-6 2 6 11.6 6.1
6 2 -6 27.8 4.9
6 -2 -6 23.7 6
-6 -2 6 29.5 5.2
-6 -2 6 22.9 6.6
6 -2 -6 25.5 7.2
6 2 -5 210.78 9.6
-6 2 5 202.38 14.8
-6 -2 5 210.18 9.8
-6 -2 5 203.78 13.3
6 -2 -5 229.58 15.3
6 -2 -5 200.18 12.8
6 2 -4 0.3 2.1
-6 2 4 0 4.1
-6 -2 4 -0.9 1.8
6 -2 -4 -3.4 2.7
6 -2 -4 3.3 4.1
6 2 -3 129.49 5.2
-6 2 3 112.59 9.3
-6 -2 3 116.09 4.9
6 -2 -3 130.19 9.8
-6 2 2 920.51 27.8
-6 -2 2 810.82 20.6
6 -2 -2 930.51 27.6
-6 2 1 47.5 5.1
-6 -2 1 37.6 2.9
6 -2 -1 39 4.7
-6 2 0 6.3 3.1
6 2 0 15.3 2.9
-6 2 0 7 2.2
6 2 0 5.4 2.5
6 -2 0 11 3.4
-6 -2 0 7.9 2.9
-6 -2 0 11 2.7
-6 2 -1 73.69 6.1
6 2 1 77.69 6.2
6 2 1 83.79 5.8
-6 -2 -1 82.89 5.8
-6 -2 -1 71.09 6.1
6 -2 1 88.99 6.6
-6 2 -2 82.19 6.9
6 2 2 77.39 6.2
6 2 2 70.29 6.5
-6 2 -2 72.59 3.3
-6 -2 -2 82.39 7.4
6 -2 2 72.79 6.6
-6 -2 -2 78.99 6.4
6 -2 2 80.09 2.9
-6 2 -3 1206.58 31
6 2 3 1222.18 36.5
6 2 3 1214.48 35.8
-6 2 -3 1187.18 35.7
-6 -2 -3 1195.78 35.4
6 -2 3 1206.18 35.5
6 -2 3 1173.18 30.5
-6 -2 -3 1223.48 37.6
-6 2 -4 67.09 6.1
-6 2 -4 65.39 8.3
6 2 4 57.59 8.3
6 -2 4 61.59 8.1
-6 -2 -4 69.89 9.6
6 -2 4 58.09 5.8
-6 -2 -4 69.59 8.6
-6 2 -5 108.99 8.4
6 2 5 114.89 10.7
6 2 5 102.29 10.2
-6 2 -5 133.99 10.4
-6 -2 -5 90.99 11.3
6 -2 5 107.09 9.5
6 -2 5 105.09 8.3
-6 -2 -5 96.49 9.1
-6 2 -6 19 5.9
6 2 6 17.4 6.2
-6 2 -6 7.3 3.9
6 2 6 12.7 5.8
-6 -2 -6 5.8 4.7
6 -2 6 3.1 4
6 -2 6 13.9 5.1
-6 -2 -6 1.1 4.8
6 2 7 3.6 4.7
-6 2 -7 -2.5 4.1
6 2 7 2.7 5.5
6 -2 7 3.7 4.6
-6 -2 -7 11.7 5.5
6 -2 7 11.2 5.2
-6 -2 -7 6.3 5.6
6 2 8 2.4 5.7
6 2 8 -0.9 4.6
-6 2 -8 8.1 5
-6 2 -8 -0.8 5.7
-6 -2 -8 6 6.7
6 -2 8 3.2 4.9
6 -2 8 -0.7 4.6
-6 -2 -8 9.1 6.1
6 2 9 73.49 12.5
-6 2 -9 70.99 11.2
6 -2 9 81.39 11.8
-6 -2 -9 50.19 12
6 -2 9 70.29 12.4
6 2 10 38.7 10.9
-6 2 -10 51.69 10.9
6 -2 10 44.4 10.2
-6 -2 -10 74.69 15.2
6 -2 10 40 11.4
6 2 11 43.8 12.3
-6 2 -11 47.2 10.4
-6 -2 -11 9.7 10
6 -2 11 40.7 10.1
6 -2 11 27.7 9.5
6 2 12 -7.2 6.8
-6 -2 -12 8.5 6.7
6 -2 12 -1 8
-6 -3 13 11.8 7.8
6 -3 -13 -1.8 7
6 -3 -12 6.4 7.4
-6 -3 12 7.9 7.2
6 3 -11 28.2 8.4
6 -3 -11 26.9 10.2
-6 -3 11 33.7 8.2
6 3 -10 -7.4 4.7
-6 -3 10 2.4 4.6
-6 -3 10 3.9 6.9
6 3 -9 233.98 14.9
6 -3 -9 261.67 18.6
-6 -3 9 264.37 15.8
6 -3 -9 233.38 20.5
-6 -3 9 266.27 20.2
-6 3 8 18.6 7.7
6 3 -8 7.5 4.9
-6 -3 8 20.5 7.6
-6 -3 8 17.2 5.5
6 -3 -8 17.2 6.7
6 -3 -8 13.6 7.2
-6 3 7 -1.5 4.7
6 3 -7 9.3 3.8
6 -3 -7 3.6 5.3
6 -3 -7 8.6 5.2
-6 -3 7 0.9 3.4
-6 -3 7 2.7 5.2
6 3 -6 40.4 5.8
-6 3 6 48.3 10.1
-6 -3 6 52.89 5.9
-6 -3 6 49.3 8.5
6 -3 -6 39.8 7.9
6 -3 -6 36.2 8.5
-6 3 5 15.2 5.8
6 3 -5 11.5 3.4
6 -3 -5 6.6 5.3
-6 -3 5 9.6 3
6 -3 -5 10.3 4.7
6 3 -4 6.2 2.6
-6 3 4 -1.7 3.6
6 -3 -4 6.5 4.8
-6 -3 4 2.8 2.3
-6 3 3 9.9 5
6 -3 -3 30.1 6.4
-6 -3 3 27.6 3.4
-6 3 2 414.76 17.2
6 -3 -2 404.86 17
-6 -3 2 411.16 12.1
-6 3 1 138.69 7.9
6 -3 -1 112.49 7.5
-6 -3 1 128.99 7
6 3 0 5.8 2.3
-6 3 0 3.7 1.9
6 -3 0 6.7 3.1
-6 -3 0 6.9 3
-6 -3 0 5 2.6
6 -3 0 3.5 2
-6 3 -1 97.29 7.5
6 3 1 99.59 6.8
-6 -3 -1 100.09 7.4
6 -3 1 95.79 3.4
-6 -3 -1 100.79 7.9
6 -3 1 109.99 7.8
6 3 2 1.2 3.7
6 3 2 2.1 3.6
-6 3 -2 -0.5 2.7
-6 -3 -2 5.9 4.2
6 -3 2 7.7 3.9
-6 -3 -2 1 3.2
6 3 3 275.27 14.3
6 3 3 260.87 14.5
-6 3 -3 246.88 13.2
6 -3 3 235.08 8.1
-6 -3 -3 253.57 15.1
6 -3 3 242.98 13.1
-6 -3 -3 238.48 13.3
6 3 4 -2.3 3.1
-6 3 -4 3 3.6
6 3 4 -2.6 3.3
6 -3 4 -10.5 3.7
-6 -3 -4 -3.4 3.9
-6 -3 -4 2.1 3.7
6 -3 4 0 2.1
-6 3 -5 0.2 3.5
6 3 5 6.3 4.8
6 3 5 8.1 4.9
6 -3 5 -1.4 3.7
-6 -3 -5 9.6 4.9
-6 -3 -5 7.8 5.6
6 -3 5 17.3 4.2
-6 3 -6 26.6 6.5
6 3 6 8.8 5.9
6 3 6 22.1 6.8
-6 -3 -6 12.6 6.7
-6 -3 -6 14.1 5.6
6 -3 6 21.6 5.1
6 -3 6 17.3 5.5
-6 3 -7 9.3 6
6 3 7 4.4 5.5
6 -3 7 7.7 4.3
-6 -3 -7 -4.3 5.6
6 -3 7 3.3 4.7
-6 -3 -7 3.8 4.9
-6 3 -8 11.4 6.3
6 3 8 4.3 5
6 3 8 0.1 5.5
-6 -3 -8 8.8 6.8
6 -3 8 -6.3 4
6 -3 8 4.8 4.3
-6 -3 -8 -3.4 5.2
6 3 9 0.8 6.7
6 -3 9 11 6.9
6 -3 9 3.3 5.4
6 3 10 29.3 11.1
-6 -3 -10 36.6 12.3
6 -3 10 24.6 7.7
6 -3 10 21.7 8.8
6 3 11 10.3 8.9
-6 -3 -11 13.3 9.2
6 -3 11 15.8 8.6
6 -3 11 26.4 8.3
6 3 12 12.2 10
6 -3 12 10.5 6.9
-6 -3 -12 12.3 9.6
-6 -4 12 22.2 7.8
6 -4 -12 26 11.5
6 4 -11 0.6 5.8
6 -4 -11 6 7
-6 -4 11 0.6 4.7
6 4 -10 -6.9 4.7
-6 -4 10 9.6 8.1
6 -4 -10 6.1 7.3
-6 -4 10 -3.5 4.9
6 4 -9 115.49 11
-6 -4 9 122.99 10.7
6 -4 -9 135.09 16.6
-6 -4 9 88.39 13.9
-6 4 8 7.9 7.2
6 4 -8 9.6 4.7
-6 -4 8 1 5.9
-6 -4 8 9.6 4.5
6 -4 -8 12.2 7.4
6 -4 -8 7.9 6.2
6 4 -7 70.79 8.1
-6 4 7 79.59 15.1
-6 -4 7 62.49 9.9
6 -4 -7 72.59 13.9
-6 -4 7 76.99 7.5
6 -4 -7 88.99 12.8
6 4 -6 105.19 8
-6 4 6 111.79 12.6
6 -4 -6 97.69 11
-6 -4 6 98.59 7.6
-6 -4 6 98.09 10.2
6 -4 -6 95.89 13.8
-6 4 5 534.85 26
6 4 -5 547.65 18.4
-6 -4 5 536.05 18.4
6 -4 -5 613.14 27.8
6 -4 -5 516.15 24.3
-6 4 4 106.49 10.5
6 4 -4 99.99 6.6
-6 -4 4 118.99 7.1
6 -4 -4 104.29 11.2
-6 4 3 197.68 13.5
-6 -4 3 183.28 8.7
6 -4 -3 183.08 12.9
-6 4 2 60.29 7.9
-6 -4 2 60.79 5.9
-6 -4 2 59.89 5.1
6 -4 -2 55.59 7.9
-6 4 1 22.6 4.5
6 -4 -1 26.3 5.1
-6 -4 1 26.8 4.8
-6 4 0 60.89 4.8
6 4 0 56.79 6.8
6 -4 0 63.29 5.4
6 -4 0 64.89 7.2
-6 -4 0 60.49 6.8
6 4 1 65.59 6.4
-6 4 -1 79.99 3.6
6 -4 1 83.19 7.8
-6 -4 -1 83.79 7.6
6 -4 1 84.49 4.9
-6 -4 -1 82.69 8.3
6 4 2 28 5.5
-6 4 -2 26.3 5.8
6 -4 2 27.1 6.1
6 -4 2 25.6 2.1
-6 -4 -2 30.4 6.2
6 4 3 -1.6 2.9
-6 4 -3 4.4 3.8
6 -4 3 1.1 1
6 -4 3 4.3 1.4
-6 -4 -3 4.8 4.8
6 -4 3 -8.5 3.3
-6 -4 -3 2.3 3.8
-6 4 -4 53.89 8.3
6 4 4 67.29 9.4
6 -4 4 56.49 4.4
-6 -4 -4 60.79 8.9
6 -4 4 59.29 8.7
-6 -4 -4 57.39 10.2
6 4 5 146.99 13.1
6 4 5 142.29 12.4
-6 4 -5 151.18 12.1
6 -4 5 166.68 12.1
6 -4 5 163.08 8.9
-6 -4 -5 171.68 13.3
-6 -4 -5 165.78 15.2
-6 4 -6 19.4 6.9
6 4 6 5.3 5.1
6 4 6 1.1 5.3
-6 -4 -6 -1.7 5.1
6 -4 6 12.8 5.3
6 -4 6 7.5 3.8
-6 -4 -6 9.1 5.6
6 4 7 9.5 6.7
6 4 7 8.5 6.5
-6 -4 -7 16.2 8
-6 -4 -7 19 7.1
6 -4 7 26.8 7.8
6 -4 7 20.9 5.6
6 -4 8 -0.6 3.9
-6 -4 -8 -0.1 6.6
6 -4 8 3.9 5.7
6 4 9 -5.3 5.3
-6 -4 -9 5.7 8.4
6 -4 9 10.6 5.5
6 -4 9 3.4 6.1
6 4 10 9.4 7.9
6 -4 10 26.5 7.4
-6 -4 -10 2.7 7.6
6 -4 10 5.2 6.1
6 -4 11 -0.5 6.4
6 -4 11 -5.8 6.4
-6 -4 -11 -7.4 7.6
6 -4 12 9.5 8.5
6 -5 -12 4.4 8
-6 -5 12 -1.3 5.4
6 5 -11 6.8 5.8
6 -5 -11 -7.2 6.2
-6 -5 11 5 5.5
6 5 -10 2.5 5
6 -5 -10 6.1 8.1
-6 -5 10 -13.8 5.8
-6 -5 10 10.2 5.3
6 5 -9 12.1 5.8
-6 -5 9 1.8 6.2
6 -5 -9 6.6 6.8
-6 -5 9 7.1 4.8
6 5 -8 202.08 13
-6 -5 8 189.18 12.5
-6 -5 8 171.78 15.8
6 -5 -8 196.18 19.3
6 5 -7 0.4 3.7
-6 5 7 6.6 6.5
6 -5 -7 6.2 5.8
6 -5 -7 8.1 7
-6 -5 7 2.4 4.7
-6 5 6 18.5 7.5
6 -5 -6 37.6 10.3
6 -5 -6 33.8 9.6
-6 -5 6 29.1 5.3
-6 5 5 7 5.2
-6 -5 5 7.8 3.3
6 -5 -5 3.9 5
-6 5 4 33 7.9
-6 -5 4 20.3 4.4
6 -5 -4 32.7 7.7
-6 5 3 193.18 13.6
-6 -5 3 195.88 10.1
-6 -5 3 204.88 10.8
-6 5 2 20.9 5.2
-6 -5 2 22.4 4.3
-6 -5 2 29 5.4
6 -5 -2 27.5 6.4
-6 5 1 132.49 8.8
6 -5 -1 146.69 10.2
-6 -5 1 128.59 9.6
6 5 0 64.69 5.8
-6 5 0 51.99 4.8
6 -5 0 52.09 5.9
6 -5 0 57.29 8.1
6 5 1 61.79 6.5
-6 5 -1 58.39 3.7
6 -5 1 65.89 8.4
-6 -5 -1 59.89 8.7
6 -5 1 53.29 5.1
-6 -5 -1 55.59 7.7
6 5 2 0.4 2.8
-6 -5 -2 0.9 4.4
-6 -5 -2 4.9 4.3
6 -5 2 -3.8 2.7
6 -5 2 -0.6 1.7
6 5 3 9.5 4.5
-6 5 -3 9.8 4.9
6 -5 3 13.9 5
-6 -5 -3 12.1 5
6 -5 3 9.2 2
-6 -5 -3 0.1 4.7
6 -5 3 14 2.2
-6 5 -4 38.7 7.5
6 5 4 45.6 8.2
-6 -5 -4 23.8 8
6 -5 4 32.3 3.7
6 -5 4 31 6.9
-6 -5 -4 34.2 7.5
6 -5 4 39.4 3
6 5 5 46 9
-6 5 -5 29.6 7.1
-6 -5 -5 48.8 11.1
-6 -5 -5 45.4 9.2
6 -5 5 37.6 4.8
6 -5 5 42.2 8.7
-6 5 -6 -3.4 4.8
6 5 6 -3 4.4
6 -5 6 6.7 5.8
-6 -5 -6 -1.5 6.2
-6 -5 -6 -4.1 5
6 -5 6 -2.4 2.7
-6 5 -7 64.09 10.6
6 -5 7 61.79 10.6
-6 -5 -7 57.79 13.1
6 -5 7 72.09 8
-6 5 -8 10 7.3
-6 -5 -8 -6.4 6.3
6 -5 8 2.5 5.7
6 -5 8 7.9 4.7
6 -5 9 1.4 4.9
-6 -5 -9 -2.4 7.5
6 -5 9 1.3 4.6
-6 -5 -10 35.4 11.5
6 -5 10 65.09 9.9
6 -5 10 38.4 10.4
6 -5 11 -12.1 5
-6 -5 -11 -9 6.6
6 -5 11 8.6 6.2
6 6 -11 -0.4 6.9
-6 -6 11 5.8 6.2
6 -6 -11 13 9.3
6 6 -10 4.3 6.8
6 -6 -10 6.1 7.8
-6 -6 10 -5 4.8
6 6 -9 15.2 6
-6 -6 9 17.1 5.4
6 -6 -9 6.9 8.1
-6 -6 9 6.3 6.3
6 6 -8 0.2 4.1
6 -6 -8 -1.7 6.6
-6 -6 8 0.9 3.9
-6 -6 8 8.8 5.7
-6 6 7 86.39 16.9
6 6 -7 87.39 9.1
-6 -6 7 76.99 11.1
6 -6 -7 122.79 17.4
-6 -6 7 87.49 8.6
-6 6 6 13 6.6
6 -6 -6 27.6 10.1
-6 -6 6 17 5.4
6 -6 -6 7.6 7
-6 6 5 -3.8 5.3
6 -6 -5 2 5.6
-6 -6 5 -2.5 3.3
-6 6 4 218.08 16
-6 -6 4 200.48 11.6
6 -6 -4 234.88 17.1
-6 -6 4 224.58 12.2
-6 6 3 5.7 4.1
-6 -6 3 8.4 4
-6 -6 3 3.2 3
6 -6 -3 13.4 6
-6 6 2 56.99 8.1
-6 -6 2 48.4 6.6
6 -6 -2 37.4 7.6
-6 -6 2 43.3 6.8
-6 6 1 83.39 7.4
-6 -6 1 98.39 8.8
6 -6 -1 98.79 9.6
6 6 0 12.7 3.6
-6 6 0 9.8 3.1
6 -6 0 8.8 5.1
6 -6 0 12.8 4.2
-6 -6 0 8.2 4.9
6 6 1 12.6 3.9
-6 6 -1 11.8 2.4
6 -6 1 8.5 3.3
-6 -6 -1 5.7 4.5
6 -6 1 13.5 5.1
-6 -6 -1 5.8 4.9
6 6 2 71.59 8.4
-6 -6 -2 88.09 11.3
6 -6 2 68.49 5.5
-6 -6 -2 56.49 10.1
6 -6 2 50.99 8.4
6 6 3 10.2 4.7
6 -6 3 12.3 2.7
-6 -6 -3 17.8 6.1
-6 -6 -3 20.9 7.6
6 -6 3 5.3 4.8
-6 6 -4 50.19 9
6 6 4 49.99 10.2
-6 -6 -4 43.3 9.1
6 -6 4 47.8 8.7
6 -6 4 43.5 3.8
-6 -6 -4 61.69 12.4
6 -6 4 39.6 4
6 6 5 4.6 5
-6 6 -5 4.8 5.3
-6 -6 -5 0.2 5.1
6 -6 5 0.4 2.3
6 -6 5 4 2.2
-6 -6 -5 3.8 7.3
6 -6 5 4 5.6
-6 6 -6 42.9 9.1
6 -6 6 46.6 5.7
6 -6 6 48.8 4.2
6 -6 6 54.49 10.1
-6 -6 -6 45.7 10.9
-6 -6 -6 54.09 13.8
-6 6 -7 9.5 5.9
6 -6 7 2.8 3.5
-6 -6 -7 9.7 8.4
6 -6 7 3.8 6
-6 -6 -8 -6.7 6.1
6 -6 8 -1.3 9.1
-6 -6 -9 21.9 10.3
6 -6 9 18.9 7.7
6 -6 9 6.7 5
-6 -6 -10 14.7 10.3
6 -6 10 5.4 5.9
6 -6 10 17.5 6.7
6 -6 11 1.7 7.5
-6 -6 -11 6.7 8.9
6 -6 11 -1.4 6
6 7 -11 3.7 9.1
-6 -7 11 -7.4 5.3
6 -7 -11 5 8.6
6 7 -10 -5.1 6.5
-6 -7 10 -0.8 5
6 -7 -10 16.3 9.8
6 7 -9 0.2 5.7
-6 -7 9 0.9 4.7
-6 -7 9 24.7 7.8
6 -7 -9 -1.3 7.3
6 -7 -8 -0.3 6
-6 -7 8 -8.5 5.6
-6 -7 8 5.7 4
-6 -7 7 65.59 10.4
6 -7 -7 72.59 14.6
-6 -7 7 70.29 9
-6 7 6 19.3 8.5
6 -7 -6 17.6 8.3
-6 -7 6 16 4.8
-6 -7 6 19.1 5.5
-6 7 5 22.6 7.8
6 -7 -5 13.4 7.9
-6 -7 5 15.6 5.4
-6 -7 5 8.9 4.6
-6 7 4 18.1 6.3
-6 -7 4 10.3 5.3
-6 -7 4 8.9 4.9
6 -7 -4 18.7 7.5
-6 7 3 14.8 5.6
6 -7 -3 23.8 7.3
-6 -7 3 17.1 5.5
-6 -7 3 17 5.7
-6 7 2 14.4 5.2
6 -7 -2 11.1 5.7
-6 -7 2 17.8 5.8
-6 -7 2 14.1 4.5
-6 7 1 3 3.5
6 -7 -1 10.5 5.2
-6 -7 1 0.7 4
6 7 0 34.9 5.8
-6 7 0 33.2 5
6 -7 0 31.4 7.5
-6 -7 0 37.4 8.6
6 -7 0 35.4 6.8
6 7 1 4.7 3.9
-6 -7 -1 0 4.6
6 -7 1 -1.2 3.6
6 -7 1 5.6 3.6
6 7 2 65.79 8.8
-6 -7 -2 47.2 10
6 -7 2 49.3 9
-6 -7 -2 46.5 9.2
6 -7 2 51.39 6.2
6 7 3 47 8.6
6 -7 3 52.99 9.6
-6 -7 -3 41.5 10.6
6 -7 3 52.39 5.4
-6 -7 -3 41.6 9.5
6 7 4 12.6 5.9
-6 -7 -4 0.1 6
6 -7 4 9.4 2.8
6 -7 4 9 2.8
6 -7 4 8.6 6.2
-6 -7 -4 14.7 7.1
-6 7 -5 33.9 9.1
-6 -7 -5 49.3 12.7
-6 -7 -5 69.29 11.7
6 -7 5 52.99 9.8
6 -7 5 41 4.3
6 -7 5 57.39 5
-6 7 -6 51.19 10.1
6 -7 6 70.49 5.9
6 -7 6 67.59 5.4
6 -7 6 70.29 11.3
-6 -7 -6 98.39 17.3
6 -7 7 15.9 4.1
6 -7 7 18.2 8.6
6 -7 7 7.2 2.8
-6 -7 -7 30.9 10.1
6 -7 8 2.7 3.6
6 -7 8 2.8 2.4
-6 -7 -8 6.7 8.4
6 -7 8 -0.9 6
6 -7 9 2.8 6.7
-6 -7 -9 -7.3 6.9
6 -7 10 15.9 9.4
6 -7 10 34.8 7.6
-6 -7 -10 63.39 25.9
6 -8 -10 14.7 18.3
-6 -8 10 12.7 6
-6 -8 9 2.6 4.6
6 -8 -9 -1.5 7.2
-6 -8 9 -2.4 7.3
6 -8 -8 20.6 10.9
-6 -8 8 23.8 6.3
-6 -8 8 15.7 6.8
-6 -8 8 13 5.2
-6 -8 7 -5.5 4.1
-6 -8 7 9.4 4.7
6 -8 -7 1 7.1
-6 -8 6 35.4 7.2
-6 -8 6 41.3 7.7
-6 8 5 19.8 8.1
6 -8 -5 9 7.8
-6 -8 5 18.1 5.8
-6 -8 5 7.8 4.8
-6 -8 4 77.49 9
6 -8 -4 68.89 12.9
-6 -8 4 84.29 9.7
-6 8 3 2.1 5
-6 -8 3 4.8 5
-6 -8 3 9.1 4.8
6 -8 -3 4 6.1
-6 8 2 9.3 5
-6 -8 2 -3.2 4.1
6 -8 -2 4.9 5.4
-6 -8 2 12 5
-6 8 1 7.3 4.2
6 -8 -1 4.4 5.8
6 -8 -1 -0.3 4.1
-6 -8 1 2 5.7
-6 8 0 7 3.2
6 8 0 6.1 3.8
6 -8 0 17.7 6.4
6 -8 0 3.7 4.1
-6 -8 0 4.8 6.3
6 -8 1 -2.2 3.2
-6 -8 -1 2.1 6.7
6 -8 1 9.4 5.3
6 8 2 109.59 10.4
6 -8 2 95.59 13.2
-6 -8 -2 104.69 15.4
6 -8 2 94.79 8.6
6 8 3 18.1 6.7
-6 -8 -3 21.2 7.5
-6 -8 -3 30.1 10
6 -8 3 22.6 7.9
6 -8 3 17.4 4.1
-6 -8 -4 11.6 8.2
6 -8 4 8 3.1
6 -8 4 18.6 8
-6 -8 -5 62.19 13.7
6 -8 5 56.29 4.9
6 -8 5 56.39 5.1
6 -8 5 44 9.9
-6 -8 -6 -0.7 8.4
6 -8 6 1.9 8
6 -8 6 10.8 3
6 -8 6 12.5 2.9
6 -8 7 1.6 6.8
6 -8 7 11.6 3.1
-6 -8 -7 0.1 8.6
-6 -8 -8 5.6 9
6 -8 8 15.2 3.6
6 -8 8 10 6.9
6 -8 8 6.2 3.3
6 -8 9 1.6 6.5
6 -8 9 2.9 3
6 -8 9 1.3 4.5
-6 -9 9 5.2 6.2
6 -9 -9 7.3 9.1
-6 -9 9 -2.7 4.6
-6 -9 8 -10.5 4.3
-6 -9 8 -1.3 5
-6 -9 8 8 6.7
6 -9 -8 2.2 8.7
6 -9 -7 4.2 7.7
-6 -9 7 3.8 5.3
-6 -9 7 -0.1 4.4
-6 -9 6 8.6 5.8
-6 -9 6 5.5 5.2
6 -9 -6 22 9.9
-6 -9 5 9.8 6
-6 -9 5 6.2 5.6
-6 9 4 -11.9 5.2
6 -9 -4 8.5 6.9
-6 -9 4 -0.1 5.3
-6 -9 4 9.6 5.1
-6 -9 3 53.49 9.5
6 -9 -3 42.3 10.7
-6 -9 3 61.09 9.1
-6 9 2 11.4 5.3
6 -9 -2 -2.5 4.4
-6 -9 2 9.2 6.3
-6 -9 2 -1.2 4.2
-6 9 1 15.9 5
-6 -9 1 14 6.8
-6 -9 1 2.7 5
6 -9 -1 7.5 5.5
-6 9 0 51.59 6.4
-6 -9 0 29.2 9
6 -9 0 45.3 10.2
6 -9 0 38.4 8.1
6 9 1 31.4 6.8
-6 -9 -1 7.1 6.5
6 -9 1 19.8 7.7
-6 -9 -1 16.7 9.6
6 -9 1 22.1 6.4
-6 -9 -2 112.99 17
6 -9 2 126.79 10.3
-6 -9 -2 137.99 17.2
6 -9 2 138.79 14.3
6 -9 3 10.6 4
-6 -9 -3 12.4 8.6
6 -9 4 47.9 10.3
6 -9 4 42.9 6.6
-6 -9 -4 32.4 11.7
-6 -9 -5 -1.9 6.6
6 -9 5 -2 5.9
6 -9 5 1.4 2.9
6 -9 5 -0.4 2.5
6 -9 6 -4.3 5.9
-6 -9 -6 5.5 8.1
6 -9 7 -7.6 6.6
-6 -9 -7 -2.2 9.4
6 -9 8 -1.1 6.9
6 -10 -7 11.3 9.5
-6 -10 7 9.1 6.4
-6 -10 7 14.8 7.1
-6 -10 6 -3.5 5.6
-6 -10 6 15.5 6.9
6 -10 -6 2 6.9
6 -10 -5 27.7 10.7
-6 -10 5 2.3 5.7
-6 -10 5 10.1 6.2
-6 -10 4 9.6 6.3
-6 -10 4 6.9 6.2
-6 10 3 135.39 13.2
-6 -10 3 139.99 13.6
-6 -10 3 129.49 14.5
6 -10 -3 138.09 16.4
-6 10 2 -4.2 5.7
-6 -10 2 6.4 5.8
6 -10 -2 9.7 7.8
-6 -10 2 5.9 7.7
-6 10 1 52.89 7.6
6 -10 -1 48.7 10.2
6 -10 -1 56.49 11.6
-6 -10 1 46.5 9.3
-6 -10 1 65.59 11.8
-6 10 0 31.9 5.3
-6 -10 0 28.3 9.6
6 -10 0 20.3 8
6 -10 0 35.5 7.8
6 -10 1 31.9 7
6 -10 1 17.5 7.8
-6 -10 -1 16.2 11.2
-6 -10 -2 -16.1 6.4
6 -10 2 8.4 7.4
6 -10 2 2 4.1
6 -10 3 39.2 7.8
6 -10 3 52.99 11.9
-6 -10 -3 48.1 13.5
6 -10 4 8.8 8.1
-6 -10 -4 16 11.5
6 -10 4 5.1 4.7
6 -10 5 3.6 2.4
-6 -10 -5 -2.7 7.4
6 -10 5 -0.2 2.3
6 -10 5 3 8.1
6 -10 6 4 7.6
-6 -10 -6 -8.6 8.6
-6 -10 -7 7.1 11.1
6 -10 7 22.1 8.7
-6 -11 6 -11.8 6.9
6 -11 -6 -8.5 7.4
-6 -11 6 -10.4 5.6
-6 -11 5 5.6 6.7
-6 -11 5 -7.4 6.3
6 -11 -5 -0.8 7.3
-6 -11 4 6.1 7.1
6 -11 -4 -3.3 7.5
-6 -11 4 15.6 7.2
-6 -11 3 -2.1 7.2
-6 -11 3 10.4 6.8
-6 11 2 3.9 6
6 -11 -2 7 6.6
6 -11 -2 9.9 7.2
-6 11 1 11.5 5.4
6 -11 -1 8.7 7.4
-6 -11 1 13.7 8.2
-6 -11 1 1.4 5.6
6 -11 -1 11.8 7.5
-6 -11 0 -1.6 6
-6 -11 0 -2.6 6.6
6 -11 0 -0.6 5.9
6 -11 0 -8 4.5
6 -11 1 31.8 9.5
6 -11 1 29.1 7.6
-6 -11 -1 36.9 12.1
-6 -11 -2 11.9 10.7
6 -11 2 25.3 6.7
6 -11 2 36.6 10.7
-6 -11 -3 14.5 10.4
6 -11 3 13 8.8
6 -11 3 2.4 5.3
-6 -11 -4 27.8 12.2
6 -11 4 -1.7 4.6
6 -11 4 6.9 6.6
6 -11 5 1.2 1
-6 -11 -5 12.2 10.3
6 -11 5 -1.5 7.5
-6 -12 3 -12.2 5.9
-6 -12 3 8.4 8.2
6 -12 -3 -1.7 7.9
6 -12 -3 -3.6 6.1
6 -12 -2 49.3 11.1
-6 -12 2 27.4 10.6
-6 -12 2 30.9 9.5
6 -12 -2 24.8 16
-6 -12 1 11.9 7.7
-6 -12 1 4 8.2
6 -12 -1 -2.2 7.1
-6 -12 0 3.2 7.8
6 -12 0 8.9 6.8
6 -12 0 -16.2 5.3
-6 -12 0 5.7 6.5
-6 -12 -1 12.8 9
6 -12 1 12.1 6.5
6 -12 1 8.3 7.5
6 -12 2 -1.3 6.9
-6 -12 -2 -21.7 7.6
6 -12 2 -5.1 5
-7 0 11 1.4 5.6
7 0 -11 -3.1 6.1
-7 0 10 472.15 25.3
-7 0 9 -7.7 4.4
7 0 -9 -6.5 3.9
-7 0 9 0.5 4.6
7 0 -9 2.1 5.3
-7 0 8 263.27 16.2
7 0 -8 228.48 17
7 0 -8 221.48 13.5
-7 0 8 236.38 19
7 0 -7 -0.2 2.9
-7 0 7 4.2 5.2
7 0 -7 4.6 4.5
-7 0 6 75.59 11.1
7 0 -6 75.79 10.3
7 0 -6 66.29 6.8
-7 0 6 61.09 7.8
-7 0 5 1.1 4.5
7 0 -5 -0.7 2.5
-7 0 4 5 3.9
7 0 -4 8.4 3
-7 0 3 -3.2 2.5
7 0 -3 -0.3 1.9
7 0 -1 -0.1 2
-7 0 1 0.7 2
-7 0 0 6.5 3.2
7 0 0 10 3.2
-7 0 -1 1 2.4
7 0 1 2.6 2
7 0 1 -1.6 2.5
-7 0 -1 0.8 2.8
-7 0 -2 149.79 7.9
-7 0 -2 143.09 8.2
7 0 2 142.09 6.9
7 0 2 154.18 8.6
7 0 3 0.5 2.3
-7 0 -3 0.8 2.8
7 0 3 -1.9 2.3
-7 0 -3 -3.2 2.3
7 0 4 61.99 6.9
-7 0 -4 64.29 7.4
-7 0 -4 65.39 7.9
7 0 4 64.49 7.4
7 0 5 -2 3
-7 0 -5 -2 3.4
-7 0 -5 2.7 3.8
7 0 6 46.4 8.2
-7 0 -6 33.8 7.7
7 0 6 35.7 7.3
-7 0 -6 41.8 7.7
7 0 7 3.9 4.6
-7 0 -7 2.9 4.5
7 0 7 -5.9 3.6
-7 0 -7 7.3 5.6
-7 0 -8 24.7 8.4
7 0 8 1.6 5
7 0 8 6.3 5.5
-7 0 -8 17.5 7.2
-7 0 -9 -0.7 5.3
7 0 9 3.2 6.8
7 0 9 2 5.4
-7 0 -10 112.59 16.6
7 0 10 150.28 14.8
7 0 10 128.29 15
-7 0 -11 -5.3 5.5
7 0 11 -10.3 5.4
-7 0 -12 33.9 10
7 0 12 39.7 12
-7 -1 13 6.6 7.2
7 -1 -12 12.5 8.1
-7 -1 12 35.2 16.9
7 1 -11 -3.9 6.4
-7 -1 11 3.6 6.6
7 -1 -11 6.4 7.1
7 1 -10 17.1 6.9
7 -1 -10 28.1 11.4
7 -1 -10 36.5 8.8
-7 -1 10 30.1 8.1
7 1 -9 7.8 5.5
-7 1 9 12.5 8
-7 -1 9 15 7.7
7 -1 -9 16.6 6.6
7 -1 -9 12.9 7.1
-7 -1 9 2.9 4.8
7 1 -8 55.79 7.9
-7 1 8 46.9 10.6
7 -1 -8 57.99 11.4
7 -1 -8 43.1 7.7
-7 -1 8 48.2 8.1
-7 -1 8 44.5 9.8
-7 1 7 110.69 12.4
7 1 -7 98.19 8
7 -1 -7 83.69 12
7 -1 -7 91.29 8.8
-7 -1 7 95.89 8.9
-7 -1 7 97.69 11.5
-7 1 6 64.99 10.8
7 1 -6 62.59 6
-7 -1 6 54.09 9.3
7 -1 -6 61.19 7
-7 -1 6 58.29 7.2
7 -1 -6 58.29 9.5
-7 1 5 119.99 11.6
7 1 -5 124.99 7.1
-7 -1 5 94.59 10
7 -1 -5 109.09 12.5
7 -1 -5 117.59 8.6
-7 -1 5 134.59 8.2
7 1 -4 27.4 3.5
-7 1 4 32.6 7
7 -1 -4 29.8 6.4
-7 -1 4 34.8 6.4
7 -1 -4 25.8 4.7
-7 -1 4 30 4.1
-7 1 3 11.9 4.3
7 1 -3 9.5 1.7
7 -1 -3 4.3 3.2
7 1 -2 379.86 9.8
-7 1 2 402.86 15.7
7 1 -1 104.79 3.9
-7 1 1 117.39 7.2
7 -1 -1 105.69 6.5
-7 -1 1 115.89 4.2
-7 1 0 55.19 5.2
7 1 0 35.9 3.7
7 -1 0 43.4 4.9
-7 -1 0 42 4.2
-7 -1 0 41.3 4.1
-7 1 -1 1.7 2.9
7 1 1 0.1 2
7 1 1 3.4 2.6
-7 1 -1 0.4 1.4
-7 -1 -1 0 2.3
7 -1 1 2.6 2.9
-7 -1 -1 4.3 2.5
-7 1 -2 24.9 3.4
7 1 2 29.1 4.1
7 1 2 26.5 4.8
-7 1 -2 35.2 5.1
-7 -1 -2 24.6 4.5
-7 -1 -2 18.9 3.8
7 -1 2 34.3 5
7 -1 2 26 2.9
-7 1 -3 555.14 18.5
7 1 3 566.54 19.6
-7 1 -3 569.94 20.5
7 1 3 547.25 20.1
7 -1 3 542.15 17.2
-7 -1 -3 560.34 19.8
7 -1 3 554.64 20.1
-7 -1 -3 526.15 20.6
7 1 4 410.86 18.3
7 1 4 411.26 18.8
-7 1 -4 430.76 17.3
-7 1 -4 416.86 18.3
-7 -1 -4 429.26 19.6
7 -1 4 429.96 16.2
-7 -1 -4 426.96 17.9
7 -1 4 435.56 18.3
-7 1 -5 321.27 16
7 1 5 316.97 16.4
-7 1 -5 346.57 17
7 1 5 323.67 17.2
-7 -1 -5 336.67 16.7
7 -1 5 328.07 15.5
7 -1 5 342.27 16.8
-7 1 -6 14.8 5.1
7 1 6 12.5 5.2
7 1 6 19.7 5.9
-7 1 -6 21.2 6
7 -1 6 14.4 5.5
-7 -1 -6 14.7 6.1
7 -1 6 11.8 4.8
-7 -1 -6 9.9 5
-7 1 -7 40 8.1
-7 1 -7 15 6.1
7 1 7 24.5 7.2
7 1 7 15.7 6
7 -1 7 39.2 8.4
-7 -1 -7 40.1 8.3
7 -1 7 22 6.4
-7 -1 -7 19.1 7.7
7 1 8 -7.8 4.5
7 1 8 -2.2 4.7
-7 1 -8 -2.8 4.6
-7 1 -8 -3.9 4
-7 -1 -8 1 5.9
-7 -1 -8 -3.1 4.7
7 -1 8 -2.4 4.4
7 -1 8 -1.8 4.8
-7 1 -9 13.9 6.3
7 1 9 29.6 8.7
7 -1 9 32.1 8.6
-7 -1 -9 29.5 10.2
7 -1 9 27.4 8.2
7 1 10 14.5 7.3
-7 1 -10 7 6.4
-7 -1 -10 20.2 10.4
7 -1 10 13.4 7
7 -1 10 17.9 8
7 1 11 5.2 6.5
-7 1 -11 13.8 8.8
-7 -1 -11 15.2 8.1
7 -1 11 -2.5 6.6
7 1 12 -1.4 7.2
-7 1 -12 10.3 8.7
-7 -1 -12 25.8 11
7 -1 12 8.6 8.6
-7 -2 13 9.7 7.8
7 -2 -13 17.4 9.6
7 -2 -12 6.2 7.3
-7 -2 12 3.7 6
7 2 -11 290.27 18.9
7 -2 -11 289.37 24.2
-7 -2 11 328.47 20.8
7 2 -10 -0.5 4.8
7 -2 -10 0.2 6.7
7 -2 -10 8.9 6.3
-7 -2 10 -4.6 4.6
7 2 -9 243.98 14.8
-7 2 9 232.18 21.5
7 -2 -9 226.08 19.4
-7 -2 9 240.78 15.6
-7 -2 9 204.58 18.5
-7 2 8 8.8 6.1
7 2 -8 18.1 5.2
7 -2 -8 10.9 6.5
-7 -2 8 12.8 6.5
7 -2 -8 5.5 5.3
-7 -2 8 5.5 4.3
-7 2 7 7.3 5.6
7 -2 -7 16 6.8
-7 -2 7 19.3 4.7
7 -2 -7 10.4 5.1
-7 -2 7 8.1 5.5
-7 2 6 69.49 11.3
7 2 -6 59.09 5.7
-7 -2 6 59.79 6
7 -2 -6 75.59 11.1
-7 -2 6 54.69 9.5
7 -2 -6 58.49 8.3
-7 2 5 25.8 6.9
7 2 -5 21.7 3.7
7 -2 -5 11.5 4.5
-7 -2 5 16.8 5.3
-7 -2 5 14 3.4
7 -2 -5 17.1 6.1
7 2 -4 688.23 19.1
-7 -2 4 688.73 19.3
7 -2 -4 710.03 26.9
7 2 -3 209.98 6.6
-7 2 3 226.68 12.9
-7 -2 3 208.28 6.6
7 -2 -3 209.08 12.1
-7 2 2 62.39 6.6
7 -2 -2 63.19 6
-7 2 1 101.49 6.5
7 -2 -1 97.09 6.2
-7 -2 1 82.39 3.9
7 2 0 289.57 10.7
7 2 0 329.07 10.9
-7 2 0 296.67 12.3
-7 2 0 304.37 10.1
7 -2 0 297.17 12.1
-7 -2 0 316.37 11.6
-7 -2 0 292.67 10.3
-7 2 -1 12.1 1.4
7 2 1 15 3.1
-7 2 -1 11.5 1.1
7 2 1 16.4 3.7
-7 2 -1 16.7 3.9
-7 -2 -1 13.4 3.3
-7 -2 -1 7.3 3.3
7 -2 1 12.7 3.8
7 2 2 2.3 2.8
7 2 2 6.5 3.2
-7 2 -2 2.4 3.2
-7 2 -2 5.2 1.5
7 -2 2 4.3 2.8
-7 -2 -2 6.1 3.5
-7 -2 -2 6.2 3.2
7 -2 2 4.9 1
-7 2 -3 874.31 24.6
-7 2 -3 1005.9 31.2
7 2 3 899.71 29.9
7 2 3 895.61 32.7
7 -2 3 896.21 23.9
7 -2 3 957.6 30
-7 -2 -3 939.91 31.4
-7 2 -4 213.08 13
-7 2 -4 207.08 10.3
7 2 4 226.48 13.7
7 2 4 208.58 12.9
-7 -2 -4 239.88 17.1
-7 -2 -4 217.08 12.7
7 -2 4 232.18 13.5
7 -2 4 213.58 10
7 2 5 59.09 9
7 2 5 47.8 8.3
-7 2 -5 38.6 6
-7 2 -5 50.09 8
7 -2 5 61.19 8.5
-7 -2 -5 48.3 7.7
-7 -2 -5 53.49 9.9
7 -2 5 50.09 6
-7 2 -6 101.69 8.9
7 2 6 97.49 10.9
7 2 6 84.89 10
-7 2 -6 108.29 10.7
7 -2 6 106.49 9.2
-7 -2 -6 101.99 13.5
7 -2 6 107.79 10.4
-7 -2 -6 108.19 10.6
7 2 7 16.6 6.5
7 2 7 14 6.2
-7 2 -7 4.1 5
7 -2 7 5.3 5.1
7 -2 7 3.3 4.1
-7 -2 -7 19 7.5
7 2 8 0.3 5.4
7 2 8 10.5 6.3
-7 2 -8 5.3 5.6
-7 2 -8 7.7 5.3
-7 -2 -8 -1.5 5.2
-7 -2 -8 4 6.3
7 -2 8 -3.8 4.1
7 -2 8 0.3 5
7 2 9 8.1 7.8
-7 2 -9 26.8 7.8
7 2 9 16.4 8.3
-7 -2 -9 14.5 8.7
7 -2 9 12.7 7
7 -2 9 24.8 7.7
7 2 10 -7.8 5.4
-7 2 -10 4.6 5.6
-7 -2 -10 -2.2 7
7 -2 10 3 6.4
7 -2 10 13.3 7.6
7 2 11 12.3 7.8
-7 2 -11 4.3 6.6
7 -2 11 0.2 7.1
-7 -2 -11 15.7 9.5
7 -2 11 10.1 7.7
7 2 12 0.7 7.4
-7 -2 -12 -7.4 5.6
7 -2 12 -16.8 5.6
-7 -3 13 5 8.7
7 -3 -13 6.5 7.3
-7 -3 12 -9.2 4.6
7 -3 -12 0.3 5.8
7 3 -11 30.1 7.9
-7 -3 11 20.9 7.2
7 -3 -11 22.4 9.2
7 3 -10 10.1 5.9
7 -3 -10 12.2 7.1
-7 -3 10 7.1 5.7
7 3 -9 210.98 14.1
-7 -3 9 234.18 15.2
-7 -3 9 260.07 20.1
7 -3 -9 231.78 17.7
7 -3 -9 270.47 21.8
-7 3 8 12.3 7.7
7 3 -8 16.1 5.2
-7 -3 8 5.3 6.3
7 -3 -8 7.5 5.4
-7 -3 8 11.2 4.6
7 -3 -8 11.9 7
7 3 -7 8.5 4.3
-7 3 7 6.8 5.7
-7 -3 7 8.4 3.9
7 -3 -7 7.3 5.9
-7 -3 7 4.9 5.7
7 -3 -7 -2 4.6
-7 3 6 8.9 5.7
7 3 -6 5.9 3.2
7 -3 -6 7.7 5.1
-7 -3 6 0.4 2.9
-7 -3 6 4.1 4.7
7 -3 -6 5.7 4.3
7 3 -5 37.8 4.7
-7 3 5 57.99 9.6
7 -3 -5 44.6 8.5
7 -3 -5 54.79 8.4
-7 -3 5 42.7 4.5
-7 3 4 340.37 18.7
7 3 -4 340.47 11.4
-7 -3 4 341.87 11.3
7 -3 -4 334.77 18.3
-7 3 3 223.08 13.5
-7 -3 3 228.58 8
7 -3 -3 225.28 13.6
-7 3 2 57.09 6.7
7 -3 -2 52.19 6.2
-7 -3 2 51.99 3.5
-7 3 1 2.6 2.5
7 -3 -1 2.6 2.6
-7 -3 1 1 1.8
-7 -3 1 12.1 3.1
-7 3 0 267.77 9.8
7 3 0 279.67 10.9
7 -3 0 279.17 9.9
7 -3 0 271.67 12.4
-7 -3 0 275.67 12.1
-7 -3 0 277.57 11.2
-7 3 -1 12.2 3.9
7 3 1 22.8 4.4
-7 -3 -1 12.5 4
7 -3 1 19.6 4.5
-7 -3 -1 16.2 4
-7 3 -2 31.1 5.9
7 3 2 31.9 5.9
7 3 2 26.5 5
7 -3 2 29.8 5.9
-7 -3 -2 44.2 7.1
-7 -3 -2 37.8 6
7 3 3 -0.6 3
-7 3 -3 -1.2 4
7 3 3 -2.6 3.8
-7 -3 -3 2.7 3.6
7 -3 3 0.6 1.2
7 -3 3 -1.5 3.3
7 3 4 225.18 14.4
-7 3 -4 201.58 13
7 3 4 209.08 13.2
-7 -3 -4 217.58 13.3
-7 -3 -4 204.28 14.8
7 -3 4 213.18 13.2
7 -3 4 216.68 9
-7 3 -5 0.7 3.7
7 3 5 1.9 4.4
7 3 5 3.2 3.8
-7 -3 -5 4.6 4.5
7 -3 5 5.1 3
7 -3 5 1 3.8
-7 -3 -5 1.9 4.7
-7 3 -6 49.9 9.2
7 3 6 59.29 10.3
7 3 6 56.49 10.1
-7 -3 -6 39.1 8
7 -3 6 41.1 6.5
-7 -3 -6 57.39 10.8
7 -3 6 52.59 8.6
7 3 7 6.8 6.1
-7 3 -7 -1.2 5.6
7 3 7 -5.3 4.8
7 -3 7 5 4.6
-7 -3 -7 4.3 6.3
-7 -3 -7 6.4 5.1
7 -3 7 -1.6 3.7
7 3 8 4.2 6.5
7 3 8 18.5 7.2
-7 3 -8 6.8 6.6
-7 -3 -8 9.4 7
7 -3 8 12.7 5.8
7 -3 8 24.7 8.2
7 3 9 46.4 11.4
7 -3 9 43.2 11.4
-7 -3 -9 41.7 13.6
7 -3 9 49.1 9.2
7 3 10 40.9 11.3
7 -3 10 53.79 11.4
7 -3 10 34.9 8.3
-7 -3 -10 32.9 11.5
7 3 11 5 8.7
7 -3 11 -1.5 6
-7 -3 -11 2.8 7.1
7 -3 11 5.8 7.6
7 -3 12 0.3 6.7
-7 -3 -12 9.3 8.5
7 -4 -12 5.4 7.2
-7 -4 12 1.9 6.4
7 4 -11 9.2 5.9
-7 -4 11 -5.1 4.4
7 -4 -11 -1.6 6.6
7 4 -10 -0.9 5.2
-7 -4 10 5.3 4.7
7 -4 -10 8.6 6.6
7 4 -9 -2 4.5
7 -4 -9 11 7.4
-7 -4 9 2.5 4.5
-7 -4 9 6.6 7.1
-7 4 8 0.9 6
7 4 -8 18.3 5.3
-7 -4 8 11.9 6.7
7 -4 -8 2.6 5.4
-7 -4 8 8.5 4.4
7 -4 -8 0.3 6.1
-7 4 7 108.59 15.5
-7 -4 7 125.09 9
7 -4 -7 112.29 16
-7 -4 7 99.69 11.3
7 -4 -7 101.79 12
7 4 -6 -3 2.2
-7 4 6 -3.1 4.5
7 -4 -6 0.9 5
-7 -4 6 -3.2 2.3
7 -4 -6 4.5 5.2
-7 -4 6 -0.7 4.2
7 4 -5 271.57 11.2
-7 4 5 246.08 16.9
-7 -4 5 266.07 11.3
7 -4 -5 262.37 17.9
-7 4 4 130.99 12.1
-7 -4 4 155.38 7.8
7 -4 -4 148.19 12.5
-7 4 3 264.67 15.6
-7 -4 3 266.17 10.4
7 -4 -3 272.17 15.6
-7 4 2 1.2 3.3
-7 -4 2 0.2 2.3
7 -4 -2 2.2 3.7
-7 -4 2 -0.5 2.5
-7 4 1 31 5.2
-7 -4 1 40.2 5.6
7 -4 -1 34.3 5.6
-7 4 0 77.79 5.4
7 4 0 69.69 5.9
7 -4 0 66.39 8.2
7 -4 0 74.89 5.8
-7 -4 0 72.29 6.8
-7 -4 0 70.39 7.4
7 4 1 93.99 7.3
-7 4 -1 99.89 3.7
-7 -4 -1 94.59 8.2
-7 -4 -1 106.79 9.4
7 -4 1 90.79 4.7
7 -4 1 95.19 8.4
-7 4 -2 63.69 7.4
7 4 2 84.69 7.7
-7 -4 -2 86.59 8.5
7 -4 2 66.99 8.6
-7 -4 -2 76.79 10
-7 4 -3 1.7 3.3
7 4 3 2.9 3.4
7 -4 3 3.5 4.1
-7 -4 -3 -1.8 3.5
-7 -4 -3 -1 4.1
7 4 4 88.99 9.9
7 4 4 85.39 9.8
-7 4 -4 92.59 9.1
7 -4 4 94.19 9.5
-7 -4 -4 107.39 11.8
-7 -4 -4 104.89 9.9
7 -4 4 93.69 5
7 4 5 4.8 4.3
-7 4 -5 -1.1 3.9
7 4 5 -0.7 4
-7 -4 -5 2.4 4.6
7 -4 5 -0.8 2.2
-7 -4 -5 1 4.9
7 -4 5 3.2 4.2
-7 4 -6 20.6 6.8
7 4 6 14.2 6.5
-7 -4 -6 3.3 6.6
7 -4 6 13.2 5.7
7 -4 6 11.1 4
-7 4 -7 6.5 5.5
7 4 7 8.2 6.2
7 4 7 9.6 6.5
7 -4 7 10.6 6.1
7 -4 7 3.4 3.9
-7 -4 -7 13.1 5.8
-7 -4 -7 3.9 6.6
7 4 8 13.9 9.7
-7 4 -8 18.8 7.7
7 -4 8 15.2 5.6
7 -4 8 18 7.4
-7 -4 -8 23.9 9.5
7 4 9 5.3 7
7 -4 9 3.6 6.1
-7 -4 -9 -1.7 5.6
7 -4 9 7.8 4.9
7 4 10 13.9 7.7
-7 -4 -10 6.1 7.1
7 -4 10 4.6 7.1
7 -4 10 0.5 5.2
7 4 11 -10.3 5.5
-7 -4 -11 3 7.7
7 -4 11 0.2 6.8
7 -4 11 -0.8 6.8
-7 -4 -12 21.9 12.2
7 -4 12 2.7 6.7
-7 -5 12 18.1 6.5
7 -5 -12 22.9 11.1
7 5 -11 2.3 6.1
7 -5 -11 17.1 8.9
-7 -5 11 3.9 5.6
7 5 -10 46.3 8.5
-7 -5 10 32.2 7.3
7 -5 -10 72.89 14.8
7 5 -9 2.6 4.8
-7 -5 9 0.9 4.1
7 -5 -9 -1.6 6.3
-7 -5 9 1 5.9
7 5 -8 154.58 11.1
7 -5 -8 169.08 18.4
-7 -5 8 173.38 11.4
-7 -5 8 156.68 15.1
-7 5 7 1 5
7 5 -7 0.1 3.7
-7 -5 7 6.1 5.6
-7 -5 7 8.7 4
7 -5 -7 9.9 6.7
7 -5 -7 8.7 7.1
-7 5 6 4.2 5.1
7 5 -6 12 4
7 -5 -6 -0.5 5.7
-7 -5 6 0.4 2.8
7 -5 -6 12.2 7
-7 5 5 41.4 9.1
7 -5 -5 76.09 12.3
-7 -5 5 58.89 6.1
-7 5 4 368.86 20.2
7 -5 -4 314.97 19.5
-7 -5 4 346.97 13.7
-7 5 3 35.4 7
-7 -5 3 39.1 5.2
-7 -5 3 40.8 5.9
-7 5 2 26.2 6
7 -5 -2 34 6.6
-7 -5 2 34 5.1
-7 5 1 25.9 4.9
-7 -5 1 25.4 6.7
7 -5 -1 23 5.2
-7 5 0 -0.2 1.9
7 5 0 2 2.4
-7 -5 0 -2.8 3.2
7 -5 0 1.1 2.5
7 -5 0 -3.4 2.9
-7 5 -1 4.1 1.5
7 5 1 0.4 2.6
-7 -5 -1 6 5
-7 -5 -1 10.5 4.4
7 -5 1 2.5 3.8
7 -5 1 5 2.3
7 5 2 8.3 4
7 -5 2 5.4 1.5
-7 -5 -2 6.1 3.8
7 -5 2 -2.1 3.2
-7 -5 -2 -0.4 4.3
7 5 3 148.09 11.1
-7 5 -3 131.39 11
-7 -5 -3 146.69 11.7
-7 -5 -3 161.88 13.9
7 -5 3 146.39 11.8
-7 5 -4 12.1 4.9
7 5 4 12.1 5.2
7 -5 4 8.9 1.5
-7 -5 -4 9.8 6.4
7 -5 4 19.5 6
-7 -5 -4 20.1 6
7 -5 4 16.2 2.1
7 5 5 20.6 7.8
-7 5 -5 2.7 5
-7 -5 -5 10.7 7.1
7 -5 5 15.8 3.2
-7 -5 -5 27.3 6.8
7 -5 5 3.5 4.7
7 5 6 11.7 6.1
7 -5 6 9.2 6
-7 -5 -6 6.3 6
7 -5 6 16.2 4
-7 -5 -6 5.5 7
-7 5 -7 7.5 5.9
7 -5 7 6.2 6
7 -5 7 6.1 3.9
-7 -5 -7 4.9 7.5
7 -5 8 -0.6 6
-7 -5 -8 5.9 7.3
7 -5 9 6 6.1
-7 -5 -9 4.7 8.6
7 -5 9 16.7 6
7 -5 10 -5.1 5
7 -5 10 -6 4.3
-7 -5 -10 -15.4 7.3
7 -5 11 15 8.6
-7 -5 -11 14.7 11.2
7 -5 11 32.2 8.6
7 6 -11 -7.4 5.6
7 -6 -11 -5 5.5
-7 -6 11 -5.3 4.9
7 6 -10 11.6 6.1
-7 -6 10 8.3 4.8
7 -6 -10 7.6 7.4
7 6 -9 17.1 6.2
-7 -6 9 8.4 4.9
-7 -6 9 13.4 7.4
7 -6 -9 4.4 8.3
7 6 -8 -8.4 3.7
7 -6 -8 2 5.9
-7 -6 8 2 6
-7 -6 8 -0.6 3.9
-7 6 7 21.6 9.8
-7 -6 7 0.2 5.1
-7 -6 7 3 4.4
7 -6 -7 -2.6 5.6
-7 6 6 124.49 14.8
7 -6 -6 155.78 15.9
7 -6 -6 155.38 17
-7 -6 6 131.29 9.7
-7 6 5 54.09 11
-7 -6 5 50.39 6.9
7 -6 -5 50.19 10.5
-7 6 4 176.58 14.4
-7 -6 4 195.98 11.5
-7 -6 4 160.78 10.5
7 -6 -4 180.08 15.3
-7 6 3 2.1 3.7
-7 -6 3 -0.1 3
-7 -6 3 -0.3 2.8
7 -6 -3 2.8 4.2
-7 6 2 23 5.9
-7 -6 2 21.7 4.9
-7 -6 2 20.1 5.3
7 -6 -2 27.1 6.4
-7 6 1 2.6 2.9
7 -6 -1 0.6 3.5
-7 -6 1 -1.9 3.2
-7 6 0 48.4 5.4
7 6 0 37 5.5
-7 -6 0 40.2 7.4
7 -6 0 44 7.8
7 -6 0 36 5.8
7 6 1 46.9 7
-7 6 -1 49.99 3.8
7 -6 1 44.9 7.9
7 -6 1 46.6 5.3
-7 -6 -1 37 7.2
-7 -6 -1 41.4 8.6
7 6 2 45 7.2
-7 -6 -2 56.89 9.3
7 -6 2 33.4 7.3
-7 -6 -2 49.5 9.6
7 -6 2 38.4 4.1
7 6 3 36.3 7.3
7 -6 3 31.6 7.6
7 -6 3 44.1 3
7 -6 3 41.5 3.2
-7 -6 -3 54.09 9.8
-7 -6 -3 51.99 10.2
-7 6 -4 0 5.6
7 6 4 8.9 5.8
7 -6 4 -0.7 4.1
-7 -6 -4 3.7 4.8
-7 -6 -4 -2.6 5.6
7 6 5 44.5 9.2
-7 -6 -5 51.29 11.9
-7 -6 -5 43.7 9.4
7 -6 5 33.3 3
7 -6 5 40.3 8.8
7 -6 5 32 3.5
-7 6 -6 -4.7 4.8
7 -6 6 3.5 2.7
-7 -6 -6 -0.2 6.7
7 -6 6 5.3 5.6
7 -6 6 -3.5 1.5
7 -6 7 3.1 3.2
7 -6 7 -1 5.1
7 -6 8 4.9 6.4
-7 -6 -8 13.3 9.1
7 -6 8 9.2 4.1
-7 -6 -9 6.9 8
7 -6 9 0.6 6.5
7 -6 9 -1.9 3.7
7 -6 10 25.1 6.2
-7 -6 -10 4.5 9.5
7 -6 10 40.2 10.2
7 -6 11 5.4 7.8
7 7 -11 3 8.3
-7 -7 11 19.2 7.7
7 -7 -11 -1.4 8.8
-7 -7 10 -7.1 4.1
7 -7 -10 -9.6 5.3
-7 -7 9 9.3 7.1
7 -7 -9 -7.3 6.6
-7 -7 9 10.2 5.4
-7 -7 8 -6 3.5
7 -7 -8 20.8 9.2
-7 -7 8 -1.4 6.1
-7 -7 7 44.9 7.4
7 -7 -7 41.3 12.2
-7 7 6 6.1 6.2
-7 -7 6 3.3 4.2
-7 -7 6 8.1 4.3
7 -7 -6 13.9 8.1
-7 7 5 8.6 7.6
-7 -7 5 27.7 6.1
7 -7 -5 21.6 8
-7 7 4 19.5 7.1
-7 -7 4 11.1 4.8
-7 -7 4 15.8 5.1
7 -7 -4 19.7 8.2
-7 7 3 -2.3 4.7
-7 -7 3 6.1 3.7
7 -7 -3 1.7 4.6
-7 -7 3 5.5 4.3
-7 7 2 16.3 5.6
-7 -7 2 18.7 5.9
-7 -7 2 12.3 5.6
7 -7 -2 19.5 6.5
-7 7 1 3.9 3.6
-7 -7 1 5.1 4.1
7 -7 -1 7.5 4.8
7 -7 -1 -0.4 3.8
-7 7 0 2 2.6
7 7 0 0.7 3
-7 -7 0 5.4 4.9
7 -7 0 2.9 4.6
7 -7 0 5.9 3.9
7 7 1 0.7 3.6
7 -7 1 1.8 4.5
7 -7 1 3.1 2.9
-7 -7 -1 -6 4.7
-7 -7 -1 3.6 5
7 7 2 8.5 4.4
-7 -7 -2 -7.4 4.5
-7 -7 -2 2.1 4.8
7 -7 2 6.1 3
7 -7 2 6.7 5.1
7 7 3 4.4 4.3
7 -7 3 13.4 3
7 -7 3 10.3 5.8
-7 -7 -3 31.8 8.8
-7 -7 -3 18 8.4
7 7 4 9.9 5.5
-7 -7 -4 4.4 7.3
7 -7 4 6 1.9
-7 -7 -4 7.6 6.8
7 -7 4 11.3 7.1
7 -7 4 10.3 2
-7 7 -5 -8.1 4.7
7 -7 5 -5.9 4.8
-7 -7 -5 -1.6 6.1
-7 -7 -5 1.6 6.7
7 -7 6 3.5 2.1
7 -7 6 2.4 5.7
7 -7 6 1.7 1.7
-7 -7 -6 -3.2 6.2
7 -7 7 -3.7 2.4
-7 -7 -7 5.1 7.7
7 -7 7 3.7 2.2
7 -7 7 -6.3 5.9
7 -7 8 12.5 3.6
7 -7 8 17.8 7.7
7 -7 8 11.4 3
-7 -7 -8 6.3 7.8
-7 -7 -9 1.9 8
7 -7 9 11 7.7
7 -7 9 1 3.5
7 -7 10 -1.3 7.7
-7 -7 -10 13.5 11.6
-7 -8 10 -4.3 4.8
-7 -8 9 5.2 4.8
7 -8 -9 -0.2 8.2
7 -8 -8 5.5 8.7
-7 -8 8 30 6.6
-7 -8 8 18.8 7.7
-7 -8 8 35.4 7.2
-7 -8 7 6.7 5
-7 -8 7 14.2 5
7 -8 -7 5.1 8
-7 -8 6 16 5.7
-7 -8 6 23.3 6.4
-7 8 5 215.48 18
-7 -8 5 195.98 13.9
-7 -8 5 234.98 14.5
7 -8 -5 229.38 20.1
-7 -8 4 117.79 10.4
-7 -8 4 99.99 10.6
7 -8 -4 93.29 14.3
-7 8 3 10.1 6
-7 -8 3 10.3 3.9
7 -8 -3 12.6 7.3
-7 -8 3 -5 4.4
-7 8 2 8 4.8
-7 -8 2 2.3 5.4
7 -8 -2 10.4 6
-7 -8 2 14.6 5.2
-7 8 1 3.3 3.7
7 -8 -1 3 5.4
7 -8 -1 1.7 4.4
-7 -8 1 7.3 6.1
-7 8 0 -1.1 2.8
7 8 0 1.1 2.9
-7 -8 0 10 7
7 -8 0 5 5.4
7 -8 0 3 4
7 8 1 16.2 4.8
-7 -8 -1 18.9 8.9
7 -8 1 8.4 4.5
-7 -8 -1 13.8 6.3
7 -8 1 19.6 6.8
7 8 2 93.29 10.2
7 -8 2 85.49 12.6
-7 -8 -2 96.29 15.1
7 -8 2 79.59 7.4
7 8 3 73.69 11
7 -8 3 80.29 11.8
-7 -8 -3 69.49 14.6
-7 -8 -3 88.69 13
7 -8 3 84.19 6.2
7 -8 4 92.39 5.2
7 -8 4 78.09 12.5
7 -8 4 82.29 4.8
-7 -8 -5 -2.5 7.9
7 -8 5 4.3 5.6
7 -8 6 9.7 7.1
-7 -8 -6 9.7 8.9
7 -8 7 3.1 5.9
-7 -8 -7 -7 6.9
-7 -8 -8 4.9 9.3
-7 -8 -9 22.7 15.6
7 -8 9 18 8.9
7 -8 9 6.4 2.1
7 -8 9 8.1 2.4
7 -9 -9 -6.5 7.4
-7 -9 9 -1.3 4.5
-7 -9 9 -1 5.1
-7 -9 8 6.5 5.4
-7 -9 8 12.6 6.1
7 -9 -8 8.5 8.3
-7 -9 7 -2.6 5.1
7 -9 -7 -5.8 8
-7 -9 7 -0.7 4.5
-7 -9 6 3.6 5.3
7 -9 -6 -1.7 7.2
-7 -9 6 -11.3 3.9
-7 -9 5 0.7 5.4
7 -9 -5 0.8 6
-7 -9 5 -5.6 3.7
-7 9 4 8 6.3
-7 -9 4 -7.7 3.5
-7 -9 4 13.4 6.2
7 -9 -4 3.4 6
-7 9 3 -5.2 5.4
-7 -9 3 -5.6 4.3
7 -9 -3 5.6 6.3
-7 -9 3 -3 4
-7 9 2 2.1 4.1
-7 -9 2 13.2 7.3
-7 -9 2 -1.9 4.4
7 -9 -2 11.3 6
-7 9 1 37.8 6.7
7 -9 -1 33.5 7.8
-7 -9 1 28.8 7.4
7 -9 -1 38.1 11.5
-7 -9 1 51.29 10.9
-7 9 0 -1.6 2.8
7 -9 0 -6.3 3.3
-7 -9 0 3.7 7.5
7 9 1 38.1 7.3
7 -9 1 42 7.2
-7 -9 -1 28.5 9.8
-7 -9 -1 29.9 8.9
7 -9 2 23.8 5.4
-7 -9 -2 12.6 7.7
-7 -9 -2 15.5 9.1
-7 -9 -3 5.6 8.6
7 -9 3 2.4 6.4
7 -9 3 5 3.9
7 -9 4 6.6 2.3
-7 -9 -4 5.7 8.6
7 -9 4 8.9 7.6
7 -9 4 4.1 2.2
7 -9 5 0.8 6.5
-7 -9 -5 -5.3 6.6
7 -9 6 3.9 7
-7 -9 -6 0.6 7.9
-7 -9 -7 15.1 11.7
7 -9 7 -6.7 7.2
-7 -9 -8 21 14.2
7 -9 8 8.1 8
7 -10 -7 -4 6.8
-7 -10 7 -5.8 4.8
-7 -10 7 -1.3 5.9
-7 -10 6 1.3 5.9
7 -10 -6 2.6 8.4
-7 -10 6 -8.5 4.5
-7 -10 5 5.3 5.5
7 -10 -5 2.3 7.4
-7 -10 5 0.7 5.3
7 -10 -4 26.2 9.7
-7 -10 4 19.6 6.6
-7 -10 4 24.6 8
-7 10 3 11.3 6.6
7 -10 -3 25.9 9.3
-7 -10 3 5.3 5.9
-7 -10 3 11.1 8.3
-7 10 2 5.9 5.8
7 -10 -2 8.5 6.3
7 -10 -2 4.8 5.6
-7 -10 2 4.1 6.6
-7 -10 2 5.5 5.7
-7 10 1 4.3 4.2
7 -10 -1 0.2 4.5
-7 -10 1 10 6
-7 -10 1 -14.5 4.8
7 -10 -1 4.2 5.9
-7 10 0 2.4 3
7 -10 0 3.9 6.2
7 -10 0 -5.5 3.7
-7 -10 0 9.3 10.9
7 -10 1 17.6 8
-7 -10 -1 15.5 10.4
7 -10 1 12.4 5.8
7 -10 2 -1.9 5.8
7 -10 2 10.1 4.7
-7 -10 -2 13.8 9.7
7 -10 3 39.9 7
7 -10 3 13.1 8.9
-7 -10 -3 56.49 13.7
-7 -10 -4 20.6 10.4
7 -10 4 22 8.9
7 -10 4 14.1 2.9
7 -10 4 20 3.4
7 -10 5 8 7.1
-7 -10 -5 -4.7 7.9
7 -10 6 2.8 6.4
-7 -10 -6 0 8.5
-7 -10 -7 1.4 9.7
7 -10 7 -16.2 6.8
-7 -11 6 -8.5 5.9
7 -11 -6 4.8 9.2
-7 -11 6 3.4 6.9
-7 -11 5 0.6 6.5
-7 -11 5 1.1 6.2
7 -11 -5 6.4 8.2
-7 -11 4 7.7 6
-7 -11 4 11.3 9.2
7 -11 -4 9.4 8.3
-7 -11 3 -3.4 6
-7 -11 3 5.1 6.2
7 -11 -3 -4.1 6.4
-7 11 2 9.8 5.2
7 -11 -2 2.3 6.7
7 -11 -2 8.3 6.8
-7 -11 2 -5.4 4.7
-7 -11 2 13.8 8.4
-7 11 1 36.4 8.3
-7 -11 1 29.9 10.2
-7 -11 1 42.6 11.8
7 -11 -1 25.5 9.4
7 -11 -1 36.9 8.8
7 -11 0 6.4 4.8
7 -11 0 -1.1 6.4
-7 -11 0 0.7 7.6
7 -11 1 33.5 7.7
-7 -11 -1 20.1 11.2
7 -11 1 35.3 10.4
7 -11 2 3.5 7.3
-7 -11 -2 27.6 11.1
7 -11 3 4.2 7.1
-7 -11 -3 2.3 8.3
7 -11 3 1.4 4.8
7 -11 4 12.7 8.3
-7 -11 -4 1.4 11.7
-7 -11 -5 2.3 8.2
7 -11 5 9.4 7.4
-7 -12 2 48 10.6
-7 -12 2 22.2 10.9
7 -12 -1 6.7 9.1
-7 -12 1 8.6 7
-7 -12 1 1.2 9
7 -12 -1 19.9 7.8
-7 -12 0 0.2 8.7
-7 -12 0 -7.1 6.5
7 -12 0 3.2 6.3
7 -12 0 3 6.5
7 -12 1 1.7 6.1
-7 -12 -1 3.5 9.9
7 -12 1 10.2 8.7
-7 -12 -2 39.9 12.1
7 -12 2 41.1 9.1
8 0 -11 1.8 5.4
8 0 -10 189.68 15.4
8 0 -9 2.1 4.4
-8 0 9 1 7.2
8 0 -8 32.6 6.4
-8 0 8 11.1 6.3
8 0 -7 -2.5 2.6
-8 0 7 -5.5 3.7
8 0 -6 5.1 3.3
-8 0 6 0.3 4.2
8 0 -5 -1 2.5
-8 0 5 2.6 4.4
8 0 -4 178.28 8.8
-8 0 4 176.38 14.4
-8 0 3 2 2.9
-8 0 1 0.6 2.1
8 0 -1 0.9 1.9
-8 0 0 11.5 3.2
8 0 0 9.8 3.1
-8 0 -1 -0.2 2.4
8 0 1 0.6 2.4
-8 0 -1 -1.8 2
8 0 1 -1.3 1.5
8 0 2 364.56 12.5
-8 0 -2 378.96 14.6
8 0 2 396.96 14.9
-8 0 -2 365.66 13.5
-8 0 -3 2.1 2.5
-8 0 -3 -1.9 2.8
8 0 3 -2.8 2.2
8 0 3 3.2 3.1
-8 0 -4 4.2 4.2
8 0 4 1.7 2.8
-8 0 -4 2.7 3.8
-8 0 -5 -0.7 3.7
8 0 5 -4.3 2.4
-8 0 -5 -8 2.5
8 0 5 -0.7 3.3
8 0 6 61.59 8.7
8 0 6 44 7.9
-8 0 -6 44.3 8.6
-8 0 -6 41.3 7.9
8 0 7 1.7 4.1
-8 0 -7 -2.9 4.3
8 0 7 3.3 4.9
-8 0 -7 2 4.8
-8 0 -8 60.09 10.7
8 0 8 65.79 11.1
-8 0 -8 62.09 11.4
8 0 8 77.09 12.4
8 0 9 -11.5 4.3
-8 0 -9 -2.5 5.4
8 0 10 8.3 7.1
-8 0 -10 9.6 7.3
8 0 11 2.7 6.6
-8 0 -11 -10.4 4.8
-8 0 -12 -10.6 6.5
8 0 12 -4.5 7.3
-8 -1 12 17.5 7.4
8 1 -11 146.69 13.4
8 -1 -11 89.49 15.2
-8 -1 11 140.79 14.2
8 1 -10 11.8 5.5
8 -1 -10 6.6 6.8
8 -1 -10 5.8 6.1
-8 1 9 11 6.9
8 1 -9 7.2 5
-8 -1 9 14.2 8
-8 -1 9 4.1 5.1
8 -1 -9 -1.4 5
8 -1 -9 4.9 6.7
8 1 -8 16.4 5.1
-8 -1 8 26.3 6.5
-8 -1 8 11.7 7
8 -1 -8 19.2 6
8 -1 -8 27.4 8.6
8 1 -7 1.9 3.4
-8 1 7 3 4.8
-8 -1 7 -4.5 4.3
8 -1 -7 3.7 3.6
-8 -1 7 -1.5 3.2
8 -1 -7 -3.2 3.7
-8 1 6 85.59 12.2
8 1 -6 83.19 6.5
-8 -1 6 90.89 7.9
-8 -1 6 94.09 10.9
8 -1 -6 94.49 8.5
8 -1 -6 86.09 10.2
8 1 -5 157.98 8.1
-8 1 5 167.08 13.4
-8 -1 5 167.48 12.6
8 -1 -5 171.78 12.6
-8 -1 5 163.88 9.1
8 -1 -5 165.08 10.7
8 1 -4 433.26 13.3
8 -1 -4 429.96 16.8
8 -1 -4 445.46 19.4
-8 1 3 2.9 3.1
8 1 -3 2.9 1.3
8 -1 -3 0.3 2.7
-8 1 2 377.66 15.2
8 1 -2 385.66 9.4
8 1 -1 160.38 5.5
-8 -1 1 170.28 5.8
8 -1 -1 166.68 7.9
8 1 0 -0.1 2
-8 1 0 -1.1 2.4
-8 -1 0 1.3 1.9
8 -1 0 -1.9 2.3
-8 -1 0 2.4 2.2
8 1 1 267.27 10
-8 1 -1 278.67 8.5
-8 1 -1 255.87 11.5
8 1 1 264.17 10.7
-8 -1 -1 293.27 11.3
-8 -1 -1 265.57 10.7
8 1 2 3 2.5
8 1 2 -1.1 2.5
-8 1 -2 0.9 2.7
-8 1 -2 -1.5 1.6
8 -1 2 1 2.7
8 -1 2 2.4 1.5
-8 -1 -2 -0.4 2.3
-8 -1 -2 -3.2 2.6
8 1 3 66.89 7
8 1 3 70.39 6.4
-8 1 -3 62.69 5.8
-8 -1 -3 67.29 6.9
-8 -1 -3 71.49 8.1
8 -1 3 65.79 5.2
8 -1 3 67.49 7
-8 1 -4 18.4 5.1
-8 1 -4 22.4 4.9
8 1 4 12.1 5.7
-8 -1 -4 17.5 5.2
8 -1 4 12.3 3.7
8 -1 4 16.5 6.1
-8 -1 -4 15.5 5.7
8 1 5 4.8 4.1
-8 1 -5 4.9 4.3
8 1 5 8.1 4.5
-8 1 -5 5 4
-8 -1 -5 2.3 3.7
8 -1 5 5.8 3.7
-8 -1 -5 11 6.1
8 -1 5 9.2 4.5
8 1 6 -2.8 3.4
8 1 6 3.6 4
-8 1 -6 0 3.5
-8 1 -6 -3.1 3.2
-8 -1 -6 3.1 4.8
8 -1 6 5.6 4.7
8 -1 6 5.5 4
-8 -1 -6 14.2 5.5
-8 1 -7 21.2 6.6
-8 1 -7 12.2 5.5
8 1 7 17.7 6.6
-8 -1 -7 11.6 6.1
8 -1 7 16.8 6.1
-8 -1 -7 10.8 10.9
8 -1 7 18.3 6.5
-8 1 -8 29.2 8.4
-8 1 -8 47.5 9
8 1 8 38.6 9.1
8 1 8 45.2 9.7
-8 -1 -8 25.7 9.1
8 -1 8 40.5 8.7
8 -1 8 30.7 8.6
-8 -1 -8 38.4 9.2
8 1 9 -13.3 4.8
8 1 9 4.1 5.3
-8 1 -9 -4.5 5.3
-8 -1 -9 1.9 6.7
8 -1 9 -12.1 4.5
8 -1 9 -4.4 5.3
-8 1 -10 84.49 13.3
8 1 10 90.69 14.7
8 -1 10 96.49 13.4
8 -1 10 94.29 15
8 1 11 31.4 10.4
-8 1 -11 21 10.7
-8 -1 -11 18.2 8.3
8 -1 11 20.3 9.3
-8 1 -12 23 9
8 1 12 4.8 7.9
-8 -1 -12 -5.6 6.7
8 -1 12 -6.9 7.1
-8 -2 13 -4.7 6.3
-8 -2 12 -8.5 5.4
8 -2 -12 1.1 6.4
8 2 -11 -9.4 5.4
8 -2 -11 -5.1 4.9
-8 -2 11 -9.6 4.9
8 2 -10 47.6 8.5
-8 -2 10 61.39 9.7
8 -2 -10 54.99 10.6
8 -2 -10 38.1 10.2
8 2 -9 117.39 10.6
-8 2 9 80.89 17.5
-8 -2 9 109.49 10.9
8 -2 -9 104.39 15.5
-8 -2 9 62.29 12.4
-8 2 8 54.89 11.5
8 2 -8 50.09 7.4
-8 -2 8 50.49 10.6
8 -2 -8 53.59 9.3
8 -2 -8 45.7 10.2
8 2 -7 22.7 4.9
-8 2 7 14.9 7.4
-8 -2 7 14.8 4.8
-8 -2 7 27.4 8
8 -2 -7 10.9 6.2
8 -2 -7 22.1 6.5
8 2 -6 148.09 8.3
-8 2 6 168.48 14.5
-8 -2 6 139.69 12.3
8 -2 -6 135.19 11
-8 -2 6 139.39 8.8
8 -2 -6 141.89 12.9
-8 2 5 107.59 11.2
8 2 -5 106.69 6.3
-8 -2 5 120.09 10.6
8 -2 -5 123.39 11.6
-8 -2 5 101.69 6.5
8 -2 -5 108.19 9.7
-8 2 4 3400.36 84.19
8 2 -4 2667.53 70.79
-8 -2 4 3286.27 71.89
-8 2 3 419.46 18.4
8 2 -3 390.36 9.8
-8 -2 3 373.86 10
8 -2 -3 424.16 17.7
-8 2 2 520.25 19.2
8 -2 -2 492.85 18.3
-8 2 1 82.09 6.1
8 -2 -1 89.79 6.4
-8 -2 1 79.59 3.7
-8 2 0 76.69 6.3
8 2 0 85.49 5.5
-8 2 0 84.49 4.9
8 -2 0 92.89 6.6
-8 -2 0 84.09 6
-8 -2 0 76.29 5
8 2 1 59.19 5.6
-8 2 -1 58.79 2.6
-8 2 -1 72.99 6.3
8 2 1 67.39 5.2
-8 -2 -1 64.79 5.9
-8 -2 -1 58.79 5
8 -2 1 58.69 6.1
8 2 2 535.05 18.8
8 2 2 555.04 19.9
-8 2 -2 531.65 20.1
-8 2 -2 527.45 14.6
-8 -2 -2 543.25 19.1
-8 -2 -2 541.15 20.5
8 -2 2 658.43 21.1
8 2 3 211.48 11.9
8 2 3 226.08 12.8
-8 2 -3 220.58 9.1
-8 2 -3 211.28 12.6
-8 -2 -3 235.68 12.5
-8 -2 -3 218.78 13.4
8 -2 3 216.18 8
8 -2 3 221.08 12.6
8 2 4 27.8 5.9
8 2 4 22.7 5.9
-8 2 -4 14.5 5.1
-8 2 -4 22.1 4.4
8 -2 4 20.1 3.9
8 -2 4 30.5 6.3
-8 -2 -4 19.7 5.3
-8 -2 -4 15.4 7.1
8 2 5 48.7 8.3
8 2 5 48.6 8.4
-8 2 -5 52.39 6.4
-8 2 -5 47.1 8.1
8 -2 5 47.2 7.8
-8 -2 -5 51.69 9.7
-8 -2 -5 40.5 7.4
8 -2 5 46.4 5.7
8 2 6 5 4.6
-8 2 -6 9.6 4.1
8 2 6 7.4 4.8
-8 2 -6 2.2 4.5
8 -2 6 0.9 3.6
-8 -2 -6 -1.8 3.3
8 -2 6 0.1 3.6
-8 -2 -6 5.8 5.4
8 2 7 5.5 5.6
-8 2 -7 -5.8 4
8 2 7 -3.2 4.2
-8 -2 -7 -2.2 4.4
8 -2 7 4.9 4.8
-8 -2 -7 7.9 6.1
8 2 8 7.5 6.9
8 2 8 4.9 6.4
-8 2 -8 7.2 6.6
-8 2 -8 22.1 6.8
-8 -2 -8 9.4 7.6
-8 -2 -8 8.4 6.4
8 -2 8 5 5.6
8 -2 8 19.5 6.1
8 2 9 2.2 6.2
-8 2 -9 0.3 4.7
-8 -2 -9 1.8 6.2
-8 2 -10 27.8 8
8 2 10 18.7 8.9
8 -2 10 8.9 6.9
-8 -2 -10 31.1 10.7
8 2 11 35.2 11.3
-8 2 -11 33.9 10.3
8 -2 11 46.6 11.6
-8 -2 -11 66.99 14.7
8 -2 11 43.2 9.7
8 2 12 19.9 10.8
-8 -2 -12 13.5 9.2
8 -2 12 3.8 7.8
8 -3 -13 -3.7 6.4
-8 -3 13 -1.2 7.4
8 3 -12 13.5 7
-8 -3 12 2.3 6.6
-8 -3 11 5.4 6.3
8 -3 -11 -7.5 4.7
8 3 -10 3.6 5
-8 -3 10 1.8 5
8 -3 -10 23 9
8 3 -9 -1.2 4.3
8 -3 -9 10.6 7.8
-8 -3 9 -0.4 3.9
8 -3 -9 2.7 6
-8 -3 9 -13.1 4.6
8 3 -8 32.9 6.1
-8 3 8 36.6 9.8
-8 -3 8 23.6 5.8
8 -3 -8 29.3 7.9
-8 -3 8 44.7 9.7
8 -3 -8 20.3 7.9
-8 3 7 2.2 5.5
8 3 -7 -0.5 2.8
-8 -3 7 4.2 5.4
-8 -3 7 -1.1 2.9
8 -3 -7 0.2 4.2
8 -3 -7 5.4 5.2
-8 3 6 4.8 5.3
8 3 -6 12.8 3.6
8 -3 -6 10.9 5.4
8 -3 -6 13.3 5.1
-8 -3 6 5.4 2.9
-8 -3 6 5.5 3.9
-8 3 5 7.7 5.1
8 3 -5 7.2 2.6
8 -3 -5 11.5 5.7
-8 -3 5 11.5 2.9
8 -3 -5 16.5 5.7
8 3 -4 39.3 3.6
-8 3 4 47.7 8.3
-8 -3 4 38.4 3.5
8 -3 -4 37 7.6
-8 3 3 283.27 15.4
8 -3 -3 311.37 15.8
-8 -3 3 301.57 9.1
-8 3 2 17.3 4.8
8 -3 -2 20 4.7
-8 -3 2 17.3 2.3
-8 3 1 7.3 3.1
-8 -3 1 8.9 2.4
8 -3 -1 6.8 3.5
8 -3 -1 7.9 3
-8 -3 1 10.2 3.2
-8 3 0 76.89 5.1
8 3 0 87.29 5.7
8 -3 0 75.69 4.7
-8 -3 0 73.89 5.7
-8 -3 0 75.89 6.7
8 -3 0 83.49 7.1
8 3 1 54.19 6.7
8 3 1 54.09 7.2
-8 -3 -1 42.1 5.7
-8 -3 -1 42.6 6.2
8 -3 1 42.9 6.5
-8 3 -2 141.89 10
8 3 2 130.59 9.8
8 3 2 135.19 9
-8 -3 -2 121.39 10.2
8 -3 2 121.89 9.6
-8 -3 -2 114.99 8.7
8 3 3 98.69 8.5
-8 3 -3 81.79 8.5
8 3 3 120.89 10.4
-8 -3 -3 93.99 10
-8 -3 -3 100.99 8.7
8 -3 3 85.39 8.6
8 -3 3 83.49 2.9
8 3 4 -6.2 2.6
8 3 4 -2.9 3.1
-8 3 -4 1.2 3.9
8 -3 4 1.9 3.6
8 -3 4 -0.7 1.6
-8 -3 -4 -6.5 3.2
-8 -3 -4 7.6 4.5
8 3 5 312.67 18.5
-8 3 -5 348.77 18.3
8 3 5 323.07 17.7
-8 -3 -5 340.37 20.5
-8 -3 -5 312.57 17.2
8 -3 5 314.57 13
8 -3 5 316.07 17.2
8 3 6 68.59 11.3
-8 3 -6 75.39 7.3
-8 3 -6 72.29 10.9
8 3 6 85.89 11.8
8 -3 6 73.19 7.2
-8 -3 -6 64.09 11.8
8 -3 6 71.89 10
-8 -3 -6 69.19 10
-8 3 -7 75.29 8.2
-8 3 -7 58.59 10.4
8 3 7 69.79 12.5
8 3 7 86.29 12.1
-8 -3 -7 97.49 12.9
-8 -3 -7 98.19 15.2
8 -3 7 66.89 10.4
8 3 8 33.8 9.5
-8 3 -8 25.3 8.6
8 3 8 35.5 9.9
8 -3 8 36.8 7
-8 -3 -8 22.8 9.6
8 -3 8 19.4 7.4
8 3 9 24.2 10.1
8 -3 9 31.7 9.6
-8 -3 -9 10.4 7.5
8 -3 9 9.6 5.9
8 3 10 -0.9 6.4
-8 -3 -10 16.3 9.1
8 -3 10 -3.4 5.8
8 -3 10 -6.1 5.2
8 3 11 39.6 12.1
-8 -3 -11 40.4 13.6
8 -3 11 49.3 9.2
8 -3 11 32.7 9.7
8 3 12 -2.9 8.8
-8 -3 -12 -8 7.1
8 -3 12 7 8
8 4 -12 15.4 6.9
8 -4 -12 -4.3 7.1
-8 -4 12 -13.4 4.9
8 4 -11 -6.7 6.1
-8 -4 11 0.5 4.7
8 -4 -11 1 6.9
8 4 -10 5.8 5
-8 -4 10 -4.2 4
8 -4 -10 10.9 7.2
8 4 -9 4.1 4.6
-8 -4 9 -9.8 4.9
8 -4 -9 1.7 5.4
-8 -4 9 2 4.2
-8 4 8 5.1 6.7
8 4 -8 -0.7 3.8
-8 -4 8 -1.5 5.3
-8 -4 8 3.1 3.7
8 -4 -8 -1.1 6.5
8 -4 -8 6.1 5.8
8 4 -7 66.69 7.5
-8 4 7 95.29 14.5
-8 -4 7 79.79 7.4
8 -4 -7 71.09 12.9
8 -4 -7 97.69 13.2
-8 -4 7 75.39 11.5
8 4 -6 5.8 3.3
-8 4 6 4.2 4.7
8 -4 -6 2.2 4.7
-8 -4 6 2.9 2.6
8 -4 -6 7.7 5.8
-8 4 5 147.19 13.1
8 4 -5 134.99 7.5
8 -4 -5 157.18 14.1
-8 -4 5 140.79 7.4
-8 4 4 117.99 11.3
-8 -4 4 140.69 6.9
8 -4 -4 127.49 11.7
-8 4 3 277.57 16
-8 -4 3 278.27 10.2
8 -4 -3 286.77 16.1
-8 4 2 299.07 14.9
-8 -4 2 276.67 12.3
8 -4 -2 302.47 15.1
-8 -4 2 275.07 10.4
-8 4 1 9 3.7
-8 -4 1 16.6 4.4
8 -4 -1 11 3.9
8 4 0 238.88 11
-8 4 0 249.97 9.8
8 -4 0 245.48 10.2
-8 -4 0 251.27 13
8 -4 0 245.08 13.5
-8 -4 0 227.28 11.4
-8 4 -1 236.18 6.3
8 4 1 217.98 11.2
-8 -4 -1 219.88 11.9
8 4 2 59.89 6.8
-8 4 -2 56.19 7.7
8 -4 2 66.39 8.5
-8 -4 -2 64.49 7.3
-8 -4 -2 80.79 9.4
-8 4 -3 40.7 6.9
8 4 3 40.5 6.8
-8 -4 -3 41.5 8.1
-8 -4 -3 45 7.7
8 -4 3 29.8 6.7
-8 4 -4 48.2 8
8 4 4 50.89 9.1
8 4 4 49.99 8
8 -4 4 56.19 8.8
8 -4 4 57.69 3
-8 -4 -4 61.39 9
-8 -4 -4 55.59 10.2
8 4 5 0.2 3.8
8 4 5 0.5 4.4
-8 4 -5 6.2 5.1
-8 -4 -5 -4.3 3.7
8 -4 5 4.8 5
-8 -4 -5 -0.3 4
8 -4 5 0.3 2.1
-8 4 -6 -0.3 4.7
8 4 6 -6.1 4.1
8 4 6 -2.3 4.7
8 -4 6 1.2 2.9
8 -4 6 1.4 4.5
-8 -4 -6 -0.4 6.7
-8 -4 -6 -3.9 4.3
8 4 7 36.9 9
-8 4 -7 57.09 10.5
8 4 7 44.5 10.6
8 -4 7 42 6.7
-8 -4 -7 56.19 12.9
-8 -4 -7 49.99 9.7
8 -4 7 48.9 9.8
8 4 8 10.8 6.9
8 -4 8 2.4 6.2
8 -4 8 -0.9 3.8
8 4 9 15.9 8.4
-8 -4 -9 37.4 10.5
8 -4 9 19.5 8.8
8 -4 9 34.8 7.1
8 4 10 -5 5.3
8 -4 10 -4 4.6
8 -4 10 -6.4 5.5
-8 -4 -10 4.1 7.7
8 4 11 3.4 8.1
8 -4 11 2.9 6.7
-8 -4 -11 2.2 7.5
8 5 -12 12.7 7.7
-8 -5 12 6.9 6.8
8 -5 -12 -0.5 8
8 -5 -11 -0.6 7.2
-8 -5 11 12.8 6.2
8 5 -10 33.6 7.1
8 -5 -10 27.3 9.6
-8 -5 10 22.9 6.2
8 5 -9 39.3 7
8 -5 -9 35 10.8
-8 -5 9 21 8.3
-8 -5 9 33.6 6.5
8 5 -8 7.3 4.6
8 -5 -8 7.5 7
-8 5 7 159.48 16.1
-8 -5 7 164.18 10.3
8 -5 -7 180.78 17.5
-8 -5 7 148.39 14
8 -5 -7 150.78 14.7
-8 5 6 23.2 7.9
8 5 -6 17.9 4.3
8 -5 -6 34 9.5
8 -5 -6 18.4 7.9
-8 -5 6 13.4 4.1
-8 5 5 249.28 17.8
8 -5 -5 262.77 18.4
-8 -5 5 253.97 11.4
-8 5 4 296.67 18
-8 -5 4 257.97 11.1
8 -5 -4 235.58 16.9
-8 5 3 67.79 9.6
8 -5 -3 68.09 11.4
-8 -5 3 80.49 6.1
-8 -5 3 69.59 7
-8 5 2 -1 3.1
8 -5 -2 1.3 3.7
-8 -5 2 -2.2 2.6
-8 -5 2 1 2.3
-8 5 1 35.6 5.5
8 -5 -1 36.1 6.1
-8 -5 1 41.5 6.8
-8 5 0 -0.4 2
8 5 0 2.9 2.5
8 -5 0 1.2 2.5
-8 -5 0 2.5 3.6
8 -5 0 0.5 3.4
-8 -5 0 0 2.9
-8 5 -1 99.99 4.2
8 5 1 83.29 7.7
-8 -5 -1 104.99 9.2
-8 -5 -1 80.59 9.3
8 -5 1 103.39 9.4
8 -5 1 89.79 5.4
-8 5 -2 49.9 8.1
8 5 2 58.59 7.8
-8 -5 -2 53.69 9.1
-8 -5 -2 43.1 7.4
8 -5 2 46.5 7.9
8 5 3 111.59 9.9
-8 5 -3 111.29 10.5
8 -5 3 126.79 11.2
-8 -5 -3 117.39 12.2
-8 -5 -3 110.09 10.4
8 5 4 227.78 14.8
-8 5 -4 220.68 14.6
8 -5 4 194.48 14.2
-8 -5 -4 219.28 17.5
-8 -5 -4 213.38 14.9
8 5 5 81.49 13
-8 5 -5 63.79 9.9
-8 -5 -5 64.89 12.1
8 -5 5 69.69 4.2
8 -5 5 76.59 11.1
-8 -5 -5 89.99 12.8
8 5 6 28.7 8.1
-8 5 -6 38.4 9
-8 -5 -6 24.1 9.8
8 -5 6 33.8 4.5
8 -5 6 28.5 7.2
-8 -5 -6 25.6 8.3
-8 5 -7 8.8 6.6
8 -5 7 10.8 6.2
-8 -5 -7 14.3 9.1
8 -5 7 12.5 4.1
-8 -5 -8 11.8 8.8
8 -5 8 33.9 6.3
8 -5 9 24.7 8.3
8 -5 9 13.4 4.6
-8 -5 -9 -4.2 6.8
8 -5 10 11.8 5.3
-8 -5 -10 21.7 11.1
8 -5 10 4 7.5
8 -5 11 1.4 7.3
8 -5 11 3.4 5.3
-8 -5 -11 7 11.4
-8 -6 11 -0.6 4.9
8 -6 -11 -5.6 6.6
8 6 -10 5.1 6
8 -6 -10 14.1 9
-8 -6 10 -1.4 4.4
8 6 -9 18.1 5.9
-8 -6 9 15.7 5.4
-8 -6 9 11.9 7.6
8 -6 -9 17.4 9.5
8 6 -8 41.4 7.4
-8 -6 8 26.7 9
8 -6 -8 61.39 13.6
-8 -6 8 38 6.6
-8 6 7 -9.3 9.5
-8 -6 7 -1.6 2.9
-8 6 6 230.48 18.7
8 -6 -6 256.87 19.2
-8 -6 6 239.58 12.5
8 -6 -6 256.37 20.6
-8 6 5 22.3 7.9
8 -6 -5 6.5 6.4
-8 -6 5 13.9 4.3
-8 6 4 579.64 27.3
8 -6 -4 662.43 29.7
-8 -6 4 616.84 21.5
-8 6 3 2.1 4.2
-8 -6 3 8.5 3.4
8 -6 -3 0 3.5
-8 -6 3 0.8 3.8
-8 6 2 7 4
-8 -6 2 9.8 3.5
-8 -6 2 9.4 4.6
8 -6 -2 12.8 5.2
-8 6 1 2.3 2.9
-8 -6 1 0.2 3.4
8 -6 -1 2.6 3.8
8 -6 -1 -1 2.8
8 6 0 9.7 3.4
-8 6 0 1.2 2.3
8 -6 0 1.9 2.9
-8 -6 0 -5.1 2.6
-8 -6 0 6.2 4.8
8 -6 0 3.1 4.2
8 6 1 12.9 4.1
-8 6 -1 11.8 2.3
8 -6 1 11.2 5.1
8 -6 1 17.3 3.5
-8 -6 -1 11.4 5.2
-8 -6 -1 15.3 6.2
8 6 2 1.2 3.2
-8 -6 -2 5.1 4.8
-8 -6 -2 5.4 5.6
8 -6 2 5.4 1.9
8 -6 2 -2.2 3.5
8 6 3 72.39 8.6
-8 -6 -3 48.6 10.5
8 -6 3 58.09 9.5
-8 -6 -3 65.49 10.1
8 6 4 94.19 10.7
-8 6 -4 110.09 11.9
8 -6 4 119.29 12.8
-8 -6 -4 117.19 12.8
-8 -6 -4 127.69 15
-8 6 -5 51.99 9.7
8 6 5 68.49 10.7
-8 -6 -5 80.69 12
8 -6 5 53.19 10.2
-8 -6 -5 45.1 11.4
-8 6 -6 0 5.5
8 -6 6 1.2 2
8 -6 6 2.2 1.5
8 -6 6 1.7 6.1
-8 -6 -6 8 8
-8 -6 -7 10.7 8.4
8 -6 7 2.7 2.7
8 -6 7 4.6 5.9
8 -6 8 -3.6 2.8
-8 -6 -8 15.5 9.1
8 -6 8 4.4 6.4
-8 -6 -9 5 7
8 -6 9 19.5 8.3
8 -6 10 23.1 5.3
-8 -6 -10 10.3 9.4
8 -6 10 -1.3 7.7
8 7 -11 0.6 7.4
-8 -7 11 2.4 6.1
8 -7 -11 -4.2 6.7
8 7 -10 -3.4 5.5
8 -7 -10 -7.9 4.6
-8 -7 10 -5.8 4
8 -7 -9 -1.5 6.7
-8 -7 9 -4.7 4
-8 -7 8 7.1 6.2
-8 -7 8 -1.1 3.6
8 -7 -8 12.5 8.3
8 -7 -7 45.7 12
-8 -7 7 23.9 5.5
-8 7 6 198.58 17.4
8 -7 -6 215.78 20.4
-8 -7 6 182.68 12.1
-8 7 5 145.09 20
-8 -7 5 95.39 8.9
-8 -7 5 127.79 10.5
8 -7 -5 143.39 18.3
-8 7 4 15.5 6.6
-8 -7 4 20.2 6.2
8 -7 -4 33.9 8.8
-8 -7 4 26.9 5.7
-8 7 3 75.39 10.8
-8 -7 3 64.79 9
8 -7 -3 71.59 11.5
-8 -7 3 84.69 8.1
-8 7 2 -1.1 3.7
-8 -7 2 1.1 4.2
8 -7 -2 -0.1 4.2
-8 -7 2 -6 4.1
-8 7 1 26.1 5.4
8 -7 -1 49 8
-8 -7 1 36.8 7.7
8 -7 -1 37.7 8.3
-8 7 0 38.6 5.1
8 7 0 31.6 5.6
8 -7 0 27.3 5.7
-8 -7 0 32.4 6.9
-8 -7 0 32.8 8.1
8 -7 0 44.1 8.8
8 7 1 9.3 4.1
-8 -7 -1 9.9 5.6
-8 -7 -1 20.8 6.5
8 -7 1 4.7 3.2
8 -7 1 2.5 4.8
8 -7 2 34.5 8.1
8 -7 2 37.2 4.5
-8 -7 -2 50.29 10.2
-8 -7 -2 34.5 9.1
8 7 3 23.8 6.5
-8 -7 -3 25.9 7.4
8 -7 3 7.4 5.8
-8 -7 -3 15.6 9.3
8 7 4 46.2 9.4
8 -7 4 36.9 8.5
-8 -7 -4 28.2 10
-8 -7 -4 35.9 9.2
-8 7 -5 -2.8 5.1
8 -7 5 3.2 5.6
8 -7 6 8 7.5
-8 -7 -6 11.7 8.3
8 -7 7 4.9 6.7
-8 -7 -7 -5.2 6
8 -7 8 30 3.4
8 -7 8 35 3.9
8 -7 8 4 8
-8 -7 -8 44.3 12.8
8 -7 9 3.1 3.2
8 -7 9 3.9 2.4
-8 -7 -9 4.5 8.2
8 -7 10 32.3 10.1
-8 -7 -10 28.3 12
-8 -8 10 10.5 5.6
8 -8 -9 7.1 8.6
-8 -8 9 3.6 4.6
-8 -8 8 0.8 4.2
-8 -8 8 3.2 4.9
8 -8 -8 13.2 8.8
-8 -8 8 -9.5 5.6
-8 -8 7 9.8 5.7
8 -8 -7 20.9 10.5
-8 -8 7 4.6 3.9
-8 -8 6 5.7 4.2
-8 -8 6 4.9 4.5
-8 8 5 25.8 8.3
-8 -8 5 14.8 5.1
-8 -8 5 26.6 6.9
8 -8 -5 16.2 9
-8 8 4 60.99 12.6
8 -8 -4 68.69 12.8
-8 -8 4 56.69 9.3
-8 -8 4 58.99 8.2
-8 8 3 42 8.6
-8 -8 3 41.2 7
-8 -8 3 30.5 8.1
8 -8 -3 30.3 9.3
-8 8 2 58.99 8.8
-8 -8 2 49.1 8.2
-8 -8 2 54.19 9.5
8 -8 -2 42.3 9.3
-8 8 1 39.5 6.5
8 -8 -1 22 7.7
-8 -8 1 33 8.7
8 -8 -1 43 8.4
8 -8 0 -3.9 4.4
-8 -8 0 4.2 5.8
8 -8 0 -1.6 3.7
-8 -8 0 10.4 4.8
8 8 1 47.4 7.2
8 -8 1 47 6.8
-8 -8 -1 49.9 9.6
8 -8 1 36.3 8.5
-8 -8 -1 36.2 10
8 8 2 81.79 10.6
8 -8 2 78.29 12.1
8 -8 2 88.09 7
-8 -8 -2 86.49 13.9
8 -8 3 43.7 4
8 -8 3 34.6 9
-8 -8 -3 42.8 10.5
-8 -8 -3 54.99 12.4
8 -8 4 10.4 6.4
-8 -8 -4 2.3 7.7
-8 -8 -5 8.9 9.7
8 -8 5 3 7.6
8 -8 6 -6.8 6.7
-8 -8 -6 -6.4 7.2
-8 -8 -7 6.4 8.3
8 -8 7 -6.3 6.6
8 -8 8 2.8 6
-8 -8 -8 -0.9 8.4
-8 -8 -9 34.2 13.2
8 -8 9 12.2 8.7
-8 -9 9 3 5.4
-8 -9 9 0.7 5.4
8 -9 -9 4.3 9.1
8 -9 -8 13.7 10.2
-8 -9 8 5.4 4.6
-8 -9 8 -2.9 5.3
-8 -9 7 1.2 5.6
-8 -9 7 -0.8 4.1
8 -9 -7 11.4 9.1
8 -9 -6 12.9 9.6
-8 -9 6 15.1 5.3
-8 -9 6 23.9 7.2
8 -9 -5 7.5 7.4
-8 -9 5 8.6 6.1
-8 -9 5 -8 4.1
-8 9 4 -2.1 5.5
8 -9 -4 4.2 7.2
-8 -9 4 -6.3 5.2
-8 -9 4 2.8 4.1
-8 9 3 115.99 11.7
-8 -9 3 80.59 9.6
8 -9 -3 112.79 15.8
-8 -9 3 108.89 11.8
-8 9 2 3 4.3
8 -9 -2 5.8 5.9
-8 -9 2 1 4.3
-8 -9 2 0.5 5.9
-8 9 1 12.3 4.1
8 -9 -1 7.9 5.5
8 -9 -1 -1.4 5.2
-8 -9 1 2.1 6.7
-8 9 0 2.6 3
-8 -9 0 2.3 6.4
-8 -9 0 -6.1 6.5
8 -9 0 8.8 6
8 -9 1 -5.8 3.5
8 -9 1 6.4 6.6
-8 -9 -1 -4.5 6
-8 -9 -1 1.3 6.6
8 -9 2 16.5 4.4
-8 -9 -2 23 7.5
8 -9 2 11.9 6.9
-8 -9 -3 78.89 14.8
8 -9 3 70.79 12.2
8 -9 3 70.09 5.5
-8 -9 -4 14.3 10.3
8 -9 4 -1 5.9
-8 -9 -5 8.9 8.2
8 -9 5 0.5 5.7
8 -9 6 0.4 6.6
-8 -9 -6 17.5 10.6
8 -9 7 28.8 9.9
-8 -9 -7 6.9 11.9
-8 -9 -8 -13.1 8
8 -9 8 -13.2 6.2
-8 -10 7 -2.4 6.2
8 -10 -7 6.3 8.8
-8 -10 7 0 5.3
-8 -10 6 8 6.3
-8 -10 6 8 6.1
8 -10 -6 8.3 9.6
-8 -10 5 1.1 5.7
8 -10 -5 -3.6 6.8
-8 -10 5 10.9 5.7
-8 -10 4 1.4 6.4
8 -10 -4 3.7 6.3
-8 -10 4 5.1 5.3
-8 10 3 11.7 6
-8 -10 3 3.3 5.9
8 -10 -3 23.9 8.5
-8 -10 3 14.8 7.8
-8 10 2 7.9 5
-8 -10 2 4 7.4
8 -10 -2 -2.6 5.5
8 -10 -2 0.9 5.6
-8 -10 2 -2.5 4.8
-8 10 1 3.9 4
8 -10 -1 8.4 6
-8 -10 1 17.8 7.5
8 -10 -1 4.9 6.2
-8 -10 1 2.8 7.5
-8 10 0 3.6 3.2
-8 -10 0 1.6 6.4
-8 -10 0 14.3 8.1
8 -10 0 5.1 5.1
8 -10 0 6.4 6.5
8 -10 1 18.4 8.6
8 -10 1 42.8 8.2
-8 -10 -1 12.9 9.9
8 -10 2 -2.3 4.1
8 -10 2 7.2 7.2
-8 -10 -2 -2.4 8.1
8 -10 3 65.59 7.1
8 -10 3 62.29 12.5
-8 -10 -3 66.39 14.8
8 -10 4 -6.3 6.4
-8 -10 -4 -3.6 8.9
-8 -10 -5 -5.6 8.9
8 -10 5 -5.7 6.6
8 -10 6 13.7 7.9
-8 -10 -6 8.9 9.9
8 -11 -6 23.7 10.5
-8 -11 6 1.2 6.2
-8 -11 5 5.5 6.9
8 -11 -5 15.1 9.1
-8 -11 5 9.2 6.3
-8 -11 4 7.5 7.5
-8 -11 4 -13 4.5
8 -11 -4 -4.9 6.8
-8 -11 3 -4.8 5.4
8 -11 -3 -5.1 5.8
8 -11 -3 2.2 6.5
-8 -11 3 -10 6
-8 11 2 9.8 6
-8 -11 2 8.2 5.9
8 -11 -2 7 6.9
8 -11 -2 12.2 8.2
-8 -11 2 4.1 8
-8 11 1 -4.1 4.1
-8 -11 1 0.5 6.7
8 -11 -1 -1.6 5.4
8 -11 -1 -2.4 6.1
-8 -11 1 5.8 10.4
-8 -11 0 -3.4 7.9
8 -11 0 11.6 6.3
8 -11 0 15.2 7.9
8 -11 1 6.2 6.2
-8 -11 -1 2.6 9.8
8 -11 1 18.5 8.9
8 -11 2 93.09 10.7
-8 -11 -2 67.69 14.6
8 -11 2 61.59 12.6
8 -11 3 8.9 3.6
8 -11 3 18 9.2
-8 -11 -3 15.7 9.7
-8 -11 -4 45.5 13.7
8 -11 4 40 10.2
8 -11 5 -6.3 6.5
8 -12 -2 -12.9 5.8
-8 -12 2 -8 6.6
8 -12 -2 9.8 8.1
-8 -12 2 10.2 8.9
8 -12 -1 19.1 8.5
-8 -12 1 1.8 6.5
-8 -12 1 2.2 8.2
-8 -12 0 -7.9 8.9
-8 -12 0 1.2 7.6
8 -12 0 -0.5 6.8
8 -12 0 -3.8 6.9
8 -12 1 -2.3 8.1
8 -12 1 -7.5 5.3
-8 -12 -1 -18.5 8.3
9 0 -11 -13.4 4.6
9 0 -10 204.48 15
9 0 -9 -1.3 4.3
-9 0 9 11.1 6.8
9 0 -8 6.1 3.8
-9 0 8 14.3 8.8
-9 0 7 -0.1 4.3
9 0 -7 5 3.3
9 0 -6 180.78 10.3
-9 0 6 168.68 14.4
9 0 -5 -3.7 1.9
-9 0 5 -4.5 3.3
9 0 -4 537.45 17.6
-9 0 4 568.64 23.7
-9 0 3 0.3 3.2
9 0 -2 2 1.6
-9 0 1 -0.7 1.7
9 0 -1 -0.5 1.7
-9 0 0 44.7 4.7
9 0 0 43.3 4.3
9 0 1 -1.4 2.1
-9 0 -1 0.5 2.4
-9 0 -1 -0.7 1.9
9 0 1 0.8 1.5
9 0 2 93.79 7.1
-9 0 -2 89.79 6.5
9 0 2 93.89 5.6
-9 0 -2 91.79 7.2
9 0 3 5.7 3.7
-9 0 -3 -2.4 2.8
-9 0 -3 -0.7 3.4
9 0 3 1 2.4
-9 0 -4 1055.49 34.4
-9 0 -4 1077.79 34.7
9 0 4 1056.29 34.5
9 0 4 1143.89 32.7
-9 0 -5 0.4 3.6
9 0 5 -1.5 2.9
9 0 5 4.2 3.9
-9 0 -5 -1.2 3.7
9 0 6 86.09 9.8
-9 0 -6 106.89 10.8
9 0 6 102.99 9.8
-9 0 -6 82.09 10
-9 0 -7 2.8 5.2
9 0 7 10.8 5.8
9 0 7 -0.2 4
9 0 8 5.6 5.9
9 0 8 0.5 5
-9 0 -8 9.3 6.4
-9 0 -8 5.3 6
9 0 9 -7 4.5
9 0 9 6.4 5.8
-9 0 -9 3.1 5.2
9 0 10 62.19 12.1
9 0 10 59.09 11.6
-9 0 -10 49.3 11.2
9 0 11 6.6 7.6
-9 0 -11 6.6 6.8
9 0 12 6.9 8.4
-9 0 -12 16.2 7.6
9 1 -11 37.9 8.4
9 -1 -11 29.9 10.4
9 1 -10 19.4 6.5
9 -1 -10 43.3 8.7
-9 -1 10 31.6 7.8
9 -1 -10 26.2 9.1
-9 1 9 8.6 7.7
9 1 -9 14.8 5.5
9 -1 -9 22.1 6
-9 -1 9 14.4 6.1
9 -1 -9 13.9 7.7
-9 -1 9 -5.4 6.8
9 1 -8 7.7 4.3
-9 1 8 14.3 7.3
-9 -1 8 2.5 5.5
-9 -1 8 15.4 5.4
9 -1 -8 12.3 6.5
9 -1 -8 10.3 4.7
-9 1 7 39.7 9.6
9 1 -7 35.4 6.4
9 -1 -7 48.4 9.2
9 -1 -7 48.1 7.5
-9 -1 7 45.6 7
-9 -1 7 36.7 8.4
9 1 -6 -0.5 2.2
-9 1 6 -1.6 3.8
9 -1 -6 8.9 4.1
-9 -1 6 2.8 4.3
-9 -1 6 6.8 3.4
9 -1 -6 1.8 4
-9 1 5 166.68 13.4
9 1 -5 172.48 8.1
-9 -1 5 173.38 13
9 -1 -5 185.68 12.9
9 -1 -5 167.18 10.6
-9 1 4 95.59 9.7
9 1 -4 94.19 5.2
9 -1 -4 93.89 9
-9 1 3 38 6.3
9 1 -3 31 2.5
-9 1 2 2.2 2.9
9 1 -2 6.5 1.3
9 1 -1 33.6 2.8
9 -1 -1 40.9 4
-9 -1 1 35 3
9 1 0 90.69 5.1
-9 1 0 89.79 6.2
9 -1 0 92.79 6.3
-9 -1 0 82.89 5.3
-9 -1 0 78.89 5.1
-9 1 -1 32 4.9
9 1 1 34.7 3.6
-9 1 -1 33.8 3
9 1 1 42.5 4.9
9 -1 1 45.8 5.8
-9 -1 -1 39 4.9
-9 -1 -1 38.2 4.3
9 1 2 2.5 2.8
9 1 2 2.8 2.3
-9 1 -2 3.4 2.2
-9 1 -2 0.4 2.8
9 -1 2 -2.4 2.4
-9 -1 -2 2.7 3
-9 -1 -2 4.8 3.4
9 -1 2 2.9 1.6
9 1 3 3.8 3.2
9 1 3 10.7 4.3
-9 1 -3 9.3 3.6
-9 1 -3 7.8 4.4
-9 -1 -3 4.7 3.9
9 -1 3 7.7 3.5
-9 -1 -3 10.3 4.4
9 -1 3 7 2.5
-9 1 -4 0.8 3.4
9 1 4 6 4.2
-9 1 -4 -1.7 3.1
9 1 4 -0.2 3
-9 -1 -4 -1 3.9
9 -1 4 -0.8 3.6
-9 -1 -4 7 4.2
9 -1 4 2.2 2.6
-9 1 -5 18.3 5.7
9 1 5 16.7 5.6
9 1 5 20.5 5.3
-9 1 -5 22.2 5.7
-9 -1 -5 14.5 6.1
9 -1 5 21.9 4.8
-9 -1 -5 19.2 5.5
9 -1 5 22.8 5.9
-9 1 -6 35.3 7.3
9 1 6 33.7 6.7
9 1 6 29.1 7.3
-9 1 -6 32.9 7.1
-9 -1 -6 42.4 9.1
9 -1 6 31.7 6.3
-9 -1 -6 26.4 6.7
9 -1 6 33.8 7.5
9 1 7 7.2 5.4
-9 1 -7 -3.2 4.1
9 1 7 2.1 5
9 -1 7 3.9 5.3
-9 -1 -7 11.7 5.8
-9 -1 -7 3.7 5.6
9 -1 7 0.4 4.1
9 1 8 12.9 6.7
-9 1 -8 14.5 6.9
-9 1 -8 18.6 7.4
9 1 8 8.9 6.4
-9 -1 -8 5 7.5
-9 -1 -8 3.8 6.1
9 -1 8 0.1 4.4
9 -1 8 4.5 6.4
9 1 9 7.6 6.4
-9 1 -9 25.3 7.6
9 1 9 24.4 8.3
-9 -1 -9 9.1 7
9 -1 9 11.7 7.4
9 -1 9 -1.9 5.3
9 1 10 41.7 11.6
-9 1 -10 44.5 9.9
9 -1 10 45.2 10.8
9 -1 10 35.6 9.3
9 1 11 46 12.4
-9 1 -11 26.8 11.8
-9 -1 -11 21.9 9.6
9 -1 11 15.3 8.6
-9 1 -12 6 8.1
9 1 12 23.2 11.2
9 -1 12 8.5 7.4
-9 -1 -12 14.2 8.6
9 2 -12 -9.1 6.9
9 -2 -12 3.5 5.5
-9 -2 12 4.4 6.2
-9 -2 11 21.5 7.6
9 -2 -11 29.4 10.4
9 2 -10 0.2 5
9 -2 -10 -0.9 6.3
9 -2 -10 1.6 6.4
-9 -2 10 5.5 5.7
9 2 -9 21.5 5.9
-9 -2 9 9 4.9
9 -2 -9 14.6 7.6
9 -2 -9 9.2 6.8
-9 -2 9 13.4 7.6
-9 2 8 50.69 11.2
9 2 -8 65.69 7.6
-9 -2 8 52.49 7.8
-9 -2 8 64.39 12.1
9 -2 -8 53.69 9.3
9 -2 -8 56.19 11.2
-9 2 7 16.6 7.2
9 2 -7 10.8 3.9
9 -2 -7 22.4 7.1
-9 -2 7 14.8 4.4
9 -2 -7 12.6 5.1
-9 -2 7 4.3 4.3
-9 2 6 107.69 12.2
9 2 -6 134.89 7.7
-9 -2 6 139.49 8.2
9 -2 -6 127.89 12.1
-9 -2 6 101.89 11.3
9 -2 -6 123.99 10.5
-9 2 5 120.79 12.3
9 2 -5 140.69 6.9
-9 -2 5 132.99 7.2
-9 -2 5 130.39 11
9 -2 -5 143.29 11.8
9 -2 -5 113.79 9.6
9 2 -4 57.19 3.6
-9 2 4 45 8.7
-9 -2 4 58.69 3.9
9 -2 -4 46.4 7.7
-9 2 3 52.29 7.6
9 -2 -3 54.39 7.7
-9 2 2 2.3 2.9
9 -2 -2 2.9 2.7
-9 2 1 143.49 8
9 2 -1 128.39 5.6
9 -2 -1 138.39 8.1
-9 -2 1 134.89 5.2
9 2 0 4.8 2.4
-9 2 0 3.2 2.6
-9 2 0 3.3 2
-9 -2 0 -0.2 2.2
-9 -2 0 1.3 1.8
9 -2 0 4.5 2.9
-9 2 -1 308.67 8.4
9 2 1 306.77 12
9 2 1 293.37 12.4
-9 2 -1 315.77 13.6
-9 -2 -1 316.67 12.2
9 -2 1 317.47 13.8
-9 -2 -1 304.07 13.1
9 2 2 50.39 5.7
-9 2 -2 60.19 4
9 2 2 56.69 6.2
-9 -2 -2 67.89 6.4
-9 -2 -2 68.79 7.8
9 -2 2 69.19 7.2
9 2 3 158.28 9.9
-9 2 -3 142.09 7.4
-9 2 -3 154.18 11
9 2 3 165.08 10.8
9 -2 3 139.29 6.1
9 -2 3 161.98 11.3
-9 -2 -3 148.39 10.1
-9 -2 -3 159.38 11.5
9 2 4 44.9 7.1
-9 2 -4 44.4 5.7
-9 2 -4 55.59 8.5
9 2 4 46.3 7.7
9 -2 4 46.5 4.7
-9 -2 -4 48.2 7.6
9 -2 4 50.89 7.8
-9 -2 -4 47.6 8.2
9 2 5 49.7 8
-9 2 -5 32.5 5.9
9 2 5 39.2 8.1
-9 2 -5 35 7.3
9 -2 5 39 5.5
9 -2 5 33.8 6.9
-9 -2 -5 44.3 7.5
-9 -2 -5 33.6 7.9
-9 2 -6 89.89 11.7
9 2 6 103.79 11.4
9 2 6 81.29 9.5
-9 2 -6 71.59 7.9
9 -2 6 85.89 10
9 -2 6 85.79 7.9
-9 -2 -6 83.59 9.8
-9 -2 -6 97.19 13.5
9 2 7 2.5 5.2
-9 2 -7 14.7 8.5
-9 2 -7 -0.5 4.7
9 2 7 3.2 5.2
-9 -2 -7 -0.2 4.4
-9 -2 -7 2.3 5.5
9 -2 7 3.3 5.2
9 -2 7 7.7 4.2
9 2 8 8.8 6
9 2 8 -6.1 4.3
-9 2 -8 1 5.8
-9 2 -8 1.9 4.8
-9 -2 -8 -1.4 6.9
9 -2 8 3.2 5
9 -2 8 3 5.7
-9 2 -9 0.2 4.5
9 2 9 1.3 6.3
9 -2 9 -2.9 4.2
-9 -2 -9 6 7.2
9 -2 9 -10.1 4.4
-9 2 -10 8.5 6.5
9 2 10 10 8.3
9 -2 10 18.1 8.8
-9 -2 -10 13 8.5
9 2 11 2.3 8.4
-9 2 -11 2.5 6.2
9 -2 11 -0.6 7
-9 -2 -11 -15.6 6.4
9 -2 11 1.6 5.2
9 2 12 -1.9 12.4
-9 2 -12 2.8 7
9 -2 12 15 8.8
-9 -2 -12 -1.8 8.4
-9 -3 13 4.4 6.6
9 -3 -13 1.1 6
9 3 -12 17.2 7.8
9 -3 -12 46 11.9
-9 -3 12 18.6 7.5
9 3 -11 12.1 5.9
-9 -3 11 3.2 5.5
9 -3 -11 17.9 8.8
9 3 -10 -3.9 4.2
-9 -3 10 -6.7 4.3
9 -3 -10 0.4 5.5
9 3 -9 62.69 8.4
-9 -3 9 71.19 9.3
9 -3 -9 61.29 14.6
9 -3 -9 64.49 10.6
-9 -3 9 64.69 12.4
-9 3 8 53.39 11.4
9 3 -8 67.89 7.5
9 -3 -8 66.49 12.6
-9 -3 8 64.89 11.6
-9 -3 8 70.79 8.5
9 -3 -8 85.09 12
9 3 -7 13.1 4.2
-9 3 7 14.4 6.5
-9 -3 7 23.3 7.2
9 -3 -7 21.7 7.1
-9 -3 7 15.9 4.2
9 -3 -7 13 6.7
9 3 -6 65.29 5.7
-9 3 6 64.99 11.5
-9 -3 6 58.59 9.2
-9 -3 6 53.39 5.3
9 -3 -6 68.19 11
9 -3 -6 69.79 10.3
-9 3 5 85.39 10.5
9 3 -5 105.29 5.8
9 -3 -5 110.99 11
-9 -3 5 105.19 6
-9 3 4 475.25 22.4
9 -3 -4 447.56 24.6
-9 -3 4 487.35 13.2
-9 3 3 15.2 5.3
9 -3 -3 14.3 5.2
-9 -3 3 14.3 1.7
-9 3 2 133.89 9.8
9 -3 -2 154.18 9.9
-9 -3 2 155.18 5.5
-9 -3 2 138.99 5.5
-9 3 1 134.69 8.4
9 -3 -1 125.89 8.8
-9 -3 1 121.19 6.2
-9 -3 1 122.99 7.6
9 -3 -1 131.99 7.9
-9 3 0 80.99 5.2
9 3 0 64.69 6.4
9 -3 0 77.29 7.2
-9 -3 0 72.49 5.7
-9 -3 0 66.89 6.6
9 3 1 19.7 4.1
-9 3 -1 18.9 5
9 3 1 23.7 4.9
-9 -3 -1 10.8 4.3
-9 -3 -1 17.2 4.2
9 -3 1 24.3 5.4
9 3 2 469.95 18.9
9 3 2 537.85 20.6
-9 3 -2 499.85 20.3
-9 -3 -2 495.15 19.3
9 -3 2 562.24 22.2
-9 -3 -2 546.85 21.9
-9 3 -3 16.2 5.4
9 3 3 3.5 3.5
9 -3 3 5.4 4.3
-9 -3 -3 8.4 4.3
-9 -3 -3 7.9 4.6
9 3 4 125.39 11.3
9 3 4 123.99 10.1
-9 3 -4 107.09 10.2
-9 -3 -4 125.09 12.6
9 -3 4 128.29 5.8
-9 -3 -4 140.59 10.8
9 -3 4 126.19 10.7
-9 3 -5 24.8 6.5
-9 3 -5 22.4 4.1
9 3 5 25.9 6.8
9 3 5 25.7 7.4
-9 -3 -5 29.5 6.8
9 -3 5 34.5 4.6
-9 -3 -5 24.1 7.5
9 -3 5 29.3 7
-9 3 -6 91.09 12.1
9 3 6 94.29 12.9
9 3 6 92.89 10.5
-9 3 -6 108.89 8.4
9 -3 6 96.29 7.7
-9 -3 -6 86.79 10.3
9 -3 6 110.19 11.1
-9 -3 -6 83.79 13.2
9 3 7 3.5 5.4
-9 3 -7 -0.6 5.5
9 3 7 2.6 6.3
-9 3 -7 5.7 3.8
-9 -3 -7 -1.2 4.8
9 -3 7 9.9 6.1
-9 -3 -7 -1.8 6.2
9 3 8 5 5.7
-9 -3 -8 -4.9 7
9 -3 8 -0.3 5.3
9 -3 8 3.7 4.5
9 3 9 26 9.5
9 -3 9 22.1 6.5
-9 -3 -9 -1.9 6.1
9 -3 9 5.2 6.6
9 3 10 5.6 7.6
9 -3 10 7 5.3
-9 -3 -10 1.4 8.5
9 -3 10 -3.9 5.4
9 3 11 -11.5 5.7
9 -3 11 -4.6 5.8
-9 -3 -11 -5.7 7.7
9 -3 11 3.1 6.4
9 3 12 -9.7 6.7
9 -3 12 -0.4 7.1
-9 -3 -12 2.9 8.9
9 -4 -12 -5.4 5.5
-9 -4 12 4.2 5.6
9 4 -11 -0.4 5.5
-9 -4 11 -6.7 4
9 -4 -11 11.2 7.2
9 4 -10 -6.9 4.6
-9 -4 10 11.8 5.3
9 -4 -10 2.5 6.5
9 4 -9 12.7 5
-9 -4 9 15.5 5.1
-9 -4 9 8.4 7.6
9 -4 -9 9.3 7.6
9 4 -8 23 5.4
-9 4 8 13.8 8
9 -4 -8 22.7 8.7
9 -4 -8 35.9 8.8
-9 -4 8 25.8 5.5
9 4 -7 22.1 4.7
-9 4 7 26.1 8.8
9 -4 -7 19.5 7
-9 -4 7 14.5 6.3
-9 -4 7 21.3 4.5
9 -4 -7 20.7 8.1
9 4 -6 29.2 4.4
-9 4 6 21.9 7.4
9 -4 -6 28.8 8.2
-9 -4 6 30.1 4.3
9 -4 -6 25.1 7.4
-9 4 5 307.07 19.3
-9 -4 5 300.67 11
9 -4 -5 308.27 19.2
-9 4 4 196.68 14.9
9 -4 -4 221.48 15.2
-9 -4 4 212.18 8.2
-9 4 3 2175.38 61.39
9 -4 -3 2150.98 60.99
-9 -4 3 2144.29 51.09
-9 4 2 6.7 4.1
9 -4 -2 1.9 3.3
-9 -4 2 3 3.4
-9 4 1 5.1 3.2
9 -4 -1 10.1 5.2
-9 -4 1 7.4 3.1
9 -4 -1 3.2 3
-9 -4 1 6.9 4
9 4 0 54.19 5.3
-9 4 0 62.99 5.1
-9 -4 0 62.39 6.4
9 -4 0 56.49 4.8
9 -4 0 61.69 9
-9 4 -1 59.29 2.3
-9 4 -1 54.79 7.6
9 4 1 62.19 6.3
-9 -4 -1 59.89 8.3
9 -4 1 67.19 8.6
-9 -4 -1 57.09 7.5
-9 4 -2 105.49 9.3
9 4 2 100.59 8.3
-9 -4 -2 90.89 9.9
9 -4 2 99.89 9.3
-9 -4 -2 95.19 8.4
9 4 3 89.09 9.3
-9 4 -3 68.59 9.1
9 4 3 82.59 8.2
9 -4 3 78.09 10
-9 -4 -3 83.89 10.1
-9 -4 -3 85.29 9.1
9 4 4 12.5 5.6
-9 4 -4 19.8 6.2
9 4 4 16.4 5.3
9 -4 4 12.5 5.2
-9 -4 -4 12.3 5.3
-9 -4 -4 10.5 6.3
9 4 5 8.1 6.4
-9 4 -5 0.8 4.5
9 4 5 15.7 5.7
9 -4 5 15 2.7
-9 -4 -5 14.9 7.8
9 -4 5 16.7 5.9
-9 -4 -5 5.2 5.1
9 4 6 9.2 6.4
9 4 6 3.9 5.3
9 -4 6 9.3 3.4
-9 -4 -6 11.6 5.8
9 -4 6 5.1 5.4
-9 -4 -6 0.3 6.5
9 4 7 41.3 9.5
-9 4 -7 23.3 7.5
9 4 7 24.2 8.9
-9 -4 -7 37.3 8.9
-9 -4 -7 54.09 12.8
9 -4 7 29.9 5.6
9 -4 7 38.9 9.1
9 4 8 2.2 6.4
9 -4 8 3.9 4.3
-9 -4 -8 -7.4 6
9 -4 8 9.7 6.3
9 4 9 59.99 13.4
9 -4 9 44.8 10.7
9 -4 9 62.49 9
-9 -4 -9 45.6 12.1
9 4 10 9 7.8
-9 -4 -10 5.9 8.1
9 -4 10 18.3 6
9 -4 10 11.2 8.5
9 4 11 -9.7 6.6
-9 -4 -11 -4.3 7
9 -4 11 14.6 7.3
9 -4 11 0.5 7.8
9 5 -12 -1.3 7.3
9 -5 -12 0.5 7.3
-9 -5 12 -4.8 5.5
9 5 -11 0.2 5.4
9 -5 -11 6.5 7.1
-9 -5 11 8.6 5.2
9 5 -10 7.4 5
-9 -5 10 -2.1 4.3
9 -5 -10 -1.1 6.1
9 5 -9 -2.2 3.8
-9 -5 9 10.5 6.7
9 -5 -9 1.6 6
-9 -5 9 -7.3 3
9 5 -8 19.6 4.7
-9 -5 8 19.9 5
-9 -5 8 12.9 6.8
9 -5 -8 19.4 9.6
-9 5 7 31.2 9.2
9 5 -7 34.9 5.7
9 -5 -7 43.3 11.1
-9 -5 7 30.9 5.4
9 -5 -7 25.7 8.5
-9 -5 7 21.1 7.5
-9 5 6 122.69 13.9
9 -5 -6 118.39 13.7
-9 -5 6 112.49 7.4
-9 5 5 241.18 17.6
9 -5 -5 231.48 17.3
-9 -5 5 223.28 10.2
-9 5 4 15.7 6.1
9 -5 -4 11.8 6.1
-9 5 3 354.36 18.7
-9 -5 3 351.46 13
-9 -5 3 369.86 15.6
9 -5 -3 387.76 22.9
-9 5 2 60.69 7.2
-9 -5 2 51.99 6.2
9 -5 -2 53.89 8.1
-9 5 1 45.1 6.2
9 -5 -1 42.1 7.3
-9 -5 1 47.2 7
9 -5 -1 44.9 6.6
-9 -5 1 49.5 6.3
9 5 0 -0.9 2.1
-9 5 0 2.8 2.2
9 -5 0 2.7 2.5
-9 -5 0 -5.3 3
-9 -5 0 2.5 3.2
9 -5 0 3.4 3.4
-9 5 -1 75.09 3.4
9 5 1 67.09 6.9
-9 -5 -1 77.69 8.2
9 -5 1 75.59 4.3
-9 -5 -1 80.19 9.2
9 -5 1 80.19 8.6
9 5 2 0.1 2.8
-9 5 -2 -4.5 2.7
9 -5 2 1.5 3.6
-9 -5 -2 0.4 4
-9 -5 -2 3.8 4.2
-9 5 -3 84.39 9.7
9 5 3 88.59 8.9
-9 -5 -3 81.29 11.8
9 -5 3 89.29 10
-9 -5 -3 94.09 9.8
9 5 4 92.19 9.8
-9 5 -4 110.69 11
-9 -5 -4 106.29 11
9 -5 4 112.09 11
-9 -5 -4 104.69 14.3
-9 5 -5 13.3 6
9 5 5 8.5 5.1
9 -5 5 6.9 5.5
-9 -5 -5 6.3 6.2
9 5 6 12.9 6.2
-9 5 -6 10.1 6.5
9 -5 6 8.6 5.9
-9 -5 -6 7.2 6.6
9 -5 6 5.4 2.4
-9 -5 -6 14.1 8
-9 5 -7 40.8 10.8
9 -5 7 46.9 5.7
9 -5 7 39.6 9.3
9 -5 8 16.2 7.6
-9 -5 -8 12.9 9.6
9 -5 8 15.2 4.7
9 -5 9 4.5 4.6
-9 -5 -9 7.2 8.8
9 -5 9 1 6.3
-9 -5 -10 90.19 18
9 -5 10 76.79 13
9 -5 10 74.59 10.7
9 -5 11 -4.6 5.5
9 -5 11 2.2 5.3
9 6 -11 -3.9 5.8
-9 -6 11 6.6 5.5
9 6 -10 -1.1 4.7
9 -6 -10 9.6 7.7
-9 -6 10 2.2 4.1
9 6 -9 11.4 5.2
9 -6 -9 15.1 8.5
-9 -6 9 10 4.4
9 6 -8 67.09 8.1
-9 -6 8 50.99 11.4
9 -6 -8 58.49 13.3
9 -6 -7 6.5 7
-9 -6 7 3.4 3.4
-9 6 6 129.69 14.7
9 -6 -6 164.48 16.5
9 -6 -6 154.08 15
-9 -6 6 141.99 9.1
-9 6 5 100.69 12.1
9 -6 -5 101.69 14.8
-9 -6 5 90.09 7.6
-9 6 4 25.4 7.3
9 -6 -4 -1.7 4.6
-9 -6 4 2.7 3.3
-9 -6 4 -1.8 3.1
-9 6 3 1.8 4
-9 -6 3 3.1 2.9
9 -6 -3 0.4 4.5
-9 -6 3 2.7 4.1
-9 6 2 52.49 7.9
-9 -6 2 48 7.5
-9 -6 2 50.99 6.3
9 -6 -2 56.69 8.9
-9 6 1 32 5.3
9 -6 -1 25.5 5.7
9 -6 -1 28.1 6.9
-9 -6 1 26.9 6.1
-9 6 0 4.4 2.6
9 6 0 8.2 3.4
-9 -6 0 3.8 4.5
9 -6 0 -0.6 2.7
9 -6 0 5.6 4.5
-9 -6 0 13.5 4.8
-9 6 -1 96.79 4.7
9 6 1 92.29 8.2
9 -6 1 110.39 6.5
9 -6 1 96.99 9.9
-9 -6 -1 109.09 10.1
-9 -6 -1 112.29 11.5
9 6 2 40.1 7
9 -6 2 26.4 7.2
-9 -6 -2 23.6 7.7
-9 -6 -2 32 7.3
9 6 3 9.2 4.8
-9 6 -3 -0.6 4.7
-9 -6 -3 14.7 7.1
-9 -6 -3 5.1 5.1
9 -6 3 10.1 6
9 6 4 36.5 8
9 -6 4 44.2 9.1
-9 -6 -4 39.5 8.7
-9 -6 -4 34.8 10.2
-9 6 -5 0 5.8
9 6 5 -7.3 4.2
-9 -6 -5 -2.7 5.4
-9 -6 -5 5 7.2
9 -6 5 -2.8 4.6
-9 6 -6 11.6 6.4
9 -6 6 8.3 6
9 -6 7 6 2.3
-9 -6 -7 15.1 9.1
9 -6 7 2.8 1.5
-9 -6 -8 22.1 10.1
9 -6 8 17.4 3.6
9 -6 8 15.4 7.9
9 -6 9 1.1 4.8
-9 -6 -9 7.2 8.7
9 -6 9 -14.5 5
9 -6 10 25.5 9.9
-9 -6 -10 51.39 14.8
9 -6 10 27.8 5.5
-9 -7 11 2.2 5.6
9 -7 -11 3.2 8.2
-9 -7 10 8.2 5.2
9 -7 -10 -2.9 7.5
9 -7 -9 7.9 8.5
-9 -7 9 -4.8 3.4
-9 -7 8 -7.4 5.2
9 -7 -8 -2 6.8
-9 -7 8 7.9 4.4
9 -7 -7 35 12.8
-9 7 6 151.78 16.5
-9 -7 6 150.98 11.4
-9 -7 6 137.59 9.9
9 -7 -6 162.08 17.8
-9 -7 5 5.6 4
9 -7 -5 11 7.3
-9 -7 5 6.2 3.7
-9 7 4 148.59 14
9 -7 -4 139.69 14.1
-9 -7 4 142.09 10.1
-9 -7 4 150.58 11.4
-9 7 3 1.5 4.2
-9 -7 3 -0.6 3.2
-9 -7 3 1.4 4.7
9 -7 -3 5.3 5.3
-9 7 2 71.39 8.6
-9 -7 2 75.89 10.5
9 -7 -2 69.89 10.4
-9 -7 2 70.79 8.6
9 -7 -1 43.4 7.9
-9 -7 1 31.9 7.6
9 -7 -1 47.6 9.4
-9 7 0 8.8 3.2
9 -7 0 3.2 5.2
9 -7 0 11.3 4.1
-9 -7 0 9.3 5
-9 -7 0 -0.2 4.9
9 7 1 36.9 6.4
9 -7 1 50.39 9.1
9 -7 1 37 5.2
-9 -7 -1 33.3 8.5
-9 -7 -1 37.2 7.7
9 7 2 -1.5 3.7
9 -7 2 9.6 6
-9 -7 -2 0.9 4.2
9 -7 2 6.1 2
-9 -7 -2 6 5.8
9 7 3 23.9 6.5
-9 -7 -3 1.8 6.2
-9 -7 -3 13.4 7.7
9 -7 3 13.6 6.8
-9 -7 -4 0.4 5.6
9 -7 4 -8.3 4.6
-9 -7 -4 12.6 8
9 -7 5 3.7 7.2
-9 -7 -5 40.3 12.4
9 -7 6 15.1 9.3
-9 -7 -6 12.6 9.1
-9 -7 -7 9.4 7.6
9 -7 7 -1.2 5
-9 -7 -8 19.8 10
9 -7 8 15.6 8.2
9 -7 9 -2.2 1.8
-9 -7 -9 -1.5 8.5
9 -7 9 0.6 7.4
-9 -7 -10 6.2 9.5
9 -7 10 -4.4 6.6
-9 -8 10 2 5.3
-9 -8 9 4.9 4.5
9 -8 -9 0.9 7.5
-9 -8 8 33 7.3
9 -8 -8 28.2 11
9 -8 -7 19.2 9.4
-9 -8 7 20.2 5.2
-9 -8 7 7.3 5.4
-9 -8 6 31.6 6.4
9 -8 -6 47.7 13.4
-9 -8 6 34 7.3
-9 8 5 2.3 5.3
-9 -8 5 -2.5 3.6
-9 -8 5 14 5.7
9 -8 -5 0.1 6
-9 8 4 14.5 6.8
-9 -8 4 17.3 6.8
-9 -8 4 10.1 4.6
9 -8 -4 11.5 7.1
-9 8 3 57.29 9.5
9 -8 -3 54.69 10.4
-9 -8 3 47 9.3
-9 -8 3 50.79 7.7
-9 8 2 16.3 5.5
9 -8 -2 16.8 6.3
-9 -8 2 12.7 6
-9 -8 2 8.8 4.8
-9 8 1 -6.5 2.9
9 -8 -1 2.3 5.6
-9 -8 1 6.6 6.7
-9 8 0 3.8 2.8
9 -8 0 -2 3.3
9 -8 0 4.3 5.9
-9 -8 0 -4 5.2
-9 -8 0 -2.7 4.6
9 8 1 -1.7 3.3
9 -8 1 -4.5 2.6
-9 -8 -1 -1.3 5.2
9 -8 1 -5.2 4.7
-9 -8 -1 -0.9 6.3
9 8 2 26.7 6.7
-9 -8 -2 26.3 9.2
9 -8 2 18.3 7.1
9 -8 2 26 3.9
-9 -8 -3 13.6 6.3
-9 -8 -3 -0.1 7.1
9 -8 3 7.4 6.3
-9 -8 -4 45.2 12.3
9 -8 5 -9.1 4.2
-9 -8 -5 11.8 9.2
9 -8 6 5.9 6.5
-9 -8 -6 11.2 9.3
-9 -8 -7 13.6 8.8
9 -8 7 4 7.1
9 -8 8 1.7 6.6
-9 -8 -8 -9.6 7.6
-9 -8 -9 -19.7 7.4
9 -8 9 -5.8 6.8
-9 -9 9 7.3 5.8
9 -9 -9 31.7 11.2
-9 -9 9 7.5 5.7
9 -9 -8 -5.4 7.5
-9 -9 8 -3.4 4
-9 -9 8 6.1 5.6
9 -9 -7 36.5 11
-9 -9 7 37.4 7.2
-9 -9 7 41.6 8.7
-9 -9 6 5.6 5.1
-9 -9 6 -1.3 5.3
9 -9 -6 8.3 8.3
-9 -9 5 7.4 4.5
-9 -9 5 -0.9 5.6
9 -9 -5 3.4 7
-9 9 4 12.8 7.1
-9 -9 4 10.7 4.6
-9 -9 4 5.2 6.3
9 -9 -4 6.2 6.8
-9 9 3 -1.1 4.7
-9 -9 3 10 5.7
9 -9 -3 2.5 5.8
-9 -9 3 -10.8 3.8
-9 9 2 14.2 5.3
-9 -9 2 7.1 6.5
9 -9 -2 10.3 6.1
-9 -9 2 10.6 5
9 -9 -2 18.2 6.5
-9 9 1 -4 3.3
9 -9 -1 -5.1 4.4
-9 -9 1 -4.2 6.8
9 -9 -1 1.3 4.7
-9 9 0 47.7 5.9
9 -9 0 55.59 10.4
-9 -9 0 38.9 11.2
-9 -9 0 66.09 11.3
9 -9 0 57.39 8.8
-9 -9 -1 22.9 8.1
9 -9 1 12.3 4.3
9 -9 1 6.4 5.8
-9 -9 -1 5.8 7.1
9 -9 2 40.4 5.2
-9 -9 -2 33.3 10.5
9 -9 2 34.2 9.9
-9 -9 -2 39.1 9.9
-9 -9 -3 0.5 7.7
9 -9 3 -0.7 6.8
9 -9 4 18.5 8.9
-9 -9 -4 18.7 9.9
-9 -9 -5 -12.7 6.6
9 -9 5 -3.6 6.4
9 -9 6 3.9 7.9
-9 -9 -6 -1.6 7.6
9 -9 7 5.4 8.4
-9 -9 -7 6.4 9.6
-9 -9 -8 11.2 11.1
9 -9 8 1.6 7.4
-9 -10 7 40.2 9.7
9 -10 -7 20.8 10.4
-9 -10 7 20.6 6.2
-9 -10 6 -8.1 4.3
-9 -10 6 -5.6 6.5
9 -10 -6 12.8 9
-9 -10 5 -8.7 4.3
9 -10 -5 -0.9 6.8
-9 -10 4 11.8 5.8
9 -10 -4 15.4 8.2
-9 -10 4 -2.7 6.9
-9 10 3 15.8 6.2
-9 -10 3 4.6 4.8
9 -10 -3 0.2 5.4
-9 -10 3 2.3 6.6
-9 10 2 0.9 5.3
9 -10 -2 9.8 7
-9 -10 2 3.2 5.4
9 -10 -2 8.3 6.8
-9 10 1 3.4 4
9 -10 -1 -2.3 4.9
9 -10 -1 -0.7 5.6
-9 -10 1 -0.7 7
-9 -10 1 2 5.7
-9 -10 0 11.7 7.5
9 -10 0 -6.7 4.8
-9 -10 0 8.9 7.4
9 -10 0 12.7 5.2
9 -10 1 4.2 6.7
9 -10 1 3.7 4.4
-9 -10 -1 12.3 8.7
9 -10 2 0.8 6.9
9 -10 2 3 3.9
-9 -10 -2 1.2 8.5
9 -10 3 67.19 12.8
-9 -10 -3 77.49 16.3
-9 -10 -4 39.8 12.9
9 -10 4 23.8 9.6
-9 -10 -5 1.1 7.6
9 -10 5 13.8 7.4
9 -10 6 -2.5 7.1
-9 -10 -6 -12.3 8.8
-9 -11 5 -0.8 6.4
-9 -11 5 -10.6 5.8
9 -11 -5 -12.1 6.8
9 -11 -4 9.9 7.8
-9 -11 4 12.7 6.2
-9 -11 4 -0.7 6.6
9 -11 -3 41.2 10.8
-9 -11 3 12.8 7.5
-9 -11 3 25.2 10
9 -11 -3 0.9 7.2
-9 11 2 21.3 6.3
-9 -11 2 26.7 10.3
-9 -11 2 31.9 8.1
9 -11 -2 29.5 9
9 -11 -2 14.2 8.1
-9 11 1 10.2 4.7
-9 -11 1 -10.4 5.3
9 -11 -1 -1.2 6.4
9 -11 -1 8.4 6.1
-9 -11 1 -2.5 6.8
-9 -11 0 5.4 8.5
9 -11 0 21.4 5.9
9 -11 0 7 7.6
-9 -11 -1 16.4 9.8
9 -11 1 -7.7 5.7
9 -11 2 58.19 8.2
9 -11 2 54.69 12.7
-9 -11 -2 58.89 13.9
9 -11 3 -13.4 6.6
-9 -11 -3 3 9.5
9 -11 4 38.3 12.4
-9 -11 -4 63.09 17
9 -12 -2 -5 6.7
9 -12 -1 12.6 8
9 -12 -1 2 8.4
-9 -12 1 6.6 10
-9 -12 1 10.3 6.7
9 -12 0 9 7.4
-9 -12 0 11.3 7.7
-9 -12 0 -11.8 8.8
10 0 -11 -0.8 5
10 0 -10 -2.7 4.5
10 0 -9 2.2 3.9
-10 0 9 -10.4 4.8
10 0 -8 23.4 5.8
10 0 -7 -1 3.1
-10 0 7 -2 4
10 0 -6 821.12 26.4
-10 0 6 851.51 34.8
10 0 -5 -0.8 2.4
-10 0 5 1.3 3.6
-10 0 4 1049.09 35.3
10 0 -4 1033.1 28.9
10 0 -2 347.37 11.1
10 0 -1 -0.3 1.8
-10 0 1 1.2 1.8
-10 0 0 367.66 13.3
10 0 0 386.26 13.3
-10 0 -1 1.5 2.4
-10 0 -1 -0.5 2
10 0 1 -1.9 2.1
-10 0 -2 19 4
10 0 2 16.9 3.1
10 0 2 19.1 4.2
-10 0 -2 11.6 4
-10 0 -3 0 3.3
10 0 3 1.4 2.5
10 0 3 3.2 3.6
-10 0 -3 2 3.5
-10 0 -4 910.31 30.8
-10 0 -4 934.41 31.1
10 0 4 931.81 28.7
10 0 4 919.61 31.2
-10 0 -5 -0.5 3.5
10 0 5 0.2 3.2
-10 0 -5 1.5 3.9
10 0 5 1.7 3.8
-10 0 -6 114.39 11.2
10 0 6 134.09 10.9
-10 0 -6 132.39 12.2
10 0 6 119.19 11.5
-10 0 -7 5.4 5.2
10 0 7 4.7 4.6
10 0 7 1.4 4.9
-10 0 -7 -1.9 4.6
10 0 8 39.1 9
-10 0 -8 70.09 12.5
-10 0 -8 44.7 10.8
10 0 8 42.8 9.7
10 0 9 8.7 6.4
-10 0 -9 -4.9 5.4
10 0 9 -2.7 5.2
10 0 10 92.89 16.5
10 0 10 65.89 12.7
-10 0 -10 95.29 15.4
-10 0 -11 13.9 7.9
10 0 11 -4.6 6.7
10 0 12 24 11.3
-10 0 -12 -0.7 8
10 1 -12 0.4 7.1
10 1 -11 -3.1 6.7
10 -1 -11 2.6 5.9
10 1 -10 -6.1 4.7
10 -1 -10 1.6 6.4
10 1 -9 11.9 5.3
-10 1 9 5 6.8
-10 -1 9 14 7
10 -1 -9 9 5.6
10 -1 -9 -4.9 4.8
10 1 -8 6.3 4.3
-10 1 8 3.9 5.8
10 -1 -8 5.9 5.5
-10 -1 8 12.3 11.3
10 -1 -8 8.1 4.9
-10 1 7 16.9 7.5
10 1 -7 30.5 5.1
-10 -1 7 30.2 8
10 -1 -7 29 7.9
10 -1 -7 23 6
-10 1 6 35.4 8.1
10 1 -6 46.4 4.9
10 -1 -6 50.09 8.9
10 -1 -6 50.79 7.2
-10 -1 6 39 8.3
-10 1 5 9.1 5.2
10 1 -5 19.5 3.4
-10 -1 5 14.2 5.2
10 -1 -5 18.6 4.8
-10 1 4 9.2 4.8
10 1 -4 8.7 2.2
10 1 -3 164.18 5.9
-10 1 3 179.08 11.6
-10 1 2 24.7 4.9
10 1 -2 36.3 2.4
10 1 -1 16.3 2.4
10 -1 -1 19.8 3.7
-10 -1 1 15.9 2.4
-10 1 0 2.1 2.2
10 1 0 1.2 1.8
-10 -1 0 -1.2 1.7
10 -1 0 -0.9 2.2
-10 -1 0 -0.8 1.9
-10 1 -1 1.7 1.5
10 1 1 1.7 2
10 1 1 -1 2
-10 1 -1 0.5 2.5
10 -1 1 -2.5 2.2
-10 -1 -1 0 2.1
-10 -1 -1 0.6 2.5
10 1 2 35.7 4.9
-10 1 -2 28.2 3.9
10 1 2 34 5.4
-10 1 -2 22.8 5.3
-10 -1 -2 23.5 5.1
-10 -1 -2 19.9 4.4
10 -1 2 29 5.3
10 -1 2 22.7 2.8
10 1 3 -1.4 3.4
-10 1 -3 -1.6 2.7
10 1 3 2.2 3
-10 1 -3 9.4 4.2
-10 -1 -3 1.6 3.3
-10 -1 -3 -2.7 3.1
10 -1 3 3.4 2.4
10 -1 3 0.3 3.2
-10 1 -4 568.84 21.2
10 1 4 587.94 23.1
10 1 4 530.85 20.7
10 -1 4 549.05 18.8
-10 -1 -4 555.14 23.4
-10 -1 -4 575.14 22.6
10 -1 4 604.94 23.2
-10 1 -5 168.58 11.7
10 1 5 197.88 12.2
-10 1 -5 176.68 12.9
10 1 5 167.18 12.6
-10 -1 -5 175.48 13.9
10 -1 5 163.68 12.1
10 -1 5 168.68 10.2
-10 -1 -5 155.38 12.1
10 1 6 12.2 5.6
-10 1 -6 8.7 5.2
-10 1 -6 8.7 5.3
10 1 6 6.6 4.9
10 -1 6 8.5 5.3
-10 -1 -6 16.9 6.9
-10 -1 -6 20.5 6.4
10 -1 6 16.8 5
-10 1 -7 31.9 8.3
-10 1 -7 21.3 6.5
10 1 7 33.1 8.8
10 1 7 23.3 7.2
10 -1 7 21.2 7.5
10 -1 7 32.8 6.8
-10 -1 -7 27.7 8.7
-10 -1 -7 14.9 6.5
10 1 8 7.2 6.2
-10 1 -8 9.4 6.3
10 1 8 16.2 7.6
-10 1 -8 11.9 7.9
-10 -1 -8 -0.9 5.4
10 -1 8 8.5 6.7
10 -1 8 5.9 4.7
-10 1 -9 75.99 12.8
10 1 9 64.39 10.9
10 1 9 77.19 13.4
10 -1 9 72.29 11.5
10 -1 9 54.79 11.3
-10 -1 -9 89.79 14.8
10 1 10 20.7 8.9
-10 1 -10 2 7
10 -1 10 0.9 7.2
10 -1 10 13.5 6.6
-10 -1 -10 7.7 8.8
10 1 11 2.5 7.5
10 -1 11 9.3 7.7
-10 -1 -11 0.8 8.2
-10 1 -12 3.4 7.9
-10 -1 -12 22.5 10.4
10 -1 12 2.8 7.5
10 2 -12 7 7.3
10 -2 -12 23.6 9.6
10 2 -11 130.69 12.5
-10 -2 11 83.99 11.8
10 -2 -11 101.09 16.6
10 2 -10 12.2 5.2
10 -2 -10 13.8 7.2
10 -2 -10 12.8 7.3
-10 -2 10 3.1 4.3
10 2 -9 111.39 10
10 -2 -9 132.09 17.7
10 -2 -9 104.29 12.3
-10 -2 9 106.79 10.5
-10 -2 9 72.59 13.4
-10 2 8 10.6 6.8
10 2 -8 6.5 4.2
-10 -2 8 15.9 5
10 -2 -8 10.5 6.2
10 2 -7 16.8 4.2
-10 2 7 20 7.5
-10 -2 7 7.4 5
10 -2 -7 19.1 5.9
10 -2 -7 5 5.4
-10 -2 7 13.3 4.4
-10 2 6 59.59 10.4
10 2 -6 47 4.8
-10 -2 6 38.9 5.2
10 -2 -6 72.29 9.7
-10 -2 6 51.39 9.1
10 -2 -6 56.09 9.6
10 2 -5 312.77 10.7
-10 2 5 313.37 19
10 -2 -5 322.97 18.1
10 -2 -5 311.57 15.9
10 2 -4 13.9 1.9
-10 2 4 14.3 5.8
10 -2 -4 11.2 4.9
-10 2 3 7.6 4.4
10 -2 -3 0.8 3.7
-10 2 2 0.1 2.9
-10 2 1 124.69 7.7
10 2 -1 123.59 5.5
10 -2 -1 117.99 7.6
-10 -2 1 109.89 5
10 2 0 97.39 6.1
-10 2 0 114.89 7.8
-10 2 0 107.59 6.1
-10 -2 0 101.59 6.9
-10 -2 0 106.99 5.9
10 -2 0 114.59 7.8
-10 2 -1 0.6 1.2
10 2 1 -0.1 2.5
10 2 1 -0.6 1.9
-10 -2 -1 0.9 2.2
10 -2 1 -0.3 3.2
-10 -2 -1 -0.9 2.6
-10 2 -2 159.48 10.9
10 2 2 159.58 10
-10 2 -2 141.39 6.4
-10 -2 -2 174.18 11
-10 -2 -2 169.98 9.7
10 -2 2 171.88 10.9
-10 2 -3 34.8 4.4
10 2 3 33.6 5.6
10 2 3 39.9 6.9
-10 2 -3 44 7.5
-10 -2 -3 38.2 7.6
-10 -2 -3 28.1 5.6
10 -2 3 35 3.2
10 -2 3 34.2 6.6
-10 2 -4 94.79 9.6
-10 2 -4 77.39 6.7
10 2 4 96.19 8.3
10 2 4 86.09 9.2
-10 -2 -4 85.29 8.6
10 -2 4 98.99 5.9
-10 -2 -4 94.69 11.8
10 -2 4 87.39 9
-10 2 -5 14.6 4.4
10 2 5 7.1 4.7
-10 2 -5 7 4.5
10 2 5 10.8 4.7
10 -2 5 22.1 5.9
-10 -2 -5 7.5 5.3
10 -2 5 11.6 3.5
-10 -2 -5 17.2 5.8
10 2 6 1 5.1
-10 2 -6 2.9 4.8
-10 2 -6 9 4.3
10 2 6 8 5.4
10 -2 6 7.5 3.8
-10 -2 -6 2.4 4.6
10 -2 6 1.3 4.7
-10 -2 -6 -1.1 4.8
10 2 7 5.6 5.8
10 2 7 -8.3 4.3
-10 2 -7 -2.1 5.2
-10 2 -7 -2.2 6
-10 -2 -7 7.5 5.3
10 -2 7 -0.6 4.8
-10 -2 -7 11.1 6.9
10 -2 7 1.4 3.6
10 2 8 8.3 6.4
10 2 8 5.9 6
-10 2 -8 4.7 5.1
10 -2 8 1.5 5.5
-10 -2 -8 4.1 6.2
10 -2 8 1.9 4.5
-10 2 -9 25.1 7.6
10 2 9 24.8 10.1
10 -2 9 34.3 9.3
10 -2 9 41.8 8.2
-10 -2 -9 31.1 10.4
10 2 10 -5.7 5.8
-10 2 -10 0.1 5.4
10 -2 10 11.2 7.1
-10 -2 -10 5.6 8.1
10 2 11 26.9 10.7
-10 2 -11 50.29 10.5
-10 -2 -11 51.29 13.4
10 -2 11 28.8 8.4
10 -2 11 48.9 12.1
-10 2 -12 -1.3 6.8
10 2 12 5.9 8.4
-10 -2 -12 2.4 9.9
10 -2 12 14.9 10.8
10 -3 -13 -12.9 6.9
-10 -3 13 -14.4 6.5
10 3 -12 13.2 6.8
10 -3 -12 0.4 6.3
-10 -3 12 -3.3 5.8
10 3 -11 61.39 9.5
-10 -3 11 51.29 9.3
10 -3 -11 69.49 13.7
10 3 -10 0.1 4.8
-10 -3 10 8.1 4.9
10 -3 -10 -3.2 5.1
10 3 -9 15.8 5.6
-10 -3 9 17.6 8.1
10 -3 -9 25.2 7.9
-10 -3 9 22.5 6
-10 3 8 5.1 6.3
-10 -3 8 3.8 3.7
10 -3 -8 0 4.8
10 -3 -8 7.9 5.1
-10 3 7 50.79 11.2
10 3 -7 34.9 5.4
10 -3 -7 27.6 8.3
-10 -3 7 31.1 5.1
-10 -3 7 28.3 8.2
10 -3 -7 42.4 8.4
10 3 -6 7.6 2.7
-10 3 6 5.3 4.9
10 -3 -6 -0.3 4
10 -3 -6 6.4 4.8
-10 -3 6 -1.7 2.1
-10 -3 6 -2.9 3.9
-10 3 5 39 8.1
10 3 -5 40.4 3.5
-10 -3 5 41.6 3.8
10 -3 -5 46 8.6
-10 3 4 34.1 7.3
-10 -3 4 32.5 2.3
-10 3 3 -1.9 3.7
10 -3 -3 9.7 4.7
-10 3 2 86.09 8
-10 -3 2 68.39 3.4
10 -3 -2 79.59 7.5
-10 3 1 3 2.8
-10 -3 1 1.1 2.6
10 -3 -1 4 3.5
-10 -3 1 -0.8 1.7
-10 3 0 49.4 4.6
-10 -3 0 45 6.3
-10 -3 0 40.6 4.9
10 -3 0 67.49 7.9
10 3 1 61.89 5.9
-10 3 -1 60.09 7.7
-10 3 -1 57.69 3.2
10 3 1 61.49 6.9
-10 -3 -1 62.99 7.9
-10 -3 -1 70.19 6.3
10 -3 1 76.49 7.9
10 3 2 101.69 9.1
-10 3 -2 110.49 9.4
10 3 2 95.99 7.8
-10 -3 -2 104.89 11.9
10 -3 2 108.89 9.9
10 3 3 32.6 6.8
10 3 3 39.7 6.5
-10 3 -3 32 6.5
-10 -3 -3 37.6 7.6
-10 -3 -3 39.9 6.8
10 -3 3 35.8 6.9
10 3 4 2.6 4.2
10 3 4 -0.6 3.1
-10 3 -4 -1.8 3.5
-10 3 -4 1.5 1.7
10 -3 4 -0.9 1.3
10 -3 4 1.1 3.6
-10 -3 -4 -1.5 4
-10 -3 -4 0.3 3.4
-10 3 -5 264.57 11.6
10 3 5 284.77 17.9
-10 3 -5 281.97 17.4
10 3 5 261.17 16
10 -3 5 279.87 16.7
10 -3 5 279.27 11
-10 -3 -5 291.27 19.3
-10 -3 -5 281.27 16.5
-10 3 -6 51.39 9.6
10 3 6 33.1 9
10 3 6 43.9 8.5
-10 3 -6 47.4 6.6
10 -3 6 45.4 5.9
10 -3 6 44.3 8.7
-10 -3 -6 62.79 12.1
10 3 7 80.39 12.3
-10 3 -7 73.99 11.5
-10 3 -7 70.99 8.1
10 3 7 75.39 12.7
-10 -3 -7 70.69 11.3
-10 -3 -7 50.59 12.2
10 -3 7 75.19 11.5
-10 3 -8 172.28 12.6
10 3 8 182.58 20.1
10 -3 8 156.38 11.9
10 -3 8 168.28 15.7
-10 -3 -8 179.38 18.2
10 3 9 -0.6 6.8
-10 3 -9 -3 4.3
10 -3 9 4.6 5
10 -3 9 11.6 6.9
-10 -3 -9 5.7 7.3
10 3 10 47.8 12.3
-10 -3 -10 32.6 12.2
10 -3 10 38.8 10.3
10 -3 10 32.9 7.4
10 3 11 21.7 9.8
10 -3 11 14.3 9.1
10 -3 11 26.5 7.5
-10 -3 -11 24.5 10.5
10 4 -12 -8.6 5.8
10 -4 -12 -4.7 7
-10 -4 12 0 5.6
10 4 -11 5 5.6
-10 -4 11 6.3 5.1
10 -4 -11 3.9 7
10 4 -10 38.7 7.1
-10 -4 10 19.8 6.5
10 -4 -10 28.7 11
10 4 -9 22.4 5.5
-10 -4 9 -2.9 6.3
-10 -4 9 20.9 6.8
10 -4 -9 18.8 8.6
-10 4 8 20.2 8.5
10 -4 -8 12.5 7.7
-10 -4 8 19.4 4.9
10 -4 -8 14 7.3
-10 -4 8 22.5 7.7
10 4 -7 24.6 4.5
-10 4 7 27.5 9.2
-10 -4 7 18.6 7.4
-10 -4 7 26.6 4.8
10 -4 -7 33.9 9
10 -4 -7 31.7 8.1
-10 4 6 -5.7 5.1
10 4 -6 3.5 2.4
10 -4 -6 1.5 4.9
-10 -4 6 -1.6 2
10 -4 -6 0.4 4.5
-10 4 5 233.18 17.1
-10 -4 5 243.48 9.1
10 -4 -5 259.67 17.2
-10 4 4 109.09 11.4
10 -4 -4 117.79 10.9
-10 -4 4 110.89 5.1
-10 4 3 908.01 32.6
-10 -4 3 912.51 23.1
10 -4 -3 886.41 31.7
-10 4 2 159.78 11
10 -4 -2 158.78 10.5
-10 -4 2 122.09 6.7
-10 -4 2 154.68 9.3
-10 4 1 1.5 3.1
-10 -4 1 3.6 3.8
10 -4 -1 -1.3 3.3
-10 -4 1 2.9 2.5
10 -4 -1 4.2 3.1
-10 4 0 123.29 6.9
10 -4 0 119.19 9.5
-10 -4 0 108.99 7.9
-10 -4 0 123.39 9.8
10 4 1 42.8 5.7
-10 4 -1 33.4 6.4
-10 -4 -1 29.2 6.2
10 -4 1 37 6.4
10 4 2 84.69 7.7
-10 4 -2 78.09 8.5
-10 -4 -2 85.99 9.6
-10 -4 -2 70.79 7.9
10 -4 2 76.19 8.5
10 4 3 79.99 9.2
10 4 3 80.99 8.2
-10 4 -3 83.29 9.1
10 -4 3 73.89 8.7
-10 -4 -3 90.79 11.9
-10 -4 -3 91.59 9.2
-10 4 -4 149.09 12
10 4 4 140.29 12.6
10 4 4 140.19 11.3
10 -4 4 140.99 12
-10 -4 -4 144.49 14
-10 -4 -4 132.09 11.7
-10 4 -5 29.1 7.5
10 4 5 59.29 9.4
10 4 5 60.79 10.5
10 -4 5 42.8 8.3
-10 -4 -5 54.39 11.2
-10 -4 -5 50.19 9.2
10 -4 5 44.3 3.3
10 4 6 0.5 4.7
-10 4 -6 1.6 5.1
10 4 6 -3.7 5.9
10 -4 6 9.2 3.1
-10 -4 -6 10.2 6
-10 -4 -6 3.6 6.5
10 -4 6 22.9 7.1
10 4 7 36.9 9
-10 4 -7 31.1 9.2
10 4 7 40.8 10.2
10 -4 7 32.1 5.4
-10 -4 -7 47.8 11.4
10 -4 7 30.2 8.1
10 4 8 4.4 6.9
10 -4 8 12.9 6.8
-10 -4 -8 14.4 7.9
10 -4 8 4.2 7.5
10 4 9 -0.1 6.5
-10 -4 -9 3.3 7.4
10 -4 9 1.4 4.5
10 -4 9 12.6 7.6
10 4 10 41.4 12.1
10 -4 10 44.6 10.8
-10 -4 -10 31.4 14.4
10 -4 10 72.69 9.8
10 4 11 17.2 11
10 -4 11 34.3 7.4
10 -4 11 27.2 10.7
-10 -4 -11 50.39 14.3
10 5 -12 15.5 7.7
-10 -5 12 12.1 6.4
10 5 -11 20.7 6.8
10 -5 -11 13 9
-10 -5 11 9.8 5.3
10 5 -10 11.3 5.1
-10 -5 10 23.4 5.6
10 -5 -10 19.5 8.6
10 5 -9 19.5 5.3
10 -5 -9 17.3 8.5
-10 -5 9 0.4 4.4
10 -5 -8 -1.5 6
-10 -5 8 5.3 3.4
-10 -5 8 10.6 6.6
-10 5 7 4.5 6.4
10 5 -7 -1.5 2.8
-10 -5 7 3 5.5
10 -5 -7 -0.5 5.8
-10 -5 7 -0.9 2.7
10 -5 -7 -3.4 5
-10 5 6 34.1 9
-10 -5 6 26.6 4.1
10 -5 -6 14.8 7.5
-10 5 5 9.7 6.1
10 -5 -5 -3.8 4.5
-10 -5 5 0.7 2.1
-10 5 4 45.3 8.8
-10 -5 4 39.2 4.4
10 -5 -4 53.99 9.6
-10 5 3 72.79 8.7
-10 -5 3 77.99 5.7
10 -5 -3 71.09 11.5
-10 -5 3 87.29 7.7
-10 5 2 21.9 5.6
10 -5 -2 10.9 4.6
-10 -5 2 20.7 5.3
-10 5 1 25.4 4.7
10 -5 -1 18.2 5.8
-10 -5 1 27.1 4.7
-10 -5 1 21.9 5.5
10 -5 -1 15.5 4.2
-10 5 0 22.8 3.5
10 5 0 22.9 4.4
10 -5 0 27.1 6.3
-10 -5 0 20.1 5.5
-10 -5 0 22 5.2
10 -5 0 18.2 3.6
10 5 1 -1.9 2.2
-10 5 -1 -0.2 0.9
-10 -5 -1 -4 3.2
-10 -5 -1 -0.8 3.7
10 -5 1 7.3 4.1
-10 5 -2 1.1 3.6
10 5 2 2 3.4
-10 -5 -2 -4.3 3
10 -5 2 -0.2 3.2
-10 -5 -2 -4.4 3.5
-10 5 -3 3.6 4.9
10 5 3 3.8 3.7
-10 -5 -3 6.2 5.3
10 -5 3 -2.6 3.9
-10 -5 -3 10.4 4.5
10 5 4 42.8 8
-10 5 -4 40.4 8.5
-10 -5 -4 37.1 9.8
10 -5 4 52.29 8.9
-10 -5 -4 47.9 8.8
-10 5 -5 35.5 8.7
10 5 5 24.3 6.7
10 -5 5 22 7.3
-10 -5 -5 23.1 9.2
-10 -5 -5 14.2 7.7
-10 5 -6 52.09 10.1
10 5 6 53.69 9.7
-10 -5 -6 48.5 9.7
10 -5 6 41.7 3.2
10 -5 6 32.3 8.2
-10 -5 -6 29.9 10
10 5 7 23.3 9.3
-10 -5 -7 19.7 9.5
10 -5 7 17 3.5
10 -5 7 -1.4 5
-10 -5 -8 7.8 8.5
10 -5 8 6.2 6.3
10 -5 8 1.8 3
10 -5 9 -0.6 5.6
-10 -5 -9 5.1 8.3
10 -5 9 8.7 4.2
10 -5 10 18.5 6
-10 -5 -10 22.4 10.7
10 -5 10 15.9 8.9
10 -5 11 18.5 9.1
10 -5 11 17.2 8.8
10 6 -11 12.5 6.3
10 -6 -11 13 8.3
-10 -6 11 9.8 5.3
10 6 -10 6.4 5
-10 -6 10 -3.1 4
10 -6 -10 -7.5 6.2
10 6 -9 -4 4.1
-10 -6 9 -3 3.3
10 -6 -9 -8 5.6
10 -6 -8 27.8 9.7
-10 -6 8 23 7.5
-10 -6 8 34.4 5.9
10 -6 -7 24.4 9.4
-10 -6 7 16 4.4
-10 6 6 5.7 6.6
10 -6 -6 -7.4 6
-10 -6 6 0.6 2.8
-10 6 5 153.38 15.4
10 -6 -5 128.99 13.8
-10 6 4 28.2 7.5
-10 -6 4 18.8 5.1
-10 -6 4 31.2 4.9
10 -6 -4 15.5 7
-10 6 3 154.38 12.6
-10 -6 3 157.58 11
-10 -6 3 158.88 8.8
10 -6 -3 151.08 13.2
-10 6 2 1.3 3.8
-10 -6 2 4.8 4.6
10 -6 -2 -2.2 3.5
-10 6 1 9.5 3.8
-10 -6 1 9 3.9
10 -6 -1 2.5 3.2
-10 -6 1 2.6 4
10 -6 -1 10.7 5.3
-10 6 0 1.6 2.2
-10 -6 0 -1.5 3.7
-10 -6 0 -2.9 2.9
10 -6 0 7.4 3
10 -6 0 6.5 4.4
10 6 1 40.6 6.3
10 -6 1 40.8 3.9
-10 -6 -1 54.79 9.5
-10 -6 -1 68.89 9.1
10 -6 1 40.4 7.8
10 6 2 4.4 3.7
10 -6 2 6.6 4.9
-10 -6 -2 4.9 6.1
-10 -6 -2 2.4 4.5
-10 6 -3 17.3 6.1
-10 -6 -3 15.6 7.1
10 -6 3 8.9 6
-10 -6 -3 25.3 7.3
10 6 4 9 5
-10 6 -4 6 5.4
10 -6 4 7.6 5.9
-10 -6 -4 1.6 5.1
-10 -6 -4 6.9 8.5
10 6 5 14.7 6.7
-10 6 -5 23.9 7.8
-10 -6 -5 13.4 8.3
10 -6 5 21.5 8
-10 -6 -5 16.5 7.4
-10 -6 -6 26.7 11
10 -6 6 21.1 7.8
10 -6 7 7.7 6.7
-10 -6 -7 0.2 6.7
-10 -6 -8 11.3 9.2
10 -6 8 6.6 2.6
10 -6 8 -2.2 6.8
10 -6 9 65.09 12.4
-10 -6 -9 82.99 17.8
10 -6 9 65.19 7.1
10 -6 10 19.4 8.6
-10 -6 -10 -1 8.9
10 -7 -11 8.7 10.1
-10 -7 11 2.8 5.2
10 -7 -10 1.4 6.9
-10 -7 10 5.8 4.9
10 -7 -9 -0.1 6.2
-10 -7 9 -4.4 3.3
10 -7 -8 9.5 7.9
10 -7 -7 12 8.4
-10 -7 7 12.5 4.3
-10 7 6 7 5.8
-10 -7 6 9 3.9
10 -7 -6 3 6.1
-10 -7 6 9.4 5.2
-10 -7 5 191.18 13.2
10 -7 -5 171.18 16.7
-10 -7 5 187.98 11
-10 7 4 12.1 6.8
10 -7 -4 26.6 8.3
-10 -7 4 16.4 4.7
-10 -7 4 21.1 6.5
-10 7 3 5.1 4.8
10 -7 -3 4.4 4.9
-10 -7 3 9 5.4
-10 -7 3 7.1 3.6
-10 7 2 -2.4 3.8
10 -7 -2 -0.6 4.2
-10 -7 2 1.1 3.2
-10 -7 2 -0.9 4.4
-10 7 1 10.3 4.9
-10 -7 1 13 5.7
10 -7 -1 0.3 4.4
-10 -7 1 0.1 3.6
10 -7 -1 4.8 4.2
-10 7 0 -1 2.1
-10 -7 0 3.9 5
10 -7 0 4.2 5.3
10 -7 0 2 3.2
-10 -7 0 1.8 4
10 -7 1 17.2 3.7
-10 -7 -1 14.2 6.9
10 -7 1 17.6 6.9
-10 -7 -1 12 5.6
10 7 2 -4 3.5
-10 -7 -2 -6.5 3.7
10 -7 2 -3.5 4.6
-10 -7 -2 -5.7 5.4
10 7 3 3.6 4.4
-10 -7 -3 11.9 6.1
10 -7 3 -0.3 5.2
-10 -7 -3 2.9 7
10 -7 4 -1.1 6.1
-10 -7 -4 17.6 7.2
-10 -7 -4 25.4 10.3
-10 -7 -5 -1 7.2
10 -7 5 2.1 6
-10 -7 -6 18.5 10.1
10 -7 6 3.3 6
10 -7 7 9.6 6.8
-10 -7 -7 3.2 8.2
10 -7 8 -3.7 6.1
-10 -7 -8 -0.6 8.2
-10 -7 -9 -17.8 7.7
10 -7 9 -2.1 7
-10 -8 10 -8.1 4.6
-10 -8 9 43.6 6.9
10 -8 -9 34.8 11.5
10 -8 -8 40.7 12.1
-10 -8 8 21.2 5.8
-10 -8 7 15.6 5
10 -8 -7 17.1 9.8
-10 -8 7 25.1 6.9
-10 -8 6 42.5 8.1
10 -8 -6 47.6 13.8
-10 8 5 8.9 6.2
-10 -8 5 1.7 5.4
10 -8 -5 7.1 7.2
-10 8 4 16.9 7.1
10 -8 -4 10.2 7.2
-10 -8 4 8.9 5.8
-10 8 3 153.28 13.4
10 -8 -3 171.68 15.4
-10 -8 3 152.18 11
-10 -8 3 135.39 13
-10 8 2 136.29 11.3
10 -8 -2 120.49 12.3
-10 -8 2 117.19 10.5
10 -8 -2 121.49 13.3
-10 -8 2 119.29 12.5
-10 8 1 20.1 5
-10 -8 1 23 8.4
10 -8 -1 23.1 7.6
10 -8 -1 21 6.9
-10 -8 1 16.1 5.5
-10 8 0 -3.5 2.4
10 -8 0 4.8 3.7
-10 -8 0 -4.9 6.1
-10 -8 0 10.4 5.4
10 -8 0 4.1 5.3
10 8 1 24.8 5.8
-10 -8 -1 30.3 8.5
10 -8 1 36.6 8.8
-10 -8 -1 21 8.1
10 -8 1 39 5.4
10 -8 2 34.1 3
10 -8 2 33.4 9
-10 -8 -2 26.1 8.8
-10 -8 -3 24.8 8.3
10 -8 3 23.5 8.3
10 -8 4 21.5 8.4
-10 -8 -4 31.5 11.1
10 -8 5 3.4 6.2
-10 -8 -5 -5.8 7.2
-10 -8 -6 8 8.8
10 -8 6 23.7 8.8
-10 -8 -7 -3.8 7.3
10 -8 7 -6.9 5.4
-10 -8 -8 11.2 8.9
10 -8 8 -10.4 6.6
10 -8 9 -3.5 7.1
-10 -8 -9 7.6 10.1
10 -9 -9 19.4 11.2
-10 -9 9 18.6 7.8
-10 -9 9 21.8 7.5
-10 -9 8 -2.1 4.8
10 -9 -8 10.7 7.6
-10 -9 8 -0.5 4.3
10 -9 -7 13.6 8.6
-10 -9 7 4.4 7.1
-10 -9 7 7 4.5
-10 -9 6 17.2 5.8
10 -9 -6 20.7 10.2
-10 -9 6 42.2 8.3
-10 -9 5 3.5 5.7
-10 -9 5 13.7 5
10 -9 -5 6.5 6.8
-10 9 4 56.59 10.5
-10 -9 4 61.29 10.6
10 -9 -4 79.09 14.1
-10 -9 4 56.99 8.6
-10 9 3 11.7 6
-10 -9 3 -3.3 5.9
10 -9 -3 5 6
-10 -9 3 12.6 5
-10 9 2 35.1 7
10 -9 -2 17.7 7.8
-10 -9 2 27.2 6.4
-10 -9 2 13.2 7.7
10 -9 -2 21 7.3
-10 9 1 21.7 5.3
10 -9 -1 16.5 6.2
-10 -9 1 12 8
-10 -9 1 24.2 7
10 -9 -1 21 8.2
-10 9 0 11.1 3.6
-10 -9 0 16.7 6.9
10 -9 0 19.6 5.7
-10 -9 0 17.2 9
10 -9 0 11.4 6.6
10 -9 1 2 3.5
-10 -9 -1 4.3 5.6
10 -9 1 5 6
10 -9 2 2.7 2.3
-10 -9 -2 3.9 6.5
10 -9 2 0.9 7.1
-10 -9 -2 2 7.8
-10 -9 -3 -5.9 7.2
10 -9 3 -2.4 6.3
10 -9 4 -1.2 6.4
-10 -9 -4 -6.2 7.3
10 -9 5 1 6.2
-10 -9 -5 -2 7
-10 -9 -6 -12.5 7.6
10 -9 6 -4.3 6.7
10 -9 7 -4.3 8.3
-10 -9 -7 -1.2 8.6
-10 -10 7 7.7 5.2
10 -10 -7 18.3 10.2
-10 -10 7 3.9 6.8
-10 -10 6 4.4 5.2
10 -10 -6 9.7 8.6
-10 -10 6 4.1 6.4
-10 -10 5 15.3 7.9
10 -10 -5 12.9 7.9
-10 -10 5 9.5 5.3
10 -10 -4 33.9 9.8
-10 -10 4 19 8.6
-10 -10 4 37.3 7.7
-10 10 3 9.8 6.4
10 -10 -3 18.3 8
-10 -10 3 12.7 5.6
-10 -10 3 23.4 9.4
10 -10 -3 24.4 8.8
-10 10 2 3.8 5.3
10 -10 -2 -3.1 6
10 -10 -2 7.5 5.6
-10 -10 2 -2.1 4.6
-10 -10 2 5 7.8
-10 10 1 35.4 6.1
-10 -10 1 15.8 7.9
-10 -10 1 27.3 9.5
10 -10 -1 26 9.1
-10 -10 1 39.1 8.7
10 -10 -1 19.8 6.9
10 -10 0 -3 5.4
-10 -10 0 8.1 6.9
-10 -10 0 -5.7 7
10 -10 0 2.7 5
10 -10 1 50.99 7.4
10 -10 1 22.4 9.3
-10 -10 -1 34.2 11
-10 -10 -2 30.6 11.4
10 -10 2 4.8 7.4
10 -10 2 6.9 2.9
-10 -10 -3 42.4 14.2
10 -10 3 72.09 14.1
-10 -10 -4 2.8 10.2
10 -10 4 6.7 7.7
10 -10 5 5 8.5
-10 -10 -5 2.2 9.3
10 -10 6 -4.3 6.7
-10 -11 5 10 7.7
-10 -11 5 2 6
10 -11 -5 0.7 6.7
-10 -11 4 24.1 8.6
-10 -11 4 11 6.6
10 -11 -4 20.1 9.1
-10 11 3 2.6 8.6
10 -11 -3 30.2 9.3
10 -11 -3 17.2 8.4
-10 -11 3 13.7 7.2
-10 -11 3 29.8 11
-10 11 2 -6.5 4.9
10 -11 -2 -5.4 5.5
10 -11 -2 -4.7 5.6
-10 -11 2 -0.3 5.8
-10 -11 2 7.5 6.3
-10 -11 2 -1.7 7.5
-10 11 1 -5.1 4
-10 -11 1 -2.7 5.2
-10 -11 1 2.2 6.7
10 -11 -1 1.3 6.6
10 -11 -1 -3.7 4.8
10 -11 0 20.2 6.8
-10 -11 0 -5.1 8.4
10 -11 0 7.1 8
10 -11 1 3.4 4.3
-10 -11 -1 2 9.2
10 -11 1 4.7 7.4
10 -11 2 10.8 3.2
-10 -11 -2 19.3 10.7
10 -11 2 27.6 9.6
10 -11 3 10.8 7.7
-10 -11 -3 -0.5 8.8
-10 -11 -4 -5.2 10.4
10 -11 4 14 8.4
11 0 -11 -7.8 4.8
11 0 -10 219.18 14.9
11 0 -9 1.1 4.1
-11 0 9 9.8 7.3
-11 0 8 169.18 16.5
11 0 -8 189.18 11.9
-11 0 7 10.3 6.1
11 0 -7 -3.6 2.8
-11 0 6 303.17 19.5
11 0 -6 333.07 14.2
11 0 -5 -2 2.1
-11 0 5 6 4.9
-11 0 4 1010.5 35.1
11 0 -4 1053.69 29
11 0 -2 11.1 2.5
11 0 -1 1.6 2
-11 0 1 1.9 1.9
11 0 0 42.7 4.5
-11 0 0 39 4.4
-11 0 -1 -1.1 2.4
-11 0 -1 -1.4 1.9
11 0 1 2.9 2.7
-11 0 -2 34.8 5.7
11 0 2 49.4 4.4
-11 0 -2 56.39 6
11 0 2 47.9 6.6
-11 0 -3 -1.7 3.3
-11 0 -3 -2.9 3
11 0 3 -0.7 2.3
11 0 3 -2.7 2.9
11 0 4 14.5 5.1
11 0 4 9.9 3.8
-11 0 -4 3.1 3.8
-11 0 -4 7.8 4.6
11 0 5 2.5 3.2
-11 0 -5 -3.2 3.3
-11 0 -5 -2.3 2.9
11 0 5 -0.6 3.7
-11 0 -6 88.79 10.1
11 0 6 78.69 8.7
-11 0 -6 86.89 10.5
11 0 6 79.99 11.2
-11 0 -7 5.5 5.6
11 0 7 -2.4 4.5
11 0 7 -1.3 4.1
-11 0 -8 26.2 7.8
11 0 8 29 8
11 0 8 49.6 10.7
-11 0 -9 4.6 6.1
11 0 9 4.9 5.9
11 0 9 4.2 4.9
11 0 10 26.4 10.3
-11 0 -10 54.29 12.1
-11 0 -11 -4.8 6
11 0 11 -2.9 5.6
11 0 12 20.9 12
-11 0 -12 56.69 13.1
11 1 -12 -4.6 6.2
11 1 -11 62.99 10.9
11 -1 -11 50.09 10.1
11 1 -10 1.1 4.8
11 1 -9 2.8 4.1
-11 1 9 5.1 10
-11 -1 9 -8.9 6
-11 1 8 69.59 12.4
11 1 -8 79.89 8
11 -1 -8 97.49 9.8
-11 -1 8 80.29 13.7
11 1 -7 56.19 6
-11 1 7 36.3 9.9
-11 -1 7 55.79 10.6
11 -1 -7 56.79 8.1
-11 1 6 250.77 18.1
11 1 -6 246.98 10.8
-11 -1 6 239.28 16.8
11 -1 -6 263.47 13.7
-11 1 5 4.2 4.5
11 1 -5 5.2 2.4
-11 -1 5 1.5 3.8
11 -1 -5 4.3 3.4
-11 1 4 139.99 11.5
11 1 -4 141.29 6.2
11 1 -3 73.79 3.6
-11 1 3 79.69 8.3
11 1 -2 162.68 5.9
-11 1 2 178.08 10.3
11 -1 -2 172.88 8.6
-11 1 1 160.18 8.4
11 1 -1 154.48 6.6
11 -1 -1 166.48 8.4
-11 -1 1 170.78 6.9
11 1 0 219.68 9.1
-11 1 0 214.28 10.3
-11 -1 0 211.18 9.1
11 -1 0 213.48 10.5
-11 1 -1 23.1 3.1
-11 1 -1 22.6 4.9
11 1 1 17.8 3.1
11 1 1 21.5 4.2
-11 -1 -1 24.5 4.3
11 -1 1 26.5 5
-11 -1 -1 17.4 3.8
11 1 2 151.38 9.8
-11 1 -2 141.39 7.7
-11 1 -2 144.39 11.8
11 1 2 157.78 8.5
-11 -1 -2 150.48 9.6
-11 -1 -2 162.18 9.7
11 -1 2 161.28 10.1
11 -1 2 157.58 6.4
11 1 3 2 3.1
11 1 3 4.9 3.9
-11 1 -3 6.9 4.3
-11 1 -3 5.3 3.2
-11 -1 -3 6 4.4
11 -1 3 4.3 4.2
-11 -1 -3 10.2 4.4
11 -1 3 4.5 2.4
11 1 4 136.99 9.4
-11 1 -4 142.09 11.2
11 1 4 154.18 11.4
-11 1 -4 147.59 9.9
-11 -1 -4 131.39 11.7
11 -1 4 151.78 8.4
-11 -1 -4 151.18 11
11 -1 4 147.99 11.1
-11 1 -5 82.89 8.8
11 1 5 82.09 8.6
11 1 5 91.59 9.8
-11 1 -5 77.69 10.2
-11 -1 -5 88.79 9.4
11 -1 5 89.09 7.7
11 -1 5 109.69 10.1
-11 -1 -5 87.69 10.2
11 1 6 73.89 9.8
-11 1 -6 59.09 9.4
11 1 6 62.19 10.5
-11 1 -6 60.39 9
11 -1 6 58.09 9.5
-11 -1 -6 76.09 10.8
11 -1 6 42.6 7.1
-11 -1 -6 58.29 10.4
-11 1 -7 6.2 5
-11 1 -7 3.5 5.5
11 1 7 11.2 6.3
11 1 7 5.2 4.4
-11 -1 -7 5.3 6.4
11 -1 7 3.3 4.2
-11 -1 -7 14.2 6.6
11 -1 7 1.6 5.3
-11 1 -8 -1.8 5.6
11 1 8 -2.4 4.8
-11 -1 -8 3 5.7
11 -1 8 -7.1 3.8
11 -1 8 -8.8 4.9
11 1 9 7.3 6.6
11 1 9 -3 5.6
-11 1 -9 10.9 7.2
11 -1 9 4 5.2
-11 -1 -9 8.4 7.1
11 -1 9 3 5.6
11 1 10 25.9 8.6
-11 1 -10 25.1 9.2
11 -1 10 23.7 9.2
11 -1 10 25.6 8.2
-11 -1 -10 28.6 9.6
11 1 11 -3.7 6.6
-11 -1 -11 1.6 7.9
11 -1 11 1.6 6.3
11 1 12 9.7 8.6
-11 1 -12 25.9 10.4
-11 -1 -12 9.4 9.5
11 2 -12 36.8 9.1
11 2 -11 -3.9 5.3
11 -2 -11 18.2 8.7
11 2 -10 3.8 5
11 -2 -10 12.3 7.7
11 -2 -10 9.1 6.4
11 2 -9 25.5 5.9
11 -2 -9 32.1 8
11 -2 -9 22.4 8.6
-11 -2 9 26.4 6
-11 -2 9 4.9 6.9
-11 2 8 6.3 6.9
-11 -2 8 -2.9 5.1
11 -2 -8 4.9 5.6
11 -2 -8 7.5 5.1
-11 -2 8 5.7 3.8
11 2 -7 157.48 9.1
-11 2 7 155.18 15.6
11 -2 -7 175.68 12.8
11 -2 -7 146.09 14
-11 -2 7 149.39 14.2
-11 2 6 34.5 8.4
11 -2 -6 39 8.3
11 -2 -6 43 7.6
-11 -2 6 36.5 8.4
11 2 -5 678.23 18.3
-11 2 5 657.33 29.1
11 -2 -5 662.63 27.5
-11 2 4 9.8 5.2
11 -2 -4 8.9 4.8
-11 2 3 320.37 16.6
-11 2 2 30.8 5.7
11 -2 -2 32.9 5.2
-11 2 1 18.2 4
11 2 -1 11.2 2.4
11 -2 -1 15 4.2
-11 -2 1 11.1 2.2
-11 2 0 19.1 4.5
11 2 0 20.9 3.7
-11 -2 0 26 3.8
11 -2 0 31.1 5.3
-11 -2 0 26 4.6
11 2 1 904.11 26.5
-11 2 -1 886.91 21.5
11 2 1 806.62 27.2
11 -2 1 884.31 28.3
-11 -2 -1 855.01 27
-11 -2 -1 845.02 25.4
11 2 2 8.7 3.4
11 2 2 8.1 4.1
-11 2 -2 7.1 2.3
-11 2 -2 5.4 4.2
-11 -2 -2 12.1 4.3
11 -2 2 5.1 4.1
-11 -2 -2 10.7 4.9
-11 2 -3 98.89 9.5
-11 2 -3 120.59 7
11 2 3 108.79 8.4
11 -2 3 110.19 5
-11 -2 -3 97.49 8.9
11 -2 3 110.69 9.7
11 2 4 7.6 4.5
11 2 4 4 3.5
-11 2 -4 4.9 3.2
-11 2 -4 7.8 4.9
-11 -2 -4 17.7 6
11 -2 4 6.7 2.5
-11 -2 -4 10.1 4.5
11 -2 4 14.9 5.3
-11 2 -5 191.58 14.4
-11 2 -5 190.68 11.5
11 2 5 210.98 13.2
11 2 5 186.58 14
-11 -2 -5 191.78 14.9
-11 -2 -5 201.18 13.7
11 -2 5 200.98 10
11 -2 5 222.78 14.8
-11 2 -6 14.8 5
11 2 6 6 5.3
-11 2 -6 9.6 5.7
11 2 6 23.1 6.4
-11 -2 -6 22.5 8.3
-11 -2 -6 15.4 5.7
11 -2 6 17.5 4.6
11 -2 6 12.1 5.9
-11 2 -7 0.9 5.6
11 2 7 0.1 5
11 2 7 8.4 6
11 -2 7 6.8 6
-11 -2 -7 9.4 6.4
11 -2 7 4.7 4
-11 -2 -7 11.1 7.4
-11 2 -8 6.6 4.8
11 2 8 9 6
11 -2 8 7.9 6.5
11 -2 8 9.2 5.3
-11 -2 -8 4.3 6.2
-11 2 -9 49 9.8
11 2 9 53.29 11.8
11 -2 9 71.59 10.2
-11 -2 -9 52.49 12.1
11 -2 9 48.7 10.8
11 2 10 -1.8 6.4
-11 2 -10 4.8 5.4
-11 -2 -10 14.8 8.6
11 -2 10 14.1 7.5
-11 2 -11 13.1 7.8
11 2 11 15.4 9.2
11 -2 11 14.6 9.1
11 -2 11 25.2 7.6
-11 -2 -11 11.3 7.9
-11 2 -12 -3.7 7.1
11 2 12 -4.4 7
11 -2 12 -5.6 7
-11 -2 -12 -0.3 8.1
11 -3 -13 16.4 9.5
11 3 -12 -13.9 5.4
11 -3 -12 -8.1 5.1
-11 -3 12 -13.7 4.5
11 3 -11 8.1 5.2
11 -3 -11 2.7 6.4
-11 -3 11 9 5.9
11 3 -10 -1.7 4.2
11 -3 -10 1.4 6.3
-11 -3 10 5.4 4.8
11 3 -9 7 4.1
-11 -3 9 9.3 7
11 -3 -9 2.3 4.8
11 -3 -9 -2.4 6.6
-11 -3 9 1.9 5.7
-11 3 8 23.7 8.8
11 3 -8 15.5 4.5
11 -3 -8 21.3 8.1
-11 -3 8 17.9 7.6
-11 -3 8 15.9 4.8
11 -3 -8 16.5 6.5
11 3 -7 57.69 5.9
-11 3 7 41.3 11.7
11 -3 -7 70.99 10.6
11 -3 -7 37.2 9.2
-11 -3 7 54.39 9.8
-11 -3 7 48.3 6
-11 3 6 14.3 6.9
11 3 -6 10 2.7
-11 -3 6 11 2.8
11 -3 -6 9.3 5.3
11 -3 -6 8 4.5
11 3 -5 15.4 2.2
-11 3 5 19.2 6.5
11 -3 -5 17.7 6.5
-11 -3 5 13.2 2.3
-11 3 4 47.7 9
11 -3 -4 69.49 9.9
-11 3 3 18.1 7.1
11 -3 -3 6.6 4.4
-11 3 2 109.09 9.4
11 -3 -2 114.39 8.6
-11 -3 2 110.99 4.2
-11 3 1 4.1 3.1
-11 -3 1 2.3 2
-11 -3 1 2.5 2.9
11 -3 -1 7.3 3.9
11 3 0 10.8 3.7
-11 3 0 14.2 3.3
-11 -3 0 12.3 4.2
-11 -3 0 17.2 3.6
11 -3 0 11.5 4.4
-11 3 -1 93.09 8.5
11 3 1 83.09 7.7
-11 3 -1 92.59 3.5
-11 3 -1 98.49 4.6
11 3 1 94.59 7
-11 -3 -1 99.99 7.5
11 3 2 235.18 13.2
11 3 2 218.88 11.7
-11 3 -2 243.58 13.7
-11 -3 -2 225.48 12.4
11 -3 2 236.38 14
-11 -3 -2 242.48 14.3
-11 3 -3 20.4 5.8
11 3 3 20.8 5.7
11 3 3 21.4 5.1
11 -3 3 15.8 5.4
-11 -3 -3 26.7 6.7
-11 -3 -3 19.3 5
-11 3 -4 18.9 3
11 3 4 20.3 6.1
11 3 4 18.5 5.2
-11 3 -4 28 6.6
11 -3 4 16.2 2.2
-11 -3 -4 21.1 7.2
-11 -3 -4 23.7 6.2
11 -3 4 11.2 5
-11 3 -5 61.19 5.6
11 3 5 61.69 9
11 3 5 66.99 10.4
-11 3 -5 50.19 9.3
-11 -3 -5 57.49 10.8
11 -3 5 64.89 4.9
11 -3 5 70.19 10.2
-11 -3 -5 50.99 8.6
-11 3 -6 7 5.6
-11 3 -6 12.6 3.9
11 3 6 5.7 5
11 3 6 6.8 6.1
-11 -3 -6 7.8 5.3
11 -3 6 4.7 3.1
11 -3 6 2 4.9
-11 -3 -6 8 6.3
-11 3 -7 -13.1 4.6
-11 3 -7 2.6 3.5
11 3 7 3.1 5.1
11 3 7 2.5 5.6
11 -3 7 -2.2 3.5
-11 -3 -7 8.4 6.2
11 -3 7 -0.1 5.2
-11 -3 -7 -11.5 5.4
11 3 8 124.29 16.9
-11 3 -8 140.59 11.6
-11 -3 -8 156.08 17.6
11 -3 8 151.48 11.3
-11 3 -9 6.7 4.8
11 3 9 3.1 7
11 -3 9 1.9 6.6
11 -3 9 3.3 4.8
-11 -3 -9 -1.1 6.7
11 3 10 18.4 8.5
-11 -3 -10 27.7 11
11 3 11 21.1 10.7
11 -3 11 17.1 9.8
11 -3 11 6.4 6.6
-11 -3 -11 17.2 9.6
-11 -4 12 6.8 6.2
11 -4 -12 9.2 8.5
11 4 -11 12.9 5.8
11 -4 -11 4.5 7.6
-11 -4 11 -3.2 4.3
11 4 -10 11.5 5.2
-11 -4 10 9.9 4.7
11 -4 -10 6.8 7.1
11 4 -9 -2.2 3.7
11 -4 -9 14.4 7.9
-11 -4 9 -6.3 3.2
-11 -4 9 6 8.1
11 4 -8 3 3.6
-11 -4 8 -9.6 5.5
11 -4 -8 8.8 6.2
11 -4 -8 -6.1 4.4
-11 -4 8 12.1 4.2
-11 4 7 26 8.2
11 4 -7 25.5 4.4
-11 -4 7 34.8 4.8
11 -4 -7 34.2 9.2
-11 -4 7 25.4 7.4
11 -4 -7 38.6 8.8
-11 4 6 63.49 11.6
11 4 -6 61.09 4.9
11 -4 -6 61.19 10.3
-11 -4 6 64.49 5.1
11 -4 -6 75.69 12.1
-11 4 5 26 7.4
11 -4 -5 13.6 5.9
-11 -4 5 13 2.3
-11 4 4 78.99 9.7
11 -4 -4 79.49 9.2
-11 -4 4 80.19 3.6
-11 4 3 103.09 10.2
-11 -4 3 78.29 4.2
-11 -4 3 88.89 4.3
11 -4 -3 92.99 8.9
-11 4 2 13 4.7
11 -4 -2 14.9 4.5
-11 -4 2 6.9 2.2
-11 -4 2 14 4.2
-11 4 1 268.87 12.8
11 -4 -1 268.67 14.3
-11 -4 1 270.27 13.6
-11 -4 1 260.57 10.7
11 -4 -1 254.57 11.9
-11 4 0 64.99 5.3
11 -4 0 58.49 8.1
-11 -4 0 63.39 7.7
-11 -4 0 61.39 6.1
-11 4 -1 40.3 7.2
11 4 1 50.19 6.4
11 -4 1 48.5 7.8
-11 -4 -1 43.4 7.4
-11 -4 -1 50.19 5.8
11 4 2 152.18 10
11 4 2 157.08 12
-11 4 -2 163.18 11.8
11 -4 2 141.59 11.3
-11 -4 -2 142.99 10.1
-11 -4 -2 133.69 12
11 4 3 2.9 3.7
-11 4 -3 11.7 5.1
11 4 3 4.3 4.6
-11 -4 -3 25.9 6.2
11 -4 3 14.3 5.2
-11 -4 -3 6.4 5.2
11 4 4 19.6 6.3
-11 4 -4 1.4 4.1
11 4 4 8.6 4.6
-11 -4 -4 11.9 6.2
11 -4 4 10.3 5.2
-11 -4 -4 8.4 4.7
11 4 5 4.6 4.7
11 4 5 9.9 5.9
-11 4 -5 6.1 6.2
-11 -4 -5 10.5 7.2
11 -4 5 7.5 1.6
11 -4 5 9.4 5.2
-11 -4 -5 2.6 4.5
-11 4 -6 -3.9 5.1
11 4 6 -0.5 5.2
11 4 6 -2.8 4.1
11 -4 6 -1.7 2.1
-11 -4 -6 -2.1 4.7
-11 -4 -6 4.4 7.4
11 -4 6 2.7 5.2
11 4 7 1.6 6.1
11 -4 7 6.2 5.6
-11 -4 -7 5 7
11 -4 7 2.8 2.8
11 4 8 52.49 11.8
11 -4 8 41.5 10
-11 -4 -8 38.5 11.9
11 4 9 31.6 10.8
-11 -4 -9 36.2 12
11 -4 9 17.1 8.3
11 -4 9 29.6 5.9
11 4 10 53.89 13.3
11 -4 10 42.3 11
-11 -4 -10 61.69 15.3
11 -4 10 46.8 8.1
-11 -4 -11 8.5 9.3
11 -4 11 8.8 7.9
11 -4 11 13.9 6.7
11 5 -12 -10.8 6.6
-11 -5 12 8.3 6.7
11 -5 -12 -2.9 6.8
11 5 -11 7.5 5.5
11 -5 -11 6.6 7.8
-11 -5 11 13.1 5.5
11 5 -10 -3.6 4.3
11 -5 -10 1.9 5.6
-11 -5 10 12.1 5.4
11 5 -9 7.4 4.1
11 -5 -9 9.1 7.7
-11 -5 9 7.9 4.2
11 5 -8 23.4 4.8
-11 -5 8 0.9 6.7
-11 -5 8 29.5 5.2
-11 5 7 12.1 7.7
-11 -5 7 8.2 3.3
11 -5 -7 15.8 7.8
11 -5 -7 8.9 5.9
-11 5 6 -5.6 3.8
11 -5 -6 0.5 5.4
-11 -5 6 4.3 2.6
-11 5 5 -3.4 4.2
-11 -5 5 -1.8 1.7
11 -5 -5 -1.7 4.3
-11 5 4 48.6 9.2
11 -5 -4 45.1 8.9
-11 -5 4 55.99 4.5
-11 5 3 3.4 4.2
-11 -5 3 1.2 2.1
-11 -5 3 4 3.7
-11 5 2 77.19 8.4
11 -5 -2 78.59 8.2
-11 -5 2 87.29 8.3
-11 -5 2 79.29 6.1
-11 5 1 18.3 4.2
11 -5 -1 11.1 4.7
11 -5 -1 5.5 3.3
-11 -5 1 4.9 3.9
-11 -5 1 3.6 3
-11 5 0 78.99 5.7
-11 -5 0 73.69 9
11 -5 0 84.39 5.8
11 -5 0 66.59 9.1
-11 -5 0 70.49 7.3
11 5 1 11.8 3.8
-11 5 -1 16.4 1.4
11 -5 1 20.5 5.7
-11 -5 -1 19.2 6.2
-11 -5 -1 12.2 4.6
11 5 2 19.3 4.9
-11 5 -2 15.4 5.8
-11 -5 -2 15.1 6.3
11 -5 2 21.8 6
-11 -5 -2 16.8 5
11 5 3 -0.1 3.5
-11 5 -3 0.2 4.4
11 -5 3 -0.7 4.8
-11 -5 -3 4.7 4.3
-11 -5 -3 -0.7 4.9
-11 5 -4 82.39 11.6
-11 -5 -4 90.99 11.6
11 -5 4 90.49 12
-11 -5 -4 97.59 14.2
-11 5 -5 -9.2 5.5
11 5 5 -0.1 4.1
-11 -5 -5 3.3 6.3
-11 -5 -5 -9.7 4.1
11 -5 5 -2.5 4.6
11 5 6 7.6 6.2
-11 5 -6 -3.5 5
-11 -5 -6 1.2 6.5
11 -5 6 5 5.7
-11 -5 -6 4.5 5.5
11 5 7 87.79 14.8
-11 -5 -7 64.09 14
11 -5 7 74.09 5
11 5 8 -2.1 5.5
-11 -5 -8 1 7.7
11 -5 8 -2.2 5.6
11 5 9 41.2 11
-11 -5 -9 48.8 13
11 -5 9 30.2 9.2
-11 -5 -10 13.1 9
11 -5 10 5.8 5.8
11 -5 10 6.5 7.4
11 -5 11 7.4 7.2
-11 -5 -11 10.9 8.6
11 6 -11 -8.2 4.6
-11 -6 11 8.2 5.9
11 -6 -11 18.8 9.9
11 6 -10 11.7 4.6
11 -6 -10 17.6 9.3
-11 -6 10 -0.2 3.9
11 -6 -9 -4.4 6.3
-11 -6 9 3.7 4.2
11 -6 -8 -2.1 6.1
-11 -6 8 8.8 6.3
-11 -6 8 19.4 4.6
-11 -6 7 0.7 2.7
11 -6 -7 -7.4 5.3
-11 6 6 48.9 10.4
-11 -6 6 24.7 4.4
11 -6 -6 29.7 9.3
-11 6 5 6.2 6.2
-11 -6 5 7.5 3.1
11 -6 -5 -7 4.4
-11 6 4 79.59 11.8
11 -6 -4 88.59 10.9
-11 -6 4 72.29 6.3
-11 -6 4 69.39 7.8
-11 6 3 27.3 6.6
11 -6 -3 23.8 6.9
-11 -6 3 27.6 4.4
-11 -6 3 24.1 5.8
-11 6 2 249.48 14.6
11 -6 -2 226.48 14.4
-11 -6 2 224.58 11.7
-11 -6 2 237.28 14.2
-11 6 1 5.8 3.4
11 -6 -1 -2.9 3.1
-11 -6 1 3.1 4.7
11 -6 -1 -0.8 2.9
-11 -6 1 3.2 3.3
-11 6 0 -0.7 2.2
-11 -6 0 2.3 4.9
-11 -6 0 -1.2 3.2
11 -6 0 3.6 4.4
11 -6 0 3.1 2.5
11 6 1 44.4 6.8
11 -6 1 59.59 9.3
-11 -6 -1 46.5 9.3
-11 -6 -1 44.7 7.7
11 6 2 13.1 4.4
-11 -6 -2 11.2 5.4
-11 -6 -2 23.4 7.6
11 -6 2 9.1 6
11 6 3 7.5 4.2
-11 6 -3 5.2 5.1
11 -6 3 16.1 6.7
-11 -6 -3 9.1 5.1
-11 -6 -3 9.8 6.7
-11 6 -4 5.5 6
11 6 4 3.6 4.7
11 -6 4 3.7 6.5
-11 -6 -4 12 7.9
-11 6 -5 33.3 9.2
-11 -6 -5 7.5 7.4
11 -6 5 9.6 7.1
-11 -6 -5 24.5 9.5
-11 -6 -6 9.4 8.6
11 -6 6 5.1 7
11 -6 7 13 7.2
-11 -6 -7 -10.7 6
-11 -6 -8 21.1 10.5
11 -6 8 3.5 6.1
11 -6 9 28.7 9.5
11 -6 9 38.7 4.3
-11 -6 -9 35.2 13
11 -6 10 -5 5.8
-11 -7 10 -5.2 4.3
11 -7 -10 -8.3 7.2
11 -7 -9 -2.8 6.1
11 -7 -8 13.7 8
11 -7 -7 0.4 7.7
-11 -7 7 4.8 3.2
-11 7 6 -1.6 6.1
-11 -7 6 6.7 5.2
-11 -7 6 8.1 3.4
11 -7 -6 12.3 6.9
-11 -7 5 29.4 5.1
11 -7 -5 21.8 8.2
-11 -7 5 26.6 6.9
-11 7 4 20 7.1
-11 -7 4 12.9 4.1
11 -7 -4 11.8 6.7
-11 -7 4 8.6 5.8
-11 7 3 -6.3 3.9
11 -7 -3 -3.2 4.2
-11 -7 3 3.7 4.9
-11 -7 3 -3.3 2.8
-11 7 2 105.19 10.4
11 -7 -2 104.69 12
-11 -7 2 112.59 8.9
-11 -7 2 101.09 11.9
11 -7 -2 124.09 13.9
-11 7 1 -4.9 3.1
11 -7 -1 -6.5 3.9
11 -7 -1 1.3 3.4
-11 -7 1 -1.7 4.5
-11 -7 1 -1.6 3.6
-11 7 0 43.6 5
11 -7 0 44.9 6.3
-11 -7 0 44 9.2
11 -7 0 45 9.1
-11 -7 0 50.19 8.5
11 7 1 0 3.5
11 -7 1 -2.2 4.5
11 -7 1 2.1 2.1
-11 -7 -1 3.1 6.3
-11 -7 -1 -3.3 3.3
11 7 2 27.9 6.1
-11 -7 -2 28 7.2
-11 -7 -2 26.8 9.2
11 -7 2 26.6 8
11 7 3 7.1 4.7
-11 -7 -3 5.5 9.4
11 -7 3 4.8 5.9
-11 -7 -3 -2.9 6.4
-11 -7 -4 33.7 8.2
11 -7 4 14.1 7
-11 -7 -4 14.9 9.9
-11 -7 -5 2.4 7.5
11 -7 5 -8.6 9.1
11 -7 6 3.2 6.6
-11 -7 -6 2.2 7.4
11 -7 7 14.8 7.8
-11 -7 -7 -4 7.6
-11 -7 -8 -10.5 7.4
11 -7 8 -0.9 6.6
11 -7 9 6 7.6
-11 -7 -9 17.6 10.8
11 -8 -10 -10.3 13.5
-11 -8 10 0.6 4.9
11 -8 -9 28.8 10.8
-11 -8 9 -1.2 4.6
-11 -8 8 -1.3 5.2
11 -8 -8 8.9 8.4
-11 -8 7 2.1 5.3
11 -8 -7 10.3 8.4
-11 -8 7 -7.6 3.6
-11 -8 6 0.9 4.7
-11 -8 6 1.6 3.7
11 -8 -6 9 7.2
-11 8 5 24.5 8.6
11 -8 -5 27.5 9.5
-11 -8 5 11.6 4.3
-11 -8 5 33.9 7.9
-11 8 4 -5 5.1
-11 -8 4 3.2 3.9
11 -8 -4 -12.5 4.3
-11 -8 4 -5.9 5.1
-11 8 3 24.7 7.5
11 -8 -3 22.7 7.6
-11 -8 3 23 7.9
-11 8 2 -3.1 3.7
-11 -8 2 1.2 6.4
11 -8 -2 -4.1 3.6
11 -8 -2 5.5 5.9
-11 -8 2 -0.5 3.7
-11 8 1 -0.4 3.3
-11 -8 1 -0.6 4.4
11 -8 -1 16.1 6.8
11 -8 -1 9.4 4.5
-11 -8 1 5.4 6.3
-11 8 0 9.7 3.3
-11 -8 0 2.6 5.2
11 -8 0 3.4 3.7
-11 -8 0 5.9 6.7
11 -8 0 -9.9 3.7
11 8 1 0.1 3.7
11 -8 1 -8.1 4.3
-11 -8 -1 -1.4 5.1
11 -8 1 -0.2 2.3
-11 -8 -1 -8.2 5.6
11 -8 2 4.7 5.7
-11 -8 -2 7.4 7.4
-11 -8 -3 8.3 6.8
-11 -8 -3 7.5 8.4
11 -8 3 -3.3 6.6
-11 -8 -4 20.3 10.4
11 -8 4 6 6.4
11 -8 5 18.7 8
-11 -8 -5 32.9 10.9
-11 -8 -6 3.8 7.8
11 -8 6 0.1 7.4
-11 -8 -7 -9.9 7.7
11 -8 7 5.6 6.9
-11 -8 -8 17.4 11.6
11 -8 8 31.1 10
11 -9 -9 24.5 10
-11 -9 9 3.6 5.1
-11 -9 9 7.4 6.3
-11 -9 8 6.4 5.6
-11 -9 8 10.3 5
11 -9 -8 9.3 8.9
-11 -9 7 15.3 5.3
11 -9 -7 25.9 9.3
-11 -9 7 28.1 7.7
-11 -9 6 28.2 6
11 -9 -6 18.1 8.7
-11 -9 5 7.8 4.7
11 -9 -5 5.2 6.5
-11 -9 5 -1.8 6
-11 9 4 67.29 11
-11 -9 4 65.79 8.5
11 -9 -4 61.29 11.9
-11 -9 4 65.89 11.4
-11 9 3 43.3 8.7
-11 -9 3 26.5 5.9
-11 -9 3 45.6 9.9
11 -9 -3 44.2 9.6
-11 9 2 14.3 5.8
-11 -9 2 2.7 4.8
-11 -9 2 11 7.7
11 -9 -2 17.4 6.3
11 -9 -2 3.4 5.8
-11 -9 2 7.2 5.3
-11 9 1 31.7 6.1
11 -9 -1 24.4 8.3
11 -9 -1 24.8 6.7
-11 -9 1 17.6 8.6
-11 -9 1 26 7
11 -9 0 2 5.6
11 -9 0 3.2 3.7
-11 -9 0 -2.7 4.8
-11 -9 -1 -2.5 6.6
11 -9 1 -1.3 5.2
-11 -9 -1 -11.6 4.8
11 -9 1 -0.1 2.6
11 -9 2 -0.4 6.6
-11 -9 -2 2.5 5.5
-11 -9 -2 1 6.9
11 -9 3 -2.3 5.9
-11 -9 -3 12.4 8.7
11 -9 4 -4.7 6.2
-11 -9 -4 -3.8 6.6
-11 -9 -5 2.5 8.1
11 -9 5 10.7 8.1
-11 -9 -6 -3.3 8.6
11 -9 6 2.2 7.2
11 -9 7 4.1 7.9
11 -10 -7 25.7 9.9
-11 -10 7 0.4 4.4
-11 -10 7 3.6 6.9
-11 -10 6 -6.5 5.8
-11 -10 6 -3.9 4.4
11 -10 -6 7 8.2
-11 -10 5 3.1 5.6
11 -10 -5 10.7 8.5
-11 -10 5 -2.3 7
-11 -10 4 12 5.7
11 -10 -4 32 9.1
-11 -10 4 13 7.9
-11 10 3 4.4 6.2
-11 -10 3 5.1 7.3
-11 -10 3 5 5.1
11 -10 -3 13.4 6.4
11 -10 -3 8.8 6.3
-11 10 2 105.79 10.9
11 -10 -2 103.19 13.8
-11 -10 2 122.79 14.6
-11 -10 2 113.59 12.5
-11 -10 2 130.39 11.8
11 -10 -2 92.99 14.1
-11 10 1 0.6 3.5
-11 -10 1 -1.8 4.7
11 -10 -1 13.7 5.8
11 -10 -1 11.1 7.5
-11 -10 1 -3.3 5.5
-11 -10 1 -0.2 6.5
11 -10 0 49.5 11
11 -10 0 56.29 12.6
-11 -10 0 53.59 12.4
11 -10 1 2.9 3.1
11 -10 1 -0.1 6.6
-11 -10 -1 1.5 9.2
-11 -10 -2 -9.7 8.4
11 -10 2 9.6 7.4
11 -10 3 20 9.4
-11 -10 -3 26.1 12.6
11 -10 4 7.6 8.4
-11 -10 -4 3.6 10.9
11 -10 5 -10.7 5.6
-11 -10 -5 -8.3 9.5
-11 -10 -6 -12.7 7.5
11 -10 6 -1.4 8.3
-11 -11 5 4.4 6.2
-11 -11 5 3.4 7.6
11 -11 -5 0.2 6.8
11 -11 -4 -0.9 6.6
-11 -11 4 5 7.6
-11 -11 4 -7.6 5.4
-11 11 3 10.5 7
11 -11 -3 5.9 6.7
-11 -11 3 -2.6 6.2
-11 -11 3 22 10.1
11 -11 -3 14.7 8.3
11 -11 -2 5.3 6.1
-11 -11 2 12 8.8
-11 -11 2 9.2 6.3
11 -11 -2 5.9 7.4
-11 -11 2 -5.8 6.6
-11 11 1 5.5 4.2
-11 -11 1 6.9 7.6
-11 -11 1 13.1 6.7
11 -11 -1 5.9 6.7
11 -11 -1 21 6.1
11 -11 0 20.8 8.8
-11 -11 0 9.8 8.1
11 -11 0 15.6 6.7
11 -11 1 18 9.3
-11 -11 -1 21.5 10.9
11 -11 1 7.2 4.7
-11 -11 -2 -14.8 9.6
11 -11 2 -10.7 7.4
-11 -11 -3 -12.1 7.4
11 -11 3 -7.7 7.8
11 -11 4 5.6 7.9
12 0 -11 7.8 6
12 0 -10 116.09 11.2
-12 0 9 -1.2 9.4
12 0 -8 14.6 5
-12 0 8 7.9 6.6
-12 0 7 -4.5 4.7
12 0 -7 3.1 3.2
12 0 -6 5.5 3.3
-12 0 6 15.1 6.3
12 0 -5 2.4 2.6
-12 0 5 -4.1 3.4
-12 0 4 187.58 13
12 0 -2 116.09 6.2
-12 0 1 0.5 2
12 0 -1 3.5 2.3
-12 0 0 8 3
12 0 0 6.8 2.9
-12 0 -1 1.8 2.4
12 0 1 -0.4 2.7
-12 0 -1 -1.1 2.9
12 0 2 197.98 11.5
12 0 2 218.18 9
-12 0 -2 199.08 10.5
-12 0 -3 -0.9 3.1
12 0 3 -0.5 2.3
12 0 3 0.2 3.3
-12 0 -3 -0.7 3.6
12 0 4 12.8 5
-12 0 -4 11.5 4.8
-12 0 -4 5.8 4.4
12 0 4 15.8 4.1
12 0 5 4.6 3.1
-12 0 -5 2.9 4.2
12 0 5 -0.3 3.9
-12 0 -5 -1.4 3.7
12 0 6 62.19 9.7
-12 0 -6 44.2 8.4
12 0 6 59.19 8.1
-12 0 -6 57.09 9.8
12 0 7 0.9 3.9
-12 0 -7 -6 4.6
12 0 7 1.7 5
-12 0 -7 -8.4 4.1
12 0 8 53.09 9.5
-12 0 -8 81.69 13
12 0 8 66.89 13.8
12 0 9 -6.6 4.6
-12 0 -9 10.4 7.4
12 0 9 -10.8 4
-12 0 -10 48.8 11.7
12 0 10 33.1 10.4
-12 0 -11 12.1 8
12 0 11 -4.2 5.7
-12 0 -12 24 10.2
12 0 12 24.7 11.2
12 1 -12 9.5 8.5
12 1 -11 33.4 7.6
12 -1 -11 28.7 7.7
12 1 -10 34.9 7.5
12 -1 -10 39.1 8.6
12 1 -9 4.4 4.2
-12 -1 9 13.9 7.5
12 -1 -9 4.4 5
12 1 -8 17.6 4.7
-12 1 8 20.3 7.6
12 -1 -8 24.7 6.5
-12 -1 8 37.7 10.2
12 1 -7 89.09 7
-12 1 7 89.09 13.5
-12 -1 7 99.49 13.9
12 -1 -7 95.99 8.9
-12 1 6 2.8 5.2
12 1 -6 9.9 3
-12 -1 6 1.3 4.5
12 -1 -6 13.4 4.4
-12 1 5 7.2 5.1
12 1 -5 13.2 2.8
12 -1 -5 9.9 4
-12 -1 5 11 5.1
12 1 -4 -0.7 1.6
-12 1 4 0.6 3.7
-12 1 3 0.1 3.5
12 1 -3 0.7 1.4
12 1 -2 591.64 15.7
12 -1 -2 572.74 18.7
12 1 -1 4.8 2.1
-12 1 1 3.3 2.8
-12 -1 1 5.8 2.2
12 -1 -1 8 3
12 1 0 29.5 4.1
-12 1 0 31.6 5.1
12 -1 0 33.9 5.5
-12 -1 0 25.3 4
-12 -1 0 21.7 3.6
-12 1 -1 6.4 2.4
-12 1 -1 0.7 3.1
12 1 1 4 2.9
-12 -1 -1 0.4 2.6
12 -1 1 4.3 3.4
-12 -1 -1 5.3 3.1
12 1 2 31.8 5.5
-12 1 -2 26.3 6
-12 1 -2 22.7 4
12 1 2 28 4.6
-12 -1 -2 32.5 6
-12 -1 -2 29 5.7
12 -1 2 33.2 6.1
12 1 3 63.19 9.4
-12 1 -3 58.19 8.2
12 1 3 60.89 6.1
-12 1 -3 63.09 6.3
-12 -1 -3 63.09 8
-12 -1 -3 67.19 8.6
12 -1 3 49.5 4.6
12 -1 3 65.29 7.6
12 1 4 0.8 3.6
12 1 4 3.6 3.3
-12 1 -4 4.2 4.2
-12 1 -4 -1 3.1
12 -1 4 2.8 2.3
-12 -1 -4 -5.4 2.7
12 -1 4 3.6 3.7
12 1 5 12.5 5.4
12 1 5 7 4.1
-12 1 -5 4.9 4.3
-12 1 -5 10.2 5.2
-12 -1 -5 7 4.7
-12 -1 -5 -1.9 4.2
12 -1 5 6.9 3.4
12 -1 5 9.9 4.8
12 1 6 4.4 5
-12 1 -6 -0.4 4.4
-12 1 -6 4 5
12 1 6 3.9 4.1
12 -1 6 -3.2 3.1
-12 -1 -6 2.7 5.1
-12 -1 -6 11 5.7
12 -1 6 -0.5 4.3
12 1 7 24.4 6.6
-12 1 -7 28.7 7.8
-12 1 -7 34.1 8.1
12 1 7 26.6 8.2
-12 -1 -7 19.1 7.8
12 -1 7 32.2 6.7
-12 -1 -7 19 7.6
12 -1 7 28.5 8.1
12 1 8 2.7 5.6
-12 1 -8 0.7 5.5
12 -1 8 2.7 4.5
-12 -1 -8 15 7.8
-12 1 -9 31.8 9.4
12 1 9 33.5 8.4
12 1 9 31.1 9.7
-12 -1 -9 49.6 12.3
12 -1 9 41.9 10.5
12 -1 9 22.7 7.2
12 1 10 50.09 11.3
-12 1 -10 57.59 11.7
12 -1 10 67.79 13.3
12 -1 10 65.09 10.8
-12 -1 -10 51.49 12.8
12 1 11 10.4 7.4
-12 -1 -11 16.7 8.8
12 -1 11 11.7 8.5
12 2 -12 27.5 8.4
12 2 -11 31 7.7
12 2 -10 16.9 5.7
12 -2 -10 0.2 5.9
12 -2 -10 8.4 6.9
12 2 -9 31.4 6.4
-12 -2 9 35.5 10.1
12 -2 -9 44.3 10.6
12 -2 -9 49.4 9.5
12 2 -8 25 4.9
-12 2 8 18.2 8.3
12 -2 -8 21 6.8
-12 -2 8 17.7 7.5
12 -2 -8 12.2 7.3
12 2 -7 127.69 7.9
-12 2 7 114.59 13.8
-12 -2 7 120.59 13.8
12 -2 -7 125.09 11.4
12 -2 -7 128.39 13.1
-12 2 6 13 6.7
-12 -2 6 9 5.2
12 -2 -6 17.9 6.3
12 -2 -6 17 5.4
-12 2 5 204.68 15.6
12 2 -5 182.48 6.9
12 -2 -5 181.28 13.3
-12 2 4 19.1 5.8
-12 2 3 1.4 4.5
-12 2 2 883.51 29.6
-12 -2 2 926.21 21.4
12 -2 -2 944.31 28.4
-12 2 1 -1.1 2.7
12 2 -1 0.4 1.7
12 -2 -1 0.3 2.7
-12 -2 1 1.4 1.9
-12 2 0 1.8 3.2
12 2 0 -0.1 2.3
-12 -2 0 1.5 2.4
-12 -2 0 -1.2 2.6
12 -2 0 1.6 3.5
12 2 1 2.2 3
-12 2 -1 2.5 1.8
12 2 1 -0.8 2.1
-12 -2 -1 0.7 3.5
12 -2 1 2.7 3.9
-12 -2 -1 -2.3 2.9
12 2 2 2.4 3.3
-12 2 -2 -1.1 1.9
12 2 2 -1.8 2.3
-12 2 -2 -5.7 2.9
12 -2 2 0.8 4.1
-12 -2 -2 2.6 4.5
12 2 3 23.1 5.2
12 2 3 31.9 6.4
-12 2 -3 28.7 4.3
-12 2 -3 24.2 6.1
-12 -2 -3 15.3 4.6
-12 -2 -3 34.8 7.8
12 -2 3 23.3 2.7
12 -2 3 22.3 5.9
12 2 4 26.4 5.5
-12 2 -4 26.9 6.9
-12 2 -4 35.1 5.2
12 2 4 35.4 7.8
12 -2 4 31.8 7
-12 -2 -4 22.3 6
-12 -2 -4 21.1 6.8
12 -2 4 25.6 3.6
-12 2 -5 180.78 14.4
12 2 5 203.98 14.8
12 2 5 169.98 12.1
-12 2 -5 155.98 10.7
12 -2 5 194.08 9.5
-12 -2 -5 197.08 13.7
-12 -2 -5 178.28 15.3
12 -2 5 194.68 14.2
-12 2 -6 15.8 5.5
12 2 6 18.5 6.7
12 2 6 22.2 6.6
-12 2 -6 20 7.7
-12 -2 -6 21.9 7.9
12 -2 6 21 4.8
12 -2 6 22.4 6.8
-12 2 -7 79.19 12.1
12 2 7 112.19 14.8
-12 -2 -7 83.49 12.7
12 -2 7 108.99 12.3
12 -2 7 106.49 9.4
-12 -2 -7 122.89 16.8
12 2 8 84.09 13.5
-12 2 -8 70.79 10.4
12 2 8 58.69 10.5
-12 -2 -8 80.39 14.1
12 -2 8 77.69 19.7
12 -2 8 73.39 8.8
12 2 9 73.89 13.9
-12 2 -9 49.9 9.9
12 -2 9 44.6 10.7
12 -2 9 46.7 8.7
-12 2 -10 13.2 6.8
12 2 10 7.3 7.4
-12 -2 -10 -4.3 7
12 -2 10 9.2 7.8
-12 2 -11 33.8 9.3
12 2 11 20.5 10.4
12 -2 11 19.1 9.6
-12 -2 -11 20.6 9.5
12 -2 11 18.8 6.9
12 -3 -12 9.3 7.2
12 3 -11 11.4 6.1
12 -3 -11 4.5 6.2
12 3 -10 0.3 4.6
12 -3 -10 14.2 8.5
-12 -3 10 10.1 5.1
12 3 -9 8.8 4.5
12 -3 -9 16.3 7
12 -3 -9 3.8 5.3
-12 -3 9 -0.5 3.5
-12 3 8 1.6 6.2
12 3 -8 1.9 3.3
12 -3 -8 -2 4.8
12 -3 -8 -3.7 5.5
-12 -3 8 -2 4.9
-12 -3 8 -3.8 2.9
12 3 -7 41 5.1
-12 -3 7 28.1 8.2
-12 -3 7 34.4 4.9
12 -3 -7 46.9 8.9
12 -3 -7 47.8 10.4
-12 3 6 35.4 8.7
12 3 -6 27.9 3.4
12 -3 -6 27.7 6.7
12 -3 -6 35.5 8.2
-12 3 5 17.8 6.5
12 -3 -5 30.9 7.5
-12 3 4 51.09 9.3
12 -3 -4 50.09 8.4
-12 3 3 106.99 12.1
12 -3 -3 101.49 9.2
-12 3 2 466.55 19.4
-12 -3 2 428.76 11.5
12 -3 -2 462.55 18.7
-12 3 1 -1.7 2.4
-12 -3 1 0 1.8
12 -3 -1 -3.4 2.7
-12 3 0 0.5 3.2
12 3 0 1.1 2.8
-12 3 0 1.8 2.6
12 -3 0 -1.9 3.1
-12 -3 0 -2.5 2.2
-12 3 -1 3.7 3.5
-12 3 -1 4.3 2
12 3 1 8.1 4.1
12 3 1 5.3 3
-12 3 -1 7.6 1.4
12 -3 1 10.2 4.6
-12 -3 -1 1.9 4.1
-12 -3 -1 7.7 3.5
12 3 2 128.49 9.8
-12 3 -2 132.29 10.5
12 3 2 132.29 9
-12 -3 -2 123.59 9
-12 -3 -2 142.89 11.3
12 -3 2 139.99 11
12 3 3 96.29 8.4
-12 3 -3 88.39 9.4
-12 3 -3 90.09 4
12 3 3 94.89 9.4
-12 -3 -3 92.89 10.2
-12 -3 -3 82.19 8.2
12 -3 3 120.49 10.7
-12 3 -4 25.3 3.4
12 3 4 26.2 6.8
12 3 4 28 5.9
-12 3 -4 25.3 6.6
-12 -3 -4 21.4 5.9
12 -3 4 26.1 6.6
-12 -3 -4 21.9 7.1
12 -3 4 27.3 2.5
12 3 5 45.9 9.1
-12 3 -5 38.5 8.1
-12 3 -5 45.8 5.2
12 3 5 37.4 7.5
12 -3 5 39.5 8.1
12 -3 5 44.3 4.2
-12 -3 -5 41.6 7.9
-12 -3 -5 58.29 11
12 3 6 25.8 8.3
12 3 6 34.3 9.1
-12 3 -6 27.6 7.9
-12 3 -6 36.4 6
-12 -3 -6 36.6 9.1
12 -3 6 25.1 4.3
12 -3 6 20.7 7.2
-12 -3 -6 29.7 9.3
-12 3 -7 -3.5 3.2
12 3 7 -8.2 4.7
-12 3 -7 5.2 6.6
12 3 7 6.2 4.7
-12 -3 -7 1.5 6.9
12 -3 7 2.6 5.4
12 -3 7 2.9 3.3
12 3 8 15.6 7.9
-12 3 -8 17.1 6.5
12 -3 8 6.4 6.9
-12 -3 -8 7.9 7.9
12 -3 8 14.8 5
12 3 9 -1.7 5.9
-12 3 -9 10.5 5.3
-12 -3 -9 4.2 8.6
12 -3 9 7 4.7
12 -3 9 -2.1 5.9
12 3 10 20 10.2
12 -3 10 18.9 8.4
12 -3 10 31.8 7.2
-12 -3 -10 21.7 10
12 3 11 52.89 14.5
12 -3 11 36.6 11.6
-12 -3 -11 49 13.2
12 -3 11 50.79 9.1
12 4 -12 8.3 6.7
-12 -4 12 7.2 6
12 -4 -12 9.6 14.5
12 4 -11 -3.7 4.9
-12 -4 11 17.9 5.3
12 -4 -11 13 8.4
12 4 -10 53.89 7.8
-12 -4 10 50.09 7.7
12 -4 -10 64.69 13.8
12 4 -9 9.7 6.4
12 -4 -9 8.2 6.2
-12 -4 9 -4.5 3.3
12 4 -8 22.1 4.6
12 -4 -8 25.1 8.8
-12 -4 8 34.8 9
-12 -4 8 26.5 5.1
12 -4 -8 25.1 7.9
12 4 -7 5.6 2.8
-12 4 7 9.9 6.9
12 -4 -7 7.5 6.4
12 -4 -7 8.8 5.5
-12 -4 7 8.5 3
-12 4 6 74.39 12.3
12 -4 -6 70.59 11.7
-12 -4 6 73.69 4.8
-12 4 5 19.6 6.9
-12 -4 5 31.4 2.2
12 -4 -5 23.9 6.7
-12 4 4 6.8 4.7
12 -4 -4 15.5 5.4
-12 4 3 310.97 17.1
-12 -4 3 300.77 8.5
12 -4 -3 337.47 16.8
-12 -4 3 318.57 8.5
-12 4 2 49.1 7.3
12 -4 -2 44.8 7.4
12 -4 -2 40.6 6.5
-12 -4 2 52.59 6.4
-12 -4 2 37.8 3.6
-12 4 1 0.3 2.8
-12 -4 1 -3.5 1.7
12 -4 -1 -1.3 3
-12 -4 1 1.4 3.5
-12 4 0 8 2.8
-12 -4 0 3.3 2.9
-12 -4 0 1.3 3.8
12 -4 0 5.9 4.1
12 4 1 128.39 8.8
-12 4 -1 116.19 10.3
-12 -4 -1 122.39 8.7
12 -4 1 113.99 10.1
-12 -4 -1 126.89 10.7
-12 4 -2 28.1 6.6
12 4 2 31.2 5.7
12 -4 2 32.6 7.1
-12 -4 -2 26.2 7.2
-12 -4 -2 31.6 6
12 4 3 4.3 4.3
12 4 3 -0.9 3.1
-12 4 -3 2.3 4.3
-12 -4 -3 -10.5 3.7
-12 -4 -3 -2.6 3.2
12 -4 3 0.3 3.8
12 4 4 6 4.7
12 4 4 0.8 4.3
-12 4 -4 7.8 4.7
-12 -4 -4 -1.4 3.3
12 -4 4 -0.6 3.8
-12 -4 -4 0.3 4.6
12 4 5 18.8 7.2
-12 4 -5 16.4 7.5
12 -4 5 25.7 7.4
-12 -4 -5 36.8 8.6
-12 -4 -5 36.4 9.9
12 4 6 13.7 7.7
-12 4 -6 10.4 6.6
12 4 6 6.3 5.3
-12 -4 -6 25.1 9.3
12 -4 6 9.4 5.8
12 -4 6 4.9 2.3
-12 -4 -6 14.7 6.2
12 4 7 177.18 23.4
-12 -4 -7 171.88 18.5
12 -4 7 124.99 13.9
12 -4 7 161.18 8.7
12 4 8 15 8.1
-12 -4 -8 15.4 9.9
12 -4 8 27 8.3
12 -4 8 31.7 6.2
12 4 9 59.99 12.9
12 -4 9 59.59 7.8
-12 -4 -9 70.09 14.8
12 -4 9 56.29 11.7
12 4 10 -5.5 7.3
12 -4 10 -0.2 6.9
12 -4 10 4 4.8
-12 -4 -10 -9.6 6.4
12 4 11 0.9 7
12 -4 11 12.8 8.6
-12 -4 -11 2.1 7.6
12 5 -12 1.4 5.7
-12 -5 12 16.6 7.3
12 -5 -12 1.7 8.1
12 -5 -11 49.9 12.4
-12 -5 11 54.49 8.3
12 5 -10 13.7 4.8
12 -5 -10 21.5 8.7
-12 -5 9 -1.1 3.2
12 -5 -9 -3.5 4.9
12 5 -8 35.7 5.2
-12 -5 8 45.5 10.6
-12 -5 8 31.7 5.2
-12 5 7 -5 5.1
12 -5 -7 7.4 6.2
12 -5 -7 -5 5.6
-12 -5 7 -1 2.4
-12 5 6 13.2 6.5
-12 -5 6 8.2 2.6
12 -5 -6 9 6.6
-12 5 5 27.3 7.7
-12 -5 5 34.3 3.3
12 -5 -5 21.5 7.2
-12 5 4 10.6 5.4
-12 -5 4 8.1 2.2
12 -5 -4 7 4.7
-12 5 3 78.69 9.4
-12 -5 3 83.79 8.5
-12 -5 3 90.69 5.5
-12 -5 3 78.49 5.1
-12 5 2 9.6 3.8
12 -5 -2 3.5 3.7
-12 -5 2 3.7 2.7
-12 -5 2 5.6 4
12 -5 -2 3.3 3.4
-12 5 1 159.08 10.1
-12 -5 1 166.48 9.4
12 -5 -1 166.48 9.9
12 -5 -1 186.78 13.1
-12 -5 1 174.48 12.2
-12 5 0 39.3 4.4
-12 -5 0 39.6 5.8
-12 -5 0 39.3 7.4
12 -5 0 31.9 6.7
12 5 1 16.7 4.6
-12 -5 -1 21.5 6.5
-12 -5 -1 13.3 4.5
12 -5 1 28.1 6.6
12 5 2 19.5 5
-12 5 -2 16.8 5.9
-12 -5 -2 23.8 7.4
12 -5 2 3.5 4.5
-12 -5 -2 26.3 6
-12 5 -3 -1.2 4.5
12 5 3 6.2 4.3
-12 -5 -3 21.4 5.9
-12 -5 -3 6.6 6
12 -5 3 17.5 6.5
-12 5 -4 29.3 9.7
12 5 4 42.7 7.8
-12 -5 -4 34.8 9.8
12 -5 4 31.7 8.2
-12 -5 -4 36.2 8.8
12 5 5 4.9 4.9
-12 5 -5 4.4 5.6
12 5 5 0.7 5.9
-12 -5 -5 7.4 5.7
-12 -5 -5 3.4 6.3
12 -5 5 23.6 7.8
12 5 6 50.59 11.2
12 -5 6 35.6 9.2
-12 -5 -6 45.5 11.6
12 5 7 7.2 6.4
12 -5 7 4.1 6.2
12 -5 7 4.1 1.7
-12 -5 -7 -4.6 5.9
12 5 8 0.9 7
-12 -5 -8 -0.6 7.5
12 -5 8 3 2.3
12 -5 8 0.2 5.9
12 5 9 5.9 7.8
12 -5 9 5.4 6.8
12 -5 9 -0.7 3.1
-12 -5 -9 -1.5 7.6
12 5 10 -0.4 6.9
12 -5 10 13.3 8.3
-12 -5 -10 0.7 9
-12 -6 11 7.3 5.4
12 -6 -11 11.1 8.7
12 -6 -10 -5 6.9
12 -6 -9 7.8 7.3
-12 -6 9 5.7 4.2
-12 -6 8 6.7 3.5
12 -6 -8 -4.2 5.6
-12 -6 7 12.7 3.4
12 -6 -7 9.1 6.9
-12 6 6 80.69 13.3
12 -6 -6 93.99 14.4
-12 -6 6 81.49 5.8
-12 6 5 1.8 6.2
12 -6 -5 -1.8 5.3
-12 -6 5 8.6 2.8
-12 6 4 114.19 12.3
-12 -6 4 122.89 10.3
-12 -6 4 117.69 7.2
12 -6 -4 122.99 12.1
-12 6 3 4.5 4.7
-12 -6 3 -0.9 3.6
-12 -6 3 8.3 2.9
12 -6 -3 5.3 4.2
-12 6 2 202.98 13.3
12 -6 -2 225.28 13.6
12 -6 -2 213.48 15.2
-12 -6 2 228.18 14.2
-12 -6 2 198.88 10.8
-12 6 1 12.6 4.1
12 -6 -1 8.3 3.8
-12 -6 1 7.2 5.2
-12 -6 1 4.7 3.8
12 -6 -1 6.1 4.7
-12 6 0 20.1 3.5
12 -6 0 24.8 4.1
12 -6 0 21.9 6.5
-12 -6 0 21.3 6.6
-12 -6 0 25.8 5.7
12 6 1 29.1 5.9
-12 -6 -1 29.3 6.4
12 -6 1 20.4 6.8
-12 -6 -1 21 7
-12 -6 -2 54.99 9.1
-12 -6 -2 42 9.8
12 -6 2 37.5 8.4
-12 6 -3 -4.4 4.1
12 6 3 -2.1 3.4
-12 -6 -3 4 5.4
-12 -6 -3 -14.3 4.8
12 -6 3 0.5 4.7
-12 6 -4 0.1 6
12 6 4 0.2 4.5
-12 -6 -4 3.4 8.2
-12 -6 -4 4.7 6.2
12 -6 4 -4.9 4.8
12 -6 5 -0.4 5.4
-12 -6 -5 14.8 6.8
-12 -6 -5 6.3 7.7
-12 -6 -6 28.7 10.6
12 -6 6 44.6 10.3
-12 -6 -7 0.4 7.1
12 -6 7 7.4 6.4
12 -6 8 0 6.9
-12 -6 -8 -2.8 8.8
12 -6 9 4.9 7.1
-12 -6 -9 7.6 8.3
-12 -6 -10 -2.2 9.2
12 -6 10 0.8 7
12 -6 10 5.1 4
12 -7 -10 30.4 11
12 -7 -9 49.5 12.7
-12 -7 9 9.5 4.5
-12 -7 8 2.8 3.3
12 -7 -8 -2.7 6.1
-12 -7 7 6.5 3.4
12 -7 -7 4.2 7.4
-12 7 6 16.6 8.2
-12 -7 6 1.8 2.6
-12 -7 6 0.1 4.9
12 -7 -6 -1.5 6
-12 -7 5 28.6 7.4
-12 -7 5 26.3 4.7
12 -7 -5 22 9.1
-12 7 4 19.5 7.5
12 -7 -4 42.1 9.3
-12 -7 4 23.5 7.1
-12 -7 4 34.1 5.4
-12 7 3 11.3 6.1
12 -7 -3 13.1 5.8
-12 -7 3 6.3 3.3
-12 -7 3 11.4 6.4
-12 7 2 428.16 19.9
-12 -7 2 458.65 22.5
12 -7 -2 421.66 23.3
-12 -7 2 446.06 21.4
-12 7 1 5 3.8
12 -7 -1 12.4 6.4
-12 -7 1 0.1 5
12 -7 -1 5.2 4.1
-12 -7 1 11.1 4.7
-12 7 0 104.49 6.8
-12 -7 0 119.99 13.3
12 -7 0 92.09 12.1
12 -7 0 111.49 7.9
-12 -7 0 109.39 10.1
12 7 1 -0.9 3.3
12 -7 1 6.9 6
-12 -7 -1 -4.7 5.8
-12 -7 -1 2.4 4
12 7 2 10.9 5
-12 -7 -2 18.7 6.7
12 -7 2 2.3 5.9
-12 -7 -2 5.2 7.2
-12 -7 -3 24.1 9.7
12 -7 3 22.1 7.9
12 -7 4 6.9 6.9
-12 -7 -4 27.2 12.3
-12 -7 -4 5.9 6.7
-12 -7 -5 21.3 9.5
12 -7 5 10.1 6.9
12 -7 6 -9 5.6
-12 -7 -6 -6.4 7.7
12 -7 7 0.4 6
-12 -7 -7 -13.8 7.2
12 -7 8 10.8 8.3
-12 -7 -8 -14.7 8.3
12 -7 9 -7.6 6.7
-12 -8 10 0.7 4.8
12 -8 -9 11.6 8.6
12 -8 -8 18.4 9.4
-12 -8 8 15.2 6.7
-12 -8 8 16.9 5
-12 -8 7 5.9 9.2
-12 -8 7 20.9 4.4
12 -8 -7 21.9 9.7
-12 -8 6 42.7 8.1
12 -8 -6 50.09 11.9
-12 -8 6 41.1 6
-12 8 5 127.39 14.7
-12 -8 5 158.48 13.1
12 -8 -5 156.68 16.3
-12 -8 5 132.59 9.5
-12 8 4 13.6 6.7
12 -8 -4 -6.1 4.8
-12 -8 4 9.1 3.9
-12 -8 4 7 5.8
-12 8 3 104.69 11.8
-12 -8 3 123.29 10.6
-12 -8 3 93.39 11.5
12 -8 -3 106.29 12.5
-12 8 2 -7.5 3.5
-12 -8 2 -8.8 3.3
-12 -8 2 -3.5 5.7
-12 -8 2 3 3.7
12 -8 -2 -4.9 4.1
-12 8 1 -0.2 3.2
12 -8 -1 4.3 5.8
-12 -8 1 -0.6 5.6
12 -8 -1 0.2 3.8
-12 -8 1 -2.8 3.8
-12 8 0 -0.2 2.6
-12 -8 0 -3.9 5.9
12 -8 0 2.9 3.1
12 -8 0 11.8 6.4
-12 -8 0 -0.4 4.5
12 -8 1 77.69 5.3
-12 -8 -1 64.39 10.4
12 -8 1 82.59 14.3
-12 -8 -1 71.79 12.8
-12 -8 -2 3.7 7.5
12 -8 2 8 8.1
-12 -8 -3 41.5 11.4
-12 -8 -3 42.9 8.7
12 -8 3 33.9 9.2
-12 -8 -4 22.6 10.1
12 -8 4 19.1 8.4
-12 -8 -5 4.2 7.8
12 -8 5 5.1 6.2
-12 -8 -6 1.9 7.4
12 -8 6 10.5 8
-12 -8 -7 7.8 9.9
12 -8 7 9.9 8
12 -8 8 -18.8 7.1
-12 -9 8 9.6 6.1
12 -9 -8 5.8 8.2
-12 -9 7 40.1 8.8
12 -9 -7 63.49 13.3
12 -9 -6 13.1 8.9
-12 -9 6 10.2 7.1
12 -9 -5 8.7 6.9
-12 -9 5 1.8 4.1
-12 -9 5 8.2 6.9
-12 9 4 5.4 5.6
12 -9 -4 6.9 6.1
-12 -9 4 10.9 4.7
-12 -9 4 15.9 8.5
-12 9 3 61.49 10.5
-12 -9 3 57.59 8.5
-12 -9 3 44.1 10.1
12 -9 -3 56.89 11
12 -9 -3 73.29 12.7
-12 9 2 -7.3 4.2
-12 -9 2 1.6 4
-12 -9 2 -1.7 6.9
12 -9 -2 0.4 5.1
-12 -9 2 3.9 5.3
12 -9 -2 -3.2 4.1
-12 9 1 39.1 6.4
12 -9 -1 47.2 10.6
12 -9 -1 35.8 7.1
-12 -9 1 50.69 8.6
-12 9 0 0.6 2.5
-12 -9 0 21.9 6.4
12 -9 0 1.7 5.6
-12 -9 0 -2.3 6.3
12 -9 0 2.6 3.1
12 -9 1 1.1 2.7
-12 -9 -1 5.6 8.5
-12 -9 -1 -9.8 4.8
12 -9 1 0.3 5.3
-12 -9 -2 3.1 7.6
12 -9 2 3.8 6.9
-12 -9 -2 9.4 7.2
12 -9 3 8.4 7
-12 -9 -3 -0.3 8.9
-12 -9 -4 27 11.2
12 -9 4 13 7.8
-12 -9 -5 7.8 8.6
12 -9 5 -4.9 5.6
12 -9 6 25.3 8.9
-12 -9 -6 32.1 11.7
12 -9 7 -0.9 7.3
-12 -9 -7 -2.1 7.7
-12 -10 7 -0.3 6.4
12 -10 -7 6.4 7.8
-12 -10 7 3.8 4.5
-12 -10 6 13 5.1
-12 -10 6 5.5 7.2
12 -10 -6 8.5 8.4
12 -10 -5 -3.4 6
-12 -10 5 4 7.2
-12 -10 5 7.7 4.8
-12 10 4 93.79 13.6
-12 -10 4 78.79 12.7
12 -10 -4 107.49 15.8
-12 -10 4 61.89 9.3
-12 10 3 3.1 5.4
12 -10 -3 10.7 6.1
-12 -10 3 -5.9 5.5
-12 -10 3 -1.9 4.2
12 -10 -3 -0.2 5.5
-12 -10 3 -0.4 5.7
-12 10 2 -11 4.6
-12 -10 2 -0.7 4.3
-12 -10 2 -3.5 6.7
12 -10 -2 4 5.2
-12 -10 2 5.8 6.8
12 -10 -2 3.3 6.5
-12 10 1 11.7 4.6
-12 -10 1 9.1 7.1
12 -10 -1 -1 4.7
12 -10 -1 1.2 6.6
-12 -10 1 17.2 8.4
-12 -10 0 8.1 6.5
12 -10 0 3.6 5.9
-12 -10 0 2.8 8.8
12 -10 0 2.8 3.4
-12 -10 -1 19.5 10.6
12 -10 1 12 4.3
12 -10 1 9.5 8.4
-12 -10 -2 22.7 11.2
12 -10 2 49.4 12
-12 -10 -3 -3.6 8.6
12 -10 3 0.1 6.7
12 -10 4 0.6 6.8
-12 -10 -4 1.5 8.6
-12 -10 -5 12.3 9.6
12 -10 5 0.8 7.7
12 -10 6 11.7 8
-12 -10 -6 -4.2 10
12 -11 -5 3.7 7.7
-12 -11 5 18 8.6
-12 -11 5 -0.7 5.5
-12 -11 4 -4 7.5
-12 -11 4 8 5.7
12 -11 -4 0.9 6.7
-12 11 3 -6.5 5.8
12 -11 -3 -4.8 5.6
-12 -11 3 -9.9 6.2
12 -11 -3 0.7 6.8
-12 -11 3 -5.4 6.5
-12 -11 3 3.6 5.3
-12 11 2 43 9.6
12 -11 -2 32.8 10.7
-12 -11 2 14.5 10.7
12 -11 -2 40.3 9.3
-12 -11 2 56.39 10
-12 -11 2 44.4 9.9
-12 11 1 -1 3.1
12 -11 -1 -2.6 4.6
-12 -11 1 -14.4 7
-12 -11 1 0.6 5.5
12 -11 -1 4 7.4
12 -11 0 -5 6.5
-12 -11 0 -15.9 6
-12 -11 -1 24 11.4
12 -11 1 10.6 8.5
12 -11 1 12 4.4
-12 -11 -2 8.9 12
12 -11 2 36.7 11.5
12 -11 3 13.9 7.7
-12 -11 -3 8.9 9.6
13 0 -12 185.68 16.3
13 0 -11 4.2 7
13 0 -10 4 5
13 0 -9 -1.2 4.1
-13 0 8 237.08 19.8
13 0 -8 227.58 13.4
-13 0 7 -2 4.6
-13 0 6 39.4 8.8
13 0 -6 51.79 5.8
-13 0 5 -3.8 3.2
13 0 -5 2.6 2.6
-13 0 4 109.49 10.4
13 0 -3 0.8 2.2
13 0 -2 1.1 2.3
13 0 -1 4 2.6
-13 0 1 -0.7 2
13 0 0 288.67 12.3
-13 0 0 297.57 12.5
-13 0 -1 -0.2 2.9
-13 0 -1 2.6 2.8
13 0 1 1.5 2.9
13 0 2 188.48 11.4
13 0 2 199.68 8.8
-13 0 -2 203.98 10.8
-13 0 -2 201.98 12.3
-13 0 -3 0.7 3.4
13 0 3 -0.8 2.1
-13 0 -3 0.4 3.2
13 0 3 5.2 3.8
13 0 4 22.5 5.4
-13 0 -4 29.2 6.6
13 0 4 32.4 6.9
-13 0 -4 20.3 5.5
13 0 5 3 3.2
-13 0 -5 1.9 3.9
13 0 5 1.8 3.9
13 0 6 10.7 5.8
-13 0 -6 4.8 5.5
13 0 6 21.1 5.3
-13 0 -7 0.7 4.9
13 0 7 -13 4.3
13 0 7 -0.5 3.9
-13 0 -7 -4.6 4.8
13 0 8 69.59 10.6
-13 0 -8 100.29 14.6
13 0 8 79.69 13.4
13 0 9 -8.9 5
-13 0 -9 3.7 6.4
13 0 9 5.9 7
-13 0 -10 19.7 9.2
13 0 10 21.1 8.8
13 0 11 -3 7.9
-13 0 -11 -6.5 6.7
13 1 -12 18.2 7.6
13 1 -11 6.4 5.4
13 -1 -11 -8.9 5.2
13 1 -10 -2 4.2
13 -1 -10 0.5 4.8
13 1 -9 11.3 5
13 -1 -9 17.7 6.7
13 1 -8 8.2 3.8
-13 1 8 5.5 6.3
-13 -1 8 -6 5.4
13 -1 -8 8.5 5
13 1 -7 -2.3 2.4
-13 1 7 -6.4 5
-13 -1 7 -0.6 4.9
13 -1 -7 -0.1 3.4
13 1 -6 60.19 5.2
-13 1 6 62.29 11
13 -1 -6 62.79 7.1
-13 -1 6 79.29 11.5
13 1 -5 35 3.7
-13 1 5 41.6 8.4
-13 -1 5 38.2 7.9
-13 1 4 -0.4 4.4
13 1 -4 -0.6 1.5
13 1 -3 10.3 2
-13 1 3 11.6 4.7
13 1 -2 11.7 2.4
13 -1 -2 9.6 3.3
13 1 -1 198.68 8.4
-13 1 1 203.78 10.4
-13 -1 1 222.48 8.9
13 -1 -1 186.28 9.9
13 1 0 14.5 3.5
-13 1 0 13.9 4.1
-13 -1 0 22.6 4.2
13 -1 0 25.8 5.3
-13 -1 0 19.1 3.8
13 1 1 454.05 16.9
-13 1 -1 447.86 21
-13 1 -1 464.95 14.7
13 -1 1 471.55 18.5
-13 -1 -1 472.15 17.2
-13 -1 -1 450.25 17.4
13 1 2 83.29 7.5
13 1 2 61.39 6.8
-13 1 -2 74.59 6.2
-13 1 -2 78.89 8.3
-13 -1 -2 66.89 7.6
-13 -1 -2 68.39 7.3
13 -1 2 77.49 7.9
13 1 3 56.59 5.9
-13 1 -3 67.79 6.6
-13 1 -3 45.2 7.6
13 1 3 64.49 8.5
-13 -1 -3 59.79 8.1
13 -1 3 67.09 8.7
-13 -1 -3 64.89 8.5
13 -1 3 52.19 4.5
-13 1 -4 168.88 12.8
13 1 4 179.78 12.7
13 1 4 158.58 10.3
-13 1 -4 166.68 10.9
-13 -1 -4 149.29 11.6
13 -1 4 145.79 8.2
13 -1 4 166.88 12.3
-13 -1 -4 144.69 12.2
13 1 5 122.39 9.9
13 1 5 121.19 11.4
-13 1 -5 103.19 10.9
-13 1 -5 102.99 9.7
13 -1 5 130.19 10.2
-13 -1 -5 132.59 12
-13 -1 -5 126.99 11.6
13 -1 5 120.19 11.1
13 1 6 82.99 8.7
13 1 6 93.69 12.5
-13 1 -6 78.49 11.7
13 -1 6 76.19 7.7
-13 -1 -6 87.39 12.8
-13 -1 -6 88.99 14.8
13 -1 6 96.29 11
-13 1 -7 -1.7 6.3
13 1 7 2.2 5.1
13 1 7 4.6 5.7
-13 1 -7 -8 3.8
13 -1 7 5.5 3.9
-13 -1 -7 -7.4 4.8
-13 -1 -7 -7.1 4
13 -1 7 -2.8 4.6
13 1 8 -0.8 5.6
13 1 8 5.4 5.3
-13 1 -8 -6.5 4.3
13 -1 8 10.5 6.5
-13 -1 -8 -0.4 6.3
13 -1 8 -2.7 4.2
13 1 9 47.4 10.2
-13 1 -9 40.4 9.3
13 1 9 29.7 8.9
-13 -1 -9 31.5 9.6
13 -1 9 28.4 9.2
13 -1 9 18.3 6.9
13 1 10 3.8 7
-13 1 -10 -13.6 5
13 -1 10 -11.2 5.1
13 -1 10 6.1 6.2
-13 -1 -10 4.8 7.7
-13 1 -11 4.6 7.1
13 1 11 -9.2 6.4
13 -1 11 -1.9 8.2
-13 -1 -11 -12.2 5
13 2 -12 28.7 12
13 2 -11 32.8 6.8
13 2 -10 -1 4.1
13 -2 -10 0.8 5.7
13 2 -9 92.79 8.9
13 -2 -9 107.29 11.7
13 2 -8 -1.6 2.9
-13 2 8 12 7
13 -2 -8 -1 4.6
-13 -2 8 -2.6 5
13 -2 -8 2 5.2
-13 2 7 8 6.3
13 2 -7 22.5 4.1
-13 -2 7 17.3 6.8
13 -2 -7 9.4 4.4
-13 2 6 -1.4 4
13 2 -6 1.3 1.9
13 -2 -6 6.2 4.3
-13 -2 6 4.3 4.8
-13 2 5 21.2 6.9
13 2 -5 42.1 2.9
-13 2 4 49.8 8.4
-13 2 3 513.85 25.3
13 2 -2 698.03 18.1
-13 2 2 726.43 25.9
13 -2 -2 751.82 24.2
-13 -2 2 745.23 17.9
-13 2 1 40.1 5.8
13 2 -1 33.4 3.8
13 -2 -1 37.1 5.8
-13 -2 1 31.1 5
-13 -2 1 40.5 4.1
-13 2 0 31.8 6.8
13 2 0 32.5 4.6
13 -2 0 34.5 6.6
-13 -2 0 23.5 4
-13 -2 0 29.8 5.2
-13 2 -1 981.9 31.7
13 2 1 1015.8 30.2
13 2 1 968.5 28.3
-13 2 -1 988.5 25.4
13 -2 1 1015.7 32.5
-13 -2 -1 1021.8 29.6
-13 -2 -1 1035.3 31.6
-13 2 -2 23.5 3.6
13 2 2 25.8 4.7
-13 2 -2 18.9 5.5
13 2 2 19.4 4.9
-13 -2 -2 31.3 5.7
13 -2 2 23.4 5.6
13 2 3 488.65 18.7
13 2 3 499.05 21
-13 2 -3 459.65 16.4
-13 2 -3 514.05 22.2
-13 -2 -3 476.45 20.3
13 -2 3 485.75 21.2
-13 -2 -3 470.45 21.6
-13 2 -4 -3.9 2.2
13 2 4 1.9 3.8
-13 2 -4 -0.1 3.2
13 2 4 -0.3 3
13 -2 4 2.2 1.9
-13 -2 -4 1.6 4.2
-13 -2 -4 -5.8 3.5
13 -2 4 7.9 4.6
-13 2 -5 11.2 4.2
13 2 5 3.4 4.9
-13 2 -5 1.8 4.8
13 2 5 9.8 5
13 -2 5 2.4 2.4
-13 -2 -5 10.1 6.2
13 -2 5 6.1 5.1
-13 -2 -5 9.7 6.1
-13 2 -6 -7.1 5.4
-13 2 -6 8.3 4.9
13 2 6 4.2 5.2
13 2 6 -3.9 3.2
13 -2 6 4.2 3.3
-13 -2 -6 -3.9 5
-13 -2 -6 2.6 5
13 -2 6 -0.6 4.5
-13 2 -7 4.6 6.4
13 2 7 -0.4 4
13 2 7 0.6 5.3
-13 -2 -7 -5.5 5.8
13 -2 7 1.6 5.3
-13 -2 -7 4 6.7
13 -2 7 0.2 3.4
13 2 8 8.9 6.7
-13 2 -8 8.5 5.4
13 2 8 14.6 6.7
-13 -2 -8 8.1 6.7
13 -2 8 1.1 6
13 -2 8 0.5 4.3
-13 2 -9 6 5.7
13 2 9 37.4 10.5
13 -2 9 10.5 7.6
13 -2 9 33.3 7.5
-13 -2 -9 16.5 9.1
13 2 10 -9.7 5.4
-13 2 -10 0.1 4.8
13 -2 10 5.8 6.7
-13 -2 -10 8.5 7.9
13 2 11 3.4 7.6
-13 2 -11 -0.5 6.3
13 -2 11 -3.5 6.1
-13 -2 -11 12.7 9.5
13 -2 11 -9.3 7
13 3 -12 -0.7 5.7
13 3 -11 8.4 4.8
13 -3 -11 -0.9 5.7
13 3 -10 5.4 4.1
13 -3 -10 -5.1 5.4
13 -3 -9 0.1 6.2
13 -3 -9 2.4 5.9
-13 3 8 2.2 5.9
13 3 -8 5.8 3.5
13 -3 -8 0.4 4.8
13 -3 -8 11.5 7.3
-13 -3 8 5.8 6.3
-13 3 7 18.1 7.6
13 3 -7 22.3 3.7
13 -3 -7 18.4 6.2
-13 -3 7 31.1 9.8
13 -3 -7 29.4 8.4
-13 3 6 1 5.7
13 3 -6 2.3 1.6
13 -3 -6 -1.1 4
-13 3 5 61.19 10.2
13 -3 -5 63.49 9.8
-13 3 4 33.9 8.1
13 -3 -4 35.9 6.9
-13 3 3 25.5 6.1
-13 3 2 0.2 3.3
-13 -3 2 7.6 1.7
13 -3 -2 11.3 5.3
-13 3 1 59.19 6.6
13 -3 -1 60.49 8.9
-13 -3 1 49.5 6.1
-13 -3 1 55.79 4.5
13 3 0 0.6 2.7
-13 3 0 1.8 2.4
-13 3 0 1 3.7
-13 -3 0 -1.2 3.1
13 -3 0 3.7 3.6
-13 -3 0 1.6 2.5
-13 3 -1 251.57 7.6
13 3 1 239.78 11.6
13 3 1 252.87 12.9
-13 3 -1 224.48 13.3
-13 3 -1 252.97 9.2
13 -3 1 247.98 14.1
-13 -3 -1 247.38 11.8
-13 -3 -1 247.28 13.7
13 3 2 60.89 7.4
-13 3 -2 53.19 3.3
13 3 2 65.69 8.8
-13 3 -2 41 7.5
13 -3 2 75.09 9.5
-13 -3 -2 60.79 6.6
-13 -3 -2 72.29 8.7
-13 3 -3 38.4 7
13 3 3 41.6 7.4
-13 3 -3 31.1 2.9
13 3 3 32.5 5.9
13 -3 3 29 6.8
-13 -3 -3 38.8 8.2
-13 -3 -3 37.2 6.7
13 3 4 44 7.2
-13 3 -4 37.6 4.1
13 3 4 37.7 7.6
-13 3 -4 25.8 6.9
-13 -3 -4 32.8 7
13 -3 4 40.4 7.9
-13 -3 -4 50.89 9.6
-13 3 -5 3.8 5.3
-13 3 -5 8.9 3.2
13 3 5 5.9 4.8
13 3 5 5.7 5
-13 -3 -5 11 5.8
-13 -3 -5 9.9 7
13 -3 5 -4.2 4.5
13 -3 5 7.6 2.3
13 3 6 31.6 8.4
-13 3 -6 36.2 8.7
13 3 6 31.5 9
-13 3 -6 30 5.4
-13 -3 -6 34 8.6
-13 -3 -6 18.4 8.5
13 -3 6 35.1 4.8
13 -3 6 24.2 7.7
13 3 7 125.69 12.9
13 3 7 107.89 15.2
-13 3 -7 110.49 9.6
-13 -3 -7 114.99 17.1
13 -3 7 84.99 13
13 -3 7 104.59 8.1
13 3 8 120.09 17.5
13 -3 8 116.39 15.6
-13 -3 -8 144.99 29.1
13 -3 8 133.19 10
-13 3 -9 9.1 5.1
13 3 9 6 7.2
13 -3 9 6.1 6.4
-13 -3 -9 13.1 9.8
13 -3 9 8.1 4.6
13 3 10 28 10.4
-13 3 -10 28.1 7.3
13 -3 10 9.6 7.1
-13 -3 -10 5.4 7.4
13 -3 10 19.1 7
13 3 11 4 8.7
13 -3 11 4.5 8.4
-13 -3 -11 3 9.1
13 -3 11 -4.3 7.2
13 4 -12 -13.5 4.8
13 4 -11 31.8 6.8
13 -4 -11 16 8.9
13 4 -10 6.5 4.3
13 -4 -10 -2 6.1
13 4 -9 4.6 3.9
13 -4 -9 6.9 7.3
-13 -4 9 8.4 3.7
13 4 -8 -0.1 2.7
13 -4 -8 3.6 6.7
-13 -4 8 3.7 6.3
13 -4 -8 7.8 6.9
-13 -4 8 -3.9 2.5
-13 4 7 -0.6 5.8
13 4 -7 3.2 2.2
13 -4 -7 0 5.2
13 -4 -7 -0.1 5.4
-13 -4 7 4.8 5.7
-13 -4 7 2.3 2.5
-13 4 6 4.9 5.4
13 -4 -6 -2.8 4
-13 4 5 3.8 5.7
13 -4 -5 14.4 6.1
-13 4 4 52.99 9.3
13 -4 -4 47.3 8.7
-13 4 3 3.7 4.1
13 -4 -3 -2.3 2.4
-13 4 2 149.59 11.1
13 -4 -2 159.88 11.6
-13 -4 2 155.78 6.4
-13 -4 2 167.28 10.4
-13 4 1 556.84 20.6
-13 -4 1 562.74 17.7
13 -4 -1 587.84 23
-13 -4 1 569.24 21.5
-13 4 0 114.39 7.1
13 -4 0 100.79 9.5
-13 -4 0 116.29 7.9
-13 -4 0 108.09 9.7
-13 4 -1 246.48 14.8
-13 4 -1 244.78 7.5
13 4 1 251.17 12.5
13 4 1 250.77 13.6
-13 -4 -1 273.47 15.2
13 -4 1 247.28 14.9
-13 4 -2 353.36 18.6
13 4 2 395.66 18.8
13 4 2 368.46 16.5
13 -4 2 400.36 19.9
-13 -4 -2 373.56 17.2
-13 -4 -2 382.16 19.9
13 4 3 -0.9 3.7
-13 4 -3 3.3 4.1
13 4 3 5.1 3.7
-13 -4 -3 -3.5 3
13 -4 3 3.3 4.4
-13 -4 -3 -2.7 4.2
13 4 4 32.9 6.8
13 4 4 24.1 7.4
-13 4 -4 21.7 7.1
-13 -4 -4 29.1 6.9
13 -4 4 21.8 6.8
-13 -4 -4 33.8 8.8
-13 4 -5 12.1 6.3
13 4 5 8.9 6.1
13 4 5 -4.8 3.3
-13 -4 -5 3.9 6.6
13 -4 5 6.8 5.7
13 4 6 55.39 9.5
13 4 6 80.79 13.4
-13 4 -6 77.69 12.1
-13 -4 -6 75.29 13.6
13 -4 6 62.59 4.1
13 -4 6 71.69 11.5
-13 -4 -6 67.89 12
13 4 7 14 9.3
-13 -4 -7 11.4 9
13 -4 7 14.9 3.3
13 -4 7 4.7 8.1
13 4 8 -5.9 6.1
13 -4 8 -0.1 2.8
13 -4 8 -0.9 5.2
-13 -4 -8 -9.7 6.7
13 4 9 6.6 7.3
13 -4 9 -0.4 5.5
-13 -4 -9 -6.8 6.7
13 -4 9 -1.2 3.3
13 4 10 7.9 8.4
-13 -4 -10 16 9.9
13 -4 10 -3.6 6.4
13 4 11 3.2 8.1
-13 -4 -11 -4 10.4
13 -4 11 2.1 5
13 5 -12 11.8 6
13 -5 -12 -9.4 5.6
13 5 -11 1.4 4
13 -5 -11 -2.1 6.5
-13 -5 11 -3.5 4.8
13 5 -10 -1.7 3.8
-13 -5 10 -0.5 3.7
13 -5 -10 -6.3 5.8
13 5 -9 7.6 3.8
13 -5 -9 11.4 7.5
-13 -5 9 0.1 3.2
-13 -5 8 1.1 7.7
13 -5 -8 7.5 8.6
-13 -5 8 0.7 2.6
-13 5 7 19 9
13 -5 -7 21.1 8.6
13 -5 -7 30.7 8.9
-13 -5 7 16.6 3.1
13 -5 -6 12.7 6.5
-13 -5 6 15.1 2.3
-13 5 5 43.1 9.7
13 -5 -5 47.4 9.4
-13 -5 5 41.9 2.5
-13 5 4 -4 4.1
-13 -5 4 2.8 1.4
13 -5 -4 7.9 5.2
-13 -5 4 2.7 1.4
-13 5 3 44.9 8.2
13 -5 -3 38 8.6
-13 -5 3 42.6 3.7
-13 -5 3 32.1 6.1
-13 -5 3 38.3 3.6
-13 5 2 92.69 9.2
-13 -5 2 108.49 6.5
-13 -5 2 123.69 9.8
13 -5 -2 109.99 9.3
13 -5 -2 101.99 10.4
-13 5 1 151.38 9.9
-13 -5 1 143.59 8.6
-13 -5 1 148.59 11.4
13 -5 -1 175.38 12.6
-13 5 0 1.1 2.4
-13 -5 0 5.6 3.3
13 -5 0 3.2 3.9
-13 -5 0 3.4 4.3
13 5 1 8.8 4
-13 -5 -1 4.9 3.7
13 -5 1 17.2 6
-13 -5 -1 2.3 4.3
-13 5 -2 27.3 7.5
13 5 2 36.5 6.4
13 -5 2 27.2 7
-13 -5 -2 30.6 8.1
-13 -5 -2 38.4 6.9
-13 5 -3 2.7 4.8
13 5 3 1.3 3.7
13 -5 3 5.2 5.3
-13 -5 -3 19.2 8.1
-13 -5 -3 8.4 5.2
-13 5 -4 72.39 11.2
13 5 4 75.89 11.7
13 5 4 69.59 9.7
13 -5 4 68.49 10.8
-13 -5 -4 61.69 9.9
-13 -5 -4 64.59 12.3
13 5 5 -12.1 4.8
-13 5 -5 4.5 6.2
13 5 5 -7.2 3.7
-13 -5 -5 2.6 5.4
13 -5 5 2.7 5.8
-13 -5 -5 -5.4 5.9
13 5 6 -5.5 4.2
13 -5 6 5.5 5.4
-13 -5 -6 3.9 8.2
13 5 7 64.59 13.2
-13 -5 -7 89.49 16.6
13 -5 7 41.7 9.8
13 5 8 43.9 11.6
-13 -5 -8 11.5 10.1
13 -5 8 26.5 3.4
13 -5 8 18.9 8.4
13 5 9 18.9 9.5
13 -5 9 11.3 3.7
-13 -5 -9 2.1 8.1
13 -5 9 12.4 7.9
13 5 10 9.9 9.3
-13 -5 -10 -7.3 8.5
13 -5 10 -2.7 7.7
13 6 -11 -1.3 4.2
13 -6 -11 7.3 13
-13 -6 11 -5.1 4.8
13 -6 -10 -13.1 4.9
-13 -6 10 2.1 3.7
-13 -6 9 2.4 3.9
13 -6 -9 10.5 7.6
13 -6 -8 14.3 7.7
-13 -6 8 -3.8 2.7
-13 -6 7 6.7 2.7
13 -6 -7 10.3 6.9
-13 6 6 45.2 11.4
13 -6 -6 51.49 11.1
-13 -6 6 45 4.1
-13 6 5 -4.2 4.4
-13 -6 5 0.2 2
13 -6 -5 6.3 5.2
-13 6 4 -0.3 4.8
-13 -6 4 -0.9 3.8
13 -6 -4 8.5 5.2
-13 -6 4 4.7 2.5
-13 6 3 -3.3 4.3
-13 -6 3 2.2 2.5
13 -6 -3 -4.6 3.7
-13 -6 3 6 2.7
-13 -6 3 -6.3 3.1
-13 6 2 169.88 12.1
-13 -6 2 170.68 9.6
13 -6 -2 182.88 12.5
13 -6 -2 162.58 13.9
-13 -6 2 184.68 13.2
-13 6 1 33.8 5.9
13 -6 -1 53.79 6.4
13 -6 -1 27.5 7.3
-13 -6 1 43.9 6.4
-13 -6 1 48.8 8.8
-13 6 0 9 2.9
-13 -6 0 3.8 3.7
13 -6 0 4.6 4.7
-13 -6 0 6.5 4.9
13 6 1 0.5 3.2
-13 -6 -1 5.7 4.3
-13 -6 -1 8.9 5.9
13 -6 1 8 5.7
13 6 2 10.7 4.7
13 -6 2 2.6 5.1
-13 -6 -2 11.4 5.6
-13 -6 -2 8.7 7
13 6 3 3.4 4.1
-13 6 -3 19.1 7.7
-13 -6 -3 14.2 6.2
-13 -6 -3 9.2 7.5
13 -6 3 12.5 6.2
13 6 4 3.4 5.2
-13 6 -4 -0.9 5
-13 -6 -4 -3.1 6.3
-13 -6 -4 6.1 6.1
13 -6 4 0.9 5.2
13 -6 5 15 7.5
-13 -6 -5 7.7 5.9
13 -6 6 50.49 10.3
-13 -6 -6 45.4 12.4
13 -6 7 16 7.9
-13 -6 -7 33.2 11.9
13 -6 8 17.4 8.3
-13 -6 -8 -0.2 7.4
-13 -6 -9 7.4 9.3
13 -6 9 4.3 7.2
13 -6 10 13.9 11.3
-13 -6 -10 17.2 11.4
-13 -7 10 2.8 4.8
13 -7 -10 -1.6 8.1
-13 -7 9 1 3.4
13 -7 -9 -2.6 6.9
13 -7 -8 7.9 6.7
-13 -7 7 28.8 4.7
13 -7 -7 22.5 9.8
-13 7 6 17.3 8.2
-13 -7 6 19.8 6.6
-13 -7 6 13.8 3.4
13 -7 -6 -4.3 5.7
13 -7 -5 42.4 9.7
-13 -7 5 26.9 4.4
-13 -7 5 28.3 7.5
-13 7 4 4.6 5.9
-13 -7 4 10.6 5.3
13 -7 -4 4.5 5.8
-13 -7 4 5.7 3.4
-13 7 3 8.5 5.7
-13 -7 3 6.3 3.6
13 -7 -3 7.2 5.7
-13 -7 3 3.6 5.4
-13 -7 3 8.5 3.8
-13 7 2 128.79 10.8
-13 -7 2 119.99 12.2
13 -7 -2 132.29 13.4
-13 7 1 34.5 6.1
13 -7 -1 38.9 6.3
13 -7 -1 39.1 8.9
-13 -7 1 29.3 8
-13 -7 1 33.5 6.6
-13 7 0 83.49 6.1
13 -7 0 74.89 6.5
-13 -7 0 76.29 11.5
-13 -7 0 76.19 9.5
13 -7 0 63.69 10.7
13 7 1 8.4 4.4
13 -7 1 7.4 6.3
-13 -7 -1 17 6
-13 -7 -1 11.1 7.4
13 7 2 4.6 4.5
-13 -7 -2 -3.2 6.5
-13 -7 -2 11.8 6.4
13 -7 2 4.9 5.8
-13 -7 -3 104.19 16.2
13 -7 3 68.69 12
-13 -7 -3 89.89 15.1
13 -7 4 40.6 11.9
-13 -7 -4 25.6 10.2
-13 -7 -4 41 10.2
13 -7 5 42.7 10.2
-13 -7 -5 43.7 12.4
-13 -7 -6 -1.6 6.9
13 -7 6 -4.9 5.6
13 -7 7 7.2 6.8
-13 -7 -7 5.2 8.7
13 -7 8 10.2 7.8
-13 -7 -8 18.4 9.5
13 -7 9 -16.4 5.6
-13 -8 9 -3.6 4.4
13 -8 -9 7.4 7.3
-13 -8 8 26.1 7.4
13 -8 -8 17.4 8.9
-13 -8 8 21 5
-13 -8 7 5.2 5.7
-13 -8 7 5 3.5
13 -8 -7 11.9 8.2
-13 -8 6 -0.5 2.7
13 -8 -6 11.3 8.6
-13 8 5 38.2 9.5
-13 -8 5 49.1 9.5
13 -8 -5 46.5 10.8
-13 -8 5 38 5.7
-13 8 4 115.19 12.7
-13 -8 4 83.59 8
13 -8 -4 106.99 12.9
-13 -8 4 68.89 10.6
-13 8 3 0.8 5.3
-13 -8 3 2.2 6.4
13 -8 -3 13.6 7.2
13 -8 -3 6.6 5.3
-13 -8 3 2 3.7
-13 -8 3 -0.8 3.6
-13 8 2 160.18 12.3
13 -8 -2 164.18 15.5
-13 -8 2 146.19 10.8
-13 -8 2 130.19 11
13 -8 -2 169.08 12.9
-13 -8 2 183.18 16.3
-13 8 1 16 5.1
13 -8 -1 15.5 5
-13 -8 1 13.1 8.1
-13 -8 1 18.4 5.9
-13 8 0 20 3.5
-13 -8 0 10.6 8.5
-13 -8 0 11 5.2
13 -8 0 9.6 3.5
-13 -8 -1 80.99 11.3
13 -8 1 68.79 12
-13 -8 -1 84.69 16
-13 -8 -2 -4.7 4.7
-13 -8 -2 6.6 7.8
13 -8 2 -5.6 4.3
-13 -8 -3 -5.4 5.4
-13 -8 -3 4.4 7.6
13 -8 3 7.5 7.4
-13 -8 -4 81.59 15.7
13 -8 4 68.99 12.3
13 -8 5 -6.2 5.7
-13 -8 -5 -1.2 7.2
13 -8 6 4.7 7.3
-13 -8 -6 -13.5 7.6
-13 -8 -7 49.7 15.2
-13 -8 -8 11.3 9.9
13 -8 8 -2.3 6.5
-13 -9 8 40.1 7.4
-13 -9 8 68.19 10.5
13 -9 -8 62.49 13.8
13 -9 -7 4.3 6.3
-13 -9 7 -1.7 6.4
-13 -9 7 -3.6 3.3
-13 -9 6 8.5 3.9
-13 -9 6 0.1 5.5
13 -9 -6 15.4 8.3
-13 -9 5 -14.7 5.3
13 -9 -5 7.6 7
-13 9 4 5 6.1
-13 -9 4 7.4 4.6
13 -9 -4 4.1 6.1
-13 -9 4 5.6 7.5
-13 9 3 35.8 8.2
13 -9 -3 37.5 9.6
-13 -9 3 7.8 8
-13 -9 3 31.2 6.4
-13 -9 3 24.3 6.1
13 -9 -3 36 8.7
-13 9 2 10.1 4.9
-13 -9 2 0.7 4.8
-13 -9 2 -3.3 3.8
-13 -9 2 -7.6 5.2
13 -9 -2 7.9 6.2
13 -9 -2 -1.6 3.8
-13 9 1 128.79 9.5
13 -9 -1 111.59 15
-13 -9 1 117.69 11.5
-13 -9 1 98.69 15
-13 9 0 23.1 3.9
-13 -9 0 29.4 7.2
13 -9 0 26.1 4.9
13 -9 0 17.1 7.9
-13 -9 0 24.1 9.1
-13 -9 -1 6.2 5.5
-13 -9 -1 -8.2 6.3
13 -9 1 -0.1 5.7
-13 -9 -2 8.1 7.9
-13 -9 -2 8.1 5.5
13 -9 2 3.2 7.1
13 -9 3 2.5 6.4
-13 -9 -3 -7.3 6.9
13 -9 4 10.1 8.4
-13 -9 -4 6.6 8
13 -9 5 25.7 9.2
-13 -9 -5 20.5 11.4
-13 -9 -6 9.8 11
13 -9 6 28.9 9.9
13 -9 7 0.3 7.6
-13 -9 -7 1.6 9.4
13 -10 -7 2.9 7.4
-13 -10 7 4.2 5.6
-13 -10 7 1 4.3
13 -10 -6 6.2 7.4
-13 -10 6 0 4.2
-13 -10 6 -2.8 5.9
-13 -10 5 18.2 5.3
-13 -10 5 5.7 8
13 -10 -5 24.7 8.7
-13 10 4 16.8 8.5
-13 -10 4 6.1 7.1
-13 -10 4 0.9 5.8
-13 -10 4 13.6 5
13 -10 -4 0.2 5.9
-13 -10 3 29.6 7.4
-13 -10 3 16.3 8.8
13 -10 -3 14.4 6.9
-13 -10 3 11 5
13 -10 -3 25.1 9.1
-13 10 2 15.1 5.7
13 -10 -2 15.5 5.3
13 -10 -2 9.2 6.4
-13 -10 2 -4 4.9
-13 -10 2 6.6 4.9
-13 -10 2 -12.5 6.5
-13 10 1 2.8 3.7
13 -10 -1 10.3 4.1
-13 -10 1 -7.2 7.6
-13 -10 1 -6.2 6
13 -10 -1 0 5.4
-13 -10 0 78.39 12.1
-13 -10 0 74.09 14.4
13 -10 0 53.39 11.7
13 -10 0 82.39 9.4
13 -10 1 21.9 9.5
-13 -10 -1 12.5 10.3
13 -10 2 92.59 14.6
-13 -10 -2 71.19 15.8
-13 -10 -3 2 9.6
13 -10 3 4.6 7.4
13 -10 4 -6.5 6.4
-13 -10 -4 -8.6 8.3
13 -10 5 8.2 7.9
-13 -11 5 12.7 8.2
-13 -11 5 -5.4 7.8
13 -11 -5 16.2 8.2
-13 -11 5 14.6 6.2
-13 -11 4 2.8 5.4
13 -11 -4 -1.6 6.1
-13 -11 4 -0.1 7.9
13 -11 -4 -4 5.4
-13 -11 4 12.6 8.4
-13 11 3 5.9 6.6
-13 -11 3 -12.8 6.4
-13 -11 3 -5.4 5.7
-13 -11 3 9.3 8.6
13 -11 -3 3.9 5.8
-13 11 2 18.2 6.2
-13 -11 2 24.3 11
13 -11 -2 22.7 9.2
-13 -11 2 9.2 6.8
-13 -11 2 11.9 8.1
13 -11 -2 19.1 6.4
-13 11 1 -1 3
13 -11 -1 16.7 6.8
13 -11 -1 -1.7 7
-13 -11 1 6.9 8.3
-13 -11 1 -7.1 7.7
-13 -11 1 8.4 6.6
13 -11 0 5 4.9
13 -11 0 6 8.5
-13 -11 0 -5.2 8.2
-13 -11 -1 5 9.4
13 -11 1 20.4 9
13 -11 2 5.8 8.3
-13 -11 -2 -12.7 8.1
13 -11 3 8.8 14.1
-13 -11 -3 0.8 15.6
14 0 -12 165.38 15
14 0 -11 9.4 9.1
14 0 -10 9.8 5.3
14 0 -9 -1.4 3.8
-14 0 8 41.9 11.1
14 0 -8 43.3 7.2
-14 0 7 12.6 6.2
-14 0 6 51.19 9.7
14 0 -6 49.4 6.2
14 0 -5 -4.3 1.9
-14 0 5 5.4 4.6
-14 0 4 97.89 10.4
14 0 -3 0.5 2.1
14 0 -2 100.19 6.5
-14 0 1 1.8 2.5
14 0 -1 -1 2.4
-14 0 0 3139.89 80.49
14 0 0 3193.98 80.59
-14 0 0 3645.84 78.79
14 0 1 -2 3.1
-14 0 -1 -3.1 2.5
-14 0 -1 0.8 3.8
14 0 2 360.76 16.6
-14 0 -2 377.46 15.3
-14 0 -2 396.26 17.2
-14 0 -3 3.5 3.6
14 0 3 0.7 2.4
14 0 3 -2.8 2.9
-14 0 -3 -0.8 3.7
14 0 4 29.3 4.9
-14 0 -4 32.5 6.8
14 0 4 36.8 7.2
-14 0 -4 27.2 6.5
-14 0 -5 -1.8 4.3
14 0 5 3 4.7
14 0 5 -5.4 2.6
-14 0 -5 1.6 4.1
-14 0 -6 350.56 20.2
-14 0 -6 355.76 20.5
14 0 6 335.77 16.7
14 0 6 343.37 20.5
14 0 7 2.5 5.9
-14 0 -7 11.6 6.2
-14 0 -7 14.2 8.4
14 0 7 6.1 4.8
-14 0 -8 0 5.3
14 0 8 6.3 6.2
14 0 8 1 4.5
14 0 9 -4.5 4.7
-14 0 -9 -2.3 6.3
14 0 9 4.8 6.1
-14 0 -10 17.5 9.2
14 0 10 16.5 7.8
-14 0 -11 14.7 7.6
14 0 11 0.8 5.9
14 1 -12 5.1 6.3
14 1 -11 0.8 5
14 -1 -11 3.7 5.4
14 1 -10 15.6 5.6
14 -1 -10 25.8 7
14 1 -9 2.7 3.7
14 -1 -9 1.2 4.4
-14 1 8 1.3 5.8
-14 -1 8 -2.9 5.8
14 -1 -8 3.8 4.8
14 1 -7 27.8 4.7
-14 1 7 31.7 9.2
-14 -1 7 24.3 7.7
14 -1 -7 30.4 6.4
14 1 -6 8.2 2.8
-14 1 6 3.6 5.1
14 -1 -6 12.6 4.3
-14 -1 6 0.6 4.2
14 1 -5 137.69 6.7
-14 1 5 119.89 12.1
-14 -1 5 150.28 12.6
-14 1 4 137.39 11.6
14 1 -4 118.19 5.7
14 1 -4 130.29 5.7
-14 1 3 16.5 5.1
14 1 -3 14.5 2.5
14 -1 -3 15.7 3.9
14 1 -2 27.2 3.4
14 -1 -2 27.6 4.9
-14 1 1 98.19 7.8
14 1 -1 120.39 6.6
-14 -1 1 113.19 6.8
14 -1 -1 123.39 8.5
14 1 0 -2.7 2.4
-14 1 0 5.1 3.4
14 -1 0 -3.4 2.7
-14 -1 0 -1.3 2.8
-14 -1 0 1.4 2.6
-14 1 -1 1324.57 39
14 1 1 1327.07 36.9
-14 1 -1 1275.47 33.8
-14 -1 -1 1295.37 36.7
14 -1 1 1307.07 38.5
14 1 2 18.6 3.6
-14 1 -2 16.6 3.9
-14 1 -2 17.6 5.3
14 1 2 17.4 5.1
-14 -1 -2 19.1 4.9
14 -1 2 21.6 5.6
-14 -1 -2 17.4 5.1
14 1 3 23.3 5.5
-14 1 -3 17.5 5.2
-14 1 -3 18.1 4.2
14 1 3 14.6 3.7
14 -1 3 17.4 3.2
-14 -1 -3 17 5.2
-14 -1 -3 18.2 5.3
14 -1 3 19.2 5.5
-14 1 -4 1.5 3.4
14 1 4 5.9 3.5
14 1 4 -0.8 3.9
-14 1 -4 -0.1 3.6
-14 -1 -4 8.7 4.9
-14 -1 -4 8.9 4.7
14 -1 4 7.3 2.8
14 -1 4 8.3 4.8
-14 1 -5 13.7 5
14 1 5 3.6 3.9
14 1 5 7.6 5
-14 1 -5 1.2 4.2
14 -1 5 8.3 5
-14 -1 -5 2.1 4.1
14 -1 5 -1.8 2.8
-14 -1 -5 21 7
-14 1 -6 66.19 10
14 1 6 73.09 9.6
-14 1 -6 82.59 11.8
14 1 6 86.59 12.4
-14 -1 -6 63.29 10.8
14 -1 6 76.19 7.4
14 -1 6 68.29 10.9
-14 -1 -6 81.39 11.6
14 1 7 13.4 5.9
14 1 7 7.4 6.9
-14 1 -7 -2.4 4.8
14 -1 7 13.4 6.7
-14 -1 -7 10.1 12
-14 -1 -7 19.2 7.7
14 -1 7 8 4.2
-14 1 -8 -6.7 4.8
14 1 8 4 6
14 1 8 -0.4 4.4
14 -1 8 -0.8 5.4
14 -1 8 -3.4 5.5
-14 -1 -8 -4.9 6.2
-14 1 -9 -2 5.1
14 1 9 -3.9 4.4
-14 -1 -9 3.8 6.8
14 -1 9 5.1 5
14 -1 9 11.7 7.5
14 1 10 6.9 7.3
-14 1 -10 6.1 6.3
14 -1 10 20.9 9
14 -1 10 -6.5 5
-14 -1 -10 -6.3 6.3
14 1 11 -4.3 6.5
-14 1 -11 -6.3 6.5
-14 -1 -11 -8.1 7.3
14 -1 11 12 8.4
14 2 -13 47.3 10.6
14 2 -12 -7 6.2
14 2 -10 4.5 4.4
14 -2 -10 11 6
14 2 -9 350.96 15.7
14 -2 -9 363.96 20.6
14 2 -8 42.6 5.9
-14 2 8 30.5 9.7
14 -2 -8 48.9 8.9
-14 -2 8 47.1 10.2
14 2 -7 42.4 4.8
14 -2 -7 43.9 8.2
-14 2 6 1.9 5.4
14 2 -6 2.2 1.9
-14 -2 6 13.3 5.8
14 -2 -6 3.2 3.5
-14 2 5 73.89 11.2
-14 2 4 70.89 10.3
-14 2 3 -4.2 3.2
14 -2 -3 -0.3 2.7
14 2 -2 669.83 17.9
-14 2 2 727.03 25.7
-14 -2 2 708.33 17.8
14 -2 -2 707.33 23.5
-14 2 1 111.69 8.3
14 2 -1 127.19 6.5
-14 -2 1 103.59 6.2
14 -2 -1 112.69 8.9
-14 -2 1 133.39 10
14 2 0 113.49 7.4
-14 2 0 137.29 9.6
-14 -2 0 119.59 8.8
14 -2 0 132.19 9.7
-14 -2 0 126.09 7.7
-14 2 -1 473.35 13.9
14 2 1 469.85 17.8
-14 2 -1 445.36 19.1
-14 -2 -1 452.15 17.4
-14 2 -2 10.9 2.9
14 2 2 9.7 3.4
-14 2 -2 3.5 4
14 2 2 7.4 3.8
-14 -2 -2 6.1 4.4
-14 -2 -2 16.8 4.6
14 -2 2 15.3 5.2
14 2 3 130.29 8.9
-14 2 -3 135.29 8
14 2 3 128.49 10.4
-14 2 -3 122.99 11
14 -2 3 134.09 10.8
-14 -2 -3 127.39 11.4
-14 -2 -3 123.09 9.9
14 2 4 18.3 5.8
14 2 4 17.2 4.8
-14 2 -4 20.8 6.5
-14 2 -4 6.2 3.4
-14 -2 -4 12.4 5.7
14 -2 4 20.3 6
-14 -2 -4 17.9 6.1
14 -2 4 13.8 2.8
-14 2 -5 -2.9 5
-14 2 -5 1.7 3.7
14 2 5 7.3 5.2
14 2 5 1.1 3.6
14 -2 5 8.1 2.9
-14 -2 -5 1.1 4.5
14 -2 5 4.3 5.1
-14 -2 -5 11.6 6.6
-14 2 -6 -1.7 3.6
14 2 6 10 5.3
14 2 6 3.8 5.5
-14 2 -6 11.1 6.9
14 -2 6 6 5
-14 -2 -6 -2.1 5.1
-14 -2 -6 6.6 6
14 2 7 109.99 11.9
14 2 7 88.69 13.5
-14 2 -7 122.19 18.6
-14 -2 -7 111.79 16.9
14 -2 7 103.79 14
14 -2 7 104.99 9
-14 2 -8 83.79 11.8
14 2 8 62.19 10.3
14 2 8 61.69 12.7
-14 -2 -8 74.89 13.6
14 -2 8 53.19 7.7
14 -2 8 53.49 11
14 2 9 -7.9 6.3
-14 2 -9 4.2 5.3
14 -2 9 -3.3 3.7
-14 -2 -9 8.8 8
14 -2 9 7.9 6.2
-14 2 -10 -6.8 5.4
14 2 10 -0.5 6.2
14 -2 10 -4.9 6
-14 -2 -10 -1.4 6.4
14 -2 10 7.2 9.8
-14 2 -11 -2.7 6.1
14 -2 11 15.6 6.4
-14 -2 -11 -12.3 7.3
14 -2 11 21.9 9.8
14 3 -12 5.4 5.8
14 3 -11 0.7 4.4
14 3 -10 7.8 4.6
14 -3 -10 11.3 6.7
14 3 -9 35.1 5.9
14 -3 -9 41.9 10.6
14 -3 -9 40.6 8.9
-14 3 8 12.7 7.8
14 3 -8 14.6 3.8
14 -3 -8 9.2 7.8
-14 -3 8 11.8 6.5
14 -3 -8 29.1 7.7
-14 3 7 41.7 11.2
14 3 -7 55.99 4.6
14 -3 -7 69.59 10.3
14 -3 -7 63.59 11.2
-14 -3 7 27 8.3
-14 3 6 22.6 6.7
14 -3 -6 14 6
-14 3 5 22.3 7.5
14 -3 -5 32.7 7.3
-14 3 4 52.49 9.2
-14 3 3 33.8 6.9
-14 3 2 212.08 13
14 -3 -2 212.88 12.6
-14 -3 2 221.18 7
14 3 -1 202.78 9.2
-14 3 1 200.48 11.3
-14 -3 1 195.28 11
14 -3 -1 208.28 12.3
-14 -3 1 209.18 8.5
14 3 0 498.95 17.9
-14 3 0 469.55 20.3
-14 3 0 475.85 16.9
-14 -3 0 494.85 19.7
14 -3 0 502.95 20.6
-14 -3 0 518.95 17.1
14 3 1 282.47 13.9
-14 3 -1 264.27 14.8
-14 3 -1 293.87 10.6
-14 3 -1 288.37 8.8
14 3 1 266.37 12.2
-14 -3 -1 270.77 12.8
-14 -3 -1 280.67 14.8
14 -3 1 307.77 15.9
-14 3 -2 193.38 7.1
14 3 2 203.18 11.4
-14 3 -2 191.58 13.1
14 3 2 199.98 14.8
-14 -3 -2 212.78 14
-14 -3 -2 223.38 12.4
14 -3 2 207.98 13.6
-14 3 -3 49.7 8.5
14 3 3 60.09 7.2
14 3 3 53.19 8.6
-14 3 -3 43.7 3.7
-14 -3 -3 54.09 9
14 -3 3 41.4 7.7
-14 -3 -3 45.3 7.3
14 3 4 31.7 6.5
-14 3 -4 31.4 4.1
-14 3 -4 35.8 8.1
14 3 4 27.2 7.1
-14 -3 -4 35.6 8.7
-14 -3 -4 34.6 7.2
14 -3 4 24.2 7
14 3 5 5.9 4.3
-14 3 -5 17 6.4
14 3 5 2.6 5.4
-14 3 -5 14.2 3.8
-14 -3 -5 3.1 6.5
-14 -3 -5 6.8 5.5
14 -3 5 4.7 5.3
14 -3 5 9.8 2.4
-14 3 -6 40.4 5.9
-14 3 -6 33.6 9.2
14 3 6 41.9 8.5
14 3 6 39.5 9.9
14 -3 6 35 8.8
-14 -3 -6 26.3 8.9
14 -3 6 37.7 4.8
-14 -3 -6 42.9 8.8
-14 3 -7 56.49 7.8
14 3 7 55.29 13.4
14 3 7 68.09 11.1
14 -3 7 71.39 6.7
-14 -3 -7 46.8 11.2
14 3 8 46.5 12
14 -3 8 37.4 9.4
14 -3 8 51.59 7.1
-14 -3 -8 48.3 16
14 3 9 9.5 7
-14 3 -9 5.3 5.2
14 -3 9 5.4 3.7
-14 -3 -9 -5.5 7.9
14 -3 9 7 7.1
14 3 10 -7.7 7
-14 3 -10 -8.6 4.6
14 -3 10 3 4.4
-14 -3 -10 1.9 7.9
14 -3 10 2.9 6.8
14 3 11 14.9 8.9
-14 -3 -11 10.4 9.2
14 -3 11 10.8 8
14 -4 -12 -2.9 11.2
14 4 -11 0.1 3.9
14 -4 -11 2.2 7.1
14 4 -10 16.4 5
14 -4 -10 26.1 9.7
14 4 -9 23 4.4
14 -4 -9 8.9 7.7
14 4 -8 6.3 2.8
14 -4 -8 2.5 5.7
-14 -4 8 -7.7 5.1
14 -4 -8 0 6
-14 4 7 11.9 7.3
14 -4 -7 18.6 7.4
14 -4 -7 32.3 9.4
-14 4 6 32.2 8.7
14 -4 -6 45.4 9.4
-14 4 5 7 5.3
14 -4 -5 11.1 5.7
-14 4 4 1.2 4.4
14 -4 -4 4 3.9
-14 4 3 2.1 4.2
14 -4 -3 8.8 4
-14 4 2 3.9 3.7
14 -4 -2 -0.2 3.7
-14 -4 2 1.3 3.3
-14 -4 2 4.1 1.9
-14 4 1 113.49 8.7
-14 -4 1 112.09 9.3
14 -4 -1 116.89 10
-14 -4 1 112.69 6.6
14 -4 0 9.3 4.3
-14 -4 0 5.6 4.6
-14 -4 0 9.9 3.3
14 4 1 50.99 5.8
14 4 1 63.79 7.4
-14 4 -1 54.29 3.6
-14 4 -1 42.8 7.8
-14 4 -1 51.49 2.6
-14 -4 -1 61.09 8.8
-14 -4 -1 47 6.5
14 -4 1 63.09 9.2
-14 4 -2 105.59 10.6
14 4 2 100.09 8.4
14 4 2 113.09 10.3
14 -4 2 104.59 10.8
-14 -4 -2 90.69 8.8
-14 -4 -2 122.69 11.8
-14 4 -3 92.59 10.5
14 4 3 100.39 9
14 4 3 120.69 11.5
-14 -4 -3 110.79 9.9
14 -4 3 101.49 10.9
-14 -4 -3 107.49 12.7
14 4 4 3.3 3.6
14 4 4 1.6 5.4
-14 -4 -4 -4.7 5.8
14 -4 4 3.8 4.9
-14 -4 -4 4.8 4.9
14 4 5 15.4 6.1
-14 4 -5 14.8 7.1
14 4 5 10.9 6.6
-14 -4 -5 9.1 7.6
14 -4 5 5.6 5.9
-14 -4 -5 25.1 6.9
14 4 6 18 6
14 4 6 -4.2 5.8
14 -4 6 9.1 6.9
-14 -4 -6 5.7 6.8
-14 -4 -6 14.6 7
14 -4 6 2.8 1.6
14 4 7 60.69 12.3
14 -4 7 49.99 10.4
14 -4 7 66.99 5.1
14 4 8 22.9 9.7
14 -4 8 27.3 8.4
14 -4 8 30.6 4.7
-14 -4 -8 41.2 11.6
14 4 9 21.8 10.4
14 -4 9 30.3 9.4
14 -4 9 38.9 6.8
-14 -4 -9 44.2 13.6
14 4 10 8.6 8.8
-14 -4 -10 -5.4 6.9
14 -4 10 4.1 4.5
14 -4 10 0.7 7.6
14 -5 -12 3 6.6
14 5 -11 5 3.3
14 -5 -11 3.2 6.3
14 -5 -10 2.9 7.3
14 -5 -9 11.8 7.9
14 -5 -8 25.9 9.6
-14 5 7 -2.8 6.7
14 -5 -7 5.1 5.7
14 -5 -7 8.6 5.7
14 -5 -6 1.9 5.4
-14 5 5 43.7 9.8
14 -5 -5 42.2 9.2
-14 5 4 11.1 6.2
14 -5 -4 27 7.2
-14 5 3 5.1 4.7
-14 -5 3 -3.9 3
14 -5 -3 -7.1 2.7
-14 -5 3 2.1 1.6
-14 -5 3 -0.2 1.6
-14 5 2 0.9 3.4
-14 -5 2 -0.8 3.7
14 -5 -2 -3.3 2.4
14 -5 -2 1 4.1
-14 -5 2 1.5 2.1
-14 5 1 249.88 12.8
-14 -5 1 208.08 10.4
14 -5 -1 212.28 14
-14 -5 1 218.08 13.8
-14 5 0 21.1 3.9
-14 -5 0 17.1 6.1
-14 -5 0 14.5 4.2
14 -5 0 26.8 6.7
14 5 1 49.2 6.8
-14 -5 -1 37.9 8.1
14 -5 1 38.6 7.9
-14 -5 -1 58.19 7.9
-14 5 -2 8.8 5.6
14 5 2 9.2 4.1
-14 -5 -2 4.7 5.6
14 -5 2 9.3 5.4
-14 -5 -2 10.1 5
-14 5 -3 139.99 15.1
14 5 3 152.58 13.6
-14 -5 -3 134.39 14.7
-14 -5 -3 187.28 13.6
14 -5 3 181.58 14.7
14 5 4 74.49 8.9
-14 5 -4 69.39 11.3
14 5 4 70.69 11.6
-14 -5 -4 76.19 11.2
-14 -5 -4 52.19 11.6
14 -5 4 63.19 10.9
14 5 5 0.6 4.6
14 5 5 -3.5 4.2
-14 5 -5 5.5 7.3
-14 -5 -5 -1.5 6.5
14 -5 5 3.5 6.6
-14 -5 -5 6.1 6.3
14 5 6 -5.3 4.8
14 -5 6 -6.4 5.5
-14 -5 -6 10.4 9.5
14 5 7 5.7 6.8
14 -5 7 1.5 6.1
-14 -5 -7 14.9 8.1
14 5 8 32.1 10.9
14 -5 8 17.6 8.5
14 -5 8 26.5 2.7
-14 -5 -8 10 9.9
14 5 9 -6.5 5.9
14 -5 9 -1.2 2.2
-14 -5 -9 -6.7 8.7
14 -5 9 -5.6 6.1
-14 -5 -10 9 7.9
14 -5 10 -0.3 7.9
-14 -6 10 12.2 5.5
14 -6 -10 3 7.4
-14 -6 9 6.7 3.1
14 -6 -9 -1.8 5.4
-14 -6 8 0.2 2.1
14 -6 -8 0.4 6
14 -6 -7 14.1 7.7
-14 6 6 58.99 11.8
-14 -6 6 62.29 3.4
14 -6 -6 51.79 10.9
-14 6 5 -3.2 5.7
-14 -6 5 2.6 1.5
-14 -6 5 0.8 1.5
14 -6 -5 8.3 6.3
-14 6 4 118.49 13
-14 -6 4 105.39 5.8
-14 -6 4 105.29 5.8
-14 -6 4 130.89 11.4
14 -6 -4 115.29 12.2
-14 6 3 16.2 6.6
-14 -6 3 24.2 3.8
14 -6 -3 17.5 5.9
-14 -6 3 9.1 3
-14 -6 3 14.2 5.5
-14 6 2 137.59 11
14 -6 -2 141.49 12.8
-14 -6 2 148.79 12.7
-14 -6 2 137.79 8.6
14 -6 -2 138.19 10.7
-14 6 1 53.49 7.3
-14 -6 1 62.99 6.7
-14 -6 1 50.09 9.4
14 -6 -1 81.99 11.3
-14 6 0 18 3.4
-14 -6 0 13.5 6.5
-14 -6 0 19.1 5.1
14 -6 0 16.3 6.3
14 6 1 31.7 5.9
14 -6 1 35.5 8.2
-14 -6 -1 40.5 7.3
-14 -6 -1 36.7 8.6
14 6 2 30.8 6.5
-14 -6 -2 27.1 7
14 -6 2 17.2 7
-14 -6 -2 16.4 7.6
-14 6 -3 46.2 9.7
14 6 3 55.29 8.6
-14 -6 -3 33.6 10.1
14 -6 3 40 9.4
-14 -6 -3 52.79 9.3
14 -6 4 27.6 8.1
-14 -6 -4 48.8 12.6
-14 -6 -4 50.09 10.3
14 -6 5 22 10
-14 -6 -5 14.4 7.7
-14 -6 -5 31.1 10.8
14 -6 6 5.7 5.7
-14 -6 -6 0.4 8.2
14 -6 7 31.9 8.9
-14 -6 -7 29.8 11.5
-14 -6 -8 -7.6 6.1
14 -6 8 1 7.7
-14 -6 -9 -2.4 8.9
14 -6 9 -8 5.7
14 -7 -10 15.5 8.8
-14 -7 10 -1.2 4.3
-14 -7 9 1.1 3.1
14 -7 -9 -3.7 5.9
14 -7 -8 -0.9 6
-14 -7 8 -0.6 2.4
-14 -7 7 34.2 4.3
14 -7 -7 35.6 10.2
-14 7 6 13.1 8.1
-14 -7 6 27 3.5
-14 -7 6 20.5 6.9
14 -7 -6 25.7 8.8
-14 7 5 28.6 10.2
14 -7 -5 24.7 8.5
-14 -7 5 12.6 3
-14 -7 5 16.9 6.3
-14 7 4 -1.1 5.1
-14 -7 4 4.2 2.9
-14 -7 4 1.1 2.6
-14 -7 4 1.5 4.8
14 -7 -4 5.1 4.6
-14 7 3 1.1 4.8
14 -7 -3 2 5.6
-14 -7 3 -0.1 5
-14 -7 3 0.8 3
-14 -7 3 -0.1 3
14 -7 -3 -6.9 3.7
-14 7 2 3.8 4
-14 -7 2 -2.5 5.5
14 -7 -2 0.1 5
-14 -7 2 1.9 3.5
-14 7 1 8.6 4.2
14 -7 -1 0.3 5.2
14 -7 -1 9.7 4.1
-14 -7 1 5.3 6.3
-14 -7 1 12.8 4.7
-14 7 0 4.1 2.5
14 -7 0 5.7 5.3
-14 -7 0 1.5 6.4
-14 -7 0 0.6 3.7
14 7 1 40.6 6.6
14 -7 1 40.3 9.4
-14 -7 -1 40.5 7.7
-14 -7 -1 38.9 10.3
14 -7 2 9.5 6.7
-14 -7 -2 -5.9 5.1
-14 -7 -2 -0.6 6.7
-14 -7 -3 19.1 6.7
-14 -7 -4 3 7.5
14 -7 4 13.1 7.1
-14 -7 -4 7.8 6.9
14 -7 5 21.9 8.1
-14 -7 -5 20.7 9.5
14 -7 6 1.6 6.1
-14 -7 -6 7.4 7.4
-14 -7 -7 9.5 10.6
14 -7 7 12.6 7.5
14 -7 8 28.4 9.5
-14 -7 -8 34 12.4
-14 -7 -9 5.4 8.4
14 -7 9 9.8 9
-14 -8 9 -4.2 3
14 -8 -9 2.6 6.7
14 -8 -8 10.1 7.4
-14 -8 8 -8.8 5.1
-14 -8 8 4.6 3.3
14 -8 -7 15 8.2
-14 -8 7 7 6.3
-14 -8 7 10.7 3.6
-14 -8 6 -2 4.7
14 -8 -6 7.6 6.8
-14 -8 6 6.3 3.1
-14 8 5 32.1 9
-14 -8 5 30.7 4.9
14 -8 -5 51.49 10.8
-14 8 4 44.4 9.6
-14 -8 4 42.5 6.1
-14 -8 4 28.6 5.2
14 -8 -4 36.4 9
-14 -8 4 34 8.2
-14 8 3 51.79 9.3
-14 -8 3 38.8 5.9
14 -8 -3 29.6 7.3
-14 -8 3 35.6 6.8
-14 -8 3 21.8 8.4
14 -8 -3 58.09 11.6
-14 8 2 8 5.2
14 -8 -2 6.7 4.6
14 -8 -2 3.9 6
-14 -8 2 13.6 7.9
-14 -8 2 9.4 4.7
14 -8 -1 54.49 7.5
-14 -8 1 42.3 7.8
14 -8 -1 31.2 8.8
-14 -8 1 28.8 9
-14 8 0 33.1 4.2
-14 -8 0 43.4 7.9
-14 -8 0 33.1 9.9
14 -8 0 28.5 8.4
14 -8 1 3.3 6.3
-14 -8 -1 4.5 7.2
-14 -8 -1 -4.2 4.2
-14 -8 -2 1.1 4.9
14 -8 2 5 5.9
-14 -8 -2 1.1 7.2
14 -8 3 9.9 6.7
-14 -8 -3 2.9 8.3
-14 -8 -3 -0.9 7
-14 -8 -4 12.1 9.5
14 -8 4 9 7.3
14 -8 5 25.4 9.9
-14 -8 -5 15.3 9.4
-14 -8 -6 -0.6 7.9
14 -8 6 -6.1 5.8
-14 -8 -7 3.7 10.3
14 -8 7 -0.3 6.7
14 -8 8 14.7 8.7
-14 -8 -8 -7 8.4
-14 -9 8 4.4 3.5
-14 -9 8 -11.4 4.8
14 -9 -8 16 8.4
14 -9 -7 -1.9 5.5
-14 -9 7 4.2 4
-14 -9 7 -0.6 6.3
14 -9 -6 0.5 6.1
-14 -9 6 -0.7 3.4
-14 -9 6 3.6 5.7
14 -9 -5 7.2 6.1
-14 -9 5 -1.5 6
-14 9 4 4.9 6.8
-14 -9 4 7.9 5.6
-14 -9 4 7.9 4.3
14 -9 -4 8.2 6
-14 9 3 7.3 5.1
-14 -9 3 -4 4.2
14 -9 -3 -8.6 3.7
-14 -9 3 0.4 3.8
14 -9 -3 1.4 6.2
-14 -9 3 0.2 6.5
-14 9 2 52.39 7.7
14 -9 -2 35.3 7.7
-14 -9 2 43.7 10.9
14 -9 -2 42.9 10.6
-14 -9 2 45.2 8.1
-14 -9 2 45.9 8.4
-14 9 1 39.1 6.4
14 -9 -1 39.1 9.4
-14 -9 1 38.2 10
-14 -9 1 31.7 7.7
14 -9 -1 41.1 7.2
-14 9 0 73.29 5.6
-14 -9 0 73.79 11.1
14 -9 0 65.09 7
14 -9 0 67.19 12.1
-14 -9 0 58.89 13.1
14 -9 1 10.8 6.8
-14 -9 -1 23.8 7.2
-14 -9 -1 9.9 8.8
-14 -9 -2 -4.1 5.4
-14 -9 -2 -2.1 7.4
14 -9 2 9.8 7.2
14 -9 3 4.5 6.6
-14 -9 -3 -8.9 6.9
-14 -9 -4 -9.2 8.5
14 -9 4 -9.3 5.5
14 -9 5 14.7 7.9
-14 -9 -5 -3.9 8.5
14 -9 6 -3 7.9
-14 -9 -6 6 10.6
-14 -9 -7 -7.5 7.8
-14 -10 7 -11.5 6.1
-14 -10 7 3.4 4.2
14 -10 -7 1.9 6.6
-14 -10 6 -0.1 6.9
14 -10 -6 -1.3 6.9
-14 -10 5 6.9 4.7
-14 -10 5 17.3 4.8
14 -10 -5 19.6 8.1
-14 -10 5 8.7 8
-14 10 4 -0.3 6.6
-14 -10 4 -7.5 3.2
14 -10 -4 -7.8 4.4
-14 -10 4 -3.2 6.2
-14 -10 4 9.5 5.6
14 -10 -4 3.5 6.6
14 -10 -3 5.9 5.5
14 -10 -3 1.3 6.6
-14 -10 3 0.4 4
-14 -10 3 15 7.8
-14 -10 3 10.8 5.7
-14 10 2 3.9 4.8
-14 -10 2 4.1 6.5
-14 -10 2 7.3 5.5
-14 -10 2 5.1 4.9
14 -10 -2 -1.7 6.6
14 -10 -2 0.4 4.6
-14 10 1 22.6 4.9
14 -10 -1 6.3 6.6
14 -10 -1 14.6 5.4
-14 -10 1 6.4 8.6
-14 -10 0 2.2 6.9
14 -10 0 6.8 7
-14 -10 0 -6.1 7
14 -10 0 -0.7 3.2
-14 -10 -1 1.9 8.9
14 -10 1 9.2 6.8
-14 -10 -2 16.4 10.7
14 -10 2 -3.5 6.8
14 -10 3 8.8 8.6
-14 -10 -3 17.6 12.6
14 -10 4 5.1 7.3
-14 -10 -4 26.7 12.5
14 -10 5 -3.4 6
-14 -10 -5 3.6 10.3
-14 -11 4 -7 5.7
14 -11 -4 12.5 8.6
-14 -11 4 2.7 4.7
-14 -11 4 4.9 8.8
-14 11 3 11.9 7.3
14 -11 -3 1.5 5.5
14 -11 -3 7.6 8.1
-14 -11 3 4.8 5.2
-14 -11 3 9.8 8.4
-14 11 2 -1.3 4.5
-14 -11 2 -1.1 6.5
-14 -11 2 19.9 10.6
14 -11 -2 -1.9 5.3
-14 -11 2 0.7 5.7
-14 11 1 -6.7 2.8
14 -11 -1 13 5.1
-14 -11 1 10.1 7.1
-14 -11 1 0 7.5
-14 -11 1 -5.8 6.6
14 -11 -1 11 7.9
-14 -11 0 3.8 9.9
14 -11 0 0.6 6.8
14 -11 0 -7.1 3.5
-14 -11 -1 -7.3 9.6
14 -11 2 18.7 15.9
-14 -11 -2 12.4 10.4
-14 -11 -3 -16.7 10.2
14 -11 3 -6.6 7.7
15 0 -12 -10 5.9
15 0 -11 -2.7 4.9
15 0 -10 39.5 7.5
15 0 -9 4.2 3.9
15 0 -8 400.86 17.9
-15 0 8 416.06 26.9
15 0 -7 -0.9 3
-15 0 6 83.79 12.4
15 0 -6 88.09 7.2
-15 0 5 -7.1 3.3
15 0 -5 0.9 2.5
15 0 -4 255.07 10.7
15 0 -3 1.1 2.2
15 0 -2 59.19 5.4
-15 0 1 -1.2 2.5
15 0 -1 0.6 2.8
-15 0 0 1326.07 34.6
15 0 0 1319.27 37
-15 0 0 1292.27 37
-15 0 -1 0.6 5.3
15 0 1 4.8 3.4
-15 0 -1 -1.4 2.7
15 0 2 112.59 10.9
-15 0 -2 114.09 8.2
-15 0 -2 107.99 9.2
15 0 3 1.6 3.5
-15 0 -3 -0.2 3.2
-15 0 -3 6.8 4.2
-15 0 -4 86.59 9.7
15 0 4 83.39 7.1
-15 0 -4 77.19 9.9
15 0 4 79.79 10.3
-15 0 -5 -2.6 4.3
15 0 5 -5.7 2.4
15 0 5 -2.7 4.2
-15 0 -5 1.6 4.1
-15 0 -6 2.2 5.5
15 0 6 4.7 6.7
15 0 6 7.1 4.6
-15 0 -6 11.4 6.1
-15 0 -7 -5.3 4.9
15 0 7 7.3 4.7
15 0 7 -2.4 5.9
-15 0 -8 0.5 5.3
15 0 8 7.6 5
15 0 8 4.2 6.2
15 0 9 -0.5 4.3
-15 0 -9 -0.6 6.7
15 0 9 -1.4 6.7
-15 0 -10 50.79 14.9
15 0 10 59.39 13.3
-15 0 -11 -5.1 6.5
15 1 -12 4.3 6.5
15 1 -11 10.6 5.2
15 -1 -11 5.2 5.5
15 1 -10 86.79 9.5
15 -1 -10 108.89 11.2
15 1 -9 2.6 3.8
15 -1 -9 1 4.3
15 1 -8 43.2 6.1
-15 1 8 23.3 9.3
-15 -1 8 17.9 7.9
15 -1 -8 30.7 7
15 1 -7 3.3 2.8
15 -1 -7 4.2 4
15 1 -6 -1.5 2.1
-15 1 6 3 4.8
-15 -1 6 -6.3 4.1
15 -1 -6 7.3 4.2
-15 1 5 0.1 4.1
15 1 -5 2.4 1.9
15 1 -4 1.3 1.6
-15 1 4 0.4 3.2
15 1 -4 -0.3 1.6
-15 1 3 111.59 10.4
15 1 -3 113.79 5.6
15 -1 -3 111.79 7.6
15 1 -2 7.5 2.4
15 -1 -2 7.1 3.5
15 1 -1 1100.19 29.7
-15 1 1 1081.29 32.1
-15 -1 1 1088.29 29.9
15 -1 -1 1116.09 32.5
15 1 0 151.98 8.9
-15 1 0 150.08 11.5
15 -1 0 173.78 10.6
-15 -1 0 174.68 9.7
-15 -1 0 160.58 9.3
-15 1 -1 485.75 15.9
-15 1 -1 491.35 19.6
15 1 1 491.55 18.4
-15 -1 -1 482.75 18.2
15 -1 1 485.05 19.7
-15 -1 -1 459.15 18.2
15 1 2 -2.6 1.6
-15 1 -2 3.6 2.6
-15 1 -2 -2.4 3.1
15 1 2 -0.5 3.3
-15 -1 -2 -1.6 2.8
15 -1 2 2.9 3.8
-15 -1 -2 -0.5 2.9
15 1 3 16.8 4.1
15 1 3 10.6 4.6
-15 1 -3 -1.2 3.8
-15 1 -3 12.5 4.1
-15 -1 -3 8.8 4.4
15 -1 3 9.9 2.5
15 -1 3 12.7 4.9
-15 -1 -3 4.2 3.9
-15 1 -4 29.3 6
-15 1 -4 37.4 7.5
15 1 4 42.4 8.2
15 1 4 39 6.1
-15 -1 -4 27.5 7
-15 -1 -4 33 7.3
15 -1 4 38.2 7.6
15 -1 4 44.1 4.6
15 1 5 6.8 4
-15 1 -5 8.4 5.2
-15 1 -5 -3.6 3.6
-15 -1 -5 -3.2 4.6
15 -1 5 1.8 2.8
15 -1 5 4.9 5
-15 -1 -5 -7.7 4.3
15 1 6 10.6 5.2
-15 1 -6 7.8 6.2
-15 1 -6 9.7 5.5
15 1 6 9.2 6.4
15 -1 6 6.6 4.1
-15 -1 -6 8.9 6
15 -1 6 9.6 6.4
-15 -1 -6 -2.3 5.7
15 1 7 123.79 11.1
15 1 7 89.99 14
-15 1 -7 116.19 12.5
15 -1 7 110.79 9.5
-15 -1 -7 125.69 14.6
15 -1 7 119.59 13.7
15 1 8 3.5 5.2
15 1 8 13.6 7.2
-15 1 -8 3.8 5
15 -1 8 4.3 4
-15 -1 -8 -0.5 6.6
15 -1 8 -0.4 6.1
-15 1 -9 -3.4 5.7
15 1 9 6.4 6.1
15 -1 9 -4.3 4.8
15 -1 9 -3.1 5
-15 -1 -9 2.8 5.8
-15 1 -10 -1.5 6.3
15 -1 10 -7.5 5.3
-15 -1 -10 13.7 7.3
15 -1 10 -3.1 4.4
-15 1 -11 10.6 7.9
-15 -1 -11 23 9.3
15 2 -12 36.3 8.9
15 2 -11 10.9 5.5
15 2 -10 12.9 5
15 -2 -10 -3.8 5.3
15 -2 -9 3.8 5.8
15 2 -8 4.7 3.1
-15 2 8 -6 6.1
-15 -2 8 -10.8 5.7
15 -2 -8 12 5.8
15 2 -7 38.4 4.4
-15 2 7 50.39 11.8
-15 -2 7 28.9 7.9
15 -2 -7 41.5 7.7
15 2 -6 53.99 3.8
-15 2 6 42.5 9.8
15 -2 -6 54.19 8.2
-15 -2 6 48.5 9.1
-15 2 5 -4.8 3.1
-15 2 4 5.8 4.6
-15 2 3 216.98 13.9
15 -2 -3 210.68 11.8
-15 2 2 24.1 5.8
15 2 -2 22.2 2.8
15 -2 -2 28.5 5.1
-15 -2 2 23.3 2.8
15 2 -1 39.7 4.3
-15 -2 1 35.5 4.4
15 -2 -1 55.19 7.1
-15 -2 1 32.5 5.4
15 2 0 -0.7 2.3
-15 2 0 3 3.6
-15 -2 0 -2.4 3.1
-15 -2 0 -0.5 2.6
15 -2 0 -2.4 3
-15 2 -1 145.69 10.4
-15 2 -1 122.99 6.3
15 2 1 136.39 9
-15 -2 -1 93.19 10.2
-15 -2 -1 111.99 8.2
15 -2 1 150.18 10.7
-15 2 -2 13.8 3.3
15 2 2 9.6 4.9
15 2 2 4.5 2.7
-15 2 -2 17.4 5.5
-15 -2 -2 4.5 3.9
-15 -2 -2 3.3 3.5
15 -2 2 13.7 5.1
15 2 3 0.9 3.7
-15 2 -3 -1.4 2.4
-15 2 -3 2.6 4.3
15 2 3 -0.3 2.4
-15 -2 -3 4.3 3.8
-15 -2 -3 -0.1 4.1
15 -2 3 -2.8 3.2
15 2 4 31.5 7.1
-15 2 -4 20.5 4.6
-15 2 -4 13.6 5.6
15 2 4 16 4.9
15 -2 4 10.9 5.4
15 -2 4 18.6 3
-15 -2 -4 6 5.4
-15 -2 -4 15.2 5.7
15 2 5 131.69 12.6
-15 2 -5 132.99 10.3
-15 2 -5 116.79 16.8
15 2 5 133.89 11.2
-15 -2 -5 146.19 12.5
15 -2 5 134.59 12.6
15 -2 5 133.49 7.5
-15 -2 -5 128.59 13.3
-15 2 -6 138.09 13.8
-15 2 -6 148.49 11.8
15 2 6 130.59 11.3
15 2 6 139.89 14.1
-15 -2 -6 152.28 15.5
15 -2 6 116.69 12.9
-15 -2 -6 140.09 13.4
15 2 7 4.2 5.6
-15 2 -7 16.3 5.9
15 2 7 14.9 6.7
15 -2 7 5 3.8
-15 -2 -7 2.9 7.5
15 2 8 16.3 8
-15 2 -8 28 7.4
15 -2 8 26.5 5.8
-15 -2 -8 14 8.2
15 -2 8 16.2 7.5
15 2 9 6.8 7.3
-15 2 -9 16.6 6.4
15 -2 9 -0.1 5.8
15 -2 9 8.9 4.4
-15 -2 -9 -3.3 6.8
15 2 10 0.4 6.6
-15 2 -10 -4 5.2
-15 -2 -10 0.8 8.7
15 -2 10 7.6 8.1
-15 2 -11 7.2 7.4
15 2 11 -4.3 6.7
15 -2 11 5.2 5.3
-15 -2 -11 -1.8 7.4
15 3 -12 -1.4 5
15 3 -11 21.7 5.9
15 3 -10 3.7 4.1
15 3 -9 55.09 6.5
15 -3 -9 52.39 10.5
15 3 -8 10.7 3.2
-15 -3 8 7.5 6.3
15 -3 -8 2.7 5.2
15 -3 -8 3.8 5.8
-15 3 7 13.2 8.1
15 3 -7 15.7 2.6
-15 -3 7 11.8 6.6
15 -3 -7 13.2 6.6
-15 3 6 31.8 9.2
-15 3 5 8.6 6.2
-15 3 4 2.6 4.1
-15 3 3 24.2 6
15 -3 -3 40.2 6.4
-15 3 2 58.29 8.3
-15 -3 2 58.99 3.6
15 -3 -2 73.99 7.8
-15 3 1 88.29 7.8
15 3 -1 69.99 5.7
-15 -3 1 84.39 7.6
-15 -3 1 75.79 5.4
15 -3 -1 71.39 7.8
15 3 0 328.37 14.1
-15 3 0 356.36 17.3
-15 3 0 345.47 13.9
15 -3 0 378.96 17.6
-15 -3 0 338.67 13.6
-15 -3 0 335.27 15.9
-15 3 -1 17.3 5.1
-15 3 -1 30.3 4
15 3 1 28.7 5.4
-15 3 -1 27.6 3.1
-15 -3 -1 19.3 5.6
15 -3 1 37.2 7.5
-15 -3 -1 34 5.9
-15 3 -2 127.09 10.9
15 3 2 123.09 8.9
-15 3 -2 125.39 5.9
15 3 2 111.79 9.7
-15 -3 -2 118.79 9.2
-15 -3 -2 140.29 11.7
15 -3 2 113.19 10.6
-15 3 -3 37.5 8.2
15 3 3 39.6 7.3
-15 3 -3 45.4 4.1
15 3 3 33.7 6
-15 -3 -3 43.9 8.5
15 -3 3 41.5 8.4
-15 -3 -3 44.5 7.5
15 3 4 6.5 4.8
-15 3 -4 4.5 2.6
15 3 4 6.8 3.9
-15 3 -4 7.4 5.1
15 -3 4 0.3 4.6
-15 -3 -4 3.1 4.4
-15 -3 -4 7.2 5.7
15 3 5 40.7 7.7
-15 3 -5 31.8 5.2
-15 3 -5 31.1 8.7
15 3 5 49.3 9.8
-15 -3 -5 30.3 13.8
15 -3 5 27 7.7
-15 -3 -5 27.9 9.3
15 -3 5 41.4 3.6
15 3 6 -2.8 3.7
-15 3 -6 4.1 6.7
-15 3 -6 1.2 3.1
15 3 6 -0.8 4.8
15 -3 6 -0.1 2.3
-15 -3 -6 -0.3 6
-15 -3 -6 -5.2 5.5
15 -3 6 7.2 6.4
15 3 7 30.9 10.5
-15 3 -7 24.9 5.6
15 3 7 29.6 8.8
15 -3 7 10.5 6.5
-15 -3 -7 14.2 7.9
15 -3 7 28.1 4.8
15 3 8 28.2 10.1
15 -3 8 16.8 8.2
-15 -3 -8 25.5 10.9
15 -3 8 30.3 5.8
15 3 9 2.3 6.3
-15 3 -9 -0.4 4.2
15 -3 9 -0.5 5.6
15 -3 9 -8.2 3.3
-15 -3 -9 5.7 6.9
-15 3 -10 -2.9 5
15 3 10 17.9 9
-15 -3 -10 -6.3 8.2
15 -3 10 -1.3 4.7
15 -3 10 1.2 6.1
15 3 11 -15.6 6.9
15 -3 11 -4.1 7
-15 -3 -11 -2.8 8.4
15 -3 11 10.8 8.4
15 4 -12 1.6 5
15 4 -11 -4.1 3.5
15 -4 -11 16.3 8
15 4 -10 13.6 4.7
15 -4 -10 3.6 7
15 4 -9 -2.9 2.6
15 -4 -9 1.9 5.9
15 4 -8 51.79 4.4
15 -4 -8 76.79 12.2
15 -4 -8 39.9 10.6
-15 4 7 18 8.4
15 -4 -7 20.1 8.1
-15 4 6 -1.1 4.4
15 -4 -6 -4.9 4
-15 4 5 8 5.5
15 -4 -5 2.7 4.1
-15 4 4 2.8 4.9
15 -4 -4 5.6 4.3
-15 4 3 2.3 3.5
15 -4 -3 -3.1 2.7
-15 4 2 3.5 3.5
15 -4 -2 2.9 4.1
-15 -4 2 2.9 3.5
-15 -4 2 2.9 1.8
-15 4 1 171.78 10.7
-15 -4 1 147.69 10.8
-15 -4 1 153.88 7.8
15 -4 -1 178.78 12.3
-15 4 0 -4.3 2.2
-15 -4 0 -3.2 2.2
15 -4 0 0.8 3.5
-15 -4 0 -0.8 3.5
-15 4 -1 122.39 4.6
15 4 1 129.49 8.9
15 4 1 126.39 10
-15 4 -1 117.79 11.1
-15 4 -1 122.59 5.8
15 -4 1 116.69 11
-15 -4 -1 133.09 9.3
-15 -4 -1 123.89 11.1
15 4 2 20.4 6
15 4 2 15.2 4.3
-15 4 -2 14.9 6
-15 -4 -2 34.5 7.9
15 -4 2 16.4 6
-15 -4 -2 19.2 5.6
15 4 3 79.29 11.2
-15 4 -3 70.99 10.4
15 4 3 75.19 8.2
15 -4 3 60.09 9.7
-15 -4 -3 55.89 10.6
-15 -4 -3 69.49 9.6
-15 4 -4 0.8 4.7
15 4 4 8.2 5.8
15 -4 4 2.6 5.3
-15 -4 -4 -1.7 5.3
-15 -4 -4 3.5 5.7
-15 4 -5 13.7 7.4
15 4 5 2.4 4.1
15 4 5 1.2 6
-15 -4 -5 4.9 7.2
-15 -4 -5 11 6.4
15 -4 5 1.9 5.4
15 4 6 14.9 7
15 -4 6 12.3 7
-15 -4 -6 8.7 7
15 4 7 -8.4 6.2
15 -4 7 4.1 5.6
15 -4 7 0.3 2
-15 -4 -7 -1.4 6.8
15 4 8 -1.1 7.8
-15 -4 -8 3.4 7.7
15 -4 8 -0.4 6.1
15 -4 8 6.3 3.2
15 4 9 14.2 9.5
15 -4 9 8.8 3.9
-15 -4 -9 6.4 8.9
15 -4 9 14.1 6.9
15 4 10 5 8.8
15 -4 10 4.1 4.6
15 -4 10 -0.7 6.9
-15 -4 -10 13.6 10.5
15 -5 -11 7.8 7
15 5 -10 -0.3 2.1
15 -5 -10 6.2 6.2
15 -5 -9 16.7 7.6
15 -5 -8 6.2 6.3
-15 5 7 7 7.7
15 -5 -7 9.7 6.7
-15 5 6 1 5
15 -5 -6 -7.1 3.9
-15 5 5 3.2 5.7
15 -5 -5 14.5 6.5
-15 5 4 10.6 5.9
15 -5 -4 19.7 5.9
-15 5 3 -5.6 3.3
15 -5 -3 0 3.8
-15 -5 3 -0.8 1.2
-15 -5 3 4.2 4.2
-15 -5 3 2.7 1.4
15 -5 -3 5.6 4
-15 5 2 10.8 6.2
15 -5 -2 14.8 5.6
-15 -5 2 10.5 4.7
-15 -5 2 14.8 3
-15 5 1 111.89 9
-15 -5 1 118.99 10.8
15 -5 -1 116.19 10.8
-15 -5 1 122.09 7.8
-15 5 0 22.2 4
15 -5 0 15.7 5.9
-15 -5 0 4.6 5.2
-15 -5 0 15.2 4.4
15 5 1 113.29 8.8
-15 -5 -1 121.89 9.5
-15 -5 -1 113.99 11.6
15 -5 1 120.89 11.6
15 5 2 2.2 4.4
15 -5 2 7.7 5.4
-15 -5 -2 3.2 4
-15 -5 -2 2.1 5.1
15 5 3 23 7.4
15 5 3 18.9 5.6
-15 5 -3 17 6.8
15 -5 3 17.5 6.7
-15 -5 -3 12.4 5.3
-15 -5 -3 6.8 6.5
-15 5 -4 40.6 9.3
15 5 4 34.1 8.9
15 5 4 36 7.6
-15 -5 -4 44.2 10.4
15 -5 4 35.7 9
-15 -5 -4 37.1 8
15 5 5 0.1 5.4
-15 -5 -5 -5.7 5
-15 -5 -5 -4.1 6.2
15 -5 5 14.5 7
-15 -5 -6 90.39 16.1
15 -5 6 113.79 14.9
15 5 7 -2 6
15 -5 7 11.7 7.4
-15 -5 -7 31.9 10.4
15 5 8 -3.7 5.2
-15 -5 -8 5.1 8.8
15 -5 8 -14.7 5.2
15 5 9 19.6 8.6
-15 -5 -9 0.4 8.4
15 -5 9 1.2 1.8
15 -5 9 2.4 7
15 5 10 10.4 8.7
15 -5 10 5.2 3.4
-15 -5 -10 11.8 9.2
15 -6 -10 2.3 7
15 -6 -9 13.7 8.1
15 -6 -8 7.6 6.8
15 -6 -7 8 6.7
-15 6 6 262.77 20.7
15 -6 -6 254.57 20.2
-15 6 5 16.9 7.2
15 -6 -5 12.7 6.3
-15 6 4 24.2 7.8
-15 -6 4 34.5 2.9
-15 -6 4 31.6 7
-15 -6 4 31.5 3
15 -6 -4 39.2 8.7
-15 6 3 -1.6 4.9
-15 -6 3 7.1 2.6
-15 -6 3 2.6 2.3
15 -6 -3 3 5.5
-15 -6 3 2.8 5
15 -6 -3 6 4.5
-15 6 2 18.6 5.8
15 -6 -2 9.3 6.3
-15 -6 2 14.1 6
15 -6 -2 18.5 5
-15 -6 2 20.6 4
-15 6 1 54.39 7.1
15 -6 -1 70.29 10.4
-15 -6 1 59.39 9.8
-15 -6 1 57.79 7
-15 6 0 133.49 7.3
-15 -6 0 127.29 13.1
-15 -6 0 138.19 9.9
15 -6 0 120.99 12.1
15 6 1 0.2 3
15 -6 1 6.2 5.6
-15 -6 -1 1.7 3.8
-15 -6 -1 -7.4 4.7
15 6 2 16.3 5.1
-15 -6 -2 22.3 8.3
15 -6 2 12.5 6.8
-15 -6 -2 8.6 5.6
15 6 3 -0.6 3.5
-15 6 -3 -8.4 5
15 -6 3 1.1 5.7
-15 -6 -3 0.9 5
-15 -6 -3 -4.1 5.8
15 -6 4 66.99 11.2
-15 -6 -4 75.69 11.2
-15 -6 -4 80.49 16.8
-15 -6 -5 -10 6.5
15 -6 5 6.6 6.4
15 -6 6 45.4 10.5
-15 -6 -6 34.5 12.1
-15 -6 -7 9.8 9.3
15 -6 7 5.3 5.9
15 -6 8 -1.6 6
-15 -6 -8 -10.4 6.7
15 -6 9 1.3 6.9
-15 -6 -9 19.8 10.5
15 -7 -10 -0.6 6.8
15 -7 -9 -8.1 6
15 -7 -8 -3.7 6.4
15 -7 -7 7.7 6.1
-15 7 6 29.2 9.8
-15 -7 6 19.9 7
15 -7 -6 21 8.8
-15 -7 6 18.3 2.1
-15 7 5 2.7 7.4
15 -7 -5 0.5 4.9
-15 -7 5 -2 1.9
-15 -7 5 -3.4 4.4
-15 -7 5 -0.5 1.8
-15 7 4 -4.1 4.8
15 -7 -4 -5.5 4.3
-15 -7 4 0.6 2.4
-15 -7 4 2.2 4.6
-15 7 3 -0.6 4.6
15 -7 -3 -1.4 4.8
-15 -7 3 -3.2 2.5
15 -7 -3 8.5 4.6
-15 -7 3 5.1 5.6
-15 -7 3 0.8 3.1
-15 7 2 -0.9 3.6
-15 -7 2 -2.7 3
15 -7 -2 5.5 5.5
-15 -7 2 2.2 5.5
-15 7 1 4.8 3.8
-15 -7 1 6.1 7
15 -7 -1 0.1 4.7
-15 -7 1 0.1 3.7
-15 -7 0 5.3 6.4
15 -7 0 -0.5 5.2
-15 -7 0 6.6 4.6
-15 -7 -1 87.79 9.9
-15 -7 -1 81.09 13.8
15 -7 1 55.39 11.1
-15 -7 -2 2.9 5.1
15 -7 2 -1.2 5.3
-15 -7 -2 6 7.5
15 -7 3 27.8 9.2
-15 -7 -3 39 9.2
-15 -7 -3 13.7 8.3
-15 -7 -4 78.99 16.1
-15 -7 -4 45.5 9.5
15 -7 4 41.8 9.8
15 -7 5 -1.3 5.5
-15 -7 -5 5.4 9.1
15 -7 6 8.9 6.6
-15 -7 -6 9.8 8.6
15 -7 7 -7.1 5.3
-15 -7 -7 13.1 9.6
15 -7 8 4.4 7.5
-15 -7 -8 17.5 11
15 -8 -9 21.7 9.8
15 -8 -8 26.4 10.6
-15 -8 8 30.3 8.1
-15 -8 7 44.5 3.6
-15 -8 7 31.4 8.2
15 -8 -7 40.6 10.4
-15 -8 6 6.6 2.9
15 -8 -6 10 8
-15 -8 6 5.7 2.6
-15 -8 6 12.4 6.1
-15 8 5 81.39 13.4
-15 -8 5 70.79 6.1
-15 -8 5 79.09 11.8
15 -8 -5 70.79 12.2
-15 -8 5 70.19 6.2
-15 8 4 4.4 5.4
-15 -8 4 1.4 2.9
-15 -8 4 -3.8 2.9
15 -8 -4 -2.3 4.6
-15 8 3 36 7.8
15 -8 -3 33.6 7.5
-15 -8 3 22.9 9.3
15 -8 -3 18.9 7.7
-15 -8 3 12.4 4.5
-15 8 2 176.78 13
-15 -8 2 162.48 11.6
15 -8 -2 194.78 16.7
-15 -8 2 147.59 15.2
15 -8 -2 181.08 12.8
-15 8 1 -4.1 5
-15 -8 1 0.5 4.2
15 -8 -1 5.7 3.6
-15 -8 1 -8.3 9.8
15 -8 -1 0.4 4.8
-15 8 0 112.59 6.5
-15 -8 0 126.99 11
15 -8 0 118.59 13.7
-15 -8 0 97.49 16.8
-15 -8 -1 120.69 16.9
-15 -8 -1 134.49 12.4
15 -8 1 101.29 14.5
-15 -8 -2 9.1 6.3
-15 -8 -2 -11.7 7.2
15 -8 2 -2.6 5
15 -8 3 28 9.4
-15 -8 -3 32.3 8.7
-15 -8 -3 30.3 10.4
15 -8 4 12.2 7.3
-15 -8 -4 -2.2 8.2
15 -8 5 18.8 8.2
-15 -8 -5 6.2 9
-15 -8 -6 -16.4 6.9
15 -8 6 1.4 6.7
15 -8 7 16.7 9.2
-15 -8 -7 27.2 14.3
-15 -9 8 -2.9 2.3
15 -9 -8 -1.3 6.7
-15 -9 8 3 6.1
-15 -9 7 4.6 6.7
-15 -9 7 17.7 4.1
15 -9 -7 7.3 7.6
-15 -9 6 2.5 6.3
15 -9 -6 0.9 6.7
-15 -9 6 6.4 3.2
-15 -9 6 5.7 3.1
-15 -9 5 5.6 6.1
15 -9 -5 18.7 6.9
-15 -9 5 0.4 2.9
-15 -9 5 3.6 3.6
-15 9 4 2.9 6.8
-15 -9 4 1.2 3.8
-15 -9 4 -2 5.3
-15 -9 4 1.6 3.4
15 -9 -4 -0.1 5.5
15 -9 -4 -7.4 5.1
-15 9 3 -6.7 4.9
15 -9 -3 2 4.5
-15 -9 3 -3.4 6.2
15 -9 -3 -2.2 5.3
-15 -9 3 7.2 4.4
-15 -9 3 11.8 4.7
-15 9 2 -5.6 3.8
15 -9 -2 -3.1 4
-15 -9 2 -2.9 3.7
-15 -9 2 4.5 6.7
-15 -9 2 6.3 4.5
15 -9 -2 8.8 6.7
-15 9 1 1.4 3.6
15 -9 -1 7.4 6
15 -9 -1 0.1 3.3
-15 -9 1 9.4 5.3
-15 -9 1 0.8 7.1
-15 9 0 0.9 2.2
-15 -9 0 -8.8 7.1
-15 -9 0 -0.7 5.3
15 -9 0 1.8 6
15 -9 1 -1.6 6.5
-15 -9 -1 0.2 8
-15 -9 -1 12.4 6.3
-15 -9 -2 28.5 10.5
-15 -9 -2 12 7
15 -9 2 7.7 7.1
-15 -9 -3 0.1 9.2
15 -9 3 4.3 6
15 -9 4 0.1 6.1
-15 -9 -4 2.3 8.3
-15 -9 -5 3.5 8.4
15 -9 5 7.8 7.9
15 -9 6 4.3 7.3
-15 -10 6 -1.2 3.7
-15 -10 6 6.8 7.5
15 -10 -6 5.2 7.1
15 -10 -5 2.6 6.8
-15 -10 5 13 9.1
-15 -10 5 13.4 4.9
-15 10 4 4.4 6.8
-15 -10 4 -7.5 6
15 -10 -4 0.3 4.7
-15 -10 4 -3.6 3.7
-15 -10 4 -5.3 4.8
15 -10 -4 5.9 6.5
-15 10 3 -4.5 6
15 -10 -3 4.6 6.2
-15 -10 3 0.4 7.7
15 -10 -3 4.2 5.4
-15 -10 3 1 3.8
-15 -10 3 -7.2 4.4
-15 10 2 7.6 5.3
15 -10 -2 36.6 7.7
-15 -10 2 9.8 9.2
-15 -10 2 24.5 6.7
15 -10 -2 8.9 7.2
-15 -10 2 20.1 6.4
-15 10 1 2.7 2.9
-15 -10 1 11.7 9.7
15 -10 -1 7.8 6.2
-15 -10 1 10.3 7.2
15 -10 0 30.7 9.3
-15 -10 0 34.4 12.4
-15 -10 0 40.7 8.4
-15 -10 -1 11.7 10.7
15 -10 1 -3.5 6.4
-15 -10 -2 60.59 14.8
15 -10 2 84.89 15.1
-15 -10 -3 3.7 9.7
15 -10 3 -3.6 6.3
15 -10 4 22 9.4
-15 -10 -4 1.6 9.6
-15 -10 -5 -8.7 8.9
-15 -11 4 -7.6 5.9
15 -11 -4 0.6 7.2
-15 -11 4 1.1 5.7
-15 -11 4 8.8 4.7
15 -11 -3 -4.3 6.5
-15 -11 3 -13.8 7.5
-15 -11 3 8.2 6.1
-15 -11 3 1.3 5.6
15 -11 -3 -0.4 6.2
15 -11 -2 2.1 7
-15 -11 2 -6.4 5.1
-15 -11 2 5.5 9.5
-15 -11 2 -0.3 5.9
15 -11 -2 5.9 5
-15 11 1 -2.6 2.9
-15 -11 1 -3.3 8.7
-15 -11 1 -1.3 6.5
15 -11 -1 -0.3 3.6
-15 -11 1 -1.6 5.7
-15 -11 0 4.6 8.6
-15 -11 -1 16.3 10.3
-15 -11 -2 0.7 16.9
15 -11 2 -9 6.8
16 0 -12 25 7.6
16 0 -11 0 5
16 0 -10 10 5.2
-16 0 8 240.28 21
16 0 -8 271.47 14.1
16 0 -7 -2.4 2.8
-16 0 7 3.7 6
-16 0 6 61.59 11.3
16 0 -6 99.09 7.6
16 0 -5 -3.9 2.2
-16 0 5 3.1 4.5
16 0 -4 272.97 11.1
16 0 -3 0.2 2.3
16 0 -2 3.9 3
-16 0 1 1.8 2.6
16 0 -1 -1.4 2.5
-16 0 0 394.06 16.1
16 0 0 373.96 15.6
-16 0 0 376.46 14.1
16 0 1 2.7 3.5
-16 0 -1 2.7 3.2
-16 0 -1 0.3 2.7
-16 0 -2 70.59 6.5
-16 0 -2 56.29 7.9
16 0 2 51.29 7.6
16 0 3 -2.8 1.7
16 0 3 -2 3.1
-16 0 -3 0.6 3.4
-16 0 -3 -1.5 3.3
-16 0 -4 89.99 10.2
16 0 4 86.69 7.2
16 0 4 99.59 10.1
-16 0 -5 -3.3 4
16 0 5 0.3 4.8
-16 0 -5 -2.9 5
16 0 5 -0.7 2.9
16 0 6 120.49 13.2
-16 0 -6 130.09 13.3
16 0 6 134.99 10.7
-16 0 -6 145.19 14.5
-16 0 -7 6.3 5.7
16 0 7 -1.2 4
-16 0 -8 3.1 5.9
16 0 8 1.6 5.9
16 0 8 2.9 4.8
-16 0 -9 15.6 7.4
16 0 9 2.8 6.7
16 0 9 4 4.9
16 0 10 2.7 7.4
16 0 11 -3.1 6
-16 0 -11 14 9.5
16 1 -13 -3.4 7.3
16 1 -11 39.6 8.4
16 -1 -11 58.39 9.5
16 -1 -10 43.2 8.1
16 1 -9 18 4.9
16 -1 -9 26 6.7
-16 1 8 15.1 7.6
16 1 -8 6.7 3.3
-16 -1 8 7.4 7.1
16 -1 -8 1.6 3.9
16 1 -7 21.4 4
-16 1 7 21.8 7.9
16 -1 -7 25.2 6.2
-16 -1 7 34.2 9.2
16 1 -6 135.49 7.2
-16 1 6 122.29 14.2
-16 -1 6 129.59 13.7
16 -1 -6 155.58 10.6
16 1 -5 52.49 4.4
-16 1 5 62.19 10.1
-16 1 4 169.08 13.8
16 1 -4 173.18 7
16 -1 -4 184.88 9.9
16 1 -3 69.79 4.4
-16 1 3 34.7 7
16 -1 -3 52.79 6.3
16 1 -2 249.28 9.7
-16 -1 2 249.18 9.9
16 -1 -2 250.87 12
16 1 -1 492.15 16.3
-16 1 1 468.55 18.2
16 -1 -1 473.25 18.3
-16 -1 1 482.65 16.4
-16 1 0 304.27 14.6
16 1 0 331.27 13.5
-16 -1 0 304.47 13.3
-16 -1 0 305.57 13.7
-16 1 -1 51.69 5
-16 1 -1 52.49 7.3
16 1 1 55.99 6.1
-16 -1 -1 48.3 6.5
16 1 2 51.29 7.3
-16 1 -2 40.3 5.4
-16 1 -2 33.6 6.8
16 -1 2 39.3 7.1
-16 -1 -2 29.9 5.9
16 1 3 60.99 5.9
16 1 3 64.69 8.9
-16 1 -3 56.09 6.9
-16 1 -3 56.69 9.2
16 -1 3 57.09 8.7
-16 -1 -3 61.89 8.6
-16 -1 -3 58.79 8.2
16 1 4 -0.8 3.3
-16 1 -4 -8.9 3.5
16 1 4 5.3 3
-16 1 -4 -0.9 3.1
-16 -1 -4 -4 3.9
16 -1 4 1.8 2.4
-16 -1 -4 2.8 4.5
16 -1 4 10.3 5.4
16 1 5 0.7 3.1
-16 1 -5 3.6 4.6
16 1 5 -0.2 4.5
-16 1 -5 -3 4.7
-16 -1 -5 8.7 6.1
16 -1 5 1.9 2.7
16 -1 5 1.3 4.6
-16 -1 -5 -4.1 4.5
16 1 6 143.49 11.7
-16 1 -6 128.29 12.4
16 1 6 128.09 13.8
-16 1 -6 126.19 13.6
16 -1 6 123.49 13.4
-16 -1 -6 131.09 13.5
-16 -1 -6 128.19 14.3
16 -1 6 134.49 9.6
-16 1 -7 86.49 12.4
16 1 7 84.79 9.9
16 -1 7 82.99 9
-16 -1 -7 83.49 13.8
16 1 8 9.3 6.9
16 1 8 12.7 5.7
-16 1 -8 1.4 5
16 -1 8 5.8 4.2
16 -1 8 6.9 6.3
-16 -1 -8 19.8 8.1
-16 1 -9 -0.2 6.4
16 1 9 -6 5.1
16 -1 9 1.6 6.3
-16 -1 -9 6.4 7
16 1 10 10.8 7.5
-16 1 -10 9.5 7.4
16 -1 10 8.4 5.7
16 -1 10 5.1 7.7
-16 -1 -10 -3.5 6.9
-16 1 -11 -1.4 7.3
16 1 11 2 6.3
16 -1 11 4.1 7.1
-16 -1 -11 0.8 7.8
16 2 -12 16 6.9
16 2 -11 11 5.4
16 2 -10 1.6 4.2
16 -2 -10 -9.4 5.3
16 2 -9 60.29 7
16 -2 -9 54.09 9.5
-16 2 8 8.1 8
16 2 -8 17.6 4
-16 -2 8 10.3 6.8
16 -2 -8 10.4 5.7
16 2 -7 -2.1 1.8
-16 2 7 3.7 5.9
16 -2 -7 -1.8 4.3
-16 -2 7 -4.3 4.7
-16 2 6 11.7 6.7
16 2 -6 11 2
-16 2 5 32.5 8.4
-16 2 4 11 5.4
-16 2 3 9.6 5.2
16 -2 -3 4.5 3.5
16 2 -2 555.54 15.8
-16 2 2 554.94 26.2
16 -2 -2 592.74 21.3
-16 -2 2 563.24 15.8
16 2 -1 157.08 7.7
-16 -2 1 150.68 7.9
16 -2 -1 141.19 10
-16 -2 1 153.18 9.2
-16 2 0 49.8 7.1
16 2 0 55.89 5.8
16 -2 0 59.09 8.4
-16 -2 0 43.2 6.4
-16 -2 0 52.69 6
16 2 1 115.09 8.4
-16 2 -1 133.89 6.8
-16 2 -1 113.09 10
-16 -2 -1 134.29 10.1
16 -2 1 147.09 10.8
-16 2 -2 30.2 4.4
16 2 2 27.9 4.8
-16 2 -2 23.7 6.1
16 2 2 31.1 6.2
-16 -2 -2 29.6 6.4
-16 -2 -2 24.4 5.7
16 -2 2 25.7 6.3
-16 2 -3 3.1 4.1
16 2 3 3.1 3.9
16 2 3 -0.9 2.9
-16 2 -3 2.9 3
-16 -2 -3 -0.1 4.1
-16 -2 -3 -5.2 3.3
16 -2 3 -3.5 3.3
16 2 4 56.89 9.2
-16 2 -4 27.7 7.5
-16 2 -4 35.1 6
16 2 4 48.2 7
16 -2 4 53.39 9.1
-16 -2 -4 61.19 9.4
-16 -2 -4 46.8 9.5
16 2 5 2.1 3.5
-16 2 -5 9.1 4.4
-16 2 -5 -0.2 5.4
16 2 5 3.5 5.2
-16 -2 -5 -6.5 4
16 -2 5 7.4 5.6
-16 -2 -5 -13.5 9.2
16 -2 5 6.2 2.7
16 2 6 88.49 12.6
-16 2 -6 64.09 9
-16 2 -6 76.09 12.3
16 2 6 91.29 13.7
16 -2 6 59.29 7.2
16 -2 6 75.89 11.8
-16 -2 -6 71.49 12.3
-16 -2 -6 56.99 11.1
-16 2 -7 88.89 10.6
16 2 7 86.19 16.1
16 2 7 95.89 10.3
16 -2 7 89.39 13.3
16 -2 7 93.69 8.1
-16 -2 -7 94.09 15.4
16 2 8 3.3 6.8
-16 2 -8 5.9 5.9
-16 -2 -8 9 7.5
16 -2 8 8.8 7.1
16 -2 8 10.8 4.5
16 2 9 11.8 8.7
-16 2 -9 15.4 7.1
16 -2 9 20.4 6.1
16 -2 9 16.9 8.1
-16 -2 -9 39.3 11.3
-16 2 -10 6 6.3
16 2 10 -0.8 8
16 -2 10 7.1 8.8
16 -2 10 -0.4 7.7
-16 -2 -10 -6.2 7.6
-16 2 -11 2.6 7.2
16 2 11 7.7 8.3
16 -2 11 -6.6 5.8
16 -2 11 22.3 9.6
-16 -2 -11 -11.6 8.1
16 3 -12 1.6 4.7
16 3 -11 3.5 3.9
16 -3 -10 -5.6 7.4
16 3 -9 65.59 6.5
16 -3 -9 58.59 10.9
16 3 -8 42.6 4.4
16 -3 -8 56.09 10.5
-16 3 7 21.9 8.4
16 -3 -7 26.3 7.1
-16 -3 7 26 8.4
-16 3 6 24.4 8.3
-16 3 5 3.1 5.9
-16 3 4 25.3 7.4
-16 3 3 13.3 5.9
16 -3 -3 10.7 4.7
-16 3 2 38.7 6.7
16 -3 -2 50.89 7.4
-16 -3 2 46.8 3.4
16 3 -1 190.78 9.2
-16 3 1 190.08 11.2
16 -3 -1 179.88 11.9
-16 -3 1 186.38 11.1
-16 -3 1 181.48 8.6
-16 3 0 297.77 12.9
-16 3 0 282.67 15.7
16 3 0 284.27 13.1
-16 -3 0 288.37 14.8
-16 -3 0 285.77 12.5
16 -3 0 308.37 16.1
-16 3 -1 28.4 3.2
16 3 1 26.4 5.4
-16 3 -1 24.6 6
-16 -3 -1 26.9 6.1
16 -3 1 36.8 7.3
-16 -3 -1 21.3 5.9
16 3 2 8 4.4
16 3 2 8.3 3.4
-16 3 -2 4.9 4.5
-16 3 -2 8.3 2.5
16 -3 2 -2.8 3.2
-16 -3 -2 10.3 5.2
-16 -3 -2 6.7 4.1
16 3 3 18.6 5.9
-16 3 -3 14.6 3.1
-16 3 -3 13.6 6
16 3 3 15.2 4.3
16 -3 3 8.7 5.5
-16 -3 -3 17.5 5.6
-16 -3 -3 9.4 6.1
-16 3 -4 17.7 3.8
16 3 4 16 5
16 3 4 19.2 6.3
-16 -3 -4 7.7 6.5
16 -3 4 19.3 6.5
-16 -3 -4 14.3 6
-16 3 -5 0.3 5.4
16 3 5 -9.3 3
-16 3 -5 0.8 2.8
16 -3 5 -2 4.6
-16 -3 -5 11.1 6.3
-16 -3 -5 6.3 6.2
-16 3 -6 8.5 4
16 3 6 9.4 6.2
16 3 6 18 5.9
-16 -3 -6 17 8.8
16 -3 6 17 3.3
16 -3 6 15.2 7
-16 -3 -6 11.4 7.1
16 3 7 8.9 6.8
-16 3 -7 6.5 4
16 -3 7 15.5 3.7
16 -3 7 6.1 6.6
-16 -3 -7 9.2 8.5
16 3 8 1.3 6.3
16 -3 8 -4.2 3
16 -3 8 1.1 6
-16 -3 -8 -4 6.4
16 3 9 -8.2 6.2
-16 3 -9 -3.1 4.7
16 -3 9 -4.8 5.5
16 -3 9 5.6 3.7
-16 -3 -9 -4.5 6.1
16 3 10 2.3 7.8
-16 3 -10 10.8 5.4
16 -3 10 -1.2 6.6
-16 -3 -10 -4.5 7.5
16 -3 10 -3.5 4.4
16 4 -12 2.7 5
16 4 -10 -2 2.4
16 -4 -10 -2 5.6
16 4 -9 4 2.4
16 -4 -9 -9.2 4.7
16 -4 -8 245.48 18.4
-16 4 7 -5.6 6.1
16 -4 -7 -1.5 4.3
-16 4 6 89.29 14.8
16 -4 -6 72.89 11.8
-16 4 5 10.3 5.8
-16 4 4 5.1 4.3
-16 4 3 58.09 9.4
16 -4 -3 76.99 8.9
-16 4 2 24.9 6.1
-16 -4 2 24 2.8
-16 -4 2 27.5 5.9
16 -4 -2 39 7.2
-16 4 1 215.08 12.2
16 -4 -1 201.28 13.4
-16 -4 1 235.78 13.9
-16 -4 1 216.98 9.7
16 4 0 37.2 6
-16 4 0 30.4 5
-16 -4 0 37.5 7.3
16 -4 0 43 7.9
-16 -4 0 36.9 5.5
16 4 1 4.3 4.2
-16 4 -1 5.3 2.3
-16 4 -1 -3.7 3.4
-16 4 -1 8.5 1.8
-16 -4 -1 2.7 3.6
-16 -4 -1 7.6 5
16 -4 1 8.6 4.9
16 4 2 57.19 6.8
-16 4 -2 54.59 8.9
16 4 2 67.29 9.3
-16 -4 -2 75.99 8.3
-16 -4 -2 66.39 10.6
16 -4 2 60.19 9.8
16 4 3 5.8 3.8
16 4 3 8.5 5.1
-16 -4 -3 2.2 5.8
-16 -4 -3 1.8 3.8
16 -4 3 -1.5 4.4
16 4 4 -2.9 4.1
-16 4 -4 -8.6 4.3
16 4 4 -2.7 3.7
16 -4 4 -4.2 4.6
-16 -4 -4 -5.1 4.2
-16 -4 -4 -3.3 5.3
16 4 5 2.5 5.6
16 4 5 -3 3.8
-16 4 -5 12.5 6.8
-16 -4 -5 -2.2 5.5
16 -4 5 2.5 5.3
-16 -4 -5 3.2 6.2
16 4 6 67.69 12.4
-16 -4 -6 71.99 15
16 -4 6 86.29 13.8
16 4 7 26.1 9.2
-16 -4 -7 44.9 11.9
16 -4 7 20.8 7.8
16 -4 7 31.5 3.4
16 4 8 50.99 12.2
16 -4 8 19.3 3.6
-16 -4 -8 23.7 11.3
16 -4 8 23.2 8.7
16 4 9 -8.5 5.9
-16 -4 -9 10.4 9.5
16 -4 9 -7.9 5.3
16 -4 10 -7.3 3.7
16 -4 10 -12.9 7.4
-16 -4 -10 4.7 7.5
16 -5 -11 17.6 9.1
16 -5 -10 3.5 7.6
16 -5 -9 3.7 6.6
16 -5 -8 4.8 6.6
-16 5 7 83.69 15.1
16 -5 -7 59.09 11.8
16 -5 -6 -1.6 5.6
-16 5 5 100.49 12.3
16 -5 -5 90.19 12.6
-16 5 4 116.49 13
16 -5 -4 112.19 11.1
-16 5 3 20.3 6.5
-16 -5 3 13 5.1
16 -5 -3 15.4 6.8
-16 -5 2 49.3 4.3
16 -5 -2 49.2 8.5
-16 -5 2 46.6 7.8
-16 5 1 50.29 7.1
16 -5 -1 37.4 8.2
-16 -5 1 32.6 7.2
-16 -5 1 31.5 4.6
-16 5 0 32.4 4.8
-16 -5 0 29 7.4
16 -5 0 23.6 6.6
16 -5 1 7.1 5.5
-16 -5 -1 16.1 4.9
-16 -5 -1 13.2 6.5
16 5 2 146.29 10.6
-16 5 -2 136.39 13.3
-16 -5 -2 154.88 14.4
-16 -5 -2 154.38 11.4
16 -5 2 130.29 13
16 5 3 174.38 14.8
16 5 3 178.88 12.3
-16 5 -3 162.38 14.6
-16 -5 -3 153.98 13.2
16 -5 3 166.98 14.6
-16 -5 -3 161.18 16.1
16 5 4 31.4 8.6
-16 5 -4 58.19 10.9
16 5 4 46 8.3
16 -5 4 39.7 9.3
-16 -5 -4 51.79 12.2
16 5 5 -2.8 4.9
-16 -5 -5 -8 6
-16 -5 -5 1.4 8
16 5 6 17.6 8.1
-16 -5 -6 8.3 8.4
16 -5 6 5.5 6.3
16 5 7 2.7 6.2
-16 -5 -7 8.3 8.1
16 -5 7 -1.7 6.4
16 5 8 2.9 7.1
-16 -5 -8 -5.1 7.4
16 -5 8 1.1 5.9
16 5 9 -0.1 8.7
-16 -5 -9 14.7 10
16 -5 9 8 7.2
16 5 10 -9.3 6.3
16 -5 10 0.4 8.3
16 -6 -11 10.7 10.5
16 -6 -10 6.1 6.7
16 -6 -9 8.3 7
16 -6 -8 5.4 7.3
16 -6 -7 -0.6 5.1
-16 6 6 44.8 11.4
16 -6 -6 34.6 9.2
-16 6 5 11.6 7.4
16 -6 -5 7.5 6.1
-16 6 4 44 9.9
16 -6 -4 49.9 9.1
-16 -6 4 51.19 8.6
-16 6 3 14.4 6
16 -6 -3 7.2 5.6
16 -6 -3 -1.1 3.8
-16 -6 3 2.7 2.2
-16 -6 3 0.7 4.9
-16 -6 3 -0.2 2
-16 6 2 95.99 10.1
-16 -6 2 104.79 11.2
16 -6 -2 116.19 12.1
-16 -6 2 92.99 6.8
-16 6 1 4.3 3.7
16 -6 -1 1.8 5.2
-16 -6 1 -1.5 4.4
-16 -6 1 6.5 3.5
-16 6 0 11.1 3.2
-16 -6 0 10.6 4.7
16 -6 0 4.9 5.9
-16 -6 0 -0.8 5.6
16 -6 1 1.9 5.6
-16 -6 -1 5.5 6.8
-16 -6 -1 6.9 4.7
16 6 2 9.3 4.5
16 -6 2 8.6 6.3
-16 -6 -2 19.4 6.2
-16 -6 -2 1.2 7.1
-16 -6 -3 37.2 8.3
-16 -6 -3 29 10
16 -6 3 18.4 8
16 -6 4 10 7.7
-16 -6 -4 17.6 9.6
-16 -6 -4 19.3 6.8
-16 -6 -5 43.6 12.1
16 -6 5 29.8 9.2
-16 -6 -6 13.5 9.7
16 -6 6 25.1 8.7
-16 -6 -7 0.7 8
16 -6 7 -5.1 5.4
16 -6 8 0 6.8
-16 -6 -8 14.6 9.4
16 -6 9 4.2 8.3
-16 -6 -9 -14.6 11.7
16 -7 -10 35.6 12.2
16 -7 -9 -2.1 7
16 -7 -8 16.3 8.3
16 -7 -7 12.5 6.9
-16 7 6 -4.6 5.9
16 -7 -6 -7.3 4.8
-16 -7 6 1 5.8
-16 7 5 7.7 7.1
16 -7 -5 7 5.9
-16 -7 5 8.3 5.5
-16 7 4 2.4 5.6
16 -7 -4 12.6 5.9
-16 -7 4 15.9 2.8
-16 -7 4 12.8 2.9
-16 -7 4 15.4 6.9
-16 -7 3 -1.3 2.5
-16 -7 3 -7.2 4.4
16 -7 -3 -0.2 4.1
-16 -7 3 -3.5 2.3
16 -7 -3 5.3 5.2
-16 7 2 5 4.4
-16 -7 2 -8.3 4.8
-16 -7 2 -3.8 2.6
16 -7 -2 0.5 4.6
16 -7 -2 0 4.9
-16 7 1 110.69 9.2
-16 -7 1 110.39 12.8
16 -7 -1 83.09 12.3
-16 -7 1 119.09 9.5
-16 7 0 53.19 4.7
-16 -7 0 47.9 10.4
-16 -7 0 42.7 7.7
16 -7 0 51.99 10.3
-16 -7 -1 321.47 18.2
16 -7 1 361.46 22.7
-16 -7 -2 40.7 8.2
-16 -7 -2 63.49 16.6
16 -7 2 28.7 9.8
-16 -7 -3 67.09 13.8
-16 -7 -3 61.79 9.9
16 -7 3 65.59 12.2
16 -7 4 40.5 10.3
-16 -7 -4 28.9 10.8
16 -7 5 19.9 8.3
-16 -7 -5 23.1 11.7
-16 -7 -6 36.2 12.1
16 -7 6 19.5 8.6
16 -7 7 15.3 8.1
-16 -7 -7 12.3 9.4
16 -7 8 8.9 8.5
16 -8 -9 13 8.9
16 -8 -8 32.5 10.9
-16 -8 8 30.7 8.3
-16 -8 7 37.6 8.6
16 -8 -7 42.8 11.5
-16 -8 6 49.4 9
-16 8 5 11.1 7.1
-16 -8 5 5.5 7
16 -8 -5 19.9 7.7
-16 -8 5 4.9 2.6
-16 -8 5 12.6 2.9
-16 8 4 29.9 7.9
-16 -8 4 12.3 3.7
16 -8 -4 23.5 7.3
-16 -8 4 17.2 7.7
16 -8 -4 20.5 7.8
-16 -8 4 13.4 3.7
-16 8 3 57.79 9.9
-16 -8 3 36 9.7
-16 -8 3 44.8 6.1
-16 -8 3 54.59 6.9
16 -8 -3 44.7 9.5
16 -8 -3 49.1 9.1
-16 8 2 -3.8 4.2
-16 -8 2 7.7 4
16 -8 -2 -3.2 5.5
16 -8 -2 -2.6 3.3
-16 -8 2 -0.3 6.9
-16 8 1 254.37 13
-16 -8 1 267.07 15
16 -8 -1 271.57 19.4
-16 8 0 73.19 5.1
-16 -8 0 57.89 11.2
16 -8 0 49.3 10.4
-16 -8 0 76.49 9.7
-16 -8 -1 84.99 14.6
-16 -8 -1 109.49 11.7
16 -8 1 120.39 14.1
-16 -8 -2 1.4 5.7
16 -8 2 1.2 6
-16 -8 -2 -0.4 7
-16 -8 -3 42.3 10.1
16 -8 3 22.5 8.2
-16 -8 -3 22.5 9.7
-16 -8 -4 23 11.5
16 -8 4 33.2 10
16 -8 5 3.3 6.7
-16 -8 -5 -9.2 7.1
16 -8 6 -3.8 5.8
-16 -8 -6 -9.7 8.6
16 -8 7 3.4 7.6
-16 -9 8 -3.2 5.9
16 -9 -8 -7 7
-16 -9 7 24 8.2
16 -9 -7 11.9 7.3
-16 -9 6 12.5 3.1
16 -9 -6 7.5 6.7
-16 -9 6 -0.8 6.9
-16 -9 6 5.3 2.6
16 -9 -5 -4.1 5.3
-16 -9 5 1.8 3
-16 -9 5 -2.8 6
-16 -9 5 3.8 3.2
-16 9 4 8.7 7.1
-16 -9 4 8.5 3.9
16 -9 -4 9.4 6
16 -9 -4 13.7 7.6
-16 -9 4 10.2 7.7
-16 9 3 -3.2 5.1
16 -9 -3 5.8 4.9
-16 -9 3 2.7 7.7
-16 -9 3 4.6 4.6
16 -9 -3 6.3 6.4
-16 9 2 6.7 5.1
16 -9 -2 21.6 8.3
-16 -9 2 16.6 5.5
-16 -9 2 16.4 5.6
16 -9 -2 13 5.1
-16 -9 2 -1.2 7.2
16 -9 -1 5.1 6.2
-16 -9 1 0 4.9
-16 -9 1 2.4 6.5
-16 -9 0 9.8 9.4
16 -9 0 4.1 6.5
-16 -9 0 22.4 6.6
-16 -9 -1 39.2 8.9
16 -9 1 26.8 8.9
-16 -9 -1 47.5 11.6
16 -9 2 41.7 11.3
-16 -9 -2 41.9 12.9
-16 -9 -2 67.29 14.1
-16 -9 -3 6.1 9
16 -9 3 9.6 7.8
16 -9 4 13.6 8.3
-16 -9 -4 -2.8 8.7
-16 -9 -5 9.4 10.7
16 -9 5 3.3 7.2
-16 -9 -6 -5.7 8.7
16 -9 6 -2.7 13.4
16 -10 -6 -0.1 5.5
-16 -10 6 13.6 7.8
-16 -10 6 -1.9 3.1
-16 -10 6 -5.4 3
-16 -10 5 3 3.9
16 -10 -5 15.4 7.6
16 -10 -5 4.9 8
-16 10 4 1.1 7.1
-16 -10 4 3.8 5.1
16 -10 -4 -2 5.8
16 -10 -4 16.4 9.3
-16 -10 4 4.3 8.1
-16 10 3 2.9 5.5
16 -10 -3 -5.2 6.5
-16 -10 3 1.1 3.7
-16 -10 3 -1.6 7.6
-16 -10 3 0.9 4.4
16 -10 -3 -1.6 4.6
-16 10 2 1 4.5
-16 -10 2 3.6 4.3
16 -10 -2 -12.3 4.9
-16 -10 2 7.3 5.4
-16 -10 2 3.8 8
16 -10 -2 2 4.3
-16 -10 1 10.7 9
16 -10 -1 6 6.7
-16 -10 1 11.3 5.6
-16 -10 0 -12.7 8
-16 -10 0 -6.7 5.3
16 -10 0 -0.5 6.4
-16 -10 -1 0.3 9.1
16 -10 1 15 8.6
-16 -10 -2 22.7 10.5
16 -10 2 -5.8 6.2
-16 -10 -3 -12.5 7.7
16 -10 4 -2.8 7
-16 11 3 13 7.2
16 -11 -3 19.5 7.4
-16 -11 3 21 6.4
-16 -11 3 12.2 7
16 -11 -3 -3 6.7
-16 -11 3 4.1 10.3
-16 11 2 -8.4 4
-16 -11 2 13.6 6.1
16 -11 -2 3.4 6.2
16 -11 -2 -12.4 5.8
-16 -11 2 -6.2 8.9
-16 -11 2 12.9 6.7
-16 11 1 0.5 2.9
-16 -11 1 8.1 6.1
16 -11 -1 1.1 6.4
-16 -11 1 -1.2 6.4
-16 -11 1 15.3 9.6
-16 -11 0 -8.8 9.3
16 -11 0 10.3 8.4
-16 -11 -1 -19.3 6.6
16 -11 1 1.4 7.6
17 0 -12 5.3 6
17 0 -11 3.4 5
17 0 -10 20.4 6.2
17 0 -9 6.5 4.2
17 0 -8 198.98 12
-17 0 8 203.78 22.4
-17 0 7 1.7 5.6
17 0 -7 -2.6 2.8
17 0 -6 3.1 3.1
-17 0 6 6.3 5.7
-17 0 5 -0.5 4.4
17 0 -4 178.08 8.7
17 0 -3 2.2 2.4
17 0 -2 315.87 13.2
17 0 -1 -2.2 2.5
-17 0 1 0.3 2.4
-17 0 0 26.8 4.6
-17 0 0 37.6 6.3
17 0 0 44 6.4
-17 0 -1 -6.8 2.8
-17 0 -1 1 2.9
17 0 1 0.2 2.8
-17 0 -2 0 3.3
-17 0 -2 3.2 3.5
17 0 2 5.1 3.8
17 0 3 0.8 2.2
-17 0 -3 1.1 3.6
17 0 3 0.5 3.6
-17 0 -3 -4.7 2.8
-17 0 -4 190.48 13.8
17 0 4 193.38 10.4
17 0 4 205.08 14.5
-17 0 -4 199.48 14.6
-17 0 -5 -7.4 4
17 0 5 -1.3 4.7
-17 0 -5 2.6 6.4
17 0 5 1.9 3.2
17 0 6 625.44 23.7
-17 0 -6 588.14 28.5
-17 0 -6 598.84 29.4
17 0 6 627.34 29.5
17 0 7 1.3 3.9
-17 0 -7 -0.7 6.1
17 0 7 1.5 5.3
17 0 8 7.8 6.3
-17 0 -8 -7.6 5.3
17 0 8 -4.4 7.4
-17 0 -9 4.6 7.5
17 0 9 -2.2 4.6
17 0 9 9.3 7.9
-17 0 -10 58.89 12.9
17 0 10 37.8 12
-17 0 -11 -4.5 8
17 0 11 -4.8 6.5
17 1 -12 8.4 6.6
17 1 -11 5.6 4.6
17 -1 -11 6.4 6.3
17 1 -10 126.29 10.3
17 -1 -10 118.79 12.3
17 1 -9 -2.8 2.9
17 -1 -9 -2.3 4.6
17 1 -8 145.29 8.9
-17 1 8 109.69 20
17 -1 -8 135.49 11.3
-17 -1 8 116.59 18.5
-17 1 7 3.1 6.5
17 1 -7 -0.8 2.6
17 -1 -7 9.5 5
-17 -1 7 16.9 7
-17 1 6 44.7 10.3
17 1 -6 30 4
17 -1 -6 31 6.1
-17 -1 6 19.5 7.2
17 1 -5 5.2 2.3
-17 1 5 0.4 3.6
17 1 -5 6.3 2.2
17 1 -4 11.2 2.5
-17 1 4 5.1 5.1
17 -1 -4 6.6 3.4
17 1 -3 51.19 4.3
17 -1 -3 54.79 5.9
17 1 -2 -4 1.7
-17 -1 2 2.8 2.3
17 -1 -2 -2.6 2.5
17 1 -1 12.2 3.2
-17 -1 1 12.3 3.4
17 -1 -1 8.6 3.7
17 1 0 198.28 10.4
-17 1 0 172.88 11
-17 -1 0 192.78 10.7
17 -1 0 215.08 12.3
-17 -1 0 176.18 12.3
-17 1 -1 85.49 6.4
-17 1 -1 101.89 9.2
17 1 1 85.59 7.5
-17 -1 -1 79.19 7.8
17 -1 1 81.19 8.5
-17 -1 -1 84.09 8.1
17 1 2 3.1 3.6
-17 1 -2 6.6 3.2
-17 1 -2 12.1 5
17 -1 2 4.3 4
-17 -1 -2 5.5 3.9
-17 -1 -2 3.7 3.9
-17 1 -3 100.69 10.4
17 1 3 103.39 9.7
17 1 3 103.49 7.7
-17 1 -3 101.59 8.5
-17 -1 -3 101.49 10.3
-17 -1 -3 113.49 10.3
17 -1 3 112.99 10.5
-17 1 -4 27.4 6.2
17 1 4 27.7 5.4
17 1 4 27.6 7
-17 1 -4 35.3 8.6
-17 -1 -4 25.9 6.9
-17 -1 -4 30.3 7
17 -1 4 32.6 7.7
17 -1 4 33.1 7.8
17 1 5 124.49 9.9
-17 1 -5 112.59 12.4
-17 1 -5 107.49 11.5
17 1 5 88.99 12.4
17 -1 5 104.69 7.7
-17 -1 -5 109.99 11.9
-17 -1 -5 105.19 13.6
17 -1 5 125.79 12.5
17 1 6 60.19 8.5
-17 1 -6 49.3 9.6
17 1 6 74.59 12.5
-17 1 -6 45.5 10.3
17 -1 6 59.69 11.1
17 -1 6 53.19 6.9
-17 -1 -6 40.3 10
-17 -1 -6 52.39 10.9
-17 1 -7 30.3 8.6
17 1 7 33.8 9.8
-17 -1 -7 34.4 9.5
17 -1 7 31.8 6.4
17 -1 7 33.8 9.3
-17 1 -8 12.4 6.3
17 1 8 -0.6 4.9
17 1 8 4.6 6
17 -1 8 -4.4 4.8
-17 -1 -8 -6 6.2
17 -1 8 12.3 4.8
17 1 9 0 6
-17 1 -9 7.2 6.4
17 -1 9 3 5.4
17 -1 9 2.2 6.3
-17 1 -10 7.8 8.3
17 1 10 8.6 7.5
17 -1 10 4.9 5.3
-17 -1 -10 -14.2 5.6
17 -1 10 1 6.5
17 2 -12 -5.6 4.9
17 2 -11 -1 4.7
17 -2 -11 5.2 6.9
17 2 -10 2.2 3.8
17 -2 -10 2.2 5.4
17 2 -9 1.5 3.2
17 -2 -9 13.1 6.3
17 2 -8 4 2.7
17 -2 -8 -9.8 3.8
-17 2 7 257.87 20.9
17 2 -7 273.77 9.6
17 -2 -7 259.27 16.2
-17 -2 7 271.57 20.3
-17 2 6 39.4 9.6
-17 2 5 6.1 5.1
-17 2 4 43.4 8.1
17 -2 -4 57.29 7.5
-17 2 3 3.5 3.5
17 -2 -3 7.8 3.8
17 2 -2 -0.6 1.6
-17 2 2 -4.2 4
-17 -2 2 2.1 1.7
17 -2 -2 0.5 3.2
17 2 -1 58.19 5.3
-17 -2 1 62.19 6.6
-17 -2 1 69.29 5.8
-17 2 0 18.9 5.1
17 2 0 27.3 4.8
-17 -2 0 24.4 5.3
17 -2 0 20.4 5.7
17 2 1 60.19 7.6
-17 2 -1 46.6 7.7
-17 2 -1 46 4.6
-17 -2 -1 50.69 7
17 -2 1 48.4 7.6
-17 -2 -1 58.69 8
17 2 2 1.1 2.1
-17 2 -2 -0.2 2.4
17 2 2 -1.5 2.9
-17 2 -2 8.3 4.7
-17 -2 -2 2.1 3.7
-17 -2 -2 2.1 3.7
17 -2 2 1.8 4.4
-17 2 -3 7.8 3.5
17 2 3 2.8 4.7
-17 2 -3 5 5.3
17 2 3 14 4.4
-17 -2 -3 3.9 4.9
-17 -2 -3 9.2 5.4
17 -2 3 5.4 4.7
17 2 4 153.88 10.9
-17 2 -4 150.98 10.3
-17 2 -4 142.69 13.4
17 2 4 166.68 13.5
-17 -2 -4 151.18 14.1
17 -2 4 147.99 13
-17 -2 -4 165.88 13.8
-17 2 -5 134.29 13.1
-17 2 -5 119.69 10.4
17 2 5 118.89 12.8
17 2 5 122.39 10.3
-17 -2 -5 110.69 14.6
17 -2 5 109.99 12.5
-17 -2 -5 101.59 13.3
17 -2 5 117.59 7.1
-17 2 -6 -1.8 3.8
17 2 6 13.6 6.6
17 2 6 5.5 5.2
-17 -2 -6 9.5 6.8
17 -2 6 4.6 2.9
-17 -2 -6 15.9 7.9
17 -2 6 0.2 5.9
17 2 7 43.8 10.6
-17 2 -7 56.19 9.4
17 2 7 81.79 11.4
-17 -2 -7 83.49 14.5
17 -2 7 56.69 11.1
17 -2 7 59.99 6.9
17 2 8 21.5 9.4
-17 2 -8 13.1 6.1
17 -2 8 11.5 7.5
-17 -2 -8 10.5 8.2
17 -2 8 0.3 3.7
-17 2 -9 18.1 7.5
17 2 9 19.9 8.6
17 -2 9 3.1 4.4
-17 -2 -9 24.4 9.7
17 -2 9 5.6 6.8
17 2 10 2.7 7.5
-17 2 -10 -3.5 5.5
17 -2 10 9.2 5.2
-17 -2 -10 0.9 7.5
17 -2 10 1.3 6.8
17 3 -12 -1.7 4.7
17 3 -11 -8.8 3.1
17 3 -10 21.8 4.9
17 -3 -10 9 9.2
17 3 -9 34 4.7
17 -3 -9 44 9.6
17 3 -8 37 3.4
17 -3 -8 38.1 9.1
-17 3 7 -12.2 5.4
17 -3 -7 0.8 5.1
-17 -3 7 3.3 7.2
-17 3 6 164.48 16.4
-17 3 5 37.3 8.7
-17 3 4 36.1 7.8
-17 3 3 36.3 7.8
17 -3 -3 44.8 7.2
-17 -3 2 5.2 3.3
17 -3 -2 4.8 3.9
-17 -3 2 -1.6 1.6
-17 3 1 -0.9 2.9
17 3 -1 2.1 2.3
-17 -3 1 5.1 2.6
-17 -3 1 -1.9 3
17 -3 -1 -1.4 3.1
17 3 0 10.7 3.8
-17 3 0 11.7 5.1
-17 3 0 7.4 3.5
-17 -3 0 2 3.7
-17 -3 0 11.8 3.7
17 -3 0 10.9 5
-17 3 -1 18.2 3
-17 3 -1 12.5 5.2
17 3 1 19.6 5.1
-17 -3 -1 13.1 4.4
-17 -3 -1 23.7 6.6
17 -3 1 19.6 6.1
17 3 2 3.9 2.8
-17 3 -2 1.1 4.3
17 3 2 3.6 3.5
-17 3 -2 5.8 2.4
-17 -3 -2 -3.4 3.6
-17 -3 -2 1.5 4.6
17 -3 2 0.1 3.8
17 3 3 21.2 4.8
-17 3 -3 22.8 3.8
17 3 3 21.4 6.3
-17 3 -3 24.9 7.4
-17 -3 -3 23.2 7.3
17 -3 3 22.8 6.9
-17 -3 -3 35.6 7.3
17 3 4 23.8 5.7
-17 3 -4 23.1 7.9
17 3 4 26.1 7.5
-17 3 -4 22.7 4.2
-17 -3 -4 11.3 7
-17 -3 -4 13.2 7.1
17 -3 4 22.7 7
17 3 5 40.1 7.4
-17 3 -5 40.9 5.6
-17 3 -5 24.8 8.3
17 3 5 35.1 8.9
17 -3 5 22.4 7.7
-17 -3 -5 42.7 10.8
-17 -3 -5 56.09 10.2
-17 3 -6 62.99 7.2
17 3 6 80.19 10.7
17 3 6 65.99 11.5
-17 -3 -6 65.99 13.6
17 -3 6 69.59 5.2
-17 3 -7 37.5 6.7
17 3 7 29.5 9.3
17 -3 7 29.2 9.1
-17 -3 -7 42.9 11.9
17 -3 7 40.5 5.5
17 3 8 38.9 11.5
17 -3 8 44.8 5.8
17 -3 8 53.49 11.5
-17 -3 -8 47.5 12.1
-17 3 -9 10.1 4.9
17 3 9 -5.8 7
17 -3 9 -9.5 5.5
-17 -3 -9 13.2 9.2
17 -3 9 0.8 3.2
17 3 10 -3.8 7.4
-17 -3 -10 4.4 8.8
17 -3 10 0.4 6.6
17 -3 10 -6.4 5.5
17 4 -12 2.2 4.9
17 4 -11 3.8 2.9
17 4 -10 -2.1 1.6
17 -4 -8 23.5 8.2
-17 4 7 12.8 7.6
-17 4 5 16.6 7
-17 4 4 -0.5 4.8
-17 4 3 -0.5 3.7
17 -4 -3 0.5 3.5
-17 -4 2 -1.6 1.6
-17 -4 2 3.7 3.7
17 -4 -2 3.7 3.5
-17 4 1 3.5 3.8
-17 -4 1 3.5 4.2
-17 -4 1 2.5 2.6
17 -4 -1 1.6 3.8
-17 4 0 205.58 10.8
17 4 0 206.28 11.7
-17 -4 0 191.48 10.7
-17 -4 0 243.48 14.9
17 -4 0 199.68 14
-17 4 -1 16 5.8
-17 4 -1 13.9 3
17 4 1 12.1 4.8
-17 4 -1 11.5 2.2
-17 -4 -1 14.1 6.4
17 -4 1 10.7 5.4
-17 -4 -1 23.4 5.4
17 4 2 2 4
-17 4 -2 -2.9 4.4
17 4 2 1.8 3.5
-17 -4 -2 2.2 3.8
17 -4 2 1.3 4.2
-17 -4 -2 10.9 6.6
-17 4 -3 46.2 8.7
17 4 3 50.29 9.2
-17 -4 -3 42.4 9.5
-17 -4 -3 59.59 9.4
17 -4 3 46.7 9.4
-17 4 -4 16.2 7
17 4 4 15 5.2
17 4 4 8.8 6.1
17 -4 4 21.2 7.4
-17 -4 -4 27.1 9
-17 -4 -4 16.3 6.7
17 4 5 6.1 6.2
17 4 5 3.3 4.5
-17 -4 -5 3 5.6
-17 -4 -5 4 6.7
17 -4 5 -0.4 5.2
17 4 6 -1.7 6.4
-17 -4 -6 12.7 8.9
17 -4 6 2.9 6
17 4 7 31.2 10
17 -4 7 39.1 10.4
-17 -4 -7 36.4 12.1
17 4 8 82.29 14.9
17 -4 8 59.79 11.7
-17 -4 -8 77.69 16.7
17 -4 8 68.89 5.6
17 4 9 8.9 7.7
-17 -4 -9 6 9
17 -4 9 7.1 7.2
17 4 10 5.4 7.8
17 -4 10 5.6 9
-17 -4 -10 -9.1 7.7
17 -4 10 6.1 4.2
17 -5 -11 10.4 7.7
17 -5 -10 11.5 7.9
17 -5 -9 -2.9 5.1
17 -5 -8 15.1 8.5
17 -5 -7 -6.1 5.7
-17 5 6 43.7 10.6
17 -5 -6 40 9.5
-17 5 5 26 8.9
17 -5 -5 16.7 6.2
-17 5 4 5.1 5
-17 5 3 4.8 5
-17 -5 3 10.4 5
17 -5 -3 3.9 4.4
-17 5 2 -0.9 4.3
-17 -5 2 0.4 2.1
17 -5 -2 1.2 3.7
-17 -5 2 1.8 3.8
-17 5 1 57.69 7.8
-17 -5 1 58.39 9.3
-17 -5 1 68.09 5.9
17 -5 -1 53.29 9.3
-17 5 0 310.87 13
-17 -5 0 299.57 18.2
17 -5 0 300.37 18.4
17 -5 1 10.4 5.7
-17 -5 -1 3.3 5.6
-17 -5 -1 2.8 3.9
17 5 2 214.08 13.3
-17 5 -2 211.98 16.4
17 5 2 210.48 14.5
-17 -5 -2 223.38 14
-17 -5 -2 192.98 17.4
17 -5 2 169.08 15
-17 5 -3 29.6 8.2
17 5 3 31.7 8.5
17 5 3 22 5.9
-17 -5 -3 21.3 8.9
-17 -5 -3 25.3 7.2
17 -5 3 26.3 7.8
17 5 4 24.7 8.2
17 -5 4 29.3 8.6
-17 -5 -4 22.1 9.1
-17 -5 -4 25.2 7.7
17 5 5 35.7 9.6
-17 -5 -5 45.8 13.6
-17 -5 -5 39.2 9.4
17 -5 5 40.3 9.3
-17 -5 -6 -12.2 6.5
17 -5 6 2.2 6.1
17 5 7 -6.5 7.4
17 -5 7 7 6.5
-17 -5 -7 10.5 9
17 5 8 1.7 6.8
-17 -5 -8 8.2 9.4
17 -5 8 -1.8 6.5
17 5 9 14.9 8.7
-17 -5 -9 -12.8 8.1
17 -5 9 10.8 8.5
17 -6 -11 -3.4 7.9
17 -6 -10 -6.5 6.9
17 -6 -9 2.6 6.5
17 -6 -7 -3.3 5.1
-17 6 6 1.4 6.6
17 -6 -6 3.4 6.3
-17 6 5 91.09 13.6
-17 -6 5 59.49 9.1
17 -6 -5 79.79 12.2
-17 6 4 41.1 9
17 -6 -4 62.59 10.7
-17 -6 4 43.5 8.3
17 -6 -4 50.49 9.3
-17 6 3 89.89 12.1
17 -6 -3 105.69 11.7
-17 -6 3 95.39 5
-17 -6 3 81.89 4.7
-17 -6 3 73.59 10.4
-17 6 2 5.3 4.7
17 -6 -2 5.1 5.6
-17 -6 2 15.2 7
-17 -6 2 8.7 3.1
-17 6 1 231.98 12.8
-17 -6 1 231.38 11.5
17 -6 -1 213.78 16.3
-17 -6 1 234.58 16.6
-17 6 0 109.59 6.8
-17 -6 0 115.59 12.9
17 -6 0 117.29 12.6
-17 -6 0 121.89 9.7
-17 -6 -1 28.8 6.5
-17 -6 -1 34.8 9.6
17 -6 1 34.2 8.4
-17 -6 -2 116.79 10.9
17 -6 2 71.99 12.2
-17 -6 -2 93.09 14.2
17 -6 3 -0.2 6
-17 -6 -3 1.6 4.6
-17 -6 -3 4.6 8.7
-17 -6 -4 -9.8 5.3
17 -6 4 0.6 5.6
-17 -6 -4 3.1 5.7
-17 -6 -5 91.39 17
17 -6 5 58.89 11.4
17 -6 6 13.6 7.4
-17 -6 -6 -14.9 5.6
-17 -6 -7 -6.4 8.6
17 -6 7 -1.2 5.8
-17 -6 -8 1.4 7.9
17 -6 8 7.1 7.1
17 -6 9 4.6 8
-17 -6 -9 -9.3 8.5
17 -7 -10 5.9 6.6
17 -7 -9 11 7.3
17 -7 -8 22.7 8.8
17 -7 -7 14.2 7.7
-17 7 6 0.5 7.7
-17 -7 6 -6.7 4.2
17 -7 -6 -4.9 5
-17 7 5 2.6 5.4
-17 -7 5 -1.8 6
17 -7 -5 -4 4.1
-17 7 4 6.1 6.1
17 -7 -4 6.1 5.8
-17 -7 4 -3 5
17 -7 -4 -2 3.8
-17 -7 4 -0.8 1.5
-17 -7 4 -3.8 1.5
-17 7 3 0 4.3
-17 -7 3 3.2 2.6
-17 -7 3 -2.7 2.3
-17 -7 3 0.6 4.8
17 -7 -3 0.8 3.9
-17 7 2 -2.4 4.5
-17 -7 2 12.6 6.6
-17 -7 2 1.5 3
17 -7 -2 0.5 5.4
-17 7 1 63.69 7.4
-17 -7 1 55.09 10.8
17 -7 -1 61.09 11.2
-17 -7 1 49.7 7.2
-17 7 0 231.98 9.2
-17 -7 0 235.08 14
17 -7 0 260.47 22.2
-17 -7 0 252.07 18.8
17 -7 1 25.6 11
-17 -7 -1 25.3 6.8
-17 -7 -2 27 9.6
-17 -7 -2 24.3 7.3
17 -7 2 21.3 8.3
-17 -7 -3 -5.8 6.7
-17 -7 -3 1.6 5.5
17 -7 3 -2.4 5.4
17 -7 4 -2.6 4.6
-17 -7 -4 -1.7 7.9
-17 -7 -5 13 9.4
17 -7 5 10.4 7.2
17 -7 6 7.1 6.9
-17 -7 -6 -0.6 7.7
17 -7 7 1.4 6.9
-17 -7 -7 -5.1 8.3
17 -7 8 14 13.7
-17 -7 -8 1.4 9
17 -8 -9 4.6 7.8
17 -8 -8 21.5 9.7
-17 -8 8 12.1 7.5
17 -8 -7 -5.8 5.5
-17 -8 7 -3 5.2
-17 -8 6 23.6 6.9
-17 8 5 -1 5.7
17 -8 -5 -2.1 5.3
-17 -8 5 4.2 5.7
-17 8 4 23 7.5
17 -8 -4 18 6.7
17 -8 -4 11.1 7.2
-17 -8 4 -6.7 6.5
-17 -8 4 5 2.9
-17 -8 4 3.7 2.9
-17 8 3 5 5.8
17 -8 -3 -1.6 5
-17 -8 3 4.3 3.4
-17 -8 3 7.9 6.8
-17 -8 3 4.6 3.4
17 -8 -3 3.2 4.4
-17 8 2 76.19 9.9
17 -8 -2 59.89 11.2
-17 -8 2 55.99 7.5
-17 -8 2 59.49 11.4
-17 8 1 37.7 5.8
-17 -8 1 29.2 9.5
17 -8 -1 29.6 8.6
-17 -8 1 41.3 7.3
-17 8 0 122.39 5.8
-17 -8 0 108.59 10.6
-17 -8 0 79.99 14.2
17 -8 0 100.69 14.3
-17 -8 -1 -2.1 4.8
-17 -8 -1 -5.5 7
17 -8 1 -4 5.7
-17 -8 -2 4.8 8.7
-17 -8 -2 20.9 6.9
17 -8 2 14.8 7.8
17 -8 3 2.5 6.8
-17 -8 -3 5.1 8.1
17 -8 4 15.3 8
-17 -8 -4 2.9 8.9
17 -8 5 -1.1 6.3
-17 -8 -5 4.2 9
17 -8 6 22.1 9
-17 -8 -6 9.7 9.7
-17 -8 -7 -0.6 9.9
-17 -9 8 4.4 6.8
17 -9 -8 21.5 9.8
17 -9 -7 6.3 7.5
-17 -9 7 -0.8 6.3
-17 -9 6 5.3 6.9
17 -9 -6 5.7 6.9
-17 -9 5 8.7 2.8
17 -9 -5 20 7.3
-17 -9 5 15.9 7.6
-17 -9 5 2.2 2.9
-17 9 4 14.8 7
17 -9 -4 5.8 6.5
-17 -9 4 9.5 3.7
17 -9 -4 12.7 8.1
-17 -9 4 15.4 3.9
-17 -9 4 16.6 9.1
-17 9 3 12.8 6
17 -9 -3 -0.2 6.2
-17 -9 3 -1.9 3.5
-17 -9 3 0.6 3
-17 -9 3 0.3 7.4
17 -9 -3 1.3 4.3
-17 9 2 11.9 5.3
-17 -9 2 21.3 9.3
-17 -9 2 11.3 5.4
17 -9 -2 11.9 7.7
-17 -9 2 21.8 5.7
17 -9 -1 39.1 10.3
-17 -9 1 35.6 7.1
-17 -9 1 20.4 9.7
17 -9 0 34.1 9.4
-17 -9 0 16.8 9.5
-17 -9 0 36.6 8.6
-17 -9 -1 32.1 8.6
17 -9 1 10.9 7.4
-17 -9 -1 25 11
-17 -9 -2 -6.8 6.2
17 -9 2 3.6 6.4
17 -9 3 9.9 7.7
-17 -9 -3 6.8 10.8
-17 -9 -4 -10.5 8.1
17 -9 4 -0.5 6.9
17 -9 5 14.6 8.8
-17 -9 -5 -5.8 9.1
17 -9 6 16.3 8.7
-17 -9 -6 6.2 10.2
-17 -10 6 -1.4 2.5
17 -10 -6 -0.9 6.5
-17 -10 6 -11.4 6.1
-17 -10 6 1.7 2.5
-17 -10 5 6 7
-17 -10 5 4 3.4
17 -10 -5 9.8 7.3
-17 -10 5 -5.5 3.3
-17 10 4 -6.8 6.6
-17 -10 4 -0.9 3.8
-17 -10 4 -12.6 6.8
17 -10 -4 -4.7 5.6
17 -10 -4 9.8 7.5
-17 10 3 -0.7 5.6
17 -10 -3 12.8 7.5
-17 -10 3 4 3.7
-17 -10 3 4.2 5.4
-17 -10 3 -3.1 6.3
17 -10 -3 8.2 5.1
-17 10 2 7.6 4.6
17 -10 -2 12.8 5.3
17 -10 -2 -1.9 4.9
-17 -10 2 5.3 8.9
-17 -10 2 10 5.2
-17 -10 2 7.4 4.8
-17 -10 1 5.7 5.4
-17 -10 1 0.9 9.2
17 -10 -1 -6.1 5.6
17 -10 0 -16.3 5.2
-17 -10 0 1.2 9.4
-17 -10 0 4.9 5.6
17 -10 1 10 7.2
-17 -10 -1 10.2 10.4
-17 -10 -2 -2.6 7.9
17 -10 2 -10.6 5.8
-17 -10 -3 3.8 9.2
17 -10 3 -5.1 6.7
17 -10 4 0.1 7.3
-17 -10 -4 12.5 10.7
-17 11 3 15.8 6.3
17 -11 -3 23.5 8.3
-17 -11 3 19.3 11.2
-17 11 2 9.8 4.8
-17 -11 2 2.5 9
-17 -11 2 -2.5 4.8
17 -11 -2 -3.8 6.5
-17 11 1 7.6 4.3
-17 -11 1 10.3 9.4
-17 -11 1 -16.1 5.1
-17 -11 1 -5.9 5.1
17 -11 -1 -4.2 6.1
-17 -11 0 5 8.9
17 -11 0 -8.3 6.2
17 -11 1 -2 6.1
-17 -11 -1 22.3 13.5
18 0 -12 26.2 8
18 0 -11 4.7 5.5
18 0 -10 13.7 5
18 0 -9 -1.7 3.6
18 0 -8 3.6 3.6
-18 0 7 2.8 6.6
18 0 -7 0.8 3.1
18 0 -6 103.99 8.1
-18 0 6 94.29 13.6
18 0 -5 3.9 2.7
-18 0 5 0.8 4.4
18 0 -4 266.67 11.4
18 0 -3 0.5 2.3
18 0 -2 1.3 2.6
-18 0 1 7.4 3.4
18 0 -1 1.6 2.9
-18 0 0 2.9 3.6
18 0 0 3.4 3.4
-18 0 0 5.7 3
18 0 1 -0.5 3.2
-18 0 -1 1.7 3.7
-18 0 -1 1 2.8
-18 0 -2 92.39 9.4
18 0 2 112.59 10.2
-18 0 -2 112.79 9
-18 0 -3 -0.8 3.4
18 0 3 -2.7 3.4
-18 0 -4 465.65 21.6
-18 0 -4 431.36 21.9
18 0 4 450.95 16.9
18 0 4 423.46 21.8
-18 0 -5 7 6.4
-18 0 -5 2.1 5.1
18 0 5 -2.7 2.9
18 0 5 -2.2 4.8
18 0 6 43.5 7
-18 0 -6 65.29 11.6
18 0 6 61.69 11.1
18 0 7 -1.8 3.9
18 0 7 -7.7 4.6
-18 0 -7 -7 5.3
18 0 8 42.7 10.5
18 0 8 30.9 6.8
-18 0 -8 34.5 10.2
-18 0 -9 1 7
18 0 9 5.5 4.7
18 0 9 -6.8 5.2
18 0 10 5 6.9
-18 0 -10 11.4 8.9
18 1 -12 29.4 8.2
18 1 -11 9.9 5.1
18 -1 -11 20.5 6.8
18 1 -10 -4.1 3.4
18 -1 -10 0.3 5.1
18 1 -9 62.19 7
18 -1 -9 60.89 9.3
18 1 -8 10 3.5
18 -1 -8 7.3 4.5
-18 1 7 44 11
18 1 -7 58.69 5.6
18 -1 -7 67.89 8.9
-18 -1 7 63.19 12
18 1 -6 146.59 7.6
-18 1 6 159.88 16.2
18 -1 -6 139.89 10.5
18 1 -5 9 2.4
-18 1 5 4.2 4.7
18 1 -5 1.9 2.2
18 1 -4 43.1 4
-18 1 4 27.8 7.5
18 -1 -4 48.5 6.3
18 1 -3 24.3 3.6
18 -1 -3 26 5
18 1 -2 244.38 10.4
-18 -1 2 254.07 10.6
18 -1 -2 260.47 12.7
18 1 -1 435.36 15.9
-18 1 1 430.36 17.8
-18 -1 1 412.26 15.8
18 -1 -1 448.26 18.2
18 1 0 6.8 3.3
-18 1 0 2.2 2.2
-18 1 0 5.7 3.7
-18 -1 0 4.1 3.6
-18 -1 0 4.5 3.2
18 1 1 46.3 6.7
-18 1 -1 64.39 6.1
-18 1 -1 51.29 8.1
-18 -1 -1 53.19 7.3
-18 -1 -1 61.09 6.9
18 -1 1 51.49 7.5
-18 1 -2 48.6 8
-18 1 -2 58.49 6.2
18 1 2 51.99 8.2
18 -1 2 45.5 7.6
-18 -1 -2 48.7 7.4
-18 -1 -2 52.19 7.6
-18 1 -3 73.29 7.7
18 1 3 64.69 9.3
-18 1 -3 58.59 9.3
18 1 3 65.29 6.5
-18 -1 -3 86.09 9.9
-18 -1 -3 71.09 9.9
18 -1 3 74.59 10
-18 1 -4 284.77 18.2
18 1 4 287.77 17.4
18 1 4 250.67 12.9
-18 1 -4 284.67 15.7
-18 -1 -4 267.37 17.2
-18 -1 -4 242.48 16.3
18 -1 4 293.67 11.5
18 -1 4 269.07 17.3
-18 1 -5 409.06 30.4
-18 1 -5 409.26 23.6
18 1 5 413.46 23.2
18 1 5 439.76 19
-18 -1 -5 460.85 23.5
-18 -1 -5 396.36 23.3
18 -1 5 472.95 23.9
18 -1 5 428.86 16.3
-18 1 -6 300.67 18.5
18 1 6 243.98 18.8
18 1 6 274.47 15.4
18 -1 6 253.17 13
18 -1 6 280.87 19.8
-18 -1 -6 300.67 20.1
-18 1 -7 132.49 13.8
18 1 7 162.98 16.5
18 1 7 116.39 11.4
18 -1 7 116.89 9.5
-18 -1 -7 141.29 15.8
18 -1 7 132.79 14.7
-18 1 -8 8.9 6.7
18 1 8 7.9 6.9
18 1 8 9.5 5.8
18 -1 8 -7.2 4.9
-18 -1 -8 12.1 7.1
18 -1 8 11.2 4.8
-18 1 -9 -9.4 5.7
18 1 9 1.4 6.2
18 -1 9 -2.1 6.2
18 -1 9 1.9 4.8
-18 -1 -9 -12.7 6.2
18 1 10 -0.6 6.5
-18 1 -10 1.2 7.2
18 -1 10 5.1 7.6
-18 -1 -10 -8.7 7.4
18 -1 10 14.4 5.7
18 2 -12 -0.8 4.6
18 2 -11 4.4 4
18 -2 -11 -8.8 6.2
18 -2 -10 0.4 5.6
18 2 -9 -0.4 2.9
18 -2 -9 -11.2 4.4
18 2 -8 15.2 3.4
18 -2 -8 13.1 5.9
-18 2 7 462.45 28.9
18 2 -7 472.75 13.5
18 -2 -7 462.55 22.2
-18 -2 7 455.15 26.9
-18 2 6 36.4 9.8
-18 2 5 8.7 5.6
-18 2 4 5.3 4.4
18 -2 -4 7.1 4.8
-18 2 3 60.49 9
18 2 -3 61.09 3.2
-18 2 2 175.18 12.4
18 2 -2 178.08 7.7
-18 -2 2 173.68 7.6
18 2 -1 22 3.9
-18 -2 1 20.1 4.2
-18 -2 1 21.4 4.8
18 -2 -1 24.7 6
18 2 0 473.65 17.6
-18 2 0 429.76 19.4
-18 -2 0 473.15 17.6
-18 -2 0 439.56 18.5
18 -2 0 456.35 20.3
18 2 1 39.1 6.6
-18 2 -1 27.9 4.2
18 -2 1 33.9 6.7
-18 -2 -1 29.1 5.8
-18 -2 -1 18.7 5.6
18 2 2 -0.5 3.2
-18 2 -2 2.7 4.4
-18 2 -2 4.6 3
-18 -2 -2 1.6 3.9
-18 -2 -2 2.1 3.5
18 -2 2 -2 3.4
-18 2 -3 -3.3 2.7
18 2 3 3.5 4
18 2 3 3.5 3.5
-18 2 -3 0.7 5.1
-18 -2 -3 5.4 5.7
18 -2 3 -5.9 4
-18 -2 -3 7.7 5.1
-18 2 -4 166.68 14.6
18 2 4 162.68 13.6
-18 2 -4 163.18 11
18 2 4 145.79 10.9
-18 -2 -4 174.48 14.7
-18 -2 -4 155.88 13.6
18 -2 4 142.99 13.3
18 2 5 104.39 10
-18 2 -5 84.69 12.4
-18 2 -5 122.69 10.5
18 2 5 107.39 12.4
18 -2 5 117.59 6.9
-18 -2 -5 92.09 12.4
18 -2 5 109.79 12.6
-18 -2 -5 121.09 14.9
-18 2 -6 74.79 10
18 2 6 55.09 8.7
18 2 6 87.49 13.3
18 -2 6 59.19 12.7
18 -2 6 68.59 6.1
-18 -2 -6 76.69 13.2
-18 2 -7 94.69 10.9
18 2 7 78.09 13
18 2 7 144.39 12.5
18 -2 7 115.69 8.3
-18 -2 -7 91.79 15.2
18 -2 7 90.09 13.8
-18 2 -8 0.4 5.4
18 2 8 7.6 7.1
18 -2 8 12.6 7.6
18 -2 8 1.6 3.4
-18 2 -9 18.9 7.2
18 2 9 5.5 6.7
18 -2 9 -1 5.9
-18 -2 -9 -1.9 8
18 -2 9 3.6 4.9
-18 2 -10 -3.4 5.9
18 2 10 -0.3 7.8
18 -2 10 8.2 7.8
18 -2 10 -0.1 4.8
-18 -2 -10 -1.6 7.6
18 3 -12 9 4.7
18 3 -10 4.3 3
18 3 -9 17.8 3.3
18 -3 -9 21.8 7.4
18 -3 -8 5.3 5.6
-18 3 7 80.39 14.4
18 -3 -7 71.89 11
-18 -3 7 55.09 11
-18 3 6 43.4 11.6
-18 3 5 0.9 4.8
-18 3 4 10.4 6
18 -3 -4 21.2 5.7
-18 3 3 8.6 5.1
18 -3 -3 3.2 3.8
-18 3 2 21.8 5.6
18 3 -2 15.4 2.9
18 -3 -2 29.3 6.2
-18 -3 2 19.2 4.8
-18 -3 2 17.7 2.9
18 3 -1 -1.4 2.3
-18 3 1 -5.3 3
-18 -3 1 3.5 2.7
18 -3 -1 6.3 4
-18 -3 1 5.9 3.7
-18 3 0 12.1 3.8
-18 3 0 3.3 4.2
18 3 0 13 4.1
-18 -3 0 21.5 4.4
-18 -3 0 12.4 4.9
18 -3 0 8.1 5.2
-18 3 -1 298.57 10.9
18 3 1 315.27 15.7
-18 3 -1 309.27 17.3
-18 -3 -1 327.07 17.3
-18 -3 -1 320.37 15.1
18 -3 1 308.67 17.6
-18 3 -2 153.18 12.7
18 3 2 188.48 12.8
-18 3 -2 167.08 8.1
18 3 2 154.08 10
-18 -3 -2 169.48 11.9
-18 -3 -2 155.78 13.3
18 -3 2 166.68 13.3
18 3 3 1.9 3.7
-18 3 -3 3.4 5.8
-18 3 -3 0.9 2.8
18 3 3 -0.1 3.9
18 -3 3 5.3 5.5
-18 -3 -3 -0.8 5.1
-18 -3 -3 5.3 4.8
-18 3 -4 74.19 6.5
18 3 4 86.69 11.8
18 3 4 75.59 11
-18 3 -4 70.19 11.1
-18 -3 -4 85.69 11.8
-18 -3 -4 68.39 12.1
18 -3 4 76.79 11.8
18 3 5 32.6 7.2
18 3 5 28.6 8.6
-18 3 -5 36.7 5.6
-18 -3 -5 49.7 9.5
18 -3 5 29.5 8.4
-18 -3 -5 32.7 10.2
18 3 6 33.8 9.4
18 3 6 49.8 8.8
-18 3 -6 43.9 6.6
18 -3 6 49.5 10.5
-18 -3 -6 42.1 10.2
-18 3 -7 11.3 4.5
18 3 7 2.3 5.4
18 -3 7 1.6 5.7
18 -3 7 4.7 2.9
18 3 8 4.2 7
18 -3 8 -1.4 2.9
-18 -3 -8 7.1 8.2
18 -3 8 0.1 5.9
18 3 9 4.8 7.8
-18 3 -9 11.7 5.4
18 -3 9 3.9 6.9
18 -3 9 3.8 3.4
-18 -3 -9 16.9 9
18 3 10 5.3 8.2
-18 3 -10 1.7 4.1
18 -3 10 -2.2 3.9
18 -3 10 3.8 7.7
-18 -3 -10 8.5 8
18 4 -11 2.4 2.4
18 -4 -8 -0.9 4.9
-18 4 7 4.2 6.4
-18 4 6 137.19 15.2
-18 4 5 -1.2 4.9
-18 4 4 5.5 5.2
18 -4 -4 -5.3 3.6
-18 4 3 2.4 4.5
18 -4 -3 0.7 4.4
-18 4 2 -0.4 3.7
18 -4 -2 0.7 3.6
-18 -4 2 -1.9 1.8
-18 -4 2 -2.4 3.5
-18 4 1 14.5 4.8
-18 -4 1 8.8 5.1
-18 -4 1 5.3 3.1
18 -4 -1 9.8 5.1
-18 4 0 1.9 2.9
18 4 0 0.7 3.1
-18 -4 0 2.5 4.5
18 -4 0 5.5 5.1
-18 -4 0 4.9 3
-18 4 -1 79.99 4.5
-18 4 -1 70.19 5.7
-18 4 -1 50.79 9.4
-18 -4 -1 95.19 10.8
18 -4 1 75.09 11.1
-18 -4 -1 72.39 8.1
18 4 2 70.09 9.8
18 4 2 53.99 8.2
-18 -4 -2 56.29 10.2
-18 -4 -2 70.19 9.5
18 -4 2 57.79 9.9
18 4 3 94.19 8.8
-18 4 -3 67.69 10.6
18 4 3 100.89 11.1
-18 -4 -3 85.79 10.9
-18 -4 -3 91.69 13.3
18 -4 3 73.79 11.5
-18 4 -4 37.5 9.2
18 4 4 26.3 8.5
18 4 4 23.6 5.9
-18 -4 -4 62.19 11.8
18 -4 4 34.7 8.7
18 4 5 5.7 6.4
-18 -4 -5 -7.9 5
-18 -4 -5 0.3 6.5
18 4 6 89.89 14.2
18 -4 6 68.69 12.2
-18 -4 -6 85.99 14.6
18 4 7 -6.9 5.5
18 -4 7 4 6.9
-18 -4 -7 4.4 7.7
18 4 8 6.6 6.7
-18 -4 -8 15.3 9.9
18 -4 8 0.2 6.3
18 -4 9 -18.5 6
-18 -4 -9 11.7 9.5
-18 -4 -10 8.3 7.7
-18 5 6 -0.6 6.6
-18 5 5 46.5 10.1
-18 5 4 12 6.5
18 -5 -4 6.6 5.1
-18 5 3 2.8 5.1
18 -5 -3 4.6 4.6
-18 -5 3 8.7 5.2
-18 5 2 110.19 10.5
-18 -5 2 115.59 6.3
18 -5 -2 106.29 11.5
-18 -5 2 126.29 11.1
-18 5 1 291.47 14.9
-18 -5 1 280.07 17
-18 -5 1 275.87 12.1
18 -5 -1 280.87 17.6
-18 5 0 84.39 7.1
-18 -5 0 84.49 12
-18 -5 0 89.29 8
18 -5 0 97.19 11.3
-18 -5 -1 126.39 9.9
18 -5 1 124.29 12.8
-18 -5 -1 94.09 12.9
-18 5 -2 28.5 8.7
18 5 2 30.3 5.8
18 5 2 15.6 5.6
18 -5 2 34.5 8.9
-18 -5 -2 17 7.8
-18 -5 -2 27.8 6.9
18 5 3 160.58 14.6
18 5 3 177.98 12.9
-18 5 -3 154.28 15
-18 -5 -3 138.39 12.9
18 -5 3 146.09 14.1
-18 -5 -3 144.79 17
18 5 4 23.7 8.7
-18 -5 -4 17.8 7.4
18 5 5 34.1 9.4
-18 -5 -5 15.2 9
18 -5 5 29.1 9
18 5 6 -2 6.1
18 -5 6 -3.3 5.1
-18 -5 -6 -10.1 5.8
18 5 7 11.6 8.3
-18 -5 -7 12.8 9.4
18 -5 7 0.3 5.9
18 5 8 3.4 8
-18 -5 -8 14.6 8.7
18 -5 8 -2 6.6
18 5 9 7.3 10.7
-18 -5 -9 4.2 8.7
18 -5 9 7.5 12.9
18 -6 -10 17.3 8.9
18 -6 -9 3.3 6.9
18 -6 -8 7.4 7.6
-18 6 6 -7.3 5.4
18 -6 -6 2.1 6.1
-18 6 5 65.19 11.7
18 -6 -5 67.29 11.3
-18 -6 5 53.69 8.7
-18 6 4 32.4 8.8
-18 -6 4 36.3 7.9
18 -6 -4 40.4 9.4
-18 6 3 68.19 10.4
-18 -6 3 40.7 3.3
18 -6 -3 44.9 9.2
-18 -6 3 50.79 3.4
-18 -6 3 46.4 8.9
-18 6 2 62.29 9.1
-18 -6 2 87.49 11.7
18 -6 -2 50.09 9.3
-18 -6 2 59.19 5.5
-18 6 1 60.39 7.9
-18 -6 1 63.79 10.6
18 -6 -1 50.69 9.6
-18 -6 1 54.99 6.6
-18 6 0 278.27 11.2
-18 -6 0 287.47 14.1
-18 -6 0 254.97 18.3
18 -6 0 251.67 18.4
-18 -6 -1 -3.9 3.5
18 -6 1 -3 5.5
-18 -6 -1 1 6.9
18 -6 2 35.4 9.1
-18 -6 -2 44.7 11.4
-18 -6 -2 54.49 8.8
-18 -6 -3 12.3 8.2
18 -6 3 12.2 7.1
-18 -6 -4 -11.5 4.8
18 -6 4 -0.3 6.1
-18 -6 -4 3 8
-18 -6 -5 7 8.3
18 -6 5 0 6.1
18 -6 6 1.8 6
-18 -6 -6 11.9 9.1
18 -6 7 0.3 6
-18 -6 -7 14.1 9.7
18 -6 8 46.5 11.7
-18 -6 -8 74.29 16.9
18 -7 -10 1.6 6.7
18 -7 -9 1.7 6.7
18 -7 -8 10 8.3
18 -7 -7 -3.2 5.9
18 -7 -6 -5.5 5.1
-18 -7 6 7 5.8
-18 7 5 17.8 7
-18 -7 5 0.3 5
18 -7 -5 3.2 5.8
-18 7 4 33.5 8.3
18 -7 -4 31.9 9.3
-18 -7 4 23.6 7.3
18 -7 -4 42.1 8.4
-18 7 3 6.9 5.3
18 -7 -3 10.7 6.6
-18 -7 3 7.1 2.5
-18 -7 3 7.9 2.7
-18 7 2 -1.2 3.9
-18 -7 2 -4.5 6.3
-18 -7 2 2.4 3.2
-18 7 1 22.5 5.2
-18 -7 1 13.8 4.8
-18 7 0 -0.6 2.1
-18 -7 0 2.8 7.8
18 -7 0 -2.4 6
-18 -7 0 8.3 4.4
-18 -7 -1 5.4 7.5
-18 -7 -1 3.2 5.1
18 -7 1 3.5 6.3
18 -7 2 1.5 6.2
-18 -7 -2 1.8 4.5
-18 -7 -2 -2.3 6
-18 -7 -3 15.1 6.2
-18 -7 -3 5.3 8
18 -7 3 0.3 6.8
18 -7 4 22 8.6
-18 -7 -4 10.3 9
18 -7 5 -0.9 5.7
-18 -7 -5 0.1 8
-18 -7 -6 -0.4 8.2
18 -7 6 2.6 6.9
-18 -7 -7 -1.6 8.4
18 -7 7 6.8 8.5
-18 -7 -8 -0.7 8.2
18 -7 8 9.5 7.9
18 -8 -9 0.4 5.8
18 -8 -8 -5.8 5.7
-18 -8 8 3.6 6.2
18 -8 -7 28.8 8.7
-18 -8 7 37.9 9
-18 -8 6 6.2 6.4
-18 8 5 -7.9 6.4
18 -8 -5 1.3 6
-18 -8 5 2.4 6.1
18 -8 -5 -1.2 4.8
-18 8 4 -7.8 5.7
18 -8 -4 24.4 7.1
-18 -8 4 9.4 2.5
-18 -8 4 8.5 7
-18 -8 4 5 2.5
18 -8 -4 3.1 5.9
-18 8 3 19.4 7.1
18 -8 -3 27.9 9.2
-18 -8 3 15.7 8.2
-18 -8 3 29.2 4.8
-18 8 2 9.6 4.8
-18 -8 2 1 6.7
-18 -8 2 6.2 4
18 -8 -2 1 5.9
-18 8 1 75.79 7.3
-18 -8 1 78.39 12.8
-18 -8 1 64.29 8.5
18 -8 -1 80.49 13.2
-18 8 0 15.4 2.5
-18 -8 0 3.4 8.1
-18 -8 0 19.1 6.3
18 -8 0 8.5 7.1
-18 -8 -1 21.2 6.7
-18 -8 -1 1.1 8.3
18 -8 1 16.8 7.8
-18 -8 -2 13.7 6.6
18 -8 2 12.5 7.8
-18 -8 -2 17.4 9.6
-18 -8 -3 -5.8 7.4
18 -8 3 8.7 6.8
-18 -8 -4 7.4 8.9
18 -8 4 16.6 7.7
-18 -8 -5 -16 6.7
18 -8 5 -5.3 6
-18 -8 -6 4.8 10.5
18 -8 6 -3.1 6.6
-18 -8 -7 -1.2 9
18 -8 7 7.5 7.4
-18 -9 7 14.1 7.5
18 -9 -7 7.4 7.6
-18 -9 6 -2.2 7.1
18 -9 -6 6.2 6.5
-18 -9 5 3.1 1.8
18 -9 -5 12.9 8.7
-18 -9 5 10.5 7.2
18 -9 -5 -1.9 5.7
-18 9 4 8 7.2
18 -9 -4 12.9 8.3
18 -9 -4 10.6 6
-18 -9 4 8.2 8.2
-18 -9 4 2.5 3.2
-18 -9 4 3.9 3.1
-18 9 3 21.8 6.9
-18 -9 3 10.7 6.1
18 -9 -3 7.4 6.6
18 -9 -3 13.2 5.3
-18 -9 3 1.2 7
-18 9 2 28.1 6.4
-18 -9 2 22.1 9.2
18 -9 -2 25 8.4
-18 -9 2 26.4 5.9
-18 -9 2 21.3 5.6
-18 9 1 11.2 3.7
-18 -9 1 2.4 8.3
18 -9 -1 6.3 6.7
-18 -9 1 1 5.4
-18 -9 0 12.5 8.2
-18 -9 0 7.4 5.7
18 -9 0 10.9 7.3
-18 -9 -1 120.19 13
18 -9 1 96.89 15.3
-18 -9 -1 83.69 15.6
-18 -9 -2 4 8.1
18 -9 2 -2.4 6
18 -9 3 3.3 7
-18 -9 -3 -9.3 7.7
18 -9 4 -6.4 5.6
-18 -9 -4 7 10.1
18 -9 5 29.1 14.6
-18 -9 -5 10.8 12.5
-18 -10 5 -2 2.6
18 -10 -5 -5.7 6.5
-18 -10 5 21.5 9.2
-18 -10 5 2.5 3
18 -10 -5 8.3 7.1
-18 10 4 -2.8 7.6
18 -10 -4 3.1 5.2
18 -10 -4 0.6 8.5
-18 -10 4 -8.9 6.1
-18 -10 4 5.1 4
-18 10 3 -0.4 6.2
18 -10 -3 0.5 6.5
18 -10 -3 5.8 5.8
-18 -10 3 -0.6 7.3
-18 -10 3 2 3.9
-18 -10 3 -2 5.8
-18 10 2 4 3.5
-18 -10 2 1.4 9
-18 -10 2 0.8 4.2
-18 -10 2 4.2 5.7
18 -10 -2 1 6
-18 -10 1 23.2 7.6
18 -10 -1 21.5 9.1
-18 -10 1 18.5 9.8
-18 -10 0 8.4 9.1
-18 -10 0 5.3 6.8
18 -10 0 2.4 6.5
18 -10 1 24.7 10.2
-18 -10 -1 41.8 12.2
-18 -10 -2 0.6 7.5
18 -10 2 6.5 6.6
-18 -11 1 1.4 10.6
19 0 -12 -6.7 6
19 0 -11 1.1 5.2
19 0 -10 47.7 7.9
19 0 -9 -4.1 3.5
19 0 -8 75.59 7.9
-19 0 7 -1.1 5.4
19 0 -7 -0.9 3
19 0 -6 171.98 10.3
-19 0 5 -6.2 3.7
19 0 -5 0.6 2.4
19 0 -4 132.89 7.9
19 0 -3 -0.5 2.4
19 0 -2 206.08 10.6
19 0 -1 4.3 3.2
-19 0 1 -0.5 2.9
19 0 0 49.1 7.3
-19 0 0 41.2 6.8
-19 0 0 46.3 9.5
-19 0 -1 -0.5 3.3
-19 0 -1 4.1 5.7
19 0 1 1.8 3.4
19 0 2 34.1 6.8
-19 0 -2 21.8 6.6
-19 0 -3 3.7 4.5
-19 0 -3 -2.5 4.3
19 0 3 0.9 4
19 0 4 5.5 3.3
19 0 4 0.6 4.7
-19 0 -4 1.7 4.7
-19 0 -4 -3.6 4.6
-19 0 -5 -3.7 4.8
19 0 5 0.7 3.2
19 0 5 3.3 5.6
-19 0 -5 5.1 5.6
-19 0 -6 91.49 12.8
19 0 6 82.19 8.4
19 0 6 82.69 13
19 0 7 5 6.1
-19 0 -7 18.7 7.1
19 0 7 0.9 3.8
19 0 8 26.9 6.4
-19 0 -8 16.7 8.8
19 0 8 21 8.8
19 0 9 0.7 6
19 0 9 -3.6 5.1
-19 0 -9 -1.4 6.9
-19 0 -10 5.2 8.5
19 1 -12 40.5 8.2
19 -1 -12 18.6 7.9
19 1 -11 2.3 4.6
19 -1 -11 -1.5 5.3
19 1 -10 34.1 6.4
19 -1 -10 41.2 8.1
19 -1 -9 13.5 5.3
19 1 -8 86.29 7.1
19 -1 -8 92.69 9.2
19 1 -7 18.8 3.8
-19 1 7 6.1 6.7
-19 -1 7 10.4 8.1
19 -1 -7 24.4 6.2
19 1 -6 225.38 9.4
19 1 -6 235.08 9.6
-19 -1 6 203.78 17.4
19 1 -5 3.8 2.4
19 1 -5 6.4 2.3
-19 1 5 1.1 4.7
19 -1 -5 6.3 3.6
19 1 -4 10.8 2.6
19 -1 -4 9 3.6
19 1 -3 80.09 5.5
19 -1 -3 75.79 7.1
19 1 -2 21.3 4
-19 -1 2 14 3.4
19 -1 -2 13.9 4.4
19 1 -1 104.89 7.2
-19 1 1 73.59 7.8
19 -1 -1 77.09 7.7
-19 -1 1 86.79 7.1
-19 1 0 29.8 5.8
-19 1 0 39.1 4.7
19 1 0 41.1 6
-19 -1 0 34.3 5.9
19 -1 0 43.3 7.2
-19 1 -1 7.6 3.4
19 1 1 7.1 3.7
-19 1 -1 4.3 4.2
19 -1 1 6.2 4
-19 -1 -1 10.8 4.6
-19 -1 -1 7.7 4.4
-19 1 -2 14.8 4.3
19 1 2 20.3 5.8
-19 1 -2 15.4 5.5
19 -1 2 17.3 5.6
-19 -1 -2 26.4 6
-19 -1 -2 24.2 5.9
-19 1 -3 70.49 8.1
-19 1 -3 84.19 11.3
19 1 3 67.19 6.3
19 1 3 77.89 10.5
19 -1 3 72.69 10.3
-19 -1 -3 68.49 10.1
-19 -1 -3 76.49 10.4
-19 1 -4 139.59 16.2
-19 1 -4 184.28 12.7
19 1 4 175.08 10.7
19 1 4 175.08 14.1
-19 -1 -4 165.58 14.7
19 -1 4 169.48 14.3
-19 -1 -4 162.68 14
19 1 5 412.26 18.3
19 1 5 419.06 23.8
-19 1 -5 406.76 21.3
-19 1 -5 403.56 23.7
19 -1 5 413.66 23.3
-19 -1 -5 418.66 23.8
19 -1 5 433.76 16.2
-19 -1 -5 389.76 22.7
19 1 6 74.79 12.2
-19 1 -6 83.29 11.5
19 1 6 68.79 8.2
-19 -1 -6 80.69 12.6
19 -1 6 79.19 7.3
-19 1 -7 8.3 6
19 1 7 11.3 6.7
19 1 7 1.1 4.5
19 -1 7 4.1 5.7
19 -1 7 3.2 3.5
-19 -1 -7 -0.7 6.5
-19 1 -8 16.6 7.7
19 1 8 3.3 4.8
19 1 8 2.1 6.8
-19 -1 -8 18.1 8.8
19 -1 8 32.6 9.3
19 -1 8 8.8 5
19 1 9 8.2 7.1
-19 1 -9 -0.3 6.6
19 -1 9 -4.1 4.2
19 -1 9 -0.6 6.6
-19 -1 -9 -5.3 7.2
-19 1 -10 -3.4 7.6
-19 -1 -10 22.1 9.2
19 2 -12 -0.7 4.8
19 -2 -11 3.3 6.6
19 2 -10 8.7 4.1
19 -2 -10 -9 4.9
19 2 -9 34.8 4.9
19 -2 -9 25.9 7.2
19 2 -8 -1.2 2.2
19 -2 -8 -0.3 4.9
19 2 -7 26.3 2.4
19 2 -7 26.5 2.5
-19 2 7 28.8 9.8
19 -2 -7 28.3 7.2
-19 -2 7 31.1 8.5
-19 2 5 7.9 6.1
19 -2 -5 9 4
-19 2 4 130.19 12.4
19 -2 -4 140.79 10.4
-19 2 3 26.7 6.3
19 2 -3 25.6 2.6
19 -2 -3 30.5 6.2
19 2 -2 120.89 6.6
-19 2 2 142.19 11.5
19 -2 -2 147.29 10.6
-19 -2 2 133.79 6.9
19 2 -1 42.9 4.9
-19 -2 1 36.1 6
-19 -2 1 44.5 5.5
19 -2 -1 44.3 7.4
-19 2 0 40.7 6.9
19 2 0 49.7 6.5
-19 -2 0 47.3 6.3
19 -2 0 58.29 8.6
-19 -2 0 50.89 7.4
-19 2 -1 85.99 9
-19 2 -1 76.39 6.1
-19 -2 -1 64.09 8.7
19 -2 1 83.79 9.3
-19 -2 -1 75.69 8.1
19 2 2 234.78 13.8
-19 2 -2 230.58 11
-19 2 -2 203.18 15
-19 -2 -2 254.37 15.5
-19 -2 -2 223.58 13.7
19 -2 2 232.88 15.2
-19 2 -3 7 5.8
-19 2 -3 0.2 3.1
19 2 3 5.7 4.5
19 2 3 3 3.4
-19 -2 -3 3.3 4.3
-19 -2 -3 0.5 4.8
19 -2 3 -0.3 4.2
19 2 4 82.69 7.8
-19 2 -4 69.99 8.1
19 2 4 76.99 11.7
-19 2 -4 65.69 11.3
-19 -2 -4 68.69 11.6
-19 -2 -4 93.09 12.3
19 -2 4 86.59 12
19 2 5 3.6 5
-19 2 -5 -1.2 5.7
19 2 5 7.2 6.1
-19 2 -5 2.3 4.2
-19 -2 -5 -2.7 6.1
-19 -2 -5 0.1 5.1
19 2 6 4.7 6.3
19 2 6 11.5 5.4
-19 2 -6 3 4.7
19 -2 6 6.7 3.3
-19 -2 -6 14.6 7
19 -2 6 16 7.3
19 2 7 9.2 6.1
-19 2 -7 9.8 5.7
19 2 7 -0.9 5.1
-19 -2 -7 1.4 6.7
19 -2 7 5.9 5.9
19 -2 7 0.4 3.4
-19 2 -8 56.09 10.2
19 2 8 51.29 11.2
19 -2 8 42.3 10.7
19 -2 8 47.7 6.3
-19 -2 -8 96.49 16.1
-19 2 -9 0.4 5.7
19 2 9 -5.8 7.2
19 -2 9 7.3 4.1
-19 -2 -9 5.1 7.9
19 -2 9 10.4 7.9
-19 2 -10 20.8 7.6
19 2 10 -3.3 7.4
19 -2 10 6.8 7.3
-19 -2 -10 3.9 7.9
19 -2 10 -9.4 4
19 3 -12 7.3 4.7
19 3 -11 1.3 2.8
19 3 -10 -3.7 1.8
19 -3 -9 4.3 6.1
19 -3 -8 48.3 10.1
-19 3 7 44 10.9
-19 3 6 5 7.6
-19 3 5 31.6 7.8
-19 3 4 60.99 10.6
19 -3 -4 72.39 8.2
-19 3 3 79.99 9.7
19 -3 -3 70.59 7.9
19 3 -2 55.59 4.6
-19 3 2 41.8 7.4
-19 -3 2 49.7 7
19 -3 -2 40.2 7.2
-19 -3 2 56.99 4.3
-19 3 1 28.9 5.9
19 3 -1 37.5 5
-19 -3 1 47.3 7.4
19 -3 -1 37.2 7.3
-19 -3 1 38.2 5
-19 3 0 25.9 5.1
-19 3 0 28.8 6.8
19 3 0 26.5 5.1
19 -3 0 33.6 7.1
-19 -3 0 37 5.8
-19 -3 0 27.1 6.2
-19 3 -1 16.6 3.3
-19 3 -1 14.6 5.6
-19 -3 -1 26.9 5.7
19 -3 1 20.2 6.1
-19 -3 -1 15.9 6.3
-19 3 -2 56.69 5.4
19 3 2 63.69 9
-19 3 -2 49.3 8.5
-19 -3 -2 56.69 9.7
19 -3 2 58.59 9.6
-19 -3 -2 63.89 9.1
19 3 3 71.59 10.3
-19 3 -3 69.99 6.3
-19 3 -3 81.29 11.3
19 3 3 70.49 8
-19 -3 -3 70.79 11.4
19 -3 3 64.79 10.7
-19 -3 -3 70.89 10.6
-19 3 -4 117.39 13.4
19 3 4 137.99 10.7
19 3 4 123.49 12.8
-19 3 -4 128.39 8.5
-19 -3 -4 132.09 14.2
19 -3 4 97.79 13.2
-19 -3 -4 142.89 17.9
19 3 5 1.9 4.3
-19 3 -5 12.7 4.1
19 3 5 4.5 5.8
19 -3 5 4.8 5.9
-19 -3 -5 8.8 7.7
-19 -3 -5 -1.1 6
-19 3 -6 26.8 5.6
19 -3 6 15.4 7.4
-19 -3 -6 34.8 10.8
19 3 7 33.8 9.4
-19 3 -7 13.2 4.6
19 -3 7 8.6 4
19 -3 7 10.6 6.9
-19 -3 -7 -9.5 7.2
19 3 8 13.8 8.3
-19 -3 -8 29.3 10
19 -3 8 14.6 7.9
19 -3 8 27.5 4.5
19 3 9 -4.1 5.3
-19 3 -9 -4.5 3.1
-19 -3 -9 -3.2 8.5
19 -3 9 2.3 3.7
19 -3 9 -3.2 5.9
19 3 10 3.8 8.6
-19 3 -10 0.3 4.1
19 -3 10 11.4 8.1
19 -3 10 7.1 4.6
-19 -3 -10 29.4 11.3
19 -4 -8 73.99 11.8
-19 4 7 6.7 6.9
-19 4 6 74.89 13.2
-19 4 5 29.1 8
-19 4 4 21.7 7.6
19 -4 -4 21.5 6.5
-19 4 3 217.58 15.6
19 -4 -3 196.58 13.7
-19 4 2 0.4 4.5
19 -4 -2 11.2 5.3
-19 -4 2 -0.5 3.9
-19 -4 2 11 2.6
-19 4 1 52.79 8
-19 -4 1 62.69 9
19 -4 -1 61.09 9.5
-19 -4 1 59.59 5.8
19 4 0 22.3 5.3
-19 4 0 18.9 4.8
19 -4 0 10.1 5.3
-19 -4 0 6.2 5.2
-19 -4 0 17.5 5.3
-19 4 -1 3.3 2.2
-19 4 -1 17.6 6.8
-19 4 -1 4.2 2.8
19 4 1 8.6 4.6
-19 -4 -1 -1.1 4.9
-19 -4 -1 11.6 4.5
19 -4 1 2.8 5
-19 4 -2 47.9 9.3
-19 4 -2 46.3 3.4
19 4 2 53.39 8.8
-19 4 -2 55.19 3.8
19 -4 2 60.79 10.4
-19 -4 -2 46 7.7
-19 -4 -2 48 9.9
19 4 3 12.6 6
-19 4 -3 7 6.1
19 4 3 14.4 4.8
19 -4 3 17.8 7.4
-19 -4 -3 15.4 7.8
-19 -4 -3 32.2 7.6
19 4 4 6.7 6.1
19 4 4 6.4 4.2
19 -4 4 -4.2 4.8
-19 -4 -4 2.6 6.6
-19 -4 -4 15.6 7.8
19 4 5 7.2 6.2
19 -4 5 4.2 6.2
-19 -4 -5 12.2 9.3
-19 -4 -5 17.6 7.5
19 4 6 18.7 8.1
-19 -4 -6 20.8 9.6
19 -4 6 35 9.3
19 4 7 -12.5 5.9
19 -4 7 -0.8 5.5
-19 -4 -7 2.2 8
19 4 8 2.5 7.1
19 -4 8 -2.7 6.6
-19 -4 -8 0.6 9.2
19 4 9 20.4 9
-19 -4 -9 5.9 10.3
19 -4 9 7.4 7.6
-19 5 6 118.69 14.4
-19 5 5 30.7 8.2
-19 5 4 10.8 6.7
19 -5 -4 7.6 6
-19 -5 4 7 5.1
-19 5 3 38 8.2
-19 -5 3 30.3 7.1
19 -5 -3 19.9 6.6
-19 5 2 148.19 12.1
19 -5 -2 135.89 13.1
-19 -5 2 143.19 12.3
-19 -5 2 128.39 6.7
-19 5 1 11.2 4.3
19 -5 -1 12.6 6.4
-19 -5 1 8 3.7
-19 -5 1 7.1 5.8
-19 5 0 11.9 3.8
-19 -5 0 10.9 4.4
19 -5 0 16.4 7
-19 -5 0 14.2 7
-19 5 -1 116.59 4.8
19 -5 1 113.49 12.5
-19 -5 -1 86.99 12.4
-19 -5 -1 105.99 9.8
19 5 2 -2.8 2.6
-19 5 -2 7.7 6.6
19 5 2 -1.8 4.2
19 -5 2 -1.9 5.4
-19 -5 -2 -4.5 5.6
19 5 3 78.89 11.8
-19 -5 -3 90.19 11.9
-19 -5 -3 94.69 14.6
19 -5 3 71.09 11.7
19 5 4 11.6 6.7
19 -5 4 7.1 6.5
-19 -5 -4 6.1 6.1
19 5 5 11.2 6.7
19 -5 5 5.4 5.9
-19 -5 -5 3.4 7.9
19 5 6 14.6 8
-19 -5 -6 9 9.7
19 -5 6 21.4 8.2
19 5 7 -8.1 7.1
19 -5 7 -6.9 4.7
-19 -5 -7 2.5 8.9
19 5 8 2.2 8.1
-19 -5 -8 -10.6 7
19 -5 8 7.2 7
19 -5 9 5.6 7
-19 -5 -9 5.4 11.3
19 -6 -8 13 7.4
-19 6 6 17.4 8.4
-19 6 4 42.4 9.8
-19 -6 4 27.3 7.4
19 -6 -4 46 9.7
-19 6 3 46.9 9.1
-19 -6 3 38.6 8.3
19 -6 -3 49.4 9.7
-19 6 2 108.29 10.6
19 -6 -2 100.39 11.6
-19 -6 2 114.99 12.1
-19 -6 2 96.59 6.6
-19 6 1 100.89 9
-19 -6 1 99.29 12.2
19 -6 -1 77.99 11.6
-19 -6 1 86.09 7.3
-19 6 0 1.4 2.7
19 -6 0 5.2 5.5
-19 -6 0 11.7 4.7
-19 -6 0 5.3 6.8
-19 -6 -1 43.7 7.6
-19 -6 -1 44.8 10.4
19 -6 1 37.3 9.4
-19 -6 -2 7.9 5.8
-19 -6 -3 7.5 8.6
19 -6 3 28.2 8.8
-19 -6 -3 31.1 8.1
19 -6 4 22.6 9
-19 -6 -4 5.2 6.2
-19 -6 -4 16.7 9.2
-19 -6 -5 35.3 12.8
19 -6 5 20.1 8.5
19 -6 6 10.3 7.8
-19 -6 -6 4.2 9
-19 -6 -7 -11.2 7.9
19 -6 7 -1.2 6.6
-19 -6 -8 4.4 10.2
19 -6 8 11.6 12.9
19 -7 -9 -0.6 5.7
19 -7 -8 2.3 6.2
19 -7 -7 3.3 7.2
-19 -7 6 0.8 6.2
19 -7 -6 15.7 7
-19 7 5 -6.5 6
-19 -7 5 -6.4 4.7
19 -7 -5 -11.8 3.7
-19 7 4 3.4 5.8
-19 -7 4 -4.4 4.3
19 -7 -4 -3.7 4.4
-19 7 3 26.7 7.5
-19 -7 3 29.9 8.1
-19 -7 3 22.4 3.3
-19 -7 3 23.4 3.3
19 -7 -3 23.7 7.4
-19 7 2 56.89 8.7
19 -7 -2 53.19 10.1
-19 -7 2 53.69 6
-19 -7 2 42.9 10.1
-19 7 1 6.9 4.2
19 -7 -1 7.1 6.4
-19 -7 1 6.7 3.9
-19 -7 1 2.6 6.8
-19 7 0 2.6 2.1
-19 -7 0 0.1 3.8
19 -7 0 9.7 7.4
-19 -7 0 -1.4 6.4
-19 -7 -1 25 6.3
-19 -7 -1 19 8.6
19 -7 1 32.9 9.6
-19 -7 -2 36.1 7.7
-19 -7 -2 26.9 9.4
19 -7 2 14.1 8.3
19 -7 3 22.8 8.9
-19 -7 -3 45 13.1
-19 -7 -3 37 8.6
-19 -7 -4 18.8 11
19 -7 4 6 6.5
-19 -7 -5 30.2 13.2
19 -7 5 4.9 7
19 -7 6 -1 6.3
-19 -7 -6 8.7 8.8
19 -7 7 -1.2 6.5
-19 -7 -7 28.5 11.3
-19 -8 8 0 5.6
19 -8 -8 8.5 7.9
-19 -8 7 15.5 8
19 -8 -7 27.3 9.9
-19 -8 6 7.1 6.3
19 -8 -6 -2.1 6.2
-19 8 5 3.7 7.2
-19 -8 5 6.8 6.9
19 -8 -5 11.3 6
19 -8 -5 19.4 8.4
-19 8 4 15.1 6.2
-19 -8 4 1.9 6.3
19 -8 -4 -1.9 5.1
-19 8 3 -9.1 4.4
19 -8 -3 2 5.7
-19 -8 3 11.1 7.1
-19 -8 3 10.9 3.2
-19 -8 3 6.5 3.1
-19 8 2 17.5 6.2
-19 -8 2 3.3 7.1
19 -8 -2 24.4 7.8
-19 -8 2 20.8 6.8
-19 8 1 4.6 3.4
19 -8 -1 1 5.6
-19 -8 1 1.8 4.1
-19 -8 1 -7.1 5.5
-19 -8 0 33.7 10.4
-19 -8 0 17.8 5.7
19 -8 0 24.2 8.5
-19 -8 -1 9.4 5.7
19 -8 1 9.7 7.2
-19 -8 -1 7.8 8.7
19 -8 2 18.7 8.1
-19 -8 -2 37.1 8.2
-19 -8 -2 24.7 9.6
-19 -8 -3 -4.5 8.3
19 -8 3 -6 5.9
-19 -8 -4 18.2 9.5
19 -8 4 8.8 6.9
19 -8 5 4.8 7.2
-19 -8 -5 -2.7 8.4
19 -9 -7 14.4 7.9
-19 -9 7 1.4 5.8
-19 -9 6 30.3 9.7
19 -9 -6 42.8 10.5
19 -9 -6 41.7 10.6
19 -9 -5 6.5 6
19 -9 -5 12.4 7.6
-19 -9 5 1.4 6.8
-19 9 4 6.9 6.5
-19 -9 4 -2.9 7
19 -9 -4 -6 6
-19 -9 4 0.9 2.8
-19 -9 4 6.3 2.5
-19 9 3 31.2 8.1
-19 -9 3 8.7 8.1
-19 -9 3 14.5 4.2
19 -9 -3 10.5 7.8
-19 9 2 1.2 4.8
19 -9 -2 0.2 5.8
-19 -9 2 8.4 7.8
-19 -9 2 4.2 3.9
-19 -9 2 1 4.4
-19 9 1 -0.9 2.2
-19 -9 1 0.9 5
-19 -9 1 1.1 7.6
19 -9 -1 -1.1 6.6
19 -9 0 1.8 6.5
-19 -9 0 -11.3 7.4
-19 -9 0 -4.3 5.1
-19 -9 -1 26.9 11.3
19 -9 1 40.1 10.8
-19 -9 -1 23.2 7.2
19 -9 2 2.7 6.7
-19 -9 -2 7.3 8.4
19 -9 3 -12.5 5.5
-19 -9 -3 -14.2 7.8
19 -9 4 2.8 6.3
-19 -9 -4 9.5 10
19 -9 5 -4.3 6.6
-19 -9 -5 -8.1 8.6
-19 -10 5 2.4 7.9
19 -10 -5 5.5 6.4
19 -10 -5 11.3 7.9
-19 -10 4 6.8 3.7
-19 -10 4 16.4 8.4
19 -10 -4 16.2 6.3
-19 10 3 15.4 6.4
-19 -10 3 -8.6 8.1
-19 -10 3 9.4 4.8
19 -10 -3 -0.3 6.4
-19 10 2 5.9 3.5
19 -10 -2 8.4 6.8
-19 -10 2 1.9 9.1
-19 -10 2 2.3 5.4
-19 -10 2 4.1 4.4
-19 10 1 3.8 2.2
-19 -10 1 -14.1 5.6
-19 -10 1 -6 7.8
19 -10 -1 9 7.5
-19 -10 0 -6 8.1
19 -10 0 19.9 9
-19 -10 0 -0.8 6.5
-19 -10 -1 -17 6.8
19 -10 1 -3 6.3
-19 -10 -3 6.2 10.8
19 -10 3 8.3 8.1
20 0 -11 8.3 5.3
20 0 -10 60.59 8.2
20 0 -9 -3.8 3.7
20 0 -8 -1.5 3.2
20 0 -7 -3 3
-20 0 7 -3.6 4.7
-20 0 6 158.38 16.9
20 0 -6 177.38 10.6
20 0 -6 207.88 10.5
-20 0 5 8 5.5
20 0 -5 -0.2 2.3
20 0 -4 126.39 7.9
20 0 -3 -0.5 2.5
20 0 -2 22.2 4.7
20 0 -1 -2.2 2.9
-20 0 1 -1.4 3
-20 0 0 82.39 7
-20 0 0 92.29 8.8
-20 0 -1 -0.9 3.4
-20 0 -1 1.3 3.3
20 0 1 2 3.5
-20 0 -2 29.9 6.8
20 0 2 19 5.9
-20 0 -2 18.1 5.5
-20 0 -3 -2.1 4.7
20 0 3 -1 4.4
-20 0 -3 -0.7 3.8
20 0 4 223.78 16.2
-20 0 -4 233.08 15.8
-20 0 -4 190.88 15.7
20 0 4 239.58 11.5
20 0 5 -0.2 4.5
-20 0 -5 4.4 5.7
-20 0 -5 -7.1 5.7
20 0 5 5.4 3.2
-20 0 -6 4 5.8
20 0 6 4.9 6.9
20 0 6 -0.7 3.3
20 0 7 0.9 3.8
-20 0 -7 6.9 6.6
20 0 7 -0.6 6.2
20 0 8 -0.9 5.8
-20 0 -8 19.5 7.8
20 0 8 -0.6 4.2
20 0 9 8.3 8
-20 0 -9 14.1 8.4
-20 0 -10 0.6 8.6
20 0 10 7.1 8.7
20 1 -12 -2.3 5
20 -1 -12 10.9 7.6
20 1 -11 7.5 4.2
20 -1 -11 0.1 6.5
20 1 -10 23.2 5.6
20 -1 -10 24.9 7.7
20 1 -9 -0.6 3.2
20 -1 -9 0.5 4.5
20 1 -8 42.5 5.4
20 -1 -8 30.5 7.1
-20 1 7 8.1 6.5
20 1 -7 8.7 3.1
-20 -1 7 1.2 6.6
20 -1 -7 2.6 3.9
20 1 -6 88.79 5.9
-20 1 6 78.69 13.2
20 1 -6 107.09 6.2
-20 -1 6 89.79 13.2
20 1 -5 21.5 3.6
-20 1 5 15.5 6.8
20 1 -5 26.7 3.7
20 -1 -5 27 5.4
20 1 -4 28.6 3.8
-20 1 4 23.2 7
20 -1 -4 29.9 5.3
20 1 -3 36.3 4.5
20 -1 -3 39.7 6.2
20 1 -2 41.2 5.2
20 -1 -2 38.3 6.1
-20 -1 2 34.1 5
-20 1 1 33.7 6.3
20 1 -1 30.4 5.2
-20 -1 1 18.6 4.2
-20 -1 1 24 4.6
-20 1 0 9 4.4
-20 1 0 8.5 3.3
20 1 0 14.1 4.3
-20 -1 0 11.6 4.4
20 -1 0 9.8 4.6
-20 -1 0 15.6 4.4
-20 1 -1 101.09 7.8
20 1 1 90.09 8.8
-20 1 -1 92.19 9.7
-20 -1 -1 100.99 8.9
-20 -1 -1 94.59 9.5
20 -1 1 102.19 9.5
20 1 2 6.3 4.5
-20 1 -2 3.6 3.6
-20 1 -2 6 4.5
-20 -1 -2 16.4 5.7
20 -1 2 4.6 4.3
-20 -1 -2 8.1 4.7
20 1 3 53.09 8.8
-20 1 -3 45.8 7.5
-20 1 -3 70.09 10.3
-20 -1 -3 37.4 7.9
-20 -1 -3 37.7 7.9
20 -1 3 45.2 8.5
-20 1 -4 -3 5.5
20 1 4 -5.3 4.2
20 1 4 3.3 3.4
20 -1 4 9 5.6
-20 -1 -4 -3.5 3.8
-20 1 -5 45.3 10.7
20 1 5 47.4 7.3
-20 1 -5 39.3 8.2
20 1 5 54.29 10.4
-20 -1 -5 66.69 11.1
-20 -1 -5 36.3 8.8
20 -1 5 44.6 9.6
20 -1 5 54.49 5.8
20 1 6 -2 4
-20 1 -6 -3.7 4.5
20 -1 6 0.6 5.8
-20 -1 -6 -6.3 5.3
20 -1 6 -4.3 2.6
20 1 7 -0.6 5.7
-20 1 -7 13.5 6.1
20 1 7 4.9 4.5
20 -1 7 -9.8 4.8
20 -1 7 2.3 3.3
-20 -1 -7 6.6 7.4
20 1 8 -1.8 5.8
-20 1 -8 4.1 6.4
-20 -1 -8 -11.2 6.1
20 -1 8 6.1 7.5
20 -1 8 1.6 3.9
-20 1 -9 10.9 7.7
20 1 9 6 7.1
20 -1 9 6.9 7.4
-20 -1 -9 13.6 8.4
20 -1 9 8.1 4.4
-20 1 -10 3.2 7.8
20 1 10 -0.6 6.7
-20 -1 -10 -12.7 8.7
20 -1 10 7.4 8
20 2 -12 -0.5 4.6
20 2 -11 4.6 3.3
20 -2 -11 17.4 8.2
20 2 -10 3.5 3.1
20 -2 -10 -0.6 5.7
20 2 -9 58.69 5.5
20 -2 -9 63.59 9.8
20 2 -8 48.5 4
20 -2 -8 50.69 9.6
-20 2 7 53.29 12.3
20 -2 -7 58.19 9.2
-20 2 6 29.5 9
-20 2 5 21.1 7.5
-20 2 4 6.5 4.9
20 -2 -4 6.4 4
20 2 -3 1.4 1.6
-20 2 3 9.6 5.6
20 -2 -3 -0.1 3.3
20 2 -2 129.99 7.1
-20 2 2 136.89 11.3
20 -2 -2 147.49 10.7
-20 -2 2 137.09 7.3
20 2 -1 161.78 9
20 -2 -1 163.18 11.7
-20 -2 1 165.48 11.1
-20 -2 1 175.68 9.7
20 2 0 24.1 5.1
-20 2 0 25 6.3
20 -2 0 24.8 6.2
-20 -2 0 23.4 5.9
-20 2 -1 40.8 7.8
-20 2 -1 44.2 5.3
20 2 1 48.3 7.5
-20 -2 -1 51.49 7.8
-20 -2 -1 47.8 7.8
20 -2 1 43.3 7.8
20 2 2 112.39 10.3
-20 2 -2 113.19 8.1
-20 2 -2 101.39 11
-20 -2 -2 94.99 10.4
20 -2 2 103.49 11.4
-20 -2 -2 125.79 11.8
20 2 3 12.9 4.2
20 2 3 22.8 6.8
-20 2 -3 29 5.8
20 -2 3 20.2 6.7
-20 -2 -3 17.9 6.6
-20 -2 -3 14.7 6.4
20 2 4 10.5 6.3
20 2 4 2.3 3.4
-20 2 -4 15.3 6.8
-20 2 -4 1.7 3.9
20 -2 4 2.8 5.3
-20 -2 -4 15 6.9
20 2 5 11.6 6.8
-20 2 -5 7.2 5
20 2 5 12.8 4.9
20 -2 5 13.8 6.9
-20 -2 -5 2.7 7
-20 -2 -5 2.3 7.5
20 2 6 23.5 8.9
20 2 6 14.1 5.5
-20 -2 -6 7.1 8.3
20 -2 6 7.6 7
20 2 7 -3.6 5.2
-20 2 -7 1.1 4.5
20 -2 7 -6.1 2.2
20 -2 7 -6.8 6.2
-20 -2 -7 0.8 6.1
-20 2 -8 1.8 5.3
20 2 8 -2.5 6.2
20 -2 8 -6.6 3
20 -2 8 0.9 5.8
-20 -2 -8 -0.3 6.9
20 2 9 22.1 9.7
-20 2 -9 20.3 7.5
20 -2 9 -1 6.2
-20 -2 -9 21.8 9.6
20 2 10 -7.5 7
-20 2 -10 0.4 5.7
20 -2 10 0.5 6
20 -2 10 -2.1 7.1
-20 -2 -10 -21.9 7.4
20 3 -11 4.3 2.7
20 3 -10 1.1 1.4
20 -3 -9 119.79 13.2
20 -3 -8 -4.8 5.9
-20 3 7 167.88 18.2
-20 3 6 11.8 7.1
-20 3 5 -2 5.3
20 -3 -5 8.3 5.1
-20 3 4 2.9 5.7
20 -3 -4 16 5.6
-20 3 3 254.67 16.7
20 -3 -3 252.67 14.9
-20 3 2 22.9 6
20 3 -2 33.5 4.2
-20 -3 2 36.5 3.9
20 -3 -2 27.2 6.5
-20 -3 2 30.2 6
20 3 -1 11.5 3.5
-20 -3 1 3.9 3
20 -3 -1 10.7 5.4
-20 -3 1 7.5 4.6
-20 3 0 2.7 3.5
20 3 0 8.2 3.7
-20 3 0 2.2 4.1
-20 -3 0 7.5 4.8
20 -3 0 11.3 5.5
-20 -3 0 -0.8 4
-20 3 -1 36.3 7.9
-20 3 -1 31.3 4.2
20 3 1 29.8 6.1
20 -3 1 35.6 7.6
-20 -3 -1 22.8 6.7
-20 -3 -1 29.1 6.1
-20 3 -2 29.9 4.6
-20 3 -2 28.2 8
20 3 2 32.6 7.1
-20 -3 -2 30.1 6.5
20 -3 2 28.2 7.5
-20 -3 -2 33.3 7.7
20 3 3 3.8 4.7
-20 3 -3 3.1 2.9
-20 3 -3 0 4.9
-20 -3 -3 10.3 6.4
20 -3 3 0.9 6.2
-20 -3 -3 0.5 5.3
-20 3 -4 31.4 8.8
20 3 4 21.7 5.6
-20 3 -4 39.6 5.6
20 3 4 41.2 9.6
20 -3 4 47.3 9.8
-20 -3 -4 49.2 11.2
-20 -3 -4 65.09 10.7
-20 3 -5 14.5 4.6
20 3 5 17.7 5.9
20 3 5 22.3 8
-20 -3 -5 19 8.8
-20 -3 -5 22.4 8.5
20 -3 5 31.5 14.2
-20 3 -6 1.1 3.9
20 3 6 11 7
-20 -3 -6 11 7.6
20 -3 6 1.3 6.1
-20 3 -7 8.2 4.5
20 3 7 -6.6 5
-20 -3 -7 -4.7 6.5
20 -3 7 4.9 6.2
20 3 8 16.3 7.8
-20 -3 -8 8.8 8.8
20 -3 8 -1.4 2.4
20 -3 8 2 6.6
-20 3 -9 1.2 3.6
20 3 9 0.6 6.8
20 -3 9 7.4 4.2
-20 -3 -9 14.4 8.8
20 -3 9 12.1 8.2
20 -4 -8 135.09 14.2
-20 4 6 215.68 18.5
-20 4 5 -4.1 4.1
20 -4 -5 6.5 5
-20 4 4 41.9 9.6
20 -4 -4 31.8 7.4
-20 4 3 68.49 10.7
-20 -4 3 80.29 9
20 -4 -3 70.39 9.7
-20 4 2 4.5 4.8
20 -4 -2 -4.3 3.6
-20 -4 2 1.4 2.2
-20 -4 2 3.4 4.7
-20 4 1 18 5.1
-20 -4 1 12.3 3.6
-20 -4 1 11.9 6.2
20 -4 -1 12.2 5.9
20 4 0 0.9 3.5
-20 4 0 2.2 3.3
-20 -4 0 -0.9 4.7
20 -4 0 8.7 5.4
-20 -4 0 3.7 4.2
-20 4 -1 92.29 5.6
20 4 1 92.69 9.6
-20 4 -1 88.89 6.9
-20 4 -1 105.09 11.9
-20 -4 -1 97.19 9.1
20 -4 1 91.09 12.5
-20 -4 -1 80.79 11.4
-20 4 -2 4.3 5.8
20 4 2 18.9 6.3
-20 4 -2 12.1 2.7
-20 4 -2 14.6 2.6
-20 -4 -2 15 7.5
20 -4 2 9.9 6
-20 -4 -2 6 5
20 4 3 75.49 11.8
-20 4 -3 74.19 11.7
20 4 3 69.99 7.9
-20 -4 -3 69.59 10.4
-20 -4 -3 69.49 12.5
20 -4 3 47.6 10.1
20 4 4 69.89 12.1
20 4 4 42 8.8
-20 -4 -4 52.99 11.7
-20 -4 -4 84.09 12.5
20 -4 4 47.7 11.5
20 4 5 55.79 11.8
20 -4 5 53.19 10.7
20 4 6 4.2 5.9
20 -4 6 -5.6 4.6
-20 -4 -6 -0.6 6.2
20 4 7 4.6 6.7
-20 -4 -7 23.9 10.4
20 -4 7 6.6 7.8
20 4 8 7.3 9.3
-20 -4 -8 5.7 8.1
20 -4 8 16.6 9
20 4 9 35.2 13.4
-20 -4 -9 24.4 10.7
-20 5 6 92.79 14.6
-20 5 5 4.4 5.8
20 -5 -5 11.2 5.7
-20 5 4 5.3 5.5
-20 -5 4 10.3 5.7
20 -5 -4 0.2 5.2
-20 5 3 24.1 7.8
20 -5 -3 38 8.3
-20 -5 3 34.7 7.3
-20 5 2 38 7.3
-20 -5 2 32.3 4.1
-20 -5 2 30.7 7.7
20 -5 -2 29.5 7.7
-20 5 1 88.89 9
-20 -5 1 75.29 6.8
-20 -5 1 79.29 11
20 -5 -1 68.29 10.8
-20 5 0 14.9 4.6
20 -5 0 13.2 6.7
-20 -5 0 7.4 6.1
-20 -5 0 15.3 4.8
-20 5 -1 47.5 3.8
-20 5 -1 49 3.1
-20 -5 -1 40.9 9.8
20 -5 1 54.79 10.5
-20 -5 -1 48.6 7.7
20 5 2 -1.8 4.2
20 -5 2 2.2 5.7
-20 -5 -2 -0.4 5.9
-20 -5 -2 -0.1 3.9
20 5 3 3.5 5.3
-20 -5 -3 -2.4 4.8
-20 -5 -3 -2.4 6.5
20 5 4 11.8 6.5
-20 -5 -4 5.7 5.5
20 -5 4 -1 5.7
-20 -5 -4 3 7.4
-20 -5 -5 8.4 8
20 -5 5 2.2 5.7
20 5 6 37.3 10.3
-20 -5 -6 23.2 10.5
20 -5 6 28.4 9.4
20 5 7 4.8 6.8
-20 -5 -7 -8.8 8
20 -5 7 -7 5.4
20 5 8 7.8 8.2
20 -5 8 -5.3 5.9
-20 -5 -8 13.5 9.3
-20 6 6 2.6 8
20 -6 -5 18.1 7.6
-20 -6 5 11.1 6.3
-20 6 4 22.7 8.1
20 -6 -4 30.6 8.3
-20 6 3 41.5 8.9
20 -6 -3 28.8 7.7
-20 -6 3 36.8 8.7
-20 6 2 9.6 5.5
-20 -6 2 8.8 6.6
20 -6 -2 -5.2 4.3
-20 -6 2 1.6 2.5
-20 6 1 35.5 6.4
20 -6 -1 42.8 9.4
-20 -6 1 29 5.5
-20 -6 1 32.7 9
-20 6 0 0 2.6
20 -6 0 5.3 6.2
-20 -6 0 -3 3.4
-20 -6 0 8.8 6.8
-20 -6 -1 2.7 4.7
20 -6 2 11.6 6.4
-20 -6 -2 11.1 8.4
-20 -6 -2 28 6.9
-20 -6 -3 31.4 8.3
-20 -6 -3 22.3 8.6
20 -6 3 23.2 8
20 -6 4 30.8 9.4
-20 -6 -4 48.9 12.4
20 -6 5 59.99 11.5
-20 -6 -5 30.9 11.8
20 6 6 -1 6.1
-20 -6 -6 6.1 8.6
20 -6 6 2.4 6.3
20 6 7 -9.1 6.4
20 -6 7 2.3 6.4
-20 -6 -7 12.1 9.8
20 -6 8 -1.9 6.3
-20 -7 7 7.4 6
-20 -7 6 12.4 6.8
-20 7 5 12.7 7.7
-20 -7 5 5.1 6
20 -7 -5 16.4 7.4
-20 7 4 25.4 8.1
20 -7 -4 29.8 8.4
-20 -7 4 24.3 7.5
-20 7 3 2.4 5.1
20 -7 -3 4.6 5.7
-20 -7 3 3.9 2
-20 -7 3 3.4 2.1
-20 -7 3 0.1 5.9
-20 7 2 35.1 7.3
-20 -7 2 41.4 5.3
20 -7 -2 27.3 8.5
-20 -7 2 34.4 9.4
-20 7 1 68.29 7.4
-20 -7 1 61.19 11.7
20 -7 -1 67.39 12.1
-20 -7 1 88.19 7.7
-20 7 0 5.8 2.2
-20 -7 0 4.7 4.5
20 -7 0 -1.2 5.2
-20 -7 0 2.3 6.7
-20 -7 -1 50.79 8.3
20 -7 1 37.4 10
-20 -7 -1 56.19 12.3
-20 -7 -2 11.7 7.8
20 -7 2 3.2 5.9
-20 -7 -2 -24.3 8.2
-20 -7 -3 -0.2 7.6
-20 -7 -3 16.2 6.9
20 -7 3 9.6 6.8
-20 -7 -4 8.9 10.1
20 -7 4 2.3 6.7
-20 -7 -5 16.6 11.2
20 -7 5 -6.9 5.6
20 -7 6 8.1 7.2
-20 -7 -6 0.4 8.4
-20 -7 -7 9.7 18.8
20 -7 7 -3.5 12.6
20 -8 -8 2.2 6.8
-20 -8 8 -7.4 6.3
20 -8 -7 2.4 6.6
-20 -8 7 8.1 6.3
-20 -8 6 61.99 10.8
20 -8 -6 57.69 11.8
-20 8 5 -0.4 6.9
20 -8 -5 -3 5.6
-20 -8 5 4.1 6.9
-20 8 4 -2.6 5.7
-20 -8 4 5.3 6.9
20 -8 -4 -1.7 5
-20 8 3 4.3 5.8
-20 -8 3 9.3 3
-20 -8 3 24.7 8
20 -8 -3 1.1 5.5
-20 -8 3 7.5 3.2
-20 8 2 11.7 5.1
-20 -8 2 5.5 6.9
20 -8 -2 14.2 7.3
-20 8 1 -4 3.2
-20 -8 1 -1.3 6.6
20 -8 -1 2.4 5.7
-20 -8 1 -8.9 3.5
-20 -8 0 -0.1 6.7
20 -8 0 4.8 7
-20 -8 0 6.5 4.7
20 -8 1 20.1 8.4
-20 -8 -1 17.9 8.8
-20 -8 -1 42.8 8
-20 -8 -2 17.2 9.2
-20 -8 -2 -2.5 5.3
20 -8 2 18.8 8.7
-20 -8 -3 10.8 8.6
20 -8 3 17.2 8
20 -8 4 9.1 7.2
-20 -8 -4 -4.7 8.8
-20 -8 -5 2.3 9.1
20 -8 5 8.4 7.7
20 -8 6 2.9 7.4
-20 -8 -6 2.2 10.2
20 -9 -7 5 6.7
-20 -9 7 -4.6 6.2
-20 -9 6 5.2 7.5
20 -9 -6 -8.7 6.6
20 -9 -6 8.2 6.5
-20 -9 5 14.7 8.6
20 -9 -5 -9.2 7.1
-20 9 4 2.5 6.6
-20 -9 4 0.8 1.9
20 -9 -4 6.9 6.6
-20 -9 4 6.2 8.4
-20 -9 4 3.7 1.9
-20 9 3 31.7 8.2
-20 -9 3 4.3 3.1
-20 -9 3 2.7 7.6
20 -9 -3 0.7 5.5
-20 -9 3 6.2 2.9
-20 9 2 4.1 4.3
20 -9 -2 0 5.4
-20 -9 2 7 4
-20 -9 2 1.4 6.9
-20 -9 1 25.6 6.3
-20 -9 1 25.4 10
20 -9 -1 16.4 8.1
20 -9 0 10.1 7.5
-20 -9 0 14.8 5.6
-20 -9 0 6.9 7.9
-20 -9 -1 26.1 7.4
20 -9 1 34.2 10.3
-20 -9 -1 35.1 11.8
-20 -9 -2 -5.5 7.8
20 -9 2 15.8 8.7
-20 -9 -3 8.5 10.2
20 -9 3 4.9 6.5
-20 -9 -4 -8.8 15.7
-20 -10 5 4.4 7.4
20 -10 -5 -6.2 5.7
-20 10 4 3.2 7.8
-20 -10 4 1.9 7.4
-20 -10 4 -3.8 2.7
-20 -10 4 -7.8 2.6
20 -10 -4 -3.2 6.3
-20 -10 3 -2.1 5.1
-20 -10 3 3.6 5.5
-20 -10 3 3.7 7.8
-20 -10 2 1 4.1
-20 -10 2 -6.1 8.3
-20 -10 2 -4.1 4.3
20 -10 -2 -0.6 6.9
20 -10 -1 11.9 9.1
-20 -10 1 21.9 10.7
-20 -10 1 14.8 6.6
-20 -10 0 -6.5 9.3
-20 -10 0 -9.9 5.3
-20 -10 -1 9.1 10.5
20 -10 1 3.1 7.9
-20 -10 -2 6.5 10.5
20 -10 2 6.5 8
21 0 -12 -2.4 9.9
21 0 -11 2.7 5.1
21 0 -10 0.8 3.9
21 0 -9 6 4
21 0 -8 14 4.6
21 0 -7 2.7 3.5
-21 0 7 -4.1 5.7
21 0 -6 845.02 27.7
21 0 -6 903.61 27
-21 0 5 -3.8 4.2
21 0 -5 -2.9 2.6
21 0 -4 1.5 2.9
21 0 -3 -3.2 2.5
21 0 -2 147.89 9.6
21 0 -1 -1.4 2.9
-21 0 1 0 3.2
21 0 0 213.38 13
-21 0 0 215.08 11.5
-21 0 0 192.08 12.5
-21 0 -1 -1.7 3.2
-21 0 -1 2.6 4.4
21 0 1 2.9 4
-21 0 -2 63.69 9.5
-21 0 -2 54.99 8
21 0 2 78.79 10.3
-21 0 -3 5.5 5.3
-21 0 -3 -2.2 3.9
21 0 3 2.9 4.5
-21 0 -4 -3.4 4.3
21 0 4 6.6 5.7
-21 0 -4 7.4 6.3
-21 0 -5 -1.4 4.9
21 0 5 -1.6 2.8
21 0 5 -7.5 4.5
21 0 6 132.89 14.5
-21 0 -6 118.39 13.8
21 0 6 122.89 9.7
21 0 7 -4.4 5.1
21 0 7 -2.2 3.8
-21 0 -7 2.1 6.1
-21 0 -8 -9.2 6.1
21 0 8 3.8 6.3
21 0 8 -0.4 4.2
21 0 9 9.1 7.5
-21 0 -9 4.6 7.3
21 0 10 18.4 8.9
-21 0 -10 26.7 11.9
21 1 -12 -10.4 4.8
21 -1 -12 28.7 8.5
21 1 -10 40.2 6.5
21 -1 -10 33.3 7.8
21 1 -9 27.7 5
21 -1 -9 32.7 7.3
21 1 -8 13.8 3.5
21 -1 -8 11.6 4.9
-21 1 7 14.5 7.9
21 1 -7 34.3 4.4
21 1 -7 30.5 4.2
21 -1 -7 19 5.7
21 1 -6 1.9 2.4
-21 1 6 5.3 6.3
21 1 -6 3.5 2.5
21 -1 -6 3.5 4.3
-21 -1 6 5.8 6.3
21 1 -5 57.29 4.8
21 1 -5 45.9 4.6
-21 1 5 71.49 12.6
21 -1 -5 54.79 7
21 1 -4 4.4 2.4
-21 1 4 0.5 4.9
21 -1 -4 -1.3 3.1
21 1 -3 51.19 5
21 -1 -3 42.4 6.7
21 1 -2 120.59 7.6
21 -1 -2 108.69 10.8
-21 -1 2 122.39 8.1
-21 1 1 2.7 3.6
21 1 -1 12.2 3.8
-21 -1 1 5.5 3.3
-21 -1 1 5.8 3.6
21 -1 -1 3 3.7
-21 1 0 19.1 5.1
21 1 0 20.3 5
-21 1 0 20.4 7.6
-21 -1 0 26 5.5
21 -1 0 29.9 6.4
-21 -1 0 17.5 5
21 1 1 54.29 8
-21 1 -1 55.59 6.5
-21 1 -1 47.7 8.4
-21 -1 -1 64.59 8.5
21 -1 1 53.29 8.4
-21 -1 -1 51.39 7.8
-21 1 -2 9.3 4.4
-21 1 -2 14 5.8
21 1 2 12.3 5.1
-21 -1 -2 14.9 6
21 -1 2 17.4 6.1
-21 -1 -2 10.6 5.6
21 1 3 59.39 9.6
-21 1 -3 62.79 11.2
-21 -1 -3 65.09 10
21 -1 3 65.89 10.5
-21 -1 -3 109.19 11.2
21 1 4 62.19 6.5
-21 1 -4 55.29 9
21 1 4 58.89 10.3
-21 1 -4 67.29 10.8
-21 -1 -4 55.99 10.3
21 -1 4 51.29 9.7
-21 -1 -4 47.8 10
-21 1 -5 20.1 6.5
21 1 5 16.7 5.2
21 1 5 16.7 7.3
-21 -1 -5 26.4 8.4
-21 -1 -5 6.1 7.4
21 -1 5 20.1 7.3
21 1 6 2.3 5
21 1 6 4.8 3.8
-21 1 -6 6.2 5.7
21 -1 6 3 3
-21 -1 -6 -0.2 5
21 -1 6 -0.2 5.1
21 1 7 -9.1 4.8
21 1 7 0.5 3.8
-21 -1 -7 -0.4 6
21 -1 7 -1.7 5.1
21 -1 7 5.6 3.4
-21 1 -8 6.3 6.9
21 1 8 3.3 6.6
-21 -1 -8 5.3 7.3
21 -1 8 5.7 7.1
21 -1 8 9.4 4.5
21 1 9 -9.8 7.2
-21 1 -9 5.9 7.2
21 -1 9 -1.7 6.8
21 -1 9 -1.4 4.3
21 2 -12 4 5
21 -2 -11 30.5 8.7
21 -2 -10 31.2 8
21 2 -9 20.5 3.3
21 -2 -9 9.9 6.4
21 -2 -8 12 6.2
-21 2 7 9.4 8.2
21 -2 -7 9.7 5.3
-21 2 6 1.3 7
21 -2 -6 10.5 4.7
-21 2 5 170.18 16.4
21 -2 -5 169.98 11.6
-21 2 4 34.9 8.4
21 -2 -4 50.09 7.3
21 2 -3 18.7 2.8
-21 2 3 25.9 7.2
21 -2 -3 24.6 5.8
-21 2 2 5.1 4.2
21 2 -2 -1.7 2.2
-21 -2 2 1.1 2.3
21 -2 -2 2.1 3.6
21 2 -1 14.8 3.9
-21 -2 1 5.2 4.3
-21 -2 1 9.3 3.8
21 -2 -1 12 4.9
21 2 0 2.9 3.5
-21 2 0 0.3 2.2
-21 2 0 8.7 4.7
-21 -2 0 -1 3.4
-21 -2 0 2.4 3.8
21 -2 0 6.5 4.8
21 2 1 5.3 4
-21 2 -1 2.3 2.9
-21 2 -1 2.6 4.2
-21 -2 -1 0.1 3.9
21 -2 1 -4 3.6
-21 -2 -1 2.2 4.4
21 2 2 19.8 6.2
-21 2 -2 20.1 6.9
-21 2 -2 24.6 5
-21 -2 -2 25.2 6.6
-21 -2 -2 31.6 7.9
21 -2 2 31.1 7.5
21 2 3 -1.9 4.5
-21 2 -3 4.4 3.9
-21 2 -3 -2.7 4.5
-21 -2 -3 -2 5.2
-21 -2 -3 4.3 5.4
21 -2 3 3 5.7
-21 2 -4 74.99 8.5
21 2 4 68.29 11
-21 2 -4 70.49 11.6
21 2 4 65.49 7.7
-21 -2 -4 68.99 12.3
21 -2 4 73.49 11.7
-21 -2 -4 65.69 10.4
21 2 5 33.3 9.3
-21 2 -5 31.8 6.9
21 2 5 29.1 6
-21 -2 -5 28.9 9.2
-21 -2 -5 30.5 8.8
21 2 6 15.3 5.7
21 2 6 16.4 7.2
-21 2 -6 29.7 7.4
21 -2 6 16.5 7.4
-21 -2 -6 21.5 9.1
21 2 7 7.5 6.7
21 -2 7 5.5 6
21 -2 7 -2.9 2.7
-21 -2 -7 8.3 7.4
21 2 8 -4.6 6.2
-21 2 -8 -4.2 4.9
21 -2 8 -1.6 2.8
21 -2 8 -6.9 5.1
-21 -2 -8 -11.4 5.9
21 2 9 -3.4 7.1
-21 2 -9 7.5 6.3
-21 -2 -9 -4.4 8.3
21 -2 9 6.3 4.3
21 -2 9 10.1 7.1
21 3 -11 0.5 1.9
21 -3 -9 13.9 6.8
-21 3 6 80.79 13.4
-21 3 5 4.8 6.4
21 -3 -5 5.2 4.7
-21 3 4 27.5 7.7
21 -3 -4 0.9 4.2
-21 3 3 79.69 11.5
21 -3 -3 88.79 9.6
21 3 -2 13.7 3.2
-21 3 2 6.5 5
21 -3 -2 5.2 5.1
-21 -3 2 14.3 3.1
-21 -3 2 18.2 5.8
21 3 -1 2.8 3
-21 3 1 4.6 4.3
-21 -3 1 8 3.6
21 -3 -1 7 4.7
-21 -3 1 -2.9 4
-21 3 0 4.3 5.2
-21 3 0 15.4 4.6
21 3 0 1.7 3.2
21 -3 0 2.5 4.8
-21 -3 0 6.4 5
-21 -3 0 -1.4 3.2
21 3 1 123.19 10.3
-21 3 -1 123.39 12
-21 3 -1 115.99 7.3
-21 -3 -1 127.29 10.3
21 -3 1 141.29 12.3
-21 -3 -1 124.29 12.6
-21 3 -2 51.19 9.3
21 3 2 47.2 8.3
-21 3 -2 47.1 5.8
-21 -3 -2 60.99 9.3
21 -3 2 40.8 8.8
-21 -3 -2 58.99 10
-21 3 -3 60.19 6.6
21 3 3 65.69 10.2
-21 3 -3 66.39 11
21 3 3 57.29 7
-21 -3 -3 49.5 10.2
-21 -3 -3 68.99 10.4
21 -3 3 48.3 9.8
21 3 4 21.1 6.7
21 3 4 20.4 5.3
-21 3 -4 19.6 4.4
-21 -3 -4 2.1 6.4
21 -3 4 19.5 7.7
-21 -3 -4 18.4 8.6
-21 3 -5 11.3 4.3
21 3 5 9.6 6.3
21 3 5 6 5.1
-21 -3 -5 14.3 8.3
21 -3 5 8.8 6.4
21 3 6 14 8.1
-21 3 -6 8 4.3
21 -3 6 8.6 6.5
21 3 7 0.4 5.3
-21 3 -7 2.8 4.1
21 -3 7 -3 5.4
-21 -3 -7 9.4 8.5
21 3 8 0.3 6.8
-21 -3 -8 -10.4 6.5
21 -3 8 18.8 8.8
21 3 9 12.3 9.7
-21 3 -9 0.4 3.3
21 -3 9 7.7 4.3
-21 -3 -9 12 9.7
21 -4 -8 50.09 10.9
-21 4 5 -0.4 6.8
21 -4 -5 -1 4.4
-21 4 4 10.9 7
21 -4 -4 19.6 6.7
-21 4 3 91.79 12.5
21 -4 -3 109.59 10.8
-21 -4 3 99.49 10.1
-21 4 2 3.3 4.7
-21 -4 2 -0.6 4.3
21 -4 -2 0.8 4.7
-21 -4 2 1.9 2.2
-21 4 1 57.39 10
21 4 -1 46.8 6.4
21 -4 -1 58.49 9.7
-21 -4 1 44.8 5.8
-21 -4 1 44.8 8.4
21 4 0 8.6 4.4
-21 4 0 1.8 3.8
-21 -4 0 7.5 5.6
-21 -4 0 6 4.2
21 -4 0 13.3 6.1
-21 4 -1 21.7 4.4
-21 4 -1 35.7 4.2
-21 4 -1 24.5 7.8
21 4 1 33.5 7.2
21 -4 1 25.6 7.8
-21 -4 -1 27.9 8.4
-21 -4 -1 38.3 6.6
-21 4 -2 43.7 4.2
-21 4 -2 39.2 4.4
21 4 2 37.3 8
-21 4 -2 27.5 8.4
-21 -4 -2 30 7.4
-21 -4 -2 54.49 10.1
21 -4 2 45.1 9.6
21 4 3 -1.4 2.8
21 4 3 10.2 5.5
-21 -4 -3 -5.8 4.8
21 -4 3 9.4 6.1
-21 -4 -3 3.4 5
21 4 4 38.8 9.1
-21 -4 -4 70.59 11.2
21 -4 4 34.8 9
-21 -4 -4 48.1 10.6
21 4 5 21.2 8
21 -4 5 27.1 8.5
-21 -4 -5 19.2 9.3
21 4 6 8.9 7.1
21 -4 6 1 6.3
-21 -4 -6 10.7 8.2
21 4 7 -1.7 6.6
-21 -4 -7 4.8 8.9
21 -4 7 -3.5 5.4
21 4 8 -6.2 6.6
21 -4 8 18.6 8
-21 -4 -8 -14.9 7
21 4 9 3.2 8.3
21 -4 9 -9.1 7
-21 -4 -9 11.3 9.5
-21 5 6 -7.8 6.2
21 -5 -5 51.49 10.4
-21 5 4 117.29 13.6
21 -5 -4 127.99 13.1
-21 -5 4 110.19 11.1
-21 5 3 4.4 5.1
-21 -5 3 6.8 5.5
21 -5 -3 1.8 4.6
-21 5 2 0.2 4.4
21 -5 -2 1.8 5.1
-21 -5 2 6.5 2.7
-21 -5 2 -7.5 4.5
-21 5 1 11.4 5
-21 -5 1 17.4 7.1
21 -5 -1 20.9 7.2
-21 -5 1 10.2 3.8
-21 5 0 2.9 3.7
-21 -5 0 -3.1 3.4
21 -5 0 2.5 5.4
-21 -5 0 1.2 6.8
-21 5 -1 33.8 3.1
21 5 1 40.1 7.9
-21 5 -1 47.5 4.1
-21 -5 -1 52.89 8.1
-21 -5 -1 39.2 10
21 -5 1 32.8 8.9
21 5 2 9.2 5.5
-21 -5 -2 0.8 8.3
-21 -5 -2 10.2 6.1
21 -5 2 24.2 7.7
21 5 3 10 6.6
-21 -5 -3 -5.1 9.9
21 -5 3 5.2 5.9
-21 -5 -3 20.7 10.5
21 5 4 6.9 6.2
-21 -5 -4 3.8 8
-21 -5 -4 -3 6.5
21 -5 4 8.9 7
21 5 5 32.1 10.1
-21 -5 -5 48.1 12.8
21 -5 5 31.1 9.4
21 5 6 10.6 8.4
-21 -5 -6 7.2 7.9
21 -5 6 9.6 7
21 5 7 3.1 7.1
-21 -5 -7 17.2 10.8
21 -5 7 15.4 7.8
21 5 8 -3.9 7.5
-21 -5 -8 -8.6 7.6
-21 6 6 12.1 8.5
-21 6 5 23.2 8.6
21 -6 -5 14.2 8
-21 -6 5 29.2 7.8
-21 6 4 5.7 6.1
-21 -6 4 8.8 6.3
21 -6 -4 10.8 7
-21 6 3 -8.4 4.4
21 -6 -3 6.5 5.3
-21 -6 3 6.1 5.8
-21 6 2 13.7 5.7
-21 -6 2 5 3.1
21 -6 -2 14.4 6.3
-21 6 1 8.4 4.1
-21 -6 1 -1.1 3.3
21 -6 -1 -0.6 5.3
-21 6 0 0.3 2.6
-21 -6 0 1.9 4
-21 -6 0 2 5.9
-21 -6 -1 9.1 4.8
-21 -6 -1 8.5 7.6
21 -6 1 13.5 6.9
21 -6 2 40.9 10
-21 -6 -2 37.7 10.8
-21 -6 -2 53.19 9
-21 -6 -3 35.6 8.1
21 -6 3 34 9.7
-21 -6 -3 45.2 12.1
21 -6 4 7.7 7.2
-21 -6 -4 4.9 9.6
21 6 5 1.7 5.5
-21 -6 -5 -2.6 7.8
21 -6 5 -0.4 5.9
21 6 6 20.8 8.9
-21 -6 -6 3 9.2
21 -6 6 12.8 7
21 6 7 2.9 7.1
21 -6 7 -0.9 6.5
-21 -6 -7 12.5 10.6
-21 -6 -8 42.9 15
-21 -7 7 -5.3 5.5
21 -7 -6 3.7 6
-21 -7 6 -3.9 5.1
-21 7 5 11.4 7.8
-21 -7 5 3.9 6.1
21 -7 -5 2.6 5.5
-21 7 4 4.9 6.3
21 -7 -4 -2.1 4.8
-21 -7 4 -0.8 6.3
-21 7 3 4.8 5.8
-21 -7 3 14.5 1.9
-21 -7 3 19.3 7.6
21 -7 -3 11.4 6.3
-21 7 2 24.2 6.5
21 -7 -2 12 7.3
-21 -7 2 8.6 7.3
-21 -7 2 20 4.2
-21 7 1 50.99 6.9
-21 -7 1 30.2 5.9
21 -7 -1 38.6 9.7
-21 -7 1 35.2 10.4
-21 7 0 1.8 2.1
-21 -7 0 2 6.6
21 -7 0 13.5 7.3
-21 -7 0 6.7 4.1
21 -7 1 7.9 6.7
-21 -7 -1 2.5 7.1
-21 -7 -1 4 4.7
21 -7 2 60.09 11.9
-21 -7 -2 70.99 12.6
-21 -7 -2 59.19 12.6
21 -7 3 43.7 10.3
-21 -7 -3 42.8 12.5
-21 -7 -3 46.2 9.8
21 -7 4 1.5 7.1
-21 -7 -4 12.5 10.8
-21 -7 -5 2.3 8.4
21 -7 5 8.1 7.6
21 -7 6 -6.8 6.3
-21 -7 -6 10.7 10.2
-21 -7 -7 -10.1 8.7
21 -7 7 -13.6 5.8
-21 -8 8 -0.4 6
-21 -8 7 -8.5 5.8
21 -8 -6 7.3 7.6
-21 -8 6 1.1 5.8
-21 8 5 2.5 7
-21 -8 5 10.9 7.9
21 -8 -5 6.2 6.6
-21 8 4 -5.5 5.6
21 -8 -4 6.9 6.4
-21 -8 4 -4.8 5.9
-21 8 3 -0.7 5.4
21 -8 -3 -4.8 4.7
-21 -8 3 2.6 2.3
-21 -8 3 1.4 2.4
-21 -8 3 -5.8 6
-21 8 2 22.7 6.5
-21 -8 2 41.3 10.3
21 -8 -2 46.6 11.4
-21 8 1 8.7 3.4
21 -8 -1 -0.6 5.7
-21 -8 1 -1 3.8
-21 -8 1 -5.1 6.7
-21 -8 0 2.4 4.5
-21 -8 0 1.6 7
21 -8 0 7.9 7.5
21 -8 1 -9.6 5.9
-21 -8 -1 -1.4 7.9
-21 -8 -1 0.2 4.6
-21 -8 -2 1.6 5.9
21 -8 2 1.9 6.7
-21 -8 -2 1.3 8.1
-21 -8 -3 66.09 14.8
21 -8 3 30.5 10
21 -8 4 13.8 8.6
-21 -8 -4 -7.3 8.8
21 -8 5 2.9 8.2
21 -8 6 -4.6 6.8
-21 -8 -6 1.6 10.7
21 -9 -6 18.5 9.6
-21 -9 6 -7.4 6.1
-21 -9 5 5.2 7.9
21 -9 -5 14.3 7.1
-21 9 4 -4 6.7
21 -9 -4 17.2 8
-21 -9 4 -7.7 7.1
-21 9 3 -6.3 5.7
21 -9 -3 8 6.6
-21 -9 3 1 3
-21 -9 3 8.2 8.2
-21 -9 3 0.5 2.9
-21 9 2 -8.8 3.3
-21 -9 2 4 7.5
21 -9 -2 -12.3 4.4
-21 -9 2 -0.3 3.6
-21 9 1 -1.1 2.2
-21 -9 1 -13.5 5.9
21 -9 -1 12.3 8.3
-21 -9 1 3.4 4.4
21 -9 0 -1.3 6.4
-21 -9 0 6.2 8.8
-21 -9 0 5 5.5
-21 -9 -1 3.5 10.1
21 -9 1 21.3 9
-21 -9 -1 21.1 6.4
21 -9 2 -9.9 4.9
-21 -9 -2 3.7 7.7
21 -9 3 -0.2 7.8
-21 -9 -3 -4.4 10.1
-21 -9 -4 -0.9 8.6
21 -9 4 11.9 8.2
-21 10 4 -0.4 8.3
21 -10 -4 0 7.9
-21 -10 4 2.3 7.4
-21 10 3 -8.3 5.4
-21 -10 3 13 9.6
21 -10 -3 1.6 6.7
-21 -10 3 -1.9 3.2
-21 10 2 6.9 4.1
-21 -10 2 11.1 4.6
21 -10 -2 13.4 7.6
-21 -10 2 10.2 10.4
-21 -10 2 3.2 4
-21 10 1 1.4 2.1
-21 -10 1 16.5 6.7
-21 -10 1 6.1 10.3
21 -10 -1 2.9 9
21 -10 0 15.8 9
-21 -10 0 -2.7 14.7
-21 -10 0 6.1 6
21 -10 1 -1.7 6.5
-21 -10 -1 4.5 9.9
-21 -10 -2 -6 8
21 -10 2 1.5 7.5
22 0 -12 -5.8 5.3
22 0 -11 0.8 4.6
22 0 -10 26.6 6.2
22 0 -9 -2.7 3.5
22 0 -8 11.6 4.4
22 0 -7 1.1 3.1
22 0 -7 -0.9 2.9
-22 0 6 167.48 17
22 0 -6 157.38 10.1
22 0 -6 170.48 9.6
22 0 -5 -1.5 2.6
-22 0 5 8 7.1
22 0 -4 53.79 6
22 0 -3 -3 2.6
22 0 -2 4.7 3.5
22 0 -1 0 3.9
-22 0 1 2.7 3.5
22 0 0 46 7.2
-22 0 0 25.2 5.5
-22 0 0 26.1 6.2
-22 0 -1 -1.2 3.6
22 0 1 -5.6 2.7
-22 0 -1 -0.7 4.2
-22 0 -2 477.95 23.1
-22 0 -2 467.55 20.5
22 0 2 475.45 22.4
22 0 3 3.7 4.8
-22 0 -3 -1.4 4.3
-22 0 -3 6.5 6.3
-22 0 -4 170.38 14.6
-22 0 -4 177.38 16.2
22 0 4 180.18 15
22 0 5 6.9 3.6
22 0 5 19.4 7.1
-22 0 -5 -4 4.7
22 0 6 19.8 5.2
22 0 6 11.4 7.3
-22 0 -6 17.2 7.7
-22 0 -7 -2.3 5.9
22 0 7 -4.3 5.3
22 0 7 6.2 4.2
22 0 8 -5.3 4.2
22 0 8 1.8 6.2
-22 0 -8 11.7 7.2
22 0 9 -7.6 6.3
22 1 -12 7.5 5.1
22 -1 -12 -3.8 6.5
22 1 -11 -4.8 2.9
22 -1 -10 8.7 6.2
22 1 -9 22.2 4.3
22 -1 -9 36 7.1
22 1 -8 44.4 4.9
22 1 -8 44.7 5.3
22 -1 -8 42.1 7.7
22 1 -7 50.39 4.8
22 1 -7 41.8 4.7
22 -1 -7 46.2 7.6
22 1 -6 49.8 4.6
-22 1 6 49.6 11.3
22 1 -6 55.49 4.8
-22 -1 6 42.6 10.4
22 1 -5 259.57 10.3
-22 1 5 292.77 24
22 -1 -5 286.67 14
22 1 -4 133.89 7.3
-22 1 4 154.98 14
22 -1 -4 121.89 9.6
22 1 -3 207.28 9.9
22 -1 -3 209.38 12.7
22 1 -2 195.58 10.1
22 -1 -2 178.68 12
-22 -1 2 172.38 10
22 1 -1 30.3 5.3
-22 1 1 26.2 5.8
-22 -1 1 30.8 5.7
22 -1 -1 21.2 5.6
-22 -1 1 28.6 8
22 1 0 26.9 5.9
-22 1 0 22.2 4.4
-22 1 0 22.4 6
-22 -1 0 29.4 6.4
-22 -1 0 29.8 6.3
22 -1 0 36.2 7.2
-22 1 -1 -1 3.2
-22 1 -1 2.5 4.1
22 1 1 10.7 4.5
-22 -1 -1 14.6 5.4
22 -1 1 4 4.4
-22 -1 -1 1.4 4.7
-22 1 -2 114.89 10.5
-22 1 -2 127.09 12.2
22 1 2 140.39 11.4
-22 -1 -2 115.09 11.4
-22 -1 -2 130.79 11.7
22 -1 2 116.49 11.4
-22 1 -3 39.3 8.8
22 1 3 28.8 7.3
-22 1 -3 27.4 6.7
-22 -1 -3 24.6 7.4
-22 -1 -3 20.9 7.1
22 -1 3 30.1 7.5
22 1 4 5.9 5.8
-22 1 -4 -6.5 4.1
-22 1 -4 8.7 6.1
22 -1 4 5.9 6.1
-22 -1 -4 -8.6 4.9
-22 -1 -4 1.2 5.5
-22 1 -5 33.1 8.2
22 1 5 27 9
22 1 5 34.6 6.1
-22 -1 -5 21 7.6
-22 1 -6 9.4 5.9
22 1 6 -2.4 4.5
22 1 6 -4.5 3.3
22 -1 6 -2.9 5.6
22 -1 6 -0.1 2.9
-22 -1 -6 -2.3 5.5
-22 1 -7 4.2 5.3
22 1 7 7.5 6.3
22 1 7 -2 3.5
22 -1 7 -11.2 5.5
22 -1 7 -1.4 2.8
-22 -1 -7 4.6 7.8
22 1 8 10 7.2
-22 1 -8 -1.2 5.8
22 -1 8 4.3 4
22 -1 8 -4.7 6.1
-22 1 -9 53.69 11.7
22 1 9 47.3 12.9
-22 -1 -9 67.29 14.2
22 -1 9 46.2 8.8
22 -1 9 60.99 15.2
22 2 -11 4.8 3
22 -2 -11 4.4 7.1
22 -2 -10 56.69 9.5
22 2 -9 -1.1 1.4
22 2 -9 0.3 1.5
22 -2 -9 -8.5 4.9
22 -2 -8 76.89 10.8
-22 2 6 21.2 8.3
22 -2 -6 19 5.8
-22 2 5 113.79 13.4
22 -2 -5 104.59 9.4
-22 2 4 68.99 11.6
22 -2 -4 69.09 8.9
-22 2 3 0.3 4.2
22 2 -3 2.8 2.1
22 -2 -3 9.3 4.9
22 2 -2 205.88 9.8
-22 2 2 200.48 14
22 -2 -2 219.08 14
-22 -2 2 214.48 10.1
22 2 -1 4.2 3.1
22 -2 -1 2.5 3.9
-22 -2 1 1 3.2
-22 -2 1 -2.4 3.4
-22 2 0 40.7 7.7
22 2 0 47 7
-22 2 0 36.1 5
-22 -2 0 30.5 6.1
-22 -2 0 45 8
22 -2 0 44.5 8
-22 2 -1 0.3 3.1
22 2 1 7.9 4.4
-22 2 -1 7.7 5
22 -2 1 6.7 5.1
-22 -2 -1 12.4 5.2
-22 -2 -1 7.1 5.8
-22 2 -2 56.89 11.1
-22 2 -2 60.59 7
22 2 2 78.89 10.3
-22 -2 -2 67.79 9.6
22 -2 2 56.49 9.5
-22 -2 -2 61.79 10.3
-22 2 -3 151.78 14.6
-22 2 -3 132.99 10.2
22 2 3 153.68 13.6
22 -2 3 142.49 13.3
-22 -2 -3 136.79 13.7
-22 -2 -3 127.99 14.3
22 2 4 13.1 4.3
22 2 4 -1.4 4.7
-22 2 -4 1.3 4
22 -2 4 -0.6 5.7
-22 -2 -4 -2.4 5.1
-22 -2 -4 7 6.1
22 2 5 150.38 11
-22 2 -5 144.29 12.2
22 2 5 143.59 15.2
-22 -2 -5 121.09 16.4
22 -2 5 132.39 14.6
-22 2 -6 4.9 5.3
22 2 6 4.7 6.3
22 2 6 10.7 4.6
22 -2 6 5 6.1
-22 -2 -6 0 7
22 2 7 1.1 5.4
-22 2 -7 -7 4.4
-22 -2 -7 7.4 9.2
22 -2 7 0.4 5.2
-22 2 -8 0.4 5.4
22 2 8 7.3 6.6
22 -2 8 12.8 7.6
-22 -2 -8 -2.4 7.8
22 -2 8 -3.2 3
-22 2 -9 1.3 5.6
22 2 9 9.8 12.4
22 -2 9 -0.5 3.6
-22 -2 -9 13.9 9.2
22 -3 -9 0.6 6.1
-22 3 6 -0.4 5.8
22 -3 -6 8.7 5.3
-22 3 5 153.38 15.8
22 -3 -5 158.38 12.2
-22 3 4 2.4 4.9
22 -3 -4 2.2 4.1
-22 3 3 22.3 7.3
22 -3 -3 36.1 7.1
-22 3 2 12.2 6.1
22 3 -2 11 3.3
-22 -3 2 6 2.9
-22 -3 2 9 5.2
22 -3 -2 14.4 5.7
-22 3 1 11.2 5.3
22 3 -1 21.7 4.8
-22 -3 1 15.2 5.7
-22 -3 1 11.9 4.1
22 -3 -1 15.1 6.5
-22 3 0 -3 3.3
22 3 0 4.8 3.6
-22 3 0 1.7 4.7
22 -3 0 1.3 4.8
-22 -3 0 2.1 5.2
-22 -3 0 -0.6 3.5
22 3 1 2.5 3.9
-22 3 -1 2.1 2.9
22 -3 1 6 5.8
-22 -3 -1 2.8 5.1
-22 -3 -1 0.1 4.4
-22 3 -2 41.8 8.1
-22 3 -2 36.1 5.2
22 3 2 21.9 6.5
-22 -3 -2 37.8 7.6
-22 -3 -2 21.4 7.8
22 -3 2 27.7 8.1
22 3 3 8.4 5.5
-22 3 -3 7.6 3.6
-22 3 -3 7.7 6.3
-22 -3 -3 1.5 6
-22 -3 -3 -5.2 5.1
22 -3 3 7.3 6.1
22 3 4 6.2 4.1
-22 3 -4 0.2 3.5
22 3 4 6.2 5.7
-22 -3 -4 5.3 7
-22 -3 -4 18.9 8.3
22 3 5 37.1 9.7
-22 3 -5 35.2 5.8
-22 -3 -5 48.4 12
22 -3 5 40.1 9.9
22 3 6 19.9 8.6
22 -3 6 9.7 6.6
-22 -3 -6 19.3 8.2
-22 3 -7 0.9 3.7
22 3 7 1.9 6.1
22 -3 7 0.3 5.8
22 3 8 26.8 10.2
-22 -3 -8 26.9 12.2
22 -3 8 19.7 8.2
-22 3 -9 -9.1 3.3
22 3 9 11.2 15.1
22 -3 9 -14 6.1
-22 -3 -9 -2.4 7.1
22 -4 -8 8.6 6.7
-22 4 6 -2.2 5.3
22 -4 -6 5 4.8
-22 4 5 94.39 16.5
22 -4 -5 120.39 11.8
-22 4 4 -4.5 5.6
22 -4 -4 2.8 4.9
-22 4 3 217.18 16.7
22 -4 -3 204.98 15.3
-22 -4 3 209.68 13.9
-22 4 2 -0.8 4.6
-22 -4 2 8.1 5.1
22 -4 -2 4.9 5.1
-22 -4 2 2.4 2.6
-22 4 1 5.4 4.8
22 4 -1 3 3.4
22 -4 -1 -0.6 4.5
-22 -4 1 -0.4 2.9
-22 -4 1 7.8 5.6
22 4 0 2.7 3.7
-22 4 0 -6.1 2.8
22 -4 0 1.8 5.1
-22 -4 0 -2.8 3.5
-22 -4 0 -1 5.8
22 4 1 32.9 7.1
-22 4 -1 31.5 5.2
-22 4 -1 29.3 4.1
-22 4 -1 25.9 7.8
-22 -4 -1 21.1 7.5
22 -4 1 26.1 7.9
-22 -4 -1 32.2 6.7
-22 4 -2 30.9 8.8
22 4 2 17.2 6.6
-22 4 -2 14 3.1
-22 4 -2 18.3 3.5
-22 -4 -2 -1 7.2
22 -4 2 10 6.4
-22 -4 -2 19.4 6.7
-22 4 -3 75.99 4.2
22 4 3 77.19 11.8
-22 -4 -3 71.59 12.8
22 -4 3 75.69 13.9
-22 -4 -3 75.39 12.5
22 4 4 13.2 6.5
22 -4 4 5.1 6
-22 -4 -4 15.6 8.1
22 -4 5 4.2 6.4
-22 -4 -5 29.5 11.1
22 4 6 -1.4 6.2
-22 -4 -6 1.4 8.3
22 -4 6 1.3 6.4
22 4 7 -0.7 6.4
-22 -4 -7 -2.6 7.4
22 -4 7 7.1 7.1
22 4 8 -6.8 6
-22 -4 -8 -1.7 8.3
22 -4 8 -6.4 5.6
-22 5 6 10.5 7.2
22 -5 -6 -2.7 3.8
-22 5 5 25 9.5
22 -5 -5 29.2 8
-22 5 4 -9.5 4.5
22 -5 -4 4.8 5.2
-22 5 3 8.9 5.8
-22 -5 3 14.8 6.5
22 -5 -3 23.6 7.2
-22 5 2 32 7.4
-22 -5 2 31.1 8.4
22 -5 -2 42 8.9
-22 -5 2 46 4.6
-22 5 1 37.8 7
-22 -5 1 43.8 5.9
22 -5 -1 34.5 8.4
-22 -5 1 27.8 8.1
-22 5 0 26.2 5.2
22 -5 0 12.2 6.5
-22 -5 0 29.4 9
-22 -5 0 30.9 5.9
22 5 1 0.4 4.6
-22 5 -1 1.4 2.4
-22 5 -1 5 2
-22 -5 -1 5 4.6
-22 -5 -1 11.5 7.7
22 -5 1 4.3 6.1
22 5 2 170.18 14.5
-22 -5 -2 195.78 14
22 5 3 21.7 7.4
22 -5 3 3.4 6
-22 -5 -3 7 6.7
-22 -5 -3 11 8.2
22 5 4 23.8 8.8
-22 -5 -4 39.5 11
22 -5 4 32.6 9.3
-22 -5 -4 35.7 10.9
22 5 5 0 5.5
22 -5 5 7.5 5.9
-22 -5 -5 14.6 9.1
22 5 6 0.8 6.5
22 -5 6 -8.2 5.2
22 5 7 6.7 9.3
-22 -5 -7 5.7 10.5
22 -5 7 -11.6 4.9
22 5 8 13.7 10.2
22 -5 8 -7 8
-22 -5 -8 33.3 13.1
22 -6 -6 35.6 8.9
-22 6 5 -0.6 6.3
-22 -6 5 -5 4.8
22 -6 -5 2.8 5.6
-22 6 4 -5.2 5.5
22 -6 -4 -0.7 5.6
-22 -6 4 0.1 5.1
-22 6 3 3.7 5.2
-22 -6 3 4.2 6
-22 6 2 12.1 5.7
-22 -6 2 0 5.1
-22 -6 2 0.9 2.5
-22 6 1 -3.3 3.5
-22 -6 1 -0.5 4.6
-22 -6 1 -4.8 5.8
-22 6 0 7.5 3.5
22 -6 0 7.4 6.4
-22 -6 0 4.1 6.5
-22 -6 0 6.2 4.3
-22 -6 -1 2.7 4.9
22 -6 1 -4.7 4.9
-22 -6 -1 3.9 6.9
-22 -6 -2 -2.8 7.7
-22 -6 -2 3.8 5.4
22 -6 2 4 6.2
22 -6 3 21.4 8.3
-22 -6 -3 18 7.1
-22 -6 -3 13.3 9.2
-22 -6 -4 12.1 9.4
22 -6 4 17.8 8.4
22 6 5 24.1 8.8
-22 -6 -5 47.2 13.1
22 -6 5 33.4 10.3
22 6 6 9.4 7.5
22 -6 6 1.6 6.4
-22 -6 -6 25.5 13
22 6 7 -7.1 7.8
-22 -6 -7 21.7 12
-22 -7 7 19.8 7.6
22 -7 -6 13.9 7.6
-22 -7 6 -3.7 5.5
-22 7 5 7.1 7.8
-22 -7 5 6.9 6
22 -7 -5 11.8 7.1
-22 7 4 3.6 6.9
22 -7 -4 8.1 6.7
-22 -7 4 7.2 6.4
-22 7 3 40.4 8.1
22 -7 -3 19.5 7.1
-22 -7 3 27 8.1
-22 7 2 24.9 6.9
-22 -7 2 8.4 3.4
-22 -7 2 -1.4 5.5
22 -7 -2 17.6 7.2
-22 7 1 -1.2 3.7
-22 -7 1 0 3.4
-22 -7 1 9.2 7.7
22 -7 -1 6.8 6.4
-22 7 0 0.4 1.7
-22 -7 0 -1 4.5
-22 -7 0 -3.9 6.1
22 -7 0 -12.4 4.9
-22 -7 -1 0 5.3
-22 -7 -1 -2 6.8
-22 -7 -2 21.3 7.7
-22 -7 -2 28.1 10.4
22 -7 2 20.6 8.3
-22 -7 -3 11.1 8.7
-22 -7 -3 13.3 9.2
22 -7 3 9.1 6.8
-22 -7 -4 11 11.2
22 -7 4 3.8 6.6
-22 -7 -5 10.2 10.2
22 -7 5 -6.7 6.7
-22 -7 -6 -13 9.1
-22 -8 8 3.8 6.5
-22 -8 7 -2.3 5.8
22 -8 -7 0 6.7
-22 -8 6 3 7.7
22 -8 -6 0.1 6.4
-22 8 5 17.2 9.1
22 -8 -5 18.7 8.3
-22 -8 5 31.9 9.6
-22 8 4 5.7 8.2
-22 -8 4 -7.6 5.7
22 -8 -4 0.7 5.5
-22 8 3 5.5 5.4
-22 -8 3 5 7.4
-22 -8 3 4.6 2.2
-22 -8 3 10.1 2.2
22 -8 -3 9.5 6.7
-22 8 2 14.7 5.4
-22 -8 2 4.5 3.8
22 -8 -2 0.3 5.7
-22 -8 2 -1.8 6.7
-22 8 1 -3.5 2.5
-22 -8 1 -2.7 7.1
-22 -8 1 3.9 4.3
22 -8 -1 6.2 6.1
-22 -8 0 -0.1 4.8
-22 -8 0 7.4 8
22 -8 0 1.7 6.3
22 -8 1 40.6 10.4
-22 -8 -1 39.5 12.2
-22 -8 -1 52.19 9
-22 -8 -2 -10.3 5.9
-22 -8 -2 -6.6 6.9
22 -8 2 -3 6.3
22 -8 3 10.5 7
-22 -8 -3 8.2 8.9
-22 -8 -4 -3.5 7.7
22 -8 4 15.4 7.7
-22 -8 -5 -5.2 9.2
22 -8 5 4.1 6.9
22 -9 -6 13.2 12.9
-22 -9 6 3.2 8.3
-22 -9 5 15.4 9.5
22 -9 -5 13.7 8.7
-22 9 4 -8.6 6.4
-22 -9 4 -2.6 7.2
-22 9 3 12.5 6.9
-22 -9 3 7.9 8.1
-22 -9 3 -0.6 2.6
-22 -9 3 8.6 3.4
22 -9 -3 4.2 6.4
-22 9 2 0.3 3.6
-22 -9 2 4 3.7
-22 -9 2 -14.6 5.2
-22 -9 2 -4.3 3.7
22 -9 -2 3.9 5.7
-22 9 1 5.8 2.2
-22 -9 1 3.7 8
-22 -9 1 -6.7 4
22 -9 -1 -4.3 6.2
-22 -9 0 27.3 7.3
-22 -9 0 33.4 11.3
22 -9 0 32.7 11
-22 -9 -1 9.2 6.3
22 -9 1 3.8 6.4
-22 -9 -1 6.1 8.6
-22 -9 -2 -4 9.1
22 -9 2 4 7.1
22 -9 3 26.6 9.9
-22 -9 -3 9.5 10.7
-22 10 3 7.7 6.5
-22 -10 3 -1.4 3
22 -10 -3 0.3 6.8
-22 10 2 3.1 4.3
22 -10 -2 8.4 7.4
-22 -10 2 -7.6 5.6
-22 -10 2 -2.7 3.9
-22 -10 1 -5.7 4.8
22 -10 -1 3.9 6.4
-22 -10 0 -1.7 5.1
-22 -10 0 10.1 9.1
22 -10 0 0.1 7.4
-22 -10 -1 -3.3 9.2
22 -10 1 7 7.2
23 0 -12 12.7 6.1
23 0 -11 4.1 4.4
23 0 -10 27.8 6.2
23 0 -9 -1.4 3.5
23 0 -8 -1.5 3.9
23 0 -8 5 3.5
23 0 -7 -0.9 3.2
23 0 -7 -3 2.4
23 0 -6 55.29 6.4
23 0 -6 62.89 6.4
-23 0 6 71.79 13.2
-23 0 5 -4.2 6.1
23 0 -5 -2 2.9
23 0 -4 75.79 7.3
23 0 -3 0.9 3
23 0 -2 4.9 3.9
23 0 -1 5.5 4
-23 0 1 -0.5 3.5
23 0 0 11.6 4.6
-23 0 0 4.9 4.2
-23 0 0 9 4.7
23 0 1 -4.3 3
-23 0 -1 -7.3 4
-23 0 -1 8.3 4.7
23 0 2 -2.1 4.1
-23 0 -2 2.1 4.2
-23 0 -2 6.4 5.7
-23 0 -3 2.1 4.7
-23 0 -3 1.1 4.5
23 0 3 0.1 5.2
23 0 4 139.39 13.9
-23 0 -4 146.49 14.6
-23 0 -4 132.09 12.9
-23 0 -5 14 6.6
23 0 6 17.8 4.8
23 0 6 23.7 8.5
-23 0 -6 36.1 9.1
23 0 7 -0.5 3.5
-23 0 -7 -1.8 6.3
23 0 7 -7.1 6.1
23 0 8 -2 6.4
-23 0 -8 1.7 7
23 0 8 -9.2 3.3
-23 0 -9 0.4 7.3
23 -1 -12 14.8 8
23 1 -11 6.3 3.5
23 -1 -11 -5.5 5.7
23 -1 -10 27.3 7.1
23 1 -9 8.3 3.3
23 1 -9 9.4 3.3
23 -1 -9 2.5 4.6
23 1 -8 3.4 2.6
23 1 -8 2.4 2.7
23 -1 -8 1.3 4.6
23 1 -7 0.1 2.1
23 1 -7 0.8 2.2
23 -1 -7 -3.2 4
23 -1 -7 -2.3 3.2
23 1 -6 9.1 2.7
-23 1 6 4.9 6.7
23 -1 -6 9.2 4.7
-23 -1 6 9.7 8.4
-23 1 5 66.19 12.4
23 1 -5 63.09 5.3
-23 1 4 179.18 15.5
23 1 -4 179.58 8.7
23 1 -3 273.87 12
23 -1 -3 286.47 15.2
23 1 -2 15.5 4.2
23 -1 -2 23.3 5.6
-23 -1 2 14 4.2
-23 1 1 7.5 4.7
23 1 -1 9.6 4.1
23 -1 -1 11.9 4.9
-23 -1 1 11.1 4.5
-23 -1 1 14.5 4.7
23 1 0 52.29 7.3
-23 1 0 44.9 6.2
-23 1 0 47.9 8.1
-23 -1 0 49.3 7.8
23 -1 0 54.49 8.5
-23 -1 0 40.1 6.9
23 1 1 67.49 9.1
-23 1 -1 54.59 9.1
-23 1 -1 57.09 7.5
23 -1 1 52.49 8.8
-23 -1 -1 68.19 9.4
-23 -1 -1 50.69 8.2
-23 1 -2 0 3.7
23 1 2 -3.2 3.9
-23 1 -2 -0.2 5.8
-23 -1 -2 -1.1 4.5
23 -1 2 -0.2 5
-23 -1 -2 -7.7 4.2
-23 1 -3 133.19 11.7
23 1 3 105.49 11.5
-23 1 -3 94.79 13.1
-23 -1 -3 112.29 12.4
23 -1 3 99.49 11.6
-23 -1 -3 152.08 24.4
-23 1 -4 29.1 7.1
-23 1 -4 26.7 11.2
23 1 4 24.9 7.7
23 -1 4 18.6 7.1
-23 -1 -4 22.4 7.6
-23 -1 -4 9.1 6.9
-23 1 -5 31.8 7.4
-23 -1 -5 27.9 9
23 -1 5 21 7.5
23 1 6 7.8 5.6
-23 1 -6 -9.5 5.4
23 1 6 -2.1 3.6
23 -1 6 15.7 7.4
-23 -1 -6 6.4 6.7
23 1 7 7.9 6.9
-23 1 -7 -5.5 5.1
-23 -1 -7 18.7 7.9
23 -1 7 -5.2 5.6
23 -1 7 1.8 3.3
23 1 8 1.2 6.4
-23 1 -8 9.1 6.7
23 -1 8 13.5 8
-23 -1 -8 -9.3 6.7
23 1 9 15.2 9.4
-23 1 -9 15.5 9.2
23 -1 9 -13.2 6.9
23 -1 9 12.2 5.1
-23 -1 -9 14.5 9.1
23 2 -11 -2.5 2.5
23 -2 -11 -1.6 6.3
23 2 -10 -0.3 1.4
23 2 -10 -2.2 1.4
23 -2 -10 -1 5.8
23 -2 -9 7.8 5.1
23 -2 -8 75.59 10.7
23 -2 -7 2.8 4.4
-23 2 6 -0.9 5.9
23 -2 -6 -1.2 3.6
23 -2 -5 154.08 11.4
-23 2 4 88.69 12.9
23 2 -4 67.29 3.5
23 -2 -4 81.59 8.7
-23 2 3 -0.4 5
23 2 -3 4.8 2.3
23 -2 -3 10.1 5.2
23 2 -2 13.4 3.5
-23 -2 2 6 4.3
23 -2 -2 17.8 5.8
-23 -2 2 12.4 3.7
23 2 -1 0.7 3.2
-23 -2 1 1.2 3.5
23 -2 -1 1.3 4.8
-23 -2 1 -3.2 3.4
-23 2 0 21.1 6.7
23 2 0 33 7.1
-23 -2 0 27.3 6.7
-23 -2 0 24.4 5.8
23 -2 0 21.6 6.7
23 2 1 1.4 4
-23 2 -1 -0.1 3
-23 2 -1 1.8 5.2
-23 -2 -1 -6.3 4.2
-23 -2 -1 -1.3 4.4
23 -2 1 -3.6 4
-23 2 -2 -3.1 4.6
23 2 2 -8.4 3.5
-23 2 -2 7.9 4.1
23 -2 2 1.7 4.8
-23 -2 -2 3.9 5.9
-23 -2 -2 4.8 5.2
23 2 3 49.8 9.4
-23 2 -3 58.99 10.9
-23 2 -3 54.79 7.9
-23 -2 -3 58.29 10.4
23 -2 3 43.2 9.1
-23 -2 -3 54.49 11.1
23 2 4 15.2 6.8
-23 2 -4 8.6 5
-23 -2 -4 16.2 8.5
-23 -2 -4 6.2 6.6
23 -2 4 13.1 6.6
23 2 5 13.5 4.6
23 -2 5 13.2 7.2
-23 -2 -5 20.2 8.4
-23 2 -6 0.2 4.6
23 2 6 2.8 6.2
23 -2 6 -7 5.1
-23 -2 -6 8 6.6
23 2 7 -6 5.4
-23 2 -7 7.6 5.2
-23 -2 -7 7.2 8.3
23 -2 7 -3.4 6.3
-23 2 -8 17.1 6.8
23 2 8 7.7 7.3
-23 -2 -8 -3.1 7.6
23 -2 8 -5 7.3
-23 2 -9 3 5.2
23 2 9 18.5 9.6
23 -2 9 14.8 4.7
-23 -2 -9 -10.4 7.5
23 -2 9 8.3 8.1
23 -3 -9 7.5 6.9
23 -3 -8 12.1 6.1
-23 3 6 -3.7 6.2
23 -3 -6 3.4 4.7
23 -3 -5 34.4 7.5
-23 3 4 331.17 21.7
23 -3 -4 374.56 19.1
-23 3 3 22.7 7.4
23 -3 -3 15.3 6
23 3 -2 42.6 5.1
-23 3 2 32.8 7.8
23 -3 -2 45.9 8.7
-23 -3 2 34 4.6
-23 -3 2 28.6 7
-23 3 1 47.2 8.5
23 3 -1 57.29 6.5
-23 -3 1 54.49 6.8
-23 -3 1 38.8 7.7
23 -3 -1 64.99 10.4
23 3 0 19.8 6.4
-23 3 0 17 3.6
-23 3 0 20.2 6.2
-23 3 0 17.2 7.3
23 -3 0 10.9 6
-23 -3 0 21.2 7.1
-23 -3 0 21.7 5.1
-23 3 -1 11.8 6.6
-23 3 -1 -1.2 2.8
23 3 1 -1 4.1
23 -3 1 -1.3 4.6
-23 -3 -1 -1.1 4
-23 -3 -1 -3.1 4.9
23 3 2 76.39 10.4
-23 3 -2 74.19 7.2
-23 3 -2 73.19 11.5
23 -3 2 76.89 11.8
-23 -3 -2 96.29 13
-23 -3 -2 86.69 9.7
23 3 3 168.18 14.4
-23 3 -3 158.08 10.1
-23 -3 -3 151.78 15.5
23 -3 3 164.88 14.7
-23 -3 -3 145.89 16.3
23 3 4 117.69 11.9
-23 3 -4 110.49 9
23 3 4 106.39 14.3
23 -3 4 95.59 13.8
-23 -3 -4 101.59 15
-23 -3 -4 107.09 14
-23 3 -5 7.2 3.9
23 3 5 26.5 10
23 -3 5 19.6 8.3
-23 -3 -5 8.8 14.1
23 3 6 -7.5 5
-23 3 -6 -6.5 3.6
-23 -3 -6 -5 6.7
23 -3 6 4.5 6.1
23 3 7 -3.7 6.5
-23 -3 -7 15 9.7
23 -3 7 6.8 6.9
23 3 8 1 8.3
23 -3 8 0.7 7
-23 -3 -8 14.8 10.7
23 -4 -8 23.1 10.6
-23 4 6 -6.5 6.6
23 -4 -6 1 4.9
-23 4 5 43.5 12
23 -4 -5 30.1 7.4
-23 4 4 34.9 9.5
23 -4 -4 23 6.6
-23 4 3 37.9 9
23 -4 -3 51.39 9.3
-23 -4 3 47.7 8.7
-23 4 2 3.5 5.1
-23 -4 2 3.1 2.5
23 -4 -2 -4.9 4
-23 -4 2 0.3 4.8
-23 4 1 14.2 5.7
23 4 -1 10.4 4
-23 -4 1 17.1 6.8
-23 -4 1 9.6 4
23 -4 -1 6.9 6.6
-23 4 0 7.7 4.3
-23 -4 0 11.2 6
-23 -4 0 2.8 4.1
23 -4 0 2.8 5.5
23 4 1 0.6 4.2
-23 4 -1 0.8 2.5
-23 4 -1 12.7 7.1
-23 4 -1 6.7 3.4
-23 -4 -1 5.7 4.7
-23 -4 -1 0.9 5.7
23 -4 1 6.1 5.9
-23 4 -2 137.19 8
23 4 2 114.29 12
-23 4 -2 129.09 7.4
-23 -4 -2 111.89 15.3
23 -4 2 113.59 13.4
-23 -4 -2 124.09 11.8
-23 4 -3 1.2 2.1
-23 4 -3 -2.3 2.2
23 4 3 3.7 5.1
23 -4 3 -2.6 5.1
-23 -4 -3 -1 5.9
-23 -4 -3 1.2 7
23 4 4 7.6 5.7
-23 -4 -4 8.4 7.1
-23 -4 -4 -2.8 6.6
23 -4 4 6.6 6.1
23 4 5 8.7 6.9
23 -4 5 5.9 7
-23 -4 -5 8.9 8.5
23 4 6 -1.6 7.5
-23 -4 -6 12.7 8.5
23 -4 6 1.7 6.5
23 4 7 11 8.1
-23 -4 -7 0.4 8.6
23 -4 7 -0.6 6.3
23 4 8 31.1 11.4
-23 -4 -8 21 10.3
23 -4 8 33 11.8
-23 5 6 0.2 7.2
23 -5 -6 5 5
-23 5 5 -1.2 5.8
23 -5 -5 -3.4 3.8
-23 5 4 43.6 9.7
-23 -5 4 25.3 7.1
23 -5 -4 31.1 7.7
-23 5 3 5.6 6
23 -5 -3 9.3 6.8
-23 5 2 110.89 11.2
-23 -5 2 99.49 14.6
-23 -5 2 113.99 6.6
23 -5 -2 97.59 12.8
-23 -5 1 28.4 5.1
-23 -5 1 25.8 8.5
23 -5 -1 29.3 8.2
-23 5 0 -1.1 3.1
23 -5 0 -3 4.7
-23 -5 0 -2.4 3.7
-23 5 -1 41.8 3.8
-23 5 -1 33.2 4.5
23 5 1 34.3 7.5
23 -5 1 31.6 10.2
-23 -5 -1 40.7 15.9
23 5 2 -1.2 4.6
23 -5 2 7.2 7
-23 -5 -2 0.1 5.5
-23 -5 -2 -8.7 7.3
23 5 3 144.39 14.5
23 -5 3 122.49 14.3
-23 -5 -3 109.59 16.4
-23 -5 -3 126.19 12.9
23 5 4 4.2 5.7
23 -5 4 1.9 5.7
-23 -5 -4 3.7 7.4
23 5 5 1.2 6.4
-23 -5 -5 -1.9 8.2
23 -5 5 0.2 6.3
23 5 6 20.6 8.8
-23 -5 -6 18.3 10.1
23 -5 6 12.1 7.7
23 5 7 -10.2 7.3
-23 -5 -7 -3.5 7.6
23 -5 7 -4.8 6.4
23 -5 8 1.1 7.5
-23 -5 -8 -17.1 7.8
23 -6 -7 2.5 5.2
23 -6 -6 67.49 11.6
-23 6 5 49.99 10.9
23 -6 -5 38.4 9
-23 -6 5 52.79 9.9
-23 6 4 32.9 8.7
23 -6 -4 12.1 6.5
-23 -6 4 18 6.9
-23 6 3 4.4 5.8
23 -6 -3 3.9 5.7
-23 -6 3 -0.3 5.6
-23 6 2 0.3 4.2
-23 -6 2 -3.1 2.5
-23 -6 2 -5.2 4.9
23 -6 -2 -4.2 4.3
-23 6 1 11.4 4.9
-23 -6 1 20.3 8
23 -6 -1 17.7 7.7
-23 6 0 25.4 4.6
-23 -6 0 31.3 6.7
23 -6 0 26.3 8.4
-23 -6 0 18.1 8.2
-23 -6 -1 20 8.7
23 -6 1 19.8 8.2
-23 -6 -1 24.5 6.7
-23 -6 -2 12 8.8
23 -6 2 10.6 6.8
-23 -6 -2 5.5 5.6
-23 -6 -3 -11.9 6
-23 -6 -3 0 6.3
23 -6 3 -1.6 6
23 -6 4 3.6 7.2
-23 -6 -4 15.1 9.4
23 6 5 -1.6 6.6
23 -6 5 -0.1 6.1
-23 -6 -5 -2.8 8
23 6 6 1.5 7.2
23 -6 6 0.9 6.7
-23 -6 -6 -8.2 6.9
23 6 7 2.5 7.9
23 -6 7 7.1 7.7
-23 -7 7 12.1 7.7
23 -7 -7 31.5 9.3
-23 -7 6 -4.3 5.8
23 -7 -6 -4 5.3
-23 7 5 18.6 8.5
23 -7 -5 -6.6 4.4
-23 -7 5 -11.7 5.2
-23 7 4 9.9 7.1
23 -7 -4 4.6 5.7
-23 -7 4 6.1 6.3
-23 7 3 -3.4 5.4
-23 -7 3 -0.3 5
23 -7 -3 -7 4.7
-23 7 2 38.8 8.1
-23 -7 2 37.1 5
23 -7 -2 31.4 8.3
-23 -7 2 33.1 10.1
-23 7 1 73.69 7.8
-23 -7 1 60.79 7.7
23 -7 -1 50.89 10.5
-23 -7 1 48.3 11.1
23 -7 0 -1.3 5.8
-23 -7 0 0.6 4.4
-23 -7 0 -3.8 6.2
23 -7 1 3 6.9
-23 -7 -1 -2.2 5.4
-23 -7 -1 2.1 7.3
-23 -7 -2 33.1 7.7
-23 -7 -2 26.1 10.9
23 -7 2 25 8.9
-23 -7 -3 -6.4 8.4
23 -7 3 2.6 6.6
-23 -7 -4 11.6 10.3
23 -7 4 -4.3 6.5
23 -7 5 -2.2 6.9
-23 -7 -5 10.4 9.8
-23 -7 -6 25.5 11.3
23 -7 6 17.8 8.6
23 -8 -7 1.2 6.9
-23 -8 7 32.2 9.3
23 -8 -6 21.9 8.6
-23 -8 6 11.3 7.3
-23 8 5 15.5 8.3
-23 -8 5 8.4 6.8
23 -8 -5 -7.2 5.2
-23 -8 4 16.7 8.3
23 -8 -4 3.9 6.8
-23 8 3 7.5 6.7
-23 -8 3 12.5 8.2
23 -8 -3 24.6 7.8
-23 8 2 2.8 4.7
-23 -8 2 11.4 7.5
-23 -8 2 0.2 3.2
23 -8 -2 -6.9 4.9
-23 8 1 0 2.2
-23 -8 1 -1.2 3.6
-23 -8 1 5.1 8
23 -8 -1 45 11.3
-23 -8 0 6.7 4.6
-23 -8 0 -10.8 7
23 -8 0 -0.3 6.2
23 -8 1 10.2 8.1
-23 -8 -1 13.6 9.2
-23 -8 -2 4.3 7.6
-23 -8 -2 -13.4 5.9
23 -8 3 8.3 7.4
-23 -8 -3 9.6 10.6
23 -8 5 -12.6 5.2
-23 -8 -5 1.3 11
-23 -9 5 9.6 9.1
-23 9 4 1 6.9
23 -9 -4 10.9 6.1
-23 -9 4 1 7.9
-23 9 3 -8.2 5.3
23 -9 -3 -8.5 4.9
-23 -9 3 6.7 2.3
-23 -9 3 0.5 7.6
-23 -9 3 4.4 2.3
-23 9 2 8.4 4.1
-23 -9 2 10.7 8
23 -9 -2 -9 5.2
-23 -9 2 3.8 3.7
-23 9 1 3.8 2
23 -9 -1 4.1 6
-23 -9 1 -12.3 7.5
-23 -9 1 0.4 4.3
-23 -9 0 -12.4 5.2
-23 -9 0 -7.3 7.6
23 -9 0 -10.6 5.9
-23 -9 -1 4 8.6
-23 -9 -1 -13.2 5.9
23 -9 1 0.6 7.4
-23 -9 -3 4.2 11
23 -9 3 -2.4 7.1
24 0 -11 -1.1 3.7
24 0 -10 -2.2 3.8
24 0 -9 -2.7 3.3
24 0 -8 6.3 5.4
24 0 -8 2.3 3.7
24 0 -7 2.8 3.2
24 0 -7 -1.9 3.2
24 0 -6 91.29 7.7
-24 0 5 -4.7 5.2
24 0 -5 -2.3 2.7
24 0 -4 181.18 11
24 0 -3 -3.2 3.1
24 0 -2 324.67 16.1
24 0 -1 -0.5 3.7
-24 0 1 2.7 3.4
-24 0 1 3.3 3.7
-24 0 0 79.09 9.3
24 0 0 67.79 9
-24 0 0 68.09 8.2
-24 0 -1 -3.7 4
24 0 1 2.7 4.4
-24 0 -1 1.5 4.9
-24 0 -2 174.28 12.7
24 0 2 181.38 14.3
-24 0 -2 173.98 14
24 0 3 -7.6 3.8
-24 0 -3 -2.5 4.9
-24 0 -3 -1.9 5.3
-24 0 -4 56.79 9.5
24 0 4 44.6 10.2
-24 0 -5 -2 5.4
24 0 5 1.1 5.6
-24 0 -6 -2.1 5.8
24 0 6 -7.4 4.4
24 0 7 10 7.5
-24 0 -7 8.7 7.2
24 0 7 -1.4 3.3
-24 0 -8 1.2 7.6
24 0 8 -0.9 5.9
24 0 9 12.3 8.7
24 1 -11 -5.5 3.7
24 -1 -11 19.4 7
24 -1 -10 7.2 5.7
24 1 -9 23.4 3.7
24 1 -9 23.9 4.1
24 -1 -9 23 6.1
24 1 -8 31 4
24 1 -8 33.4 4.3
24 -1 -8 27.2 6.1
24 -1 -8 29.1 6.9
24 1 -7 12.5 3.1
24 1 -7 15.8 3.2
24 -1 -7 11.8 4.8
24 -1 -7 18.6 5.2
24 1 -6 -4.5 2
24 1 -6 0.6 2.2
-24 1 6 -0.1 6.4
24 -1 -6 -4.1 3.2
24 1 -5 568.94 17.6
-24 1 5 539.65 29.6
24 -1 -5 583.84 25
-24 1 4 203.48 18.3
24 1 -4 217.48 9.9
24 -1 -4 234.18 13.7
24 1 -3 21.4 4.4
24 -1 -3 20.4 5.8
24 1 -2 79.69 7.2
24 -1 -2 65.49 8.8
-24 -1 2 81.09 8.1
24 1 -1 10 4.3
-24 1 1 7.5 4.7
-24 -1 1 8.3 4.6
24 -1 -1 6.6 5.1
-24 -1 1 16.3 4.8
24 1 0 72.99 9.1
-24 1 0 66.59 7.3
-24 1 0 58.39 9
-24 -1 0 82.59 8.9
24 -1 0 66.49 9.6
-24 -1 0 84.89 10.2
24 1 1 7 4.8
-24 1 -1 2.3 5
-24 1 -1 6 3.8
24 -1 1 -1.2 4.3
-24 -1 -1 6.5 5.3
-24 -1 -1 -3.9 4.6
-24 1 -2 -22.6 8.6
24 1 2 0.8 4.3
-24 1 -2 6.5 4.4
24 -1 2 -3 4.3
-24 -1 -2 -1.8 4.7
-24 -1 -2 -3.6 4.6
24 1 3 106.69 13.2
-24 1 -3 103.29 10.9
-24 1 -3 95.19 13.1
24 -1 3 103.69 13.7
-24 -1 -3 104.59 12.4
-24 -1 -3 112.49 14.3
24 1 4 3.3 5
-24 1 -4 10.4 5.6
-24 -1 -4 10.3 6.5
-24 -1 -4 8.4 6.9
24 -1 4 11.7 6.3
-24 1 -5 33.8 8.5
24 1 5 14.6 7.6
24 -1 5 34.4 8.2
-24 -1 -5 33.9 9.9
-24 1 -6 5.6 5.5
24 1 6 -4.1 3.2
24 1 6 -0.9 4.8
24 -1 6 -1.8 5.8
-24 -1 -6 -5.9 5.7
24 1 7 -0.5 6.7
-24 1 -7 -4.1 5.5
24 -1 7 5.3 6.8
-24 -1 -7 11.1 7.9
24 1 8 9.5 7.7
-24 1 -8 8.5 7.7
24 -1 8 10.5 4.3
24 -1 8 5.6 8
-24 -1 -8 15.7 9.3
-24 1 -9 4 8.1
24 1 9 -12.3 6.4
-24 -1 -9 14.7 10.9
24 -1 9 -7.9 3.7
24 -1 9 -3.5 7.3
24 2 -11 1.1 2.2
24 2 -11 2.6 2
24 -2 -11 27.6 9
24 -2 -10 27.1 7.8
24 -2 -9 2.8 5.6
24 -2 -8 -8.6 4.1
24 -2 -7 1.8 4.2
-24 2 6 14.4 7.7
24 -2 -6 -2.7 3.4
-24 2 5 413.46 26
24 -2 -5 377.06 18.6
24 2 -4 63.49 3.7
-24 2 4 37.5 9.9
24 -2 -4 85.59 9.4
24 2 -3 213.78 9.3
-24 2 3 226.28 17.1
24 -2 -3 207.88 13.8
24 2 -2 64.19 6.2
-24 -2 2 66.19 6.5
-24 -2 2 67.39 8.1
24 -2 -2 78.29 10.4
24 2 -1 -0.9 3.1
-24 -2 1 -6.4 3.3
-24 -2 1 2.2 4.6
24 -2 -1 -4.6 4.1
-24 2 0 117.39 11.3
24 2 0 124.69 10
-24 2 0 132.89 9
-24 -2 0 131.29 11.9
24 -2 0 128.29 11.9
-24 -2 0 114.69 10.2
24 2 1 -0.8 4
-24 2 -1 11.3 7
-24 -2 -1 0.6 5
-24 -2 -1 2.1 4.6
24 -2 1 -0.5 4.8
-24 2 -2 19 7
-24 2 -2 -0.2 3.9
24 2 2 2.6 4.4
-24 -2 -2 6.3 6
24 -2 2 11.4 5.8
-24 -2 -2 5.9 5.4
-24 2 -3 101.29 10
-24 2 -3 112.49 15.1
24 2 3 118.49 12.6
24 -2 3 92.39 13
-24 -2 -3 104.39 14.3
-24 -2 -3 126.69 12.7
24 2 4 9.1 6.4
24 -2 4 5.1 6.2
-24 -2 -4 4.2 6.2
-24 -2 -4 15.6 7.2
24 2 5 8.6 7.2
-24 2 -5 2 5.1
24 2 5 7.9 4.1
-24 -2 -5 15.1 7.6
24 -2 5 10.3 6.4
24 2 6 12 6.4
-24 2 -6 0 4.5
24 -2 6 -4.9 5.2
24 2 7 11.1 7.6
-24 2 -7 6.7 5.4
-24 -2 -7 -10.7 6.5
24 -2 7 -3 5.8
-24 2 -8 1.8 5.1
24 2 8 0.2 6.3
24 -2 8 -3.1 6.6
-24 -2 -8 -8.2 6.3
24 -3 -9 -11.6 5.7
24 -3 -8 1.6 5.5
24 -3 -7 6.4 4.8
-24 3 6 104.79 16
24 -3 -6 111.69 10.6
-24 3 5 2.8 6.9
24 -3 -5 14.4 5.4
-24 3 4 366.56 23.6
24 -3 -4 376.76 19.6
-24 3 3 3.9 5.5
24 -3 -3 1.5 4.9
24 3 -2 184.98 9.6
-24 3 2 179.88 14.9
-24 -3 2 210.58 14.1
24 -3 -2 180.28 14.4
-24 -3 2 203.18 9.6
24 3 -1 29.5 5.5
-24 3 1 22.7 6.8
-24 -3 1 25.4 5.1
24 -3 -1 18.4 6.9
-24 -3 1 18.2 6.5
24 3 0 -3.4 3.2
-24 3 0 2.9 5.8
-24 3 0 -6 3.1
-24 3 0 2.3 3.1
24 -3 0 1.8 5.1
-24 -3 0 -3 4.5
-24 -3 0 1.3 3.9
-24 3 -1 7 5.7
24 3 1 12.4 5.4
-24 3 -1 11.5 4.1
-24 -3 -1 5 5.9
-24 -3 -1 13.6 5.6
24 -3 1 11 6.4
24 3 2 40.3 8.3
-24 3 -2 44.3 9.5
-24 3 -2 38.6 6.3
-24 -3 -2 32 9
-24 -3 -2 49.6 9
24 -3 2 21.4 7.5
-24 3 -3 -2 3.4
24 3 3 5.1 4.7
24 -3 3 6.1 6.5
-24 -3 -3 7.9 6.4
-24 -3 -3 5.8 6.9
24 3 4 85.89 12.9
-24 3 -4 76.29 8.1
-24 -3 -4 79.49 13.7
24 -3 4 69.79 12.4
-24 -3 -4 74.39 12
24 3 5 45.5 10.6
-24 3 -5 43.8 6.7
-24 -3 -5 49.99 12
24 -3 5 32.5 9.8
-24 3 -6 4.8 3.7
24 3 6 -4.7 5.5
-24 -3 -6 15.5 8.8
24 -3 6 5.9 6.1
24 3 7 27.5 9.4
-24 3 -7 -0.4 3.4
-24 -3 -7 8 9.1
24 -3 7 25.7 9.3
24 3 8 -7 8
-24 -3 -8 -8.2 7.7
24 -4 -7 14.1 6
-24 4 6 -6.6 7.2
24 -4 -6 2.8 4.6
-24 4 5 -0.4 6.1
24 -4 -5 -5.1 3.9
-24 4 4 6.6 6
24 -4 -4 3.9 5.1
-24 4 3 40.4 9.3
24 -4 -3 56.49 10.3
-24 -4 3 46.4 8.8
-24 4 2 39.1 8.5
24 -4 -2 43.9 9
-24 -4 2 47.3 4.9
-24 -4 2 41.2 8.4
-24 4 1 7 4.4
24 4 -1 6.1 3.5
24 -4 -1 3.8 5.3
-24 -4 1 2.8 5.8
-24 -4 1 -3.3 3.3
24 4 0 -0.7 3.4
-24 4 0 3 2.8
-24 4 0 -5.3 3.6
24 -4 0 -0.8 5.9
-24 -4 0 1.2 4
-24 -4 0 6.8 6.1
-24 4 -1 27.6 10.5
24 4 1 66.99 9.7
-24 4 -1 61.89 5.9
-24 4 -1 36.7 6.3
24 -4 1 46.2 9.6
-24 -4 -1 51.79 9.9
-24 -4 -1 43.5 8.2
-24 4 -2 -1.9 2.7
24 4 2 -1.2 4.4
-24 4 -2 -0.5 2.8
-24 -4 -2 2.6 6.3
-24 -4 -2 5 5.4
-24 4 -3 105.99 6.3
24 4 3 129.69 12.8
-24 4 -3 103.29 6.3
-24 -4 -3 133.29 15.8
-24 -4 -3 93.29 12.7
24 -4 3 126.89 14.2
24 4 4 -5.8 4.4
-24 -4 -4 7 7.9
24 -4 4 3.5 5.1
24 4 5 1.4 7.3
-24 -4 -5 7.5 8.6
24 -4 5 7.1 6.8
24 4 6 0.4 6.9
24 -4 6 5.8 6.2
-24 -4 -6 2.2 8.1
24 4 7 11.9 9.8
-24 -4 -7 -12.5 8.3
24 -4 7 2.7 5.8
24 4 8 9.8 10.7
24 -4 8 4.8 8
-24 -4 -8 34.3 13.6
24 -5 -7 9.8 6.7
24 -5 -6 3.1 5.2
-24 5 5 -10.9 5.6
24 -5 -5 0.7 4.9
-24 5 4 81.29 13.1
-24 -5 4 63.49 10.2
24 -5 -4 84.09 12
-24 5 3 69.29 11.7
24 -5 -3 115.79 13
-24 -5 3 120.29 12.9
-24 5 2 31.3 7.7
-24 -5 2 19.7 7.5
24 -5 -2 28.4 8.7
-24 -5 2 30.1 4.1
-24 5 1 6.4 4.9
-24 -5 1 -1.3 6
-24 -5 1 0.5 3.3
24 -5 -1 5.7 6.5
-24 5 0 11.8 4.6
-24 5 0 11.3 3
-24 -5 0 11.6 4.8
-24 -5 0 22.9 8.5
24 -5 0 1.4 5.9
24 5 1 15.2 5.9
-24 5 -1 8.7 2.7
-24 5 -1 10.9 3.4
24 -5 1 14.8 7.2
-24 -5 -1 4.3 6.8
-24 -5 -1 11.7 5.6
24 5 2 50.59 9.6
-24 -5 -2 66.89 10.5
24 -5 2 43.3 10
-24 -5 -2 23.3 10.4
24 5 3 31.8 8.8
-24 -5 -3 27.1 9.1
24 -5 3 14.1 8.3
-24 -5 -3 24.8 9.4
24 5 4 11.6 8.4
-24 -5 -4 10.6 8.2
24 -5 4 7.7 6.3
24 5 5 -7.2 6.8
24 -5 5 1.3 6.2
-24 -5 -5 7.9 8.7
24 5 6 17.2 9.3
-24 -5 -6 3.1 8.8
24 -5 6 7.4 7.6
24 5 7 14.4 8.6
-24 -5 -7 28.1 11.7
24 -6 -7 15.9 7.1
24 -6 -6 4.8 5.8
-24 -6 6 4.3 6
-24 6 5 50.49 12
24 -6 -5 43.4 9.7
-24 -6 5 26.4 8.6
-24 6 4 51.09 10.4
24 -6 -4 45.6 9.2
-24 -6 4 39.5 9
-24 6 3 5.3 5.8
-24 -6 3 1.9 7
24 -6 -3 5.1 5.9
-24 6 2 1.2 4.9
-24 -6 2 -5 2.4
24 -6 -2 2.3 5.9
-24 -6 2 3.6 6
-24 6 1 75.09 9
-24 -6 1 74.29 12.2
24 -6 -1 78.39 12.4
-24 6 0 44.1 4
-24 6 0 40.1 5.5
-24 -6 0 26.2 9.5
24 -6 0 37.9 10.4
-24 -6 0 51.39 8.1
-24 -6 -1 45 8.5
-24 -6 -1 27.4 10
24 -6 1 39.3 10
24 -6 2 4.9 6.4
-24 -6 -2 8.1 8.4
-24 -6 -3 19.3 7.6
24 -6 3 13.5 7.8
-24 -6 -3 4.2 8.5
24 6 4 32 9
-24 -6 -4 35.5 11.4
24 -6 4 23.5 8.9
24 6 5 6.8 7.1
-24 -6 -5 5.4 8.5
24 -6 5 7.6 7.7
24 6 6 6.5 7.1
-24 -6 -6 21.2 10.9
24 -6 6 0.2 10.4
24 -7 -8 7.9 6.8
24 -7 -7 6.3 7.4
-24 -7 7 6.8 6.9
24 -7 -6 17.4 8.6
-24 -7 6 15.7 7.2
-24 7 5 -14.8 6.6
-24 -7 5 6.6 6.3
24 -7 -5 1.5 5.6
-24 7 4 -8.4 5.7
24 -7 -4 -1.9 4.5
-24 -7 4 -15.7 6.4
-24 7 3 49.8 9.4
24 -7 -3 39.2 9.9
-24 -7 3 26.5 9
-24 7 2 20.6 6.9
24 -7 -2 11 6.9
-24 -7 2 22.1 9
-24 7 1 53.09 7.1
-24 -7 1 55.99 11.8
-24 -7 1 43.1 6.8
24 -7 -1 38.9 11.1
-24 -7 0 -0.6 6.6
-24 -7 0 1.7 4.4
24 -7 0 5.3 6.9
-24 -7 -1 22.6 6.9
-24 -7 -1 -10 6.3
24 -7 1 10.9 7.2
-24 -7 -2 8.7 6.5
24 -7 2 -6.4 5.3
-24 -7 -2 -0.7 7.9
-24 -7 -3 27.4 11.6
24 -7 3 12.7 7.8
24 -7 4 -1.8 8
-24 -7 -4 -12 7.3
-24 -7 -5 -9.7 9.7
-24 -8 7 3.4 11.3
24 -8 -7 0.7 7.6
-24 -8 6 0.9 6.8
24 -8 -6 9.4 7.7
-24 8 5 -5.8 8
-24 -8 5 3.1 7.2
24 -8 -5 3 6.8
-24 -8 4 1.5 6.6
24 -8 -4 7.2 7.3
-24 8 3 9.2 7.1
24 -8 -3 12.6 7.6
-24 -8 3 9.1 8.8
-24 8 2 8.5 4.3
24 -8 -2 -7.5 5.2
-24 -8 2 -1.6 3.4
-24 -8 2 5.7 7.9
-24 8 1 -3.7 2.1
24 -8 -1 3.4 6.8
-24 -8 1 -14.2 6
-24 -8 1 -2.4 4.2
-24 -8 0 19.2 6.3
-24 -8 0 1.2 7.6
24 -8 0 2.5 7.1
-24 -8 -1 -1.9 7.6
24 -8 1 -5.2 6.1
-24 -8 -2 9.8 6.4
-24 -8 -2 -2.3 7.8
24 -8 2 6.5 6.2
24 -8 3 18.2 8.9
-24 -8 -3 4.7 9.1
-24 -8 -4 -18.4 9.1
24 -8 4 -1.2 7.4
24 -9 -5 -0.4 8.6
-24 9 4 46.4 10.2
-24 -9 4 27.2 10.9
-24 9 3 -12.2 5.1
24 -9 -3 -7.6 5.9
-24 -9 3 6.7 9.3
-24 9 2 -3.4 3.8
-24 -9 2 5.5 8.8
-24 -9 2 2.3 3.7
24 -9 -2 12.6 8
-24 9 1 -2.7 1.8
-24 -9 1 4.1 4.5
-24 -9 1 -1.2 8.2
24 -9 -1 7.2 7
-24 -9 0 0.6 8.4
24 -9 0 -12.8 5.9
-24 -9 0 16.5 6.1
-24 -9 -1 2.4 7.1
24 -9 2 32.2 12.5
-24 -9 -2 15.4 9.5
25 0 -11 -8.5 4
25 0 -9 4.4 4
25 0 -8 9.4 3.8
25 0 -7 -2.1 2.6
25 0 -7 1.1 3.3
25 0 -6 45.3 6.3
25 0 -5 6.3 3.6
-25 0 5 -6.8 5.7
25 0 -4 971.7 30.4
25 0 -3 -4.7 2.9
25 0 -2 31.5 6.5
25 0 -1 -1.6 3.8
-25 0 1 -4.3 3.1
-25 0 1 -1.3 3.3
-25 0 0 24.6 6.6
25 0 0 30.6 6.8
-25 0 0 33.4 6.8
-25 0 -1 2 5
25 0 1 1.6 4.5
-25 0 -1 -2.4 4
25 0 2 10.4 5.6
-25 0 -2 13.7 5.7
-25 0 -3 -4.1 4.6
25 0 3 2.7 5.3
-25 0 -3 -9 5.9
25 0 4 -4.4 4.3
-25 0 -4 13.6 6.1
-25 0 -5 -1.4 4.7
25 0 5 -6 4.7
-25 0 -6 62.39 11
25 0 6 76.09 12.3
-25 0 -7 -4.1 6.8
25 0 7 -11.1 5
25 0 7 6.1 4
-25 0 -8 8.1 7.6
25 -1 -11 65.29 9.5
25 1 -10 -1.4 2.1
25 1 -10 -1.9 2
25 -1 -10 -9.1 4.9
25 1 -9 -3.5 1.8
25 1 -9 -4.3 1.9
25 -1 -9 9.9 4.4
25 -1 -9 -7.1 3.9
25 1 -8 30.7 3.8
25 1 -8 31.7 4.1
25 -1 -8 35.8 7
25 -1 -8 22.6 6.3
25 1 -7 148.59 7.6
25 1 -7 159.38 7.5
25 -1 -7 146.59 11.5
25 -1 -7 152.38 10.6
25 1 -6 260.07 10.7
25 -1 -6 280.87 14.8
25 1 -5 216.08 9.6
-25 1 5 223.78 19.1
25 -1 -5 241.38 13.6
25 1 -4 483.65 16.7
25 -1 -4 485.25 20.7
25 1 -3 18.1 4.1
25 -1 -3 14.4 5.6
25 1 -2 29.6 5.4
-25 -1 2 42.7 7.3
25 -1 -2 29.9 6.4
25 1 -1 29.5 5.9
-25 1 1 26.9 6.6
-25 -1 1 23.8 5.4
25 -1 -1 21.3 6.3
-25 -1 1 23.1 5.8
-25 1 0 96.69 8.6
-25 1 0 85.09 10.9
25 1 0 84.99 9.2
-25 -1 0 95.19 10.4
25 -1 0 82.39 9.7
-25 -1 0 85.99 9.3
-25 1 -1 16.5 7.2
-25 1 -1 29.1 6.3
25 1 1 22 6.2
-25 -1 -1 29.3 7.5
-25 -1 -1 25.8 6.8
25 -1 1 27.9 8.1
-25 1 -2 44 9.4
25 1 2 44.2 8.2
-25 1 -2 40.9 7.7
-25 -1 -2 47.5 8.5
-25 -1 -2 28 7.9
25 -1 2 38.1 8.5
-25 1 -3 3.1 5
-25 1 -3 -7.8 5.3
25 1 3 -2.6 4.7
-25 -1 -3 4.3 6.3
25 -1 3 -2.9 4.2
-25 -1 -3 2.5 5.6
25 1 4 -5.6 4.2
-25 1 -4 8.4 6.1
-25 -1 -4 13.1 6.9
25 1 5 17.7 7.6
-25 1 -5 16.7 7.4
-25 -1 -5 31.2 9.6
25 -1 5 17.6 8.1
-25 1 -6 9.7 6
25 1 6 12.7 7.5
25 1 6 -0.8 3.3
-25 -1 -6 5.6 7.4
25 -1 6 3.5 5.3
-25 1 -7 7.9 6.7
25 1 7 0 6.5
25 -1 7 10.3 7.1
25 1 8 -5 7
-25 1 -8 -2.8 6.8
-25 -1 -8 -8.2 7.8
25 -1 8 5.9 7.8
25 -2 -11 5.9 7.9
25 -2 -10 4.9 6.4
25 -2 -9 10.7 5.6
25 -2 -8 27.3 7.2
25 -2 -8 19.5 5.9
25 -2 -7 3.3 4.4
25 -2 -6 13 5.1
-25 2 5 199.58 17.9
25 -2 -5 178.78 12.7
-25 2 4 16.6 8.3
25 2 -4 19.5 2.7
25 -2 -4 21.6 6.2
-25 2 3 252.67 18
25 2 -3 220.38 10
25 -2 -3 290.57 16.4
25 2 -2 6 3.2
-25 -2 2 6.9 4.6
-25 -2 2 5.9 3.6
25 -2 -2 6.8 5.2
25 2 -1 12.6 4.4
25 -2 -1 18.2 6
-25 -2 1 14.2 4.5
-25 -2 1 12.4 5.5
-25 2 0 42.6 9.2
-25 2 0 53.89 6.6
25 2 0 45.2 7.4
25 -2 0 40.3 8.8
-25 -2 0 50.89 7.9
-25 -2 0 43.6 8.2
25 2 1 13 5.2
-25 2 -1 9.4 4.2
-25 2 -1 16.8 6.6
-25 -2 -1 9.5 5
25 -2 1 6.7 6.2
-25 -2 -1 14 7.4
25 2 2 104.09 11.3
-25 2 -2 88.99 10.8
-25 2 -2 111.09 12.2
-25 -2 -2 86.19 12.1
25 -2 2 92.39 12.4
-25 -2 -2 103.09 11.9
25 2 3 71.49 11.5
-25 -2 -3 89.19 12
25 -2 3 76.49 12.6
-25 -2 -3 89.79 13.3
-25 2 -4 3.3 4.9
25 2 4 4.5 6.2
25 -2 4 -0.6 4.9
-25 -2 -4 -5.2 6
-25 2 -5 4 4.9
25 2 5 -2.7 5.7
-25 -2 -5 7.9 7.8
25 -2 5 -6.9 4.3
-25 2 -6 3.2 5.1
25 2 6 0.5 5.2
25 -2 6 5.1 6.3
-25 -2 -6 10.7 7.5
25 2 7 7.2 6.9
-25 2 -7 -0.9 5.2
25 -2 7 -1.7 6.2
-25 -2 -7 2 8.1
-25 2 -8 -8.4 4
25 2 8 1.4 7.3
-25 -2 -8 3.9 9.6
25 -3 -9 6.1 6.6
25 -3 -8 3.4 5.7
25 -3 -7 -4.4 3.6
25 -3 -6 94.39 10.7
-25 3 5 -1.7 6.9
25 -3 -5 8.1 5
-25 3 4 201.88 17.7
25 -3 -4 182.88 13.6
-25 3 3 14.8 7.4
25 3 -3 6 2.3
-25 -3 3 9.9 5.7
25 -3 -3 16.5 6.4
-25 3 2 10.1 6.5
25 3 -2 22.7 4.3
-25 -3 2 17.6 4
-25 -3 2 23.3 7.1
25 -3 -2 16.4 5.9
25 3 -1 178.68 10.9
-25 3 1 182.58 14.3
-25 -3 1 199.28 14.8
25 -3 -1 176.48 15.2
25 3 0 0.1 3.8
-25 3 0 3.1 5.7
-25 -3 0 3.4 5.6
25 -3 0 -0.9 4.8
-25 -3 0 7.8 5
25 3 1 -3.1 3.9
-25 3 -1 8.1 6.7
-25 3 -1 -1.7 3.3
-25 -3 -1 6.7 6.8
25 -3 1 6.7 5.5
-25 -3 -1 1.3 4.1
-25 3 -2 74.89 7.7
25 3 2 71.59 10.7
25 -3 2 41.7 9.5
-25 -3 -2 40.8 9.2
-25 -3 -2 66.09 11.6
-25 3 -3 111.99 9.3
25 3 3 128.29 13.2
-25 -3 -3 110.69 14.1
25 -3 3 138.19 13.9
-25 -3 -3 111.19 13.7
25 3 4 95.69 13.6
-25 3 -4 86.29 8.3
25 -3 4 81.09 12.7
25 3 5 -0.8 5.2
-25 3 -5 -0.9 4.2
-25 -3 -5 -11 5.7
25 -3 5 -10.1 4.9
25 3 6 39.3 10.2
25 -3 6 14.5 7.2
-25 -3 -6 23.3 9
25 3 7 6.4 7.1
-25 3 -7 -0.7 3.4
-25 -3 -7 -7.5 7.3
25 -3 7 8.5 6.9
25 3 8 -2.1 12.6
25 -3 8 -1.8 7.4
-25 -3 -8 14.4 10
25 -4 -8 8.5 5.9
25 -4 -7 1.4 4.9
25 -4 -6 16.5 6.4
-25 4 5 16.9 9.4
25 -4 -5 12.8 5.9
-25 4 4 366.46 23.7
25 -4 -4 357.26 20.5
-25 4 3 212.68 17.9
25 -4 -3 225.48 17
-25 4 2 156.98 14
-25 -4 2 153.88 8.1
25 -4 -2 141.69 14.2
-25 4 1 1.7 4.9
25 4 -1 2.8 3.9
-25 -4 1 2 4
-25 -4 1 6.5 6.2
25 -4 -1 6.2 5.9
25 4 0 0.9 3.8
-25 4 0 -0.1 2.6
25 -4 0 -0.2 5.4
-25 -4 0 -1.7 3.9
-25 -4 0 5.8 6.6
-25 4 -1 62.59 6.2
-25 4 -1 71.89 7.7
25 4 1 59.59 9.4
-25 -4 -1 48.9 12.3
-25 -4 -1 57.19 8.7
25 -4 1 49.6 9.7
-25 4 -2 8.9 3.7
25 4 2 13.9 6.9
-25 4 -2 6.2 3.3
-25 -4 -2 4.5 6.5
25 -4 2 7 6
-25 -4 -2 6 5.8
25 4 3 27.8 8.1
-25 4 -3 15.3 3.5
25 -4 3 13.7 7.2
-25 -4 -3 16.7 8.4
-25 -4 -3 12.1 7.3
25 4 4 8.5 6.1
25 -4 4 -0.7 5.3
-25 -4 -4 8.3 8.5
25 4 5 4.3 6.3
25 -4 5 3 6.7
-25 -4 -5 -17 5.9
25 4 6 -2 7
-25 -4 -6 18.9 10
25 -4 6 3.2 7.4
25 4 7 0 8
-25 -4 -7 -9.8 6.5
25 -4 7 7.8 8.2
25 -5 -8 1.4 5.8
25 -5 -7 21.8 8.2
25 -5 -6 6.8 6.6
-25 5 5 38.4 10.5
25 -5 -5 41.1 8.8
-25 -5 5 46.7 9.5
-25 5 4 5.3 6.1
-25 -5 4 2.6 5.3
25 -5 -4 6 6.1
-25 5 3 46.8 9.4
-25 -5 3 40.5 8.7
25 -5 -3 49.8 10.4
-25 5 2 19.9 6.7
-25 -5 2 -0.2 5.7
25 -5 -2 28.2 8.1
-25 -5 2 16.3 3.4
-25 5 1 -4.2 4.4
-25 -5 1 1.9 5.6
25 -5 -1 -0.5 5.8
-25 -5 1 4.8 4.3
-25 5 0 -1.9 3.4
-25 5 0 3.7 2.7
-25 -5 0 0.5 4.4
25 -5 0 1.9 5.8
-25 -5 0 -2.1 6.2
25 5 1 44.8 8.4
-25 5 -1 25.6 4.5
-25 5 -1 29.9 4
-25 -5 -1 34.4 7
25 -5 1 28.8 8.8
-25 -5 -1 44.2 10.6
25 5 2 33.4 8.6
25 -5 2 27.5 8.6
-25 -5 -2 17.6 7
-25 -5 -2 42.2 11.5
25 5 3 8.8 6.5
-25 -5 -3 -8.3 5.2
-25 -5 -3 -2.9 7.1
25 -5 3 -5.7 6.2
25 5 4 4.4 7.6
25 -5 4 16.3 7.9
-25 -5 -4 5.1 7.6
25 5 5 15.3 8.7
25 -5 5 0.9 6
-25 -5 -5 20.8 10.3
25 5 6 6.1 9.2
-25 -5 -6 14.4 11.3
25 -5 6 18.2 8.9
25 5 7 8.1 8.8
-25 -5 -7 -5.5 8.9
25 -5 7 -2.2 6.8
25 -6 -8 -5.5 4.6
25 -6 -7 -11.3 4.1
-25 -6 6 40.6 9
25 -6 -6 30.6 8.5
-25 6 5 -6.8 7.5
-25 -6 5 6.4 5.9
25 -6 -5 -8.5 4.1
-25 6 4 4.8 6.8
-25 -6 4 0.9 6
25 -6 -4 8.3 6.5
-25 6 3 11.2 6.4
-25 -6 3 2.1 6.4
25 -6 -3 3.6 5.4
-25 6 2 7.5 5.6
25 -6 -2 11.7 7.4
-25 -6 2 11.7 7.6
-25 -6 2 9.3 3.2
25 -6 -1 -3.5 4.5
-25 -6 1 -5.4 5.8
-25 6 0 3.1 2.3
-25 6 0 2 3.4
25 -6 0 1.7 5.2
-25 -6 0 -1.5 6.2
-25 -6 0 6.8 4.5
-25 -6 -1 33.2 10.7
25 -6 1 47.2 11.2
-25 -6 -1 55.39 8.9
-25 -6 -2 12 9.3
25 -6 2 -3.7 5.8
-25 -6 -2 3.7 7
-25 -6 -3 11 8.4
-25 -6 -3 -22 10.2
25 -6 3 12.3 7.5
25 6 4 17.6 8
-25 -6 -4 18 9.1
25 -6 4 11 8.1
25 6 5 -9.8 5
25 -6 5 15.5 8
-25 -6 -5 -0.3 8.2
25 6 6 16.6 8.5
-25 -6 -6 13.3 11
25 -6 6 9.1 8
25 -7 -8 16.4 8.6
25 -7 -7 11.7 7.4
-25 -7 7 10.9 7.8
-25 -7 6 3.8 6.3
25 -7 -6 6.8 7.2
-25 7 5 8.3 7.5
25 -7 -5 0.7 5.9
-25 -7 5 -0.4 7.2
-25 7 4 9.4 8.3
25 -7 -4 31.9 8.7
-25 -7 4 8.8 7.6
-25 7 3 14.9 8.2
-25 -7 3 13 8.4
25 -7 -3 15.4 8.1
-25 7 2 12 5.9
-25 -7 2 3.3 7.4
25 -7 -2 15.1 7.4
-25 -7 2 10.1 3.3
-25 7 1 8.5 3.8
-25 -7 1 4.6 3.8
-25 -7 1 3.2 7.9
25 -7 -1 2.9 5.7
-25 -7 0 8.7 5
25 -7 0 22.7 8.9
-25 -7 0 13.1 8.2
-25 -7 -1 14.8 9.3
25 -7 1 -2.3 6.4
-25 -7 -1 -5.6 5.3
25 -7 2 3 6.6
-25 -7 -2 12.1 6.6
-25 -7 -2 5.9 8.9
-25 -7 -3 -7.1 7.5
25 -7 3 5.2 7.3
25 -7 4 13.5 8
-25 -7 -4 23.4 10.4
25 -7 5 -10.8 5.9
-25 -7 -5 14.7 11.6
25 -8 -6 -0.8 6.7
-25 -8 6 2.8 7.2
-25 -8 5 -2.6 6.1
25 -8 -5 -3.3 5.4
-25 8 4 6.2 8
-25 -8 4 12.4 8
25 -8 -4 0 5.8
-25 8 3 -0.9 5.9
25 -8 -3 3.1 6.5
-25 -8 3 -6.7 6.1
-25 8 2 -5.6 3.5
-25 -8 2 3.9 3.5
-25 -8 2 7.6 7.6
25 -8 -2 14.8 7.2
-25 8 1 3.8 2.4
-25 -8 1 4.2 7.4
-25 -8 1 3 4.7
25 -8 -1 0.2 5.8
-25 -8 0 1.7 5.3
-25 -8 0 -3.8 7.8
25 -8 0 6.9 7.8
-25 -8 -1 -7.1 8
-25 -8 -1 11.2 7.6
25 -8 1 4.7 7.5
-25 -8 -2 19.4 11.3
25 -8 2 -0.8 5.6
25 -8 3 2.8 12.8
-25 -8 -4 21.5 11.7
25 -8 4 8.9 7.7
-25 9 4 24.1 9.8
-25 -9 4 22.3 12.7
25 -9 -4 6.6 8.9
-25 9 3 -8.9 5.5
-25 9 2 -2.3 4.2
-25 -9 2 12.2 3.8
-25 -9 1 5.9 5.9
-25 -9 0 -0.7 5.6
25 -9 0 0.9 7
-25 -9 0 -10.2 7.5
-25 -9 -1 -5.1 7.8
-25 -9 -1 13.6 6.6
25 -9 1 8.2 7.7
26 0 -11 1.7 4.1
26 0 -10 5.2 2.9
26 0 -10 -4.7 2.9
26 0 -8 -4.1 3
26 0 -7 -2 2.9
26 0 -7 3 3.3
26 0 -6 -4.2 2.8
-26 0 5 -2.3 5.8
26 0 -5 0.1 3.3
26 0 -4 106.99 8.8
26 0 -3 2 4.4
26 0 -2 107.69 9.4
-26 0 1 -1.3 3.9
26 0 -1 1.6 3.8
-26 0 1 5.7 4.5
-26 0 0 117.09 10.5
26 0 0 112.79 10.8
-26 0 0 76.19 10.1
-26 0 -1 1.6 5.1
-26 0 -1 -2.5 4.3
26 0 1 5 4.5
-26 0 -2 240.38 15.4
-26 0 -2 247.28 17.8
26 0 2 195.28 15.6
26 0 3 1.8 4.8
-26 0 -3 9.5 6.6
-26 0 -3 0.9 5.1
26 0 4 171.18 18.3
-26 0 -4 157.48 15.1
-26 0 -5 -1.1 5.4
26 0 5 2.5 6.3
-26 0 -6 11.1 7.6
26 0 6 1.4 5.5
-26 0 -7 -9.9 6.4
26 0 7 -2.6 6.1
26 1 -11 -1.4 3.3
26 1 -11 -5.5 3.1
26 -1 -11 -8.8 4.8
26 1 -10 1.5 2.2
26 1 -10 -3.1 1.8
26 -1 -10 -0.6 5.6
26 1 -9 2.8 1.7
26 1 -9 2.5 1.5
26 -1 -9 0.8 4.2
26 -1 -9 2 4.8
26 1 -8 12.5 2.7
26 1 -8 20.5 2.9
26 -1 -8 20.9 6.2
26 -1 -8 24.8 5.9
26 1 -7 70.59 5.1
26 1 -7 103.79 5.8
26 -1 -7 85.29 8.6
26 -1 -7 85.79 9.2
26 1 -6 150.98 7.8
26 1 -6 152.88 7.5
26 -1 -6 154.88 11
-26 1 5 9 8.1
26 1 -5 6 2.7
26 -1 -5 -1.4 3.5
26 1 -4 99.59 7.1
-26 1 4 78.09 12.3
26 -1 -4 80.19 9.1
26 1 -3 183.28 10.3
26 -1 -3 197.48 12.9
26 1 -2 34.3 6
26 -1 -2 20.7 6.2
-26 1 1 23.9 5.2
-26 1 1 25.6 7.1
26 1 -1 24.6 5.6
26 -1 -1 27.4 6.7
-26 -1 1 23 6
-26 -1 1 24.2 5.8
-26 1 0 31.7 6.2
26 1 0 24.1 6.4
-26 1 0 35.7 7.6
-26 -1 0 35.1 8
-26 -1 0 38 7.9
26 -1 0 43.7 8.4
-26 1 -1 0.3 4
26 1 1 -0.2 4.1
-26 -1 -1 6.4 5.6
26 -1 1 1.3 5.3
-26 -1 -1 2 5.5
-26 1 -2 -2.9 6.4
26 1 2 4.7 5.1
-26 1 -2 8.1 4.6
26 -1 2 -0.3 4.8
-26 -1 -2 10.9 6
-26 -1 -2 14.3 11.6
-26 1 -3 27.1 7.3
26 1 3 25.3 7.7
-26 -1 -3 24 8.2
-26 -1 -3 34.1 9.4
26 -1 3 29.3 8.3
26 1 4 6.5 7
-26 1 -4 3.3 5.3
-26 -1 -4 3.9 6.6
26 -1 4 1.3 6.3
26 1 5 66.79 12.3
-26 1 -5 61.49 10.5
26 -1 5 78.59 12.9
-26 -1 -5 39.5 11
26 1 6 5.1 6.4
-26 1 -6 -9.5 4.9
26 -1 6 5 5.8
-26 -1 -6 5.8 6.9
-26 1 -7 0.6 6.8
26 1 7 1.1 6.5
-26 -1 -7 -6 6.9
26 -1 7 5.3 7.2
-26 1 -8 -1.6 7.2
26 -1 8 5.6 8.3
-26 -1 -8 3.7 8.4
26 -2 -11 11.3 8.7
26 -2 -10 13.9 7
26 -2 -9 10.5 5.6
26 -2 -9 5.6 5.6
26 -2 -8 -5.9 5
26 -2 -8 1.7 4.3
26 -2 -7 0.1 3.2
26 -2 -6 5.9 4.3
-26 2 5 -4.7 5
26 -2 -5 0 4.1
-26 2 4 0.5 6.3
26 2 -4 4.1 2
26 -2 -4 -0.4 4.2
26 2 -3 2.1 2.6
-26 2 3 1.1 6
26 -2 -3 1 4.9
26 2 -2 72.69 6.8
-26 -2 2 64.69 9.2
26 -2 -2 61.09 9.4
-26 -2 2 77.19 7.3
-26 -2 1 18.5 6.3
-26 -2 1 3.7 3.9
26 -2 -1 16.3 6.4
26 2 0 162.88 12.2
-26 2 0 172.88 10.9
26 -2 0 162.28 14
-26 -2 0 163.48 13.3
-26 -2 0 163.98 12.5
-26 2 -1 -3.9 5.7
-26 2 -1 -1.3 3.9
26 2 1 -4.5 4
-26 -2 -1 15.9 6.2
26 -2 1 1.7 5.9
-26 -2 -1 8.8 6.3
-26 2 -2 110.09 12.8
26 2 2 88.09 11.7
-26 2 -2 114.09 10
26 -2 2 106.29 12.2
-26 -2 -2 103.59 12.1
-26 -2 -2 107.79 12.3
-26 2 -3 1 4.4
26 2 3 1.8 5
-26 -2 -3 -6 6
-26 -2 -3 5.4 6.4
-26 2 -4 41.7 7.8
26 2 4 39.5 9.8
26 -2 4 47.5 10.1
-26 -2 -4 42.3 10.9
26 2 5 -1.9 6.6
-26 2 -5 6.2 5.1
26 -2 5 3.1 6.3
26 2 6 3 5.9
-26 2 -6 -1.6 5
26 -2 6 1.5 6.3
-26 -2 -6 7.4 7.9
-26 2 -7 3.8 4.9
26 2 7 0.3 6.5
26 -2 7 -1.2 5.6
-26 -2 -7 -11.6 7.1
-26 2 -8 -4.5 4.4
26 -2 8 5 7.1
-26 -2 -8 28.9 11.2
26 -3 -9 0 4.7
26 -3 -9 -5.2 7
26 -3 -8 11 5.6
26 -3 -8 13.1 6.6
26 -3 -7 -2.7 4
26 -3 -6 13.6 5.5
-26 3 5 36.1 10.3
26 -3 -5 53.59 8.9
26 -3 -4 37.1 8.2
26 3 -3 16.4 3.1
-26 3 3 6.7 6.3
26 -3 -3 13.7 6.3
-26 -3 3 9.4 6.2
26 3 -2 13.4 3.7
-26 3 2 0 5.3
-26 -3 2 1.4 3
-26 -3 2 -1.8 4.7
26 -3 -2 0.6 4.2
26 3 -1 45.7 6.8
-26 3 1 42.7 8.5
-26 -3 1 46.1 8.9
-26 -3 1 46.6 7
26 -3 -1 51.29 10
-26 3 0 -6.8 2.6
-26 3 0 -15.7 5.3
26 3 0 6 4.2
26 -3 0 1.4 5.5
-26 -3 0 1 5.2
-26 -3 0 7.8 5.1
-26 3 -1 39.7 6.3
26 3 1 59.09 9.1
-26 3 -1 37 9.3
-26 -3 -1 53.29 10.3
-26 -3 -1 53.19 9.1
26 -3 1 36.4 9.4
-26 3 -2 126.99 9.5
26 3 2 125.19 12.5
26 -3 2 104.69 15.9
-26 -3 -2 152.38 15.8
-26 -3 -2 153.28 13.2
26 3 3 9 6.2
-26 3 -3 0 3.8
26 -3 3 -2.6 5.8
-26 -3 -3 10.7 7.2
26 3 4 2.1 6.7
-26 3 -4 8.3 4.3
26 -3 4 3.9 5.4
-26 -3 -4 -3.3 7.6
-26 3 -5 55.69 7.6
26 3 5 51.39 10.9
-26 -3 -5 66.19 13.2
26 -3 5 40.9 10.3
26 3 6 14.8 7.1
-26 3 -6 5 3
-26 -3 -6 9.2 8.2
26 -3 6 -4.2 5.9
26 3 7 53.89 13
-26 -3 -7 36.3 12.3
26 -3 7 41.4 11.4
26 -4 -8 -1.7 6.2
26 -4 -7 27.8 7.5
26 -4 -6 7 5.5
-26 4 5 5.1 6.2
26 -4 -5 -0.3 4.9
-26 4 4 -0.8 6.3
-26 -4 4 3.3 5.3
26 -4 -4 2 5.3
-26 4 3 7.3 6
26 -4 -3 11.3 6.5
-26 -4 3 6.4 6
-26 4 2 8.1 6.7
26 -4 -2 11.5 7
-26 -4 2 11.1 3.2
-26 -4 2 8.8 6.1
26 4 -1 0.2 3.5
-26 4 1 5.6 5.2
26 -4 -1 -3.4 5.5
-26 -4 1 10.8 7.6
-26 4 0 45.3 5.6
-26 4 0 39.8 7.2
26 4 0 45.1 7.5
-26 -4 0 48.4 12
26 -4 0 40.3 9.8
-26 -4 0 44.3 7.4
-26 4 -1 31.6 5.8
26 4 1 27.6 7.2
-26 4 -1 27.3 4.9
-26 -4 -1 22 8.3
-26 -4 -1 17.1 6.6
-26 4 -2 7.2 3.6
26 4 2 6.9 5.7
-26 4 -2 0.5 3.5
-26 -4 -2 5.9 5.5
26 -4 2 -6.8 4.2
-26 -4 -2 9.4 7.5
-26 4 -3 -3.3 2.6
-26 4 -3 1.8 2.8
26 4 3 0 5.7
26 -4 3 4.1 5.2
-26 -4 -3 -7.2 6.1
-26 4 -4 1.4 1.4
26 4 4 4.6 6.4
-26 -4 -4 2.8 7.7
26 -4 4 7.4 6.6
26 4 5 6 7.1
26 -4 5 3.5 6.6
-26 -4 -5 3.5 8.6
26 4 6 1.2 7.2
-26 -4 -6 -5.4 9.2
26 -4 6 5.1 6.5
26 4 7 -7.8 7.1
26 -4 7 3.7 6.6
-26 -4 -7 6.7 9.5
26 -5 -8 -3.3 6
26 -5 -7 -6.4 4.5
26 -5 -6 8 6.5
-26 5 5 -0.6 7.3
-26 -5 5 -4 5.9
-26 5 4 34.3 9.6
-26 -5 4 52.39 9.2
-26 5 3 -10 4.7
26 -5 -3 -0.8 5.2
-26 -5 3 5.2 6
-26 5 2 39.4 8.8
-26 -5 2 30.7 4.4
-26 -5 2 22.8 7.5
-26 5 1 27.8 7
-26 -5 1 11.6 7.4
26 -5 -1 10 6.5
-26 5 0 0.3 2.7
-26 5 0 5.5 4.5
-26 -5 0 -2.6 4.7
26 -5 0 12.4 7.3
-26 -5 0 -1.2 6.9
-26 5 -1 74.79 6.5
26 5 1 96.79 10.4
-26 5 -1 64.29 5.4
-26 -5 -1 54.59 11.8
26 -5 1 42.1 9.9
-26 -5 -1 65.79 9.5
26 5 2 4.8 5.5
-26 -5 -2 -1.1 6.7
-26 -5 -2 -2.6 9.7
26 -5 2 -8.2 4.9
26 5 3 -9.1 6.2
-26 -5 -3 6 6.7
26 -5 3 18.4 8
-26 -5 -3 12.3 8.6
26 5 4 45.1 10.6
26 -5 4 28.3 9.3
-26 -5 -4 15.9 9.9
26 5 5 -2.8 6.3
26 -5 5 13.6 7.6
-26 -5 -5 -1.6 8.4
-26 -5 -6 25.4 12.2
26 -6 -9 -8.8 5.4
26 -6 -8 -1.1 5.9
26 -6 -7 3.8 6.3
26 -6 -6 0 5.1
-26 -6 6 -2.6 6.2
-26 6 5 21.5 9.2
26 -6 -5 23.8 7.4
-26 -6 5 30.5 8.3
-26 6 4 9.2 8.5
26 -6 -4 5 6.3
-26 -6 4 8.3 6.4
-26 6 3 4.3 6.2
-26 -6 3 -2.2 6
26 -6 -3 10.6 6.4
-26 6 2 -1.2 5
-26 -6 2 -10.5 5.2
-26 -6 2 4.2 2.6
26 -6 -2 -0.8 5.6
26 -6 -1 82.69 12.9
-26 -6 1 89.99 15.1
-26 6 0 3 2.2
-26 6 0 8.3 3.5
26 -6 0 -7.2 4.6
-26 -6 0 -4.7 5.8
-26 -6 0 4.1 4.8
26 -6 1 170.18 16.6
-26 -6 -1 104.69 16.1
-26 -6 -1 145.99 12.9
-26 -6 -2 22.9 7.6
-26 -6 -2 22.6 10.3
26 -6 2 13.1 7.8
-26 -6 -3 -14.3 6.4
26 -6 3 -2.7 5.6
26 6 4 3.4 7
-26 -6 -4 6.8 9
26 -6 4 23.7 8.9
26 6 5 15.5 7.8
-26 -6 -5 15.5 10.3
26 -6 5 3.9 8.3
26 6 6 -0.6 7.1
26 -6 6 0.7 7.1
-26 -6 -6 -10.5 9.5
26 -7 -7 -5.3 5.4
-26 -7 6 9.6 6.7
26 -7 -6 -7.1 5.3
-26 7 5 -4.3 7.5
26 -7 -5 1.1 6.8
-26 -7 5 6.4 7.6
26 -7 -4 -1.7 5.9
-26 -7 4 -0.7 6.6
-26 7 3 25.9 7.8
-26 -7 3 0.8 7.4
26 -7 -3 14.5 7.2
-26 7 2 -9 5
-26 -7 2 4.7 7.6
-26 -7 2 -2.5 2.6
26 -7 -2 -6.2 5.3
-26 7 1 -2.7 2.7
26 -7 -1 2.7 6.1
-26 -7 1 4.8 4.1
-26 -7 1 -13.5 5.9
-26 -7 0 26.9 6.5
26 -7 0 19.5 8.9
-26 -7 0 16.8 9.6
-26 -7 -1 0.3 7.7
-26 -7 -1 9.1 6.6
26 -7 1 3.5 6.4
-26 -7 -2 19.1 10.2
26 -7 2 1.9 7
-26 -7 -2 -5.3 6.4
26 -7 3 -1.3 6.1
-26 -7 -3 16.1 9.7
-26 -7 -4 -1.7 10.1
-26 -8 6 5.1 8.5
26 -8 -6 18.6 8.7
26 -8 -5 -0.4 5.4
-26 -8 5 -3.4 5.8
-26 8 4 10.7 7.9
26 -8 -4 5.2 6.7
-26 -8 4 -12.4 7.1
-26 8 3 21.6 7
26 -8 -3 -0.8 6.4
-26 -8 3 4.2 8.3
-26 8 2 7.1 4.1
-26 -8 2 1 7
-26 -8 2 5.9 3.3
26 -8 -2 2 6.5
-26 8 1 -1.4 2.4
-26 -8 1 -4.8 4
26 -8 -1 -10.5 5.6
-26 -8 1 1 7.4
26 -8 0 8.9 8
-26 -8 0 3 6.4
-26 -8 0 6.6 9
-26 -8 -1 3.5 5.9
-26 -8 -1 -4.8 7.7
26 -8 1 4.5 7.1
-26 -8 -3 11.6 10.4
26 -8 3 18.8 10.1
-26 9 3 10 6.3
26 -9 -3 20.5 8.6
-26 -9 3 0.6 7.5
-26 9 2 16.3 8.2
-26 -9 2 5.7 4.2
-26 -9 2 7.3 8.3
-26 -9 2 -5.6 3
26 -9 -2 9.2 8.3
-26 -9 1 2.8 8.2
-26 -9 1 6.1 5
26 -9 -1 10.7 8.5
-26 -9 0 -1 8.2
-26 -9 0 7.4 6.3
26 -9 0 3.7 7.4
27 0 -11 4.9 4.7
27 0 -11 4.8 4.5
27 0 -10 5.1 3.2
27 0 -9 -1.6 2.9
27 0 -9 -4.4 2.9
27 0 -8 29.1 5.5
27 0 -7 -5.2 3.2
27 0 -7 1.4 3.3
27 0 -6 51.29 6.7
27 0 -5 1.3 3.4
27 0 -4 5.2 3.6
27 0 -3 0.1 3.5
27 0 -2 11.2 5
-27 0 1 -7.4 4
-27 0 1 -1.1 3.8
27 0 -1 -1.5 3.7
-27 0 0 -0.4 4.5
27 0 0 24 6.5
-27 0 0 13.5 5.5
27 0 1 3.5 4.6
-27 0 -1 5.7 6.3
-27 0 -1 4.9 5.1
-27 0 -2 32.1 9.3
27 0 2 41.2 8.9
-27 0 -2 24.4 7.2
-27 0 -3 3.6 5.7
27 0 3 -1.1 5.2
-27 0 -4 67.39 11.3
27 0 4 63.89 11.8
27 0 5 3.5 5.8
-27 0 -6 18.9 8.5
27 0 6 22.7 9.5
27 0 7 4.1 7.7
-27 0 -7 -5.8 7.2
27 0 8 15.9 9.2
-27 0 -8 21.4 10.1
27 1 -11 1.4 2.6
27 1 -11 1.2 4.1
27 -1 -11 21.8 6.6
27 -1 -11 1.6 3.2
27 -1 -10 20.3 6.8
27 -1 -10 23.9 6.7
27 1 -9 -1.7 1.3
27 1 -9 -3.6 1.3
27 -1 -9 -2.4 3.8
27 -1 -9 -10.5 3.8
27 -1 -8 29.8 7.1
27 -1 -8 32 6.1
27 1 -7 8.9 2.5
27 1 -7 6 2.3
27 -1 -7 12.5 4.7
27 -1 -7 6.3 4.3
27 1 -6 57.29 5.2
27 1 -6 49.3 4.6
27 -1 -6 50.29 7.3
27 1 -5 34 4.4
-27 1 5 36.9 13
27 -1 -5 39.7 6.8
27 1 -4 3 2.9
-27 1 4 -2.6 5.2
27 -1 -4 -3.3 3.7
27 1 -3 8.3 3.7
27 -1 -3 0 4
-27 -1 2 -1.3 4.2
27 -1 -2 1.1 4.4
27 1 -1 46.3 7.4
-27 1 1 43.7 8.2
-27 1 1 52.29 7.2
-27 -1 1 53.79 7.7
27 -1 -1 49.6 8.6
-27 -1 1 57.29 8.2
-27 1 0 90.79 9.3
-27 1 0 115.09 11.1
27 1 0 96.39 9.9
-27 -1 0 98.09 10.9
27 -1 0 93.89 10.9
-27 -1 0 111.99 10.6
-27 1 -1 18.3 6.2
-27 1 -1 21 7.2
27 1 1 25.6 7
27 -1 1 25.3 7.9
-27 -1 -1 21.2 7
-27 -1 -1 18.6 6.9
-27 1 -2 35.4 7.2
-27 1 -2 31.2 9.8
27 1 2 29.6 7.3
-27 -1 -2 25.2 7.5
-27 -1 -2 6.2 6.7
27 -1 2 25.6 8.2
-27 1 -3 13.3 6
27 1 3 14.1 6.6
27 -1 3 13.5 7.6
-27 -1 -3 3.2 5.4
-27 -1 -3 -1.9 5.7
27 1 4 -6.7 4.2
-27 1 -4 0.3 5.6
27 -1 4 0.2 4.7
-27 -1 -4 4 6.8
-27 1 -5 15.9 7.2
27 1 5 14.2 7.8
-27 -1 -5 10.9 8
27 -1 5 10.3 7.2
-27 1 -6 11.5 6.8
27 1 6 7.3 7.4
-27 -1 -6 3.9 8.1
27 -1 6 5 6.5
27 1 7 38.7 10.7
-27 1 -7 15.8 8.1
27 -1 7 10.8 7.5
-27 -1 -7 21.3 9.1
27 -2 -10 4.1 6.5
27 -2 -10 3.4 6.4
27 -2 -9 -3.3 4.2
27 -2 -9 -4.6 5.8
27 -2 -8 3.7 4.4
27 -2 -8 15.4 6.1
27 -2 -7 15.7 5.4
27 -2 -6 2 4.3
-27 2 5 34.3 9.5
27 -2 -5 32.7 7.2
27 2 -4 2.7 2
-27 2 4 -1.6 6.2
27 -2 -4 -0.9 4.1
-27 2 3 337.87 22
27 2 -3 317.07 12.9
27 -2 -3 319.87 18.5
27 2 -2 5.4 3.6
27 -2 -2 2.8 4
-27 -2 2 -2.3 4.3
27 2 -1 56.29 7.7
-27 -2 1 55.49 7.9
27 -2 -1 55.39 9.1
-27 -2 1 49.5 8.6
27 2 0 2.6 4.3
-27 2 0 4.2 4
-27 2 0 2.8 6.3
27 -2 0 4.3 4.9
-27 -2 0 10.6 6.5
-27 -2 0 -2.4 4.9
-27 2 -1 6.4 4.6
27 2 1 9 5.5
-27 2 -1 9.4 6.3
27 -2 1 11.4 6.2
-27 -2 -1 -1.8 5.2
-27 -2 -1 12.2 7.3
27 2 2 30.5 7.6
-27 2 -2 29 6.2
-27 -2 -2 22.4 8.9
-27 -2 -2 0.3 6.6
27 -2 2 19.5 7.3
-27 2 -3 -9.5 3.8
27 2 3 -4.6 4.1
-27 -2 -3 -0.5 6.2
-27 -2 -3 -0.8 6.4
27 -2 3 -4 5.5
-27 2 -4 3.1 5.3
27 2 4 13.7 7.1
27 -2 4 8.9 6.8
-27 -2 -4 18.9 8.9
-27 2 -5 -3.6 4.7
27 2 5 -8.4 5.5
27 -2 5 0.6 5.8
-27 -2 -5 10.4 8.6
27 2 6 -6.1 6.4
-27 2 -6 0.3 5.4
-27 -2 -6 0.6 6.5
27 -2 6 4 6.2
-27 2 -7 -1.6 4.3
27 2 7 -0.8 7.8
27 -2 7 5.6 7.2
-27 -2 -7 -2.1 7.6
27 -3 -9 3.8 6.4
27 -3 -9 -0.2 5.4
27 -3 -8 5.7 4.9
27 -3 -8 -14 4.8
27 -3 -7 -1.4 4.6
27 -3 -6 -7.1 4.1
-27 3 5 53.19 11.7
27 -3 -5 71.69 10.5
-27 3 4 0.9 6.4
27 -3 -4 -4.9 4.3
-27 3 3 171.78 16
27 3 -3 172.48 8.1
-27 -3 3 178.38 16.2
27 -3 -3 202.68 15.1
-27 3 2 21.6 7.7
27 3 -2 24.1 4.7
-27 -3 2 13 4.3
27 -3 -2 24.5 7.1
-27 -3 2 23.2 7.2
27 3 -1 7.4 4.4
-27 3 1 2.9 5
27 -3 -1 3.9 4.9
-27 -3 1 4.5 4.1
-27 -3 1 10.1 5.5
-27 3 0 36.2 5.7
27 3 0 38.4 7.5
-27 3 0 36.3 8.8
27 -3 0 39.6 8.7
-27 -3 0 21 6.3
-27 -3 0 39.1 8.9
27 3 1 9.1 5.1
-27 3 -1 -1.2 5.7
-27 -3 -1 -1.7 4.4
-27 -3 -1 0.4 5.4
27 -3 1 2.5 6.2
-27 3 -2 7.6 4.2
27 3 2 6.8 5.1
27 -3 2 7.4 6.2
27 3 3 26.7 7.8
-27 3 -3 11.4 4.8
-27 -3 -3 21.1 8.1
-27 -3 -3 4.1 7.8
27 -3 3 11.5 7.9
-27 3 -4 11.2 4.8
27 3 4 10.4 6.7
27 -3 4 7.9 7.9
-27 -3 -4 -4.4 7.6
27 3 5 -5.4 5
-27 3 -5 -6.3 2.9
-27 -3 -5 -0.2 6.8
27 -3 5 3.1 6.4
27 3 6 22.4 9
-27 -3 -6 30.6 10.4
27 -3 6 29.9 8.6
-27 3 -7 -1.4 4.8
27 3 7 -0.1 6
27 -3 7 -9.6 7.5
-27 -3 -7 -2.4 8.7
27 -4 -9 -4.6 5.1
27 -4 -7 28.3 7.7
27 -4 -6 -6.4 4.3
-27 4 5 16.9 9.1
27 -4 -5 27.5 7.4
-27 4 4 38.2 11.4
27 -4 -4 28.6 8.5
-27 -4 4 29.9 7.7
-27 4 3 -4.2 5.8
-27 -4 3 14.3 6.4
27 -4 -3 7.9 6.4
-27 4 2 268.17 18.1
-27 -4 2 223.48 17.2
27 -4 -2 222.08 16.9
-27 -4 2 225.68 10.5
27 4 -1 101.99 9
-27 4 1 104.79 11.6
-27 -4 1 72.69 11.2
-27 -4 1 117.79 9.5
27 -4 -1 114.09 13
27 4 0 122.79 10.9
-27 4 0 103.39 9.6
-27 4 0 133.29 11.3
-27 -4 0 136.79 12
-27 -4 0 131.79 14
-27 4 -1 19.7 5.6
27 4 1 11.7 6.2
-27 4 -1 18 4.6
-27 -4 -1 7.4 6.7
27 -4 1 4.9 7.2
-27 -4 -1 13.7 5.6
-27 4 -2 10.1 3.8
27 4 2 9.8 6.8
-27 4 -2 4.1 4.1
27 -4 2 3.8 6.2
-27 -4 -2 16.1 7.8
-27 -4 -2 -0.2 5.9
-27 4 -3 4.7 2.8
27 4 3 -3.2 5.4
-27 4 -3 4.4 3
27 -4 3 -2.4 5.9
-27 -4 -3 0.6 5.5
-27 -4 -3 5.8 7.7
27 4 4 8.9 7.1
27 -4 4 20.9 8.1
-27 -4 -4 10.5 8.5
27 4 5 4.8 7.2
-27 -4 -5 19.5 10.2
27 -4 5 25.7 8.7
27 4 6 0.1 6.4
27 -4 6 -5 5.9
-27 -4 -6 17.1 10
27 4 7 13.4 9.4
-27 -4 -7 -13 7.3
27 -4 7 -1.3 6.4
27 -5 -9 -12 4.2
27 -5 -8 9.7 6.5
27 -5 -7 24.8 7.5
27 -5 -6 1.5 6
-27 5 5 11.5 8.1
-27 -5 5 29.5 7.8
27 -5 -5 34.5 8.7
-27 5 4 -2.1 7.3
27 -5 -4 13.8 7
-27 -5 4 3.3 5.9
-27 5 3 14.4 7.7
27 -5 -3 19.3 7.3
-27 -5 3 18.5 7
-27 5 2 4.5 5.8
-27 -5 2 -0.2 2.6
-27 -5 2 0.1 5.5
27 -5 -2 5.2 6.5
-27 5 1 70.69 9.9
27 -5 -1 75.79 12
-27 -5 1 76.19 12.6
-27 5 0 43.3 7.1
-27 5 0 37 5.1
-27 -5 0 39 6.9
27 -5 0 30.2 9.3
-27 -5 0 14.3 7.7
-27 5 -1 44.6 4.8
-27 5 -1 39.4 5.4
27 5 1 48.8 9
27 -5 1 26.6 8.9
-27 -5 -1 42.4 8.2
-27 -5 -1 30.2 9.6
27 5 2 35.4 8.5
-27 -5 -2 28.2 10.1
-27 -5 -2 34.4 8.7
27 -5 2 31.1 9.5
27 5 3 14.6 7.4
-27 -5 -3 0.9 7.5
27 -5 3 -5.1 5.9
27 5 4 35.5 9.4
27 -5 4 25.8 9
-27 -5 -4 22.2 10.3
27 5 5 8.3 7.7
27 -5 5 0.2 7
-27 -5 -5 16.8 10.1
27 5 6 2.5 7.5
-27 -5 -6 4.3 10.7
27 -5 6 -6.6 5.7
27 -6 -8 17.4 7.8
27 -6 -7 7.2 6.7
-27 -6 6 21.5 8.2
27 -6 -6 33.2 8.9
-27 6 5 35.4 11.3
27 -6 -5 24.2 8.5
-27 -6 5 11.9 7.4
-27 6 4 26.6 10.1
27 -6 -4 19.2 8.2
-27 -6 4 28 8.5
-27 6 3 16.3 6.8
-27 -6 3 1.4 6.4
27 -6 -3 0.8 6.6
-27 6 2 -3.8 5.5
-27 -6 2 9.8 7.4
-27 -6 2 3.8 2.8
27 -6 -2 0.8 5.2
-27 6 1 85.49 12.2
-27 -6 1 61.39 9.7
27 -6 -1 58.19 11.5
-27 -6 1 54.19 11.2
-27 6 0 -2.2 2.9
27 -6 0 12.5 7.6
-27 -6 0 6.3 7.2
-27 -6 0 -2.3 4.4
-27 -6 -1 -5 7.7
-27 -6 -1 11.3 5.5
27 -6 1 11.4 6.8
27 -6 2 21 9.4
-27 -6 -2 24.7 7.7
-27 -6 -2 12.9 10.6
-27 -6 -3 9 8.9
27 -6 3 -8.2 5.7
27 6 4 12 7.4
27 -6 4 1.6 6.3
-27 -6 -4 -4 7.3
27 6 5 12.6 8.5
27 -6 5 -4.5 6.4
-27 -6 -5 3.8 7.9
-27 -7 7 7.8 8.6
27 -7 -7 -1.9 5.8
-27 -7 6 6 6.6
27 -7 -6 0.8 5.2
-27 -7 5 27.2 9.5
27 -7 -5 5 6.4
-27 7 4 4.1 6.6
27 -7 -4 -0.9 5.6
-27 -7 4 5.2 6.6
-27 7 3 12 7.4
27 -7 -3 10.9 7.3
-27 -7 3 16.2 8.6
-27 7 2 15.4 6.1
-27 -7 2 10.3 8.4
27 -7 -2 15.7 8
-27 -7 2 14.7 3.5
-27 -7 1 24.7 6.3
-27 -7 1 26.1 9.7
27 -7 -1 12.4 7.3
-27 -7 0 8.7 6.1
27 -7 0 3.9 7
-27 -7 0 13.2 9.1
27 -7 1 0.9 5.5
-27 -7 -1 -2.8 5.3
-27 -7 -1 -3.5 7.3
-27 -7 -2 5.4 7.6
-27 -7 -2 1.3 8.5
27 -7 2 2.9 7.3
-27 -7 -3 23.1 10.1
27 -7 3 19 9.4
-27 -7 -4 13.6 9.9
27 -7 4 10.2 7.9
-27 -8 5 -4.2 8.6
27 -8 -5 -3.9 6.5
-27 8 4 25.2 8.9
27 -8 -4 7.6 6.8
-27 8 3 -9.4 5.1
-27 -8 3 -2.5 6.7
27 -8 -3 3.2 6.8
-27 8 2 -4.2 4.3
-27 -8 2 9.5 8.7
-27 -8 2 20 4
27 -8 -2 21.5 9
-27 -8 1 23.8 6.1
27 -8 -1 9.4 8
-27 -8 1 17.4 8.9
-27 -8 0 -12.7 5.1
-27 -8 0 -3.1 7.9
27 -8 0 -5.7 5.4
27 -8 1 -2.6 11.5
-27 -8 -1 3.1 7.1
-27 -8 -1 1.1 16.6
27 -8 2 15 8.1
-27 -8 -2 9.9 10.2
28 0 -10 -5.6 3.2
28 0 -9 1.2 2.1
28 0 -8 45 6.2
28 0 -7 1.3 3.4
28 0 -6 48 6.7
28 0 -5 0.2 3.5
28 0 -3 -0.9 3.4
28 0 -2 59.89 8.4
-28 0 1 0.5 4.5
-28 0 1 1.1 4.4
28 0 -1 -0.4 3.8
-28 0 0 49.1 7.9
-28 0 0 47.8 8.4
28 0 0 40.5 7.7
-28 0 -1 -4.4 4.4
28 0 1 3.7 4.9
-28 0 -1 -6.9 5.8
-28 0 -2 218.78 17.1
-28 0 -2 258.57 16.7
28 0 2 241.48 16.8
-28 0 -3 -4.1 5.2
28 0 3 2 4.7
28 0 4 6 6.1
-28 0 -4 -2.8 5.5
-28 0 -5 13.7 7.4
28 0 5 7.8 6.6
-28 0 -6 4.7 7.2
28 0 6 10.6 7.5
-28 0 -7 4.3 8.2
28 0 7 -1.7 6.1
28 1 -10 2.7 1.6
28 -1 -10 -9.7 3.1
28 -1 -9 5.5 4.5
28 -1 -9 6.4 5.3
28 -1 -8 13.2 4.9
28 -1 -8 19 6.1
28 1 -7 50.79 3.6
28 1 -7 62.79 4.3
28 -1 -7 73.59 9.2
28 1 -6 38.6 4.1
28 1 -6 31.4 4.2
28 -1 -6 32.8 6.4
28 1 -5 29.2 4.2
28 -1 -5 31.5 6.6
28 1 -4 46.6 5.9
-28 1 4 53.09 10.7
28 -1 -4 33.9 7.2
28 1 -3 122.89 8.9
28 -1 -3 102.39 10.1
28 1 -2 44.2 6.7
28 -1 -2 40.3 7.8
-28 -1 2 47.6 8.5
-28 1 1 14.5 5.3
28 1 -1 22 5.7
-28 1 1 17.6 6.5
-28 -1 1 22.5 6.3
-28 -1 1 29.6 6.1
28 -1 -1 26.6 7.1
28 1 0 8.5 5
-28 1 0 12.6 6.7
-28 1 0 12.1 5.4
28 -1 0 9.7 5.7
-28 -1 0 15.4 6
-28 -1 0 17 6.1
28 1 1 6.2 4.7
-28 1 -1 3.6 5.2
-28 1 -1 8.2 5.3
-28 -1 -1 14.5 7.1
28 -1 1 15.8 6.6
-28 -1 -1 5.6 6.5
-28 1 -2 -4.1 3.9
28 1 2 0.6 5.1
-28 -1 -2 -1.1 5.7
28 -1 2 9.5 6.2
-28 -1 -2 -0.9 5.2
28 1 3 2.8 5.4
-28 1 -3 4.4 5.4
-28 -1 -3 3.6 7
28 -1 3 11.3 6.7
-28 1 -4 2.1 5.5
28 1 4 4.7 6.1
-28 -1 -4 2.8 6.8
28 -1 4 2.9 6
28 1 5 -4.3 5.5
-28 1 -5 -12.3 4.8
-28 -1 -5 0.9 6.9
28 -1 5 -3.5 6
-28 1 -6 7.9 6.8
28 1 6 12.8 7.9
-28 -1 -6 -3.5 6.9
28 -1 6 -6.7 5.4
28 1 7 -0.7 7.3
-28 1 -7 12.5 7.7
28 -1 7 5.1 7.3
-28 -1 -7 -2.2 8
28 -2 -10 16.9 7.3
28 -2 -10 34.1 8.7
28 -2 -9 7.2 4.9
28 -2 -9 -5 5.9
28 -2 -8 -3.3 4.2
28 -2 -8 -5.4 5.7
28 -2 -7 4 4.3
28 -2 -6 -2.6 3.7
28 -2 -5 10.5 5.1
28 2 -4 32.2 3.8
-28 2 4 37 10.3
28 -2 -4 29.7 7
28 2 -3 57.99 5.9
28 -2 -3 49.7 8.8
28 2 -2 11.1 4
-28 -2 2 11.4 4.7
28 -2 -2 5.4 5.3
-28 -2 2 4.3 5.3
28 2 -1 22.2 5.4
-28 2 1 13.6 4.7
28 -2 -1 25.4 7.6
-28 -2 1 9.5 4.8
-28 -2 1 24 6.5
-28 2 0 6.4 4.3
28 2 0 0.8 4.7
-28 2 0 14.9 7.6
28 -2 0 13.9 6.6
-28 -2 0 5.5 6
-28 -2 0 6.2 5.1
28 2 1 9.3 5.8
-28 2 -1 -3.6 5.4
-28 2 -1 6.8 4.9
-28 -2 -1 16.5 6.5
-28 -2 -1 6.7 6.2
28 -2 1 7 5.5
-28 2 -2 21.3 6.1
28 2 2 18.5 6.9
-28 -2 -2 35.6 9.1
-28 -2 -2 15.6 6.4
-28 2 -3 10.6 5.6
28 2 3 13.3 6.1
-28 -2 -3 6.8 6.1
28 -2 3 3.5 5.7
28 2 4 6.1 5.9
-28 2 -4 3.3 5
-28 -2 -4 6.4 8.4
28 -2 4 0 5.4
-28 2 -5 29.7 7.7
28 2 5 25.1 9.4
28 -2 5 28.6 9.2
-28 -2 -5 39.8 12
-28 2 -6 5.4 5.5
28 2 6 12.2 8.6
28 -2 6 25.4 10
-28 -2 -6 30.7 10.4
28 2 7 3.2 8.4
-28 2 -7 -4.6 4.5
-28 -2 -7 9.3 10
28 -3 -9 32.5 9.6
28 -3 -9 35 8
28 -3 -8 -0.1 5.6
28 -3 -8 -15.3 5.3
28 -3 -7 6.3 5.3
28 -3 -6 -2.8 4.2
-28 3 5 -2.8 7.2
28 -3 -5 0.9 4.9
-28 3 4 -4.5 5.7
28 -3 -4 4.6 5
-28 3 3 14.1 7.5
28 3 -3 6.9 2.9
28 -3 -3 19.3 6.7
-28 -3 3 4.5 5.5
-28 3 2 -3.9 6
28 3 -2 9.7 3.6
28 -3 -2 -1.8 5.3
-28 -3 2 12.3 6.1
-28 -3 2 12.8 4
28 3 -1 6.7 6.7
-28 3 1 4.6 5.1
-28 -3 1 7.4 4.3
-28 -3 1 9.1 9.6
28 -3 -1 8.7 6.3
28 3 0 68.69 9.2
-28 3 0 44.4 8.6
-28 3 0 60.09 7.3
-28 -3 0 77.19 9.6
28 -3 0 68.89 11.1
-28 3 -1 23.9 5.6
28 3 1 22.8 6.8
-28 -3 -1 38.2 10.3
-28 -3 -1 12.5 6
28 3 2 -3.5 4.7
28 -3 2 6.4 5.6
-28 -3 -2 17.4 7.3
-28 -3 -2 8.5 7.3
28 3 3 20.4 7.3
-28 3 -3 22.9 5.7
28 -3 3 14.2 7.6
-28 -3 -3 13.4 8.4
-28 3 -4 23.6 5.4
28 3 4 15.3 7.4
-28 -3 -4 29.5 10.3
28 -3 4 28 9
28 3 5 11.9 7.5
-28 3 -5 3.8 3.4
-28 -3 -5 21.6 10
28 -3 5 10.9 7.8
28 3 6 3.5 6.8
-28 3 -6 -3.3 3.1
28 -3 6 -1.2 5.8
-28 -3 -6 5.1 8
28 3 7 -8.3 7
-28 -3 -7 -6.1 8.8
28 -3 7 12.5 9
28 -4 -9 15 7.7
28 -4 -8 2.2 5.6
28 -4 -7 -4.6 4.6
28 -4 -6 15.6 6.4
-28 4 5 -8.1 7
28 -4 -5 0.9 5.2
-28 4 4 -16.9 5.9
-28 -4 4 9 6
28 -4 -4 -2.4 5
-28 4 3 24.7 7.9
-28 -4 3 1.6 5.8
28 -4 -3 2.5 4.9
-28 4 2 34.8 8.6
-28 -4 2 7.9 6.5
28 -4 -2 37.4 8.9
-28 -4 2 17.8 4
28 4 -1 13.9 4.8
-28 4 1 14.7 6.1
28 -4 -1 2.8 7.2
-28 -4 1 20.2 5
-28 -4 1 9.5 6.4
-28 4 0 -5.4 4.3
28 4 0 -3.3 4.1
-28 4 0 4 4.6
-28 -4 0 -3.9 4.1
-28 -4 0 1.9 6.1
28 -4 0 2.3 5.4
-28 4 -1 5.9 3.6
28 4 1 2.6 4.7
-28 -4 -1 3.7 5.5
-28 -4 -1 1.8 7.4
28 -4 1 6.9 6.5
-28 4 -2 -3.1 3.3
-28 4 -2 6.3 4.4
28 4 2 2.1 5.4
-28 -4 -2 2.5 5.5
28 -4 2 6.4 6.4
-28 -4 -2 4.4 6.6
28 4 3 6.8 6.4
-28 -4 -3 -1.1 7.2
28 -4 3 1.1 5.9
-28 4 -4 0.8 1.9
28 4 4 4.5 6.8
28 -4 4 7.8 7.1
-28 -4 -4 -3 7.2
28 4 5 -2.3 6.9
-28 -4 -5 1.9 9
28 -4 5 -15.9 4.9
28 4 6 -6.7 7.4
-28 -4 -6 8.6 10.4
28 -5 -9 14 7.3
28 -5 -8 9.8 5.6
28 -5 -7 -6 4.4
28 -5 -6 43.3 9.2
-28 5 5 -15.9 7.4
28 -5 -5 5.3 5.9
-28 -5 5 -1.1 5.3
-28 5 4 13 7.8
-28 -5 4 3.7 5.9
28 -5 -4 3.8 6.4
-28 5 3 16.2 7.5
-28 -5 3 -11.5 4.5
28 -5 -3 -5.5 4.6
-28 5 2 -2.7 5.8
-28 -5 2 1.8 2.5
-28 -5 2 11.2 7
28 -5 -2 0.4 5.3
-28 5 1 17.2 6.4
-28 -5 1 3.4 6.9
-28 -5 1 10.3 4.9
28 -5 -1 4.6 6.4
-28 5 0 25.7 4.7
-28 -5 0 28.2 6.7
-28 -5 0 15.8 8.2
28 -5 0 5.4 6.5
-28 5 -1 0.5 3.1
28 5 1 10.2 5.5
-28 -5 -1 21.8 8.8
-28 -5 -1 10.5 5.6
28 -5 1 -1.9 4.7
28 5 2 18 7.7
28 -5 2 1.9 5.6
-28 -5 -2 7 6.7
-28 -5 -2 20.4 9.1
28 5 3 -7.3 5.5
-28 -5 -3 1.2 9
28 -5 3 5.6 7.1
28 5 4 3 7.3
28 -5 4 8.4 7.8
-28 -5 -4 2 8.2
28 5 5 38.7 10.8
28 -5 5 11.7 8
-28 -5 -5 27.5 11.1
28 -6 -8 -9.4 5.7
-28 -6 7 3.1 6.1
28 -6 -7 -2.8 6.4
28 -6 -6 7.6 6.2
-28 -6 6 2.1 6.2
-28 -6 5 -0.5 5.6
28 -6 -5 2.3 6.7
-28 6 4 1.8 6.5
-28 -6 4 -1.5 6.3
28 -6 -4 0.9 5.3
-28 6 3 6.9 7.5
-28 -6 3 23.4 9.1
28 -6 -3 -1.4 5.7
-28 6 2 36.7 8.4
-28 -6 2 21 8.8
-28 -6 2 21.4 3.4
28 -6 -2 17.6 7.8
-28 6 1 9.3 6
28 -6 -1 15.4 8.1
-28 -6 1 6.8 5.1
-28 -6 1 6.3 7.1
-28 6 0 7.4 2.9
-28 6 0 2.9 1.6
-28 -6 0 -0.1 7.3
28 -6 0 -3.6 5.6
-28 -6 0 5.4 5.4
-28 -6 -1 3.4 6.2
28 -6 1 9.1 7.1
-28 -6 -1 -0.7 7
28 -6 2 4.8 6.5
-28 -6 -2 4.4 8.8
28 -6 3 -8.9 5.1
-28 -6 -3 9.3 8.9
28 6 4 -9.5 5.6
-28 -6 -4 21.7 9.9
28 6 5 7.3 8.6
28 -6 5 -1.2 7
-28 -6 -5 -5.8 9.4
28 -7 -6 3 5.8
-28 -7 5 -11.4 6.2
28 -7 -5 -8.2 4.8
-28 7 4 4.1 7.5
-28 -7 4 2.3 6.4
28 -7 -4 0.6 6.6
-28 7 3 6.5 7.4
-28 -7 3 1.7 7.8
28 -7 -3 12.5 7.4
-28 -7 2 8.9 8
-28 -7 2 -0.4 2.3
28 -7 -2 7.4 7.1
28 -7 -1 15.9 8.5
-28 -7 1 35 10.8
-28 -7 1 21.6 6.6
-28 -7 0 -2.5 9
28 -7 0 8.8 7.8
-28 -7 0 -0.1 6.1
-28 -7 -1 -7.3 7
28 -7 1 9.6 7.5
-28 -7 -2 24 11.4
28 -7 2 17.7 8.9
-28 -7 -2 37.2 10.5
28 -7 3 -8.8 6.4
-28 -7 -3 29.8 16.3
-28 8 4 -17.2 8.2
28 -8 -4 3.3 7
-28 -8 4 -8.8 6.3
-28 8 3 2.5 6.8
-28 -8 3 -6.2 8.2
28 -8 -3 4.9 6.3
-28 8 2 -4.6 4.7
28 -8 -2 -1.3 7.1
-28 -8 2 5.3 2.4
-28 8 1 4.9 2.7
-28 8 1 -0.6 1.5
28 -8 -1 18.4 8.1
-28 -8 1 10.4 5.3
-28 -8 0 1.5 8.8
-28 -8 0 -11.5 6.1
-28 -8 -1 10.1 11.7
28 -8 1 -4.5 5.9
-28 -8 -1 7.5 8.6
29 0 -10 3.9 5.9
29 0 -9 0.1 2.2
29 0 -8 -5.4 2.3
29 0 -7 5 3.7
29 0 -6 42.6 6.3
29 0 -5 3.9 3.5
29 0 -4 -3.5 3.3
29 0 -3 3.1 3.6
29 0 -2 6.1 4.6
-29 0 2 5.7 4.3
-29 0 1 -9 3.5
29 0 -1 1.6 4.2
-29 0 1 -1.8 4.9
-29 0 0 0.7 4.7
-29 0 0 7.2 5.9
29 0 0 8.7 5.1
-29 0 -1 3.5 5.2
-29 0 -1 0.5 4.8
29 0 1 -1.6 4.5
-29 0 -2 7.4 6.5
29 0 2 2.7 5.3
-29 0 -2 -5.1 4.7
-29 0 -3 -5.4 4.8
29 0 3 0.4 4.8
-29 0 -4 7 6.9
29 0 4 -8.6 4.8
-29 0 -5 -5.6 6.4
29 0 5 -2.5 5.7
-29 0 -6 20.4 9.4
29 0 6 3.9 6.4
29 -1 -10 0.5 2.9
29 -1 -10 -11.5 5.1
29 -1 -9 1.3 5
29 -1 -9 7.1 4.2
29 -1 -8 6.8 4.6
29 -1 -8 0.6 5
29 1 -6 1.6 2.4
29 1 -6 2.8 1.9
29 -1 -6 1.7 4.1
29 1 -5 0 2.3
29 -1 -5 1.8 4.3
29 1 -4 3.4 2.9
-29 1 4 -2.6 6.3
29 -1 -4 4.3 4
29 1 -3 -0.6 3.1
29 -1 -3 9.8 4.8
29 1 -2 262.87 14.2
-29 -1 2 284.57 16.3
29 -1 -2 249.28 15.9
29 1 -1 24.3 6.3
-29 1 1 21.4 5.8
-29 1 1 23.5 7.2
-29 -1 1 16.9 5.7
-29 -1 1 31.4 7.2
29 -1 -1 23.5 6.8
29 1 0 7.1 4.9
-29 1 0 17.1 7.3
-29 1 0 7.6 4.9
-29 -1 0 1.8 4.7
-29 -1 0 -5.4 4.1
29 -1 0 -6 4.4
29 1 1 7.5 5.2
-29 1 -1 -4.6 4.4
-29 1 -1 3.8 5
29 -1 1 -0.4 5.6
-29 -1 -1 13.3 6.2
-29 1 -2 -10.7 4.1
29 1 2 -0.9 4.2
29 -1 2 -3.1 5.1
-29 -1 -2 8.8 6.4
-29 -1 -2 -3.3 5.7
-29 1 -3 33.8 8.8
29 -1 3 5.8 5.9
-29 -1 -3 -2.3 6.2
-29 1 -4 28.7 8.5
29 1 4 35.6 9.5
29 -1 4 15.5 7.7
-29 -1 -4 23.2 9.2
29 1 5 12.7 7.3
-29 1 -5 13.9 6.8
29 -1 5 12.3 8.3
-29 1 -6 14.5 7.8
29 1 6 -3.7 7
-29 -1 -6 24.6 8.7
29 -1 6 2.3 7.8
-29 1 -7 16.2 8.2
-29 -1 -7 17 10.2
29 -1 7 23.4 9.5
29 -2 -10 24.7 6.6
29 -2 -10 13.5 8.1
29 -2 -9 7 5.6
29 -2 -8 15.6 7.2
29 -2 -8 26.9 6.6
29 -2 -7 -5.1 3.9
29 -2 -6 -3.2 4
29 -2 -5 26.7 6.9
29 2 -4 38.4 4.2
-29 2 4 24.7 10.1
29 -2 -4 45.4 8.6
29 2 -3 14.8 4
-29 2 3 17.8 7.7
29 -2 -3 8.4 5.9
-29 -2 3 6.8 5.8
29 2 -2 71.39 7.5
-29 -2 2 76.09 8
29 -2 -2 70.49 10.8
29 2 -1 25.9 5.8
-29 2 1 26.2 5.8
-29 -2 1 12.6 7
-29 -2 1 28.3 5.8
29 -2 -1 19.9 7.3
29 2 0 40.2 7.3
-29 2 0 4.4 7.4
-29 2 0 34.2 6.6
-29 -2 0 28.6 8.1
-29 -2 0 34.2 7.7
29 -2 0 33.4 8.6
-29 2 -1 26.3 6.4
29 2 1 6.1 5.3
-29 -2 -1 23.1 8.6
-29 -2 -1 14.5 6.7
29 -2 1 13.8 6.3
29 2 2 12.2 6.5
-29 2 -2 21.1 6.1
-29 -2 -2 13.4 6.9
29 -2 2 5.5 6.1
-29 -2 -2 18 8.5
29 2 3 -4.3 5.3
-29 2 -3 -5.2 4.7
-29 -2 -3 1.5 7.1
29 -2 3 0.2 5.5
29 2 4 -2.2 5.2
-29 2 -4 3.6 5.4
29 -2 4 3.1 6.4
-29 -2 -4 -4.9 6.4
-29 2 -5 10.6 6.1
29 2 5 -4.4 6.4
-29 -2 -5 2.9 8.3
29 -2 5 3.8 7.1
-29 2 -6 -4.5 4.3
29 2 6 -0.4 5.9
-29 -2 -6 20.3 8.7
29 -2 6 9.2 7.5
29 -3 -9 11.2 6.4
29 -3 -8 24.5 7.6
29 -3 -7 31.6 7.9
29 -3 -6 -2.5 4.4
29 -3 -5 29.7 7.4
-29 3 4 13.4 7.5
29 -3 -4 5.5 5.3
29 3 -3 6.6 2.8
29 -3 -3 -0.3 5.1
-29 -3 3 -3.6 4.1
-29 3 2 92.69 13.1
29 3 -2 85.99 7.7
-29 -3 2 63.59 10.3
-29 -3 2 75.79 7.6
29 -3 -2 83.89 12.1
29 3 -1 9.2 4.5
-29 3 1 -2.4 5
-29 3 1 2.5 3.7
-29 -3 1 17.1 5.1
29 -3 -1 1.8 4.9
-29 -3 1 11.9 6.5
-29 3 0 0.9 5
29 3 0 3.9 4.7
-29 3 0 5.2 4.1
-29 -3 0 9.9 7
-29 -3 0 -1.8 4.9
29 -3 0 2.2 5.7
-29 3 -1 16.5 5
29 3 1 17.4 6.1
-29 -3 -1 19.7 6.6
-29 -3 -1 9.1 6.4
29 -3 1 9 6.8
29 3 2 -2.2 4.9
-29 3 -2 4.5 4.9
-29 -3 -2 4.2 6.2
29 -3 2 1.6 5.2
-29 -3 -2 11.9 7.8
29 3 3 11.7 5.8
29 -3 3 -5.3 5.6
-29 -3 -3 10.2 8.5
-29 3 -4 -3.6 3
29 3 4 2.5 5.6
-29 -3 -4 0.5 6.9
29 -3 4 4.5 6.6
29 3 5 -4.6 5.8
29 -3 5 15.7 8.3
-29 -3 -5 14.1 9.1
29 3 6 36.1 11
29 -3 6 27 16.8
-29 -3 -6 47.7 12.9
29 -4 -9 7 6.7
29 -4 -8 12.1 6.8
29 -4 -6 -2.4 5.1
29 -4 -5 27.4 7.8
-29 4 4 11.2 8.1
-29 -4 4 7.9 6.4
29 -4 -4 9.5 6.7
-29 4 3 10.2 6.9
29 -4 -3 -1.5 4.6
-29 -4 3 5.2 5.8
-29 4 2 25.2 7.6
29 -4 -2 25.6 9.5
-29 -4 2 25.6 4.4
-29 -4 2 13.4 7.3
-29 4 1 7.3 5.1
29 -4 -1 2.5 5.3
-29 -4 1 10.6 7
-29 -4 1 -9.5 3.8
-29 4 0 59.39 9.1
-29 4 0 62.29 7.1
29 4 0 71.89 9.7
29 -4 0 67.39 12.1
-29 -4 0 48.8 10.5
-29 -4 0 52.29 8.6
-29 4 -1 24.4 5.2
29 4 1 12.7 6.8
-29 -4 -1 8.1 6.1
29 -4 1 16.7 7.4
-29 -4 -1 0.6 7.2
-29 4 -2 8.3 4.1
29 4 2 3.1 5.4
-29 4 -2 4.6 3.4
29 -4 2 -2.1 5.7
-29 -4 -2 -2.8 5.9
-29 -4 -2 3.1 7.3
-29 4 -3 0.1 2.6
29 4 3 -0.6 6
-29 4 -3 1 2.2
-29 -4 -3 1.8 8.2
29 -4 3 -5.6 6
-29 4 -4 3 2.1
-29 4 -4 -3 1.8
29 4 4 -0.7 5.6
29 -4 4 -2.8 6.6
-29 -4 -4 0 6.9
29 4 5 5.5 7.3
29 -4 5 7.9 6.7
-29 -4 -5 -16.7 6
29 4 6 -7.8 7.3
29 -4 6 -12.6 6.3
-29 -4 -6 2.4 9.6
29 -5 -8 13.6 7.6
29 -5 -7 17.1 7.3
29 -5 -6 9.1 7.1
29 -5 -5 48.6 9.8
-29 -5 5 29.5 8.4
-29 5 4 1 7
-29 -5 4 -6.2 5.8
29 -5 -4 -9.6 4.8
-29 5 3 24.9 9.1
29 -5 -3 28.5 8.7
-29 -5 3 35.2 9.4
-29 5 2 6.4 6.3
-29 -5 2 1.5 2.6
-29 -5 2 4.2 6.7
29 -5 -2 1 5.7
-29 5 1 13.5 6.5
29 -5 -1 3.9 6.4
-29 -5 1 6.8 7.2
-29 -5 1 1.5 4
-29 5 0 0.2 3.2
-29 -5 0 1.9 6.2
-29 -5 0 14.4 5.5
29 -5 0 4.1 6.7
29 5 1 68.09 11
-29 -5 -1 84.59 13.5
-29 -5 -1 89.79 10.8
29 -5 1 64.09 12.4
29 5 2 4 6.3
-29 -5 -2 11.3 6.4
-29 -5 -2 -3.2 6.5
29 -5 2 0.7 5.7
29 5 3 -4.2 7.1
29 -5 3 -2 6.2
-29 -5 -3 12.6 10.1
29 5 4 27 8.9
-29 -5 -4 4.7 9.1
29 -5 4 6.2 7
29 -5 5 3.3 6.6
-29 -5 -5 9 9.5
-29 -6 7 2.3 6.4
29 -6 -7 5.9 5.8
-29 -6 6 1 7.2
29 -6 -6 -6.3 5.3
29 -6 -5 9.7 6.5
-29 -6 5 -10.6 5.1
-29 6 4 3.4 7.3
-29 -6 4 10.4 7.2
29 -6 -4 0.2 5.9
-29 6 3 9.4 7.7
29 -6 -3 7.2 7
-29 -6 3 26.2 9.1
-29 6 2 27 7.8
-29 -6 2 30.2 3.6
29 -6 -2 24.2 9
-29 -6 2 32.9 9.4
-29 6 1 1.8 4.3
29 -6 -1 11.7 7.4
-29 -6 1 -4 7.3
-29 -6 1 5 4
29 -6 0 -2.7 5.7
-29 -6 0 8.2 7.8
-29 -6 0 14.3 6.2
-29 -6 -1 -0.9 5.7
29 -6 1 -7.9 5.9
-29 -6 -1 1.3 8.1
-29 -6 -2 11.5 9.6
-29 -6 -2 22.8 8.2
29 -6 2 9.4 7.2
-29 -6 -3 13.1 9.9
29 -6 3 11 7
29 6 4 17.5 9.4
29 -6 4 9.7 8
29 -7 -6 3.9 7.5
-29 -7 6 -6.9 7.3
29 -7 -5 -1.6 6.6
-29 7 4 27 9.4
29 -7 -4 13.1 8.1
-29 -7 4 16 8.9
-29 7 3 31.8 8.6
29 -7 -3 20.4 8.9
-29 7 2 10.6 5
29 -7 -2 -2.3 6.6
-29 -7 2 -0.3 1.7
-29 -7 2 -0.6 8
-29 7 1 9.4 3.5
29 -7 -1 -3.8 6.7
-29 -7 1 -4.5 4
-29 -7 1 8.9 8.4
-29 -7 0 26.1 6.8
-29 -7 0 14.3 9.4
29 -7 0 32.4 10.6
-29 -7 -1 -18.3 5.9
29 -7 1 -2.2 5.5
-29 -7 -1 -7.8 7.2
-29 -7 -2 29.8 17.8
-29 -7 -3 16.4 11.5
29 -7 3 0.6 7.6
-29 8 3 19.8 7.7
-29 -8 3 -8.4 7.2
-29 8 2 -0.4 5.4
-29 -8 2 9.6 9.2
-29 8 1 -2.6 2.5
-29 8 1 -0.5 1.6
29 -8 -1 -4.4 7.5
-29 -8 1 2.7 5.2
-29 -8 1 -7.9 7.2
-29 -8 0 -9.5 9
29 -8 0 1.8 8.7
-29 -8 0 -1.7 5.5
30 0 -9 -4.2 2.1
30 0 -8 3.5 2.3
30 0 -7 2.3 2.9
30 0 -4 10.5 4.3
30 0 -3 -1.8 3.6
-30 0 2 161.48 12.1
30 0 -2 179.88 12.4
30 0 -1 -6.3 4.2
-30 0 1 1.2 4.5
-30 0 1 6.3 5.5
30 0 0 47.4 8.5
-30 0 0 74.79 17.5
-30 0 0 54.79 8.7
-30 0 -1 6.7 6
30 0 1 -2 4.9
-30 0 -1 0.6 5.2
-30 0 -2 28.3 8.1
30 0 2 29.3 7.9
-30 0 -3 -2.3 5.8
30 0 3 -11.3 4.2
-30 0 -4 -3.4 5.8
30 0 4 1.5 5.7
-30 0 -5 -10.5 5.8
30 0 5 -8.9 5
30 0 6 8.2 8
-30 0 -6 15.2 9
30 -1 -10 2.6 3.5
30 -1 -10 11.3 5.9
30 -1 -9 1.8 4.4
30 -1 -9 0.6 2.6
30 -1 -8 7.3 5.2
30 -1 -8 7.4 4.7
30 1 -7 1.1 1.2
30 -1 -7 -2.5 3.6
30 1 -6 0.9 2.2
30 1 -6 -2.7 1.4
30 -1 -6 -2.9 3.4
30 1 -5 -0.3 2.4
30 -1 -5 9.2 4.7
30 1 -4 -1.1 2.7
30 -1 -4 -0.4 4
30 -1 -3 -0.7 4.2
30 1 -2 30.2 6.1
-30 -1 2 36 7.3
30 -1 -2 34.6 7.8
30 1 -1 40.8 7.4
-30 1 1 27.6 6.4
30 -1 -1 28 7
-30 -1 1 29.7 6.9
-30 -1 1 45.6 8.4
30 1 0 4.3 5.3
-30 1 0 7.6 5
-30 1 0 1 6.2
-30 -1 0 -2.8 5.3
30 -1 0 3.5 4.7
-30 -1 0 8.8 5.8
-30 1 -1 14.6 6.7
30 1 1 2.7 4.9
-30 1 -1 11.7 5.5
-30 -1 -1 23.9 7.6
-30 -1 -1 8.6 6.6
30 -1 1 5.2 5.8
-30 1 -2 24.4 6.9
30 1 2 13.4 6.9
-30 -1 -2 8.9 6.2
30 -1 2 16.4 7.1
-30 -1 -2 8.9 7.4
30 1 3 0.5 4.6
-30 1 -3 22.2 7.4
-30 -1 -3 11.8 7.7
30 -1 3 8.4 6.7
30 1 4 -8.3 4.9
-30 1 -4 2.1 6.3
30 -1 4 -3.2 5.7
-30 -1 -4 -1.6 8
-30 1 -5 5.8 6.4
30 1 5 -3.3 6.5
-30 -1 -5 -5.8 7.8
30 -1 5 -1.6 6.1
-30 1 -6 4.1 7.2
30 1 6 5.2 7.3
30 -1 6 -4.5 6.7
-30 -1 -6 -2.1 7.8
30 -2 -9 4.8 4.9
30 -2 -8 20.5 6.6
30 -2 -8 7 5.3
30 -2 -7 9 5.1
30 -2 -6 8.3 5
30 -2 -5 35.1 7.4
30 2 -4 0.4 2.3
-30 2 4 3.8 9.2
30 -2 -4 6.3 5.1
-30 2 3 -1.6 6.4
30 2 -3 3.5 3.2
30 -2 -3 5.5 5.1
-30 -2 3 -0.3 5.1
30 -2 -2 3.5 5.6
-30 -2 2 -5.9 4.1
30 2 -1 42.5 7.3
-30 2 1 35.6 6.6
-30 -2 1 40 10.7
-30 -2 1 47.9 7.7
30 -2 -1 47.4 9.3
-30 2 0 26 8.9
30 2 0 26.3 6.6
-30 2 0 26 6.2
-30 -2 0 31.8 7.3
30 -2 0 29.4 7.4
-30 2 -1 16.4 6.2
30 2 1 25.7 7.4
-30 -2 -1 33.4 13.5
-30 2 -2 11.2 5.6
30 2 2 2.5 5.3
-30 -2 -2 14 7.2
-30 -2 -2 0.3 6.6
30 -2 2 9.2 6.1
30 2 3 20.8 8.5
-30 2 -3 4.4 5.3
-30 -2 -3 11.2 8.4
30 -2 3 13.4 7.8
30 2 4 0.4 6.6
-30 2 -4 1 5.7
-30 -2 -4 -7.2 6.2
30 -2 4 8.9 6.6
-30 2 -5 12.5 6.1
30 2 5 22.1 9.3
-30 -2 -5 31.7 11.4
30 -2 5 28.8 10.4
30 2 6 3.5 6.9
-30 2 -6 -1.4 4.7
-30 -2 -6 -6.8 7.9
30 -2 6 12.5 9.5
30 -3 -9 -1.5 5.9
30 -3 -8 3.8 4.9
30 -3 -7 28.4 7.8
30 -3 -6 -2 5
30 -3 -5 3.9 5.3
-30 -3 4 -6.6 4.4
30 -3 -4 -2.6 4.8
30 3 -3 -4.8 2.2
-30 3 3 5.3 6.1
30 -3 -3 0.8 5
-30 -3 3 3.9 4.9
-30 3 2 1 6
30 3 -2 1.6 2.9
30 -3 -2 -0.2 4.4
-30 -3 2 1.4 5.4
-30 3 1 0.6 3.8
30 3 -1 6.9 4.2
-30 3 1 -1.5 6
-30 -3 1 -4.8 4.9
-30 -3 1 1.1 4.3
30 -3 -1 7.5 6.3
-30 3 0 13.6 4.7
-30 3 0 14.5 6.4
30 3 0 -2.6 3.9
-30 -3 0 1.4 6.9
-30 -3 0 15.1 5.8
30 -3 0 8.3 6.9
-30 3 -1 19.2 5.4
30 3 1 20.5 6.7
-30 -3 -1 34.9 9.9
-30 -3 -1 25.5 7.7
30 -3 1 25.9 7.7
-30 3 -2 9.1 5
30 3 2 4 5.7
-30 -3 -2 9.9 6.4
-30 -3 -2 -9 6
30 -3 2 6.9 6
30 3 3 20.6 8.3
-30 3 -3 21.3 6.6
-30 -3 -3 5 6.9
30 -3 3 9.9 7.3
30 3 4 13.6 6.7
-30 -3 -4 3.1 7.3
30 -3 4 1.5 6.1
30 3 5 3.2 6.7
30 -3 5 0.7 7
-30 -3 -5 -4 7.3
30 3 6 3.3 7.4
30 -3 6 15.8 8.1
-30 -3 -6 2 8.3
30 -4 -9 26.6 8
30 -4 -8 -2 4.9
30 -4 -7 -4.3 5.4
30 -4 -5 2.7 6.6
-30 -4 5 13.4 7.1
-30 4 4 2.8 7.3
-30 -4 4 1.9 5.4
30 -4 -4 -7.4 5.8
-30 -4 3 28.4 8.1
-30 4 2 14.4 7.1
-30 -4 2 11.5 4.1
30 -4 -2 12.6 7.2
-30 -4 2 13.6 7.7
-30 4 1 13.6 6.8
30 4 -1 11.9 5.1
-30 4 1 22.2 4.8
-30 -4 1 14.6 7.9
30 -4 -1 23.7 8.3
-30 -4 1 23.5 5.6
-30 4 0 8.5 5.5
30 4 0 6.9 4.9
-30 4 0 5.2 3.8
-30 -4 0 4.9 6.7
-30 -4 0 -9.5 4.8
30 -4 0 4.3 6.1
-30 4 -1 -5.6 4.7
30 4 1 11.4 6
-30 -4 -1 5.4 7.3
30 -4 1 2 6.1
-30 -4 -1 9.7 5.6
-30 4 -2 -5.3 2.5
-30 4 -2 -1.5 3.2
30 4 2 5.9 6.9
-30 -4 -2 4.6 6.7
30 -4 2 1.8 6.2
-30 -4 -2 9.7 8.7
30 4 3 2.8 6.2
-30 4 -3 1.5 2.1
-30 4 -3 2.6 3.2
-30 -4 -3 -4.1 7.3
30 -4 3 -2.6 7
30 4 4 10.9 7.5
-30 4 -4 3.5 2.2
-30 4 -4 1.7 2.4
30 -4 4 -0.5 5.8
-30 -4 -4 -5.1 7.4
30 4 5 14.3 8.4
-30 -4 -5 11 9
30 -5 -8 18.8 7.7
30 -5 -7 -0.2 5.5
30 -5 -6 -5.6 5.3
-30 -5 6 -4.6 5.1
30 -5 -5 7.2 6.5
-30 -5 5 5.2 6.3
-30 5 4 1.9 7.1
-30 -5 4 0.5 5.5
30 -5 -4 7.6 6.3
-30 5 3 3.3 7.4
30 -5 -3 17.9 7.8
-30 -5 3 5.5 6.4
-30 5 2 11.7 7.8
-30 -5 2 9.9 8.1
30 -5 -2 16.1 7.7
-30 -5 2 20 3.8
-30 5 1 5.3 6.1
-30 5 1 1.7 3.1
-30 -5 1 5 6.4
30 -5 -1 -4.3 6.3
-30 -5 1 2.2 3.7
-30 5 0 18.1 5.7
-30 5 0 5.4 3.6
-30 -5 0 11.9 7.1
30 -5 0 8.3 6.7
-30 -5 0 7.4 5
30 5 1 8 6
-30 -5 -1 1.3 5.4
-30 -5 -1 23.9 8.7
30 -5 1 17 8.3
30 5 2 13.8 7
-30 -5 -2 0.6 6.4
-30 -5 -2 4.2 8.7
30 -5 2 -2.9 6.5
30 5 3 8.4 6.7
-30 -5 -3 11.4 9
30 -5 3 0.6 6.7
30 5 4 9.2 8.6
-30 -5 -4 10.1 8.8
30 -5 4 8.9 8.6
30 -6 -7 -2.9 6.3
-30 -6 7 -5.9 6.8
30 -6 -6 -10.4 5.5
30 -6 -5 8.7 6.5
-30 -6 5 -8.1 5.2
-30 6 4 -10.3 6.2
30 -6 -4 2.4 6.6
-30 -6 4 7.4 7
-30 6 3 25.5 7.7
30 -6 -3 5.3 7.1
-30 -6 3 11.2 8
-30 6 2 3.1 5.9
-30 -6 2 -0.3 2.2
-30 -6 2 -2.7 6.1
30 -6 -2 13.1 8.4
-30 6 1 -7 3.9
-30 -6 1 2 6.8
30 -6 -1 0.2 7.1
-30 -6 1 2.5 4.6
-30 6 0 -1.6 1.8
-30 6 0 2.5 3.3
-30 -6 0 2.6 5.5
-30 -6 0 5.2 7.8
30 -6 0 -8.9 6
30 -6 1 5.7 6.5
-30 -6 -1 7.4 9.1
-30 -6 -2 3.3 9
-30 -6 -2 12.8 8.9
30 -6 2 -3.1 6.6
-30 -6 -3 6.5 10.7
30 -7 -5 7.1 7.9
-30 -7 5 1.8 7.6
-30 7 4 34.2 10.5
-30 -7 4 -2.4 7.8
30 -7 -4 3.5 6.4
-30 7 3 -9 6.4
30 -7 -3 -5.5 6.8
-30 7 2 -15 4.9
-30 -7 2 1.5 9
30 -7 -2 15.7 8.5
-30 -7 1 48.4 13.6
30 -7 -1 21.8 9.4
-30 -7 1 40.4 8.2
30 -7 0 14.5 8
-30 -7 0 2.5 5.1
-30 -7 -1 -6.4 9.6
-30 -7 -1 -6.3 6
30 -7 2 -13.8 5.9
-30 -7 -2 -0.1 8
31 0 -9 1.8 2.5
31 0 -8 -0.5 2.3
31 0 -7 -2.9 2.3
31 0 -6 68.79 7.5
31 0 -4 1.7 3.5
31 0 -3 -2.4 3.6
31 0 -2 12.2 5.2
-31 0 2 9.7 5.4
31 0 -1 5.7 4.4
-31 0 1 -3.5 3.9
-31 0 1 7 5.3
31 0 0 -5.3 4.1
-31 0 0 6.5 6.1
-31 0 0 0.4 4.9
-31 0 -1 -2.7 5.6
31 0 1 4.2 5.2
-31 0 -1 -2.8 5.5
-31 0 -2 9.5 7
-31 0 -3 -5.1 6.2
31 0 3 -0.7 5.2
31 0 4 1.8 5.9
-31 0 -4 1.7 6.4
-31 0 -5 3.2 7.5
31 0 5 13.5 7.4
-31 0 -6 6.3 14.8
31 0 6 2.7 7.9
31 -1 -9 3.4 3.5
31 -1 -9 -4.4 4.5
31 -1 -8 -9.7 4.1
31 -1 -8 -1.4 3.1
31 -1 -7 24.8 6
31 1 -6 -4.3 1.7
31 1 -6 -3.5 1.3
31 -1 -6 1.3 4.3
31 1 -5 3.7 3
31 -1 -5 -1.4 3.9
31 1 -4 17.3 4.4
31 -1 -4 18.6 6.1
31 1 -3 3.4 3.7
31 -1 -3 13.8 5.5
31 1 -2 0.6 3.8
-31 1 2 3 4.4
31 -1 -2 10.4 5.4
-31 1 1 77.89 9.1
31 1 -1 73.29 9.5
-31 -1 1 76.09 9.9
31 -1 -1 86.79 11.5
-31 -1 1 91.19 10.8
31 1 0 4.3 4.7
-31 1 0 3.9 4.9
-31 1 0 -8.7 5.5
31 -1 0 5.4 6.1
-31 -1 0 -3.2 4.8
-31 -1 0 4 6.2
-31 1 -1 -2.6 4.6
31 1 1 4.1 4.8
-31 -1 -1 -5.4 5.7
31 -1 1 -5.5 5.1
-31 -1 -1 2.3 6.2
31 1 2 -2.1 4.8
-31 1 -2 -12.6 4.4
-31 -1 -2 0.7 6.7
31 -1 2 -0.3 5.1
-31 1 -3 -5.2 5.3
31 1 3 7.2 6
31 -1 3 -10.1 4.7
-31 -1 -3 6.1 6.7
31 1 4 3 6.7
-31 1 -4 -10.9 5.7
31 -1 4 3.5 6.7
-31 -1 -4 -2.5 6.3
31 1 5 18.9 8.2
-31 1 -5 15.7 7.9
-31 -1 -5 20.8 10
31 -1 5 4.2 7.6
-31 1 -6 4.4 7.5
31 1 6 2.4 6.3
-31 -1 -6 21.8 10.3
31 -2 -9 12.5 6.1
31 -2 -8 27.8 7.5
31 -2 -8 15.8 7.4
31 -2 -7 8.5 5.4
31 -2 -6 -2.9 4.5
31 -2 -5 -5.1 4.3
31 2 -4 6.6 2.6
31 -2 -4 1.5 5.3
-31 2 3 -6.8 6.5
31 2 -3 7.8 3.4
31 -2 -3 3.9 5.2
-31 -2 3 -5.7 4.8
31 2 -2 14.1 4.8
-31 2 2 13.1 7.1
-31 -2 2 20.1 7.2
31 -2 -2 2.6 5.6
31 2 -1 19.6 5.4
-31 2 1 7.2 4.7
-31 -2 1 3.4 4.9
-31 -2 1 12.4 6
31 -2 -1 19 7
31 2 0 -5 3.8
-31 2 0 12.9 4.9
31 -2 0 5.4 5.8
-31 -2 0 5.2 5.2
-31 -2 0 3.6 5.8
-31 2 -1 28.1 6.7
31 2 1 27.7 7.3
-31 -2 -1 32.1 9
-31 -2 -1 30.4 8
31 -2 1 30.1 7.5
-31 2 -2 1 5.4
31 2 2 13 6
31 -2 2 6 5.8
-31 -2 -2 18.8 7.3
-31 2 -3 -0.7 5.2
31 2 3 3.7 5.7
31 -2 3 1.5 7.4
-31 -2 -3 5.2 7.5
-31 2 -4 0.5 5.5
31 2 4 -3.7 6
-31 -2 -4 -16.5 6.2
31 -2 4 -8.7 5
31 2 5 4.9 8.2
31 -2 5 4.4 7.8
-31 -2 -5 17.3 9.4
31 -3 -9 16.9 7.2
31 -3 -8 44.1 9.1
31 -3 -7 0.6 5.9
31 -3 -6 9.1 5.5
31 -3 -5 2 4.7
31 -3 -4 12.2 6.1
-31 -3 4 4.6 5.5
-31 3 3 16.6 7.4
31 3 -3 16.2 3.3
31 -3 -3 17.7 7.4
-31 -3 3 0.6 5.9
31 3 -2 3 3.7
-31 3 2 24.9 13
31 -3 -2 5 5.9
-31 -3 2 8.8 6.9
-31 -3 2 8.1 5.7
31 3 -1 31.6 6.7
-31 3 1 51.59 10.5
-31 3 1 36.3 6.4
-31 -3 1 41.9 9.8
-31 -3 1 42.8 7.2
31 3 0 3.8 4.4
-31 3 0 0.3 4.2
-31 3 0 2 5.4
-31 -3 0 7.9 5.4
-31 -3 0 8.2 7.2
31 -3 0 13.1 7.4
31 3 1 2.4 5.2
-31 3 -1 5.5 4.3
31 -3 1 4.8 6.1
-31 -3 -1 -13.6 6.8
-31 -3 -1 6.1 6.6
31 3 2 9.9 5.6
-31 -3 -2 -9.4 5.7
-31 -3 -2 4.1 6.5
31 3 3 -0.1 5.6
-31 -3 -3 -8.6 6.1
31 -3 3 5.8 6.7
31 3 4 -3.4 6.2
-31 -3 -4 11.3 9.1
31 -3 4 4.1 6.2
31 3 5 -10.3 5.8
-31 -3 -5 -4.8 6.8
31 -3 5 -5 5.2
31 -4 -8 3.9 6.1
31 -4 -7 5.3 5.6
31 -4 -6 -6.6 5.5
31 -4 -5 -3.6 5.5
-31 -4 5 -1.3 5.4
-31 4 4 5.5 8.3
-31 -4 4 -1.3 5.6
31 -4 -4 -11.3 5.2
-31 4 3 13 8.2
31 -4 -3 6.9 6.5
-31 -4 3 14.2 7.1
-31 4 2 8.2 6.4
31 -4 -2 5.1 6
-31 -4 2 2 5.1
-31 -4 2 3.4 3.2
31 4 -1 18.4 5.4
-31 4 1 -7.1 6.4
-31 4 1 7.9 4.3
-31 -4 1 5.1 4
-31 -4 1 12.3 7.3
31 -4 -1 14 6.5
-31 4 0 6.1 4.4
-31 4 0 5.6 5.8
31 4 0 20.2 6.6
-31 -4 0 4 7.7
-31 -4 0 13.5 6.1
31 -4 0 10.8 7.7
-31 4 -1 7.7 4.9
31 4 1 16.6 6.4
-31 4 -1 9.9 6.6
-31 -4 -1 6.4 6.7
31 -4 1 -3 7.2
-31 4 -2 2.2 2.7
31 4 2 22.5 7.7
31 -4 2 4.6 6.9
-31 -4 -2 6.3 7.4
-31 -4 -2 34.7 8.8
-31 4 -3 5.6 3.6
31 4 3 -12.8 5.1
-31 4 -3 -4.8 2.1
-31 -4 -3 -6.9 6.8
31 -4 3 -3.3 5.8
31 4 4 18.3 8.1
-31 4 -4 0.8 2.9
-31 4 -4 2.5 2.4
31 -4 4 -1.9 6.4
-31 -4 -4 -4.4 9.3
31 4 5 9.6 8.1
31 -4 5 0.5 6.6
-31 -4 -5 0.4 8.3
31 -5 -7 2.7 6.7
-31 -5 6 10.7 6.7
31 -5 -6 -6.7 5.6
-31 -5 5 -2.6 6.5
31 -5 -5 -0.7 6.2
-31 5 4 -0.7 8.1
-31 -5 4 0.2 6.4
31 -5 -4 -7.1 5.2
31 -5 -3 2.2 5.8
-31 -5 3 0.3 6.3
-31 5 2 2.5 7.4
31 -5 -2 7.5 6.8
-31 -5 2 4.8 6.8
-31 -5 2 2.1 2.8
-31 5 1 4.1 3.6
-31 5 1 2.9 6
31 -5 -1 -3.9 5.3
-31 -5 1 1.8 4.4
-31 -5 1 -5.7 6.1
-31 -5 0 11 9.5
31 -5 0 12.2 7
-31 -5 0 21.8 6.5
-31 5 -1 2.1 3.5
31 5 1 13.9 6.5
-31 -5 -1 20 10.1
31 -5 1 11.4 7.4
31 5 2 3.5 6.8
31 -5 2 11.5 8.4
-31 -5 -2 -3.7 7.4
-31 -5 -2 10.9 8.6
31 5 3 3.2 7.9
-31 -5 -3 5.5 8.6
31 -5 3 6.5 7.3
31 5 4 0.2 6.9
31 -5 4 2.6 6.7
-31 -5 -4 -7.9 7.1
-31 -6 6 3.2 7.1
31 -6 -6 1.9 6.9
31 -6 -5 2 6.2
-31 6 4 -8.7 7.6
-31 -6 4 7 7.7
31 -6 -4 10.5 8.3
-31 6 3 0.9 6.9
31 -6 -3 -2 6
-31 -6 3 0.6 6.3
-31 6 2 7.6 6.1
-31 -6 2 -0.8 6.5
31 -6 -2 5 6.7
-31 6 1 -4.5 2.3
-31 6 1 19.3 5.7
-31 -6 1 -10 4
-31 -6 1 4.6 7.4
31 -6 -1 -13.2 4.8
-31 6 0 0.3 3.6
-31 6 0 -1.1 1.9
-31 -6 0 -16.8 5.6
31 -6 0 19.6 8.2
-31 -6 0 23.2 6.6
-31 -6 -1 -11.9 5.4
31 -6 1 -2.2 6.5
-31 -6 -1 1.7 8.3
31 -6 2 -9.3 6.8
-31 -6 -2 3.1 15.1
-31 -6 -3 5.9 9
31 -6 3 14.7 8.7
-31 7 4 -1.6 9
-31 -7 4 -5.5 6.5
31 -7 -4 -0.6 7.2
-31 7 3 4.4 7.2
31 -7 -3 7.4 8
-31 -7 3 -0.1 8.8
-31 7 2 -0.3 5.7
31 -7 -2 2.2 7.4
-31 -7 2 9.7 8.2
-31 -7 1 32.9 8.3
-31 -7 1 21.6 9.8
31 -7 -1 44.4 11.2
-31 -7 0 15.3 7.5
-31 -7 0 13.4 10
-31 -7 -1 13.4 8.7
31 -7 1 -0.4 6.5
-31 -7 -1 -8 7.3
32 0 -9 -2.6 3.5
32 0 -9 0.1 2.9
32 0 -7 -0.6 2.2
32 0 -6 0.9 5.3
32 0 -5 0 3.4
32 0 -4 8.9 4.6
32 0 -3 -8.5 3.2
32 0 -2 5.9 4.7
-32 0 2 -2.6 5.3
-32 0 1 2.7 7
32 0 -1 2.1 5.1
-32 0 1 0.4 4.6
-32 0 0 6.2 5.4
32 0 0 12.7 6
-32 0 0 2.6 5.9
-32 0 -1 4.6 6.3
32 0 1 -1.6 4.9
-32 0 -2 -5.8 5.2
32 0 2 7.3 5.8
32 0 3 3.3 5.7
-32 0 -3 -9.9 6.4
32 0 4 -0.9 6.7
-32 0 -4 -2.9 7
32 0 5 -1.3 6
32 -1 -9 46.6 8.6
32 -1 -8 0.3 4.5
32 -1 -8 0.6 2.8
32 -1 -7 50.39 7.9
32 -1 -6 37.8 6.9
32 -1 -5 -7 3.7
32 1 -4 2.7 3.2
32 -1 -4 7.5 4.6
32 1 -3 0 3.8
-32 -1 3 17.9 6.2
32 -1 -3 6.4 5.2
-32 1 2 7.1 5.1
32 1 -2 -3.4 3.6
32 -1 -2 0.4 4.5
-32 -1 2 -5.6 3.9
-32 1 1 23.7 6.6
32 1 -1 28.4 6.6
-32 -1 1 33.8 7.3
32 -1 -1 26.9 7.5
-32 -1 1 29.9 7.3
-32 1 0 8.5 5.7
-32 1 0 3.8 6.7
32 1 0 16.1 5.9
-32 -1 0 12.5 7.7
32 -1 0 7.5 6.5
32 1 1 6 5.3
-32 1 -1 7.7 5.9
-32 -1 -1 6.2 6.2
-32 1 -2 4.6 5.7
-32 -1 -2 -5.6 6.8
32 -1 2 -6.5 4.4
32 1 3 0.1 4.9
-32 1 -3 1.2 6.1
32 -1 3 0.7 4.7
-32 -1 -3 -10.4 6.1
-32 1 -4 16.8 7.7
32 1 4 21.5 8.8
-32 -1 -4 -2.7 7.4
32 -1 4 -5.5 5.2
-32 1 -5 52.39 11.1
32 1 5 56.69 12.5
32 -1 5 43.6 10.1
-32 -1 -5 69.99 14
32 -2 -9 19.2 11.6
32 -2 -9 -0.3 5.4
32 -2 -8 11.8 5.8
32 -2 -7 5.5 5.6
32 -2 -6 3.7 5.3
32 -2 -5 0.2 5.2
32 -2 -4 1.6 5.4
32 2 -3 7.8 3.5
-32 2 3 18.9 9.2
32 -2 -3 -5.6 4.2
-32 -2 3 16.7 7.1
32 2 -2 -2.7 3.4
-32 2 2 -8.7 6.3
-32 -2 2 2.1 5.8
32 -2 -2 3 5.2
-32 2 1 28.1 6.4
32 2 -1 14.7 5.1
-32 -2 1 8.7 6.3
32 -2 -1 10.2 6.7
-32 -2 1 11.5 5.4
32 2 0 3.7 4.8
-32 2 0 -1.4 4.1
-32 -2 0 -2.7 5
-32 -2 0 6.8 6.1
-32 2 -1 11.9 5.8
32 2 1 23.6 7.1
32 -2 1 12.3 6.7
-32 -2 -1 2.8 6.2
-32 -2 -1 10.6 6.6
-32 2 -2 8.7 5.9
32 2 2 -6.9 4.6
32 -2 2 -7 4.8
-32 -2 -2 -5.8 6
-32 2 -3 4.2 5.9
32 2 3 7.6 6.6
32 -2 3 3.7 6.5
-32 -2 -3 16.6 8.3
-32 2 -4 15.9 6.1
32 2 4 2 7.2
-32 -2 -4 -9 8.1
32 2 5 4.1 6.7
-32 2 -5 6.6 4.8
32 -2 5 16.5 8.6
-32 -2 -5 -4.3 8.2
32 -3 -8 -8.6 5.2
32 -3 -7 -1.7 5.5
32 -3 -6 10.8 6.1
32 -3 -5 -8.1 5.3
32 -3 -4 3.6 5.6
-32 -3 4 -4.5 4.6
32 3 -3 -2.5 2.2
-32 3 3 4.9 7.3
-32 -3 3 -2 5.8
32 -3 -3 4.7 5.8
32 3 -2 4 4.1
-32 3 2 7.1 7.3
-32 -3 2 -6.2 5.5
32 -3 -2 3.1 6.5
-32 3 1 32.8 6.6
-32 3 1 46.3 10
32 3 -1 43 7.4
32 -3 -1 21.1 8.1
-32 -3 1 24.8 5.8
-32 -3 1 32.8 9.3
-32 3 0 3.3 4.7
-32 3 0 -3.7 5.9
32 3 0 7.7 4.9
-32 -3 0 8.9 7.3
32 -3 0 0.1 6.1
-32 -3 0 5.7 5.6
-32 3 -1 1.9 4.2
32 3 1 1.2 4.9
-32 -3 -1 -3.6 5.9
32 -3 1 -9.8 5.2
-32 -3 -1 7.7 6.4
32 3 2 -1 5.1
-32 3 -2 11.8 5.3
32 -3 2 12.6 6.7
-32 -3 -2 11.3 8.9
32 3 3 6.4 5.8
-32 3 -3 -7.7 2.9
32 -3 3 -7.4 5.6
-32 -3 -3 -10.6 7.3
32 3 4 -6.6 6.1
-32 -3 -4 -14.9 8
32 -3 4 0.2 7.1
32 3 5 9.9 7.9
-32 -3 -5 -9.9 8.9
32 -3 5 -2.4 6.4
32 -4 -8 14.8 7.4
32 -4 -7 -9.4 5.6
32 -4 -6 -0.4 5.9
32 -4 -5 6.6 6.2
-32 -4 5 6.5 6.7
-32 -4 4 14.4 7.1
32 -4 -4 4.9 5.7
-32 4 3 4.9 7.7
32 -4 -3 -7.8 5.8
-32 -4 3 -2 6.5
-32 4 2 10.7 7.2
32 -4 -2 8.5 6.9
-32 -4 2 5.7 6.4
-32 4 1 10 4.2
32 4 -1 2.5 4.6
-32 4 1 10.4 6.5
-32 -4 1 -6.2 4
32 -4 -1 17.3 7.6
-32 -4 1 4.7 6.6
32 4 0 5.6 5.2
-32 4 0 10.5 4.5
-32 4 0 1.9 6
32 -4 0 7.8 6.6
-32 -4 0 7.8 7.1
-32 -4 0 -5 5
32 4 1 5.6 5.7
-32 4 -1 -7.3 2.5
-32 -4 -1 15 6.4
32 -4 1 0.1 6.4
-32 -4 -1 -2.2 6.2
-32 4 -2 -1.3 2.9
32 4 2 -6.2 5.6
-32 -4 -2 8.2 8.4
32 -4 2 -13.9 5.8
-32 4 -3 7.3 3
32 4 3 -6.5 6
-32 4 -3 -5.4 3.7
-32 -4 -3 2.3 8.1
32 -4 3 -0.8 6.5
-32 4 -4 -0.6 3.3
32 4 4 7.8 7.3
-32 4 -4 -2.4 2.6
-32 -4 -4 5.5 9
32 -5 -7 -2.7 6
32 -5 -6 -3.2 6.8
32 -5 -5 -10.2 5.7
-32 -5 5 11.3 6.6
-32 5 4 4.6 9.7
-32 -5 4 -0.1 5.3
32 -5 -4 -7.6 5.6
-32 5 3 -11.1 7.1
-32 -5 3 0.5 5.8
32 -5 -3 1.3 6.8
-32 5 2 12.4 7.6
-32 -5 2 -9.2 5.7
32 -5 -2 7.4 7.4
-32 5 1 0.6 3.3
-32 5 1 -2.6 5.8
32 -5 -1 2.3 6.6
-32 -5 1 -4.3 5.8
-32 -5 1 -1.3 3.9
-32 5 0 10.1 5.1
-32 -5 0 0.6 6.7
-32 -5 0 -5.2 5.5
32 -5 0 -14.7 5.6
-32 5 -1 -1.6 2.3
32 5 1 0.8 5.6
-32 5 -1 4.9 4.1
-32 -5 -1 3.5 5.8
32 -5 1 22.5 9
-32 -5 -1 4.9 8.7
32 5 2 3 6.6
32 -5 2 3.9 8.6
-32 -5 -2 1.4 9.1
32 5 3 15.7 8.5
-32 -5 -3 8.1 9
32 -6 -5 -0.7 6.8
-32 6 4 -1.5 8.8
32 -6 -4 -4.4 5.8
32 -6 -3 -1.4 5.7
-32 6 2 -6.1 5.7
-32 -6 2 10 8.1
32 -6 -2 7.6 8.2
-32 6 1 -4 2.3
-32 6 1 -3.4 5.5
-32 -6 1 7.7 6.6
32 -6 -1 4.8 5.9
-32 -6 1 -1.8 4.2
-32 6 0 -3.3 4
-32 6 0 3.4 2.2
-32 -6 0 14.4 9.3
32 -6 0 4.2 6.6
-32 -6 0 10 6.1
32 -6 1 11.6 7.6
-32 -6 -1 -0.3 8.4
32 -6 2 21.4 9.8
-32 -6 -2 -9.1 8.4
32 -7 -2 1.4 7
-32 -7 2 15.1 9
33 0 -8 3.2 5
33 0 -8 3.9 2.5
33 0 -7 -1.1 2.5
33 0 -5 -5.5 3.1
33 0 -4 4.4 4.1
33 0 -3 -3.5 3.7
-33 0 2 1.3 4.3
33 0 -2 6.5 5
33 0 -1 7.8 5.4
-33 0 1 -16.9 6.8
-33 0 1 6.2 6.5
-33 0 0 5 6
-33 0 0 -8.7 5.7
33 0 0 -4.5 4.8
33 0 1 4.3 5.5
-33 0 -1 -6.4 5.4
33 0 2 -4.4 5.8
33 0 3 2.6 6.1
-33 0 -3 3.4 7.7
33 0 4 0.1 6.3
-33 0 -4 8.1 13.8
-33 0 -5 0.1 7.9
33 0 5 -10.5 6.8
33 -1 -8 -0.2 3.2
33 -1 -8 -6.7 4.6
33 -1 -7 3.3 4.3
33 1 -6 3.7 1.4
33 1 -6 -2.9 1.7
33 -1 -6 -0.1 4.4
33 1 -5 3.2 2
33 -1 -5 3.1 4.8
33 1 -4 8.5 3.6
33 -1 -4 5.8 4.8
33 1 -3 -1.4 3.5
33 -1 -3 4.5 4.9
-33 -1 3 -6.9 4.2
-33 1 2 16.6 6.1
33 1 -2 7.2 4.7
-33 -1 2 12.3 5.8
33 -1 -2 16.7 5.9
33 1 -1 8.1 4.9
-33 1 1 13.4 5.9
-33 -1 1 7.3 5.5
-33 -1 1 5.3 5.8
33 1 0 18.4 6.8
-33 1 0 36 8.2
33 -1 0 26.5 8.5
-33 -1 0 35.4 8.1
-33 -1 0 12.4 6.9
-33 1 -1 14.9 6.6
33 1 1 15.2 6.3
33 -1 1 4.5 6
-33 -1 -1 18.5 7.8
33 1 2 4.3 6.1
-33 1 -2 8.6 6.2
-33 -1 -2 -0.6 6.6
33 -1 2 12.9 6.7
33 1 3 1.3 5.8
-33 1 -3 11.9 7.2
-33 -1 -3 -8.3 6.7
33 -1 3 8.9 5.8
-33 1 -4 -7.7 7
33 1 4 -6.8 6.7
-33 -1 -4 -5.1 7.9
33 -1 4 0.1 6.1
-33 1 -5 16.3 8.1
33 1 5 25 10.2
-33 -1 -5 14.4 10.9
33 -1 5 6.8 7.6
33 -2 -8 34.1 7.4
33 -2 -7 16.6 7.5
33 -2 -6 8.7 5.8
33 -2 -5 8.6 5.7
33 2 -4 4.5 1.8
-33 -2 4 1.2 5.5
33 -2 -4 21.1 6.1
33 2 -3 8.6 3.5
-33 -2 3 14.3 7
33 -2 -3 -2.5 4.9
33 2 -2 4.1 3.7
-33 2 2 -1.6 7.5
-33 2 2 -8.6 3.4
33 -2 -2 -3.5 5.1
-33 -2 2 -13 4.9
33 2 -1 1.2 4.2
-33 2 1 2.1 4.4
-33 -2 1 9.2 5.4
-33 -2 1 3.9 5.4
33 -2 -1 0.9 5.5
-33 2 0 10.1 5.7
33 2 0 -8.8 4.2
33 -2 0 -0.4 5.5
-33 2 -1 -2.3 4.6
33 2 1 3.6 5.5
-33 -2 -1 -16.4 6.6
33 -2 1 5.2 6.6
-33 -2 -1 -6 5.2
-33 2 -2 1 5.9
33 2 2 2 6
-33 -2 -2 15.5 8
33 -2 2 -9.7 4
33 2 3 -8.2 5.6
-33 2 -3 -0.2 5.9
-33 -2 -3 2 7.8
33 -2 3 2.1 5.9
-33 2 -4 -6.5 4.5
33 2 4 -3.9 6.6
33 -2 4 -10.8 6.3
-33 -2 -4 14.2 8.3
33 -3 -8 95.59 13
33 -3 -7 13.5 7.6
33 -3 -6 8.3 6.3
33 -3 -5 -1 5.3
-33 -3 4 6.6 6.3
33 -3 -4 -2.6 5.4
33 3 -3 3.5 2.1
-33 3 3 -4.5 8.2
33 -3 -3 26 8.6
-33 -3 3 26 8.5
-33 3 2 0.4 7
-33 -3 2 2.3 5.2
33 -3 -2 0.2 6.3
33 3 -1 7.7 4.6
-33 3 1 3.4 4.2
-33 -3 1 -2 5.8
33 -3 -1 4.6 5.2
-33 -3 1 9.6 5.1
33 3 0 1.9 4.7
-33 3 0 7.8 5.3
-33 3 0 3.9 6.9
33 -3 0 13.7 6.7
-33 -3 0 -3.2 7.8
-33 -3 0 11.7 6.1
33 3 1 13.2 6
-33 3 -1 6.6 5.1
33 -3 1 12.4 7.1
-33 -3 -1 11.5 6.7
-33 -3 -1 9.7 7
-33 3 -2 0.3 4.1
33 -3 2 -7.4 6.1
-33 -3 -2 10 8.6
-33 3 -3 -1.8 3.6
33 3 3 19.6 7
-33 -3 -3 4.3 9.1
33 -3 3 16.4 8.5
33 3 4 2.6 6.9
-33 3 -4 -2.5 3.8
33 -3 4 -13.8 6.6
-33 -3 -4 5.4 8.6
33 -4 -7 16 7.6
33 -4 -6 -8.4 5.5
33 -4 -5 -15.9 5.5
-33 -4 5 2.4 5.8
-33 -4 4 -11.2 4.5
33 -4 -4 -7 5.8
-33 4 3 6.6 8.2
33 -4 -3 3.2 6.5
-33 -4 3 -9.2 5.6
33 4 -1 5.7 4.4
-33 4 1 3.9 6.5
-33 4 1 -0.4 4
-33 -4 1 1.6 7.8
33 -4 -1 -5.2 5.3
-33 -4 1 4.4 4.1
-33 4 0 3.7 6
-33 4 0 0.7 3.9
33 4 0 5 5.4
33 -4 0 -2.9 5.4
-33 -4 0 7 5.9
-33 4 -1 6.5 5.1
33 4 1 22.4 7.3
-33 -4 -1 -1.5 7.6
-33 -4 -1 12.2 7
33 -4 1 6.7 6.5
-33 4 -2 -0.1 5
33 -4 2 6.6 7.4
-33 -4 -2 10.8 8.4
-33 4 -3 -4 4.3
-33 4 -3 1.1 3.2
33 4 3 14.4 7.5
33 -4 3 5.7 7.3
-33 -4 -3 0.2 9.3
-33 -5 6 10.7 7.5
33 -5 -6 17.2 7.6
33 -5 -5 11.7 6.6
-33 -5 4 9.9 7.5
33 -5 -4 -0.9 6.2
-33 5 3 -19.9 7.2
-33 -5 3 6.5 6.6
33 -5 -3 -2.1 6.3
-33 5 2 2.7 7.6
-33 -5 2 10.4 8.1
33 -5 -2 -3.7 5.1
-33 5 1 -4.9 5.2
-33 5 1 -0.5 2.8
33 -5 -1 6.7 5.9
-33 -5 1 3.4 4.4
-33 -5 1 4.4 6.8
-33 5 0 2.6 2.7
-33 5 0 -0.9 5.3
-33 -5 0 -5.8 5.7
-33 -5 0 14 9.1
33 -5 0 6 6.4
-33 5 -1 4 4.9
-33 5 -1 1 2.9
33 5 1 3 5.9
-33 -5 -1 2.8 10
33 -5 1 -5.7 5.5
-33 -5 -1 3.6 6.1
33 -5 2 3.8 7.7
-33 -5 -2 -2.3 10.1
33 -6 -4 3.4 6.7
-33 -6 4 0.8 6.6
-33 6 3 18.7 9
33 -6 -3 -2.3 6.8
-33 -6 3 -8.1 7.6
-33 6 2 -6.2 6.5
33 -6 -2 25.6 8.9
-33 -6 2 7.9 9.1
-33 6 1 2.1 2.6
-33 6 1 -7.1 5.2
-33 -6 1 17.1 10.6
33 -6 -1 11.7 7.8
-33 -6 1 1.5 4.7
-33 6 0 5.7 4.8
33 -6 0 20.2 9
-33 -6 0 13.9 7.8
-33 -6 0 25.6 10
34 0 -8 0.3 3.9
34 0 -8 -1.5 2.6
34 0 -7 0.7 2.4
34 0 -5 2.6 3.6
34 0 -4 5.9 4.2
-34 0 3 1.8 4.9
34 0 -3 -3.4 3.7
-34 0 2 3.3 5.1
34 0 -2 -2.3 4.1
34 0 -1 15.3 6.1
-34 0 1 6.8 5.5
-34 0 0 1.3 7.8
-34 0 0 1 6.9
34 0 0 15.6 6.4
34 0 1 -12.5 5.1
34 0 2 -0.5 6.5
34 0 3 1.4 6.2
-34 0 -3 -1.9 9.5
34 0 4 45.1 11.5
-34 0 -4 59.79 13
34 -1 -8 11.5 5.7
34 -1 -8 -2.6 3.4
34 -1 -7 -0.4 3
34 1 -6 -3.7 1.4
34 1 -6 -2.4 2
34 -1 -6 8 4.7
34 1 -5 0.9 2
34 -1 -5 0.3 4.1
34 -1 -4 0.5 4.8
34 1 -3 -2.6 3.6
-34 -1 3 1.6 5.1
34 -1 -3 5.5 4.9
34 1 -2 0.9 4.4
-34 1 2 2.3 6.3
34 -1 -2 6.2 5.4
34 1 -1 -3.5 4.1
-34 1 1 3.3 5.6
34 -1 -1 6 6
-34 -1 1 6.3 5.5
-34 -1 1 -4.4 5.7
-34 1 0 41.1 8.2
34 1 0 20.1 7.1
-34 -1 0 15 6.7
-34 -1 0 25.7 7.5
-34 1 -1 6.6 6.2
-34 -1 -1 8.3 7
34 -1 1 9.9 6.5
34 1 2 -7.2 4.9
-34 1 -2 -5.4 6.4
34 -1 2 8.6 6.3
-34 -1 -2 -13.8 6.5
-34 1 -3 5.5 7.2
-34 -1 -3 34 10.4
34 -1 3 21.2 8.7
-34 1 -4 9.9 7.5
34 1 4 15.4 8.2
-34 -1 -4 -2.8 8.2
34 -1 4 15.4 8.7
34 -2 -8 17.7 8.2
34 -2 -7 4.9 5.5
34 -2 -6 -4.3 4.9
34 -2 -5 5.1 4.9
34 2 -4 0.8 1.8
34 -2 -4 -2.7 4.4
-34 -2 4 4.8 5.7
34 2 -3 -5.4 2.8
34 -2 -3 2 5
-34 -2 3 -5 5.9
34 2 -2 -0.7 3.7
-34 2 2 5 4.6
-34 -2 2 -0.4 6.4
34 -2 -2 4.9 5.5
34 2 -1 9.5 4.8
-34 2 1 -3.4 4.9
-34 -2 1 -0.6 5
34 -2 -1 -11.4 4
-34 -2 1 8.8 5.4
34 2 0 17.3 5.9
-34 2 0 17.9 6.7
34 -2 0 20.5 7.5
-34 -2 0 24.2 9
-34 -2 0 1.4 5.6
-34 2 -1 11.3 6.2
34 2 1 8.2 5.7
-34 -2 -1 -19.3 8.7
34 -2 1 -4.7 6
-34 -2 -1 0.1 6.8
34 2 2 10.8 6.5
-34 2 -2 13.4 7.3
-34 -2 -2 4.8 8.6
34 -2 2 5.5 7
34 2 3 -10.4 6.3
-34 2 -3 3.1 6.2
34 -2 3 -4.2 6.3
-34 -2 -3 -8.3 6.9
34 2 4 3 6.8
-34 2 -4 -0.7 4.6
-34 -2 -4 -11.3 6.7
34 -2 4 -2.7 6.3
34 -3 -7 28 8.4
34 -3 -6 12.8 6
-34 -3 5 2.7 6.5
34 -3 -5 1 5.9
-34 -3 4 -2.5 6.1
34 3 -3 2.1 1.9
34 -3 -3 12.1 6.4
-34 -3 3 -6.9 6.3
-34 3 2 3.1 4.5
34 3 -2 1.5 4.4
-34 3 2 6.1 8.8
-34 -3 2 1.8 5.5
34 -3 -2 -3 5.9
34 3 -1 -1.8 4
-34 3 1 -1.9 7.1
-34 3 1 -2 4.5
-34 -3 1 -10.1 5.5
-34 -3 1 1.9 5.1
34 -3 -1 -3.2 5.8
-34 3 0 26 7.1
34 3 0 13.6 6.4
-34 3 0 24.6 7.9
-34 -3 0 26.2 9.2
34 -3 0 7.7 6.9
-34 -3 0 13.2 8.5
34 3 1 2 5.7
-34 3 -1 3.4 4.9
34 -3 1 -10.7 4.5
-34 -3 -1 -14.3 5.7
-34 -3 -1 -9.2 6.8
34 3 2 11.2 6.6
-34 -3 -2 9.4 10
34 -3 2 12.8 8.5
-34 3 -3 0.4 3.9
34 3 3 -6.8 6.9
34 -3 3 -0.4 6.1
-34 -3 -3 -2.2 8.4
-34 -4 6 1.3 6.6
34 -4 -6 -2.2 5.9
34 -4 -5 16 7.9
-34 -4 5 7.8 7.3
-34 -4 4 6 6.7
34 -4 -4 -8.5 6.1
-34 4 3 0.3 8.8
-34 -4 3 4.5 6.7
34 -4 -3 0.8 5.5
-34 4 2 -11.3 6.9
-34 4 2 7.1 4.7
-34 -4 2 -0.5 7.4
34 -4 -2 -0.5 5.8
-34 4 1 -1.1 4.3
34 4 -1 -3.5 3.1
-34 4 1 -1.1 6.8
34 -4 -1 9.4 8
-34 -4 1 -7.3 6
34 4 0 5.1 6
-34 4 0 4.5 3.7
-34 4 0 2.7 6.1
-34 -4 0 14.3 8.3
-34 -4 0 -9.5 5.8
34 -4 0 1 6.8
-34 4 -1 -12.2 5
-34 4 -1 -1.4 3
34 4 1 -6.3 5.7
34 -4 1 -5 6
-34 -4 -1 -3.9 6.8
-34 -4 -1 -4.4 6.6
-34 4 -2 1.7 5.4
34 4 2 4.4 7.1
-34 -4 -2 3.5 9.4
34 -4 2 5.2 6.3
-34 -5 5 13 7.6
34 -5 -5 -5.4 6.5
34 -5 -4 27 8.9
-34 -5 4 -11.3 5.6
-34 5 3 17.5 9.7
-34 -5 3 0.3 8.2
34 -5 -3 -10.2 5
-34 5 2 10.1 9.5
34 -5 -2 1.6 6.8
-34 -5 2 -2.2 6.6
-34 5 1 -16.9 6.2
-34 5 1 -4 2.8
-34 -5 1 -6.3 7.9
-34 -5 1 -9.8 4.1
34 -5 -1 7 8
-34 5 0 -2 6.3
-34 5 0 6.8 3.1
34 -5 0 1.4 6.6
-34 -5 0 -7.5 5.1
-34 -5 0 4 8.3
34 5 1 20.8 7.7
-34 5 -1 0.9 3.2
34 -5 1 -0.2 7.2
35 0 -7 0.4 2.4
35 0 -5 -0.8 2.4
35 0 -4 -4.6 3.8
35 0 -3 -9.4 3.6
-35 0 3 5.2 5.3
35 0 -2 -2.9 4.4
-35 0 2 -6.6 4.8
-35 0 1 9.3 5.7
35 0 -1 -3.9 4.9
-35 0 0 13.9 6.7
35 0 0 12.7 5.8
-35 0 -1 -10.3 5.3
35 0 1 -5.7 5.6
35 0 2 -8.9 5.5
-35 0 -2 1.4 6.8
-35 0 -3 4.3 7.4
35 0 3 6.4 6.2
35 -1 -7 -3.8 3
35 1 -6 4.3 1.7
35 1 -6 -6.5 2.2
35 -1 -6 -6.1 2.8
35 1 -5 4.3 2
35 -1 -5 10.9 5.5
35 1 -4 4.4 3.8
35 -1 -4 -4.7 4.3
35 1 -3 7.9 4.3
35 -1 -3 -1.7 4.6
-35 -1 3 -6 5.3
35 1 -2 17.9 5.8
-35 1 2 12.3 6.5
-35 -1 2 7.4 6.2
35 -1 -2 12.4 6.8
-35 1 1 11.5 7.8
35 1 -1 2.5 5.1
-35 -1 1 11.7 6.8
35 -1 -1 -8.6 5.3
-35 -1 1 19.8 7.4
-35 1 0 12.2 6.4
35 1 0 21.2 6.7
-35 -1 0 5.1 6
-35 -1 0 18.4 7.7
35 -1 0 11.1 6
35 1 1 17.3 7.3
-35 1 -1 20.6 7.9
35 -1 1 16.8 7.3
-35 -1 -1 31.7 9.3
35 1 2 17.3 8.2
-35 1 -2 13 8
35 -1 2 23.3 8.2
-35 -1 -2 -5.6 7.4
-35 1 -3 -1.6 7.1
35 1 3 12.5 7.7
-35 -1 -3 -11.7 8.1
35 -1 3 -2.5 7.1
35 -2 -7 7.3 5.9
35 -2 -6 -2.9 5.5
35 -2 -5 1.7 5.2
35 2 -4 -1.7 1.9
35 -2 -4 1.2 6
-35 -2 4 8 7
-35 -2 3 8.9 6.5
35 -2 -3 9.2 6.4
35 2 -2 10.9 4.7
-35 2 2 6.4 9
-35 -2 2 9.8 7
-35 2 1 13.6 6.3
35 2 -1 12.7 5.7
35 -2 -1 16.1 6.5
-35 -2 1 20.5 8.1
-35 -2 1 16.7 6.9
-35 2 0 -6.4 5.7
35 2 0 8.6 5.6
-35 -2 0 -15.1 6.2
35 -2 0 -4.4 5.7
-35 -2 0 -4.6 6.1
35 2 1 11.1 7.4
-35 2 -1 11.2 6.6
-35 -2 -1 15.5 8.4
35 -2 1 13.9 7.9
-35 2 -2 4.8 6.7
35 2 2 6.6 7.6
35 -2 2 5.5 7.2
-35 -2 -2 24.9 9.9
35 2 3 26.4 9.3
-35 2 -3 -10.7 4.9
-35 -2 -3 -8.4 8.5
35 -2 3 2.6 6.7
-35 -3 5 1.7 6.9
35 -3 -5 -7.3 6.9
35 -3 -4 4 6.5
-35 -3 4 -1.6 5.7
35 3 -3 -2.2 2.1
-35 -3 3 4.9 7.3
35 -3 -3 12.1 7
-35 3 2 -6.2 8.9
35 3 -2 -4.8 2.5
-35 3 2 3.2 5.2
35 -3 -2 -11.9 5.4
-35 -3 2 -0.7 5.8
35 3 -1 5.3 4.4
-35 3 1 4.1 5.6
-35 3 1 11.6 8.2
-35 -3 1 -2.7 4.7
-35 -3 1 11.5 6.7
35 -3 -1 -0.8 5.3
-35 3 0 4.6 5.8
35 3 0 7.6 6.1
-35 -3 0 4.8 6.3
35 -3 0 0.4 6.4
-35 -3 0 7.3 7.1
35 3 1 3.8 6
-35 3 -1 8.4 4.9
-35 3 -1 8.3 7.8
35 -3 1 11.6 7.4
-35 -3 -1 10.5 8.5
-35 3 -2 -0.1 3.8
35 3 2 -15 5.4
-35 -3 -2 1.9 8
35 -3 2 -4.8 6.7
35 -4 -5 9.2 6.8
-35 -4 5 -2.5 6.7
-35 -4 4 2.8 8.2
35 -4 -4 17.5 7.9
35 -4 -3 5.5 6.2
-35 -4 3 0.8 6.1
-35 4 2 22.9 9.6
-35 4 2 4.2 5.3
-35 -4 2 16.5 8.5
35 -4 -2 1.3 7.1
35 4 -1 5.8 3.4
-35 4 1 31.9 13.8
-35 4 1 12.8 5.5
-35 -4 1 -1.2 4.4
-35 -4 1 -4.2 7
35 -4 -1 3.9 6.8
-35 4 0 -5.2 3.1
35 4 0 4.9 5.5
-35 4 0 -4.6 6.7
-35 -4 0 2 7.7
35 -4 0 16 9
-35 -4 0 1.2 5.9
35 4 1 50.89 10
-35 4 -1 5.9 6.5
35 -4 1 28.6 10.3
-35 -4 -1 28.8 9.6
-35 -4 -1 31.7 9.3
35 -5 -4 -10.3 5.8
-35 -5 4 14.7 7.8
-35 5 3 9 10.7
35 -5 -3 26.7 10.3
-35 -5 3 23 8.7
-35 5 2 13.1 12.2
-35 5 2 0.5 4.1
35 -5 -2 -5.4 6.3
-35 -5 2 1.5 6.1
-35 5 1 15.4 8.2
35 -5 -1 -1.3 6.5
-35 -5 1 2.1 5.4
-35 -5 1 -10.6 7.9
-35 5 0 7.1 3.3
-35 -5 0 3.2 7.5
-35 -5 0 -14 8.1
35 -5 0 -1.5 7.4
36 0 -7 -0.4 2.7
36 0 -6 14.3 5
36 0 -5 -2.2 2.6
36 0 -4 7.2 3.8
36 0 -3 -9.7 3.9
-36 0 3 5.5 6
-36 0 2 1.6 5.4
36 0 -2 11.3 5.9
-36 0 1 -1.3 5.5
-36 0 0 26.5 8.4
36 0 0 46 9.5
-36 0 -1 -9.4 6.2
36 0 1 16 7
-36 0 -2 -9 7.1
36 0 2 0.9 6.3
36 1 -6 -0.3 1.8
36 1 -6 4.5 2.5
36 -1 -6 6.3 4
36 1 -5 0.3 2.3
36 -1 -5 5.6 5.3
36 1 -4 0.5 2.4
36 -1 -4 14.8 5.8
-36 -1 4 1.9 5.5
-36 1 3 5.3 5.5
36 1 -3 1 3.8
-36 -1 3 -6.9 5.7
36 -1 -3 3.6 5.8
-36 1 2 9.3 6
36 1 -2 -1.9 4.2
-36 -1 2 -4.9 6.1
36 -1 -2 7 6.3
-36 1 1 -9.6 4.5
36 1 -1 6 5.1
-36 -1 1 14.7 7
-36 -1 1 1.1 5.9
36 -1 -1 23.4 10.1
-36 1 0 -1.2 6.5
36 1 0 8 5.9
-36 -1 0 -2.7 6.6
36 1 1 11.1 7.1
-36 1 -1 10.5 12.4
-36 -1 -1 29.8 9.1
36 -1 1 15.3 6.6
-36 1 -2 -10.8 6.4
36 1 2 10 7.6
36 -1 2 -10.7 5.4
-36 -1 -2 12.7 8.4
36 -2 -6 8 6.3
36 -2 -5 -9.4 5.1
36 2 -4 -2.4 2.1
-36 -2 4 -0.2 6.6
36 -2 -4 0.8 5.5
36 2 -3 2 3.9
-36 -2 3 2.8 6
36 -2 -3 -6.8 5.7
36 2 -2 -0.4 3.3
-36 2 2 6.6 5.5
-36 -2 2 14 7.6
36 -2 -2 10.1 6.1
36 2 -1 -2.9 4.7
-36 2 1 -11.9 4.3
-36 -2 1 7.7 6.7
-36 -2 1 -10.6 6.3
36 -2 -1 -9.3 5.7
36 2 0 -0.7 5.3
-36 2 0 -2.4 5.5
-36 -2 0 10.5 7
-36 -2 0 -4.6 6.3
36 -2 0 5.1 6.6
-36 2 -1 -14.1 5.6
36 2 1 22.5 7.7
36 -2 1 2.4 7.3
-36 -2 -1 -2.2 5.6
36 2 2 -1.3 6.8
-36 2 -2 14.1 6.7
36 -2 2 -6 6.5
-36 -2 -2 0.2 7.7
36 -3 -5 3 6.5
-36 -3 4 -10.2 5.5
36 -3 -4 -0.1 6.3
36 -3 -3 -3.2 7
-36 -3 3 3.7 7.1
36 3 -2 -1 2.9
-36 3 2 5.6 5
36 -3 -2 -8.2 5.4
-36 -3 2 0.7 6.4
36 3 -1 -4.5 3.3
-36 3 1 16.7 9.4
-36 3 1 -10.6 4.4
36 -3 -1 0 6
-36 -3 1 1.9 5.8
-36 -3 1 -1.2 6.9
36 3 0 2.5 5.7
-36 3 0 4.9 6
-36 3 0 18.7 9.3
-36 -3 0 0 6.1
-36 -3 0 -8.2 7.1
36 -3 0 -7.7 5.1
-36 3 -1 -3.4 3.9
36 3 1 0.6 6.4
-36 3 -1 -8.2 7.6
-36 -3 -1 16.3 8.8
36 -3 1 7.1 8.1
36 -4 -4 -7.5 6.4
-36 -4 4 1 6.2
36 -4 -3 -0.7 6.1
-36 4 2 20.8 10.1
-36 4 2 6.9 5.4
-36 -4 2 2.1 7.5
36 -4 -2 5.3 6.3
36 4 -1 -6.7 3.2
-36 4 1 5.3 8.5
-36 4 1 6.8 4.4
-36 -4 1 0.8 5.5
-36 -4 1 -2.6 8
-36 4 0 13.7 8.1
36 4 0 -4.5 4.5
-36 4 0 -8.1 3.4
36 -4 0 2.6 6.5
-36 -4 0 -1.1 7.6
37 0 -6 3.3 3.1
37 0 -5 -3.5 2.7
-37 0 4 3.2 5.4
37 0 -4 -3.3 3
-37 0 3 5.5 6.5
37 0 -3 3.1 5
37 0 -2 0.6 5.1
-37 0 2 -0.3 6.3
-37 0 1 4.8 5.9
37 0 -1 -3.5 4.3
-37 0 0 11.1 7.5
37 0 0 19.8 7.4
-37 0 -1 8.8 7.4
37 0 1 1 6.2
37 1 -5 1.9 2.4
37 1 -4 -4.7 2.3
37 -1 -4 22.2 7.5
-37 -1 4 2 5.9
-37 -1 3 14.1 7.6
37 -1 -3 11.8 7.1
37 1 -2 -1.3 4.6
-37 1 2 -11.9 5.1
-37 -1 2 12.2 7.4
37 -1 -2 4 6
37 1 -1 -1.1 5.1
-37 1 1 -4.7 5.9
-37 -1 1 7.4 6.8
37 -1 -1 11 6.5
-37 1 0 12.1 7.7
-37 -1 0 17.8 8.2
37 -1 0 -5.5 6
37 1 1 2.7 6
-37 1 -1 6.7 7.4
37 -1 1 11.7 7.1
-37 -1 -1 -13.1 6.2
-37 -2 5 4.5 9.4
37 -2 -5 5.1 6.3
37 2 -4 -1.6 2.3
37 -2 -4 12.7 6.5
-37 -2 4 1 6.9
-37 2 3 9.7 6.1
37 -2 -3 19 7
-37 -2 3 11.5 7.4
37 2 -2 -3 3
-37 2 2 -11.7 4.6
37 -2 -2 -10.9 5
-37 -2 2 -12.4 6
-37 2 1 21.1 7.5
37 2 -1 32.7 7.3
37 -2 -1 19.3 8.3
-37 -2 1 26.4 9.4
-37 -2 1 12.5 11.3
37 2 0 4.9 6.2
-37 2 0 -6.3 5.9
37 -2 0 -6.4 6.5
-37 -2 0 1.3 8.6
37 2 1 5.8 7.1
-37 2 -1 -2.1 6.6
-37 -2 -1 -0.3 7.5
37 -2 1 6.9 7.4
37 -3 -4 8.3 7.7
37 3 -3 7.1 3.2
-37 -3 3 1 7
37 -3 -3 -4.1 5.9
-37 3 2 -4.6 5.2
37 3 -2 -4.2 3.4
37 -3 -2 -1.7 6.4
-37 -3 2 2.5 7.7
-37 3 1 -4.6 5.5
37 3 -1 -1.5 3.2
37 -3 -1 -7.3 5.9
-37 -3 1 1 7.9
-37 -3 1 2.2 6.3
-37 3 0 4.1 6.3
37 3 0 4.5 5.5
-37 3 0 -0.5 9.8
-37 -3 0 3.5 8.1
-37 -3 0 0.9 7.9
37 -3 0 -8.8 6.3
38 0 -4 -5.1 3
-38 0 4 2.5 6
38 0 -3 5 5
-38 0 3 -2.9 4.6
38 0 -2 28 7.3
-38 0 2 24.3 8.1
-38 0 1 -5.1 6.4
38 0 0 5.9 7.1
-38 0 0 10.8 9.1
38 1 -4 -0.5 2.8
-38 -1 4 -1.8 6.3
38 -1 -4 -0.8 5.5
38 1 -3 -0.7 3
-38 1 3 -7.7 6
38 -1 -3 3.1 6.2
-38 -1 3 8.9 7
-38 1 2 11.2 6.7
38 1 -2 4.4 4.8
38 -1 -2 -1.7 6.3
-38 -1 2 2.1 6.9
-38 1 1 4.1 6.8
38 1 -1 7.5 5.6
-38 -1 1 0.4 6.3
38 -1 -1 1.9 6.4
-38 1 0 14.2 8.3
38 1 0 3.9 5.4
38 -1 0 5.4 7.6
-38 -1 0 -9 6.1
-38 2 3 9.3 6.6
38 2 -3 2.4 3.2
38 -2 -3 12.4 6.3
-38 -2 3 6.3 7.1
-38 2 2 2.9 5.5
38 -2 -2 6.2 6.7
-38 -2 2 -7.6 6.8
38 2 -1 -0.6 5
-38 2 1 -4.9 5.5
38 -2 -1 9.9 7.7
-38 -2 1 0.9 8.3
