#------------------------------------------------------------------------------
#$Date: 2024-02-05 14:09:55 +0200 (Mon, 05 Feb 2024) $
#$Revision: 289697 $
#$URL: file:///home/coder/svn-repositories/cod/cif/1/57/04/1570436.cif $
#------------------------------------------------------------------------------
#
# This file is available in the Crystallography Open Database (COD),
# http://www.crystallography.net/
#
# All data on this site have been placed in the public domain by the
# contributors.
#
data_1570436
loop_
_publ_author_name
'Sacharczuk, Natalia'
'Olejniczak, Anna'
'Bujak, Maciej'
'Dziubek, Kamil Filip'
'Katrusiak, Andrzej'
'Podsiad&#x142;o, Marcin'
_publ_section_title
;
 Conformation-aggregation interplay in the simplest aliphatic ethers
 probed under high pressure.
;
_journal_issue                   'Pt 1'
_journal_name_full               IUCrJ
_journal_page_first              57
_journal_page_last               61
_journal_paper_doi               10.1107/S2052252523009995
_journal_volume                  11
_journal_year                    2024
_chemical_formula_moiety         'C2 H6 O'
_chemical_formula_sum            'C2 H6 O'
_chemical_formula_weight         46.07
_chemical_name_systematic        'dimethyl ether'
_space_group_crystal_system      triclinic
_space_group_IT_number           2
_space_group_name_Hall           '-P 1'
_space_group_name_H-M_alt        'P -1'
_atom_sites_solution_hydrogens   geom
_atom_sites_solution_primary     direct
_audit_creation_method
;
Olex2 1.5
(compiled 2022.04.07 svn.rca3783a0 for OlexSys, GUI svn.r6498)
;
_cell_angle_alpha                90.55(4)
_cell_angle_beta                 93.89(6)
_cell_angle_gamma                90.83(2)
_cell_formula_units_Z            8
_cell_length_a                   4.3394(12)
_cell_length_b                   8.414(2)
_cell_length_c                   12.821(6)
_cell_measurement_reflns_used    1331
_cell_measurement_temperature    295(2)
_cell_measurement_theta_max      25.6930
_cell_measurement_theta_min      4.7360
_cell_volume                     467.0(3)
_computing_cell_refinement       'CrysAlisPro 1.171.42.49 (Rigaku OD, 2022)'
_computing_data_collection       'CrysAlisPro 1.171.42.49 (Rigaku OD, 2022)'
_computing_data_reduction        'CrysAlisPro 1.171.42.49 (Rigaku OD, 2022)'
_computing_molecular_graphics    'Olex2 1.5 (Dolomanov et al., 2009)'
_computing_publication_material  'Olex2 1.5 (Dolomanov et al., 2009)'
_computing_structure_refinement  'SHELXL 2018/3 (Sheldrick, 2015)'
_computing_structure_solution    'SHELXS  (Sheldrick, 2008)'
_diffrn_ambient_environment      'diamond-anvil cell'
_diffrn_ambient_pressure         4500000
_diffrn_ambient_temperature      295(2)
_diffrn_measured_fraction_theta_full 0.320
_diffrn_measured_fraction_theta_max 0.297
_diffrn_measurement_device_type  'KUMA KM4-CCD, Eos'
_diffrn_measurement_method       '\f- and \w-scans'
_diffrn_radiation_type           MoK\a
_diffrn_radiation_wavelength     0.71073
_diffrn_reflns_av_R_equivalents  0.0338
_diffrn_reflns_av_unetI/netI     0.0281
_diffrn_reflns_Laue_measured_fraction_full 0.320
_diffrn_reflns_Laue_measured_fraction_max 0.297
_diffrn_reflns_limit_h_max       5
_diffrn_reflns_limit_h_min       -5
_diffrn_reflns_limit_k_max       10
_diffrn_reflns_limit_k_min       -10
_diffrn_reflns_limit_l_max       6
_diffrn_reflns_limit_l_min       -5
_diffrn_reflns_number            2659
_diffrn_reflns_point_group_measured_fraction_full 0.320
_diffrn_reflns_point_group_measured_fraction_max 0.297
_diffrn_reflns_theta_full        25.242
_diffrn_reflns_theta_max         26.154
_diffrn_reflns_theta_min         4.868
_exptl_absorpt_coefficient_mu    0.101
_exptl_absorpt_correction_T_max  1.00000
_exptl_absorpt_correction_T_min  0.50805
_exptl_absorpt_correction_type   multi-scan
_exptl_absorpt_process_details
;
CrysAlisPro 1.171.42.49 (Rigaku Oxford Diffraction, 2022)
Empirical absorption correction using spherical harmonics,
implemented in SCALE3 ABSPACK scaling algorithm.
;
_exptl_crystal_colour            colourless
_exptl_crystal_density_diffrn    1.311
_exptl_crystal_description       disc
_exptl_crystal_F_000             208
_exptl_crystal_size_max          0.34
_exptl_crystal_size_mid          0.32
_exptl_crystal_size_min          0.22
_refine_diff_density_max         0.150
_refine_diff_density_min         -0.140
_refine_diff_density_rms         0.034
_refine_ls_extinction_method     none
_refine_ls_goodness_of_fit_ref   1.131
_refine_ls_hydrogen_treatment    constr
_refine_ls_matrix_type           full
_refine_ls_number_parameters     117
_refine_ls_number_reflns         556
_refine_ls_number_restraints     0
_refine_ls_restrained_S_all      1.131
_refine_ls_R_factor_all          0.0628
_refine_ls_R_factor_gt           0.0554
_refine_ls_shift/su_max          0.000
_refine_ls_shift/su_mean         0.000
_refine_ls_structure_factor_coef Fsqd
_refine_ls_weighting_details
'w=1/[\s^2^(Fo^2^)+(0.0885P)^2^+0.3224P] where P=(Fo^2^+2Fc^2^)/3'
_refine_ls_weighting_scheme      calc
_refine_ls_wR_factor_gt          0.1474
_refine_ls_wR_factor_ref         0.1553
_reflns_Friedel_coverage         0.000
_reflns_number_gt                481
_reflns_number_total             556
_reflns_threshold_expression     'I > 2\s(I)'
_cod_data_source_file            lq5055.cif
_cod_data_source_block           dimethyl_ether_phase_gamma_4_50GPa
_cod_depositor_comments
'Adding full bibliography for 1570433--1570452.cif.'
_cod_database_code               1570436
_shelx_shelxl_version_number     2018/3
_shelx_space_group_comment
;
The symmetry employed for this shelxl refinement is uniquely defined
by the following loop, which should always be used as a source of
symmetry information in preference to the above space-group names.
They are only intended as comments.
;
_exptl_absorpt_special_details
;
Data were collected at room temperature (295(2) K) and pressure of 4.50(2) GPa
(4500000 kPa).
;
_olex2_refinement_description
;
1. Fixed Uiso
 At 1.5 times of:
  All C(H,H,H) groups
2.a Idealised Me refined as rotating group:
 C1(H13,H11,H12), C2(H23,H21,H22), C3(H33,H31,H32), C4(H42,H43,H41), C5(H51,
 H52,H53), C6(H62,H63,H61), C7(H73,H71,H72), C8(H81,H82,H83)
;
_shelx_res_file
;
TITL 5edm in P-1 #2
    5edm.res
    created by SHELXL-2018/3 at 15:20:25 on 02-Jan-2023
REM reset to P-1 #2
CELL 0.71073 4.339362 8.414284 12.820502 90.5463 93.8902 90.8325
ZERR 8 0.001157 0.002145 0.006263 0.0448 0.0573 0.0223
LATT 1
SFAC C H O
UNIT 16 48 8

L.S. 50
PLAN  10
CONF
BOND
MORE -1
BOND $H
fmap 2 53
acta
REM <olex2.extras>
REM <HklSrc "%.\\5edm.hkl">
REM </olex2.extras>

WGHT    0.088500    0.322400
FVAR      17.51981
O1    3    0.235325    0.826582   -0.005104    11.00000    0.02466    0.03422 =
         0.12564    0.00340   -0.00441   -0.00979
C1    1   -0.028667    0.729781   -0.013354    11.00000    0.02223    0.02955 =
         0.07847    0.00222   -0.00067   -0.00616
AFIX 137
H13   2   -0.043845    0.676938   -0.080241    11.00000   -1.50000
H11   2   -0.207859    0.793660   -0.006548    11.00000   -1.50000
H12   2   -0.016169    0.652057    0.041042    11.00000   -1.50000
AFIX   0
C2    1    0.268830    0.902542    0.092539    11.00000    0.02837    0.03321 =
         0.13376    0.02899    0.00410   -0.00028
AFIX 137
H23   2    0.450244    0.969563    0.095980    11.00000   -1.50000
H21   2    0.288592    0.824268    0.146477    11.00000   -1.50000
H22   2    0.090664    0.965959    0.102216    11.00000   -1.50000
AFIX   0

O2    3    0.833753    0.515895    0.195146    11.00000    0.02326    0.02238 =
         0.10959    0.00618   -0.01410    0.00106
C3    1    0.536945    0.496067    0.144003    11.00000    0.02060    0.02996 =
         0.09867    0.00682   -0.00576   -0.00176
AFIX 137
H33   2    0.538992    0.409885    0.094456    11.00000   -1.50000
H31   2    0.480134    0.592040    0.108156    11.00000   -1.50000
H32   2    0.389909    0.472796    0.194624    11.00000   -1.50000
AFIX   0
C4    1    0.846274    0.657393    0.257764    11.00000    0.03984    0.02989 =
         0.11287    0.00419   -0.00202   -0.00155
AFIX 137
H42   2    0.788825    0.746478    0.214836    11.00000   -1.50000
H43   2    1.052462    0.673782    0.288411    11.00000   -1.50000
H41   2    0.705954    0.647051    0.312144    11.00000   -1.50000
AFIX   0

O3    3    0.707225    0.012135    0.290345    11.00000    0.02623    0.02189 =
         0.08009    0.01033    0.00524   -0.00015
C5    1    0.448669   -0.019844    0.348219    11.00000    0.02262    0.03152 =
         0.14991    0.01572   -0.00456   -0.00077
AFIX 137
H51   2    0.262856   -0.006975    0.304254    11.00000   -1.50000
H52   2    0.449390    0.052624    0.406528    11.00000   -1.50000
H53   2    0.457795   -0.126945    0.373262    11.00000   -1.50000
AFIX   0
C6    1    0.694702    0.166823    0.246453    11.00000    0.04711    0.03032 =
         0.08758    0.02428   -0.00934   -0.00263
AFIX 137
H62   2    0.513907    0.174374    0.199385    11.00000   -1.50000
H63   2    0.875650    0.185774    0.208993    11.00000   -1.50000
H61   2    0.686102    0.244659    0.301374    11.00000   -1.50000
AFIX   0

O4    3    0.270742    0.308202    0.495371    11.00000    0.02392    0.02801 =
         0.07390    0.01369    0.00057   -0.00591
C7    1    0.004727    0.210408    0.504006    11.00000    0.02510    0.02480 =
         0.06912    0.01292   -0.00930   -0.00642
AFIX 137
H73   2    0.034023    0.144502    0.564476    11.00000   -1.50000
H71   2   -0.027707    0.144552    0.442571    11.00000   -1.50000
H72   2   -0.172111    0.276006    0.510812    11.00000   -1.50000
AFIX   0
C8    1    0.233521    0.405123    0.404296    11.00000    0.03825    0.02681 =
         0.08463    0.01503   -0.00777   -0.00529
AFIX 137
H81   2    0.047544    0.465073    0.406699    11.00000   -1.50000
H82   2    0.220763    0.338591    0.342861    11.00000   -1.50000
H83   2    0.407307    0.476676    0.402276    11.00000   -1.50000
AFIX   0
HKLF 4




REM  5edm in P-1 #2
REM wR2 = 0.1553, GooF = S = 1.131, Restrained GooF = 1.131 for all data
REM R1 = 0.0554 for 481 Fo > 4sig(Fo) and 0.0628 for all 556 data
REM 117 parameters refined using 0 restraints

END

WGHT      0.0890      0.3067

REM Highest difference peak  0.150,  deepest hole -0.140,  1-sigma level  0.034
Q1    1  -0.1984  0.8031  0.0412  11.00000  0.05    0.15
Q2    1  -0.1904  0.3031  0.5418  11.00000  0.05    0.13
Q3    1   0.4665 -0.1233  0.4070  11.00000  0.05    0.12
Q4    1   0.5575  0.3854  0.0753  11.00000  0.05    0.11
Q5    1   1.0717  0.4632  0.1797  11.00000  0.05    0.10
Q6    1   0.3039  0.8409  0.1877  11.00000  0.05    0.10
Q7    1   0.6342  0.6963  0.3792  11.00000  0.05    0.10
Q8    1   0.8019  0.7355  0.1613  11.00000  0.05    0.10
Q9    1   0.3602  0.4849  0.1243  11.00000  0.05    0.09
Q10   1   0.3932  0.7830  0.0610  11.00000  0.05    0.09
;
_shelx_res_checksum              26408
_shelx_hkl_file
;
   0  -2   2 634851. 4750.70  10
   0   2  -2 633259. 5019.47  14
   0   2  -2 634135. 4931.78  11
   0  -2   2 632708. 4710.61  15
   0  -2   2 633018. 4838.01  16
   0   2  -1 40807.1 1126.91  11
   0   2  -1 41597.1 1117.27  14
   0   3  -3 125043. 2740.46  14
   0  -3   3 124642. 2409.34   7
   0  -3   3 121698. 2722.94  16
   0   3  -3 128452. 2770.46  11
   0  -3   3 130002. 2720.19  10
   0  -3   3 125508. 2649.15  15
   0  -3   2 111652. 2151.26   9
   0   3  -2 115099. 2394.57  11
   0  -3   2 114197. 2352.46  15
   0   3  -2 119104. 2209.75   6
   0  -3   2 115443. 2356.84  10
   0  -3   2 118987. 2125.66   7
   0   3  -2 115602. 2404.24  14
   0  -3   1 321019. 3298.72   7
   0   3  -1 328513. 3349.71   6
   0   3  -1 324804. 3892.26  11
   0  -3   1 329597. 3859.96  10
   0  -3   1 323310. 3296.12   9
   0  -3   1 324661. 3899.51  15
   0  -3   0 5929.80 532.397  15
   0   3   0 5680.69 447.676  12
   0  -3   0 6024.04 469.189   7
   0  -3   0 5595.09 529.401  10
   0   3   0 5695.66 438.064   6
   0  -3   0 5945.74 451.210   9
   0  -3  -1 189559. 3116.99  16
   0  -3  -1 195277. 3106.11  15
   0  -3  -1 202130. 3177.67  10
   0  -4   4 1866.68 528.413  10
   0  -4   4 1144.63 423.171   7
   0   4  -4 711.829 275.725  11
   0  -4   4 1847.39 493.450  15
   0  -4   3 8606.14 806.361  10
   0   4  -3 6300.38 676.590   6
   0   4  -3 8465.40 813.932  11
   0  -4   3 8404.34 695.782   7
   0   4  -3 9479.75 864.134  14
   0  -4   3 8585.28 781.409  15
   0  -4   3 7140.62 748.220  16
   0  -4   2 16630.8 966.417   7
   0  -4   2 18962.1 1263.02  10
   0  -4   2 18270.0 1266.74  15
   0  -4   2 20882.1 1260.59  16
   0  -4   2 15199.0 981.780   9
   0   4  -2 15964.2 952.252   6
   0   4  -2 15947.6 1123.36  14
   0   4  -2 13703.1 971.665  11
   0  -4   1 49961.3 1520.25   7
   0  -4   1 51178.4 1531.04   9
   0  -4   1 50490.1 1742.51  15
   0  -4   1 51936.0 1771.95  10
   0  -4   1 47581.1 1698.58  16
   0   4  -1 53498.3 1567.23  12
   0   4  -1 52026.4 1562.16   6
   0   4   0 112833. 2345.80   6
   0  -4   0 112609. 2645.84  16
   0   4   0 112602. 2306.12  12
   0  -4   0 116394. 2674.50  10
   0   4   0 120702. 2865.27  13
   0  -4   0 112738. 2299.19   7
   0  -4   0 114015. 2664.51  15
   0  -4  -1 36440.8 1586.71  10
   0  -4  -1 35964.4 1436.18   9
   0  -4  -1 36000.4 1564.68  15
   0   4   1 39483.6 1849.80  13
   0  -5   5 1799.44 450.322  10
   0  -5   5 1931.18 523.804  15
   0  -5   4 16168.8 1246.43  16
   0   5  -4 15563.0 1209.52  11
   0  -5   4 13885.9 1175.05  10
   0  -5   4 15016.9 1057.04   7
   0   5  -4 14990.7 1218.79  14
   0  -5   4 14004.4 1158.63  15
   0   5  -3 136799. 3514.65  11
   0   5  -3 144756. 3329.26   6
   0  -5   3 141752. 3040.30   7
   0  -5   3 145002. 3494.88  10
   0  -5   3 144007. 3488.33  16
   0  -5   3 133821. 3401.45  15
   0  -5   2 22063.3 1322.89  16
   0   5  -2 21311.0 1074.79  12
   0   5  -2 22720.7 1342.98  11
   0  -5   2 20440.4 1274.78  10
   0   5  -2 21700.7 1160.59   6
   0  -5   2 21560.6 1288.09  15
   0  -5   2 20901.6 1128.44   7
   0   5  -2 21107.8 1288.07  14
   0  -5   2 20504.2 1193.36   9
   0   5  -1 19799.8 1110.87   6
   0  -5   1 21610.3 1298.96  15
   0  -5   1 20284.0 1119.88   7
   0   5  -1 20215.1 1071.28  12
   0   5  -1 22153.8 1417.09  13
   0  -5   1 21315.1 1143.92   9
   0  -5   1 22240.4 1313.25  16
   0   5  -1 21214.5 1302.86  11
   0  -5   1 22537.5 1328.89  10
   0  -5   0 502.713 266.997  16
   0  -5   0 357.431 260.220  15
   0   5   0 468.493 216.558  12
   0  -5   0 377.985 201.861   7
   0  -5   0 401.070 173.383   9
   0   5   0 209.653 195.538   6
   0   5   0 382.552 212.343  13
   0  -5   0 342.393 255.605  10
   0  -5  -1 16492.0 1181.48  15
   0   5   1 14999.8 1107.84   6
   0  -5  -1 13363.2 1079.55  10
   0  -5  -1 13988.8 987.871   9
   0  -5  -1 13666.5 1120.03  16
   0  -6   5 435.134 404.700  10
   0  -6   5 431.852 309.649  15
   0  -6   4 29919.4 2243.28  15
   0  -6   4 30031.3 2320.11  10
   0   6  -4 30071.3 2323.56  14
   0  -6   4 29709.3 2237.42  16
   0   6  -4 30333.1 2102.65  11
   0   6  -3 2166.84 551.312  11
   0  -6   3 2490.95 556.695  15
   0   6  -3 2373.69 564.374  14
   0  -6   3 2820.61 598.962  10
   0  -6   3 1418.53 416.966  16
   0  -6   2 29320.5 2138.42  15
   0   6  -2 30464.3 2104.37  14
   0  -6   2 29977.5 2203.55  10
   0   6  -2 30074.2 2195.68  11
   0  -6   2 29736.1 2170.38  16
   0   6  -1 2797.45 591.675  11
   0  -6   1 3788.40 637.216  15
   0  -6   1 3289.64 577.976  16
   0   6  -1 3014.86 678.540  13
   0  -6   1 3599.45 602.928  10
   0  -6   0 167431. 4122.47  15
   0   6   0 182705. 4635.89  13
   0  -6   0 178350. 4206.74  16
   0  -6   0 161461. 4027.56  10
   0   6   1 1996.21 645.554  13
   0  -6  -1 1565.33 506.448  16
   0  -6  -1 1755.94 477.936  10
   0  -6  -1 1488.57 427.192  15
   0  -7   5 3343.21 765.286  15
   0   7  -5 1725.84 499.373  11
   0  -7   5 4676.36 844.981  10
   0  -7   4 13175.1 1294.23  10
   0  -7   4 12788.3 1300.92  16
   0   7  -4 13409.3 1362.44  14
   0  -7   4 13773.4 1310.48  15
   0   7  -4 13487.4 1306.13  11
   0   7  -3 31963.9 2060.98  11
   0  -7   3 36082.2 2179.05  15
   0   7  -3 37305.9 2288.63  14
   0  -7   3 29712.7 2010.91  16
   0  -7   3 31471.3 2080.17  10
   0   7  -2 9795.08 1125.44  14
   0   7  -2 12429.5 1302.25  13
   0  -7   2 9933.16 1040.00  16
   0  -7   2 8965.13 1038.89  10
   0   7  -2 9070.94 1078.83  11
   0  -7   2 8159.47 1003.00  15
   0  -7   1 5329.74 806.446  16
   0  -7   1 4599.20 779.498  15
   0   7  -1 5802.42 843.087  11
   0  -7   1 4949.28 766.805  10
   0   7  -1 5326.68 849.543  13
   0  -7   0 581.876 433.887  16
   0  -7   0 924.469 416.940  15
   0  -7   0 828.667 374.749  10
   0   7   0 436.674 541.797  13
   0  -7  -1 2849.38 723.407  16
   0   7   1 1990.67 689.575  13
   0  -7  -1 2058.49 562.428  10
   0  -8   5 25601.8 2098.61  10
   0  -8   5 26110.2 2095.29  15
   0  -8   4 14770.0 1531.08  10
   0  -8   4 15403.5 1536.54  16
   0   8  -4 15140.6 1630.48  14
   0  -8   4 15103.9 1518.11  15
   0   8  -4 15065.4 1597.94  11
   0  -8   3 181.391 493.369  10
   0   8  -3 626.374 446.239  11
   0   8  -3 477.416 572.249  14
   0   8  -3 365.700 486.703  13
   0  -8   3 279.075 428.579  15
   0  -8   3 422.047 316.789  16
   0   8  -2 13005.3 1569.81  11
   0  -8   2 15946.0 1582.31  15
   0   8  -2 16653.8 1667.43  14
   0  -8   2 13807.0 1480.87  16
   0  -8   2 15600.6 1587.10  10
   0   8  -2 15067.8 1606.24  13
   0  -8   1 43523.0 2461.24  15
   0   8  -1 47319.7 2769.68  13
   0   8  -1 44012.8 2478.78  14
   0   8  -1 47112.2 2664.51  11
   0  -8   1 46667.9 2541.25  16
   0  -8   1 48221.5 2599.58  10
   0   8   0 3215.94 758.528  11
   0   8   0 1129.46 587.598  13
   0  -8   0 3236.77 764.047  16
   0  -8   0 2601.50 635.934  10
   0  -8   0 2555.36 702.758  15
   0  -9   6 4409.94 1033.67  10
   0  -9   6 4348.50 962.986  15
   0   9  -5 19055.8 1949.20  11
   0  -9   5 25850.1 2228.32  15
   0  -9   5 26443.4 2351.91  10
   0   9  -5 22087.4 2299.87  13
   0   9  -4 5884.68 1051.85  14
   0  -9   4 6673.16 1139.70  10
   0   9  -4 4593.58 917.355  11
   0   9  -4 5148.06 1104.94  13
   0  -9   4 6072.91 1140.01  15
   0  -9   4 4878.09 986.647  16
   0  -9   3-466.829 599.782  16
   0   9  -3 508.878 484.886  11
   0  -9   3-19.1608 401.697  10
   0   9  -3-402.934 487.642  13
   0   9  -3-558.388 516.879  14
   0  -9   3-566.201 487.707  15
   0  -9   2-109.207 379.242  16
   0  -9   2 648.761 456.521  15
   0   9  -2-33.0619 371.695  14
   0  -9   2 80.8796 426.652  10
   0   9  -2-233.171 528.456  13
   0   9  -2 560.049 624.188  11
   0  -9   1 19938.2 1895.83  16
   0  -9   1 21314.3 1880.22  15
   0   9  -1 22820.3 2229.36  13
   0  -9   1 21933.9 1947.88  10
   0   9  -1 23305.1 1996.49  14
   0   9  -1 22346.6 2049.80  11
   0   9   0 1569.69 777.371  13
   0  -9   0 1215.50 759.547  16
   0   9   0 1449.58 720.160  11
   0  -9   0 1500.55 662.039  10
   0  -9  -1 6866.22 1413.89  16
   0  10  -4 6141.92 1314.50  13
   0 -10   4 3826.87 1049.75  16
   0  10  -3 5401.14 1268.44  11
   0  10  -3 5938.14 1224.59  14
   0 -10   3 3796.75 931.788  16
   0 -10   3 4521.85 1103.04  15
   0  10  -3 6060.21 1240.22  13
   0 -10   3 6200.11 1232.10  10
   0 -10   2 2104.61 661.005  15
   0  10  -2 3164.50 956.736  13
   0 -10   2 4444.44 984.347  10
   0  10  -2 5476.75 1260.38  11
   0  10  -2 4136.52 1149.12  14
   0 -10   2 3992.24 1003.57  16
   0  10  -1 3747.97 1206.14  13
   0 -10   1 1600.75 714.793  15
   0 -10   1 1493.44 754.167  16
   0  10  -1 1633.81 801.151  14
   0 -10   1 2606.74 812.316  10
   0 -10   0 14892.9 1987.12  16
   0  10   0 20774.1 2506.34  11
   0  10   0 16481.9 1980.55  14
  -1   9   0 237.342 500.376  11
   1  -9   0 394.049 436.913  10
  -1   9  -1 2490.33 834.043  11
   1  -9   1 2071.01 779.576  10
   1  -9   2 22733.1 2055.19  10
  -1   9  -2 24096.6 2132.50  11
  -1   9  -3 4979.36 1091.21  11
   1  -9   3 5731.71 1064.15  10
   1  -9   4 1700.63 691.616  10
  -1   9  -4 1878.99 847.801  11
  -1   9  -5 672.594 586.529  11
   1  -9   5 1939.61 885.596  10
   1  -9   6 2237.80 710.129  10
   1  -8  -1 13051.4 1359.93  16
   1  -8   0 13754.2 1493.33  10
   1  -8   1 9287.55 1264.57  10
  -1   8  -1 9025.14 1220.95  11
   1  -8   1 8621.04 1102.54  15
   1  -8   2 20038.3 1826.27  10
  -1   8  -2 19520.8 1734.86  11
   1  -8   3 2344.64 630.984  10
  -1   8  -3 3013.25 799.670  11
   1  -8   4 8189.45 1188.57  10
  -1   8  -4 8310.97 1252.15  11
   1  -8   5-644.785 438.727  10
  -1   8  -5-415.939 387.924  11
   1  -8   6 2865.90 940.775  10
  -1   7   1 17903.8 1499.37   6
   1  -7  -1 20426.1 1746.49  10
   1  -7  -1 18229.9 1500.31  16
  -1   7   0 10991.5 1406.06  13
   1  -7   0 7028.09 960.531   7
   1  -7   0 8572.26 1030.61  15
   1  -7   0 8353.72 1100.40  10
   1  -7   0 7369.65 987.808  16
  -1   7   0 8527.83 1060.08   6
  -1   7  -1-232.742 407.293  11
   1  -7   1 1813.53 643.951  10
   1  -7   1 1002.46 542.945  15
  -1   7  -1 461.569 477.355   6
   1  -7   1 1027.67 501.668   7
  -1   7  -1 1046.72 481.290  13
   1  -7   1 1016.15 397.048  16
  -1   7  -1 672.454 412.603  14
   1  -7   2-179.089 286.594  15
   1  -7   2-65.5687 325.368  16
  -1   7  -2-122.070 339.827  11
   1  -7   2-48.3219 367.301  10
   1  -7   2-526.991 439.365   7
  -1   7  -2-508.697 467.148  14
  -1   7  -2-32.9610 292.699  13
  -1   7  -2 437.828 397.112   6
  -1   7  -3 17162.8 1430.56   6
  -1   7  -3 16791.7 1488.79  11
  -1   7  -3 18680.8 1492.59  13
   1  -7   3 17429.2 1522.88  10
   1  -7   3 16695.5 1372.78  15
  -1   7  -3 17214.4 1420.87  14
   1  -7   3 14421.3 1304.69   7
  -1   7  -4 1503.28 533.417   6
  -1   7  -4 1716.02 622.729  11
   1  -7   4 1234.47 616.955   7
   1  -7   4 1953.93 590.782  10
   1  -7   5 3703.84 808.663  10
  -1   7  -5 4073.91 843.057  11
   1  -7   5 4616.12 860.656   7
   1  -7   6 558.752 275.180   7
   1  -7   6 1263.28 530.412  10
   1  -6  -1 57365.7 2576.62  10
   1  -6  -1 57439.9 2398.00   7
  -1   6   1 58987.2 2435.90   6
   1  -6  -1 59607.2 2400.80  16
   1  -6   0 37255.9 2028.84  10
   1  -6   0 38442.0 1863.78  16
   1  -6   0 39853.3 2018.03   7
  -1   6   0 38978.6 1971.85   6
   1  -6   0 35476.2 1821.67  15
   1  -6   1 102864. 3056.38  15
   1  -6   1 102971. 3051.99  16
   1  -6   1 101729. 3166.11   7
  -1   6  -1 108572. 3289.29  13
   1  -6   1 98234.6 3225.83  10
  -1   6  -1 99325.2 3079.80   6
  -1   6  -1 99709.7 3273.38  11
  -1   6  -2 8.22804 251.665   6
  -1   6  -2-264.027 307.652  11
  -1   6  -2 110.784 249.978  14
   1  -6   2 210.979 262.210  16
  -1   6  -2-85.2204 263.066  13
   1  -6   2 40.2240 222.883   7
   1  -6   2 274.795 210.008  15
   1  -6   2-349.524 327.567  10
   1  -6   3 3621.30 672.315  16
   1  -6   3 3693.06 654.042  10
  -1   6  -3 4895.02 717.063  14
   1  -6   3 4171.45 604.581  15
  -1   6  -3 3557.34 670.380  11
   1  -6   3 4164.89 655.387   7
  -1   6  -3 4118.71 665.611   6
   1  -6   4 8553.47 985.333   7
   1  -6   4 9040.18 979.867  15
  -1   6  -4 8737.34 1041.31   6
  -1   6  -4 7832.09 1015.36  11
   1  -6   4 7617.60 978.150  10
   1  -6   5 7726.78 999.096  10
   1  -6   5 8089.20 1028.78   7
   1  -6   5 8057.75 946.897  15
  -1   6  -5 7335.27 1035.42  11
   1  -5  -1 780.015 329.080  10
   1  -5  -1 550.422 302.403   7
  -1   5   1 527.559 243.541   6
   1  -5  -1 680.296 257.321  16
  -1   5   0 239.722 194.989   6
  -1   5   0 232.246 223.042  13
   1  -5   0 424.412 287.375  10
   1  -5   0 26.3176 166.528  16
   1  -5   0 18.9955 186.969  15
   1  -5   0 381.888 219.249   7
  -1   5  -1 18691.8 1164.00  13
   1  -5   1 18101.3 1255.95  10
   1  -5   1 18840.5 1172.47  15
  -1   5  -1 19783.9 1263.08   6
   1  -5   1 19135.1 1170.56  16
   1  -5   1 19668.5 1285.53   7
   1  -5   2 21577.7 1386.33  10
  -1   5  -2 21262.8 1388.80  11
   1  -5   2 21708.3 1252.77  15
  -1   5  -2 22591.2 1267.30  14
  -1   5  -2 21636.4 1349.31   6
   1  -5   2 21649.7 1274.09  16
   1  -5   2 20173.6 1299.80   7
  -1   5  -2 19983.2 1226.57  13
  -1   5  -3 46220.1 2031.68   6
  -1   5  -3 45722.7 1919.67  14
   1  -5   3 46154.0 2073.97  10
   1  -5   3 46146.2 1893.26  16
   1  -5   3 45381.9 1982.67   7
  -1   5  -3 45735.5 2066.80  11
   1  -5   3 46826.0 1897.72  15
  -1   5  -4 84844.5 2978.97  11
   1  -5   4 80479.2 2603.75  15
   1  -5   4 82726.9 2845.78   7
   1  -5   4 83046.6 2911.59  10
  -1   5  -4 86799.2 3004.99   6
   1  -5   5 61583.6 2367.72  15
   1  -5   5 63926.6 2592.27  10
   1  -5   5 63318.6 2533.57   7
   1  -4  -1 28827.2 1457.59  10
   1  -4  -1 30469.2 1361.49  16
  -1   4   1 29246.4 1457.39   6
   1  -4  -1 30846.3 1502.76   7
  -1   4   1 32187.1 1384.85   3
   1  -4  -1 29489.2 1247.37   4
   1  -4   0 15354.0 882.707   2
  -1   4   0 16761.7 906.030   3
  -1   4   0 18053.6 1005.60   1
  -1   4   0 17472.8 1064.64  13
   1  -4   0 16902.3 973.684  15
   1  -4   0 16384.8 1060.61   7
  -1   4   0 17317.3 1093.94   6
   1  -4   0 15040.1 1025.86  10
   1  -4   0 15959.5 948.842  16
   1  -4   0 15601.8 861.408   4
   1  -4   1 96317.8 2254.30  16
   1  -4   1 94155.9 2178.67   2
   1  -4   1 96217.3 2541.34   7
   1  -4   1 94651.6 2226.82  15
   1  -4   1 95626.3 2125.06   4
  -1   4  -1 94789.6 2094.84   3
  -1   4  -1 93385.9 2130.55   1
   1  -4   1 93011.7 2533.61  10
  -1   4  -1 89488.9 2455.44   6
  -1   4  -2 139638. 2414.16   1
   1  -4   2 139829. 2870.85   7
   1  -4   2 143189. 2463.16   4
   1  -4   2 141683. 2440.60   2
   1  -4   2 140209. 2606.54  16
   1  -4   2 143581. 2626.43  15
  -1   4  -2 136782. 2491.90   3
  -1   4  -2 140971. 2572.49  14
  -1   4  -2 138474. 2872.52   6
   1  -4   2 143189. 2856.10  10
  -1   4  -2 139160. 2921.15  11
   1  -4   3 1362.09 406.060  10
  -1   4  -3 988.390 284.553  14
   1  -4   3 1025.30 282.810  15
  -1   4  -3 1078.30 324.008  11
  -1   4  -3 992.055 239.690   1
   1  -4   3 900.236 296.222   7
   1  -4   3 867.153 231.942   2
  -1   4  -3 1167.72 368.796   6
   1  -4   4 197939. 4109.99   7
   1  -4   4 196312. 4063.42  10
   1  -4   4 199524. 3561.73   2
  -1   4  -4 202210. 4218.67  11
  -1   4  -4 202923. 3657.92   1
   1  -4   4 199423. 3656.80  15
  -1   4  -4 200370. 4410.02   6
  -1   3   1 39807.7 1472.32   3
   1  -3  -1 38983.6 1568.14   7
   1  -3  -1 38333.8 1354.61   4
   1  -3  -1 41798.1 1379.45  16
   1  -3  -1 37237.3 1465.72  10
  -1   3   0 12371.0 845.965   6
   1  -3   0 13245.7 863.675   7
  -1   3   0 12660.7 749.799   3
   1  -3   0 13066.4 702.363  16
   1  -3   0 13588.1 739.673  15
   1  -3   0 12509.3 764.239   2
   1  -3   0 12517.8 819.261  10
   1  -3   0 12712.1 746.803   4
  -1   3   0 13164.1 765.591   1
   1  -3   1 7355.08 644.189  10
   1  -3   1 7548.71 656.028   7
   1  -3   1 7635.24 591.002   4
  -1   3  -1 7515.13 578.708   3
   1  -3   1 7622.42 534.125  15
   1  -3   1 7788.88 543.784  16
  -1   3  -1 7626.42 566.735   1
  -1   3  -1 6898.54 639.253   6
   1  -3   1 8533.70 616.162   2
  -1   3  -2 130702. 2369.84  14
   1  -3   2 123722. 2659.02  10
   1  -3   2 127371. 2733.95   7
   1  -3   2 130104. 2523.05   4
  -1   3  -2 128207. 2737.44   6
   1  -3   2 133152. 2491.79   2
  -1   3  -2 129352. 2413.93   1
   1  -3   2 134763. 2401.41  16
  -1   3  -2 130548. 2520.26   3
  -1   3  -2 128561. 2686.46  11
   1  -3   2 126235. 2254.01  15
  -1   3  -3 1507.04 499.492   6
  -1   3  -3 259.258 291.079   1
  -1   3  -3 1098.84 500.565  11
   1  -3   3 553.522 339.817  10
   1  -3   3 161.912 304.727   7
   1  -3   3 598.671 312.926   2
   1  -3   3 1221.71 382.216  15
   1  -3   4 14597.1 1003.54  10
   1  -3   4 18289.1 1149.97   7
   1  -2  -1 56998.0 1529.01   4
  -1   2   1 58934.2 1700.86   1
   1  -2  -1 56779.8 1527.42   2
   1  -2  -1 54504.1 1575.02  10
   1  -2  -1 58556.1 1708.40   7
  -1   2   1 54738.7 1576.59   3
  -1   2  -1 21157.9 895.263  11
   1  -2   1 20506.2 898.167   4
   1  -2   1 20929.2 895.218   2
   1  -2   1 19253.9 917.922   7
  -1   2  -1 19424.3 929.862   6
   1  -2   1 19987.4 874.187  10
  -1   2  -1 19651.5 870.436   3
  -1   2  -1 20277.4 907.939   1
  -1   2  -2 33179.3 1210.41   1
   1  -2   2 34828.5 1225.66   2
   1  -2   2 33577.3 1189.49  10
  -1   2  -2 33254.1 1197.02  11
   1  -2   2 33377.8 1288.67   7
  -1   2  -2 34051.0 1237.58   3
   1  -2   2 33656.5 1231.14   4
  -1   2  -2 32711.4 1266.95   6
   1  -2   3 116992. 2356.65   2
   1  -2   3 116643. 2336.80  10
   1  -2   3 117989. 2572.25   7
  -1   2  -3 115329. 2698.91   6
  -1   1   1 48715.1 1363.21   1
   1  -1  -1 47782.4 1301.30   2
  -1   1   1 46403.3 1337.03   3
   1  -1  -1 44645.4 1259.60   4
   1  -1  -1 42393.6 1256.11   7
  -1   1   0 44977.0 1197.40   6
   1  -1   0 46257.5 1240.42   2
   1  -1   0 43571.7 1202.24   4
  -1   1   0 43964.2 1210.96   3
  -1   1   0 43772.1 1197.08   1
  -1   1  -1 292187. 3141.05   1
   1  -1   1 284156. 3199.29   4
  -1   1  -1 285450. 3064.49   6
  -1   1  -1 285582. 3181.85   3
   1  -1   1 288243. 3168.68   2
   1  -1   1 285808. 3097.56   7
   1  -1   2 9132.13 603.510   2
  -1   1  -2 9662.64 648.869   1
   1  -1   2 8529.16 586.697   7
  -1   1  -2 9443.17 626.394   6
  -1   1  -2 9453.97 641.630   3
   1  -1   2 10601.8 670.852   4
  -1   0   1 164850. 2775.900   8
  -1   0  -1 237564. 2737.87   3
   1   0   1 237184. 2769.66   4
   1   0   1 238202. 2782.35   5
  -1   0  -2 204005. 3164.40   3
   1   1  -1 271533. 3062.46   5
  -1  -1   1 277202. 3079.32   9
  -1  -1   0 59315.0 1416.35   9
   1   1   0 61988.5 1395.49   5
   1   1   1 431999. 4035.13   5
  -1  -1  -1 430232. 4005.22   9
   1   1   1 436642. 3930.06  12
  -1  -2   2 34023.0 1214.55  15
   1   2  -2 33191.1 1269.67  14
  -1  -2   1 618.626 182.039  15
  -1  -2   1 221.878 130.073   8
  -1  -2   1 685.143 215.794   9
   1   2  -1 701.275 222.287  14
   1   2  -1 546.388 183.859   5
  -1  -2   1 509.977 174.071  16
   1   2   0 110900. 2288.51   5
   1   2   0 110932. 2489.27  12
  -1  -2   0 112271. 2358.90  15
   1   2   1 1840.04 295.858   5
  -1  -2  -1 1176.87 271.589   8
   1   2   1 1223.57 249.881  13
   1   2   1 1669.27 297.174  12
  -1  -2  -1 1416.46 287.692  16
  -1  -2  -1 1631.85 256.012  15
  -1  -2  -1 1765.54 300.072   9
  -1  -3   3 2109.34 310.679  10
  -1  -3   3 1702.96 407.710   9
  -1  -3   3 1027.31 225.145  16
  -1  -3   3 1706.09 255.264  15
   1   3  -3 2149.64 363.817  14
  -1  -3   2 1238.99 250.948   8
   1   3  -2 2177.89 339.049  11
   1   3  -2 2319.62 334.055   5
  -1  -3   2 1646.37 353.923   9
  -1  -3   2 1156.39 362.624  16
  -1  -3   2 2132.39 300.552  10
   1   3  -2 1783.44 353.097  14
  -1  -3   2 2062.23 357.531  15
   1   3  -1 173238. 2624.09   5
  -1  -3   1 177130. 3121.56  16
  -1  -3   1 172293. 3084.65  15
   1   3  -1 177085. 2643.30  11
  -1  -3   1 182481. 3205.67   9
  -1  -3   1 172851. 2604.59  10
  -1  -3   0 286.613 160.454  15
  -1  -3   0 282.789 137.807  10
   1   3   0 41.0150 150.346  13
  -1  -3   0 82.9623 124.641  16
  -1  -3   0 92.3879 125.952   9
   1   3   0 293.968 182.414   5
  -1  -3   0 48.1135 152.399   8
   1   3   0 278.003 173.668  12
   1   3   1 97797.2 2182.81   5
  -1  -3  -1 101639. 2581.24   9
  -1  -3  -1 100449. 2376.48  15
   1   3   1 100245. 2525.81  13
   1   3   1 92066.0 2381.70  12
  -1  -3  -1 98299.8 2421.44  16
  -1  -3  -2 929.297 329.377   9
  -1  -3  -2 153.540 260.721   8
  -1  -3  -2 656.148 303.069  16
  -1  -4   4 24260.7 1355.42  10
  -1  -4   4 29019.1 1604.25  15
   1   4  -3 1663.45 302.784   5
  -1  -4   3 1844.21 413.408   9
  -1  -4   3 1302.08 362.631  16
   1   4  -3 1605.28 354.864  11
  -1  -4   3 2003.10 422.280  15
  -1  -4   3 1508.63 318.441  10
   1   4  -3 1624.78 400.967  14
  -1  -4   2 1089.84 357.723   9
  -1  -4   2 949.057 219.598  10
   1   4  -2 1077.74 243.033   5
   1   4  -2 1048.43 336.949  14
  -1  -4   2 783.824 241.020   8
   1   4  -2 933.931 281.851  11
  -1  -4   2 1053.82 353.103  15
  -1  -4   2 669.272 312.479  16
  -1  -4   1 9389.92 810.638  15
  -1  -4   1 9132.71 710.808  10
   1   4  -1 8899.88 751.927  12
  -1  -4   1 9048.40 837.719   9
   1   4  -1 9906.80 730.065  11
   1   4  -1 9522.01 635.702   5
  -1  -4   0 46678.5 1820.15  15
  -1  -4   0 48576.2 1607.98  10
  -1  -4   0 47760.0 1880.54   9
   1   4   0 50470.7 1561.71   5
   1   4   0 48797.1 1834.51  12
   1   4   0 49394.5 1978.38  13
  -1  -4  -1 46978.7 1714.35  10
  -1  -4  -1 46022.2 1901.79   9
   1   4   1 47599.1 1911.52  12
   1   4   1 50022.8 2078.64  13
  -1  -4  -1 47232.9 1853.13  15
  -1  -4  -2 446.209 340.929  16
  -1  -4  -2-152.885 311.722   8
  -1  -4  -2 863.079 330.840   9
  -1  -5   4 43051.3 1931.39  10
  -1  -5   4 40542.7 2088.51  16
   1   5  -4 41953.8 2126.07  14
  -1  -5   4 41946.7 2086.50  15
   1   5  -3 25776.5 1472.83  11
  -1  -5   3 25032.1 1551.65  15
  -1  -5   3 22429.6 1495.28  16
  -1  -5   3 24815.6 1396.65  10
   1   5  -3 26132.6 1598.45  14
  -1  -5   3 27567.8 1612.84   9
   1   5  -2 599.666 322.293  14
   1   5  -2 414.904 263.927  11
  -1  -5   2 487.862 269.492  10
  -1  -5   2 405.266 197.237   9
  -1  -5   2 332.854 223.214  15
  -1  -5   2 370.009 257.093  16
   1   5  -1 36336.2 1627.55  11
  -1  -5   1 33193.5 1690.93  15
   1   5  -1 39073.0 1998.88  13
  -1  -5   1 35599.5 1604.69  10
  -1  -5   1 32236.3 1732.34  16
  -1  -5   1 36091.7 1717.13   9
   1   5  -1 34137.5 1629.54  12
  -1  -5   0 10748.6 876.741  10
  -1  -5   0 10583.1 941.513   9
   1   5   0 11272.2 1101.30  13
   1   5   0 11470.4 982.723  12
  -1  -5   0 11336.8 1011.17  15
  -1  -5   0 10875.7 986.199  16
  -1  -5  -1 50442.4 2157.60  15
  -1  -5  -1 48567.1 1955.96  10
  -1  -5  -1 58065.3 2283.89   9
   1   5   1 57462.2 2590.99  13
  -1  -5  -1 50502.2 2181.11  16
   1   5   1 54244.8 2238.51  12
  -1  -5  -2 9511.60 959.033   9
  -1  -6   5 28371.2 1821.77  10
  -1  -6   5 27218.3 1921.25  15
  -1  -6   4 9703.48 1111.55  15
   1   6  -4 10035.1 1169.15  14
   1   6  -4 6472.65 850.167  11
  -1  -6   4 9754.72 1025.60  10
  -1  -6   4 9135.24 1075.54  16
   1   6  -3 539.733 376.147  14
  -1  -6   3 167.745 253.759  16
   1   6  -3 10.0885 332.526  11
  -1  -6   3 518.388 307.709  15
  -1  -6   3 1334.42 444.423  10
  -1  -6   3 625.661 316.022   9
  -1  -6   2 1657.11 389.573  10
   1   6  -2 1467.56 352.021  12
   1   6  -2 2346.75 527.604  11
  -1  -6   2 2249.26 534.943  15
  -1  -6   2 1740.82 465.450   9
   1   6  -2 2122.48 527.532  14
  -1  -6   2 1948.29 500.147  16
  -1  -6   1 74859.2 2616.11  10
  -1  -6   1 83700.1 2831.52   9
  -1  -6   1 71481.1 2739.86  15
   1   6  -1 77350.9 2649.24  11
   1   6  -1 72839.6 2629.28  12
  -1  -6   1 73801.2 2824.81  16
   1   6  -1 84284.9 3233.04  13
  -1  -6   0 1031.58 410.709  16
  -1  -6   0 1259.85 427.512   9
   1   6   0 1506.97 445.575  12
  -1  -6   0 1110.76 362.250  10
   1   6   0 2338.98 556.729  13
  -1  -6   0 1461.65 432.252  15
  -1  -6  -1 34995.6 1974.76  16
   1   6   1 33286.7 1921.64  12
  -1  -6  -1 32954.1 1920.29  15
   1   6   1 40122.9 2405.83  13
  -1  -6  -1 36554.7 1990.26   9
  -1  -6  -2 667.495 264.720   9
  -1  -6  -2-251.972 307.502  16
  -1  -7   5 9374.80 1181.20  10
  -1  -7   5 8504.95 1142.45  15
  -1  -7   4 16196.1 1541.58  15
  -1  -7   4 15731.1 1377.32  10
   1   7  -4 16102.3 1562.64  14
  -1  -7   4 17274.3 1560.85  16
   1   7  -4 15548.9 1453.58  11
   1   7  -3 58356.5 2853.28  14
   1   7  -3 60826.3 2737.87  11
  -1  -7   3 58632.7 2626.63  10
  -1  -7   3 58468.2 2745.00  16
  -1  -7   3 57950.7 2705.60  15
   1   7  -3 64841.9 2690.43  12
  -1  -7   2-349.602 438.273  15
  -1  -7   2-311.548 355.133  16
  -1  -7   2-152.400 261.573   9
   1   7  -2 6.58581 305.330  11
  -1  -7   2-145.984 274.741  10
   1   7  -2-99.6208 328.313  13
   1   7  -2-734.466 429.302  14
   1   7  -2-184.817 333.908  12
   1   7  -1 13070.1 1195.85  11
   1   7  -1 11820.0 1264.95  14
  -1  -7   1 13604.5 1231.33   9
  -1  -7   1 12761.2 1293.58  16
  -1  -7   1 13438.2 1263.85  10
  -1  -7   1 12776.1 1308.57  15
   1   7  -1 13644.0 1440.36  13
   1   7  -1 12624.2 1177.66  12
  -1  -7   0 1958.64 530.453  10
  -1  -7   0 1554.07 535.449   9
  -1  -7   0 1991.04 620.241  16
   1   7   0 1407.72 536.885  11
   1   7   0 3157.04 792.997  13
  -1  -7   0 1781.71 583.839  15
   1   7   0 1267.68 435.497  12
  -1  -7  -1 32233.5 2077.91  16
  -1  -7  -1 32517.9 1988.48   9
  -1  -7  -1 28453.0 1934.29  15
  -1  -7  -2 3691.07 750.727  16
  -1  -7  -2 4002.08 742.865   9
  -1  -8   5 6083.57 1089.87  15
  -1  -8   5 5594.39 923.854  10
   1   8  -4 38136.7 2563.60  14
  -1  -8   4 33965.2 2180.67  10
   1   8  -4 35057.8 2342.22  11
  -1  -8   4 34653.5 2340.11  16
  -1  -8   4 35500.8 2393.01  15
   1   8  -3 6494.88 1050.34  11
  -1  -8   3 5402.85 932.875  10
  -1  -8   3 5767.86 1015.56  16
   1   8  -3 6986.83 1204.11  13
   1   8  -3 6655.45 1117.24  14
  -1  -8   3 6361.53 977.688  15
   1   8  -2 12376.6 1355.60  11
  -1  -8   2 14912.1 1442.93  10
   1   8  -2 15763.9 1683.63  13
   1   8  -2 13574.7 1477.66  14
  -1  -8   2 10735.8 1331.62  16
  -1  -8   2 12352.5 1381.74  15
   1   8  -1 2296.57 744.629  13
  -1  -8   1 2802.78 715.431  10
  -1  -8   1 1754.43 618.512  15
  -1  -8   1 3297.36 803.693  16
   1   8  -1 2037.26 615.434  14
   1   8  -1 2718.95 679.889  11
  -1  -8   0 2175.06 627.508  15
  -1  -8   0 3169.03 779.863  16
  -1  -8   0 2577.45 727.798  10
   1   8   0 2268.11 628.428  11
   1   8   0 2609.03 850.002  13
  -1  -8  -1 3613.92 833.398  16
   1   8   1 3332.87 952.065  13
   1   9  -5 15258.3 2154.30  13
  -1  -9   5 16927.4 1836.06  15
  -1  -9   4 197.438 422.849  15
   1   9  -4-93.3506 499.130  14
   1   9  -4 666.625 517.283  13
  -1  -9   4 613.124 566.293  16
  -1  -9   3 1789.30 618.494  15
   1   9  -3 2702.28 889.472  13
  -1  -9   3 2020.41 663.219  16
   1   9  -3 2577.95 859.273  14
   1   9  -2 2856.42 894.517  13
  -1  -9   2 3353.66 849.007  15
  -1  -9   2 3801.79 1010.68  16
   1   9  -2 3210.66 944.536  14
  -1  -9   1 23662.6 2030.71  16
  -1  -9   1 18269.2 1768.06  15
   1   9  -1 24346.2 2144.28  14
   1   9  -1 21613.7 2139.84  13
  -1  -9   0 2548.18 795.637  16
   1   9   0 1483.17 728.437  13
  -1  -9   0 701.554 352.963  15
   1   9   0 1962.57 900.167  14
  -1  -9  -1 17287.0 1820.59  16
  -2   9   0 4986.29 1025.59  11
  -2   9   0 4743.39 1014.32   6
  -2   9  -1 1378.84 448.952  11
   2  -9   1 1841.42 816.069  10
  -2   9  -1 1993.16 719.980   6
   2  -9   1 1971.83 683.673   7
  -2   9  -2 761.264 578.992   6
   2  -9   2-18.4765 501.118  10
  -2   9  -2 142.009 426.745  11
   2  -9   2 75.9206 365.469   7
  -2   9  -3 175.232 730.991  11
   2  -9   3 311.745 673.123  10
  -2   9  -3 3.64713 498.543   6
   2  -9   3 5.28430 400.918   7
   2  -9   4-3.83980 415.201   7
  -2   9  -4-292.890 537.301   6
   2  -9   5 8026.68 1359.99   7
  -2   8   1 6240.31 998.106   6
  -2   8   0 2225.75 769.735   6
  -2   8   0 560.110 403.053  11
   2  -8   0 974.211 534.777  10
   2  -8   0 1372.24 554.016   7
   2  -8   1 11445.0 1416.98  10
  -2   8  -1 9909.00 1312.57   6
   2  -8   1 11686.6 1410.80   7
  -2   8  -1 10649.4 1375.75  11
   2  -8   2 13280.3 1503.80  10
   2  -8   2 14053.3 1570.18   7
  -2   8  -2 12030.7 1464.78  11
  -2   8  -2 13472.2 1528.82   6
  -2   8  -3 996.519 547.387   6
  -2   8  -3 1400.74 617.652  11
   2  -8   3 747.891 404.229  10
   2  -8   3 189.865 355.651   7
   2  -8   4 1372.58 645.946  10
  -2   8  -4 5504.13 1192.61   6
   2  -8   4 857.247 607.205   7
  -2   8  -4 6686.91 1305.10  11
  -2   8  -5 667.196 571.540  11
   2  -8   5-648.048 653.356  10
  -2   8  -5-600.763 496.809   6
   2  -8   5 74.9579 557.865   7
   2  -8   6 7114.78 1152.96   7
   2  -8   6 9455.84 1347.52  10
   2  -7  -1 37136.1 2348.89   7
  -2   7   1 30833.9 2069.14   6
  -2   7   0 1156.94 531.658   6
   2  -7   0 237.117 356.240   7
   2  -7   0 867.539 456.282  10
  -2   7  -1 1220.87 464.606   6
   2  -7   1 1225.64 399.026  10
   2  -7   1 1169.37 505.672   7
  -2   7  -1 1199.15 535.285  11
   2  -7   2 24058.5 1905.67  10
  -2   7  -2 22329.7 1813.94  11
   2  -7   2 21005.6 1772.33   7
  -2   7  -2 20927.0 1748.55   6
  -2   7  -3 19295.2 1691.58  11
   2  -7   3 17308.1 1616.36  10
   2  -7   3 19954.8 1747.12   7
  -2   7  -3 17553.1 1602.64   6
   2  -7   4 14130.2 1562.15  10
  -2   7  -4 12418.4 1403.68  11
   2  -7   4 14290.4 1530.81   7
  -2   7  -4 13586.4 1456.59   6
   2  -7   5 489.617 524.489  10
   2  -7   5 518.364 485.945   7
  -2   7  -5-109.452 365.372  11
  -2   7  -5 570.156 598.035   6
   2  -7   6 613.363 521.958  10
   2  -7   6 470.023 414.764   7
   2  -6  -1 1309.14 502.349  10
   2  -6  -1 1387.04 515.886   7
  -2   6   1 1391.45 499.669   6
   2  -6   0 8232.46 1016.78  10
   2  -6   0 9182.59 1095.20   7
  -2   6   0 8281.54 1095.50   6
   2  -6   1 22478.3 1662.42  10
  -2   6  -1 25576.0 1807.65  11
  -2   6  -1 23387.2 1726.37   6
   2  -6   1 22007.8 1656.29   7
  -2   6  -2 581.919 356.240   6
   2  -6   2 572.516 453.043   7
   2  -6   2 448.655 433.918  10
  -2   6  -2 877.342 455.177  11
   2  -6   3 3650.20 723.897   7
   2  -6   3 3254.34 679.456  10
  -2   6  -3 3661.51 751.631  11
  -2   6  -3 4360.06 821.389   6
  -2   6  -4 105334. 3736.57  11
   2  -6   4 107016. 3788.61  10
   2  -6   4 107569. 3857.64   7
  -2   6  -4 105948. 3804.20   6
   2  -6   5 3858.53 766.601  10
   2  -6   5 3939.77 806.500   7
  -2   6  -5 3426.67 801.669   6
   2  -5  -1-51.5436 247.289  10
  -2   5   1-18.2482 272.800   6
   2  -5  -1 345.872 315.616   4
  -2   5   1-25.5878 240.976   3
   2  -5  -1 611.613 388.552   7
  -2   5   0 242.160 313.886   6
   2  -5   0 507.560 319.286  10
   2  -5   0 744.001 311.111   2
  -2   5   0 952.108 382.656   3
  -2   5   0 576.871 294.245   1
   2  -5   0 172.711 215.454   4
   2  -5   0-105.099 248.922   7
  -2   5  -1 37500.5 1808.12   1
  -2   5  -1 38135.4 2034.39   6
   2  -5   1 39810.7 2089.39   7
  -2   5  -1 38480.0 1959.78  11
  -2   5  -1 39365.6 1876.51   3
   2  -5   1 41668.3 1914.81   4
   2  -5   1 39661.5 1889.92   2
   2  -5   1 37971.8 1970.87  10
  -2   5  -2 31604.0 1766.55  11
   2  -5   2 29133.5 1736.64  10
   2  -5   2 30168.3 1812.13   7
   2  -5   2 30677.8 1653.97   4
   2  -5   2 31443.2 1685.19   2
  -2   5  -2 28251.2 1578.28   1
  -2   5  -2 31802.0 1696.27   3
  -2   5  -2 30515.1 1816.28   6
  -2   5  -3 14267.9 1211.10  11
   2  -5   3 14545.7 1245.42  10
  -2   5  -3 14466.5 1320.94   6
  -2   5  -3 15059.2 1217.37   3
   2  -5   3 15964.6 1242.99   4
   2  -5   3 15613.6 1239.89   2
   2  -5   3 14858.7 1333.12   7
  -2   5  -3 14241.8 1159.42   1
  -2   5  -4 396.644 389.001   3
  -2   5  -4 31.4233 227.861  11
   2  -5   4-15.3754 343.694  10
   2  -5   4 353.100 312.653   7
  -2   5  -4 52.7299 295.136   1
   2  -5   4 250.548 306.316   2
  -2   5  -4-495.577 374.177   6
   2  -5   5 20975.1 1600.64  10
  -2   5  -5 17161.0 1372.33   1
   2  -5   5 21121.5 1717.77   7
  -2   5  -5 19134.6 1712.68   6
  -2   4   2 8347.91 962.873   3
  -2   4   2 10769.9 1199.90   6
  -2   4   1 8644.09 895.943   3
   2  -4  -1 7439.59 841.644  10
  -2   4   1 7198.17 845.298   1
   2  -4  -1 8462.06 878.193   4
   2  -4  -1 7274.29 801.862   2
   2  -4  -1 7660.19 897.391   7
  -2   4   1 8836.27 966.992   6
  -2   4   0 18718.7 1232.00   1
   2  -4   0 20009.1 1308.58  10
   2  -4   0 18952.8 1358.81   7
   2  -4   0 19869.2 1295.78   4
   2  -4   0 20950.0 1347.87   2
  -2   4   0 20454.7 1406.87   6
  -2   4   0 20289.0 1333.83   3
  -2   4  -1 20291.8 1269.41  11
   2  -4   1 19412.3 1255.07  10
  -2   4  -1 20430.1 1388.62   6
   2  -4   1 20576.5 1301.08   4
   2  -4   1 21381.9 1333.78   2
   2  -4   1 18961.5 1330.85   7
  -2   4  -1 19502.9 1249.01   3
  -2   4  -1 20204.0 1268.33   1
  -2   4  -2 34847.5 1664.69  11
   2  -4   2 33796.3 1675.90  10
  -2   4  -2 34720.1 1690.18   1
   2  -4   2 34815.2 1707.15   4
   2  -4   2 35624.3 1744.36   2
   2  -4   2 35516.7 1851.14   7
  -2   4  -2 33357.1 1666.00   3
  -2   4  -2 34711.5 1819.63   6
  -2   4  -3 30439.0 1633.92  11
   2  -4   3 31175.0 1668.53  10
   2  -4   3 29607.0 1628.91   4
   2  -4   3 33049.3 1730.36   2
  -2   4  -3 29347.4 1595.84   1
   2  -4   3 30561.4 1761.16   7
  -2   4  -3 29856.9 1641.35   3
  -2   4  -3 29040.6 1693.99   6
  -2   4  -4 18223.9 1327.43  11
   2  -4   4 22329.1 1447.35  10
  -2   4  -4 23905.3 1511.09   1
   2  -4   4 22989.4 1609.99   7
  -2   4  -4 22665.6 1609.16   6
   2  -4   4 22663.3 1490.27   2
  -2   4  -4 23318.3 1659.76   3
   2  -4   5 5755.38 784.738  10
   2  -4   5 5482.80 756.008   2
  -2   4  -5 3215.67 641.422   1
   2  -4   5 5343.83 806.714   7
   2  -3  -2 7981.32 835.157   7
   2  -3  -2 8573.31 811.424   4
  -2   3   1 140006. 3389.13   3
   2  -3  -1 136624. 3404.40   7
  -2   3   1 132226. 3247.48   1
   2  -3  -1 132347. 2762.03   5
   2  -3  -1 136148. 3355.49   4
   2  -3  -1 139029. 3321.83   2
  -2   3   1 137227. 3450.35   6
  -2   3   0 1010.39 326.075   1
  -2   3   0 1718.53 406.353   6
   2  -3   0 1793.60 416.014   4
   2  -3   0 1926.18 423.877   2
   2  -3   0 911.823 256.949  10
   2  -3   0 1567.87 315.607   5
  -2   3   0 1176.27 369.881   3
  -2   3   0 625.051 234.548   8
   2  -3   0 1554.43 363.214   7
  -2   3  -1 68071.2 2013.51  11
   2  -3   1 66809.7 2062.12  10
   2  -3   1 68713.0 2282.63   4
   2  -3   1 64344.9 2230.43   2
  -2   3  -1 64937.8 2203.33   3
   2  -3   1 66560.7 2300.32   7
  -2   3  -1 63789.1 2219.44   1
  -2   3  -1 63624.7 2228.51   6
  -2   3  -2 1762.11 419.002   6
  -2   3  -2 1925.56 368.607  11
  -2   3  -2 2149.13 422.541   1
  -2   3  -2 1933.83 425.088   3
   2  -3   2 2036.11 397.603  10
   2  -3   2 1341.04 369.445   7
   2  -3   2 1901.38 435.759   2
   2  -3   2 1792.10 404.018   4
   2  -3   3 37769.7 1644.71  10
   2  -3   3 37441.0 1830.80   7
  -2   3  -3 36319.2 1666.33  11
   2  -3   3 38886.5 1825.97   4
   2  -3   3 35002.3 1734.33   2
  -2   3  -3 39138.2 1801.88   1
  -2   3  -3 37077.6 1776.96   3
  -2   3  -3 39308.2 1876.32   6
  -2   3  -4 883.323 343.467   3
   2  -3   4 1206.46 363.801  10
  -2   3  -4 838.381 339.872   1
   2  -3   4 771.987 312.945   7
  -2   3  -4 748.697 317.079   6
   2  -3   4 1115.89 386.498   2
  -2   2   2 4676.60 634.029   3
   2  -2  -2 7001.74 702.095   4
   2  -2  -2 6187.35 696.863   2
  -2   2   1 7192.30 710.439   3
  -2   2   1 7166.95 703.376   1
   2  -2  -1 5879.33 601.844   5
  -2   2   1 4997.40 616.771   8
   2  -2  -1 7033.31 700.351   4
   2  -2  -1 7366.71 706.775   7
   2  -2  -1 6506.18 675.527   2
  -2   2   1 6943.63 689.353   6
   2  -2   0-1083.34 408.331   2
  -2   2   0-131.067 219.088   6
   2  -2   0-548.859 295.198   7
   2  -2   0-322.782 291.180  10
  -2   2   0-159.503 252.878   3
  -2   2   0 72.9438 221.844   1
   2  -2   0-228.476 233.368   5
  -2   2   0 57.1774 213.934   8
   2  -2   0-310.983 297.416   4
  -2   2  -1 943.115 261.622   6
  -2   2  -1 1097.36 224.997  11
   2  -2   1 736.313 144.630  10
  -2   2  -1 822.558 270.317   3
   2  -2   1 997.788 236.758   5
  -2   2  -1 581.190 218.491   8
   2  -2   1 1133.10 298.156   4
   2  -2   1 909.819 219.904   7
  -2   2  -1 1036.19 261.551   1
   2  -2   1 853.276 211.985   2
  -2   2  -2 24459.4 1107.47  11
  -2   2  -2 23861.9 1295.19   6
   2  -2   2 25858.6 1217.18   5
   2  -2   2 24594.7 1104.60  10
  -2   2  -2 23207.1 1318.65   1
   2  -2   2 25908.8 1383.81   4
   2  -2   2 25411.2 1368.05   2
   2  -2   2 24918.9 1332.95   7
  -2   2  -2 24446.6 1336.01   3
   2  -2   3 10964.6 788.453  10
  -2   2  -3 9887.69 895.037   1
  -2   2  -3 12590.1 1015.91   3
  -2   2  -3 11658.9 969.174   6
   2  -2   3 12373.2 986.278   2
   2  -2   3 13310.0 1040.95   4
   2  -2   3 10268.9 885.237   7
   2  -2   4 42463.4 1591.14  10
   2  -2   4 44375.9 1931.15   2
   2  -2   4 43071.7 1854.34   7
  -2   2  -4 39563.1 1953.93   1
  -2   1   2 27405.5 1496.42   3
  -2   1   2 26338.0 1468.02   1
   2  -1  -2 26892.5 1378.49   4
   2  -1  -2 25663.4 1384.89   2
  -2   1   1 7571.71 669.097   3
   2  -1  -1 8486.53 716.655   5
  -2   1   1 7644.89 627.131   6
  -2   1   1 5668.77 619.097   8
   2  -1  -1 7346.24 676.017   4
   2  -1  -1 7771.70 709.856   2
   2  -1  -1 8269.59 693.477   7
   2  -1   0 2557.26 303.611   2
  -2   1   0 1545.13 217.805   6
  -2   1   0 3380.43 283.213   1
  -2   1   0 1960.56 352.459   3
   2  -1   0 3220.96 395.254   5
  -2   1   0 3434.12 274.216   9
  -2   1   0 2400.18 328.554   8
   2  -1   0 3648.78 408.576   7
   2  -1   0 3214.10 354.905   4
  -2   1  -1 229463. 2691.58  11
   2  -1   1 221074. 3570.95   7
   2  -1   1 231524. 3692.50   5
  -2   1  -1 228077. 2807.88   9
   2  -1   1 224098. 3878.21   4
   2  -1   1 227273. 3919.09   2
  -2   1  -1 240886. 4042.01   1
  -2   1  -1 236712. 3704.94   6
  -2   1  -1 248052. 4092.61   3
   2  -1   1 231545. 2829.90  12
  -2   1  -2-529.798 331.901   3
   2  -1   2-859.056 309.924  10
   2  -1   2-938.557 352.039   5
  -2   1  -2-936.655 302.060   9
  -2   1  -2-1045.01 360.178   6
  -2   1  -2-403.795 398.139   8
  -2   1  -2-885.827 408.694   1
   2  -1   2-1147.95 444.256   4
   2  -1   2-475.570 271.584   7
   2  -1   2-840.977 319.685   2
   2  -1   3 33265.2 1537.77   5
   2  -1   3 32069.3 1144.86  10
  -2   1  -3 35451.6 1274.65   9
   2  -1   3 33968.9 1580.72   2
   2  -1   3 34309.6 1645.49   4
  -2   1  -3 40596.3 2013.98   8
  -2   1  -3 33074.8 1583.36   1
  -2   1  -3 36430.1 1706.00   3
   2  -1   3 30346.1 1433.64   7
  -2   1  -3 31899.2 1564.58   6
   2  -1   4 10939.0 982.855   2
   2   0  -2 2450.46 364.856   4
   2   0  -2 2859.79 441.567   2
  -2   0   2 2678.06 416.488   3
  -2   0   2 2705.06 539.624   8
  -2   0   2 2436.84 426.399   1
  -2   0   1 8343.45 683.450   1
  -2   0   1 8271.54 679.076   3
   2   0  -1 8968.88 739.448   5
  -2   0   1 9136.59 682.066   9
  -2   0   1 7088.71 670.401   8
   2   0  -1 8433.17 704.933   4
   2   0  -1 9027.57 754.665   2
   2   0  -1 8873.87 644.351   7
  -2   0   1 8204.78 574.473   6
   2   0   0 151638. 2963.63   5
  -2   0   0 149087. 2554.71   9
   2   0   0 147026. 2507.54   7
   2   0   0 147612. 2961.74   4
   2   0   0 147701. 2970.95   2
  -2   0   0 149540. 2998.88   1
  -2   0   0 150523. 2514.07   6
  -2   0   0 140584. 2867.87   3
   2   0   1 15051.8 937.829   5
  -2   0  -1 14315.4 761.203   9
  -2   0  -1 13936.1 873.547   8
   2   0   1 13518.0 871.062   2
   2   0   1 12173.4 812.213   4
   2   0   1 15177.7 789.180   7
  -2   0  -1 13553.5 777.308   6
  -2   0  -1 13606.6 835.585   3
   2   0   1 15539.7 834.150  12
   2   0   2 20156.3 1198.67   5
  -2   0  -2 22722.3 1040.24   9
  -2   0  -2 22453.7 1136.63   6
   2   0   2 20193.4 1195.67   2
  -2   0  -2 21883.2 1384.90   8
   2   0   2 20829.9 1219.17   4
  -2   0  -2 21180.1 1222.65   1
   2   0   2 19220.7 1011.93   7
  -2   0  -2 23608.9 1287.54   3
   2   0   2 20367.7 1062.90  12
   2   0   3 8274.16 811.751   5
   2   0   3 7787.96 665.967   7
  -2   0  -3 8105.22 671.610   9
   2   0   3 8039.84 807.924   2
   2   0   3 8541.13 804.219   4
  -2   0  -3 12308.8 1220.11   8
  -2   0  -3 8996.23 845.814   1
  -2   0  -3 8879.83 873.029   3
  -2  -1   2 178181. 3244.53   3
   2   1  -2 182792. 3527.93   5
  -2  -1   2 178071. 2657.20  15
  -2  -1   2 169148. 3494.93   9
  -2  -1   2 163640. 3416.73   1
  -2  -1   2 159253. 3567.12   8
   2   1  -2 175844. 3162.66   4
   2   1  -2 176790. 3341.21   2
   2   1  -1 93699.1 2464.86   5
  -2  -1   1 84910.3 2500.74   8
   2   1  -1 93966.5 2279.13   4
   2   1  -1 90201.7 2270.68   2
  -2  -1   1 93772.0 1772.07  15
  -2  -1   1 90416.3 1621.93   6
  -2  -1   1 92969.1 2225.46   3
   2   1   0 65395.7 2008.53   5
  -2  -1   0 65790.6 1990.90   9
  -2  -1   0 66140.3 2384.21   8
  -2  -1   0 70362.7 1957.64   1
   2   1   0 66521.0 1903.35   4
   2   1   0 60060.8 1803.78   2
  -2  -1   0 63633.2 1385.84   6
   2   1   0 65742.2 1906.35  12
  -2  -1   0 67302.4 1970.05   3
   2   1   1 316503. 4706.23   5
  -2  -1  -1 314302. 3626.10   6
  -2  -1  -1 329437. 4326.26   9
   2   1   1 316092. 4334.24  12
  -2  -1  -1 311784. 5182.70   8
   2   1   1 323270. 4378.80   2
   2   1   1 326879. 4377.47   4
   2   1   1 328409. 3349.89   7
  -2  -1  -1 306981. 4237.80   1
  -2  -1  -1 323511. 4340.60   3
  -2  -1  -2 831.433 216.593   3
   2   1   2 826.504 256.508   4
   2   1   2 878.015 173.394   5
  -2  -1  -2 733.429 197.969   9
  -2  -1  -2 716.359 248.849   1
  -2  -1  -2 767.948 284.338   8
  -2  -1  -2 360.439 190.780  16
   2   1   2 1045.85 141.601   7
   2   1   2 640.346 196.733   2
   2   1   2 1051.86 232.520  12
   2   1   3 1892.99 407.508   5
  -2  -1  -3 1882.82 375.341   9
  -2  -1  -3 1814.90 450.521   1
  -2  -1  -3 2265.53 674.072   8
   2   1   3 1845.20 449.377   2
  -2  -2   3 14638.2 1063.54   3
  -2  -2   3 16380.3 1314.54   8
   2   2  -3 18174.6 956.895   4
  -2  -2   3 16693.8 1069.64  15
  -2  -2   2 5047.89 497.664   3
   2   2  -2 5335.93 629.074   5
  -2  -2   2 4236.63 598.094   8
   2   2  -2 5067.25 497.989   4
  -2  -2   2 4950.83 522.991  15
   2   2  -2 4819.17 531.187   2
   2   2  -1 2092.42 348.738   2
  -2  -2   1 2502.96 350.019   3
  -2  -2   1 2226.80 421.386   9
   2   2  -1 2131.25 382.592   5
  -2  -2   1 2304.78 425.502   8
  -2  -2   1 1848.70 316.844  16
   2   2  -1 2559.14 372.918   4
  -2  -2   1 1956.64 313.080  15
   2   2  -1 2037.77 340.493  14
  -2  -2   1 1704.01 295.133   1
   2   2   0 1526.20 312.479  12
  -2  -2   0 1087.83 218.375   3
   2   2   0 1245.51 326.799   5
  -2  -2   0 1377.85 333.640   9
  -2  -2   0 1439.11 255.360  15
  -2  -2   0 1154.12 346.682   8
  -2  -2   0 1217.73 243.168  16
   2   2   0 1333.47 242.592   4
   2   2   0 1344.08 234.388  14
   2   2   0 1061.49 247.128  13
  -2  -2   0 1170.47 255.630   1
   2   2   0 1491.88 280.903   2
  -2  -2  -1 27042.0 1165.58  15
   2   2   1 27625.2 1414.63   5
  -2  -2  -1 27148.9 1111.24  16
   2   2   1 28117.6 1238.32   4
  -2  -2  -1 29362.6 1632.94   8
   2   2   1 27287.5 1224.24   2
  -2  -2  -1 27579.8 1216.88   1
  -2  -2  -1 28478.5 1246.08   3
   2   2   1 26947.8 1376.47  12
   2   2   2 9525.58 890.802   5
  -2  -2  -2 8136.69 857.371   9
  -2  -2  -2 7134.58 644.836  16
   2   2   2 7473.17 731.505   2
  -2  -2  -2 8412.97 693.654   1
   2   2   2 8855.60 859.446  12
  -2  -2  -3 36303.4 1688.62   9
   2   2   3 39390.2 1740.64   2
   2   3  -3 87378.5 2670.78   5
  -2  -3   3 87539.3 2897.96   9
  -2  -3   3 85395.9 2973.21   8
  -2  -3   3 90313.9 2649.48  15
   2   3  -2 65953.6 2270.21   5
  -2  -3   2 64816.2 2209.76  16
   2   3  -1 184043. 3667.64   5
  -2  -3   1 183483. 3928.61   8
  -2  -3   1 182314. 3394.72  15
  -2  -3   1 178579. 3378.46  16
   2   3  -1 186634. 3464.98  14
   2   3   0 19252.8 1189.20   5
  -2  -3   0 19014.6 1120.65  15
  -2  -3   0 22152.2 1245.93  16
   2   3   0 17090.4 1098.66  13
   2   3   0 18133.3 1204.54  12
   2   3   1 155618. 3746.86   5
  -2  -3  -1 155989. 3986.21   9
  -2  -3  -1 157990. 3094.24   1
   2   3   1 157479. 3012.57   2
  -2  -3  -1 155630. 3406.09  16
  -2  -3  -1 157325. 3376.85  15
   2   3   1 157778. 3892.36  12
  -2  -3  -2 10757.1 781.368   1
  -2  -3  -2 14248.4 1077.30  16
  -2  -3  -3 70398.6 2556.92   9
  -2  -3  -3 81739.5 3222.41   8
  -2  -4   4 4429.55 761.626  15
   2   4  -4 3121.34 737.064   5
  -2  -4   4 3763.76 812.646   9
   2   4  -3 3430.06 803.505  14
   2   4  -3 1041.70 593.823   5
  -2  -4   3 1367.74 720.078   9
  -2  -4   3 1280.47 736.822   8
  -2  -4   3 1245.65 637.326  16
  -2  -4   3 2693.24 707.136  15
   2   4  -2 47143.5 2059.46  14
   2   4  -2 47413.6 1912.08   5
  -2  -4   2 44099.7 2091.76   9
  -2  -4   2 41273.9 1870.54   8
  -2  -4   2 43496.0 1918.81  16
  -2  -4   2 45258.6 1964.95  15
  -2  -4   1 4865.16 696.123  16
  -2  -4   1 2829.21 581.701   9
  -2  -4   1 3322.41 613.142  15
   2   4  -1 3311.80 767.554  14
   2   4  -1 2193.54 766.696  12
   2   4   0 31119.0 1570.46   5
  -2  -4   0 32935.5 1810.74   9
  -2  -4   0 37772.2 1967.90   8
  -2  -4   0 31413.2 1575.78  16
  -2  -4   0 29257.6 1545.54  15
   2   4   0 33698.8 1748.88  13
   2   4   0 30093.1 1679.07  12
   2   4   1 1339.20 394.983   5
  -2  -4  -1 2916.31 779.000   9
  -2  -4  -1 1504.57 523.727   8
  -2  -4  -1 3224.80 733.196  16
   2   4   1 3083.70 721.856  13
   2   4   1 1827.00 478.289  12
  -2  -4  -2 26721.5 1625.42  16
  -2  -4  -2 25701.6 1723.37   9
   2   4   2 27568.1 1765.03  12
  -2  -4  -3 12811.0 1398.35   8
  -2  -5   4 2570.45 920.489   9
  -2  -5   4 6103.41 919.298  15
  -2  -5   3 109559. 3573.49   9
  -2  -5   3 102122. 3317.97  16
  -2  -5   3 104214. 3353.64  15
   2   5  -3 111656. 3589.82  14
   2   5  -2 25502.8 1652.26  14
   2   5  -2 19642.8 1465.89  12
   2   5  -1 6391.49 738.644   5
  -2  -5   1 7647.90 936.921   9
  -2  -5   1 6826.88 824.631  16
  -2  -5   1 6499.87 820.073  15
   2   5  -1 6810.65 822.184  14
   2   5  -1 8170.07 961.204  13
   2   5  -1 6424.45 858.883  12
   2   5   0 2707.92 525.300   5
  -2  -5   0 2405.18 636.888   9
  -2  -5   0 3117.57 688.830   8
  -2  -5   0 3168.34 585.603  16
  -2  -5   0 2802.71 572.767  15
   2   5   0 2797.98 621.855  13
   2   5   0 2424.71 657.370  12
   2   5   1 72759.9 2606.76   5
  -2  -5  -1 77062.6 3040.49   9
  -2  -5  -1 71209.5 2764.48  16
  -2  -5  -1 76842.4 2782.33  15
   2   5   1 74148.6 2920.59  12
   2   5   2 1732.00 133.310  12
  -2  -6   4 81338.1 3487.61   9
  -2  -6   4 81450.2 3345.82  16
   2   6  -4 79215.5 3384.35  14
  -2  -6   4 74776.9 3247.82  15
  -2  -6   3 16201.2 1401.37   9
   2   6  -3 15012.3 1451.77  12
  -2  -6   3 15591.2 1420.58  16
   2   6  -3 14827.9 1416.48  14
  -2  -6   3 14933.4 1389.51  15
   2   6  -2 75.5520 7.58738  12
  -2  -6   2 68.5664 8.78895  15
  -2  -6   2 78.4771 8.57222   9
  -2  -6   2 74.1888 7.58932  16
   2   6  -2 76.6673 8.86455  14
   2   6  -2 81.9887 8.45034  13
  -2  -6   1 10245.5 1300.34   9
  -2  -6   1 9090.12 1186.40  16
  -2  -6   1 9823.80 1207.54  15
   2   6  -1 11760.0 1236.78  14
   2   6  -1 10454.8 1205.83  12
  -2  -6   0 19952.9 1648.47   9
  -2  -6   0 19612.9 1568.46  16
  -2  -6   0 20824.1 1631.88  15
   2   6   0 22716.8 1778.10  13
   2   6   0 18938.6 1571.31  12
  -2  -6  -1 17612.7 1590.94   9
  -2  -6  -1 17938.9 1533.23  16
  -2  -6  -1 17570.2 1490.47  15
   2   6   1 21254.5 1956.09  13
   2   6   1 17645.2 1542.46  12
  -2  -6  -2 1518.68 734.568   9
  -2  -6  -2 2853.42 645.597  16
   2   6   2 2596.69 823.574  12
  -2  -7   5 11185.6 1362.23  15
  -2  -7   4 36277.8 2435.73   9
  -2  -7   4 36255.4 2426.16  16
  -2  -7   4 36813.3 2388.01  15
   2   7  -4 38740.1 2549.09  14
   2   7  -4 36901.3 2458.83  12
   2   7  -3 2474.08 651.540  12
  -2  -7   3 1637.89 536.369  15
  -2  -7   3 1312.52 594.608   9
  -2  -7   3 1185.39 653.504  16
   2   7  -3 2201.83 718.218  14
   2   7  -3 3689.71 987.409  13
   2   7  -2 5446.69 933.434  12
  -2  -7   2 5482.19 887.058   9
  -2  -7   2 5549.43 952.326  16
  -2  -7   2 5711.69 953.808  15
   2   7  -2 6274.75 1032.90  14
   2   7  -2 7241.84 1179.24  13
  -2  -7   1 23798.5 1907.19   9
  -2  -7   1 23414.8 1865.16  16
  -2  -7   1 26029.1 1904.71  15
   2   7  -1 23405.6 1863.23  14
   2   7  -1 28933.4 2187.03  13
   2   7  -1 25748.1 1933.24  12
  -2  -7   0 24115.8 1863.83  15
  -2  -7   0 25686.6 1953.29   9
  -2  -7   0 24012.1 1938.79  16
   2   7   0 25592.0 2094.04  13
   2   7   0 23964.2 1858.20  12
  -2  -7  -1 5332.98 942.538   9
  -2  -7  -1 4695.38 900.943  16
  -2  -7  -1 4221.17 812.032  15
   2   7   1 6458.24 1280.02  13
   2   7   1 4730.56 891.262  12
  -2  -7  -2 6718.65 1031.38   9
  -2  -7  -2 6377.38 1013.71  16
   2   8  -5 57.4287 440.822  12
  -2  -8   5 188.462 468.208  15
   2   8  -4 6725.39 1097.16  12
   2   8  -4 5080.96 1100.91  14
  -2  -8   4 4648.17 975.462   9
  -2  -8   4 3946.27 949.849  16
  -2  -8   4 5248.91 1025.22  15
   2   8  -4 6964.62 1298.78  13
   2   8  -3 3944.35 1063.32  13
  -2  -8   3 4682.62 963.432   9
  -2  -8   3 5006.93 958.611  16
  -2  -8   3 3975.95 853.719  15
   2   8  -3 4218.05 943.532  14
   2   8  -3 4004.77 823.239  12
   2   8  -2 13973.6 1594.41  14
  -2  -8   2 15128.8 1700.84   9
  -2  -8   2 15574.2 1619.48  16
  -2  -8   2 15033.2 1590.07  15
   2   8  -2 17820.2 1929.39  13
   2   8  -2 14642.3 1592.58  12
  -2  -8   1 7541.54 1139.60   9
  -2  -8   1 7121.00 1107.89  15
   2   8  -1 8339.13 1214.44  14
   2   8  -1 7745.00 1229.91  13
   2   8  -1 8633.57 1220.02  12
  -2  -8   1 6899.90 1113.54  16
  -2  -8   0 8942.58 1271.16   9
   2   8   0 9936.77 1316.20  12
  -2  -8   0 7764.27 1094.28  16
  -2  -8   0 9463.50 1254.54  15
   2   8   0 8233.50 1272.72  14
   2   8   0 10235.6 1572.31  13
  -2  -8  -1 31779.5 2324.58   9
  -2  -8  -1 30025.4 2248.97  16
   2   9  -3 1404.22 570.094  13
  -2  -9   3 1197.86 750.517  16
  -2  -9   3 855.164 605.386  15
   2   9  -3 161.442 475.010  14
  -2  -9   2 4392.17 1021.52  15
   2   9  -2 3104.81 881.812  14
   2   9  -2 6028.87 1323.96  13
  -2  -9   2 3281.56 935.427  16
  -2  -9   1 6796.60 1315.73  15
  -2  -9   1 4855.14 1050.62   9
  -2  -9   1 4808.48 1049.94  16
   2   9  -1 7778.91 1411.44  14
   2   9  -1 5560.45 1189.45  13
   2   9  -1 5021.42 1047.68  12
  -2  -9   0 3198.17 834.912  16
  -2  -9   0 4304.00 1004.00   9
  -2  -9   0 4464.21 1066.58  15
   2   9   0 3770.01 925.956  14
   2   9   0 4734.16 1329.06  13
   2   9   0 5242.82 1004.68  12
  -2  -9  -1 180.405 441.913   9
  -2  -9  -1 687.871 451.060  16
  -3   8   0 4763.77 999.982   6
  -3   8   0 3761.30 1010.55  11
   3  -8   0 5061.19 1063.99   7
  -3   8  -1 1730.49 669.750   6
  -3   8  -1 2220.29 805.832  11
   3  -8   1 1709.68 631.702  10
   3  -8   1 2721.09 840.534   7
  -3   8  -2 916.055 489.285  11
   3  -8   2 949.544 523.330  10
   3  -8   2 866.591 402.544   7
  -3   8  -3 19867.1 1977.11  11
   3  -8   3 20099.2 2015.06  10
   3  -8   3 20616.3 2179.32   7
  -3   8  -4 10105.4 1453.63  11
   3  -8   4 11845.3 1594.05  10
  -3   7   1 1814.16 617.819   6
   3  -7  -1 3124.91 771.472   7
  -3   7   0 8401.70 1353.51   6
  -3   7   0 10718.1 1401.21  11
   3  -7   0 7354.41 1209.93   7
  -3   7  -1 12816.3 1477.77  11
   3  -7   1 11550.7 1377.19  10
   3  -7   1 13727.3 1627.63   7
  -3   7  -1 11298.3 1473.04   6
   3  -7   2 22628.6 1948.49  10
   3  -7   2 22646.8 2048.51   7
  -3   7  -2 23744.8 2075.43   6
  -3   7  -3 303.000 93.3291   6
   3  -7   3 300.880 99.0322   7
   3  -7   4 1464.51 634.709   7
  -3   7  -4 1531.90 713.748   6
   3  -7   5 20141.1 1984.83   7
  -3   7  -5 18805.7 2055.70   6
   3  -7   6 305.010 166.308   7
  -3   6   1 5227.82 1101.08   6
  -3   6   1 5016.45 959.234   3
   3  -6  -1 4975.57 900.677   4
   3  -6  -1 5436.56 1029.49   7
  -3   6   0 4655.42 944.825   6
   3  -6   0 5354.68 950.933   4
   3  -6   0 3505.91 842.514   7
   3  -6   1 33033.4 2402.30   7
  -3   6  -1 28867.5 2172.76   6
  -3   6  -2 361.322 384.032   6
   3  -6   2 908.603 512.382   7
  -3   6  -3 2090.00 689.128   6
   3  -6   3 2898.45 816.919   7
   3  -6   4 9944.41 1362.56   7
  -3   6  -4 9955.33 1318.96   6
  -3   6  -5 21800.1 2106.98   6
   3  -6   5 20698.6 1921.35   7
   3  -6   6 2222.05 553.010   7
  -3   5   1 1314.23 558.940   6
  -3   5   1 584.296 343.575   3
   3  -5  -1 1097.90 448.178   2
   3  -5  -1 1308.38 486.615   4
   3  -5  -1 1241.61 472.087   7
  -3   5   0 2003.89 640.877   6
  -3   5   0 1861.31 531.824   3
   3  -5   0 2662.87 694.306   2
  -3   5   0 2371.40 528.547   1
   3  -5   0 2971.93 718.071   4
   3  -5   0 2265.11 606.248   7
  -3   5  -1 17092.8 1486.56   1
   3  -5   1 17301.3 1563.02   4
   3  -5   1 17184.3 1547.95   2
   3  -5   1 18979.7 1684.14   7
  -3   5  -1 17539.4 1558.34   3
  -3   5  -1 16290.7 1527.05   6
   3  -5   2 26274.9 1958.92   7
   3  -5   2 25105.6 1876.07   4
   3  -5   2 25308.0 1940.18   2
  -3   5  -2 24554.6 1832.48   3
  -3   5  -2 24049.7 1947.38   6
  -3   5  -2 24629.4 1802.62   1
   3  -5   3 10664.9 1305.22   4
   3  -5   3 10081.1 1229.02   2
   3  -5   3 10511.3 1302.34   7
  -3   5  -3 8783.94 1162.35   3
  -3   5  -3 10417.6 1186.07   1
  -3   5  -3 8262.85 1136.99   6
  -3   5  -4 1477.79 545.141   3
   3  -5   4 1943.47 564.924   4
   3  -5   4 1515.06 572.541   7
  -3   5  -4 779.883 442.877   1
   3  -5   4 1046.04 468.253   2
  -3   5  -4 576.353 406.541   6
   3  -5   5 11884.0 1339.01   2
   3  -5   5 9557.55 1228.31   7
  -3   5  -5 8940.91 1274.09   1
  -3   5  -5 9663.07 1443.20   6
  -3   4   2 1343.78 469.857   6
  -3   4   2 292.797 303.687   3
   3  -4  -2 1572.66 589.466   4
  -3   4   1 3757.47 794.073   6
  -3   4   1 4568.96 849.021   1
  -3   4   1 4594.27 823.445   3
   3  -4  -1 4373.00 773.943   2
   3  -4  -1 4745.19 788.952   4
   3  -4  -1 3812.92 716.520   7
  -3   4   0 5428.93 845.025   6
   3  -4   0 4832.95 787.719   2
  -3   4   0 5372.43 886.726   3
  -3   4   0 4884.69 776.744   1
   3  -4   0 4864.82 826.899   4
   3  -4   0 5400.06 842.739   7
   3  -4   1 9190.65 1090.07   4
   3  -4   1 7756.50 979.120   2
   3  -4   1 9699.89 1125.60   7
  -3   4  -1 9402.55 1064.78   6
  -3   4  -1 8024.31 1012.72   3
  -3   4  -1 8658.59 1027.09   1
   3  -4   2 1353.96 619.237   2
  -3   4  -2 3373.91 725.422   6
  -3   4  -2 3783.15 694.387   1
  -3   4  -2 2442.28 694.117   3
   3  -4   2 2155.62 617.918   4
   3  -4   2 1700.46 804.969   7
   3  -4   3 11767.9 1250.25   4
   3  -4   3 12753.8 1290.44   2
   3  -4   3 11958.5 1234.20   7
  -3   4  -3 12381.5 1241.46   1
  -3   4  -3 12830.8 1261.03   3
  -3   4  -3 12966.4 1298.61   6
  -3   4  -4 1471.43 564.070   3
   3  -4   4 1452.87 516.193   4
  -3   4  -4 933.888 398.031   1
   3  -4   4 1278.65 487.646   7
   3  -4   4 1414.62 526.667   2
  -3   4  -4 1421.06 586.962   6
   3  -4   5 6351.75 972.691   2
  -3   4  -5 4821.40 961.924   1
   3  -4   5 6419.90 1022.10   7
  -3   4  -5 4236.02 928.448   6
  -3   3   2 187.886 292.162   6
  -3   3   2 486.104 384.260   3
   3  -3  -2 257.951 324.516   5
   3  -3  -2 639.102 386.393   2
   3  -3  -2 101.528 247.064   4
  -3   3   1 28702.2 1853.57   1
   3  -3  -1 26465.9 1805.23   4
   3  -3  -1 28751.9 1844.49   2
   3  -3  -1 30174.4 1865.13   7
  -3   3   1 29820.8 1841.18   6
  -3   3   1 28774.3 1874.32   3
  -3   3   0 8907.05 1056.46   1
   3  -3   0 6660.49 996.471   2
  -3   3  -1 4435.08 703.108   6
   3  -3   1 4295.55 722.113   2
  -3   3  -1 4632.30 759.765   3
  -3   3  -1 4529.68 714.866   1
   3  -3   1 4803.89 792.252   4
   3  -3   1 4814.31 749.481   7
  -3   3  -2 1886.15 532.858   6
  -3   3  -2 1408.00 434.659   3
   3  -3   2 1533.79 522.891   4
   3  -3   2 1406.75 397.758   7
  -3   3  -2 1708.79 430.160   1
   3  -3   2 1418.08 464.150   2
   3  -3   3 34514.5 2054.42   4
   3  -3   3 33243.4 2009.29   2
   3  -3   3 29139.6 1858.05   7
  -3   3  -3 32422.4 1995.70   1
  -3   3  -3 30210.9 1914.52   3
  -3   3  -3 31201.6 1897.19   6
  -3   3  -4 6222.14 1006.76   3
  -3   3  -4 6109.22 927.089   1
   3  -3   4 5683.87 912.604   4
   3  -3   4 5080.80 928.472   7
   3  -3   4 4965.44 886.085   2
  -3   3  -4 5300.58 917.700   6
  -3   3  -5 409.439 304.305   1
   3  -3   5 28.1779 244.034   7
   3  -3   5 59.1640 292.004   2
  -3   2   2-192.905 219.097   6
  -3   2   2-27.8560 221.786   1
  -3   2   2 176.237 280.300   3
   3  -2  -2 37.3695 274.928   2
   3  -2  -2-416.429 312.943   5
   3  -2  -2-68.3435 268.055   4
  -3   2   1 2966.43 571.823   6
   3  -2  -1 2197.31 546.066   2
  -3   2   1 2670.84 553.390   3
   3  -2  -1 2682.97 524.984   5
  -3   2   1 3016.94 589.096   8
  -3   2   1 2703.73 584.596   1
   3  -2  -1 2295.39 569.973   4
   3  -2  -1 2616.80 554.132   7
  -3   2   0 37.3929 271.392   6
   3  -2   0 41.3601 270.452   2
  -3   2   0-58.9972 212.719   3
   3  -2   0-48.4677 205.365   5
   3  -2   0 290.507 217.139   7
  -3   2   0-419.645 250.102   8
  -3   2   0-65.5428 234.469   1
   3  -2   0-237.042 267.564   4
   3  -2   1 3359.46 645.147   2
  -3   2  -1 3286.12 575.792   6
  -3   2  -1 3802.23 661.755   1
  -3   2  -1 3858.94 692.709   3
   3  -2   1 4419.65 655.221   5
  -3   2  -1 4100.79 663.343   8
   3  -2   1 3904.47 703.692   4
   3  -2   1 3233.00 548.495   7
   3  -2   2 12003.8 1043.43   5
   3  -2   2 13205.0 1229.73   4
   3  -2   2 12619.4 1195.29   2
   3  -2   2 11713.7 1096.30   7
  -3   2  -2 11253.7 1157.72   1
  -3   2  -2 11391.7 1158.39   3
  -3   2  -2 11543.1 1069.57   6
   3  -2   3 37186.7 1910.87   5
   3  -2   3 37217.7 2089.23   4
   3  -2   3 39183.7 2100.74   2
  -3   2  -3 33629.4 1987.96   1
   3  -2   3 34359.7 1873.92   7
  -3   2  -3 36629.2 2082.76   3
  -3   2  -3 38190.7 2015.27   6
  -3   2  -4-496.296 377.379   3
  -3   2  -4 716.833 441.485   8
  -3   2  -4 479.806 351.394   1
   3  -2   4 319.097 343.990   4
   3  -2   4 409.763 344.394   7
   3  -2   4 597.869 425.304   2
  -3   2  -4 236.175 235.008   6
   3  -2   5 7310.80 1086.63   2
   3  -2   5 6255.08 924.832   7
  -3   1   2 75412.0 2910.66   3
   3  -1  -2 73915.8 2797.67   5
  -3   1   2 79151.8 2958.75   1
  -3   1   2 71622.3 2997.85   8
   3  -1  -2 67974.0 2703.06   4
   3  -1  -2 72857.7 2756.94   2
  -3   1   2 77203.2 2552.17   6
  -3   1   1 113349. 3396.29   1
   3  -1  -1 114530. 3279.12   5
   3  -1  -1 109409. 3062.73   7
  -3   1   1 119830. 3457.25   8
   3  -1  -1 114878. 3395.69   4
   3  -1  -1 108865. 3367.14   2
  -3   1   1 103427. 2864.31   6
  -3   1   1 104670. 3194.39   3
   3  -1   0 84874.6 2875.12   5
   3  -1   0 80316.3 2948.16   4
   3  -1   0 81616.8 3043.90   2
   3  -1   0 81177.9 2690.48   7
  -3   1   0 78873.7 2388.70   6
  -3   1   0 78823.8 2819.17   1
  -3   1   0 77132.6 2867.84   3
   3  -1   1 44448.0 2067.56   5
  -3   1  -1 51855.2 2413.46   8
   3  -1   1 46100.2 2179.86   4
   3  -1   1 44280.0 2125.22   2
   3  -1   1 45664.7 1955.60   7
  -3   1  -1 41330.5 2049.71   1
  -3   1  -1 44726.9 1966.71   6
  -3   1  -1 41999.0 2031.27   3
  -3   1  -2 4270.36 712.612   3
   3  -1   2 5340.68 732.269   5
  -3   1  -2 6635.31 918.542   8
   3  -1   2 5082.77 803.892   2
   3  -1   2 4466.58 748.777   4
  -3   1  -2 5372.35 763.914   1
   3  -1   2 4326.87 638.880   7
  -3   1  -2 5361.16 724.060   6
  -3   1  -3 2148.63 550.853   3
   3  -1   3 2519.52 623.825   5
  -3   1  -3 2872.05 755.624   8
  -3   1  -3 1874.36 582.367   1
   3  -1   3 2163.25 557.545   4
   3  -1   3 1720.18 426.188   7
   3  -1   3 2841.99 677.180   2
  -3   1  -3 2918.93 586.287   6
   3  -1   4 8411.21 1034.85   2
  -3   1  -4 9230.27 1128.96   1
   3  -1   4 9438.16 944.073   7
  -3   1  -4 9367.52 1194.77   3
   3   0  -3 6801.89 862.134   5
  -3   0   3 3643.46 899.628   3
   3   0  -2 3799.22 654.954   2
  -3   0   2 3011.58 651.815   3
   3   0  -2 3398.57 629.198   5
  -3   0   2 3518.10 686.565   8
   3   0  -2 3413.72 707.284   4
  -3   0   2 2919.67 610.723   1
  -3   0   1 3041.82 545.343   1
   3   0  -1 3570.34 638.825   2
  -3   0   1 3575.68 607.758   3
   3   0  -1 3650.87 623.627   5
  -3   0   1 3702.95 540.941   9
  -3   0   1 3705.26 705.209   8
   3   0  -1 3477.26 603.815   4
   3   0   0 24.3143 262.685   2
  -3   0   0-233.647 226.082   3
  -3   0   0-52.9738 220.129   1
   3   0   0-63.3060 212.541   5
  -3   0   0 125.385 269.093   9
  -3   0   0-184.950 229.847   8
   3   0   0 140.257 253.797   4
   3   0   1 23401.8 1536.82   5
  -3   0  -1 26389.2 1757.20   8
   3   0   1 23115.7 1507.49   4
   3   0   1 23489.6 1512.97   2
  -3   0  -1 21240.5 1425.50   1
  -3   0  -1 21456.3 1444.83   3
   3   0   2 66903.6 2618.54   5
   3   0   2 64434.2 2558.74   4
   3   0   2 62229.4 2478.24   2
  -3   0  -2 62758.1 2448.25   1
  -3   0  -2 63252.9 2529.81   3
   3   0   3 39354.7 2136.38   5
   3   0   3 39009.7 2039.96   4
   3   0   3 39266.2 2032.74   2
  -3   0  -3 43609.9 2184.93   1
  -3   0  -3 40750.6 2156.47   3
  -3   0  -4 3161.16 966.296   1
  -3   0  -4 5371.28 1176.18   8
   3   0   4 3788.50 790.298   2
  -3  -1   3 121162. 3869.96   3
   3   1  -3 127548. 3575.11   5
  -3  -1   3 129749. 4395.50   8
   3   1  -3 132044. 3470.67   4
   3   1  -2 83311.5 2914.81   5
  -3  -1   2 91855.1 3003.13   1
  -3  -1   2 77941.4 2748.11   9
  -3  -1   2 97568.3 3317.36   8
   3   1  -2 80508.2 2692.11   4
   3   1  -2 84024.5 2835.30   2
  -3  -1   2 81534.8 2708.79   3
  -3  -1   1 594.876 306.681   1
   3   1  -1 496.638 340.449   2
  -3  -1   1 643.787 323.599   3
   3   1  -1 811.656 377.330   5
  -3  -1   1 480.341 253.873   9
  -3  -1   1 105.321 277.897   8
   3   1  -1 404.490 215.405   4
   3   1   0 30384.3 1742.16   5
  -3  -1   0 29529.3 1549.00   9
  -3  -1   0 32867.5 1986.35   8
   3   1   0 30723.4 1676.19   4
   3   1   0 29238.2 1667.98   2
  -3  -1   0 29562.8 1648.20   1
  -3  -1   0 28861.1 1610.64   3
   3   1   0 32134.0 1634.94  12
   3   1   1 184803. 4346.28   5
  -3  -1  -1 173869. 3763.00   9
   3   1   1 181106. 4131.69   4
   3   1   1 181274. 4156.36   2
  -3  -1  -1 180966. 4105.65   1
  -3  -1  -1 178078. 4058.70   3
   3   1   1 188459. 4054.39  12
   3   1   2 7838.04 977.058   5
  -3  -1  -2 8508.02 873.016   9
   3   1   2 7810.72 874.367   4
  -3  -1  -2 9344.20 1094.08   8
   3   1   2 6460.22 811.061   2
  -3  -1  -2 8020.76 948.355   1
  -3  -1  -2 8729.83 954.545   3
   3   1   2 8540.97 881.072  12
   3   1   3 31553.0 1923.37   5
  -3  -1  -3 33051.3 1770.94   9
   3   1   3 29306.9 1804.35   2
  -3  -1  -3 32021.7 1828.99   1
  -3  -1  -3 35432.6 2065.57   3
  -3  -1  -4 902.531 365.526   9
  -3  -1  -4 3104.91 777.180   1
  -3  -1  -4 1563.41 836.008   8
   3   1   4 2486.82 604.428   2
  -3  -2   3 7761.74 848.790   3
   3   2  -3 7483.45 904.811   5
  -3  -2   3 7800.19 1099.10   8
   3   2  -3 7144.99 777.744   4
   3   2  -2 129707. 3722.01   5
  -3  -2   2 147448. 3769.80   1
  -3  -2   2 159915. 4169.88   9
  -3  -2   2 167173. 4445.72   8
   3   2  -2 153144. 3637.22   4
   3   2  -2 146568. 3646.75   2
  -3  -2   2 146752. 3496.80   3
   3   2  -1 280.653 201.151   2
  -3  -2   1 757.082 322.085   3
   3   2  -1 272.023 229.009   5
  -3  -2   1 973.602 303.225   1
  -3  -2   1 1138.65 396.918   9
  -3  -2   1 735.090 424.570   8
   3   2  -1 555.780 331.601   4
   3   2   0 188947. 4514.85   5
  -3  -2   0 184441. 4250.83   9
   3   2   0 187292. 4062.01   4
   3   2   0 184705. 4054.29   2
  -3  -2   0 188858. 4047.86   1
  -3  -2   0 186384. 3990.59   3
   3   2   0 189015. 4270.26  12
  -3  -2  -1 1911.91 454.603   3
   3   2   1 2204.14 570.189   5
  -3  -2  -1 1745.98 461.408   9
  -3  -2  -1 1690.50 535.143   8
   3   2   1 1832.70 455.441   4
  -3  -2  -1 2020.57 467.856   1
   3   2   1 2102.41 489.038   2
   3   2   1 1938.94 466.188  12
  -3  -2  -2 1441.50 479.276   3
   3   2   2 1645.70 451.117   5
  -3  -2  -2 985.446 338.218   9
  -3  -2  -2 1694.16 562.851   8
  -3  -2  -2 1209.12 330.777   1
   3   2   2 1748.56 438.877   4
   3   2   2 1463.55 406.054   2
   3   2   2 942.042 362.267  12
   3   2   3 37797.6 2173.91   5
  -3  -2  -3 40802.3 2094.34   9
   3   2   3 39068.3 1985.08   2
  -3  -2  -3 39521.2 1952.21   1
   3   3  -4 296.661 245.107   5
   3   3  -3-156.425 266.464   5
  -3  -3   3 305.672 347.643   9
  -3  -3   3 42.3720 236.478   8
   3   3  -2 287.152 371.146   5
  -3  -3   2 156.989 295.005   9
  -3  -3   2-190.461 254.197   8
   3   3  -1 45167.1 2273.56   5
  -3  -3   1 49683.7 2357.97   9
  -3  -3   1 48574.7 2552.04   8
   3   3  -1 48133.1 2317.71  12
   3   3   0 8516.79 1015.80   5
  -3  -3   0 7521.31 952.094   9
  -3  -3   0 10133.9 1224.29   8
   3   3   0 7836.73 957.120  12
   3   3   1 171.810 270.979   5
  -3  -3  -1 63.9373 218.894   9
  -3  -3  -1-47.7318 321.065   8
   3   3   1 409.080 402.312  12
   3   3   2 211.597 268.047   5
  -3  -3  -2 393.018 319.205   9
  -3  -3  -2-256.141 405.885   8
   3   3   2 149.003 278.835  12
   3   3   3 8083.64 1077.20   5
  -3  -3  -3 7409.02 952.802   9
  -3  -3  -3 9658.12 1312.97   8
   3   4  -4 119111. 3524.84   5
   3   4  -3 24033.3 1804.30   5
  -3  -4   3 23667.2 1888.80   9
  -3  -4   3 28183.9 1976.03   8
   3   4  -2 3337.71 820.332  12
   3   4  -2 2283.63 637.766   5
  -3  -4   2 867.971 445.547   9
  -3  -4   2 2543.21 610.227   8
   3   4  -1 661.747 465.690  12
   3   4  -1-39.7636 293.813   5
  -3  -4   1-422.780 336.013   9
  -3  -4   1 133.926 342.788   8
   3   4   0 7096.31 983.022   5
  -3  -4   0 6426.07 894.822   9
  -3  -4   0 7945.37 1061.40   8
   3   4   0 7328.57 1028.96  12
   3   4   1 25673.2 1838.41   5
  -3  -4  -1 25736.4 1829.33   9
   3   4   1 26331.5 1881.14  12
   3   4   2 69950.7 2980.42   5
  -3  -4  -2 72420.1 3082.96   9
   3   4   2 78187.0 3279.14  12
   3   5  -4 16314.9 1523.60   5
  -3  -5   4 18431.9 1745.55   9
  -3  -5   4 16614.0 1442.55  15
   3   5  -3 1256.33 547.266   5
  -3  -5   3 831.224 474.974   9
  -3  -5   3 1598.24 572.790   8
  -3  -5   3 1381.72 394.133  15
   3   5  -2 4861.45 924.879  12
   3   5  -2 3973.94 804.257   5
  -3  -5   2 4945.50 856.725   9
  -3  -5   2 4446.44 783.681   8
  -3  -5   2 3828.71 683.288  16
   3   5  -1 10812.7 1186.66   5
  -3  -5   1 8073.67 1119.99   9
  -3  -5   1 10362.7 1236.50   8
   3   5  -1 9085.29 1175.61  12
   3   5   0 13588.0 1322.30   5
  -3  -5   0 13259.6 1377.11   9
  -3  -5   0 16798.1 1591.85   8
   3   5   0 14424.2 1494.42  12
   3   5   1 2458.85 606.228   5
  -3  -5  -1 3846.33 777.975   9
  -3  -5  -1 5052.44 970.484   8
   3   5   1 4468.52 885.871  12
  -3  -5  -2 25809.7 1999.67   9
   3   5   2 28003.0 2121.62  12
  -3  -5  -3 4764.77 852.472   9
  -3  -5  -3 7296.00 1145.91   8
  -3  -6   4 2572.88 778.132   9
  -3  -6   4 390.741 356.204  15
   3   6  -3 6012.47 1159.60  12
  -3  -6   3 5327.24 1024.83   9
  -3  -6   3 6888.57 1013.71  16
  -3  -6   3 5863.55 944.444  15
   3   6  -3 6719.69 1077.94  14
   3   6  -3 6873.44 1248.37  13
  -3  -6   2 10281.6 1354.97   9
  -3  -6   2 9456.95 1125.55  16
  -3  -6   2 9073.29 1067.84  15
   3   6  -2 10797.3 1304.63  14
   3   6  -2 11411.7 1397.22  13
   3   6  -2 11142.9 1366.32  12
  -3  -6   1 600.634 457.751   9
  -3  -6   1 746.337 405.152  16
  -3  -6   1-521.628 393.226  15
   3   6  -1 309.512 385.754  14
   3   6  -1-627.798 660.098  13
   3   6  -1-40.3691 361.965  12
  -3  -6   0 7680.97 1170.82   9
  -3  -6   0 4714.20 746.898  16
   3   6   0 6463.35 1095.80  12
  -3  -6  -1 14009.1 1549.86   9
   3   6   1 13092.6 1509.66  12
  -3  -6  -2 2494.55 694.621   9
   3   6   2 2336.79 685.010  12
   3   7  -4 2238.36 666.271  12
  -3  -7   4 3314.68 897.437   9
  -3  -7   4 3121.96 731.189  15
   3   7  -4 2586.05 842.838  13
  -3  -7   3 15234.1 1772.03   9
  -3  -7   3 13988.5 1561.79  16
  -3  -7   3 13549.7 1458.95  15
   3   7  -3 13132.6 1565.98  14
   3   7  -3 11721.4 1667.93  13
   3   7  -3 12462.6 1643.25  12
  -3  -7   2 2871.81 821.977   9
  -3  -7   2 2348.08 685.485  16
  -3  -7   2 2313.71 697.798  15
   3   7  -2 3920.92 902.259  14
   3   7  -2 4136.99 934.694  13
   3   7  -2 2219.44 848.157  12
  -3  -7   1 37631.0 2653.86   9
  -3  -7   1 30982.8 2239.25  16
  -3  -7   1 31759.0 2225.89  15
   3   7  -1 37327.1 2491.95  14
  -3  -7   0 6293.68 1116.92   9
  -3  -7   0 5849.73 1010.59  16
  -3  -7   0 6753.27 1115.60  15
   3   7   0 6419.32 1023.91  14
   3   7   0 9694.83 1555.13  13
   3   7   0 5877.82 1128.82  12
  -3  -7  -1 11751.6 1511.36   9
  -3  -7  -1 9657.81 1291.23  16
   3   7   1 11121.7 1349.72  14
   3   7   1 11486.5 1542.26  12
  -3  -7  -2 7976.46 1280.79   9
  -3  -8   4-158.858 505.734   9
  -3  -8   4 62.1389 400.159  15
   3   8  -4 836.080 846.998  13
  -3  -8   3 3892.59 1052.18   9
  -3  -8   3 3386.58 787.036  16
  -3  -8   3 1714.87 615.836  15
   3   8  -3 3568.71 910.953  14
   3   8  -3 2823.88 865.577  13
   3   8  -3 2830.67 899.566  12
  -3  -8   2 1980.28 719.011   9
  -3  -8   2 880.601 595.137  16
  -3  -8   2 2019.32 561.983  15
   3   8  -2 2652.79 1053.69  14
   3   8  -2 1400.87 613.368  13
   3   8  -2 1898.81 844.659  12
  -3  -8   1 363.983 603.156   9
  -3  -8   1 636.724 468.794  16
  -3  -8   1 308.828 383.217  15
   3   8  -1-458.062 660.094  14
   3   8  -1-55.7994 554.223  13
   3   8  -1 769.960 704.297  12
  -3  -8   0 574.539 568.493   9
  -3  -8   0 606.244 501.651  16
   3   8   0 1039.49 504.285  14
   3   8   0 1455.67 814.660  13
  -3  -8   0-274.011 481.995  15
   3   8   0-58.9321 517.801  12
  -3  -8  -1 2879.67 845.793   9
  -3  -8  -1 1088.78 576.430  16
   3   8   1 1323.27 635.609  14
   3   8   1 1334.62 539.689  12
  -4   6   1-331.472 472.045   6
  -4   6   1-206.242 515.592   3
   4  -6  -1 125.354 437.677   4
  -4   6   0-1603.94 892.779   6
  -4   6   0-371.422 481.335   3
   4  -6   0-1014.44 715.626   2
   4  -6   0 145.093 466.794   4
   4  -6   0 80.8985 423.003   7
  -4   6  -1 381.854 503.272   6
  -4   6  -1 719.921 600.642   3
   4  -6   1 331.770 467.571   2
   4  -6   1-158.445 513.187   4
  -4   6  -1 503.778 408.225   1
   4  -6   1-350.941 464.101   7
  -4   6  -2 4158.98 979.787   6
  -4   6  -2 3495.57 911.204   3
   4  -6   2 2723.97 736.504   2
   4  -6   2 2934.02 825.891   4
  -4   6  -2 2681.89 815.396   1
   4  -6   2 3843.01 975.875   7
  -4   6  -3-17.1821 450.094   3
   4  -6   3-38.4733 448.738   2
   4  -6   3 517.597 493.921   4
   4  -6   3-616.460 661.773   7
  -4   6  -3 841.556 606.480   1
  -4   6  -4 8514.94 1500.91   3
  -4   6  -4 6439.81 1342.46   1
  -4   6  -5 1878.58 933.438   1
   4  -5  -1 27776.9 2250.50   4
   4  -5  -1 25173.6 2105.28   7
   4  -5  -1 25454.9 2137.67   2
  -4   5   1 23418.7 2067.24   6
  -4   5   1 23086.8 2194.44   3
  -4   5   0 2836.12 790.340   1
  -4   5   0 3242.04 885.415   6
  -4   5   0 2166.98 679.978   3
   4  -5   0 3729.53 864.479   2
   4  -5   0 3495.07 802.714   4
   4  -5   0 3287.11 880.098   7
  -4   5  -1 6427.87 1091.93   6
  -4   5  -1 7987.06 1281.04   3
   4  -5   1 7068.74 1231.25   2
   4  -5   1 8578.13 1326.13   4
  -4   5  -1 7420.30 1139.50   1
   4  -5   1 6990.58 1087.17   7
  -4   5  -2 551.056 590.309   6
   4  -5   2 816.870 656.441   2
  -4   5  -2 1877.45 732.612   3
   4  -5   2 893.665 557.486   4
   4  -5   2 542.817 608.603   7
  -4   5  -2-232.918 373.904   1
  -4   5  -3 4180.80 903.265   6
   4  -5   3 3152.07 805.306   2
  -4   5  -3 4408.15 989.814   3
  -4   5  -3 3690.44 885.412   1
   4  -5   3 3750.56 913.854   4
   4  -5   3 4229.91 896.229   7
   4  -5   4 1190.18 666.173   2
  -4   5  -4 442.177 563.837   3
  -4   5  -4 34.6376 446.481   1
   4  -5   4-155.683 611.651   4
   4  -5   4 1382.99 595.337   7
  -4   5  -4 1021.35 490.609   6
  -4   5  -5 1332.59 645.205   1
   4  -5   5 1106.01 592.305   7
   4  -5   5 418.280 625.051   2
  -4   4   1 3080.47 824.148   6
  -4   4   1 2870.38 826.807   3
   4  -4  -1 1761.87 548.881   2
  -4   4   1 2230.06 690.502   1
   4  -4  -1 820.862 479.555   4
   4  -4  -1 2408.42 667.497   7
  -4   4   0 3320.33 768.477   6
  -4   4   0 3477.72 796.380   3
  -4   4   0 3622.14 813.907   1
   4  -4   0 3319.60 723.305   2
   4  -4   0 4080.07 889.709   4
   4  -4   0 3778.59 825.612   7
  -4   4  -1 3973.73 835.069   6
   4  -4   1 4792.29 970.116   2
  -4   4  -1 4203.73 874.790   3
  -4   4  -1 4144.82 851.026   1
   4  -4   1 4398.78 983.985   4
   4  -4   1 3708.40 816.781   7
   4  -4   2 10275.3 1352.42   4
   4  -4   2 9036.53 1309.88   2
  -4   4  -2 8372.29 1143.51   1
   4  -4   2 8072.60 1173.99   7
  -4   4  -2 8645.68 1271.11   3
  -4   4  -2 9104.26 1205.90   6
  -4   4  -3 3639.51 796.763   6
   4  -4   3 3658.39 899.168   2
  -4   4  -3 3868.63 871.494   3
  -4   4  -3 2658.68 714.873   1
   4  -4   3 4146.92 940.513   4
   4  -4   3 2881.87 737.839   7
   4  -4   4 27824.6 2248.81   4
   4  -4   4 28147.6 2256.54   2
   4  -4   4 26911.5 2166.39   7
  -4   4  -4 29719.4 2440.83   3
  -4   4  -4 27454.7 2345.50   1
  -4   4  -4 25433.0 2144.15   6
   4  -4   5 518.261 557.021   7
  -4   4  -5 704.460 586.602   1
   4  -4   5 86.7430 397.050   2
  -4   3   2-54.7054 382.198   6
   4  -3  -2 287.446 314.451   2
   4  -3  -2 802.948 350.390   4
  -4   3   1 37212.2 2497.30   1
   4  -3  -1 39319.3 2502.07   4
   4  -3  -1 39721.4 2398.38   7
   4  -3  -1 32110.9 2243.96   2
  -4   3   1 40145.6 2398.66   6
  -4   3   1 40227.6 2557.56   3
  -4   3   0 6457.86 943.428   6
   4  -3   0 6304.05 1017.40   2
  -4   3   0 6213.83 999.656   3
  -4   3   0 6458.63 1045.46   1
   4  -3   0 8091.39 1200.04   4
   4  -3   0 7331.34 1062.99   7
  -4   3  -1 697.301 416.418   6
   4  -3   1 1664.27 710.336   2
  -4   3  -1 1044.74 516.255   3
   4  -3   1 697.778 708.176   4
  -4   3  -1 230.686 362.864   1
   4  -3   1 368.436 463.113   7
   4  -3   2 8326.00 1161.90   2
  -4   3  -2 7951.59 1162.34   3
   4  -3   2 8341.67 1196.76   4
   4  -3   2 9092.41 1199.11   7
  -4   3  -2 8383.36 1073.17   6
  -4   3  -2 8295.06 1197.65   1
  -4   3  -3-189.706 358.637   1
  -4   3  -3 671.036 494.723   3
   4  -3   3 435.815 551.395   4
   4  -3   3 727.997 560.298   7
  -4   3  -3 619.878 461.246   6
   4  -3   3 290.473 318.096   2
   4  -3   4 10392.9 1402.91   4
   4  -3   4 8780.86 1257.18   2
   4  -3   4 10220.5 1269.00   7
  -4   3  -4 11453.4 1511.98   3
  -4   3  -4 9786.00 1320.16   1
  -4   3  -4 8224.06 1203.58   6
   4  -3   5 13258.7 1531.33   2
   4  -3   5 14530.2 1579.50   7
  -4   2   2 701.396 378.155   3
   4  -2  -2 563.585 336.116   5
   4  -2  -2 924.703 499.965   2
   4  -2  -2 831.401 453.202   4
  -4   2   1 2250.96 672.287   3
   4  -2  -1 1315.08 495.738   2
  -4   2   1 2560.62 727.175   1
   4  -2  -1 1721.20 577.778   5
  -4   2   1 1991.82 555.568   8
   4  -2  -1 1867.22 747.657   4
   4  -2   0 5773.47 1004.85   2
  -4   2   0 5222.73 895.651   3
  -4   2   0 4994.28 864.678   1
   4  -2   0 6670.08 1014.76   5
  -4   2   0 6341.81 1008.05   8
   4  -2   0 5346.49 947.955   4
   4  -2   1 2736.93 681.018   2
  -4   2  -1 3590.61 780.007   3
   4  -2   1 3316.73 784.065   5
  -4   2  -1 3564.41 779.876   1
  -4   2  -1 3603.84 748.152   8
   4  -2   1 2582.32 718.620   4
   4  -2   2 70887.2 3197.85   5
   4  -2   2 66654.1 3249.09   4
   4  -2   2 64633.3 3178.29   2
  -4   2  -2 65824.0 3091.61   1
  -4   2  -2 62592.5 3020.60   3
  -4   2  -3 1365.56 622.380   3
   4  -2   3 1424.89 624.165   4
  -4   2  -3 2113.45 672.818   1
   4  -2   3 1792.92 615.862   2
  -4   2  -4 716.310 493.033   3
   4  -2   4 635.050 471.784   4
  -4   2  -4 1641.72 647.296   1
   4  -2   4 865.697 587.228   2
  -4   2  -5 90.5203 580.840   1
   4  -2   5 728.868 540.113   2
   4  -1  -2 9533.93 1165.55   5
  -4   1   2 9303.08 1269.63   1
  -4   1   2 9123.72 1332.68   8
   4  -1  -2 9156.18 1201.26   4
   4  -1  -2 9096.64 1155.67   2
  -4   1   2 12386.4 1509.48   3
  -4   1   1 22538.8 1785.02   1
   4  -1  -1 21801.0 1763.43   5
  -4   1   1 23336.0 1834.83   8
   4  -1  -1 21003.6 1738.04   4
   4  -1  -1 21730.0 1784.50   2
  -4   1   1 21398.4 1707.00   3
   4  -1   0 8096.70 1099.97   5
  -4   1   0 8560.36 1150.77   8
   4  -1   0 8012.27 1125.27   4
   4  -1   0 8246.26 1125.96   2
  -4   1   0 7228.33 1005.00   1
  -4   1   0 8372.09 1099.03   3
   4  -1   1 66778.5 3103.25   5
  -4   1  -1 61517.5 3030.31   8
   4  -1   1 60660.7 3008.93   4
   4  -1   1 59354.2 2982.24   2
  -4   1  -1 59952.5 2822.32   3
  -4   1  -1 56301.9 2796.09   1
   4  -1   2 2324.79 637.861   2
  -4   1  -2 1869.98 564.201   1
  -4   1  -2 2888.23 717.622   3
   4  -1   2 2130.43 638.011   5
  -4   1  -2 1000.81 433.848   8
   4  -1   2 2313.25 664.328   4
  -4   1  -3 1073.58 516.225   3
   4  -1   3 902.396 440.643   5
  -4   1  -3 1632.02 587.715   8
   4  -1   3 1076.07 583.734   4
  -4   1  -3 870.390 452.471   1
   4  -1   3 581.681 416.683   2
  -4   1  -4 4933.95 1001.76   3
  -4   1  -4 5153.13 1102.44   8
  -4   1  -4 4612.24 968.542   1
   4  -1   4 4432.90 910.519   2
  -4   1  -5-316.048 804.174   8
   4  -1   5 642.933 580.425   2
  -4   0   3 2822.47 1010.24   3
   4   0  -3 3695.85 806.974   5
   4   0  -3 3035.41 737.111   4
   4   0  -2 144880. 4566.02   5
  -4   0   2 150605. 4830.58   1
  -4   0   2 159701. 5293.79   8
   4   0  -2 134639. 4322.66   4
   4   0  -2 142878. 4485.16   2
  -4   0   2 156557. 4945.26   3
   4   0  -1 111.803 294.102   2
  -4   0   1 352.778 332.618   3
   4   0  -1 290.001 379.567   5
  -4   0   1 547.679 496.618   8
   4   0  -1 633.541 485.778   4
  -4   0   1 297.642 349.822   1
  -4   0   0 69819.1 3046.09   1
   4   0   0 73238.1 3267.20   5
  -4   0   0 70320.4 3257.99   8
   4   0   0 73842.7 3230.52   4
   4   0   0 72471.9 3237.80   2
  -4   0   0 69194.3 2996.89   3
   4   0   1 691.200 429.183   2
  -4   0  -1-173.545 293.571   3
   4   0   1 167.996 331.559   5
  -4   0  -1 17.2863 294.879   1
  -4   0  -1 354.917 424.750   8
   4   0   1-80.6025 407.351   4
  -4   0  -2 1750.46 475.123   3
   4   0   2 1605.50 478.340   5
  -4   0  -2 3176.97 815.526   8
   4   0   2 2965.75 782.327   4
   4   0   2 2327.21 585.088   2
  -4   0  -2 1957.27 577.253   1
  -4   0  -3-413.243 443.316   3
   4   0   3-356.899 486.012   5
  -4   0  -3-64.0480 377.423   8
   4   0   3 382.743 435.518   4
  -4   0  -3-94.2702 378.580   1
   4   0   3 273.036 452.210   2
   4   0   4 21720.8 1957.76   2
  -4   0  -4 25683.7 2261.54   1
  -4   0  -4 19550.7 1965.91   3
   4   1  -3 7690.30 1092.73   5
  -4  -1   3 6405.40 1051.31   3
   4   1  -3 7445.59 963.659   4
  -4  -1   3 5987.50 1187.23   8
   4   1  -2 35717.6 2293.32   5
  -4  -1   2 34395.9 2252.86   1
  -4  -1   2 37569.0 2514.19   8
   4   1  -2 37848.3 2200.23   4
   4   1  -2 38581.0 2293.83   2
  -4  -1   2 39379.8 2278.91   3
  -4  -1   1 9372.45 1118.29   1
   4   1  -1 8487.19 1128.29   5
  -4  -1   1 9750.33 1298.46   8
   4   1  -1 8169.41 1062.07   4
   4   1  -1 10734.6 1235.15   2
  -4  -1   1 9307.46 1093.35   3
   4   1   0 3095.61 773.932   2
  -4  -1   0 3260.85 676.362   3
   4   1   0 3919.99 790.199   5
  -4  -1   0 2697.08 688.616   8
   4   1   0 2903.97 696.332   4
  -4  -1   0 2903.94 624.398   1
   4   1   1 29983.5 2083.39   5
   4   1   1 33763.8 2144.32   4
  -4  -1  -1 29211.6 2147.58   8
   4   1   1 31567.2 2120.57   2
  -4  -1  -1 30644.7 2002.74   3
  -4  -1  -1 31990.8 2033.82   1
   4   1   2 22667.5 1873.93   5
   4   1   2 21245.4 1769.95   4
  -4  -1  -2 21513.3 1888.36   8
   4   1   2 19998.2 1705.20   2
  -4  -1  -2 19899.9 1625.16   1
  -4  -1  -2 20969.4 1756.94   3
  -4  -1  -3 1694.04 554.824   3
   4   1   3 1509.32 566.374   5
  -4  -1  -3 1145.32 643.390   8
  -4  -1  -3 963.800 456.016   1
   4   1   3 800.603 432.768   2
  -4  -1  -4 598.072 567.455   8
  -4  -1  -4 641.545 384.606   1
   4   1   4 809.564 361.864   2
   4   2  -3 742.372 490.543   5
  -4  -2   3 738.050 530.524   8
   4   2  -2-253.207 422.754  12
   4   2  -2-258.254 451.953   5
  -4  -2   2 245.848 269.819   9
  -4  -2   2-30.4065 416.519   8
   4   2  -1 2055.50 604.791   5
  -4  -2   1 2601.26 681.310   9
  -4  -2   1 2478.64 757.969   8
   4   2  -1 2615.56 665.915  12
   4   2   0 5448.06 956.614   5
  -4  -2   0 4123.90 718.050   9
  -4  -2   0 4109.99 844.113   8
   4   2   0 4124.50 782.292  12
   4   2   1 5348.39 917.492   2
   4   2   1 4726.97 959.674   5
  -4  -2  -1 3429.22 786.533   8
   4   2   2 62163.3 3142.32   5
   4   2   2 61181.7 2940.44   4
  -4  -2  -2 57468.5 3194.72   8
   4   2   2 56836.4 2827.47   2
  -4  -2  -2 64914.4 3121.48   3
   4   2   3 1717.59 698.697   5
  -4  -2  -3 3435.12 900.553   8
  -4  -2  -3 2524.64 595.971   1
   4   2   3 2831.66 716.160   2
  -4  -2  -4 174.399 458.054   8
   4   2   4 517.238 293.296   2
   4   3  -3 4414.61 855.485   5
  -4  -3   3 4128.78 1060.41   8
   4   3  -2 3527.23 760.942  12
   4   3  -2 4381.65 862.110   5
  -4  -3   2 3564.96 819.265   9
  -4  -3   2 3311.86 859.916   8
   4   3  -1 19948.7 1847.29   5
  -4  -3   1 18242.5 1676.83   9
  -4  -3   1 20275.9 1825.38   8
   4   3  -1 20815.3 1748.96  12
   4   3   0 3970.19 886.503   5
  -4  -3   0 4482.45 900.919   9
  -4  -3   0 3793.33 852.281   8
   4   3   0 4178.48 851.099  12
   4   3   1 262.806 354.601   5
  -4  -3  -1 406.043 453.352   9
  -4  -3  -1-258.108 517.958   8
   4   3   1-80.2487 423.992  12
   4   3   2 3359.74 750.827   5
  -4  -3  -2 3955.98 790.250   9
  -4  -3  -2 2621.05 742.773   8
   4   3   2 3665.47 800.584  12
   4   3   3 429.310 368.666   5
  -4  -3  -3 214.749 527.252   9
  -4  -3  -3 497.870 492.793   8
   4   4  -4 1692.30 684.575   5
   4   4  -3 832.874 543.356  12
   4   4  -3 120.637 336.897   5
  -4  -4   3 332.709 378.681   9
   4   4  -2 2122.81 609.488  12
   4   4  -2 1565.71 513.740   5
  -4  -4   2 1201.44 559.737   9
  -4  -4   2 1897.46 572.643   8
   4   4  -1 15.9569 457.904   5
  -4  -4   1-326.219 367.029   9
  -4  -4   1-40.9791 407.857   8
   4   4  -1 621.253 533.401  12
   4   4   0 931.928 533.014   5
  -4  -4   0-8.88322 356.028   9
  -4  -4   0 196.797 464.853   8
   4   4   0-746.222 574.346  12
   4   4   1 347.830 452.406   5
  -4  -4  -1 1136.18 584.644   9
  -4  -4  -1 792.413 470.825   8
   4   4   1 672.169 532.249  12
   4   4   2 6013.46 981.560   5
  -4  -4  -2 4737.67 971.963   9
  -4  -4  -2 5042.06 1076.14   8
   4   4   2 7446.19 1273.87  12
  -4  -4  -3 2921.88 741.509   9
  -4  -4  -3 1680.75 643.504   8
   4   5  -4 13.7724 452.129  12
   4   5  -4-504.109 379.264   5
   4   5  -3 1821.33 763.262  12
   4   5  -3 904.664 694.224   5
  -4  -5   3 1560.89 800.316   9
  -4  -5   3 1735.00 820.817   8
   4   5  -2 452.404 595.809   5
  -4  -5   2 759.841 580.476   9
  -4  -5   2 272.992 379.830   8
   4   5  -2-130.813 514.448  12
   4   5  -1 28149.4 2370.36   5
  -4  -5   1 30408.7 2349.01   9
   4   5  -1 33127.7 2472.18  12
   4   5   0 293.448 523.606   5
  -4  -5   0 971.941 590.656   9
  -4  -5   0-84.6174 414.053   8
   4   5   0 251.424 411.370  12
   4   5   1 9133.57 1343.88   5
  -4  -5  -1 9050.56 1290.06   9
  -4  -5  -1 7839.09 1301.81   8
   4   5   1 9905.93 1450.82  12
   4   5   2-891.636 615.688   5
  -4  -5  -2-184.566 385.889   9
  -4  -5  -2 383.326 549.359   8
   4   5   2-338.559 468.224  12
  -4  -5  -3 291.566 503.897   8
  -4  -6   3 633.976 439.985   9
   4   6  -3 2088.44 757.848  12
  -4  -6   2 9323.98 1425.87   9
   4   6  -2 9633.20 1547.67  12
  -4  -6   1 343.916 509.472   9
   4   6  -1-979.248 668.645  12
  -4  -6   0 806.706 636.402   9
   4   6   0 1824.74 827.210  12
   4   6   1 229.401 594.016   5
  -4  -6  -1 152.442 522.595   9
   4   6   1-659.891 595.720  12
  -4  -6  -2-179.229 412.855   9
  -4  -6  -2-477.008 511.529   8
  -5   2   1 861.383 587.146   3
   5  -2  -1 256.107 373.244   2
  -5   2   1-614.519 544.439   1
   5  -2  -1-725.671 617.932   4
  -5   2   0 16061.7 1995.61   1
   5  -2   0 18762.1 2025.20   4
   5  -2   0 16877.7 1917.43   2
  -5   2   0 16230.5 1927.07   3
  -5   2  -1 3831.65 894.830   3
   5  -2   1 3802.89 935.536   2
  -5   2  -1 2696.57 848.822   1
   5  -2   1 3376.12 932.807   4
  -5   2  -2 3366.10 805.237   1
   5  -1  -2 14235.3 1713.40   5
  -5   1   2 9182.23 1775.15   3
   5  -1  -2 13926.7 1750.56   4
   5  -1  -2 11860.9 1532.35   2
  -5   1   1 2973.35 909.007   3
   5  -1  -1 2883.93 862.168   5
   5  -1  -1-3.70571 712.411   2
  -5   1   1 1097.98 647.988   1
  -5   1   1 2014.29 830.365   8
   5  -1  -1 1826.76 705.826   4
  -5   1   0 4083.13 962.702   1
  -5   1   0 3868.34 897.291   3
   5  -1   0 1242.43 1113.28   2
   5  -1   0 5525.13 1082.82   5
  -5   1   0 2601.11 799.516   8
   5  -1   0 6853.70 1248.30   4
  -5   1  -1 5951.00 1039.11   3
   5  -1   1 1160.54 1114.75   2
   5  -1   1 7025.90 1269.07   5
  -5   1  -1 4194.95 977.021   1
  -5   1  -1 3018.59 876.654   8
   5  -1   1 5461.79 1040.19   4
   5  -1   2 11099.1 1566.32   5
  -5   1  -2 7116.24 1352.81   8
   5  -1   2 10449.5 1498.95   4
  -5   1  -2 9881.90 1434.24   3
  -5   1  -2 9349.98 1389.47   1
   5  -1   3 8059.07 1397.42   5
  -5   1  -3 6772.71 1273.15   1
  -5   1  -3 4710.24 1147.93   8
   5  -1   3 6769.17 1182.55   4
  -5   1  -4-704.723 922.814   8
  -5   0   2 1737.85 817.836   3
   5   0  -2 1234.79 488.811   5
   5   0  -2 61.4524 524.886   2
  -5   0   2 889.297 606.588   8
   5   0  -2 1457.15 749.144   4
  -5   0   1 8279.27 1342.22   3
  -5   0   1 9497.91 1419.72   1
   5   0  -1 10695.4 1493.20   5
  -5   0   1 7446.81 1340.53   8
   5   0  -1 9520.98 1305.51   4
  -5   0   0-396.014 458.398   3
   5   0   0-6.35458 401.756   2
   5   0   0 842.637 642.577   5
  -5   0   0 1452.59 690.223   8
   5   0   0 850.149 662.855   4
  -5   0   0 758.750 558.045   1
  -5   0  -1 3004.53 818.389   1
  -5   0  -1 3815.94 820.005   3
   5   0   1 1128.46 923.215   2
   5   0   1 2212.21 727.813   5
  -5   0  -1 1313.06 522.004   8
   5   0   1 2985.00 841.148   4
   5   0   2 11240.2 1546.27   5
  -5   0  -2 5743.45 1066.58   8
   5   0   2 10108.8 1458.03   4
   5   0   2 10758.3 1505.53   2
  -5   0  -2 9573.93 1344.86   1
  -5   0  -2 10936.4 1488.14   3
   5   0   3 20.4509 86.3301   2
  -5   0  -3 13.4461 90.7117   3
   5   0   3 18.4459 88.6258   5
  -5   0  -3 17.4667 65.7164   1
  -5   0  -3 18.7796 86.6978   8
  -5   0  -4 2259.16 894.101   1
  -5   0  -4 140.611 890.426   8
  -5  -1   2 465.920 413.347   3
   5   1  -2 2214.90 706.314   5
  -5  -1   2 1523.55 697.488   8
  -5  -1   1 2365.43 733.029   3
   5   1  -1 3096.32 860.776   5
   5   1  -1 393.389 666.707   2
  -5  -1   1 958.225 564.102   8
   5   1  -1 1536.96 529.635   4
  -5  -1   0 3411.96 831.747   1
  -5  -1   0 2561.79 746.549   3
   5   1   0 233.685 823.328   2
   5   1   0 3294.23 906.461   5
  -5  -1   0 2510.00 783.257   8
   5   1   0 3223.72 778.599   4
  -5  -1  -1 3962.43 915.184   3
   5   1   1 769.815 979.854   2
  -5  -1  -1 4544.42 944.466   1
   5   1   1 7524.47 1297.73   5
  -5  -1  -1 2705.25 847.133   8
   5   1   1 6404.05 1135.40   4
  -5  -1  -2 369.847 545.665   3
   5   1   2-330.438 667.626   2
   5   1   2-48.7368 654.819   5
  -5  -1  -2 974.154 504.973   1
  -5  -1  -2 975.260 661.758   8
   5   1   2 509.790 502.531   4
  -5  -1  -3 3951.11 1098.25   3
  -5  -1  -3 4608.68 964.086   1
  -5  -1  -3 3111.95 1077.96   8
   5   2  -2 2499.23 726.060   5
  -5  -2   2 998.560 640.022   8
   5   2  -1 414.521 531.209   5
  -5  -2   1-958.218 535.099   8
   5   2   0 674.402 556.369   5
  -5  -2   0-881.352 641.290   8
  -5  -2  -1 717.071 606.245   8
  -5  -2  -2 2179.37 735.338   8
  -5  -3   1 6438.94 1175.19   8
   0   0   0    0.00    0.00   0

TITL dimethyl_ether_phase_gamma_4_50GPa in P-1
REM P-1 (#2 in standard setting)
CELL 0.71073   4.339362   8.414284  12.820502  90.5463  93.8902  90.8325
ZERR    8.00   0.001157   0.002145   0.006263   0.0448   0.0573   0.0223
LATT  1
SFAC C H O
UNIT 16.00 48.00 8.00
TREF
HKLF 4
END
;
_shelx_hkl_checksum              77950
_olex2_submission_special_instructions 'No special instructions were received'
loop_
_space_group_symop_operation_xyz
'x, y, z'
'-x, -y, -z'
loop_
_atom_site_label
_atom_site_type_symbol
_atom_site_fract_x
_atom_site_fract_y
_atom_site_fract_z
_atom_site_U_iso_or_equiv
_atom_site_adp_type
_atom_site_occupancy
_atom_site_site_symmetry_order
_atom_site_calc_flag
_atom_site_refinement_flags_posn
_atom_site_refinement_flags_adp
_atom_site_refinement_flags_occupancy
_atom_site_disorder_assembly
_atom_site_disorder_group
O1 O 0.2353(9) 0.8266(5) -0.0051(11) 0.062(9) Uani 1 1 d . . . . .
C1 C -0.0287(9) 0.7298(5) -0.0134(10) 0.044(8) Uani 1 1 d . . . . .
H13 H -0.043845 0.676938 -0.080241 0.065 Uiso 1 1 calc R U . . .
H11 H -0.207859 0.793660 -0.006548 0.065 Uiso 1 1 calc R U . . .
H12 H -0.016169 0.652057 0.041042 0.065 Uiso 1 1 calc R U . . .
C2 C 0.2688(14) 0.9025(8) 0.0925(17) 0.065(14) Uani 1 1 d . . . . .
H23 H 0.450244 0.969563 0.095980 0.098 Uiso 1 1 calc R U . . .
H21 H 0.288592 0.824268 0.146477 0.098 Uiso 1 1 calc R U . . .
H22 H 0.090664 0.965959 0.102216 0.098 Uiso 1 1 calc R U . . .
O2 O 0.8338(5) 0.5159(3) 0.1951(6) 0.053(7) Uani 1 1 d . . . . .
C3 C 0.5369(8) 0.4961(6) 0.1440(10) 0.050(9) Uani 1 1 d . . . . .
H33 H 0.538992 0.409885 0.094456 0.075 Uiso 1 1 calc R U . . .
H31 H 0.480134 0.592040 0.108156 0.075 Uiso 1 1 calc R U . . .
H32 H 0.389909 0.472796 0.194624 0.075 Uiso 1 1 calc R U . . .
C4 C 0.8463(10) 0.6574(5) 0.2578(12) 0.061(11) Uani 1 1 d . . . . .
H42 H 0.788825 0.746478 0.214836 0.092 Uiso 1 1 calc R U . . .
H43 H 1.052462 0.673782 0.288411 0.092 Uiso 1 1 calc R U . . .
H41 H 0.705954 0.647051 0.312144 0.092 Uiso 1 1 calc R U . . .
O3 O 0.7072(5) 0.0121(3) 0.2903(6) 0.043(6) Uani 1 1 d . . . . .
C5 C 0.4487(9) -0.0198(6) 0.3482(11) 0.068(11) Uani 1 1 d . . . . .
H51 H 0.262856 -0.006975 0.304254 0.103 Uiso 1 1 calc R U . . .
H52 H 0.449390 0.052624 0.406528 0.103 Uiso 1 1 calc R U . . .
H53 H 0.457795 -0.126945 0.373262 0.103 Uiso 1 1 calc R U . . .
C6 C 0.6947(12) 0.1668(6) 0.2465(11) 0.056(11) Uani 1 1 d . . . . .
H62 H 0.513907 0.174374 0.199385 0.083 Uiso 1 1 calc R U . . .
H63 H 0.875650 0.185774 0.208993 0.083 Uiso 1 1 calc R U . . .
H61 H 0.686102 0.244659 0.301374 0.083 Uiso 1 1 calc R U . . .
O4 O 0.2707(5) 0.3082(3) 0.4954(7) 0.042(7) Uani 1 1 d . . . . .
C7 C 0.0047(8) 0.2104(5) 0.5040(10) 0.040(8) Uani 1 1 d . . . . .
H73 H 0.034023 0.144502 0.564476 0.060 Uiso 1 1 calc R U . . .
H71 H -0.027707 0.144552 0.442571 0.060 Uiso 1 1 calc R U . . .
H72 H -0.172111 0.276006 0.510812 0.060 Uiso 1 1 calc R U . . .
C8 C 0.2335(9) 0.4051(5) 0.4043(10) 0.050(10) Uani 1 1 d . . . . .
H81 H 0.047544 0.465073 0.406699 0.076 Uiso 1 1 calc R U . . .
H82 H 0.220763 0.338591 0.342861 0.076 Uiso 1 1 calc R U . . .
H83 H 0.407307 0.476676 0.402276 0.076 Uiso 1 1 calc R U . . .
loop_
_atom_site_aniso_label
_atom_site_aniso_U_11
_atom_site_aniso_U_22
_atom_site_aniso_U_33
_atom_site_aniso_U_23
_atom_site_aniso_U_13
_atom_site_aniso_U_12
O1 0.0247(17) 0.034(2) 0.13(3) 0.003(7) -0.004(4) -0.0098(18)
C1 0.0222(18) 0.030(2) 0.08(3) 0.002(6) -0.001(4) -0.0062(15)
C2 0.028(3) 0.033(3) 0.13(4) 0.029(10) 0.004(7) 0.000(3)
O2 0.0233(14) 0.0224(16) 0.11(2) 0.006(5) -0.014(3) 0.0011(10)
C3 0.0206(18) 0.030(2) 0.10(3) 0.007(6) -0.006(4) -0.0018(14)
C4 0.040(2) 0.030(3) 0.11(3) 0.004(8) -0.002(6) -0.0015(18)
O3 0.0262(14) 0.0219(15) 0.080(18) 0.010(4) 0.005(3) -0.0001(10)
C5 0.0226(19) 0.032(2) 0.15(3) 0.016(8) -0.005(5) -0.0008(16)
C6 0.047(3) 0.030(3) 0.09(3) 0.024(8) -0.009(5) -0.003(2)
O4 0.0239(14) 0.0280(17) 0.07(2) 0.014(5) 0.001(3) -0.0059(11)
C7 0.0251(19) 0.025(2) 0.07(3) 0.013(6) -0.009(4) -0.0064(15)
C8 0.038(2) 0.027(2) 0.08(3) 0.015(7) -0.008(5) -0.0053(17)
loop_
_atom_type_symbol
_atom_type_description
_atom_type_scat_dispersion_real
_atom_type_scat_dispersion_imag
_atom_type_scat_source
C C 0.0033 0.0016 'International Tables Vol C Tables 4.2.6.8 and 6.1.1.4'
H H 0.0000 0.0000 'International Tables Vol C Tables 4.2.6.8 and 6.1.1.4'
O O 0.0106 0.0060 'International Tables Vol C Tables 4.2.6.8 and 6.1.1.4'
loop_
_geom_angle_atom_site_label_1
_geom_angle_atom_site_label_2
_geom_angle_atom_site_label_3
_geom_angle
_geom_angle_site_symmetry_1
_geom_angle_site_symmetry_3
_geom_angle_publ_flag
C1 O1 C2 111.0(13) . . ?
O1 C1 H13 109.5 . . ?
O1 C1 H11 109.5 . . ?
O1 C1 H12 109.5 . . ?
H13 C1 H11 109.5 . . ?
H13 C1 H12 109.5 . . ?
H11 C1 H12 109.5 . . ?
O1 C2 H23 109.5 . . ?
O1 C2 H21 109.5 . . ?
O1 C2 H22 109.5 . . ?
H23 C2 H21 109.5 . . ?
H23 C2 H22 109.5 . . ?
H21 C2 H22 109.5 . . ?
C3 O2 C4 110.1(4) . . ?
O2 C3 H33 109.5 . . ?
O2 C3 H31 109.5 . . ?
O2 C3 H32 109.5 . . ?
H33 C3 H31 109.5 . . ?
H33 C3 H32 109.5 . . ?
H31 C3 H32 109.5 . . ?
O2 C4 H42 109.5 . . ?
O2 C4 H43 109.5 . . ?
O2 C4 H41 109.5 . . ?
H42 C4 H43 109.5 . . ?
H42 C4 H41 109.5 . . ?
H43 C4 H41 109.5 . . ?
C5 O3 C6 111.5(5) . . ?
O3 C5 H51 109.5 . . ?
O3 C5 H52 109.5 . . ?
O3 C5 H53 109.5 . . ?
H51 C5 H52 109.5 . . ?
H51 C5 H53 109.5 . . ?
H52 C5 H53 109.5 . . ?
O3 C6 H62 109.5 . . ?
O3 C6 H63 109.5 . . ?
O3 C6 H61 109.5 . . ?
H62 C6 H63 109.5 . . ?
H62 C6 H61 109.5 . . ?
H63 C6 H61 109.5 . . ?
C7 O4 C8 110.2(5) . . ?
O4 C7 H73 109.5 . . ?
O4 C7 H71 109.5 . . ?
O4 C7 H72 109.5 . . ?
H73 C7 H71 109.5 . . ?
H73 C7 H72 109.5 . . ?
H71 C7 H72 109.5 . . ?
O4 C8 H81 109.5 . . ?
O4 C8 H82 109.5 . . ?
O4 C8 H83 109.5 . . ?
H81 C8 H82 109.5 . . ?
H81 C8 H83 109.5 . . ?
H82 C8 H83 109.5 . . ?
loop_
_geom_bond_atom_site_label_1
_geom_bond_atom_site_label_2
_geom_bond_distance
_geom_bond_site_symmetry_2
_geom_bond_publ_flag
O1 C1 1.393(5) . ?
O1 C2 1.40(3) . ?
C1 H13 0.9600 . ?
C1 H11 0.9600 . ?
C1 H12 0.9600 . ?
C2 H23 0.9600 . ?
C2 H21 0.9600 . ?
C2 H22 0.9600 . ?
O2 C3 1.412(7) . ?
O2 C4 1.428(12) . ?
C3 H33 0.9600 . ?
C3 H31 0.9600 . ?
C3 H32 0.9600 . ?
C4 H42 0.9600 . ?
C4 H43 0.9600 . ?
C4 H41 0.9600 . ?
O3 C5 1.411(10) . ?
O3 C6 1.423(6) . ?
C5 H51 0.9600 . ?
C5 H52 0.9600 . ?
C5 H53 0.9600 . ?
C6 H62 0.9600 . ?
C6 H63 0.9600 . ?
C6 H61 0.9600 . ?
O4 C7 1.419(4) . ?
O4 C8 1.432(11) . ?
C7 H73 0.9600 . ?
C7 H71 0.9600 . ?
C7 H72 0.9600 . ?
C8 H81 0.9600 . ?
C8 H82 0.9600 . ?
C8 H83 0.9600 . ?
