#------------------------------------------------------------------------------
#$Date: 2024-02-05 14:10:53 +0200 (Mon, 05 Feb 2024) $
#$Revision: 289698 $
#$URL: file:///home/coder/svn-repositories/cod/cif/1/57/03/1570303.cif $
#------------------------------------------------------------------------------
#
# This file is available in the Crystallography Open Database (COD),
# http://www.crystallography.net/
#
# All data on this site have been placed in the public domain by the
# contributors.
#
data_1570303
loop_
_publ_author_name
'Chen, An'
'Cai, Peishan'
'Peng, Yayun'
'Guo, Minshan'
'Su, Yuan'
'Cai, Ting'
_publ_section_title
;
 The role of alkyl chain length in the melt and solution crystallization
 of paliperidone aliphatic prodrugs.
;
_journal_issue                   'Pt 1'
_journal_name_full               IUCrJ
_journal_page_first              23
_journal_page_last               33
_journal_paper_doi               10.1107/S2052252523009582
_journal_volume                  11
_journal_year                    2024
_chemical_formula_moiety         'C31 H41 F N4 O4'
_chemical_formula_sum            'C31 H41 F N4 O4'
_chemical_formula_weight         552.68
_space_group_crystal_system      monoclinic
_space_group_IT_number           14
_space_group_name_Hall           '-P 2ybc'
_space_group_name_H-M_alt        'P 1 21/c 1'
_atom_sites_solution_hydrogens   geom
_atom_sites_solution_primary     dual
_audit_creation_date             2020-09-16
_audit_creation_method
;
Olex2 1.2
(compiled 2018.05.29 svn.r3508 for OlexSys, GUI svn.r5506)
;
_cell_angle_alpha                90
_cell_angle_beta                 92.658(12)
_cell_angle_gamma                90
_cell_formula_units_Z            4
_cell_length_a                   26.953(11)
_cell_length_b                   10.080(4)
_cell_length_c                   10.753(4)
_cell_measurement_reflns_used    1672
_cell_measurement_temperature    170
_cell_measurement_theta_max      23.956
_cell_measurement_theta_min      2.269
_cell_volume                     2918(2)
_computing_cell_refinement       'SAINT V8.40A (?, 2016)'
_computing_data_reduction        'SAINT V8.40A (?, 2016)'
_computing_molecular_graphics    'Olex2 (Dolomanov et al., 2009)'
_computing_publication_material  'Olex2 (Dolomanov et al., 2009)'
_computing_structure_refinement  'ShelXL (Sheldrick, 2015)'
_computing_structure_solution    'ShelXT (Sheldrick, 2015)'
_diffrn_ambient_temperature      170.0
_diffrn_measured_fraction_theta_full 0.982
_diffrn_measured_fraction_theta_max 0.982
_diffrn_measurement_device_type  'D8 VENTURE'
_diffrn_measurement_method       '\f and \w scans'
_diffrn_radiation_type           MoK\a
_diffrn_radiation_wavelength     0.71073
_diffrn_reflns_av_R_equivalents  0.1263
_diffrn_reflns_av_unetI/netI     0.1517
_diffrn_reflns_Laue_measured_fraction_full 0.982
_diffrn_reflns_Laue_measured_fraction_max 0.982
_diffrn_reflns_limit_h_max       32
_diffrn_reflns_limit_h_min       -32
_diffrn_reflns_limit_k_max       11
_diffrn_reflns_limit_k_min       -11
_diffrn_reflns_limit_l_max       12
_diffrn_reflns_limit_l_min       -11
_diffrn_reflns_number            14664
_diffrn_reflns_point_group_measured_fraction_full 0.982
_diffrn_reflns_point_group_measured_fraction_max 0.982
_diffrn_reflns_theta_full        25.106
_diffrn_reflns_theta_max         25.106
_diffrn_reflns_theta_min         2.157
_diffrn_standards_number         0
_exptl_absorpt_coefficient_mu    0.088
_exptl_absorpt_correction_T_max  0.7452
_exptl_absorpt_correction_T_min  0.5242
_exptl_absorpt_correction_type   multi-scan
_exptl_absorpt_process_details
'SADABS-2016/2 (Bruker,2016/2) was used for absorption correction. wR2(int) was 0.1208 before and 0.0718 after correction. The Ratio of minimum to maximum transmission is 0.7034. The \l/2 correction factor is Not present.'
_exptl_crystal_colour            colourless
_exptl_crystal_colour_primary    colourless
_exptl_crystal_density_diffrn    1.258
_exptl_crystal_description       plate
_exptl_crystal_F_000             1184
_exptl_crystal_size_max          0.08
_exptl_crystal_size_mid          0.05
_exptl_crystal_size_min          0.03
_refine_diff_density_max         0.285
_refine_diff_density_min         -0.290
_refine_diff_density_rms         0.065
_refine_ls_extinction_method     none
_refine_ls_goodness_of_fit_ref   1.011
_refine_ls_hydrogen_treatment    constr
_refine_ls_matrix_type           full
_refine_ls_number_parameters     363
_refine_ls_number_reflns         5113
_refine_ls_number_restraints     0
_refine_ls_restrained_S_all      1.011
_refine_ls_R_factor_all          0.1921
_refine_ls_R_factor_gt           0.0827
_refine_ls_shift/su_max          0.000
_refine_ls_shift/su_mean         0.000
_refine_ls_structure_factor_coef Fsqd
_refine_ls_weighting_details
'w=1/[\s^2^(Fo^2^)+(0.1000P)^2^] where P=(Fo^2^+2Fc^2^)/3'
_refine_ls_weighting_scheme      calc
_refine_ls_wR_factor_gt          0.1807
_refine_ls_wR_factor_ref         0.2323
_reflns_Friedel_coverage         0.000
_reflns_number_gt                2336
_reflns_number_total             5113
_reflns_threshold_expression     'I > 2\s(I)'
_iucr_refine_instructions_details
;
TITL zz_a.res in P2(1)/c
    zz.res
    created by SHELXL-2018/3 at 16:10:35 on 16-Sep-2020
REM Old TITL ZZ in P2/c
REM SHELXT solution in P2(1)/c
REM R1 0.236, Rweak 0.041, Alpha 0.053, Orientation as input
REM Formula found by SHELXT: C32 N3 O5
CELL 0.71073 26.9527 10.0796 10.7533 90 92.658 90
ZERR 4 0.0108 0.0044 0.0042 0 0.012 0
LATT 1
SYMM -X,0.5+Y,0.5-Z
SFAC C H F N O
UNIT 124 164 4 16 16

L.S. 4 0 35
PLAN  20
SIZE 0.08 0.05 0.03
TEMP -103.15
BOND $H
list 4
fmap 2
ACTA
REM <olex2.extras>
REM <HklSrc "%.\\ZZ.hkl">
REM </olex2.extras>

WGHT    0.100000
FVAR       0.39496
O3    5    0.202184    0.369510    0.336075    11.00000    0.04031    0.04956 =
         0.03652   -0.00244    0.00403   -0.00027
O2    5    0.372245    0.555854    0.146780    11.00000    0.05397    0.04190 =
         0.02984    0.00590    0.00723   -0.00449
F1    3    0.855362    0.228527    0.104249    11.00000    0.05163    0.08382 =
         0.07875   -0.00132    0.01850    0.01311
O1    5    0.748078    0.489818    0.343716    11.00000    0.04461    0.05276 =
         0.04551   -0.00822    0.00052   -0.00163
O4    5    0.147559    0.201253    0.328904    11.00000    0.05287    0.06417 =
         0.05341   -0.00776    0.00584   -0.01709
N3    4    0.304983    0.437134    0.202626    11.00000    0.04066    0.03957 =
         0.02256    0.00315    0.00255    0.00159
N4    4    0.309068    0.293300    0.374448    11.00000    0.04340    0.04157 =
         0.02652    0.00127    0.00245   -0.00465
N2    4    0.519595    0.428035    0.266889    11.00000    0.03859    0.05385 =
         0.02280   -0.00074    0.00182    0.00190
N1    4    0.695053    0.484868    0.354191    11.00000    0.04714    0.05501 =
         0.04408   -0.00849    0.00506    0.00002
C15   1    0.381724    0.420173    0.326779    11.00000    0.04148    0.03809 =
         0.02307   -0.00218    0.00153    0.00270
C18   1    0.354504    0.476662    0.220131    11.00000    0.04400    0.03305 =
         0.02683   -0.00061    0.00652   -0.00163
C7    1    0.678647    0.389768    0.281020    11.00000    0.04460    0.03900 =
         0.03216    0.00201    0.00507    0.00355
C16   1    0.357516    0.331609    0.399160    11.00000    0.04038    0.04267 =
         0.02495    0.00108    0.00357   -0.00155
C19   1    0.285063    0.345497    0.279563    11.00000    0.04109    0.04285 =
         0.02561    0.00002    0.00147   -0.00190
C8    1    0.624654    0.360218    0.263617    11.00000    0.03633    0.04743 =
         0.02751   -0.00381    0.00380   -0.00067
AFIX  13
H8    2    0.621401    0.268380    0.229018    11.00000   -1.20000
AFIX   0
C4    1    0.718631    0.326606    0.218986    11.00000    0.03468    0.04337 =
         0.03086   -0.00011    0.00087   -0.00163
C10   1    0.542382    0.334622    0.356767    11.00000    0.04628    0.04545 =
         0.02497    0.00030    0.00821   -0.00168
AFIX  23
H10A  2    0.538883    0.243393    0.323395    11.00000   -1.20000
H10B  2    0.524534    0.338897    0.435085    11.00000   -1.20000
AFIX   0
C14   1    0.434882    0.459658    0.344330    11.00000    0.04370    0.04136 =
         0.02632   -0.00015    0.00109   -0.00596
AFIX  23
H14A  2    0.447655    0.431059    0.427879    11.00000   -1.20000
H14B  2    0.437434    0.557534    0.340361    11.00000   -1.20000
AFIX   0
C13   1    0.466899    0.398607    0.245705    11.00000    0.03955    0.05545 =
         0.02736   -0.00625    0.00450   -0.00497
AFIX  23
H13A  2    0.462189    0.301198    0.245300    11.00000   -1.20000
H13B  2    0.455627    0.432644    0.162777    11.00000   -1.20000
AFIX   0
C11   1    0.545102    0.421483    0.150156    11.00000    0.04834    0.06590 =
         0.02183    0.00229    0.00501    0.00162
AFIX  23
H11A  2    0.529451    0.484767    0.089842    11.00000   -1.20000
H11B  2    0.541469    0.331184    0.114679    11.00000   -1.20000
AFIX   0
C20   1    0.233088    0.296520    0.252357    11.00000    0.04013    0.04249 =
         0.03529   -0.00604    0.00731   -0.00011
AFIX  13
H20   2    0.231301    0.199512    0.271114    11.00000   -1.20000
AFIX   0
C9    1    0.596805    0.363893    0.384612    11.00000    0.04199    0.05033 =
         0.02489   -0.00193    0.00310    0.00032
AFIX  23
H9A   2    0.611035    0.297176    0.443673    11.00000   -1.20000
H9B   2    0.600513    0.452518    0.423626    11.00000   -1.20000
AFIX   0
C3    1    0.760465    0.394916    0.262342    11.00000    0.04571    0.04091 =
         0.03106    0.00539    0.00341    0.00709
C5    1    0.723170    0.222501    0.134688    11.00000    0.04683    0.04790 =
         0.03321    0.00454    0.00215   -0.00069
AFIX  43
H5    2    0.694728    0.175521    0.103192    11.00000   -1.20000
AFIX   0
C24   1    0.159493    0.309004    0.365831    11.00000    0.03819    0.05604 =
         0.03666    0.00394   -0.00129   -0.00597
C17   1    0.380852    0.265649    0.513519    11.00000    0.05331    0.04268 =
         0.03180    0.00743   -0.00085   -0.00432
AFIX 137
H17A  2    0.363134    0.292719    0.586917    11.00000   -1.50000
H17B  2    0.415764    0.292320    0.523869    11.00000   -1.50000
H17C  2    0.378808    0.169080    0.504023    11.00000   -1.50000
AFIX   0
C12   1    0.599814    0.454241    0.169256    11.00000    0.04068    0.05978 =
         0.02671    0.00292    0.00557    0.00437
AFIX  23
H12A  2    0.603621    0.546749    0.199126    11.00000   -1.20000
H12B  2    0.616154    0.446796    0.088977    11.00000   -1.20000
AFIX   0
C26   1    0.086520    0.326520    0.504346    11.00000    0.03988    0.06052 =
         0.04245    0.00518    0.00065    0.00004
AFIX  23
H26A  2    0.098324    0.244662    0.547130    11.00000   -1.20000
H26B  2    0.062680    0.300151    0.435983    11.00000   -1.20000
AFIX   0
C25   1    0.130224    0.395323    0.449509    11.00000    0.04408    0.06776 =
         0.04295    0.00147    0.00656    0.00526
AFIX  23
H25A  2    0.117951    0.473471    0.401545    11.00000   -1.20000
H25B  2    0.152655    0.427955    0.518344    11.00000   -1.20000
AFIX   0
C22   1    0.224060    0.466071    0.087030    11.00000    0.04685    0.07009 =
         0.03039   -0.00055   -0.00300    0.00764
AFIX  23
H22A  2    0.209398    0.485344    0.002852    11.00000   -1.20000
H22B  2    0.207836    0.524277    0.147186    11.00000   -1.20000
AFIX   0
C1    1    0.809911    0.262766    0.144140    11.00000    0.04125    0.06148 =
         0.04705    0.00574    0.01583    0.01016
C21   1    0.214871    0.321191    0.119634    11.00000    0.04439    0.06695 =
         0.03157   -0.00651   -0.00510   -0.00677
AFIX  23
H21A  2    0.178943    0.301125    0.109930    11.00000   -1.20000
H21B  2    0.232710    0.262670    0.062785    11.00000   -1.20000
AFIX   0
C6    1    0.769685    0.189787    0.098519    11.00000    0.05149    0.05419 =
         0.03576    0.00098    0.00954    0.00527
AFIX  43
H6    2    0.774203    0.118011    0.042916    11.00000   -1.20000
AFIX   0
C23   1    0.278830    0.494071    0.090481    11.00000    0.05312    0.05834 =
         0.02837    0.00378   -0.00399    0.00606
AFIX  23
H23A  2    0.293176    0.456424    0.015074    11.00000   -1.20000
H23B  2    0.284156    0.591236    0.089393    11.00000   -1.20000
AFIX   0
C2    1    0.808033    0.365076    0.226648    11.00000    0.04149    0.05544 =
         0.04852    0.00897    0.00129   -0.00052
AFIX  43
H2    2    0.836712    0.411795    0.257021    11.00000   -1.20000
AFIX   0
C28   1    0.019196    0.339301    0.660558    11.00000    0.04029    0.08188 =
         0.04031    0.00491    0.00585    0.00299
AFIX  23
H28A  2    0.034124    0.262674    0.706109    11.00000   -1.20000
H28B  2   -0.004863    0.304079    0.596466    11.00000   -1.20000
AFIX   0
C27   1    0.059768    0.412451    0.596253    11.00000    0.04720    0.06514 =
         0.04580    0.00494    0.00903    0.00530
AFIX  23
H27A  2    0.084278    0.446228    0.659991    11.00000   -1.20000
H27B  2    0.045049    0.489871    0.551514    11.00000   -1.20000
AFIX   0
C29   1   -0.008552    0.423339    0.750938    11.00000    0.05750    0.07395 =
         0.04766    0.00770    0.01540   -0.00171
AFIX  23
H29A  2    0.015646    0.462245    0.812704    11.00000   -1.20000
H29B  2   -0.025004    0.497379    0.704726    11.00000   -1.20000
AFIX   0
C30   1   -0.047087    0.347629    0.818927    11.00000    0.05984    0.09802 =
         0.05265    0.01286    0.01596    0.00811
AFIX  23
H30A  2   -0.030375    0.277937    0.870445    11.00000   -1.20000
H30B  2   -0.069880    0.303130    0.757291    11.00000   -1.20000
AFIX   0
C31   1   -0.077492    0.436013    0.902771    11.00000    0.08263    0.12673 =
         0.08442    0.00512    0.04140    0.00683
AFIX 137
H31A  2   -0.095681    0.502121    0.851754    11.00000   -1.50000
H31B  2   -0.055138    0.481184    0.963511    11.00000   -1.50000
H31C  2   -0.101106    0.381276    0.946688    11.00000   -1.50000
AFIX   0
HKLF 4




REM  zz_a.res in P2(1)/c
REM wR2 = 0.2323, GooF = S = 1.011, Restrained GooF = 1.011 for all data
REM R1 = 0.0827 for 2336 Fo > 4sig(Fo) and 0.1921 for all 5113 data
REM 363 parameters refined using 0 restraints

END  
     
WGHT      0.0996      0.0000 

REM Highest difference peak  0.285,  deepest hole -0.290,  1-sigma level  0.065
Q1    1  -0.1171  0.5083  0.7618  11.00000  0.05    0.28
Q2    1   0.3681  0.6758  0.1679  11.00000  0.05    0.27
Q3    1   0.2892  0.3510  0.0373  11.00000  0.05    0.25
Q4    1   0.3300  0.4713 -0.0545  11.00000  0.05    0.24
Q5    1   0.6108  0.5271  0.3861  11.00000  0.05    0.24
Q6    1   0.3871  0.2279  0.6370  11.00000  0.05    0.24
Q7    1   0.4609  0.1760  0.1992  11.00000  0.05    0.24
Q8    1   0.7804  0.2343  0.3816  11.00000  0.05    0.22
Q9    1   0.5708  0.3540  0.0301  11.00000  0.05    0.22
Q10   1   0.3694  0.4277  0.3839  11.00000  0.05    0.21
Q11   1   0.6195  0.1514  0.1490  11.00000  0.05    0.21
Q12   1   0.0777  0.5813  0.8179  11.00000  0.05    0.21
Q13   1   0.2589  0.4942  0.2363  11.00000  0.05    0.21
Q14   1   0.0987  0.1692  0.5447  11.00000  0.05    0.21
Q15   1   0.7481  0.1053  0.1050  11.00000  0.05    0.21
Q16   1   0.1510  0.5583  0.4964  11.00000  0.05    0.20
Q17   1   0.8192  0.2515  0.0013  11.00000  0.05    0.20
Q18   1   0.2402  0.6874  0.0501  11.00000  0.05    0.20
Q19   1   0.3530  0.2020  0.5553  11.00000  0.05    0.20
Q20   1   0.0751  0.1465  0.7543  11.00000  0.05    0.20

  REM The information below was added by Olex2.
  REM
  REM R1 = 0.0827 for 2336 Fo > 4sig(Fo) and 0.1921 for all 15309 data
  REM n/a parameters refined using n/a restraints
  REM Highest difference peak 0.28, deepest hole -0.29
  REM Mean Shift 0, Max Shift 0.000.

  REM +++ Tabular Listing of Refinement Information +++
  REM R1_all = 0.1921
  REM R1_gt = 0.0827
  REM wR_ref = 0.2323
  REM GOOF = 1.011
  REM Shift_max = 0.000
  REM Shift_mean = 0
  REM Reflections_all = 15309
  REM Reflections_gt = 2336
  REM Parameters = n/a
  REM Hole = -0.29
  REM Peak = 0.28
  REM Flack = n/a

  
;
_cod_data_source_file            lq5053.cif
_cod_data_source_block           PC8
_cod_depositor_comments
'Adding full bibliography for 1570302--1570305.cif.'
_cod_database_code               1570303
_shelx_shelxl_version_number     2018/3
_shelx_space_group_comment
;
The symmetry employed for this shelxl refinement is uniquely defined
by the following loop, which should always be used as a source of
symmetry information in preference to the above space-group names.
They are only intended as comments.
;
_shelx_estimated_absorpt_t_max   0.997
_shelx_estimated_absorpt_t_min   0.993
_olex2_refinement_description
;
1. Fixed Uiso
 At 1.2 times of:
  All C(H) groups, All C(H,H) groups
 At 1.5 times of:
  All C(H,H,H) groups
2.a Ternary CH refined with riding coordinates:
 C8(H8), C20(H20)
2.b Secondary CH2 refined with riding coordinates:
 C10(H10A,H10B), C14(H14A,H14B), C13(H13A,H13B), C11(H11A,H11B), C9(H9A,H9B),
 C12(H12A,H12B), C26(H26A,H26B), C25(H25A,H25B), C22(H22A,H22B), C21(H21A,H21B),
  C23(H23A,H23B), C28(H28A,H28B), C27(H27A,H27B), C29(H29A,H29B), C30(H30A,H30B)
2.c Aromatic/amide H refined with riding coordinates:
 C5(H5), C6(H6), C2(H2)
2.d Idealised Me refined as rotating group:
 C17(H17A,H17B,H17C), C31(H31A,H31B,H31C)
;
_olex2_submission_special_instructions 'No special instructions were received'
loop_
_space_group_symop_operation_xyz
'x, y, z'
'-x, y+1/2, -z+1/2'
'-x, -y, -z'
'x, -y-1/2, z-1/2'
loop_
_atom_site_label
_atom_site_type_symbol
_atom_site_fract_x
_atom_site_fract_y
_atom_site_fract_z
_atom_site_U_iso_or_equiv
_atom_site_adp_type
_atom_site_occupancy
_atom_site_site_symmetry_order
_atom_site_calc_flag
_atom_site_refinement_flags_posn
_atom_site_refinement_flags_adp
_atom_site_refinement_flags_occupancy
_atom_site_disorder_assembly
_atom_site_disorder_group
O3 O 0.20218(11) 0.3695(3) 0.3361(3) 0.0421(9) Uani 1 1 d . . . . .
O2 O 0.37225(11) 0.5559(3) 0.1468(3) 0.0417(9) Uani 1 1 d . . . . .
F1 F 0.85536(11) 0.2285(4) 0.1042(3) 0.0709(10) Uani 1 1 d . . . . .
O1 O 0.74808(11) 0.4898(4) 0.3437(3) 0.0477(10) Uani 1 1 d . . . . .
O4 O 0.14756(13) 0.2013(4) 0.3289(3) 0.0567(11) Uani 1 1 d . . . . .
N3 N 0.30498(13) 0.4371(4) 0.2026(3) 0.0342(10) Uani 1 1 d . . . . .
N4 N 0.30907(14) 0.2933(4) 0.3744(3) 0.0371(10) Uani 1 1 d . . . . .
N2 N 0.51960(13) 0.4280(4) 0.2669(3) 0.0384(11) Uani 1 1 d . . . . .
N1 N 0.69505(14) 0.4849(5) 0.3542(4) 0.0487(12) Uani 1 1 d . . . . .
C15 C 0.38172(16) 0.4202(5) 0.3268(4) 0.0342(12) Uani 1 1 d . . . . .
C18 C 0.35450(17) 0.4767(5) 0.2201(4) 0.0345(12) Uani 1 1 d . . . . .
C7 C 0.67865(17) 0.3898(5) 0.2810(4) 0.0385(12) Uani 1 1 d . . . . .
C16 C 0.35752(17) 0.3316(5) 0.3992(4) 0.0359(12) Uani 1 1 d . . . . .
C19 C 0.28506(16) 0.3455(5) 0.2796(4) 0.0365(12) Uani 1 1 d . . . . .
C8 C 0.62465(15) 0.3602(5) 0.2636(4) 0.0370(13) Uani 1 1 d . . . . .
H8 H 0.621401 0.268380 0.229018 0.044 Uiso 1 1 calc R . . . .
C4 C 0.71863(16) 0.3266(5) 0.2190(4) 0.0363(12) Uani 1 1 d . . . . .
C10 C 0.54238(16) 0.3346(5) 0.3568(4) 0.0387(13) Uani 1 1 d . . . . .
H10A H 0.538883 0.243393 0.323395 0.046 Uiso 1 1 calc R . . . .
H10B H 0.524534 0.338897 0.435085 0.046 Uiso 1 1 calc R . . . .
C14 C 0.43488(15) 0.4597(5) 0.3443(4) 0.0371(12) Uani 1 1 d . . . . .
H14A H 0.447655 0.431059 0.427879 0.045 Uiso 1 1 calc R . . . .
H14B H 0.437434 0.557534 0.340361 0.045 Uiso 1 1 calc R . . . .
C13 C 0.46690(16) 0.3986(5) 0.2457(4) 0.0407(13) Uani 1 1 d . . . . .
H13A H 0.462189 0.301198 0.245300 0.049 Uiso 1 1 calc R . . . .
H13B H 0.455627 0.432644 0.162777 0.049 Uiso 1 1 calc R . . . .
C11 C 0.54510(16) 0.4215(6) 0.1502(4) 0.0453(14) Uani 1 1 d . . . . .
H11A H 0.529451 0.484767 0.089842 0.054 Uiso 1 1 calc R . . . .
H11B H 0.541469 0.331184 0.114679 0.054 Uiso 1 1 calc R . . . .
C20 C 0.23309(16) 0.2965(5) 0.2524(4) 0.0391(13) Uani 1 1 d . . . . .
H20 H 0.231301 0.199512 0.271114 0.047 Uiso 1 1 calc R . . . .
C9 C 0.59680(16) 0.3639(5) 0.3846(4) 0.0390(13) Uani 1 1 d . . . . .
H9A H 0.611035 0.297176 0.443673 0.047 Uiso 1 1 calc R . . . .
H9B H 0.600513 0.452518 0.423626 0.047 Uiso 1 1 calc R . . . .
C3 C 0.76046(18) 0.3949(5) 0.2623(4) 0.0392(13) Uani 1 1 d . . . . .
C5 C 0.72317(18) 0.2225(5) 0.1347(4) 0.0426(13) Uani 1 1 d . . . . .
H5 H 0.694728 0.175521 0.103192 0.051 Uiso 1 1 calc R . . . .
C24 C 0.15949(18) 0.3090(6) 0.3658(4) 0.0437(14) Uani 1 1 d . . . . .
C17 C 0.38085(17) 0.2656(5) 0.5135(4) 0.0427(13) Uani 1 1 d . . . . .
H17A H 0.363134 0.292719 0.586917 0.064 Uiso 1 1 calc GR . . . .
H17B H 0.415764 0.292320 0.523869 0.064 Uiso 1 1 calc GR . . . .
H17C H 0.378808 0.169080 0.504023 0.064 Uiso 1 1 calc GR . . . .
C12 C 0.59981(15) 0.4542(5) 0.1693(4) 0.0423(14) Uani 1 1 d . . . . .
H12A H 0.603621 0.546749 0.199126 0.051 Uiso 1 1 calc R . . . .
H12B H 0.616154 0.446796 0.088977 0.051 Uiso 1 1 calc R . . . .
C26 C 0.08652(17) 0.3265(6) 0.5043(4) 0.0477(14) Uani 1 1 d . . . . .
H26A H 0.098324 0.244662 0.547130 0.057 Uiso 1 1 calc R . . . .
H26B H 0.062680 0.300151 0.435983 0.057 Uiso 1 1 calc R . . . .
C25 C 0.13022(17) 0.3953(6) 0.4495(5) 0.0515(15) Uani 1 1 d . . . . .
H25A H 0.117951 0.473471 0.401545 0.062 Uiso 1 1 calc R . . . .
H25B H 0.152655 0.427955 0.518344 0.062 Uiso 1 1 calc R . . . .
C22 C 0.22406(17) 0.4661(6) 0.0870(4) 0.0493(15) Uani 1 1 d . . . . .
H22A H 0.209398 0.485344 0.002852 0.059 Uiso 1 1 calc R . . . .
H22B H 0.207836 0.524277 0.147186 0.059 Uiso 1 1 calc R . . . .
C1 C 0.80991(19) 0.2628(6) 0.1441(5) 0.0495(15) Uani 1 1 d . . . . .
C21 C 0.21487(18) 0.3212(6) 0.1196(4) 0.0478(15) Uani 1 1 d . . . . .
H21A H 0.178943 0.301125 0.109930 0.057 Uiso 1 1 calc R . . . .
H21B H 0.232710 0.262670 0.062785 0.057 Uiso 1 1 calc R . . . .
C6 C 0.76968(19) 0.1898(6) 0.0985(4) 0.0469(14) Uani 1 1 d . . . . .
H6 H 0.774203 0.118011 0.042916 0.056 Uiso 1 1 calc R . . . .
C23 C 0.27883(17) 0.4941(6) 0.0905(4) 0.0468(14) Uani 1 1 d . . . . .
H23A H 0.293176 0.456424 0.015074 0.056 Uiso 1 1 calc R . . . .
H23B H 0.284156 0.591236 0.089393 0.056 Uiso 1 1 calc R . . . .
C2 C 0.80803(18) 0.3651(6) 0.2266(5) 0.0485(14) Uani 1 1 d . . . . .
H2 H 0.836712 0.411795 0.257021 0.058 Uiso 1 1 calc R . . . .
C28 C 0.01920(17) 0.3393(6) 0.6606(4) 0.0540(16) Uani 1 1 d . . . . .
H28A H 0.034124 0.262674 0.706109 0.065 Uiso 1 1 calc R . . . .
H28B H -0.004863 0.304079 0.596466 0.065 Uiso 1 1 calc R . . . .
C27 C 0.05977(18) 0.4125(6) 0.5963(5) 0.0525(15) Uani 1 1 d . . . . .
H27A H 0.084278 0.446228 0.659991 0.063 Uiso 1 1 calc R . . . .
H27B H 0.045049 0.489871 0.551514 0.063 Uiso 1 1 calc R . . . .
C29 C -0.00855(19) 0.4233(6) 0.7509(5) 0.0593(16) Uani 1 1 d . . . . .
H29A H 0.015646 0.462245 0.812704 0.071 Uiso 1 1 calc R . . . .
H29B H -0.025004 0.497379 0.704726 0.071 Uiso 1 1 calc R . . . .
C30 C -0.0471(2) 0.3476(7) 0.8189(5) 0.0698(19) Uani 1 1 d . . . . .
H30A H -0.030375 0.277937 0.870445 0.084 Uiso 1 1 calc R . . . .
H30B H -0.069880 0.303130 0.757291 0.084 Uiso 1 1 calc R . . . .
C31 C -0.0775(2) 0.4360(8) 0.9028(6) 0.097(3) Uani 1 1 d . . . . .
H31A H -0.095681 0.502121 0.851754 0.145 Uiso 1 1 calc GR . . . .
H31B H -0.055138 0.481184 0.963511 0.145 Uiso 1 1 calc GR . . . .
H31C H -0.101106 0.381276 0.946688 0.145 Uiso 1 1 calc GR . . . .
loop_
_atom_site_aniso_label
_atom_site_aniso_U_11
_atom_site_aniso_U_22
_atom_site_aniso_U_33
_atom_site_aniso_U_23
_atom_site_aniso_U_13
_atom_site_aniso_U_12
O3 0.040(2) 0.050(2) 0.0365(18) -0.0024(17) 0.0040(15) -0.0003(17)
O2 0.054(2) 0.042(2) 0.0298(17) 0.0059(17) 0.0072(15) -0.0045(17)
F1 0.0516(19) 0.084(3) 0.079(2) -0.001(2) 0.0185(17) 0.0131(18)
O1 0.045(2) 0.053(3) 0.046(2) -0.0082(19) 0.0005(16) -0.0016(18)
O4 0.053(2) 0.064(3) 0.053(2) -0.008(2) 0.0058(18) -0.017(2)
N3 0.041(2) 0.040(3) 0.0226(19) 0.0032(19) 0.0025(16) 0.002(2)
N4 0.043(3) 0.042(3) 0.027(2) 0.0013(19) 0.0024(18) -0.005(2)
N2 0.039(2) 0.054(3) 0.0228(19) -0.001(2) 0.0018(16) 0.002(2)
N1 0.047(3) 0.055(3) 0.044(3) -0.008(2) 0.005(2) 0.000(2)
C15 0.041(3) 0.038(3) 0.023(2) -0.002(2) 0.002(2) 0.003(2)
C18 0.044(3) 0.033(3) 0.027(2) -0.001(2) 0.007(2) -0.002(2)
C7 0.045(3) 0.039(3) 0.032(3) 0.002(2) 0.005(2) 0.004(3)
C16 0.040(3) 0.043(3) 0.025(2) 0.001(2) 0.004(2) -0.002(2)
C19 0.041(3) 0.043(3) 0.026(2) 0.000(2) 0.001(2) -0.002(2)
C8 0.036(3) 0.047(4) 0.028(2) -0.004(2) 0.004(2) -0.001(2)
C4 0.035(3) 0.043(3) 0.031(2) 0.000(2) 0.001(2) -0.002(2)
C10 0.046(3) 0.045(4) 0.025(2) 0.000(2) 0.008(2) -0.002(3)
C14 0.044(3) 0.041(3) 0.026(2) 0.000(2) 0.001(2) -0.006(2)
C13 0.040(3) 0.055(4) 0.027(2) -0.006(2) 0.004(2) -0.005(3)
C11 0.048(3) 0.066(4) 0.022(2) 0.002(3) 0.005(2) 0.002(3)
C20 0.040(3) 0.042(4) 0.035(3) -0.006(2) 0.007(2) 0.000(2)
C9 0.042(3) 0.050(4) 0.025(2) -0.002(2) 0.003(2) 0.000(2)
C3 0.046(3) 0.041(4) 0.031(3) 0.005(2) 0.003(2) 0.007(3)
C5 0.047(3) 0.048(4) 0.033(3) 0.005(3) 0.002(2) -0.001(3)
C24 0.038(3) 0.056(4) 0.037(3) 0.004(3) -0.001(2) -0.006(3)
C17 0.053(3) 0.043(4) 0.032(3) 0.007(2) -0.001(2) -0.004(3)
C12 0.041(3) 0.060(4) 0.027(2) 0.003(2) 0.006(2) 0.004(3)
C26 0.040(3) 0.061(4) 0.042(3) 0.005(3) 0.001(2) 0.000(3)
C25 0.044(3) 0.068(4) 0.043(3) 0.001(3) 0.007(2) 0.005(3)
C22 0.047(3) 0.070(5) 0.030(3) -0.001(3) -0.003(2) 0.008(3)
C1 0.041(3) 0.061(4) 0.047(3) 0.006(3) 0.016(3) 0.010(3)
C21 0.044(3) 0.067(4) 0.032(3) -0.007(3) -0.005(2) -0.007(3)
C6 0.051(3) 0.054(4) 0.036(3) 0.001(3) 0.010(2) 0.005(3)
C23 0.053(3) 0.058(4) 0.028(3) 0.004(3) -0.004(2) 0.006(3)
C2 0.041(3) 0.055(4) 0.049(3) 0.009(3) 0.001(2) -0.001(3)
C28 0.040(3) 0.082(5) 0.040(3) 0.005(3) 0.006(2) 0.003(3)
C27 0.047(3) 0.065(4) 0.046(3) 0.005(3) 0.009(2) 0.005(3)
C29 0.057(3) 0.074(5) 0.048(3) 0.008(3) 0.015(3) -0.002(3)
C30 0.060(4) 0.098(6) 0.053(3) 0.013(4) 0.016(3) 0.008(4)
C31 0.083(5) 0.127(7) 0.084(5) 0.005(5) 0.041(4) 0.007(5)
loop_
_atom_type_symbol
_atom_type_description
_atom_type_scat_dispersion_real
_atom_type_scat_dispersion_imag
_atom_type_scat_source
C C 0.0033 0.0016 'International Tables Vol C Tables 4.2.6.8 and 6.1.1.4'
H H 0.0000 0.0000 'International Tables Vol C Tables 4.2.6.8 and 6.1.1.4'
F F 0.0171 0.0103 'International Tables Vol C Tables 4.2.6.8 and 6.1.1.4'
N N 0.0061 0.0033 'International Tables Vol C Tables 4.2.6.8 and 6.1.1.4'
O O 0.0106 0.0060 'International Tables Vol C Tables 4.2.6.8 and 6.1.1.4'
loop_
_geom_angle_atom_site_label_1
_geom_angle_atom_site_label_2
_geom_angle_atom_site_label_3
_geom_angle
_geom_angle_site_symmetry_1
_geom_angle_site_symmetry_3
_geom_angle_publ_flag
C24 O3 C20 115.8(4) . . ?
C3 O1 N1 107.6(3) . . ?
C18 N3 C23 114.5(4) . . ?
C19 N3 C18 120.7(4) . . ?
C19 N3 C23 124.6(4) . . ?
C19 N4 C16 118.3(4) . . ?
C13 N2 C10 110.4(4) . . ?
C13 N2 C11 110.5(3) . . ?
C11 N2 C10 109.8(4) . . ?
C7 N1 O1 106.8(4) . . ?
C18 C15 C14 116.3(4) . . ?
C16 C15 C18 118.0(4) . . ?
C16 C15 C14 125.6(4) . . ?
O2 C18 N3 119.6(4) . . ?
O2 C18 C15 124.3(4) . . ?
N3 C18 C15 116.1(4) . . ?
N1 C7 C8 121.7(4) . . ?
N1 C7 C4 111.3(4) . . ?
C4 C7 C8 126.9(5) . . ?
N4 C16 C17 112.9(4) . . ?
C15 C16 N4 123.1(4) . . ?
C15 C16 C17 124.0(4) . . ?
N3 C19 C20 119.6(4) . . ?
N4 C19 N3 123.8(4) . . ?
N4 C19 C20 116.6(4) . . ?
C7 C8 H8 107.5 . . ?
C7 C8 C9 113.8(4) . . ?
C7 C8 C12 110.9(4) . . ?
C9 C8 H8 107.5 . . ?
C12 C8 H8 107.5 . . ?
C12 C8 C9 109.5(4) . . ?
C3 C4 C7 103.8(4) . . ?
C3 C4 C5 119.9(4) . . ?
C5 C4 C7 136.3(5) . . ?
N2 C10 H10A 109.2 . . ?
N2 C10 H10B 109.2 . . ?
N2 C10 C9 112.2(4) . . ?
H10A C10 H10B 107.9 . . ?
C9 C10 H10A 109.2 . . ?
C9 C10 H10B 109.2 . . ?
C15 C14 H14A 109.2 . . ?
C15 C14 H14B 109.2 . . ?
C15 C14 C13 112.0(4) . . ?
H14A C14 H14B 107.9 . . ?
C13 C14 H14A 109.2 . . ?
C13 C14 H14B 109.2 . . ?
N2 C13 C14 112.8(4) . . ?
N2 C13 H13A 109.0 . . ?
N2 C13 H13B 109.0 . . ?
C14 C13 H13A 109.0 . . ?
C14 C13 H13B 109.0 . . ?
H13A C13 H13B 107.8 . . ?
N2 C11 H11A 109.3 . . ?
N2 C11 H11B 109.3 . . ?
N2 C11 C12 111.6(4) . . ?
H11A C11 H11B 108.0 . . ?
C12 C11 H11A 109.3 . . ?
C12 C11 H11B 109.3 . . ?
O3 C20 C19 105.6(4) . . ?
O3 C20 H20 109.6 . . ?
O3 C20 C21 109.4(4) . . ?
C19 C20 H20 109.6 . . ?
C19 C20 C21 113.0(4) . . ?
C21 C20 H20 109.6 . . ?
C8 C9 H9A 109.7 . . ?
C8 C9 H9B 109.7 . . ?
C10 C9 C8 109.6(4) . . ?
C10 C9 H9A 109.7 . . ?
C10 C9 H9B 109.7 . . ?
H9A C9 H9B 108.2 . . ?
O1 C3 C4 110.4(4) . . ?
O1 C3 C2 126.3(5) . . ?
C4 C3 C2 123.2(5) . . ?
C4 C5 H5 120.8 . . ?
C6 C5 C4 118.3(5) . . ?
C6 C5 H5 120.8 . . ?
O3 C24 C25 110.9(5) . . ?
O4 C24 O3 123.3(5) . . ?
O4 C24 C25 125.8(5) . . ?
C16 C17 H17A 109.5 . . ?
C16 C17 H17B 109.5 . . ?
C16 C17 H17C 109.5 . . ?
H17A C17 H17B 109.5 . . ?
H17A C17 H17C 109.5 . . ?
H17B C17 H17C 109.5 . . ?
C8 C12 H12A 109.6 . . ?
C8 C12 H12B 109.6 . . ?
C11 C12 C8 110.5(4) . . ?
C11 C12 H12A 109.6 . . ?
C11 C12 H12B 109.6 . . ?
H12A C12 H12B 108.1 . . ?
H26A C26 H26B 107.7 . . ?
C25 C26 H26A 108.9 . . ?
C25 C26 H26B 108.9 . . ?
C25 C26 C27 113.2(5) . . ?
C27 C26 H26A 108.9 . . ?
C27 C26 H26B 108.9 . . ?
C24 C25 C26 114.1(5) . . ?
C24 C25 H25A 108.7 . . ?
C24 C25 H25B 108.7 . . ?
C26 C25 H25A 108.7 . . ?
C26 C25 H25B 108.7 . . ?
H25A C25 H25B 107.6 . . ?
H22A C22 H22B 108.1 . . ?
C21 C22 H22A 109.6 . . ?
C21 C22 H22B 109.6 . . ?
C23 C22 H22A 109.6 . . ?
C23 C22 H22B 109.6 . . ?
C23 C22 C21 110.1(4) . . ?
F1 C1 C6 117.1(5) . . ?
F1 C1 C2 117.3(5) . . ?
C2 C1 C6 125.6(5) . . ?
C20 C21 C22 109.0(4) . . ?
C20 C21 H21A 109.9 . . ?
C20 C21 H21B 109.9 . . ?
C22 C21 H21A 109.9 . . ?
C22 C21 H21B 109.9 . . ?
H21A C21 H21B 108.3 . . ?
C5 C6 C1 119.0(5) . . ?
C5 C6 H6 120.5 . . ?
C1 C6 H6 120.5 . . ?
N3 C23 C22 112.1(4) . . ?
N3 C23 H23A 109.2 . . ?
N3 C23 H23B 109.2 . . ?
C22 C23 H23A 109.2 . . ?
C22 C23 H23B 109.2 . . ?
H23A C23 H23B 107.9 . . ?
C3 C2 H2 123.0 . . ?
C1 C2 C3 114.0(5) . . ?
C1 C2 H2 123.0 . . ?
H28A C28 H28B 107.6 . . ?
C27 C28 H28A 108.7 . . ?
C27 C28 H28B 108.7 . . ?
C27 C28 C29 114.2(5) . . ?
C29 C28 H28A 108.7 . . ?
C29 C28 H28B 108.7 . . ?
C26 C27 H27A 108.9 . . ?
C26 C27 H27B 108.9 . . ?
C28 C27 C26 113.2(5) . . ?
C28 C27 H27A 108.9 . . ?
C28 C27 H27B 108.9 . . ?
H27A C27 H27B 107.7 . . ?
C28 C29 H29A 108.8 . . ?
C28 C29 H29B 108.8 . . ?
H29A C29 H29B 107.7 . . ?
C30 C29 C28 113.6(5) . . ?
C30 C29 H29A 108.8 . . ?
C30 C29 H29B 108.8 . . ?
C29 C30 H30A 109.0 . . ?
C29 C30 H30B 109.0 . . ?
C29 C30 C31 113.0(6) . . ?
H30A C30 H30B 107.8 . . ?
C31 C30 H30A 109.0 . . ?
C31 C30 H30B 109.0 . . ?
C30 C31 H31A 109.5 . . ?
C30 C31 H31B 109.5 . . ?
C30 C31 H31C 109.5 . . ?
H31A C31 H31B 109.5 . . ?
H31A C31 H31C 109.5 . . ?
H31B C31 H31C 109.5 . . ?
loop_
_geom_bond_atom_site_label_1
_geom_bond_atom_site_label_2
_geom_bond_distance
_geom_bond_site_symmetry_2
_geom_bond_publ_flag
O3 C20 1.454(5) . ?
O3 C24 1.354(6) . ?
O2 C18 1.234(5) . ?
F1 C1 1.361(5) . ?
O1 N1 1.440(5) . ?
O1 C3 1.349(6) . ?
O4 C24 1.195(6) . ?
N3 C18 1.397(6) . ?
N3 C19 1.366(6) . ?
N3 C23 1.484(6) . ?
N4 C16 1.376(6) . ?
N4 C19 1.294(5) . ?
N2 C10 1.464(6) . ?
N2 C13 1.458(6) . ?
N2 C11 1.460(5) . ?
N1 C7 1.304(6) . ?
C15 C18 1.449(6) . ?
C15 C16 1.369(6) . ?
C15 C14 1.491(6) . ?
C7 C8 1.489(6) . ?
C7 C4 1.442(6) . ?
C16 C17 1.509(6) . ?
C19 C20 1.501(6) . ?
C8 H8 1.0000 . ?
C8 C9 1.532(6) . ?
C8 C12 1.521(6) . ?
C4 C3 1.383(6) . ?
C4 C5 1.396(7) . ?
C10 H10A 0.9900 . ?
C10 H10B 0.9900 . ?
C10 C9 1.512(6) . ?
C14 H14A 0.9900 . ?
C14 H14B 0.9900 . ?
C14 C13 1.527(6) . ?
C13 H13A 0.9900 . ?
C13 H13B 0.9900 . ?
C11 H11A 0.9900 . ?
C11 H11B 0.9900 . ?
C11 C12 1.516(6) . ?
C20 H20 1.0000 . ?
C20 C21 1.508(6) . ?
C9 H9A 0.9900 . ?
C9 H9B 0.9900 . ?
C3 C2 1.388(6) . ?
C5 H5 0.9500 . ?
C5 C6 1.370(6) . ?
C24 C25 1.502(7) . ?
C17 H17A 0.9800 . ?
C17 H17B 0.9800 . ?
C17 H17C 0.9800 . ?
C12 H12A 0.9900 . ?
C12 H12B 0.9900 . ?
C26 H26A 0.9900 . ?
C26 H26B 0.9900 . ?
C26 C25 1.510(7) . ?
C26 C27 1.521(7) . ?
C25 H25A 0.9900 . ?
C25 H25B 0.9900 . ?
C22 H22A 0.9900 . ?
C22 H22B 0.9900 . ?
C22 C21 1.525(7) . ?
C22 C23 1.502(6) . ?
C1 C6 1.381(7) . ?
C1 C2 1.363(7) . ?
C21 H21A 0.9900 . ?
C21 H21B 0.9900 . ?
C6 H6 0.9500 . ?
C23 H23A 0.9900 . ?
C23 H23B 0.9900 . ?
C2 H2 0.9500 . ?
C28 H28A 0.9900 . ?
C28 H28B 0.9900 . ?
C28 C27 1.513(7) . ?
C28 C29 1.513(7) . ?
C27 H27A 0.9900 . ?
C27 H27B 0.9900 . ?
C29 H29A 0.9900 . ?
C29 H29B 0.9900 . ?
C29 C30 1.505(7) . ?
C30 H30A 0.9900 . ?
C30 H30B 0.9900 . ?
C30 C31 1.532(8) . ?
C31 H31A 0.9800 . ?
C31 H31B 0.9800 . ?
C31 H31C 0.9800 . ?
loop_
_refln_index_h
_refln_index_k
_refln_index_l
_refln_F_squared_meas
_refln_F_squared_sigma
0 0 3 2 4.5
0 0 4 1997 108.59
0 0 5 8.5 5.5
0 0 6 25 7.6
0 0 7 14.8 7.9
0 0 8 591.94 40.2
0 0 9 1.7 6
0 0 9 8.1 8.7
0 0 10 88.79 16.8
0 0 10 107.09 14.7
0 0 11 3.3 10.6
0 0 11 2.2 6.2
0 0 12 61.69 13
0 0 12 61.39 15.5
0 1 0 3 2.3
0 1 1 274.27 15.6
0 -1 -1 274.97 15.6
0 1 2 126.19 10.2
0 -1 -2 108.99 10.1
0 1 3 68.49 8.4
0 -1 -3 77.59 8.6
0 1 4 444.26 28.3
0 -1 -4 477.85 29.1
0 1 5 1.2 5.2
0 -1 -5 -0.2 6.1
0 -1 5 -0.1 5.8
0 1 6 12.4 6.8
0 -1 -6 3.1 6.9
0 -1 6 9.2 6.8
0 1 7 103.59 13.8
0 -1 7 147.09 18.7
0 -1 7 97.79 10.5
0 1 8 15.1 8.1
0 -1 8 24.6 9.4
0 -1 8 23.7 6.7
0 1 9 12.5 8.7
0 -1 9 -2.8 5.1
0 -1 9 11.7 9.6
0 1 10 1.3 7.8
0 1 10 1.7 7.2
0 -1 10 -7 7.9
0 -1 10 -5.6 4.5
0 1 11 15.7 9.9
0 1 11 12.7 9.2
0 -1 11 38.1 8.8
0 -1 11 34.3 12.9
0 1 12 13.3 9.4
0 1 12 2.2 8.3
0 -1 12 8.7 6.7
0 -1 12 12.2 10.6
0 2 0 20.5 6.5
0 -2 0 22.4 6.9
0 2 1 5765.72 317.97
0 -2 -1 6387.86 318.17
0 2 2 416.86 25
0 -2 -2 423.76 24.8
0 2 3 915.71 50.49
0 -2 -3 908.61 50.59
0 2 4 16.1 5.8
0 -2 -4 11.2 5.5
0 2 5 159.58 14.5
0 -2 -5 153.58 14.4
0 -2 5 156.58 10.4
0 2 6 6.4 6.1
0 -2 6 9.8 7.9
0 -2 6 7.4 3.5
0 -2 -6 11.8 7.1
0 2 7 128.19 15
0 -2 7 129.59 10.6
0 -2 -7 127.79 16.5
0 -2 7 143.29 17.5
0 2 8 149.49 17.4
0 -2 -8 149.69 19.6
0 -2 8 154.08 21.5
0 -2 8 168.98 12.8
0 2 9 85.89 15
0 -2 9 87.09 9.9
0 -2 9 102.89 17.6
0 2 10 14.2 8.6
0 2 10 27.9 10.6
0 -2 10 19 5.8
0 -2 10 20.4 12.3
0 2 11 8.3 8.5
0 2 11 -2.4 7.1
0 -2 11 7.6 4.7
0 -2 11 -3.8 9.2
0 2 12 23.9 11.1
0 2 12 32.6 14.8
0 -2 12 42.8 13.6
0 3 1 1680.03 95.79
0 -3 -1 1871.11 95.99
0 3 2 758.72 46.2
0 -3 -2 893.41 46.8
0 3 3 28.4 6.5
0 -3 -3 30.3 6.7
0 3 4 1.1 5.6
0 -3 -4 3.3 5.7
0 3 5 191.58 16
0 -3 -5 169.68 15.9
0 3 6 10.6 6.6
0 -3 -6 8.2 6.6
0 3 7 8.6 7.3
0 -3 -7 8.3 7.8
0 3 8 15.2 8.6
0 -3 -8 14.8 10.1
0 -3 8 0.9 9.5
0 3 9 118.89 17.3
0 -3 9 132.99 21.6
0 -3 -9 172.78 24.4
0 3 10 22.2 10.8
0 -3 10 35.8 13.5
0 3 11 -2.4 7.7
0 3 11 2.1 8.8
0 -3 11 -9.4 9.3
0 3 12 23.9 13.1
0 3 12 5.2 9.3
0 -3 12 16.9 13
0 -4 0 5.7 6.7
0 4 1 138.19 15.2
0 -4 -1 138.39 14.1
0 -4 1 140.49 15.7
0 4 2 427.66 29.2
0 -4 -2 460.95 29
0 4 -3 53.89 5.2
0 -4 -3 52.79 9.4
0 4 4 516.85 33
0 -4 -4 532.25 33.1
0 4 5 3.6 6.3
0 4 6 104.79 15
0 -4 -6 110.39 15.1
0 4 7 244.88 21.5
0 -4 -7 228.28 22
0 4 8 0.3 7.9
0 -4 -8 -6 8.4
0 4 9 58.29 12.7
0 -4 -9 53.09 15.8
0 -4 9 55.59 20.2
0 4 10 5 9.1
0 -4 10 7.1 11.9
0 -4 -10 5.5 12.4
0 4 11 17.2 13
0 4 11 8.4 9.1
0 -4 11 31.9 15.3
0 4 12 -8.8 8.8
0 4 12 5.6 10.6
0 -4 12 8.3 13
0 -5 0 292.47 24.6
0 -5 1 86.29 14.6
0 5 2 209.18 20
0 5 -3 24.1 4.6
0 5 3 47.4 9.8
0 -5 -3 3.8 7.9
0 5 4 4.5 6.8
0 -5 -4 8.5 7.2
0 5 5 65.69 16
0 -5 -5 104.29 14.5
0 5 6 3.6 8.4
0 -5 -6 10 8.8
0 5 7 261.47 24.7
0 -5 -7 279.67 25.2
0 5 8 25.7 10.8
0 -5 -8 15.8 10.9
0 5 9 3.2 9.5
0 -5 -9 -4.1 9.6
0 5 10 9.3 10.3
0 -5 10 3.9 12.2
0 -5 -10 9.7 13
0 5 11 -9 9.3
0 5 11 -8.6 11.2
0 -5 11 11.7 13.1
0 -6 0 20.1 11.9
0 -6 1 22.9 11.2
0 -6 -1 22.8 10
0 6 2 1.1 7.8
0 -6 -2 3.5 7.4
0 -6 2 5.1 10.3
0 6 -3 18 5
0 6 3 2.8 8.8
0 -6 -3 -4.7 7.7
0 6 4 96.29 14.9
0 6 -4 83.89 7.1
0 -6 -4 80.99 14
0 6 5 26.7 10.5
0 -6 -5 33 10.8
0 6 6 9.9 9.7
0 -6 -6 12.6 10.1
0 6 7 7.9 10.6
0 -6 -7 1.3 10.9
0 6 8 26.9 11.7
0 -6 -8 20.4 13
0 6 9 19.7 11.8
0 -6 -9 11.3 12.6
0 6 10 9.4 10.3
0 6 10 18.6 11.8
0 -6 10 2.7 12.6
0 -6 -10 26.2 15
0 6 11 -6.9 9.5
0 -6 11 17.5 15.7
0 -7 0 39.1 12.5
0 -7 -1 36.8 11.5
0 -7 1 68.99 15
0 7 2 36.7 12.2
0 7 -2 63.29 9.1
0 -7 2 36.8 15.2
0 -7 -2 21 10.9
0 7 -3 158.08 13.2
0 7 3 136.09 20.7
0 -7 3 163.18 25.2
0 -7 -3 132.99 18.5
0 7 4 -4.1 9.6
0 7 -4 5.3 4.3
0 -7 -4 -2.5 8.7
0 7 5 23.3 13
0 -7 -5 23.7 12.5
0 7 6 110.29 18.7
0 -7 -6 170.08 22.3
0 7 7 30.2 12.6
0 -7 -7 46.6 16.3
0 7 8 34.8 12.7
0 7 9 24.1 12.3
0 -7 -9 11.8 14.5
0 7 10 9.2 10.5
0 7 10 -5.1 14.7
0 -8 0 102.49 19.1
0 8 -1 45.6 10
0 -8 -1 51.29 14.2
0 -8 1 133.69 25.7
0 -8 2 -17.6 12.2
0 -8 -2 12.2 11
0 8 -3 61.69 9.7
0 8 3 57.59 16.1
0 -8 -3 41.7 13.2
0 -8 3 48.8 20
0 8 4 28.5 13.9
0 8 -4 32.6 6.9
0 -8 -4 10 11.6
0 8 5 19.5 12.1
0 -8 -5 14.8 12.4
0 8 6 3.7 10.8
0 -8 -6 0.6 13
0 8 7 19.9 11.6
0 -8 -7 27.1 16
0 8 8 4.5 11
0 -8 -8 23.4 16.4
0 8 9 -0.3 10.2
0 8 9 18.5 12.2
0 9 0 -0.2 7
0 -9 0 -7.2 16.1
0 9 -1 29.1 9
0 -9 1 24.9 17.9
0 -9 -1 18.3 14
0 9 -2 -1.6 6.1
0 -9 -2 10.7 10.6
0 -9 -3 15 11.4
0 9 -4 2.2 5.5
0 9 4 4 11.2
0 -9 -4 5.4 11.6
0 9 5 7.5 11.5
0 -9 -5 -6.1 11.7
0 9 6 2 11.1
0 -9 -6 6.7 13
0 9 7 10.2 12.5
0 -9 -7 12.4 13.9
0 9 8 -5.1 9.4
0 9 8 -7.6 10.1
0 10 0 -5.5 7
0 10 -1 11.3 8.5
0 10 1 -11.7 6.6
0 10 -2 -3.3 7
0 10 -3 4.7 7.9
0 10 -4 -0.7 6.3
0 10 6 36.8 12.7
0 10 7 -1.1 10.9
0 10 7 19 11.9
0 11 0 8.3 8.3
0 11 1 12.3 10
0 11 -1 -0.7 7.6
0 11 -2 4.1 8.6
0 11 2 3.8 10.8
0 11 -3 -11.1 6.7
0 11 3 -18.2 9.1
0 11 -4 -10 4.6
0 11 4 20.5 11
0 11 5 10.6 10.3
-1 0 12 11.9 9.9
-1 0 12 -1.3 6.4
-1 0 11 -4.5 5.7
-1 0 11 -6.5 7
-1 0 10 101.19 15.4
-1 0 10 96.79 17
-1 0 9 -4.4 7.4
-1 0 9 1.1 5.8
-1 0 8 192.28 19.5
-1 0 8 213.88 20.3
-1 0 7 0.6 4.3
-1 0 7 -1 5.4
-1 0 6 27 8
-1 0 5 -0.7 5.6
-1 0 4 92.39 11.4
-1 0 3 -4.2 4.1
-1 0 2 439.76 25.6
-1 0 1 -0.2 1.4
1 0 -1 1 1.7
1 0 1 1.2 1.6
-1 0 -1 -0.1 1.9
-1 0 -2 2172.28 119.09
1 0 2 2299.77 119.09
-1 0 -3 -3 5.2
1 0 3 4.8 4.6
1 0 4 157.88 13.7
1 0 5 7.4 6.1
1 0 6 141.99 25.9
1 0 7 8.5 6.5
1 0 8 4.1 7.4
1 0 9 -7.5 7.3
1 0 10 28.9 11.1
1 0 10 10.2 7.5
1 0 11 -0.3 9.3
1 0 11 -4.7 5
1 0 12 -9.2 6.7
1 0 12 0.6 6.5
-1 1 12 7.7 9.1
-1 1 12 14 10.1
-1 -1 12 0.2 6.2
-1 -1 12 5.3 10.3
-1 1 11 15.1 9.7
-1 1 11 12.5 7.6
-1 -1 11 1.2 5.6
-1 -1 11 15.4 16.3
-1 1 10 9.8 8.1
-1 1 10 8.2 6.9
-1 -1 10 0.1 8.2
-1 -1 10 2.1 5.3
-1 1 9 33.7 10.5
-1 1 9 5.1 7.2
-1 -1 9 11.8 6.4
-1 -1 9 31.7 11.9
-1 1 8 7.2 7.4
-1 -1 8 13.6 5.9
-1 -1 8 13.8 8.8
-1 1 7 21.5 7.8
-1 -1 7 25.5 6.1
-1 -1 7 36.1 10.1
-1 1 6 477.65 30.8
-1 -1 6 467.45 28.6
-1 -1 6 462.85 35
-1 1 5 -3 5
-1 -1 5 -0.6 6.2
1 -1 -5 -2.1 6.3
-1 -1 5 2.8 3.9
-1 1 4 -1 4
1 -1 -4 2.7 4.8
-1 -1 4 -1.7 2.9
-1 1 3 561.74 32.2
1 -1 -3 574.84 32.5
-1 -1 3 544.35 30.7
-1 1 2 68.19 7.5
1 -1 -2 72.79 7.6
-1 -1 2 60.29 4.8
-1 1 1 62.09 4.8
1 -1 -1 65.79 4.9
1 1 0 100.49 7.6
-1 1 0 97.59 6.7
-1 -1 0 113.69 7.7
-1 1 -1 273.37 13.8
1 1 1 245.28 14.9
1 -1 1 250.57 13.8
-1 -1 -1 247.28 15
1 1 2 1212.48 64.79
-1 -1 -2 1181.38 64.69
1 1 3 1079.49 58.19
-1 -1 -3 1025.8 58.29
1 1 4 77.29 9.9
-1 -1 -4 50.29 8.5
1 -1 4 53.59 9.7
1 1 5 0.5 5.7
1 -1 5 5.6 6.9
-1 -1 -5 11.3 7.2
1 1 6 6 6.2
1 -1 6 0.6 5.7
-1 -1 -6 12.9 7.7
1 1 7 3.6 6.2
1 -1 7 13.4 7.5
1 1 8 65.99 13
1 -1 8 86.89 15.5
1 1 9 142.09 18
1 -1 9 104.79 13.1
1 -1 9 153.48 21.8
1 1 10 23.2 9.8
1 -1 10 20.5 7.4
1 -1 10 25.7 11.5
1 1 11 17.4 9.8
1 1 11 16.6 11
1 -1 11 16.1 7
1 -1 11 19.9 11.5
1 1 12 -5.1 6.6
1 1 12 -1.9 8.6
1 -1 12 -8.4 5.4
1 -1 12 1 9.3
-1 2 12 63.79 19.8
-1 2 12 45.5 12.8
-1 -2 12 37.2 13.5
-1 2 11 -0.6 8.5
-1 2 11 8.2 8.7
-1 -2 11 13.4 5.5
-1 -2 11 13.5 11
-1 2 10 132.89 17.7
-1 2 10 115.79 17.3
-1 -2 10 82.59 10.4
-1 -2 10 121.69 20.5
-1 2 9 124.19 15.2
-1 2 9 81.39 14.5
-1 -2 9 74.09 9.4
-1 -2 9 106.59 18.8
-1 2 8 38.1 10
-1 -2 8 43.5 6.7
-1 -2 8 52.99 13.5
-1 2 7 199.68 17.9
-1 -2 7 199.18 20.7
1 -2 -7 220.48 20.3
-1 -2 7 203.18 14.2
-1 2 6 598.24 36.2
-1 -2 6 573.74 32.7
1 -2 -6 566.24 39.7
-1 2 5 48.3 8.8
1 -2 -5 65.09 9.9
-1 -2 5 55.59 5.5
-1 2 4 4.3 4.6
1 -2 -4 -6.2 3.9
-1 2 3 0 3.4
1 -2 -3 -2.5 3.5
-1 2 2 8111.49 423.56
-1 2 1 2888.81 159.28
1 -2 -1 3158.48 159.28
1 2 0 1220.08 66.39
-1 -2 0 1250.67 66.19
1 -2 0 1163.88 65.69
1 2 1 6117.69 327.67
-1 2 -1 6009.6 326.67
-1 -2 -1 6652.43 327.97
1 2 2 1825.52 101.39
-1 -2 -2 1975.2 101.59
1 2 3 187.48 13.7
-1 -2 -3 176.58 13.6
1 2 4 615.44 36.8
-1 -2 -4 625.24 37.2
1 2 5 20.3 7.3
-1 -2 -5 22 7.8
1 2 6 -2.4 5.6
1 -2 6 -4.4 6.3
-1 -2 -6 -6.5 5.3
1 2 7 10.9 7.1
-1 -2 -7 -5.1 6.4
1 -2 7 8.6 8
1 -2 7 -3 3.5
1 2 8 105.69 15.7
1 -2 8 99.29 10
-1 -2 -8 135.49 19.9
1 -2 8 104.29 17.6
1 2 9 16.5 9.8
1 -2 9 -3 9.3
1 -2 9 15.1 5.3
1 2 10 -7.2 7
1 -2 10 -1.4 9.5
1 -2 10 0.3 4.3
1 2 11 4.3 9.6
1 2 11 5.1 9.3
1 -2 11 4 4.6
1 -2 11 14.4 11.3
1 2 12 -10.7 7.5
1 2 12 -2 6.8
1 -2 12 -3.9 10.2
-1 3 12 -6.9 7.8
-1 3 12 12.3 9.4
-1 -3 12 -14.8 8.8
-1 3 11 21.5 10
-1 3 11 1.8 8.8
-1 -3 11 -4.4 9.5
-1 3 10 -5.1 7.3
-1 3 10 4.7 8.1
-1 -3 10 -5.8 9.9
-1 3 9 93.79 14.9
-1 -3 9 77.19 17.6
-1 3 8 79.59 13.2
1 -3 -8 94.49 16.7
-1 -3 8 77.49 15.7
-1 3 7 19.8 8.6
1 -3 -7 32.2 9.7
-1 3 6 5.3 5.8
1 -3 -6 4.9 5.8
-1 3 5 387.06 25.1
1 -3 -5 370.66 25.4
-1 3 4 49.3 8.3
1 -3 -4 21.9 6.4
-1 3 3 63.29 8.7
1 -3 -3 65.19 8.7
-1 3 2 90.89 9.9
1 -3 -2 98.69 9.9
-1 3 1 136.39 12.7
-1 -3 1 105.19 13.3
1 -3 -1 136.09 11.9
1 3 0 45.9 8.9
-1 -3 0 46.4 8.3
1 -3 0 31.7 7.5
1 3 1 12.5 6.6
-1 -3 -1 9.4 5.6
1 3 2 98.09 10.8
-1 3 -2 103.49 7.5
-1 -3 -2 111.79 11.2
1 3 3 1221.48 69.99
-1 -3 -3 1319.27 70.29
1 3 4 224.78 17.9
-1 -3 -4 245.28 18.3
1 3 5 359.06 23.8
-1 -3 -5 303.57 25.8
1 3 6 5.3 8
-1 -3 -6 6.3 6.4
1 3 7 11.8 7.6
1 -3 7 1.5 8.2
-1 -3 -7 10.5 7.5
1 3 8 116.29 16.9
1 -3 8 135.99 20.8
-1 -3 -8 134.39 20.1
1 3 9 9 8.2
-1 -3 -9 -5.6 10.5
1 -3 9 -8.5 8.4
1 3 10 42.6 12
1 -3 10 35.3 14.7
1 3 11 -1.9 6.6
1 3 11 -5.6 8.2
1 -3 11 11.6 12.2
1 3 12 -3.6 8.8
1 3 12 -0.6 10
1 -3 12 0.2 11.1
-1 4 12 5.2 9.2
-1 4 12 -0.4 10.4
-1 -4 12 2.6 10.7
-1 4 11 18.5 10.8
-1 4 11 49 13.9
-1 -4 11 53.69 16.1
-1 4 10 18.3 10
-1 4 10 26.7 11.7
-1 -4 10 7 11.1
-1 4 9 131.59 17.8
-1 -4 9 119.49 22.5
1 -4 -9 159.98 22.8
-1 4 8 48.7 11.4
1 -4 -8 48.4 12.8
-1 4 7 151.88 16.7
1 -4 -7 123.19 16.4
-1 4 6 -0.3 6.8
1 -4 -6 9.8 7.3
-1 4 5 287.07 21.9
1 -4 -5 309.67 24.5
-1 4 4 18 6.9
1 -4 -4 17.8 7.3
1 -4 -3 45.3 8.4
-1 4 2 1.3 6.3
1 -4 -2 -0.3 6.2
-1 4 1 44.4 9.4
1 -4 -1 47.8 9.5
-1 -4 1 55.19 10.6
-1 -4 0 -6.7 6.2
1 -4 0 0.1 6.4
1 4 1 266.07 21
-1 -4 -1 244.38 19.3
1 4 2 179.88 17.4
-1 4 -2 212.08 13.7
-1 -4 -2 200.88 17.2
1 4 3 227.68 17.5
-1 4 -3 196.78 11.9
-1 -4 -3 169.08 16.6
1 4 4 9.2 6.5
1 4 5 22.9 8.4
-1 -4 -5 20.3 7.9
1 4 6 201.58 19.2
-1 -4 -6 214.08 19.6
1 4 7 56.79 12.3
-1 -4 -7 57.19 12.6
1 4 8 4.8 8.7
1 -4 8 8.4 11.6
-1 -4 -8 5.3 8.9
1 4 9 60.99 13.3
-1 -4 -9 50.59 15.4
1 4 10 9.2 9.9
-1 -4 -10 5.5 12.7
1 -4 10 21.7 13.5
1 4 11 -9.7 8.6
1 -4 11 -13.2 9.3
1 4 12 11.1 13.1
1 4 12 1.7 8.9
1 -4 12 7.8 13.5
-1 5 11 11.7 10.2
-1 5 11 6.7 13.6
-1 -5 11 -12.5 10.4
-1 5 10 51.79 13.5
-1 5 10 58.39 16.8
-1 -5 10 32.1 14
1 -5 -10 80.19 19.8
-1 5 9 6.5 9.3
1 -5 -9 14.2 11.8
-1 5 8 46 12
1 -5 -8 36.2 11.9
-1 5 7 239.88 21.9
1 -5 -7 185.48 21.5
-1 5 6 60.79 11.6
1 -5 -6 40.3 10.5
-1 5 5 69.49 12.2
1 -5 -5 68.89 12.3
-1 5 4 342.47 24.5
1 -5 -4 320.87 25.3
-1 5 3 23.3 8.7
1 -5 -3 -1.3 7
-1 5 2 23.1 8.8
1 -5 -2 9 7.9
-1 -5 2 18 10.1
-1 -5 1 268.37 23.7
1 -5 0 223.28 24.6
-1 5 -2 32.9 6.2
1 5 2 30.2 10.2
-1 -5 -2 31.5 8.9
1 5 3 92.39 13
-1 5 -3 78.69 7.7
-1 -5 -3 90.49 13.3
1 5 4 287.97 31
-1 -5 -4 327.87 24.4
1 5 5 162.88 18.2
-1 -5 -5 175.18 18.6
1 5 6 115.09 15.9
-1 -5 -6 87.19 15.6
1 5 7 572.64 39.2
-1 -5 -7 526.65 40.1
1 5 8 -4.3 8.7
-1 -5 -8 0.4 9.5
1 5 9 17.8 11.5
1 -5 9 27 13.8
-1 -5 -9 40.2 18.6
1 5 10 13.1 10.9
-1 -5 -10 13.6 12.6
1 -5 10 1.7 10.7
1 -5 11 15.9 14.2
-1 6 11 -4.9 9
-1 6 11 15.7 10.5
-1 -6 11 8.7 12.5
-1 6 10 35.9 12.6
-1 6 10 -3.1 10.1
1 -6 -10 39 16.3
-1 6 9 22 11
-1 6 9 19.8 11.3
1 -6 -9 38.2 13.5
-1 6 8 57.19 13.9
1 -6 -8 70.99 15.7
-1 6 7 -8.6 9
1 -6 -7 -1.8 10.3
-1 6 6 11.8 9.8
1 -6 -6 -4.8 9.1
-1 6 5 -0.5 7.8
1 -6 -5 -0.6 7.8
1 6 -4 50.29 5.9
-1 6 4 57.39 12.1
1 -6 -4 51.19 11.5
1 6 -3 23.8 5.4
1 -6 -3 28.7 9.5
-1 -6 3 32.7 12.4
-1 -6 2 5.7 9.1
1 -6 -2 8.9 8.3
1 -6 -1 135.29 17.1
-1 -6 1 128.89 19.3
1 -6 0 4.6 9.2
-1 -6 0 26.2 11.3
-1 6 -1 18.5 5.6
1 6 1 5.7 8.5
1 -6 1 4.9 9
-1 -6 -1 6.1 8.8
1 6 2 145.69 18.9
-1 6 -2 174.28 13.6
-1 -6 -2 118.89 16
1 -6 2 211.28 21.4
1 6 3 27.2 10.3
-1 6 -3 45.5 6.5
-1 -6 -3 19.5 9.9
1 6 4 23.8 10
-1 6 -4 17.9 3.6
-1 -6 -4 14.6 9.3
1 6 5 1.3 8.7
-1 -6 -5 6.3 9.1
1 6 6 257.67 25.2
-1 -6 -6 248.88 25.9
1 6 7 61.69 14.9
-1 -6 -7 47.4 15.2
1 6 8 57.79 14.6
-1 -6 -8 62.69 16.2
1 6 9 4.4 10.3
1 6 10 4.8 9.8
1 -6 10 17.4 13.5
1 6 11 5.3 11.7
1 6 11 7.6 10.4
1 -6 11 17.3 13.6
-1 7 10 -2.1 9.6
-1 7 10 -9.8 13
1 -7 -10 -5.8 13.7
-1 7 9 10 11.6
-1 7 9 12.9 10.9
1 -7 -9 8.5 11.7
-1 7 8 -6.7 8.1
1 -7 -8 2.8 12.2
-1 7 7 11.6 10.8
1 -7 -7 36.1 14.7
-1 7 6 9.7 11.2
1 -7 -6 22.1 12.7
-1 7 5 -15.7 9.1
1 -7 -5 -6.6 9.7
1 7 -4 1.5 4.2
-1 7 4 -7.1 8.5
1 -7 -4 4.5 9.1
-1 -7 4 -18.2 10.5
-1 7 3 32 11.4
1 7 -3 50.29 7.6
1 -7 -3 33.4 11.2
-1 -7 3 25.6 14.4
1 -7 -2 42 11.3
-1 -7 2 69.49 16.4
1 -7 -1 75.99 14.9
-1 -7 1 133.19 20.6
-1 -7 0 174.78 22.1
1 -7 0 170.58 23.6
-1 7 -1 188.78 18.4
-1 -7 -1 161.78 20.2
1 7 2 21.9 11.2
-1 7 -2 29.6 7.2
-1 -7 -2 -9.4 8.3
1 -7 2 -6.8 12.5
1 7 3 29 11.8
-1 7 -3 16.4 6.1
-1 -7 -3 34.4 11.7
1 -7 3 2 11.8
-1 7 -4 20.5 5.1
1 7 4 24.6 11.7
-1 -7 -4 12.4 10.6
1 7 5 85.79 16.4
-1 -7 -5 72.19 15.6
1 7 6 89.79 17.5
-1 -7 -6 105.99 18.6
1 7 7 8.4 11.2
-1 -7 -7 18.9 13.9
1 7 8 96.69 18.6
-1 -7 -8 106.89 22.4
1 7 9 42.2 15.1
-1 -7 -9 20.8 15.3
1 -7 10 -4.3 12.7
-1 8 9 4 10.3
-1 8 9 9.8 10.8
1 -8 -9 -2.4 13.9
-1 8 8 26.4 12.7
-1 8 8 23.3 13.4
1 -8 -8 3 14.4
-1 8 7 33.5 12.7
-1 8 6 -17.3 9.9
1 -8 -6 -1.9 11.5
-1 8 5 51.89 15.2
1 -8 -5 39.3 13.7
1 8 -4 24.6 6.4
-1 8 4 20.7 11.9
1 -8 -4 5.3 10.9
1 8 -3 37.7 8.3
1 -8 -3 10.2 11
-1 -8 3 21.3 18.2
1 8 -2 2.7 8
-1 -8 2 -8 14.8
1 -8 -2 -11.4 9.2
1 -8 -1 38.4 12.9
-1 -8 0 81.29 17.3
1 -8 0 48.7 16.3
-1 8 -1 -1.3 5.9
1 -8 1 49 16
-1 -8 -1 13.4 12.3
-1 -8 -2 46.1 13.8
1 -8 2 83.89 22.1
1 8 3 -0.8 10.7
-1 8 -3 5.1 5.7
-1 -8 -3 11.1 11.1
1 -8 3 5 15.6
-1 8 -4 7.9 5.2
1 8 4 35 13.4
-1 -8 -4 2.3 9.9
1 8 5 6.1 12.5
-1 -8 -5 10.2 12.6
1 8 6 5.7 11.8
-1 -8 -6 16.3 13.4
1 8 7 -9.6 10.6
-1 -8 -7 7.2 14.3
1 8 8 -6 9.8
-1 -8 -8 -4.9 14.1
-1 9 8 19.5 12.3
-1 9 8 19.8 13.1
-1 9 7 -0.3 10.1
-1 9 7 1.8 11
1 -9 -7 5.5 13.3
-1 9 6 -15.3 7.2
-1 9 6 -9.7 9.2
1 -9 -6 16.2 13.2
-1 9 5 19.5 13.1
1 -9 -5 -10.4 11.1
1 9 -4 20.9 7.1
1 -9 -4 0.1 11.3
1 -9 -3 14 14.8
1 9 -2 1.8 6.7
-1 9 2 3.4 6.6
1 -9 -2 3.1 11.4
-1 9 1 22.6 9.6
-1 -9 1 3.9 16.2
1 -9 -1 29.2 14.3
-1 9 0 26.2 9
1 -9 0 -14.8 14.6
-1 -9 0 -3.2 15.7
-1 9 -1 38.5 9.8
1 -9 1 -10.2 17.3
-1 -9 -1 -4.1 13
-1 9 -2 19.4 8.2
-1 -9 -2 21.9 12.7
-1 -9 -3 2.5 11.8
-1 9 -4 9 6.2
1 9 4 11.4 12.8
-1 -9 -4 13.4 12
1 9 5 10.4 12.1
-1 -9 -5 10.1 12.3
1 9 6 13.7 12.3
-1 -9 -6 19.7 14.1
1 9 7 17.7 13.9
1 9 8 -2.6 11.1
-1 10 7 23.5 13.4
-1 10 6 -2.2 11
-1 10 6 27.5 11.5
-1 10 5 -2.9 11.4
-1 10 4 9.4 12.5
1 10 -4 4.5 7.1
1 -10 -4 26.8 15.2
1 10 -3 14.9 8.5
1 -10 -3 5.5 12.6
1 10 -2 9.1 8.6
-1 10 1 -15.9 6
1 10 -1 7.7 7.6
-1 10 0 21.2 9.3
1 10 0 7 8.1
-1 10 -1 28.2 10.3
-1 10 -2 9.5 8.7
-1 10 -3 24.5 9.5
-1 10 -4 1.7 6.1
1 10 6 13.4 12.4
1 10 7 -6.7 11.4
-1 11 5 2.1 10.7
1 11 -4 -7.4 4.8
-1 11 4 10.7 10.5
-1 11 3 -13.7 8.9
1 11 -3 -0.2 7.9
-1 11 2 -0.4 10.9
1 11 -2 3 9
1 11 -1 5.6 9.9
-1 11 1 0.5 7.8
1 11 0 -10.4 9.8
-1 11 0 -4.7 7.5
1 11 1 -11.4 7.9
-1 11 -1 -1.5 8.5
1 11 2 8.7 8.5
-1 11 -2 -5.5 8.7
-1 11 -3 -3.2 7.7
1 11 4 18.6 10.8
-1 11 -4 -13.2 4.2
-2 0 12 151.68 22.4
-2 0 12 143.79 20.8
-2 0 11 -2.3 7.8
-2 0 11 -9.5 4.8
-2 0 10 243.38 24.5
-2 0 10 219.18 20.8
-2 0 9 -9.2 6.5
-2 0 9 -10.9 4.8
-2 0 8 25.3 9
-2 0 7 -1.5 5.1
-2 0 7 -1.9 4.5
-2 0 6 6.4 4.7
-2 0 6 4.2 5.5
-2 0 5 3.7 5.7
-2 0 5 2.1 4.6
-2 0 4 616.94 36.5
-2 0 4 611.24 35.7
-2 0 3 -3.7 4
-2 0 3 -5 3.2
-2 0 2 49.8 5.9
2 0 -2 36.9 5.6
-2 0 1 0.2 1.5
2 0 -1 0.2 1.7
-2 0 -1 0 2
2 0 1 -0.5 2
2 0 2 1346.87 74.89
-2 0 -2 1417.66 75.19
2 0 3 3.5 5
-2 0 -3 -3.1 5.2
-2 0 -4 76.89 11
2 0 4 70.09 10
2 0 5 6 6.5
2 0 6 199.68 18.2
2 0 7 3.6 6.5
2 0 8 11.5 8.4
2 0 9 7 8.8
2 0 10 12 9.4
2 0 11 -8.9 7.4
2 0 11 -2.3 6.2
2 0 12 -9.4 6.2
2 0 12 15.7 10.1
-2 1 12 4.8 6.9
-2 1 12 10.1 9
-2 -1 12 -0.5 9
-2 -1 12 -7.7 5.4
-2 1 11 7.2 8.4
-2 1 11 19.8 8.3
-2 -1 11 27.6 13
-2 -1 11 23.1 7.8
-2 1 10 35.3 10.7
-2 1 10 22.9 9
-2 -1 10 23.3 11
-2 -1 10 20.5 6.9
-2 1 9 28.3 9.6
-2 1 9 23 9
-2 -1 9 7.5 6.5
-2 -1 9 30.8 11
-2 1 8 28.1 9
-2 1 8 37.2 9.3
-2 -1 8 33.3 7.4
-2 -1 8 37 11
-2 1 7 99.19 12.3
-2 1 7 107.09 14.9
-2 -1 7 106.39 10.6
-2 -1 7 110.99 14.3
-2 1 6 34.9 8.2
-2 1 6 44.1 8.9
-2 -1 6 42.9 7.1
-2 1 5 59.19 9.5
-2 -1 5 64.49 7.7
-2 1 4 34.1 6.6
2 -1 -4 36.9 7.4
-2 -1 4 34.7 5.1
-2 1 3 -1.1 3.6
-2 -1 3 -2.4 2.2
2 -1 -3 -3.8 3.7
2 1 -2 23.1 3.6
-2 1 2 21.5 6.1
-2 1 2 27.7 4.4
-2 -1 2 20.8 3.1
2 -1 -2 27.6 4.4
-2 1 1 32.1 3.1
2 1 -1 29.9 3.2
-2 1 1 25.5 4.4
2 -1 -1 22.3 4.4
2 -1 -1 23.9 3.2
-2 1 0 208.78 12.3
2 1 0 210.68 12.9
2 -1 0 198.08 12.2
-2 -1 0 202.88 12.7
-2 1 -1 27.5 3.4
2 1 1 35.1 4.8
2 -1 1 26.7 3.3
-2 -1 -1 29.1 4.6
2 1 2 618.44 34.9
-2 -1 -2 605.94 35
2 1 3 822.32 45.1
2 -1 3 792.32 46.2
-2 -1 -3 764.02 45.2
2 1 4 119.79 11.9
-2 -1 -4 134.29 12.7
2 -1 4 103.89 13.3
2 1 5 2.3 5.8
2 -1 5 4 6.6
2 1 6 127.39 14.4
2 -1 6 140.59 16
-2 -1 -6 122.19 15.7
2 1 7 206.68 19
2 -1 7 206.38 20.3
-2 -1 -7 186.18 20.4
2 1 8 46.6 10.8
2 -1 8 22.9 10.2
2 1 9 82.79 15.5
2 -1 9 93.19 17.2
2 1 10 71.79 14.9
2 -1 10 80.59 12.7
2 -1 10 89.49 18.3
2 1 11 1.1 14
2 -1 11 0.9 9.3
2 -1 11 2.3 5.5
2 1 12 -2 9.1
2 1 12 8.4 10.6
2 -1 12 6.1 10.1
2 -1 12 -1.3 6.2
-2 2 12 17.6 10.4
-2 -2 12 3.4 9.1
-2 2 11 36.2 11.7
-2 2 11 59.19 13.9
-2 -2 11 83.89 18.3
-2 -2 11 53.29 8.7
-2 2 10 110.09 16.6
-2 2 10 117.69 18.5
-2 -2 10 105.09 10.9
-2 -2 10 106.39 19.4
-2 2 9 98.59 14.9
-2 2 9 69.59 13.1
-2 -2 9 87.29 17.1
-2 -2 9 74.39 9.2
-2 2 8 254.27 22.9
-2 2 8 303.97 23.1
-2 -2 8 271.17 18.4
-2 -2 8 271.77 25.3
-2 2 7 39.8 10.2
-2 -2 7 21.5 9.9
-2 -2 7 41.5 5.8
-2 2 6 186.98 15.6
-2 -2 6 179.68 12.1
2 -2 -6 166.08 16.5
-2 2 5 11.1 5.9
2 -2 -5 17.1 6.4
-2 2 4 0.9 4.3
-2 -2 4 2.2 1.9
2 -2 -4 1.5 4.4
-2 2 3 563.44 31.8
2 2 -3 562.14 30.3
2 -2 -3 567.04 32
-2 2 2 9.5 4.3
2 -2 -2 13.7 4.3
-2 2 1 761.72 45.1
-2 2 1 798.02 44.2
2 -2 -1 853.61 44.2
-2 -2 1 783.12 45.9
-2 2 0 475.65 29.1
2 2 0 542.55 31.2
-2 -2 0 504.55 30.8
-2 2 -1 2653.83 141.49
2 2 1 2730.13 142.79
-2 -2 -1 2836.22 142.89
2 -2 1 2548.34 141.59
2 2 2 1012.7 56.19
-2 2 -2 1062.89 53.79
-2 -2 -2 1029.1 56.09
2 -2 2 966.8 53.89
2 2 3 76.79 9.5
2 -2 3 88.79 5.5
-2 -2 -3 73.69 9.4
2 2 4 29 7.4
-2 -2 -4 16.9 6.8
2 2 5 159.08 15.4
-2 -2 -5 172.08 17.8
2 -2 5 152.98 17.1
2 2 6 27.7 8.9
2 -2 6 26.3 9.6
-2 -2 -6 39 9.4
2 2 7 72.49 12.7
2 -2 7 85.69 15.5
-2 -2 -7 66.79 13.3
2 2 8 7.4 7.2
2 -2 8 10.1 9.2
-2 -2 -8 9.4 9.3
2 2 9 22.4 10.3
2 -2 9 13.3 10.7
2 -2 9 8.9 4.8
2 2 10 5.8 8.7
2 -2 10 1.7 4.8
2 -2 11 -6.8 8.2
2 -2 11 4.1 4.8
2 2 12 25.6 13.5
2 2 12 2.1 8.8
2 -2 12 15.8 12.1
-2 3 12 -8.7 7.3
-2 3 12 1.8 9.6
-2 -3 12 10.8 11.8
-2 3 11 26.7 13.3
-2 3 11 7.4 8.8
-2 -3 11 14.2 12
-2 3 10 5.8 8.5
-2 3 10 1.1 7.7
-2 3 9 76.19 13.2
-2 3 9 67.29 13.8
-2 -3 9 60.29 15.5
-2 3 8 6.9 7.5
-2 3 8 -2.2 6.7
2 -3 -8 2.2 8.4
-2 3 7 181.48 24.7
2 -3 -7 159.38 17.6
-2 3 6 79.29 11.1
2 -3 -6 64.79 12
-2 3 5 5.7 5.6
2 -3 -5 12.9 5.7
-2 3 4 128.89 12.5
2 -3 -4 148.79 12.6
-2 3 3 3.4 4.7
2 -3 -3 9.5 4.9
-2 3 2 18 5.8
2 -3 -2 22.1 5.6
-2 3 1 282.67 19.5
-2 -3 1 302.47 21.3
2 -3 -1 286.97 19.4
-2 3 0 519.35 32.5
2 3 0 581.54 34.6
-2 -3 0 585.04 34.2
2 -3 0 552.74 33.3
2 3 1 112.89 12.8
-2 3 -1 107.69 9.3
-2 -3 -1 130.59 12
2 3 2 901.01 52.29
-2 3 -2 940.91 50.09
-2 -3 -2 950.2 52.59
2 3 3 25.2 7.1
-2 -3 -3 22.8 6.7
2 3 4 298.47 21
-2 -3 -4 264.47 21
2 3 5 75.49 11.8
-2 -3 -5 65.59 11.2
2 3 6 80.19 12
-2 -3 -6 60.49 11.4
2 3 7 68.89 12.5
-2 -3 -7 66.89 13
2 -3 7 83.99 16.4
2 3 8 146.29 18.1
-2 -3 -8 142.89 20.4
2 -3 8 169.58 21.7
2 3 9 9.5 9.3
-2 -3 -9 6 11.7
2 -3 9 11.1 10.9
2 3 10 4.7 9
2 -3 10 3 10.8
-2 -3 -10 5 12.4
2 -3 11 1.2 10.4
2 3 12 3.3 9.4
2 3 12 8.3 10.8
2 -3 12 -5.2 10.2
-2 4 12 21.4 14.8
-2 4 12 13.8 12.2
-2 -4 12 38.8 15.2
-2 4 11 -1.7 7.8
-2 4 11 15.4 9.1
-2 -4 11 -2.4 10.8
-2 4 10 10 10.1
-2 4 10 16.9 9.4
-2 -4 10 8.8 11.5
-2 4 9 237.78 24.5
-2 4 9 207.08 21.3
-2 4 8 29.3 9.8
-2 4 8 10.5 9.1
2 -4 -8 30.6 11.3
-2 4 7 166.98 17.6
2 -4 -7 208.68 19
-2 4 6 -2 6.1
2 -4 -6 -6.4 5.5
-2 4 5 51.39 9.1
2 -4 -5 56.49 9.4
-2 4 4 325.37 22.4
2 -4 -4 322.57 22.3
-2 4 3 203.78 16.6
-2 4 2 128.59 14
-2 -4 2 139.89 16.5
2 -4 -2 119.19 12.7
2 -4 -1 167.98 15.9
-2 -4 1 175.58 17.6
2 4 0 466.65 31.9
-2 4 0 469.95 29.3
-2 -4 0 500.05 31.5
2 -4 0 468.05 30.5
-2 4 -1 38.4 6.5
2 4 1 41.2 9.7
-2 -4 -1 38.7 8.9
2 4 2 4.5 7.3
-2 4 -2 2.7 3.7
-2 -4 -2 3.9 6.9
-2 4 -3 297.37 16.5
2 4 3 310.67 22.1
-2 -4 -3 236.88 21.5
2 4 4 416.96 28.2
-2 -4 -4 404.46 28.1
2 4 5 10.5 9
-2 -4 -5 1.8 6.8
2 4 6 35.5 10
-2 -4 -6 14.7 8.3
2 4 7 188.98 19.9
-2 -4 -7 199.68 21.4
2 4 8 29.3 11.2
2 -4 8 18.8 11.8
-2 -4 -8 40.2 12.6
2 4 9 -5.8 8.7
2 -4 9 11 15.7
2 4 10 -0.1 8.9
-2 -4 -10 5.6 12.3
2 -4 10 -17.5 9.2
2 4 11 4.8 11.5
2 -4 11 13.4 11.9
2 4 12 1.3 9
2 4 12 -3.2 10
2 -4 12 -5.5 11.3
-2 5 11 -10.8 7.9
-2 5 11 -4.6 10.4
-2 -5 11 -3.6 11.5
-2 5 10 28 14.7
-2 5 10 8.8 10.2
2 -5 -10 2.3 13.7
-2 -5 10 18.5 11.6
-2 5 9 1.5 10
-2 5 9 13.3 9.1
2 -5 -9 4 10.1
-2 5 8 36.4 11.9
-2 5 8 47.5 11.9
2 -5 -8 47.3 12.1
-2 5 7 11.4 8.5
2 -5 -7 16 9.4
-2 5 6 19.6 13.5
2 -5 -6 18.5 8.4
-2 5 5 64.39 11.3
2 -5 -5 45.5 10.7
-2 5 4 37.8 8.9
2 -5 -4 29.5 9.4
2 -5 -3 6.9 6.9
-2 5 2 23 9
2 -5 -2 23.8 8.4
-2 -5 2 14.4 10.2
2 -5 0 575.24 46.9
-2 -5 0 583.34 38.3
-2 5 -1 8.3 5.2
2 -5 1 17.9 9.2
-2 5 -2 15.9 5.4
2 5 2 14.6 9.9
-2 -5 -2 30.6 9.6
2 5 3 46.7 12.1
-2 5 -3 54.79 6.4
-2 -5 -3 35.2 9.8
2 5 4 15.2 8.3
-2 -5 -4 20.3 8.4
2 5 5 38.7 10.8
-2 -5 -5 28.3 10.3
2 5 6 41.3 11.2
-2 -5 -6 17.1 9.7
2 5 7 88.39 15.1
-2 -5 -7 55.39 13.9
2 5 8 0.9 8.7
-2 -5 -8 14.1 11.7
2 5 9 -4 9.2
-2 -5 -9 6.1 12.1
2 -5 9 -17.4 8.7
2 5 10 1.3 8.9
2 -5 10 -10.5 8.9
-2 -5 -10 -9.8 12.2
2 5 11 -1.3 9.1
2 -5 11 -12 8.7
-2 6 11 -0.8 10.8
-2 6 11 -4.1 9.2
2 -6 -11 -0.3 17.3
-2 -6 11 9.4 12.6
-2 6 10 9.5 10.5
-2 6 10 2.6 9.5
2 -6 -10 -1 13.7
-2 6 9 9.6 10
-2 6 9 4 9.3
2 -6 -9 -13.8 9.4
-2 6 8 21 10.7
-2 6 8 28.4 11.2
2 -6 -8 36.3 13.6
-2 6 7 12.4 9.6
2 -6 -7 -7.7 9.3
-2 6 6 111.19 17.2
2 -6 -6 151.98 19.2
-2 6 5 0.5 8.5
2 -6 -5 11.2 8.5
-2 6 4 20.5 9.5
2 6 -4 17.6 4.3
2 -6 -4 27.8 9.6
-2 6 3 82.29 13.4
2 -6 -3 64.59 11.8
-2 -6 3 78.09 16.5
-2 -6 2 67.09 14.7
2 -6 -2 58.39 11.3
2 -6 -1 114.89 15.5
-2 -6 1 138.29 18.8
-2 6 0 270.37 19.8
-2 -6 0 218.38 23.2
2 -6 0 254.77 23.3
2 6 1 250.67 25
-2 6 -1 307.67 20.1
2 -6 1 274.17 24.6
-2 -6 -1 229.28 22.4
2 6 2 101.49 16.7
-2 6 -2 82.99 10
-2 -6 -2 90.39 13.6
2 6 3 240.48 23
-2 6 -3 269.47 16.8
-2 -6 -3 188.18 20.8
2 6 4 15.3 9.3
-2 6 -4 6.4 3.1
-2 -6 -4 14.2 9.4
2 6 5 8.9 9.2
-2 -6 -5 6 9.4
2 6 6 56.49 14.3
-2 -6 -6 53.09 13.8
2 6 7 89.99 17
-2 -6 -7 52.39 15.1
2 6 8 7.4 10.7
-2 -6 -8 3.1 13.5
2 6 9 -8.3 9.8
-2 -6 -9 4.6 11.8
2 -6 9 2.9 11.9
2 6 10 -11.2 9.2
2 -6 10 15.7 13.1
2 6 11 1 10.5
2 -6 11 -26.4 10.1
-2 7 10 3.7 11.2
-2 7 10 -1.4 8.5
2 -7 -10 14.3 15.5
-2 7 9 -16.3 8.6
-2 7 9 -1.2 8.7
-2 7 8 5.3 10.2
-2 7 8 -0.1 9.7
2 -7 -8 3.3 10.7
-2 7 7 16.2 10.3
-2 7 7 9.7 9.8
2 -7 -7 2.3 10.3
-2 7 6 89.99 16.9
2 -7 -6 89.29 17.1
-2 7 5 -3.5 10
2 -7 -5 8.9 10.3
2 7 -4 11.5 5.2
-2 7 4 21.8 11.4
-2 -7 4 -4.3 13.5
2 -7 -4 12.9 9.9
-2 7 3 18.4 9.9
2 -7 -3 21.9 9.9
-2 -7 3 20 16.5
-2 -7 2 42.6 15.7
2 -7 -2 26.5 10.6
-2 7 1 47.9 10.5
2 -7 -1 87.59 15
-2 -7 0 58.99 13.9
2 -7 0 65.59 14.8
2 -7 1 179.98 23.5
-2 -7 -1 126.59 18.2
-2 7 -2 8.2 5.7
2 7 2 6.9 10.3
2 -7 2 -4.8 11.7
-2 -7 -2 -11.6 7.5
2 7 3 7.8 10.8
-2 7 -3 10.1 5.3
-2 -7 -3 11.1 10.6
2 7 4 4.1 9.7
-2 7 -4 19.3 4.8
-2 -7 -4 6.8 9.8
2 7 5 263.17 27.4
-2 -7 -5 231.48 25.4
2 7 6 21.7 13.4
-2 -7 -6 40.5 14
2 7 7 12.1 11.6
-2 -7 -7 16.7 14.6
2 7 8 76.39 17.4
-2 -7 -8 145.59 24.7
2 7 9 33.4 14.1
2 7 10 21 12.3
2 -7 10 17.6 14.4
-2 8 9 -3.3 10.7
-2 8 9 0.4 11.3
2 -8 -9 -2.8 14.5
-2 8 8 10.5 10.2
-2 8 8 7 10.6
-2 8 7 3.3 9.5
-2 8 7 -7.6 8.4
2 -8 -7 1.6 12
-2 8 6 14.1 9.6
-2 8 6 9.6 10.9
2 -8 -6 6.1 12.2
-2 8 5 6 10.7
-2 8 5 39.3 13.5
2 -8 -5 16.1 12.3
-2 8 4 5.3 10.5
-2 8 4 7.2 8.3
2 8 -4 1 4.8
2 -8 -4 2.3 9.8
-2 8 3 -1.5 7
2 8 -3 14.1 6.6
2 -8 -3 -3.2 9.9
-2 -8 3 8.5 17.2
-2 8 2 5.5 7.3
-2 -8 2 -0.3 15.9
2 -8 -2 -1.1 9.9
-2 8 1 -12.4 6
-2 -8 1 37.2 16.5
2 -8 -1 13.1 13.1
2 -8 0 96.39 19.8
-2 -8 0 127.49 22.8
-2 8 -1 63.79 11.2
2 -8 1 84.09 20
-2 -8 -1 41.4 14.2
2 8 2 118.89 21.7
-2 8 -2 128.49 16.4
2 -8 2 97.69 22.8
-2 -8 -2 76.59 16.4
-2 8 -3 5.4 6.1
2 8 3 19.9 13
2 -8 3 -5.9 14.8
-2 -8 -3 1.2 10.9
-2 8 -4 5.1 4.7
2 8 4 13.5 10.9
-2 -8 -4 -5 10.7
2 8 5 6.7 11.9
-2 -8 -5 11 14.4
2 8 6 14 12.9
-2 -8 -6 -3.6 12.1
2 8 7 7.3 12.1
-2 -8 -7 34.9 15.1
2 8 8 7.5 11.8
2 8 9 11 11.3
-2 9 8 11.1 10
-2 9 8 10.8 11.1
2 -9 -8 17.9 15.9
-2 9 7 1.5 11
-2 9 7 15.8 11.8
2 -9 -7 6.3 14.5
-2 9 6 7.5 8.8
-2 9 6 -10.8 8.8
2 -9 -6 17.7 14.8
-2 9 5 7.2 9.8
-2 9 5 -4.9 9.9
2 9 -4 17.3 6.7
-2 9 4 4.5 9.9
2 -9 -4 -14.8 10.4
-2 9 3 42.4 12
2 9 -3 29 10.4
2 -9 -3 10.4 12.8
-2 9 2 -14.7 5.3
-2 9 1 80.49 13.7
2 -9 -1 33.4 16
-2 -9 1 39.8 21.3
-2 9 0 4.7 7.7
2 -9 0 -21.3 13.7
-2 -9 0 -14.8 13.5
-2 9 -1 13.8 7.6
-2 -9 -1 -6.9 11.3
2 -9 1 0.2 18.9
-2 9 -2 2.6 7.6
-2 -9 -2 14.3 12
2 -9 2 -18.1 17.2
2 9 3 106.59 20.5
-2 -9 -3 53.99 15.4
-2 9 -4 18.6 6.9
2 9 4 26.8 14.8
-2 -9 -4 31 13.4
2 9 5 11.2 14.3
-2 -9 -5 0.4 12.5
2 9 6 8.8 11.9
2 9 8 5.1 11
-2 10 7 15.1 12.3
-2 10 6 16.8 10.7
2 -10 -6 11.2 14.6
-2 10 5 2.9 9.7
2 -10 -5 9.9 11.7
2 10 -4 5.3 7
-2 10 4 9.2 9.9
2 -10 -4 22.6 12.1
-2 10 3 40.2 14.4
2 10 -3 32 10.9
2 -10 -3 12.5 12.9
2 10 -2 -1.1 7
2 -10 -2 -4.8 11
2 10 -1 5.8 7.2
-2 10 1 -12.7 6.8
-2 10 0 32.1 11.4
-2 10 -1 15.2 10.4
-2 10 -2 8.3 9.2
-2 10 -3 45.3 10.8
-2 10 -4 21.4 7.9
2 10 5 0.8 12.9
2 10 6 -6.6 10.2
2 11 -4 -5.1 5.4
-2 11 4 22.5 11.2
-2 11 3 3.4 10.9
2 11 -3 3.2 8.5
2 11 -2 14.8 9.8
-2 11 2 7.5 10.7
2 11 -1 2.4 9.4
-2 11 1 0 8.9
2 11 0 -9.3 8.1
-2 11 0 16.4 9.9
-2 11 -1 1.6 9.8
-2 11 -2 13.5 11.2
-2 11 -3 1.3 8.8
-2 11 -4 -11.9 4
-3 0 12 38.6 12.5
-3 0 12 10.3 7.7
-3 0 11 -9 7
-3 0 11 -4.6 5.1
-3 0 10 463.55 36.7
-3 0 10 502.15 35
-3 0 9 3.4 6.1
-3 0 9 -3.7 6.9
-3 0 8 118.49 16.5
-3 0 7 -1.9 5.2
-3 0 7 -0.1 4.5
-3 0 6 5.3 6.1
-3 0 6 11.1 5.5
-3 0 5 2.9 5.6
-3 0 5 -3.4 3.8
-3 0 4 136.49 12.4
-3 0 4 148.69 11.7
-3 0 3 -0.9 3.4
3 0 -2 166.98 11.9
-3 0 2 157.88 11.6
-3 0 1 2.5 2
3 0 -1 -0.4 2.1
-3 0 1 -2.6 1.9
-3 0 0 224.38 12.6
3 0 0 221.38 12.9
3 0 0 226.68 12.7
-3 0 0 216.38 12.8
-3 0 -1 -1 3
3 0 1 -3.6 2.8
-3 0 -2 302.87 20.8
3 0 2 332.97 21.1
3 0 3 -4.4 4.3
-3 0 -3 -0.9 5.2
3 0 4 86.19 11.7
-3 0 -4 103.39 13.2
3 0 5 -1.1 6.1
-3 0 -5 -1.6 6.9
3 0 6 8.3 7
3 0 7 -3 5.9
3 0 8 25.8 9.9
3 0 9 5 8.2
3 0 10 7.1 9.4
3 0 11 2.9 8.6
3 0 12 10.9 10.5
3 0 12 -4.2 7
-3 1 12 13.4 10.9
-3 -1 12 19.6 11.3
-3 -1 12 7 6.5
-3 1 11 20.3 8.8
-3 1 11 37.9 11.7
-3 -1 11 42.1 9.8
-3 -1 11 48.2 13.7
-3 1 10 66.89 13.7
-3 1 10 50.19 12.3
-3 -1 10 64.39 11
-3 -1 10 75.99 15.5
-3 1 9 22.1 9.1
-3 1 9 26.1 9.4
-3 -1 9 33.8 8
-3 -1 9 36.7 12
-3 1 8 168.78 16.2
-3 1 8 164.78 16.8
-3 -1 8 139.89 13.6
-3 -1 8 152.88 18.1
-3 1 7 4.9 5.4
-3 1 7 11.4 6.7
-3 -1 7 8.1 6.9
-3 -1 7 6.3 4.5
-3 1 6 28.5 7.5
-3 1 6 34.1 7.8
-3 -1 6 35.5 9.2
-3 -1 6 29.5 5.9
-3 1 5 13.8 6.5
-3 1 5 23.2 6.6
-3 -1 5 19.2 5
-3 1 4 607.14 37.6
-3 1 4 638.94 36.4
-3 -1 4 640.04 35.4
-3 1 3 231.28 17.4
3 1 -3 244.28 15.5
-3 1 3 258.57 15.8
-3 -1 3 259.97 15.1
-3 1 2 1046.8 58.29
3 1 -2 1055.39 56.29
-3 1 2 1068.69 55.89
3 -1 -2 1055.19 56.09
3 -1 -2 995.2 58.29
-3 -1 2 1092.79 56.19
-3 1 1 50.09 6.4
3 1 -1 47.6 5.1
-3 -1 1 70.39 7.9
3 -1 -1 42.7 6.2
-3 1 0 1.3 2.5
3 1 0 10.4 3.7
3 -1 0 0 2.5
-3 -1 0 6.4 3.6
3 1 1 3.1 4.2
-3 1 -1 6.5 2.9
3 -1 1 6 4.5
-3 -1 -1 5.8 4.5
3 -1 1 8.4 2.9
3 1 2 113.39 11.2
-3 -1 -2 105.59 10.8
3 -1 2 114.69 12.2
3 1 3 377.46 23.4
-3 -1 -3 354.06 23.3
3 -1 3 346.37 24.1
3 1 4 0.8 5
-3 -1 -4 4.4 5.6
3 -1 4 5.1 5.8
3 1 5 208.58 17.7
-3 -1 -5 225.68 19.1
3 -1 5 186.68 18.8
3 1 6 200.08 18.1
3 -1 6 185.78 18.5
-3 -1 -6 200.08 19.4
3 1 7 126.89 15.5
3 -1 7 138.39 16.4
-3 -1 -7 115.59 16.5
3 1 8 101.59 15.9
3 -1 8 124.29 18.4
3 1 9 76.39 14.9
3 -1 9 84.49 16.5
3 1 10 2.8 8.6
3 -1 10 4.9 9.7
3 1 11 17.4 10.8
3 -1 11 3.4 5.9
3 -1 11 13.8 10.8
3 1 12 -1.8 7.3
3 1 12 21.9 11.9
3 -1 12 -0.7 6.6
3 -1 12 4.6 10.5
-3 2 12 12.4 8.5
-3 2 12 12.6 12.1
-3 -2 12 -2.1 9.7
-3 2 11 260.97 24
-3 2 11 211.98 23.9
-3 -2 11 264.87 28.3
-3 -2 11 247.48 18.4
-3 2 10 5.3 8.2
-3 2 10 0.9 7
-3 -2 10 -15.4 7.6
-3 -2 10 -0.2 3.9
-3 2 9 225.98 21.3
-3 2 9 228.28 22
-3 -2 9 240.28 16.9
-3 -2 9 217.88 25.7
-3 2 8 70.59 11.9
-3 2 8 69.79 12.4
-3 -2 8 64.79 7.8
-3 -2 8 67.39 14.3
-3 2 7 24.1 7.4
-3 2 7 30.4 9
-3 -2 7 23.9 4.8
-3 2 6 39.8 9.2
-3 2 6 36 7.7
-3 -2 6 30.7 4.7
3 -2 -6 30 8.7
-3 2 5 9.2 5.9
-3 2 5 -4.4 4.7
-3 -2 5 2.5 2.6
3 -2 -5 9.7 5.5
-3 2 4 3.6 4.3
-3 2 4 -1.3 5.2
3 -2 -4 2.6 4
-3 -2 4 2 2.2
-3 2 3 55.19 8.7
3 2 -3 50.29 4.9
-3 2 3 48.2 6
3 -2 -3 48.9 6.2
3 2 -2 3335.17 160.58
-3 2 2 2902.41 160.68
-3 2 2 2868.51 163.28
3 -2 -2 3144.39 160.78
-3 2 1 134.49 12.7
3 -2 -1 149.88 12
-3 -2 1 151.98 15
-3 2 0 1039.8 57.79
3 2 0 1072.89 59.19
-3 -2 0 1109.69 58.69
3 -2 0 1001.7 57.69
3 2 1 3029.4 159.88
-3 2 -1 3045.3 158.58
3 -2 1 2824.02 158.68
-3 -2 -1 3173.88 160.08
3 2 2 577.14 33.6
-3 2 -2 590.14 31.2
3 -2 2 563.94 31.3
-3 -2 -2 561.54 33.4
3 2 3 0.5 4.6
3 -2 3 0.5 1.9
-3 -2 -3 0.7 4.6
3 2 4 990.2 55.59
-3 -2 -4 970.4 55.79
3 -2 4 939.01 57.39
3 2 5 89.29 13
-3 -2 -5 99.09 13.4
3 -2 5 118.79 14.9
3 2 6 34.6 8.9
3 -2 6 19.5 9
-3 -2 -6 16.2 7.7
3 2 7 12.4 8.3
3 -2 7 14.5 9.5
-3 -2 -7 26.1 10.1
3 2 8 22.2 9.3
3 -2 8 34.2 12.3
-3 -2 -8 36.6 13.3
3 2 9 43.4 12.5
-3 -2 -9 42.7 21.7
3 -2 9 50.19 14.8
3 2 10 4.5 8.9
3 -2 10 -4.1 3.8
3 -2 10 7 11.9
3 2 11 -4.2 7.8
3 -2 11 4.8 5.4
3 -2 11 3.4 9
3 2 12 7.2 9.3
3 -2 12 -2.4 11
-3 3 12 -3.7 7.2
-3 3 12 -10.3 6.3
-3 -3 12 -6.7 9.9
-3 3 11 -3.1 7.7
-3 3 11 7.8 9.4
-3 -3 11 -7.3 9.7
-3 3 10 10.9 7.9
-3 3 10 7.8 9.2
-3 -3 10 5.9 16.9
-3 -3 10 11.3 3.6
-3 3 9 346.07 28.6
-3 3 9 321.87 26.3
-3 -3 9 389.56 33.3
-3 -3 9 328.07 19.8
-3 3 8 35.6 10.3
-3 3 8 27.8 9.1
-3 -3 8 21 3.7
-3 3 7 56.99 11.9
-3 3 7 61.59 10.8
3 -3 -7 79.99 12.8
-3 3 6 86.49 11.4
-3 3 6 118.49 14.1
3 -3 -6 111.29 12.4
-3 3 5 207.08 15.8
3 -3 -5 214.08 16.2
-3 3 4 3.1 4.8
3 -3 -4 -6.1 4
3 3 -3 5 2.4
-3 3 3 -6.5 4.6
-3 3 3 1.2 4.3
3 -3 -3 4.5 4.5
-3 3 2 113.89 12.3
3 -3 -2 146.79 11.1
-3 3 1 941.71 54.89
-3 -3 1 999.8 55.89
3 -3 -1 975.1 53.69
-3 3 0 130.39 11.3
3 3 0 136.49 14.7
-3 -3 0 137.09 13.9
3 3 1 270.37 20.3
-3 3 -1 270.97 17.7
-3 -3 -1 302.37 19.8
3 3 2 8.7 5.8
-3 3 -2 13 3.3
-3 -3 -2 7.6 6.1
3 -3 2 5.9 3.5
3 3 3 401.86 26.8
3 -3 3 406.86 23.2
-3 -3 -3 430.86 27
3 3 4 339.97 24.1
3 3 5 547.65 37.4
-3 -3 -5 531.35 35
3 3 6 125.99 15.1
-3 -3 -6 132.19 15.5
3 -3 6 120.89 16.9
3 3 7 37.4 10.5
-3 -3 -7 41.8 11
3 -3 7 39.2 4.3
3 -3 7 33.2 11.8
3 3 8 18 9.8
-3 -3 -8 28.9 11.8
3 -3 8 28.9 4.9
3 -3 8 34.8 13.1
3 3 9 7.8 9.5
-3 -3 -9 15 12.1
3 -3 9 16.3 4.6
3 -3 9 16.3 11.6
3 3 10 0.1 9
-3 -3 -10 9.4 13
3 -3 10 4.7 3.6
3 -3 10 -5 9
3 3 11 -2.4 8.8
3 -3 11 0.4 3.2
3 -3 11 -2 9.3
3 3 12 11.2 9.9
3 -3 12 11.8 11.7
-3 4 12 14.2 9
-3 4 12 0.4 10.1
-3 -4 12 9.5 11.4
-3 4 11 2.7 8.1
-3 4 11 -11.4 7.7
-3 -4 11 -2.6 10.7
-3 4 10 -9.6 6.9
-3 4 10 3.2 8.4
-3 -4 10 -7.3 9.2
-3 4 9 44.9 11.2
-3 4 9 42.7 12.5
3 -4 -9 59.49 15.4
-3 4 8 19.9 10.5
-3 4 8 3.5 7.6
3 -4 -8 11.7 9.1
-3 4 7 102.39 13.9
-3 4 7 98.89 15.9
3 -4 -7 92.69 13.3
-3 4 6 41.3 10.2
-3 4 6 67.59 10.5
3 -4 -6 47.8 10.3
-3 4 5 36.5 7.8
3 -4 -5 31.9 7.6
-3 4 4 96.99 11.6
3 -4 -4 127.99 12
-3 4 3 797.92 41.3
3 -4 -3 597.34 40.1
-3 4 2 348.07 25.6
-3 4 2 369.56 24.9
3 -4 -2 383.66 24.4
-3 -4 2 407.76 28.6
-3 4 1 11.5 6.2
3 -4 -1 19.9 7.9
-3 -4 1 25.7 11
3 4 0 38.5 9.8
-3 4 0 26 6.3
3 -4 0 24.7 8.2
-3 -4 0 21.5 8.4
3 4 1 550.44 35.8
-3 4 -1 557.34 32.9
-3 -4 -1 556.64 34.9
3 4 2 519.25 35.7
-3 4 -2 611.14 32.9
-3 -4 -2 577.94 36.4
-3 4 -3 509.05 28.1
3 4 3 527.95 33.1
-3 -4 -3 482.85 33.3
3 4 4 13.1 7.9
-3 -4 -4 11.5 7.4
3 4 5 117.59 14.8
-3 -4 -5 117.29 14.7
3 4 6 -5.7 7
-3 -4 -6 -2 7.1
3 4 7 80.19 13.9
3 -4 7 40.3 13
-3 -4 -7 59.49 13.6
3 4 8 -0.5 9.3
-3 -4 -8 7 9.8
3 -4 8 -9.9 8.7
3 4 9 9 9.9
-3 -4 -9 -5.8 10.4
3 -4 9 -4.5 9.7
3 4 10 36.2 12.2
-3 -4 -10 44.4 22.5
3 -4 10 46.8 16.4
3 4 11 18.9 11.7
3 -4 11 25.9 14
-3 5 11 45.1 18.1
-3 5 11 6.5 8.9
-3 -5 11 12.8 13
-3 5 10 47 13.8
-3 5 10 46.5 12.5
-3 5 9 11.1 9.4
-3 5 9 11.3 8.3
3 -5 -9 9.6 10.8
-3 5 8 196.68 21.1
-3 5 8 245.68 23.5
3 -5 -8 219.58 22.8
-3 5 7 -10.7 6.3
-3 5 7 -0.9 7.6
3 -5 -7 -0.1 7.3
-3 5 6 36.2 9.6
-3 5 6 34 10.7
3 -5 -6 35.3 9.6
-3 5 5 85.29 12.6
3 -5 -5 90.59 14
-3 5 4 3.6 6.6
3 -5 -4 5.2 7
-3 5 3 7.7 7.7
-3 -5 3 20.2 9.7
3 -5 -3 8.8 7.1
-3 5 2 23.3 7.6
3 -5 -2 22.2 8.3
-3 -5 2 30.6 11.5
-3 5 1 174.48 16.5
-3 -5 1 210.88 20.6
-3 5 0 5.2 5.3
3 5 0 23 17.8
-3 5 -1 6.4 5.2
-3 -5 -1 -3 7.4
3 5 2 196.58 32.2
-3 5 -2 216.98 14.8
-3 -5 -2 162.48 18.1
-3 5 -3 36.6 5.4
3 5 3 38.4 10.6
-3 -5 -3 25.4 8.9
3 5 4 45.9 10.5
-3 5 -4 37.1 4.2
-3 -5 -4 21.5 9.1
3 5 5 89.79 14.1
-3 -5 -5 72.69 13.3
3 5 6 285.17 25.8
-3 -5 -6 310.57 26.8
3 5 7 127.19 18.9
-3 -5 -7 132.49 20.4
3 5 8 87.19 16.5
-3 -5 -8 61.99 19.6
3 -5 8 61.59 26.8
3 5 9 40.3 13.4
3 -5 9 33.3 14.8
-3 -5 -9 35.2 14.2
3 5 10 -3.7 10.7
3 -5 10 13.1 12.9
3 5 11 -1.7 9.9
3 -5 11 -9.2 9.4
-3 6 11 -5.2 12.2
-3 6 11 9.9 10.1
-3 6 10 -9 8.1
-3 6 10 5.7 10
3 -6 -10 -10 12.8
-3 6 9 11.1 9.6
-3 6 9 24.8 11.4
3 -6 -9 1.2 11.5
-3 6 8 15.2 9.9
-3 6 8 5.3 8.9
3 -6 -8 -9.2 8.3
-3 6 7 103.89 17.3
-3 6 7 97.89 15.4
3 -6 -7 91.89 16
-3 6 6 14.4 9.6
-3 6 6 27.9 10.4
3 -6 -6 34.4 11
-3 6 5 16.7 10.3
-3 6 5 19.9 9.4
3 -6 -5 25.7 10
-3 6 4 29.8 8.9
-3 6 4 43.9 11
3 -6 -4 14.6 8.6
-3 -6 4 35.8 13.4
-3 6 3 137.49 14.8
-3 6 3 105.99 15.3
-3 -6 3 150.58 21
3 -6 -3 96.09 14.3
-3 6 2 27 7.9
3 -6 -2 17.4 8.8
-3 -6 2 35.9 12.9
-3 6 1 380.06 26.1
-3 -6 1 392.76 30.1
3 -6 -1 323.07 27
-3 6 0 68.59 10.4
3 -6 0 87.29 14.3
-3 -6 0 71.29 14.6
3 6 1 63.09 14.2
-3 6 -1 64.79 9.6
-3 -6 -1 55.39 11
3 -6 1 48.6 13.3
-3 6 -2 11.1 5.4
3 6 2 -2 7.8
-3 -6 -2 4.3 7.3
3 6 3 152.68 18.5
-3 6 -3 172.88 12.6
-3 -6 -3 120.89 16.9
-3 6 -4 84.19 7.1
3 6 4 79.19 14.6
-3 -6 -4 75.69 13.7
3 6 5 -9.4 8.4
-3 -6 -5 -7.1 8.4
3 6 6 150.78 21.5
-3 -6 -6 162.08 21.6
3 6 7 13.9 11.6
-3 -6 -7 2.2 11
3 6 8 5.2 10.6
-3 -6 -8 1.6 11.5
3 6 9 17 11.6
3 -6 9 20.4 14.1
-3 -6 -9 6.1 12.8
3 6 10 19.7 12.2
3 -6 10 -0.5 13.1
-3 7 10 6 9.1
-3 7 10 -2.6 9.4
3 -7 -10 16.8 14.8
-3 7 9 9.3 9.7
-3 7 9 -6 7.8
3 -7 -9 -0.1 11.2
-3 7 8 0.1 8.9
-3 7 8 -6.5 7.6
3 -7 -8 1.4 11.3
-3 7 7 29.9 12.1
-3 7 7 46.5 13.2
3 -7 -7 45.1 13.8
-3 7 6 0.8 8.4
-3 7 6 -8.2 8.4
3 -7 -6 2.4 10.1
-3 7 5 11.2 8.6
-3 -7 5 6 13.9
3 -7 -5 -1 8.9
-3 7 4 21.7 10.3
-3 7 4 21.1 9.5
-3 -7 4 51.29 17.2
3 -7 -4 4.8 9.4
-3 7 3 1.9 6.7
3 -7 -3 0.6 8.3
-3 7 2 -2.7 5.3
-3 -7 2 -10.5 12.2
3 -7 -2 -9.7 8.2
3 -7 -1 46.3 12.4
-3 7 0 45.5 9.6
-3 -7 0 58.49 14.5
3 -7 0 84.69 15.6
3 7 1 10.4 11.2
-3 7 -1 3.4 10.6
-3 -7 -1 5.5 9.8
3 -7 1 36.1 13.7
3 7 2 24.6 12.5
-3 7 -2 15 6.7
3 -7 2 13 12.6
-3 -7 -2 -6.6 8.6
3 7 3 2.3 10.5
-3 7 -3 -1.4 4.6
-3 -7 -3 -10.2 9.1
3 7 4 104.19 18
-3 7 -4 102.89 9.1
-3 -7 -4 95.99 16.6
3 7 5 55.99 15.6
-3 -7 -5 67.59 15.3
3 7 6 39.4 13.9
3 7 7 18.8 11.7
-3 -7 -7 -5.7 12
3 7 8 26.2 13.3
-3 -7 -8 27.6 15.9
3 7 10 -2.2 12.2
3 -7 10 12.9 16.1
-3 8 9 8.6 10.4
3 -8 -9 18.7 14.2
-3 8 8 13.6 11.2
-3 8 8 25.9 10.8
-3 8 7 -5.5 8.3
-3 8 7 17.2 10.7
3 -8 -7 7.7 12
-3 8 6 30.2 11.7
-3 8 6 12.2 9.7
3 -8 -6 36.1 14.6
-3 8 5 11.8 9.8
-3 8 5 12.5 10.8
3 -8 -5 22.9 12.5
-3 8 4 21.6 9.3
3 8 -4 5.2 5.2
3 -8 -4 15.6 11.1
-3 8 3 31.9 10.6
-3 -8 3 18.5 20
3 -8 -3 21.3 10.9
-3 8 2 -7.3 6
3 -8 -2 3.3 10.2
-3 -8 2 -30.8 14
-3 8 1 6.3 7.3
3 -8 -1 -0.3 12.9
-3 -8 1 7 14.6
3 -8 0 31.6 16.2
-3 -8 0 19.4 19.1
-3 8 -1 -0.4 6.3
-3 -8 -1 17.7 17
3 -8 1 15.6 15
-3 8 -2 3.8 6.3
3 8 2 37.5 13.7
-3 -8 -2 15.6 14.1
3 -8 2 24.3 19.4
3 8 3 26.2 13.9
-3 8 -3 17.1 7.3
3 -8 3 26.8 17.6
3 8 4 18 13.4
-3 8 -4 40.4 6.8
-3 -8 -4 14.5 12.8
3 8 5 141.39 21.4
-3 -8 -5 79.79 18.1
3 8 6 12 12.3
-3 -8 -6 10.5 13
3 8 7 52.09 15.2
-3 -8 -7 29.1 18.9
3 8 9 11.8 12.3
-3 9 8 16.7 11.3
3 -9 -8 2.5 15.6
-3 9 7 -1.8 9.1
-3 9 7 16.6 11.9
3 -9 -7 -1.2 18.4
-3 9 6 15.2 10
-3 9 6 -2 9.1
3 -9 -6 2.9 14.6
-3 9 5 5.8 9.4
3 -9 -5 7.5 12.1
-3 9 4 13.3 9.2
3 9 -4 5.3 6.7
3 -9 -4 11.5 11.2
3 9 -3 8.7 7.1
-3 9 3 12.8 9.3
3 -9 -3 9.7 10.7
-3 9 2 -6.7 6.5
3 -9 -2 0.1 10.7
-3 9 1 0.9 6.8
-3 9 0 5.4 7.7
-3 -9 0 4.3 14.6
3 -9 0 0.7 15.6
-3 9 -1 14.7 8.8
3 -9 1 -7.8 16.4
-3 -9 -1 13.7 13.7
-3 9 -2 22.3 8.7
-3 -9 -2 15.8 11.6
3 -9 2 30.2 19.2
-3 9 -3 87.09 16.7
3 9 3 77.39 19.9
-3 -9 -3 94.19 18.9
3 9 4 -9.2 11.7
-3 9 -4 12.9 6
-3 -9 -4 28.8 13.3
3 9 5 45.7 16.5
3 9 6 2 13.7
3 9 7 26.9 14.3
3 9 8 3.3 12.1
3 -10 -7 6 17.4
-3 10 6 16.2 10.2
3 -10 -6 31.9 15.2
3 10 -5 1.7 3.1
-3 10 5 -9.5 7.7
3 -10 -5 5.5 11.7
-3 10 4 -12.6 7.3
3 -10 -4 13 12
3 10 -3 17.2 8.6
-3 10 3 15.3 11.1
3 -10 -3 10.2 11.4
-3 10 2 4.9 9.6
3 -10 -2 0.7 11.4
-3 10 1 6.4 8.5
3 -10 -1 -10.2 12
-3 10 0 10.9 9.6
-3 10 -1 18.8 11.3
-3 10 -2 28.2 10
-3 10 -3 21.2 9
-3 10 -4 20.7 8.5
3 10 4 29.5 16.5
3 10 5 16.9 14.2
3 10 6 7.6 14
3 11 -4 5.4 5.5
-3 11 4 -3 8.1
-3 11 3 -8.8 9.9
3 11 -3 -9.1 7.1
-3 11 2 17.7 9.2
3 11 -2 -1.7 8.6
-3 11 1 13 10.7
3 11 -1 0.6 8.2
-3 11 0 -10.3 7.7
-3 11 -1 15.4 12.8
-3 11 -2 1.9 9.3
-3 11 -3 25.4 10.5
-3 11 -4 9.4 4.6
-4 0 12 10.7 10
-4 0 12 -5.5 6
-4 0 11 6.9 6.1
-4 0 11 -6.3 7.6
-4 0 10 255.77 25
-4 0 10 238.38 22.1
-4 0 9 -0.6 5.6
-4 0 9 8.7 8.2
-4 0 8 246.28 20.7
-4 0 8 265.77 22.4
-4 0 7 -8.2 3.5
-4 0 6 155.58 13.5
-4 0 6 145.49 14.8
-4 0 5 -1.9 4.1
-4 0 5 -5.8 4.9
-4 0 4 304.97 20.1
-4 0 3 -0.5 3.2
4 0 -3 2.7 4
-4 0 2 168.98 12
4 0 -2 150.18 12.1
4 0 -1 2 3
-4 0 1 2.3 3
4 0 -1 -2.9 3.3
-4 0 1 -1.8 2.7
4 0 0 160.28 10.4
4 0 0 161.58 10.1
-4 0 0 155.68 10.4
-4 0 0 167.98 10.2
4 0 1 -2.4 3.7
-4 0 -1 1.5 4.1
4 0 2 9999 520.85
-4 0 -2 9912.21 521.05
-4 0 -3 -2.8 5.3
4 0 3 -2 4.4
-4 0 -4 1290.77 76.79
4 0 4 1421.86 76.69
-4 0 -5 -3.3 6.3
4 0 5 -1.4 5.9
-4 0 -6 506.05 36.2
4 0 6 513.65 34.8
4 0 7 -9.1 5.4
4 0 8 14.5 8.8
4 0 9 -8.5 6.7
4 0 10 13.4 10.4
4 0 11 -5.1 7.3
4 0 12 17.3 11.9
4 0 12 5.8 7.7
-4 1 12 -1.7 6.1
-4 1 12 -6.3 7.5
-4 -1 12 -6.2 8.7
-4 -1 12 -5.8 5
-4 1 11 142.39 22.3
-4 1 11 117.19 16.9
-4 -1 11 127.29 20.7
-4 -1 11 88.49 13.9
-4 1 10 32.7 10.7
-4 1 10 33.3 10.3
-4 -1 10 14.5 6.3
-4 -1 10 12.3 9.8
-4 1 9 -4.8 6.7
-4 1 9 9.8 7
-4 -1 9 0.5 5
-4 -1 9 -5.5 7.4
-4 1 8 25.6 8.3
-4 1 8 17.2 7.6
-4 -1 8 17.2 9.3
-4 -1 8 11.9 5.5
-4 1 7 122.39 13.2
-4 1 7 127.39 15.4
-4 -1 7 114.59 14.5
-4 -1 7 93.59 10.5
-4 1 6 16.3 6.4
-4 1 6 12.7 6.2
-4 -1 6 16.1 5.1
-4 1 5 9.6 6.1
-4 1 5 17.8 6.1
-4 -1 5 9.6 4.4
-4 1 4 21.5 6.3
4 1 -4 18.3 5.3
-4 1 4 32.4 5.9
-4 -1 4 29.8 5.1
4 1 -3 246.68 16
-4 1 3 255.67 18.1
-4 1 3 253.67 15.7
-4 -1 3 267.87 15.7
-4 1 2 312.07 20.7
4 1 -2 351.66 18.9
4 -1 -2 270.27 20.5
-4 -1 2 328.97 18.7
4 1 -1 274.37 19
4 1 -1 305.17 17
-4 1 1 285.67 18.2
-4 -1 1 276.77 18.9
4 -1 -1 271.97 18.2
4 1 0 155.08 11.2
-4 1 0 129.69 9.9
4 -1 0 135.19 9.9
-4 -1 0 139.09 11
4 -1 0 138.39 10.1
-4 1 -1 12.9 3.9
4 1 1 2.1 4.9
-4 -1 -1 2.2 5.1
4 -1 1 13.4 5.4
4 -1 1 18.5 4.1
4 1 2 1934.81 102.09
4 -1 2 1931.01 100.49
-4 -1 -2 1822.02 101.99
4 -1 2 1911.41 102.89
4 1 3 1134.69 61.69
-4 -1 -3 1044.1 61.49
4 -1 3 1122.69 62.59
4 1 4 160.38 14.9
4 -1 4 143.39 15.1
-4 -1 -4 141.19 14.7
4 1 5 423.76 28.8
-4 -1 -5 406.86 29
4 -1 5 412.56 37.7
4 1 6 149.99 15.5
4 -1 6 161.28 16.7
-4 -1 -6 127.59 16.1
4 1 7 20.8 8.6
-4 -1 -7 38.1 11.6
4 -1 7 31.4 9.7
4 1 8 44.4 11
4 -1 8 29.5 11.2
-4 -1 -8 33.3 13.1
4 1 9 33.6 11.7
4 -1 9 53.89 14.2
4 1 10 -4.5 8
4 1 11 12.8 9.6
4 -1 11 7.3 10.6
4 1 12 -0.8 9.3
4 -1 12 -0.1 4.8
4 -1 12 -5.9 9.5
-4 2 12 23.3 10.7
-4 2 12 6.3 7.9
-4 -2 12 16.3 11.1
-4 2 11 3.5 8.7
-4 2 11 0.4 7.5
-4 -2 11 -2.4 8.7
-4 -2 11 1.3 4
-4 2 10 31.8 11.1
-4 2 10 35.3 10.6
-4 -2 10 52.09 7.8
-4 -2 10 47.4 14.8
-4 2 9 170.48 18.2
-4 2 9 170.08 18.8
-4 -2 9 161.18 13.5
-4 -2 9 178.78 22.4
-4 2 8 8.9 6.9
-4 2 8 9.2 7.1
-4 -2 8 8.6 4.3
-4 -2 8 -4 7.2
-4 2 7 22.5 6.9
-4 2 7 22.1 7.8
-4 -2 7 9.4 3.9
-4 2 6 55.49 10
-4 2 6 44.2 8.1
-4 -2 6 45.2 5.8
-4 2 5 176.98 13.7
-4 2 5 161.48 16.1
-4 -2 5 181.68 11.5
4 -2 -5 158.48 14
4 2 -4 4.5 3.7
-4 2 4 14.2 6.5
-4 2 4 7.2 4.3
-4 -2 4 11.7 3.2
4 -2 -4 13.7 5
4 2 -3 134.59 8.7
-4 2 3 120.49 8.7
-4 2 3 99.29 11.4
4 -2 -3 116.79 8.8
4 2 -2 2117.29 104.29
-4 2 2 1923.61 106.99
4 -2 -2 2057.99 103.69
-4 -2 2 1781.62 106.49
-4 2 1 746.83 42.6
4 2 -1 723.73 43.2
4 -2 -1 729.03 42.5
4 -2 -1 729.23 40.3
-4 -2 1 766.92 42.9
-4 2 0 190.28 13.9
4 2 0 204.58 17.8
-4 -2 0 201.88 16.6
4 -2 0 181.78 13.8
-4 2 -1 119.59 9.3
4 2 1 120.99 12.7
4 -2 1 121.09 9.6
-4 -2 -1 144.69 13.1
4 2 2 184.98 14.6
-4 2 -2 197.08 11.9
4 -2 2 181.68 11.8
-4 -2 -2 186.48 14.4
4 2 3 395.06 25.3
4 -2 3 392.96 22.2
-4 -2 -3 392.86 25.3
4 2 4 91.79 11.7
4 -2 4 86.39 12.8
-4 -2 -4 87.69 12.6
4 -2 4 79.49 7.1
4 2 5 261.27 23.2
-4 -2 -5 273.77 21.5
4 -2 5 262.17 22.7
4 2 6 -9.6 5.3
4 -2 6 0.4 6.7
-4 -2 -6 -1.1 5.2
4 2 7 -5.6 6.3
-4 -2 -7 -9 6.8
4 -2 7 -7.4 6.6
4 2 8 6.1 8.4
-4 -2 -8 20.8 11.2
4 -2 8 9.5 9.9
4 2 9 18.5 10.3
4 -2 9 9.5 10.9
-4 -2 -9 30.4 13.6
4 2 10 -11.6 6.8
4 -2 10 0.6 9.3
4 2 11 31.5 11.2
4 -2 11 12.8 7
4 -2 11 9.2 11.7
4 2 12 42.3 13
4 -2 12 34.7 13.6
-4 3 12 5.3 9.5
-4 3 12 5.5 8.5
-4 -3 12 18 13.2
-4 3 11 15.9 11
-4 3 11 28.7 10.4
-4 -3 11 24 13.2
-4 -3 11 29 4.9
-4 3 10 12.9 8.6
-4 3 10 17.8 8.4
-4 -3 10 13.6 3.8
-4 -3 10 5.9 10.9
-4 3 9 86.09 15.7
-4 3 9 90.39 13.9
-4 -3 9 76.89 16.2
-4 -3 9 87.49 7.6
-4 3 8 14.5 7.6
-4 3 8 10.4 8.3
-4 -3 8 10.2 3.3
-4 3 7 10 7.3
-4 3 7 11.9 6.6
4 -3 -7 14.9 10.1
-4 -3 7 16.7 3.3
-4 3 6 1.9 4.7
-4 3 6 4.9 6.6
4 -3 -6 -6.3 4.7
-4 3 5 50.29 7.5
-4 3 5 32.9 9.1
4 -3 -5 42.3 7.1
4 3 -4 -3.3 2.5
-4 3 4 13.7 4.9
-4 3 4 -9.5 6.9
4 -3 -4 -1.2 4.2
4 3 -3 5.7 2.8
-4 3 3 0.9 4.9
-4 3 3 -2.4 4
4 -3 -3 1.9 4
-4 3 2 397.96 24.3
-4 3 2 419.46 26.8
4 -3 -2 428.26 24
-4 -3 2 377.06 27.6
-4 3 1 202.68 15.6
4 3 -1 200.38 17.8
4 -3 -1 199.98 14.7
-4 -3 1 206.78 17.2
-4 3 0 8.5 4.6
4 3 0 14.8 7.4
-4 -3 0 6.4 6.1
4 -3 0 3.5 4.7
4 3 1 16.9 6.6
-4 3 -1 23.8 4.8
4 -3 1 15.2 4.8
-4 -3 -1 17.5 6.4
-4 3 -2 12 3.5
4 3 2 11.5 6.2
4 -3 2 10.9 3.9
-4 -3 -2 16.1 6.2
4 3 3 176.68 15.7
4 -3 3 176.98 11.6
4 3 4 340.87 24
-4 -3 -4 312.37 23.6
4 -3 4 320.87 18.6
4 3 5 135.59 16.5
4 -3 5 179.58 10.4
-4 -3 -5 164.98 16.8
4 3 6 4.4 7.3
-4 -3 -6 0 6.7
4 -3 6 9.2 2.7
4 -3 6 2.7 7.4
4 3 7 -1.6 7.2
4 -3 7 -0.3 8.1
4 -3 7 0.2 2.7
-4 -3 -7 6.9 8.1
4 3 8 12.6 9.2
4 -3 8 6.8 3.5
4 -3 8 10 10.4
-4 -3 -8 -8.4 8.2
4 3 9 17.7 10.8
-4 -3 -9 2.2 11.3
4 -3 9 6.4 10.5
4 -3 9 1 3.6
4 3 10 2.1 9.2
4 -3 10 -6.7 9.3
4 -3 10 6.6 4.1
4 3 11 23.1 12.2
4 -3 11 5.7 3.9
4 -3 11 16.5 12.1
4 3 12 76.19 18.2
4 -3 12 4.2 11.6
-4 4 12 2 10.7
-4 4 12 -1 7.8
-4 -4 12 0.1 10.5
-4 4 11 -8.6 6.8
-4 4 11 -3.1 8.2
-4 -4 11 -14.5 8.8
-4 4 10 2.1 7.7
-4 4 10 -1.7 8.7
-4 -4 10 15.3 11.5
-4 4 9 17.7 10.2
-4 4 9 3.7 7.1
-4 4 8 15.9 9.6
-4 4 8 11.8 7.8
4 -4 -8 9.4 9.3
-4 4 7 98.79 13.2
-4 4 7 136.19 17.9
4 -4 -7 100.99 14.3
-4 4 6 46.1 11.3
-4 4 6 41.7 8.4
4 -4 -6 37.4 8.5
-4 4 5 218.58 19.5
-4 4 5 213.48 16.7
4 -4 -5 202.28 16.3
-4 4 4 60.89 10.7
-4 4 4 64.29 8.9
4 4 -4 65.99 5.6
4 -4 -4 68.29 9.2
-4 4 3 858.21 53.79
-4 -4 3 940.91 55.39
4 -4 -3 891.51 50.59
-4 4 2 215.68 17.6
4 -4 -2 198.18 16.1
-4 -4 2 212.08 20.6
-4 4 1 271.57 20.5
-4 -4 1 296.67 26.3
4 -4 -1 288.67 20.7
4 4 0 12.8 9.4
-4 4 0 15.9 5.9
-4 -4 0 20.2 9.1
4 4 1 326.07 25.5
-4 4 -1 350.26 22.3
-4 -4 -1 367.96 28.1
-4 4 -2 37.7 5.8
4 4 2 29.6 9
-4 -4 -2 21.3 10.7
-4 4 -3 88.99 7.6
4 4 3 101.19 13.5
-4 -4 -3 98.99 13.1
4 4 4 161.28 17
-4 -4 -4 165.98 16.7
4 4 5 16.7 8.4
-4 -4 -5 23.3 8.5
4 4 6 23.9 9.6
-4 -4 -6 21.5 9.4
4 4 7 11.8 9.3
4 -4 7 8.5 9.8
-4 -4 -7 11.9 10.2
4 4 8 8.3 9.7
-4 -4 -8 -7.6 8.4
4 -4 8 0.3 10.1
4 4 9 20 10.9
4 -4 9 20.3 12.7
-4 -4 -9 -1.9 10.9
4 4 10 14 10.8
4 -4 10 7.1 10.9
4 4 11 0.5 10.1
4 -4 11 16.9 12.6
-4 5 11 23.2 10.3
-4 5 11 14.1 9
-4 -5 11 -0.7 11
-4 5 10 58.19 14.5
-4 5 9 14.3 10
-4 5 9 19 9.3
4 -5 -9 13.9 11.4
-4 5 8 137.59 17.3
-4 5 8 145.19 20.6
4 -5 -8 144.49 19.4
-4 5 7 15 9.2
-4 5 7 14.1 8.8
4 -5 -7 6.9 7.7
-4 5 6 16.5 9.1
-4 5 6 20.7 8.2
-4 5 5 44.3 9.6
-4 5 5 38.9 10.4
4 -5 -5 40.2 9.1
-4 5 4 14.1 6.9
-4 5 4 13.8 7
4 5 -4 12 3.1
4 -5 -4 2.3 6.5
-4 5 3 159.88 16.3
-4 5 3 158.58 15.7
-4 -5 3 156.68 19.9
4 -5 -3 147.89 14.6
-4 5 2 34.9 8.6
-4 -5 2 28.7 11.1
4 -5 -2 48.8 9.2
-4 5 1 4.9 5.3
-4 -5 1 1 9.3
4 -5 -1 -0.8 7.6
4 5 0 7.9 10.3
-4 5 0 15.3 6.2
4 -5 0 21.9 9.4
-4 -5 0 34.6 10.1
4 5 1 11 11
-4 5 -1 6.5 5.1
-4 -5 -1 3.4 7.7
4 5 2 168.88 19.3
-4 5 -2 163.98 13
-4 -5 -2 152.08 17.5
-4 5 -3 101.39 8.6
4 5 3 93.99 14.4
-4 -5 -3 79.19 13.5
4 5 4 7.1 8.2
-4 5 -4 12 3
-4 -5 -4 17.1 8.7
4 5 5 28.9 10.3
-4 -5 -5 27.7 9.7
4 5 6 31.1 11
-4 -5 -6 12.8 9.8
4 5 7 26.5 11.5
-4 -5 -7 17.6 12.8
4 5 8 13.9 10.3
-4 -5 -8 -13.1 9.3
4 5 9 57.89 15.4
4 -5 9 44.6 16.4
-4 -5 -9 110.99 20.6
4 5 10 11.9 16.8
4 -5 10 16 14
4 5 11 9.5 11.5
4 -5 11 1 10.3
-4 6 11 -4.7 9.2
-4 -6 11 7.3 12.6
-4 6 10 -14.4 7.4
-4 6 10 0.9 9
4 -6 -10 9.6 12.6
-4 6 9 7.7 9
-4 6 9 34.3 12.2
4 -6 -9 12.6 11.9
-4 6 8 3.9 8.8
-4 6 8 8.9 9.5
4 -6 -8 13.8 9.8
-4 6 7 19.8 10.3
-4 6 7 -1.8 8.5
4 -6 -7 16.6 9.6
-4 6 6 94.69 19.6
-4 6 6 148.59 17.8
4 -6 -6 98.69 16
-4 6 5 -3.4 7.8
-4 6 5 11.4 8.3
4 -6 -5 18.6 8.3
-4 6 4 136.99 17.5
-4 6 4 119.09 15.8
4 -6 -4 81.99 16.7
-4 -6 4 143.89 22.6
-4 6 3 48.3 10
-4 -6 3 66.59 14.6
4 -6 -3 24.4 15.5
-4 6 2 6.1 6.2
4 -6 -2 3.6 7.9
-4 -6 2 10.6 10.5
-4 6 1 75.99 11.2
4 -6 -1 77.59 13.6
-4 -6 1 65.89 14
-4 6 0 122.99 15.5
4 6 0 119.99 19.3
4 -6 0 134.99 17.9
-4 -6 0 95.49 16.6
-4 6 -1 21.8 7.2
4 6 1 43.9 13
-4 -6 -1 29 9.9
4 -6 1 16.8 9.8
-4 6 -2 201.88 14.9
4 6 2 155.38 20.4
-4 -6 -2 144.99 18.6
-4 6 -3 8.1 4.5
4 6 3 11.4 9.6
-4 -6 -3 18.9 9.5
4 6 4 126.19 17.5
-4 6 -4 119.29 9.2
-4 -6 -4 117.59 17.2
4 6 5 3 9.6
-4 -6 -5 -8.5 8.5
4 6 6 55.29 15.1
-4 -6 -6 42.9 13.5
4 6 7 -1.9 10.5
-4 -6 -7 6.1 15
4 6 8 96.29 19.2
-4 -6 -8 61.89 17.9
4 6 9 3.5 11.1
4 -6 9 -12 10.1
4 6 10 5.5 12.2
4 -6 10 1.4 12.2
-4 7 10 -1.7 9
-4 7 10 4.1 10.3
4 -7 -10 0.2 12.8
-4 7 9 4.6 8.5
-4 7 9 20.5 11.8
4 -7 -9 -11.4 10.1
-4 7 8 0.5 8.1
-4 7 8 7.6 12.4
4 -7 -8 -5.9 10.3
-4 7 7 55.19 15.3
-4 7 7 35.3 12.7
4 -7 -7 80.19 15.9
-4 7 6 17.8 10.7
4 -7 -6 42.1 13.3
-4 7 5 11.3 8.9
-4 7 5 9.4 9.4
-4 -7 5 27 18.5
4 -7 -5 4.7 10.1
-4 7 4 18.5 9.1
-4 7 4 14.3 9.2
4 -7 -4 25 10.2
-4 -7 4 21.7 15.2
-4 7 3 -5.5 5.3
4 -7 -3 7.5 8.9
-4 7 2 41.3 9.7
-4 -7 2 3.2 15.3
4 -7 -2 17.7 10.1
-4 7 1 14.6 7.3
4 -7 -1 24.7 12.2
-4 -7 1 46.8 14.6
-4 7 0 -0.7 5.6
-4 -7 0 7.9 10.5
4 -7 0 12.8 10.9
4 7 1 14.9 11.3
-4 7 -1 9.8 6.9
4 -7 1 10.6 11.9
-4 -7 -1 4.5 10.2
4 7 2 48.1 14.4
-4 7 -2 54.89 9.6
4 -7 2 25 13.1
-4 -7 -2 25.6 11.7
4 7 3 -4.1 9.8
-4 7 -3 6.6 5.2
-4 -7 -3 2.8 9.4
-4 7 -4 88.89 8.9
4 7 4 106.69 18.6
-4 -7 -4 85.09 16.9
4 7 5 125.49 19
-4 -7 -5 83.69 17.4
4 7 6 15.1 12.8
-4 -7 -6 38.9 14.5
4 7 7 16.7 13.2
-4 -7 -7 17.3 13.4
4 7 8 22.6 13.1
4 7 9 36.8 14.7
4 -7 9 60.09 21.4
4 7 10 -2.5 12.3
4 -7 10 0.8 13.2
-4 8 9 -0.7 8.5
4 -8 -9 9.7 12.9
-4 8 8 20.7 11.2
-4 8 8 25.1 12.5
4 -8 -8 10.1 12.3
-4 8 7 24.8 11
-4 8 7 7 11.3
4 -8 -7 15.2 13.5
-4 8 6 66.19 14.4
-4 8 6 79.59 16.4
4 -8 -6 66.49 16.4
-4 8 5 24 11.7
-4 8 5 27.1 10.1
4 -8 -5 27.4 11.6
-4 8 4 96.49 16.5
4 -8 -4 67.89 14.4
-4 8 3 53.19 12.1
-4 -8 3 68.59 20.3
4 -8 -3 36 11.7
-4 8 2 12.1 8.1
-4 -8 2 -21.1 16.4
4 -8 -2 -11.7 9.6
-4 8 1 4.7 7.4
4 -8 -1 -4.5 12.5
-4 -8 1 0.4 13.7
-4 8 0 -5 6.1
4 -8 0 10.1 14.9
-4 -8 0 -4.2 12.5
-4 8 -1 -2.3 6.9
-4 -8 -1 9.9 12.7
4 -8 1 12.7 15.3
-4 8 -2 0.7 6.4
4 8 2 1.8 12.8
-4 -8 -2 -2.8 12.4
4 8 3 23 14.1
-4 8 -3 15.3 7.2
4 -8 3 22.6 14.6
-4 -8 -3 29.8 12.8
4 8 4 54.29 17.5
-4 8 -4 64.69 8.4
-4 -8 -4 44.7 14.5
4 8 5 72.09 17.8
4 8 6 56.69 17.5
-4 -8 -6 42.9 16.4
4 8 7 36.2 14.4
4 8 8 -7.3 10.6
4 8 9 16.3 12.5
-4 9 8 -5.4 9.6
-4 9 7 24.3 11.1
-4 9 7 -5.5 9.8
4 -9 -7 -2.6 15.5
-4 9 6 0.3 8.1
4 -9 -6 19.4 14.1
4 9 -5 8.9 4.9
-4 9 5 12.4 10
4 -9 -5 1.6 11.3
4 9 -4 1.8 6.1
-4 9 4 -8.6 8.4
4 -9 -4 0.2 10.6
-4 9 3 15.6 9.8
4 -9 -3 12.9 11.2
-4 9 2 12.1 8.9
4 -9 -2 30.6 12.2
-4 9 1 17.4 8.5
4 -9 -1 0.3 14.9
-4 9 0 8.1 7.4
4 -9 0 -17.3 14.6
-4 9 -1 36.9 11.1
-4 -9 -1 21.4 15.6
4 -9 1 5.6 17.7
-4 9 -2 95.99 13.8
4 9 2 67.49 16.5
4 -9 2 58.99 21.4
-4 -9 -2 51.49 16
-4 9 -3 10.2 7.3
4 9 3 16.3 14.6
-4 -9 -3 64.29 19.4
4 9 4 241.38 32.6
4 9 5 -0.1 13.3
4 9 6 4 13.5
4 9 7 37.5 15.8
4 9 8 -4.7 12.6
-4 10 6 21.3 10.7
4 -10 -6 26.8 15.6
-4 10 5 -7.3 7.9
4 10 -5 -1.7 3.5
4 -10 -5 -2 11.7
-4 10 4 -5.5 7
4 -10 -4 4.1 12.1
4 10 -3 79.59 13.4
-4 10 3 65.69 13.6
4 -10 -3 51.79 14.8
-4 10 2 18.1 11.7
4 -10 -2 0.2 11.4
-4 10 1 33.5 12.6
4 -10 -1 -17.1 12.8
-4 10 0 22 10.8
-4 10 -1 4.2 9.2
-4 10 -2 -0.6 7.8
-4 10 -3 -7.6 6.4
4 10 4 2.8 13.5
4 10 5 -11.9 11.4
-4 10 -5 -4.3 2.2
4 10 6 0.3 13.6
-4 11 4 6 9.8
4 11 -4 2.6 5.3
-4 11 3 9.7 9.5
4 11 -3 11.8 8
-4 11 2 17.6 13.2
4 11 -2 33.6 12.4
-4 11 1 2.1 10.4
-4 11 -1 26 10.7
-4 11 -2 12 12.1
-4 11 -3 2.3 8
-4 11 -4 11.3 4.8
-5 0 12 206.68 22.8
-5 0 11 -9.1 7.1
-5 0 11 13.4 7.1
-5 0 10 173.88 18.4
-5 0 10 165.28 20.3
-5 0 9 2.1 5.9
-5 0 9 1.1 7.4
-5 0 8 9.2 7.1
-5 0 8 0 4.7
-5 0 7 -9 5.3
-5 0 7 -4.5 3.7
-5 0 6 -1.9 5.1
-5 0 6 8 4.9
-5 0 5 6.9 5.9
-5 0 5 -3 4.4
-5 0 4 22.1 5.8
5 0 -4 30 6.8
5 0 -3 -3.4 3.7
-5 0 3 2.2 3.6
5 0 -2 1582.94 86.49
-5 0 2 1633.04 86.29
5 0 -1 1.4 3.9
5 0 -1 12.5 4.7
-5 0 1 6.5 3.8
-5 0 1 5.7 4
-5 0 0 456.55 26.4
-5 0 0 473.85 26.8
5 0 0 485.25 26.4
5 0 0 462.35 26.7
5 0 1 7.3 5.2
-5 0 -1 3.8 5
-5 0 -2 3746.63 201.18
5 0 2 3841.82 200.98
5 0 3 -1 4.7
-5 0 -3 3.6 5.1
-5 0 -4 537.25 36.5
5 0 4 504.45 33.4
-5 0 -5 12.5 7.7
5 0 5 3.9 10.8
5 0 6 555.14 37
-5 0 -6 539.85 38.2
5 0 7 1.2 6.5
5 0 8 5.2 8.1
5 0 9 -2.2 8.3
5 0 10 -2.6 12.6
5 0 11 -6.5 7.8
5 0 12 17.6 11.9
-5 1 12 1.4 6.7
-5 1 12 7.3 8.2
-5 -1 12 11.1 10.2
-5 -1 12 10.5 6.6
-5 1 11 10.5 8.5
-5 1 11 34 11.5
-5 -1 11 34.9 8.2
-5 -1 11 30 11.6
-5 1 10 15.2 8.4
-5 1 10 10.6 8.5
-5 -1 10 31.3 12.5
-5 -1 10 14.3 6.2
-5 1 9 12.6 7.3
-5 1 9 9.2 8
-5 -1 9 15.3 9.6
-5 1 8 17 7.8
-5 1 8 22.2 7.8
-5 -1 8 22.3 9.8
-5 -1 8 12.2 5.5
-5 1 7 -2.7 4.9
-5 1 7 -6.8 4.6
-5 -1 7 1 3.9
-5 -1 7 -1.3 5.8
-5 1 6 166.68 14.6
-5 1 6 164.98 15.5
-5 -1 6 168.78 13.3
-5 1 5 218.38 15.9
-5 1 5 197.98 17.4
-5 -1 5 216.98 15
-5 1 4 101.59 9.3
5 1 -4 87.09 9.6
-5 1 4 115.59 11.5
-5 -1 4 105.29 8.9
5 1 -3 40.1 5.8
-5 1 3 35.5 5
-5 1 3 41.4 7.2
5 -1 -3 30.6 7
-5 -1 3 42.1 5.5
5 1 -2 174.58 11.6
-5 1 2 178.18 13.3
-5 -1 2 188.28 11.7
5 -1 -2 137.49 12.9
-5 -1 2 150.68 13.6
-5 1 1 105.09 10.4
5 1 -1 119.49 13
5 1 -1 111.39 9.4
-5 -1 1 100.49 11.8
5 -1 -1 90.09 10.3
-5 1 0 415.36 26.6
-5 1 0 483.55 26.9
5 1 0 469.35 27.6
-5 -1 0 497.45 27.7
5 -1 0 452.05 26.4
5 -1 0 475.05 27
-5 1 -1 274.07 16.7
-5 1 -1 226.78 18
5 1 1 275.77 18.2
5 -1 1 241.78 17.6
5 -1 1 283.07 16.6
-5 -1 -1 281.07 18.1
5 1 2 44.7 7.3
-5 1 -2 40.8 8.2
5 -1 2 22.5 6.7
-5 -1 -2 45.7 6.9
5 -1 2 43.4 5.5
5 1 3 35.3 7.3
-5 1 -3 24.5 7.6
5 -1 3 21.3 6.8
-5 -1 -3 24 6.8
5 1 4 547.65 33.9
-5 -1 -4 496.25 37.9
5 -1 4 533.75 34.4
5 -1 5 121.29 14.9
-5 -1 -5 117.89 14.8
5 1 6 177.38 17.5
5 -1 6 163.48 18
-5 -1 -6 187.58 19.3
5 1 7 58.49 11.2
5 -1 7 53.99 12.2
-5 -1 -7 54.09 13.2
5 1 8 -0.7 8
5 -1 8 -3.6 7.7
-5 -1 -8 5.5 9.8
5 1 9 44.7 12.9
5 -1 9 60.09 15
5 1 10 24.8 11.4
5 -1 10 -2.5 8.4
5 1 11 43.4 14.5
5 -1 11 23.5 12.6
5 1 12 -3.9 8.4
5 -1 12 -2.7 5.5
5 -1 12 -2.7 9.5
-5 2 12 10.7 8.6
-5 2 12 11.2 8.5
-5 -2 12 12.4 10.9
-5 -2 12 2.3 5.7
-5 2 11 -2.2 7.7
-5 2 11 2.5 7.5
-5 -2 11 6.7 6.3
-5 2 10 16.4 8.3
-5 2 10 10.7 8.7
-5 -2 10 16.2 5
-5 -2 10 12.9 10.7
-5 2 9 6.3 7.4
-5 2 9 5.6 7.5
-5 -2 9 5.3 4.4
-5 -2 9 5.7 9.1
-5 2 8 85.89 13.4
-5 -2 8 61.89 13.6
-5 -2 8 70.59 8.4
-5 2 7 24.8 7.1
-5 2 7 16.9 7.9
-5 -2 7 28 5.1
-5 2 6 145.79 13.2
-5 2 6 154.38 15.7
-5 -2 6 162.58 11.4
-5 2 5 -0.5 6
-5 2 5 3.6 4.5
-5 -2 5 1.8 2.9
-5 2 4 262.27 20
5 2 -4 249.68 16.4
-5 2 4 251.47 16
-5 -2 4 254.17 15.5
5 2 -3 154.58 10.6
-5 2 3 146.29 13.7
5 2 -2 446.26 24.5
-5 2 2 431.36 27.3
-5 -2 2 418.06 27.6
5 -2 -2 413.96 27.3
-5 2 1 71.79 8.9
5 2 -1 65.59 10.6
-5 -2 1 72.19 10.1
5 -2 -1 58.49 8.6
-5 2 0 114.79 10.8
5 2 0 157.88 15.5
-5 -2 0 153.48 14
5 -2 0 114.79 10.7
-5 2 -1 3.5 3.6
5 2 1 12 5.9
-5 -2 -1 2.7 6.2
5 -2 1 2.2 3.5
-5 2 -2 170.88 10.9
5 2 2 172.58 13.7
5 -2 2 121.79 13.6
5 -2 2 156.28 10.8
-5 -2 -2 170.18 13.5
5 2 3 564.44 33.4
5 -2 3 551.04 30.4
-5 -2 -3 533.25 33.3
5 -2 3 522.05 34.6
5 2 4 339.57 23.1
-5 -2 -4 299.17 22.6
5 -2 4 299.77 18.4
5 -2 4 285.47 24.1
5 2 5 637.44 39.3
-5 -2 -5 586.84 39.2
5 -2 5 623.74 40.8
5 2 6 2.5 6.5
5 -2 6 0.6 7
-5 -2 -6 -3.9 6.2
5 2 7 17.3 8.7
5 -2 7 11.8 9.3
-5 -2 -7 5.3 8.6
5 2 8 2.7 8.9
5 -2 8 15 9.5
-5 -2 -8 0 9.5
5 2 9 10.7 9.9
5 -2 9 4 9.3
-5 -2 -9 12.7 12.7
5 2 10 2.5 8.9
5 -2 10 0.3 9.3
5 2 11 5.6 9.3
5 -2 11 -3 10.7
5 2 12 -5.6 9.4
5 -2 12 -4.4 5.7
5 -2 12 -4.3 8.9
-5 3 12 7.8 8.3
-5 3 12 -5.5 9.2
-5 -3 12 20.5 13.6
-5 3 11 6.4 9.5
-5 3 11 13.1 8.2
-5 -3 11 6.5 3.5
-5 -3 11 -1.2 9.8
-5 3 10 10.2 8.8
-5 3 10 -1.7 6
-5 -3 10 -3.4 2.8
-5 -3 10 -2.1 9.5
-5 3 9 56.99 13.1
-5 3 9 62.59 11.3
-5 -3 9 59.59 6.5
-5 3 8 72.59 13.8
-5 3 8 63.29 12.3
-5 -3 8 68.29 7
-5 3 7 -2.5 5.3
-5 3 7 -4.5 5.9
-5 -3 7 2.6 2.9
-5 3 6 0 4.6
-5 3 6 -8.1 4.9
5 -3 -6 -0.7 5
-5 3 5 11.4 6.8
5 3 -5 7.2 3.7
-5 3 5 9.2 4.9
5 -3 -5 2.1 4.5
5 3 -4 339.37 20.2
-5 3 4 354.36 21
-5 3 4 328.27 25.9
5 -3 -4 342.27 20.9
5 3 -3 131.89 9.3
-5 3 3 118.29 10.5
-5 3 3 144.19 13.8
5 -3 -3 115.39 9.5
-5 3 2 253.27 19.4
5 -3 -2 267.27 16.4
-5 -3 2 259.07 21
-5 3 1 142.79 12.8
5 3 -1 169.88 16.3
-5 -3 1 150.58 15.2
5 -3 -1 124.49 11.5
5 -3 -1 151.08 13.4
-5 3 0 1.9 4.1
5 3 0 0 6.5
-5 -3 0 -0.2 5.7
5 -3 0 -0.9 3.9
5 3 1 292.27 21.1
-5 3 -1 313.57 19
-5 -3 -1 315.77 21.4
5 -3 1 268.77 18.9
5 3 2 158.88 14.4
-5 3 -2 156.68 11.1
5 -3 2 153.88 11.5
-5 -3 -2 159.38 14.4
5 3 3 1298.77 71.29
5 -3 3 1236.58 68.09
5 3 4 19.9 8.5
-5 -3 -4 10.1 7.4
5 -3 4 10.5 3.3
5 3 5 4.4 7
5 -3 5 9.8 8.2
-5 -3 -5 1.9 6.8
5 -3 5 10.4 3.1
5 3 6 106.89 15
5 -3 6 117.09 16.4
-5 -3 -6 107.59 14.9
5 -3 6 98.09 7.8
5 3 7 59.99 12.8
5 -3 7 56.29 6.4
5 -3 7 71.59 15.7
-5 -3 -7 70.39 13.7
5 3 8 18.9 10.8
5 -3 8 28.3 13
-5 -3 -8 34.2 12.1
5 -3 8 31.4 5.1
5 3 9 19.5 11.7
-5 -3 -9 32.6 13.2
5 -3 9 22.3 4.8
5 3 10 10.3 10.7
5 -3 10 9.7 4.6
5 -3 10 0.4 4
5 -3 10 4.1 10.6
5 3 11 -4.8 8.5
5 -3 11 3.2 3.9
5 -3 11 9.6 10.7
5 -3 11 4.3 4
5 3 12 7.2 10.1
5 -3 12 3.3 10.3
5 -3 12 5.6 4.3
-5 4 12 5.4 8.6
-5 -4 12 1.8 11
-5 4 11 3.9 7.7
-5 4 11 -4.2 9.7
-5 -4 11 9.3 11.4
-5 4 10 6.9 8
-5 4 10 9.1 7.2
-5 -4 10 -2.4 9.4
-5 4 9 13.4 9.3
-5 4 9 10.4 7.6
-5 4 8 35 11.4
-5 4 7 74.59 11.2
-5 4 7 93.29 15.2
5 -4 -7 72.79 14.2
-5 4 6 10.4 6.6
-5 4 6 21.1 8.8
5 -4 -6 12.5 5.9
-5 4 5 286.17 20.2
-5 4 5 326.87 24.6
5 -4 -5 296.37 20.3
-5 4 4 220.58 16.9
5 4 -4 237.48 14.1
-5 4 4 204.68 19.3
5 -4 -4 240.08 16.5
-5 4 3 150.88 13.1
-5 4 3 111.49 13.4
5 -4 -3 108.59 11.6
-5 -4 2 146.09 19
5 -4 -2 167.28 13.9
5 4 -1 24 10
-5 4 1 31.4 7.5
-5 -4 1 31.7 10.3
5 -4 -1 32.7 8.2
5 4 0 90.79 13.9
-5 4 0 83.89 10.6
-5 -4 0 71.99 11.6
5 4 1 111.29 16.3
-5 4 -1 136.59 12
-5 -4 -1 144.69 15.6
5 -4 2 7.9 5
-5 -4 -2 7.5 8.3
-5 4 -3 124.39 9.3
5 -4 3 115.99 9.9
-5 -4 -3 112.59 14.4
5 4 4 228.18 20.5
5 -4 4 240.78 14.9
-5 -4 -4 222.18 19.6
5 4 5 127.29 16
-5 -4 -5 97.09 14.4
5 -4 5 93.69 7.4
5 4 6 2.9 8
5 -4 6 -0.4 8.1
-5 -4 -6 -8.2 6.4
5 4 7 -17.2 7
-5 -4 -7 -0.2 9.4
5 -4 7 3.4 9.6
5 4 8 -1 9.4
5 -4 8 1.2 10.9
-5 -4 -8 -5.2 8.7
5 4 9 55.99 14.6
5 -4 9 83.09 19.7
-5 -4 -9 81.89 18
5 -4 10 9.6 12.5
5 4 11 -6.8 9.1
5 -4 11 5.7 11.5
-5 5 11 2.3 8.7
-5 5 11 15.5 9
-5 -5 11 7.9 10.8
-5 5 10 -2.4 7.1
-5 5 10 14.1 9.1
-5 5 9 12.4 8.4
-5 5 9 -2.7 8.7
-5 5 8 -7.1 6.8
-5 5 8 5.4 9.3
5 -5 -8 0.4 8.3
-5 5 7 109.29 15.3
-5 5 7 146.79 17.9
5 -5 -7 117.49 15.2
-5 5 6 13 7
-5 5 6 21.7 9.3
5 -5 -6 13 6.7
-5 5 5 29.4 8.1
-5 5 5 12 7.4
5 -5 -5 12 6.2
5 5 -4 400.56 21.7
-5 5 4 378.36 28.1
-5 5 4 339.17 25.3
5 -5 -4 361.66 25
-5 -5 4 381.76 31.2
-5 5 3 72.79 12
5 -5 -3 69.49 10.1
-5 -5 3 89.59 15.4
-5 5 2 32.5 8.4
-5 -5 2 47.1 12.1
-5 5 1 101.59 13
-5 -5 1 88.59 15.2
5 -5 -1 98.09 13.5
-5 5 0 45.9 8.5
5 5 0 38 12.9
-5 -5 0 25 10.1
5 -5 0 49.1 11.1
5 5 1 -9.2 9.6
-5 5 -1 21.8 6.6
-5 -5 -1 32.4 10.3
5 5 2 90.19 14.1
-5 5 -2 77.59 9
-5 -5 -2 82.29 12.8
5 5 3 226.88 20.4
-5 5 -3 221.48 14.8
-5 -5 -3 213.68 19.9
-5 5 -4 137.29 9.3
5 5 4 118.19 16.2
-5 -5 -4 112.39 15.5
5 5 5 19 9.5
-5 -5 -5 1.9 8.5
5 5 6 10.7 10.1
-5 -5 -6 7.5 10.1
5 5 7 77.89 15.7
-5 -5 -7 69.79 16.5
5 -5 7 47.5 15.8
5 5 8 -4.6 9.6
-5 -5 -8 4.2 10.8
5 -5 8 -9.6 9.8
5 5 9 8.4 10.9
5 -5 9 0.1 11.6
5 5 10 -10.9 9.4
5 -5 10 9 12.7
5 5 11 25.3 13
5 -5 11 9.6 12.6
-5 6 11 8.6 8.7
-5 6 10 -12 8.3
-5 6 10 13 10.1
-5 6 9 25.2 9.4
-5 6 9 9.8 12.7
5 -6 -9 20.4 11
-5 6 8 64.79 15.6
-5 6 8 58.89 13.1
5 -6 -8 67.69 14.6
-5 6 7 9.5 9
5 -6 -7 -13.4 7.8
-5 6 6 147.89 18.6
5 -6 -6 160.38 17.4
-5 6 5 43 10.9
-5 6 5 25.4 10.1
-5 -6 5 53.99 16.8
-5 6 4 52.19 10.4
-5 6 4 58.09 11.7
-5 -6 4 53.69 16.5
5 -6 -4 49.4 10.5
-5 6 3 1 6.2
-5 -6 3 3.5 11.1
5 -6 -3 5 7.8
-5 6 2 39.9 9.1
5 -6 -2 42.6 16
-5 -6 2 33.1 12.5
-5 6 1 84.99 12.3
5 -6 -1 108.19 15.9
-5 -6 1 90.79 16.4
-5 6 0 -2.7 5.7
5 6 0 -0.5 9.2
5 -6 0 -3.2 8.4
-5 -6 0 4.7 9.1
5 6 1 10.8 10.4
-5 6 -1 19.9 6.8
-5 -6 -1 24 10.4
5 6 2 124.29 17.6
-5 6 -2 121.69 11.9
-5 -6 -2 86.89 15.1
-5 6 -3 2.8 4.3
5 6 3 -7.9 8.3
-5 -6 -3 1.8 8.8
-5 6 -4 -2.6 3.2
5 6 4 13.1 10
-5 -6 -4 8.7 9.1
5 6 5 10.4 10.5
-5 -6 -5 -13.4 8.8
5 6 6 15.5 11.4
-5 -6 -6 -3.5 10.5
5 6 7 39.4 13.9
-5 -6 -7 33 13.7
5 6 8 79.89 18.1
-5 -6 -8 65.59 18.6
5 -6 8 72.59 19.1
5 -6 9 -6.9 11
5 6 10 9.4 12.2
5 -6 10 44.4 18.7
-5 7 10 0.5 10.1
-5 7 10 2.5 7.9
-5 7 9 15.6 11.9
-5 7 9 1.6 8.8
5 -7 -9 5.9 11.2
-5 7 8 8 9.3
-5 7 8 8.7 9.8
5 -7 -8 3.3 9.5
-5 7 7 26.9 11.7
-5 7 7 12.1 11
5 -7 -7 26.8 12.5
-5 7 6 96.69 17.8
5 -7 -6 115.89 17.5
-5 7 5 56.89 13.3
5 7 -5 58.29 6.3
-5 -7 5 54.19 22.7
5 -7 -5 79.19 14.5
-5 7 4 23.3 9.5
5 -7 -4 8.9 9.4
-5 -7 4 -9.1 12.4
-5 7 3 30.5 9.8
5 -7 -3 18.3 9.4
-5 -7 3 4.9 13.2
-5 7 2 3.4 6.5
5 -7 -2 2.9 8.6
-5 -7 2 -14.6 11.6
-5 7 1 6.3 6.5
-5 -7 1 -6.8 11.2
5 -7 -1 9.6 11.3
-5 7 0 31 9.3
5 -7 0 31 12.6
-5 -7 0 31.9 13.4
5 7 1 9.1 12.1
-5 7 -1 14.5 7
-5 -7 -1 9.1 11.3
5 -7 1 6.8 10.4
-5 7 -2 96.19 11.6
5 7 2 71.29 17.5
-5 -7 -2 61.99 14.6
-5 7 -3 17.4 6.3
5 7 3 25.9 12.6
-5 -7 -3 9.6 10.9
5 7 4 30.1 13.4
-5 7 -4 8.9 4.5
-5 -7 -4 5.3 10.5
5 7 5 92.99 17.8
-5 -7 -5 28 17.6
5 7 6 7.7 11.7
-5 -7 -6 7 13
5 7 7 7.7 12
-5 -7 -7 -6.9 11.9
5 7 8 -19.7 11.4
5 7 9 -1.4 12.1
5 -7 9 5.3 12.6
5 7 10 21.3 14.9
5 -7 10 5.7 13.2
-5 8 9 -1.5 10.3
5 -8 -9 -14.6 10.3
-5 8 8 21.2 12.4
-5 8 8 -3.9 8.8
5 -8 -8 11.6 11.8
-5 8 7 -3.8 7.9
-5 8 7 7.6 9.9
5 -8 -7 -0.2 10
-5 8 6 2.3 8
-5 8 6 8.9 8.8
5 -8 -6 1.4 11.2
5 8 -5 144.99 10.4
-5 8 5 142.59 19.9
5 8 -5 137.19 12.4
5 -8 -5 105.89 18.8
-5 8 4 50.69 12.2
5 -8 -4 39.6 12.5
-5 8 3 -1.2 7.1
5 -8 -3 11.4 9.7
-5 -8 3 73.19 24.7
-5 8 2 12.4 7.7
5 -8 -2 -16.5 9.3
-5 8 1 4.6 6.5
5 -8 -1 -21.6 11
-5 -8 1 -13.7 15.2
-5 8 0 3.1 6.9
5 -8 0 -4.3 14.7
-5 -8 0 -1.1 14.2
5 8 1 3.1 12.1
-5 8 -1 -4.5 5.9
5 -8 1 -8.3 13.7
-5 -8 -1 6.3 12.6
-5 8 -2 14.4 7.7
5 8 2 31.4 15.6
-5 -8 -2 5.6 11.4
5 8 3 74.79 17.2
-5 -8 -3 4.5 11
-5 8 -4 19.7 5.9
5 8 4 12.7 14.7
-5 -8 -4 17 11.8
5 8 5 38.1 15.5
-5 -8 -5 12.2 14.3
5 8 6 24.2 14.1
5 8 8 5.6 11.6
5 8 9 7.5 12.1
5 -8 9 4.5 14.9
-5 9 8 0.3 8.6
5 -9 -8 -7.3 12
-5 9 7 1.5 9.3
5 -9 -7 33.6 17.3
-5 9 6 -1 8.2
5 -9 -6 9.2 13.4
5 9 -5 12.2 5.4
5 9 -5 5.9 4.1
-5 9 5 -3.7 7.8
5 -9 -5 -5.5 11.1
-5 9 4 14 9.3
5 -9 -4 10.1 11.2
-5 9 3 35.2 13.6
5 -9 -3 18.6 10.7
-5 9 2 -7.8 5.9
5 -9 -2 9.3 12
-5 9 1 24.5 9.5
5 -9 -1 -14.5 13.8
-5 9 0 38.5 11.3
5 -9 0 31 24.8
-5 9 -1 14.4 7.8
5 -9 1 -4.2 16.2
5 9 2 12.4 14.1
-5 9 -2 19.8 8.8
5 -9 2 19.3 19.2
5 9 3 6.6 14.2
-5 9 -3 21.1 8.5
5 9 4 84.69 21.4
-5 9 -4 45.5 8.6
-5 9 -5 16.4 3.8
5 9 6 2.2 11.6
5 9 7 6.3 13.1
5 9 8 0.8 13.4
-5 10 6 22.9 11.2
5 -10 -6 8.2 14.1
-5 10 5 10 10.1
5 10 -5 9.6 4.8
5 -10 -5 18.7 13.8
-5 10 4 0.9 11.1
5 -10 -4 1.1 11
-5 10 3 35.6 10.8
5 -10 -3 24.5 12.6
-5 10 2 15.6 9.7
5 -10 -2 -0.4 10.8
-5 10 1 72.19 15
5 -10 -1 13.4 13.2
-5 10 0 33.1 11.3
5 -10 0 44.3 20.3
-5 10 -1 39.4 11.5
-5 10 -2 13.9 10.3
5 10 3 -2.3 13.4
-5 10 -3 12.4 7.5
5 10 4 27.8 15.1
-5 10 -5 -3.7 2.5
5 10 5 -6.1 13.6
5 10 6 -10.2 11
-5 11 4 -3.6 7.5
5 11 -4 -7.3 5.3
-5 11 3 -11.8 7.1
5 11 -3 -3.2 9
-5 11 2 21.7 12.3
-5 11 1 13.6 12.9
-5 11 -1 18 11.8
-5 11 -2 9.5 10.7
-5 11 -3 -1.3 8.4
-5 11 -4 3.6 5.3
-6 0 12 58.49 12.5
-6 0 12 61.19 15.1
-6 0 11 -2.3 5.6
-6 0 11 5.8 8.3
-6 0 10 49.7 12.5
-6 0 10 47.9 11.3
-6 0 9 -2.9 5.7
-6 0 9 -13.3 5.6
-6 0 8 -3.7 6.7
-6 0 8 3.1 5.3
-6 0 7 0.4 5.8
-6 0 7 -2.2 4.2
-6 0 6 101.39 11.6
-6 0 6 113.99 12.7
-6 0 5 1.5 4.5
-6 0 4 289.47 18.8
6 0 -4 245.68 18.8
-6 0 3 -1.2 3.6
6 0 -3 -3.6 3.7
6 0 -2 7.5 4.5
-6 0 2 10.5 4.4
-6 0 2 -0.7 3.8
6 0 -1 8.7 5
6 0 -1 -1.5 4.4
-6 0 1 -1.8 4.3
-6 0 1 14 4.8
6 0 0 77.59 9
-6 0 0 79.59 8.6
-6 0 0 59.89 7.7
6 0 0 73.19 8.8
-6 0 -1 0.5 5.5
6 0 1 3 5.4
-6 0 -2 3683.03 195.88
6 0 2 3690.13 195.58
-6 0 -3 2.6 5
6 0 3 -3.5 4.8
6 0 4 24.3 8.3
-6 0 -4 43.6 10
-6 0 -5 -6.4 6.8
6 0 5 5 6.7
6 0 6 26.7 9.2
-6 0 -6 24.2 10.6
-6 0 -7 -2.6 8.5
6 0 7 -5 6.1
6 0 8 -11.2 6.4
6 0 9 -7.7 7.4
6 0 10 122.19 20.8
6 0 11 16.2 10.6
6 0 12 4.3 9.6
-6 1 12 14.4 8.7
-6 1 12 0.3 7.7
-6 -1 12 10.4 9.2
-6 -1 12 6.5 5.3
-6 1 11 10.2 8.3
-6 1 11 10.2 7.3
-6 -1 11 14.8 6.4
-6 -1 11 17.8 11.4
-6 1 10 13.8 8.9
-6 1 10 27.3 9.2
-6 -1 10 7.9 9.4
-6 -1 10 5.2 5.5
-6 1 9 27.7 8.7
-6 1 9 14.9 8.9
-6 -1 9 20.8 6.8
-6 -1 9 3.1 9.2
-6 1 8 19.4 7.8
-6 1 8 24.7 8.2
-6 -1 8 16.2 8.7
-6 -1 8 25.2 6.5
-6 1 7 87.69 12.8
-6 1 7 86.99 11.4
-6 -1 7 74.99 10
-6 1 6 6.7 5.2
-6 -1 6 7.9 4.6
-6 1 5 197.28 14.9
6 1 -5 198.48 15.7
-6 1 5 212.98 17
-6 -1 5 193.78 14.4
-6 1 4 267.07 16.1
-6 1 4 258.77 18.9
6 1 -4 232.48 17
-6 -1 4 229.78 16.1
6 -1 -4 233.38 18.8
-6 1 3 1.2 4.3
6 1 -3 1.5 3.5
6 -1 -3 -3.2 4
-6 -1 3 0.8 3.2
-6 1 2 590.54 33.8
6 1 -2 610.04 32.5
6 -1 -2 569.04 33.9
-6 -1 2 513.25 33
-6 -1 2 572.34 32.2
6 1 -1 94.19 13.2
-6 1 1 108.69 11.1
6 1 -1 126.39 10.4
-6 -1 1 122.49 11.7
6 -1 -1 139.49 8.4
6 -1 -1 119.59 11.6
6 1 0 80.89 10.8
-6 1 0 75.39 9
-6 1 0 73.69 9.3
-6 -1 0 77.39 10.8
6 -1 0 81.29 8.5
6 -1 0 80.09 9
-6 1 -1 231.48 16.4
6 1 1 214.98 16.1
-6 1 -1 210.18 14.5
6 -1 1 211.38 15.7
-6 -1 -1 230.18 16.1
6 -1 1 207.78 14.2
-6 1 -2 25.7 7.4
6 1 2 33.1 6.7
-6 -1 -2 32.3 6.8
6 -1 2 30.5 5.1
6 -1 2 28 6.9
-6 1 -3 54.49 10.3
6 1 3 68.69 10
-6 -1 -3 55.19 9.2
6 -1 3 74.09 10.5
-6 1 -4 167.68 18.3
6 1 4 198.18 17.1
-6 -1 -4 154.58 16.7
6 -1 4 183.68 17.2
6 1 5 816.72 50.69
6 -1 5 859.51 51.69
-6 -1 -5 822.72 51.09
6 1 6 36.9 9.8
6 -1 6 36.7 10.2
-6 -1 -6 39.7 11.2
6 1 7 -4.9 6.5
6 -1 7 -2.9 6.7
-6 -1 -7 12.3 9.9
6 1 8 -6.9 7.2
6 -1 8 -1.1 8.4
-6 -1 -8 7.3 11.7
6 1 9 9 10
6 -1 9 15.4 10.8
6 -1 10 4.1 9.2
6 1 11 16.8 11.2
6 -1 11 -0.1 9.5
6 1 12 10.3 10.7
6 -1 12 -0.5 8.9
-6 2 12 30.5 10.4
-6 2 12 39.7 13
-6 -2 12 47.3 15.4
-6 -2 12 40 8.1
-6 2 11 102.09 15.3
-6 2 11 144.19 23.1
-6 2 10 -2.3 6.5
-6 2 10 -3.2 6.8
-6 -2 10 -3.4 8.4
-6 -2 10 2.8 4.1
-6 2 9 110.99 14.6
-6 2 9 151.68 19.2
-6 -2 9 114.09 18.8
-6 -2 9 113.19 11.2
-6 2 8 42.8 9.2
-6 2 8 41.6 10.5
-6 -2 8 62.09 8
-6 2 7 17.9 6.2
-6 2 7 10.6 6.8
-6 -2 7 22.1 5.2
-6 2 6 140.89 15.5
-6 2 6 155.28 12.9
-6 -2 6 146.59 11.2
-6 2 5 231.58 20.1
6 2 -5 237.78 16.1
-6 2 5 223.98 15.5
-6 -2 5 220.18 14.7
6 2 -4 2454.85 133.29
-6 2 4 2489.85 136.89
-6 -2 4 2580.04 132.79
6 2 -3 554.24 31.6
-6 2 3 575.94 35
6 -2 -3 542.85 34.9
-6 -2 3 562.44 31.5
6 2 -2 555.94 29.4
-6 2 2 530.25 31.9
-6 -2 2 506.05 32
6 -2 -2 459.55 31.3
-6 2 1 108.59 11.2
6 2 -1 132.39 14.2
-6 -2 1 135.09 13.7
6 -2 -1 135.89 11.7
6 2 0 448.26 27.4
-6 2 0 426.96 26.2
-6 -2 0 459.45 27.3
6 -2 0 403.16 26.1
6 2 1 53.39 8.1
-6 2 -1 53.49 6.5
-6 -2 -1 53.79 8.1
6 -2 1 41.2 7.6
6 -2 1 55.09 6.7
6 2 2 91.59 11.2
-6 2 -2 110.19 8.6
6 -2 2 102.99 11.9
6 -2 2 104.89 8.6
-6 -2 -2 110.49 11.2
6 2 3 990.9 53.79
6 -2 3 829.22 54.29
-6 -2 -3 935.41 53.59
6 -2 3 952.5 50.69
6 2 4 758.02 44.8
6 -2 4 748.73 49
6 -2 4 741.53 40.8
-6 -2 -4 690.53 44.6
6 2 5 15.3 7.6
6 -2 5 10.2 7.7
-6 -2 -5 19 8
6 2 6 39.3 10.7
-6 -2 -6 39.8 10.8
6 -2 6 55.59 11.7
6 2 7 86.99 15.2
-6 -2 -7 85.99 14.9
6 -2 7 111.19 16.9
6 2 8 0.9 9
6 -2 8 11.4 9.8
6 2 9 22.9 11.4
-6 -2 -9 22.1 14.2
6 -2 9 36.5 12.9
6 -2 10 25.2 12.8
6 2 11 5.2 10.3
6 -2 11 5.7 10.6
6 2 12 -0.8 10.4
6 -2 12 -15.7 8.6
6 -2 12 0.9 6
-6 3 12 14 8.9
-6 3 12 -13 7
-6 -3 12 -2.6 10.6
-6 -3 12 -0.6 3.6
-6 3 11 17.8 8.3
-6 3 11 15.6 12
-6 -3 11 23.5 4.8
-6 -3 11 4.6 12
-6 3 10 -3.8 6.2
-6 3 10 0.1 8.6
-6 -3 10 -5 9.2
-6 -3 10 -0.3 3.2
-6 3 9 25.5 8.4
-6 3 9 22 10
-6 -3 9 25.5 4.8
-6 3 8 40.2 11.1
-6 -3 8 40.7 5.5
-6 3 7 22.6 8.6
-6 3 7 12.3 6.1
-6 -3 7 22 4.2
-6 3 6 82.79 13.4
-6 3 6 50.59 7.7
6 3 -5 82.19 7.9
-6 3 5 53.79 8.1
-6 3 5 90.09 13.2
6 -3 -5 69.89 8.6
-6 3 4 93.09 13.6
6 3 -4 88.19 8.1
6 -3 -4 93.79 8.2
6 3 -3 492.45 26.7
-6 3 3 421.96 26.4
-6 3 3 490.55 31.1
-6 3 2 39.1 8.1
6 -3 -2 47.2 6.5
6 -3 -2 51.19 9.3
-6 -3 2 43 10.3
-6 3 1 -0.5 4.6
6 3 -1 -1.9 6.9
6 -3 -1 -3.4 4.4
-6 -3 1 4.7 6.5
-6 3 0 239.38 16.7
6 3 0 221.48 19.1
-6 -3 0 255.87 18.6
6 -3 0 212.08 16.5
6 3 1 8.6 6.4
-6 3 -1 4.6 4.1
6 -3 1 8.2 4.5
-6 -3 -1 12.2 6.8
-6 3 -2 14.7 4.4
6 3 2 8.8 6.8
-6 -3 -2 20.7 7.2
6 -3 2 3.8 3.8
6 3 3 37.5 9.1
6 -3 3 29.9 5.1
-6 -3 -3 -10.8 8.1
6 3 4 263.87 20.8
-6 -3 -4 234.58 20
6 -3 4 230.58 15.3
6 -3 4 257.87 22.2
6 3 5 59.49 11.1
6 -3 5 50.39 11.9
-6 -3 -5 60.89 11.6
6 -3 5 45.5 5.8
6 3 6 8.9 8.5
6 -3 6 15.3 9.5
6 -3 6 13.7 3.8
-6 -3 -6 11.5 8.2
6 3 7 53.89 12.8
-6 -3 -7 40.1 12.3
6 -3 7 58.99 14.2
6 -3 7 57.59 6.7
6 3 8 16.7 10.8
6 -3 8 9.6 4.3
6 -3 8 20.3 11.7
-6 -3 -8 5.5 9.7
6 3 9 93.89 17.8
6 -3 9 89.79 21.7
-6 -3 -9 80.39 18.4
6 -3 9 66.49 8
6 3 10 -6.6 9.1
6 -3 10 4 4.3
6 -3 10 10.9 11.4
6 3 11 24.9 12.3
6 -3 11 18.7 5.2
6 -3 11 10.7 4.9
6 -3 11 3.9 9.9
6 3 12 -2 9.8
6 -3 12 0.7 4.3
6 -3 12 -4.1 10.8
6 -3 12 3 4.3
-6 4 11 -5 6.8
-6 4 11 3.4 7.5
-6 -4 11 -1.3 10.2
-6 4 10 16.4 11.1
-6 4 10 13.7 8.1
-6 4 9 14.5 9.7
-6 4 9 14.4 7.6
-6 4 8 32.5 10.9
-6 4 8 22.7 8.6
-6 4 7 25.5 9.5
-6 4 7 23.6 7.5
6 -4 -7 26.7 8.8
-6 4 6 17.6 6.4
-6 4 6 13 7.9
6 -4 -6 14.7 6.1
6 4 -5 158.08 10.9
-6 4 5 151.48 12.7
-6 4 5 170.68 17.1
6 -4 -5 142.49 12.4
6 4 -4 26.2 4.6
-6 4 4 27.8 6.8
-6 4 4 35 9.3
6 -4 -4 28.3 6.1
-6 -4 4 24 10.8
-6 4 3 348.57 26.6
6 4 -3 363.16 22
-6 -4 3 378.16 29.3
6 -4 -3 388.96 23.1
6 -4 -2 605.34 32.8
-6 -4 2 477.05 36.6
6 4 -1 -5.1 9.4
-6 4 1 8.2 6.5
6 -4 -1 15.5 7.1
-6 -4 1 13.9 8.8
-6 4 0 19.2 6.2
6 4 0 39.5 11.3
6 -4 0 31.3 7.9
-6 -4 0 27.1 9.3
-6 4 -1 3.2 4.8
6 -4 1 12.2 5.8
-6 -4 -1 -0.7 7.6
-6 4 -3 4 3.6
6 4 3 6.1 8.3
6 -4 3 3.4 3.9
-6 -4 -3 6.1 7
6 4 4 5.5 7.2
-6 -4 -4 8.9 7.5
6 -4 4 -1.7 3.2
6 4 5 24.7 9.3
6 -4 5 15.9 3.9
-6 -4 -5 22.4 9.3
6 4 6 -0.8 8
6 -4 6 12.1 9.5
6 -4 6 1.6 2.8
-6 -4 -6 5.7 8.4
6 4 7 26.8 11.6
-6 -4 -7 8.9 9.6
6 -4 7 21.1 11.9
6 4 8 4.8 10
-6 -4 -8 -8 9.6
6 -4 8 3.6 10.1
6 4 9 110.59 18.5
-6 -4 -9 94.89 26.1
6 -4 9 91.89 19.8
6 4 10 9.8 10.7
6 -4 10 0.2 10.6
6 4 11 12.9 11.7
6 -4 11 13.2 12.8
-6 5 11 7.6 8.6
-6 5 11 -9 7.4
-6 -5 11 3.3 11
-6 5 10 4.5 7.9
-6 5 10 3.7 12
-6 5 9 25.6 10.9
-6 5 9 4.7 7.7
-6 5 8 6.4 8.5
-6 5 8 5.6 7.7
6 -5 -8 18.7 10
-6 5 7 22.6 10.1
-6 5 7 20.2 8.4
6 -5 -7 12.7 8.4
-6 5 6 110.79 16.7
-6 5 6 101.59 12.6
6 -5 -6 84.39 11.7
6 5 -5 406.66 21.8
-6 5 5 341.47 28.5
-6 5 5 386.56 25.7
6 -5 -5 341.67 25
-6 -5 5 381.56 33.7
-6 5 4 133.49 14.7
-6 5 4 166.38 17.2
6 5 -4 187.88 11.5
-6 -5 4 157.38 22.2
6 -5 -4 150.58 14.2
-6 5 3 20.2 8.1
6 -5 -3 21.1 7.3
-6 -5 3 29.6 11.8
-6 5 2 6.9 6.4
-6 -5 2 19.9 11
6 5 -1 20 10.9
-6 -5 1 30.2 11.2
6 -5 -1 38.6 10.3
6 5 0 -0.4 9.6
-6 5 0 -0.3 4.9
-6 -5 0 -12.7 7.1
-6 5 -1 33.2 7.8
6 5 1 57.79 12.6
-6 -5 -1 37.5 10.3
6 5 2 10.8 8.9
-6 -5 -2 9.1 8.6
-6 5 -3 23.3 4.9
6 5 3 20.8 8.7
-6 -5 -3 18.7 8.8
-6 5 -4 205.88 13.2
6 5 4 202.68 20.8
-6 -5 -4 178.58 19.8
6 5 5 -2.4 8.3
-6 -5 -5 -10.4 7.5
-6 -5 -6 54.59 14.2
6 5 7 44.3 14.2
-6 -5 -7 59.19 18.5
6 -5 7 23.2 13
6 5 8 -6 9.9
-6 -5 -8 6.6 11.5
6 -5 8 -1.2 9.9
6 5 9 -8.5 10
6 -5 9 7.5 11.7
6 5 10 20.3 12.8
6 -5 10 6.8 11.9
6 5 11 -2.5 11.4
6 -5 11 6.4 11.9
-6 6 10 5.1 7.9
-6 6 10 -3.8 7.9
-6 6 9 -1.8 7.7
-6 6 9 0.3 7.6
6 -6 -9 6.5 10.1
-6 6 8 94.09 17.5
6 -6 -8 39.7 12.2
-6 6 7 14 12
-6 6 7 13.9 8.6
6 -6 -7 2.4 8.3
-6 6 6 144.29 18.5
-6 -6 6 196.58 29.1
6 -6 -6 141.59 19.8
-6 6 5 8.9 7.2
-6 6 5 5.1 7.7
6 6 -5 3.7 3.3
-6 -6 5 27.9 15.6
6 -6 -5 5.5 8
6 6 -4 302.77 18.5
-6 6 4 314.97 25.4
-6 -6 4 339.27 30.9
6 -6 -4 260.47 22.2
-6 6 3 20.4 8.7
-6 -6 3 4.1 10.6
6 -6 -3 5.5 7.5
-6 6 2 -4.9 5.5
-6 -6 2 2.5 11.3
6 -6 -2 -0.5 6.9
-6 6 1 0.1 5.6
-6 -6 1 0.8 9.3
6 -6 -1 2.6 8.9
6 6 0 54.29 14.3
-6 6 0 72.59 11
6 -6 0 53.89 11.9
-6 -6 0 54.39 12.7
-6 6 -1 62.09 9.9
6 6 1 57.29 14.3
-6 -6 -1 60.79 13.2
6 6 2 78.59 15.5
-6 6 -2 69.69 9.8
-6 -6 -2 61.19 13.6
6 6 3 10.9 9.3
-6 6 -3 13.6 5.3
-6 -6 -3 4.4 9.7
6 6 4 18.1 10.9
-6 6 -4 29.1 5.2
-6 -6 -4 36.1 11.7
6 6 5 4.5 10.8
-6 -6 -5 13 11.1
6 6 6 58.69 15.2
-6 -6 -6 62.49 19.5
6 6 7 33.4 13.7
-6 -6 -7 22.5 14.2
6 6 8 19 13.3
6 -6 8 39.8 16.5
6 6 9 13.3 12.3
6 -6 9 -6.5 10.2
6 6 10 16.5 13.5
6 -6 10 -0.7 12.4
-6 7 10 0.3 7.8
-6 7 10 -2.2 8.9
-6 7 9 -2.7 7.3
-6 7 9 22.8 11.6
6 -7 -9 13.2 10.7
-6 7 8 12.4 10.6
-6 7 8 7.2 8.9
6 -7 -8 19.5 10.6
-6 7 7 21.8 10
-6 7 7 -5.2 7.6
6 -7 -7 3.6 9.8
-6 7 6 144.59 22.7
6 -7 -6 150.98 21.4
6 7 -5 54.09 6.9
-6 7 5 67.79 13.3
-6 -7 5 125.19 28.3
6 -7 -5 64.09 13.9
-6 7 4 45.7 11.9
-6 -7 4 88.19 20.4
6 -7 -4 57.69 12.6
-6 7 3 65.29 12.5
-6 -7 3 43.5 17.2
6 -7 -3 46.4 10.9
-6 7 2 10.6 7.4
-6 -7 2 -0.9 19.7
6 -7 -2 0.9 8.5
-6 7 1 1.3 6.4
-6 -7 1 -0.6 12
6 -7 -1 -15.7 11.4
-6 7 0 0.5 6.2
6 7 0 10.8 12.1
-6 -7 0 -22.5 9.7
6 -7 0 37.8 12.8
-6 7 -1 7.2 6.3
6 7 1 -4.4 11.3
-6 -7 -1 0.5 9.1
6 -7 1 2.8 11.1
-6 7 -2 57.29 9.6
6 7 2 24.1 13.4
-6 -7 -2 26.3 11.9
-6 7 -3 58.79 8.9
6 7 3 58.29 14.9
-6 -7 -3 47.1 15
-6 7 -4 -2 4.1
6 7 4 -5.6 11.3
6 7 5 87.09 17.5
6 7 6 18.3 12.7
-6 -7 -6 19.1 13.7
6 7 7 -17.1 10.2
6 7 8 26.3 14.9
6 -7 8 7.8 14.3
6 7 9 5.9 12.9
6 -7 9 12.9 15.6
6 7 10 8.4 12.8
6 -7 10 -1.1 15.6
-6 8 9 46.1 15.9
-6 8 9 29.2 12.9
-6 8 8 11.5 11.6
-6 8 8 29.2 11.5
6 -8 -8 37.1 12.9
-6 8 7 6.3 8.8
-6 8 7 -2.8 8.4
6 -8 -7 18.1 11
-6 8 6 38.1 13.9
6 -8 -6 35.4 13.3
-6 8 5 16.6 9
6 8 -5 20.1 4.7
6 -8 -5 13.1 10.4
-6 8 4 44.5 12
6 -8 -4 34.9 11.8
-6 8 3 21.6 9.7
6 -8 -3 -2.3 9.7
-6 8 2 35.6 10.5
6 -8 -2 19.5 11.1
-6 -8 2 1.7 17.1
-6 8 1 14.1 7.7
6 -8 -1 -2.6 12.2
-6 -8 1 -3.5 15
-6 8 0 1.2 6.6
-6 -8 0 -19.5 11.8
6 -8 0 -28.5 12.2
6 8 1 -18.1 10.7
-6 8 -1 12.7 7.9
-6 -8 -1 -6.3 11.4
6 -8 1 -24 13.1
6 8 2 43.2 17
-6 8 -2 58.09 10.4
-6 -8 -2 48.5 14.8
-6 8 -3 15.5 7.2
6 8 3 51.49 17.8
-6 -8 -3 5.1 12.1
-6 8 -4 10.8 4.9
6 8 4 -1.2 12.4
-6 -8 -4 5.4 10.6
6 8 5 51.69 17.9
-6 -8 -5 61.49 19.2
6 8 6 -0.7 13
6 8 7 37.5 15.9
6 8 8 54.69 17.3
6 8 9 -4.4 11.6
6 -8 9 17.7 17.5
-6 9 8 0.6 11.2
6 -9 -8 -22 9
-6 9 7 17.9 12.9
6 -9 -7 27.4 15
6 -9 -6 16.8 12.9
6 9 -5 11.5 4.8
6 9 -5 8.5 5.5
-6 9 5 -6.2 8.4
6 -9 -5 5.8 10.9
-6 9 4 0.1 7.4
6 -9 -4 -4.7 10.3
6 -9 -3 36 12.4
-6 9 2 -1.9 7.6
6 -9 -2 9.3 11.7
-6 9 1 5.4 8
6 -9 -1 55.99 16.8
-6 9 0 -6.9 6.1
6 -9 1 60.29 19.3
-6 9 -2 111.99 16.6
6 9 2 96.39 23.4
6 -9 2 141.09 26.4
6 9 3 14.3 16.1
-6 9 -3 14.4 8
-6 9 -4 13 6.1
-6 9 -5 9.5 3.7
6 9 5 6 13.6
6 9 6 -5.5 12.5
6 9 7 -2.3 13.1
6 9 8 7 13.1
-6 10 6 11.4 10
-6 10 5 -4.3 7.5
6 10 -5 -2.5 4
6 10 -5 -1.6 4.2
6 -10 -5 -0.1 12.7
-6 10 4 17.2 13.3
-6 10 3 1.6 10.2
6 -10 -3 32.1 13.4
-6 10 2 4.1 7.7
6 -10 -2 -3.1 10.2
-6 10 1 23.1 11.3
6 -10 -1 6.4 13.6
-6 10 0 15.1 8.8
6 -10 0 8.2 17.6
-6 10 -1 4.8 8.4
-6 10 -2 8 9.1
6 10 3 13.5 15.4
-6 10 -3 23 9.3
-6 10 -4 17.2 8.2
6 10 4 -10.9 12.8
6 10 5 20.6 16.5
6 10 6 13 15.5
-6 11 4 9.2 9.8
6 11 -4 5.3 5.3
6 -11 -4 12.2 14.3
-6 11 3 5 12.3
-6 11 2 12.9 11.4
-6 11 1 18 10.7
-6 11 -1 25.8 16.8
-6 11 -2 19 12
-6 11 -3 3.8 8.7
-6 11 -4 -2.6 4.5
6 11 4 6.4 14.9
-7 0 12 26.1 11
-7 0 12 24.4 9.2
-7 0 11 -3.8 7.9
-7 0 11 1.8 5.2
-7 0 10 101.39 16.7
-7 0 10 127.29 16.7
-7 0 9 -6.7 6.3
-7 0 9 -2.2 5.6
-7 0 8 138.99 16.8
-7 0 8 148.49 15
-7 0 7 6.6 6.2
-7 0 6 972.9 55.39
-7 0 6 925.21 55.19
7 0 -5 1 5.5
-7 0 5 -0.3 4.5
7 0 -4 821.02 48.9
-7 0 4 867.11 48.6
-7 0 3 0.1 3.7
7 0 -3 0.9 4.2
-7 0 2 351.56 21.7
7 0 -2 385.56 23.2
-7 0 2 384.26 22.8
7 0 -1 2.9 5.1
-7 0 1 5.4 4.6
7 0 -1 2.7 4.3
-7 0 1 2.8 4.5
7 0 0 16 6
-7 0 0 16.3 5.7
7 0 0 13.5 5.9
-7 0 0 16.6 5.9
7 0 1 -3.4 4.9
-7 0 -1 2.4 4.7
7 0 1 -3 4.1
7 0 2 3.9 5
-7 0 -2 6.3 5.2
-7 0 -3 -2.5 4.6
7 0 3 -3.9 5.1
-7 0 -4 29.8 9.6
7 0 4 40.3 9.3
7 0 5 -4 6.1
-7 0 -5 -5.6 6.5
7 0 6 29.1 9
-7 0 -6 16.6 9.1
7 0 7 -0.2 6.9
-7 0 -7 -3.6 8.8
7 0 8 -3.9 7
7 0 9 -1.7 8.2
7 0 10 0.5 8.9
7 0 11 -2.3 8.5
7 0 12 62.49 16.7
-7 1 12 -5.6 6.9
-7 1 12 9.3 8.5
-7 -1 12 10.7 8
-7 -1 12 -11 4.9
-7 1 11 57.19 12.3
-7 1 11 73.79 14.6
-7 -1 11 48.2 9.7
-7 -1 11 50.09 14.1
-7 1 10 14.9 8.5
-7 1 10 9.5 8
-7 -1 10 5.6 5.1
-7 -1 10 14.5 10.9
-7 1 9 -1.8 5.7
-7 1 9 2.6 6.4
-7 -1 9 -1.8 4.7
-7 -1 9 -10.7 6.8
-7 1 8 25.8 10.3
-7 1 8 13.4 7.6
-7 -1 8 22.1 6.6
-7 -1 8 13.1 8.9
-7 1 7 16.5 6.7
-7 1 7 28.1 8.3
-7 -1 7 21.6 5.8
-7 1 6 52.89 9.8
-7 1 6 50.19 8.2
-7 -1 6 50.39 8
-7 1 5 70.39 10.7
-7 1 5 82.29 8.9
7 1 -5 56.99 9.3
-7 -1 5 78.19 9.3
-7 1 4 141.19 13.1
7 1 -4 135.69 12
-7 1 4 128.49 10.2
7 -1 -4 108.79 13.3
-7 -1 4 122.49 10.6
7 1 -3 43.9 6.8
-7 1 3 31.6 6.9
-7 -1 3 39.5 5.9
7 -1 -3 39.1 7.6
-7 -1 3 48.3 8.1
-7 1 2 71.09 8.6
7 1 -2 61.59 7.4
-7 -1 2 63.19 7.2
-7 -1 2 81.19 9.6
7 -1 -2 60.79 8.5
7 1 -1 83.09 9
-7 1 1 113.69 10
-7 1 1 99.29 7.9
7 1 -1 84.79 12.1
7 -1 -1 88.79 10
7 -1 -1 121.69 7.6
-7 -1 1 101.19 10.2
-7 1 0 -0.4 4.3
7 1 0 6.2 6.1
-7 1 0 0.8 4.3
7 -1 0 1.2 4.2
7 -1 0 1.1 4.5
-7 -1 0 11.1 6.1
-7 1 -1 216.38 15.1
7 1 1 236.58 16.2
-7 1 -1 220.68 16.5
-7 -1 -1 226.88 15.9
7 -1 1 223.58 16
7 -1 1 216.58 14.8
-7 1 -2 40 8.3
7 1 2 36.2 7.3
7 -1 2 32.4 7.1
-7 -1 -2 33.2 6.9
7 -1 2 39.9 5.9
7 1 3 394.86 26.4
-7 1 -3 358.66 27.6
7 -1 3 431.66 27.5
-7 -1 -3 409.26 26.8
-7 1 -4 535.55 36.4
7 1 4 540.05 34.6
7 -1 4 526.45 35.3
-7 -1 -4 530.25 35.1
7 1 5 37.3 9.6
7 -1 5 41.6 9.9
-7 -1 -5 41.6 9.7
7 1 6 14.7 8.1
7 -1 6 21.2 8.8
-7 -1 -6 37.3 10.5
7 1 7 94.99 15.3
-7 -1 -7 79.49 15.9
7 -1 7 86.29 15.3
7 1 8 1.6 9
-7 -1 -8 5.1 9.7
7 -1 8 6.9 9
7 1 9 6.3 9.2
-7 -1 -9 14.6 13.5
7 -1 9 8.2 9.6
7 1 10 5.6 9.2
7 -1 10 12.3 9.8
7 1 11 5.5 10.2
7 -1 11 7.3 11
7 1 12 17.6 12.1
7 -1 12 15.8 11
-7 2 12 35.8 10.7
-7 2 12 18.5 11
-7 -2 12 27.5 7.1
-7 -2 12 32.2 13.3
-7 2 11 22.4 10.4
-7 2 11 21.5 9
-7 -2 11 15.3 6.1
-7 -2 11 16.9 12.8
-7 2 10 9 7.4
-7 2 10 19 10.8
-7 -2 10 10.8 10.2
-7 -2 10 19.6 6.1
-7 2 9 0.8 6.3
-7 2 9 -9.7 5.7
-7 -2 9 8.2 9.4
-7 -2 9 -2 4.4
-7 2 8 -0.8 6
-7 2 8 6 5.9
-7 -2 8 2.1 4.1
-7 2 7 75.19 12.9
-7 2 7 74.59 10.2
-7 -2 7 80.49 8.3
-7 2 6 72.79 11.8
-7 2 6 61.19 8.7
-7 -2 6 61.99 7.4
7 2 -5 229.98 15.9
-7 2 5 217.78 18.7
-7 2 5 194.08 14.3
-7 -2 5 221.78 14.5
-7 2 4 134.39 14
7 2 -4 120.39 10.8
-7 -2 4 121.39 10.2
7 2 -3 50.39 6.7
-7 2 3 49.2 9.3
-7 -2 3 46.7 6.3
-7 -2 3 46.5 9.8
7 -2 -3 39.1 8.5
7 2 -2 97.39 8.7
-7 2 2 100.49 10.8
-7 -2 2 110.89 12.6
7 -2 -2 83.59 10.1
7 2 -1 25 7.9
-7 2 1 19.1 5.6
7 -2 -1 15 3.6
7 -2 -1 8.6 4.9
-7 -2 1 9.8 5.7
-7 2 0 90.69 8.9
7 2 0 79.69 10.6
7 -2 0 68.59 8.4
-7 -2 0 88.39 10.7
7 -2 0 93.89 9.1
-7 2 -1 162.68 11.6
7 2 1 145.19 13.2
7 -2 1 141.99 13
7 -2 1 147.59 11.5
-7 -2 -1 158.78 13.4
7 2 2 38.3 8.1
-7 2 -2 41.5 5.9
-7 -2 -2 35.2 7.3
7 -2 2 28.6 5.2
7 -2 2 31.1 7.7
7 2 3 419.46 28
7 -2 3 408.76 24.8
7 -2 3 433.26 29.1
-7 -2 -3 425.16 30
7 -2 4 124.19 10.4
7 -2 4 120.69 17.2
-7 -2 -4 128.89 14.6
7 2 5 78.19 12.1
7 -2 5 61.59 7.8
7 -2 5 72.79 13.2
-7 -2 -5 78.09 12.7
7 2 6 0.7 6.8
7 -2 6 16 8.2
-7 -2 -6 26.4 9.6
7 2 7 7.4 8.3
-7 -2 -7 -3.8 7.2
7 -2 7 5.8 8.2
7 2 8 3.8 9
7 -2 8 1.8 9.3
-7 -2 -8 11.2 11.3
7 2 9 0.3 8.7
7 -2 9 17 11.6
-7 -2 -9 -11.6 11.8
7 2 10 8.7 10.3
7 -2 10 13.9 11.7
7 2 11 5.3 10.3
7 -2 11 18.4 11.9
7 2 12 10.9 12.3
7 -2 12 9.1 11.3
-7 3 12 2.5 9.4
-7 3 12 -11.4 6.9
-7 -3 12 14.3 4.9
-7 -3 12 17.8 12.9
-7 3 11 17.9 8.2
-7 3 11 37.3 11.7
-7 -3 11 22.2 5.1
-7 -3 11 48.7 15.5
-7 3 10 2.1 6
-7 3 10 13.2 10.6
-7 -3 10 1.5 3.8
-7 -3 10 4.8 9.1
-7 3 9 -4.6 6.2
-7 3 9 -3.2 6.4
-7 -3 9 1.2 3.6
-7 3 8 13 6.7
-7 3 8 17.9 9.1
-7 -3 8 25 5.1
-7 3 7 42.8 7.8
-7 3 7 59.29 12.4
-7 -3 7 42.6 5.8
7 3 -6 1.3 4.3
-7 3 6 7.5 4.4
-7 3 6 -1.3 5.9
7 3 -5 91.19 9
-7 3 5 89.79 14
-7 3 4 415.06 28.7
7 3 -4 391.96 23.7
-7 -3 4 391.36 29.3
7 3 -3 21.2 5
-7 3 3 10.3 6.7
-7 -3 3 4.7 9.1
-7 3 2 20.6 7.2
-7 -3 2 18.3 8.9
7 3 -1 26.5 9.6
-7 3 1 39.4 7.7
7 -3 -1 29.1 7.2
-7 -3 1 26.6 8
-7 3 0 99.99 10.4
7 3 0 115.49 14
7 -3 0 86.39 10
-7 -3 0 95.89 12.7
7 3 1 71.29 10.8
-7 3 -1 66.19 8
7 -3 1 63.69 8.2
-7 -3 -1 58.09 10.3
-7 3 -2 70.89 7.8
7 3 2 63.69 10.4
7 -3 2 65.69 8
-7 -3 -2 45 9.5
7 3 3 56.99 12.1
7 -3 3 52.39 11.4
-7 -3 -3 43.9 9.4
7 -3 3 57.59 7
7 3 4 220.88 18.8
7 -3 4 206.28 13.8
7 -3 4 212.88 20.2
-7 -3 -4 182.58 17.9
7 3 5 21.8 8.7
7 -3 5 22.3 4.5
7 -3 5 13.9 8.6
-7 -3 -5 13.3 8.4
7 3 6 25.6 9.7
-7 -3 -6 6.3 8.7
7 -3 6 12 4.1
7 -3 6 12.4 8.9
7 3 7 32.2 11.8
-7 -3 -7 43 12.1
7 -3 7 43.1 6.1
7 -3 7 39.6 13.5
7 3 8 77.69 16.3
7 -3 8 67.59 8.3
7 -3 8 88.59 17.3
-7 -3 -8 68.99 17.3
7 3 9 7.7 10.2
7 -3 9 4.6 10.4
7 -3 9 18.7 5.2
7 3 10 1 9
7 -3 10 1.6 4.3
7 -3 10 -2.9 9.6
7 3 11 -13.8 8.7
7 -3 11 -4 9
7 -3 11 -10.3 5.1
-7 4 11 -5.9 7
-7 4 11 3.6 10.6
-7 -4 11 -1.2 9.9
-7 4 10 3 6.6
-7 4 10 1.6 8
-7 4 9 7.2 8.8
-7 4 8 -5.2 5.9
-7 4 8 2.7 8
-7 4 7 26.7 9.8
-7 4 7 27.7 7.6
-7 4 6 -1.6 5
7 4 -6 11.6 4.4
-7 4 6 4.4 6.4
7 -4 -6 4.3 5.4
-7 4 5 371.56 26.5
-7 4 5 298.87 20.4
7 4 -5 334.17 19.8
7 -4 -5 299.07 20.1
-7 4 4 196.48 18.1
7 4 -4 202.08 13
-7 4 4 154.88 13.8
-7 -4 4 200.68 22
7 -4 -4 197.98 13.3
7 4 -3 1505.25 84.69
-7 4 3 1615.24 89.89
7 -4 -3 1729.43 84.79
-7 -4 3 1449.15 90.09
-7 -4 2 508.55 34.9
7 4 -1 8.7 11.2
-7 4 1 6.4 6
7 -4 -1 1 6.1
7 4 0 209.08 23.7
-7 4 0 283.87 19.8
-7 -4 0 277.67 22.2
7 -4 0 244.78 19.6
7 4 1 395.46 31.9
-7 4 -1 351.76 22.9
7 -4 1 335.97 23.3
-7 -4 -1 329.17 26
7 4 2 20.9 9.4
-7 4 -2 32.2 6
7 -4 2 23.8 6
-7 -4 -2 22.1 9.1
7 4 3 15 8.5
-7 4 -3 10.3 4.5
-7 -4 -3 -1.2 7.1
7 -4 3 3.7 4
7 4 4 141.89 16.8
-7 -4 -4 134.09 16
7 -4 4 142.49 11
7 4 5 112.59 16.3
7 -4 5 117.19 9.3
7 -4 5 116.49 17.6
-7 -4 -5 103.89 16
7 4 6 13.4 10
-7 -4 -6 7.1 9.3
7 -4 6 1.8 9.3
7 -4 6 5.3 3.3
7 4 7 9.2 10.8
-7 -4 -7 10.7 13.8
7 -4 7 6 10.9
7 -4 7 12 3.6
7 4 8 21.2 12.1
-7 -4 -8 4.1 11
7 -4 8 14.7 12.9
7 4 9 27.2 12.5
7 -4 9 -2.1 11.4
7 4 10 8.1 10.9
7 -4 10 13.2 12.1
7 4 11 13.2 12.7
7 -4 11 26.3 14
-7 5 11 49.5 11.7
-7 5 11 75.99 16.9
-7 5 10 14 8.1
-7 5 10 8.9 13.8
-7 5 9 -3.1 7.8
-7 5 8 6.1 7.1
-7 5 8 24.2 10.3
-7 5 7 -0.8 7.1
-7 5 7 -6.1 6.3
7 -5 -7 -1.5 6.3
-7 5 6 33.7 8.8
7 5 -6 42.3 5.4
-7 5 6 39 10.9
7 -5 -6 42.9 8.1
-7 5 5 3.7 6.1
7 5 -5 7.6 3.5
-7 5 5 5 6.8
-7 -5 5 -0.1 11.4
7 -5 -5 0.1 4.9
7 5 -4 3.5 3.7
-7 5 4 4.6 6.4
7 -5 -4 7.7 5.7
-7 -5 4 15.4 11.6
-7 5 3 326.87 25.5
7 -5 -3 323.27 22.1
-7 -5 3 344.57 28.8
-7 5 2 17.7 7.1
7 -5 -2 10.2 7.1
-7 -5 2 1.9 10
7 5 -1 8.9 10.2
-7 5 1 9.9 6.6
7 -5 -1 59.79 10.1
-7 -5 1 26 10.2
7 5 0 26.5 11.5
-7 5 0 2.7 5.2
-7 -5 0 16.5 9.4
-7 5 -1 34.9 7.4
7 5 1 66.89 13.8
-7 -5 -1 14.7 9.2
7 5 2 -3.1 7.9
-7 5 -2 1.4 4.5
-7 -5 -2 1.2 8.3
7 -5 2 -2.8 4.5
-7 5 -3 106.19 9.6
7 5 3 85.69 14
-7 -5 -3 83.89 14.4
7 -5 3 92.19 11
-7 5 -4 7.5 3.7
7 5 4 1.8 8.3
-7 -5 -4 7.8 8.1
7 -5 4 0.1 3.9
7 5 5 42.4 12.5
-7 -5 -5 35.2 11.7
7 -5 5 45.1 6.5
7 5 6 3.1 10
-7 -5 -6 17.2 10.7
7 -5 6 -10.2 8.8
7 5 7 109.59 19.3
-7 -5 -7 101.79 19.5
7 -5 7 106.09 20.4
7 5 8 22.9 12.7
-7 -5 -8 21.3 13
7 -5 8 22.1 13
7 5 9 -4.5 12.3
7 -5 9 11.4 12.7
7 5 10 12.7 12.9
7 -5 10 30.2 14.6
7 5 11 15.2 12.6
7 -5 11 -11.5 11
-7 6 10 10.4 8.1
-7 6 10 1.1 8.2
-7 6 9 -0.7 8.6
-7 6 9 21.1 9.1
-7 6 8 40.9 12.7
-7 6 8 10.5 8.7
7 -6 -8 19 10
-7 6 7 -0.1 7.5
7 -6 -7 19.9 9
-7 6 6 3.2 8
-7 6 6 13.4 8.2
7 -6 -6 11 7.4
-7 -6 6 4.5 16.4
7 6 -5 192.88 12.8
-7 6 5 183.98 20
-7 -6 5 207.28 29.3
7 -6 -5 161.58 17.4
-7 6 4 -3.8 5.5
7 -6 -4 2.2 6.9
-7 -6 4 15.6 14.3
-7 6 3 13.1 7.4
7 -6 -3 12.3 7.5
-7 -6 3 22.4 12.3
-7 6 2 65.19 11.3
-7 -6 2 12.5 12.5
7 -6 -2 33.6 9.6
-7 6 1 1.5 5.8
7 -6 -1 5.8 15.5
-7 -6 1 -3.4 9.5
-7 6 0 -6 4.8
7 6 0 3.9 10.4
-7 -6 0 -12.1 8
7 -6 0 -12.2 7.8
-7 6 -1 13.1 6.4
7 6 1 17 11.8
-7 -6 -1 14.5 9.7
-7 6 -2 17.1 6.1
7 6 2 21.5 11.1
-7 -6 -2 23.9 10.8
-7 6 -3 21.8 5.9
7 6 3 21.4 10.5
-7 -6 -3 -4.3 8.7
-7 6 -4 17.2 4.7
7 6 4 15.2 9.9
-7 -6 -4 28.8 11.5
7 6 5 5.3 11.3
-7 -6 -5 18.1 11.3
7 6 6 60.69 15.1
-7 -6 -6 33.2 14.9
7 6 7 2.5 11.7
7 -6 7 -2.8 11.2
-7 -6 -7 -1.7 12.3
7 6 8 28.6 15
7 -6 8 16.6 14
7 6 9 -3.6 11.2
7 -6 9 -5.8 12.2
7 6 10 -1.6 11.5
7 -6 10 -5.1 10.6
-7 7 10 7.9 8.3
-7 7 10 -6.7 8.4
-7 7 9 3.5 8.3
-7 7 9 16.1 10.7
7 -7 -9 -12.7 8.1
-7 7 8 0.1 8.9
7 -7 -8 -0.4 8.8
-7 7 7 33.4 11.3
-7 7 7 19.4 9.9
7 -7 -7 13.3 9.3
-7 7 6 3.5 8
7 -7 -6 17.6 10.5
-7 7 5 155.98 18.5
7 7 -5 130.19 10.6
7 -7 -5 117.89 20.6
-7 7 4 91.99 15
-7 -7 4 54.89 20.2
7 -7 -4 44.3 13
-7 7 3 3.6 7.8
7 -7 -3 5.6 8.4
-7 -7 3 3.6 13.5
-7 7 2 32.5 10
7 -7 -2 18.5 10
-7 -7 2 20.1 16.9
-7 7 1 46.2 10.7
-7 -7 1 46.5 16.8
7 -7 -1 43.8 14.3
-7 7 0 41 9.6
7 7 0 49.3 15.8
-7 -7 0 9.4 12
7 -7 0 38 13.9
7 7 1 2.4 11.9
-7 7 -1 9.4 7.5
7 -7 1 28.5 12.2
-7 -7 -1 -0.2 10.3
7 7 2 33 13.7
-7 -7 -2 16.8 11.9
-7 7 -3 3.2 5.2
7 7 3 12.8 11.7
-7 7 -4 -1.6 4.3
7 7 4 0.3 11
-7 -7 -4 1.6 10.3
7 7 5 40.8 14.3
-7 -7 -5 28 13.5
7 7 6 90.79 18.6
-7 -7 -6 41.5 15.9
7 7 7 14.3 13.9
7 7 8 27.4 13.8
7 -7 8 3.7 12.6
7 7 9 11.2 13.5
7 -7 9 14.8 14.1
-7 8 9 18.8 11.7
7 -8 -9 0 9.3
-7 8 8 6.4 8.5
7 -8 -8 -4.3 7.9
-7 8 7 10 9.6
7 -8 -7 -1 10
-7 8 6 48 12.8
7 -8 -6 28 14
7 8 -5 3.6 4.4
-7 8 5 3.6 8.4
-7 8 4 7.3 8
7 -8 -4 -3.8 9.4
-7 8 3 18.2 9
7 -8 -3 0.8 9.5
-7 8 2 36 11.6
7 -8 -2 73.89 13.9
-7 -8 2 85.49 20.6
-7 8 1 29.9 9.6
-7 -8 1 -4.7 14.8
7 -8 -1 33.6 13.9
-7 8 0 3.7 7.1
7 -8 0 -29 12.3
-7 -8 0 -20.9 12.6
7 8 1 15.5 15.7
-7 8 -1 33.1 9.6
-7 -8 -1 16.8 14.9
7 -8 1 61.99 18.2
-7 8 -2 121.79 15
7 8 2 125.89 23.8
-7 -8 -2 64.99 17.2
7 8 3 9.4 15.4
-7 -8 -3 34.5 15.1
7 8 4 51.89 17.9
-7 8 -4 76.09 9.4
-7 -8 -4 26.8 14.3
7 8 5 44.5 17.4
7 8 6 -0.2 12.5
7 8 7 33.3 15.3
7 8 8 -1.9 12.1
7 -8 8 13.3 17.9
7 8 9 -10.6 11.6
7 -8 9 1.7 15.7
-7 9 8 3.9 10.1
7 -9 -8 -2.3 10.5
-7 9 7 1.7 9.2
7 -9 -7 -6.6 9.1
-7 9 6 20.7 11.5
7 -9 -6 9.1 13.9
-7 9 5 -1.9 7.6
7 9 -5 1.4 4.7
7 -9 -5 4.8 10.7
-7 9 4 13 10.3
7 -9 -4 10.4 10.6
-7 9 3 -4.2 8.6
7 -9 -3 9.3 10.3
-7 9 2 25.5 11.3
7 -9 -2 0.3 11.7
-7 9 1 -2.3 8.2
7 -9 -1 60.09 16.5
7 -9 0 100.29 32.4
-7 9 -1 11 8.1
7 -9 1 11.8 16.5
-7 9 -2 2.7 7.8
7 -9 2 2.1 15.7
-7 9 -3 8 6.9
7 9 3 -11.3 16.7
-7 9 -4 14.6 7.2
7 9 4 33.4 17.4
-7 9 -5 9.9 4
7 9 5 -6.5 11
7 9 6 11.8 13.5
7 9 7 10.6 15.3
-7 10 6 7.1 10.6
7 -10 -6 30.4 15.4
7 10 -5 -3.6 5.7
7 10 -5 4.2 3.7
-7 10 5 7.2 9.5
7 -10 -5 -6.7 11.6
-7 10 4 11.5 11.7
7 -10 -4 4.1 11.1
-7 10 3 1.5 7.8
7 -10 -3 -22.3 11.5
-7 10 2 -0.2 9.3
7 -10 -2 0.6 10.5
-7 10 1 4.4 10.2
7 -10 -1 -21.9 12.9
-7 10 0 1.6 9.3
7 -10 0 0 16.2
-7 10 -1 25.1 11.4
-7 10 -2 3.9 8.8
7 10 3 56.89 20
-7 10 -3 47.9 11.4
7 10 4 30.8 17.9
-7 10 -4 40.8 8.3
7 10 5 2.2 15.1
-7 10 -5 7.6 3
7 10 6 -3.3 12.7
-7 11 4 27.5 13.1
7 -11 -4 31.6 14.2
7 -11 -3 -7.4 11.4
-7 11 2 32.5 10.4
-7 11 1 1.5 10.3
-7 11 0 9.6 12.5
-7 11 -1 18.8 11.7
-7 11 -2 44.8 15
-7 11 -3 -5.9 7.6
7 11 4 15 16.6
-8 0 12 208.08 22.4
-8 0 12 210.48 23.3
-8 0 11 -5.2 5.1
-8 0 11 3.9 7.9
-8 0 10 149.49 17.2
-8 0 10 169.38 19.4
-8 0 9 -2.5 7
-8 0 9 0.3 5.3
-8 0 8 79.99 13.5
-8 0 8 104.59 12.9
-8 0 7 -3.2 5.6
-8 0 7 -1.3 4.5
-8 0 6 404.06 27.1
-8 0 5 -3.3 4.1
8 0 -5 -0.7 5.2
8 0 -4 1189.48 69.99
-8 0 4 1304.07 69.69
-8 0 3 4 4.3
-8 0 3 -1.1 4.1
8 0 -3 -0.1 4.5
-8 0 2 459.85 25.7
8 0 -2 380.06 24.6
-8 0 2 411.36 24
8 0 -2 424.36 25.8
-8 0 1 5.6 3.6
-8 0 1 -0.2 4
8 0 -1 -0.8 3.7
8 0 -1 2.2 4.1
8 0 0 123.69 10.3
-8 0 0 118.49 10.5
-8 0 0 102.99 10.3
8 0 1 -5 3.9
-8 0 -1 -1.6 4.2
8 0 1 0.1 4.4
8 0 2 454.65 28.4
-8 0 -2 444.76 28.6
8 0 3 6.1 6
-8 0 -3 -4.3 5.1
8 0 4 1 10
-8 0 -4 13.1 7.3
-8 0 -5 6.7 7.3
8 0 5 7.1 7
8 0 6 39.6 10.3
-8 0 -6 40.3 11.2
-8 0 -7 3 10.1
8 0 7 -3.9 6.5
8 0 8 15 9.9
8 0 9 -0.5 8.4
8 0 10 27.1 11.5
8 0 11 12.4 10.7
8 0 12 13 12.2
-8 1 12 3.2 7.4
-8 1 12 11.2 8.4
-8 -1 12 23.7 13.7
-8 -1 12 0.8 5.9
-8 1 11 6 7.8
-8 1 11 -10.3 5.6
-8 -1 11 9.2 9.1
-8 -1 11 2.6 5.3
-8 1 10 12.4 8.2
-8 1 10 16.8 8.5
-8 -1 10 11.9 10.1
-8 -1 10 14.6 6.7
-8 1 9 4.2 7.3
-8 1 9 -1.7 6.4
-8 -1 9 -12.3 6.9
-8 -1 9 2.2 5.2
-8 1 8 80.09 13.1
-8 1 8 87.59 12
-8 -1 8 60.89 12.6
-8 1 7 92.89 13.5
-8 1 7 95.09 11.5
-8 -1 7 97.39 10.8
-8 1 6 270.57 18.7
8 1 -6 246.68 19.9
-8 1 6 275.97 21.3
-8 -1 6 261.37 18.6
-8 1 5 -0.4 5.3
-8 1 5 1.9 4.4
8 1 -5 7.6 5.2
8 -1 -5 -4.1 5.3
-8 -1 5 2.7 4.2
-8 1 4 16 4.5
8 1 -4 16 5.8
-8 1 4 15.3 6.5
-8 -1 4 4 4.3
8 1 -3 215.68 15.1
-8 1 3 202.38 15.9
-8 -1 3 224.18 14.5
-8 -1 3 177.68 15.9
8 -1 -3 185.58 16.1
-8 1 2 101.09 9.9
8 1 -2 81.09 8.6
8 1 -2 91.99 11.3
-8 -1 2 93.39 8.9
8 -1 -2 83.79 9.9
-8 -1 2 88.69 10.7
8 1 -1 93.49 11.4
-8 1 1 102.39 8.1
-8 1 1 93.09 9.7
8 1 -1 115.89 9.6
8 -1 -1 96.09 10.1
-8 -1 1 87.89 10
8 -1 -1 104.49 7.7
8 1 0 110.39 9.8
-8 1 0 86.69 9.4
-8 1 0 91.69 9.1
8 1 0 104.19 10.7
8 -1 0 106.39 9.8
8 -1 0 101.69 9
-8 -1 0 108.09 9.9
-8 1 -1 95.19 9.2
8 1 1 95.59 10
-8 1 -1 69.89 10
-8 -1 -1 91.09 9.9
8 -1 1 86.79 8.6
8 -1 1 88.69 9.4
-8 1 -2 5.4 5.5
8 1 2 4.7 5.5
-8 -1 -2 -3.2 4.6
8 -1 2 1.6 3.8
8 -1 2 -3.6 4.7
8 1 3 24.8 7.7
-8 1 -3 20.1 9.4
8 -1 3 25.6 5.9
8 -1 3 33.4 8.1
-8 1 -4 9.9 8.7
8 1 4 21.7 16.8
-8 -1 -4 18.3 8
-8 1 -5 177.38 19.3
8 1 5 162.88 17.4
-8 -1 -5 173.88 17.9
8 -1 5 177.78 17.9
8 1 6 3.3 7.6
8 -1 6 3.1 7
-8 -1 -6 11.2 8.3
8 1 7 68.69 13.5
-8 -1 -7 58.49 14.4
8 -1 7 67.19 13.9
8 1 8 10.2 9.6
-8 -1 -8 1.5 11.5
8 -1 8 -6.1 7.7
8 1 9 16.4 10.3
8 -1 9 -2.6 8.5
8 1 10 8.2 9.9
8 -1 10 2.9 9
8 1 11 13.3 11.6
8 -1 11 -0.6 8.6
8 1 12 -5.8 10.3
8 -1 12 1.6 9.5
-8 2 12 11.6 7.3
-8 2 12 -4.4 8.3
-8 -2 12 3.6 5.1
-8 -2 12 0 10.4
-8 2 11 44.9 10.2
-8 2 11 48.4 15.2
-8 -2 11 23 12.9
-8 -2 11 34.5 7.5
-8 2 10 1.3 6.5
-8 2 10 11.8 8.1
-8 -2 10 1.1 9.5
-8 2 9 6.5 7.6
-8 2 9 -4.7 6.1
-8 -2 9 1.7 4.3
-8 -2 9 1.9 8.5
-8 2 8 34.2 9.5
-8 2 8 26.3 7.4
-8 -2 8 27.9 6.4
-8 2 7 182.98 14.8
-8 2 7 197.08 18.9
-8 -2 7 176.68 13.8
-8 2 6 25 5.7
8 2 -6 22.1 6.7
-8 2 6 21.4 7.9
-8 -2 6 23.5 5.1
-8 2 5 748.73 45.1
8 2 -5 693.93 41.5
-8 -2 5 709.33 40.5
8 2 -4 2.9 4.5
-8 2 4 0.8 6.6
-8 -2 4 3.7 4
8 -2 -4 1.3 6.1
-8 -2 4 0 7.4
8 2 -3 32.6 6.1
-8 2 3 27 7.7
-8 -2 3 42 10.2
8 -2 -3 39 8.6
8 2 -2 11.4 8
-8 2 2 2.7 4.9
8 2 -2 4.2 4
8 -2 -2 0.1 4.8
-8 -2 2 3.4 6.8
-8 2 1 235.78 16.7
8 2 -1 227.98 15.6
8 2 -1 238.18 18.6
-8 -2 1 209.98 17
8 -2 -1 220.48 16.7
8 -2 -1 218.48 13.8
-8 2 0 -4.5 3.4
8 2 0 0.7 5.5
-8 -2 0 1.9 5.5
8 -2 0 3.1 4.6
8 -2 0 2.7 3.8
-8 2 -1 179.68 13.2
8 2 1 180.38 15.2
8 -2 1 186.18 13.6
8 -2 1 169.98 14.3
-8 -2 -1 180.88 15
8 2 2 622.14 36.6
-8 2 -2 598.04 34.5
-8 -2 -2 615.14 36.6
8 -2 2 558.44 36.5
8 -2 2 594.64 34.5
8 2 3 65.79 11.1
-8 -2 -3 96.89 12.2
8 -2 3 75.29 8.6
8 -2 3 81.69 12.4
8 2 4 32.1 9.8
8 -2 4 51.79 11.1
8 -2 4 52.69 7
-8 -2 -4 49.6 10
8 2 5 115.89 15
-8 -2 -5 113.69 14.8
8 -2 5 100.79 9.8
8 -2 5 107.69 14.8
8 2 6 129.39 16.7
-8 -2 -6 98.39 16.4
8 -2 6 134.39 16.6
8 2 7 8.1 9.4
-8 -2 -7 7.9 9.1
8 -2 7 17.1 9.6
8 2 8 -7 8.2
-8 -2 -8 18.2 12.6
8 -2 8 11.2 9.7
8 2 9 50.49 14.5
8 -2 9 29.9 16.6
8 2 10 72.29 15.6
8 -2 10 48.7 16.1
8 2 11 16.2 11.7
8 -2 11 12 11.3
8 2 12 5.6 11.9
8 -2 12 0.4 11
-8 3 12 -1.2 7.1
-8 3 12 9.8 10.3
-8 -3 12 6.7 4.4
-8 -3 12 13.7 12.3
-8 3 11 -1.9 7.8
-8 3 11 0.7 5.9
-8 -3 11 -3.7 9.4
-8 -3 11 -4.3 3.7
-8 3 10 33.4 8.6
-8 3 10 18.1 11.5
-8 -3 10 -2.4 8.9
-8 -3 10 10.6 4.6
-8 3 9 1.8 5.7
-8 3 9 -11.7 6.8
-8 -3 9 -5.1 3.5
-8 3 8 -1.8 5.3
-8 3 8 7.5 7.5
-8 -3 8 2.4 3.9
-8 3 7 43.7 7.4
-8 3 7 54.09 11.5
-8 -3 7 43.9 6.3
8 3 -6 7.7 4.9
-8 3 6 13.9 5
-8 3 6 16.6 8.2
-8 3 5 6.2 6.4
8 3 -5 -4.4 3.8
8 3 -4 10.2 4.4
-8 3 4 4.8 6.6
-8 -3 4 10 9.2
-8 3 2 281.47 20.6
8 3 -2 264.47 17.3
-8 -3 2 180.18 30.4
8 -3 -2 261.27 20.3
8 3 -1 104.39 14.8
-8 3 1 81.29 11
8 -3 -1 86.59 11.5
-8 -3 1 96.19 13.9
-8 3 0 76.79 9.8
8 3 0 85.29 12.7
-8 -3 0 62.69 11.1
8 -3 0 64.89 9.5
-8 3 -1 13.3 5.2
8 3 1 17.7 7.5
8 -3 1 15.2 6.6
8 -3 1 4.4 4.9
-8 -3 -1 13.5 9
-8 3 -2 279.67 18.2
8 3 2 218.28 21.5
8 -3 2 290.77 22
8 -3 2 294.97 18.9
-8 -3 -2 296.37 21.7
8 3 3 24.5 9.1
-8 -3 -3 34.4 8.5
8 -3 3 29.8 5.8
8 -3 3 32.7 9.6
8 3 4 3.9 7.5
-8 -3 -4 0.2 6.4
8 -3 4 9.6 8
8 -3 4 7.6 3.9
8 3 5 32.8 9.9
8 -3 5 32 10.5
8 -3 5 32.2 5.6
-8 -3 -5 27.5 9.8
8 3 6 35.2 10.8
8 -3 6 40.9 11.8
8 -3 6 50.69 6.5
-8 -3 -6 30.1 11
8 3 7 2.8 9.5
8 -3 7 1.3 4
8 -3 7 3.4 8.4
-8 -3 -7 -5.1 8.5
8 3 8 12.9 11.1
-8 -3 -8 9.1 10
8 -3 8 17.5 5.3
8 -3 8 12.7 11.3
8 3 9 0 10.7
8 -3 9 10.2 5
8 -3 9 16 11.3
8 3 10 15.7 12.1
8 -3 10 16.4 8.5
8 -3 10 25.7 13
8 3 11 9 10.5
8 -3 11 -1.1 10.1
-8 4 11 31.3 9.2
-8 4 11 19.2 14.8
-8 -4 11 24.1 14.1
-8 4 10 40.4 10.3
-8 4 10 52.49 13.6
-8 4 9 3.8 6.5
-8 4 8 37 11.8
-8 4 8 20.7 7.3
-8 4 7 8.2 8.1
-8 4 7 22.4 6.7
-8 4 6 105.09 15
-8 4 6 70.39 9
8 4 -6 86.59 9
-8 4 5 7 7.1
8 4 -5 1.7 3.9
-8 -4 5 -2.8 9.6
8 4 -4 5.7 3.9
-8 4 4 11.1 7
-8 -4 4 20 11.4
-8 4 3 428.56 30
8 4 -3 411.56 25.2
-8 -4 3 425.56 32.7
-8 4 2 240.58 20
8 -4 -2 261.87 21
-8 -4 2 230.58 22.4
8 -4 -2 230.68 17.4
-8 4 1 12.8 6.7
8 4 -1 92.69 17.9
8 -4 -1 16.3 7.5
-8 -4 0 193.08 18.8
-8 4 -1 5.4 4.9
8 -4 1 2.7 5
-8 -4 -1 0.2 7.5
-8 4 -2 115.39 10.8
8 4 2 108.59 14.9
8 -4 2 125.29 11.5
-8 -4 -2 107.39 14.7
-8 4 -3 46.6 6.7
8 4 3 36.1 10.3
-8 -4 -3 32.9 9.5
8 -4 3 48 7
8 4 4 15.9 8.8
8 -4 4 16.1 9.7
-8 -4 -4 15.3 8.4
8 -4 4 19.1 5.2
8 4 5 27.4 10.5
8 -4 5 18.4 10
-8 -4 -5 12.8 9.2
8 -4 5 16.2 4.6
8 4 6 15.3 10.4
8 -4 6 7.5 9.7
-8 -4 -6 5.6 9.4
8 -4 6 9.4 4.2
8 4 7 5.9 10.2
8 -4 7 4.3 3.4
8 -4 7 -5.7 9
-8 -4 -7 -9.7 9.6
8 4 8 -6.9 9.7
-8 -4 -8 18 12.2
8 -4 8 3.5 3.3
8 -4 9 4.9 10.7
8 -4 9 -0.1 3.1
8 4 10 10 11.6
8 -4 10 -7 9.6
8 4 11 1.9 12
8 -4 11 -5.5 11.1
-8 5 11 4.4 9.3
-8 5 11 21.7 9.5
-8 5 10 -3 7.2
-8 5 10 7.4 9.4
-8 5 9 0.5 6.9
-8 5 9 -1.9 8.7
-8 5 8 48.8 9.6
8 5 -6 9.4 4.6
-8 5 6 -3 6.7
8 -5 -6 4.5 5
-8 5 5 2.2 6.7
8 5 -5 -0.3 3.4
8 -5 -5 2.1 4.4
-8 -5 5 -3.5 12.1
8 5 -4 103.89 9.4
-8 5 4 116.19 15.9
8 -5 -4 97.99 10.6
-8 -5 4 130.49 19.9
-8 5 3 70.49 12.3
-8 -5 3 73.79 15
8 -5 -3 76.29 9.7
-8 5 2 83.39 12.7
8 -5 -2 54.69 10.2
-8 -5 2 74.99 15.1
8 5 -1 71.89 16
-8 5 1 67.49 11.3
8 -5 -1 71.89 11.4
-8 -5 1 69.59 13.4
8 5 0 16 10.9
-8 5 0 -3.7 5.4
8 -5 0 -7.2 4.8
-8 -5 0 -8.6 7.1
8 5 1 130.69 17.4
-8 5 -1 126.19 12.9
8 -5 1 136.29 13.7
-8 -5 -1 93.59 14.8
8 5 2 15.2 9.5
-8 5 -2 28.2 6.4
-8 -5 -2 17 9.7
8 -5 2 28.9 7.1
-8 5 -3 180.58 12.8
8 5 3 142.69 17.7
-8 -5 -3 113.29 17.3
8 -5 3 161.58 13.7
-8 5 -4 246.78 15.6
8 5 4 191.28 21.7
8 -5 4 234.78 16.8
8 5 5 70.79 14.7
-8 -5 -5 36.6 12.1
8 -5 5 78.89 8.3
8 -5 5 70.79 15.6
8 5 6 9.4 10.7
8 -5 6 5 3.9
8 -5 6 4.5 10.8
8 5 7 11.8 11.6
-8 -5 -7 2.7 11.8
8 -5 7 -2.2 10
8 5 8 22 12.2
8 -5 8 9.1 12.1
8 5 9 5.5 11.3
8 -5 9 17.1 13.6
8 5 10 17.3 13.1
8 -5 10 18.8 14.8
8 5 11 22.7 13.6
8 -5 11 -4.6 12
-8 6 10 -5.3 8.4
-8 6 10 15 11.1
-8 6 9 2.3 7
-8 6 9 15.2 10.5
-8 6 8 23 10.8
-8 6 7 4.2 8.3
-8 6 7 0.6 7.1
8 -6 -7 2.9 6.9
-8 6 6 56.49 12.4
-8 6 6 54.99 10.4
8 6 -6 29.3 5.5
-8 -6 6 58.19 22.4
8 -6 -6 29.2 8
8 6 -5 23.2 5.2
-8 6 5 28.4 10.9
8 -6 -5 25.3 8.5
-8 -6 5 38.6 17.3
8 6 -4 -2.8 3.9
-8 6 4 0.4 6.6
8 -6 -4 4.4 6.7
-8 6 3 75.29 13.1
-8 -6 3 83.49 17.5
8 -6 -3 79.69 11.2
-8 6 2 21 8.9
-8 -6 2 5.8 12.1
8 -6 -2 21.5 9.2
-8 6 1 30.3 8.8
8 6 -1 32.9 13.4
-8 -6 1 25.7 11.9
8 -6 -1 38.6 15.7
-8 6 0 5.6 6.5
8 6 0 -0.2 10.8
8 -6 0 8.1 9.1
-8 -6 0 -4.9 9.2
-8 6 -1 74.49 10.9
8 6 1 61.79 14.9
-8 -6 -1 38.2 12
-8 6 -2 21 6.6
8 6 2 5.6 10.3
-8 -6 -2 29.3 10.9
-8 6 -3 43.2 7.4
8 6 3 24.3 11.8
-8 -6 -3 35.6 12.2
8 6 4 102.29 17.5
-8 6 -4 79.39 8.6
-8 -6 -4 65.39 14.7
8 6 5 66.19 17
-8 -6 -5 74.49 17.3
8 6 6 17.3 12
8 -6 6 -2.1 10.9
-8 -6 -6 -1.8 11.3
8 6 7 1.8 11.5
8 -6 7 6.8 12
8 6 8 11.8 12.8
8 -6 8 7.5 12.4
8 6 9 12.3 12.9
8 -6 9 -0.4 11.5
8 6 10 31.5 14.9
8 -6 10 21.7 14.4
-8 7 10 12.2 9.2
-8 7 10 25.6 12.6
-8 7 9 2.9 9
-8 7 8 -10 6.9
-8 7 8 33.5 9.9
-8 7 7 -1.4 7.3
-8 7 6 7.6 8.4
8 -7 -6 -0.8 8
8 7 -5 73.59 8.4
-8 7 5 69.49 14.1
8 -7 -5 53.99 12.6
-8 7 4 50.29 12
8 -7 -4 38.6 12.2
-8 -7 4 60.89 19.8
-8 7 3 -3.4 7
8 -7 -3 8.5 10.9
-8 -7 3 18.6 15.6
-8 7 2 46.9 10.8
-8 -7 2 3.9 13.7
8 -7 -2 9.3 9.7
-8 7 1 16.6 8.3
8 -7 -1 11.6 11.2
-8 -7 1 6.1 16.6
-8 7 0 3.5 6.1
8 7 0 -7 11.5
8 -7 0 6.1 11.2
8 7 1 7.8 13
-8 7 -1 30.3 8.9
8 7 2 -0.4 12.2
-8 7 -2 12.7 6.8
-8 -7 -2 9.4 15.1
8 7 3 2.7 11.3
-8 7 -3 11.6 6.1
-8 -7 -3 21.2 12.1
8 7 4 60.99 15.1
-8 7 -4 35.5 6.7
-8 -7 -4 27.9 13.1
-8 -7 -5 -10.1 9.3
8 7 6 -8.5 11
8 7 7 -4.1 12.1
8 -7 7 -4.9 13.4
8 7 8 -15.2 10.9
8 -7 8 2.9 13.7
8 7 9 18 14.3
8 -7 9 7.9 14.5
-8 8 9 11 10.2
8 -8 -9 -12.6 8.9
8 -8 -8 0.2 6.8
-8 8 7 15.9 10.3
8 -8 -7 -4.2 8.8
-8 8 6 19.8 10.2
8 -8 -6 20 11.8
8 8 -5 7 5.1
-8 8 5 21.6 9
8 -8 -5 14.9 11.1
-8 8 4 12.2 11.4
8 -8 -4 16.5 10.2
-8 8 3 60.09 12.8
8 -8 -3 25.2 11.3
-8 8 2 122.99 17.3
-8 8 1 14.3 7.8
-8 -8 1 35.1 18.4
-8 8 0 3.8 7.5
-8 -8 0 21.5 14.5
8 -8 0 -2.2 14.3
-8 8 -1 1.8 6.9
8 8 1 12.7 14.9
8 -8 1 26.4 15.4
-8 -8 -1 36 13.2
-8 8 -2 21.7 8.2
8 8 2 72.29 18.4
-8 -8 -2 25.7 13.8
-8 8 -3 44.7 9.2
8 8 3 85.89 20.8
-8 -8 -3 42.7 16.6
-8 8 -4 23.7 6.6
8 8 4 48.7 17.6
8 8 6 11.8 14.5
8 8 7 8.2 12.5
8 8 8 11.6 14.1
8 -8 8 -7 13.8
-8 9 7 39.1 14.2
8 -9 -7 -15.3 7.5
-8 9 6 22.6 10.2
8 -9 -6 16.7 13.1
-8 9 5 5.1 8.1
8 9 -5 -3.7 4.9
8 -9 -5 5.6 11.3
-8 9 4 85.89 15.9
8 -9 -4 62.19 14.1
-8 9 3 25.5 10.5
8 -9 -3 8.7 10.3
-8 9 2 4.2 7.8
8 -9 -2 -11.1 11.1
-8 9 1 9.4 8.9
8 -9 -1 -8.4 13.6
-8 9 0 42.2 14.6
8 -9 0 101.99 23.7
-8 9 -1 -9 6.8
8 9 1 4.6 14.1
8 -9 1 19.4 18
8 9 2 27.6 15.6
-8 9 -2 25.7 9.5
8 -9 2 17.5 16.6
-8 9 -3 44.1 10.5
8 9 3 72.19 20.3
8 9 4 -1.3 15.3
-8 9 -5 17 4.8
8 9 5 -6.4 12.3
8 9 6 3.6 13.1
8 9 7 3.8 14.5
-8 10 6 -10.5 9.5
8 -10 -6 -3.6 12.1
-8 10 5 6.7 9.1
8 -10 -5 32.5 14.1
-8 10 4 42.9 12.1
8 -10 -4 4.6 10.7
-8 10 3 12.9 9.1
8 -10 -3 -13.1 9.2
-8 10 2 -5.7 7.5
8 -10 -2 14.6 15.1
8 -10 -1 -1.4 13.7
-8 10 0 -2.8 8.4
8 -10 0 19.6 15.8
-8 10 -1 7 11.6
8 10 2 -4.4 14
-8 10 -2 3.4 9.1
-8 10 -3 51.09 10.7
8 10 3 67.39 21
8 10 4 -1.3 15.4
-8 10 -4 -1.9 5.7
8 10 5 16.3 16.1
8 10 6 13.9 17
8 -11 -4 -15.7 12.3
8 -11 -3 25.9 12.5
-8 11 2 12.5 11.5
-8 11 1 -1.7 9.8
-8 11 -1 -3.6 10
-8 11 -2 49.2 14.6
8 11 3 -6.6 14.1
-8 11 -3 5 9.2
-9 0 12 104.59 17.2
-9 0 12 110.09 17.7
-9 0 11 1.3 5.9
-9 0 11 -3.2 7.3
-9 0 10 2.7 7.5
-9 0 10 8.2 6.7
-9 0 9 3.3 6.4
-9 0 9 -4.3 7
-9 0 8 185.28 17.1
-9 0 8 153.88 17.4
-9 0 7 -4.8 4.6
-9 0 7 -1.5 5.4
9 0 -6 3.8 6.3
9 0 -5 1.4 5.1
-9 0 5 -2.6 4.3
-9 0 4 728.93 41.2
9 0 -4 696.33 42.7
-9 0 4 709.13 42
-9 0 3 -3.7 4.3
-9 0 3 -1.7 4.2
9 0 -3 -1 4.8
9 0 -2 1.2 4.2
-9 0 2 0.3 3.8
-9 0 2 0.4 4.1
9 0 -2 -2.2 5.2
9 0 -1 4.3 4.6
-9 0 1 -1.1 4.2
-9 0 1 -3.3 3.5
9 0 -1 4 4.2
9 0 0 352.06 22
-9 0 0 331.17 22
-9 0 0 357.86 21.6
9 0 0 342.97 21.4
9 0 1 -1.2 4.3
-9 0 -1 3.4 4.7
9 0 1 -2 4
9 0 2 0.1 5
-9 0 -2 -0.2 5.1
9 0 3 -10.1 5
-9 0 -3 4.3 6.2
-9 0 -4 890.61 55.69
9 0 4 947.61 55.29
-9 0 -5 -4.7 7.2
9 0 5 -1.9 6.1
9 0 6 123.79 15.9
-9 0 -6 125.69 17.8
9 0 7 -0.4 7.5
-9 0 -7 1.7 9
9 0 8 28.8 11.4
-9 0 -8 64.59 17
9 0 9 13.3 11.2
9 0 10 59.29 15.6
9 0 11 6.2 10.4
9 0 12 114.49 22.1
-9 1 12 7.9 7.3
-9 1 12 -4.1 8.1
-9 -1 12 3.1 6.3
-9 1 11 -8.4 4.9
-9 1 11 0.7 6.3
-9 -1 11 6.5 9.8
-9 -1 11 1.4 4.9
-9 1 10 5.4 7
-9 1 10 6.1 7.1
-9 -1 10 -3 4.9
-9 -1 10 -5.9 8
-9 1 9 32.7 9.3
-9 1 9 39.2 10.1
-9 -1 9 28 7.7
-9 -1 9 26.8 11.2
-9 1 8 7.9 6.8
-9 1 8 14.4 6.9
-9 -1 8 3.1 7.4
-9 -1 8 6.5 5.5
-9 1 7 47 8.7
-9 1 7 51.29 10.5
-9 -1 7 45.2 8.2
-9 1 6 3 4.4
9 1 -6 -7.3 6
-9 1 6 3.1 5.5
-9 -1 6 -3.9 4.2
9 1 -5 6.1 5.6
-9 1 5 2.1 6.1
-9 1 5 9.3 4.8
-9 -1 5 2.3 4.1
9 -1 -5 11.9 7.1
9 1 -4 74.79 10.1
-9 1 4 84.79 11.3
-9 -1 4 77.69 9.2
9 -1 -4 86.79 11.8
-9 1 3 75.59 10.1
9 1 -3 60.09 8.7
9 -1 -3 74.69 10.8
-9 -1 3 91.69 11
-9 -1 3 73.19 8.9
-9 1 2 157.68 13.1
9 1 -2 121.19 14.5
9 1 -2 170.38 12.8
9 -1 -2 146.69 13.3
-9 -1 2 153.08 12.9
-9 -1 2 158.58 12.2
9 1 -1 67.29 7.9
-9 1 1 59.99 6.7
9 1 -1 50.49 8.6
-9 1 1 62.39 8.1
9 -1 -1 63.69 8.3
9 -1 -1 50.39 6.2
-9 -1 1 51.39 7.6
9 1 0 33 6.8
-9 1 0 25.9 5.6
-9 1 0 47 6.9
9 1 0 40.1 6.8
-9 -1 0 28.5 6.1
9 -1 0 32.4 5.6
9 -1 0 40.7 6.8
-9 1 -1 -1.9 4
-9 1 -1 -0.7 4
9 1 1 -1.4 4.8
-9 -1 -1 -4.2 4.4
9 -1 1 0 3.7
9 -1 1 2.5 4.6
9 1 2 4.4 6.1
-9 1 -2 6.6 6.3
9 -1 2 7.5 6
9 -1 2 5.6 4.5
-9 -1 -2 2.5 5.3
9 1 3 17 7.4
-9 1 -3 10.8 8
-9 -1 -3 6.6 6.8
9 -1 3 14 5.5
9 -1 3 8.7 6.8
9 1 4 6 7.7
-9 1 -4 24.7 9.9
-9 -1 -4 22.6 8.3
9 -1 4 14 7.9
-9 1 -5 126.59 17.9
9 1 5 120.09 15.3
-9 -1 -5 113.79 15.2
9 -1 5 118.79 15.6
9 1 6 18.5 8.9
-9 -1 -6 11.6 8.7
9 -1 6 6.5 7.6
9 1 7 -5.1 7.5
-9 -1 -7 10.9 9.9
9 -1 7 11.8 9.2
9 1 8 18.9 11.6
9 -1 8 24.6 11.2
-9 -1 -8 12.4 11.8
9 1 9 12.9 11.7
9 1 10 10.4 11.5
9 -1 10 21.4 11.5
9 1 11 7.9 11.4
9 -1 11 -2 8.4
9 1 12 -3.7 11.1
9 -1 12 -8.3 8.6
-9 2 12 -4.9 6.8
-9 2 12 2.7 9.5
-9 -2 12 -7.4 9.3
-9 -2 12 11.1 6
-9 2 11 -2.3 5.7
-9 -2 11 5.4 4.7
-9 -2 11 -1.8 9.8
-9 2 10 19.2 7.7
-9 2 10 14 9.4
-9 -2 10 16.1 11
-9 -2 10 7 5.1
-9 2 9 0.3 7.1
-9 2 9 7.9 6.9
-9 2 8 1.4 7
-9 2 8 4.6 5.7
-9 -2 8 -2 4.3
-9 2 7 9.2 7.3
-9 2 7 14.3 5.5
-9 -2 7 17.1 5.1
-9 2 6 17.6 7.5
-9 2 6 9.1 4.4
9 2 -6 14.2 6.2
-9 -2 6 11.7 4.7
9 2 -5 237.28 18.7
-9 2 5 276.17 21.8
-9 -2 5 285.07 18.1
9 2 -4 18.4 5.7
-9 2 4 18.9 7.7
9 -2 -4 15.1 7.5
-9 -2 4 16.2 9.5
-9 -2 4 12.1 4.8
-9 2 3 304.27 21.2
9 2 -3 264.67 18.3
9 -2 -3 258.67 21
-9 -2 3 267.87 21.7
-9 2 2 0.6 5
9 2 -2 3.1 4.3
9 2 -2 1.1 7.7
-9 -2 2 -1 6.3
9 2 -1 6.3 7.8
-9 2 1 -0.7 4.4
9 2 -1 10.5 4.7
-9 -2 1 4.3 6.2
9 -2 -1 3.8 3.4
9 -2 -1 6 5.2
-9 2 0 84.89 9.1
9 2 0 59.59 9.8
9 -2 0 62.19 8.1
-9 -2 0 59.79 9.5
9 -2 0 82.99 9.3
9 2 1 46.1 8.7
-9 2 -1 45.7 7.1
9 -2 1 35.4 7.1
9 -2 1 33.9 6.3
-9 -2 -1 20.4 7.4
-9 2 -2 60.09 7.9
9 2 2 68.59 10.4
9 -2 2 46.4 8.8
9 -2 2 58.09 7.7
-9 -2 -2 48.3 9.6
9 2 3 92.59 21.5
9 -2 3 107.49 13.5
9 -2 3 100.09 10
-9 -2 -3 107.49 13.4
9 2 4 65.59 11.6
-9 -2 -4 54.59 10.7
9 -2 4 63.29 8.3
9 -2 4 45.4 10.6
9 2 5 7.8 7.6
9 -2 5 -1.5 3.9
9 -2 5 2.7 6.9
-9 -2 -5 7.6 7.4
9 2 6 25.3 10.3
9 -2 6 17 9.3
9 -2 6 21.2 6
-9 -2 -6 21.7 9.9
9 2 7 -11.1 8
-9 -2 -7 -19.8 10.6
9 -2 7 -9 6.6
9 2 8 13.2 10.6
9 -2 8 4.1 10.5
-9 -2 -8 26.7 13.1
9 2 9 24 12.9
9 -2 9 31 13.2
9 2 10 -2.6 10.1
9 -2 10 -4.4 8.5
9 2 11 13.3 12.1
9 -2 11 4.4 11.6
-9 3 12 9.2 12.4
-9 3 12 -6.7 6.6
-9 -3 12 4.7 4.7
-9 -3 12 -2.1 9.3
-9 3 11 -5.7 8.7
-9 3 11 -0.4 6.4
-9 -3 11 9.2 4.6
-9 -3 11 -9.6 8.8
-9 3 10 -7.5 5.1
-9 -3 10 2.1 4.3
-9 3 9 6.1 5.9
-9 3 9 9.6 9
-9 -3 9 5.9 4.5
-9 3 8 14.2 6.3
-9 3 8 10.2 8.3
-9 -3 8 2.1 4.4
-9 3 7 1.1 7.1
-9 3 7 -1.6 4.4
-9 -3 7 3.4 4
9 3 -6 56.09 8.5
-9 3 6 43.5 10.5
9 3 -5 3.1 4.7
-9 3 5 0.9 6.1
-9 -3 5 12.3 9.5
9 3 -4 3.7 4
-9 3 4 -10.1 4.6
9 -3 -4 8.2 6.9
-9 -3 4 0.1 8.5
-9 3 3 24.6 8
9 3 -3 30.4 6.1
9 -3 -3 37 9.5
-9 -3 3 59.79 11.7
9 3 -2 151.58 19.1
9 3 -2 113.19 10.9
-9 3 2 126.19 13.8
9 -3 -2 134.99 14.1
-9 3 1 9.1 5.9
9 3 -1 15.1 10
9 -3 -1 13.8 4.9
-9 -3 1 5.5 9.3
9 -3 -1 18.9 7
-9 3 0 46.3 7.9
9 3 0 55.89 10.9
9 -3 0 29.5 7.1
-9 -3 0 31.7 9.3
9 -3 0 34.6 7.3
9 3 1 44.4 11
-9 3 -1 47.4 7.5
9 -3 1 49.1 8.9
-9 -3 -1 51.29 10.2
9 -3 1 56.19 8.4
-9 3 -2 524.05 29.7
9 -3 2 471.15 32.5
9 -3 2 476.05 29.9
-9 -3 -2 490.55 32.4
9 3 3 -5.7 6.9
9 -3 3 8.7 4.5
-9 -3 -3 3.2 6.5
9 3 4 108.59 14.6
-9 -3 -4 73.89 12.7
9 -3 4 99.79 9.4
9 -3 4 102.79 15.5
9 3 5 295.67 25.3
-9 -3 -5 301.47 25.7
9 -3 5 298.77 19.9
9 -3 5 352.66 27.3
9 3 6 144.59 18.5
9 -3 6 147.69 18.7
-9 -3 -6 120.39 18.6
9 -3 6 107.99 10.2
9 3 7 43.4 13
9 -3 7 75.49 15.8
-9 -3 -7 56.79 14.2
9 -3 7 67.39 8.4
9 3 8 7.7 11
9 -3 8 9.2 10.5
-9 -3 -8 0 11
9 -3 8 0.2 4.5
9 -3 9 30.8 13.5
9 3 10 31 12.8
9 -3 10 29.8 14.1
9 -3 10 40.4 8.1
9 3 11 33.1 13.9
9 -3 11 4.8 5.6
9 -3 11 3.3 11.3
-9 4 11 12.4 7.5
-9 4 11 -4.6 8.9
-9 -4 11 -9 9.2
-9 4 10 1.9 9.4
-9 4 9 -3.6 10.1
-9 4 9 5.7 6.6
-9 4 8 0.3 5.5
-9 4 8 9.4 8.6
-9 4 7 -2.4 6.9
9 4 -7 -3.7 5.2
9 4 -6 46.3 7.5
-9 4 6 50.39 12
-9 -4 6 43.2 15.3
-9 4 5 63.89 12.1
9 4 -5 48.8 7.2
-9 -4 5 56.59 14.8
9 4 -4 79.99 8.5
-9 4 4 64.09 11.8
-9 -4 4 89.79 16.8
-9 4 3 -8.9 5.4
9 4 -3 -2.3 4.1
-9 -4 3 4.2 10
-9 4 2 25.3 8.5
-9 -4 2 21.4 10.3
9 -4 -2 25.1 8.7
9 4 -1 145.19 21.9
-9 -4 1 148.39 17.5
9 -4 -1 143.69 15.1
-9 4 0 53.19 9.1
9 4 0 40.2 14.2
-9 -4 0 38.1 10.2
9 -4 0 56.29 9.4
9 4 1 48.4 11.1
-9 4 -1 59.59 8.6
9 -4 1 61.59 9.5
-9 -4 -1 42.3 10.4
-9 4 -2 59.29 8.1
9 4 2 56.39 12
9 -4 2 49.4 7.9
-9 -4 -2 29.8 9.4
9 4 3 130.49 16.8
-9 4 -3 128.99 11.2
-9 -4 -3 106.29 15
9 -4 3 119.39 11.2
9 -4 3 130.99 16.7
9 4 4 -6.4 7.6
9 -4 4 -2.3 6.6
9 -4 4 6.5 4.2
-9 -4 -4 2.4 7.5
9 4 5 15.8 9.8
9 -4 5 17.6 5
9 -4 5 10.7 9.4
-9 -4 -5 -4.4 8.4
9 4 6 0.8 9.6
-9 -4 -6 6.1 9.6
9 -4 6 8.6 10
9 -4 6 0.8 3.7
9 4 7 55.69 14.4
9 -4 7 56.99 15.8
-9 -4 -7 29.1 13.5
9 -4 7 46.1 6.6
9 4 8 19.3 12.1
9 -4 8 7.4 4.2
9 -4 8 6.2 10.8
9 4 9 8.5 11.4
9 -4 9 1 11.1
9 -4 9 -8.8 3.2
9 4 10 -8.2 10
9 -4 10 -7.6 3.1
9 -4 10 1.3 11.5
9 4 11 -8 10.3
9 -4 11 8.8 13.1
-9 5 11 21.7 9.1
-9 5 11 7.7 13.2
-9 5 10 13.6 9.4
-9 5 10 2.6 6.9
-9 5 9 3.8 8.4
-9 5 9 7.5 6.6
-9 5 8 -5.8 7.8
-9 5 7 12.1 9.2
-9 -5 7 29.2 18.1
-9 5 6 21.3 10.2
-9 -5 6 23.4 21.9
-9 5 5 31.3 10.3
9 5 -5 44.6 6.7
-9 -5 5 40.4 16.2
-9 5 4 14.7 8.2
9 5 -4 12.3 4.8
-9 -5 4 13.5 12.1
9 5 -3 -3.8 3.7
-9 5 3 4.1 6.5
-9 -5 3 15.6 11.3
9 -5 -3 3.4 5.3
-9 5 2 80.49 12.1
-9 -5 2 58.29 13.4
9 -5 -2 71.39 10.5
-9 5 1 1.3 5.7
9 5 -1 -8.8 9.4
-9 -5 1 -4 8.1
9 -5 -1 1.8 6.2
9 -5 -1 -8.8 6.4
-9 5 0 38.4 8.5
9 5 0 15.2 11.4
-9 -5 0 8.4 8.5
9 -5 0 31.4 8.4
9 5 1 6 8.7
-9 5 -1 -1.3 4.9
9 -5 1 3 5.4
-9 -5 -1 -11.9 6.7
9 5 2 -8.1 7.5
-9 5 -2 -1.8 4.4
-9 -5 -2 -3.8 7.8
9 5 3 64.99 13.4
-9 5 -3 55.89 8
-9 -5 -3 44.5 11.9
9 -5 3 66.79 9.4
9 5 4 21.5 10.4
-9 5 -4 26.8 5.6
9 -5 4 17.5 5.7
-9 -5 -4 23.4 10.2
9 5 5 3.8 9.6
9 -5 5 7.7 9.9
-9 -5 -5 -3 9.6
9 -5 5 4.7 4.3
9 5 6 40.4 13.5
9 -5 6 46.7 6.7
9 -5 6 34.2 13.4
-9 -5 -6 23.6 12.9
9 5 7 12 13.1
9 -5 7 14.4 4.5
-9 -5 -7 10.6 12.6
9 -5 7 19.8 13
9 -5 8 7.4 11.2
9 5 9 5.6 12
9 -5 9 -7.4 10.7
9 5 10 -1.6 11.4
9 -5 10 1.1 12.5
-9 6 10 11.2 10.2
-9 6 9 3.5 8.6
-9 6 8 10.1 7.2
-9 6 8 5.9 9.5
-9 6 7 12.4 9.4
-9 6 6 90.79 16.4
9 6 -6 91.99 9.5
-9 -6 6 133.89 28.3
-9 6 5 10.7 8.3
9 6 -5 5.5 4.7
-9 -6 5 22.7 16.4
9 -6 -5 9.9 6.8
9 6 -4 162.18 12.5
-9 6 4 147.79 17.9
9 -6 -4 113.79 14.1
-9 -6 4 184.38 36.6
-9 6 3 13 8
9 -6 -3 15.3 7.3
-9 -6 3 10 14.1
9 -6 -2 268.17 21.3
-9 -6 2 206.58 26
-9 6 1 -3.6 5.7
9 6 -1 -1.6 11.3
-9 -6 1 7.8 10.4
9 -6 -1 -1.2 9.1
-9 6 0 5.6 6.4
9 6 0 -14.2 11.2
-9 -6 0 8.5 10.3
-9 6 -1 81.69 11.5
9 6 1 78.49 16.7
-9 -6 -1 55.19 13.7
9 6 2 24.1 12.1
-9 6 -2 13 6.5
-9 -6 -2 7.5 10.7
9 6 3 12.1 11.3
-9 6 -3 2.1 5.1
-9 -6 -3 12.4 10.2
-9 6 -4 6.5 4.8
9 6 4 -2.2 9.4
9 6 5 18.6 12.9
-9 -6 -5 -2.9 10.6
9 6 6 5 11.5
9 -6 6 7.6 11.3
-9 -6 -6 -4.3 11.8
9 6 7 10.5 13
9 -6 7 4.1 11.4
9 6 8 1.1 12.7
9 6 9 12.4 13.1
9 -6 9 6.4 12.5
9 6 10 0.3 12.2
9 -6 10 -10.7 11.4
-9 7 9 19.1 10.3
-9 7 8 6.9 9.1
-9 7 7 8 9.9
9 -7 -7 13.2 7.5
9 7 -6 9.1 4.7
-9 7 6 10.3 9.4
9 -7 -6 -5.9 7.1
-9 7 5 17.5 9.6
9 7 -5 26.2 6
9 -7 -5 8.4 8.8
-9 7 4 5.2 8.2
9 -7 -4 16.8 9
-9 -7 4 -0.2 16.7
-9 7 3 -5.8 7.1
9 -7 -3 4.4 10.3
-9 -7 3 -25.6 13.3
-9 7 2 75.49 13.5
9 -7 -2 104.09 14.8
-9 -7 2 88.09 19
-9 7 1 6.6 7.5
-9 -7 1 14.5 13.2
9 -7 -1 14.1 12.1
9 7 0 0.6 13.5
-9 7 0 4.7 7.3
9 -7 0 5.2 10.9
-9 -7 0 28.8 13.4
-9 7 -1 31.7 9.1
9 7 1 7 14.1
-9 -7 -1 28.4 13.1
-9 7 -2 4.4 6.6
9 7 2 10.9 12.1
-9 -7 -2 3.7 11.6
9 7 3 9.6 12.9
-9 7 -3 14.1 9.9
-9 -7 -3 -4.7 11.3
-9 -7 -4 -1.4 11.3
9 7 5 2.5 12.2
-9 -7 -5 12.2 14.3
9 7 6 -2.3 14.1
9 7 7 -2 12.7
9 -7 7 11.1 14.3
9 7 8 26.5 14.6
9 -7 8 33.3 18.8
9 7 9 12 14.2
9 -7 9 23.9 16.8
-9 8 7 17.5 10.9
-9 8 6 37.8 12
9 8 -5 102.39 10.8
-9 8 5 122.99 18.5
9 -8 -5 118.39 17.4
-9 8 4 13.7 14.8
9 -8 -4 3.3 9.7
-9 8 3 -4.7 7.7
9 -8 -3 -15.1 7.8
-9 8 2 -1.6 7.2
9 8 0 4.6 13.7
-9 8 0 13.3 8.6
9 -8 0 70.59 17.8
-9 -8 0 2.5 16.2
-9 8 -1 32.5 10.1
9 8 1 29.7 17.5
9 -8 1 76.69 21
-9 -8 -1 23.2 15.4
9 8 2 36.2 16.9
-9 8 -2 34.6 9.3
-9 8 -3 22.4 8.3
9 8 3 -4.2 13.7
9 8 4 31.4 19.4
-9 8 -4 24 7.4
9 8 5 21.3 15.5
9 8 6 -13.6 11.7
9 8 7 9.4 12.7
9 -8 7 27 18.1
9 8 8 -0.7 13.3
9 -8 8 15.1 16.4
-9 9 7 2.7 9.7
9 -9 -7 -1.3 7.1
-9 9 6 31.2 11.7
9 -9 -6 2 10.5
-9 9 5 11.1 9.1
9 -9 -5 12.9 12.1
-9 9 4 4.8 8.5
9 -9 -4 0.1 9.2
-9 9 3 27.1 11.5
9 -9 -3 11.6 10.6
-9 9 2 3.7 8.9
9 -9 -2 4.9 11.6
-9 9 1 30.1 12.2
9 -9 -1 -9.2 14.7
-9 9 0 6.4 8.7
9 -9 0 -35.1 15.9
-9 9 -1 -4.2 7.3
9 9 1 5.7 14.7
9 -9 1 -4.1 16.1
9 9 2 -1.5 13.4
-9 9 -2 12.2 8.5
9 -9 2 18.1 17.4
9 9 3 27.6 17.9
9 9 4 9.2 15.7
-9 9 -4 -0.9 5.8
-9 9 -5 8.7 5
9 9 5 29.1 15.8
9 9 6 24.3 15.9
9 9 7 15.1 16.1
-9 10 6 5.7 12.4
9 -10 -6 -10.3 9.9
-9 10 5 17.9 10.3
9 -10 -5 27.4 11.6
-9 10 4 47.4 12.1
9 -10 -4 55.79 14.9
-9 10 3 30 15.1
9 -10 -3 17.2 10.3
-9 10 2 41.8 16.1
9 -10 -2 19.1 16
-9 10 1 9.3 11.2
9 -10 -1 22.7 15.1
-9 10 0 11.3 11
9 -10 0 3.2 16.7
-9 10 -1 19.9 11.7
9 10 2 -5.5 15.5
-9 10 -2 -4.4 9
-9 10 -3 62.49 13.6
9 10 3 82.99 23.8
-9 10 -4 25.7 7.7
9 10 4 22.3 18.2
-9 10 -5 4.8 4
9 10 5 16.6 15.4
-9 11 3 9.7 13
9 -11 -3 25.5 11.6
-9 11 2 9.2 14.2
9 -11 -2 -16.1 11.6
-9 11 1 7.8 12.5
-9 11 0 14.3 11.6
-9 11 -1 0.9 10.7
-9 11 -2 38.6 14.1
-9 11 -3 -3.3 7.9
9 11 3 -15.3 12.9
-10 0 12 12.8 8.6
-10 0 12 17.5 9.7
-10 0 11 6.6 8.2
-10 0 11 -5.4 5.3
-10 0 10 30.4 8.8
-10 0 10 20.9 8.9
-10 0 9 -3.6 7.2
-10 0 9 -1.2 5.5
-10 0 8 1.3 5.6
-10 0 8 4.8 9.5
-10 0 7 -1.3 5.1
-10 0 7 1.3 6
10 0 -6 78.29 12
-10 0 6 73.19 10.7
-10 0 5 1 4.7
10 0 -5 -6.5 4.9
-10 0 4 45.3 8.2
10 0 -4 47.8 9
-10 0 3 0.1 4.4
-10 0 3 -3.4 4.2
10 0 -3 -5 4.8
10 0 -2 73.39 9.9
-10 0 2 92.49 9.6
-10 0 2 80.29 8.6
10 0 -2 87.79 9.8
10 0 -1 -1.9 4.6
-10 0 1 0.7 4.1
10 0 -1 2.9 4.2
-10 0 1 1.6 4.3
-10 0 0 1.7 4.4
10 0 0 2.8 4.6
-10 0 0 4.7 4.8
10 0 0 2.5 4.5
10 0 1 1.2 5
10 0 1 -6.2 3.7
-10 0 -1 5 4.9
-10 0 -2 -2.2 5.7
10 0 2 5 5
10 0 2 43.2 7.7
10 0 3 4.6 6.3
-10 0 -3 4.4 6.4
10 0 4 708.83 43.2
-10 0 -4 651.33 43.5
-10 0 -5 -0.8 7.1
10 0 5 -7.3 5.6
-10 0 -6 18.7 9.6
10 0 6 -1.5 6.6
10 0 7 -5.6 7.5
-10 0 -8 34.4 14.9
10 0 8 16.3 10.5
10 0 9 15.5 12.2
10 0 10 10.3 11
10 0 11 -13.4 8
10 0 12 0.2 10.7
-10 1 12 -1.1 8.3
-10 1 12 -4.7 6.8
-10 -1 12 -14.6 5
-10 -1 12 -5.8 7.9
-10 1 11 3.5 8.6
-10 1 11 -1.2 6.8
-10 -1 11 10.3 6.2
-10 -1 11 11.1 10.2
-10 1 10 89.99 15
-10 1 10 84.29 12.8
-10 -1 10 64.19 11.5
-10 -1 10 84.59 16.3
-10 1 9 13.7 8
-10 1 9 -3.4 5.7
-10 -1 9 7.9 8.5
-10 -1 9 1.8 5.5
-10 1 8 11.8 7
-10 1 8 12.3 7.8
-10 -1 8 18.8 6.9
-10 1 7 41.3 8
-10 1 7 41.8 9.6
-10 -1 7 35.6 8
-10 1 6 14.8 5.6
10 1 -6 16.6 7.4
-10 1 6 24.8 7.8
10 -1 -6 16.3 8.2
-10 -1 6 21.3 6.1
-10 1 5 31.5 6.1
10 1 -5 44.1 14.2
-10 1 5 37.6 8.6
-10 -1 5 36.1 9.6
10 -1 -5 36.7 9.2
-10 -1 5 29 6.5
-10 1 4 21.8 4.7
10 1 -4 11.9 6
-10 1 4 7.6 5.9
-10 -1 4 24.7 8
-10 -1 4 19.3 5.7
10 -1 -4 22.4 7.1
-10 1 3 -5.9 4.5
10 1 -3 2.3 4.8
-10 -1 3 0.1 6.4
10 -1 -3 -3.3 4.7
-10 -1 3 0.7 4.4
10 1 -2 467.75 31.5
-10 1 2 506.35 30.9
-10 1 2 554.04 27.7
10 1 -2 481.75 30
-10 -1 2 456.25 29.6
10 -1 -2 465.25 31.3
10 -1 -2 492.65 28.2
-10 -1 2 512.85 30.2
-10 1 1 72.79 9.3
10 1 -1 66.69 9.8
10 1 -1 67.79 8.6
-10 1 1 67.49 7.7
10 -1 -1 72.29 9.8
10 -1 -1 65.89 7.4
-10 -1 1 60.89 8.6
-10 1 0 206.28 15.4
-10 1 0 205.48 15.5
10 1 0 211.18 16.2
10 1 0 220.18 15.7
-10 -1 0 214.08 16
10 -1 0 217.28 14.7
10 -1 0 201.18 15.7
-10 1 -1 10 5.6
10 1 1 8.2 6.3
-10 1 -1 20.6 5.8
10 -1 1 23.1 5.8
-10 -1 -1 14.8 5.8
10 -1 1 14.6 5.8
-10 1 -2 148.09 15.4
10 1 2 147.09 14.3
10 -1 2 147.59 14.3
-10 -1 -2 126.69 16.3
10 -1 2 135.69 12.2
10 1 3 2.2 7.2
-10 1 -3 6.2 6.9
10 -1 3 3.6 4.8
10 -1 3 7.4 6.8
-10 -1 -3 5.4 7.2
-10 1 -4 324.67 27
10 1 4 342.97 25.4
-10 -1 -4 370.06 26.1
10 -1 4 353.76 26
10 -1 4 283.17 24
-10 1 -5 160.58 18.7
10 1 5 122.59 16.4
10 -1 5 160.18 17.3
-10 -1 -5 135.69 16.7
10 1 6 14.5 9.3
-10 1 -6 44.3 13.5
10 -1 6 18.8 9.2
-10 -1 -6 21.7 9.5
10 1 7 -8.5 7.9
-10 -1 -7 10.2 13.6
10 -1 7 1.4 8.9
10 1 8 30.5 12.3
10 -1 8 38 12.5
-10 -1 -8 26.2 15.4
10 1 9 21.3 18.1
10 -1 9 11.6 11.1
10 1 10 33.7 13.5
10 -1 10 66.89 15.4
10 1 11 2.4 11.4
10 -1 11 -9.7 8.4
-10 2 12 63.29 14.8
-10 2 12 50.19 10.2
-10 -2 12 47.3 9.1
-10 -2 12 54.59 14.5
-10 2 11 9 6.5
-10 2 11 -8.2 7.1
-10 -2 11 3.8 9.5
-10 -2 11 3.5 5.2
-10 2 10 -8 5.2
-10 2 10 4.5 7.7
-10 -2 10 -7.5 7.4
-10 -2 10 7.1 5.3
-10 2 9 199.88 17.9
-10 2 9 261.07 23.3
-10 -2 9 235.08 18
-10 2 8 30.8 10.3
-10 2 8 34.5 7.4
-10 -2 8 32.4 7.3
-10 2 7 114.49 16.1
10 2 -7 75.19 11.7
-10 2 7 75.49 9.4
-10 -2 7 87.39 9.6
10 2 -6 -2.7 4.6
-10 2 6 -0.4 6
-10 -2 6 2.5 4
-10 2 5 81.89 13
10 2 -5 64.89 9.8
-10 -2 5 64.69 8.5
-10 -2 5 64.99 12.6
10 -2 -5 102.99 15.1
10 2 -4 18.5 5.9
-10 2 4 8.7 6.4
10 -2 -4 17.5 7.7
-10 -2 4 12.2 5
-10 -2 4 -6.5 9
10 2 -2 423.26 29.9
10 2 -2 419.46 25.9
-10 2 2 424.06 27.8
10 -2 -2 392.96 27.9
-10 -2 2 425.06 27.9
10 2 -1 9.7 5
-10 2 1 6.9 5.6
10 2 -1 -2.1 7.9
-10 -2 1 1 6.4
10 -2 -1 8.4 3.9
10 2 0 53.59 9.9
-10 2 0 50.59 8.3
10 -2 0 56.49 8.1
-10 -2 0 48.8 8.9
10 -2 0 55.19 8.6
10 2 1 936.31 52.59
-10 2 -1 916.01 51.19
10 -2 1 887.71 51.69
-10 -2 -1 867.81 54.49
10 -2 1 893.01 51.29
10 2 2 49.8 10.3
-10 2 -2 45.1 7.5
10 -2 2 29.8 8.2
10 -2 2 49.2 7.6
-10 -2 -2 38.9 8.7
10 2 3 58.39 11.1
10 -2 3 70.39 11.5
-10 -2 -3 59.39 10.2
10 -2 3 76.69 9.1
10 2 4 85.29 13.5
-10 -2 -4 114.79 14.2
10 -2 4 111.59 14.8
10 -2 4 105.49 10.8
10 2 5 67.39 12.6
10 -2 5 65.59 9
-10 -2 -5 64.29 12.5
10 -2 5 71.49 13.1
10 2 6 47.5 12.4
-10 -2 -6 30.1 10.8
10 -2 6 43.4 8
10 -2 6 32.1 10.9
10 2 7 5 9.9
10 -2 7 -0.2 8.3
-10 -2 -7 -6 7.9
10 -2 7 0.4 5.1
10 2 8 -3.4 9.7
-10 -2 -8 -5.9 11.4
10 -2 8 4.8 10
10 2 9 0.1 10.9
10 -2 9 7.8 10.5
10 2 10 30.7 14
10 -2 10 5.3 10.4
10 2 11 53.79 16.8
10 -2 11 40.5 15.4
-10 3 11 33.7 8.3
-10 3 11 17.7 11.5
-10 -3 11 14.4 6.9
-10 -3 11 6.3 9.9
-10 3 10 3.6 10.3
-10 -3 10 8.9 4.9
-10 3 9 88.39 15.9
-10 3 9 53.89 9.3
-10 -3 9 79.59 9.1
-10 3 8 13.5 9.4
-10 3 8 3.3 5
-10 -3 8 0.1 4.5
-10 3 7 83.79 14.5
10 3 -7 83.69 11.5
-10 -3 7 72.49 9
10 3 -6 0 4.8
-10 3 6 -6.9 5.7
-10 -3 6 7.7 10.7
10 3 -5 57.39 8.7
-10 3 5 85.89 13.9
-10 -3 5 89.99 15.5
10 3 -4 77.39 9.5
-10 3 4 107.79 14.8
10 -3 -4 81.59 13.3
-10 -3 4 93.39 15.3
10 3 -3 173.88 13.9
-10 3 3 223.98 18.1
10 -3 -3 179.58 17.3
-10 -3 3 174.48 20.5
-10 3 2 453.85 29.3
10 3 -2 412.76 25.6
10 -3 -2 371.06 28.2
-10 3 1 0.6 5.5
10 -3 -1 -4.8 4.9
10 -3 -1 2.1 3.9
-10 -3 1 9.8 8.2
-10 3 0 21.9 6.6
10 3 0 16.4 10.8
10 -3 0 10.6 6.4
10 -3 0 9.7 5.7
-10 -3 0 15.3 8.3
10 3 1 164.28 19.9
-10 3 -1 160.48 13.7
-10 -3 -1 160.98 16.4
10 -3 1 150.98 14.5
10 -3 1 144.19 13.7
10 3 2 40.6 11.8
-10 3 -2 73.69 9
10 -3 2 66.99 11.3
-10 -3 -2 63.79 11.1
10 -3 2 66.19 8.9
10 3 3 17 8.4
10 -3 3 20.1 8.5
-10 -3 -3 19.9 8.2
10 -3 3 9.4 4.8
10 3 4 6.1 8
10 -3 4 -0.5 7
10 -3 4 -0.3 3.9
-10 -3 -4 7.4 7.1
10 3 5 193.38 20.1
10 -3 5 218.38 21.6
10 -3 5 183.18 14.4
-10 -3 -5 199.58 20.8
10 3 6 24.4 10.7
10 -3 6 18.2 10.2
10 -3 6 23.7 5.7
-10 -3 -6 12.3 10.2
10 3 7 17.9 11.4
10 -3 7 -6.3 6.3
-10 -3 -7 3.1 9.8
10 -3 7 15.5 10.1
10 3 8 9.2 11.3
10 -3 8 32.4 8.2
10 -3 8 11.9 12
10 3 9 17.4 12.3
10 -3 9 30.4 13.2
10 -3 9 29.4 6.4
10 3 10 -5.6 11.4
10 -3 10 -1.2 10.5
10 -3 10 -0.6 4.9
10 3 11 10.7 11.5
10 -3 11 38 7.4
10 -3 11 25.2 14
-10 4 11 7.1 12.3
-10 4 11 17.7 10.1
-10 4 10 -2.2 8.9
-10 4 10 -1.9 6.6
-10 4 9 10.2 10.7
-10 4 9 14.8 6.7
-10 4 8 12 9.3
-10 4 7 12.3 9.5
10 4 -7 19.2 6.6
-10 -4 7 11 16.4
10 4 -6 1.5 5.1
-10 4 6 0.8 6.5
-10 -4 6 15.6 13.8
10 4 -5 30.3 6.2
-10 4 5 17.5 8.5
-10 -4 5 59.19 14.7
-10 4 4 33.7 9.2
10 4 -4 18.3 5.6
-10 -4 4 46.6 12.4
-10 4 3 146.69 16.1
10 4 -3 146.09 12.2
-10 -4 3 148.79 19.4
10 -4 -3 155.98 16.5
-10 4 2 14.3 6.9
10 4 -2 14.2 11.3
10 -4 -2 12.4 7.3
-10 -4 2 16.7 10.1
10 4 -1 85.59 16.3
-10 4 1 89.79 12.2
-10 -4 1 64.19 12.8
10 -4 -1 110.79 13.8
10 4 0 78.59 15.5
-10 4 0 112.59 12.4
-10 -4 0 86.09 13.7
10 -4 0 99.69 12.6
10 4 1 49.7 11.1
-10 4 -1 47.4 8.1
10 -4 1 43.4 8.4
10 -4 1 38.4 9.6
-10 -4 -1 33.7 10.3
10 4 2 166.98 18.2
-10 4 -2 183.98 14.3
10 -4 2 179.68 17.8
-10 -4 -2 170.38 17.7
10 -4 2 173.58 16.5
-10 4 -3 23.5 6.1
10 4 3 32.4 10.1
10 -4 3 36.4 10.2
-10 -4 -3 33 9.7
10 -4 3 26 6.5
10 4 4 65.89 13.2
-10 -4 -4 58.89 13.1
10 -4 4 62.79 13.1
10 -4 4 53.19 7.8
10 4 5 -3.9 9.2
10 -4 5 -1.8 8.5
-10 -4 -5 20 10.6
10 -4 5 1.7 4.1
10 4 6 -10.7 9.2
10 -4 6 1.4 9.2
10 -4 6 2.6 4.2
-10 -4 -6 8.3 10.3
10 4 7 26.8 12.7
-10 -4 -7 8.4 11.8
10 -4 7 33.8 6.1
10 -4 7 40.3 15.6
10 4 8 1.5 11.5
10 -4 8 2.1 4.2
10 -4 8 8 11.1
10 4 9 55.09 16.8
10 -4 9 82.99 19.1
10 -4 9 58.19 7.6
10 4 10 -4.8 11.1
10 -4 10 -8 9.9
10 -4 10 5.8 4.1
10 4 11 -5.7 11.8
10 -4 11 2.9 12
10 -4 11 0.4 3.9
-10 5 10 8.8 9.1
-10 5 9 2 8.7
-10 5 8 -1.2 7.3
-10 5 7 9.7 8.3
10 5 -7 7 5.6
-10 -5 7 -6.6 16.9
10 5 -6 5.8 5.2
-10 5 6 15.1 9.2
-10 -5 6 -0.7 15.4
-10 5 5 17.1 8.7
10 5 -5 27.2 6.3
-10 -5 5 2.8 14.1
-10 5 4 0.3 6.4
10 5 -4 2.5 4.5
-10 -5 4 10.3 12.7
10 5 -3 133.89 17.2
-10 5 3 122.69 15.3
-10 -5 3 116.49 19.6
-10 5 2 0.2 6
-10 -5 2 -2.4 9.2
10 -5 -2 2.8 7.3
-10 5 1 99.99 13.3
10 5 -1 93.89 18.2
10 -5 -1 76.79 13
-10 -5 1 74.59 14.6
10 5 0 71.89 14.9
-10 5 0 82.19 11.6
-10 -5 0 54.19 12.4
10 -5 0 69.49 11.7
-10 5 -1 16.3 11.7
10 5 1 -2.8 8.7
-10 -5 -1 6.8 8.5
10 -5 1 16.8 6.7
10 5 2 -3.5 7.8
-10 5 -2 -3.6 4.5
-10 -5 -2 6.6 8.8
10 -5 2 0.6 4.8
-10 5 -3 2.4 4.9
10 5 3 8 9.9
-10 -5 -3 -13.5 7.2
10 5 4 90.29 15.9
10 -5 4 92.49 10.4
-10 -5 -4 49.4 13.6
10 -5 4 107.99 17.9
10 5 5 28.1 12.4
10 -5 5 27.7 6.2
-10 -5 -5 41.5 17.2
10 -5 5 21.2 12.2
10 5 6 16.2 12.6
-10 -5 -6 -12 9.9
10 -5 6 5.3 12.2
10 -5 6 3.2 4.3
10 5 7 34.1 14.6
10 -5 7 46.5 6.8
10 5 8 21.1 13.3
10 -5 8 35.9 5.7
10 -5 8 24.8 14.5
10 5 9 -2.5 11.9
10 -5 9 13.9 15
10 5 10 -3.9 11.7
10 -5 10 1.2 11.9
-10 6 10 5.9 9.4
-10 6 9 -13.5 8
-10 6 8 0.6 7.9
10 6 -7 3.3 4.4
-10 6 7 4.8 8.2
-10 6 6 18.1 9.5
10 6 -6 -0.9 4.9
-10 -6 6 2.9 17.6
10 6 -5 -7.6 4.2
-10 6 5 0.8 7.1
-10 -6 5 -16.3 13.7
10 6 -4 10.3 7.6
-10 6 4 10.5 8.6
-10 -6 4 17.6 15.1
-10 6 3 24.4 8.7
-10 -6 3 12 13.8
10 -6 -3 12.4 7.3
-10 6 2 55.89 12
10 -6 -2 62.99 11.2
-10 -6 2 41 15.3
10 6 -1 58.09 16
-10 6 1 33.3 9.4
-10 -6 1 46 13.5
10 -6 -1 65.09 12.9
10 6 0 33.8 14.1
-10 6 0 -1.5 5.8
-10 -6 0 11.8 10.6
10 6 1 56.79 15
-10 6 -1 55.69 10
10 -6 1 45.1 10.6
-10 -6 -1 24.5 11.7
-10 6 -2 1.6 5.7
10 6 2 -4.7 10.3
10 -6 2 0.9 6
-10 -6 -2 -6.8 10
-10 6 -3 21.1 6.3
10 6 3 21.1 12.2
10 -6 3 10.4 6.8
-10 -6 -3 2.4 12.6
10 6 4 -5.6 9.5
-10 6 -4 -3.2 4.5
-10 -6 -4 3.2 10.1
10 6 5 6.7 12.7
10 -6 5 4.6 12.3
10 -6 5 10.3 5.9
-10 -6 -5 3.6 11.7
10 6 6 18 12.7
10 -6 6 16.4 5.8
10 -6 6 14.3 12.7
10 6 7 18.4 16.9
10 -6 7 -0.3 12.6
10 6 8 12.1 13
10 -6 8 11.9 14.8
10 6 9 8.3 13
10 -6 9 6.9 13.1
10 6 10 14.2 13.9
10 -6 10 -1.6 13.2
-10 7 9 6.8 9.3
-10 7 7 29.6 11.5
-10 7 6 11.3 8.8
10 7 -6 12.3 5.4
10 7 -5 30.9 6.7
10 -7 -5 38.4 10.1
10 7 -4 16.2 6.6
-10 7 4 -1 7.8
10 -7 -4 4.8 8.4
-10 -7 4 8.9 19.6
-10 7 3 -3.7 7.1
10 -7 -3 -6.9 7.7
-10 -7 3 7.7 17.3
-10 7 2 305.57 26.2
-10 -7 2 316.57 33.5
-10 7 1 27.1 9.9
10 7 -1 16.5 14.5
10 -7 -1 33.1 13
-10 -7 1 55.09 15.9
10 7 0 78.89 19.8
-10 7 0 80.69 13.7
-10 -7 0 66.89 16.2
10 -7 0 89.49 16.6
10 7 1 19.3 14.1
-10 7 -1 -5.5 5.8
-10 -7 -1 11.2 11.7
-10 7 -2 4.5 6.5
10 7 2 2.3 12.5
-10 -7 -2 16.9 12.9
10 7 3 -4 12.4
-10 7 -3 -1.3 5.7
-10 -7 -3 3.6 11.4
-10 7 -4 5.1 5.3
10 7 4 19.1 12.5
-10 -7 -4 13.4 12.7
10 7 5 15.8 12.9
10 7 6 27 15.1
10 -7 6 7.1 14
10 7 7 7.8 13.7
10 -7 7 8.5 13.2
10 7 8 25.4 16
10 -7 8 13.9 15.4
10 7 9 12 14.2
10 -7 9 7.7 14.7
-10 8 7 9.1 8.7
10 8 -6 -10 3.9
-10 8 6 5.4 10.3
-10 8 5 51.89 13.6
10 8 -4 58.29 9.3
-10 8 4 71.89 15
10 -8 -4 22.5 11.6
-10 8 3 17.4 10
10 -8 -3 53.49 11.5
-10 8 2 8.7 8.8
10 -8 -2 -0.1 10.4
-10 8 1 -2.4 8.2
10 -8 -1 -3.6 13.9
-10 8 0 14.3 9.2
10 8 0 14 15.8
10 -8 0 11.5 15.3
-10 8 -1 5.2 7.7
10 8 1 16.2 16.9
10 -8 1 25.5 15.1
-10 8 -2 6.4 7.1
10 8 2 -1.1 14.7
10 8 3 7.1 16.7
-10 8 -3 12.4 7.2
10 8 4 0.7 14.5
-10 8 -4 12.7 6.8
10 8 5 28.3 16.3
10 8 6 6.7 14
10 -8 6 16.8 16.6
10 8 7 6.9 12.5
10 -8 7 -2.4 13.7
10 8 8 -3.8 12.7
10 -8 8 -10.7 14.6
-10 9 7 -6 8
-10 9 6 4.4 9.5
10 9 -6 -7.4 3.6
10 -9 -6 -1.5 7.7
10 9 -5 9.4 5.8
10 -9 -5 23.5 11.2
-10 9 4 17.2 12.9
10 -9 -4 0.3 9.8
-10 9 3 43.7 12
10 -9 -3 42.3 11.7
-10 9 2 17.2 12.4
10 -9 -2 8.5 11.4
-10 9 1 27.6 12.3
10 -9 -1 -0.2 14.9
-10 9 0 8.4 8.8
10 -9 0 -15.7 15.7
10 9 1 23.7 17.3
-10 9 -1 0.1 9.4
10 -9 1 23.5 16.9
10 9 2 15.6 16.3
-10 9 -2 -6.7 6.5
10 -9 2 34.8 16.7
10 9 3 -8.1 14.3
-10 9 -3 4.9 6.9
10 9 4 -11 12.5
-10 9 -4 2.5 5.8
10 9 5 -9.6 13
-10 9 -5 9.5 5.1
10 9 6 36.4 16.5
10 9 7 11.6 14.9
10 -9 7 16.7 20.6
10 -10 -6 18.4 11.9
-10 10 5 36.8 13.7
10 10 -5 8.9 6.2
10 -10 -5 -20.6 8.1
-10 10 4 21.3 10.7
10 -10 -4 21.4 12
-10 10 3 11.3 12
10 -10 -3 -5.6 9.4
-10 10 2 17.9 13.3
10 -10 -2 -16.2 10.5
-10 10 1 19.5 12
10 -10 -1 -1.3 13.7
-10 10 0 33.8 13
10 -10 0 27.2 19
-10 10 -1 -13 8.7
10 10 2 18.4 18.6
-10 10 -2 -4.5 8.4
10 10 3 39.7 20.3
-10 10 -3 52.09 11.8
-10 10 -4 9.6 6.6
10 10 4 -10.4 16.2
10 10 5 -16.3 12.7
-10 11 3 2.3 9.7
10 -11 -3 -27.2 10.2
-10 11 2 6.6 12.4
10 -11 -2 39.1 13.6
-10 11 1 4.3 11.7
-10 11 0 39.1 13.5
-10 11 -2 8.4 10
10 11 3 13 17.9
-11 0 12 -5.7 6
-11 0 12 22.4 10.3
-11 0 11 4.2 6
-11 0 11 -2.6 6.5
-11 0 10 29.5 9.3
-11 0 10 7.5 7.9
-11 0 9 6.1 7.6
-11 0 9 -1.6 6
-11 0 8 137.49 15.9
-11 0 7 -3 4.6
-11 0 6 -5 4.3
11 0 -6 -2.9 5.9
-11 0 5 1.1 5.9
-11 0 5 -2.6 4.9
11 0 -5 -1 5
-11 0 4 139.29 13.2
11 0 -4 152.58 14.9
-11 0 4 165.98 13.9
-11 0 3 -0.3 4.9
-11 0 3 10.1 5.3
11 0 -3 4.3 5.5
11 0 -2 5.6 6.6
-11 0 2 2.1 4.8
11 0 -2 5.4 7
-11 0 2 6.2 5.1
-11 0 1 2.8 4.4
-11 0 1 0.3 4.5
11 0 -1 1.1 4.5
11 0 -1 0.4 5.4
11 0 0 29.2 6.9
11 0 0 25.9 6.5
-11 0 0 23.5 6.4
-11 0 0 29.7 6.4
11 0 1 -0.6 5.4
-11 0 -1 -0.3 5.5
11 0 1 5.2 5.5
-11 0 -2 267.57 23.8
11 0 2 308.07 23.1
11 0 2 295.17 21.7
-11 0 -3 -0.2 6.4
11 0 4 16 7.8
-11 0 -4 1.6 6.4
-11 0 -5 5.4 7.9
11 0 5 -0.3 6.9
-11 0 -6 222.88 23.1
11 0 6 204.08 21.3
-11 0 -7 -5.9 9.1
11 0 7 6 8.8
11 0 8 26.8 11.8
-11 0 -8 23.6 17.1
11 0 9 6.9 10.4
11 0 10 65.59 16.5
11 0 11 -1.2 9.9
-11 1 12 6.1 7.8
-11 1 12 17.5 8.9
-11 -1 12 23 8.8
-11 -1 12 4.8 9.7
-11 1 11 56.79 11
-11 1 11 40.7 11.5
-11 -1 11 66.59 14.4
-11 -1 11 37.5 9.8
-11 1 10 10.5 7.2
-11 1 10 5.7 7.9
-11 -1 10 17.5 9.7
-11 -1 10 -11.5 4.9
-11 1 9 12.6 8.6
-11 -1 9 25.7 9.8
-11 -1 9 25.5 8.2
-11 1 8 59.99 12.2
-11 1 8 73.89 11.1
-11 -1 8 81.29 11.5
11 1 -7 0.7 6.1
-11 1 7 0.1 6.1
-11 1 7 12.9 5.7
-11 -1 7 4.3 5
-11 1 6 13.6 5.3
11 1 -6 2.5 6
-11 1 6 5.8 6.1
11 -1 -6 7.2 7.1
-11 -1 6 -1.2 8.8
-11 1 5 114.49 13.2
11 1 -5 111.99 12.8
11 -1 -5 120.69 14.5
-11 -1 5 110.39 14.2
-11 -1 5 131.79 12.2
11 1 -4 147.69 14.4
-11 1 4 158.18 14.8
11 -1 -4 142.39 15
-11 -1 4 164.98 13.5
-11 -1 4 156.68 15.5
-11 1 3 10.5 5.8
11 1 -3 19.1 6.8
-11 -1 3 10.1 5.2
11 -1 -3 14.8 6.7
-11 1 2 6.3 3.7
11 1 -2 4.4 4.8
11 1 -2 15.7 9
-11 1 2 3.1 5.2
-11 -1 2 -0.4 4.6
-11 -1 2 -0.5 5.6
11 -1 -2 -3.7 5.1
11 -1 -2 6.9 6.3
-11 1 1 315.57 21.3
11 1 -1 316.27 22.1
-11 1 1 312.57 19.8
11 1 -1 298.97 21.1
-11 -1 1 297.87 20.9
11 -1 -1 316.07 19.4
11 1 0 5.8 5.1
11 1 0 8 6.3
-11 1 0 -3.1 4.4
-11 1 0 2.1 4.8
-11 -1 0 2.1 5.4
11 -1 0 -0.1 5.2
11 -1 0 -1.5 4.5
-11 1 -1 5 5.7
-11 1 -1 6.9 5.4
11 1 1 24.4 7.5
-11 -1 -1 -4.5 6
11 -1 1 6.7 6.1
11 -1 1 11.6 5.4
-11 1 -2 63.49 10.7
11 1 2 45.8 9.6
-11 -1 -2 50.29 9.5
11 -1 2 62.49 9.3
11 -1 2 80.49 11.1
11 1 3 21.7 8.5
-11 1 -3 15.2 8.2
11 -1 3 24.3 7.8
-11 -1 -3 14.3 7.5
11 -1 3 36.7 10.1
11 1 4 118.29 15.2
-11 1 -4 125.59 16.8
-11 -1 -4 120.09 15.2
11 -1 4 118.69 12.1
11 -1 4 112.69 15
-11 1 -5 18.6 9.8
11 1 5 20 8.7
11 -1 5 19.6 8.6
-11 -1 -5 5 7.3
11 1 6 74.19 13.7
-11 1 -6 100.29 18.7
11 -1 6 84.39 14.3
-11 -1 -6 84.19 15.4
11 1 7 46.8 12.7
-11 -1 -7 38.4 13.7
11 -1 7 49.6 12.8
11 1 8 4 10.6
-11 -1 -8 2.5 12
11 -1 8 -8.4 8.1
11 1 9 63.19 16.4
11 -1 9 28.5 12.4
11 1 10 35.5 14.1
11 -1 10 18 11.6
11 1 11 20.2 13.3
11 -1 11 9.5 10.7
-11 2 12 1.1 6.9
-11 2 12 4.3 8.6
-11 -2 12 6.9 10.6
-11 -2 12 6.7 5.7
-11 2 11 -2.5 7.3
-11 2 11 1.1 6.5
-11 -2 11 5.6 5.2
-11 -2 11 -8.5 8.3
-11 2 10 21.8 9.3
-11 -2 10 1.9 9.3
-11 -2 10 -2.2 4.9
-11 2 9 102.99 16.3
-11 2 9 103.99 11.9
-11 -2 9 87.79 11.3
-11 2 8 2.8 7.8
-11 2 8 0.3 4.8
-11 -2 8 1.8 5.1
11 2 -7 13.8 7.1
-11 2 7 4.3 7.6
-11 -2 7 3.3 4.9
-11 2 6 47.7 10.6
11 2 -6 39.6 8.6
-11 -2 6 75.69 14.5
-11 -2 6 53.09 8.2
-11 2 5 59.99 11
11 2 -5 73.79 15.8
11 -2 -5 63.09 12.4
-11 -2 5 77.49 9.2
-11 -2 5 73.89 13.1
-11 2 4 107.49 13.4
11 2 -4 124.09 12.2
-11 -2 4 151.08 23.6
11 -2 -4 109.19 14.6
-11 -2 4 117.69 11.2
11 2 -3 232.08 17.8
-11 2 3 261.17 20
11 -2 -3 238.88 20.2
-11 -2 3 260.57 20.8
11 2 -2 222.68 17.4
-11 2 2 243.68 21.6
11 -2 -2 216.58 19
-11 -2 2 299.87 20.9
11 2 -1 59.69 9.9
-11 2 1 53.09 9.1
11 2 -1 57.79 12.1
11 -2 -1 49.3 9.4
-11 -2 1 38.2 9.1
11 -2 -1 56.29 7.1
-11 2 0 45 7.8
11 2 0 27 8.9
11 -2 0 28.2 7.6
11 -2 0 42.1 7
-11 -2 0 21 8
-11 2 -1 33.2 8.7
-11 2 -1 39.7 7.5
11 2 1 30.4 9.4
11 -2 1 36.8 8
-11 -2 -1 27 8.6
11 -2 1 34.9 8.7
-11 2 -2 9.3 8.4
-11 2 -2 -0.6 4.7
-11 -2 -2 12.6 7.2
11 -2 2 8.5 5.4
11 -2 2 1.6 6.1
11 2 3 45.7 10.1
11 -2 3 71.19 10.6
11 -2 3 56.59 16.8
-11 -2 -3 48.8 10.1
11 2 4 22.5 8.9
-11 -2 -4 9.1 7.5
11 -2 4 24.2 9.7
11 -2 4 21.5 8.7
11 2 5 187.38 18.8
-11 -2 -5 134.59 17.8
11 -2 5 159.48 13.9
11 -2 5 172.48 18.8
11 2 6 17.8 10.4
-11 -2 -6 30.5 11.2
11 -2 6 27.9 6.8
11 -2 6 23.7 10.6
11 2 7 -0.4 9.5
11 -2 7 -0.2 5.4
11 -2 7 -9.3 7.4
-11 -2 -7 8.2 9.8
11 2 8 19.2 12
11 -2 8 13.2 11
11 -2 8 5.9 6
11 2 9 9.1 11.4
11 -2 9 17.8 6.9
11 -2 9 20.2 12.3
11 2 10 1.4 10.6
11 -2 10 4.8 11.7
11 -2 10 16.2 6.9
11 2 11 2.6 10.6
11 -2 11 0.5 10.8
11 -2 11 10.8 6.8
-11 3 11 -2.7 8.5
-11 3 11 -6.9 5.8
-11 -3 11 -11 8.7
-11 3 10 14.4 6.3
-11 3 10 13.5 9.8
-11 3 9 0.4 8.9
-11 -3 9 3.2 4.9
-11 3 8 17 9.7
-11 -3 8 -6.1 4.4
-11 3 7 23.3 10
-11 -3 7 17.6 14.4
-11 -3 7 29.4 6.2
-11 3 6 -2.9 6.5
11 3 -6 -13.4 4.8
-11 -3 6 0.9 11.2
-11 3 5 43.2 10.8
11 3 -5 40.1 7.9
-11 -3 5 33.1 12.3
11 -3 -5 34.4 10.6
11 3 -4 27.3 6.6
-11 3 4 14.1 7.5
11 -3 -4 30 9.5
-11 -3 4 28 10.1
11 3 -3 8 4.8
-11 3 3 6.2 6.6
11 -3 -3 9.5 6.8
-11 -3 3 22.5 9.7
-11 3 2 1.7 5.6
11 3 -2 -4.4 9.8
-11 -3 2 11 7.7
11 -3 -2 1.1 5.8
-11 3 1 45.6 11.3
11 -3 -1 50.79 9.3
11 -3 -1 39.1 6.3
-11 -3 1 39 10.1
-11 3 0 -6.3 4.6
11 -3 0 -2.2 4.5
11 -3 0 0.2 5.2
-11 -3 0 -4.7 7.1
11 3 1 17.4 9.8
-11 3 -1 34 7.3
-11 -3 -1 24.1 8.3
11 -3 1 29.7 7.9
11 -3 1 23.2 6.8
11 3 2 215.08 19.8
-11 3 -2 233.28 17.1
11 -3 2 247.28 19.9
11 -3 2 203.68 23.7
-11 -3 -2 243.68 20
11 3 3 83.89 13.4
11 -3 3 63.59 11.7
11 -3 3 61.29 10
-11 -3 -3 55.89 10.9
11 3 4 25.5 9.6
11 -3 4 30.9 10.1
-11 -3 -4 22 9.3
11 -3 4 24.4 7.1
11 3 5 14 9.1
11 -3 5 2.6 7.2
-11 -3 -5 18.3 9.5
11 3 6 63.49 14.1
11 -3 6 62.19 13.9
11 -3 6 61.89 9.5
11 3 7 86.19 16.9
-11 -3 -7 52.29 15.4
11 -3 7 80.79 16.6
11 -3 7 57.49 8.6
11 3 8 109.89 19
11 -3 8 94.89 11
11 -3 8 97.29 24.6
11 3 9 -1 11.6
11 -3 9 6.5 11.6
11 -3 9 2.6 5.2
11 3 10 3.4 12.6
11 -3 10 6.1 5.6
11 -3 10 -7.8 10.7
11 3 11 15.2 12
11 -3 11 1.4 6
11 -3 11 -1.7 10.5
-11 4 11 1.5 8.9
-11 4 10 -2.9 7.9
-11 4 9 6.7 8.8
-11 4 8 6.3 9.6
-11 -4 8 17.1 17.2
11 4 -7 37.8 8.2
-11 4 7 12.6 9.2
-11 -4 7 61.29 22.5
-11 4 6 18.2 9.7
11 4 -6 9.3 5.9
-11 -4 6 27.4 15.8
11 4 -5 16.4 5.9
-11 4 5 18.9 8.9
-11 -4 5 1.5 11.9
11 4 -4 3.9 4.8
-11 4 4 -7.5 5.8
-11 -4 4 -10.9 9
-11 4 3 22.6 8
11 4 -3 29.4 9.9
-11 -4 3 16.3 10.2
11 -4 -3 18.4 8.3
-11 4 2 101.29 13.8
11 4 -2 86.59 10.3
11 4 -2 105.99 18.5
11 -4 -2 100.29 8.8
-11 -4 2 82.19 14.3
11 -4 -2 99.69 14.2
11 4 -1 508.35 35.9
-11 4 1 465.35 30.7
11 -4 -1 418.46 27.4
11 -4 -1 411.26 30.3
-11 -4 1 446.96 31.6
-11 4 0 25.1 7.3
11 4 0 48.7 12.3
11 -4 0 18.3 7.2
11 -4 0 40.4 8.3
-11 -4 0 30.7 9.9
-11 4 -1 214.98 17.2
11 4 1 194.88 20
11 -4 1 192.18 16.5
11 -4 1 187.18 17.2
-11 -4 -1 187.38 18.9
11 4 2 2.1 7.8
-11 4 -2 -3 4.4
-11 -4 -2 -7.8 6.2
11 -4 2 4.2 4.9
11 4 3 16.5 9.1
-11 4 -3 6.1 4.6
-11 -4 -3 2.6 7.3
11 -4 3 1.6 5.5
11 -4 3 10 8.2
11 4 4 1.7 8.9
11 -4 4 5.4 8.1
-11 -4 -4 4.3 8.4
11 -4 4 -6.8 4.3
11 4 5 8 10
11 -4 5 12.2 5.4
11 -4 5 8.5 9.8
-11 -4 -5 8.3 10.5
11 4 6 15.1 11.3
11 -4 6 13.1 4.8
-11 -4 -6 7.4 11.5
11 -4 6 1 9.3
11 4 7 24.3 12.8
-11 -4 -7 11.7 13.7
11 -4 7 29.8 13.9
11 -4 7 33 6.7
11 4 8 7.9 13.3
11 -4 8 -8.8 5.8
11 -4 8 -2.5 10.2
11 4 9 36.2 15.1
11 -4 9 31.7 15.1
11 -4 9 50.09 10.4
11 4 10 25.1 14.1
11 -4 10 -3.3 6.6
11 -4 10 0.1 11.6
11 4 11 -1.8 11.2
11 -4 11 0.6 12.5
11 -4 11 4.5 5.6
-11 5 10 2.5 8.9
-11 5 9 1.9 10.1
-11 5 8 6.5 8.9
-11 5 7 -0.9 8.1
11 5 -7 15.6 6.2
-11 -5 7 0.4 16.2
11 5 -6 2.3 5.4
-11 5 6 -4.6 6.7
-11 -5 6 -17.3 13.9
-11 5 5 45.7 11
11 5 -5 33 7.2
-11 -5 5 25.7 15.3
-11 5 4 17.2 8.9
11 5 -4 24.7 10.8
-11 -5 4 18.1 13.6
-11 5 3 -0.3 6.2
11 5 -3 0.6 4.9
-11 -5 3 17.6 12.1
-11 5 2 95.89 14
11 5 -2 111.49 19.6
-11 -5 2 95.89 15.9
11 -5 -2 110.99 15.4
11 -5 -2 100.59 12.2
-11 5 1 221.98 19.1
11 5 -1 161.58 23.7
11 -5 -1 203.68 19
-11 -5 1 219.28 21.8
11 5 0 14.5 11.6
-11 5 0 26.6 8
-11 -5 0 15.9 9.7
11 -5 0 22.4 7.8
11 5 1 8.8 9.8
-11 5 -1 16.1 7
-11 -5 -1 18.3 10.6
11 -5 1 16.7 7.3
11 5 2 10.6 9.9
11 -5 2 24 9.7
11 -5 2 17 6.9
-11 -5 -2 7.9 9.1
11 5 3 20.5 10.6
-11 5 -3 3.5 5.1
11 -5 3 1.9 5.5
-11 -5 -3 -0.9 8.9
11 -5 3 6.6 8.6
11 5 4 34.1 12.8
11 -5 4 23.2 10.9
-11 -5 -4 25.5 11.1
11 -5 4 28 7.8
11 5 5 5 11.1
11 -5 5 11.6 5.2
-11 -5 -5 -9.6 10.2
11 -5 5 11.9 11.8
11 5 6 43.2 14
11 -5 6 39.5 7.2
11 -5 6 29.2 14.1
-11 -5 -6 16.8 13.4
11 5 7 4.5 12.3
11 -5 7 -4.7 10.6
11 -5 7 4.3 4.7
11 5 9 8.3 13
11 -5 9 -1.8 11.6
11 -5 9 -2.4 3.7
11 5 10 48.4 17.3
11 -5 10 35.8 18.8
-11 6 10 9.7 11.5
-11 6 8 4.5 9.1
11 6 -7 3.9 5
-11 6 7 0.4 8.2
11 6 -6 195.58 15.6
11 6 -5 9.3 6.3
-11 6 5 -1.8 7.7
-11 -6 5 -0.1 17.3
-11 6 4 77.99 14.8
11 6 -4 117.89 11.8
-11 -6 4 142.79 26.3
-11 6 3 10.8 8.6
11 -6 -3 16.2 7.3
-11 6 2 43.8 11.3
11 -6 -2 17.5 10.2
-11 -6 2 -6.5 11.9
-11 6 1 37 10.2
11 6 -1 17.6 13.8
11 -6 -1 21.3 10.5
-11 -6 1 -9.5 10.2
11 6 0 11 14.7
-11 6 0 26 8.4
-11 -6 0 29.6 11.8
11 -6 0 31.7 10.1
-11 6 -1 23.1 7.8
11 6 1 3.6 12.5
-11 -6 -1 2.9 10.6
11 -6 1 28 8.7
-11 6 -2 45.9 9.1
11 6 2 38.8 13.7
11 -6 2 49.3 10
-11 -6 -2 16.7 17.5
-11 6 -3 -5 5.6
11 6 3 -14 8.9
11 -6 3 -6.7 5.1
-11 -6 -3 4.1 10
11 6 4 9.7 11.9
-11 6 -4 5.9 5.1
-11 -6 -4 10.5 11.8
11 -6 4 9.5 6.2
11 -6 4 9.9 12.2
11 6 5 34.6 14
11 -6 5 30 14.4
-11 -6 -5 14 12.7
11 6 6 3.6 11.5
11 -6 6 -22.3 13
11 -6 6 -12.3 4.6
11 6 7 3.4 12.7
11 -6 7 -4.6 4.4
11 -6 7 -1.9 10.9
11 6 8 26.9 15.2
11 -6 8 1.2 11.8
11 6 9 38.2 15.2
11 -6 9 1.1 13.1
11 6 10 45.5 17.8
11 -6 10 24.1 16.7
-11 7 9 13.6 10
-11 7 7 6.8 10.7
11 7 -7 -6.6 3.7
11 7 -6 24.2 6.4
-11 7 6 29.4 10.3
-11 7 5 15.1 9.6
11 7 -5 21.9 7.9
11 7 -4 -1.5 5.6
-11 7 4 9.7 9.1
11 -7 -4 -3.7 7.3
-11 7 3 3.7 8.5
11 -7 -3 27.9 9.1
-11 -7 3 -9.2 17.1
-11 7 2 137.59 17.5
-11 7 1 16 9.4
11 7 -1 30.2 16.9
11 -7 -1 29.6 13.8
-11 -7 1 15.2 13.4
-11 7 0 77.39 13.4
11 7 0 100.59 22
11 -7 0 96.49 17.4
-11 -7 0 72.29 18.5
-11 7 -1 7.8 7.7
11 7 1 -7.6 13.7
-11 -7 -1 14 13.3
11 7 2 -15.4 13.2
-11 7 -2 25.7 8.6
-11 -7 -2 5.5 13.1
-11 7 -3 5.2 6
11 7 3 36.1 14.2
-11 -7 -3 2.9 11
11 7 4 1.2 12.2
11 -7 5 5.5 12.4
11 7 6 11.1 14
11 -7 6 -0.7 13
11 7 7 13.7 14.7
11 -7 7 -3.3 13.3
11 7 8 4.6 14.1
11 -7 8 -9.9 12.7
11 7 9 -15 13.3
11 -7 9 -11.8 12.7
-11 8 6 17.2 9.9
11 8 -5 50.79 8.9
-11 8 5 32.3 11.1
-11 8 4 33.6 12.9
11 8 -4 44.9 9.3
-11 8 3 43.6 12
11 -8 -3 49.3 11.7
-11 8 2 73.69 15.2
11 -8 -2 33.7 13.5
-11 8 1 7.5 8.7
11 -8 -1 -12.5 14.2
11 8 0 -19.2 14.9
-11 8 0 -4.7 8.1
11 -8 0 -24.6 12.9
11 8 1 66.09 23.4
-11 8 -1 95.79 14.7
-11 8 -2 11.3 8
-11 8 -3 10.6 7.4
11 8 3 39.2 16.7
11 8 4 2.3 15.3
-11 8 -4 2.7 6.1
11 8 5 -13.4 12.5
11 8 6 1.9 13.1
11 -8 6 -8.6 13.1
11 8 7 -0.4 12
11 -8 7 -0.2 13.7
11 8 8 -17.4 13.4
11 -8 8 -5.1 13.8
-11 9 7 1.3 9.4
-11 9 6 2.1 10.1
11 9 -6 -6.7 4
-11 9 5 4.3 9.1
11 9 -5 11.3 6.2
11 -9 -5 -18.5 7.5
-11 9 4 -9.6 6.6
11 9 -4 9.6 7.2
11 -9 -4 4.2 9.8
-11 9 3 16.6 9.9
11 -9 -3 6.2 9.4
-11 9 2 0.2 9.7
11 -9 -2 24.2 11.7
-11 9 1 66.59 16.1
11 -9 -1 111.19 21
-11 9 0 5.7 9.8
11 -9 0 -3.1 15.9
11 9 1 -8.3 15.5
-11 9 -1 6.2 8.7
11 -9 1 -5.4 15.7
11 9 2 10.7 17.2
-11 9 -2 4.6 8.4
11 -9 2 -7.2 15.1
-11 9 -3 7.9 7.4
11 9 3 -1.9 14.2
-11 9 -4 -1.5 6
11 9 4 -15.5 13.6
11 9 5 3.1 15.5
11 9 6 0.7 15.1
11 -9 6 -3.9 15.1
11 9 7 -10.4 13.9
11 -9 7 24.6 19.3
11 10 -5 -0.2 5.3
11 -10 -5 10 9.5
11 -10 -4 -5.1 8.8
-11 10 3 24.5 11.1
11 -10 -3 -5.2 8.9
-11 10 2 -6.5 7.8
11 -10 -2 5.6 10.9
-11 10 1 7.9 10.9
11 -10 -1 1.3 14.9
-11 10 0 43.6 15.4
11 -10 0 -3.1 18.6
11 10 1 42.1 19.5
-11 10 -1 5 10.6
11 10 2 2.4 15.3
-11 10 -2 10.9 9.9
11 10 3 18.6 17.4
-11 10 -3 28.7 10.6
11 10 4 -19.7 13.6
-11 10 -4 5.8 7.1
-11 10 -5 0.5 3.7
11 10 5 -2.6 15.2
-11 11 2 29.3 11.8
11 -11 -2 23.5 12.7
-11 11 1 15.9 13.7
-11 11 -1 12.4 11.6
-11 11 -2 1.9 11.4
-12 0 12 7.8 9.2
-12 0 12 19.8 9.4
-12 0 11 2.2 7.5
-12 0 11 -10.1 5.9
-12 0 10 32.7 9.4
-12 0 10 7 7.2
-12 0 9 2.3 7.2
-12 0 9 -2.2 5.8
-12 0 8 68.89 11.7
-12 0 8 71.79 13.9
12 0 -7 -1 7.3
-12 0 7 -4.3 5.2
12 0 -6 122.09 16.2
-12 0 6 147.59 15
-12 0 6 156.08 16.3
-12 0 5 -1.6 5.7
12 0 -5 0.5 5.7
-12 0 5 -3.5 4.6
12 0 -4 295.17 22.4
-12 0 4 312.17 20.2
-12 0 4 295.57 21.9
12 0 -3 4.5 6
-12 0 3 0.1 4.9
-12 0 3 -4.8 4.7
-12 0 2 31.8 7.3
12 0 -2 25.9 7.5
-12 0 2 18.3 5.5
12 0 -1 1.4 5
12 0 -1 -3 5.9
-12 0 1 1.3 4.7
-12 0 1 12.9 5.9
-12 0 0 2230.78 117.29
12 0 0 2179.18 116.99
12 0 0 2150.98 117.89
-12 0 0 2131.59 117.79
12 0 1 5.5 6.5
12 0 1 2.5 5.3
-12 0 -1 1.8 6.1
12 0 2 249.88 19.7
-12 0 -2 233.68 20.3
12 0 2 241.38 18.5
12 0 3 -14.1 5.3
-12 0 -3 -2.6 6.7
-12 0 -4 3.2 6.9
12 0 4 2.6 7.4
12 0 5 5.2 7.2
-12 0 -5 -9.7 7.1
-12 0 -6 0.4 8.6
12 0 6 24.3 9.7
-12 0 -7 -6.5 10.4
12 0 7 2.2 8.8
12 0 8 54.59 14.9
12 0 9 16.4 12.5
12 0 10 88.49 18.9
12 0 11 -14.5 8.8
-12 1 12 14.5 8.2
-12 1 12 5.2 8.5
-12 -1 12 6.4 9.7
-12 -1 12 1.5 6.7
-12 1 11 11.5 7.3
-12 1 11 0.7 8.2
-12 -1 11 7.1 8.6
-12 -1 11 -5.2 5.5
-12 1 10 123.59 18.2
-12 1 10 135.39 15.1
-12 -1 10 96.69 16.8
-12 -1 10 121.29 14.3
-12 1 9 3.5 6.2
-12 1 9 -2 6.3
-12 -1 9 -0.4 5.2
-12 -1 9 1.8 7.6
-12 1 8 78.19 13.7
-12 1 8 76.59 11
-12 -1 8 85.89 12.2
-12 1 7 38.8 7.6
12 1 -7 33.6 9.9
-12 1 7 30.3 9
-12 -1 7 56.39 9.1
-12 1 6 114.79 10.7
12 1 -6 106.99 14.4
-12 1 6 110.69 12.3
-12 1 6 89.19 13.4
-12 -1 6 145.19 19.8
12 -1 -6 92.49 14.9
-12 -1 6 93.69 11.9
-12 1 5 17.8 7.2
12 1 -5 19.4 6.8
-12 1 5 11.7 5
-12 -1 5 17.9 8.4
12 -1 -5 14.2 7.5
-12 -1 5 9.5 7.3
12 1 -4 5 5.5
-12 1 4 2.5 5.7
12 -1 -4 5.7 6.4
-12 -1 4 2.3 4.9
-12 -1 4 1.8 7.1
-12 1 3 35 8.4
12 1 -3 43.9 8.3
-12 -1 3 43.9 8.4
12 -1 -3 51.99 9.7
-12 -1 3 61.29 8.9
12 1 -2 56.09 9.2
-12 1 2 61.39 9.9
-12 1 2 65.79 7.7
-12 -1 2 81.79 11.3
-12 -1 2 67.09 9.4
12 -1 -2 60.39 10
12 1 -1 96.79 11
12 1 -1 94.49 12.5
-12 1 1 99.09 10.3
-12 1 1 81.09 11.1
-12 -1 1 88.49 11.2
12 -1 -1 92.89 10.1
12 -1 -1 99.09 11.5
-12 1 0 23.6 6.9
-12 1 0 22.4 7.4
12 1 0 32.4 7.2
12 1 0 29 8.1
12 -1 0 35.1 6.8
12 -1 0 29.1 7.5
-12 -1 0 26.3 7.3
12 1 1 656.83 40.2
-12 1 -1 619.84 39.6
-12 1 -1 662.83 40.9
12 1 1 672.63 40.3
12 -1 1 710.83 40.2
-12 -1 -1 627.24 44.8
12 -1 1 716.43 40.2
-12 1 -2 66.69 12.7
12 1 2 71.39 11.2
12 -1 2 96.99 12.6
-12 -1 -2 65.09 10.5
12 -1 2 96.49 11
12 1 3 95.69 13.1
-12 1 -3 89.09 14.1
12 -1 3 81.89 10.4
12 -1 3 99.29 12.9
-12 -1 -3 80.49 12.4
-12 1 -4 32.2 10.6
12 1 4 34 9.7
-12 -1 -4 20.5 8.8
12 -1 4 33.2 7.4
12 -1 4 27 8.9
-12 1 -5 -0.4 8.3
12 1 5 -3.2 7.1
12 -1 5 -0.3 5.2
-12 -1 -5 -10.7 5.8
12 -1 5 4.1 7.4
-12 1 -6 5.3 10.2
12 1 6 5.3 8
12 -1 6 6.8 7.8
-12 -1 -6 -7.7 7.5
12 1 7 -13.7 8.2
12 -1 7 -4.7 7.8
-12 -1 -7 1.1 10.3
12 1 8 3.8 9.8
12 -1 8 7.6 9.7
12 1 9 32.5 13.9
12 -1 9 12.6 10.9
12 1 10 -4.5 10.2
12 -1 10 -6.2 9.7
12 1 11 16 13.2
12 -1 11 25.9 12
-12 2 11 -12.7 6.3
-12 2 11 0.2 5.8
-12 -2 11 13.6 10.6
-12 -2 11 -5.8 4.9
-12 2 10 6 5.8
-12 2 10 -3.2 7.6
-12 -2 10 7.9 9.4
-12 -2 10 2.4 5.2
-12 2 9 16.6 9.3
-12 2 9 20 6.6
-12 -2 9 14.5 6.6
-12 2 8 22.8 9.8
-12 -2 8 25.1 7.1
12 2 -7 34.8 9.2
-12 2 7 34.5 10.6
-12 -2 7 25.2 7.3
-12 -2 7 40.9 14.2
-12 2 6 26 9
12 2 -6 9.7 6.9
-12 -2 6 6.5 11.1
12 -2 -6 38.8 10.7
-12 -2 6 25.9 10
12 2 -5 3.9 5.8
-12 2 5 5.3 6.2
12 -2 -5 8.4 7.6
-12 -2 5 -6.6 8.4
-12 -2 5 -3.8 4
12 2 -4 4.9 5.4
-12 2 4 1.1 5.7
-12 -2 4 0 4.3
-12 -2 4 -14.1 7.3
12 -2 -4 -0.6 5.7
12 2 -3 186.48 15.3
-12 2 3 219.08 17.4
-12 -2 3 151.48 19.8
12 -2 -3 182.28 17.2
-12 2 2 511.35 33.4
12 2 -2 520.55 31.9
-12 -2 2 548.25 33.7
12 -2 -2 486.05 33.6
-12 2 0 7.4 5.9
12 2 0 6.2 6
12 -2 0 9.1 6.4
-12 -2 0 4.3 6.9
12 2 1 1211.28 66.09
-12 2 -1 1122.99 65.79
-12 2 -1 1180.08 64.59
12 -2 1 1099.79 64.59
12 -2 1 1106.29 64.49
-12 -2 -1 1146.69 65.49
-12 2 -2 70.49 9.6
-12 2 -2 70.79 12.5
12 2 2 53.49 11
-12 -2 -2 47.9 9.9
12 -2 2 64.29 9.2
12 -2 2 53.49 10.4
12 2 3 383.46 26.4
-12 2 -3 305.37 26.8
-12 -2 -3 346.67 25.8
12 -2 3 348.77 26
12 -2 3 344.37 23.1
12 2 4 16.5 8.9
12 -2 4 8.2 8
12 -2 4 7.7 5.6
-12 -2 -4 8.4 7.4
12 2 5 78.39 14.5
-12 -2 -5 86.49 14.8
12 -2 5 84.39 14.7
12 -2 5 91.99 10.4
12 2 6 5.9 9.3
12 -2 6 5 5.8
12 -2 6 16 10.1
12 2 7 36.7 12.5
12 -2 7 21 7.6
-12 -2 -7 24.7 12.3
12 -2 7 19.3 10.8
12 2 8 -1.6 10.7
12 -2 8 1.1 6.1
12 2 9 61.89 15.6
12 -2 9 68.79 10.4
12 -2 9 60.79 16.1
12 2 10 -8.7 10.7
12 -2 10 10 6.7
12 -2 10 -5 9.2
12 2 11 17 13.7
12 -2 11 13.4 7.8
12 -2 11 16.3 12.3
-12 3 11 -4.5 8.6
-12 -3 11 1.7 9.7
-12 -3 11 -2 4.8
-12 3 10 14.7 10.9
-12 -3 10 4.2 5.5
-12 3 9 110.49 21.2
-12 -3 9 71.69 11
12 3 -8 2.5 7.7
-12 3 8 5.8 9.2
-12 -3 8 -2.2 14.7
-12 3 7 32.3 10.6
12 3 -7 27.8 8.3
-12 -3 7 17 15.9
-12 -3 7 23.5 6.4
12 3 -6 71.79 10.8
-12 3 6 76.29 13.6
-12 -3 6 94.19 20
12 3 -5 2.3 5.4
-12 3 5 -5.7 6.2
-12 -3 5 13.8 11.4
12 -3 -5 12.1 8
-12 3 4 5.4 6.4
12 3 -4 6.8 5.4
12 -3 -4 9.9 7.7
-12 -3 4 4.4 9.8
-12 3 3 43.1 9.4
12 3 -3 41.5 7.4
-12 -3 3 35.8 10.7
12 -3 -3 51.79 10.8
12 3 -2 335.27 22.3
-12 3 2 306.97 24.1
12 3 -2 347.37 40.4
12 -3 -2 305.97 24.6
-12 -3 2 356.46 26
12 3 -1 223.98 34
12 3 -1 155.28 14.5
-12 3 1 169.38 15.7
-12 -3 1 165.88 17.8
12 -3 -1 166.38 12.5
12 -3 -1 152.88 15.9
12 3 0 144.79 19.1
-12 3 0 171.28 16.8
12 -3 0 158.98 15.2
12 -3 0 159.88 13.8
-12 -3 0 187.38 17.5
12 3 1 419.36 30.5
-12 3 -1 430.46 28.7
12 -3 1 446.76 29
12 -3 1 429.86 28.7
-12 -3 -1 440.16 30.2
12 3 2 23.9 9.3
-12 3 -2 23.5 6.9
12 -3 2 15 7.5
-12 -3 -2 17 8.4
12 -3 2 25.2 6.7
12 3 3 80.49 13
-12 -3 -3 69.99 12.7
12 -3 3 67.39 11.9
12 -3 3 75.39 9.6
12 3 4 12.7 9
-12 -3 -4 2.8 8
12 -3 4 -0.9 6.8
12 -3 4 27.2 6.4
12 3 5 -11 7.9
-12 -3 -5 -7.9 7.5
12 -3 5 1.1 8
12 -3 5 1.7 4.5
12 3 6 26.9 12.3
-12 -3 -6 14.7 11.7
12 -3 6 40.5 7.3
12 -3 6 27.9 12.1
12 3 7 -5.3 10.4
12 -3 7 -4.3 9.2
12 -3 7 6.8 5.2
-12 -3 -7 -2.8 12
12 3 8 136.29 27.7
12 -3 8 165.28 14.4
12 -3 8 197.18 25.2
12 3 9 0.6 10.9
12 -3 9 8.6 5.9
12 -3 9 -11.3 9.9
12 3 10 32 14.3
12 -3 10 42.2 15.4
12 -3 10 24.1 7.5
12 3 11 0.1 12.3
12 -3 11 7.8 6
12 -3 11 -4.5 11.1
-12 4 11 41.2 13.6
-12 4 10 12.1 9.1
-12 4 9 -2.9 10.4
-12 4 8 281.97 41.9
-12 4 7 -4.8 7.4
12 4 -6 41.9 12.1
-12 4 6 77.99 14.9
-12 -4 6 76.89 20.6
12 4 -5 -3.6 4.8
-12 4 5 16.5 8.8
-12 -4 5 -1.6 11.5
-12 4 4 3.2 6.8
12 4 -4 12.4 5.9
-12 -4 4 23.7 12.4
12 -4 -4 19.1 8.5
12 4 -3 2.9 5
-12 4 3 -7.1 5.3
12 -4 -3 12.2 7.3
-12 -4 3 4.4 9.9
12 4 -2 -0.2 10.6
-12 4 2 -3 5.4
12 4 -2 -2.8 4.7
12 -4 -2 0.6 6.3
-12 -4 2 -13.2 7.6
12 4 -1 24.3 12.8
-12 4 1 27.2 8.1
12 -4 -1 29.9 6.7
-12 -4 1 21 9.8
12 -4 -1 27.7 8
12 4 0 93.09 16.8
-12 4 0 75.09 11.1
12 -4 0 81.79 12.2
-12 -4 0 91.79 14.1
12 -4 0 78.99 10.9
-12 4 -1 93.89 11.9
12 4 1 83.99 14.1
12 -4 1 98.69 11.8
-12 -4 -1 110.79 15.1
12 -4 1 103.69 13.1
12 4 2 340.77 27.1
-12 4 -2 321.17 29.1
12 -4 2 362.56 24.1
-12 -4 -2 315.77 26.1
12 -4 2 350.66 26.6
-12 4 -3 2.5 5.4
12 4 3 9 8.8
12 -4 3 15 8.8
12 -4 3 5.6 5.1
-12 -4 -3 4.8 7.8
12 4 4 -12.3 7.9
12 -4 4 -2.1 4.6
-12 -4 -4 1.7 8.2
12 -4 4 2.6 8.6
12 4 5 30.5 12.5
-12 -4 -5 10.7 12
12 -4 5 14.2 5.7
12 -4 5 13.8 9.9
12 4 6 -3 10.8
12 -4 6 1.4 10.5
-12 -4 -6 -3.4 10.7
12 -4 6 1.1 4.5
12 4 7 13.9 12.1
12 -4 7 7.9 5.4
12 -4 7 3.2 10.4
12 4 8 50.89 15.4
12 -4 8 40.7 15.8
12 -4 8 59.19 8.5
12 4 9 8.1 12.3
12 -4 9 1.7 5.1
12 -4 9 -5.7 9.6
12 4 10 45.9 17.2
12 -4 10 34.8 16.2
-12 5 9 6.4 9.7
-12 5 8 -6.2 8.8
12 5 -8 -1.3 6
12 5 -7 72.59 10.5
-12 -5 7 78.39 24.1
12 5 -6 -16.1 7.7
-12 5 6 -1.3 7.7
-12 -5 6 61.39 20.7
-12 5 5 -7.6 7.2
12 5 -5 2.6 6
-12 -5 5 6.4 16.4
-12 5 4 4.5 8
12 5 -4 1.3 5
-12 -5 4 25.1 14.2
12 5 -3 0.2 5
-12 5 3 3.2 6.6
12 -5 -3 0.4 8.2
-12 -5 3 14.7 12
12 5 -2 9.2 12.3
-12 5 2 15.2 8
-12 -5 2 -0.4 10.5
12 -5 -2 6.5 7.2
12 -5 -2 7.3 7.6
-12 5 1 125.79 14.7
12 5 -1 116.59 21.2
12 -5 -1 120.59 14.8
-12 -5 1 125.29 18.1
12 5 0 36.8 14.4
-12 5 0 46.2 9.3
12 -5 0 34.1 9.4
-12 -5 0 20.7 11.4
12 -5 0 39.2 9.4
-12 5 -1 -6.8 4.8
12 5 1 -11.1 8.8
12 -5 1 1.2 7
-12 -5 -1 2.4 9.1
12 -5 1 11.1 6.6
12 5 2 58.59 13
-12 5 -2 49.4 8.8
12 -5 2 53.79 12.2
12 -5 2 36.9 8.7
-12 -5 -2 32 10.7
-12 5 -3 -11.2 5.2
12 5 3 2.9 9.5
12 -5 3 1.5 8.5
-12 -5 -3 10.6 9.9
12 -5 3 15.3 6.4
12 5 4 29.4 13.9
12 -5 4 36.8 8.1
12 -5 4 56.69 14.8
-12 -5 -4 36.2 12.6
12 5 5 14.6 12
12 -5 5 -0.2 10.3
12 -5 5 18.6 6.3
-12 -5 -5 7.2 10.9
12 5 6 33.7 13.9
-12 -5 -6 3.5 17.3
12 -5 6 33.3 14.9
12 5 7 54.09 18
12 -5 7 52.29 16.7
12 -5 7 71.09 11.7
12 5 8 3.7 12.4
12 -5 8 -0.3 4.7
12 -5 8 8.5 12.4
12 5 9 -6.7 12
12 -5 9 14.7 5.2
12 -5 9 -4.1 10.6
12 5 10 10.1 14.7
12 -5 10 24.8 18.5
-12 6 9 2.9 11.7
-12 6 8 -5.3 7.8
-12 6 7 0.1 9
12 6 -7 -2.7 5.4
-12 6 6 106.19 18
12 6 -6 90.49 13.6
12 6 -5 30.2 7.3
-12 6 5 29.9 11.2
-12 -6 5 71.79 20
-12 6 4 27.3 11.4
12 6 -4 29.5 7.6
-12 -6 4 -1.3 16.1
-12 6 3 -1.6 7.3
12 6 -3 -4.1 5.2
-12 -6 3 25.7 15.3
12 -6 -3 11.5 6.7
-12 6 2 72.49 12.9
12 -6 -2 57.09 12.8
12 6 -1 51.19 16.6
-12 6 1 32.2 10.2
12 -6 -1 22.3 10
12 -6 -1 42.8 11.6
-12 -6 1 23 14.6
12 6 0 -26.7 10.8
-12 6 0 5.5 6.8
12 -6 0 9 9
-12 -6 0 -13.1 10.3
-12 6 -1 6.6 6.7
12 6 1 -8.3 11.5
12 -6 1 16.1 7.9
12 6 2 3.7 11.8
-12 6 -2 4.9 6.2
-12 -6 -2 -0.8 10.1
12 -6 2 15 7.4
12 6 3 -1 10.4
-12 6 -3 15.8 6.6
-12 -6 -3 4.7 10.6
12 -6 3 -5.9 5.8
12 -6 3 -22.7 9
-12 6 -4 1 6.5
12 6 4 -12.7 10.8
-12 -6 -4 -3 10.7
12 -6 4 -12.2 5.2
12 -6 4 -2.5 9.8
12 6 5 5.1 12.1
12 -6 5 5.1 11.8
12 -6 5 -4.5 5.5
12 6 6 35.2 22.1
12 6 7 7.6 13
12 -6 7 6.1 5.2
12 -6 7 19.2 14.5
12 6 8 -6.9 12.6
12 -6 8 -5.2 4.2
12 -6 8 9.4 13.1
12 6 9 35.3 16.6
12 -6 9 62.39 21.9
-12 7 9 2.2 7.9
-12 7 8 -10.9 7.4
-12 7 7 12 9.4
12 7 -6 8.5 9.8
-12 7 6 20 9.7
12 7 -5 2.9 6
-12 7 5 4.5 9
-12 7 4 5.7 8.5
12 7 -4 -13.8 5.5
-12 7 3 -4 7.4
12 -7 -3 12.8 8
-12 -7 3 32.8 22.9
-12 7 2 -5.6 7.7
-12 -7 2 20.7 16.1
12 -7 -2 -7.3 14.2
-12 7 1 17.9 9.4
12 7 -1 -8.6 13.1
-12 -7 1 21 14.7
12 -7 -1 -24.2 11.4
12 7 0 4.4 15.5
-12 7 0 11.6 8.6
-12 -7 0 1.8 12
-12 7 -1 21.6 8.9
12 7 1 -23.2 13.8
-12 -7 -1 7.9 13.2
-12 7 -2 11.5 7.2
12 7 2 27.5 15.1
-12 -7 -2 -2.2 11.3
12 7 3 57.79 17.6
-12 7 -3 78.79 11.6
12 7 4 0.7 16.2
-12 7 -4 15.1 6.7
12 -7 4 4.9 13.1
12 7 5 -5.3 12.3
12 -7 5 6.8 13.9
12 7 6 -3.2 12.6
12 -7 6 4.3 13.9
12 7 7 3.2 13.4
12 -7 7 15.4 15.4
12 7 8 -8.5 13.8
12 -7 8 2.9 13.3
12 7 9 -11.5 12.7
12 -7 9 20.5 15.9
12 8 -7 4.7 4.1
-12 8 6 16 10.7
12 8 -5 40.1 8.5
-12 8 5 62.79 18
12 8 -4 20.8 9
-12 8 4 -5 7.6
12 -8 -4 -20.5 7.8
12 -8 -3 0.3 9.8
12 -8 -2 183.28 22.1
-12 8 1 6.8 8.4
12 -8 -1 -12 14.6
-12 8 0 1.8 7.9
12 -8 0 -22.6 12.8
12 8 1 28.2 21.1
-12 8 -1 48 12.7
12 8 2 5.8 14.6
-12 8 -2 3.1 7
12 8 3 -21.6 12.8
-12 8 -3 -0.1 6.3
-12 8 -4 31.1 8.4
12 8 4 48 17.9
12 8 5 -5.4 12.1
12 -8 5 -13.4 12
12 8 6 3.7 13.4
12 -8 6 -6.3 13.7
12 8 7 -11.7 13.1
12 -8 7 5 16.1
12 8 8 24.1 16.1
12 -8 8 -3.9 16.1
-12 9 7 20.9 13
-12 9 6 15 10.3
12 9 -5 11.2 6.7
-12 9 5 -2.4 8.3
-12 9 4 9.5 9.5
12 9 -4 9.7 7.8
12 -9 -4 -9.6 8.3
-12 9 3 5.1 11.8
12 -9 -3 17.2 9.7
-12 9 2 20.3 10.4
12 -9 -2 -3.6 10.6
-12 9 1 14.5 11.4
12 -9 -1 54.89 18.2
-12 9 0 62.59 15.5
12 9 0 91.79 23.5
12 -9 0 129.09 24.5
12 9 1 37.4 18.8
-12 9 -1 8.6 9.4
12 -9 1 8.5 16.6
-12 9 -2 3.4 8.9
12 9 2 8.4 17.2
12 9 3 21 15.5
-12 9 -3 5.7 8.1
-12 9 -4 33 8.5
12 9 4 26.4 17.1
12 9 5 0.5 14.4
12 -9 5 -9.7 13.2
12 9 6 13.8 16.6
12 -9 6 13.8 17.4
12 10 -5 -7 6.2
12 -10 -5 -8 9
12 10 -4 10.5 8.9
12 -10 -4 -16.9 7.3
-12 10 3 4.8 9.4
12 -10 -3 5 9
-12 10 2 -5.9 10.4
12 -10 -2 19.9 11.5
-12 10 1 -0.8 8.6
12 -10 -1 -17.7 19.3
-12 10 0 52.09 15.8
12 -10 0 -13.3 18.9
12 10 1 3.8 16.7
-12 10 -1 18.5 13.7
-12 10 -2 66.19 16
12 10 2 21.2 18.6
12 10 3 14.1 16.5
-12 10 -3 -4.5 7.7
12 10 4 -5.5 16.4
-12 10 -4 -6.6 6.3
12 10 5 -0.1 14.9
-12 11 1 10.6 13.4
12 -11 -1 -1.8 19.2
-12 11 0 -5 12.5
-12 11 -1 16.3 12.6
-13 0 11 -3.2 7
-13 0 11 -1.5 6.8
-13 0 10 9.7 7.3
-13 0 10 1 6.5
-13 0 9 10.1 8.2
-13 0 9 -3.1 7.5
-13 0 8 133.29 16.5
-13 0 8 148.99 16.6
-13 0 7 6 8.4
-13 0 7 -2.2 5.9
13 0 -7 11 8.9
-13 0 6 -1.6 4.9
13 0 -6 -12.4 6
-13 0 6 1.7 8.2
-13 0 5 -0.7 4.8
13 0 -5 -3.5 5.4
-13 0 5 1 6
-13 0 4 181.08 14.4
-13 0 4 183.58 15.7
13 0 -4 177.88 16.8
-13 0 3 4 5.5
-13 0 3 -7.4 4.6
13 0 -3 2.1 5.7
-13 0 2 81.09 17.9
-13 0 2 82.29 9.4
13 0 -2 70.49 10.3
13 0 -1 2.5 5.4
13 0 0 3217.78 171.18
-13 0 0 3201.78 171.38
13 0 1 2.5 6.2
-13 0 -1 2.4 6.4
13 0 1 -5.2 4.9
13 0 2 523.65 33.1
13 0 2 505.05 32.3
-13 0 -2 493.05 33.7
13 0 3 -5.3 6.5
-13 0 -3 -2.4 6.4
13 0 3 2.6 5.1
13 0 4 44.8 10.4
-13 0 -4 20.5 8.8
13 0 5 -9.2 6.4
-13 0 -5 -2.2 7.6
13 0 6 39.2 12.4
13 0 7 -1.9 9.5
-13 0 -7 4.7 12
13 0 9 -0.2 10
13 0 10 10.6 12.7
13 0 11 10.4 11.6
-13 1 11 14.4 7.5
-13 -1 11 43.7 12.3
-13 -1 11 10.7 6.6
-13 1 10 8.3 8.7
-13 1 10 2.2 6.4
-13 -1 10 1 7.9
-13 -1 10 10.6 6.5
-13 1 9 22.3 9.8
-13 1 9 30.6 8.3
-13 -1 9 22.8 8
-13 -1 9 43 11.8
-13 1 8 38.1 10.4
-13 1 8 44.8 8.7
-13 -1 8 31 8.4
-13 -1 8 33.9 16.6
-13 1 7 14.3 8.1
13 1 -7 0.1 7.6
-13 1 7 14.5 8.2
-13 1 7 15.4 5.8
13 -1 -7 30.8 10.4
-13 -1 7 8.4 6.3
-13 -1 7 25.5 12.1
13 1 -6 -1.1 6.4
-13 1 6 -4.4 5.7
-13 1 6 10.5 6.9
-13 1 6 -0.5 4.7
-13 -1 6 2.4 10.8
-13 -1 6 0.3 5
13 -1 -6 8.7 7.7
13 1 -5 23.8 7.7
-13 1 5 36.1 8.7
-13 -1 5 24.5 9.6
13 -1 -5 25.8 8.5
-13 -1 5 26.1 7.1
-13 1 4 218.48 18.1
13 1 -4 204.18 17.7
-13 -1 4 204.88 16.7
13 -1 -4 203.08 18.6
-13 -1 4 206.38 17.4
-13 1 3 63.09 9.9
13 1 -3 72.09 10.5
-13 -1 3 59.19 9.3
13 -1 -3 71.99 11.2
-13 1 2 66.09 9.8
-13 1 2 62.19 7.9
13 1 -2 60.89 9.3
13 -1 -2 86.19 11
-13 -1 2 66.59 10.8
13 -1 -2 44.2 9.4
-13 -1 2 46.9 8.8
13 1 -1 1058.49 62.39
-13 1 1 1111.89 61.09
-13 1 1 1089.99 65.49
13 -1 -1 1077.59 63.09
-13 -1 1 1068.69 61.69
13 -1 -1 1175.28 60.89
13 1 0 65.89 10.8
13 1 0 75.29 10.2
-13 1 0 55.69 9.2
-13 1 0 50.79 14.2
-13 -1 0 50.99 9.3
13 -1 0 68.79 9.6
13 -1 0 50.09 9.4
13 1 1 1169.78 65.69
13 1 1 1184.18 65.79
-13 1 -1 1040.5 65.59
-13 1 -1 1011.7 67.09
13 -1 1 1227.38 65.19
-13 -1 -1 1215.48 65.99
13 -1 1 1197.58 65.69
-13 1 -2 27.7 8.7
13 1 2 21.3 8.3
13 -1 2 21.5 6.8
-13 -1 -2 26.2 8
13 -1 2 23 8.1
-13 1 -3 18.9 9
13 1 3 2.2 7.4
13 -1 3 4 6.2
-13 -1 -3 0.3 6.8
13 -1 3 11.3 6.3
-13 1 -4 167.38 18.9
13 1 4 144.99 16.9
13 -1 4 140.69 13.7
-13 -1 -4 127.99 16.8
13 -1 4 156.58 16.9
13 1 5 63.49 12.4
-13 1 -5 73.49 15.1
-13 -1 -5 66.99 13.2
13 -1 5 68.69 10.4
13 -1 5 60.09 12.7
13 1 6 67.29 14
13 -1 6 45.1 12.1
-13 -1 -6 37.5 14.3
-13 1 -7 19.3 13.8
13 1 7 20.3 11.6
-13 -1 -7 15.5 12.1
13 -1 7 18.7 10.1
13 1 9 13.6 11.8
13 -1 9 8.8 10.6
13 1 10 38 13.1
13 -1 10 55.09 15.4
13 1 11 -2.1 10
13 -1 11 -2.3 9.9
-13 2 11 12.5 9.4
-13 2 11 9.6 7.1
-13 -2 11 35 12.6
-13 -2 11 -11.5 5.4
-13 2 10 5.7 5.3
-13 -2 10 -4.1 8.1
-13 -2 10 0.9 5.3
-13 2 9 7.8 8.9
-13 -2 9 -3.9 5
-13 -2 9 30.8 15.5
-13 2 8 6.2 8.6
13 2 -8 5.1 8
-13 -2 8 -9.1 12.9
-13 -2 8 19 7.1
-13 2 7 61.99 12.9
13 2 -7 53.79 10.9
-13 -2 7 36.6 16.3
-13 -2 7 60.19 9.4
-13 2 6 5.5 7
13 2 -6 10.2 7.3
13 -2 -6 11.5 9.8
-13 -2 6 10.4 5.9
-13 -2 6 8.3 11.5
13 2 -5 17.6 6.9
-13 2 5 8.4 7
13 -2 -5 8.8 7.8
-13 -2 5 5.1 5.5
-13 -2 5 8.6 10.1
13 2 -4 37.4 8
-13 2 4 24.4 8.2
-13 -2 4 32.3 10.1
13 -2 -4 36 9.3
13 2 -3 7.8 5.4
-13 2 3 -0.9 5.4
-13 -2 3 -11.4 7.6
13 -2 -3 -1.5 5.8
13 2 -2 360.16 25.3
-13 2 2 401.66 26.8
13 2 -2 386.76 30.5
13 -2 -2 348.97 26.7
-13 -2 2 433.46 33.7
13 2 -1 0.6 5
-13 2 1 2 5
13 2 -1 3.6 8.9
-13 2 1 -9.5 4.8
-13 -2 1 -9.5 6.9
13 -2 -1 3.8 4.6
13 -2 -1 -4.1 5.3
13 2 0 10.2 8.3
13 2 0 30.4 7.3
-13 2 0 20.6 6.9
-13 2 0 12.9 6.9
13 -2 0 21 7.5
13 -2 0 16 6.1
-13 -2 0 4.1 6.9
-13 2 -1 278.97 22.5
13 2 1 289.37 25.5
-13 2 -1 253.67 27
-13 -2 -1 322.47 22.8
13 -2 1 303.87 22
13 -2 1 321.97 21.8
-13 2 -2 16.7 8.1
13 2 2 19.9 8.3
13 -2 2 6.3 6.6
-13 -2 -2 4.3 6.8
13 -2 2 5.4 5.1
13 2 3 255.37 21.5
-13 2 -3 225.08 22.4
-13 -2 -3 239.58 21.3
13 -2 3 294.97 22.4
13 -2 3 251.17 18.8
13 2 4 -1.7 7.3
-13 -2 -4 -4.8 6.4
13 -2 4 14.9 8.2
13 -2 4 0 5
13 2 5 6.4 8.6
13 -2 5 7.7 7.9
13 -2 5 -1.6 4.9
-13 -2 -5 0.5 8.3
13 2 6 1.1 9.6
-13 -2 -6 1.1 8.6
13 -2 6 2.4 6
13 -2 6 12.2 9.8
13 2 7 89.89 16.8
13 -2 7 85.59 11.5
-13 -2 -7 51.59 15.3
13 -2 7 68.39 15.5
13 2 8 88.19 20.1
13 -2 8 73.59 11.2
13 -2 8 86.89 17.5
13 2 9 26.8 13.8
13 -2 9 64.89 10.1
13 -2 9 48 14.4
13 2 10 -4.1 10.9
13 -2 10 16 7.1
13 -2 10 3.4 10.2
13 2 11 8.6 12.7
13 -2 11 7.2 10.5
13 -2 11 16.2 8
-13 3 11 -1.8 9.3
-13 -3 11 5.4 6
-13 -3 11 10.3 9.7
-13 3 10 -3.3 8.5
-13 -3 10 10.6 5.5
-13 3 9 6.9 10.3
-13 -3 9 -4.3 17.1
-13 -3 9 9.6 5.9
-13 3 8 62.99 14
13 3 -8 53.99 11.3
-13 -3 8 44.2 8.3
13 3 -7 14.1 8.1
-13 3 7 0.7 8.1
-13 -3 7 -8.7 14.4
13 3 -6 100.69 13.2
-13 3 6 143.59 17.2
-13 -3 6 136.49 21.2
13 3 -5 5.5 5.9
-13 3 5 2.5 6.9
-13 -3 5 -11.3 9.8
13 -3 -5 0.5 8
-13 3 4 40.8 9.8
13 3 -4 28 7.2
-13 -3 4 36.1 12
13 -3 -4 39.9 10.9
-13 3 3 2.8 6.1
13 3 -3 -6.9 4.3
13 -3 -3 0.2 5.6
-13 -3 3 -6.2 6.8
13 3 -2 -4.2 4.6
-13 3 2 -2.9 5.4
13 -3 -2 1.5 5.9
-13 -3 2 -5.2 7.6
-13 3 1 56.99 10.2
13 -3 -1 39.4 6.7
-13 -3 1 49.5 10.6
13 -3 -1 51.29 10
-13 3 0 665.13 41.4
13 3 0 654.23 43.7
-13 -3 0 703.83 42.9
13 -3 0 667.33 42
13 -3 0 705.93 40.4
-13 3 -1 210.28 16.7
13 3 1 163.88 18.4
13 -3 1 174.48 16.4
-13 -3 -1 181.58 18.3
13 -3 1 208.68 17
13 3 2 196.88 19.3
-13 3 -2 201.98 17
13 -3 2 168.28 16.1
-13 -3 -2 220.08 19.2
13 -3 2 226.78 21.2
13 3 3 51.09 11.7
-13 -3 -3 39.9 10.3
13 -3 3 34.7 9.8
13 -3 3 41.2 7.8
13 3 4 38.1 11.5
13 -3 4 57.49 11.9
13 -3 4 57.39 8.8
-13 -3 -4 39.1 10.6
13 3 5 -0.3 9.1
13 -3 5 -3 4.6
13 -3 5 -5.2 8
-13 -3 -5 -4.9 10.6
13 3 6 24.3 12.2
13 -3 6 18 6.1
-13 -3 -6 7.8 10.8
13 -3 6 14.9 10.6
13 3 7 12.7 11.9
13 -3 7 0.4 10.5
13 -3 7 6.2 5.9
13 3 8 3.5 12.5
13 -3 8 10.2 6.2
13 -3 8 10.2 11.5
13 3 9 10.5 12.5
13 -3 9 8.9 12.2
13 -3 9 18.9 6.9
13 3 10 -0.8 12.8
13 -3 10 -7.3 9.6
13 -3 10 -0.3 5.5
13 3 11 8.3 14.4
13 -3 11 36.3 16
13 -3 11 22.6 7.4
-13 4 11 54.89 14.4
-13 4 10 -2.3 8.1
-13 4 9 55.89 15.8
-13 4 8 -2.1 9.4
13 4 -8 -2.6 7.2
-13 -4 8 23.7 19.8
13 4 -7 -2.9 6.4
-13 4 7 5.7 8.2
13 4 -6 7.1 6.6
-13 4 6 4.5 8.3
-13 -4 6 -18.1 12.8
-13 4 5 22.7 10.3
13 4 -5 8.7 6.1
-13 -4 5 11.5 14.9
-13 4 4 8.3 7.1
13 4 -4 2 5.1
-13 -4 4 -1.9 10
13 -4 -4 8.2 7.9
-13 4 3 34 9.4
13 4 -3 40.5 7.8
13 -4 -3 55.39 11.6
-13 -4 3 36.2 11.9
13 4 -2 8.8 11.6
-13 4 2 2.9 6.2
13 4 -2 -2.8 4.7
-13 -4 2 5.3 9
13 -4 -2 1.6 5.7
13 4 -1 13.4 12.5
-13 4 1 31.7 8.4
-13 -4 1 28.3 10.3
13 -4 -1 24.4 6.4
13 -4 -1 39.9 8.9
-13 4 0 0.7 5.5
13 4 0 -3.4 9.9
-13 -4 0 6.7 8.8
13 -4 0 3.2 5.9
13 -4 0 6.1 5.8
13 4 1 197.18 21
-13 4 -1 195.78 17.4
-13 -4 -1 205.88 20.2
13 -4 1 217.28 18.1
13 -4 1 221.38 18.6
13 4 2 105.39 16.1
-13 4 -2 97.89 11.9
13 -4 2 111.99 14.8
13 -4 2 103.79 12.4
-13 -4 -2 113.79 15.7
-13 4 -3 83.59 11
13 4 3 79.69 14.5
13 -4 3 96.29 15.1
13 -4 3 101.89 11.5
-13 -4 -3 69.99 13.7
13 4 4 20.3 10.5
13 -4 4 30.6 7.4
-13 -4 -4 35.9 11.9
13 -4 4 10 8.8
13 4 5 3.5 10.5
13 -4 5 5.5 5.3
-13 -4 -5 -7.2 9.2
13 -4 5 -6 8.1
13 4 6 52.49 15.2
13 -4 6 59.79 15.3
13 -4 6 58.39 8.9
-13 -4 -6 58.79 15.3
13 -4 7 145.69 13.8
13 4 8 27.4 13.7
13 -4 8 48.6 8.2
13 -4 8 19.9 12.9
13 4 9 51.29 16.9
13 -4 9 51.69 16.5
13 -4 9 71.39 9.4
13 4 10 34.7 15.5
13 -4 10 18.3 6.4
13 -4 10 25.6 14.1
-13 5 9 -2.7 8.9
-13 5 8 42.6 12.9
-13 5 7 1.7 9.2
13 5 -7 7.2 7
-13 -5 7 20.8 19.2
-13 5 6 21.4 10.4
13 5 -6 38.8 8.6
-13 -5 6 80.49 22.4
-13 5 5 67.99 13.9
13 5 -5 64.39 9.8
-13 5 4 94.89 15.3
13 5 -4 88.39 10.7
-13 -5 4 82.29 19.2
-13 5 3 14.5 8.6
13 5 -3 17 6.8
13 -5 -3 27.1 10.4
-13 -5 3 15 12.5
13 5 -2 66.89 17.6
-13 5 2 66.59 11.8
13 -5 -2 54.99 8.7
13 -5 -2 43.1 11
-13 -5 2 83.09 15.7
-13 5 1 80.99 12.6
13 5 -1 68.89 19.3
13 -5 -1 74.59 13.4
-13 -5 1 75.19 15
13 -5 -1 76.09 11.2
-13 5 0 11.2 7
13 5 0 28.7 13
13 -5 0 4.5 7.1
13 -5 0 0.8 5.5
-13 -5 0 24.1 11.5
-13 5 -1 81.69 11.6
13 5 1 106.39 17.9
-13 -5 -1 51.29 13.9
13 -5 1 81.59 12.4
13 5 2 -3.7 9.6
-13 5 -2 4 5.8
-13 -5 -2 14 9.6
13 -5 2 -3.1 5.3
13 -5 2 16.3 9
-13 5 -3 98.09 11.6
13 5 3 81.59 16.3
13 -5 3 89.49 12
13 -5 3 103.69 17.4
13 5 4 52.59 15.2
-13 -5 -4 40.7 14.2
13 -5 4 55.69 15.3
13 -5 4 58.69 9.9
13 5 5 -7.3 10.1
13 -5 5 -6 5
13 -5 5 -13.8 8.7
-13 -5 -5 -18.9 10.1
13 5 6 -6.4 11.7
13 -5 6 9 5.5
13 -5 6 24 13.8
13 5 7 22.3 14.3
13 -5 7 31.4 15.9
13 -5 7 24.4 7.2
13 5 8 -1.5 12
13 -5 8 3.1 11.4
13 -5 8 9 8.2
13 5 9 5.5 13.8
13 -5 9 0.7 11.7
13 5 10 28.5 15.7
13 -5 10 8.2 14.4
13 -5 10 19.1 5.3
-13 6 9 30.8 12.9
13 6 -8 -10.2 4.1
-13 6 7 2 11
13 6 -6 -6.6 5.9
-13 6 6 2 8.9
13 6 -5 -5.7 5.6
-13 6 5 14.7 10
-13 -6 5 -5.3 17.4
-13 6 4 76.19 14.3
13 6 -4 58.99 9.7
-13 -6 4 13.5 17.1
-13 6 3 8.6 8.6
13 6 -3 -2.7 5.6
-13 -6 3 -5 12.5
-13 6 2 82.19 14.6
13 -6 -2 84.99 13.7
-13 -6 2 70.99 17.1
-13 6 1 23.8 9.3
13 6 -1 23.1 16.5
-13 -6 1 30.6 15.3
13 -6 -1 62.59 13
13 6 0 58.89 18.8
-13 6 0 77.89 12.5
13 -6 0 80.09 13.8
-13 -6 0 41.9 15.3
-13 6 -1 33.1 9.3
13 6 1 21.9 15.2
13 -6 1 42.8 12.5
13 -6 1 34.1 10.1
-13 -6 -1 14.9 11.7
13 6 2 68.89 16.1
-13 6 -2 42.2 9.4
13 -6 2 42.4 10.6
-13 -6 -2 33.4 13
13 -6 2 34.3 13.3
13 6 3 22.8 14.1
-13 6 -3 38 8.8
13 -6 3 34.8 13.4
-13 -6 -3 33 13.4
13 -6 3 58.29 11.2
-13 6 -4 14.9 6.8
13 6 4 51.29 16
13 -6 4 16.9 13.3
-13 -6 -4 -0.6 12.2
13 -6 4 26.5 8
13 6 5 1.3 12.2
13 -6 5 4.2 6.5
13 -6 5 10.8 12.8
13 6 6 4.6 13.2
13 -6 6 -3.3 6.2
13 -6 6 5.5 12.9
13 6 7 -1.8 12.4
13 -6 7 -10.4 10.5
13 6 8 -2.4 12.2
13 -6 8 -9.1 12.9
13 -6 8 7.7 5.1
13 6 9 -5.5 13.3
13 -6 9 2.1 11.9
-13 7 9 -1.3 8.3
-13 7 8 5.6 9.4
-13 7 7 5.3 9.4
13 7 -7 -9.6 4.8
13 7 -6 -2.3 5.9
-13 7 6 4.3 8.8
-13 7 5 11.8 9.3
13 7 -5 -6.4 6
13 7 -4 9.3 6.8
-13 7 3 -5.6 7.2
13 -7 -3 -8 7.1
-13 -7 2 53.09 21.3
13 7 -1 22.1 17.8
-13 7 1 10.6 9.4
-13 -7 1 0 14.4
13 -7 -1 23 13.2
13 7 0 -3.2 15.3
-13 7 0 6.6 8.6
-13 -7 0 -11.7 11.9
-13 7 -1 7.9 8.8
-13 -7 -1 -1.3 14.8
-13 7 -2 4.7 7
13 7 2 69.79 17.6
13 -7 2 -2.4 7.5
13 7 3 18.1 15.1
-13 7 -3 40.1 9
13 -7 3 45.6 11.8
13 -7 3 30.2 16.3
-13 7 -4 26.7 8
13 7 4 24.5 15.1
13 -7 4 32.7 9.2
13 -7 4 28.5 16.1
13 7 5 15.2 14
13 -7 5 49.4 10.4
13 7 6 5.9 13.2
13 -7 6 13.5 16.6
13 7 7 0.5 13.2
13 -7 7 15.9 15
13 7 8 20.9 16.6
13 -7 8 0.1 14.2
13 8 -7 -1.6 4.4
-13 8 7 -3.8 8.2
-13 8 6 30.6 12.2
13 8 -6 22.9 7.1
13 8 -5 3.4 6.5
-13 8 5 -9.6 8
13 8 -4 20.6 8.2
-13 8 4 6.2 9.5
13 -8 -4 19.2 8.9
-13 8 3 42.8 12.7
-13 8 2 76.29 15.2
13 -8 -2 47.7 14
13 -8 -1 79.59 18.4
13 8 0 149.79 27.6
-13 8 0 185.08 21.8
13 -8 0 197.38 25.5
13 8 1 52.59 20.3
-13 8 -1 19.1 9.9
13 8 2 -0.1 15.1
-13 8 -2 -2.2 7.1
13 8 3 -12.2 14.6
-13 8 -3 -12.4 5.7
-13 8 -4 23 7.8
13 8 4 54.99 19.1
13 8 5 11.8 13.7
13 -8 5 11.2 15.4
13 8 6 -7.4 13.4
13 -8 6 -7.4 14.2
13 8 7 8.2 14.1
13 -8 7 27.9 17.8
-13 9 6 15.2 10.4
13 9 -6 -6.9 5.2
13 9 -5 25.2 7.5
-13 9 5 8.4 10
-13 9 4 3.9 9.3
13 9 -4 5.7 7.5
13 -9 -4 -15.3 8.4
-13 9 3 8.5 9.4
13 -9 -3 1.8 8.9
-13 9 2 -1.8 8
13 -9 -2 -13.9 9.4
13 -9 -1 -25.6 14.8
13 9 0 -14.7 14.1
-13 9 0 4.9 8.8
13 -9 0 -10 15.4
-13 9 -1 4.7 9
13 9 1 5.5 15.9
13 -9 1 11.6 17.3
13 9 2 1.4 17
-13 9 -2 -1.3 7.7
-13 9 -3 -0.9 7.8
13 9 3 -11.9 13.3
-13 9 -4 2.4 6.3
13 9 4 15.1 18
13 9 5 0.3 13.8
13 -9 5 -11.1 16.8
13 9 6 22 16.5
13 -9 6 -3 17.1
13 10 -4 29.7 10.9
13 -10 -4 10.1 7.7
-13 10 3 -15.8 10
13 -10 -3 8.4 8
-13 10 2 34.3 15.9
13 -10 -2 25.1 12
-13 10 1 14.8 12.9
-13 10 0 1.5 11.2
13 -10 0 61.19 23
-13 10 -1 0.1 10.1
13 10 1 12.9 16.8
13 10 2 -10.7 16.6
-13 10 -2 7.6 9.9
13 10 3 4.3 16.5
-13 10 -3 21.3 9.4
13 10 4 -5.6 15.6
-13 10 -4 0.8 7.4
-14 0 11 -5.2 5.6
-14 0 11 3.5 7.8
-14 0 10 94.99 15.3
-14 0 10 93.69 14.1
-14 0 9 -8.6 9.7
-14 0 9 15.1 8
-14 0 9 -7.4 5.9
-14 0 8 46.9 14.1
-14 0 8 61.89 11.3
-14 0 8 75.69 12.6
-14 0 7 -3.8 5.8
14 0 -7 13.3 9.3
-14 0 7 -0.6 9.2
-14 0 6 41.2 10
-14 0 6 20.5 7.6
14 0 -6 27.6 9.7
-14 0 5 -3.2 5.6
-14 0 5 0.4 5.5
14 0 -5 -1.5 6.5
-14 0 4 294.17 21.9
14 0 -4 270.47 22.4
-14 0 4 305.37 19.7
-14 0 3 -0.8 5.4
-14 0 3 4.2 5.4
14 0 -3 -0.9 5.1
14 0 -2 217.28 18.5
-14 0 2 227.78 16.6
-14 0 2 235.98 18.3
14 0 -2 249.88 20.9
14 0 -1 6.5 6.7
-14 0 1 -4.7 5
14 0 -1 3.9 5.7
-14 0 1 6.2 5.9
-14 0 0 175.48 15.6
14 0 0 166.98 15.3
14 0 0 182.08 15.6
14 0 1 -11 4.5
-14 0 -1 7 6.6
14 0 1 -7.1 5.9
-14 0 -2 29.6 8.9
14 0 2 29.9 10.1
14 0 2 35.8 8
14 0 3 -1 5.1
-14 0 -3 2.1 6.9
14 0 3 0.3 7.1
-14 0 -4 3.7 6.8
14 0 4 6.5 8.2
-14 0 -5 9.6 9.2
14 0 5 -11.4 7.2
14 0 6 289.77 27
-14 0 -6 317.07 29.6
14 0 7 6.2 10.2
-14 0 -7 -10.1 10.9
14 0 8 29.2 12.6
14 0 9 0.6 10.2
14 0 10 29.6 14.5
14 0 11 7.6 11.7
-14 1 11 -2.9 5.7
-14 1 11 -1.6 7.8
-14 -1 11 -16.4 7.4
-14 -1 11 6.3 6.4
-14 1 10 6 8.3
-14 -1 10 -4.9 8.5
-14 -1 10 4 6.5
-14 1 9 -5.7 5.9
-14 1 9 12.1 6.4
-14 -1 9 5.6 11.5
-14 -1 9 1.7 6.2
-14 1 8 83.89 11.1
-14 1 8 111.09 15.5
-14 1 8 72.09 13.9
14 1 -8 63.49 13.7
-14 -1 8 81.19 12.5
-14 -1 8 112.09 18.7
-14 1 7 68.59 12.9
-14 1 7 72.79 11.4
14 1 -7 69.49 13.7
-14 1 7 79.79 10
14 -1 -7 85.19 16.7
-14 -1 7 69.29 11.6
-14 -1 7 94.69 17.4
14 1 -6 188.28 19.6
-14 1 6 221.48 20.3
-14 -1 6 222.68 18.1
-14 -1 6 232.18 22.2
14 -1 -6 223.28 20.9
14 1 -5 -8.4 4.8
-14 1 5 -0.4 6.1
14 -1 -5 3.6 6.3
-14 -1 5 -0.2 7.8
-14 -1 5 -3.9 4.8
-14 1 4 4.3 5.8
14 1 -4 7.3 6
-14 -1 4 9.3 5.5
-14 -1 4 17.2 7.6
14 -1 -4 18.9 7.7
14 1 -3 7.3 8.7
-14 1 3 17.4 4.4
14 1 -3 7.2 5.9
-14 1 3 15.2 6.9
-14 -1 3 23.5 6.9
-14 -1 3 10.4 6.8
14 -1 -3 15.1 6.9
14 1 -2 125.59 13.2
-14 1 2 149.39 14.2
-14 1 2 142.49 11.3
-14 -1 2 128.59 13.4
14 -1 -2 101.69 13.6
-14 -1 2 130.39 13.8
-14 1 1 247.38 18.8
14 1 -1 249.28 22.1
-14 1 1 284.27 20.6
14 1 -1 263.67 20
14 -1 -1 269.87 20.8
14 -1 -1 285.37 19
-14 -1 1 270.07 20
14 1 0 365.16 25.7
14 1 0 369.16 25.2
-14 1 0 356.16 25.1
-14 1 0 341.07 24.7
-14 -1 0 425.76 33.6
14 -1 0 347.37 25.4
14 -1 0 380.06 24
14 1 1 36.6 9.8
-14 1 -1 25.8 8
14 1 1 38.2 8.6
-14 -1 -1 26 8
14 -1 1 37.4 8.1
14 -1 1 31.2 7.7
-14 1 -2 1.8 5.9
14 1 2 3.7 6
14 1 2 8.9 7.6
-14 -1 -2 5.5 6.8
14 -1 2 6.2 7.8
14 -1 2 6.6 5.6
14 1 3 19.7 8.3
-14 1 -3 17.5 9.1
14 -1 3 18.9 6.7
-14 -1 -3 8.7 7.4
14 -1 3 27.7 9
14 1 4 25.1 9.5
-14 1 -4 10.5 8.8
14 -1 4 12.7 6.5
-14 -1 -4 17.8 9
14 -1 4 16.1 8.5
14 1 5 4.4 8.6
-14 1 -5 4.7 9
-14 -1 -5 5.5 7.8
14 -1 5 5 6.1
14 -1 5 4 7.7
14 1 6 2 10
-14 1 -6 16.1 12.4
14 -1 6 11.7 7
14 -1 6 2.1 8.6
-14 -1 -6 25.4 10.4
-14 1 -7 -14.3 11.1
14 1 7 12.4 10.2
14 -1 7 11.3 9.9
-14 -1 -7 14 12.4
14 1 8 -9.2 9.2
14 -1 8 -7.2 8.4
14 1 9 70.69 15.5
14 -1 9 31.9 13.9
14 1 10 29.3 13.8
14 -1 10 51.89 15.6
14 1 11 -2.7 10.8
14 -1 11 3.6 12.4
-14 2 11 2.6 8.3
-14 -2 11 5.8 9.5
-14 -2 11 17.2 7.4
-14 2 10 7.4 9.6
-14 -2 10 2.7 15
-14 -2 10 -1.4 5.7
-14 2 9 22.4 11.2
-14 2 9 36.3 11
-14 -2 9 25.5 7.5
-14 -2 9 14.4 19.2
-14 2 8 -13.3 6.4
14 2 -8 -14.2 6.9
-14 -2 8 -0.9 12.6
-14 -2 8 2.3 5.7
-14 2 7 253.97 23.7
14 2 -7 187.88 19.9
-14 -2 7 258.87 29
-14 -2 7 246.68 19
14 2 -6 46.6 9.9
-14 2 6 48.9 11.8
-14 -2 6 61.09 9.7
14 -2 -6 73.29 13.7
-14 -2 6 70.09 15.5
14 2 -5 16.5 7.5
-14 2 5 0.4 5.8
-14 -2 5 20.9 11.3
-14 -2 5 13.7 6.1
14 -2 -5 26.9 9.5
-14 2 4 43.3 9.2
14 2 -4 49.5 8.9
-14 -2 4 42.9 10.4
-14 -2 4 23.9 7.3
14 -2 -4 46.6 10.5
14 2 -3 22.6 10.7
14 2 -3 8.9 6
-14 2 3 17.2 7.9
-14 -2 3 21.4 8.1
14 -2 -3 26.7 8.4
14 2 -2 175.18 15.8
-14 2 2 175.18 16.7
14 -2 -2 194.18 17.4
14 -2 -2 183.28 13.7
-14 -2 2 201.48 17.5
14 2 -1 187.28 15.8
-14 2 1 165.88 14.7
-14 2 1 209.78 16.9
14 -2 -1 185.18 14
14 -2 -1 163.08 16.6
-14 -2 1 205.88 17.5
-14 2 0 84.89 11.4
-14 2 0 86.29 11.9
14 2 0 93.79 11.7
14 -2 0 90.99 10.3
-14 -2 0 51.59 10.1
14 -2 0 72.69 11.3
14 2 1 142.59 16.2
-14 2 -1 159.18 14.4
-14 2 -1 132.69 15.5
-14 -2 -1 168.78 16.3
14 -2 1 162.48 15
14 -2 1 161.88 15
-14 2 -2 1 7.4
14 2 2 -6.6 6.6
14 -2 2 -1.7 4.8
14 -2 2 -2.3 6.4
-14 -2 -2 1.6 6.8
14 2 3 -1.4 7.3
-14 2 -3 -3.2 7.7
14 -2 3 -6.5 4.4
-14 -2 -3 3.8 7.1
14 -2 3 0.4 6.4
-14 2 -4 44.4 12.9
14 2 4 26.8 10.1
14 -2 4 32.8 7.5
14 -2 4 19.2 8.9
-14 -2 -4 36.3 10.7
14 2 5 41.7 11.6
14 -2 5 30.3 10.1
-14 -2 -5 23.1 10.3
14 -2 5 26.5 8
14 2 6 -10.7 8.5
14 -2 6 -4.9 5.4
-14 -2 -6 -5.8 8.1
14 -2 6 36.7 12.1
14 2 7 45.4 14.4
14 -2 7 72.99 10.7
14 -2 7 27.7 12
14 2 8 -6.8 11.3
14 -2 8 2.3 6.4
14 -2 8 -5.4 8.9
14 2 9 20.6 13.6
14 -2 9 32.2 13.5
14 -2 9 22.7 7.8
14 2 10 -8.4 10
14 -2 10 -0.1 6.3
14 -2 10 4.9 9.1
14 2 11 15.7 13.8
14 -2 11 42.9 12.7
14 -2 11 18.2 13.7
-14 3 11 9.9 11.4
-14 -3 11 25.8 11.2
-14 -3 11 -10.3 5.4
-14 3 10 48.6 14
-14 -3 10 55.79 9.4
-14 3 9 7.5 10.1
-14 -3 9 8.6 5.9
-14 -3 9 9.4 18.1
-14 3 8 45.9 12.8
14 3 -8 54.69 11
-14 -3 8 61.09 22.1
-14 -3 8 41.2 8.5
14 3 -7 40.7 10.4
-14 3 7 31.6 11.4
-14 -3 7 109.69 22.2
-14 3 6 71.49 14.2
14 3 -6 62.19 10.8
-14 -3 6 118.09 20.4
14 -3 -6 43 13.2
-14 3 5 41.7 10.8
14 3 -5 40.9 9.4
14 -3 -5 56.69 12.2
-14 -3 5 42.2 13.9
14 3 -4 44.2 9
-14 3 4 51.99 11.3
-14 -3 4 52.99 13
14 -3 -4 47 11.6
14 3 -3 33.1 7.2
-14 3 3 36.1 9.4
14 -3 -3 29.2 8.9
-14 -3 3 24.2 10
14 3 -2 20.1 6.6
-14 3 2 34.3 8.6
14 3 -2 14.3 12.1
-14 -3 2 24.4 9.1
14 -3 -2 20.3 8
14 3 -1 158.58 21.8
-14 3 1 187.68 16.2
14 3 -1 145.79 14.5
14 -3 -1 162.58 12.8
-14 -3 1 163.88 17.5
14 -3 -1 135.99 15.5
-14 3 0 266.17 20.5
14 3 0 228.58 23.3
-14 -3 0 247.28 21.5
14 -3 0 234.98 19.9
14 -3 0 275.77 18.8
14 3 1 6.2 8.2
-14 3 -1 10.3 6.2
14 -3 1 -1.7 5.2
-14 -3 -1 -1.2 7.1
14 -3 1 3.7 5.8
-14 3 -2 72.39 10.1
14 3 2 62.09 12.1
-14 -3 -2 42.2 10.1
14 -3 2 53.69 11
14 -3 2 76.39 10.5
14 3 3 25.5 10.3
14 -3 3 38.4 8
-14 -3 -3 35.4 10.4
14 -3 3 25.5 9.2
14 3 4 3 9.8
-14 -3 -4 3.6 8.7
14 -3 4 15.9 6.2
14 -3 4 10.9 8.9
14 3 5 -10.3 9
14 -3 5 -3.9 8.5
14 -3 5 1.4 5.2
-14 -3 -5 11.2 9.3
14 3 6 11.5 11.8
14 -3 6 10.5 10.6
14 -3 6 20.4 6.7
-14 -3 -6 10.2 11.9
14 3 7 172.98 26.6
14 -3 7 193.38 27.2
14 -3 7 166.98 15.3
14 3 8 99.69 19.2
14 -3 8 94.69 19.9
14 -3 8 102.19 12.4
14 3 9 -3.1 12.2
14 -3 9 -2.9 9.3
14 -3 9 -3.3 5.4
14 3 10 43.2 16.7
14 -3 10 26.7 15.3
14 -3 10 27 7.9
-14 4 10 -4.3 8.6
-14 4 9 12.9 9.8
-14 4 8 20.4 11.2
14 4 -8 18.9 9.1
-14 -4 8 36.6 19.9
-14 4 7 7 8.2
14 4 -7 3.6 6.9
-14 -4 7 -3.3 17.1
14 4 -6 137.89 15.4
-14 4 6 168.78 19.8
-14 -4 6 152.68 26.4
14 4 -5 12 6.6
-14 4 5 9.8 8.9
14 -4 -5 5.9 9.6
-14 -4 5 26 16.1
-14 4 4 7.6 7.5
14 4 -4 0.5 5.3
14 -4 -4 14.4 8.9
-14 -4 4 5.7 11.8
-14 4 3 -2.4 6.5
14 4 -3 8.1 5.9
-14 -4 3 7.5 10.1
14 -4 -3 -7.8 5.9
-14 4 2 2.8 6.7
14 4 -2 5.1 5.2
14 4 -2 6.8 13.4
-14 -4 2 -10.6 9.1
14 -4 -2 9.2 7.2
-14 4 1 111.59 13.7
14 4 -1 75.39 17.2
14 -4 -1 95.19 10.3
-14 -4 1 82.09 13.9
14 -4 -1 118.19 15.3
14 4 0 67.89 15.2
-14 4 0 48.8 9.5
-14 -4 0 32.3 11.2
14 -4 0 46.8 8.8
14 -4 0 42.2 9.3
-14 4 -1 27.9 7.8
14 4 1 28 11.4
14 -4 1 30.8 7.6
14 -4 1 28.3 8.2
-14 -4 -1 17.3 9.4
14 4 2 29 11.4
-14 4 -2 48.3 8.8
14 -4 2 47.5 10.7
14 -4 2 41 8.5
-14 -4 -2 33 10.6
14 4 3 114.39 17.4
-14 4 -3 121.89 13
14 -4 3 120.99 13.1
14 -4 3 139.89 16.9
-14 -4 -3 78.49 14.4
14 4 4 1.6 10.2
-14 -4 -4 4.8 9.9
14 -4 4 4.9 6.2
14 -4 4 -2 7.9
14 4 5 12.2 11.7
14 -4 5 9.8 6.2
-14 -4 -5 7 10.5
14 -4 5 28.2 12.2
14 4 6 -1.3 11.1
14 -4 6 0.4 9.3
14 -4 6 0.2 5.6
14 4 7 7 12.8
14 -4 7 -5.6 9.9
14 -4 7 7.3 5.9
14 4 8 -9.7 11.1
14 -4 8 -6.6 9.4
14 -4 8 0.2 5.5
14 4 9 -16.2 11.4
14 -4 9 -1 11.1
14 -4 9 -4.9 5.4
14 4 10 -1.4 13.5
14 -4 10 2.1 11.7
-14 5 9 11.4 9.6
-14 5 8 25.2 11.2
14 5 -8 27.1 8.9
-14 5 7 4.4 8.7
14 5 -7 4.2 6.8
-14 -5 7 -0.3 20.1
-14 5 6 22.3 10.6
14 5 -6 -1.1 6.8
-14 -5 6 2.5 19.4
-14 5 5 18.5 9.8
14 5 -5 14 7
-14 -5 5 9.3 17.9
14 5 -4 -4 4.9
-14 5 4 0.7 8.1
-14 -5 4 4.7 14.2
14 -5 -4 -11.2 6.9
14 5 -3 12.2 6.6
-14 5 3 0.9 7.5
-14 -5 3 7 12.3
-14 5 2 2.1 7.1
14 5 -2 14.6 14.4
14 5 -2 19 7
-14 -5 2 2.9 11.3
14 -5 -2 -3.7 7.3
14 -5 -2 9.3 5
14 5 -1 36.7 16.2
-14 5 1 36.3 10.1
14 -5 -1 38.4 8.4
-14 -5 1 22.1 11.7
14 -5 -1 25.4 9.5
-14 5 0 19.6 8.9
14 5 0 36.4 15.3
14 -5 0 34.1 9.4
14 -5 0 20.1 7.8
-14 -5 0 12.5 11.1
-14 5 -1 8 7
14 5 1 10 12.2
14 -5 1 19.5 7.5
14 -5 1 7.7 9.6
-14 -5 -1 20.6 11.2
-14 5 -2 -1.2 6
14 5 2 4.3 10.4
14 -5 2 -0.3 8.1
14 -5 2 0.6 6
-14 -5 -2 6.9 13.4
-14 5 -3 34.1 8.7
14 5 3 27.4 12.9
-14 -5 -3 13.8 11.1
14 -5 3 42.9 9.5
14 -5 3 23 11
14 5 4 45.6 14.7
-14 -5 -4 24.5 13.7
14 -5 4 27.8 7.7
14 -5 4 37.1 13
14 5 5 0.3 11.3
14 -5 5 2.5 10.3
-14 -5 -5 10.7 20
14 -5 5 -5.7 5.2
14 5 6 -1.1 14.8
14 -5 6 10.3 5.9
14 -5 6 6.2 11.3
14 5 7 22.4 14.7
14 -5 7 19.7 13.9
14 -5 7 23.6 7.4
14 5 8 43.1 15.9
14 -5 8 18.8 13.7
14 -5 8 32.3 7.9
14 5 9 11.4 14.1
14 -5 9 18.8 6.5
14 -5 9 19.4 15.1
-14 6 9 7 9.7
-14 6 8 -2.3 8.1
-14 6 7 3.5 9.1
14 6 -7 5.5 6.5
-14 6 6 1.3 8.2
14 6 -6 6.8 7
14 6 -5 93.19 11.8
-14 -6 5 92.79 27.1
-14 6 4 5 8.2
14 6 -4 6.3 6.7
-14 -6 4 54.09 21.1
-14 6 3 62.29 13.8
14 6 -3 93.49 11.7
-14 -6 3 87.49 20.6
-14 6 2 51.59 11.8
14 6 -2 31.1 18
14 -6 -2 47.4 10.9
14 -6 -2 60.79 13.7
-14 -6 2 58.79 17.4
14 -6 -2 60.79 12.2
-14 6 1 6.1 7.8
14 6 -1 24 17.2
14 -6 -1 -1.3 7.5
14 -6 -1 -14.7 7.1
-14 -6 1 8.6 12.9
-14 6 0 62.79 12.1
14 6 0 77.39 20.4
14 -6 0 46.7 12.1
-14 -6 0 55.09 16.9
14 -6 0 60.09 13.5
-14 6 -1 53.39 10.7
14 6 1 68.59 16.3
14 -6 1 54.59 11.7
-14 -6 -1 31.2 14.5
14 -6 1 30.4 12.4
14 6 2 -17.8 11.1
-14 6 -2 13.7 7.6
14 -6 2 8.8 10.9
-14 -6 -2 0.4 10.9
14 -6 2 19 9
-14 6 -3 9.4 6.8
14 6 3 3.7 12.4
14 -6 3 6.5 6.9
14 -6 3 -0.9 10.8
-14 -6 -3 -0.8 12.6
14 6 4 37.9 16.6
-14 6 -4 41 9.1
14 -6 4 58.99 18.1
14 -6 4 63.59 10.8
14 6 5 15.3 14.1
14 -6 5 38.3 16.5
14 -6 5 17.7 7.6
14 6 6 2.8 13.5
14 -6 6 14.7 14.1
14 6 7 40.7 16.7
14 -6 7 16.6 15.4
14 -6 7 51.39 8.9
14 6 8 12.2 14.8
14 -6 8 2.5 13.7
14 6 9 3.4 14
14 -6 9 15.9 15.9
14 -6 9 1.1 5.1
14 7 -8 3.7 5
-14 7 8 0.4 9
14 7 -7 -0.3 7
-14 7 7 11.8 10.9
14 7 -6 0.3 6.7
-14 7 6 -4.1 9.8
-14 7 5 -11.2 7.8
14 7 -5 -10.4 5.8
-14 7 4 4.4 8.9
14 7 -4 2.8 6.7
14 7 -3 -0.8 6.4
-14 7 3 5.6 8.5
14 -7 -3 1.8 6.9
-14 7 2 10.3 10
14 7 -1 131.19 27
-14 7 1 112.09 17.1
14 -7 -1 147.19 20
14 7 0 130.99 25
-14 7 0 46.8 12.3
-14 7 -1 309.17 26.5
14 7 1 357.26 35.1
14 -7 1 298.07 32.6
14 -7 1 290.07 27.1
-14 7 -2 6.9 8.5
14 7 2 14.6 15
14 -7 2 14.5 13.3
14 -7 2 6.5 9.4
14 7 3 2 13.9
-14 7 -3 10.9 7.3
14 -7 3 32.4 15.9
14 -7 3 18.7 9.4
-14 7 -4 15.2 7.3
14 7 4 11.1 13.9
14 -7 4 10.5 8.1
14 -7 4 11.8 15.5
14 7 5 30 16.1
14 -7 5 51.69 10.9
14 -7 5 41.8 17.9
14 7 6 -7.1 12.4
14 -7 6 -6.5 6.7
14 -7 6 11.6 12.1
14 7 7 -15.6 12.7
14 -7 7 -1.7 12.1
14 7 8 -18.3 13
14 -7 8 0.8 13.5
-14 8 7 10.3 12.4
14 8 -6 -2.5 6.4
-14 8 6 -1.8 8.6
14 8 -5 8.6 6.8
-14 8 5 15.1 10.2
14 8 -4 0.2 6.8
-14 8 4 -3 9.6
-14 8 3 -1.5 7.5
14 -8 -3 0.5 8.5
14 -8 -2 10.7 13
14 8 -1 101.09 24.2
-14 8 1 112.39 17.3
14 -8 -1 88.59 20.1
14 8 0 52.49 19.6
-14 8 0 25.3 10.3
14 -8 0 36.3 16.6
14 8 1 113.09 26
-14 8 -1 117.89 18.5
-14 8 -2 6.1 8.2
14 8 2 1.8 16.6
14 8 3 45.3 19.3
-14 8 -3 21.3 8.7
14 8 4 14.2 15.1
14 8 5 23.7 15.5
14 -8 5 5.8 16.6
14 8 6 8.1 14.7
14 -8 6 -0.6 16.7
14 8 7 -11.9 12.3
14 -8 7 11 14.3
14 9 -6 4.3 5.7
-14 9 6 -13.3 8.1
14 9 -5 12.8 7.4
-14 9 5 5.1 10.1
-14 9 4 4.3 13.9
14 9 -4 11.5 8.9
-14 9 3 -6 7.7
14 -9 -3 16.2 8.5
-14 9 2 10.5 11.6
14 -9 -2 17.6 10.8
-14 9 1 -2.1 9.9
14 -9 -1 21.8 16.5
14 9 0 10 17.1
-14 9 0 4.1 9.7
14 -9 0 -15.8 15.7
-14 9 -1 43.3 14.4
14 9 1 30.8 21
14 -9 1 25.9 18.7
-14 9 -2 2.9 8.8
14 9 2 13.8 18.4
14 9 3 15 15.6
-14 9 -3 -5.6 8.1
14 -9 3 13.7 16.1
-14 9 -4 -3.5 6.4
14 9 4 16.1 15.8
14 -9 4 -32.6 13.4
14 9 5 39.3 16.8
14 -9 5 36.6 22.1
14 9 6 -20.9 13.6
14 -9 6 -19.9 16.5
14 -10 -4 9.4 8
14 -10 -3 -15.2 6.1
-14 10 2 15.1 13.8
14 -10 -2 13.3 10.1
-14 10 1 4.6 12.2
14 -10 -1 6 18.5
-14 10 0 -0.5 9.9
14 -10 0 31.9 21.2
14 10 1 6.8 16.5
-14 10 -2 54.39 16.6
14 10 2 44.4 22.4
14 10 3 -11.1 17.8
-14 10 -3 4.8 9.6
-14 10 -4 7.7 7.8
14 10 4 24.6 19.6
14 -10 4 1 19.4
-15 0 11 15.5 12.8
-15 0 11 -2.3 6.4
-15 0 11 -1.8 6.7
-15 0 10 13.6 8.3
-15 0 10 1.7 7.1
-15 0 9 11.8 8
-15 0 9 -1 6.8
15 0 -8 13.5 9.3
-15 0 8 -6.1 10.5
-15 0 8 6.7 6.8
-15 0 8 -0.6 6.5
15 0 -7 -7.9 7.4
-15 0 7 6.2 7.1
15 0 -6 19.4 9
-15 0 6 -4.6 7.7
-15 0 6 2.6 6.5
-15 0 5 -4.1 5.8
-15 0 5 1.8 5.9
15 0 -5 -4.1 5.6
-15 0 4 48.6 9.3
-15 0 4 45.1 7.5
15 0 -4 56.79 10.8
15 0 -3 -7.6 5.2
-15 0 3 -3.8 5.1
-15 0 3 0.7 4.8
15 0 -3 5.1 7.8
-15 0 2 53.39 9.6
15 0 -2 45.7 9.4
-15 0 2 46.4 7.5
15 0 -1 -4.9 4.8
15 0 -1 16.6 8
-15 0 1 -1.9 5.2
-15 0 1 2.3 5.9
15 0 0 10.8 6.2
15 0 0 8.5 7.1
-15 0 0 1.5 5.7
15 0 1 -8.2 5.7
15 0 1 3.1 5.7
-15 0 -1 6.7 6.7
-15 0 -2 84.59 13.1
15 0 2 92.19 11.6
15 0 2 94.99 13.2
15 0 3 -1 5.3
15 0 3 -4.7 6.8
-15 0 -3 -3.2 6.9
-15 0 -4 143.59 18.1
15 0 4 161.38 16
15 0 4 183.68 19.2
-15 0 -5 -10.1 7.7
15 0 5 8.4 9.2
-15 0 -6 18.9 12.5
15 0 6 9.1 10.3
15 0 7 0.6 9.6
15 0 8 11.9 11
15 0 9 6.6 11.4
15 0 10 -15.4 10.2
15 0 11 -0.9 11.4
-15 1 11 3.4 8.5
-15 1 11 -3.5 6.1
-15 -1 11 -2.9 6
-15 -1 11 3.1 8.5
-15 1 10 46.8 10.1
-15 1 10 50.99 13.3
-15 -1 10 97.09 20.9
-15 -1 10 64.89 13.3
-15 -1 10 71.49 11.9
-15 1 9 -0.5 7.8
-15 1 9 -4 5.3
-15 -1 9 -6.4 5.5
-15 -1 9 0 11.6
-15 1 8 13.9 9.3
-15 1 8 1.4 6.9
15 1 -8 2.5 9
-15 1 8 0 5.4
-15 -1 8 -5.5 5.7
-15 -1 8 -7.5 11.8
15 1 -7 93.79 14.5
-15 1 7 48.8 11.7
15 -1 -7 34 13.4
-15 -1 7 39.6 9.2
-15 -1 7 60.79 15
-15 1 6 216.28 20.5
15 1 -6 180.48 18.9
-15 -1 6 190.68 17.7
-15 -1 6 220.98 21.8
15 -1 -6 202.08 21.3
-15 1 5 11.8 7.2
15 1 -5 16.3 7.7
-15 -1 5 9 8.1
-15 -1 5 15.5 6.8
15 -1 -5 10.3 8
-15 1 4 5.3 6.2
15 1 -4 1.3 6.1
15 -1 -4 6.9 7
-15 -1 4 8.7 6.4
-15 -1 4 3.3 6.8
-15 1 3 13.8 6.8
15 1 -3 11.7 6.6
-15 1 3 17.1 4.7
15 1 -3 29.3 10.4
-15 -1 3 8.2 6.1
-15 -1 3 30.3 7.7
15 -1 -3 24.8 8.5
15 1 -2 297.07 24.1
-15 1 2 248.98 17.8
-15 1 2 252.17 20.5
15 1 -2 230.28 19.9
-15 -1 2 284.17 20.8
15 -1 -2 279.97 19.6
15 -1 -2 275.37 21.5
-15 -1 2 251.97 19.4
-15 1 1 148.79 14.3
15 1 -1 120.39 13.3
-15 1 1 141.79 13.1
-15 -1 1 83.39 14.4
15 -1 -1 136.09 12.9
15 -1 -1 129.89 14.1
15 1 0 169.08 16.6
-15 1 0 142.89 14.8
15 1 0 183.18 15.2
-15 1 0 160.78 14.9
15 -1 0 148.09 14.9
-15 -1 0 136.79 14.8
15 -1 0 164.88 14.2
-15 1 -1 173.98 17.3
15 1 1 183.98 16.7
15 1 1 190.18 18.1
15 -1 1 204.18 16.9
-15 -1 -1 198.78 17.3
15 -1 1 193.58 16.5
-15 1 -2 30.9 9
15 1 2 42.2 9
15 1 2 23.7 8.7
-15 -1 -2 17.7 8
15 -1 2 29 8.7
15 -1 2 40 8.2
15 1 3 59.89 11.7
-15 1 -3 58.49 12.5
-15 -1 -3 68.79 12.5
15 -1 3 65.09 11.8
15 -1 3 65.99 10.2
-15 1 -4 19.7 10.1
15 1 4 11.3 9.2
15 -1 4 13 8.2
15 -1 4 26.7 7.8
-15 -1 -4 9.6 9.1
-15 1 -5 -0.1 8.9
15 1 5 1 9.4
15 -1 5 5.3 8.4
15 -1 5 -2.5 5.6
-15 -1 -5 -14 7.8
-15 1 -6 4.8 10.9
15 1 6 0 9.4
15 -1 6 -1.9 6.7
-15 -1 -6 -5.9 8.9
15 -1 6 -7.6 8
15 1 7 109.49 18.6
15 -1 7 120.79 19.9
15 -1 7 139.39 15.3
15 1 8 11.1 12.2
15 -1 8 9.4 10.9
15 -1 8 4.1 7.6
15 1 9 6.9 11.8
15 -1 9 3.1 10.9
15 1 10 -7.1 10.8
15 -1 10 -21 9.1
15 -1 10 9.4 9.2
15 1 11 -18.1 10.6
15 -1 11 3.1 11.4
-15 2 11 22.8 10.3
-15 -2 11 27.9 20.7
-15 -2 11 0.1 6.7
-15 -2 11 8.3 9.9
-15 2 10 10.8 9.7
-15 -2 10 1.2 16.1
-15 -2 10 8.6 6.4
-15 2 9 79.49 17.4
-15 -2 9 49.7 16.4
-15 -2 9 26.2 7.5
-15 2 8 32.8 11.4
15 2 -8 21.9 10.8
-15 -2 8 35.4 8.9
15 2 -7 18.8 9
-15 2 7 -3.3 7.3
15 -2 -7 2.7 10.1
-15 -2 7 8.9 6.6
-15 2 6 9 8.3
15 2 -6 -5.2 6.5
-15 -2 6 10.8 6.8
15 -2 -6 14.4 16.4
15 2 -5 7.1 7.3
-15 2 5 5.7 6.9
-15 -2 5 3.3 5.4
15 -2 -5 -5.6 6.5
-15 -2 5 -7.2 9.3
15 2 -4 125.59 13.2
-15 2 4 114.09 15.6
-15 -2 4 106.99 12.7
15 -2 -4 113.99 16.6
-15 -2 4 94.39 14.4
15 2 -3 83.39 17.5
-15 2 3 87.49 12.5
15 2 -3 91.09 11.2
-15 -2 3 77.89 12.3
15 -2 -3 91.09 13.5
-15 2 2 152.18 12.4
15 2 -2 153.58 14.3
-15 2 2 175.88 16
15 2 -2 142.29 20.5
-15 -2 2 145.09 15.8
15 -2 -2 179.18 16.4
15 -2 -2 155.58 12.9
-15 2 1 0.5 5
15 2 -1 1.1 5.6
-15 2 1 9.1 6.6
15 -2 -1 -0.2 4.8
-15 -2 1 7 7.1
15 -2 -1 2.4 6.3
-15 2 0 -3.6 5.6
15 2 0 1.4 5.6
-15 2 0 -1.9 5.5
-15 -2 0 -2 6.1
15 -2 0 -8.7 4.8
15 -2 0 0.7 5.3
15 2 1 59.79 11.6
-15 2 -1 71.09 11
-15 2 -1 58.59 15.8
15 2 1 76.39 11.3
15 -2 1 72.49 11.1
-15 -2 -1 61.69 10.9
15 -2 1 80.19 11.3
-15 2 -2 32.2 10.2
15 2 2 21.5 9.5
-15 -2 -2 40.1 9.9
15 -2 2 27.5 7.7
15 -2 2 36.8 9.1
15 2 3 5.7 8.3
-15 2 -3 4.5 8.6
15 -2 3 -6.3 4.4
-15 -2 -3 6 7.8
15 -2 3 -6.5 6
-15 2 -4 14.6 10.9
15 2 4 12 9.6
15 -2 4 9.3 8.3
-15 -2 -4 8.8 8.3
15 -2 4 6.2 6
15 2 5 119.19 18.3
-15 -2 -5 84.19 16.8
15 -2 5 134.29 17.7
15 -2 5 132.39 14
15 2 6 87.19 17.8
15 -2 6 101.89 17.1
-15 -2 -6 99.29 17.7
15 -2 6 114.49 13.2
15 2 7 62.59 17.6
15 -2 7 36.4 13.5
15 -2 7 68.09 10.6
15 2 8 86.39 18
15 -2 8 47.6 9.9
15 -2 8 53.29 14.7
15 2 9 3.3 11.5
15 -2 9 -6.3 6.3
15 -2 9 5.3 9.7
15 2 10 1.6 11.9
15 -2 10 2.7 11.1
15 -2 10 -16.3 10.8
-15 3 11 2.2 10.7
-15 3 10 1.3 7.6
-15 -3 10 1 5.8
-15 3 9 106.79 20.3
-15 -3 9 136.09 13.7
-15 3 8 -2 9.5
15 3 -8 -5.6 7.9
15 3 -7 147.09 16.6
-15 3 7 128.59 19.1
-15 -3 7 188.68 26.6
15 3 -6 -6.3 6.4
-15 3 6 -6.2 8.2
15 -3 -6 -6.9 9.5
-15 -3 6 -10.5 13.8
-15 3 5 9.7 8.6
15 3 -5 16.4 7.8
-15 -3 5 11.4 11.7
-15 3 4 0.6 6.8
15 3 -4 0.7 6.1
-15 -3 4 -7.2 9.1
15 -3 -4 15.5 9
15 3 -3 2.7 5.2
-15 3 3 0.9 6.4
15 3 -3 -7.7 10.4
-15 -3 3 2.3 8.7
15 -3 -3 -3.9 5.7
-15 3 2 22.2 8.1
15 3 -2 17.3 6.5
15 3 -2 37.9 14.4
-15 -3 2 19 9.3
15 -3 -2 37.2 9.5
-15 3 1 0.5 6.1
15 3 -1 10.9 6.3
15 3 -1 -0.2 10.7
15 -3 -1 7.8 5.1
-15 -3 1 -9.3 7.2
15 -3 -1 3.2 5.8
15 3 0 35.6 12
-15 3 0 24.4 8.2
15 3 0 22 7.7
15 -3 0 36.5 7.6
15 -3 0 33.4 8.8
-15 -3 0 41.8 10.1
-15 3 -1 5.5 6.3
15 3 1 -0.2 8
15 -3 1 0.4 5.5
-15 -3 -1 -1.6 7
15 -3 1 0.5 5.5
15 3 2 -5.5 8
-15 3 -2 4 6
15 -3 2 0.1 5.1
15 -3 2 -2.1 6.4
-15 -3 -2 -1.8 7
15 3 3 3.9 9.2
15 -3 3 26.1 9.7
-15 -3 -3 16.4 9.7
15 -3 3 29.8 7.4
15 3 4 24.2 11.8
-15 -3 -4 12.9 11
15 -3 4 20.9 7
15 -3 4 21.6 9.9
15 3 5 23.7 11.7
15 -3 5 10.7 6.5
-15 -3 -5 -0.6 10
15 -3 5 32.2 12.1
15 3 6 -5 10.5
15 -3 6 16.1 11.7
-15 -3 -6 9.5 12.6
15 -3 6 3.2 5.9
15 3 7 20.3 12.9
15 -3 7 12.9 6.1
15 -3 7 11 14.6
15 3 8 34.5 14.3
15 -3 8 37 8.3
15 -3 8 21.5 14
15 3 9 16.2 13.2
15 -3 9 6.6 12
15 -3 9 14.8 7
15 3 10 4 11.9
15 -3 10 11 6.9
15 -3 10 -5.7 10.8
-15 4 10 23 15.2
-15 4 9 16.5 10.7
15 4 -8 87.89 13.9
-15 4 8 89.19 17.1
-15 -4 8 126.79 25
15 4 -7 10.4 8
-15 -4 7 12.7 18.2
15 4 -6 28.3 9.1
-15 4 6 21.9 10.7
-15 -4 6 103.19 21.6
15 4 -5 32.3 8.4
-15 4 5 22.5 10.6
15 -4 -5 40.2 13.2
-15 -4 5 52.39 18.4
15 4 -4 0.2 5.8
-15 4 4 8.6 7.6
-15 -4 4 4.2 12.2
15 -4 -4 -4.5 6.6
15 4 -3 10.8 6.7
-15 4 3 4.4 7.4
15 -4 -3 -3.4 7.3
-15 -4 3 -17.9 9.4
-15 4 2 -4.2 6.3
15 4 -2 5.5 5.5
15 4 -2 20 14.6
15 -4 -2 -9.6 5.8
-15 -4 2 2 9.5
15 4 -1 4.4 5.5
15 4 -1 -7.3 12.1
-15 4 1 5 7
-15 -4 1 -8.6 8.5
15 -4 -1 3.9 6.2
15 -4 -1 0.6 4.8
15 4 0 93.79 17.6
-15 4 0 136.79 15.2
15 -4 0 130.19 13.6
15 -4 0 123.39 15.9
-15 -4 0 124.89 17.4
15 4 1 -6.6 9.1
-15 4 -1 11.2 6.8
15 -4 1 2.3 6.1
-15 -4 -1 8.2 8.3
15 -4 1 1.3 6.9
-15 4 -2 20.9 7.6
15 4 2 32.9 11.8
15 -4 2 26.4 8.4
15 -4 2 24.8 9.3
-15 -4 -2 28.8 10.9
15 4 3 2.3 10.1
-15 4 -3 -1.9 5.5
-15 -4 -3 4.3 10.7
15 -4 3 -0.2 5.5
15 -4 3 4.4 8.2
15 4 4 2.3 10.6
-15 -4 -4 -16.8 7.9
15 -4 4 -1 5.8
15 -4 4 0.5 8.9
15 4 5 26.1 13.1
15 -4 5 2.4 5.9
15 -4 5 -11.5 7.8
-15 -4 -5 11.8 11.4
15 4 6 15.4 14.5
15 -4 6 0 10.1
15 -4 6 16 6.7
15 4 7 -5 11.6
15 -4 7 -3.1 5.7
15 -4 7 13.3 12.3
15 4 8 30 14.7
15 -4 8 36.7 17.2
15 -4 8 26.1 8.2
15 4 9 29.9 15.1
15 -4 9 34.1 7.7
15 -4 9 22.5 14.4
15 4 10 -3.5 13
15 -4 10 -8.3 5.6
15 -4 10 1.5 13.2
-15 5 9 4.2 8.9
-15 5 8 137.79 20.5
-15 5 7 -10.3 8.7
15 5 -7 -1.8 6.7
-15 5 6 95.49 19.3
15 5 -6 101.69 13.6
-15 -5 6 151.68 27.8
-15 5 5 8.6 9.2
15 5 -5 41.9 9.4
-15 -5 5 90.49 21.3
-15 5 4 5.3 8.3
15 5 -4 -12.1 5.1
15 -5 -4 3.9 8.2
-15 5 3 7.6 7.8
15 5 -3 18.6 7.3
15 -5 -3 21.8 10.3
-15 -5 3 19.3 13.2
15 5 -2 66.79 19.1
-15 5 2 45.3 11.5
15 5 -2 41.7 9
15 -5 -2 44.7 11.8
-15 -5 2 47.4 14.6
15 5 -1 178.58 26.7
-15 5 1 178.38 18.4
-15 -5 1 179.38 21.2
15 -5 -1 153.78 15.4
15 -5 -1 166.98 18.2
15 5 0 235.38 29.6
-15 5 0 277.27 21.8
-15 -5 0 212.38 24.1
15 -5 0 240.28 21.3
15 -5 0 251.37 21.7
-15 5 -1 33.8 9.2
15 5 1 9.1 12.9
15 -5 1 33.2 10.6
-15 -5 -1 14.3 19.5
15 -5 1 33.6 9.6
-15 5 -2 238.88 19
15 5 2 148.79 22.7
-15 -5 -2 152.98 21.9
15 -5 2 227.48 21.8
15 -5 2 227.38 19.4
-15 5 -3 163.78 16
15 5 3 145.39 21.9
-15 -5 -3 148.39 20.4
15 -5 3 202.18 21.9
15 -5 3 168.48 16.7
15 5 4 28.3 13.5
15 -5 4 33.1 8.6
-15 -5 -4 14.5 12.4
15 -5 4 36.5 13.4
15 5 5 -0.2 12.4
15 -5 5 8.4 6.5
15 -5 5 -6.3 9.1
15 5 6 67.59 16.7
15 -5 6 77.19 11.1
15 5 7 2.6 11.8
15 -5 7 0.8 6
15 -5 7 -0.8 11.1
15 5 8 -1.9 12.3
15 -5 8 10.6 6.6
15 -5 8 1.2 10.7
15 5 9 4.5 13.9
15 -5 9 20.9 15
15 -5 9 3.8 6
-15 6 9 9.7 10.7
15 6 -8 -9.7 5.7
-15 6 8 32 12
15 6 -7 2.1 7
-15 6 7 4.3 9.3
15 6 -6 10.4 7.4
-15 6 6 8.3 9.3
-15 6 5 21.5 10.4
15 6 -5 -1.5 6.6
-15 6 4 69.89 14.9
15 6 -4 56.19 10.2
-15 -6 4 83.29 22.2
15 6 -3 14.1 7.3
-15 6 3 36.4 11.3
-15 -6 3 50.79 18.1
-15 6 2 23.5 10.2
15 6 -2 5.7 17
15 -6 -2 20.2 7.5
15 -6 -2 28.8 11.8
15 -6 -2 16.3 10.2
-15 -6 2 10.7 16.3
-15 6 1 293.37 25.2
15 6 -1 232.58 32.7
15 -6 -1 272.87 23.9
-15 -6 1 207.68 27.5
15 -6 -1 291.77 28.4
-15 6 0 54.29 12.1
15 6 0 24.5 17.4
-15 -6 0 39.9 16.8
15 -6 0 57.39 13
-15 6 -1 8.6 7.9
15 6 1 5.2 14
15 -6 1 16 10.9
15 -6 1 14.2 9.2
-15 -6 -1 -11.3 12.3
15 6 2 2.1 13.1
-15 6 -2 10.9 7.9
15 -6 2 23.6 9.6
15 -6 2 15.9 11.2
-15 -6 -2 -12.1 11.1
-15 6 -3 40.2 9.4
15 6 3 72.59 16.6
15 -6 3 56.49 16.5
15 -6 3 44.6 10.4
-15 6 -4 10.5 7.3
15 -6 4 26.2 14.9
15 -6 4 36.3 9.3
15 6 5 -12.3 11.4
15 -6 5 6.4 13.2
15 -6 5 -1.5 6.6
15 6 6 18.6 15.4
15 -6 6 8.1 12.7
15 -6 6 13.2 7.3
15 6 7 1.7 13
15 -6 7 4 12.4
15 -6 7 -1 5.9
15 6 8 -4 13.6
15 -6 8 -0.3 6
15 -6 8 24.6 16.6
15 6 9 -10.6 14
15 -6 9 3.2 12.5
-15 7 8 14.9 11
-15 7 7 3 8.9
15 7 -7 -1.1 6.3
15 7 -6 10.8 7.3
-15 7 6 6.1 8.7
15 7 -5 5.9 6.7
-15 7 5 -0.4 8.3
-15 7 4 7.2 8.9
15 7 -4 1.1 7.6
-15 7 3 11.4 15.8
15 7 -3 21.5 8.7
-15 7 2 9.3 9.8
15 -7 -2 -20.9 11.6
15 -7 -2 -6.4 8.3
-15 7 1 31.7 11.8
15 7 -1 59.49 21.2
15 -7 -1 35 14.7
15 -7 -1 34.7 12
15 7 0 29.6 21.7
-15 7 0 84.09 15.5
15 -7 0 105.29 17.4
15 -7 0 117.59 20.7
-15 7 -1 107.79 15.9
15 7 1 24.8 26.1
15 -7 1 97.49 20.1
15 -7 1 152.68 23.1
15 7 2 45.2 19.1
-15 7 -2 55.99 12.5
15 -7 2 41.8 17.6
15 -7 2 54.29 12.5
-15 7 -3 44.3 9.5
15 7 3 30.6 16.7
15 -7 3 52.29 17.9
15 -7 3 41.1 11.4
-15 7 -4 39.1 9.6
15 7 4 24 16.1
15 -7 4 67.39 19.8
15 -7 4 67.89 12.7
15 7 5 -6.6 12.5
15 -7 5 -1.3 7.3
15 -7 5 12.2 15
15 7 6 -3.3 13.8
15 -7 6 14.5 13.5
15 -7 6 0.4 6.7
15 7 7 10.6 14.9
15 -7 7 3.4 7.6
15 -7 7 22.7 17.3
15 7 8 5.1 16
15 -7 8 16.1 19.4
-15 8 7 -13.1 8.8
15 8 -7 -8.5 5.7
15 8 -6 9.5 7
-15 8 6 -8.8 7
-15 8 5 10.7 9.4
15 8 -5 8.2 7.5
-15 8 4 12.9 10
15 8 -4 21.8 8.9
15 8 -3 8.9 8.3
-15 8 3 4.4 11.8
15 -8 -3 27.4 8.8
-15 8 2 3.3 8.3
15 -8 -2 7.9 11.7
15 8 -1 56.49 22.4
-15 8 1 74.59 16.2
15 -8 -1 73.09 19.8
-15 8 0 77.99 15.8
15 8 0 69.79 24.6
15 -8 0 98.59 20.6
15 -8 0 69.99 17.9
-15 8 -1 15.5 10.1
15 8 1 -8.8 16.2
15 -8 1 27.1 15.4
15 8 2 4.7 15.6
-15 8 -2 -6.7 7.9
15 -8 2 -5.5 13.5
15 8 3 26.3 18.4
-15 8 -3 4.5 8.1
15 -8 3 8.4 12.9
15 8 4 5.1 14.9
-15 8 -4 31.3 9.2
15 -8 4 19.6 16.2
15 8 5 27.4 15.1
15 -8 5 -11.1 15
15 8 6 -2.8 14.2
15 -8 6 33.4 19.2
15 8 7 13.6 15.7
15 -8 7 25.8 19.2
15 9 -6 -4.9 6.7
-15 9 6 12 12.4
-15 9 5 14.4 10.6
15 9 -5 10 8.2
15 9 -4 -4.6 8.3
-15 9 3 26.1 15.8
-15 9 2 35.6 14.7
15 -9 -2 15.7 9.9
-15 9 1 19.7 13.7
15 -9 -1 14.3 15.4
15 9 0 64.59 21.7
15 -9 0 28.9 18.8
-15 9 -1 45.4 13.7
15 9 1 53.39 20.8
15 -9 1 22.7 19.2
15 -9 1 71.99 21.6
-15 9 -2 22.9 12.1
15 9 2 45.3 21.5
15 -9 2 51.99 19.3
15 9 3 -24.8 13.2
-15 9 -3 16.4 9.3
-15 9 -4 6.9 7
15 9 4 22 18.5
15 -9 4 -7.1 14
15 9 5 -9.7 12.8
15 -9 5 0.8 15.2
15 -10 -3 5.4 6.7
-15 10 2 -17.8 9.2
15 -10 -2 0.1 7.9
-15 10 1 2.1 11.8
15 -10 -1 -0.9 14.8
-15 10 0 2.8 11.4
15 -10 0 -8.2 18
15 10 1 -6.3 16
-15 10 -1 0.9 11.2
15 10 2 26.2 19.9
-15 10 -2 2 10.6
-15 10 -3 1.4 8.6
15 10 3 -7 15.5
15 -10 3 -3.2 18.1
-16 0 11 4 7.4
-16 0 11 3.2 7.9
-16 0 10 -1.5 10.8
-16 0 10 16.1 8.7
-16 0 10 14.5 8.9
-16 0 9 5.4 10.4
-16 0 9 -3.2 6.1
-16 0 8 18.8 8.4
16 0 -8 22.3 11.5
16 0 -6 6.8 8.6
-16 0 6 -6.4 6.1
-16 0 6 7.9 7.5
16 0 -5 3.7 6.9
-16 0 5 -3.4 5.7
-16 0 5 5.3 6.1
16 0 -4 221.48 20.2
-16 0 4 209.68 18.8
-16 0 4 221.38 16.4
-16 0 3 -4 5.2
16 0 -3 1.3 6.1
-16 0 3 1.6 5.6
16 0 -3 0.3 7.8
16 0 -2 337.97 25.2
16 0 -2 299.57 23.8
-16 0 2 329.37 21.5
-16 0 2 314.77 23.5
16 0 -1 -14.5 6.6
16 0 -1 5.4 5.7
-16 0 1 1.4 5.6
-16 0 1 1.3 6
-16 0 0 4.4 7.1
16 0 0 -4.3 6.2
16 0 0 -5.7 4.6
-16 0 -1 6.4 6.5
16 0 1 -1.6 5.5
16 0 2 35.4 8.4
-16 0 -2 53.49 11.1
16 0 2 61.39 11.2
-16 0 -3 -0.7 7.6
16 0 3 -4 6.8
16 0 3 1.8 5.4
-16 0 -4 130.29 17.3
16 0 4 91.89 15.2
16 0 4 91.69 13.2
16 0 5 6.5 7.4
16 0 5 15 9.6
-16 0 -6 258.67 28.1
16 0 6 214.98 24.7
16 0 7 -13.3 11.8
16 0 8 -9.9 9.6
16 0 9 1.8 11
16 0 10 61.79 17.6
-16 1 11 24.6 10.3
-16 1 11 1.4 10.2
-16 1 11 15.3 10.5
-16 -1 11 -6.2 8.7
-16 -1 11 16.5 8.7
-16 1 10 4.3 6.1
-16 1 10 -9.3 7.5
-16 -1 10 4.6 6.9
-16 -1 10 -7.2 7.6
-16 -1 10 8.3 13.4
-16 1 9 32.5 11.1
-16 1 9 29.8 9.8
-16 -1 9 35.6 15.6
-16 -1 9 28 9.3
16 1 -8 28.7 12
-16 1 8 64.39 11.6
-16 1 8 35.5 11
16 -1 -8 14.9 12
-16 -1 8 75.29 18.8
-16 -1 8 50.29 11.1
-16 1 7 17.1 8.9
16 1 -7 -6.8 7.8
16 -1 -7 -9.1 8.1
-16 -1 7 8 7.2
16 1 -6 90.89 14.8
-16 1 6 140.39 17
-16 -1 6 106.29 13.7
-16 -1 6 126.09 17.5
16 -1 -6 121.79 17.9
-16 1 5 44.6 10.3
16 1 -5 63.29 11.8
-16 -1 5 36.6 9.1
16 -1 -5 43.8 11.2
-16 -1 5 65.89 16
16 1 -4 45 9.9
-16 1 4 46.2 10
16 -1 -4 58.99 11.9
-16 -1 4 44.4 9.7
-16 -1 4 39.3 8.7
-16 1 3 70.19 8.5
-16 1 3 59.49 10.5
16 1 -3 57.69 10.6
16 1 -3 83.89 14.8
-16 -1 3 95.39 12.5
16 -1 -3 76.69 13.5
-16 -1 3 96.09 12
16 1 -2 38.2 8.6
-16 1 2 31.8 6.6
-16 1 2 28.3 8.4
16 1 -2 34.5 13.2
-16 -1 2 26.9 9.3
16 -1 -2 19.7 8.2
16 -1 -2 36 9.8
-16 1 1 249.08 21
-16 1 1 257.67 19.9
16 1 -1 299.97 23
16 1 -1 272.77 21.2
16 -1 -1 286.87 21.9
16 -1 -1 299.07 20.4
-16 -1 1 271.67 20.5
-16 1 0 24 7.5
16 1 0 22.5 7.1
16 1 0 16.8 9.7
-16 1 0 21.4 7.4
16 -1 0 9.1 6.5
-16 -1 0 22.1 7.8
16 -1 0 20.6 7.6
16 1 1 34.7 9.5
16 1 1 28.6 8.2
-16 1 -1 33.1 9.2
-16 -1 -1 38.4 9.2
16 -1 1 28.5 8.3
16 -1 1 31 8.2
16 1 2 -2.6 7.2
-16 1 -2 -3.3 6.3
16 1 2 14 6.4
16 -1 2 16.1 7.4
16 -1 2 8.6 5.9
-16 -1 -2 -3.9 6.6
16 1 3 116.59 15.9
-16 1 -3 100.79 15.5
16 1 3 99.49 13.6
-16 -1 -3 87.09 14.6
16 -1 3 82.99 13.4
16 -1 3 111.09 12.8
16 1 4 15.3 10
-16 1 -4 3.9 9.1
16 -1 4 20.5 9.7
16 -1 4 15.6 7.5
-16 -1 -4 17.2 8.9
16 1 5 13.8 11
-16 -1 -5 8.2 9.4
16 -1 5 8.5 7
16 -1 5 2.3 9.1
-16 1 -6 156.98 23
16 1 6 104.09 17.9
16 -1 6 81.79 16.1
-16 -1 -6 83.39 16.9
16 -1 6 78.09 12.3
16 -1 7 -10.9 15
16 -1 7 10.9 8.1
16 1 8 2.3 11.2
16 -1 8 -0.5 10.4
16 -1 8 21.1 9.4
16 1 9 8 12.7
16 -1 9 1 10.5
16 -1 9 -3.6 6.7
16 1 10 17.6 14.3
16 -1 10 9.2 12
16 -1 10 5.3 7.7
-16 2 11 -1.1 7.6
-16 -2 11 -13.7 8.1
-16 -2 11 -8 6.1
-16 2 10 64.39 15.7
-16 -2 10 32.5 8.5
16 2 -9 4.7 10.1
-16 2 9 5.8 8.7
-16 -2 9 12.8 7.4
16 2 -8 6.2 9
-16 2 8 -14.7 6.6
-16 -2 8 -21.6 11.9
-16 -2 8 -6.5 5.6
-16 2 7 54.19 12.8
16 2 -7 57.69 13.1
-16 -2 7 65.59 10.9
16 -2 -7 46.9 14.1
-16 -2 7 68.49 16.6
-16 2 6 15.4 9.6
16 2 -6 11.2 8.4
-16 -2 6 16.1 7.5
-16 -2 6 13 12.2
16 -2 -6 13.2 10
16 2 -5 29.9 9.6
-16 2 5 37.6 10.4
16 -2 -5 65.99 13.2
-16 -2 5 49.99 13
-16 -2 5 36.9 8.8
16 2 -4 14.4 6.8
-16 2 4 17.1 8.4
-16 -2 4 7.8 9.3
16 -2 -4 17.7 8.5
-16 2 3 15.1 7.5
16 2 -3 44.1 24
16 2 -3 14.4 7.1
-16 -2 3 5.6 8.2
16 -2 -3 7.1 7.5
16 2 -2 171.28 25.7
-16 2 2 189.18 17
16 2 -2 144.69 14.9
-16 2 2 153.28 13.2
-16 -2 2 179.08 16.8
16 -2 -2 149.49 16.7
16 -2 -2 168.48 13.9
16 2 -1 5.6 10.6
-16 2 1 3.3 5.7
-16 2 1 1.1 6.3
16 2 -1 17.9 7
16 -2 -1 3.1 5.7
-16 -2 1 -11.7 6
16 -2 -1 -1 5.7
16 2 0 225.28 21.9
-16 2 0 262.27 20.3
-16 2 0 226.68 19.9
16 2 0 269.07 20.7
16 -2 0 245.38 20.5
16 -2 0 242.28 18.4
-16 -2 0 270.67 20.9
-16 2 -1 20.2 7.5
-16 2 -1 27.9 9.6
16 2 1 25.2 7.6
16 2 1 25.3 9.6
16 -2 1 18.5 7.1
-16 -2 -1 15.6 7.2
16 -2 1 12 6.9
16 2 2 8.3 8.8
-16 2 -2 12.6 9
16 -2 2 10.7 7.2
16 -2 2 5.1 5.8
-16 -2 -2 0.3 7.3
16 2 3 13.5 8.9
-16 2 -3 -13.4 7.4
16 -2 3 0.1 6.9
16 -2 3 5.7 6.1
-16 -2 -3 -0.2 7.7
-16 2 -4 166.58 21.1
16 2 4 131.09 18.6
16 -2 4 169.68 18.9
16 -2 4 161.38 15.4
-16 -2 -4 139.89 18.9
16 2 5 35.6 12.2
-16 -2 -5 66.89 14.8
16 -2 5 39.5 11.7
16 -2 5 20 8
16 2 6 81.49 16.5
16 -2 6 77.29 11.9
16 -2 6 72.49 15.5
-16 -2 -6 88.69 16.9
16 2 7 41.3 15.3
16 -2 7 71.09 11.5
16 -2 7 53.49 18.8
16 2 8 4.2 11.8
16 -2 8 3.7 10
16 -2 8 -3.8 7.1
16 2 9 32.7 14.8
16 -2 9 16.3 12.3
16 2 10 16.8 13.4
16 -2 10 8 11.7
-16 3 10 54.59 14.3
16 3 -9 -10.8 9.3
-16 3 9 4.9 9.2
16 3 -8 83.09 14.6
-16 3 8 127.79 19
-16 -3 8 192.18 29.9
16 3 -7 49.5 11
-16 3 7 66.99 14
-16 -3 7 75.89 21.3
16 3 -6 16.3 7.9
-16 3 6 2.5 8.6
16 -3 -6 -5.4 10.1
-16 -3 6 -2.2 14.8
-16 3 5 1.8 7.1
16 3 -5 5.8 7
16 -3 -5 9 9.2
-16 -3 5 15.3 12.6
16 3 -4 43.8 9.7
-16 3 4 78.69 14
16 -3 -4 68.49 15.1
-16 -3 4 67.29 14.9
16 3 -3 98.39 12.4
-16 3 3 96.99 14.7
16 3 -3 122.89 20.8
-16 -3 3 137.09 17.2
16 -3 -3 87.29 14.5
16 3 -2 25.8 7.2
-16 3 2 17 7.8
16 3 -2 9.7 14.5
16 -3 -2 4.7 6.6
-16 -3 2 -0.2 8.8
-16 3 1 16.7 8
16 3 -1 2.9 5.6
16 3 -1 6.9 12.7
16 -3 -1 9.5 6.9
16 -3 -1 -2.2 4.9
-16 -3 1 -2.4 8.4
-16 3 0 27.9 8.5
16 3 0 25.2 11.9
16 3 0 11.9 7.1
16 -3 0 30 7.6
16 -3 0 32.5 8.7
-16 -3 0 2.6 7.6
-16 3 -1 302.07 22.7
16 3 1 288.27 25.1
16 -3 1 253.47 21.9
-16 -3 -1 298.77 24
16 -3 1 296.27 22.1
-16 3 -2 50.89 9.7
16 3 2 51.69 12.2
16 -3 2 51.19 10.6
-16 -3 -2 54.09 11.3
16 -3 2 59.69 10.2
16 3 3 5.9 10.1
-16 -3 -3 8.8 9.5
16 -3 3 11.1 6.2
16 -3 3 7.6 8.6
16 3 4 21.4 11.6
-16 -3 -4 22.1 10.5
16 -3 4 15.4 7.5
16 -3 4 29.8 11.7
16 3 5 16.9 11.6
-16 -3 -5 19.5 11.8
16 -3 5 15.4 10.6
16 -3 5 11 7.2
16 3 6 -7.6 11.6
16 -3 6 22.7 7.5
16 -3 6 11.2 11.2
16 3 7 12.3 12.5
16 -3 7 -10.5 9.4
16 -3 7 -5.5 5.5
16 3 8 51.79 16.7
16 -3 8 11.2 6.9
16 -3 8 28.5 13.4
16 3 9 -2.7 12.8
16 -3 9 -7.2 6.2
16 -3 9 4.1 10.3
16 3 10 -1.9 13.2
16 -3 10 14 7.4
16 -3 10 -3.5 9.4
-16 4 10 26.6 16.6
-16 4 9 3.9 9.7
16 4 -9 -0.6 8.5
16 4 -8 45.5 11.2
-16 4 8 79.19 18.3
-16 -4 8 71.89 23.2
-16 4 7 15.6 9.3
16 4 -7 -14.9 6.9
-16 4 6 107.29 17.6
16 4 -6 116.09 14.4
-16 -4 6 145.99 26.7
16 4 -5 3.6 6.7
-16 4 5 0.4 7.5
-16 -4 5 -15.8 13.8
16 -4 -5 -10.3 9.1
16 4 -4 49.3 9.8
-16 4 4 44.9 11.5
16 -4 -4 61.49 13.5
-16 -4 4 51.39 15.5
16 4 -3 218.58 18.7
-16 4 3 234.08 22
-16 -4 3 223.98 23.7
16 4 -2 14.9 6.7
16 4 -2 4.3 15.1
-16 4 2 11.4 8.1
-16 -4 2 4.3 10
16 -4 -2 22.1 9
-16 4 1 35.5 9.1
16 4 -1 34.4 8.8
-16 -4 1 34.4 12.1
16 -4 -1 36 10.5
16 -4 -1 36 7.5
-16 4 0 2.6 6.8
16 -4 0 6.2 6.8
16 -4 0 2.7 6.3
-16 -4 0 -2.9 8.9
-16 4 -1 115.09 13.9
16 4 1 75.59 16.2
-16 -4 -1 66.09 13.8
16 -4 1 96.49 13.4
16 4 2 4.3 10
-16 4 -2 16.6 7.4
16 -4 2 11.7 9.1
16 -4 2 21.3 8.4
-16 -4 -2 22.5 10.7
16 4 3 53.49 14.1
-16 -4 -3 70.39 15.1
16 -4 3 66.99 14.3
16 -4 3 62.79 10.5
16 4 4 -0.5 10.8
-16 -4 -4 19.6 11
16 -4 4 15.4 11.1
16 -4 4 13.1 7.9
16 4 5 -11.3 10.4
16 -4 5 -5.3 5.8
16 -4 5 4.6 10.1
16 4 6 42.6 15.6
16 -4 6 17.7 12.5
16 -4 6 37.1 8.2
16 4 7 3.1 12.8
16 -4 7 23.8 14.3
16 -4 7 13.8 6.6
16 4 8 -9.9 11.2
16 -4 8 -5.3 6.1
16 -4 8 -9.7 11.4
16 4 9 -12.3 11.7
16 -4 9 4.2 6.6
16 -4 9 7.9 12.3
16 5 -9 1.3 7.2
-16 5 9 14.3 11.1
16 5 -8 34.8 10.3
-16 5 8 30.6 12.8
16 5 -7 -15.4 6.5
-16 5 7 3.7 8.9
-16 5 6 58.89 14.7
16 5 -6 63.99 11.8
-16 -5 6 93.69 25.2
16 5 -5 14.9 8
-16 5 5 16.1 9.9
-16 -5 5 -10.5 18.4
16 5 -4 2 6.3
-16 5 4 2.2 8.4
-16 -5 4 3.9 14.3
16 -5 -4 7.9 10
16 5 -3 54.59 9.9
-16 5 3 52.69 12.3
16 -5 -3 56.49 14.4
-16 5 2 97.19 15.5
16 5 -2 108.09 13.1
16 5 -2 144.29 26.2
16 -5 -2 116.19 17.7
-16 -5 2 106.59 24.4
-16 5 1 152.88 17.5
16 5 -1 153.18 26.7
16 -5 -1 123.89 14.1
16 -5 -1 146.59 17
-16 -5 1 95.19 22
16 5 0 57.19 19.4
-16 5 0 52.89 11.2
16 -5 0 63.09 11.2
16 -5 0 69.79 12.7
16 5 1 67.59 17.8
-16 5 -1 56.39 11.8
16 -5 1 74.39 13
16 -5 1 77.49 13.8
16 5 2 89.79 17.9
-16 5 -2 71.29 11.5
16 -5 2 62.29 11.8
16 -5 2 65.29 14.1
-16 -5 -2 40.1 14.6
16 5 3 -15.2 11
-16 5 -3 3.5 6.7
16 -5 3 10.1 10.2
-16 -5 -3 4.5 10.6
16 -5 3 -0.6 6.8
16 5 4 26.6 13.8
16 -5 4 36.8 8.9
16 -5 4 21.7 12.5
16 5 5 16.3 17
16 -5 5 19.9 11.5
16 5 6 -7.7 11.5
16 -5 6 -4.5 10.3
16 -5 6 0.7 6.4
16 5 7 8.5 12.6
16 -5 7 -1.9 10.6
16 -5 7 12 7.2
16 5 8 11.3 12.8
16 -5 8 8.3 14.8
16 -5 8 -13.2 5.8
16 5 9 0.1 12.8
16 -5 9 7.4 15.3
16 -5 9 -6.7 6.9
-16 6 9 11.3 11
16 6 -9 2.4 6.6
-16 6 8 9.4 10.2
16 6 -8 -4.7 6.5
-16 6 7 32.9 12.6
16 6 -7 14.6 8
-16 6 6 12.9 10.6
16 6 -6 4.3 7.1
-16 6 5 19.8 10.6
16 6 -5 38 9.3
16 6 -4 -4.8 6.3
-16 -6 4 20.1 20.2
-16 6 3 43.4 12.2
16 6 -3 45.2 9.4
16 -6 -3 38.8 18.8
-16 -6 3 33.5 17.2
-16 6 2 84.99 15.2
16 6 -2 100.69 13.6
16 6 -2 126.29 26.3
16 -6 -2 66.09 15.3
16 -6 -2 79.69 11.8
-16 -6 2 98.39 19.8
-16 6 1 5.2 8.8
16 6 -1 2.4 18
16 -6 -1 -1 8.1
16 -6 -1 7.1 7.7
-16 -6 1 3.6 13.4
-16 6 0 170.68 18.1
16 6 0 109.39 25.6
-16 -6 0 127.19 21.8
16 6 1 17.6 14.2
-16 6 -1 -3.6 7.4
-16 -6 -1 6.6 12.7
16 -6 1 5 9.8
16 -6 1 4.4 7.5
16 6 2 132.69 22
-16 6 -2 89.29 14.2
16 -6 2 134.29 17.2
16 -6 2 95.39 19.4
-16 6 -3 0.2 7
16 6 3 -14 12.2
16 -6 3 4.2 11.1
16 -6 3 -4.2 6.8
16 6 4 15.5 13.6
16 -6 4 7 8.8
16 -6 4 15.9 13.6
16 6 5 33.2 16.9
16 -6 5 76.19 12.1
16 -6 5 47.5 18.5
16 6 6 4.3 14.8
16 -6 6 20.8 7.5
16 -6 6 3.3 12.8
16 6 7 2.8 12.9
16 -6 7 4.5 14.4
16 -6 7 1.3 6.9
16 6 8 -9.7 13.4
16 -6 8 7.5 13
16 -6 8 18 7.1
-16 7 8 8.1 10.3
16 7 -8 -2.8 6.3
16 7 -7 2.9 6.9
-16 7 7 31.8 12.8
-16 7 6 -8.9 7.6
16 7 -6 14.2 8.2
16 7 -5 -4.6 6.5
-16 7 5 9.8 9.7
16 7 -4 10.6 7.9
-16 7 4 3.6 11.3
16 7 -3 12.5 8.1
-16 7 3 -4 7.7
-16 7 2 69.69 16
-16 7 1 -3.6 7.9
16 -7 -1 -0.3 11.3
16 -7 -1 0.2 10.5
16 -7 -1 6.7 9.2
16 7 0 -12.4 21.3
-16 7 0 9.1 8.8
16 -7 0 16 12
16 -7 0 10.4 11
-16 7 -1 2.5 8
16 7 1 4.2 15.9
16 -7 1 10.2 13.1
16 -7 1 -1.9 8.4
16 7 2 37.6 16.2
-16 7 -2 11.4 9
16 -7 2 -0.1 11.3
16 -7 2 32.5 11.3
-16 7 -3 0 6.9
16 7 3 -0.7 14.6
16 -7 3 11.1 16.4
16 -7 3 11.8 9
16 7 4 13.2 15.4
-16 7 -4 -3.5 6.5
16 -7 4 2.8 14.4
16 -7 4 2.5 7.8
16 7 5 6 13.4
16 -7 5 14.2 9.2
16 -7 5 -11.4 11.3
16 7 6 1.8 13.9
16 -7 6 8.5 14.1
16 -7 6 -8.5 7.6
16 7 7 13.7 15.4
16 -7 7 18.1 19.1
16 -7 7 12.3 7.8
16 8 -7 -4 6.8
-16 8 7 -8.4 10.5
-16 8 6 18.1 12.9
16 8 -6 30.4 8.6
-16 8 5 -8.5 7.5
16 8 -4 -7.8 7.4
-16 8 4 -1.2 8.3
16 8 -3 11.9 10.8
-16 8 3 26.7 10.9
-16 8 2 18.2 11.9
16 -8 -2 10.1 12.1
16 8 -1 1.4 17.7
16 -8 -1 68.59 18.4
-16 8 0 21.7 12.4
16 8 0 29.2 19.7
16 -8 0 36.8 13.1
16 -8 0 38.4 15.8
16 8 1 40.9 20
-16 8 -1 21.4 10.2
16 -8 1 34 17.6
-16 8 -2 3.5 8.6
16 8 2 8.7 16.6
16 -8 2 2.2 15.4
16 8 3 -1.8 13.2
-16 8 -3 1.3 7.6
16 -8 3 11.7 15
16 8 4 2.7 15.2
-16 8 -4 25.4 9.5
16 -8 4 32.3 17.6
16 8 5 14.9 14.5
16 -8 5 17.8 17.3
16 8 6 12.9 15.4
16 -8 6 12 14.7
16 9 -5 23.8 10.3
-16 9 5 14.8 12.3
16 9 -4 -4 9.1
16 9 -3 20.2 10.8
-16 9 3 5.4 14.7
-16 9 2 -0.3 8.5
16 -9 -2 1 7.8
-16 9 1 5.4 9.3
16 -9 -1 -22.5 14.1
-16 9 0 2 10.5
16 9 0 -10.4 16.2
16 -9 0 -14.4 14.6
16 9 1 55.19 23.4
-16 9 -1 13.9 11.6
16 -9 1 43.1 19.7
16 -9 1 65.89 22.1
16 9 2 5.3 17.9
-16 9 -2 11.2 10.3
-16 9 -3 8.8 8.5
16 9 3 10.6 15.9
16 -9 3 2.9 14.1
-16 9 -4 -12.2 6.5
16 9 4 -23.3 13.8
16 9 5 7.9 13.7
16 -9 5 2.4 16.6
16 -10 -3 12 7.8
-16 10 2 -1.9 7.9
16 -10 -2 -10.6 6.6
-16 10 1 18.8 13.5
16 -10 -1 14.9 13.1
-16 10 0 12.9 14
16 -10 0 -13.6 17.4
16 -10 0 -17.9 13.5
16 10 1 13.2 17.2
-16 10 -1 43.1 16.2
-16 10 -2 16.6 12.7
16 10 2 -1.8 17
-17 0 11 -8.1 7.1
-17 0 11 9.1 11.8
-17 0 11 -7.8 6.1
-17 0 10 22.2 10.9
-17 0 10 2.3 7.6
-17 0 10 30.2 11.2
-17 0 9 1.2 7.2
-17 0 9 3.7 9
-17 0 8 21.4 9.2
17 0 -8 17.7 10.7
17 0 -7 -9.3 8.9
-17 0 7 -14.2 7.8
-17 0 7 -6.5 6.5
-17 0 6 290.27 21.6
17 0 -6 287.67 26.8
-17 0 6 321.67 25.3
-17 0 5 -7.1 5.5
-17 0 5 12.7 7.2
17 0 -5 5.1 8
17 0 -4 25.9 9.1
-17 0 4 32.6 8.8
-17 0 4 30.8 7
17 0 -3 -6.2 9.7
-17 0 3 3.1 5.6
17 0 -3 3.9 6.4
-17 0 3 4.6 5.6
17 0 -2 20.3 11
-17 0 2 24.2 6.8
-17 0 2 20.1 7.7
-17 0 1 -2.1 5.9
17 0 -1 6.8 7.5
17 0 -1 -0.7 5.5
-17 0 1 2.3 5.9
-17 0 0 21.4 7.8
17 0 0 8.7 7.5
17 0 0 5.7 6.4
17 0 1 3.7 7
-17 0 -1 8 7.7
17 0 1 4.3 5.9
17 0 2 79.09 12.7
17 0 2 88.19 12.5
-17 0 -2 58.59 12.3
17 0 3 -6.3 7.5
17 0 3 -2.6 6
-17 0 -3 -6.5 6.5
17 0 4 696.63 45
17 0 4 697.73 47
-17 0 -4 754.32 48.8
17 0 5 -7.5 8.7
-17 0 -5 -4.1 9.2
17 0 5 -1.4 7.2
17 0 6 727.53 49.8
-17 0 -6 686.93 51.99
17 0 7 5.2 11
17 0 8 0.2 11.6
17 0 9 11.4 12.8
17 0 10 4.2 13.1
-17 1 11 -0.8 8.9
-17 -1 11 -6.9 6.3
-17 -1 11 1.9 8.7
-17 1 10 38.9 12.1
-17 -1 10 12.1 7.4
-17 -1 10 23.9 10.1
-17 -1 10 23.3 13.6
17 1 -9 -10.2 10.2
-17 1 9 10.4 9.6
-17 -1 9 1.8 7
-17 1 8 49.7 12.3
-17 -1 8 18.4 8.5
17 -1 -8 41.1 13.5
-17 -1 8 38.7 14
17 1 -7 8.7 9.9
-17 1 7 31.3 10.5
17 -1 -7 4.8 10.3
-17 -1 7 26.4 12
-17 -1 7 17.6 7.9
17 1 -6 27.4 10.3
-17 1 6 31.9 10.3
-17 -1 6 41.8 11.6
17 -1 -6 47.2 12.3
-17 -1 6 49.2 10.4
17 1 -5 33 9.6
-17 1 5 37 10.1
-17 -1 5 65.89 15.4
-17 -1 5 34.1 9
17 -1 -5 40.8 11.3
17 1 -4 -7 6.1
-17 1 4 11.3 7.1
-17 -1 4 6.7 12.3
-17 -1 4 8.7 6.7
17 -1 -4 5.9 7.6
-17 1 3 -0.5 5.9
-17 1 3 -3 4.2
17 1 -3 3.2 6.5
17 1 -3 -3 10.8
-17 -1 3 2.8 6.1
17 -1 -3 -3.4 7.2
17 -1 -3 -2.8 7.9
-17 1 2 25.9 6.8
17 1 -2 14.5 7.1
17 1 -2 42.4 14.2
-17 1 2 15.7 7.5
-17 -1 2 11.5 7
17 -1 -2 17.5 8.6
17 -1 -2 29.7 8.7
-17 1 1 0.4 5.6
17 1 -1 7.2 6.6
-17 1 1 10.1 6.1
17 1 -1 3.4 9
-17 -1 1 -1.8 6.5
17 -1 -1 6.2 6.9
17 -1 -1 -9.9 5.1
17 1 0 9.5 7.2
-17 1 0 24.3 8.1
17 1 0 9.9 9.1
17 -1 0 15.9 7.1
17 -1 0 13.6 7.3
-17 -1 0 22.5 7.9
-17 1 -1 12.8 7.7
17 1 1 12.4 8.4
17 1 1 12.4 6.9
17 -1 1 13.8 6.9
-17 -1 -1 6.4 7.2
17 1 2 41.2 9.2
17 1 2 45.2 11.1
-17 1 -2 38.2 10.5
-17 -1 -2 53.89 10.8
17 -1 2 43.5 9.4
17 -1 2 37.4 9.6
17 1 3 51.59 11.8
-17 1 -3 50.29 12.7
17 1 3 47.1 10.2
17 -1 3 43.2 9.5
17 -1 3 40.3 10.6
-17 -1 -3 39.4 10.9
17 1 4 255.17 24.4
-17 1 -4 269.87 27.1
17 -1 4 236.28 23.3
-17 -1 -4 301.87 25.9
17 -1 4 233.38 20.8
17 1 5 207.48 23.4
-17 1 -5 240.38 26.8
17 -1 5 219.88 24.9
-17 -1 -5 222.98 24.9
17 -1 5 223.38 20.3
17 1 6 98.39 17.4
-17 1 -6 90.59 19.8
17 -1 6 87.29 13.2
-17 -1 -6 84.79 27.6
17 -1 6 68.29 16.1
17 1 7 27.2 13.1
17 -1 7 9.3 13.5
17 -1 7 41.7 14.3
17 1 8 5.3 12.5
17 -1 8 3.4 10.4
17 -1 8 -2.5 7.5
17 1 9 -6.3 10.7
17 -1 9 8.3 7.8
17 -1 9 8.2 12
17 1 10 36.2 16
17 -1 10 0.9 12.1
-17 2 10 5.8 9.9
-17 -2 10 25.8 8.3
-17 -2 10 11 15.2
-17 2 9 -16.3 7
-17 -2 9 -7.2 5.8
-17 -2 9 -18.4 12.3
17 2 -8 25.4 11.4
-17 2 8 49.6 13.4
-17 -2 8 63.29 17.1
-17 -2 8 36.4 9.7
-17 2 7 14.1 8.7
17 2 -7 21.1 9.4
17 -2 -7 -2.1 8.9
-17 -2 7 8 7.1
-17 -2 7 -7.1 11.9
17 2 -6 10.8 9.2
-17 2 6 17.5 9.6
-17 -2 6 25.1 13
17 -2 -6 24.3 11.2
-17 -2 6 19 8.1
-17 2 5 55.99 12.3
17 2 -5 49.4 11.6
17 -2 -5 64.89 14.1
-17 -2 5 49.2 13.9
-17 -2 5 53.89 10.1
17 2 -4 47.4 10
-17 2 4 52.89 11.1
17 -2 -4 68.49 13
-17 -2 4 54.99 11.9
17 2 -3 28.9 14
17 2 -3 6.8 6.8
-17 2 3 11.3 7.7
-17 -2 3 8.1 8.8
17 -2 -3 14.1 8.6
-17 2 2 176.18 14.2
17 2 -2 159.18 16
17 2 -2 175.38 24.4
-17 2 2 192.08 17.5
-17 -2 2 210.58 18.4
17 -2 -2 148.69 17.4
17 -2 -2 153.38 15
-17 2 1 189.48 17.2
17 2 -1 169.88 16.4
-17 2 1 171.48 15.6
17 2 -1 191.08 22.4
17 -2 -1 155.28 14.7
-17 -2 1 188.48 17.3
17 -2 -1 146.39 17
17 2 0 96.99 13.3
17 2 0 66.49 14.1
-17 2 0 111.89 14.2
-17 2 0 107.59 13.1
17 -2 0 100.49 12.2
17 -2 0 88.19 13.3
-17 -2 0 106.79 14.1
17 2 1 15.1 9.9
17 2 1 36.8 8.9
-17 2 -1 40.2 9.2
-17 2 -1 24.8 10.1
-17 -2 -1 30.7 9.2
17 -2 1 22.7 8.2
17 -2 1 34.5 8.2
-17 2 -2 107.59 16.4
17 2 2 94.19 14.9
17 2 2 91.19 13.4
17 -2 2 111.39 15.1
-17 -2 -2 108.89 15.4
17 -2 2 112.89 13.7
17 2 3 -5.9 9.3
-17 2 -3 17 10.7
17 -2 3 7.9 8.2
17 -2 3 0.9 5.9
-17 -2 -3 -2.7 8.3
17 2 4 163.98 20.6
-17 2 -4 183.28 23.7
-17 -2 -4 205.48 28
17 -2 4 150.48 16
17 -2 4 183.58 20.9
17 2 5 189.98 23
-17 -2 -5 210.38 24.5
17 -2 5 191.78 18.6
17 -2 5 228.78 24.2
17 2 6 18.3 12.6
17 -2 6 14.1 11.1
17 -2 6 8.9 7.5
17 2 7 100.69 18.8
17 -2 7 93.99 12.9
17 -2 7 75.49 17.9
17 2 8 5.1 12.6
17 -2 8 12.1 11.2
17 2 9 26.2 15.6
17 -2 9 14.1 8.2
17 -2 9 14.2 12.5
17 2 10 16.7 14
17 -2 10 -25.3 9.4
17 -2 10 14.7 9.1
-17 3 10 18.3 11.1
17 3 -9 22.2 10.6
-17 3 9 -3.5 7.7
-17 3 8 29.3 13.2
17 3 -8 57.29 12
-17 3 7 7.5 12
17 3 -7 25.6 9.5
-17 -3 7 35.5 21
-17 3 6 58.59 13.5
17 3 -6 55.79 12.8
17 -3 -6 37.7 13.7
-17 -3 6 47.6 19.8
17 3 -5 1.3 7.3
-17 3 5 1.6 8.8
-17 -3 5 2.4 12.8
17 -3 -5 13.5 9.9
-17 3 3 188.08 18.8
17 3 -3 149.59 23.9
17 3 -3 168.78 16.3
-17 -3 3 163.98 21
17 -3 -3 170.18 18.9
-17 3 2 39.5 10
17 3 -2 49.99 9.3
17 3 -2 59.29 18.3
17 -3 -2 34.6 9.9
17 -3 -2 15.8 6.6
-17 -3 2 33 10.9
-17 3 1 12.4 7.6
17 3 -1 -0.1 5.9
17 -3 -1 19.4 6.3
-17 -3 1 16.3 9.2
17 -3 -1 24.2 8.9
17 3 0 1.7 6.4
-17 3 0 4.9 6.8
17 3 0 47.6 13.3
-17 -3 0 10.8 8.8
17 -3 0 9.8 7.4
17 -3 0 3 6
-17 3 -1 -1.8 6.4
17 3 1 21.5 10.7
-17 -3 -1 -1 8
17 -3 1 15.6 7.1
17 -3 1 0.6 7.8
-17 3 -2 150.28 16.2
17 3 2 139.19 19.1
-17 -3 -2 161.98 19.2
17 -3 2 173.38 16.9
17 -3 2 163.38 17.1
17 3 3 23.1 11.5
17 -3 3 22.3 7.5
-17 -3 -3 9.8 17
17 -3 3 17.1 9.2
17 3 4 53.59 14.9
17 -3 4 60.89 13.6
17 -3 4 41.7 10
-17 -3 -4 42.2 12.5
17 3 5 44.2 14.6
17 -3 5 32.7 12.5
-17 -3 -5 19.7 13
17 -3 5 42.4 9
17 3 6 52.29 23.6
17 -3 6 68.99 17.2
17 -3 6 51.99 10.3
17 3 7 16.4 14
17 -3 7 17.8 7.7
17 -3 7 27.6 13.3
17 3 8 29.8 15.1
17 -3 8 14.3 7.1
17 -3 8 8.6 11.3
17 3 9 7.5 13.6
17 -3 9 -7 9.6
17 -3 9 -2.8 7.2
17 3 10 -4.6 13.2
17 -3 10 14.1 8.4
17 -3 10 -3.4 9.8
-17 4 10 6.3 12
17 4 -9 11.7 9
-17 4 9 8.5 11.1
-17 4 8 9.4 11
17 4 -8 8.3 8.6
-17 4 7 32.3 11.6
17 4 -7 29.6 10.1
17 4 -6 8.2 8.1
17 4 -5 14.7 7.6
-17 4 5 14.7 9.7
-17 -4 5 22.4 15.5
17 -4 -5 6.3 15.3
17 4 -4 -2.2 6.2
-17 4 4 -5.2 8.1
-17 -4 4 4.1 12.7
17 -4 -4 0.5 8.7
17 4 -3 33.7 17.2
-17 4 3 19 9.3
17 4 -3 13.5 7.9
17 -4 -3 19.2 10.4
-17 -4 3 18.4 12.6
17 4 -2 0.6 6.4
17 4 -2 -3.8 16.3
-17 4 2 0.5 7.2
-17 -4 2 -2.1 10.3
17 4 -1 36.6 9.2
17 4 -1 50.99 18
-17 4 1 58.59 12
17 -4 -1 44.6 8.2
-17 -4 1 55.49 14.3
17 -4 -1 78.89 13.1
17 4 0 13.2 13.6
-17 4 0 4.3 7.2
-17 -4 0 17.5 10.4
17 -4 0 17 7.3
17 -4 0 22.3 8.1
17 4 1 -5.7 10.4
-17 4 -1 -1.2 6.7
-17 -4 -1 1.1 8.7
17 -4 1 -1 6.4
17 -4 1 1.4 7.2
-17 4 -2 55.49 10.9
17 4 2 32 13.6
17 -4 2 66.79 14
17 -4 2 59.59 11.4
-17 -4 -2 66.79 15.9
17 4 3 61.19 15.3
17 -4 3 70.89 11.6
-17 -4 -3 46.4 14.7
17 -4 3 71.79 14.6
17 4 4 17.4 12.8
17 -4 4 28.2 13.5
-17 -4 -4 -4.5 10.5
17 4 5 -15.7 10.4
17 -4 5 -2.9 11.1
17 -4 5 -0.4 6.3
17 4 6 23 13.1
17 -4 6 13.1 7.6
17 4 7 16.1 14.2
17 -4 7 7.1 13.5
17 -4 7 14.5 7.3
17 4 8 45.9 16.8
17 -4 8 59.09 9.9
17 -4 8 59.09 17.6
17 4 9 6.6 12.9
17 -4 9 8.6 7
17 -4 9 11.1 13.2
17 5 -9 6.3 8.9
-17 5 9 -8 11.1
17 5 -8 -9.7 7.5
-17 5 8 1.6 11.8
-17 5 7 -6.8 7.5
17 5 -7 3.4 7.9
-17 5 6 8 9.6
17 5 -6 -0.5 7.8
-17 -5 6 -7.9 18.5
17 5 -5 30.3 8.9
-17 5 5 16.3 11.5
-17 -5 5 34 19.3
-17 5 4 56.49 13.1
17 5 -4 80.79 12.1
-17 -5 4 75.89 20.4
17 5 -3 9.4 7.7
-17 5 3 -2.4 7.9
17 -5 -3 12.9 10
-17 -5 3 14.5 14.9
17 5 -2 66.99 10.9
-17 5 2 49.6 11.9
17 5 -2 41.3 20.2
17 -5 -2 47.4 13
-17 -5 2 40.9 14.5
17 5 -1 14.3 18.1
-17 5 1 35.3 11
17 5 -1 23.7 8.7
17 -5 -1 5.1 7.9
-17 -5 1 -0.5 12.6
17 -5 -1 15.4 7.6
17 5 0 75.99 18.8
-17 5 0 30.3 10
-17 -5 0 24.4 14.5
17 -5 0 28.6 10.1
17 -5 0 24 10.2
17 5 1 12 14.7
-17 5 -1 41.8 10.9
17 -5 1 34.7 10.8
-17 -5 -1 26.8 12.5
17 -5 1 31.7 10.7
-17 5 -2 2.9 6.8
17 5 2 0.5 12.1
17 -5 2 8.3 8.1
17 -5 2 -5.8 9.2
-17 -5 -2 11.9 12.4
17 5 3 180.88 24.4
-17 5 -3 165.28 17.7
17 -5 3 184.68 18.1
17 -5 3 201.98 24
-17 -5 -3 113.49 22.2
17 5 4 -2.6 13.3
17 -5 4 0.7 10.2
17 -5 4 33.4 9.3
17 5 5 38.2 15
17 -5 5 63.19 13
17 -5 5 33 15.7
17 5 6 5.4 13.3
17 -5 6 22.6 13.6
17 -5 6 13.9 7.6
17 5 7 8.6 13.6
17 -5 7 -6.2 6.8
17 -5 7 -1.4 13.1
17 5 8 13.7 14
17 -5 8 9.5 7.4
17 -5 8 -4 13
17 5 9 2.9 13.2
17 -5 9 1.7 7.3
17 -5 9 1.6 13
17 6 -9 8 8.3
-17 6 9 3.4 9.5
17 6 -8 -9.4 6.8
-17 6 8 5.1 9.9
17 6 -7 -13.8 7.9
-17 6 7 -1.8 9.6
17 6 -6 11.4 7.9
-17 6 6 -9.6 7.9
17 6 -5 27.9 9.1
-17 6 5 21.8 10.6
17 6 -4 27.7 8.8
-17 6 4 11 10.5
-17 6 3 9.5 10.5
17 6 -3 7.9 7.1
-17 6 2 1.2 8.7
17 6 -2 6.3 17.9
17 6 -2 1.8 7.2
17 -6 -2 -15.4 7.3
17 -6 -2 -7.6 5.8
17 -6 -2 17.4 9.8
-17 -6 2 -4.9 14.4
-17 6 1 81.19 14.7
17 -6 -1 69.59 13.1
17 -6 -1 67.39 15.8
-17 -6 1 18.1 17.2
-17 6 -1 24.2 10
17 -6 1 21.2 12.3
17 -6 1 39.3 16.6
-17 6 -2 -2 7.6
17 6 2 -18.9 11.3
17 -6 2 16 8.3
17 -6 2 5.2 11
-17 6 -3 1 7.1
17 6 3 -4.3 11.5
17 -6 3 19.6 13.2
17 -6 3 13.9 8.7
17 6 4 -14.7 12.2
17 -6 4 6.7 7.1
17 -6 4 -7.7 9.6
17 6 5 12.9 14.9
17 -6 5 8.1 7.7
17 6 6 14.8 14.3
17 -6 6 6.1 14.2
17 6 7 -3.3 12
17 -6 7 -5.8 6.9
17 -6 7 3.2 13.5
17 6 8 6.5 15.3
17 -6 8 6.7 7.6
17 -6 8 -6.9 13.8
-17 7 8 -4.6 9.1
-17 7 7 -0.3 9.5
17 7 -7 -5.7 7.7
-17 7 6 -0.6 9.1
17 7 -6 -7.1 7.2
17 7 -5 -3.5 7.6
-17 7 5 -5.1 8.6
-17 7 4 -9.3 7.7
17 7 -4 13 8.3
-17 7 3 -10.6 7.5
17 7 -2 20 9.9
-17 7 2 31.8 18.8
17 -7 -2 23 10
-17 7 1 60.29 14
17 7 -1 36.4 19.7
17 -7 -1 70.69 15.4
17 -7 -1 64.29 15.4
17 7 0 30.7 19.9
-17 7 0 31.5 11.8
17 -7 0 8.2 9.9
17 -7 0 22.4 13.1
-17 7 -1 34 12
17 7 1 26.7 18.4
17 -7 1 29.3 13.1
17 -7 1 38.4 11.6
-17 7 -2 10.1 8.5
17 7 2 -13.7 14.3
17 -7 2 16.9 14.4
17 -7 2 25.5 10.6
-17 7 -3 13 8.5
17 7 3 17.1 15.2
17 -7 3 1.3 10.2
17 -7 3 11.4 13.6
-17 7 -4 -2.8 7
17 7 4 2.4 14.7
17 -7 4 -2.7 11.8
17 -7 4 5.1 9.4
17 7 5 -17.4 11.3
17 -7 5 17.2 8.8
17 -7 5 -6.7 14.4
17 7 6 7.7 13.5
17 -7 6 9.4 17.2
17 7 7 -6.7 13.9
17 -7 7 12.7 16.1
17 -7 7 6.5 8.9
17 8 -6 10.9 8.1
-17 8 6 -11 8.9
17 8 -5 11.3 8.7
-17 8 4 -9.7 7.4
17 8 -3 2.8 8.4
-17 8 3 6.9 9.6
-17 8 2 -6.4 10
17 8 -1 9.1 18
-17 8 1 -1.2 8.6
17 -8 -1 -7.2 14.2
-17 8 0 -8.6 9.5
17 8 0 0.6 17.6
-17 8 -1 0 8.7
17 8 1 7.1 17.9
17 -8 1 3.6 14
17 8 2 21.7 17.6
-17 8 -2 46.7 13.8
17 -8 2 47.8 21
-17 8 -3 8.9 8
17 8 3 9.1 15.1
17 -8 3 -11.8 9.5
-17 8 -4 14.3 9.2
17 8 4 23.1 17.1
17 -8 4 15.3 17.4
17 8 5 -2.6 13.9
17 -8 5 3.7 13.4
17 8 6 3.7 15
17 -8 6 4.3 14.2
-17 9 5 -18.8 8.8
17 9 -4 5 10.3
17 9 -3 2.8 10.2
-17 9 2 5.7 9.8
17 -9 -2 -10.2 5.4
-17 9 1 20.9 11.9
17 -9 -1 50.29 16.8
17 -9 -1 8.1 13
17 9 0 -5.3 15.6
-17 9 0 -13.9 8.5
17 -9 0 -17.8 11
17 -9 0 20.2 16.3
17 9 1 20.5 21.2
-17 9 -1 49.9 14.2
17 9 2 29.8 21.5
-17 9 -2 -3.2 9.1
17 9 3 4.8 17.2
-17 9 -3 6.4 9.6
17 9 4 -1.3 14.6
17 -9 4 1.8 15.4
-17 10 2 -7.3 9.4
17 -10 -2 -2.5 6.5
-17 10 1 -10 9.7
17 -10 -1 -14 9.7
-17 10 0 13.2 13.8
17 -10 0 8.1 17.3
17 10 1 -3 16.6
-17 10 -1 -4.8 10.3
-18 0 10 -11.4 6.2
-18 0 10 12.3 11.5
-18 0 10 8 8
-18 0 9 -9 5.5
-18 0 9 -5.7 9
-18 0 9 12.6 12.5
-18 0 8 1.3 7.6
18 0 -8 5.2 9.5
-18 0 7 -2.6 7.5
-18 0 7 -0.9 6.9
18 0 -7 -1.4 8.3
-18 0 6 208.88 17.7
18 0 -6 210.18 34.3
-18 0 6 206.38 20.9
-18 0 5 -1.2 6.8
-18 0 5 9.3 7.1
18 0 -5 27 10.1
-18 0 4 10.3 6.3
-18 0 4 6.3 7.1
18 0 -4 10.6 8.4
-18 0 3 -7.8 5.2
-18 0 3 -4.1 6
18 0 -3 20.9 11.5
18 0 -3 6.5 7.4
-18 0 2 171.38 14.7
-18 0 2 143.39 15.7
18 0 -2 153.38 20
18 0 -2 148.19 16.5
-18 0 1 10.1 6.6
-18 0 1 13.9 7.2
18 0 -1 9 6.8
18 0 -1 2.2 8.5
-18 0 0 194.18 17.9
18 0 0 203.48 18.2
18 0 1 1.1 6
18 0 1 2.9 7.2
-18 0 -1 -2.6 6.5
-18 0 -2 2.6 7.8
18 0 2 2.9 6.7
18 0 2 10.8 8.5
-18 0 -3 -2.3 7.7
18 0 3 -2.5 7.6
18 0 3 -5.7 5.9
18 0 4 3.9 10
-18 0 -4 -0.7 8.3
18 0 4 9.1 7
-18 0 -5 0.3 10.1
18 0 5 -3 9.4
18 0 6 2.3 8.5
18 0 7 -5.4 7.6
18 0 7 3.7 10.8
18 0 8 19.1 12.4
18 0 9 -14.7 9.5
18 0 10 36.6 16.4
-18 1 10 7 9.1
-18 -1 10 4 7.6
-18 -1 10 -10.2 10.9
-18 -1 10 -1.5 7.3
18 1 -9 44 13.3
-18 1 9 22.4 10.4
-18 -1 9 31.7 13.5
-18 -1 9 45.5 9.9
18 1 -8 -1.5 9.4
-18 1 8 3.6 8.2
-18 -1 8 -2 7
-18 -1 8 -2 10.5
-18 1 7 5.4 7.9
18 1 -7 -18.4 15.4
18 -1 -7 9.7 10.5
-18 -1 7 4.3 11.1
-18 -1 7 -0.7 7.2
-18 1 6 33.4 10.2
18 1 -6 15.9 10.2
-18 -1 6 41.9 11.5
-18 -1 6 30.3 9.5
18 -1 -6 10 9.9
18 1 -5 260.17 24.1
-18 1 5 267.77 23.3
-18 -1 5 273.27 23.1
18 -1 -5 286.17 31.5
-18 -1 5 281.67 23
-18 1 4 47.6 10.9
18 1 -4 38.5 10.3
18 -1 -4 67.79 12.9
-18 -1 4 52.09 10.4
-18 -1 4 65.19 11.9
18 1 -3 143.09 16.2
18 1 -3 138.69 20.4
-18 1 3 166.88 12.8
-18 1 3 138.99 16
-18 -1 3 132.19 15.1
18 -1 -3 136.29 17.3
-18 -1 3 135.09 15
18 -1 -3 132.29 16.2
18 1 -2 97.99 13.8
-18 1 2 112.99 13.8
18 1 -2 115.09 19.7
-18 1 2 96.29 12
18 -1 -2 96.79 14.1
18 -1 -2 129.19 16.3
-18 -1 2 94.99 13.1
18 1 -1 10.5 12.2
-18 1 1 9.1 6.9
18 1 -1 4.7 6.6
-18 1 1 1.2 6.4
18 -1 -1 -1.3 7.1
-18 -1 1 1.8 6.7
18 -1 -1 22.7 8
18 1 0 28.4 10.1
18 1 0 29.8 8.7
-18 1 0 31.5 9.1
-18 1 0 40.8 9.8
18 -1 0 36.9 9
18 -1 0 26.6 8.6
-18 -1 0 34.4 9
-18 1 -1 120.89 15.7
18 1 1 133.69 14.9
18 1 1 153.48 16.8
18 -1 1 134.69 14.8
18 -1 1 123.59 15
-18 -1 -1 131.19 15.9
-18 1 -2 14 9
18 1 2 17.4 9.6
18 1 2 6.8 6.7
18 -1 2 2.5 7.4
-18 -1 -2 11.3 8.2
18 -1 2 2.2 6
18 1 3 30.1 10.9
18 1 3 50.19 10
-18 1 -3 45.2 13.5
18 -1 3 42.7 11.9
-18 -1 -3 50.99 12.7
18 -1 3 56.09 10.7
-18 1 -4 198.88 23.8
18 1 4 167.28 21.4
18 -1 4 165.98 20.2
18 -1 4 177.78 18.3
18 1 5 501.25 38.6
-18 1 -5 494.95 41.4
18 -1 5 481.45 35.2
-18 -1 -5 523.75 40
18 -1 5 580.04 40
18 1 6 213.38 25.7
18 -1 6 190.68 24
18 -1 6 198.38 27.1
18 1 7 95.79 18.4
18 -1 7 85.39 13
18 -1 7 72.99 16.5
18 1 8 6.1 11.8
18 -1 8 11.2 7.3
18 -1 8 -1.2 11.3
18 1 9 8 12.6
18 -1 9 15.2 11.4
18 1 10 -0.5 13.1
18 -1 10 -11.8 10.6
-18 2 10 7.7 11
-18 -2 10 -5.1 6.6
18 2 -9 -6.5 10.4
-18 2 9 -11.8 7.9
-18 -2 9 0.4 6.6
-18 -2 9 -6.2 12.4
-18 2 8 45.2 12.8
-18 -2 8 32.7 9.6
-18 -2 8 60.69 17.3
18 2 -7 4.6 8.9
-18 2 7 32.3 10.6
-18 -2 7 19.3 9.3
-18 -2 7 40.6 14.1
-18 2 6 -1 7.7
18 2 -6 -4.1 7.9
-18 -2 6 3.7 6.9
-18 -2 6 -1.4 11.3
18 -2 -6 -11.9 8.5
18 2 -5 22.4 9.2
-18 2 5 31.6 10.2
-18 -2 5 18.7 8.5
-18 -2 5 11.7 10.6
18 -2 -5 13.9 9.5
18 2 -4 2.7 6.6
-18 2 4 5.7 7.9
-18 -2 4 15.9 10.5
18 -2 -4 16.3 10.6
18 2 -3 34.1 9.3
18 2 -3 38.4 15.8
-18 2 3 14.1 8.6
18 -2 -3 32.2 10.6
-18 -2 3 22 10.2
-18 2 2 -3.2 6
-18 2 2 15.3 6.1
18 2 -2 2.4 5.9
18 -2 -2 9 7.9
18 -2 -2 11 7.7
-18 -2 2 5.5 8.4
-18 2 1 46.6 9.2
-18 2 1 42.2 10.3
18 2 -1 33.1 8.7
18 -2 -1 47.7 9.1
-18 -2 1 41.1 10.1
18 -2 -1 54.39 11.8
-18 2 0 8.1 6.9
18 2 0 11.2 10.6
18 2 0 3.3 6.5
18 -2 0 0.9 6.7
18 -2 0 -0.3 6.7
-18 -2 0 7 7.5
18 2 1 13.8 7.9
-18 2 -1 14.7 8
18 2 1 6.2 9.7
-18 2 -1 23 9.7
-18 -2 -1 20.6 9.3
18 -2 1 19.8 7.8
18 -2 1 21.7 8
-18 2 -2 204.28 21.2
18 2 2 193.68 18.4
18 2 2 175.18 19.8
-18 -2 -2 161.28 19.6
18 -2 2 197.08 17.9
18 -2 2 179.88 18.1
18 2 3 -2.8 9.8
-18 2 -3 8.5 10
18 -2 3 -7.6 5.5
-18 -2 -3 -0.1 8.6
18 -2 3 1.1 7.9
18 2 4 73.19 15.6
-18 2 -4 122.09 20.5
18 -2 4 75.69 12
18 -2 4 80.59 15.1
-18 -2 -4 64.69 14.8
-18 2 -5 78.49 18.7
18 2 5 47.5 15.2
18 -2 5 49.4 13.6
-18 -2 -5 52.59 14.8
18 -2 5 68.89 11.9
18 2 6 33 24
18 -2 6 43.3 9.6
18 -2 6 23.2 12.6
18 2 7 106.79 19.6
18 -2 7 118.39 17.3
18 -2 7 84.59 18.1
18 2 8 -0.6 12.3
18 -2 8 3.4 7.5
18 -2 8 -7.9 10.4
18 2 9 8.3 13.6
18 -2 9 9.1 8.6
18 -2 9 -5.9 10.9
18 2 10 60.09 17.8
18 -2 10 4.2 11.8
-18 3 10 -9.5 8.2
18 3 -9 30.9 12.2
-18 3 9 -8 7.3
-18 3 8 14.4 11.1
18 3 -8 14.9 9.1
-18 3 7 4.6 8.8
18 3 -7 10.1 8.4
-18 -3 7 -15.2 13.6
-18 3 6 30.6 11.5
18 3 -6 22.7 10.1
-18 -3 6 24 14.2
18 3 -5 60.79 11.5
-18 3 5 66.89 14.4
18 -3 -5 87.09 15.5
-18 -3 5 65.89 17.6
18 3 -4 1.7 7.3
-18 3 4 0.3 8.1
18 -3 -4 18.1 9.8
-18 -3 4 13.6 11.3
18 3 -3 16.9 15
-18 3 3 5.9 7.8
18 3 -3 5.4 6.7
-18 -3 3 9.4 10.8
18 -3 -3 7 8
18 3 -2 7 7.1
-18 3 2 14.2 8.4
18 3 -2 18.9 16.8
18 -3 -2 18.8 9.3
-18 -3 2 18.9 10.6
-18 3 1 0.6 6.6
18 3 -1 4.6 13
18 3 -1 -4.4 5.7
18 -3 -1 0.2 6
-18 -3 1 -8.4 7.9
18 -3 -1 1.2 7.1
18 3 0 -2.9 11.2
18 3 0 9.8 7.2
-18 3 0 3.5 7.5
18 -3 0 16.6 7.7
-18 -3 0 0.6 9.1
18 -3 0 10.8 8.1
18 3 1 -1 9.8
-18 3 -1 1.4 7.3
18 3 1 3.1 7
18 -3 1 -1.7 7
18 -3 1 5.8 7.2
-18 -3 -1 2.7 8.5
-18 3 -2 26.9 8.6
18 3 2 23.2 11.6
18 -3 2 13.6 8.4
18 -3 2 21.7 8.3
-18 -3 -2 6.4 10
18 3 3 60.79 14.9
-18 -3 -3 61.89 14.1
18 -3 3 66.99 11.6
18 -3 3 56.59 12.7
18 3 4 74.79 16.4
18 -3 4 83.19 15.3
18 -3 4 104.69 13.8
-18 -3 -4 82.49 16.3
18 3 5 6.8 11.6
18 -3 5 28.7 11.6
18 -3 5 16 7.5
18 3 6 25.3 13
18 -3 6 21.5 8
18 -3 6 13.2 14.4
18 3 7 11.7 11.7
18 -3 7 9.3 7.3
18 -3 7 -1.7 10.6
18 3 8 -4.5 12.1
18 -3 8 -4.7 10.1
18 -3 8 -10 9.4
18 3 9 -1.3 12.4
18 -3 9 16.1 12
18 -3 9 2.9 7.2
-18 4 10 2.6 12.6
-18 4 9 5.5 13
18 4 -9 14.4 10.8
-18 4 8 15.4 13.6
18 4 -8 51.59 11.6
-18 4 7 1.7 9
18 4 -7 10.1 8.8
18 4 -6 11.5 8.1
-18 4 6 -11.3 6.8
-18 -4 6 7 16.3
18 4 -5 61.19 12
-18 4 5 106.69 17.4
-18 -4 5 104.99 21.1
18 4 -4 21.2 9
-18 4 4 61.79 13.1
18 -4 -4 13.5 11.6
-18 -4 4 51.69 16.4
18 4 -3 197.68 18.7
-18 4 3 240.48 22.2
18 4 -3 251.87 32.4
-18 -4 3 196.88 23.6
18 -4 -3 156.88 20.9
18 4 -2 25.3 19.1
18 4 -2 15.4 8.1
-18 4 2 5.4 8.7
-18 -4 2 13.1 12.3
18 -4 -2 12.7 8.9
-18 4 1 41.1 11.2
18 4 -1 -7.2 16.3
18 4 -1 27.9 8.4
-18 -4 1 5.1 11.6
18 -4 -1 24.1 7.5
18 4 0 11.3 8.6
18 4 0 -3.7 14.2
-18 4 0 -0.5 7
18 -4 0 6.2 7.3
-18 -4 0 -7 8.6
18 -4 0 -8.1 6.6
-18 4 -1 41.5 10.2
18 4 1 43.2 14.8
18 -4 1 56.49 11.8
18 -4 1 49.7 11.5
-18 4 -2 16.8 8.7
18 4 2 15.1 12.6
-18 -4 -2 24.1 11.4
18 -4 2 8.5 9.9
18 -4 2 14 8.2
18 4 3 15.8 13.3
-18 -4 -3 18.2 12.4
18 -4 3 6.5 10
18 -4 3 12.9 8.1
18 4 4 3.6 12.7
18 -4 4 17.2 8.4
18 -4 4 5 10.7
18 4 5 4.5 11.4
18 -4 5 11.7 7.3
18 -4 5 12.7 12.5
18 4 6 70.99 17
18 -4 6 49.3 10
18 -4 6 30.7 13.4
18 4 7 -17.3 11.9
18 -4 7 -1 6.9
18 -4 7 -10.3 10.6
18 4 8 64.29 18.8
18 -4 8 30.9 17.2
18 -4 8 37.2 9.4
18 4 9 -14.8 12.8
18 -4 9 3.6 13.8
18 -4 9 -7.1 7
18 5 -9 -22.3 7.6
18 5 -8 -2 8.3
-18 5 8 -2.7 11
18 5 -7 -2.4 7.6
-18 5 7 -11.4 7.9
-18 5 6 14.2 10.5
18 5 -6 3.1 7.8
-18 -5 6 -4.3 21.4
-18 5 5 4.6 9.1
18 5 -5 15.9 9
-18 -5 5 24 19.9
18 5 -4 13.3 8
-18 5 4 26.9 16.5
-18 -5 4 14 17.8
18 5 -3 15.8 8.1
-18 5 3 4 8.6
18 -5 -3 42.1 18.3
-18 -5 3 21.7 16.3
-18 5 2 6.4 9.4
18 5 -2 4.6 7.2
18 5 -2 -34.5 17.3
18 -5 -2 8 9
-18 -5 2 0.6 13
-18 5 1 39.2 11.4
18 5 -1 29.6 20.2
18 -5 -1 37 11.1
-18 -5 1 39.6 15
18 -5 -1 36 8.7
-18 5 0 6.3 8.2
18 5 0 -4 15.5
18 -5 0 -10.1 7
18 -5 0 8 8.4
-18 -5 0 6.8 11.5
18 5 1 9.3 14.7
-18 5 -1 12.5 9.1
-18 -5 -1 14.3 12.5
18 -5 1 21.9 11.2
-18 5 -2 5.7 7.8
18 5 2 23.6 13.6
18 -5 2 -0.1 8.1
18 -5 2 18.7 11.7
-18 -5 -2 -15.2 9.7
-18 5 -3 5.9 8.3
18 5 3 8.4 12.7
18 -5 3 10.7 7.8
18 -5 3 8.2 10.3
18 5 4 13 13.9
18 -5 4 11.1 8.2
18 -5 4 24.6 13.5
18 5 5 -10.8 11.1
18 -5 5 -4.6 10.9
18 5 6 6.9 13.3
18 -5 6 16.8 8
18 -5 6 -2.2 12.8
18 5 7 -1.3 12.9
18 -5 7 4.8 7
18 -5 7 4.1 16.5
18 5 8 -0.8 14.1
18 -5 8 20.7 8.2
18 -5 8 13.8 15.8
18 6 -8 -6.4 7.7
-18 6 8 18.4 11.3
18 6 -7 -9.5 8.5
-18 6 6 22 13
18 6 -6 35.5 9.9
18 6 -5 -10.6 7.1
-18 6 5 -0.3 10
-18 6 4 12.7 10.1
18 6 -4 1.9 7.4
18 6 -3 28.2 10.6
-18 6 3 10.2 10.8
-18 6 2 -4.1 9
18 6 -2 20.5 18.6
18 6 -2 3.7 7.2
18 6 -1 25.1 19.9
-18 6 1 -2 8
18 -6 -1 13.2 8.6
18 -6 -1 5.8 8.5
-18 6 0 6.9 8.7
18 6 0 -16.9 14.8
18 -6 0 -3.1 8.2
18 -6 0 -8 9.6
18 6 1 -26 13.9
-18 6 -1 0.1 8.1
18 -6 1 0.5 7.6
18 -6 1 3.6 9.7
18 6 2 25.2 16.5
-18 6 -2 13.4 9.1
18 -6 2 34.4 10.5
18 -6 2 23.3 13.1
18 6 3 6 12.4
-18 6 -3 -0.2 7.8
18 -6 3 -1.5 11.6
18 -6 3 10.5 10.2
18 6 4 -1.9 13.3
18 -6 4 36.6 10.3
18 -6 4 1.9 12.7
18 6 5 -10.9 12.9
18 -6 5 25.2 16
18 -6 5 5.4 7.6
18 6 6 -0.8 13.9
18 -6 6 10.1 13
18 -6 6 18.4 8.2
18 6 7 1.3 14.6
18 -6 7 5.1 7.9
18 -6 7 32.5 18.3
18 6 8 5.3 15.2
18 -6 8 23.7 9
18 -6 8 30.1 18.4
-18 7 7 8.6 10.8
18 7 -7 11.9 9.1
18 7 -6 -1.1 8.4
-18 7 6 17.7 11.6
18 7 -5 -2.6 7.3
-18 7 5 20.6 11.4
-18 7 4 10.6 10.9
18 7 -4 8.4 13.9
18 7 -3 14.8 9.2
-18 7 3 31.7 12.3
-18 7 2 13.5 10.6
18 7 -2 23.4 10
18 7 -2 26 20
-18 7 1 46.7 18.6
18 7 -1 11.2 21.5
18 -7 -1 30.3 11.3
-18 7 0 0.4 9.1
18 7 0 -4 18.2
18 -7 0 8.7 10.4
18 7 1 5 17.3
-18 7 -1 33.6 11.6
18 -7 1 28.1 12.3
-18 7 -2 16 9.5
18 7 2 24.9 16.1
18 -7 2 24.8 9.9
18 -7 2 13.1 15
18 7 3 43.3 17.2
-18 7 -3 45.7 11.5
18 -7 3 39.4 16.5
18 -7 3 58.69 14.1
18 7 4 -15.1 12.3
18 -7 4 14.4 15.3
18 7 5 4.4 13.4
18 -7 5 5.7 8.2
18 -7 5 1.9 14.8
18 7 6 -15.2 13
18 -7 6 -3.3 14.9
18 -7 6 24.5 9.9
18 7 7 -16.7 13.5
18 -7 7 -13.3 8.7
18 -7 7 -8.5 14.3
-18 8 6 8.1 11.5
18 8 -6 9.8 8.9
-18 8 4 6.3 9.6
18 8 -4 15.2 8.9
-18 8 3 13.3 10.4
18 8 -3 15.9 8.8
-18 8 2 24.5 14.8
18 8 -1 -9.9 16.9
-18 8 1 -6.8 8.3
18 -8 -1 20.7 13.3
18 8 0 20.6 19.8
-18 8 0 7.2 11.1
-18 8 -1 1.6 9.5
18 8 1 9.4 17.2
18 -8 1 16.2 13.5
18 8 2 48.2 17.4
-18 8 -2 2.6 9
18 -8 2 -16.7 11.6
18 -8 2 -6.4 14.2
18 8 3 -2.8 13.8
-18 8 -3 7.7 8.3
18 -8 3 0.8 13.5
18 -8 3 15.5 11
18 8 4 10.5 16.1
-18 8 -4 -9.4 7
18 -8 4 17.1 15.8
18 -8 4 -6.7 9.8
18 8 5 -1.8 14.6
18 -8 5 -9.3 14.3
18 9 -4 4.9 10.9
-18 9 3 14.5 14
-18 9 2 1.1 9.2
18 -9 -2 -8.6 5.3
-18 9 1 5.6 13.3
18 -9 -1 21.4 12.4
-18 9 0 -10 9.5
18 9 0 24.6 19.4
18 -9 0 25.4 16.8
18 9 1 20.6 19.4
-18 9 -1 -6.9 9.8
18 9 2 -5.8 17.9
-18 9 -2 22.1 11.9
18 9 3 0.5 16.2
-18 9 -3 21.6 10.1
18 9 4 0.6 14.9
-18 9 -4 21 9.8
18 -9 4 -21.4 15.7
-19 0 10 15 9.3
-19 0 10 -3.2 9.3
-19 0 9 -5.9 6.4
19 0 -8 8.4 12.2
-19 0 8 -8.4 7.6
-19 0 7 3.4 7.6
19 0 -7 2.6 8.3
-19 0 7 -8.3 7.3
-19 0 6 -5.1 7.1
19 0 -6 10.7 9.8
-19 0 6 10.4 7.7
-19 0 5 -8.1 6.2
-19 0 5 2.7 8.3
19 0 -5 19.7 10.3
-19 0 4 18.4 7
-19 0 4 5.7 8
19 0 -4 37.5 11.4
19 0 -3 -2.3 12
-19 0 3 -5.4 5.5
-19 0 3 -1.8 7.2
19 0 -3 -0.8 7
-19 0 2 5.6 7
19 0 -2 13.8 12.9
19 0 -2 -7.7 6.5
-19 0 2 9.6 9.5
-19 0 1 -10.1 6
19 0 -1 19.4 10.4
19 0 -1 -4.7 6.2
-19 0 0 14.9 7.8
19 0 0 2.7 6.4
19 0 0 -14 7.7
-19 0 -1 -8 7.1
19 0 1 3.8 8.3
19 0 1 1.8 6
-19 0 -2 67.99 13.6
19 0 2 53.79 10.5
19 0 2 68.19 12.7
-19 0 -3 1.8 9.4
19 0 3 -3.2 8.9
19 0 3 -5 7.1
-19 0 -4 174.48 22.5
19 0 4 184.98 21.9
19 0 4 208.68 22.1
19 0 5 12 11
-19 0 -5 3.1 10.2
19 0 5 -2.6 7
19 0 6 22.7 21
19 0 6 21.2 9.1
19 0 7 1.3 11.9
19 0 7 3.8 10.4
19 0 8 53.69 16.4
19 0 9 15.1 12.5
19 0 10 11.4 14.1
-19 1 10 23.3 11
-19 -1 10 18.1 8.3
-19 -1 10 12.9 13.3
19 1 -9 -2.1 14.4
-19 1 9 1.3 8.4
-19 -1 9 10.4 8.5
19 1 -8 10.7 11.2
-19 -1 8 5.6 8.5
-19 -1 8 33.2 12.7
-19 1 7 18.8 9.8
19 1 -7 9.1 9.7
-19 -1 7 17.1 10.6
19 -1 -7 -14.4 13.8
-19 -1 7 0.2 7.1
19 1 -6 -15.6 7.3
-19 1 6 -14.5 6.9
19 -1 -6 -5 8.1
-19 -1 6 0.5 7.7
-19 -1 6 1.3 9.3
19 1 -5 110.89 16.7
-19 1 5 117.39 17.1
-19 -1 5 109.49 15.1
-19 -1 5 84.39 14.1
19 -1 -5 126.99 18.3
-19 1 4 202.58 21
19 1 -4 243.08 21.3
19 -1 -4 228.08 22.8
-19 -1 4 237.38 20.6
-19 -1 4 250.07 20.2
19 1 -3 226.38 20.3
-19 1 3 222.58 20.4
-19 1 3 241.38 16.9
19 1 -3 163.68 24.5
-19 -1 3 224.68 18.8
19 -1 -3 178.98 19.4
-19 -1 3 230.98 20.3
19 -1 -3 200.88 21.9
-19 1 2 194.58 19.2
-19 1 2 232.48 17.8
19 1 -2 320.57 42.9
19 1 -2 195.48 19.7
-19 -1 2 243.38 19
19 -1 -2 194.48 20
19 -1 -2 182.38 20.4
19 1 -1 54.69 14.5
-19 1 1 21.3 9.1
-19 1 1 15.7 8.3
19 1 -1 33.2 9.5
-19 -1 1 22.3 9
19 -1 -1 44.6 10.4
19 -1 -1 10.7 7.6
-19 1 0 -3.6 6.5
19 1 0 -9.8 6
19 1 0 1.3 9.2
-19 1 0 -14.1 6.8
-19 -1 0 6.3 8
19 -1 0 -0.7 6
19 -1 0 6.6 8.2
19 1 1 29.5 8.8
19 1 1 34.4 11.1
-19 1 -1 35.7 10
-19 -1 -1 24.6 9.5
19 -1 1 36.4 9.5
19 -1 1 32.3 9.5
19 1 2 18.4 10.1
19 1 2 0.1 6.9
-19 1 -2 14.8 9.3
19 -1 2 -1.3 6.4
19 -1 2 5.2 7.9
-19 -1 -2 8.7 9.3
19 1 3 52.19 13.1
-19 1 -3 60.59 14.7
19 1 3 63.09 14.9
-19 -1 -3 63.09 14.7
19 -1 3 63.59 11.9
19 -1 3 52.29 12.4
19 1 4 19.5 11.7
19 1 4 17 8.3
19 -1 4 -1.5 9.3
19 -1 4 -7.6 6.8
-19 -1 -4 -9.7 8.9
19 1 5 180.78 21.4
19 1 5 110.29 15.7
-19 1 -5 125.39 21.9
19 -1 5 104.89 15.7
-19 -1 -5 96.49 18.8
19 -1 5 89.69 17
19 1 6 32.2 17
19 -1 6 16.8 9.1
19 -1 6 39.6 19.6
19 1 7 -11.2 10.7
19 -1 7 3.1 8
19 -1 7 9.2 12.4
19 1 8 25.1 14.3
19 1 9 -1.9 12.5
19 -1 9 -3.4 11.8
-19 2 10 -5.6 9.4
-19 -2 10 -0.7 7
-19 2 9 8.9 9.9
19 2 -9 2 10.5
-19 -2 9 -9 6.2
-19 -2 9 7 12.3
19 2 -8 -10.7 9
-19 2 8 -8 7.7
-19 -2 8 -1.5 7.2
-19 -2 8 -4.2 12.4
19 2 -7 13.6 10.1
-19 -2 7 10.6 12.4
-19 -2 7 3.8 8.2
-19 2 6 4.3 8.1
19 2 -6 18.1 9.4
-19 -2 6 0.7 6.9
-19 -2 6 8.6 12.5
19 2 -5 1.3 8.8
-19 2 5 -7.9 6.8
19 -2 -5 2.1 9.7
-19 -2 5 6.1 10.6
-19 2 4 193.38 19.6
19 2 -4 150.28 17.2
19 -2 -4 159.28 21.5
-19 -2 4 173.28 18.9
-19 2 3 11.8 8.9
19 2 -3 -7.2 7.4
19 2 -3 5.1 15
19 -2 -3 -5.9 7.8
-19 -2 3 0.2 9.2
19 2 -2 209.78 19.4
-19 2 2 206.58 19.8
19 2 -2 196.38 26.5
-19 2 2 188.28 16.7
-19 -2 2 231.18 20.4
19 -2 -2 246.28 33.2
19 -2 -2 197.98 18.1
-19 2 1 -3.4 6.3
-19 2 1 14.3 7.9
19 2 -1 -3 11.4
19 2 -1 1.9 7.2
19 -2 -1 3.2 7.7
19 -2 -1 -10.3 6.2
-19 -2 1 7.1 8.1
-19 2 0 16.9 8.7
19 2 0 -7.7 10.3
19 2 0 10.6 7.7
-19 2 0 9.4 7.2
19 -2 0 11 7.8
-19 -2 0 4.4 7.8
19 -2 0 15.4 8.1
19 2 1 -5.4 6.3
-19 2 -1 0.9 8.8
19 2 1 3.1 9.7
-19 2 -1 -8.7 6.4
19 -2 1 14 7.9
19 -2 1 1.3 5.9
-19 -2 -1 -6.8 7.8
-19 2 -2 30.7 11.5
19 2 2 16.4 9.6
19 2 2 8.2 10.4
19 -2 2 11.8 9
19 -2 2 11.6 8.2
-19 -2 -2 -0.7 10
-19 2 -3 6.6 11.7
19 2 3 8.8 8.8
19 2 3 24.6 12.1
19 -2 3 23 8.8
-19 -2 -3 3.9 14.3
19 -2 3 -4.8 8.3
19 2 4 13.8 12
19 -2 4 15.3 7.5
19 -2 4 5.5 9.8
-19 -2 -4 -12.1 10
-19 2 -5 5.6 13.2
19 2 5 7.5 12.7
19 -2 5 27.6 13.6
19 -2 5 6.6 11.1
19 2 6 13.3 12.4
19 -2 6 -4.5 6.9
19 2 7 -2.4 12.1
19 -2 7 6.1 11
19 -2 7 -12 7
19 2 8 32.8 15.3
19 -2 8 8.8 12.2
19 -2 8 55.79 11.2
19 2 9 -11.9 11.3
19 -2 9 9.2 13.7
-19 3 10 11.2 11.1
19 3 -9 -15.9 9.9
-19 3 9 -9.5 7.9
-19 -3 9 3.1 17.1
-19 3 8 -4.7 9.5
19 3 -8 16.6 10.6
-19 3 7 13.2 9.8
19 3 -7 1 8.9
-19 -3 7 3.5 13.8
19 3 -6 45.9 12.5
-19 -3 6 59.09 17.7
19 3 -5 23.8 9.3
-19 3 5 28.1 11.1
-19 -3 5 8.9 14.5
19 3 -4 266.47 24.1
-19 3 4 336.77 28.1
-19 -3 4 275.67 28.9
19 -3 -4 297.87 27.6
19 3 -3 33.4 9.2
19 3 -3 41.3 18.3
-19 3 3 34.2 10.5
19 -3 -3 20.7 9.6
-19 -3 3 25.5 12.2
19 3 -2 11 16.4
19 3 -2 -8.6 6.5
-19 3 2 -0.2 7.5
19 -3 -2 9.2 8.7
19 -3 -2 10.9 7.5
-19 -3 2 12.4 10.9
-19 3 1 21 8.8
19 3 -1 30 8.9
19 3 -1 -0.8 14.5
-19 -3 1 -0.4 9.4
19 -3 -1 25.2 7.8
19 3 0 -16.1 10.9
19 3 0 11.9 9.4
-19 3 0 -8.9 6.2
19 -3 0 -2.4 6.8
-19 -3 0 6.8 9.8
19 -3 0 5.2 7.8
19 3 1 75.59 12.4
19 3 1 71.19 16.6
-19 3 -1 96.39 14.3
19 -3 1 106.59 14.5
-19 -3 -1 78.79 14.6
19 -3 1 97.29 14.7
19 3 2 20.7 12.4
19 -3 2 38.4 11.1
-19 -3 -2 16.3 16
19 -3 2 24.8 9.5
19 3 3 9.1 11.6
19 -3 3 30.9 11.4
-19 -3 -3 7.5 10.7
19 -3 3 23.8 9.4
19 3 4 11.2 12.3
19 -3 4 18.9 10.9
-19 -3 -4 10.2 11.9
19 -3 4 27.7 9.4
19 -3 5 -2 9.4
19 -3 5 20.8 8.5
19 3 6 -4 11.6
19 -3 6 1.6 10.4
19 3 7 1.8 12
19 -3 7 4.5 11.7
19 -3 7 8.3 7.8
19 3 8 29.7 15.1
19 -3 8 25.1 13.5
19 -3 8 19.2 8.4
19 3 9 -23.6 10.7
19 -3 9 -9.1 12.7
19 -3 9 4.7 7.6
-19 4 9 1.1 11.5
19 4 -9 11.5 14.9
19 4 -8 0.7 9.6
-19 4 8 0.3 9
-19 4 7 -5.3 8.5
19 4 -7 9.2 8.9
-19 4 6 2.2 10.3
19 4 -6 11.9 8.9
-19 -4 6 -15.4 14
19 4 -5 18.9 9
-19 4 5 21 11.8
-19 4 4 39.3 11.7
19 4 -4 41.2 10.2
-19 -4 4 38 16.8
19 4 -3 124.99 15.9
19 4 -3 155.78 28.3
-19 4 3 132.89 18.8
-19 -4 3 161.48 22.8
19 -4 -3 146.69 20.8
19 4 -2 -2.6 18.5
-19 4 2 6.7 9.2
19 4 -2 3.4 7.4
-19 -4 2 7.7 13.3
19 -4 -2 -2 7.9
19 4 -1 24.9 18.9
-19 4 1 -9.7 7.2
-19 -4 1 19.3 13.2
19 -4 -1 -4.9 6.4
19 -4 -1 9.5 8.1
-19 4 0 -4.9 7.5
19 4 0 33.7 16.1
19 4 0 3.1 7.3
19 -4 0 -0.2 7.1
19 -4 0 6.6 7.7
-19 4 -1 23.7 9.3
19 4 1 18.7 14.8
-19 -4 -1 -6.7 9.5
19 -4 1 26.6 10.1
-19 4 -2 16.6 9.2
19 4 2 11.7 13.4
-19 -4 -2 24.3 12
19 -4 2 11.6 10.3
19 -4 2 17.8 9.7
19 4 3 23.2 14.2
19 -4 3 41 13.8
-19 -4 -3 26.2 13.9
19 -4 3 28.3 9.4
19 4 4 71.49 22.6
19 -4 4 32.3 9.6
19 -4 4 38.1 14.2
19 4 5 44.6 15.7
19 -4 5 50.09 10.8
19 -4 5 41.3 15.3
19 4 6 -4.7 10.9
19 -4 6 16.6 12.5
19 -4 6 0.3 7.3
19 4 7 13.5 14
19 4 8 15.4 14.1
19 -4 8 -11.4 7.1
19 -4 8 -8.2 11.1
19 4 9 15.1 15
19 -4 9 21.3 9.1
19 -4 9 -7.2 12.2
19 5 -9 -2.4 9.8
-19 5 9 -13.1 8.6
19 5 -8 -3.8 8.6
19 5 -7 11.9 8.9
-19 5 7 7.9 10
-19 5 6 -8.2 8
19 5 -6 6.3 8.3
19 5 -5 -0.1 7.8
-19 5 5 1 9
-19 -5 5 9.5 16.7
-19 5 4 24.3 11.8
19 5 -4 6 8.2
-19 -5 4 43.1 19.5
-19 5 3 0.1 9.3
-19 -5 3 -8.3 13.1
-19 5 2 56.09 13.6
19 5 -2 106.29 24.7
19 5 -2 43.4 11
19 -5 -2 73.59 16.9
-19 -5 2 44.6 17.8
-19 5 -1 57.29 12.3
-19 -5 -1 33.4 14.6
19 -5 1 55.19 12.9
19 -5 1 45.9 11.6
-19 5 -2 7.2 8.1
19 5 2 -7.8 13.2
19 -5 2 22.2 9.2
19 -5 2 18 11.9
19 5 3 -6.8 13.4
-19 5 -3 -1.4 8
19 -5 3 -12.5 10.7
19 5 4 9.6 13.2
19 -5 4 3.3 9.1
19 -5 4 10 13
19 5 5 -8.4 11.6
19 -5 5 21.3 9.2
19 5 6 19.5 15
19 -5 6 40.7 11.2
19 -5 6 34.3 17.8
19 5 7 7.5 13.5
19 -5 7 -4.3 6.9
19 -5 7 14 13.9
19 5 8 -3.1 13.7
19 -5 8 17.4 10.3
19 -5 8 26 15.3
-19 6 8 -15.7 8.2
19 6 -8 -19.9 8
19 6 -7 16.7 9.7
19 6 -6 9.2 9.3
-19 6 6 4.9 11
19 6 -5 56.79 13.5
-19 6 5 64.79 14.4
19 6 -4 9.2 10
-19 6 4 7.2 10.9
-19 6 3 2.9 8.6
19 6 -3 6.6 8.1
19 6 -2 6 7.7
19 6 -2 -15.1 18.2
19 6 -1 7.5 8.4
19 6 -1 -14.4 20.1
-19 6 1 0.7 8.1
19 -6 -1 1.5 7.7
-19 6 0 6.5 9.2
19 -6 0 7 9.8
19 -6 0 1.3 8.6
-19 6 -1 -11.5 7.3
19 6 1 64.59 19.4
19 -6 1 13.9 8.9
19 6 2 8.8 15.3
-19 6 -2 21.8 9.6
19 -6 2 39 11.4
19 -6 2 16.2 13.9
-19 6 -3 71.19 13.2
19 6 3 67.99 19.1
19 -6 3 78.29 18.3
19 -6 3 69.69 13.6
19 6 4 37.3 16.7
19 -6 4 42.4 17.2
19 -6 4 51.39 12.2
19 6 5 -2 13.5
19 -6 5 34.2 18.5
19 6 6 5.7 14.5
19 -6 6 8.5 8.3
19 -6 6 10.4 12.6
19 6 7 5.1 14.6
19 -6 7 20.5 15.6
19 -6 7 4.2 8.3
19 7 -7 -4.3 9
-19 7 7 4.6 9.7
19 7 -6 0.3 10.1
-19 7 6 2.4 9.1
19 7 -5 23 9
-19 7 5 -4 9.3
19 7 -4 6 8.4
-19 7 4 2.5 9.1
19 7 -3 8.4 7.8
-19 7 3 4.2 9.4
-19 7 2 3.1 9.9
19 7 -2 7.2 8.5
19 7 -2 -14.6 17.7
19 7 -1 -10.2 18.1
-19 7 1 7.2 10.3
19 -7 -1 -8.5 8.3
19 7 0 30.8 20.9
-19 7 0 0.8 11.4
19 -7 0 4.4 10.9
19 7 1 23.9 17.9
-19 7 -1 11.8 9.9
19 -7 1 1.6 10.7
-19 7 -2 26.5 10.5
19 7 2 -3.1 14.9
19 -7 2 11.6 14.6
19 -7 2 25.4 11.4
-19 7 -3 0.9 8.6
19 7 3 -2.5 13.8
19 -7 3 -12.4 8
19 7 4 -14.8 12.8
19 -7 4 8.6 9.2
19 7 5 7.5 15.2
19 -7 5 8.8 8.7
19 -7 5 17.2 16.6
19 7 6 10.7 15.8
19 -7 6 2.3 16.3
-19 8 6 11.2 11.9
19 8 -5 0.2 10.2
-19 8 4 -21.2 7.7
-19 8 3 -2.1 9.1
-19 8 2 -12.8 8.1
19 8 -1 -26.1 15.1
-19 8 1 -2.7 8.2
19 -8 -1 0.4 12.4
19 8 0 -10.1 17.4
-19 8 0 0.1 9.7
-19 8 -1 -2.3 9
19 8 1 -34.8 15.3
-19 8 -2 -5.7 8.9
19 8 2 -11.4 15.7
-19 8 -3 37.8 11.8
19 8 3 27.3 18.1
-19 8 -4 12.5 9.6
19 8 4 19.4 16.9
19 -8 4 -9.8 10.3
19 8 5 42.2 18.2
19 -8 5 20.4 12.2
-19 9 2 14 11.6
19 -9 -2 -2.9 5.6
-19 9 1 9.6 12.9
-19 9 0 10.4 12.7
19 9 0 41.2 22.9
19 -9 0 51.79 19.5
-19 9 -1 -1.7 9.5
19 9 1 -10.4 18.4
19 -9 1 -12.6 12.5
-19 9 -2 13.9 10
19 9 2 -29.3 16.4
19 9 3 0.1 17.8
-19 9 -3 9.6 12.8
19 -9 3 7.3 17
-20 0 10 23.6 10.5
-20 0 9 6.3 6.5
-20 0 9 -0.7 8.1
-20 0 8 7.4 9.4
-20 0 7 2 8.1
20 0 -7 -2.3 8.5
-20 0 7 -1.6 6.7
-20 0 6 208.18 16.6
-20 0 6 187.88 19.9
20 0 -6 155.68 21.8
-20 0 5 3.6 8.2
-20 0 5 -0.4 6.6
20 0 -5 7.1 9.4
-20 0 4 428.86 32
20 0 -4 398.06 33
-20 0 4 470.15 28.6
-20 0 3 -2.4 6.7
20 0 -3 -15.4 13.3
20 0 -3 -5.7 9.5
-20 0 3 -0.1 7.6
20 0 -2 95.39 17.4
-20 0 2 87.19 12.6
20 0 -2 81.09 17
-20 0 2 93.09 14.2
20 0 -1 -7.8 6.5
20 0 -1 -14.8 17.3
-20 0 1 -2.4 6.6
20 0 0 20.4 8.6
20 0 0 31.8 11
-20 0 0 17.8 9.3
-20 0 -1 9.7 8.9
20 0 1 2.5 8.9
20 0 1 -2 7.2
20 0 2 284.77 24.7
20 0 2 317.97 31
-20 0 -2 275.27 25.9
-20 0 -3 -1.2 8.9
20 0 3 7.2 10.2
20 0 3 7.6 7.4
20 0 4 -4 7.4
-20 0 -4 -11.1 9.1
20 0 4 6 9.9
20 0 5 -9.3 9.6
20 0 5 -14.3 7
-20 0 -5 5.3 14.2
20 0 6 70.59 16.5
20 0 6 47.2 13.6
20 0 7 -15.7 9.8
20 0 8 8.5 12.2
20 0 9 5.4 13
-20 1 10 7.6 10.1
-20 -1 10 4.4 8
-20 -1 10 -9.2 7.2
-20 1 9 -3.9 8.8
-20 -1 9 -5.3 10.2
-20 -1 9 4 9
20 1 -8 29.4 15.1
-20 1 8 34.9 11.5
-20 -1 8 27.5 11.7
-20 -1 8 60.69 12.2
-20 1 7 94.99 17.7
20 1 -7 76.69 15.7
-20 -1 7 121.19 17.2
-20 -1 7 131.39 16.9
20 1 -6 111.29 17.3
-20 1 6 77.99 14.9
-20 -1 6 116.19 16.1
20 -1 -6 85.09 18.7
-20 -1 6 93.89 15
20 1 -5 442.46 35.8
-20 1 5 525.05 36.6
-20 -1 5 525.45 34
20 -1 -5 471.05 37.6
-20 -1 5 526.25 35.7
-20 1 4 211.38 21.3
-20 1 4 194.28 15.1
20 1 -4 188.68 23.5
20 -1 -4 188.98 22
-20 -1 4 188.48 18.9
-20 -1 4 206.18 19.5
-20 1 3 83.79 14
20 1 -3 119.79 32.1
20 1 -3 82.29 18.3
-20 1 3 108.49 12.3
20 -1 -3 132.79 18
20 -1 -3 86.39 15.6
-20 -1 3 105.89 14.1
-20 1 2 17.9 7.5
20 1 -2 15.8 9.1
-20 1 2 8.7 8.1
20 1 -2 26 17
20 -1 -2 0 10.8
20 -1 -2 4.4 10.1
-20 -1 2 19.4 8.3
-20 1 1 17 8.3
20 1 -1 7.2 7.2
20 1 -1 -5.1 11.2
-20 1 1 13.8 8.3
-20 -1 1 9 8.4
20 -1 -1 4.8 9
-20 1 0 63.69 12.3
20 1 0 80.49 15.2
20 1 0 70.39 14.7
-20 -1 0 79.59 12.9
20 -1 0 88.29 13.5
20 -1 0 76.39 14.5
20 1 1 84.39 18.1
20 1 1 42.2 12.2
-20 1 -1 32.6 10.5
20 -1 1 46.8 11.3
-20 -1 -1 40.3 11.1
20 -1 1 45.6 11
20 1 2 97.89 16.1
-20 1 -2 86.89 15.1
20 1 2 106.29 15.7
20 -1 2 112.99 16
-20 -1 -2 136.59 17.7
20 1 3 82.29 15.6
-20 1 -3 95.49 18
20 1 3 67.09 12.6
20 -1 3 90.59 14.8
20 -1 3 87.59 15
20 1 4 45.4 13.9
20 1 4 55.09 11.5
-20 1 -4 49.2 15.9
-20 -1 -4 54.19 14.5
20 -1 4 60.59 11.6
20 -1 4 52.39 14.1
20 1 5 16.9 9.7
20 1 5 20 13.3
-20 1 -5 28 15.2
20 -1 5 21.9 12.1
20 -1 5 26.5 10.9
20 1 6 2.5 11.5
20 -1 6 -2.1 9.9
20 -1 6 4.1 8.7
20 1 7 -0.7 11.7
20 -1 7 17.5 12.1
20 -1 7 1.9 13.2
20 1 8 6 13
20 -1 8 -4.6 11.1
20 1 9 -12 11.5
20 -1 9 -2.4 11.8
-20 2 10 -1.3 11.5
-20 -2 10 7.3 9.3
-20 2 9 0.5 10.2
20 2 -9 19.4 13.2
-20 -2 9 7.2 8.3
20 2 -8 16.3 10.8
-20 2 8 15 9.9
-20 -2 8 12.1 9.1
20 2 -7 17.1 10.1
-20 2 7 20.9 10.6
-20 -2 7 28.9 10
-20 -2 7 11.7 14.1
20 2 -6 10.1 9
-20 2 6 44.1 12.8
-20 -2 6 35.2 10.5
-20 -2 6 27 12.7
-20 2 5 447.46 33.5
20 2 -5 344.57 32.5
-20 -2 5 460.75 31.9
20 -2 -5 439.16 38.1
-20 2 4 21.2 9.9
-20 -2 4 24.7 11.8
20 -2 -4 33.1 11.8
20 2 -3 95.39 17.3
20 2 -3 111.29 22.8
-20 2 3 72.29 13.6
-20 -2 3 79.49 13.5
20 -2 -3 68.49 14.3
20 2 -2 -16.8 16.4
-20 2 2 25.1 9.4
20 2 -2 4.3 7.9
-20 2 2 26.9 7.6
20 -2 -2 10.5 9.4
20 -2 -2 8 8.9
-20 -2 2 7.2 8.7
-20 2 1 2.7 7.4
20 2 -1 -16.8 13.6
20 2 -1 -2.5 12.6
-20 2 1 5.8 7.3
20 -2 -1 -4.7 7.2
-20 -2 1 8.9 9.4
20 -2 -1 8.8 7.7
-20 2 0 3.8 7.8
-20 2 0 11.8 8.4
20 2 0 -8 7.3
20 2 0 -10.4 10.4
20 -2 0 3 8.1
-20 -2 0 -4 8.1
20 2 1 -8.7 9.5
-20 2 -1 8.4 10.2
20 2 1 10.7 7.7
-20 -2 -1 0.6 8.7
20 -2 1 -3 7.6
20 2 2 39.2 9.7
-20 2 -2 42.8 13.6
20 2 2 20.9 12.1
20 -2 2 25.4 10.6
-20 -2 -2 28.6 12.2
-20 2 -3 75.99 17.7
20 2 3 86.59 14.4
20 2 3 81.49 16.8
20 -2 3 79.89 19.6
20 -2 3 49.4 13.1
-20 -2 -3 47.4 13.3
20 2 4 32.8 13.4
-20 2 -4 67.49 17.3
-20 -2 -4 30.9 13.8
20 -2 4 30.2 9.5
20 -2 4 43.4 13.8
-20 2 -5 15.2 16.2
20 -2 5 18.9 12.5
20 -2 5 11.3 8.3
20 2 6 14.7 13.2
20 -2 6 15.3 9.8
20 -2 6 10.3 12.6
20 2 7 3.3 12.6
20 -2 7 -13.3 10.6
20 -2 7 1.6 7.5
20 2 8 -6.7 12.3
20 -2 8 9.2 12.7
20 2 9 -13.8 11.8
20 -2 9 -7 12.1
-20 3 9 17.4 10.4
20 3 -9 43.8 13
20 3 -8 -6.2 9.5
-20 3 8 -0.8 9.4
-20 -3 8 0.5 14.9
-20 3 7 -8.5 7.2
20 3 -7 21.9 10.3
-20 -3 7 -11.6 13.3
20 3 -6 74.99 14.2
-20 3 6 80.79 16
-20 -3 6 83.09 18
20 3 -5 13.4 14.9
-20 3 5 -9 11.4
-20 -3 5 9.9 13.8
-20 3 4 366.06 30.2
-20 -3 4 331.07 31.4
20 3 -3 -9.4 17
-20 3 3 -3.3 7.9
-20 -3 3 13.2 12.6
20 -3 -3 21.2 10
20 3 -2 92.79 21.1
-20 3 2 92.29 14.9
20 3 -2 88.89 24.7
-20 -3 2 77.59 14.9
20 -3 -2 68.49 11.3
20 -3 -2 52.89 14
-20 3 1 35.1 10.5
20 3 -1 83.99 20.8
20 -3 -1 46.7 12.5
20 -3 -1 32.7 8.9
-20 -3 1 28.9 11.7
20 3 0 8.8 7.3
20 3 0 60.89 17.1
-20 3 0 2.1 8.1
-20 -3 0 18 11.1
20 -3 0 -3.6 6.8
20 -3 0 22.3 9.5
-20 3 -1 -0.6 8.1
20 3 1 -4.6 7
20 3 1 13.5 12.8
-20 -3 -1 3.1 16.5
20 -3 1 2.7 8.2
20 -3 1 9.2 8.4
20 3 2 -8.4 11.1
20 3 2 20.9 9.4
20 -3 2 6.9 9.3
20 -3 2 12.8 9.4
-20 -3 -2 9.5 10.8
20 3 3 25.2 13.2
20 -3 3 8.3 9
20 -3 3 7.7 9.9
-20 -3 -3 16.2 12.9
20 3 4 18.9 12.8
20 -3 4 23.9 9
20 -3 4 -7.4 9.4
20 3 5 5.7 12.6
20 -3 5 11.4 8.2
20 -3 5 12.1 12.1
20 3 6 3.3 12.8
20 -3 6 0 9.8
20 -3 6 -15.1 6.5
20 3 7 9.2 13
20 -3 7 3.6 10.4
20 -3 7 8.2 7.9
20 3 8 7.5 13.7
20 -3 8 -7.3 7.4
20 -3 8 -17 9
20 3 9 -3.3 14
20 -3 9 15 14.6
-20 4 9 15.4 15.9
20 4 -9 -6.8 11
-20 4 8 9.8 10.9
20 4 -8 -5.1 9.9
20 4 -7 16.6 10.5
-20 4 7 7.2 11.2
-20 -4 7 9.5 18.9
20 4 -6 2.6 9.4
-20 4 6 13.9 11.5
20 4 -5 4.3 12.8
-20 4 5 -9.2 8.2
-20 -4 5 9.5 16.6
20 4 -4 8.3 11.5
-20 -4 4 13.4 18.4
-20 4 3 6.9 8.8
20 4 -3 10.4 19.7
20 4 -3 11.7 8.1
20 4 -2 4.9 7.7
20 4 -2 84.09 24.8
-20 4 2 1.5 8.7
20 -4 -2 -6.3 7.4
20 4 -1 -1.4 7.2
-20 4 1 4.6 8.5
20 4 -1 10.7 17.6
-20 -4 1 3.9 13.6
20 -4 -1 2 7.4
20 -4 -1 0.5 7
-20 4 0 6.5 8.1
20 4 0 14.1 15.2
20 4 0 9.9 7.9
-20 -4 0 -2.4 10.9
20 -4 0 11.7 8.2
20 -4 0 6.9 8.4
20 4 1 5.2 8.5
-20 4 -1 30.5 10.3
20 4 1 21.4 14.7
20 -4 1 56.19 12.5
-20 -4 -1 35.4 13.1
20 -4 1 16.9 9.9
-20 4 -2 38.3 10.6
20 4 2 61.29 16.1
-20 -4 -2 43.6 14.1
20 -4 2 29.7 11
20 -4 2 43.9 12.7
20 4 3 45.4 15.9
20 -4 3 51.39 13.8
20 -4 3 67.89 12.5
20 4 4 47.2 15.3
20 -4 4 32.4 14.3
20 -4 4 17.7 9.5
20 4 5 30.3 15
20 -4 5 25.8 13.3
20 -4 5 35.6 9.7
20 4 6 0.5 12.5
20 -4 6 9.1 7.9
20 -4 6 -0.2 10.5
20 4 7 26.4 15.5
20 -4 7 11.8 13.8
20 -4 7 23.3 9
20 4 8 25.2 15.6
20 -4 8 -8 6.9
20 -4 8 7 11.7
-20 5 8 5.9 14.4
20 5 -7 28.2 18.8
-20 5 7 6.4 9.9
-20 5 6 -0.6 9.6
20 5 -6 23.2 12.2
20 5 -5 17.6 9.3
-20 5 5 13.9 9.9
-20 5 4 47 12.2
20 5 -4 45 10.9
-20 -5 4 51.59 20.9
20 5 -3 75.59 12.7
-20 5 3 72.39 14.9
-20 -5 3 66.39 20.8
20 5 -2 67.69 11.7
20 5 -2 83.99 25.9
-20 5 2 60.09 14.4
-20 -5 2 43.2 19.5
20 5 -1 8.1 8.1
20 5 -1 17.1 20.9
-20 5 1 23.6 10.4
20 -5 -1 17.8 8.6
20 -5 -1 8.9 14.5
-20 -5 1 16.2 14.2
20 5 0 26.9 17.3
20 5 0 -8.3 7.3
-20 5 0 -2.6 8.2
20 -5 0 15 8.4
-20 -5 0 -5.8 10.5
-20 5 -1 -5.8 7.3
20 5 1 16.4 15.4
20 -5 1 -6.8 7.8
20 -5 1 19.9 11.8
-20 5 -2 108.89 15.3
20 -5 2 116.19 19.5
20 -5 2 102.29 16
20 5 3 10.1 12.9
20 -5 3 6.7 8.7
20 -5 3 15.3 12.6
20 5 4 6 13.4
20 -5 4 2.9 8.4
20 5 5 36.9 15.7
20 -5 5 24.7 16.7
20 -5 5 20.6 9.2
20 5 6 31.9 16
20 -5 6 5.1 8.3
20 -5 6 21.9 16.5
20 5 7 1.6 13.6
20 -5 7 -5.5 7.2
20 -5 7 -3.8 10.9
20 5 8 -1.9 13.5
20 -5 8 -4.1 13.2
20 -5 8 15.2 8.9
20 6 -8 -5.5 11.1
-20 6 8 3.7 10.6
20 6 -7 12.1 18.1
20 6 -6 32.7 10.4
-20 6 6 37.5 13.2
-20 6 5 30.5 12.9
20 6 -5 -2.1 8.6
20 6 -4 15.7 9
-20 6 4 31.5 14.2
20 6 -3 10.1 8.5
-20 6 3 -8.2 8.6
-20 6 2 -1 9.1
20 6 -2 8 24
20 6 -2 10.7 7.5
20 6 -1 -12.5 21.4
20 -6 -1 13.7 10.2
-20 6 0 23 11.8
20 6 0 12.1 21.6
-20 6 -1 -3.7 8
20 6 1 -22.7 15.2
20 -6 1 8.9 10.7
20 -6 1 -3 9.4
-20 6 -2 -5.5 7.6
20 6 2 6.2 14.8
20 -6 2 15.6 14.4
20 -6 2 -1.3 8.4
20 6 3 1.6 13.3
-20 6 -3 5.3 8.2
20 -6 3 2.2 8.2
20 -6 3 0.8 12.4
20 6 4 -0.6 13.5
20 -6 4 -6.9 11.8
20 -6 4 12.6 8.8
20 6 5 7.7 14.2
20 -6 5 16.1 8.8
20 -6 5 17.1 15.9
20 6 6 -15.2 13.7
20 -6 6 -6 17.5
20 -6 6 11 8.8
20 6 7 9 15
20 -6 7 -0.6 12.9
20 -6 7 -5 8.8
-20 7 6 -4.3 9.5
20 7 -6 -10.9 9.2
20 7 -5 21.3 9.2
-20 7 5 -4.4 8.5
20 7 -4 11.3 9.1
-20 7 4 -3.3 8.5
20 7 -3 -13.7 8.6
-20 7 3 35.6 12.6
20 7 -2 20.1 20.6
-20 7 2 28.9 12.8
-20 7 1 25.6 12.5
20 7 -1 61.09 23.5
20 -7 -1 46.3 13
20 7 0 -12.3 18
-20 7 0 2 9.6
20 -7 0 9.4 10.9
20 7 1 -5.9 16.1
-20 7 -2 13.1 9.5
20 7 2 6.8 15.8
20 7 3 16.3 15.8
-20 7 -3 8.8 10
20 -7 3 22.6 11.3
20 7 4 0.5 14.5
20 -7 4 17 10.1
20 7 5 12.7 14.1
20 -7 5 -4.3 12.4
20 -7 5 -8.7 8.7
20 7 6 10.3 15.7
20 -7 6 2.7 15.5
20 -7 6 -4.6 9.5
20 8 -5 30.9 11.6
-20 8 4 5.8 9.1
-20 8 3 15 12.2
-20 8 2 11.9 11
20 8 -1 18.5 19.3
-20 8 1 10.3 10.9
20 -8 -1 -4.1 10.4
-20 8 0 8.6 11.7
20 8 0 18.3 19.5
20 8 1 38.6 22.4
-20 8 -1 47.8 14.3
20 -8 1 54.09 17.1
20 8 2 27.3 19
-20 8 -2 -8.6 8.7
20 8 3 12.9 15.9
-20 8 -3 -2.1 10.3
20 8 4 12.8 16.3
20 -8 4 -13.9 12.2
-20 9 2 3.3 10.4
20 9 -1 -8.1 17.2
-20 9 1 -3.3 9.8
20 -9 -1 -4.2 9.6
20 9 0 67.79 24.6
-20 9 0 6.5 13.4
20 -9 0 21.3 15.7
-20 9 -1 8.5 12.3
20 9 1 5.3 17.2
20 -9 1 -17.4 11.3
20 9 2 6.3 18.8
-20 9 -2 7.4 10.8
-21 0 10 0.2 8.7
-21 0 9 0.1 8.4
-21 0 8 3.9 9
-21 0 7 0.5 7.3
-21 0 7 2.6 8.6
21 0 -6 3.1 12.1
-21 0 6 10.1 9.3
-21 0 6 5.8 7
-21 0 5 -9.2 7.4
-21 0 5 6 6.9
21 0 -5 -2.2 8.4
-21 0 4 408.46 27.3
-21 0 4 392.36 31.6
21 0 -4 449.36 34
-21 0 3 2.7 11.2
21 0 -3 -5.7 8
21 0 -3 2.6 14.9
-21 0 3 -0.9 8.6
-21 0 2 158.68 18.5
-21 0 2 151.38 16
21 0 -2 152.38 18.6
21 0 -1 -4.8 11
-21 0 1 -0.6 8
21 0 -1 -6.9 6.8
21 0 0 76.99 14.2
-21 0 0 72.79 13.2
21 0 0 63.99 12
-21 0 -1 -8 8
21 0 1 15.4 10.4
21 0 1 2.8 7.2
21 0 2 2.5 8.2
21 0 2 -18.4 8.1
-21 0 -2 16.1 11.4
21 0 3 2.1 10.4
21 0 3 15.1 7.9
21 0 4 172.38 22.8
-21 0 -4 232.08 25
21 0 4 174.68 19.8
21 0 5 11.7 10.9
21 0 5 -3 10.7
21 0 6 51.19 15.3
21 0 7 -12.7 10
21 0 8 -2.9 12.1
21 0 9 2.2 13.2
-21 1 10 15.7 11.1
-21 -1 10 43.2 11.3
-21 -1 10 14.5 8.9
-21 1 9 6.1 9.5
-21 -1 9 2 8.4
-21 1 8 6.9 8.6
-21 -1 8 0.4 10.4
-21 -1 8 14.5 9.2
21 1 -7 32.9 19.2
-21 1 7 68.69 13.9
-21 -1 7 27.5 10.8
-21 -1 7 39.7 12.3
-21 1 6 226.48 23.5
-21 -1 6 202.28 20.9
-21 -1 6 192.78 19.9
-21 1 5 30.8 11
21 1 -5 34.4 11.7
-21 -1 5 43 11.1
21 -1 -5 22.1 12.9
-21 -1 5 32.8 10.8
-21 1 4 386.56 24.2
-21 1 4 397.56 30.1
21 1 -4 349.77 29.1
-21 -1 4 375.66 29.5
21 -1 -4 320.87 30
-21 -1 4 363.06 26.6
-21 1 3 46.6 11.8
21 1 -3 46 11.8
-21 1 3 44.6 9
21 1 -3 27.7 18
21 -1 -3 43.1 12.2
-21 -1 3 43.9 10.6
21 -1 -3 19.5 14.5
-21 1 2 110.69 15.7
21 1 -2 96.49 15.1
-21 1 2 119.59 14.2
21 -1 -2 104.09 16.1
-21 -1 2 109.89 14.8
-21 1 1 9 8.7
-21 1 1 10.5 8.7
21 1 -1 27.7 14.2
21 1 -1 28 9.6
21 -1 -1 7.4 8
-21 -1 1 8.7 8.7
21 -1 -1 19.6 10.4
-21 1 0 38 11
21 1 0 41.8 10.9
21 1 0 38 13.2
21 -1 0 71.09 12.7
21 -1 0 49.99 11.6
-21 -1 0 58.99 12.3
21 1 1 32.2 9.9
-21 1 -1 7.4 9.2
21 1 1 12.1 11.2
-21 -1 -1 22.4 10.8
21 -1 1 24.1 8.9
21 -1 1 35.7 10.9
-21 1 -2 9.2 10
21 1 2 7.3 10.8
21 1 2 -5.8 7.3
21 -1 2 11.4 8.3
21 -1 2 -2.7 9
-21 -1 -2 -8.5 9.6
-21 1 -3 89.89 17.2
21 1 3 72.99 15.5
21 1 3 69.39 13.3
21 -1 3 73.19 13
-21 -1 -3 93.59 17.4
21 -1 3 64.69 14.2
-21 1 -4 19.9 13.2
21 1 4 1.5 7.2
21 1 4 14.6 12.1
-21 -1 -4 19.2 11.9
21 -1 4 4.3 9.6
21 -1 4 14.2 9.1
21 -1 5 34.4 11.1
21 -1 5 40.2 14.2
21 1 6 3.1 11.7
21 -1 6 -3.7 9.1
21 1 7 -10.1 11.4
21 -1 7 6.8 12.7
21 1 8 8.3 13.1
21 -1 8 -2.5 11.1
21 1 9 8.5 13.5
21 -1 9 -4.4 13.3
-21 2 9 11.4 11.1
-21 -2 9 5.9 9.6
-21 -2 9 -10.2 14.7
-21 2 8 10.2 9.9
-21 -2 8 8.5 8.4
-21 -2 8 35.9 15.7
-21 2 7 11.8 10.1
21 2 -7 -19.2 8.4
-21 -2 7 -5.3 12.2
-21 -2 7 0.1 8.3
-21 2 6 0.7 8.5
21 2 -6 1.3 8.7
-21 -2 6 -17.2 9.9
-21 2 5 96.19 16.4
21 2 -5 61.09 13.4
-21 -2 5 79.29 15.4
21 2 -4 14.4 9.9
-21 2 4 34.6 11.6
-21 -2 4 16 11.5
21 -2 -4 16 13.9
-21 2 3 409.66 31.2
21 2 -3 360.96 30.1
21 2 -3 339.27 36.3
-21 2 3 394.36 25.4
-21 -2 3 434.76 30.2
21 -2 -3 398.56 32.8
21 2 -2 11.4 19.1
-21 2 2 8.2 7.3
-21 2 2 4.9 8.1
21 2 -2 6.8 8.4
-21 -2 2 9.1 10
21 -2 -2 5.7 9.1
21 -2 -2 -21.4 9.3
-21 2 1 5.4 8.4
21 2 -1 16.7 15.8
21 2 -1 -6.3 6.9
-21 -2 1 -1 9.5
21 -2 -1 4.1 8.4
21 -2 -1 -10.6 7.6
21 2 0 63.79 17
-21 2 0 117.79 16.5
-21 2 0 94.09 15.3
21 2 0 85.09 13.8
21 -2 0 98.19 14.8
-21 -2 0 79.59 14.3
21 -2 0 81.39 13.6
21 2 1 12.8 12.1
21 2 1 -5.7 7.1
-21 2 -1 -11.8 8.6
21 -2 1 -10.2 8.3
-21 -2 -1 -10.2 8.6
21 -2 1 -5.4 6.8
21 2 2 3.4 7.5
-21 2 -2 19.9 12.5
21 2 2 8.6 11.9
-21 -2 -2 21.8 11.9
21 -2 2 4.3 10
21 -2 2 20.1 9.8
21 2 3 63.69 14.1
-21 2 -3 84.19 18.7
21 2 3 68.19 16
21 -2 3 76.49 13.3
-21 -2 -3 94.79 17.4
21 -2 3 58.39 13.3
-21 2 -4 -14.5 12.3
21 2 4 2.9 11.6
21 -2 4 7.7 10.6
21 -2 4 5.2 8.2
21 2 5 133.69 22.1
21 -2 5 167.58 22.3
21 -2 5 169.28 18.6
21 2 6 10.4 12.5
21 -2 6 25.2 12.9
21 -2 6 6.7 8.1
21 2 7 18.6 14.2
21 -2 7 0.3 11.7
21 2 8 12.6 13.9
21 -2 8 -3.1 11.5
21 2 9 3.8 13.3
21 -2 9 0.7 12.9
-21 3 9 4 10.3
-21 3 8 6.6 11.5
21 3 -8 -23 8.6
-21 -3 8 18.5 17.7
-21 3 7 19.8 10.1
21 3 -7 -18.2 8.3
-21 3 6 7.4 9.6
21 3 -6 29.6 11.5
-21 -3 6 -1.6 13.9
-21 3 5 7.1 9
21 3 -5 2.5 8.6
-21 -3 5 -4.7 12
21 3 -4 83.49 13.6
-21 3 4 54.89 16.8
-21 -3 4 83.39 17.7
21 3 -3 13.9 9.8
21 3 -3 55.99 21.9
-21 3 3 44 11.6
-21 -3 3 34.7 13.1
-21 3 2 118.49 17
21 3 -2 90.69 13.6
21 3 -2 115.29 27.9
21 -3 -2 97.29 17
-21 -3 2 105.79 16.9
21 -3 -2 120.19 14.9
-21 3 1 47.9 11.7
21 3 -1 61.99 11.7
21 3 -1 63.29 21.1
-21 -3 1 59.99 14.5
21 -3 -1 57.09 11.3
21 -3 -1 81.99 14.5
-21 3 0 4.8 8.2
21 3 0 16.2 14.5
21 3 0 9.1 8.1
21 -3 0 -1.4 8.2
-21 -3 0 -7.1 10.5
21 3 1 4.4 13.4
21 3 1 14.8 8.7
-21 3 -1 -1.6 8.3
21 -3 1 10.8 8.7
-21 -3 -1 14.4 11.9
21 -3 1 6.6 8.7
21 3 2 96.29 18.4
21 3 2 128.69 19.8
-21 -3 -2 139.79 20.1
21 -3 2 171.68 20.1
21 -3 2 116.49 17
21 3 3 70.89 17.1
21 -3 3 93.69 14.7
21 -3 3 148.99 19.7
-21 -3 -3 27.5 21.4
21 -3 4 16.8 11.7
21 -3 4 10.3 8.3
21 3 5 29.5 14.3
21 -3 5 37.6 10.9
21 -3 5 34.5 13.9
21 3 6 31.3 15.4
21 -3 6 -2.7 7.6
21 -3 6 11.7 13.3
21 3 7 12.8 13.8
21 -3 7 -7 7
21 -3 7 -12.2 11.3
21 3 8 -7.9 11.6
21 -3 8 -4.7 11.3
-21 4 9 2.6 12.9
21 4 -9 12.9 12.7
21 4 -8 15.2 10.7
-21 4 8 6.6 14.2
21 4 -7 39.3 11.9
-21 4 7 36.4 15.9
-21 -4 7 40 19.6
-21 4 6 -3.6 8.6
21 4 -6 -6.2 8.2
-21 -4 6 16.3 17.6
21 4 -5 1.7 8.3
-21 4 5 -10.9 8.2
-21 -4 5 -1.5 14.6
-21 4 4 316.27 27.2
21 4 -4 247.48 23.4
-21 -4 4 274.77 30.3
21 4 -3 174.38 18.9
21 4 -3 210.78 32.3
-21 -4 3 166.38 26.1
21 4 -2 124.49 29.2
21 4 -2 97.99 14.7
-21 4 2 97.99 16.9
-21 -4 2 124.59 20.5
-21 4 1 3.5 7.2
21 4 -1 -2.5 7.1
21 -4 -1 4.7 8.4
21 -4 -1 -7.8 7.3
-21 -4 1 -15.2 10.5
-21 4 0 -8.3 7.4
21 4 0 3.8 8.4
-21 -4 0 9.9 12.2
21 -4 0 19.8 10.6
21 4 1 5.3 13.4
-21 4 -1 -9.3 7.1
-21 -4 -1 14.3 12.4
21 -4 1 16.8 9.7
21 -4 1 9.6 9.1
-21 4 -2 37.2 10.6
21 4 2 41.4 16
21 -4 2 43.3 12.3
21 -4 2 42.8 13.1
21 4 3 -10.6 19.5
21 -4 3 35.7 14.8
21 -4 3 19.3 9.9
21 4 4 -2 13.4
21 -4 4 -1.5 10.5
21 -4 4 14.4 9.6
21 4 5 13.3 13.2
21 -4 5 34.4 10.5
21 4 6 2.5 13.2
21 -4 6 3.7 8
21 -4 6 -2.8 11.1
21 4 7 19.9 13.6
21 -4 7 -9.5 7.7
21 -4 7 -2.4 11.7
21 4 8 -1.5 13.1
21 -4 8 12.7 9.1
21 -4 8 -8.1 11.3
21 5 -8 9 11.1
21 5 -7 6.2 10.6
-21 5 7 6.9 10.6
-21 5 6 -0.1 8.7
21 5 -6 8.7 9
21 5 -5 7.5 8.2
-21 5 5 28.3 11.3
-21 5 4 24.2 11.6
21 5 -4 9.8 9.1
21 5 -3 48.9 11.6
-21 5 3 39.7 13
21 5 -3 6.6 20.4
-21 -5 3 19 23.2
21 5 -2 17.4 9.5
21 5 -2 37.5 22.4
-21 5 2 38.8 13.1
-21 -5 2 10.6 19.1
-21 5 1 -12.5 8.6
21 5 -1 14.7 10.5
21 5 -1 31.6 22
21 -5 -1 -5.2 7
21 5 0 41.7 19.9
-21 5 0 -0.3 8.2
21 -5 0 2 9.7
-21 5 -1 15.6 10.2
21 -5 1 62.09 13.6
21 -5 1 26.3 13.8
21 5 2 1.9 14.6
-21 5 -2 10.6 9.2
21 -5 2 4.1 11.5
21 -5 2 17.2 9.8
21 5 3 63.89 17.8
21 -5 3 14.7 10.3
21 -5 3 39.3 16.8
21 5 4 20.2 14.4
21 -5 4 6.2 11.7
21 -5 4 -8 7.3
21 5 5 26.1 14.2
21 -5 5 22.7 17.5
21 -5 5 2.6 8.9
21 5 6 12.6 15.4
21 -5 6 -16.8 12.1
21 -5 6 4.9 9.3
21 5 7 -12.8 12.6
21 -5 7 9.8 9.2
21 -5 7 11.2 17.1
21 6 -7 -18.7 11
-21 6 6 -12.3 8.7
21 6 -6 -10.5 8.7
21 6 -5 20 10.1
-21 6 5 7.5 10.7
21 6 -4 21.7 9.9
-21 6 4 -2.8 8.9
-21 6 3 -1.9 9.3
21 6 -3 6.6 9.4
-21 6 2 6.3 9.4
21 6 -2 26 20.4
-21 6 1 43.1 12.9
21 6 -1 104.49 29
21 -6 -1 39.3 11.5
21 6 0 33 22.4
-21 6 0 19.1 13.8
21 -6 0 33.3 12.4
-21 6 -1 35.1 13
21 6 1 97.69 22.4
21 -6 1 58.69 16
21 6 2 4.1 15.4
-21 6 -2 1.7 8.2
21 -6 2 -2.9 11.7
-21 6 -3 -8.7 7.6
21 6 3 -2.6 13.5
21 -6 3 -15.7 9.3
21 6 4 26.3 15.7
21 -6 4 35.8 10.9
21 6 5 19.3 16
21 -6 5 10.9 10
21 -6 5 16.6 18.1
21 6 6 16.2 16.6
21 -6 6 -6 8.8
-21 7 6 8.7 10.9
21 7 -6 34.3 10.9
21 7 -5 -5.8 9
-21 7 5 -3.8 9.1
-21 7 4 -15.4 9.3
-21 7 3 9.3 11.5
21 7 -2 -23.6 16.8
-21 7 2 -13.5 9.1
-21 7 1 40.6 13.5
21 7 -1 47.2 22.8
21 7 0 -3 17.9
-21 7 0 6.7 9.6
21 -7 0 2.9 10
21 7 1 6 16.3
-21 7 -1 -7.2 8.8
21 -7 1 2.1 12
-21 7 -2 19.2 12.9
21 7 2 10 16.1
21 7 3 -5.8 14.7
-21 7 -3 13.6 10.6
21 -7 3 -9 11.4
21 7 4 17 16.4
21 -7 4 -3.5 12.5
21 7 5 -16.2 11.7
21 -7 5 0.9 8.9
21 -7 5 33.8 20
-21 8 4 3.9 11.2
-21 8 3 0.9 10.4
-21 8 2 10.9 11.6
21 8 -1 -13.5 18
-21 8 1 -1.2 9.7
21 -8 -1 -5.2 8.8
21 8 0 -1.2 20.7
-21 8 0 1.7 12.3
-21 8 -1 -2.1 8.6
21 8 1 16.4 21.7
21 8 2 4.8 18.1
-21 8 -2 2.1 11.1
-21 8 -3 2.3 9.3
21 8 4 17 17.8
-21 9 1 13.2 11.2
21 9 -1 21.4 20.5
21 -9 -1 1.3 10
21 9 0 36.4 18.6
-21 9 0 -12.9 11.4
21 -9 0 -25.8 13.4
-22 0 9 0 8.1
-22 0 8 53.59 13.6
-22 0 7 6.4 6.9
-22 0 7 1.2 8.1
-22 0 6 60.89 10
-22 0 6 49.5 13.6
-22 0 5 -2.7 6.7
-22 0 5 11.2 8.9
22 0 -4 39.1 13.1
-22 0 4 27.1 11.3
-22 0 4 4.6 9
-22 0 3 4.1 8.6
-22 0 3 8.6 7.8
22 0 -3 10.8 9.4
22 0 -2 15.5 9.8
-22 0 2 23.1 10.3
22 0 -2 2.7 19.8
-22 0 2 5.6 8.2
22 0 -1 -9.5 7
22 0 -1 0.6 11.8
-22 0 1 5.9 8.7
22 0 0 36.4 12.4
-22 0 0 9.8 10.4
22 0 0 28.1 9.6
22 0 1 -12.1 8.8
22 0 1 9 8
-22 0 -1 -0.1 9.1
22 0 2 96.39 15.8
22 0 2 89.99 16.1
-22 0 -2 72.99 16
22 0 3 6.7 7.9
22 0 3 8.5 10.9
-22 0 -3 -1 9.6
22 0 4 54.89 14.8
-22 0 -4 38.2 14.6
22 0 5 -0.9 11.1
22 0 6 28.7 14.3
22 0 7 -7.8 11.6
22 0 8 -4.9 12.9
-22 1 9 13.3 11.2
-22 -1 9 4.4 8.8
-22 -1 9 -1.5 10.1
-22 1 8 25.1 10.9
-22 -1 8 16.4 13.2
-22 -1 8 17.8 10.3
-22 1 7 30 11.9
-22 -1 7 33.8 16.7
-22 -1 7 12.3 10.8
-22 1 6 39 12.2
-22 -1 6 38.4 11.7
-22 -1 6 30.3 10.4
-22 1 5 5.7 10.2
22 1 -5 5.5 10.5
-22 -1 5 25.6 9.4
-22 -1 5 8 9
-22 1 4 22 10.7
-22 1 4 36.9 7.8
22 1 -4 30.9 11.4
-22 -1 4 32.8 10.3
-22 -1 4 22.2 10.5
22 1 -3 121.59 17.1
-22 1 3 109.89 16.7
-22 1 3 132.19 14.5
-22 -1 3 161.18 16.6
22 -1 -3 124.79 19.8
22 1 -2 5.3 8.9
22 1 -2 -13.6 17.7
-22 1 2 12.4 9.9
22 -1 -2 26.3 14.4
22 -1 -2 3.3 8.8
-22 -1 2 13.6 9.6
-22 1 1 22.6 10.1
-22 1 1 0.2 8.5
22 1 -1 3.1 8.7
22 1 -1 25.4 14.3
22 -1 -1 16.5 9.2
-22 -1 1 16.9 10
-22 1 0 81.49 14.1
22 1 0 92.49 16.9
22 1 0 87.29 14.3
22 -1 0 76.49 13.5
22 -1 0 92.09 15.2
-22 -1 0 80.99 14.5
-22 1 -1 25.9 10.8
22 1 1 38 10.5
22 1 1 39.1 13.1
22 -1 1 16.3 10.5
22 -1 1 24.8 10.4
-22 -1 -1 36.3 11.9
22 1 2 5.5 9.4
-22 1 -2 16.2 11.4
22 1 2 18.2 11.9
22 -1 2 25.1 11.2
22 -1 2 27.6 10.2
22 1 3 136.09 20.9
-22 1 -3 142.89 22.9
22 -1 3 186.68 18.8
-22 -1 -3 203.88 23.4
22 -1 3 137.19 20.1
-22 1 -4 34 14.6
22 1 4 0.3 11.3
22 -1 4 9.7 9.6
22 -1 4 5 10.9
22 1 5 30.3 14.7
22 1 6 -1.2 12
22 -1 6 19.4 13.1
22 1 7 -16.6 10.9
22 -1 7 12.4 13.2
22 1 8 -8.6 11.9
22 -1 8 16.8 15.4
-22 2 9 13 10.8
-22 -2 9 -8.9 12.5
-22 -2 9 6.6 8.2
-22 2 8 1.7 10.1
-22 -2 8 12.1 14.4
-22 2 7 28.6 11.5
-22 -2 7 14.2 9.4
-22 -2 7 1 13.8
-22 2 6 20.1 11
22 2 -6 8.8 9.8
-22 -2 6 11.5 11.7
22 2 -5 -4.4 9.1
-22 2 5 15.9 10.4
-22 -2 5 31.6 12.9
22 2 -4 6.9 8.9
-22 2 4 1.6 9.6
-22 -2 4 6.4 10.7
22 2 -3 5.5 19.7
-22 2 3 -0.6 6.3
22 2 -3 6.7 8.3
-22 2 3 17.8 9.9
-22 -2 3 21.7 10.7
22 2 -2 68.39 12.7
-22 2 2 66.09 13.3
-22 2 2 82.89 11.9
22 -2 -2 74.09 15.2
-22 -2 2 69.19 13.6
-22 2 1 3.2 8.7
22 2 -1 14.2 17.4
-22 2 1 -6.6 7.4
22 2 -1 -11.3 7.6
22 -2 -1 3 9.4
22 -2 -1 -2.6 7.4
-22 -2 1 -9.7 8.9
-22 2 0 50.49 12.6
22 2 0 74.79 13
-22 2 0 74.19 14.3
22 2 0 20.4 15.2
22 -2 0 71.49 13.7
22 -2 0 59.09 12.4
-22 -2 0 57.79 13.7
22 2 1 -6.2 7.8
22 2 1 5 12.5
-22 2 -1 1.6 10.3
22 -2 1 6.1 9
22 -2 1 3.7 8.3
22 2 2 11 12.4
-22 2 -2 19.1 12.9
22 -2 2 2 9.9
-22 -2 -2 -1 10.6
22 -2 2 19.8 9.6
-22 2 -3 65.79 25.4
22 2 3 34.1 14.6
22 -2 3 47.1 12.6
-22 -2 -3 68.79 16.6
22 -2 3 50.19 11.7
-22 2 -4 14.5 14.2
22 2 4 -8.7 18.4
22 -2 4 18.4 11.8
22 -2 4 -8.7 8
22 2 5 16.9 13.4
22 -2 5 -1.8 11.6
22 2 6 -13.9 10.2
22 -2 6 10.4 11.5
22 2 7 -13.1 11.8
22 -2 7 -2.7 13.1
22 2 8 4.9 13.3
22 -2 8 -6.1 11.5
-22 3 9 28.8 13.4
-22 -3 9 40.8 18
-22 3 8 8.2 11.3
-22 3 7 2.2 9.1
22 3 -7 -3.8 11.3
-22 3 6 -0.9 10.3
22 3 -6 -10.3 9
-22 -3 6 -3.8 12.1
22 3 -5 89.69 14.9
-22 3 5 76.99 15.3
-22 -3 5 107.09 19.9
-22 3 4 24.6 12
22 3 -4 48.3 11.2
-22 -3 4 32.6 13.9
22 3 -3 -11.8 17.7
22 3 -3 -12.2 7.1
-22 -3 3 -7.2 11.8
22 3 -2 7.2 7.6
22 3 -2 61.29 21.8
-22 3 2 19.3 9.8
22 -3 -2 -0.3 9.7
-22 -3 2 13.4 11.5
22 3 -1 174.38 19.2
-22 3 1 201.28 20.4
22 -3 -1 166.08 17.7
22 -3 -1 156.18 24.9
-22 3 0 6.6 8.8
22 3 0 5 8.2
22 -3 0 -11.8 7.3
-22 -3 0 2.3 10.1
22 -3 0 -1.3 8.3
-22 3 -1 0.7 8.5
22 3 1 -7.7 13.3
22 -3 1 6.7 8.2
22 -3 1 19.2 10.4
-22 -3 -1 -8.7 10.4
22 3 2 -10.2 11.7
22 -3 2 23.8 9.9
-22 -3 -2 17.8 11.8
22 -3 2 14.1 11
22 3 3 2.9 13.1
22 -3 3 13.6 9
22 -3 3 -6.8 10.1
22 3 4 100.09 20.5
22 -3 4 120.49 17.3
22 -3 4 174.88 24.1
22 3 5 -6.2 11.5
22 -3 5 15.3 14.5
22 -3 5 3 8.9
22 3 6 -9.7 11.6
22 -3 6 -0.6 12.1
22 3 7 3 13.8
22 -3 7 5.7 13.4
22 3 8 1.4 13.1
22 -3 8 12.5 16.5
-22 4 8 23.3 16.6
22 4 -8 3.6 12.6
22 4 -7 -21.4 8.6
-22 4 7 -4.2 8.8
-22 -4 7 6.2 18.1
22 4 -6 -12 8.4
-22 4 6 17 12.7
-22 -4 6 13.3 16.8
22 4 -5 6.8 9.1
-22 4 5 20.1 11.6
-22 -4 5 -11.8 12.8
22 4 -4 -7.2 7.4
-22 4 4 0.2 8.1
-22 -4 4 -1.2 13.7
-22 4 3 -3.7 9
22 4 -3 -13.3 19.2
22 4 -3 1.1 8.5
-22 -4 3 -5.8 12.2
22 4 -2 30.9 10.6
-22 4 2 21.6 16.4
22 4 -2 38.1 25.7
-22 -4 2 23.1 15.1
-22 4 1 -6.9 8.9
22 4 -1 -35.7 18
-22 -4 1 4.8 12.6
22 -4 -1 6.4 8
-22 4 0 -3.3 8.7
22 4 0 -0.4 16.8
-22 -4 0 3.7 12
22 -4 0 -2.9 8.1
22 4 1 48.9 19.1
-22 4 -1 49.7 12.6
22 -4 1 58.69 20.5
22 -4 1 53.49 13.7
22 4 2 45.5 21.6
22 -4 2 -9.2 8.9
22 -4 2 6.9 10.9
22 4 3 20.8 15.2
22 -4 3 46.1 11.9
22 -4 3 55.59 15.1
22 4 4 -2.1 12.7
22 -4 4 11.5 8.6
22 -4 4 11.2 13.1
22 4 5 1.3 13.5
22 -4 5 -4.8 10.5
22 -4 5 6.5 9
22 4 6 0.7 13.1
22 -4 6 -2 12.5
22 4 7 6.6 14.2
22 -4 7 -5.7 12.4
22 5 -8 -11.1 11.4
-22 5 7 6.9 11.7
22 5 -7 -13.2 11.2
22 5 -6 -5.7 9.2
-22 5 6 14 10.7
22 5 -5 -3.3 9.1
-22 5 5 10.1 10.9
22 5 -4 21.9 10.9
-22 5 4 15.7 12.6
22 5 -3 20.8 20.7
-22 5 3 -0.5 10
-22 5 2 15.9 11
22 5 -2 -7.4 22.9
-22 5 1 -10.4 7.9
22 5 -1 -41.2 21.3
22 -5 -1 3.7 7.9
22 -5 0 5.7 9.1
22 5 1 -18 16.4
-22 5 -1 -9.1 7.7
22 -5 1 12 12.2
22 5 2 48.6 19.3
-22 5 -2 75.69 14.6
22 -5 2 52.99 17.8
22 5 3 -7.2 13.8
22 -5 3 -7 10.2
22 5 4 -6.1 12.4
22 -5 4 7.1 12.1
22 5 5 2.1 13.9
22 -5 5 8.2 15.8
22 5 6 34.6 17.5
22 -5 6 -12.6 12.5
22 5 7 28.9 16.9
22 -5 7 -13 12.1
22 6 -7 4.6 12.5
-22 6 7 -4.7 10.4
22 6 -6 29 11.8
-22 6 6 14.2 13.2
-22 6 5 48.9 14.6
-22 6 4 1.9 13.4
-22 6 3 13.3 10.9
22 6 -2 -11.8 18.9
-22 6 2 21.7 12.7
22 6 -1 8.5 24.3
-22 6 1 3.7 10.3
22 -6 -1 -3.9 8.5
-22 6 0 -14.6 7.2
22 6 0 -11.9 18.4
22 -6 0 11.1 10.3
22 6 1 -0.2 16.2
-22 6 -1 21.1 10.7
22 6 2 -11.6 14.2
22 -6 2 -0.1 12.2
22 6 3 -2.6 13.9
22 6 4 11.8 14.2
22 6 5 -6.2 13
22 -6 5 -10.5 13.3
22 6 6 2.6 14.5
-22 7 5 19.9 12.5
-22 7 4 -2.1 10.3
-22 7 3 5.2 10.7
-22 7 2 11.9 10.9
22 7 -2 -26.4 18.7
-22 7 1 -4.3 8.6
22 7 -1 3.8 20
22 7 0 -4.5 18.8
-22 7 0 -6.2 9
22 -7 0 1.7 10.3
22 7 1 -19.3 16.6
-22 7 -1 -1 9.4
22 -7 1 -0.9 11.3
22 7 2 -7.2 16.4
-22 7 -2 -9.6 8.4
-22 7 -3 31.2 10.9
22 7 3 30.3 19.1
22 -7 3 43.5 17.8
22 7 4 -6.8 14.4
22 7 5 15.6 15.3
-22 8 4 -5.2 9.3
-22 8 3 -3.3 10.8
-22 8 2 -0.7 13.3
22 8 -1 -6 18.5
-22 8 1 -0.9 11.6
22 -8 -1 -20.8 8.4
22 8 0 71.79 25.5
22 8 1 -15.8 20.4
-22 8 -1 -10.8 9.7
22 8 2 -4.9 16.9
-22 8 -2 -12.2 9.3
-22 8 -3 13.2 12.3
22 8 3 19.5 17.2
22 -8 3 28.4 18.2
-23 0 9 -18.9 8.4
-23 0 8 25.9 12.4
-23 0 7 -4 6.9
-23 0 7 19.7 10.2
-23 0 6 27.2 8.4
-23 0 6 28.9 10.9
-23 0 5 1.3 7.8
-23 0 4 2.3 8.7
-23 0 4 -6.3 7.6
23 0 -3 5.8 20.3
-23 0 3 -8.2 8.2
-23 0 3 1.5 7.4
23 0 -1 30.9 14.1
23 0 -1 4.9 8.6
-23 0 1 0.4 8.7
23 0 0 54.19 12.1
23 0 0 72.09 15
-23 0 0 51.69 12.9
23 0 1 2.1 10.8
-23 0 -1 -1.7 9.7
23 0 1 1.9 8.7
23 0 2 155.68 20.7
-23 0 -3 -7.5 10
23 0 3 -2.8 10.1
23 0 4 14.5 11.8
23 0 5 -3 11.6
23 0 6 5 13.2
23 0 7 3.6 13.4
23 0 8 13.6 13.7
-23 1 9 40.8 12.7
-23 -1 9 0.6 9.2
-23 1 8 -5.9 8.4
-23 -1 8 -2.9 10.4
-23 -1 8 -2.8 8.1
-23 1 7 43 12.9
-23 -1 7 53.39 13.6
-23 -1 7 45.9 12.6
-23 1 6 33.8 12
-23 -1 6 17.7 10.3
-23 1 5 18.1 10.9
-23 -1 5 6.1 8.9
-23 -1 5 30.3 10.8
-23 1 4 31.3 7.8
-23 -1 4 12.3 9.2
-23 1 3 5.2 7.1
-23 1 3 6.5 8.9
23 1 -3 24.3 18.9
23 1 -3 23.9 13.1
-23 -1 3 1.2 7.9
23 -1 -3 -3.6 14.5
23 1 -2 19.3 11.1
-23 1 2 6.4 9.2
-23 1 2 2.3 7.7
-23 -1 2 4.7 9.6
-23 1 1 24.8 10.5
-23 1 1 -3.1 8.9
23 1 -1 23.5 10.7
23 -1 -1 19.9 12.1
-23 -1 1 34.7 11.5
23 -1 -1 48.8 13.6
23 1 0 100.49 17.6
23 1 0 82.09 15.7
-23 1 0 58.39 13.3
23 -1 0 57.29 13.8
-23 -1 0 53.59 13.7
23 -1 0 47.6 12.7
-23 1 -1 -11.5 8.9
23 1 1 -1.1 11.3
23 -1 1 -11.5 7.5
-23 -1 -1 -10 8.9
23 -1 1 9 10.4
-23 1 -2 -14.6 9.4
23 1 2 -10.2 10.2
-23 -1 -2 -1.2 11.3
23 -1 2 -0.4 10.3
-23 1 -3 9.7 13.1
23 1 3 -6.2 10.3
23 -1 3 4.2 10.9
-23 -1 -3 2.4 11
23 1 4 -11.6 17.8
23 -1 4 0.1 10.3
23 1 5 -2.6 11.3
23 -1 5 -10.2 10.4
23 1 6 -9.3 11.6
23 -1 6 4.1 11.5
23 1 7 -1.5 12.8
23 -1 7 -14.9 11.5
23 1 8 10.3 15.2
23 -1 8 -3 13.3
-23 2 9 6.3 10.4
-23 -2 9 6.5 9.3
-23 2 8 20.7 12
-23 2 7 0.9 10.4
-23 -2 7 9.6 12.4
-23 2 6 -19.5 7.5
-23 -2 6 -6.8 12.3
-23 2 5 11.6 10.2
-23 -2 5 24.1 12.6
-23 2 4 10.7 9.9
-23 -2 4 2.3 10.2
23 2 -3 152.98 28.4
23 2 -3 104.59 18.5
-23 -2 3 115.09 17
-23 2 2 2.2 8.7
-23 2 2 3.7 7.8
23 2 -2 -3.3 8.5
23 2 -2 33.8 22
23 -2 -2 -4.7 11.2
-23 -2 2 -7.7 9.3
-23 2 1 36.8 11.6
-23 2 1 29.1 10.7
23 2 -1 67.49 20.5
23 2 -1 31.2 14
23 -2 -1 18.4 12.6
-23 -2 1 20.3 11.2
-23 2 0 122.59 17.9
23 2 0 123.89 21.6
-23 2 0 94.19 16
-23 -2 0 91.69 16.9
23 -2 0 120.09 16.8
-23 2 -1 51.19 14.3
23 2 1 -0.4 12.7
23 -2 1 -17.3 7.7
23 -2 1 -13.2 12.5
-23 -2 -1 -0.9 11.2
-23 2 -2 184.68 25.8
23 -2 2 218.18 23.5
-23 -2 -2 242.58 25
-23 2 -3 32.1 15.5
23 2 3 33.2 14.1
23 -2 3 27.6 12.7
23 2 4 17.9 12.4
-23 2 -4 17.3 17.6
23 -2 4 4 11.4
23 2 5 17 13.2
23 -2 5 -19.4 9.9
23 2 6 7.5 12.5
23 -2 6 1.3 12.2
23 2 7 18.2 15.5
23 -2 7 10 12.9
23 2 8 -6 12.6
23 -2 8 4.9 13.8
-23 3 8 18.8 11.1
-23 3 7 11.7 10.5
-23 -3 7 -2.5 14.3
-23 3 6 4.8 9.3
-23 3 5 9.8 10.1
-23 -3 5 3.6 14.5
-23 3 4 29.8 11.5
-23 -3 4 -4.4 13
23 3 -3 61.59 24.3
-23 3 3 70.99 14.9
-23 -3 3 65.39 15.3
-23 3 2 34.3 13.2
23 3 -2 14.4 24.4
23 -3 -2 27.9 11.8
23 3 -1 -14.1 19.5
-23 3 1 7.5 11.1
-23 -3 1 -5.6 10.8
23 -3 -1 -10.6 8.6
23 3 0 -6.5 15.8
-23 3 0 -6.6 8.7
23 -3 0 -9 8.3
-23 -3 0 -9.9 10.7
23 3 1 30.6 16.5
-23 3 -1 47 13.6
-23 -3 -1 60.59 15.9
23 -3 1 38.7 11.9
23 3 2 73.09 18.5
23 -3 2 79.39 15.7
23 3 3 110.99 22.4
23 -3 3 83.39 16.6
23 3 4 45 15.6
23 -3 4 26.5 14.2
23 3 5 15.4 13.5
23 -3 5 24.8 16.3
23 3 6 11.7 12.9
23 -3 6 -11 10.8
23 3 7 2.2 14.6
23 -3 7 5.3 13.9
-23 4 8 10.9 14
-23 4 7 8.8 10.5
-23 4 6 14.7 13.1
-23 -4 6 -1 15.1
-23 4 5 4.3 9.6
-23 -4 5 32 18.4
-23 4 4 27 12.1
-23 -4 4 43.2 17.2
-23 4 3 11.1 10.8
23 4 -3 30.8 22.1
-23 -4 3 -11.8 13.1
23 4 -2 259.67 40.5
-23 4 2 268.77 26.3
-23 -4 2 194.58 30.2
23 4 -1 86.59 25.2
-23 4 1 46.7 13.4
-23 -4 1 54.19 16.6
23 -4 -1 28.8 10.3
23 4 0 95.89 24.4
-23 4 -1 4.1 11.9
23 4 1 3.9 18.8
23 -4 1 30.6 11.6
23 4 2 -9.5 12.7
23 -4 2 -14.9 9.1
23 4 3 17.6 15.6
23 -4 3 35.7 13.9
23 4 4 13.1 13.5
23 4 5 -1.3 12.5
23 -4 5 23 15.2
23 4 6 -1.4 12.7
23 -4 6 -2.6 12.9
23 4 7 -9.6 12.4
23 -4 7 1.6 14.4
-23 5 7 21.6 12.3
-23 5 6 31.2 13.4
-23 5 5 -3.6 11
-23 5 4 -8.5 9.8
23 5 -3 34.7 39.5
-23 5 3 2 9.4
-23 5 2 -5.1 9.6
23 5 -1 88.39 31.3
-23 5 1 54.29 14
23 -5 -1 34.2 11.7
-23 5 0 3.3 9.7
23 5 0 14.3 20
23 -5 0 -5.7 8.8
23 5 1 112.49 23.5
-23 5 -1 69.39 14.1
23 -5 1 67.09 17.2
23 5 2 12.2 16
-23 5 -2 -4.6 10.5
23 -5 2 14.5 14
23 5 3 6.2 13
23 -5 3 14.6 14.3
23 5 4 -10.4 12.2
23 5 5 7.8 15.3
23 -5 5 -13.3 9.8
23 5 6 -6.2 13.8
23 -5 6 1.9 13
-23 6 6 -15.9 8.7
-23 6 5 11.6 15.6
-23 6 4 0.5 12.6
-23 6 3 -9.3 9.6
23 6 -2 -1.9 19.7
-23 6 2 16.2 12.6
23 6 -1 107.39 29.5
-23 6 1 80.29 16.1
23 -6 -1 40.5 12.6
-23 6 0 -6.2 9.8
23 6 0 -19.4 18
-23 6 -1 175.08 20.1
23 6 1 88.19 23.9
23 6 2 1.6 15.2
-23 6 -2 0.3 10.1
23 -6 2 -5.1 11.2
23 6 3 -1.1 16.5
23 -6 3 -3.4 11.6
23 6 4 8.3 17
23 -6 4 1.8 12.9
23 6 5 8.9 15.2
-23 7 5 -15.2 9.2
-23 7 4 1.7 11.1
-23 7 3 -3.5 9.8
-23 7 2 22.3 12
23 7 -2 10 21.1
-23 7 1 -5.1 9.8
23 7 -1 29.3 23.4
-23 7 0 43.3 14.8
23 7 0 28.6 23.9
23 7 1 30.1 21.9
-23 7 -1 12.8 10.2
23 7 2 18 18.2
-23 7 -2 4.6 10.1
23 -7 2 5.8 13.2
23 7 3 -23.1 15
-23 7 -3 -4.4 9
23 7 4 -10.7 15.4
23 -7 4 16 16.2
-23 8 2 12.7 15.7
-23 8 1 -10.3 13
23 8 -1 24.5 23.6
23 -8 -1 18.1 10.1
-23 8 0 4.7 10.8
23 8 0 -4.8 20.6
-23 8 -1 21.7 13.4
23 8 1 -10.6 21.7
23 -8 1 18.6 14.4
-23 8 -2 -23.4 9.2
23 8 2 8.3 18.9
-24 0 8 -0.3 8.6
-24 0 7 -7.9 6.4
-24 0 7 0.5 8.1
-24 0 6 55.99 13.9
-24 0 6 73.89 12
-24 0 5 24.2 11.9
-24 0 5 -4.6 7.8
-24 0 4 -12.9 6.7
-24 0 4 15.2 9.9
24 0 -3 28.2 22.7
-24 0 2 116.49 15.6
24 0 -2 96.89 24.3
-24 0 1 10.2 9.5
24 0 -1 -22 11
24 0 0 40.2 14.4
-24 0 0 72.39 14.8
-24 0 -1 -10.6 10.1
24 0 1 10.4 11.5
-24 0 -2 26.9 13.5
24 0 2 17 11.8
24 0 3 -4.1 10.3
-24 0 -3 8.5 11.4
24 0 5 -7.5 11.9
24 0 6 59.39 17
24 0 7 2.1 12.9
24 0 8 -0.5 16
-24 1 8 -3.6 10.2
-24 -1 8 23.1 12.4
-24 -1 8 13.4 10.2
-24 1 7 13.1 10.2
-24 -1 7 9.5 10.2
-24 -1 7 -14.2 8.6
-24 1 6 2.5 9.9
-24 -1 6 23.1 10.2
-24 -1 6 -4.7 9.2
-24 1 5 -4.4 8.9
-24 -1 5 -0.9 9
-24 -1 5 -5.5 8.1
-24 1 4 -1.1 6.1
-24 1 4 8.8 9.1
-24 -1 4 3.3 8.5
24 1 -3 117.99 26.5
-24 1 3 81.49 15.5
-24 1 3 59.69 14.6
-24 -1 3 55.79 12.3
24 -1 -3 124.49 20.2
-24 1 2 36.9 10.5
24 1 -2 40.4 21.6
24 -1 -2 12 26
-24 -1 2 24.9 10.8
-24 1 1 42 11.4
24 1 -1 46.5 18
24 -1 -1 42.1 14.2
-24 -1 1 36.7 12.2
-24 1 0 54.19 12.7
24 1 0 23.1 14.6
24 -1 0 35.1 12.7
-24 -1 0 34 13
-24 1 -1 31.9 11.7
24 1 1 25.7 13.9
-24 -1 -1 5.1 15.9
24 -1 1 13 10.7
24 1 2 29.8 13.9
24 -1 2 47.7 13.2
-24 -1 -2 31.3 14.7
24 1 3 31.3 13.4
-24 1 -3 30.3 15.4
24 -1 3 18 12.7
24 1 4 14.7 12
24 -1 4 2.5 11.7
24 1 5 73.99 18.3
24 -1 5 66.59 16.1
24 1 6 -2 13.6
24 -1 6 7.4 13.4
24 1 7 23.9 16.1
24 -1 7 4.8 14.9
24 1 8 6.2 15.3
24 -1 8 4.6 16.2
-24 2 8 -2.3 11
-24 -2 8 16.7 14
-24 2 7 -21 7.7
-24 -2 7 -9.3 14.1
-24 2 6 21.1 11.7
-24 -2 6 -15.1 11
-24 2 5 0.6 10.1
-24 -2 5 8.5 12.2
-24 2 4 53.59 13.1
-24 -2 4 62.99 14.1
24 2 -3 98.69 25.3
-24 2 3 26 11.6
-24 -2 3 39.4 12.3
-24 2 2 21 15.9
-24 2 2 12.8 10.1
24 2 -2 -2.4 23.9
-24 -2 2 7.2 10.5
-24 2 1 1.9 15.3
-24 2 1 -3.8 8.8
24 2 -1 -17.9 17.8
-24 -2 1 4.2 10.5
24 -2 -1 5.4 12.2
24 2 0 2.3 15.1
-24 2 0 11.2 10.2
-24 -2 0 19.8 11.8
24 -2 0 12.2 10.8
-24 2 -1 1.9 11
24 2 1 -0.3 12.6
-24 -2 -1 4.4 11.9
24 -2 1 2.7 9.3
24 2 2 19.5 13.1
-24 2 -2 31.6 13.6
-24 -2 -2 -11.1 10.9
24 -2 2 -6.3 9.9
-24 2 -3 16.5 13.3
24 -2 3 29.5 12.4
24 2 4 33 14.3
24 -2 4 65.99 16.9
24 2 5 -9.3 12.5
24 -2 5 -19.6 10.5
24 2 6 8.5 14
24 -2 6 -8.2 10.9
24 2 7 13.1 15
24 -2 7 -5.3 13.4
-24 3 8 -5.7 9.6
-24 -3 8 30.1 15.3
-24 3 7 9.3 10.6
-24 -3 7 22.1 15.6
-24 3 6 7.7 9.9
-24 -3 6 0.3 15.4
-24 3 5 46.6 14.3
-24 3 4 32.2 12.7
-24 3 3 -4.4 9.3
24 3 -3 3.2 21.1
-24 -3 3 8.7 13.1
24 3 -2 -1.1 24.3
-24 3 2 17.4 10.8
24 -3 -2 -1.8 10.9
-24 -3 2 26.5 14.3
-24 3 1 10.2 9.8
24 3 -1 66.79 25.8
-24 -3 1 22.2 13
24 -3 -1 10.8 10.1
24 3 0 119.49 24.5
-24 3 0 60.39 13.8
-24 -3 0 32.2 15
24 -3 0 42.9 12.6
24 3 1 8.2 15.1
24 -3 1 -0.3 9.8
-24 -3 -1 5.6 19.9
24 3 2 29.4 26.2
24 -3 2 37.3 14.3
24 3 3 -1.2 12.1
24 -3 3 11.1 9.8
24 3 4 0.3 13.3
24 -3 4 20.3 13
24 3 5 17.5 14.2
24 -3 5 17.6 16.6
24 3 6 9.7 14.6
24 -3 6 12.7 16.9
24 3 7 2.7 14.1
24 -3 7 0.1 14.3
-24 4 7 3.3 10.1
-24 4 6 5.9 10.2
-24 4 5 16.2 11.3
-24 -4 5 18.3 17.8
-24 4 4 11.9 10.9
-24 -4 4 33.8 20.1
-24 4 3 2.3 10.1
24 4 -3 -15.1 20.6
-24 -4 3 9.5 17.6
24 4 -2 -14.3 24.4
-24 4 2 5.5 10
-24 -4 2 9 16.7
-24 4 1 60.69 13.4
24 4 -1 83.39 28.7
24 -4 -1 37.1 11.3
-24 4 0 74.39 14.7
24 4 0 51.19 27.1
24 -4 0 52.79 13.1
24 4 1 22.4 17.9
-24 4 -1 39 11.6
24 -4 1 19.8 11.6
24 4 2 26.2 15.9
24 -4 2 4.8 11.5
24 4 3 17.4 14.8
24 -4 3 2.9 12.9
24 4 4 -17.9 12.2
24 4 5 -1.5 13.5
24 -4 5 -1.4 13.8
24 4 6 3.2 13.6
24 -4 6 21.3 17
-24 5 7 10.6 12.5
-24 5 6 5.1 10.6
-24 5 5 35.9 13.4
-24 5 4 9.1 10.5
24 5 -3 11.5 23.4
-24 5 3 13.4 11.4
-24 5 2 12.3 11.5
24 5 -2 -50.79 20.2
-24 5 1 58.99 14.9
24 5 -1 28.3 25.2
24 -5 -1 40.4 11.2
-24 5 0 5.1 10.1
24 5 0 -17.6 18.4
24 -5 0 19.9 12.3
24 5 1 42.1 20.5
-24 5 -1 38.9 12.7
24 -5 1 21.1 12.7
24 5 2 12.1 15.3
-24 5 -2 4.6 10.4
24 -5 2 -3.4 11.8
24 5 3 -10 12.8
24 -5 3 -0.5 12.1
24 5 4 -12.1 12.8
24 -5 4 29.8 17.2
24 5 5 24.2 16.2
24 -5 5 -11.4 10.1
24 5 6 28.5 17.4
-24 6 5 -13.8 11.6
-24 6 4 -6.8 10.3
-24 6 3 4.9 12.8
-24 6 2 -7.2 9.4
24 6 -2 -9.2 22
24 6 -1 29.9 25.3
-24 6 1 28.8 13.1
24 -6 -1 40.6 10.9
24 6 0 -26.1 19.7
-24 6 0 9.6 10.2
24 -6 0 4 10.1
24 6 1 4.5 18.8
-24 6 -1 8.3 10.7
24 6 2 -0.5 17.7
-24 6 -2 7.9 10.7
24 6 3 3.9 16.6
24 6 4 27.3 16.3
24 -6 4 0.4 12.7
24 6 5 -13.6 13.5
24 -6 5 6.3 15.2
-24 7 4 -1.9 12.5
-24 7 3 4.7 11.3
-24 7 2 -9.2 12.3
24 7 -2 -32.5 19.2
-24 7 1 16.3 13.3
24 7 -1 7.3 22.7
-24 7 0 10.4 13.3
24 7 0 14.8 23.1
-24 7 -1 8.6 12.1
24 7 1 -16.4 18.3
24 7 2 13.5 18
-24 7 -2 6.2 10.4
24 7 3 0 15.8
24 -7 3 16 14.7
-25 0 8 30.9 12.5
-25 0 7 -22.8 7.7
-25 0 6 100.89 16.5
-25 0 6 128.69 18.9
-25 0 5 -11.8 8.8
-25 0 5 -0.4 9.9
-25 0 4 10.5 7.5
-25 0 4 -1.8 9.2
25 0 -3 -13 19.3
-25 0 3 7.2 8.7
-25 0 2 20.7 10.2
-25 0 1 3.2 10
25 0 -1 70.09 18
-25 0 0 12.2 10.1
25 0 0 12.3 13.1
25 0 1 3 11.2
25 0 2 201.38 24.3
25 0 3 4.6 11.9
25 0 4 50.39 15.6
25 0 5 -5.9 11.5
25 0 6 4.9 14
25 0 7 28.7 18.8
-25 1 8 20.8 13.2
-25 -1 8 -6.1 10.9
-25 1 7 16.2 11.1
-25 -1 7 1 11
-25 -1 7 9.1 10.1
-25 1 6 -10.7 8.1
-25 -1 6 -1 9.1
-25 -1 6 1.8 8.9
-25 1 5 28.6 10.9
-25 -1 5 -7.8 8.3
-25 1 4 -10.2 8
-25 1 4 -3.2 6.7
-25 -1 4 -5.8 8.2
-25 1 3 -11.9 9.7
-25 1 3 11 10.6
25 1 -3 -10.6 20
-25 -1 3 -8 8.8
25 -1 -3 -19.5 16.1
-25 1 2 189.08 22
-25 1 2 162.88 19.1
-25 -1 2 237.28 25.3
-25 1 1 4.9 9.6
-25 -1 1 13.2 10.8
25 -1 -1 50.79 15.2
-25 1 0 5.4 14.2
25 1 0 45.8 15.5
25 -1 0 5.7 11.9
-25 -1 0 14 10.7
-25 1 -1 -18.2 8.9
25 1 1 -6.9 12
25 -1 1 7.2 11.2
-25 -1 -1 5.6 12.2
-25 1 -2 11 12.3
25 1 2 21 13.1
25 -1 2 3.2 11.3
-25 -1 -2 -2.2 12.5
25 1 3 -1.1 15.9
-25 1 -3 -1.8 12.9
25 -1 3 1.5 11.4
25 1 4 1.5 12.1
25 -1 4 -3.1 11.9
25 1 5 -6.6 11.2
25 -1 5 6.6 13
25 1 6 1.2 12.7
25 -1 6 -8.6 11.3
25 1 7 3.1 14
25 -1 7 18.3 15.9
-25 2 8 15 11.9
-25 -2 8 4.8 14.8
-25 2 7 8.6 10.5
-25 -2 7 15.4 13.2
-25 2 6 11.2 10.7
-25 -2 6 1 12.9
-25 2 5 10.7 10.7
-25 -2 5 24.6 12
-25 2 4 10.7 11.2
-25 -2 4 7.4 11.3
-25 2 3 0.3 9.3
25 2 -3 2 22.2
-25 -2 3 4.8 10.5
25 -2 -3 1.1 13.5
25 2 -2 -26.2 23.5
-25 2 2 37.4 12.6
-25 2 2 37.7 13
25 -2 -2 4.7 15.3
-25 -2 2 22.5 12.9
25 2 -1 77.29 26.6
-25 2 1 79.39 16.3
-25 2 1 106.59 16
25 -2 -1 101.09 16.8
-25 -2 1 144.49 25.9
25 2 0 10.8 16.5
-25 2 0 -9.7 9.4
25 -2 0 14.3 10.3
-25 -2 0 0.3 11.1
-25 2 -1 21.1 12.1
25 2 1 13.8 14.2
25 -2 1 14.7 10.5
-25 -2 -1 -0.2 11.1
25 2 2 29.1 14.1
-25 2 -2 59.39 16
25 -2 2 38.4 14
-25 2 -3 26.2 14.3
25 2 3 -7.4 10.8
25 -2 3 -1.5 10.6
25 2 4 0.7 11.9
25 -2 4 24.4 16.5
25 2 5 2.7 13.3
25 -2 5 -3.8 14.6
25 2 6 -17.9 11.9
25 -2 6 7.4 12.7
25 2 7 -15.4 11.8
25 -2 7 -2.8 15.1
-25 3 7 45.6 17.2
-25 -3 7 11 17.8
-25 -3 6 9.6 14.8
-25 3 5 -4.6 9.9
-25 3 4 -2.9 9.3
-25 -3 4 0.5 13
-25 3 3 12.7 9.6
25 3 -3 3.3 19.6
-25 -3 3 1.8 13.1
-25 3 2 34.1 12.9
25 3 -2 74.09 28.7
25 -3 -2 55.19 13.7
-25 -3 2 40.7 15.6
-25 3 1 0.2 9.2
25 3 -1 18.7 23.6
-25 -3 1 -5.2 12.3
25 3 0 14.5 19.4
-25 3 0 23.2 11.6
-25 -3 0 21.3 14.6
25 -3 0 35.9 11.5
25 3 1 25.9 18.6
25 -3 1 37.8 14.2
25 3 2 10.8 13.8
25 -3 2 0.8 11.8
25 3 3 4.6 12.6
25 -3 3 27 14.1
25 3 4 15.6 15
25 -3 4 7.4 12.3
25 3 5 22.4 15.3
25 -3 5 22.5 16.3
25 3 6 18.9 15.4
25 -3 6 -3.5 13.1
-25 4 7 -8.4 8.6
-25 4 6 -12 9.5
-25 4 5 5.5 10.6
-25 4 4 -0.5 10
25 4 -3 -32 20.1
-25 4 3 1.4 9.8
-25 4 2 4.5 10.5
25 4 -2 18.4 26.8
25 4 -1 15.5 31.7
-25 4 1 -3.4 8.2
25 -4 -1 -2.7 9.5
25 4 0 1.8 20.7
-25 4 0 12.5 10.9
25 -4 0 28.5 12.7
25 4 1 -14.7 16.1
-25 4 -1 -3.7 9.7
25 -4 1 -9.1 10.3
25 4 2 -4.3 14.3
25 -4 2 -7.7 11.1
25 4 3 -4.3 13.8
25 -4 3 -19.4 10.6
25 4 4 13 14
25 -4 4 0.6 14.1
25 4 5 5.5 15
25 -4 5 6.2 15.5
25 4 6 -26.8 12.8
25 -4 6 2.1 13.4
-25 5 6 2.9 11.1
-25 5 5 7.1 10.7
-25 5 4 15.7 11.7
-25 5 3 48.8 15.6
25 5 -3 23.8 23.4
-25 5 2 17.1 11.2
25 5 -2 6.8 22.1
25 5 -1 45.6 24
-25 5 1 5.1 10.2
25 -5 -1 -0.6 9.3
-25 5 0 8.7 10.2
25 5 0 16.6 21.4
25 -5 0 6.3 10.7
25 5 1 10.4 19.5
-25 5 -1 -3.4 9.8
25 -5 1 9.8 12.9
25 5 2 0.6 16.7
25 5 3 3.2 14.2
25 5 4 15.6 15.8
25 -5 4 0.7 13.5
25 5 5 -5.7 15.8
25 -5 5 11.6 15.9
-25 6 5 9.4 11.7
-25 6 4 1.5 10.6
-25 6 3 4.6 12.6
-25 6 2 4.4 11.3
25 6 -2 -10.3 22.2
-25 6 1 3.5 10.4
25 6 -1 28.6 26.8
-25 6 0 29 12.1
25 6 0 50.89 24.6
25 6 1 38.6 22.4
-25 6 -1 -13.1 8.6
25 6 2 14.1 18.4
-25 6 -2 8.9 11.7
25 6 3 -1.9 16.4
25 6 4 -5.8 14.4
-25 7 3 13.4 11.8
-25 7 2 -15.7 12.4
25 7 -2 7.4 22.2
-25 7 1 -2.4 13.6
25 7 -1 -1.6 23.1
25 7 0 14.9 23.1
-25 7 0 -3.4 10.6
25 7 1 -16.9 19.5
-25 7 -1 6.1 11.5
-25 7 -2 2.1 11.3
25 7 2 -10.9 17.4
-26 0 7 -11.2 8.2
-26 0 6 10.7 10.7
-26 0 6 13.9 10.7
-26 0 5 1.9 8.1
-26 0 5 -2.9 9.3
-26 0 4 5.7 10.2
-26 0 4 2.1 7.8
26 0 -3 67.79 22.4
-26 0 2 41 12.1
26 0 -2 54.19 25
26 0 -1 -20.6 15.4
-26 0 1 6.1 10.9
26 0 0 -28.1 11.3
-26 0 0 21.7 12
26 0 1 10.4 11.8
-26 0 -1 -2.1 11.2
-26 0 -2 25.5 12.6
26 0 2 -4.2 11.5
26 0 4 7.6 11.8
26 0 5 -11.5 12
26 0 6 -14.5 12.5
26 0 7 -12.8 14.7
-26 1 7 39.3 13.8
-26 -1 7 25.7 13
-26 -1 7 55.79 12.9
-26 1 6 19.1 11.1
-26 -1 6 22.5 11
-26 1 5 -13.9 8.7
-26 -1 5 5.4 8.8
-26 1 4 12 7.5
-26 1 4 20.4 10.9
-26 -1 4 16.8 10.7
-26 1 3 -2.6 7.7
26 1 -3 43.8 22.5
-26 1 3 -4.3 8.6
26 -1 -3 55.19 19.3
-26 -1 3 20.4 10.8
-26 1 2 22.6 12.1
26 1 -2 25.2 25.6
-26 1 2 1.2 8.3
-26 -1 2 20.6 10.6
26 -1 -2 35.4 20.5
-26 1 1 27.2 10.4
26 1 -1 10.8 19.9
26 -1 -1 29.2 15.6
-26 -1 1 36.2 12.3
-26 1 0 24.1 11.4
26 1 0 44.2 16.3
-26 -1 0 13 11.8
26 -1 0 -8.5 11.1
26 1 1 15.4 13.1
-26 1 -1 14.3 14.1
-26 -1 -1 12.2 12.6
26 -1 1 -0.5 11.6
-26 1 -2 11.9 12.1
26 1 2 7.3 13
26 -1 2 9.2 11.7
26 1 3 2.1 13
26 -1 3 -0.5 12.1
26 1 4 2.7 13
26 -1 4 7.4 13
26 1 5 3.8 11.9
26 -1 5 -1.3 13.3
26 1 6 -4.1 13.3
26 -1 6 30 16.7
26 1 7 26.6 17.3
26 -1 7 14.6 17.8
-26 2 7 10 13.8
-26 -2 7 1.9 13.9
-26 2 6 7.8 11
-26 -2 6 -7.7 11.9
-26 2 5 16.3 11.6
-26 -2 5 15.4 12.2
-26 2 4 -11.4 8.7
-26 -2 4 -6.8 10.4
26 2 -3 -3.2 21.8
-26 2 3 9.4 10.4
-26 -2 3 21.4 12.1
26 2 -2 140.99 32.5
26 -2 -2 56.69 18.6
-26 -2 2 -0.6 17
-26 2 1 61.19 14.4
26 2 -1 77.89 25.6
26 -2 -1 19.3 13.5
26 2 0 21.2 18.6
-26 2 0 59.29 14.5
26 -2 0 30.5 13.3
-26 -2 0 39.8 14.4
-26 2 -1 5.6 12.4
26 2 1 29.2 16.4
26 -2 1 21.6 12.6
-26 2 -2 2.1 12.7
26 2 2 -11 13
26 -2 2 -7.8 11.1
26 2 3 -2 12.2
26 -2 3 8.1 12.3
26 2 4 -14.7 10.4
26 -2 4 4.2 13.2
26 2 5 9 13.7
26 -2 5 2.7 15.4
26 2 6 -1.3 13.6
26 -2 6 4.7 15.4
-26 3 7 7.3 13.3
-26 -3 7 41.3 19.5
-26 3 6 1.5 11.9
-26 -3 6 -4 15.5
-26 3 5 -6.3 9.5
-26 -3 5 12.2 14.7
-26 3 4 6.5 10.9
-26 -3 4 -9.4 13
26 3 -3 43.3 22.4
-26 3 3 11.7 9.8
-26 -3 3 9.5 14.3
26 3 -2 -28 23.3
-26 3 2 8.4 11
26 -3 -2 2.5 11.5
-26 -3 2 -15.7 12.5
26 3 -1 -2.5 23.2
-26 3 1 7.9 10.5
26 -3 -1 -8 10.1
-26 -3 1 7.8 14.2
26 3 0 7.6 19.9
-26 3 0 -4.8 9.7
26 -3 0 -8.8 9.9
26 3 1 6.9 15.9
26 -3 1 6.2 12.1
26 3 2 23.8 14.9
26 -3 2 5.4 12.3
26 3 3 6.8 13.8
26 -3 3 5 14.4
26 3 4 21.5 15.1
26 -3 4 -11.5 12.3
26 3 5 1.4 13.6
26 -3 5 7.1 14.7
26 3 6 3.7 15.1
26 -3 6 19.8 17.4
-26 4 6 8.7 10.4
-26 4 5 -17.5 8.5
-26 4 4 -9.1 9.1
-26 4 3 33.9 13
26 4 -3 -13.5 26.7
-26 4 2 2.3 11.2
26 4 -2 -39.7 38.7
26 4 -1 20.3 24.7
-26 4 1 25.5 11.6
-26 4 0 -6 10.3
26 4 0 12.8 20
26 -4 0 25.7 12.2
26 4 1 38.7 18.8
26 -4 1 11.4 11.6
26 4 2 6.2 14.9
26 -4 2 22 13.6
26 4 3 13.2 15.5
26 -4 3 7.4 12.3
26 4 4 -15 13.2
26 -4 4 17.3 16.2
26 4 5 -8.6 13.6
-26 5 5 -11.9 9.8
-26 5 4 7.2 10.8
-26 5 3 -8.3 10.5
26 5 -3 6.2 23.7
-26 5 2 2.4 11.2
26 5 -2 -23.2 22.9
26 5 -1 -22.5 23.4
-26 5 1 -5 9
26 5 0 -45.1 21.4
-26 5 0 12 12.4
26 -5 0 4.4 11
-26 5 -1 38 13.4
26 5 1 29.2 21.7
26 5 2 37.1 19.9
26 -5 2 -2 12.4
26 5 3 -11.7 15.4
26 5 4 1.9 15.2
26 -5 4 8.7 14.6
-26 6 4 -0.4 10.5
-26 6 3 9.3 11
-26 6 2 3.4 11.3
26 6 -2 -23.6 22.4
-26 6 1 -9.6 10.5
26 6 -1 10.3 24.7
26 6 0 -31.5 19.8
-26 6 0 5.2 11.8
-26 6 -1 -1.9 11.2
26 6 1 -23.1 19.6
-26 6 -2 3.6 11.7
26 6 2 10.3 18.3
26 6 3 -1.6 16
26 7 -1 19.1 26.4
-26 7 1 9 13.2
-26 7 0 20.6 14.4
-27 0 7 -15 9.4
-27 0 6 6.3 11.3
-27 0 5 4.4 10.1
-27 0 5 0.2 8.4
-27 0 4 14.6 9
27 0 -3 -4.8 18.7
27 0 -2 -17.2 22.3
-27 0 2 -7.8 9.5
27 0 -1 -2.8 17.2
-27 0 1 6 9.6
27 0 0 17.7 14.6
-27 0 -1 -13.5 10.5
27 0 1 -6.6 11.9
27 0 2 7.6 12.7
27 0 3 -4.4 12.4
27 0 4 7.2 13.8
27 0 5 12.9 13.6
27 0 6 13.3 14.8
-27 1 7 25.7 12.4
-27 -1 7 -9.3 10.1
-27 -1 7 13.9 12.3
-27 1 6 12.9 10.3
-27 -1 6 12 10.5
-27 1 5 -2.9 9
-27 -1 5 6.7 10.1
-27 1 4 -10.1 9.5
-27 1 4 3.7 10.1
-27 -1 4 14 10.5
-27 1 3 14.5 11.3
-27 1 3 4.3 8.2
27 1 -3 0.9 20.9
-27 -1 3 22.5 11
27 1 -2 -31.1 23.7
-27 1 2 5.2 9.2
-27 -1 2 7.5 10.9
27 -1 -2 -28.5 18.2
-27 1 1 26.4 11.4
27 1 -1 15.7 20.9
27 -1 -1 27.8 15.7
27 1 0 -17.3 14.1
-27 1 0 -10.4 8.9
27 -1 0 13.8 13
-27 -1 0 -21.5 10.5
-27 1 -1 -6.4 11.2
27 1 1 -15 11.8
27 -1 1 -10.9 11.3
-27 -1 -1 10.8 12.9
-27 1 -2 8.3 13.7
27 -1 2 -6.5 10.7
27 1 3 0 12.2
27 1 4 11.2 13.9
27 -1 4 6.4 13.9
27 1 5 -13 12
27 -1 5 -16.7 12.8
27 1 6 -8.2 13.1
27 -1 6 -9.1 13.9
-27 2 7 -4.4 10.6
-27 2 6 2.8 11
-27 -2 6 -14.9 13.5
-27 2 5 -15.7 8
-27 -2 5 -15.4 10.9
-27 2 4 6.9 10
-27 -2 4 8.6 13.8
-27 2 3 -2.9 9.2
27 2 -3 -15.8 20.5
-27 -2 3 -17.7 14.1
27 -2 -3 37.9 12.2
27 2 -2 1.3 25.8
-27 2 2 11.7 9.9
-27 2 2 24 11.7
-27 -2 2 3.9 11.8
27 2 -1 20.1 23
-27 2 1 -9.2 9.9
27 -2 -1 1.9 13.2
-27 -2 1 15.9 12.1
27 2 0 -1.8 16.1
-27 -2 0 -3.2 14.1
27 -2 0 3.9 11.7
27 2 1 1.4 25.8
-27 2 -1 76.09 29.6
27 -2 1 10.6 13.5
27 2 2 18 14.1
-27 2 -2 22.5 14.2
27 -2 2 0 12.5
27 2 3 -12.3 11.9
27 2 4 -16.6 11.4
27 -2 4 -5 12.4
27 2 5 11.3 14.2
27 -2 5 13.1 15.8
27 2 6 7.5 16.7
27 -2 6 11.6 19.1
-27 3 6 -2.5 9.8
-27 3 5 -4.3 9.9
-27 -3 5 32.7 16.7
-27 3 4 -6.2 9.6
-27 -3 4 6.7 14.4
27 3 -3 -17.2 21.4
-27 3 3 -8.3 8.3
-27 -3 3 7.9 13.4
27 3 -2 11 23.7
-27 3 2 -14 8.8
27 -3 -2 9 10.7
27 3 -1 7.8 22.3
-27 3 1 5.5 11.1
27 -3 -1 3.9 11.6
27 3 0 9 22.5
27 -3 0 7.9 11.6
27 3 1 -14.1 14.6
27 -3 1 10.1 11.8
27 3 2 -16.2 13.1
27 -3 2 6.4 12.4
27 3 3 6.5 14.7
27 3 4 11.5 14.7
27 -3 4 0.5 13.8
27 3 5 1 13.7
27 -3 5 -4.1 13.9
-27 4 5 0.1 10.7
-27 4 4 -2.4 10.8
27 4 -3 22.3 25.5
-27 4 3 7 11.2
-27 4 2 6.2 10.2
27 4 -2 -29.6 25.4
-27 4 1 2.6 9.7
27 4 -1 -3.4 25.2
-27 4 0 24.1 12.2
27 4 0 16.1 23.2
27 -4 0 6.4 11.3
27 4 1 -7.2 18.5
27 -4 1 21.2 15
27 4 2 -10.1 15.7
27 -4 2 8.7 14.2
27 4 3 -4.8 13.3
27 4 4 2.1 15.3
27 -4 4 -5.9 12.9
27 4 5 0.5 14.2
-27 5 4 5.2 14.1
27 5 -3 60.49 27.8
-27 5 2 9 13
27 5 -2 17.4 25.9
27 5 -1 66.19 28.3
-27 5 1 2 11.1
-27 5 0 15.8 12.1
27 5 0 69.59 27.6
27 -5 0 32.1 15
27 5 1 -12.8 21.1
-27 5 -1 2.6 10.4
27 -5 1 10.1 12.5
27 5 2 -10.1 16.8
27 5 3 8 17
-27 6 3 32.3 13.3
-27 6 2 4.8 15.6
27 6 -2 41 25
27 6 -1 3 26.1
-27 6 1 6.3 13.7
27 6 0 7.3 23.7
-27 6 0 15.2 12.5
-27 6 -1 2.5 11.3
27 6 1 -24.2 19.6
27 6 2 -27 17.7
27 -6 2 9.4 13.9
-28 0 6 8.8 9.8
-28 0 5 26.8 13.4
-28 0 5 7 8.5
-28 0 4 -7 8
28 0 -3 29.5 19.7
-28 0 3 21.8 10.3
-28 0 2 -8.5 10
28 0 -2 0.4 22.2
-28 0 1 1.5 11
28 0 -1 19.9 18.5
28 0 0 -14.8 14
-28 0 0 20.2 12.7
-28 0 -1 -0.5 11.2
28 0 1 3.6 12.6
28 0 2 -24.2 14.5
28 0 3 7 12.9
28 0 4 6.9 14.1
28 0 5 11.3 17.2
-28 1 6 0.9 10.2
-28 -1 6 4.4 10.3
-28 1 5 -0.1 9.3
-28 -1 5 4.4 10.1
-28 1 4 -4.1 10.1
-28 -1 4 -2.6 10.8
-28 1 3 -4 9.6
-28 1 3 0.7 8.4
28 1 -3 -10.5 21.6
28 -1 -3 -12.9 21
-28 -1 3 3.3 10.2
-28 1 2 1.3 9.4
28 1 -2 46.6 23.8
-28 -1 2 4 11.5
28 -1 -2 10.4 19.7
28 1 -1 4.2 21.9
-28 1 1 -7.4 9.4
28 -1 -1 -1.4 14.4
-28 -1 1 18.7 11.6
-28 1 0 3.7 11
28 1 0 15 17
-28 -1 0 3.3 12
28 -1 0 27.8 13.8
-28 1 -1 -12.5 11.8
28 1 1 -25.3 11.7
28 -1 1 4.2 13.8
28 1 2 -8.8 12
28 -1 2 10.8 13.8
28 1 3 -13.9 11.2
28 -1 3 -2.5 13.2
28 1 4 2.3 12.7
28 -1 4 -19.9 11.8
28 1 5 -7.5 14.2
28 -1 5 12.1 16.7
-28 2 6 -15.4 9.1
-28 2 5 -5.1 9.5
-28 2 4 11.1 10.5
28 2 -3 -7.3 22
-28 2 3 -9.5 9.2
-28 -2 3 -1.4 12.4
-28 2 2 13.7 9
28 2 -2 -41.1 25.4
-28 2 2 0.9 9.8
28 -2 -2 7.4 16.5
-28 -2 2 -17.8 11.2
28 2 -1 -30.4 21.8
-28 2 1 43.8 12.6
28 -2 -1 16.1 14.5
-28 -2 1 -1.2 12.5
-28 2 0 11.2 12.2
28 2 0 -22.4 16.7
28 -2 0 -11.7 11.6
28 2 1 -2.6 13.8
-28 2 -1 1.8 12.9
28 -2 1 0.8 15
-28 2 -2 -1 14.2
28 2 2 6.4 13.9
28 -2 2 -8.1 11.6
28 2 3 -13.7 12.8
28 -2 3 1.4 14.8
28 2 4 2.8 14.1
28 -2 4 12 16
28 2 5 3.2 14.1
28 -2 5 13 16.1
-28 3 5 -10.4 10.9
-28 -3 5 11.6 16.2
-28 3 4 -9.8 10.3
28 3 -3 51.09 25.4
-28 3 3 6.9 10.7
28 3 -2 -0.3 29.1
-28 3 2 -0.4 10.3
28 -3 -2 -14 7.3
-28 3 1 15.5 11.8
28 3 -1 -38.2 34.3
28 -3 -1 -3.9 11.5
28 3 0 -16.2 20.6
28 -3 0 14.6 12.1
28 3 1 23.8 19.3
28 -3 1 22.6 14.2
28 3 2 21.7 17.6
28 -3 2 -1.4 13.8
28 3 3 15.5 15.6
28 -3 3 7 16.9
28 3 4 18.5 15.4
28 -3 4 22.1 16.4
-28 4 5 2.3 11.9
-28 4 4 -7.6 10.4
-28 4 3 14.6 11.3
28 4 -3 -42 22.2
-28 4 2 22.2 13.2
28 4 -2 72.89 31.4
-28 4 1 3.6 11.9
28 4 -1 30.9 30.4
28 -4 -1 31.8 11.7
-28 4 0 0.1 10.1
28 4 0 116.99 29.5
28 4 1 16.4 22.7
28 -4 1 -19 12.6
28 4 2 -4.2 18.9
28 -4 2 11.4 14.2
28 4 3 40.9 16.3
28 4 4 3.7 15.4
28 -4 4 19 16.5
-28 5 3 -8.1 14.3
28 5 -3 12.2 23.2
-28 5 2 -5.7 10.3
28 5 -2 -21.8 24.4
-28 5 1 -15 8.8
28 5 -1 -28.2 24.2
-28 5 0 1.4 11.1
28 5 0 -16.6 23.3
28 -5 0 -2.3 11.7
28 5 1 -10.4 19.6
-28 5 -1 8.6 11.8
28 5 2 36.4 20
28 -5 2 -0.3 12.9
-29 0 6 7.3 10.6
-29 0 5 3.5 8.8
-29 0 4 19.4 9.9
-29 0 3 -2.2 9.9
29 0 -3 -13.6 19.5
-29 0 2 -2.1 10
29 0 -2 -55.09 22.2
29 0 -1 -26.7 19.7
29 0 0 8.3 15.1
-29 0 0 17.3 12.5
29 0 1 10.1 13.8
29 0 2 13.4 14.4
29 0 3 -27.7 12.5
29 0 4 -19.7 13.4
29 0 5 -4.8 14.7
-29 1 5 13.3 11.1
-29 -1 5 5.1 10.5
-29 1 4 13.8 12.4
-29 1 4 14.5 11.1
-29 -1 4 5.2 12
29 1 -3 76.79 25.3
-29 1 3 15.9 9.7
-29 -1 3 22.2 12.2
29 -1 -3 29 15.6
-29 1 2 5.3 9.9
29 1 -2 -54.99 25.3
-29 -1 2 18.6 13.4
29 -1 -2 -53.49 19.7
29 1 -1 5.5 23.4
-29 1 1 3.9 9.9
29 -1 -1 -16 16.9
-29 -1 1 0.3 11.1
29 1 0 -6.2 17.5
-29 1 0 38.7 16.2
-29 -1 0 -8 16.6
29 -1 0 19.6 16.2
-29 1 -1 25.2 13.7
29 1 1 20.6 19.5
29 -1 1 11.7 14.3
29 1 2 14 15
29 1 3 7.6 15.2
29 -1 3 18.2 16.5
29 1 4 -6.7 13.2
29 -1 4 1.1 14.2
-29 2 5 11.9 11.3
-29 2 4 7.2 10.5
-29 -2 4 -24.8 12.3
-29 2 3 17.8 10.8
29 2 -3 42.4 24.8
-29 -2 3 -12.2 11.2
29 2 -2 16.1 29.9
-29 2 2 0.1 10.6
29 -2 -2 -20.7 12.3
-29 -2 2 -11 13.5
29 2 -1 -16.8 25.7
-29 2 1 -13 11.4
29 -2 -1 -17.3 14.1
-29 2 0 3.5 12.2
29 2 0 10.6 21.9
29 -2 0 20.7 14.7
29 2 1 32.7 18.2
-29 2 -1 7.7 14.8
29 -2 1 18.6 15.6
29 2 2 1.5 15.5
29 -2 2 8.5 13.9
29 2 3 -5.4 13.4
29 -2 3 -27.1 11.8
29 2 4 -4.1 14.6
-29 3 5 10.8 11.3
-29 3 4 -8.7 9.6
29 3 -3 -17.5 28
-29 3 3 7.7 10.7
29 3 -2 40.5 38.1
-29 3 2 -14.1 8.7
29 -3 -2 -13.3 6.4
29 3 -1 124.39 34.3
-29 3 1 -6 10.6
29 -3 -1 34.2 14.2
29 3 0 64.49 28.2
29 -3 0 -6.4 11.7
29 3 1 -6.4 19.6
29 -3 1 30.5 15.3
29 3 2 0.6 15.5
29 -3 2 10.4 15
29 3 3 -2 16
29 3 4 2.9 15.6
-29 4 4 -0.7 11.3
-29 4 3 5.5 10.3
29 4 -3 12.8 27.1
29 4 -2 -8.6 27.8
-29 4 2 -15.5 9.6
29 4 -1 -20.8 28.1
-29 4 1 21.2 11.4
29 -4 -1 -14 7.3
29 4 0 8 23.2
-29 4 0 -5.4 10.6
29 -4 0 4.7 12.1
29 4 1 -1.2 19.5
29 -4 1 0 12.5
29 4 2 -8.2 15.9
29 4 3 15.9 16.1
-29 5 1 -8 11.4
29 5 -1 -3.3 26.9
-29 5 0 10.5 11.3
29 5 0 -11.1 23.8
-30 0 5 3.8 9.5
-30 0 4 -17.9 9.9
30 0 -3 35.3 20.5
-30 0 3 17.3 11.3
30 0 -2 105.09 31.3
30 0 -1 90.49 27.2
-30 0 0 33.5 14.2
30 0 0 28.9 18.7
30 0 2 -9.4 13.4
30 0 3 3 14.1
30 0 4 -4 15.3
-30 1 5 -5.6 9.7
-30 -1 5 -19.4 12.5
-30 1 4 18.1 11.8
-30 1 4 8.5 10.6
-30 -1 4 7.6 13.3
30 1 -3 -39.2 20.7
-30 1 3 12.5 9.6
30 -1 -3 -23.6 11.5
30 1 -2 87.79 33.2
30 -1 -2 112.39 26
30 1 -1 46.1 28.7
30 -1 -1 47.7 20.7
-30 1 0 0.7 12
30 1 0 40.9 24.7
30 -1 0 14.4 16.5
30 1 1 32.7 18.2
30 -1 1 -8 14.1
30 1 2 14.8 15.3
30 -1 2 -8 14
30 1 3 -5.1 13.3
30 -1 3 -4.3 14.1
-30 2 4 -3 11.4
-30 -2 4 22.5 16
30 2 -3 -8 22.4
-30 2 3 -9.1 10.9
-30 -2 3 7.3 14
30 -2 -3 -17.6 7.8
30 2 -2 -51.59 28.6
30 2 -1 51.29 48.3
-30 2 1 29.1 13.4
30 -2 -1 -1 14.7
30 2 0 -14.2 20.7
-30 2 0 -14.8 21
30 -2 0 -19 13.5
-30 2 -1 21.2 15.8
30 2 1 16 18.5
30 -2 1 10.3 14.6
30 2 2 -10.9 15.5
30 2 3 15.9 16.1
30 -2 3 -15.6 12
-30 3 3 37.1 14.5
30 3 -3 26.8 27
-30 3 2 -24.8 8.7
30 3 -2 10.9 28.9
30 3 -1 -61.29 23
30 -3 -1 11.2 12.9
30 3 0 -10 23.1
30 -3 0 22.1 15.4
30 3 1 -25.5 18.5
30 -3 1 3.9 14.8
30 3 2 -17.2 15.1
-30 4 2 23.4 14
30 4 -2 -13.2 28
-30 4 1 7.4 11.3
30 4 -1 7.7 28.2
30 -4 -1 -6.3 8.6
30 4 0 -19.4 23.6
30 -4 0 13.6 14.8
30 4 1 -36.7 19.5
31 0 -3 -8.2 17.5
-31 0 3 4.9 11.6
31 0 -2 -3.3 25.7
-31 0 1 6.5 12.4
31 0 -1 -33 22.2
31 0 0 9.1 16.8
31 0 1 10.6 15.3
31 0 2 13.5 15.9
-31 1 3 -4 9.5
31 1 -3 15 22.6
31 -1 -3 -12.2 10.1
-31 -1 3 19.4 13.7
31 1 -2 12.4 29.6
31 -1 -2 13.2 20.1
-31 -1 2 22.6 15.2
31 1 -1 39.1 28.3
31 -1 -1 -14.1 17.2
31 1 0 -18.4 18.2
-31 1 0 16 14.3
31 -1 0 -1.7 17.5
31 1 1 -25.6 16.2
31 -1 1 3.8 18.9
31 1 2 7.8 15.9
31 -1 2 1.9 17.5
-31 2 3 -0.2 12.6
31 2 -3 -36.6 22.2
31 2 -2 -32 42.6
31 -2 -2 -13.4 9.3
31 2 -1 -38 25.1
31 -2 -1 0 15.6
-31 2 0 12.5 13.9
31 2 0 -4.8 22.6
31 -2 0 14.4 16.2
31 2 1 16.8 19.8
31 -2 1 -12.8 13.1
31 2 2 15.7 18.4
31 -2 2 52.19 20.9
31 3 -1 -7.6 28.3
31 3 0 -46.4 24.5
31 -3 0 -8.2 13.7
32 0 -1 -13.8 23.2
-32 0 1 19.9 13.9
-32 1 1 18.6 14
32 -1 -1 18.9 21.7
-32 1 0 25.6 19.2
32 1 0 4.4 22.5
32 -1 0 -7 15.8
