#------------------------------------------------------------------------------
#$Date: 2024-02-04 13:35:58 +0200 (Sun, 04 Feb 2024) $
#$Revision: 289434 $
#$URL: file:///home/coder/svn-repositories/cod/cif/1/57/05/1570529.cif $
#------------------------------------------------------------------------------
#
# This file is available in the Crystallography Open Database (COD),
# http://www.crystallography.net/
#
# All data on this site have been placed in the public domain by the
# contributors.
#
data_1570529
loop_
_publ_author_name
'Sun, Zhen'
'Xu, Wan'
'Qiu, Shuai'
'Ma, Zhiying'
'Li, Chunli'
'Zhang, Sheng'
'Wang, Hua'
_publ_section_title
;
 Thia[<i>n</i>]helicenes with long persistent phosphorescence.
;
_journal_issue                   3
_journal_name_full               'Chemical science'
_journal_page_first              1077
_journal_page_last               1087
_journal_paper_doi               10.1039/d3sc05480b
_journal_volume                  15
_journal_year                    2024
_chemical_formula_moiety         'C19 H16 S3 Si'
_chemical_formula_sum            'C19 H16 S3 Si'
_chemical_formula_weight         368.59
_space_group_crystal_system      orthorhombic
_space_group_IT_number           61
_space_group_name_Hall           '-P 2ac 2ab'
_space_group_name_H-M_alt        'P b c a'
_atom_sites_solution_hydrogens   geom
_atom_sites_solution_primary     dual
_audit_creation_date             2020-10-15
_audit_creation_method
; 
Olex2 1.2 
(compiled 2018.05.29 svn.r3508 for OlexSys, GUI svn.r5506) 
;
_audit_update_record
;
2022-12-11 deposited with the CCDC.	2023-12-08 downloaded from the CCDC.
;
_cell_angle_alpha                90
_cell_angle_beta                 90
_cell_angle_gamma                90
_cell_formula_units_Z            8
_cell_length_a                   12.8509(2)
_cell_length_b                   12.4040(2)
_cell_length_c                   21.8020(4)
_cell_measurement_reflns_used    9470
_cell_measurement_temperature    150(2)
_cell_measurement_theta_max      28.313
_cell_measurement_theta_min      2.950
_cell_volume                     3475.29(10)
_computing_cell_refinement       'SAINT V8.38A (?, 2016)'
_computing_data_collection       'Bruker XSCANS'
_computing_data_reduction        'SAINT V8.38A (?, 2016)'
_computing_molecular_graphics    'Olex2 (Dolomanov et al., 2009)'
_computing_publication_material  'Olex2 (Dolomanov et al., 2009)'
_computing_structure_refinement  'ShelXL (Sheldrick, 2015)'
_computing_structure_solution    'ShelXT (Sheldrick, 2015)'
_diffrn_ambient_temperature      150.0
_diffrn_measured_fraction_theta_full 0.999
_diffrn_measured_fraction_theta_max 0.998
_diffrn_measurement_device_type  'Bruker P4'
_diffrn_measurement_method       '\w scans'
_diffrn_radiation_monochromator  graphite
_diffrn_radiation_type           MoK\a
_diffrn_radiation_wavelength     0.71073
_diffrn_reflns_av_R_equivalents  0.0393
_diffrn_reflns_av_unetI/netI     0.0263
_diffrn_reflns_Laue_measured_fraction_full 0.999
_diffrn_reflns_Laue_measured_fraction_max 0.998
_diffrn_reflns_limit_h_max       16
_diffrn_reflns_limit_h_min       -17
_diffrn_reflns_limit_k_max       16
_diffrn_reflns_limit_k_min       -15
_diffrn_reflns_limit_l_max       29
_diffrn_reflns_limit_l_min       -28
_diffrn_reflns_number            26331
_diffrn_reflns_point_group_measured_fraction_full 0.999
_diffrn_reflns_point_group_measured_fraction_max 0.998
_diffrn_reflns_theta_full        25.242
_diffrn_reflns_theta_max         28.313
_diffrn_reflns_theta_min         2.450
_exptl_absorpt_coefficient_mu    0.491
_exptl_absorpt_correction_T_max  0.7457
_exptl_absorpt_correction_T_min  0.6855
_exptl_absorpt_correction_type   multi-scan
_exptl_absorpt_process_details
'SADABS-2016/2 (Bruker,2016/2) was used for absorption correction. wR2(int) was 0.0964 before and 0.0619 after correction. The Ratio of minimum to maximum transmission is 0.9193. The \l/2 correction factor is Not present.'
_exptl_crystal_colour            colourless
_exptl_crystal_colour_primary    colourless
_exptl_crystal_density_diffrn    1.409
_exptl_crystal_description       block
_exptl_crystal_F_000             1536
_exptl_crystal_size_max          0.15
_exptl_crystal_size_mid          0.12
_exptl_crystal_size_min          0.07
_refine_diff_density_max         0.320
_refine_diff_density_min         -0.234
_refine_diff_density_rms         0.054
_refine_ls_extinction_method     none
_refine_ls_goodness_of_fit_ref   1.042
_refine_ls_hydrogen_treatment    constr
_refine_ls_matrix_type           full
_refine_ls_number_parameters     211
_refine_ls_number_reflns         4321
_refine_ls_number_restraints     0
_refine_ls_restrained_S_all      1.042
_refine_ls_R_factor_all          0.0401
_refine_ls_R_factor_gt           0.0304
_refine_ls_shift/su_max          0.001
_refine_ls_shift/su_mean         0.000
_refine_ls_structure_factor_coef Fsqd
_refine_ls_weighting_details
'w=1/[\s^2^(Fo^2^)+(0.0319P)^2^+1.8476P] where P=(Fo^2^+2Fc^2^)/3'
_refine_ls_weighting_scheme      calc
_refine_ls_wR_factor_gt          0.0714
_refine_ls_wR_factor_ref         0.0774
_reflns_Friedel_coverage         0.000
_reflns_number_gt                3678
_reflns_number_total             4321
_reflns_threshold_expression     'I > 2\s(I)'
_iucr_refine_instructions_details
; 
TITL a_a.res in Pbca 
    a.res 
    created by SHELXL-2018/3 at 18:41:53 on 15-Oct-2020 
REM Old TITL a in Pbca 
REM SHELXT solution in Pbca: R1 0.096, Rweak 0.002, Alpha 0.013 
REM <I/s> 0.392 for 445 systematic absences, Orientation as input 
REM Formula found by SHELXT: C19 Si S3 
CELL 0.71073 12.8509 12.404 21.802 90 90 90 
ZERR 8 0.0002 0.0002 0.0004 0 0 0 
LATT 1 
SYMM 0.5-X,-Y,0.5+Z 
SYMM -X,0.5+Y,0.5-Z 
SYMM 0.5+X,0.5-Y,-Z 
SFAC C H S Si 
UNIT 152 128 24 8 
  
L.S. 20 0 0 
PLAN  20 
SIZE 0.15 0.12 0.07 
TEMP -123.15 
list 4 
fmap 2 53 
ACTA 
REM <olex2.extras> 
REM <HklSrc "%.\\a.hkl"> 
REM </olex2.extras> 
  
WGHT    0.031900    1.847600 
FVAR       0.33662 
S1    3    0.560630    0.129263    0.312042    11.00000    0.03120    0.02078 = 
         0.02118   -0.00447    0.00482   -0.00560 
S2    3    0.443293    0.082185    0.435047    11.00000    0.03263    0.01910 = 
         0.02098   -0.00046    0.00306   -0.00689 
S3    3    0.409613    0.192803    0.561270    11.00000    0.03004    0.02464 = 
         0.01905    0.00072    0.00371   -0.00549 
SI1   4    0.706521    0.290504    0.239882    11.00000    0.01975    0.02252 = 
         0.01923   -0.00156    0.00151   -0.00298 
C1    1    0.635769    0.294917    0.366739    11.00000    0.02088    0.01910 = 
         0.02074   -0.00060    0.00030   -0.00164 
AFIX  43 
H1    2    0.673379    0.359312    0.374799    11.00000   -1.20000 
AFIX   0 
C2    1    0.637969    0.244571    0.311137    11.00000    0.02267    0.01905 = 
         0.02336   -0.00090    0.00143   -0.00182 
C3    1    0.572190    0.243027    0.412147    11.00000    0.01809    0.01646 = 
         0.01943    0.00055   -0.00089    0.00134 
C4    1    0.526708    0.151457    0.387043    11.00000    0.02424    0.01862 = 
         0.01909    0.00060    0.00215   -0.00134 
C5    1    0.537796    0.258398    0.475106    11.00000    0.01809    0.01760 = 
         0.02074    0.00176   -0.00104    0.00189 
C6    1    0.468297    0.177633    0.490913    11.00000    0.02471    0.01956 = 
         0.01882    0.00223    0.00073    0.00017 
C7    1    0.546009    0.337245    0.524409    11.00000    0.01859    0.01940 = 
         0.01684    0.00107   -0.00246    0.00330 
C8    1    0.477730    0.312721    0.572473    11.00000    0.02160    0.02139 = 
         0.02055    0.00083   -0.00260    0.00021 
C9    1    0.462734    0.379976    0.623726    11.00000    0.02616    0.03065 = 
         0.01878    0.00024    0.00092    0.00130 
AFIX  43 
H9    2    0.415718    0.360109    0.655395    11.00000   -1.20000 
AFIX   0 
C10   1    0.517065    0.474203    0.626983    11.00000    0.02673    0.02786 = 
         0.02107   -0.00541   -0.00233    0.00474 
AFIX  43 
H10   2    0.505253    0.521902    0.660355    11.00000   -1.20000 
AFIX   0 
C11   1    0.591099    0.502219    0.581247    11.00000    0.02189    0.02107 = 
         0.02174   -0.00104   -0.00720    0.00422 
C12   1    0.608652    0.432751    0.530142    11.00000    0.01967    0.01814 = 
         0.01944    0.00027   -0.00585    0.00351 
C13   1    0.687584    0.460847    0.488272    11.00000    0.02250    0.02500 = 
         0.02174   -0.00165   -0.00283   -0.00044 
AFIX  43 
H13   2    0.702206    0.413902    0.454939    11.00000   -1.20000 
AFIX   0 
C14   1    0.743953    0.554248    0.494336    11.00000    0.02380    0.03029 = 
         0.02661    0.00096   -0.00343   -0.00524 
AFIX  43 
H14   2    0.796780    0.571119    0.465405    11.00000   -1.20000 
AFIX   0 
C15   1    0.723664    0.624949    0.543256    11.00000    0.02780    0.02209 = 
         0.03107    0.00012   -0.01048   -0.00356 
AFIX  43 
H15   2    0.761276    0.690584    0.546826    11.00000   -1.20000 
AFIX   0 
C16   1    0.649583    0.598810    0.585646    11.00000    0.02799    0.02217 = 
         0.02591   -0.00493   -0.00911    0.00243 
AFIX  43 
H16   2    0.636939    0.646539    0.618899    11.00000   -1.20000 
AFIX   0 
C17   1    0.822232    0.368157    0.265638    11.00000    0.03658    0.04507 = 
         0.03012    0.00267   -0.00407   -0.01920 
AFIX 137 
H17A  2    0.855484    0.402184    0.230120    11.00000   -1.50000 
H17B  2    0.871752    0.319345    0.285571    11.00000   -1.50000 
H17C  2    0.800473    0.423886    0.294805    11.00000   -1.50000 
AFIX   0 
C18   1    0.745340    0.169669    0.194856    11.00000    0.03600    0.03143 = 
         0.03668   -0.00663    0.01332   -0.00372 
AFIX 137 
H18A  2    0.683779    0.125445    0.186444    11.00000   -1.50000 
H18B  2    0.795901    0.127358    0.218368    11.00000   -1.50000 
H18C  2    0.776795    0.192534    0.156029    11.00000   -1.50000 
AFIX   0 
C19   1    0.618045    0.378350    0.194702    11.00000    0.02841    0.04526 = 
         0.03077    0.00736    0.00274    0.00483 
AFIX 137 
H19A  2    0.655948    0.408606    0.159701    11.00000   -1.50000 
H19B  2    0.592509    0.437040    0.220759    11.00000   -1.50000 
H19C  2    0.559000    0.335750    0.179809    11.00000   -1.50000 
AFIX   0 
HKLF 4 
  
  
  
  
REM  a_a.res in Pbca 
REM wR2 = 0.0774, GooF = S = 1.042, Restrained GooF = 1.042 for all data 
REM R1 = 0.0304 for 3678 Fo > 4sig(Fo) and 0.0401 for all 4321 data 
REM 211 parameters refined using 0 restraints 
  
END 
  
WGHT      0.0319      1.8476 
  
REM Highest difference peak  0.320,  deepest hole -0.234,  1-sigma level  0.054 
Q1    1   0.5778  0.3863  0.5251  11.00000  0.05    0.32 
Q2    1   0.6102  0.5576  0.5801  11.00000  0.05    0.31 
Q3    1   0.5483  0.4822  0.6000  11.00000  0.05    0.31 
Q4    1   0.7613  0.3414  0.2582  11.00000  0.05    0.31 
Q5    1   0.6693  0.6200  0.5587  11.00000  0.05    0.29 
Q6    1   0.5040  0.2228  0.4811  11.00000  0.05    0.28 
Q7    1   0.5501  0.3106  0.5009  11.00000  0.05    0.28 
Q8    1   0.4917  0.3361  0.5417  11.00000  0.05    0.28 
Q9    1   0.5264  0.3196  0.5564  11.00000  0.05    0.27 
Q10   1   0.6007  0.4625  0.5575  11.00000  0.05    0.27 
Q11   1   0.6155  0.2630  0.3932  11.00000  0.05    0.26 
Q12   1   0.5418  0.1381  0.3619  11.00000  0.05    0.26 
Q13   1   0.7343  0.2199  0.2222  11.00000  0.05    0.25 
Q14   1   0.6716  0.2551  0.2823  11.00000  0.05    0.25 
Q15   1   0.5438  0.2011  0.3975  11.00000  0.05    0.24 
Q16   1   0.4971  0.1146  0.4047  11.00000  0.05    0.24 
Q17   1   0.7444  0.5858  0.5214  11.00000  0.05    0.24 
Q18   1   0.6422  0.3237  0.2153  11.00000  0.05    0.23 
Q19   1   0.5672  0.2587  0.4424  11.00000  0.05    0.22 
Q20   1   0.3676  0.1206  0.4203  11.00000  0.05    0.22 
  
  REM The information below was added by Olex2. 
  REM 
  REM R1 = 0.0304 for 3678 Fo > 4sig(Fo) and 0.0401 for all 28056 data 
  REM n/a parameters refined using n/a restraints 
  REM Highest difference peak 0.32, deepest hole -0.23 
  REM Mean Shift 0, Max Shift -0.001. 
  
  REM +++ Tabular Listing of Refinement Information +++ 
  REM R1_all = 0.0401 
  REM R1_gt = 0.0304 
  REM wR_ref = 0.0774 
  REM GOOF = 1.042 
  REM Shift_max = -0.001 
  REM Shift_mean = 0 
  REM Reflections_all = 28056 
  REM Reflections_gt = 3678 
  REM Parameters = n/a 
  REM Hole = -0.23 
  REM Peak = 0.32 
  REM Flack = n/a 
  
  
;
_cod_data_source_file            d3sc05480b2.cif
_cod_data_source_block           TB[5]H
_cod_depositor_comments
'Adding full bibliography for 1570529--1570532.cif.'
_cod_database_code               1570529
_shelx_shelxl_version_number     2018/3
_shelx_space_group_comment
; 
The symmetry employed for this shelxl refinement is uniquely defined 
by the following loop, which should always be used as a source of 
symmetry information in preference to the above space-group names. 
They are only intended as comments. 
;
_shelx_estimated_absorpt_t_max   0.966
_shelx_estimated_absorpt_t_min   0.930
_olex2_refinement_description
; 
1. Fixed Uiso 
 At 1.2 times of: 
  All C(H) groups 
 At 1.5 times of: 
  All C(H,H,H) groups 
2.a Aromatic/amide H refined with riding coordinates: 
 C1(H1), C9(H9), C10(H10), C13(H13), C14(H14), C15(H15), C16(H16) 
2.b Idealised Me refined as rotating group: 
 C17(H17A,H17B,H17C), C18(H18A,H18B,H18C), C19(H19A,H19B,H19C) 
;
_olex2_submission_special_instructions 'No special instructions were received'
loop_
_space_group_symop_operation_xyz
'x, y, z'
'-x+1/2, -y, z+1/2'
'-x, y+1/2, -z+1/2'
'x+1/2, -y+1/2, -z'
'-x, -y, -z'
'x-1/2, y, -z-1/2'
'x, -y-1/2, z-1/2'
'-x-1/2, y-1/2, z'
loop_
_atom_site_label
_atom_site_type_symbol
_atom_site_fract_x
_atom_site_fract_y
_atom_site_fract_z
_atom_site_U_iso_or_equiv
_atom_site_adp_type
_atom_site_occupancy
_atom_site_site_symmetry_order
_atom_site_calc_flag
_atom_site_refinement_flags_posn
_atom_site_refinement_flags_adp
_atom_site_refinement_flags_occupancy
_atom_site_disorder_assembly
_atom_site_disorder_group
S1 S 0.56063(3) 0.12926(3) 0.31204(2) 0.02439(10) Uani 1 1 d . . . . .
S2 S 0.44329(3) 0.08218(3) 0.43505(2) 0.02424(10) Uani 1 1 d . . . . .
S3 S 0.40961(3) 0.19280(3) 0.56127(2) 0.02458(10) Uani 1 1 d . . . . .
Si1 Si 0.70652(3) 0.29050(3) 0.23988(2) 0.02050(10) Uani 1 1 d . . . . .
C1 C 0.63577(11) 0.29492(12) 0.36674(7) 0.0202(3) Uani 1 1 d . . . . .
H1 H 0.673379 0.359312 0.374799 0.024 Uiso 1 1 calc R . . . .
C2 C 0.63797(12) 0.24457(12) 0.31114(7) 0.0217(3) Uani 1 1 d . . . . .
C3 C 0.57219(11) 0.24303(11) 0.41215(7) 0.0180(3) Uani 1 1 d . . . . .
C4 C 0.52671(12) 0.15146(12) 0.38704(7) 0.0207(3) Uani 1 1 d . . . . .
C5 C 0.53780(11) 0.25840(11) 0.47511(7) 0.0188(3) Uani 1 1 d . . . . .
C6 C 0.46830(12) 0.17763(12) 0.49091(7) 0.0210(3) Uani 1 1 d . . . . .
C7 C 0.54601(11) 0.33725(12) 0.52441(7) 0.0183(3) Uani 1 1 d . . . . .
C8 C 0.47773(12) 0.31272(12) 0.57247(7) 0.0212(3) Uani 1 1 d . . . . .
C9 C 0.46273(12) 0.37998(13) 0.62373(8) 0.0252(3) Uani 1 1 d . . . . .
H9 H 0.415718 0.360109 0.655395 0.030 Uiso 1 1 calc R . . . .
C10 C 0.51707(12) 0.47420(13) 0.62698(8) 0.0252(3) Uani 1 1 d . . . . .
H10 H 0.505253 0.521902 0.660355 0.030 Uiso 1 1 calc R . . . .
C11 C 0.59110(12) 0.50222(12) 0.58125(7) 0.0216(3) Uani 1 1 d . . . . .
C12 C 0.60865(11) 0.43275(11) 0.53014(7) 0.0191(3) Uani 1 1 d . . . . .
C13 C 0.68758(11) 0.46085(12) 0.48827(7) 0.0231(3) Uani 1 1 d . . . . .
H13 H 0.702206 0.413902 0.454939 0.028 Uiso 1 1 calc R . . . .
C14 C 0.74395(13) 0.55425(13) 0.49434(8) 0.0269(3) Uani 1 1 d . . . . .
H14 H 0.796780 0.571119 0.465405 0.032 Uiso 1 1 calc R . . . .
C15 C 0.72366(13) 0.62495(13) 0.54326(8) 0.0270(3) Uani 1 1 d . . . . .
H15 H 0.761276 0.690584 0.546826 0.032 Uiso 1 1 calc R . . . .
C16 C 0.64958(13) 0.59881(12) 0.58565(8) 0.0254(3) Uani 1 1 d . . . . .
H16 H 0.636939 0.646539 0.618899 0.030 Uiso 1 1 calc R . . . .
C17 C 0.82223(15) 0.36816(16) 0.26564(9) 0.0373(4) Uani 1 1 d . . . . .
H17A H 0.855484 0.402184 0.230120 0.056 Uiso 1 1 calc GR . . . .
H17B H 0.871752 0.319345 0.285571 0.056 Uiso 1 1 calc GR . . . .
H17C H 0.800473 0.423886 0.294805 0.056 Uiso 1 1 calc GR . . . .
C18 C 0.74534(15) 0.16967(14) 0.19486(9) 0.0347(4) Uani 1 1 d . . . . .
H18A H 0.683779 0.125445 0.186444 0.052 Uiso 1 1 calc GR . . . .
H18B H 0.795901 0.127358 0.218368 0.052 Uiso 1 1 calc GR . . . .
H18C H 0.776795 0.192534 0.156029 0.052 Uiso 1 1 calc GR . . . .
C19 C 0.61805(14) 0.37835(16) 0.19470(9) 0.0348(4) Uani 1 1 d . . . . .
H19A H 0.655948 0.408606 0.159701 0.052 Uiso 1 1 calc GR . . . .
H19B H 0.592509 0.437040 0.220759 0.052 Uiso 1 1 calc GR . . . .
H19C H 0.559000 0.335750 0.179809 0.052 Uiso 1 1 calc GR . . . .
loop_
_atom_site_aniso_label
_atom_site_aniso_U_11
_atom_site_aniso_U_22
_atom_site_aniso_U_33
_atom_site_aniso_U_23
_atom_site_aniso_U_13
_atom_site_aniso_U_12
S1 0.0312(2) 0.02078(18) 0.0212(2) -0.00447(15) 0.00482(15) -0.00560(15)
S2 0.0326(2) 0.01910(18) 0.0210(2) -0.00046(14) 0.00306(15) -0.00689(15)
S3 0.0300(2) 0.02464(19) 0.0191(2) 0.00072(15) 0.00371(15) -0.00549(15)
Si1 0.01975(19) 0.0225(2) 0.0192(2) -0.00156(16) 0.00151(16) -0.00298(15)
C1 0.0209(7) 0.0191(7) 0.0207(8) -0.0006(6) 0.0003(6) -0.0016(5)
C2 0.0227(7) 0.0191(7) 0.0234(8) -0.0009(6) 0.0014(6) -0.0018(6)
C3 0.0181(6) 0.0165(6) 0.0194(8) 0.0006(5) -0.0009(5) 0.0013(5)
C4 0.0242(7) 0.0186(7) 0.0191(8) 0.0006(6) 0.0022(6) -0.0013(6)
C5 0.0181(7) 0.0176(7) 0.0207(8) 0.0018(6) -0.0010(5) 0.0019(5)
C6 0.0247(7) 0.0196(7) 0.0188(8) 0.0022(6) 0.0007(6) 0.0002(6)
C7 0.0186(7) 0.0194(7) 0.0168(8) 0.0011(6) -0.0025(5) 0.0033(5)
C8 0.0216(7) 0.0214(7) 0.0205(8) 0.0008(6) -0.0026(6) 0.0002(6)
C9 0.0262(8) 0.0307(8) 0.0188(8) 0.0002(6) 0.0009(6) 0.0013(6)
C10 0.0267(8) 0.0279(8) 0.0211(8) -0.0054(6) -0.0023(6) 0.0047(6)
C11 0.0219(7) 0.0211(7) 0.0217(8) -0.0010(6) -0.0072(6) 0.0042(6)
C12 0.0197(7) 0.0181(7) 0.0194(8) 0.0003(6) -0.0059(5) 0.0035(5)
C13 0.0225(7) 0.0250(7) 0.0217(8) -0.0017(6) -0.0028(6) -0.0004(6)
C14 0.0238(7) 0.0303(8) 0.0266(9) 0.0010(7) -0.0034(6) -0.0052(6)
C15 0.0278(8) 0.0221(7) 0.0311(9) 0.0001(6) -0.0105(7) -0.0036(6)
C16 0.0280(8) 0.0222(7) 0.0259(9) -0.0049(6) -0.0091(6) 0.0024(6)
C17 0.0366(9) 0.0451(11) 0.0301(10) 0.0027(8) -0.0041(8) -0.0192(8)
C18 0.0360(9) 0.0314(9) 0.0367(10) -0.0066(8) 0.0133(8) -0.0037(7)
C19 0.0284(9) 0.0453(10) 0.0308(10) 0.0074(8) 0.0027(7) 0.0048(8)
loop_
_atom_type_symbol
_atom_type_description
_atom_type_scat_dispersion_real
_atom_type_scat_dispersion_imag
_atom_type_scat_source
C C 0.0033 0.0016 'International Tables Vol C Tables 4.2.6.8 and 6.1.1.4'
H H 0.0000 0.0000 'International Tables Vol C Tables 4.2.6.8 and 6.1.1.4'
S S 0.1246 0.1234 'International Tables Vol C Tables 4.2.6.8 and 6.1.1.4'
Si Si 0.0817 0.0704 'International Tables Vol C Tables 4.2.6.8 and 6.1.1.4'
loop_
_geom_angle_atom_site_label_1
_geom_angle_atom_site_label_2
_geom_angle_atom_site_label_3
_geom_angle
_geom_angle_site_symmetry_1
_geom_angle_site_symmetry_3
_geom_angle_publ_flag
C4 S1 C2 91.38(7) . . ?
C4 S2 C6 88.33(7) . . ?
C6 S3 C8 89.89(7) . . ?
C17 Si1 C2 106.45(8) . . ?
C17 Si1 C18 111.26(9) . . ?
C18 Si1 C2 108.57(7) . . ?
C19 Si1 C2 109.28(8) . . ?
C19 Si1 C17 110.24(9) . . ?
C19 Si1 C18 110.92(9) . . ?
C2 C1 C3 114.79(13) . . ?
S1 C2 Si1 121.81(9) . . ?
C1 C2 S1 110.74(11) . . ?
C1 C2 Si1 127.38(11) . . ?
C1 C3 C5 139.88(13) . . ?
C4 C3 C1 109.52(13) . . ?
C4 C3 C5 110.55(13) . . ?
S1 C4 S2 130.99(9) . . ?
C3 C4 S1 113.57(11) . . ?
C3 C4 S2 115.41(12) . . ?
C3 C5 C7 139.65(13) . . ?
C6 C5 C3 109.62(13) . . ?
C6 C5 C7 110.39(13) . . ?
S3 C6 S2 128.46(9) . . ?
C5 C6 S2 116.09(12) . . ?
C5 C6 S3 115.18(12) . . ?
C8 C7 C5 111.15(13) . . ?
C8 C7 C12 117.70(13) . . ?
C12 C7 C5 131.13(14) . . ?
C7 C8 S3 113.28(11) . . ?
C7 C8 C9 123.44(14) . . ?
C9 C8 S3 123.24(12) . . ?
C10 C9 C8 118.64(15) . . ?
C9 C10 C11 121.06(15) . . ?
C10 C11 C12 120.41(14) . . ?
C16 C11 C10 120.94(15) . . ?
C16 C11 C12 118.66(15) . . ?
C11 C12 C7 118.50(14) . . ?
C13 C12 C7 123.42(14) . . ?
C13 C12 C11 118.08(14) . . ?
C14 C13 C12 121.77(15) . . ?
C13 C14 C15 120.13(16) . . ?
C16 C15 C14 119.65(15) . . ?
C15 C16 C11 121.63(15) . . ?
loop_
_geom_bond_atom_site_label_1
_geom_bond_atom_site_label_2
_geom_bond_distance
_geom_bond_site_symmetry_2
_geom_bond_publ_flag
S1 C2 1.7418(15) . ?
S1 C4 1.7145(16) . ?
S2 C4 1.7271(15) . ?
S2 C6 1.7287(16) . ?
S3 C6 1.7196(16) . ?
S3 C8 1.7431(16) . ?
Si1 C2 1.8746(16) . ?
Si1 C17 1.8586(17) . ?
Si1 C18 1.8598(17) . ?
Si1 C19 1.8575(18) . ?
C1 C2 1.364(2) . ?
C1 C3 1.436(2) . ?
C3 C4 1.390(2) . ?
C3 C5 1.455(2) . ?
C5 C6 1.386(2) . ?
C5 C7 1.457(2) . ?
C7 C8 1.400(2) . ?
C7 C12 1.438(2) . ?
C8 C9 1.408(2) . ?
C9 C10 1.363(2) . ?
C10 C11 1.421(2) . ?
C11 C12 1.426(2) . ?
C11 C16 1.418(2) . ?
C12 C13 1.408(2) . ?
C13 C14 1.373(2) . ?
C14 C15 1.405(2) . ?
C15 C16 1.366(2) . ?
loop_
_refln_index_h
_refln_index_k
_refln_index_l
_refln_F_squared_meas
_refln_F_squared_sigma
0 -2 0 4339.57 91.59
0 2 0 4363.16 90.99
0 3 0 2.4 1.4
0 -3 0 1.4 1
0 3 0 1.7 0.9
0 -3 0 1.6 1.2
0 4 0 2408.86 28
0 4 0 2368.66 33.6
0 -4 0 2382.26 33.5
0 -4 0 2386.66 29.5
0 -5 0 0.1 1.3
0 5 0 3.3 1.7
0 -5 0 1.9 1.1
0 5 0 1.6 1
0 6 0 3.3 2
0 -6 0 2.8 2
0 6 0 2.4 1.4
0 -6 0 2.4 1.6
0 7 0 0.6 1
0 -7 0 0.8 1.4
0 7 0 0.4 1.3
0 -7 0 1.5 1.3
0 8 0 36.5 3.4
0 -8 0 28.4 5.2
0 8 0 35.5 6.1
0 -8 0 36.4 5
0 9 0 0.7 1.1
0 -9 0 -1.1 1.2
0 -9 0 0.3 2.1
0 9 0 0.9 1.9
0 10 0 300.37 16
0 10 0 257.27 9
0 -10 0 272.77 12.8
0 -10 0 263.37 14.8
0 -11 0 2.1 2.9
0 -11 0 -2.3 2.2
0 11 0 -1.2 1.1
0 11 0 0.7 2.4
0 12 0 88.09 5.3
0 12 0 95.89 5.3
0 12 0 92.59 10.1
0 -12 0 81.39 11.4
0 -12 0 103.19 10.5
0 13 0 0.4 1.1
0 13 0 4.8 3.8
0 13 0 0.8 1.1
-1 1 0 0.1 0.3
-1 1 0 0.1 0.3
-1 -1 0 0.2 0.2
-1 -2 0 0.8 0.8
-1 2 0 -0.6 0.6
1 2 0 -0.4 0.5
-1 2 0 0.8 0.9
1 -2 0 0.4 0.8
1 -2 0 0 0.7
-1 -3 0 2 0.7
-1 -3 0 -0.3 1
1 -3 0 -1.2 0.9
1 3 0 -0.5 0.8
-1 3 0 -0.6 1
-1 3 0 3.1 1.4
1 3 0 0.2 0.3
1 -3 0 -1.2 0.9
1 -4 0 1.1 1.1
-1 -4 0 0.1 0.5
1 4 0 1.2 0.9
1 4 0 -0.3 0.3
-1 4 0 -0.4 0.7
-1 4 0 -1 0.6
1 -4 0 -0.4 0.8
-1 -4 0 0 0.7
1 4 0 0.3 0.4
-1 -5 0 -0.8 1
1 -5 0 -1.1 0.9
1 -5 0 -0.5 0.9
1 5 0 0.6 0.6
1 5 0 0 1
-1 5 0 0.8 1.3
-1 5 0 -0.2 0.8
-1 6 0 1.1 1.3
-1 -6 0 -0.1 1.3
-1 -6 0 0.7 1.1
1 6 0 -0.7 0.6
1 -6 0 1 1.6
1 -6 0 -0.5 1.1
-1 6 0 -0.7 1.2
1 6 0 1 1.8
-1 7 0 -1.3 1.1
1 7 0 0.5 0.7
-1 -7 0 -1.1 0.9
1 -7 0 0.7 1.4
1 7 0 -2.7 1
-1 7 0 -0.5 1
1 -7 0 -0.2 1.4
-1 -7 0 -0.6 1.4
1 7 0 0.6 0.7
-1 8 0 -0.2 1.1
1 -8 0 1.5 2.1
1 -8 0 -2.2 1.2
-1 -8 0 0.7 1.4
-1 -8 0 1.7 1.9
1 8 0 0 0.7
-1 8 0 -0.1 1.8
1 8 0 -0.9 0.6
1 9 0 -0.6 0.7
1 -9 0 -0.4 2
-1 9 0 0.6 1.4
1 9 0 -0.1 1.7
-1 -9 0 0.1 1.7
-1 -9 0 0.4 1.6
1 9 0 -0.4 0.6
1 -9 0 -0.2 1.4
-1 9 0 1.9 2.1
1 -10 0 2.9 2.7
1 10 0 0.6 0.7
-1 10 0 1.2 2.8
-1 -10 0 -0.5 1.8
1 10 0 0.7 1.8
1 10 0 0.1 0.7
-1 10 0 0.2 1.5
1 -10 0 0.4 1.4
-1 -10 0 4.5 2.1
1 11 0 4.3 2.9
-1 11 0 -1.2 1.4
-1 -11 0 -3.3 1.9
1 -11 0 0.5 2.5
1 11 0 -0.2 0.5
1 -11 0 -0.8 2.1
-1 11 0 -1.3 2.8
-1 -11 0 1.7 2.3
1 12 0 0.2 2.7
-1 12 0 -0.9 1.4
-1 12 0 -1.9 2.6
1 -12 0 4.1 2.9
-1 -12 0 3.1 3.3
-1 -12 0 -1.6 2.4
-1 13 0 -2 1.6
1 13 0 0.1 2.5
-1 13 0 -6.9 2.2
-1 14 0 3.1 1.7
-1 14 0 -2.7 2
1 14 0 4.2 3.6
-1 14 0 -1.2 3.1
-1 15 0 -0.6 3.4
-1 15 0 0 1.5
-1 15 0 0.8 1.8
2 0 0 5365.86 102.69
-2 0 0 5769.82 100.69
-2 1 0 935.61 13.9
2 -1 0 946.51 13.6
-2 1 0 919.91 13.4
2 2 0 63.29 2.7
2 -2 0 66.19 3.8
-2 -2 0 59.49 2.6
-2 2 0 55.49 3.6
2 -2 0 66.49 4
-2 3 0 809.22 16.6
2 -3 0 793.82 15.4
2 -3 0 798.52 16.5
-2 3 0 810.42 15.4
-2 -3 0 789.72 13.5
2 3 0 802.02 13.6
-2 -4 0 457.75 7
-2 -4 0 494.85 11.8
-2 4 0 455.95 13.4
2 4 0 446.86 11.3
2 -4 0 485.45 12.6
-2 4 0 434.76 11.8
2 -4 0 455.75 13.4
-2 -5 0 488.15 13.3
2 5 0 503.15 13.6
-2 5 0 529.65 16
-2 -5 0 498.35 9.4
2 -5 0 517.55 14.1
2 -5 0 499.55 15.4
-2 5 0 501.45 13.4
2 -6 0 77.39 8.1
2 -6 0 85.09 6.2
-2 -6 0 104.29 4.8
-2 -6 0 94.59 6.4
-2 6 0 85.39 5.9
2 6 0 103.39 6.7
-2 -7 0 215.48 7.9
2 -7 0 207.58 10.2
2 7 0 227.88 10.9
-2 7 0 214.38 9.5
-2 -7 0 219.28 10.6
2 -7 0 225.88 12
-2 -8 0 115.59 6.5
-2 -8 0 111.59 8.2
-2 8 0 117.79 9.4
-2 8 0 115.19 7.3
2 -8 0 111.59 7.9
2 -8 0 113.79 9.4
2 8 0 107.39 8.1
-2 9 0 1700.63 39.5
2 -9 0 1655.83 34.4
2 9 0 1677.83 36.2
-2 -9 0 1684.33 30
2 -9 0 1641.24 38.3
-2 -9 0 1702.23 36.1
-2 9 0 1677.03 31.1
2 10 0 11.9 4.2
-2 -10 0 13.2 4.2
2 -10 0 19.1 4.7
-2 10 0 13.3 3.6
-2 -10 0 9.7 3.2
2 -10 0 14.8 4.7
-2 10 0 13.4 4.4
-2 -11 0 10.9 3.2
2 -11 0 13.2 4.9
2 -11 0 10.5 4.5
-2 11 0 8.1 4.2
-2 11 0 15.4 3.8
-2 -11 0 8.6 3.7
2 11 0 5.8 3.6
-2 12 0 480.75 23.4
-2 -12 0 492.85 21.8
-2 12 0 509.95 16.8
-2 -12 0 465.15 17.7
2 12 0 510.35 22.5
-2 13 0 241.68 11.6
2 13 0 238.38 16.1
-2 13 0 234.48 17
-2 14 0 15.5 3.5
-2 14 0 12.1 5.8
-2 15 0 12.8 5.9
-2 15 0 10.6 3.3
-2 15 0 4.3 3.5
-2 16 0 102.59 6.9
3 0 0 0 0.5
-3 0 0 -0.3 0.5
-3 1 0 1 0.9
3 -1 0 1.4 0.9
-3 1 0 1.7 1.2
-3 -2 0 0.3 0.4
-3 2 0 0.4 0.9
3 -2 0 0.2 0.8
-3 2 0 -0.7 0.9
3 -3 0 1.7 1.3
3 -3 0 0.5 1.1
-3 3 0 0.2 1
-3 3 0 -1.3 0.6
3 3 0 0.1 0.5
-3 -3 0 -0.4 0.4
-3 4 0 -0.1 1.1
3 -4 0 0.2 1
3 -4 0 -0.7 0.9
3 4 0 -1.3 0.5
-3 -4 0 0.1 0.7
-3 4 0 -0.7 1
3 -5 0 0.4 1.3
-3 -5 0 0.6 0.5
3 5 0 -0.7 0.7
-3 -5 0 -0.7 0.7
-3 5 0 -0.6 1.2
3 -5 0 2.5 1.9
-3 5 0 2.2 1.5
3 -6 0 -0.4 1.5
3 6 0 -0.1 1.1
-3 6 0 1.3 1.8
3 -6 0 -2.6 0.9
-3 6 0 0.8 1.5
-3 -6 0 0.8 1.2
-3 -6 0 1.7 0.8
-3 -7 0 -0.5 0.8
-3 -7 0 -1.1 0.8
-3 7 0 -0.6 1.3
3 7 0 -0.4 1.2
3 -7 0 -0.9 1.5
3 -7 0 -0.9 1.4
-3 7 0 -0.6 1.5
-3 -8 0 1.5 1.7
3 -8 0 0.1 1.7
-3 -8 0 -1 0.9
3 8 0 -1 1.3
-3 8 0 -1.1 1.8
3 -8 0 -0.4 1.7
-3 -9 0 0.9 1.9
3 -9 0 0.8 2
-3 -9 0 -2.6 1.2
3 9 0 0.3 1.9
-3 9 0 0.3 2.1
-3 9 0 -3.9 1.3
3 -9 0 -0.1 2.1
-3 -10 0 0.6 2.3
3 -10 0 -3.8 2
-3 10 0 -0.6 2.3
-3 10 0 -4.3 1.5
3 10 0 2.5 2.4
-3 -10 0 1.9 2
3 -10 0 -0.3 2.2
-3 11 0 -4.2 2.1
-3 -11 0 0.1 2.4
-3 -11 0 1.1 1.9
3 11 0 -2.5 2
-3 11 0 1 1.9
3 -11 0 3.1 3
-3 -12 0 -1.4 2.1
-3 -12 0 1.6 2.9
-3 12 0 0.8 3.2
3 12 0 -1.1 2.3
-3 12 0 1.5 2.3
-3 13 0 2.2 2
-3 -13 0 -2.1 2.3
-3 13 0 -2.6 3
-3 14 0 8.6 5.6
-3 14 0 0.5 2.4
-3 15 0 -0.9 3.3
-3 15 0 0.6 2.6
-3 16 0 2.2 2.8
4 0 0 290.27 5.9
-4 0 0 280.27 5.9
4 -1 0 182.88 6
-4 1 0 183.68 6.7
-4 1 0 181.78 6
-4 2 0 5.5 1.7
-4 2 0 6.6 1.8
4 -2 0 3.6 1.4
-4 3 0 321.37 10.8
-4 -3 0 309.17 6.3
-4 3 0 307.07 10.6
4 -3 0 322.17 10.8
-4 4 0 101.69 6.8
4 -4 0 97.99 6.7
-4 4 0 96.29 6.4
4 -4 0 100.29 6.4
-4 -4 0 92.79 4.3
-4 5 0 1139.09 25.8
4 5 0 1128.09 19.7
-4 5 0 1185.38 24.6
-4 -5 0 1172.28 20
4 -5 0 1127.59 24.2
4 -5 0 1130.49 25.6
4 6 0 287.67 10.3
-4 6 0 309.27 13.9
-4 -6 0 316.07 5.8
4 -6 0 292.37 13.4
4 -6 0 320.97 12.9
-4 6 0 315.87 12.7
-4 -6 0 321.07 5.7
-4 -6 0 299.07 10.4
-4 -7 0 1173.38 16.7
-4 7 0 1127.99 29.4
-4 -7 0 1103.09 23.4
4 7 0 1131.29 23.8
-4 7 0 1105.19 26.9
4 -7 0 1111.19 26.6
4 -7 0 1141.79 29.1
-4 8 0 17 4.2
4 8 0 17.9 4
-4 -8 0 20.7 4.7
4 -8 0 22.1 4.5
-4 -8 0 23.8 2.7
4 -8 0 23.4 5.3
-4 8 0 25.5 5.6
-4 9 0 3783.02 57.89
-4 -9 0 3906.31 57.79
-4 9 0 3881.31 66.39
-4 -9 0 4009.1 48
4 -9 0 3964.2 66.29
4 10 0 191.78 11.8
-4 10 0 187.48 13.8
-4 10 0 177.78 11.2
-4 -10 0 181.28 11.3
-4 11 0 146.19 13.2
-4 11 0 141.39 10.1
-4 -11 0 164.08 8.9
-4 -11 0 156.08 11.3
-4 12 0 0.9 2.2
-4 12 0 3.2 3.6
-4 -12 0 -0.2 2.2
-4 13 0 27.3 5.5
-4 13 0 27.3 7.7
-4 -13 0 26.4 6.5
-4 14 0 2.8 3.1
-4 14 0 3.7 4
-4 15 0 107.69 15.9
-4 15 0 104.89 9.1
-4 16 0 43.4 6.7
5 0 0 7.1 1.2
-5 1 0 0.4 1.1
-5 1 0 0 0.7
5 -1 0 1 0.8
5 -2 0 -0.6 0.7
-5 2 0 -0.9 1
-5 2 0 0.4 0.9
-5 3 0 0.4 1.3
-5 3 0 -1.4 1
5 -3 0 -0.7 0.9
-5 -3 0 0.1 0.3
5 -4 0 0 1.2
-5 4 0 0.6 1.5
-5 4 0 3 1.9
-5 -4 0 0.1 0.6
-5 5 0 0.5 1.4
-5 5 0 -0.7 1.3
-5 -5 0 0 0.7
-5 -6 0 1 1
-5 6 0 -0.3 1.5
-5 6 0 1.7 1.8
5 -6 0 -2 1.1
5 -7 0 1.7 1.7
-5 -7 0 0.1 1.1
-5 7 0 -1.7 1.4
-5 7 0 0 1.8
-5 -7 0 -1 0.5
-5 -8 0 1.5 1.7
-5 8 0 -0.8 1.8
-5 8 0 -1.8 2.1
5 -8 0 -3.8 1.8
-5 -8 0 -0.3 0.9
5 -9 0 1.5 2.8
-5 -9 0 -2.7 0.9
-5 -9 0 -0.3 1.5
-5 9 0 1.3 2.3
-5 9 0 0 2.3
-5 10 0 3.3 3.4
-5 -10 0 1.8 1.4
-5 10 0 8.2 3.4
-5 -10 0 3.1 1.9
-5 11 0 0.5 2.1
-5 -11 0 -0.2 1.8
-5 11 0 -3.4 2.4
-5 -11 0 -0.5 1.4
-5 -12 0 -0.5 2.7
-5 12 0 -2.3 2
-5 -12 0 -1 1.9
-5 12 0 -1 2.3
-5 13 0 0.1 2.9
-5 13 0 0.4 3.4
-5 14 0 -0.7 2.6
-5 14 0 -0.8 3.2
-5 15 0 3.2 3.4
-5 15 0 2.8 3.7
-6 0 0 1918.71 23.5
-6 0 0 1981.6 28.4
6 0 0 1952.4 23.1
-6 1 0 291.27 10.3
-6 1 0 301.07 8.8
6 -1 0 298.67 8.5
-6 2 0 22.3 3.7
-6 2 0 36.5 3.6
6 -2 0 36.7 3.6
6 -3 0 1077.69 22.3
-6 3 0 1059.99 22.5
-6 3 0 1125.09 24.1
-6 4 0 96.99 7.2
-6 4 0 104.59 7.4
6 -4 0 94.59 6.9
-6 -4 0 96.89 2.9
-6 -5 0 82.39 3.9
-6 5 0 74.49 6.8
-6 5 0 76.29 7
6 -5 0 71.89 6.5
-6 6 0 1.7 2.2
-6 6 0 3.4 2.6
-6 -6 0 1.9 1.1
6 -6 0 -0.1 1.8
-6 7 0 171.18 11.6
6 -7 0 150.48 10.7
-6 7 0 163.18 10.6
-6 -7 0 157.48 7.5
-6 -8 0 44.4 4.6
-6 -8 0 50.29 2.7
-6 8 0 48.9 8
6 -8 0 45.2 7.6
-6 8 0 53.99 7.9
-6 9 0 397.66 17.6
-6 -9 0 398.96 14.8
-6 -9 0 402.96 9.8
-6 9 0 383.86 19.3
-6 10 0 84.79 9.8
-6 -10 0 93.19 7.6
-6 10 0 83.19 8.3
-6 -10 0 89.59 5.2
6 -10 0 77.79 9.2
-6 11 0 201.98 15.7
-6 11 0 213.48 13.6
-6 -11 0 196.28 11.8
-6 12 0 -0.5 2.7
-6 12 0 1.4 5.6
-6 -12 0 8.6 3.6
-6 -13 0 88.99 9.3
-6 13 0 104.49 10.6
-6 13 0 99.49 14.9
-6 14 0 19 6.8
-6 14 0 21.4 7.1
-6 15 0 11 4.3
-6 15 0 11.1 6.2
7 0 0 0.9 0.7
-7 0 0 1 1.2
-7 1 0 0.8 0.9
-7 -1 0 -0.2 0.9
-7 1 0 0.4 1.1
7 -1 0 -0.7 0.7
-7 2 0 -0.2 1.2
7 -2 0 0.5 1.1
-7 2 0 0.2 1
-7 3 0 1 1.4
-7 3 0 -0.3 1.1
7 -3 0 0.2 1.3
-7 4 0 -0.2 1.5
-7 4 0 0.7 1.9
7 -4 0 -2.5 1
-7 -5 0 0.4 0.4
7 -5 0 0.9 1.8
-7 5 0 0 1.6
-7 5 0 -0.1 1.7
-7 6 0 2.9 2.3
-7 -6 0 -0.9 0.5
7 -6 0 0.7 2
7 -7 0 -2.8 1.8
-7 -7 0 0.3 0.9
-7 7 0 0.2 2.2
-7 7 0 0.8 2.6
-7 8 0 0.9 2.3
-7 -8 0 0.4 0.5
-7 -8 0 0.3 1.3
7 -8 0 1.3 2.5
-7 -8 0 0.7 0.5
-7 8 0 1.2 2.2
7 -9 0 -3.4 1.9
-7 -9 0 -0.7 1.5
-7 9 0 -1.1 2.2
-7 9 0 -1.1 1.9
-7 -9 0 -0.6 0.8
-7 10 0 1.1 3
-7 10 0 -0.1 2.3
-7 -10 0 0.3 1.1
-7 -10 0 1 2
-7 11 0 -3.4 2.2
-7 -11 0 -0.1 1.8
-7 11 0 -3.4 2.2
-7 12 0 4.8 4.5
-7 -12 0 0.2 2.2
-7 12 0 0.9 2.8
-7 13 0 0.6 3.4
-7 -13 0 -6.3 2.6
-7 14 0 -4.9 3.2
-7 -14 0 1.2 3.3
-7 14 0 -5.4 2.4
-7 15 0 -1.3 3.1
8 0 0 1289.47 17.9
-8 0 0 1340.87 25.3
-8 1 0 3.7 1.5
8 -1 0 3 1.3
-8 1 0 5.1 2.2
-8 -1 0 4.9 1.9
-8 2 0 13.9 2.7
-8 -2 0 14.6 2.5
8 -2 0 17.1 3.1
-8 2 0 16.2 3.6
8 -3 0 172.58 8.9
-8 3 0 165.98 8.9
-8 4 0 379.76 15.7
-8 4 0 359.06 14.3
8 -4 0 362.56 14.1
-8 5 0 73.39 7.4
-8 5 0 64.59 6.8
8 -5 0 61.99 6.6
-8 -6 0 102.79 3.2
-8 6 0 101.79 8.9
8 -6 0 109.39 9.1
-8 6 0 103.49 8.8
8 -7 0 119.49 10.1
-8 -7 0 103.39 4.6
-8 7 0 108.19 9.6
-8 7 0 105.19 9.6
-8 8 0 112.69 10.1
8 -8 0 95.99 9.6
-8 -8 0 98.59 5.5
-8 8 0 107.39 10.1
-8 -9 0 180.88 4.9
-8 -9 0 180.98 8.3
-8 9 0 161.78 13.2
-8 9 0 194.98 13.4
8 -9 0 154.08 12.7
-8 10 0 35.5 7.9
-8 10 0 17.4 5.3
-8 11 0 0.8 2.6
-8 11 0 -2.6 2.2
-8 -11 0 -2.1 1.7
-8 12 0 5.5 4.5
-8 -12 0 6.8 3
-8 12 0 9.3 4.9
-8 13 0 10.9 6
-8 13 0 12.1 5.2
-8 -13 0 10.6 3.8
-8 -14 0 36.6 7
-8 14 0 46.5 10.8
-8 14 0 46.1 9
-9 0 0 1.2 1.5
9 0 0 0.2 0.6
-9 -1 0 -0.8 1
9 -1 0 0.6 0.8
-9 1 0 1.7 1.7
9 -2 0 1.1 1.3
-9 -2 0 0.3 1.2
-9 2 0 1.9 3.1
-9 2 0 0.5 1.3
-9 3 0 3.1 2.5
-9 -3 0 -0.2 0.9
-9 3 0 0.1 1.2
9 -3 0 -0.9 1.4
-9 4 0 -1 1.3
9 -4 0 0.5 1.4
-9 4 0 0.8 2
9 -5 0 -0.2 1.7
-9 5 0 2.1 2.1
-9 5 0 2.1 2.4
-9 6 0 0.3 2.6
-9 6 0 -0.8 1.5
9 -6 0 0.6 2.1
-9 7 0 -1 2.4
-9 7 0 -2.3 1.8
9 -7 0 3 2.4
-9 8 0 0.7 2.5
-9 8 0 -0.1 2.5
9 -8 0 -1.1 2.4
-9 -8 0 -0.7 0.6
-9 9 0 -1.3 2.1
-9 -9 0 -1.1 0.5
-9 9 0 -2.3 3
-9 -9 0 1.4 1.1
-9 10 0 -6.3 2.5
-9 -10 0 1.4 1.3
-9 10 0 1.7 3.1
-9 11 0 -1.6 3
-9 -11 0 -3.1 1.3
-9 11 0 -0.7 2.7
-9 12 0 2.2 3.9
-9 12 0 3.8 3.8
-9 -12 0 -2 1.9
-9 13 0 -8 2.9
-9 -13 0 -0.6 2.4
-9 13 0 -6 3
-9 -14 0 -8.1 2.9
-9 14 0 1.9 3.9
-10 0 0 144.19 8.9
10 0 0 142.49 4.8
10 -1 0 169.98 6.9
-10 1 0 153.58 11.3
-10 -1 0 158.38 8.7
10 -2 0 61.79 5.1
-10 2 0 49.6 7
-10 -2 0 54.59 5
-10 -3 0 96.99 6
-10 3 0 89.69 8.1
-10 3 0 86.09 6.9
10 -3 0 94.49 7.1
-10 4 0 882.61 26.7
10 -4 0 916.21 23.9
-10 -4 0 897.61 17.6
10 -5 0 67.99 7.2
-10 5 0 69.59 7.9
-10 -5 0 69.49 4.1
-10 5 0 48.2 7.2
10 -6 0 279.97 14.7
-10 -6 0 271.57 7.2
-10 6 0 265.67 15.5
-10 6 0 304.97 15.7
-10 7 0 30.8 6.6
10 -7 0 33.5 6.6
-10 -7 0 30 2
-10 7 0 30.4 6.8
-10 8 0 252.77 16.2
-10 -8 0 244.08 4.8
-10 8 0 255.77 16.1
10 -8 0 259.37 15.8
-10 9 0 158.68 13.4
-10 9 0 156.88 13.6
-10 -9 0 146.69 3.4
-10 -10 0 326.57 8.9
-10 10 0 325.57 20.1
-10 10 0 344.07 19.7
-10 11 0 2.4 3.7
-10 11 0 8.2 4.6
-10 -11 0 2 1.5
-10 12 0 272.47 18.5
-10 12 0 271.87 20.1
-10 13 0 8.7 5.6
-10 -13 0 10.7 3.4
-11 0 0 -0.1 1.5
-11 1 0 -2 1.8
11 -1 0 -1.7 0.8
-11 -2 0 1.2 1.6
-11 2 0 -2.4 1.8
11 -2 0 0.8 1.6
11 -3 0 -2.8 1.2
-11 3 0 2 2.2
-11 -3 0 -0.6 1.5
-11 4 0 2 2.6
11 -4 0 -1.9 1.6
-11 4 0 2 1.9
-11 -4 0 -1.1 1.1
-11 -5 0 -2.7 1
-11 5 0 -1.3 1.6
-11 5 0 5.3 3.4
11 -5 0 -4.9 2.2
-11 -6 0 1.4 1
11 -6 0 1 2.1
-11 6 0 -2.4 2
-11 6 0 -3.4 1.7
-11 7 0 -1.6 2.6
11 -7 0 -2.5 2.6
-11 7 0 2.8 2.7
11 -8 0 2.6 3.5
-11 8 0 0.3 3.1
-11 8 0 -0.7 2.7
-11 9 0 -0.5 3.1
-11 -9 0 0.1 0.6
-11 9 0 -2.5 2.8
-11 10 0 -1.2 3.3
-11 10 0 4.9 4.3
-11 11 0 0 3.6
-11 11 0 3.5 4
-11 12 0 2.4 4.3
-12 0 0 320.27 14.8
12 -1 0 147.79 6.2
-12 -1 0 147.69 9.7
-12 1 0 152.98 10.8
-12 2 0 143.49 10.9
12 -2 0 151.28 7.7
-12 -2 0 152.78 9.3
-12 -3 0 536.55 16.7
-12 3 0 545.35 21.8
12 -3 0 548.75 16.8
-12 4 0 16.8 5.2
12 -4 0 22.4 4.5
-12 -4 0 21.3 3.9
12 -5 0 279.37 14.3
-12 5 0 311.17 17.6
-12 -5 0 294.97 10.7
12 -6 0 107.49 9.8
-12 6 0 121.89 11.9
-12 -6 0 97.39 5.7
12 -7 0 0.1 2.9
-12 7 0 -2 2.3
-12 8 0 -1.5 3.7
-12 -8 0 11 1.8
-12 -9 0 49.99 2.8
-12 9 0 61.59 10.4
-12 10 0 0.6 4.5
-12 11 0 54.09 10
-13 0 0 -0.8 1.9
-13 -1 0 -0.9 2.1
-13 1 0 1.4 2.4
13 -2 0 1.6 1.6
-13 2 0 2.2 3.4
-13 -2 0 1.7 2.4
-13 -3 0 3.2 2.4
-13 3 0 -2.6 2.2
13 -3 0 3.1 2
13 -4 0 -1.7 1.9
-13 4 0 11.4 5.1
13 -5 0 1.2 2.5
-13 -5 0 -2.3 1.5
-13 5 0 -7.9 2.5
-13 6 0 1.9 3.4
-13 -6 0 -1.4 1.5
13 -6 0 -0.9 3.1
-13 -7 0 1.8 1.6
-13 7 0 1.5 3.5
13 -7 0 10.1 4.1
-13 -8 0 -1.5 1
-13 8 0 -2 3.4
-13 9 0 7.8 4.7
-13 10 0 -4.7 3
-14 0 0 2.6 2.6
-14 -1 0 643.24 22.4
-14 1 0 625.24 23.7
-14 -2 0 88.19 8.1
14 -2 0 96.69 6
-14 2 0 89.29 9.8
14 -3 0 105.59 7.4
-14 3 0 106.09 10.5
-14 -3 0 109.59 8.5
-14 -4 0 20.5 4.3
14 -4 0 12.8 3.9
-14 4 0 14.5 5.4
-14 5 0 117.09 12.1
-14 -5 0 117.19 7.8
14 -5 0 110.89 9.4
-14 6 0 101.29 11.4
-14 -6 0 108.59 7.4
14 -6 0 95.59 9.9
-14 7 0 63.29 10.9
-14 -7 0 60.09 5.1
-14 -8 0 55.69 4.4
-14 8 0 45.5 9.6
-14 9 0 0.9 3.2
-14 -9 0 0.4 1.4
-15 0 0 -4 2.5
-15 1 0 3.5 3.5
-15 -1 0 -3.9 2.4
-15 2 0 -6.7 2.4
-15 -2 0 1.2 2.5
-15 3 0 4.1 3.7
15 -3 0 -1.8 1.9
-15 -3 0 2.3 2.6
-15 4 0 4.6 4.7
15 -4 0 -3.8 2.4
-15 -4 0 3.5 2.8
15 -5 0 3.4 3.3
-15 5 0 2.6 4.3
-15 -5 0 2.2 2.5
15 -6 0 1.2 3.7
-15 6 0 -5.2 4
-15 -6 0 -0.1 2.2
-15 7 0 8 5
-15 -7 0 -4 2
-15 -8 0 4.1 2.1
-15 8 0 1.9 4.1
-16 0 0 0.3 3.8
-16 1 0 50.59 9.2
-16 -1 0 47.4 8.3
-16 -2 0 121.79 10.8
-16 2 0 130.99 12.7
-16 3 0 17.6 6.2
-16 -3 0 8.5 4
-16 4 0 65.29 10.8
-16 -4 0 76.49 8.2
16 -4 0 64.79 6.9
-16 -5 0 96.69 8.4
16 -5 0 108.99 9.7
-16 5 0 84.09 12.4
-17 0 0 2.5 4.1
-17 -1 0 0.3 3.7
-17 1 0 10.2 4.7
-17 -2 0 -1.2 3.4
-17 2 0 9.5 4.4
0 -2 -1 256.17 5.6
0 -2 1 248.88 5.3
0 2 1 248.98 6.6
0 -2 -1 236.38 6.4
0 -2 1 244.68 6.6
0 2 1 245.28 5.4
0 2 -1 256.87 5.1
0 2 -1 254.57 6.7
0 -3 -1 1.9 1.3
0 3 -1 1.5 0.9
0 3 1 1.2 1
0 3 -1 3.3 1.5
0 3 1 1.9 1.3
0 -3 -1 1 1
0 -3 1 2.2 1
0 -3 1 3.3 1.5
0 -4 1 808.32 14.2
0 4 -1 785.72 13
0 -4 -1 807.92 14.5
0 -4 1 823.92 17.3
0 4 1 786.72 17
0 4 1 804.12 13.6
0 4 -1 804.32 17.1
0 -4 -1 817.92 17.2
0 5 -1 1 0.9
0 5 1 1.5 1.2
0 -5 1 0.1 1.1
0 -5 1 -0.1 0.9
0 5 -1 0.4 1
0 5 1 -1 0.6
0 -5 -1 -0.3 0.9
0 -5 -1 -1.6 0.8
0 -6 -1 1619.44 30.4
0 -6 1 1641.84 30.9
0 6 1 1576.44 30.4
0 -6 -1 1609.24 26.3
0 6 -1 1592.14 23
0 -6 1 1623.64 26.1
0 6 -1 1626.54 30.7
0 6 1 1630.64 23.8
0 7 -1 -0.7 1.2
0 -7 1 0.4 1.3
0 7 1 0.7 1.6
0 7 -1 0.4 1
0 -7 -1 3.8 2.2
0 -7 -1 1 1.4
0 7 1 0.5 1
0 -7 1 0.3 1.4
0 -8 1 768.82 23.1
0 8 1 779.62 16.2
0 -8 -1 746.63 19.2
0 8 1 806.22 23.7
0 -8 -1 743.33 22.5
0 -8 1 778.72 19.6
0 8 -1 767.82 15.6
0 8 -1 776.32 23.3
0 -9 1 -0.4 1.6
0 9 1 3 2.3
0 9 -1 -1.3 0.9
0 -9 -1 3.2 1.9
0 -9 1 -0.2 1.3
0 -9 -1 -2.3 1.4
0 9 -1 2.7 2.2
0 9 1 1.9 1.4
0 -10 -1 3.1 3.1
0 -10 -1 7.1 2.7
0 -10 1 2.8 3
0 10 1 5.6 2
0 -10 1 9.4 3.2
0 10 1 13.3 4.4
0 10 -1 12.4 4.1
0 10 -1 8.4 2.2
0 11 1 1.1 1.4
0 11 -1 2.1 2.6
0 -11 -1 2.1 3
0 -11 1 -3.3 1.6
0 11 1 -1.2 1.2
0 11 -1 1.5 1.3
0 -11 1 5.3 3.8
0 11 1 -1.7 2
0 12 1 85.49 5.2
0 12 -1 72.59 10.4
0 -12 1 92.39 9.9
0 12 -1 85.99 5
0 -12 -1 91.69 10
0 12 1 85.09 5.3
0 12 1 86.89 11.7
0 12 -1 78.79 5
0 13 1 1.8 1.3
0 13 -1 -1.4 1
0 -13 1 0.1 2.3
0 13 -1 -0.4 2.4
0 13 1 1.4 1.3
0 13 1 3.7 3.2
0 13 -1 0.2 1.1
0 14 1 64.19 2.6
0 15 1 7.2 4.3
-1 1 -1 1.6 0.6
-1 1 -1 3.2 0.8
1 -1 -1 2.2 0.8
1 1 1 3.2 0.6
-1 1 1 2.4 0.7
1 -1 1 3.4 0.9
1 -1 1 1.8 0.7
-1 -1 -1 3 0.6
-1 -2 1 12.2 1.6
-1 -2 1 13.5 0.8
1 2 1 9.5 1.4
-1 2 -1 10.5 1.6
1 -2 -1 16.4 2.4
-1 2 -1 15.5 2.2
1 -2 1 15.9 1.8
-1 -2 -1 13.2 1
-1 -2 -1 14.5 1.6
1 -2 1 15.5 2.4
-1 2 1 12.3 2.1
-1 2 1 15 2.1
-1 -2 -1 13.8 1
1 -3 -1 1870.81 25.1
1 3 1 1901.61 25.4
1 3 1 1930.51 19
1 3 1 1914.71 18.9
-1 -3 1 1907.31 25.5
-1 3 -1 1854.51 27.1
-1 3 -1 1918.41 24.5
1 -3 -1 1915.91 27.3
-1 -3 -1 1923.41 25.2
-1 3 1 1912.51 27.4
1 3 -1 1881.41 25.3
1 -3 1 1907.81 25.1
1 -3 1 1840.52 27
-1 3 1 1906.31 25
-1 -3 -1 1912.51 21.3
-1 -4 1 213.88 8
-1 4 -1 225.48 7.4
-1 -4 1 221.68 5.9
-1 4 -1 240.38 9.3
1 -4 -1 222.98 7.7
1 4 1 234.48 8.4
1 4 1 221.28 4.8
1 4 1 226.98 4.9
1 4 -1 228.58 8.3
-1 4 1 231.98 7.7
-1 -4 -1 225.68 6.2
1 4 -1 230.68 4.3
1 -4 1 228.18 7.8
-1 -4 -1 224.28 8.1
1 -4 1 215.68 8.8
1 5 1 156.88 4.5
-1 5 -1 161.68 6.7
1 -5 -1 155.68 8.1
1 5 1 165.88 4.7
1 5 1 158.88 7.8
1 -5 -1 153.88 7.1
-1 -5 1 165.88 8
-1 -5 1 162.88 5.9
1 5 -1 160.98 4.2
1 5 -1 168.38 8.1
-1 5 1 170.88 7.1
-1 5 1 164.68 8.5
1 -5 1 158.08 8.4
1 -5 1 158.58 7.1
-1 -5 -1 167.38 7.8
-1 -5 -1 166.38 6.1
-1 -6 1 887.51 16.8
1 6 1 925.11 13.8
-1 6 -1 907.21 22.6
1 6 1 929.11 21.7
1 6 1 911.31 13.6
1 -6 -1 925.71 22.5
-1 -6 1 916.31 21.5
1 -6 -1 901.41 19.7
-1 6 -1 913.91 18
-1 6 1 894.91 18.3
-1 -6 -1 940.81 21.5
1 6 -1 883.81 21.2
-1 -6 -1 947.31 17.7
1 6 -1 933.41 13
1 -6 1 923.61 19.8
-1 6 1 914.01 22.7
1 -6 1 931.11 22.8
1 7 1 274.07 12.5
-1 7 -1 296.87 10.2
1 7 1 309.07 7.5
1 -7 -1 330.07 12.1
1 7 1 326.97 7.8
1 -7 -1 339.57 14.3
-1 7 -1 323.57 14.1
-1 -7 1 316.47 10.4
1 7 -1 320.87 7.1
1 -7 1 302.37 13.5
-1 7 1 296.17 13.6
-1 -7 -1 321.87 10.6
1 7 -1 307.97 13.1
1 -7 1 320.27 12.2
-1 7 1 322.97 10.8
-1 -7 -1 284.47 15.2
-1 8 -1 1.5 2
1 -8 -1 -0.2 1.5
1 -8 -1 1.9 1.8
-1 -8 1 1.9 2
1 8 1 1.2 0.9
-1 8 -1 1.1 1.4
1 8 1 0.2 0.9
-1 -8 1 2.6 1.7
-1 -8 -1 1.6 1.6
1 8 -1 0.7 0.8
1 -8 1 2.5 2.2
-1 8 1 -2.3 1.2
1 -8 1 -0.3 1.6
-1 8 1 0.2 1.3
-1 -8 -1 1.6 1.7
-1 9 -1 24.3 3.8
1 -9 -1 22.3 4.5
1 9 1 23.9 2.2
-1 -9 1 21.2 4.1
1 9 1 22.3 2.2
1 -9 -1 27.1 5.7
-1 -9 1 16.8 4.7
-1 9 -1 17.6 4.6
1 9 1 16.8 4.3
1 9 -1 20.2 2
1 -9 1 21.4 5.2
-1 9 1 18.6 4.6
1 9 -1 20.9 1.9
1 9 -1 21.2 4.9
-1 9 1 22.5 3.9
-1 -9 -1 19.2 3.8
-1 -9 -1 24 5.3
1 -9 1 21.7 4.4
1 10 1 245.08 6.6
1 -10 -1 253.77 14.7
-1 10 -1 250.57 15
1 10 1 249.38 6.5
1 10 1 238.08 14
-1 -10 1 253.07 11.8
-1 -10 1 227.18 13.7
-1 10 -1 257.67 10.4
-1 10 1 261.77 10.6
1 10 -1 243.48 14.1
-1 10 1 256.47 15.3
1 10 -1 257.27 6.1
-1 -10 -1 250.67 11.8
1 10 -1 252.27 5.9
1 -10 1 256.07 12.8
-1 -10 -1 275.97 14.7
1 -10 1 272.37 15.5
-1 11 -1 136.39 7.7
1 -11 -1 134.39 11.4
1 11 1 137.89 3.9
-1 -11 1 115.09 8.6
1 11 1 135.49 3.8
1 11 1 142.09 11.6
-1 11 -1 126.19 11.5
-1 -11 1 137.79 11.2
1 -11 1 126.89 11.2
-1 11 1 132.39 7.7
1 11 -1 143.89 11.7
-1 -11 -1 161.18 12
1 -11 1 128.59 9.8
-1 11 1 134.79 11.8
1 -12 -1 32.3 6.7
-1 12 -1 32.8 4.5
1 12 1 36 7.6
-1 -12 1 40.6 7.5
-1 12 -1 30.7 7.3
-1 -12 1 30.5 5.9
-1 12 1 36.3 7.7
-1 -12 -1 37.2 7.5
-1 12 1 37.1 7
1 12 -1 39.7 7.9
1 -12 1 30.1 5.8
1 -12 1 31.5 6.2
-1 13 -1 -4.2 2.1
1 13 1 -2.5 2.6
-1 -13 1 -2 2.6
-1 13 -1 0.6 1.9
-1 13 1 -4.4 2.1
-1 14 -1 0.6 2.2
-1 14 -1 5 2.1
1 14 1 2.8 3.6
-1 14 1 3 2.8
-1 14 1 4.6 3.8
-1 14 1 1.7 2.3
-1 15 -1 55.59 4.2
-1 15 -1 48.1 4.2
1 15 1 45.8 9.6
-1 15 1 50.69 4.7
-1 15 1 49.9 4.2
-1 15 1 45.7 10.3
-1 16 1 23.4 8.1
2 0 -1 -0.1 0.3
-2 0 -1 -0.1 0.4
2 0 1 0 0.5
-2 0 1 0.6 0.4
2 -1 -1 333.47 7.2
2 1 1 322.87 4.4
-2 1 -1 329.57 7.2
-2 1 1 331.17 7.3
2 -1 1 333.67 7.5
-2 -1 -1 327.87 4.5
2 -1 1 339.87 7.4
2 2 1 4742.23 80.99
2 -2 -1 4602.74 126.99
-2 2 -1 4445.76 119.79
2 -2 1 4566.44 124.19
-2 2 1 4557.04 125.29
-2 -2 -1 4040.9 84.19
2 3 1 35.2 2.7
-2 -3 1 39.8 2.8
2 -3 -1 36.1 3.4
-2 3 -1 38.4 3.3
2 -3 1 39.1 3.3
-2 3 1 36.3 3.3
-2 -3 -1 37.5 1.2
-2 -3 -1 35.1 1.2
2 -3 1 40.7 3.7
-2 -3 -1 39.6 2.8
-2 3 1 42.3 3.7
-2 4 -1 8.9 2.5
2 -4 -1 14.8 3
-2 4 -1 11.8 2.4
2 4 1 13.6 2.4
-2 -4 1 18.3 2.7
2 -4 -1 14.6 2.6
-2 -4 1 15 1.1
-2 -4 -1 18 1.5
2 4 -1 18.9 2.9
-2 -4 -1 14.8 1.3
-2 4 1 14 3
2 -4 1 14.3 2.6
2 -4 1 17.3 3.2
-2 4 1 13.4 2.6
-2 -4 -1 16.6 2.5
2 -5 -1 69.29 5.7
-2 -5 1 66.09 3.1
-2 5 -1 66.89 5.7
-2 5 -1 70.59 4.9
2 5 1 59.99 4.7
2 -5 -1 69.09 5.1
-2 -5 1 60.59 4.8
-2 5 1 64.29 4.8
2 -5 1 71.89 5.8
-2 -5 -1 70.19 3.5
-2 5 1 65.09 5.7
2 -5 1 59.99 4.8
2 5 -1 71.39 5
-2 -5 -1 67.59 4.8
2 -6 -1 46.2 5.4
-2 -6 1 50.49 3.4
-2 6 -1 47.1 4.3
-2 -6 1 50.09 4.7
2 6 1 43.9 4.6
-2 6 -1 50.39 5.6
2 -6 1 46.7 6.4
-2 6 1 53.49 5.6
2 6 -1 49.8 4.7
-2 -6 -1 51.39 4.8
-2 6 1 52.59 4.6
-2 -6 -1 51.39 3.5
-2 -7 1 720.03 15
2 -7 -1 752.12 22.2
2 -7 -1 738.43 19.5
-2 -7 1 725.63 19.9
2 7 1 703.03 19.7
-2 7 -1 710.13 17.8
-2 7 1 731.33 18.3
2 -7 1 718.63 19.4
-2 -7 -1 721.83 15.5
-2 -7 -1 703.93 19.3
2 7 -1 717.73 19.7
2 -7 1 707.93 21.6
-2 -8 1 156.38 7.4
2 -8 -1 160.78 9.5
-2 8 -1 147.19 10.5
2 -8 -1 153.38 10.4
-2 -8 1 135.69 9.2
2 8 1 162.48 9.9
-2 8 -1 139.99 7.9
-2 8 1 151.48 8.4
-2 -8 -1 157.78 7.6
-2 8 1 154.58 10.7
2 -8 1 141.79 8.9
2 -8 1 158.88 10.7
2 8 -1 160.88 9.8
-2 -8 -1 144.89 9.2
2 -9 -1 1.8 2.4
-2 9 -1 2.3 2.2
2 9 1 -1.2 1.5
-2 -9 1 -0.2 1.4
-2 -9 1 3.4 2.3
-2 9 -1 -0.1 1.4
2 -9 1 0.5 1.9
-2 9 1 -0.1 1.6
-2 -9 -1 -0.8 1.4
2 -9 1 0.4 1.9
2 9 -1 0.8 1.5
-2 9 1 2.4 2.1
-2 -9 -1 2.2 1.7
2 -10 -1 494.55 21
-2 -10 1 471.35 19.3
-2 10 -1 462.35 20.7
-2 -10 1 435.56 15
2 10 1 463.65 19.3
-2 10 -1 453.15 15.4
2 -10 1 452.15 20.5
-2 10 1 446.26 15.5
2 10 -1 532.65 20.5
-2 10 1 468.95 21
2 -10 1 481.75 18.4
-2 -10 -1 479.85 19.1
-2 -10 -1 447.96 15.2
2 -11 -1 23.2 5.8
-2 11 -1 30.3 4.9
-2 11 -1 39.4 7.7
-2 -11 1 26.7 4.8
-2 -11 1 35.3 6.8
2 11 1 34.7 6.6
2 11 -1 36.4 7.1
-2 -11 -1 33.6 6.6
-2 11 1 31.3 7
-2 11 1 22.3 4.4
2 -11 1 35.7 7.5
2 -11 1 30.4 7
-2 12 -1 31.1 5.1
-2 -12 1 37 7.1
-2 -12 1 27.3 5.2
2 12 1 28.1 6.5
-2 12 -1 21.7 6.5
-2 12 1 34 5.3
-2 12 1 15.8 6
-2 -12 -1 29.1 6.3
2 -12 1 25 5.7
2 13 1 2.7 3
-2 13 -1 4.6 3.8
-2 13 -1 3.5 2.3
-2 -13 1 13.6 4.4
-2 13 1 6.5 2.9
-2 13 1 3.1 3.6
-2 14 -1 47.1 9.9
-2 14 -1 53.79 5.7
2 14 1 45.5 8.9
-2 14 1 51.69 10
-2 14 1 47.5 5.6
-2 15 -1 4.2 2.4
-2 15 1 0.6 3.6
-2 15 1 9.5 3
-2 15 1 3.7 3.5
-2 16 -1 122.99 7.4
-2 16 1 88.79 14.1
-2 16 1 117.09 7.4
-2 16 1 111.39 10.9
-3 0 1 0.4 0.5
-3 0 -1 0.6 0.9
3 0 -1 0.1 0.5
3 0 1 1.1 0.6
-3 -1 1 1110.49 11.6
-3 1 -1 1070.79 16
3 -1 -1 1082.79 15.9
-3 1 -1 1136.39 17.4
-3 1 1 1101.99 16.4
3 -1 1 1102.19 16.2
3 -1 1 1120.19 16.9
-3 -1 -1 1109.29 13.1
-3 -2 1 2023 21.5
-3 2 -1 2015.7 27.5
3 2 1 1975.2 20.7
-3 2 -1 2008.5 27.7
3 -2 -1 1989 27.3
-3 2 1 2007.3 27.6
-3 -2 -1 2009.4 20.3
-3 2 1 2061.59 27.9
3 -2 1 1968.4 27.3
3 -2 1 2019.7 27.6
-3 -3 1 1.8 0.8
3 3 1 1.6 0.8
3 -3 -1 0.6 1
-3 3 -1 2.8 1.4
-3 3 -1 2.3 1.3
-3 -3 -1 1.2 0.7
3 -3 1 1 1.2
3 -3 1 1.3 1.2
-3 3 1 1.9 1.3
-3 3 1 2 1.3
3 4 1 0.5 0.8
-3 4 -1 1.4 1.4
-3 -4 1 4.5 1.5
-3 4 -1 -0.5 0.9
3 -4 -1 2.7 1.6
-3 4 1 1.6 1.3
3 -4 1 3.3 1.7
3 -4 1 4.5 1.7
-3 4 1 2.3 1.5
-3 -4 -1 2 1
-3 5 -1 544.15 15.1
3 5 1 564.94 13.9
3 -5 -1 549.54 16.6
-3 -5 1 532.75 7.5
-3 5 -1 533.05 16.6
-3 -5 1 569.64 13.9
3 -5 1 554.44 16.9
3 -5 1 538.95 15.4
-3 -5 -1 536.95 13.3
-3 5 1 558.54 15.4
-3 -5 -1 549.25 8.6
3 5 -1 526.55 13.4
-3 -5 -1 552.64 8.8
3 6 1 1412.46 26.1
-3 6 -1 1432.46 30.6
3 -6 -1 1436.86 30.3
-3 6 -1 1407.96 27.1
-3 -6 1 1374.46 25.8
-3 -6 1 1399.36 18.3
-3 6 1 1402.46 30.5
-3 -6 -1 1388.96 25.5
3 -6 1 1425.76 28.2
3 6 -1 1388.96 25.8
-3 6 1 1434.26 27.5
3 -6 1 1428.06 30.5
-3 -6 -1 1412.56 19.4
-3 7 -1 41.9 4.7
-3 -7 1 45.2 3.3
3 7 1 44.2 4.9
3 -7 -1 53.69 7.2
-3 -7 1 44 4.8
-3 7 -1 53.79 7.6
3 -7 1 60.29 5.9
-3 7 1 48 7
-3 7 1 45.4 4.9
3 7 -1 40.5 4.7
-3 -7 -1 42.8 4.7
3 -7 1 43.6 6.4
-3 -7 -1 46.5 3.5
3 8 1 299.37 13.2
-3 8 -1 317.97 15.6
3 -8 -1 300.97 14.9
-3 -8 1 300.27 9.6
-3 -8 1 297.87 13.1
3 8 -1 321.27 13.6
-3 -8 -1 312.77 13.1
-3 -8 -1 295.57 9.8
-3 8 1 301.77 15.4
3 -8 1 303.17 13.7
3 -8 1 292.37 14.9
-3 -9 1 23.8 5
3 9 1 12.4 3.6
-3 9 -1 11.3 4.2
-3 -9 1 9.7 2.7
3 -9 -1 19.3 4.9
-3 9 -1 15.7 3.9
3 -9 1 12.9 3.7
-3 -9 -1 14.2 3.1
-3 -9 -1 16.6 4.2
-3 9 1 11.2 3.5
-3 9 1 16.9 5
3 -9 1 10 4.1
3 9 -1 20.4 4.8
-3 -10 1 730.13 23.8
-3 -10 1 749.82 19
-3 10 -1 778.42 27.6
3 10 1 713.53 23.7
3 -10 -1 787.82 28.1
-3 10 -1 788.82 22
-3 -10 -1 775.22 24
-3 10 1 742.73 21.8
3 -10 1 830.82 30.6
-3 10 1 769.22 27.7
3 -10 1 754.72 24.2
-3 -10 -1 778.82 19.4
3 10 -1 785.92 24.6
3 11 1 4.5 3.2
-3 -11 1 4.6 2.4
-3 11 -1 3.1 2.6
3 -11 -1 6.3 3.9
-3 -11 1 5.9 3
-3 11 -1 -1.9 2.3
3 -11 1 -0.6 2.3
-3 -11 -1 1.6 2.9
-3 11 1 0.9 1.9
3 -11 1 1 3
-3 11 1 2 3.1
-3 -12 1 34.8 6.8
-3 -12 1 45.4 6.3
-3 12 -1 43.7 6.4
3 12 1 34.8 7.1
-3 12 -1 29.3 7.6
-3 12 1 43 8.6
-3 -12 -1 41 8.6
-3 12 1 31 5.5
-3 -13 1 26.6 6.3
-3 -13 1 27.9 5.4
3 13 1 34.9 7.7
-3 13 -1 27.1 8.2
-3 13 -1 26.2 5
-3 13 1 17.1 7.2
-3 13 1 32.7 5.6
-3 -13 -1 30.5 6.7
-3 14 -1 1 2
-3 14 -1 -2.2 2.5
-3 14 1 -0.1 2.5
-3 14 1 1.1 3.5
-3 15 -1 4.3 2.7
-3 15 1 9.9 5.4
-3 15 1 10.3 3.6
-3 16 -1 62.29 6.6
-3 16 1 55.79 7.8
-3 16 1 71.49 7.2
-3 16 1 58.89 11.9
4 0 -1 0.8 0.6
-4 0 -1 0.5 0.8
4 0 1 0.3 0.4
-4 0 1 -0.3 0.4
-4 -1 1 114.49 2.7
-4 1 -1 116.49 5.4
-4 1 -1 110.99 4.7
4 -1 -1 113.49 4.7
-4 1 1 110.09 4.8
4 -1 1 113.99 4.8
-4 -1 -1 108.69 3.8
-4 2 -1 2014.6 29.1
4 2 1 1920.41 18.1
4 -2 -1 1964.8 27.7
-4 2 -1 1978.5 28
-4 -2 1 1957.9 19.8
4 -2 1 1920.31 28.1
4 -2 1 1947.61 27.9
-4 2 1 1935.11 28.6
-4 2 1 1910.51 27.9
4 -3 -1 640.14 15.5
-4 3 -1 624.64 15.5
4 3 1 611.84 9.8
-4 3 -1 593.24 15.1
-4 -3 1 620.24 10.3
4 -3 1 611.84 15.3
-4 3 1 633.14 15.6
-4 3 1 633.04 15.6
-4 -3 -1 604.14 9.3
4 -3 1 613.14 15.2
-4 -4 1 102.99 4.7
-4 4 -1 97.49 6.7
-4 4 -1 96.29 6.4
4 -4 -1 97.89 6.6
4 4 1 96.89 4.5
-4 4 1 104.19 6.6
-4 4 1 107.19 7
4 -4 1 102.79 6.8
4 -4 1 98.39 6.4
-4 -4 -1 102.09 4.4
-4 5 -1 1157.18 24.4
-4 5 -1 1112.69 25.6
4 5 1 1178.78 20.3
-4 -5 1 1174.28 20.4
4 -5 -1 1159.08 25.7
-4 5 1 1151.38 24.6
4 -5 1 1185.48 26.3
-4 5 1 1194.48 26.6
-4 -5 -1 1203.28 20
4 -5 1 1173.78 24.8
-4 -6 1 60.89 2.2
4 -6 -1 51.39 5.7
-4 6 -1 62.59 6.4
-4 -6 1 60.69 4.9
-4 6 -1 54.89 5.4
4 6 1 61.29 4.8
4 -6 1 71.39 6.2
-4 6 1 61.49 6.4
-4 -6 -1 57.09 4.5
4 -6 1 59.79 6.2
-4 -6 -1 55.89 2.6
-4 -6 -1 58.39 2.7
-4 6 1 62.99 5.8
-4 7 -1 2.7 2.5
-4 7 -1 3.5 2.3
-4 -7 1 0.2 1.3
4 7 1 2.5 1.7
-4 -7 1 1.9 0.9
4 -7 -1 2.8 2.1
4 -7 1 5.3 2.8
4 -7 1 -0.5 1.3
-4 7 1 2.4 2.3
-4 -7 -1 1.4 1.4
-4 7 1 2 2
-4 -7 -1 3.6 1.2
-4 8 -1 96.39 7.7
4 8 1 119.29 8.1
-4 8 -1 108.59 9.5
4 -8 -1 95.19 8.8
-4 -8 1 109.99 5.2
4 -8 1 114.49 9.7
4 -8 1 110.49 8.6
-4 8 1 107.49 8.1
-4 -8 -1 110.09 9.1
-4 8 1 129.09 10.4
-4 -8 -1 123.79 5.8
-4 9 -1 178.28 10.7
-4 -9 1 196.78 11.2
-4 9 -1 211.98 14
4 -9 -1 206.88 13.4
-4 -9 1 211.18 8.3
4 -9 1 205.18 12.2
-4 9 1 195.88 13.3
-4 -9 -1 208.08 8.4
-4 -9 -1 208.58 11.2
4 -9 1 190.18 13
-4 9 1 199.48 11.6
-4 -10 1 20.3 4.8
-4 10 -1 23.4 4.9
4 10 1 21.2 5
-4 10 -1 16 5.3
4 -10 1 24.4 5.5
-4 10 1 19.9 5
-4 -10 -1 27.2 4.1
-4 -10 -1 24.8 5
-4 10 1 22.5 6.1
-4 11 -1 193.78 11.6
-4 -11 1 214.58 10.1
4 11 1 224.48 13.5
-4 -11 1 205.58 13
-4 11 -1 196.28 14.8
-4 11 1 181.78 14.6
-4 -11 -1 205.48 12.5
-4 11 1 200.48 12
-4 12 -1 60.89 6.9
-4 -12 1 64.49 9.4
4 12 1 51.09 7.9
-4 12 -1 54.89 9.7
-4 -12 1 49.5 6.6
-4 12 1 66.69 10.9
-4 -12 -1 51.79 7.9
-4 12 1 68.99 7.3
-4 13 -1 71.89 7.5
-4 13 -1 49.6 9.6
-4 -13 1 60.39 9.2
-4 -13 1 65.39 7
-4 13 1 60.59 10.5
-4 -13 -1 73.99 10.1
-4 13 1 61.49 8.3
-4 14 -1 -3.7 2.5
-4 14 -1 7.7 4.5
-4 14 1 3 3.5
-4 14 1 0.4 2.5
-4 15 -1 148.39 10.7
-4 15 1 152.78 15.8
-4 15 1 158.58 11.4
-4 16 -1 4.9 3.2
-4 16 1 4.2 5.6
-4 16 1 2.3 3.3
-5 0 1 0.1 0.5
5 0 -1 0.4 0.5
-5 0 -1 -1.2 0.5
5 0 1 0.5 0.5
-5 1 -1 409.16 11.3
-5 -1 1 401.56 6.2
-5 1 -1 408.36 9.8
5 -1 -1 411.26 9.7
-5 -1 -1 398.26 9
-5 1 1 381.06 9.8
5 -1 1 413.46 9.9
-5 2 -1 94.79 5.9
-5 2 -1 90.19 5.3
5 -2 -1 92.99 5.3
5 -2 1 88.99 5.3
-5 2 1 93.39 5.4
-5 2 1 93.89 5.8
-5 -3 1 530.55 8.3
5 -3 -1 548.55 14.7
-5 3 -1 537.95 15.3
-5 3 -1 549.05 14.9
-5 3 1 551.64 15.1
5 -3 1 558.74 15.1
-5 3 1 535.25 15.2
-5 4 -1 14 3.1
-5 4 -1 16.3 3.5
5 -4 -1 16.7 3.5
-5 -4 1 13.2 1.9
5 4 1 14.9 1.7
-5 -4 -1 12.8 1.5
5 -4 1 10.6 3
-5 4 1 11.5 2.9
-5 4 1 15.7 3.5
-5 5 -1 88.59 6.8
5 -5 -1 89.49 8.5
5 5 1 80.39 4.5
-5 5 -1 98.39 7.5
-5 -5 1 78.79 4.5
5 -5 1 78.49 8.2
-5 5 1 90.19 7.2
-5 -5 -1 88.39 4.4
5 -5 1 72.49 6.1
-5 5 1 78.29 6.5
5 -6 -1 55.59 6.1
5 6 1 56.19 4.4
-5 6 -1 47.4 8.1
-5 6 -1 52.19 5.8
-5 -6 1 45.8 4
5 -6 1 54.39 6.1
-5 -6 -1 54.09 1.7
-5 -6 -1 51.99 4.1
-5 6 1 43.9 6.3
-5 6 1 60.89 6.7
5 -6 1 73.09 6.6
5 7 1 69.49 5.5
5 -7 -1 78.19 7.7
-5 -7 1 66.89 2.5
-5 7 -1 71.09 7.5
-5 7 -1 68.59 6.6
-5 -7 1 63.19 5.2
5 -7 1 69.69 6.8
-5 -7 -1 71.79 3.2
5 -7 1 66.69 7.3
-5 -7 -1 66.89 5.1
-5 7 1 67.19 7.3
-5 7 1 63.49 6.5
-5 -7 -1 70.59 3.1
-5 8 -1 185.88 12.6
-5 -8 1 187.78 5.9
5 -8 -1 185.08 12.3
-5 8 -1 182.08 11
-5 -8 1 173.68 9.3
5 8 1 193.88 9.8
-5 -8 -1 186.08 6.4
-5 8 1 180.88 11.1
5 -8 1 188.78 12.6
-5 8 1 167.78 12.2
5 -8 1 188.08 11.5
-5 -8 -1 182.68 9.3
5 -9 -1 11.5 4.1
5 9 1 15.1 3.7
-5 -9 1 12.7 2.4
-5 9 -1 8.9 4.1
-5 9 -1 14.1 4.1
-5 -9 1 10.6 3.1
5 -9 1 16.7 5.3
-5 -9 -1 10.6 3.2
-5 9 1 9.8 3.8
5 -9 1 12.2 4.6
-5 -9 -1 10.7 2.3
-5 9 1 7.2 3.8
-5 -10 1 648.64 15.5
-5 10 -1 649.34 26
-5 -10 1 655.33 21.2
-5 10 -1 653.33 22.2
5 10 1 643.54 21.2
-5 10 1 639.34 26
-5 -10 -1 618.64 15.5
-5 10 1 644.44 22.3
-5 -10 -1 630.44 20.3
-5 -11 1 4.2 2
-5 11 -1 4.5 3.4
-5 11 -1 2 3.4
-5 -11 1 5.8 3.1
-5 11 1 2.5 3.7
-5 -11 -1 4.3 2.7
-5 11 1 5.6 3.4
-5 12 -1 82.09 8.6
-5 -12 1 57.59 6
-5 -12 1 76.59 8.4
-5 12 -1 74.19 11.5
-5 12 1 73.49 8
-5 12 1 78.39 11.5
-5 -12 -1 74.09 8.2
-5 13 -1 285.67 20
-5 13 -1 326.37 16.4
-5 -13 1 295.17 13.3
-5 -13 1 294.97 16.7
-5 -13 -1 286.67 16.3
-5 13 1 305.17 20.5
-5 13 1 268.47 15.3
-5 14 -1 410.66 24.4
-5 14 -1 410.36 18.7
-5 14 1 369.56 23.6
-5 14 1 378.76 18.3
-5 15 -1 6.2 3.4
-5 15 1 5 4.5
-5 15 1 1.9 3
6 0 1 -0.4 0.5
-6 0 -1 1.6 1.3
6 0 -1 -0.3 0.5
-6 0 1 0.9 0.6
-6 -1 1 20.6 1.4
6 1 1 19.1 1
-6 1 -1 20.2 3.4
-6 1 -1 14.7 2.3
6 -1 -1 20 2.4
-6 1 1 22.3 2.5
-6 -1 -1 20.6 2.7
6 -1 1 16.7 2.4
-6 1 1 24.8 3.6
6 -2 -1 553.14 13.7
-6 2 -1 539.75 15.2
-6 2 -1 537.45 13.7
-6 -2 -1 542.65 10.5
-6 2 1 521.75 13.8
6 -2 1 531.15 13.7
-6 2 1 529.75 15.1
6 -3 -1 2.2 1.6
-6 3 -1 1.5 1.6
-6 3 -1 3.2 1.7
-6 3 1 5.2 2
-6 3 1 6.4 2.4
6 -3 1 1.3 1.5
-6 4 -1 36.9 5.4
6 -4 -1 39.9 5.5
-6 4 -1 32.4 5
-6 -4 1 29.8 2
-6 4 1 36 5.3
-6 4 1 31.9 4.9
-6 -4 -1 33.3 1.6
6 -4 1 41.5 5.7
-6 5 -1 415.16 16
-6 5 -1 417.96 15.8
6 -5 -1 410.76 15.4
-6 -5 1 429.46 9.7
-6 5 1 411.46 16.1
-6 -5 -1 417.76 8.9
6 -5 1 413.26 15.6
-6 5 1 390.56 15.4
-6 6 -1 320.37 14.2
-6 6 -1 350.46 15.4
6 -6 -1 345.37 15.1
-6 -6 1 330.27 9.9
-6 6 1 354.16 15.7
6 -6 1 322.67 14.9
-6 6 1 347.17 14.9
-6 -6 -1 337.67 9.5
-6 7 -1 1300.57 33
-6 7 -1 1307.07 31.1
6 -7 -1 1315.67 32.6
-6 -7 1 1361.16 24.5
-6 -7 -1 1344.07 15
-6 7 1 1355.56 31.8
-6 -7 -1 1307.27 23.2
-6 -7 -1 1359.86 15.4
-6 7 1 1280.47 32.9
6 -7 1 1321.67 33.1
-6 -8 1 12.3 1.4
-6 -8 1 14.4 3.1
6 -8 -1 13.5 4.6
-6 8 -1 13.2 4
-6 8 -1 6 3.1
-6 8 1 12.2 4.2
6 -8 1 9.5 3.8
-6 -8 -1 16.2 3.3
-6 -8 -1 7.5 1.6
-6 8 1 5.1 3.1
-6 9 -1 26.4 5.9
-6 -9 1 22.2 4.2
-6 -9 1 23.6 2.4
-6 9 -1 24.2 6.3
-6 9 1 21.1 5.1
-6 9 1 22.4 6
-6 -9 -1 22 2.8
-6 -9 -1 19.2 4.3
-6 10 -1 21.7 5.3
-6 -10 1 32.6 5.6
-6 -10 1 35.5 3.4
6 -10 -1 23 6.1
-6 10 -1 22.6 6.3
-6 -10 -1 37.3 5.9
6 -10 1 25.6 6.1
-6 10 1 29.2 6.8
-6 10 1 34.1 6.5
-6 11 -1 107.79 11.8
-6 -11 1 99.89 8.6
-6 11 -1 127.39 10.5
-6 11 1 111.79 12.1
-6 11 1 113.19 10.1
-6 -11 -1 123.49 9.3
-6 12 -1 28.8 12.3
-6 -12 1 33.2 6.3
-6 -12 1 25.4 4.6
-6 12 -1 12.1 4.8
-6 12 1 26 11.8
-6 12 1 30.6 6.8
-6 -12 -1 28.3 5.7
-6 -13 1 13 4.5
-6 13 -1 23.6 5.9
-6 13 -1 6.5 5.5
-6 -13 -1 25.3 6.1
-6 13 1 13.1 5.4
-6 13 1 12.1 5.9
-6 14 -1 3.1 3.4
-6 14 1 3.9 4.2
-6 14 1 1.9 4.9
-6 15 -1 5.4 3.7
-6 15 1 4.6 4
-6 15 1 0.8 4.3
-7 0 -1 -0.3 0.9
7 0 -1 0.2 0.5
7 0 1 0.5 0.6
-7 0 1 0.1 0.6
-7 1 -1 333.27 11.8
-7 -1 1 348.97 6
7 -1 -1 360.16 9.7
-7 1 1 354.76 12
7 -1 1 352.56 9.8
-7 1 1 322.67 9.7
-7 -1 -1 341.57 10.3
-7 2 -1 0.9 1.4
-7 2 -1 2 1.2
7 -2 -1 1.6 1.2
-7 -2 -1 0.7 0.8
7 -2 1 1.5 1.3
-7 2 1 0.5 1.5
-7 2 1 3.7 1.6
7 -3 -1 323.77 11.8
-7 3 -1 319.77 12.9
-7 3 -1 309.77 11.7
-7 3 1 309.97 11.9
-7 3 1 320.67 13
7 -3 1 309.37 11.8
-7 -3 -1 314.87 7.6
-7 4 -1 682.83 19.4
7 -4 -1 635.64 19
-7 4 -1 639.34 20.3
-7 4 1 649.83 19.1
7 -4 1 657.93 19
-7 4 1 619.64 23.5
-7 5 -1 -0.4 1.4
-7 -5 1 0.2 0.5
7 -5 -1 -0.3 1.4
-7 5 -1 -1.5 1.3
-7 5 1 -0.5 1.7
-7 5 1 1.7 2.4
7 -5 1 1.3 1.9
-7 -5 -1 0.1 0.4
-7 6 -1 3.2 2.8
-7 6 -1 4.9 2.8
7 -6 -1 2.7 2.4
7 -6 1 4.7 2.9
-7 6 1 0.2 2
-7 -6 -1 5 1.3
-7 6 1 2.8 2.5
7 -7 -1 521.25 20.3
-7 7 -1 527.25 20.7
-7 7 -1 492.25 19.2
-7 -7 1 510.45 13
7 -7 1 473.75 19.5
-7 7 1 491.85 19.4
-7 7 1 501.45 20.4
-7 -7 -1 483.45 12
7 -8 -1 29.2 6.1
-7 8 -1 25.1 5.5
-7 8 -1 28.4 6.2
-7 -8 1 28.5 4
7 -8 1 29.7 6.3
-7 8 1 18.7 5.2
-7 8 1 23.5 5.4
-7 -8 -1 29.2 1.9
-7 -8 -1 27.2 3.8
-7 -9 1 15.2 2
-7 -9 1 14.6 3.3
-7 9 -1 13.7 4.9
7 -9 -1 15.6 4.9
-7 9 -1 20 5.3
-7 9 1 15.8 4.7
-7 9 1 14.5 5.3
-7 -9 -1 16 3.2
7 -9 1 16.4 5.3
-7 10 -1 4.2 3.2
-7 10 -1 2.2 2.9
-7 -10 1 3.6 1.4
-7 -10 1 0.2 1.5
-7 -10 -1 3.6 1.9
-7 10 1 0.3 3.1
-7 10 1 -2 2
-7 11 -1 145.79 13.5
-7 11 -1 155.88 12.1
-7 -11 1 151.58 10.1
-7 -11 1 164.38 7.4
-7 11 1 154.18 12.4
-7 11 1 175.58 14.8
-7 -11 -1 169.18 10
-7 12 -1 41.9 7.5
-7 -12 1 25.4 4.3
-7 12 -1 41.9 9.2
-7 -12 1 38.2 6.5
-7 12 1 34.8 7.2
-7 -12 -1 34.3 6
-7 12 1 37.4 8.7
-7 13 -1 15.1 5.8
-7 -13 1 8 4
-7 -13 -1 9.9 4.1
-7 13 1 16.6 6.6
-7 13 1 13.2 6.1
-7 -14 1 169.38 12.6
-7 14 -1 158.18 13.4
-7 -14 -1 174.28 12.5
-7 14 1 168.98 13.9
-7 14 1 213.38 18.7
-7 15 -1 11.2 4.2
-7 15 1 13.2 6.1
-7 15 1 7.5 4.8
8 0 -1 -0.4 0.6
-8 0 1 -0.8 1
-8 0 1 -1.3 0.6
-8 0 -1 2.2 1.8
8 0 1 1.3 0.8
-8 1 -1 4.6 2.2
8 -1 -1 5.9 1.7
8 -1 1 2.7 1.3
-8 1 1 2.1 1.4
-8 -1 -1 3.3 1.7
-8 1 1 4.5 2.2
8 -2 -1 259.97 9.7
-8 2 -1 261.87 9.9
-8 2 -1 257.07 11.7
-8 -2 -1 256.47 8.8
-8 2 1 250.17 10
-8 2 1 253.27 11.6
8 -2 1 250.77 9.7
8 -3 -1 43.7 4.7
-8 3 -1 41.4 7.1
-8 3 -1 43 4.7
-8 3 1 45 4.9
-8 3 1 46 7.8
-8 -3 -1 42.8 3.3
8 -3 1 30.1 4.6
-8 4 -1 193.08 11.1
-8 4 -1 204.98 10.7
8 -4 -1 203.98 10.4
-8 4 1 185.08 10.3
-8 4 1 188.58 11.1
-8 -4 -1 199.68 6.1
8 -4 1 195.28 10.4
-8 5 -1 15.2 3.9
8 -5 -1 13.8 3.8
-8 5 -1 15.8 4.2
8 -5 1 14.1 4
-8 5 1 11.5 3.9
-8 -5 -1 14.2 1.5
-8 5 1 15.1 3.9
-8 -6 1 637.84 10.3
-8 6 -1 665.73 22.6
-8 6 -1 635.34 22
8 -6 -1 661.43 22
-8 6 1 636.44 22.3
-8 -6 -1 635.34 8.4
-8 6 1 636.14 22.3
8 -6 1 689.33 22.7
-8 -7 1 2.1 1.1
-8 7 -1 1.7 2.3
8 -7 -1 -2.1 1.8
-8 7 -1 3.9 2.8
8 -7 1 -0.1 2.3
-8 7 1 -2.6 2.1
-8 7 1 2.4 2.7
-8 -7 -1 0.8 0.8
-8 -8 1 4.3 1.8
-8 8 -1 3 3.2
8 -8 -1 7.7 3.9
-8 8 -1 5.4 3.1
-8 -8 -1 5 0.9
-8 8 1 5.3 3.5
-8 8 1 5.7 3.3
8 -8 1 3.1 2.7
-8 -8 -1 4.9 1.6
8 -9 -1 34.2 7.4
-8 9 -1 27 6.6
-8 -9 1 31.5 4.3
-8 9 -1 25.9 6
-8 -9 1 29.7 1.8
-8 9 1 29.2 6.6
-8 -9 -1 32.2 4.2
-8 -9 -1 27.9 2.2
-8 9 1 29.4 7.1
8 -9 1 29.9 6.5
-8 10 -1 58.49 10.1
-8 -10 1 46.5 3
-8 -10 1 45.6 8.7
-8 10 -1 60.49 9.3
-8 10 1 41.6 7.9
-8 10 1 48.2 9.1
-8 11 -1 105.49 10.5
-8 11 -1 131.59 13
-8 -11 1 106.39 5.5
-8 -11 1 118.49 8.4
-8 11 1 119.09 12.6
-8 -11 -1 111.49 7.9
-8 11 1 108.89 11.3
-8 12 -1 8.7 5.3
-8 -12 1 3.1 2.6
-8 12 -1 12.9 5.4
-8 12 1 10.1 4.9
-8 -12 -1 7 3.1
-8 12 1 11.3 5
-8 -13 1 15.9 4.2
-8 13 -1 21 6.2
-8 13 1 12.8 5.4
-8 -13 -1 20.4 4.6
-8 13 1 9.5 5.8
-8 -14 1 17.1 5.3
-8 14 -1 6.9 5
-8 -14 -1 18.1 5.1
-8 14 1 18 5.7
-8 14 1 26.8 8.6
-9 0 -1 -0.3 1.1
9 0 1 -0.2 0.6
9 0 -1 0.4 0.6
-9 0 1 1.9 1.6
-9 1 -1 451.25 15.7
9 -1 -1 475.75 11.7
-9 -1 1 446.56 13.7
-9 -1 -1 454.05 14
-9 1 1 459.85 12.4
9 -1 1 454.75 11.8
-9 1 1 440.56 15.4
9 -2 -1 296.17 10.5
-9 2 -1 275.47 13.2
-9 -2 -1 299.97 10.5
-9 2 1 303.07 11.2
9 -2 1 304.07 10.9
9 -3 -1 37.6 5.1
-9 3 -1 33.9 5.7
-9 3 -1 41.9 4.8
-9 -3 -1 41 3.7
9 -3 1 39.9 5.4
-9 3 1 41.4 5.6
-9 3 1 35.4 5.9
9 -4 -1 4.7 2.2
-9 4 -1 -1.6 1.3
-9 4 -1 4 2.8
-9 -4 -1 0.2 1
-9 4 1 1.3 2.3
-9 4 1 0.7 2
9 -4 1 1 1.8
9 -5 -1 354.46 15.2
-9 5 -1 348.57 15.4
-9 5 -1 344.37 16.4
9 -5 1 361.76 15.6
-9 5 1 358.66 15.9
-9 -5 -1 365.26 8.6
-9 5 1 356.66 16.6
-9 6 -1 23.9 5.6
-9 6 -1 29.5 5.9
9 -6 -1 24.2 5.4
-9 6 1 26.6 5.6
9 -6 1 33.5 6.3
-9 6 1 31.1 6.2
-9 -6 -1 26.2 2
-9 7 -1 38.4 7
-9 7 -1 46.2 8.1
-9 -7 1 32.9 1.7
9 -7 -1 34.3 6.6
-9 -7 -1 31.6 1.9
9 -7 1 33 6.5
-9 7 1 38 7
-9 7 1 28.2 6.1
-9 -8 1 6.5 1.4
-9 8 -1 2.7 2.8
-9 8 -1 3 3.1
9 -8 -1 2.6 3.2
-9 8 1 3.6 3.1
-9 -8 -1 5.4 0.9
-9 8 1 8.8 4.2
9 -8 1 1.2 2.8
-9 -8 -1 3.6 1.1
-9 9 -1 1 3.2
-9 -9 1 1.4 1.1
-9 9 -1 1.8 2.8
-9 -9 -1 -0.4 0.9
-9 9 1 -2.1 2.7
-9 9 1 -1.9 1.9
-9 -9 -1 0.6 0.6
-9 10 -1 17.4 5.4
-9 10 -1 9.1 5.1
-9 -10 1 24.4 3.8
-9 -10 1 26.2 2
-9 10 1 18.5 5.9
-9 10 1 26.2 7
-9 -10 -1 25.8 3.6
-9 11 -1 7.2 4.4
-9 -11 1 7.5 2.6
-9 11 -1 6.2 4.3
-9 11 1 6.9 4.2
-9 11 1 5.2 4.4
-9 -11 -1 4.3 2.6
-9 -12 1 66.79 6.2
-9 12 -1 50.79 9.2
-9 -12 -1 53.09 5.7
-9 12 1 53.79 9.7
-9 12 1 48.8 10.3
-9 13 -1 68.09 10.6
-9 -13 1 68.89 7
-9 -13 -1 70.79 7
-9 13 1 63.29 10.3
-9 13 1 83.79 13.7
-9 14 -1 85.19 12
-9 -14 1 73.69 9.1
-9 -14 -1 81.39 8.4
-9 14 1 79.69 13.9
-9 14 1 77.59 11.8
-10 0 -1 -1.2 1.6
10 0 1 -0.7 0.6
-10 0 1 -0.1 1.6
-10 1 -1 89.39 7.4
-10 -1 1 79.59 6.2
10 -1 -1 80.09 4.7
-10 -1 -1 59.19 5.6
-10 1 1 82.99 5.2
10 -1 1 83.49 4.9
-10 1 1 69.89 8.1
-10 -2 1 770.72 18.5
10 -2 -1 773.62 17.9
-10 2 -1 720.13 22.2
10 -2 1 775.72 18.3
-10 2 1 761.72 18.8
-10 -2 -1 766.52 18.8
-10 2 1 765.12 22.9
-10 3 -1 316.57 15.1
10 -3 -1 313.27 14.9
-10 3 1 318.27 15.1
-10 3 1 353.96 13.7
-10 -3 -1 329.27 11.2
10 -3 1 326.87 12.8
10 -4 -1 236.48 11.7
-10 4 -1 243.08 13.7
-10 4 1 258.27 14.2
-10 -4 -1 225.78 8.5
-10 4 1 174.28 16.7
10 -4 1 235.28 11.9
-10 5 -1 13.5 4.4
10 -5 -1 10.2 3.6
-10 5 -1 5.2 3.1
-10 -5 -1 8.9 2
-10 5 1 10 3.5
-10 5 1 10.7 4
10 -5 1 14.6 4.2
10 -6 -1 6.9 3.4
-10 6 -1 10.9 4.3
-10 6 -1 10.7 3.8
-10 6 1 5.3 3.2
-10 -6 -1 4.8 1.4
-10 6 1 5.5 3.6
10 -6 1 10.6 3.8
-10 7 -1 0.3 2.4
10 -7 -1 3.5 2.5
-10 7 -1 3.5 3
-10 7 1 0.9 2.5
10 -7 1 1.3 2.2
-10 7 1 2.7 3
-10 8 -1 82.29 11
10 -8 -1 66.99 9.5
-10 8 -1 66.49 9.7
10 -8 1 71.49 9.8
-10 -8 -1 68.39 2.9
-10 8 1 54.99 9.1
-10 8 1 69.69 10
-10 -9 1 145.39 4.6
-10 9 -1 140.29 13
-10 9 -1 153.58 12.8
-10 9 1 160.48 13.7
-10 9 1 152.58 13.3
-10 -9 -1 146.49 4.3
-10 10 -1 51.19 9.1
-10 -10 1 58.79 4.1
-10 10 -1 56.69 10.3
-10 10 1 62.59 10.5
-10 10 1 47 9.3
-10 11 -1 30.9 7.4
-10 -11 1 31.4 3.7
-10 11 1 27.9 7.1
-10 11 1 29.5 8
-10 -11 -1 35.5 3.5
-10 -12 1 9.2 3
-10 12 -1 9.2 5.2
-10 12 1 3.4 4.2
-10 12 1 6.1 5.3
-10 13 -1 73.99 11.6
-10 -13 1 81.09 6.5
-10 -13 -1 47.1 5.4
-10 13 1 71.29 13
-10 13 1 60.09 10.6
11 0 1 0.1 0.6
-11 0 -1 -0.3 1.8
-11 0 1 -0.9 1.6
-11 1 -1 34.5 5.8
11 -1 -1 29.9 3.1
-11 -1 1 33.8 5.3
-11 1 1 29.6 5.4
-11 -1 -1 30.9 5.1
11 -1 1 28 3.1
-11 -2 1 4.5 2.2
-11 2 -1 1.2 2.4
11 -2 -1 3.4 1.8
-11 -2 -1 2.4 1.9
-11 2 1 5.9 2.7
-11 2 1 2.3 1.7
11 -2 1 2.8 1.8
-11 -3 1 489.95 14.6
11 -3 -1 467.05 15.4
-11 3 -1 481.25 19.6
11 -3 1 472.45 16.3
-11 -3 -1 479.45 14.7
-11 3 1 462.75 19.3
-11 3 1 470.65 16.2
-11 -4 1 29.4 4
11 -4 -1 28 5.1
-11 4 -1 31.5 6.4
11 -4 1 27.4 5
-11 -4 -1 28.4 4
-11 4 1 41.6 6.3
-11 4 1 30.2 6.4
-11 5 -1 152.08 11.9
11 -5 -1 143.69 10.2
-11 -5 1 137.39 6.5
-11 -5 -1 151.98 7
-11 5 1 152.28 12
11 -5 1 125.09 9.7
-11 5 1 127.79 9.7
11 -6 -1 30.7 6
-11 -6 1 30.1 2.8
-11 6 -1 29.5 6.9
-11 -6 -1 39.3 3.3
-11 6 1 33.1 7
-11 6 1 29.8 6.2
11 -6 1 33.9 6.6
11 -7 -1 2.7 3.3
-11 -7 1 4 1.2
-11 7 -1 6.1 4
11 -7 1 4.7 3
-11 7 1 7.5 3.6
-11 -7 -1 8.3 1.7
-11 7 1 0.7 3.4
-11 8 -1 10.1 4.6
11 -8 -1 25 7.1
-11 -8 1 13 1.5
11 -8 1 15 5.4
-11 -8 -1 13 1.9
-11 8 1 10.7 4.7
-11 8 1 19.1 6
-11 9 -1 3.1 3.5
-11 9 1 6.1 4.4
-11 -9 -1 12.4 1.6
-11 9 1 13.6 4.9
-11 10 -1 61.09 10.5
-11 10 1 58.29 10.5
-11 10 1 65.69 11
-11 -10 -1 48.8 2.8
-11 11 -1 -2.9 2.9
-11 11 1 2.9 3.8
-11 11 1 0.7 4.2
-11 12 -1 21.7 7.2
-11 12 1 14.4 6.4
-11 12 1 11.2 5.9
-12 0 1 -1.2 2.1
-12 0 -1 5.4 3
-12 -1 1 2.3 2.3
-12 1 -1 3.1 2.3
12 -1 -1 0.8 1.2
12 -1 1 4.1 1.4
-12 -1 -1 4.3 2.8
-12 1 1 5.6 3
-12 2 -1 1.2 2.8
-12 -2 1 -0.8 1.6
-12 -2 -1 -1.4 1.7
-12 2 1 3.5 3.1
12 -2 1 -0.5 1.3
12 -3 -1 103.49 7.3
-12 3 -1 123.19 10.7
-12 -3 1 137.49 8.3
-12 3 1 97.49 9.5
-12 -3 -1 117.39 7.9
12 -3 1 103.49 7.5
-12 -4 1 69.19 5.7
-12 4 -1 71.39 9.9
12 -4 -1 86.69 7.3
-12 4 1 71.19 7.2
-12 4 1 72.99 8.6
-12 -4 -1 72.69 5.8
12 -4 1 77.09 7.3
-12 5 -1 39.2 7.7
-12 -5 1 37.8 3.9
12 -5 -1 28.1 5.9
-12 5 1 26 5.5
-12 5 1 40.9 8.2
-12 -5 -1 31.4 4.3
12 -5 1 26.2 5.7
-12 -6 1 156.68 6.9
-12 6 -1 141.79 12.6
12 -6 -1 138.29 10.9
-12 -6 -1 133.59 6.8
-12 6 1 143.39 12.7
12 -6 1 131.89 10.9
-12 6 1 143.59 11.3
-12 -7 1 71.09 4.2
12 -7 -1 57.19 8.6
-12 7 -1 62.89 10.1
-12 7 1 66.79 10.2
12 -7 1 61.99 9.3
-12 -7 -1 63.99 4.3
-12 7 1 73.09 10.1
-12 8 -1 86.39 12.2
-12 -8 1 78.59 3.9
-12 8 1 97.79 10.9
-12 -8 -1 90.19 4.5
-12 8 1 74.59 11.4
-12 -9 1 24.4 1.9
-12 9 -1 25.3 6.7
-12 9 1 26.5 7.2
-12 9 1 28 7.6
-12 -9 -1 18.2 2.1
-12 10 -1 28.4 7.6
-12 10 1 33.6 8.3
-12 -10 -1 32.4 2.4
-12 10 1 33.9 8.4
-12 11 -1 50.29 10.2
-12 11 1 48.2 9.9
-12 11 1 32.7 8.6
-13 0 -1 -2.1 1.9
-13 0 1 -0.3 2.6
-13 1 -1 -0.4 1.9
-13 -1 1 -1.2 2.3
13 -1 1 1.4 1
-13 -1 -1 8 3.3
-13 1 1 2.5 2.9
-13 -2 1 3.5 2.5
13 -2 -1 2.6 1.7
-13 2 -1 -0.8 2.3
13 -2 1 -2.2 1.2
-13 -2 -1 -0.9 1.8
-13 2 1 2.2 3.1
-13 3 -1 10.1 4.4
13 -3 -1 4 2
-13 -3 1 10.6 3.7
13 -3 1 5.1 2.6
-13 3 1 9.5 4.2
-13 4 -1 104.09 10.8
13 -4 -1 103.09 8.2
-13 -4 1 123.59 8.1
-13 4 1 124.79 11.4
13 -4 1 105.79 8.4
-13 -4 -1 109.19 7.5
13 -5 -1 30.2 5.6
-13 5 -1 24.7 6.7
-13 -5 1 28.5 4.4
-13 -5 -1 20.4 3.8
-13 5 1 23.1 6.6
13 -5 1 32.7 5.8
-13 -6 1 -2.1 1.7
-13 -6 -1 1.9 1.7
13 -6 1 0.4 3
-13 7 -1 17.2 6
-13 -7 1 17.6 2.9
13 -7 -1 19.2 5
13 -7 1 21.2 5.4
-13 7 1 18.2 6.2
-13 -7 -1 10.6 2.7
-13 -8 1 14.8 2.4
-13 8 -1 17.5 6.3
-13 8 1 4.2 4.5
-13 -8 -1 14.3 2.6
-13 -9 1 2 1.2
-13 9 -1 0.1 3.7
-13 9 1 5.1 4.7
-13 -9 -1 2.4 1.4
-13 10 -1 80.29 12.7
-13 10 1 68.49 11.9
-13 -10 -1 80.79 3.7
-14 0 -1 -3.1 2.2
-14 0 1 5.4 3.4
-14 -1 1 66.49 7.5
-14 1 -1 45 8
-14 -1 -1 54.59 7.9
-14 1 1 29.2 6.6
14 -2 -1 6.9 2.2
-14 2 -1 4.2 3.6
-14 -2 1 7 3.3
-14 2 1 -0.1 2.5
-14 -2 -1 2.7 2.7
14 -2 1 2.3 1.7
-14 -3 1 7.2 3.3
14 -3 -1 7.5 2.7
-14 3 -1 -1 2.9
-14 -3 -1 7.9 3.2
-14 3 1 4 3.8
14 -3 1 5.1 2.5
-14 -4 1 65.79 7.6
14 -4 -1 65.29 6.8
-14 4 -1 57.49 9.7
-14 -4 -1 72.29 6.9
14 -4 1 62.69 6.9
-14 4 1 60.29 9.8
-14 5 -1 121.79 12.2
-14 -5 1 111.19 7.6
14 -5 -1 107.99 9.4
-14 5 1 108.39 11.6
-14 -5 -1 100.69 7.5
14 -5 1 97.59 9.2
14 -6 -1 115.99 10.3
-14 -6 1 131.39 7.9
-14 6 -1 110.69 11.9
-14 6 1 121.79 12.4
14 -6 1 109.99 10.4
-14 -6 -1 120.09 7.6
-14 7 -1 111.69 12.4
-14 -7 1 125.09 7.2
-14 7 1 116.99 13.1
-14 -7 -1 93.99 6.6
-14 8 -1 10.4 5
-14 -8 1 17.9 2.8
-14 8 1 12 5.4
-14 -8 -1 5.7 2.4
-14 9 -1 11.3 5
-14 -9 -1 5.6 1.8
-14 9 1 5.7 5.2
-15 0 1 -2.4 2.3
-15 0 -1 3.9 3.6
-15 -1 1 51.19 7.8
-15 1 -1 63.79 9.5
-15 -1 -1 54.39 8.2
-15 1 1 74.29 10.3
-15 -2 1 57.39 7.9
-15 2 -1 35.6 8.1
-15 -2 -1 37.9 6.7
-15 2 1 36.4 8.2
15 -2 1 40.3 3.8
-15 -3 1 12 3.7
-15 3 -1 15.5 5.5
15 -3 -1 4.3 2.5
-15 3 1 7.3 4.2
-15 -3 -1 4.1 3.4
15 -3 1 14.4 3.3
15 -4 -1 49.3 6.6
-15 4 -1 53.49 9.5
-15 -4 1 45.6 6.8
15 -4 1 52.79 7
-15 -4 -1 59.49 6.9
-15 4 1 67.49 10.6
-15 -5 1 114.89 8.4
15 -5 -1 116.49 9.5
-15 5 -1 132.79 13
15 -5 1 113.39 9.6
-15 -5 -1 126.49 8.9
-15 5 1 119.69 12.6
-15 -6 1 1.8 2.5
-15 6 -1 5.1 4.6
15 -6 -1 -5.7 3.4
15 -6 1 5.1 4.6
-15 6 1 0.1 4.1
-15 -7 1 -3.7 2.1
-15 7 -1 -1 3.4
-15 -7 -1 1.5 2
-15 7 1 3.6 4.6
-16 0 -1 -0.4 3.5
-16 0 1 0.7 2.9
-16 1 -1 -1.2 2.8
-16 -1 1 -5.3 2.6
-16 -1 -1 2.7 3.5
-16 1 1 -1.6 3.5
-16 -2 1 63.59 9
-16 2 -1 62.79 10
-16 -2 -1 61.99 8.7
-16 2 1 61.49 10.3
-16 -3 1 68.99 8.9
-16 3 -1 62.79 10.6
-16 3 1 52.89 9.7
-16 -3 -1 61.09 8.3
16 -4 -1 10.8 3.6
-16 -4 1 4 3.3
-16 4 -1 0.9 3.5
16 -4 1 9 3.5
-16 -4 -1 -0.8 2.6
-16 4 1 17 6.4
-16 -5 1 81.39 7.5
16 -5 -1 48.4 7.1
-16 5 -1 62.39 10.7
16 -5 1 57.39 7.8
-16 5 1 46 9.7
-16 -5 -1 43.3 6.4
-17 0 -1 -2.3 4
-17 0 1 3.3 4.8
-17 1 -1 17.5 5.4
-17 -1 1 14 5.8
-17 -1 -1 1.2 4.2
-17 1 1 21.2 6.4
-17 -2 1 6.4 4.4
-17 2 -1 12.8 5.7
-17 -2 -1 6.5 4.4
-17 2 1 19.5 6.4
0 1 2 0.3 0.4
0 1 2 0 0.4
0 -1 -2 0.6 0.5
0 -1 2 0.1 0.3
0 -1 -2 -0.3 0.2
0 1 -2 0.5 0.4
0 -2 2 1479.75 17.7
0 -2 -2 1485.55 19.7
0 2 2 1424.46 19.7
0 -3 -2 -0.9 0.8
0 3 2 -0.8 0.9
0 -3 2 -0.3 0.7
0 -3 2 -0.7 1
0 3 -2 0.1 0.7
0 3 2 -0.5 0.7
0 -4 2 483.35 13.1
0 4 2 489.55 13.2
0 4 -2 464.15 12.8
0 -4 2 454.05 10.3
0 4 -2 466.45 9.5
0 4 2 473.35 10.3
0 -4 -2 485.45 12.8
0 -5 2 -1.2 0.9
0 -5 2 2.4 1.3
0 5 2 1 1.1
0 5 -2 1.2 1.2
0 5 -2 -1.3 0.6
0 5 2 0.4 1
0 -5 -2 -1.2 0.9
0 -6 -2 130.79 7.9
0 6 -2 117.39 5.2
0 6 2 122.69 7.8
0 -6 2 110.69 6
0 6 -2 117.59 7.7
0 -6 2 124.89 7.9
0 6 2 108.49 5.4
0 -7 2 -0.4 1.2
0 7 -2 0.4 1
0 -7 2 -0.5 1.1
0 7 2 0.2 0.9
0 7 -2 1.2 1.7
0 7 2 1.3 1.7
0 -7 -2 1.2 1.3
0 8 -2 1720.23 36.3
0 8 2 1735.63 27
0 8 -2 1758.42 25.9
0 -8 -2 1754.52 35.9
0 -8 2 1693.13 30.8
0 8 2 1754.22 36.7
0 -8 2 1732.63 36.4
0 9 -2 -1.6 0.9
0 -9 -2 -0.4 1.8
0 9 2 -0.7 1.6
0 9 2 3.3 1.6
0 -9 2 1.7 1.7
0 9 -2 1.1 1.9
0 -9 2 3.2 2.7
0 -10 2 0.3 1.6
0 10 2 2.1 1.5
0 -10 2 -3.7 1.9
0 10 2 -0.4 1.8
0 10 -2 0.2 1.2
0 10 2 2.3 1.5
0 10 -2 0.4 2.1
0 -10 -2 -2 1.8
0 11 -2 1.5 2.9
0 11 2 -3.3 1.7
0 11 2 -1.2 1.2
0 11 -2 0.3 1.2
0 11 2 -2.2 1.4
0 -11 2 -2.9 1.6
0 12 2 945.31 32.3
0 -12 2 1007.8 33.6
0 -12 2 950.5 32.4
0 12 -2 1000.9 17.9
0 -12 -2 943.41 31.4
0 12 2 988.9 19.4
0 12 2 984.8 18.9
0 13 2 3.9 1.5
0 13 2 -1.2 1.1
0 13 2 1.6 3.3
0 13 -2 0.4 1
0 13 -2 -1.2 1.1
0 -13 2 0.4 3
0 14 2 157.28 21.4
0 14 2 150.68 4.7
0 14 2 158.68 4.9
0 15 2 2.7 3.9
0 16 2 29.2 8.1
-1 0 -2 0.4 0.5
1 0 2 0.7 0.5
1 1 2 590.44 8.6
1 -1 -2 606.84 9.9
1 1 2 597.84 7.9
-1 1 -2 603.54 9.6
-1 -1 -2 603.14 8.2
-1 -1 -2 580.94 8.5
1 -1 2 573.34 9.5
-1 1 2 591.74 9.9
1 2 2 1491.35 19.4
1 -2 -2 1542.15 21.3
1 2 2 1488.05 16.2
-1 2 -2 1525.35 19.7
-1 -2 -2 1482.95 19
1 -2 2 1547.05 21.6
-1 2 2 1506.05 21.3
1 -2 2 1571.14 20.2
-1 -2 -2 1498.65 17.1
-1 3 -2 220.18 8
1 3 2 221.28 4.8
1 -3 -2 223.18 7.9
-1 3 -2 218.48 6.7
-1 -3 2 221.08 7.3
-1 -3 2 218.58 5
1 3 2 220.38 5
-1 3 2 226.48 7.2
1 3 -2 219.08 4
-1 -3 -2 240.78 7.3
-1 3 2 225.28 8.1
1 -3 2 220.38 8.1
1 -3 2 219.88 7
1 4 2 339.17 10.4
-1 4 -2 359.06 11.5
-1 -4 2 338.37 10.5
-1 4 -2 350.66 9.3
1 4 2 359.16 7
-1 -4 2 347.17 7.7
1 4 2 360.46 7.2
1 -4 -2 354.86 11.2
1 -4 2 345.37 11.4
1 -4 2 349.77 9.8
-1 -4 -2 347.17 10.2
1 4 -2 348.87 6
-1 4 2 342.47 9.7
1 5 2 116.19 4.2
-1 -5 2 121.39 7
-1 5 -2 111.19 5.5
1 -5 -2 112.39 7
-1 -5 2 114.29 5
1 5 2 115.09 4.1
1 5 2 115.89 6.8
-1 5 2 119.49 7.4
1 5 -2 131.09 7.1
1 5 -2 115.29 3.6
-1 5 2 115.99 6
1 -5 2 120.49 6.2
-1 -5 -2 118.69 5.3
1 -5 2 133.99 7.7
-1 -5 -2 120.39 6.7
1 6 2 9.7 2.8
-1 -6 2 2.1 1.9
1 6 2 5.3 1.2
-1 6 -2 6.7 1.9
1 -6 -2 5.4 2.4
1 6 2 3.8 1.2
-1 6 -2 7.2 2.6
-1 -6 2 6.5 1.8
-1 -6 -2 12.3 3.1
1 -6 2 10.5 2.6
-1 -6 -2 7.1 2
1 -6 2 3.4 2.2
-1 6 2 6.7 2.6
1 6 -2 6.6 1.2
1 6 -2 3.2 2.1
-1 6 2 10.8 2.5
1 7 2 1424.16 19.9
-1 7 -2 1401.26 30.9
-1 -7 2 1385.46 35.6
1 7 2 1420.26 19.9
-1 -7 2 1399.16 24.1
1 7 2 1363.86 29.5
1 -7 -2 1387.06 30.3
-1 7 -2 1436.26 24.5
1 7 -2 1408.96 29.7
-1 7 2 1447.86 25.5
-1 7 2 1460.15 31.7
1 -7 2 1420.66 27.2
1 -7 2 1394.26 31.1
1 7 -2 1422.36 18.3
-1 -7 -2 1419.86 24.8
-1 8 -2 2.1 2.3
1 8 2 2.2 1.1
1 -8 -2 2.6 2.1
1 8 2 0.1 1.7
-1 8 -2 0.1 1.1
1 8 2 2.2 1
-1 -8 2 1.8 1.7
-1 -8 2 3 2.2
1 -8 2 2.1 2.3
-1 8 2 -1.1 1.5
-1 -8 -2 1.7 1.7
1 8 -2 2.3 1.9
-1 8 2 0.2 1.2
1 8 -2 0.4 0.8
1 -8 2 1.5 1.5
-1 -9 2 130.49 8
1 9 2 129.99 10
1 9 2 133.09 5.2
-1 9 -2 151.18 11
1 -9 -2 122.99 9.7
-1 9 -2 142.99 7.5
-1 -9 2 125.39 9.8
1 9 2 135.39 5.3
1 -9 2 126.39 10.2
1 -9 2 154.38 9.4
-1 -9 -2 128.39 9.5
1 9 -2 137.79 4.6
-1 9 2 137.79 7.7
1 9 -2 131.49 9.9
-1 9 2 148.59 11
1 10 2 29.3 6.1
1 10 2 28.5 2.4
1 10 2 24.4 2.3
-1 10 -2 19.4 5.2
-1 -10 2 33.7 5.5
-1 -10 2 23.8 5.4
1 -10 -2 28.1 6
-1 10 -2 24.5 3.8
-1 10 2 28.3 6.4
1 -10 2 27.2 6
1 10 -2 24.7 1.9
1 -10 2 24.3 4.9
1 10 -2 25.7 2
-1 10 2 28.2 4.4
-1 -10 -2 24.4 5.3
1 10 -2 27.4 6.3
1 11 2 279.17 6.5
1 -11 -2 272.77 16.2
-1 11 -2 284.97 16.9
-1 -11 2 300.37 16.9
1 11 2 276.97 6.6
-1 -11 2 250.07 12.8
-1 11 -2 286.77 11
1 11 2 293.47 16.7
-1 11 2 289.37 17.3
-1 11 2 279.67 11.4
1 -11 2 275.97 14.3
1 -11 2 252.17 16
-1 -11 -2 274.17 15.6
-1 -12 2 86.29 9.7
-1 12 -2 102.99 6.7
1 -12 -2 95.59 10.3
1 12 2 90.49 9.8
-1 -12 2 75.69 7.9
-1 12 -2 98.39 10.6
-1 12 2 79.49 11.5
-1 -12 -2 75.99 10.1
1 -12 2 75.29 10.9
1 -12 2 93.69 8.8
1 13 2 -0.3 2.9
-1 13 -2 1.7 1.8
-1 -13 2 -5.2 2.4
-1 13 2 -4.6 2.4
-1 13 2 2.4 3.2
-1 14 -2 4.9 2.3
1 14 2 10.2 4.6
-1 14 2 3.8 4.2
-1 14 2 5.6 4
1 15 2 76.39 12.4
-1 15 -2 95.19 5.3
-1 15 -2 90.49 5.1
-1 15 2 82.19 13.3
-1 15 2 94.19 5.7
-1 15 2 86.19 5.9
1 16 2 42.7 9.2
-1 16 2 41.5 2.2
-1 16 2 37.7 9.4
-2 0 2 5720.63 117.19
-2 0 -2 5937.11 108.99
-2 -1 2 3334.27 75.69
2 -1 -2 3194.58 97.29
2 1 2 2943.81 91.19
-2 1 -2 2890.31 84.59
2 -1 2 3156.18 90.19
-2 1 2 2965.9 93.19
2 1 -2 3188.08 79.69
-2 -1 -2 3314.97 97.09
2 -2 -2 5744.43 148.09
2 2 2 4902.41 123.99
-2 2 -2 5169.58 130.89
-2 -2 2 5160.38 100.69
2 2 -2 5351.86 104.49
-2 -2 -2 4656.93 116.49
2 -2 2 5085.29 133.09
-2 2 2 5365.86 141.39
-2 -3 2 28.7 1.1
-2 3 -2 30.6 3.2
-2 3 -2 27.7 2.8
-2 -3 2 32.1 2.7
2 -3 -2 26.6 3
2 3 2 28.1 2.5
2 -3 2 29.8 3.2
-2 3 2 28.2 2.9
-2 -3 -2 27.4 2.4
-2 3 2 30.8 3.3
2 -3 2 29.4 3
-2 -3 -2 29.3 1.7
2 4 2 428.86 11.2
-2 4 -2 392.66 12.5
-2 -4 2 402.56 6.9
2 -4 -2 402.16 12.5
-2 4 -2 384.26 11
-2 -4 2 406.76 11.1
-2 4 2 405.16 11.6
2 -4 2 396.76 12.7
-2 -4 -2 402.66 10.5
-2 4 2 427.16 13.2
-2 -4 -2 419.86 8
2 -4 2 426.36 11.8
-2 5 -2 204.18 8.3
2 5 2 214.28 8.8
-2 -5 2 200.08 5.6
-2 5 -2 218.68 10.2
-2 -5 2 201.98 8.7
2 -5 -2 218.28 10
-2 -5 -2 210.48 6.4
2 -5 2 212.98 9
2 -5 2 188.78 9.4
-2 -5 -2 192.48 8.1
-2 5 2 194.68 8.5
2 6 2 34.4 4.8
-2 -6 2 33.4 4.7
-2 6 -2 30.8 5.1
-2 6 -2 32.2 3.7
-2 -6 2 33.1 2.8
-2 -6 -2 26.2 2.7
-2 6 2 27.4 5
2 -6 2 30.8 7.1
-2 6 2 29.3 4.3
-2 -6 -2 26.6 3.9
-2 -7 2 35.8 3.4
-2 7 -2 33 6.7
2 -7 -2 30.1 5.2
2 7 2 29.9 4.8
-2 7 -2 30.8 4.4
-2 -7 2 39.5 5.5
2 7 -2 33.5 5.1
-2 -7 -2 32.8 3.3
2 -7 2 37.8 6.2
-2 7 2 26.8 4.4
2 -7 2 34.8 5.2
-2 -7 -2 30.5 4.8
-2 7 2 46.5 8.7
2 8 2 765.02 22
-2 8 -2 699.33 18.3
-2 -8 2 703.93 21.3
-2 -8 2 737.73 16.8
-2 8 -2 747.23 23.8
2 -8 -2 687.73 22.4
2 -8 2 701.83 20.4
2 -8 2 746.23 23.9
-2 -8 -2 740.83 21.1
-2 8 2 729.33 23.8
-2 -8 -2 736.83 17.2
-2 8 2 715.03 19.1
2 9 2 461.25 18.2
-2 -9 2 442.96 17.8
-2 9 -2 437.26 14.6
2 -9 -2 425.46 18.4
-2 9 -2 450.65 19.3
-2 -9 2 437.36 13.8
-2 9 2 468.55 19.8
2 -9 2 447.66 16.9
-2 -9 -2 440.56 17.1
2 -9 2 461.25 19.6
-2 9 2 406.96 17.3
2 10 2 313.07 15.9
-2 10 -2 340.67 17.7
-2 10 -2 315.77 12.7
2 -10 -2 325.57 17.1
-2 -10 2 338.77 13.1
-2 -10 2 351.76 16.8
2 -10 2 350.66 15.7
2 -10 2 337.77 17.6
-2 10 2 337.97 13.6
-2 10 2 322.07 17.4
-2 -10 -2 362.56 16.5
-2 -11 2 375.76 14.8
-2 -11 2 391.96 18.8
2 -11 -2 386.96 19.5
-2 11 -2 378.36 19.8
2 11 2 387.96 18.8
-2 11 -2 380.66 14.3
-2 11 2 403.56 15.1
-2 -11 -2 414.66 18.7
2 -11 2 395.76 18
2 -11 2 413.06 20.8
-2 11 2 413.16 20.8
-2 12 -2 319.47 13.1
-2 12 -2 308.07 18.8
2 12 2 349.17 18.6
-2 -12 2 322.67 14.7
-2 -12 2 327.27 17.9
2 -12 2 324.97 16.9
-2 -12 -2 333.17 17.6
-2 12 2 331.87 19.6
-2 12 2 316.97 13.5
-2 13 -2 21.5 4.3
-2 -13 2 25.6 5.3
2 13 2 22.4 6.5
-2 13 2 25.1 4.7
-2 13 2 17.6 6.2
2 14 2 7 4.6
-2 14 -2 4.4 2.9
-2 14 2 8.3 3
-2 14 2 5.7 3.2
-2 14 2 11 5
2 15 2 5.3 4
-2 15 -2 0.7 2
-2 15 2 -0.8 2.8
-2 15 2 2.1 2.3
-2 15 2 0.2 3.7
-2 16 -2 13.2 3.9
-2 16 2 11 3.4
-2 16 2 12.5 4.3
-2 16 2 16.1 7.2
3 0 -2 2341.07 25.3
3 0 2 2360.16 26.8
-3 1 -2 36.7 3.1
3 -1 -2 38 2.7
3 -1 2 39.4 3.1
-3 1 2 39 2.9
3 -1 2 41.1 2.9
-3 -1 -2 44.4 2.4
-3 -2 2 6461.35 100.39
-3 2 -2 5667.73 152.48
3 2 2 5772.02 133.49
3 -2 -2 6141.69 167.78
3 -2 2 6215.18 163.28
3 2 -2 6199.88 113.09
-3 2 2 6346.56 167.38
3 3 2 91.79 4
-3 -3 2 93.79 4.2
3 -3 -2 110.29 6
-3 3 -2 96.49 5.4
3 -3 2 103.69 5.9
-3 3 2 100.89 5.7
-3 -3 -2 95.09 2.4
3 -3 2 99.49 5.6
-3 3 2 96.39 5.8
-3 -3 -2 90.69 3.7
-3 -4 2 62.49 4.1
-3 4 -2 64.79 5.3
3 4 2 61.29 3.9
3 -4 -2 51.49 4.7
-3 4 -2 64.99 4.9
-3 4 2 62.49 5.2
-3 -4 -2 58.69 2.2
3 -4 2 56.99 4.7
-3 4 2 53.09 4.6
3 -4 2 52.29 4.9
-3 -4 -2 63.29 3.8
-3 5 -2 70.39 5.4
3 -5 -2 67.89 5.8
3 5 2 72.79 4.9
-3 -5 2 65.39 4.8
-3 -5 2 72.19 2.5
-3 5 -2 68.69 6
-3 5 2 71.39 5.6
-3 -5 -2 75.09 3.3
3 -5 2 61.79 5.4
-3 5 2 68.99 6
-3 -5 -2 70.49 4.7
-3 -5 -2 73.79 3.2
3 -5 2 64.69 5.8
3 -6 -2 389.76 14.9
-3 -6 2 376.66 8
-3 6 -2 381.86 15.1
3 6 2 377.06 12.6
-3 -6 2 376.06 12.6
-3 6 -2 358.66 12.8
-3 -6 -2 362.56 11.9
-3 -6 -2 376.06 9
3 -6 2 395.66 15.3
-3 6 2 368.86 13.2
-3 6 2 371.06 14.9
3 -6 2 375.16 13.6
3 7 2 23.5 4.2
-3 -7 2 25.2 2.5
-3 -7 2 28.8 4.7
-3 7 -2 27.4 4.4
-3 7 -2 24 4.8
3 -7 -2 31.3 5.6
-3 7 2 30.9 4.8
-3 -7 -2 30.1 4.4
3 -7 2 34.6 6.3
-3 -7 -2 27.8 2.8
3 -7 2 34.9 5.5
-3 7 2 26.8 5.3
3 -8 -2 66.59 7.2
-3 -8 2 69.99 4.7
3 8 2 64.79 6.5
-3 -8 2 68.79 6.6
-3 8 -2 67.99 7.3
-3 -8 -2 75.69 6.6
3 -8 2 73.09 7.7
3 -8 2 58.49 6.2
-3 8 2 61.19 6.1
-3 -8 -2 73.99 4.9
-3 8 2 56.99 8
-3 -9 2 -2.1 1
3 9 2 -0.2 2
-3 -9 2 -0.2 1.9
-3 9 -2 0.7 2
3 -9 -2 3.2 2.7
-3 9 -2 4 2.1
3 -9 2 -1.9 1.8
-3 9 2 1.7 2
3 -9 2 -0.7 1.8
-3 -9 -2 1.2 1.9
-3 9 2 3.5 2.6
-3 -10 2 12.9 3.2
-3 10 -2 14.8 5.1
-3 -10 2 24.8 5.5
3 -10 -2 16.7 5.8
3 10 2 16.1 4.5
-3 10 -2 10.1 3.6
-3 10 2 8.5 4.2
3 -10 2 15.5 5.4
-3 10 2 8.1 3.2
3 -10 2 5 3.3
-3 -10 -2 16.7 4.5
-3 -11 2 111.39 7.9
3 -11 -2 109.69 10.6
-3 11 -2 120.59 11.6
3 11 2 120.69 10.4
-3 -11 2 109.19 10
-3 11 -2 125.89 8.8
3 -11 2 125.39 10.3
-3 11 2 119.29 11.7
-3 -11 -2 113.89 9.7
-3 11 2 131.29 9.3
-3 12 -2 477.65 23.6
-3 -12 2 464.05 21.1
-3 -12 2 434.26 16.4
-3 12 -2 435.66 16.7
3 12 2 468.15 21.3
-3 12 2 453.05 17.4
-3 -12 -2 434.16 21.5
-3 12 2 465.45 23.7
3 13 2 38.9 8.1
-3 13 -2 45.7 6.4
-3 -13 2 56.29 7.4
-3 -13 2 37.1 7.4
-3 13 2 37.2 12.7
-3 13 2 49.3 7
-3 -13 -2 50.59 8.3
-3 -14 2 62.99 7.3
3 14 2 58.59 10
-3 14 -2 63.89 6.7
-3 14 2 79.59 13
-3 14 2 53.89 7.2
-3 15 -2 20.9 4.6
-3 15 2 32.1 8.6
-3 15 2 27.8 5.4
-3 16 -2 171.48 10.1
-3 16 2 165.28 16.6
-3 16 2 151.68 11.2
-3 16 2 173.68 10.6
4 0 2 252.07 6
-4 0 2 236.08 6.1
4 0 2 229.88 6.5
4 0 -2 240.38 5.8
-4 0 -2 233.48 7.1
4 -1 -2 104.89 4.5
-4 1 -2 109.89 5.4
-4 -1 2 103.39 3.2
4 -1 2 92.99 4.5
-4 -1 -2 100.19 4
4 -1 2 99.89 4.9
-4 1 2 101.69 4.7
-4 2 -2 1 1.2
4 2 2 0.3 0.4
4 -2 -2 -0.4 0.7
-4 2 -2 1.2 1
-4 -2 -2 0.7 0.5
4 -2 2 0.4 1.1
-4 2 2 0.6 1
4 -2 2 1.5 1.1
-4 3 -2 3101.79 41.6
-4 -3 2 3098.19 34
4 3 2 3100.99 33
4 -3 -2 3053.79 41.2
-4 3 -2 3136.89 41.8
-4 -3 -2 3068.99 31.8
-4 3 2 3160.18 42.5
4 -3 2 3106.69 42
-4 3 2 3073.49 41.7
4 -3 2 3052.29 41.4
-4 -3 -2 3125.59 29.2
-4 -4 2 140.79 5.8
-4 4 -2 136.59 7.5
-4 4 -2 160.48 8.5
4 4 2 137.09 5.5
4 -4 -2 144.09 7.9
-4 -4 -2 139.09 2.8
-4 4 2 132.49 7.5
4 -4 2 137.19 7.9
4 -4 2 154.68 8.1
-4 -4 -2 149.29 5.3
-4 4 2 136.79 8
4 -5 -2 371.56 13.9
4 5 2 362.36 10.6
-4 -5 2 386.76 11.1
-4 5 -2 360.06 13
4 -5 2 367.76 14.2
-4 5 2 364.16 13.3
-4 -5 -2 373.06 10.2
-4 5 2 369.66 14.3
4 -5 2 387.36 13.7
-4 -5 -2 371.26 6.4
-4 6 -2 71.89 6
-4 -6 2 64.99 2.4
-4 6 -2 69.99 6.8
4 -6 -2 55.59 5.9
4 6 2 60.89 4.9
-4 -6 2 59.29 4.9
-4 6 2 68.29 6.1
-4 -6 -2 63.19 3.2
4 -6 2 63.49 6.4
4 -6 2 58.39 5.7
-4 -6 -2 63.29 3.1
-4 6 2 69.09 6.8
-4 -6 -2 57.99 4.6
-4 7 -2 34.4 5.4
-4 -7 2 35.8 5
4 7 2 40 4.5
-4 7 -2 32.8 5.6
-4 -7 2 35 2.4
4 -7 -2 36.3 6
-4 -7 -2 35.6 2.8
-4 7 2 32.1 5.4
-4 -7 -2 31.7 4.5
4 -7 2 40.5 6.8
-4 7 2 26.6 5.2
4 -7 2 41.5 6.2
4 8 2 198.68 10.5
-4 8 -2 170.08 11.6
4 -8 -2 182.48 11.9
-4 -8 2 160.08 11.5
-4 -8 2 167.48 6.4
-4 8 -2 147.59 9.4
-4 8 2 187.38 12.3
4 -8 2 175.48 10.8
-4 8 2 170.38 10.4
4 -8 2 189.68 12.5
4 9 2 17.6 5.2
-4 9 -2 20.1 5.3
-4 -9 2 26.3 3.6
-4 9 -2 21.9 4.8
-4 -9 2 18.2 4.2
4 -9 -2 29.4 6.2
4 -9 2 29.4 5.7
4 -9 2 34.8 6.9
-4 9 2 28.2 5.2
-4 -9 -2 25.8 4.9
-4 9 2 21.1 5.6
-4 10 -2 267.57 16.4
-4 10 -2 260.57 13.2
-4 -10 2 250.27 13.6
4 10 2 276.67 14.2
-4 -10 -2 274.17 13.7
4 -10 2 243.18 14
-4 10 2 283.17 17.1
-4 10 2 267.87 13.6
4 11 2 10.1 3.8
-4 11 -2 9.2 4.7
-4 -11 2 9.9 2.9
-4 11 -2 4.9 2.9
-4 -11 2 6.7 3.2
-4 11 2 0.3 3
-4 11 2 6.5 3.4
-4 -11 -2 8.9 3.6
4 -11 2 9 4
-4 12 -2 36.7 6.3
4 12 2 51.59 8.4
-4 -12 2 34 7.7
-4 -12 2 24.9 4.7
-4 12 -2 34.7 8.2
-4 12 2 46.3 7
-4 -12 -2 29.6 6.4
-4 12 2 49.4 9.5
4 13 2 -2.5 2.4
-4 13 -2 5.6 3
-4 -13 2 -6.6 2.3
-4 -13 2 3.1 2.7
-4 13 2 6.1 4.2
-4 -13 -2 -1.2 3.1
-4 13 2 -2.1 2.4
4 14 2 58.39 9.6
-4 -14 2 52.09 7.5
-4 14 -2 41.3 7
-4 14 2 55.19 10.5
-4 14 2 71.59 7.8
-4 15 -2 21.6 5.5
-4 15 2 19.3 6.5
-4 15 2 17.5 4.8
-4 16 -2 15.9 4.5
-4 16 2 19.2 7.3
-4 16 2 8.2 4.1
-5 0 2 99.49 4.2
5 0 2 105.99 4.1
5 0 -2 101.29 3.9
-5 0 -2 103.69 5.1
5 1 2 2.3 0.6
-5 -1 2 1.2 0.6
5 -1 -2 0.3 0.7
-5 1 -2 1.1 1.2
-5 -1 -2 1.8 1
-5 1 2 0.9 0.8
5 -1 2 0.8 1
5 -1 2 2.2 1.1
5 -2 -2 141.69 6.5
5 2 2 138.19 2.5
-5 -2 2 140.09 3.5
-5 2 -2 146.69 7.4
-5 -2 -2 143.09 4.7
5 -2 2 138.09 6.6
5 -2 2 152.58 7.2
-5 2 2 134.89 6.7
-5 -3 2 1.3 0.7
5 -3 -2 -0.5 0.9
5 3 2 0.7 0.5
-5 3 -2 1.7 1.5
-5 3 -2 1.3 1.5
-5 3 2 0.8 1.3
5 -3 2 1.6 1.4
-5 3 2 0.2 1.3
-5 -3 -2 0.5 0.6
5 -3 2 -0.7 1.1
-5 4 -2 616.24 17.5
5 4 2 629.94 11.5
-5 -4 2 635.14 12.2
5 -4 -2 621.44 17.4
-5 4 -2 647.04 17.7
-5 -4 -2 643.94 10.8
-5 -4 -2 645.54 7.9
-5 4 2 645.64 18.2
-5 4 2 629.14 17.7
5 -4 2 642.04 20.8
5 -4 2 656.13 18.2
-5 5 -2 128.59 8.5
-5 5 -2 144.49 8.7
5 -5 -2 141.09 8.8
5 5 2 134.39 5.9
-5 -5 2 133.19 6.1
5 -5 2 147.29 8.8
-5 5 2 145.89 9.2
-5 -5 -2 145.29 3.1
-5 5 2 135.89 8.6
-5 -5 -2 149.59 5.8
5 -5 2 156.38 9.7
-5 6 -2 56.89 6.2
5 -6 -2 48.8 7
5 6 2 43.9 4
-5 -6 2 45.8 4.1
-5 6 -2 45.7 5.3
5 -6 2 50.49 7
-5 -6 -2 47.5 2.3
-5 -6 -2 44.3 3.7
-5 6 2 48 5.6
-5 6 2 58.49 6.3
5 -6 2 44.6 6.3
5 7 2 116.69 7.1
-5 -7 2 112.59 3.4
5 -7 -2 118.09 9.3
-5 -7 2 120.29 7.3
-5 7 -2 120.09 8.5
-5 7 -2 103.59 8.8
-5 7 2 110.99 9.4
-5 -7 -2 113.49 4.4
5 -7 2 114.29 9.3
-5 -7 -2 118.69 6.7
5 -7 2 116.19 8.7
-5 7 2 109.49 8.4
-5 -8 2 430.26 9.3
-5 8 -2 405.26 16.3
-5 8 -2 441.36 19.1
5 8 2 439.36 15
-5 -8 2 459.05 15.5
5 -8 -2 449.86 19
5 -8 2 402.36 18.5
-5 8 2 393.16 18.5
5 -8 2 434.66 17.8
-5 8 2 426.46 17.2
-5 -8 -2 420.66 14.1
-5 9 -2 66.59 9.1
-5 -9 2 60.29 4.2
5 9 2 76.19 6.9
-5 -9 2 64.39 6.5
-5 9 -2 77.29 7.5
5 -9 -2 71.59 9.7
5 -9 2 72.09 8.4
-5 -9 -2 73.19 6.6
-5 9 2 84.89 8
-5 9 2 65.59 9.4
5 10 2 37.4 6.3
-5 -10 2 42.4 4.1
-5 10 -2 45.2 7.1
-5 10 -2 39.4 7.7
-5 -10 2 48.2 6.9
-5 10 2 38 7.6
-5 -10 -2 49 5.8
5 -10 2 47.5 7.9
-5 10 2 44.6 7.2
-5 11 -2 3.7 2.9
-5 11 -2 3.8 3
5 11 2 3.8 3
-5 -11 2 5.2 2
-5 -11 2 2.6 2.7
-5 11 2 5.4 3.3
-5 -11 -2 2.6 2.5
-5 11 2 3.8 3.4
5 12 2 238.08 14.5
-5 -12 2 234.38 14.2
-5 12 -2 226.38 13.7
-5 12 -2 236.38 17.3
-5 -12 2 244.58 11.3
-5 12 2 246.18 14.4
-5 -12 -2 228.38 13.7
-5 12 2 251.47 17.9
-5 -13 2 26 4.6
-5 -13 2 22.7 5.7
-5 13 -2 14.7 4.2
-5 13 2 11.6 6.3
-5 13 2 11.2 4.7
-5 -13 -2 16.5 4.9
-5 14 -2 27.8 6.1
-5 14 2 35.2 6.8
-5 14 2 27.9 7.8
-5 15 -2 8 3.8
-5 15 2 1.9 3.7
-5 15 2 4.6 4.8
-6 0 2 717.03 13.1
6 0 -2 753.42 12.3
-6 0 -2 737.23 15.9
6 0 2 716.83 12.4
-6 1 -2 402.46 12.3
-6 -1 2 384.76 7.5
6 1 2 395.06 6.4
6 -1 -2 398.86 10.1
-6 -1 -2 387.76 10.2
-6 1 2 379.16 10.5
6 -1 2 393.36 10.4
-6 -2 2 3.5 0.7
6 -2 -2 1.3 1.2
-6 2 -2 -0.1 1.1
-6 -2 -2 3.5 1.2
-6 2 2 2.7 1.6
6 -2 2 1.8 1.3
-6 3 -2 200.28 9.2
6 -3 -2 234.28 9.8
-6 3 -2 214.08 10.1
-6 -3 2 221.48 4.9
6 -3 2 212.98 9.6
-6 3 2 204.88 9.5
6 -3 2 201.28 9.3
-6 3 2 223.18 10.3
-6 -3 -2 219.28 5.8
6 4 2 123.39 3.8
6 -4 -2 111.19 7.5
-6 -4 2 112.39 4.3
-6 4 -2 123.69 8.1
-6 4 -2 99.19 7.2
6 -4 2 111.69 7.6
6 -4 2 125.29 7.9
-6 4 2 125.39 8.1
-6 4 2 132.99 8.5
-6 -4 -2 115.19 3.4
6 -5 -2 17.5 3.9
-6 5 -2 19.7 4.2
6 5 2 19.3 2.2
-6 -5 2 26.3 2.5
-6 5 -2 25.1 4.8
-6 -5 -2 24.3 2.1
-6 5 2 22.8 4.6
6 -5 2 24.5 4.8
-6 5 2 22.1 4.6
-6 -5 -2 20.6 1.3
6 -5 2 31.8 5.3
-6 6 -2 79.59 7.5
-6 -6 2 75.59 4.9
6 -6 -2 83.09 7.4
-6 6 -2 77.59 7.1
6 6 2 64.39 4.4
-6 6 2 74.29 7.3
-6 -6 -2 64.79 4.1
-6 6 2 87.99 7.9
6 -6 2 68.99 7.1
-6 -6 -2 73.29 2.5
6 -6 2 88.49 7.5
6 7 2 8.5 2.3
-6 7 -2 2.9 2.7
6 -7 -2 6.9 3
-6 -7 2 8.8 2.4
-6 7 -2 5.8 3.1
-6 -7 -2 8.7 1.4
6 -7 2 6.8 3.2
-6 -7 -2 8.4 2.2
-6 7 2 12 4.1
6 -7 2 10.2 3.6
-6 7 2 10.1 3.6
6 -8 -2 176.58 12.2
-6 -8 2 149.29 8.5
-6 8 -2 158.38 11.7
-6 -8 2 169.98 4.6
-6 8 -2 163.88 10.8
6 8 2 157.58 8.5
-6 8 2 143.39 11.6
-6 -8 -2 155.78 8
-6 8 2 145.09 10.5
-6 -8 -2 157.38 5.6
6 -8 2 174.38 11.7
6 -8 2 175.78 12.4
-6 9 -2 423.56 18.1
-6 -9 2 394.76 9.4
-6 -9 2 400.16 15
6 -9 -2 400.96 30.5
-6 9 -2 422.56 20.2
6 9 2 394.26 14.8
-6 9 2 426.46 20.7
-6 -9 -2 423.26 14.7
-6 9 2 399.36 17.9
-6 10 -2 69.39 11
-6 -10 2 81.79 7.4
6 -10 -2 61.99 9.5
-6 10 -2 77.29 8
6 10 2 66.69 6.8
-6 -10 2 78.29 4.8
6 -10 2 66.29 10.2
-6 10 2 71.09 7.9
-6 -10 -2 72.79 6.7
-6 10 2 61.09 10.2
-6 -11 2 61.29 7.2
-6 11 -2 85.39 8.7
-6 11 -2 88.99 10.5
-6 11 2 65.99 10.6
-6 -11 -2 72.89 7.2
-6 11 2 63.19 9.1
-6 12 -2 27 6.1
-6 -12 2 36.2 6.6
-6 -12 2 24 4.4
-6 -12 -2 26.7 5.4
-6 12 2 19.9 5.3
-6 13 -2 236.88 15.1
-6 -13 2 255.97 11.9
-6 -13 2 223.28 14.4
-6 13 2 251.87 15.5
-6 -13 -2 226.08 14
-6 13 2 267.57 19.8
-6 -14 2 25.7 4.6
-6 14 -2 22 6.8
-6 14 2 7.4 5.5
-6 15 -2 67.69 9.6
-6 15 2 79.79 9.1
-6 15 2 79.89 13.9
-7 0 2 100.89 4.7
7 0 2 100.59 4.4
-7 0 -2 100.99 6.1
7 0 -2 100.49 4.2
-7 1 -2 1.8 1.5
-7 -1 2 0.6 0.6
7 -1 -2 0.4 0.9
7 1 2 1.8 0.5
7 -1 2 0.8 1
-7 -1 -2 2.3 1.4
-7 1 2 3.4 1.4
-7 2 -2 -0.9 1.1
7 -2 -2 0 0.9
-7 -2 2 0.6 0.3
-7 2 2 0.7 1.1
-7 2 2 0 1.5
-7 -2 -2 0.8 1
7 -2 2 0.3 1.2
7 -3 -2 712.63 18
-7 3 -2 679.23 19.5
-7 3 2 674.23 18.3
-7 -3 -2 730.93 13.2
-7 3 2 724.63 20
7 -3 2 720.73 18.6
-7 4 -2 271.37 12.6
-7 -4 2 273.57 5.4
-7 4 -2 260.47 11.8
-7 -4 -2 268.27 6.6
-7 4 2 249.68 12.5
-7 4 2 265.67 12.1
7 -4 2 285.17 12.9
-7 5 -2 0.6 2.2
-7 -5 2 4 1.1
7 -5 -2 5.2 2.3
-7 5 -2 1.8 2.1
7 -5 2 6.2 2.8
-7 -5 -2 4.8 1
-7 5 2 5.5 2.7
7 -6 -2 84.69 7.8
-7 6 -2 87.39 7.9
-7 -6 2 87.19 4.7
-7 6 -2 78.19 7.6
-7 6 2 85.49 8.2
7 -6 2 85.69 8.1
-7 -6 -2 89.49 2.9
-7 6 2 77.19 7.6
-7 -6 -2 85.79 4
-7 7 -2 244.78 14
7 -7 -2 235.18 13.5
-7 7 -2 254.67 13.8
-7 -7 2 269.07 9.6
7 -7 2 231.78 13.9
-7 7 2 269.77 14.4
-7 -7 -2 249.97 8.3
-7 -7 -2 249.28 5.5
-7 7 2 251.37 14.4
-7 -8 2 423.56 6
-7 8 -2 444.46 20
7 -8 -2 410.86 18.9
-7 8 -2 412.26 18
-7 -8 2 419.16 13.5
7 -8 2 454.75 20.3
-7 -8 -2 431.86 8.8
-7 8 2 417.76 19.7
-7 8 2 453.35 19.2
-7 -8 -2 425.16 12.5
-7 -9 2 135.69 8.3
7 -9 -2 137.19 11.5
-7 -9 2 136.79 4.6
-7 9 -2 145.69 11.2
-7 9 -2 131.79 11.7
-7 9 2 129.89 11.8
7 -9 2 142.39 12
-7 -9 -2 146.69 8
-7 9 2 144.49 11.4
-7 10 -2 119.09 11.9
-7 -10 2 136.29 5.7
-7 -10 2 117.69 8.3
-7 10 -2 123.09 10.5
-7 10 2 125.69 10.9
-7 -10 -2 125.49 8.1
-7 10 2 142.39 13
-7 -11 2 17.2 4.1
-7 11 -2 1.8 3.4
-7 -11 2 10.5 2.5
-7 11 -2 10.5 4.4
-7 -11 -2 15.6 3.9
-7 11 2 11.3 4.8
-7 11 2 6.5 4.8
-7 -12 2 9 3
-7 12 -2 20 5.8
-7 -12 2 22.1 4.7
-7 12 2 17.7 5.7
-7 12 2 12.6 5.4
-7 -12 -2 14 4.1
-7 -13 2 -3.1 3.3
-7 13 -2 11.3 5.5
-7 -13 -2 -3 3.1
-7 13 2 -3.9 3.1
-7 13 2 0.7 2.9
-7 14 -2 -3.5 3.1
-7 -14 2 2.9 3.8
-7 -14 -2 -1.5 3.2
-7 14 2 5.4 4.9
-7 14 2 0.9 4
-7 15 -2 1.2 3.5
-7 15 2 1.4 4.1
-7 15 2 6.5 5.4
8 0 -2 1.6 0.8
-8 0 -2 0.8 1.4
8 0 2 1.5 0.8
-8 0 2 2.4 1.1
-8 -1 2 609.24 10.1
8 -1 -2 599.24 13.4
-8 1 -2 597.94 17.3
8 1 2 630.34 7.6
-8 1 2 582.24 16.8
-8 1 2 598.34 14.4
-8 -1 -2 607.34 15.4
8 -1 2 624.04 14.1
8 -2 -2 20.1 3.3
-8 2 -2 13.1 3.5
8 -2 2 16.5 3.2
-8 2 2 20.1 3.4
-8 2 2 12.9 3.2
-8 -2 -2 14.5 2.7
-8 3 -2 380.86 15.2
8 -3 -2 392.16 13.4
8 -3 2 397.96 13.9
-8 3 2 394.06 14
-8 -3 -2 389.06 10.3
-8 3 2 389.66 15.8
8 -4 -2 82.19 6.8
-8 4 -2 74.09 7
8 -4 2 86.69 7.1
-8 4 2 84.09 7.1
-8 4 2 89.89 7.8
-8 -4 -2 78.29 4.1
-8 -5 2 17.3 1.1
-8 5 -2 17.1 4.1
8 -5 -2 15.3 3.9
-8 5 -2 22.2 5
8 -5 2 16.9 4.3
-8 5 2 10.1 3.6
-8 5 2 19 4.4
-8 -5 -2 23.6 2.1
-8 -6 2 49.9 2.9
-8 6 -2 49.5 7.3
8 -6 -2 53.99 7.6
-8 6 -2 51.09 7.8
-8 6 2 52.49 7.7
-8 -6 -2 51.39 2.6
8 -6 2 50.19 7.6
-8 6 2 48.7 7.5
-8 -7 2 40.4 3.3
-8 7 -2 32.3 6.4
-8 7 -2 35.9 6.6
8 -7 -2 41.9 7.2
-8 7 2 42.7 7.3
-8 -7 -2 41.7 2.3
-8 7 2 41.5 7.1
-8 -7 -2 37.6 2.8
8 -7 2 43.5 7.7
8 -8 -2 33.6 8.2
-8 -8 2 41.5 3.9
-8 8 -2 31.5 6.5
-8 8 -2 30.5 6.4
-8 8 2 37.6 7.1
-8 -8 -2 35.9 2.3
8 -8 2 31.5 6.8
-8 8 2 36.1 7
-8 -8 -2 38.4 3.5
-8 9 -2 1.9 2.9
8 -9 -2 10.8 4.9
-8 -9 2 10.2 1.2
-8 -9 2 7 2.7
-8 9 -2 5 3.5
-8 9 2 6.3 4.1
-8 -9 -2 8.4 1.7
8 -9 2 3.7 3.5
-8 9 2 6.4 3.9
-8 -9 -2 12.7 2.6
-8 -10 2 8.3 2.5
-8 10 -2 7.2 4
-8 10 -2 3.5 3.3
-8 -10 2 10.4 1.6
-8 10 2 4.2 4.3
-8 10 2 2.5 3.5
-8 -11 2 199.58 11.1
-8 -11 2 199.68 7.5
-8 11 -2 224.38 15.2
-8 -11 -2 215.48 10.7
-8 11 2 192.18 14.3
-8 11 2 191.18 16
-8 -12 2 554.34 19.6
-8 12 -2 548.85 25
-8 12 2 508.45 23.8
-8 12 2 525.15 27.2
-8 -12 -2 525.75 17.9
-8 13 -2 75.89 11
-8 -13 2 58.99 7.6
-8 13 2 58.19 11.1
-8 13 2 69.89 10.8
-8 -13 -2 72.29 7.3
-8 -14 2 91.19 9.4
-8 14 -2 82.49 11.8
-8 -14 -2 79.09 8.7
-8 14 2 96.49 14.7
-8 14 2 69.09 10.7
-9 0 -2 18.7 3.8
-9 0 2 22.1 2.4
9 0 2 16.5 2.2
-9 -1 2 522.75 8.8
9 -1 -2 494.85 12.2
-9 1 -2 501.55 16.6
-9 -1 -2 506.05 15
-9 1 2 486.35 16.3
-9 1 2 510.95 13.5
9 -1 2 511.65 12.8
9 -2 -2 4 1.7
-9 2 -2 2.3 2
9 -2 2 2.4 1.6
-9 2 2 1.1 1.9
-9 2 2 2.6 1.6
-9 -2 -2 3.5 1.8
9 -3 -2 203.48 9.8
-9 3 -2 188.68 11.1
-9 3 2 207.58 10.5
-9 3 2 236.78 12.5
-9 -3 -2 215.58 8.3
9 -3 2 221.18 10.5
9 -4 -2 14.7 3.4
-9 4 -2 16.9 4.5
-9 -4 -2 19 2.7
-9 4 2 14 3.7
-9 4 2 13.6 4.1
9 -4 2 21 4.5
9 -5 -2 25.3 5.3
-9 5 -2 22.4 5.3
-9 5 2 24.7 5.5
-9 5 2 29.9 5.7
-9 -5 -2 33 2.8
9 -5 2 30.1 5.6
-9 6 -2 2.1 2
-9 6 -2 2.4 2.6
9 -6 -2 -0.7 2.3
-9 6 2 -1.3 1.7
9 -6 2 2.2 2.8
-9 6 2 3.1 2.8
-9 -6 -2 0.7 0.9
9 -7 -2 67.19 7.9
-9 7 -2 40.8 7.4
-9 -7 2 54.39 2.8
-9 7 -2 56.79 8.6
-9 7 2 42.2 7.4
9 -7 2 63.79 9.1
-9 -7 -2 47.9 2.7
-9 7 2 48 7.9
-9 -8 2 24.4 2.6
-9 8 -2 36.2 7.3
-9 8 -2 27.7 6.5
-9 8 2 31.2 6.8
9 -8 2 35.2 7.1
-9 8 2 32.6 6.8
-9 -8 -2 33.3 2.2
-9 9 -2 32.9 7
-9 -9 2 31.6 3.5
-9 9 2 35.7 7.4
-9 -9 -2 28.2 2.9
-9 9 2 19.2 5.8
-9 -9 -2 32.9 2.5
-9 -10 2 5.2 1.1
-9 -10 2 2.9 1.8
-9 10 -2 1.5 3.3
-9 -10 -2 7.3 1.9
-9 10 2 0 3.3
-9 10 2 4.4 3.9
-9 11 -2 0.7 2.6
-9 -11 2 -1.6 1
-9 -11 2 -2.5 1.6
-9 11 2 0.1 3
-9 11 2 -0.6 3.2
-9 -11 -2 -2 1.6
-9 -12 2 7.5 2.8
-9 12 -2 2.1 3.4
-9 -12 2 6 1.8
-9 -12 -2 -0.4 2.3
-9 12 2 1.9 4
-9 12 2 1.7 3.7
-9 -13 2 6.6 2.9
-9 13 -2 -4.9 2.8
-9 13 2 0.2 3.8
-9 13 2 -1.7 3.3
-9 -13 -2 -1.7 2.2
-9 -14 2 54.49 12.3
-9 14 -2 53.79 9.8
-9 14 2 51.59 11.2
-9 -14 -2 54.19 6.9
-9 14 2 54.89 10
-10 0 2 71.59 6.4
10 0 2 69.89 3.6
-10 0 2 73.39 4.2
-10 0 -2 74.29 6.5
10 -1 -2 33.4 3.3
-10 1 -2 42.5 6.2
-10 1 2 33.1 5.6
-10 -1 -2 42 5.6
10 -1 2 37.4 3.6
-10 1 2 32 3.6
-10 2 -2 34.7 5.9
10 -2 -2 26.3 3.9
10 -2 2 29.2 4.1
-10 -2 -2 28 4.4
-10 2 2 25.6 4.2
-10 2 2 26.5 5.4
-10 3 -2 37 6.3
-10 -3 -2 38.2 4.1
-10 3 2 29.2 4.8
10 -3 2 36.1 5.2
-10 3 2 36.8 6.6
-10 4 -2 22.6 5.4
10 -4 -2 18.5 4.1
-10 4 2 21.9 5.5
-10 -4 -2 17.6 3.1
10 -4 2 20.9 4.4
-10 4 2 25.1 5.1
10 -5 -2 3.7 2.8
-10 5 -2 4.7 3.2
-10 -5 -2 3.8 1.6
-10 5 2 7.6 3.6
10 -5 2 4.2 3.2
-10 5 2 9.3 3.4
-10 6 -2 207.28 13.7
10 -6 -2 211.28 12.7
-10 6 2 201.98 13.1
-10 6 2 202.28 13.7
-10 -6 -2 224.18 7.2
10 -6 2 193.28 12.5
10 -7 -2 4.5 3.4
-10 7 -2 1.8 3
10 -7 2 9.5 4.1
-10 7 2 23.9 5.9
-10 -7 -2 7.2 1.7
-10 7 2 5 3.6
-10 8 -2 59.99 9.4
10 -8 -2 47.3 7.9
10 -8 2 61.49 9.1
-10 8 2 47.2 8.5
-10 8 2 51.39 8.8
-10 -8 -2 54.79 3.1
-10 -9 2 23.2 2.2
-10 9 -2 32 7.5
-10 9 2 27.5 7.2
-10 9 2 24.7 7
-10 -9 -2 19.3 2
-10 10 -2 21.5 6.3
-10 -10 2 27 3.1
-10 10 2 21 6.1
-10 -10 -2 30.8 2.7
-10 10 2 17.3 6.3
-10 -11 2 8.9 2.4
-10 11 -2 7.5 3.8
-10 11 2 5.9 4.3
-10 11 2 19 5.9
-10 12 -2 24.1 6.5
-10 -12 2 18.5 3.7
-10 12 2 16.2 7.3
-10 12 2 5.4 4.8
-10 13 -2 -0.8 4.3
-10 -13 2 9.1 3.2
-10 13 2 2.6 4.9
-10 13 2 5.7 5.3
-10 -13 -2 -1.7 2.2
11 0 2 1.1 0.9
-11 0 2 3.9 2.3
-11 0 -2 5.3 2.8
-11 -1 2 458.55 15.9
-11 1 -2 443.36 17.4
11 -1 -2 453.35 11.8
-11 1 2 452.55 17.5
-11 -1 -2 427.26 15.6
-11 1 2 456.35 12.9
11 -1 2 441.36 11.8
-11 -2 2 4 2.1
11 -2 -2 3 1.5
-11 2 -2 -1 1.7
11 -2 2 2 1.7
-11 2 2 2.1 1.6
-11 2 2 2.1 2.1
-11 -2 -2 1.7 1.7
-11 3 -2 3 3.1
11 -3 -2 -0.9 1.6
-11 -3 -2 5.5 2.3
11 -3 2 2.3 1.9
-11 3 2 4.3 2.4
-11 3 2 4.8 3.4
-11 4 -2 26.5 5.9
11 -4 -2 25.1 4.7
-11 4 2 26.2 5
-11 4 2 23.7 5.8
-11 -4 -2 23.3 3.7
11 -4 2 21.5 4.5
11 -5 -2 -0.1 2.4
-11 5 -2 2.9 3.2
-11 5 2 1.7 3
-11 -5 -2 5.9 1.8
-11 5 2 9.9 3.4
11 -5 2 3.1 3.3
-11 6 -2 2.4 2.8
11 -6 -2 4.9 2.9
-11 6 2 2.5 2.8
11 -6 2 7.7 3.7
-11 -6 -2 5.3 1.7
-11 6 2 0.6 2.3
-11 7 -2 0.1 2.7
11 -7 -2 -2.1 2.4
-11 -7 -2 -1.4 0.9
11 -7 2 -1.2 2.8
-11 7 2 0.2 2.9
-11 7 2 0.6 2.4
-11 8 -2 115.39 11.4
-11 8 2 116.29 11.7
11 -8 2 127.29 14.2
-11 -8 -2 131.69 5.2
-11 8 2 127.19 12.1
-11 9 -2 69.49 10.7
-11 -9 -2 80.29 3.9
-11 9 2 90.09 12.4
-11 9 2 83.09 11.8
-11 10 -2 26.2 7.2
-11 10 2 37.9 8.9
-11 -10 -2 34.1 2.7
-11 10 2 35.4 8.4
-11 -11 2 6.5 1.2
-11 11 -2 5 4.3
-11 11 2 7.4 4.5
-11 11 2 6.1 4.7
-11 12 -2 87.29 12.6
-11 -12 2 87.89 4.9
-11 12 2 84.09 13.8
-11 12 2 99.59 14.1
-12 0 -2 149.29 10.2
-12 0 2 157.38 10.5
-12 1 -2 46.6 7.3
-12 -1 2 43.1 6.3
-12 -1 -2 52.99 6.1
-12 1 2 52.99 7.7
12 -1 2 48.7 3.8
-12 2 -2 133.19 10.4
12 -2 -2 111.19 6.7
-12 -2 2 123.39 8.4
-12 2 2 112.89 7.3
12 -2 2 93.29 6.4
-12 2 2 128.89 10.4
-12 -2 -2 114.39 9.8
12 -3 -2 581.84 17.2
-12 3 -2 531.15 21.4
-12 -3 2 560.94 16.9
-12 -3 -2 530.65 16.8
-12 3 2 554.14 22.3
-12 3 2 530.25 17.6
12 -3 2 537.65 17.2
12 -4 -2 131.79 9.1
-12 -4 2 133.59 7.6
-12 4 -2 139.89 11.5
-12 -4 -2 123.29 7.6
-12 4 2 129.19 9.4
-12 4 2 124.09 11.2
12 -4 2 122.09 8.9
-12 -5 2 28.2 4
-12 5 -2 29.9 6.7
12 -5 -2 35.5 6.6
-12 5 2 27.2 5.6
-12 5 2 23.5 5.9
12 -5 2 21.8 4.9
-12 -5 -2 29.5 4.2
-12 6 -2 4.8 3.8
-12 -6 2 2.4 1.3
-12 6 2 0.8 2.6
12 -6 2 -0.9 3.1
-12 6 2 0 3.1
-12 -6 -2 0.4 1.4
12 -7 -2 187.58 13.2
-12 -7 2 216.88 7.4
-12 7 -2 210.28 15.8
-12 7 2 200.28 14.2
12 -7 2 195.98 13.9
-12 -7 -2 206.88 7.9
-12 7 2 219.08 15.9
-12 8 -2 29 7
-12 -8 2 15.7 2.1
-12 8 2 14.9 6
-12 8 2 5.5 3.7
-12 -8 -2 16.1 2.4
-12 -9 2 62.19 2.8
-12 9 -2 64.29 10.7
-12 9 2 76.99 11.5
-12 9 2 51.89 9.9
-12 -9 -2 64.19 3.8
-12 10 2 173.48 15.4
-12 -10 -2 158.18 5.7
-12 10 2 154.08 14.8
-12 11 -2 -5.4 3.9
-12 11 2 4.2 5
-12 11 2 9.2 5.7
-13 0 -2 12.3 4.5
-13 0 2 17.1 4.6
-13 1 -2 27.3 5.7
-13 -1 2 20.4 5.1
-13 1 2 40.9 7.3
-13 -1 -2 29.7 5.6
13 -1 2 27.2 2.8
13 -2 -2 11.4 3
-13 -2 2 14.2 4
-13 2 -2 12.5 4.3
13 -2 2 6.8 2.4
-13 2 2 12.6 4.6
-13 -2 -2 5.3 2.5
13 -3 -2 31.4 4.8
-13 3 -2 29.5 6.3
-13 -3 2 19.6 4.7
-13 -3 -2 28 5
13 -3 2 26.8 4.6
-13 3 2 15.4 5.5
-13 -4 2 41.6 5.6
13 -4 -2 51.99 6
-13 4 -2 40 7.8
-13 4 2 31.5 5.6
-13 4 2 38.3 7.8
-13 -4 -2 43.9 5
13 -4 2 37.4 5.9
-13 -5 2 1.3 1.5
-13 5 -2 0.7 2.6
13 -5 -2 2.7 2.8
-13 5 2 -0.5 2.2
-13 5 2 1.2 3.5
13 -5 2 -0.7 2.2
-13 -5 -2 -1.6 1.7
-13 -6 2 14.3 3.1
13 -6 -2 2.7 4.4
-13 -6 -2 12.8 3.2
-13 6 2 5.6 3.2
-13 -7 2 138.89 6.8
13 -7 -2 163.88 14.9
-13 7 -2 139.39 13.1
-13 -7 -2 139.69 7.2
-13 7 2 136.79 12.1
-13 7 2 126.99 12.5
13 -7 2 122.09 11.4
-13 8 -2 251.97 17.6
-13 -8 2 235.08 7.8
-13 8 2 238.88 16.6
-13 -8 -2 231.08 8.5
-13 8 2 258.77 18.4
-13 -9 2 12.1 1.8
-13 9 -2 10 5.5
-13 9 2 15 6.1
-13 -9 -2 13.3 2.2
-13 9 2 8.4 5.4
-13 10 -2 39.3 9.4
-13 -10 -2 42.1 3.3
-13 10 2 37.6 8.6
-13 10 2 39.2 9.6
-14 0 -2 380.26 17.9
-14 0 2 339.17 17
-14 -1 2 6.8 3.3
-14 1 -2 1.7 3.2
-14 -1 -2 3.9 3
-14 1 2 4 3.4
-14 -2 2 54.29 7.4
-14 2 -2 57.69 9.2
-14 2 2 56.19 8.9
-14 -2 -2 73.89 7.4
14 -2 2 63.39 5
-14 3 -2 16.8 5.5
14 -3 -2 12.9 3.4
-14 -3 2 16.3 4.3
-14 3 2 16.5 5.6
14 -3 2 17.2 3.9
-14 -3 -2 7.5 3.5
-14 4 -2 101.89 10.8
-14 -4 2 98.59 8.7
14 -4 -2 96.99 7.8
14 -4 2 92.29 8.2
-14 -4 -2 100.69 7.9
-14 4 2 89.99 12.1
-14 5 -2 10.2 4.9
14 -5 -2 -0.3 2.8
-14 -5 2 0.8 2.2
14 -5 2 0.5 3.1
-14 -5 -2 5.5 2.7
-14 5 2 8.5 4.4
-14 6 -2 4.5 4.6
14 -6 -2 -7.6 3
-14 -6 2 0.2 2.1
14 -6 2 -1.1 3.1
-14 6 2 2 4.1
-14 -6 -2 1.4 2.1
-14 7 -2 155.28 14.7
-14 -7 2 154.88 7.9
-14 7 2 148.79 14.3
-14 -7 -2 126.19 7.5
-14 8 -2 48.6 9.5
-14 -8 2 41.5 3.8
-14 8 2 42.1 9.3
-14 -8 -2 40.3 4.2
-14 9 -2 3 4.3
-14 -9 -2 0 1.6
-14 9 2 -4.6 4.2
-15 0 -2 39.7 7.3
-15 0 2 31.6 6.8
-15 1 -2 194.68 14.2
-15 -1 2 179.78 12.6
-15 -1 -2 186.48 12.9
-15 1 2 190.58 14.1
-15 2 -2 66.79 10
-15 -2 2 68.39 7.7
-15 2 2 45.8 9.1
15 -2 2 72.79 4.8
-15 -2 -2 71.19 8
15 -3 -2 2.7 2.5
-15 -3 2 5.9 2.9
-15 3 -2 1.1 3.5
-15 -3 -2 -1 2.7
-15 3 2 0.9 3.5
15 -3 2 0.7 2.3
15 -4 -2 2.9 2.6
-15 4 -2 -0.1 3.5
15 -4 2 -1.6 2.9
-15 -4 -2 -0.7 2.4
-15 4 2 1.5 4
15 -5 -2 5.2 3.5
-15 5 -2 1.1 4.1
-15 -5 2 1.3 2.2
-15 5 2 0.6 4.1
15 -5 2 -0.4 3.3
-15 -5 -2 0.4 2.3
15 -6 -2 1.5 3.7
-15 6 -2 -4.6 2.7
-15 -6 2 2.2 2.5
-15 -6 -2 0.6 2.3
15 -6 2 4.8 4.4
-15 6 2 1.2 4.1
-15 -7 2 7.9 2.7
-15 7 -2 6.8 4.7
-15 -7 -2 11.3 3.4
-15 7 2 15.7 6
-16 0 -2 95.29 10.7
-16 0 2 93.99 10.6
-16 -1 2 146.99 12.3
-16 1 -2 121.49 12
-16 1 2 127.89 12.5
-16 -1 -2 108.19 10.5
-16 2 -2 71.29 11.1
-16 -2 2 79.59 10.2
-16 -2 -2 82.29 9
-16 2 2 79.69 11.7
-16 3 -2 71.39 11.1
-16 -3 2 84.89 8.9
-16 3 2 88.09 12.5
-16 -3 -2 89.19 8.9
-16 4 -2 57.29 10.3
16 -4 -2 41.9 5.9
-16 -4 2 59.89 6.9
-16 4 2 33.2 7.9
16 -4 2 44.3 6.1
-16 -4 -2 40.4 6.5
16 -5 -2 0 3.9
-16 -5 2 3.5 2.4
-16 5 -2 1.2 3.6
16 -5 2 4 3.8
-16 5 2 0.5 5
-16 -5 -2 -6.2 2.5
-17 0 -2 16.8 6.2
-17 0 2 36.4 11.4
-17 -1 2 32 7.3
-17 1 -2 27 7
-17 -1 -2 39.3 8
-17 1 2 37.9 8.1
0 0 3 0.4 0.5
0 0 -3 0.6 0.5
0 -1 -3 -0.2 0.5
0 1 3 0.1 0.6
0 1 3 0.6 0.7
0 -1 3 -0.1 0.5
0 -1 -3 0.3 0.5
0 1 -3 -0.3 0.4
0 -2 3 1492.65 19
0 2 3 1545.75 19.6
0 -2 -3 1520.55 20.7
0 2 3 1500.15 20.9
0 -3 -3 0.3 0.9
0 3 3 -0.1 0.8
0 3 -3 0.2 0.7
0 -3 3 1.9 1
0 -3 3 0.6 1
0 3 3 -0.4 0.8
0 -4 3 707.43 13.5
0 4 3 672.23 13.3
0 4 -3 683.23 12.3
0 4 3 669.93 15.9
0 -4 3 676.93 16.1
0 -4 -3 683.83 15.6
0 5 3 -0.5 1
0 -5 3 0.4 1.1
0 -5 -3 0.1 1
0 -5 3 -1.2 0.8
0 5 -3 0 0.7
0 5 3 1.2 1
0 6 3 157.18 6.8
0 -6 3 155.78 9
0 -6 3 156.28 7.2
0 6 -3 154.88 6.1
0 6 3 157.98 9
0 -6 -3 164.88 8.9
0 -7 -3 0.5 1.3
0 7 3 1.5 1.3
0 -7 3 1.9 1.4
0 7 3 1.7 1.7
0 7 -3 -0.1 1
0 -7 3 -3.4 1.2
0 8 3 223.48 8.7
0 8 -3 215.58 7.8
0 -8 -3 218.98 11.9
0 -8 3 208.18 12.1
0 8 3 220.48 8.7
0 -8 3 202.58 9.8
0 8 3 231.18 12.7
0 9 3 1.2 1.4
0 9 -3 -1.6 0.8
0 -9 3 2.9 2
0 -9 -3 -1.7 1.7
0 -9 3 0.1 2
0 9 3 0.2 1.3
0 9 3 -2.5 1.5
0 -10 3 48.9 8
0 10 3 50.39 7.8
0 10 -3 52.79 4.2
0 10 3 52.19 4.6
0 -10 3 54.29 5.8
0 10 3 63.89 4.9
0 -10 -3 52.79 8
0 11 3 -1.8 1.9
0 11 -3 -0.2 1.2
0 11 3 -2 1.1
0 -11 3 -6.4 3.3
0 -11 3 2.1 2.3
0 11 3 3.8 1.8
0 -12 -3 228.08 15
0 12 3 224.58 15.6
0 -12 3 196.08 15.2
0 -12 3 212.18 12.9
0 12 -3 214.18 7.7
0 12 3 208.18 8.5
0 12 3 219.68 8.9
0 -13 3 -5 2.7
0 13 -3 0.5 1.1
0 13 3 -1.6 1.2
0 13 3 1.7 1.6
0 13 3 -1.6 3.5
0 13 -3 0.5 1.1
0 14 3 289.37 20.3
0 14 3 254.07 7.1
0 14 3 256.17 7
0 15 3 6.8 4
0 16 3 77.29 12.9
1 0 3 0.2 0.5
-1 0 -3 -0.8 0.4
1 1 3 276.47 5.9
1 -1 -3 282.87 6.8
1 1 3 280.37 6.2
-1 -1 3 279.77 5.8
-1 1 -3 288.57 6.7
1 -1 3 284.77 6.7
-1 1 3 270.17 6.8
-1 -1 -3 287.47 6.1
1 -2 -3 190.18 6.5
-1 2 -3 194.08 6
1 2 3 201.78 6
-1 -2 3 194.78 4.8
1 2 3 193.18 4.9
-1 2 3 207.18 6.9
-1 -2 -3 192.68 5.7
1 2 -3 201.38 4.5
1 -2 3 204.48 6.3
-1 -2 -3 201.38 5.3
1 3 3 478.55 11.3
-1 -3 3 496.55 8.8
1 3 3 478.45 8.7
-1 3 -3 475.15 10.5
1 -3 -3 509.95 12.3
1 -3 3 488.55 11
1 -3 3 481.95 12.4
-1 3 3 503.95 12.7
-1 -3 -3 485.45 9.6
-1 -3 -3 492.05 11
1 3 -3 488.45 7.8
1 -4 -3 30.4 3.5
-1 -4 3 36.5 2.6
1 4 3 36.7 2.5
-1 4 -3 32.5 2.9
1 4 3 33.9 2.3
1 4 3 35 3.5
-1 -4 3 34.7 3.5
1 -4 3 32.3 3.7
-1 -4 -3 34.8 3.3
1 4 -3 32.4 1.9
1 -4 3 29.5 2.9
-1 4 3 35.7 3.8
-1 4 3 38.4 3.3
-1 5 -3 591.44 13.4
-1 -5 3 584.44 12.1
1 5 3 573.54 15.6
1 5 3 603.14 11.4
-1 -5 3 589.24 15.9
1 5 3 589.54 11
1 -5 -3 642.14 17
-1 -5 -3 598.94 15.4
-1 5 3 582.84 16.9
1 5 -3 573.24 9.7
-1 5 3 582.04 14.2
1 -5 3 599.04 14.6
1 -5 3 612.04 17.2
1 -6 -3 0.3 1.4
-1 6 -3 1.5 1.2
-1 6 -3 0.5 1.4
1 6 3 -0.9 0.8
1 6 3 2.2 1
-1 -6 3 2.4 1.8
1 6 3 0.8 1.4
-1 -6 3 2.4 1.3
-1 6 3 1.9 1.7
1 6 -3 1 0.7
1 -6 3 1.9 1.5
-1 -6 -3 2.1 1.5
-1 6 3 1 1.2
1 -6 3 3.9 2.1
1 7 3 600.64 11.9
1 7 3 545.25 17.9
1 -7 -3 524.25 17.8
-1 -7 3 558.84 14.2
-1 7 -3 547.75 19.5
-1 7 -3 554.94 14.2
1 7 3 564.14 11.7
-1 -7 3 546.95 18
-1 7 3 550.34 15.1
-1 7 3 563.14 19.4
-1 -7 -3 560.94 18.1
1 -7 3 525.95 18.3
1 7 -3 553.04 10.2
1 -7 3 587.94 16.7
1 8 3 15.8 2.3
-1 8 -3 17.6 3.3
1 8 3 16.7 4.3
1 -8 -3 13.6 3.7
1 8 3 17.9 2.5
-1 -8 3 13.6 3.8
-1 8 -3 12 3.6
1 -8 3 16.7 3.8
1 -8 3 18.5 4.8
-1 -8 -3 17.9 4.3
-1 8 3 16 3.9
-1 8 3 18.9 3.5
1 8 -3 18.9 2
-1 9 -3 21.6 4.9
1 9 3 20 2.6
-1 -9 3 27.6 4.5
-1 -9 3 20.6 4.8
1 -9 -3 28.9 5.9
1 9 3 11.5 3.5
1 9 3 20.8 2.4
-1 9 -3 17.3 3.3
1 -9 3 19.4 4.9
-1 9 3 18.2 4.7
1 9 -3 19.4 1.9
-1 -9 -3 22 4.7
1 -9 3 26.3 4.9
-1 9 3 16.8 3.6
1 10 3 32.3 6.2
-1 -10 3 29.3 5.1
1 10 3 28.8 2.7
-1 10 -3 25.8 3.9
-1 -10 3 27.3 5.6
1 10 3 29.4 2.7
1 -10 -3 30.6 6.4
1 -10 3 33.3 6
1 10 -3 31.8 2.1
-1 10 3 30.7 4.6
-1 10 3 35.5 7
-1 -10 -3 22.9 5.1
1 10 -3 28.8 2.1
1 -10 3 32.9 6.5
-1 -11 3 617.84 24.3
1 11 3 599.44 11.3
1 -11 -3 598.14 23.8
1 11 3 605.04 11.2
-1 -11 3 599.54 19.8
1 11 3 588.04 23.9
-1 11 -3 625.34 16.6
-1 -11 -3 582.84 22.7
1 -11 3 585.04 21.1
-1 11 3 637.14 25.7
1 -11 3 616.04 25
1 12 3 -3.8 2.1
1 -12 -3 3.5 4.1
-1 -12 3 2.2 2.5
1 12 3 0.2 0.4
-1 -12 3 -3.5 2.9
-1 12 -3 2.2 1.7
-1 12 3 -3.9 1.5
-1 12 3 -1.2 2.2
-1 -12 -3 -1.2 2.8
1 -12 3 6.6 3.3
-1 12 3 1.4 1.9
1 13 3 17.7 5.7
-1 13 -3 20.4 3.7
-1 -13 3 19.2 5.1
-1 13 3 21.4 6.8
-1 13 3 19.5 4.1
-1 13 3 21.1 4.1
1 14 3 0.4 3.6
-1 14 -3 0.4 1.9
-1 14 3 7.1 4.4
-1 15 -3 10.3 2.3
-1 15 -3 12.9 2.3
1 15 3 7.4 5.2
-1 15 3 10.6 2.7
-1 15 3 6.8 5.8
-1 15 3 10.1 2.8
1 16 3 2.3 4.4
-1 16 3 7.5 5.2
-1 16 3 3.6 1.6
-2 0 3 0 0.6
-2 0 -3 0.3 0.9
2 0 3 0.3 0.9
2 -1 -3 163.28 5.4
-2 1 -3 156.58 5.5
2 1 3 161.58 4.4
-2 -1 -3 164.88 4.7
-2 1 3 157.18 5.4
2 -1 3 149.79 5.4
2 2 3 1528.55 19.7
2 2 3 1549.05 17
2 -2 -3 1579.34 22.8
-2 2 -3 1576.74 22.4
-2 -2 -3 1538.95 18.4
-2 -2 -3 1557.74 19.4
-2 2 3 1584.64 23.5
2 -2 3 1583.44 23.4
2 -2 3 1559.34 22.5
2 3 3 98.19 2.5
-2 3 -3 98.59 5.1
-2 -3 3 102.09 3.1
2 -3 -3 102.09 5.6
2 3 3 98.89 2.7
2 -3 3 91.69 5.5
-2 -3 -3 100.99 3.7
-2 3 3 100.89 5.8
2 -3 3 99.79 5.3
-2 -3 -3 100.29 4.5
2 -4 -3 903.11 19.8
-2 -4 3 962.3 13.1
-2 4 -3 954 18.3
2 4 3 980.6 11.1
2 4 3 964.5 10.6
2 4 3 913.41 17.8
-2 -4 3 929.61 18.2
-2 -4 -3 942.71 14.6
2 -4 3 938.11 18.8
-2 4 3 980 21.1
-2 -4 -3 924.11 17.1
2 -4 3 951.3 20.9
2 -5 -3 1832.62 32.1
-2 5 -3 1843.22 32.8
-2 -5 3 1829.12 23
-2 -5 3 1853.81 30.2
-2 5 -3 1784.32 28.5
2 5 3 1838.72 18
2 5 3 1810.72 29.6
2 -5 3 1830.52 33.1
-2 5 3 1806.62 29.7
-2 5 3 1830.92 33.3
-2 -5 -3 1858.11 28.8
2 -5 3 1897.11 30.4
-2 -6 3 331.97 8.8
2 -6 -3 337.87 13.5
-2 -6 3 336.87 12.6
2 6 3 318.97 4.5
-2 6 -3 326.97 11.2
2 6 3 334.67 12.4
-2 6 -3 324.27 13.6
-2 -6 -3 317.67 11.6
2 -6 3 330.07 14.2
2 -6 3 338.17 14
-2 6 3 326.27 13.8
-2 6 3 310.27 11.6
-2 7 -3 52.59 4.8
-2 -7 3 58.49 4.2
-2 -7 3 50.99 7.6
2 -7 -3 61.99 6.3
2 7 3 67.59 6
-2 7 -3 70.89 7
-2 7 3 56.19 6.3
2 -7 3 63.69 5.8
-2 -7 -3 54.49 5.4
2 -7 3 55.29 6.3
-2 7 3 59.69 5.4
-2 8 -3 82.19 6.1
-2 -8 3 89.09 7.7
-2 8 -3 94.79 8.4
2 8 3 81.39 7.2
2 -8 -3 99.29 8.4
-2 -8 3 105.19 6.2
2 -8 3 82.59 8
-2 -8 -3 80.39 6.9
-2 8 3 89.49 8.4
-2 8 3 97.79 7
2 -8 3 93.09 7.3
-2 -9 3 36.2 4.1
2 9 3 27.6 5.4
-2 -9 3 27.3 6
-2 9 -3 34 4.9
-2 9 -3 31.5 6.1
2 -9 -3 31 6.1
2 -9 3 32.4 6.4
-2 -9 -3 28.3 5.3
2 -9 3 28.7 5.3
-2 9 3 38.8 7
2 -10 -3 356.86 17.8
-2 10 -3 339.87 13.1
2 10 3 364.86 17.2
-2 -10 3 353.46 13.4
-2 -10 3 315.47 16.2
-2 10 -3 343.57 17.7
-2 10 3 346.57 13.9
-2 -10 -3 354.76 16.2
2 -10 3 302.07 14.8
-2 10 3 326.47 17.8
2 -10 3 346.17 18.1
2 -11 -3 45.4 8.3
-2 -11 3 50.19 8.3
2 11 3 42 7.6
-2 11 -3 46.9 5.4
-2 -11 3 56.09 6
-2 -11 -3 62.49 7.3
-2 11 3 50.09 8.6
-2 11 3 52.39 5.9
2 -11 3 53.79 8.4
2 -11 3 48.6 8.9
2 12 3 3.8 3.2
-2 -12 3 -0.2 2.3
-2 -12 3 2 2.7
-2 12 -3 1.1 2
-2 12 3 -0.7 2.9
-2 -12 -3 6.9 3.1
2 -12 3 -5 2.4
-2 13 -3 85.59 7.1
-2 -13 3 65.69 8.4
2 13 3 93.09 10.9
-2 13 3 82.99 12.8
-2 13 3 80.89 7.3
-2 14 -3 262.57 11.7
2 14 3 246.28 17.6
-2 14 3 256.87 19
-2 14 3 248.58 12.5
-2 14 3 254.17 12.1
-2 15 -3 10.7 3
2 15 3 33.9 8.5
-2 15 3 8.7 6
-2 15 3 12.5 3.5
-2 15 3 13.9 4.3
-2 16 -3 3.6 4.7
2 16 3 2.2 4.4
-2 16 3 5.7 3.7
-2 16 3 1 2.5
-2 16 3 2.4 4.7
-3 0 3 -0.1 0.6
-3 0 -3 -1.1 0.9
3 0 3 -0.3 0.8
3 -1 -3 866.71 14.6
-3 1 -3 907.01 15.9
3 1 3 925.61 12.7
3 -1 3 924.71 15.9
-3 1 3 875.71 15.2
-3 -1 -3 904.31 13.5
-3 -2 3 9999 164.28
-3 2 -3 9677.53 204.88
3 2 3 8833.12 194.58
3 -2 -3 9966.3 227.38
-3 -2 -3 9661.93 207.18
3 -2 3 9692.83 211.68
3 2 -3 9029.2 173.88
-3 2 3 9753.92 220.58
-3 3 -3 604.94 14.4
3 -3 -3 626.94 14.9
3 3 3 603.74 11.6
-3 3 3 623.64 15.4
-3 -3 -3 622.24 9.6
3 -3 3 607.84 14.6
-3 -3 -3 617.34 11.1
3 -3 3 591.84 15
-3 4 -3 61.29 4.8
-3 -4 3 61.99 2.2
3 4 3 57.49 4
-3 -4 3 57.19 4.1
3 -4 -3 58.09 5
-3 -4 -3 57.49 3.7
-3 -4 -3 58.19 2.8
3 -4 3 60.39 5.3
3 -4 3 59.19 4.8
-3 4 3 64.39 5
-3 4 3 56.39 5.2
-3 5 -3 24.8 4.4
-3 -5 3 22.2 1.7
3 -5 -3 19.9 3.8
-3 5 -3 23.6 3.7
-3 -5 3 20.3 3.2
3 5 3 21.4 3.3
-3 5 3 23.5 4.6
-3 5 3 26.2 4.1
3 -5 3 16.8 3.9
-3 -5 -3 20.2 2.1
-3 -5 -3 21.1 3.1
3 -5 3 23.6 4
-3 -6 3 449.26 14.2
-3 6 -3 451.05 16.6
-3 6 -3 415.16 13.7
3 6 3 435.36 13.8
-3 -6 3 435.96 9.1
3 -6 -3 449.95 16.1
3 -6 3 421.86 14.6
3 -6 3 417.36 16
-3 6 3 419.96 16
-3 6 3 427.96 14.4
-3 -6 -3 412.06 12.8
-3 -7 3 90.39 6.8
-3 -7 3 86.29 4.5
-3 7 -3 92.19 6.7
3 7 3 76.59 6.3
3 -7 -3 69.59 6.8
-3 7 -3 87.79 7.9
3 -7 3 92.09 8.1
3 -7 3 89.79 7.1
-3 -7 -3 83.59 6.3
-3 7 3 79.99 7.5
-3 7 3 76.09 6.5
-3 -8 3 19.4 3.1
-3 8 -3 20.8 4.1
-3 -8 3 22 4.6
-3 8 -3 26.6 5.7
3 -8 -3 17.6 4.2
3 8 3 18.7 4.1
-3 -8 -3 23.4 4.4
3 -8 3 29.5 5.4
-3 8 3 16.1 4.4
-3 8 3 26.1 4.7
3 -8 3 18.5 4.9
-3 9 -3 2.9 2.6
3 9 3 0.7 2.1
-3 -9 3 1.1 1.4
3 -9 -3 4.6 2.6
-3 -9 3 7.1 2.9
-3 9 -3 1.4 1.9
3 -9 3 2.4 2.5
-3 9 3 2.2 2
-3 9 3 6.8 3.5
-3 -9 -3 3.4 2.1
3 -9 3 0.8 2.6
-3 10 -3 1.9 2.4
-3 -10 3 0.1 1.6
3 10 3 3 2.5
-3 -10 3 4.6 2.7
-3 10 -3 -3.9 1.2
-3 10 3 3 2.7
-3 10 3 -1.1 1.7
-3 -10 -3 0.5 1.8
3 11 3 2.8 3
-3 11 -3 7.8 3.1
-3 -11 3 13.7 4.5
-3 -11 3 8.9 3.1
3 -11 -3 6.2 3.9
-3 -11 -3 5.6 3.6
-3 11 3 12 3.5
-3 11 3 5.7 3.8
3 -11 3 7 3.8
-3 -12 3 31.3 5.4
3 12 3 25.8 6.2
-3 12 -3 25.1 5
-3 -12 3 21.2 5.6
-3 12 3 21.4 6.4
-3 -12 -3 24.7 5.6
-3 12 3 31.2 5.6
-3 13 -3 10.6 3.3
-3 -13 3 5.8 5.1
3 13 3 4.1 4.2
-3 -13 3 12.6 3.8
-3 -13 -3 8.8 4.2
-3 13 3 13.7 4
-3 14 -3 72.89 7.4
-3 -14 3 64.59 7.6
3 14 3 71.79 11
-3 14 3 56.89 11.2
-3 14 3 63.99 7.3
-3 15 -3 8.1 3.4
3 15 3 10.9 5.5
-3 15 3 7.3 5.1
-3 15 3 7 4.4
-3 15 3 13.8 4.1
-3 16 -3 -0.8 2.8
-3 16 3 -8.3 4.4
-3 16 3 1.3 4.3
-3 16 3 -6 2.3
-4 0 -3 -0.5 0.6
-4 0 3 0.8 0.7
4 0 3 1.3 0.9
-4 -1 3 196.88 5.3
-4 1 -3 208.38 7.6
4 1 3 198.28 5.2
4 -1 -3 200.48 6.6
4 -1 3 198.58 7.3
4 -1 3 201.68 6.9
-4 1 3 198.48 6.9
-4 -1 -3 191.68 6
4 2 3 750.62 11
4 -2 -3 755.22 15.6
-4 -2 -3 768.02 12.1
4 -2 3 789.12 16.4
-4 2 3 806.12 16.7
4 -2 3 775.02 16.5
-4 3 -3 138.69 7.1
4 3 3 141.29 4.9
4 -3 -3 135.59 6.9
4 -3 3 150.28 7.6
-4 3 3 141.99 7.4
-4 -3 -3 144.59 4.2
4 -3 3 149.39 7.5
-4 4 -3 708.03 17.7
4 -4 -3 719.53 18.4
4 4 3 736.03 14.2
-4 -4 3 730.83 14.7
-4 -4 -3 695.63 10.6
-4 4 3 739.53 19.2
4 -4 3 724.03 18.2
4 -4 3 768.82 19.5
-4 -4 -3 733.03 13.2
-4 4 3 729.43 18.3
4 -5 -3 941.41 28
-4 5 -3 1057.19 24.8
-4 -5 3 1058.19 11.6
-4 5 -3 1057.79 23.1
-4 -5 3 1098.39 20.6
4 5 3 1048.5 19.6
-4 -5 -3 1054.89 14.6
-4 5 3 1056.19 25.2
4 -5 3 1011.3 25.4
4 -5 3 1041.2 23.7
-4 -5 -3 1056.69 18.6
-4 5 3 1057.29 23.8
4 6 3 775.32 18.1
-4 -6 3 783.52 18.6
-4 -6 3 799.12 11.4
-4 6 -3 727.23 26.5
4 -6 -3 799.22 22.3
-4 6 -3 797.92 20.6
-4 -6 -3 836.92 17.7
-4 -6 -3 779.42 13.4
-4 6 3 711.43 27.4
4 -6 3 804.32 21.4
-4 6 3 761.92 20.8
4 -6 3 760.42 22.3
-4 7 -3 615.44 21.1
-4 -7 3 628.64 17.8
4 -7 -3 603.64 20.5
-4 -7 3 633.04 11.5
4 7 3 619.84 17.5
-4 7 -3 655.43 19.2
-4 7 3 606.14 19.1
4 -7 3 610.04 19.6
-4 -7 -3 643.74 16.9
4 -7 3 624.34 21.5
-4 7 3 634.04 21.7
4 -8 -3 131.69 10.2
-4 8 -3 126.39 8.6
4 8 3 137.69 8.8
-4 -8 3 122.09 5.5
-4 -8 3 114.99 8.1
-4 8 -3 115.89 9.9
-4 8 3 125.19 10.3
4 -8 3 132.29 10.4
-4 -8 -3 126.09 9.6
4 -8 3 118.99 9
-4 8 3 104.39 8.2
4 -9 -3 236.08 14.4
-4 9 -3 239.98 14.8
4 9 3 221.88 12.2
-4 -9 3 234.18 12.4
-4 -9 3 240.58 8.8
-4 9 -3 236.48 12.3
4 -9 3 247.78 13.6
-4 -9 -3 238.38 11.8
-4 9 3 253.87 13.1
4 -9 3 251.47 15
-4 9 3 222.38 14.4
-4 10 -3 7.7 3.2
-4 -10 3 6.4 2.4
4 10 3 4.6 3
-4 10 -3 8.8 4.1
-4 -10 3 4.7 2.7
-4 -10 -3 2.2 2.2
-4 10 3 4.1 2.9
4 -10 3 4.5 3.2
-4 10 3 3.5 2.8
4 11 3 4.4 3.3
-4 11 -3 -0.8 1.9
-4 -11 3 3.3 2.1
-4 -11 3 -0.3 2.5
4 -11 3 1.2 2.5
-4 11 3 3.6 3.4
-4 11 3 1 2.3
-4 -11 -3 3.6 2.5
4 12 3 143.19 11.5
-4 12 -3 127.49 9.8
-4 -12 3 130.79 8.8
-4 -12 -3 120.29 10.6
-4 12 3 144.89 13.7
-4 12 3 143.19 10.5
-4 -13 3 33.7 5.6
4 13 3 28.5 7.1
-4 -13 3 19.6 5.7
-4 13 -3 41.4 6.6
-4 -13 -3 33.4 7
-4 13 3 35.6 8.9
-4 13 3 33.6 6.1
-4 14 -3 1.2 3.3
-4 -14 3 9.1 4.2
4 14 3 10.3 5
-4 14 3 19.9 7
-4 14 3 15 5
-4 15 -3 11.3 4
4 15 3 8.7 4.3
-4 15 3 11.5 4.5
-4 15 3 8.7 5
-4 16 3 39.5 9.7
5 0 3 -0.6 0.6
5 0 3 0.9 0.9
-5 0 -3 0 0.8
-5 0 3 0.4 0.7
-5 1 -3 18.4 3.2
-5 -1 3 18.5 1.7
5 -1 -3 20.8 2.3
-5 -1 -3 20.2 2.4
-5 1 3 18.4 2.8
5 -1 3 21.2 2.9
5 -1 3 14.7 2.7
5 -2 -3 1186.98 20.9
5 2 3 1165.48 14.1
-5 2 -3 1150.48 22.4
5 -2 3 1194.98 21.7
-5 -2 -3 1163.88 17.2
5 -2 3 1171.08 22.2
-5 2 3 1193.78 22
-5 3 -3 98.79 6.5
5 3 3 94.39 3.6
5 -3 -3 75.59 5.5
5 -3 3 88.29 6.1
-5 3 3 83.29 6.1
-5 -3 -3 97.19 3.8
5 -3 3 87.49 6.1
5 -4 -3 560.34 16.4
5 4 3 568.94 11.4
-5 -4 3 548.45 12
-5 4 -3 540.55 16.3
-5 -4 -3 557.94 10.3
-5 4 3 545.95 16.5
-5 -4 -3 543.05 9.1
-5 4 3 558.64 17
5 -4 3 574.64 16.7
5 -4 3 530.95 16.5
-5 5 -3 297.17 12.4
-5 5 -3 298.87 13
5 5 3 291.47 9.1
5 -5 -3 316.97 13.1
-5 -5 3 321.37 10
-5 5 3 309.97 12.9
-5 -5 -3 298.67 6.4
-5 5 3 288.47 13
5 -5 3 302.57 13.1
-5 -5 -3 296.37 8.4
5 -5 3 305.87 12.8
-5 6 -3 401.96 16.2
5 6 3 381.56 11.8
5 -6 -3 377.46 15.4
-5 6 -3 409.86 15.2
-5 -6 3 394.76 12.3
-5 -6 3 403.16 5.7
5 -6 3 406.76 15.6
-5 -6 -3 405.66 8.4
-5 -6 -3 402.26 11.3
-5 6 3 394.16 15.4
5 -6 3 404.46 16.5
-5 6 3 388.06 16.4
5 -7 -3 129.19 9.5
5 7 3 126.89 7.5
-5 -7 3 122.69 3.9
-5 7 -3 119.99 8.6
-5 -7 3 130.09 7.8
-5 7 -3 124.39 9.8
5 -7 3 110.79 9.2
-5 7 3 115.89 8.8
-5 -7 -3 126.59 5.1
-5 7 3 124.69 9.8
5 -7 3 112.69 8.7
-5 -7 -3 123.69 6.8
5 -8 -3 16.2 4.3
-5 -8 3 21.8 5.1
-5 8 -3 13.9 4
-5 8 -3 8.3 3.1
5 8 3 19.1 3.9
-5 -8 3 16.4 2.3
5 -8 3 13.2 4.4
5 -8 3 14.3 4.3
-5 -8 -3 17.3 3.5
-5 8 3 18.3 4.9
-5 8 3 15.8 4.4
-5 -9 3 1.6 2.1
5 9 3 5.2 2.6
-5 -9 3 0.8 1.3
5 -9 -3 1.7 2.6
-5 9 -3 3.3 2.4
-5 9 -3 1.6 2.3
-5 9 3 -3 2.5
-5 -9 -3 2.9 1.9
-5 9 3 6.7 3.4
5 -9 3 0.2 2.9
-5 10 -3 28.1 5.6
5 10 3 37.4 6.1
-5 -10 3 23.5 5.1
-5 -10 3 29.6 3.4
-5 10 -3 32.3 7.4
5 -10 3 29.8 5.8
-5 10 3 29.3 7.4
-5 10 3 23 5.3
-5 -10 -3 32.7 5.6
5 11 3 4.8 2.9
-5 -11 3 8.9 3.7
-5 -11 3 4.1 2.2
-5 11 -3 7.7 3.3
-5 11 3 7 3.8
-5 11 3 8.2 4.3
-5 -11 -3 0.5 2.4
-5 -12 3 9.1 4.2
-5 12 -3 8.8 4.1
-5 -12 3 6.3 2.9
5 12 3 6.3 2.9
-5 12 3 7.5 4.2
-5 12 3 6.7 3.7
-5 -12 -3 3.5 3
-5 -13 3 17.4 3.8
-5 -13 3 9.6 3.8
-5 13 -3 9.5 3.9
5 13 3 12.6 4.7
-5 13 3 6.3 5
-5 13 3 1.2 3.4
-5 -13 -3 12.7 4.5
-5 14 -3 10.4 3.9
5 14 3 9.9 3.7
-5 14 3 5.2 3.6
-5 14 3 7.4 5.7
-5 15 -3 -5.5 2.7
-5 15 3 1 3.2
-5 15 3 -1.3 3.4
-6 0 -3 -1 0.8
6 0 3 -0.9 0.5
-6 0 3 0.6 0.8
-6 1 -3 708.73 17
6 -1 -3 725.83 14.4
6 1 3 724.63 11.1
-6 -1 3 705.33 12
6 -1 3 715.93 14.9
-6 -1 -3 698.13 14.7
-6 1 3 695.23 15.2
6 -1 3 700.53 15.7
6 2 3 311.87 5.1
6 -2 -3 321.77 10.4
-6 -2 3 325.17 6.7
-6 2 -3 329.27 11.9
6 -2 3 319.27 10.8
-6 -2 -3 319.57 8.7
6 -2 3 327.57 11.4
-6 2 3 328.47 11.2
-6 3 -3 38.3 5.3
6 -3 -3 41 4.3
6 3 3 36.8 1.9
-6 -3 -3 35.4 2.7
-6 3 3 49.99 4.9
6 -3 3 41.9 6.1
6 -3 3 37.4 4.2
-6 -4 3 1532.85 21.4
6 4 3 1535.35 19.7
6 -4 -3 1542.75 29.7
-6 4 -3 1542.75 30.7
-6 -4 -3 1574.54 19.6
6 -4 3 1501.65 30.1
-6 4 3 1551.24 31
-6 4 3 1460.75 30.1
6 -4 3 1543.75 30.3
6 5 3 1336.97 20.3
6 -5 -3 1335.97 29.2
-6 5 -3 1359.26 29.6
-6 -5 3 1326.47 21.5
6 -5 3 1342.97 30
-6 -5 -3 1361.86 17.1
-6 -5 -3 1319.87 18.8
-6 5 3 1313.07 30.2
6 -5 3 1343.37 29.4
-6 5 3 1356.66 30
-6 -6 3 54.59 4.4
6 6 3 56.29 4.3
-6 6 -3 56.69 6.2
-6 6 -3 46.1 6.8
6 -6 -3 57.59 6.3
6 -6 3 58.49 6.6
-6 6 3 68.09 6.9
-6 -6 -3 55.79 3.9
-6 6 3 46.7 6.9
6 -6 3 64.89 6.5
-6 -6 -3 58.99 2.9
-6 -7 3 -0.1 1.1
6 -7 -3 -1.6 1.4
6 7 3 -0.1 1
-6 -7 3 1.4 0.5
-6 7 -3 7 3.1
-6 7 -3 0.5 2
-6 -7 -3 0.4 0.9
-6 7 3 -1.1 1.8
6 -7 3 4.9 2.5
6 -7 3 -1.8 1.6
-6 7 3 -0.2 1.8
-6 -7 -3 0.2 0.9
-6 -8 3 191.48 9.8
-6 8 -3 182.48 11.6
6 8 3 198.68 9.7
6 -8 -3 204.78 13.1
-6 8 -3 187.98 12.8
-6 -8 3 202.18 5.4
6 -8 3 203.58 13.5
-6 -8 -3 195.28 6.8
6 -8 3 199.68 12.4
-6 8 3 183.28 13
-6 8 3 202.08 12.4
-6 -8 -3 207.58 9.3
6 -9 -3 29 6.3
-6 9 -3 32.6 7.2
-6 -9 3 24.9 4.6
6 9 3 39.1 5.6
-6 9 -3 30.4 6
-6 -9 3 34 2.9
-6 -9 -3 33.4 5
-6 9 3 29.9 6.8
6 -9 3 30.7 8
-6 9 3 25.8 5.9
-6 -10 3 25.3 3.4
-6 10 -3 17.2 4.9
6 10 3 19.7 4.3
6 -10 -3 25 6.6
-6 -10 3 25.5 4.9
6 -10 3 13.1 5.3
-6 -10 -3 22.1 4.4
-6 10 3 15.8 5.3
-6 10 3 19.7 5.1
6 11 3 205.98 12.3
-6 -11 3 195.98 12.2
-6 11 -3 181.28 12.5
-6 11 3 199.38 13.5
-6 11 3 189.28 15.4
-6 -11 -3 185.28 11.1
-6 12 -3 95.59 9.5
-6 -12 3 108.59 7.3
6 12 3 97.19 9.4
-6 -12 3 96.59 9
-6 12 3 115.89 10.4
-6 -12 -3 111.49 9.3
-6 12 3 99.39 21.6
-6 -13 3 -2.7 3.3
-6 -13 3 0.2 2.4
-6 13 -3 1.8 3.3
-6 13 3 9.4 5.1
-6 13 3 1.4 3.4
-6 -13 -3 4.3 3.5
-6 14 -3 260.27 18.5
-6 -14 3 256.57 12.6
-6 14 3 267.77 21.1
-6 14 3 210.68 17.8
-6 -15 3 6.8 4.2
-6 15 -3 11.9 4.4
-6 15 3 0 3.9
-6 15 3 3.2 4.6
-7 0 -3 0.1 1.2
-7 0 3 0 0.7
7 0 3 0 0.7
-7 -1 3 276.37 7.2
-7 1 -3 290.47 11.1
7 1 3 281.07 6.2
7 -1 -3 277.97 8.7
7 -1 3 292.17 9.4
-7 1 3 287.27 9.7
-7 -1 -3 271.57 9.5
-7 -2 3 659.73 10.3
-7 2 -3 650.73 18
7 -2 -3 640.54 15.5
-7 -2 -3 641.34 14
7 -2 3 642.74 16.2
-7 2 3 626.64 16.4
-7 3 -3 74.39 6.4
7 -3 -3 73.79 5.6
-7 -3 3 80.09 2.9
7 -3 3 87.49 6.6
-7 3 3 78.49 6.2
7 -3 3 80.99 6.3
-7 -3 -3 78.49 4.3
-7 3 3 90.29 7
-7 4 -3 32 5.4
-7 -4 3 33.5 2.3
7 -4 -3 31.9 5
-7 4 3 43.9 6.1
-7 4 3 34.5 5.5
7 -4 3 34.7 5.4
-7 -4 -3 34.3 2.7
7 -5 -3 4.4 2.5
-7 5 -3 3.4 2.3
-7 -5 3 2.3 1.1
7 5 3 3.1 1.1
7 -5 3 4.7 2.5
7 -5 3 0.8 1.9
-7 5 3 2.8 2.3
-7 5 3 3.4 2.4
-7 -5 -3 3.2 1
7 6 3 7.5 1.8
7 -6 -3 1.2 2
-7 -6 3 3.9 1.6
-7 6 -3 3.7 2.7
-7 6 3 3.9 2.6
-7 6 3 5.9 3.1
7 -6 3 6.4 2.9
7 -6 3 5 2.8
-7 -6 -3 8.1 1.4
-7 7 -3 149.69 10.6
-7 -7 3 152.48 7.6
7 7 3 147.59 6.9
7 -7 -3 133.29 10.3
-7 -7 -3 155.88 6.5
7 -7 3 141.09 10.4
7 -7 3 135.69 10.7
-7 7 3 163.88 11.4
-7 -7 -3 139.89 4.8
-7 7 3 146.69 11.1
-7 8 -3 82.99 8.3
7 8 3 88.49 6.1
7 -8 -3 82.69 8.9
-7 -8 3 86.49 6.4
-7 -8 3 81.79 2.8
-7 8 3 89.29 9.5
7 -8 3 82.89 9.1
-7 8 3 86.79 8.7
7 -8 3 81.09 8.3
-7 -8 -3 83.59 5.6
-7 -8 -3 89.69 4.3
-7 -9 3 76.89 3.6
7 -9 -3 76.39 10.3
7 9 3 81.79 6.5
-7 9 -3 71.59 8.1
7 -9 3 67.79 10.2
-7 -9 -3 70.89 5.6
-7 9 3 79.59 8.7
-7 9 3 81.59 9.5
-7 -10 3 -0.2 1
-7 -10 3 2.9 1.9
7 10 3 -0.7 1.8
-7 10 -3 1.6 2.2
-7 10 3 -6.6 2.1
-7 -10 -3 -1.7 1.3
-7 10 3 2.2 2.9
-7 11 -3 213.18 14.2
-7 -11 3 203.28 8.3
-7 -11 3 230.18 12.7
-7 11 3 228.98 17.1
-7 -11 -3 223.58 11.5
-7 11 3 226.98 14.9
-7 -12 3 34.2 6.1
-7 -12 3 28.2 4.4
-7 12 -3 35.1 7.4
-7 12 3 36.5 9
-7 12 3 28.8 7
-7 -12 -3 32.6 5.6
-7 13 -3 46.7 10.1
-7 -13 3 32.5 5.3
-7 -13 3 43.4 8.8
-7 -13 -3 35.6 6.4
-7 13 3 46 8.5
-7 13 3 31.1 8.5
-7 -14 3 4.1 3.9
-7 -14 3 0.4 2.5
-7 14 -3 4 4.1
-7 -14 -3 2.3 3.4
-7 14 3 8.5 4.8
-7 14 3 10.2 5.5
-7 15 -3 32.1 7.3
-7 15 3 49 11.1
-8 0 -3 1.1 1.3
8 0 3 0.1 0.6
-8 1 -3 480.05 15.4
-8 -1 3 493.45 10.1
8 1 3 503.85 8.3
8 -1 -3 497.85 12.2
-8 -1 -3 475.85 13.8
8 -1 3 508.85 13
-8 1 3 477.15 13.1
-8 2 -3 193.68 10.2
-8 -2 3 212.28 4.9
8 -2 -3 194.38 8.4
8 -2 3 185.88 8.7
-8 -2 -3 204.88 8.3
-8 2 3 193.28 9.1
-8 3 -3 705.33 20.7
8 -3 -3 684.23 18
-8 3 3 649.83 18.6
8 -3 3 675.03 18.6
-8 -3 -3 647.24 14.2
-8 3 3 645.14 20
-8 -4 3 3.4 0.6
-8 4 -3 3.9 2.5
-8 -4 3 3.2 0.7
8 -4 -3 2.2 2.1
-8 4 3 1.4 1.7
8 -4 3 7.1 2.5
-8 4 3 1.7 1.9
-8 -4 -3 -0.2 1.1
-8 -5 3 767.52 12.2
8 -5 -3 763.42 22.3
-8 5 -3 753.52 23.5
-8 -5 -3 761.22 13.6
-8 5 3 744.83 23.1
-8 5 3 777.92 24.2
8 -5 3 824.72 23.9
-8 6 -3 85.09 8.2
8 -6 -3 77.19 7.7
-8 -6 3 88.19 4.4
-8 6 3 82.29 8.4
-8 -6 -3 90.99 4
-8 6 3 90.99 8.6
8 -6 3 89.79 8.4
8 -7 -3 460.45 19.4
-8 7 -3 458.05 19.3
-8 -7 3 454.55 12
-8 7 3 438.86 19.3
8 -7 3 452.55 19.8
-8 -7 -3 450.95 9.3
-8 7 3 495.75 20.9
-8 8 -3 432.46 19.3
-8 -8 3 480.45 13.8
8 -8 3 459.45 25.1
-8 -8 -3 468.75 11.9
-8 8 3 458.35 21.1
-8 8 3 472.15 20.9
-8 -8 -3 457.65 9.9
-8 -9 3 124.69 3.8
-8 -9 3 125.69 7.6
-8 9 -3 123.09 10.6
8 -9 -3 125.49 11.4
8 -9 3 112.99 11.1
-8 9 3 130.09 11.3
-8 -9 -3 122.89 5.4
-8 9 3 111.09 11.6
-8 -9 -3 125.19 6.7
-8 10 -3 39.7 7.6
-8 -10 3 43.6 3
-8 -10 3 34.6 5.2
-8 10 3 36.7 7.9
-8 10 3 38.5 7.5
-8 -10 -3 37.1 7.5
-8 -11 3 11.4 3.3
-8 -11 3 8.5 2.2
-8 11 -3 13.3 4.6
-8 -11 -3 13.1 3.8
-8 11 3 21.8 7.9
-8 11 3 6 4.6
-8 -12 3 3.2 2.7
-8 12 -3 3.6 3.7
-8 12 3 4.1 4.3
-8 -12 -3 5.7 2.9
-8 12 3 3 4.6
-8 -13 3 34.5 6.2
-8 -13 3 41.9 5.4
-8 13 -3 36.8 7.7
-8 13 3 33.9 7.3
-8 -13 -3 42.3 6
-8 13 3 33.1 9.1
-8 -14 3 79.49 6.9
-8 14 -3 76.09 11
-8 -14 3 88.79 9.4
-8 14 3 86.29 12.1
-8 -14 -3 71.39 8.2
-8 14 3 89.39 14
9 0 3 0.5 0.7
-9 0 -3 0.3 1.7
-9 0 3 -1.5 0.6
9 -1 -3 1.9 1
9 1 3 1.2 0.5
-9 1 -3 3.7 2
-9 -1 3 0.9 0.8
-9 1 3 1.1 1.2
-9 -1 -3 5.1 2.2
9 -1 3 -1.2 1
9 -2 -3 59.79 4.9
-9 2 -3 61.39 6.3
-9 2 3 70.79 6.6
-9 -2 -3 68.19 5.2
-9 2 3 69.69 5.6
9 -2 3 59.89 5.2
9 -3 -3 127.79 8.2
-9 3 -3 120.29 8.9
-9 3 3 117.79 8
9 -3 3 111.29 7.7
-9 -3 -3 117.39 6.4
-9 3 3 111.59 8.7
9 -4 -3 2.9 2
-9 4 -3 3.9 2.7
-9 -4 -3 7 1.9
9 -4 3 3.1 2.2
-9 4 3 1.1 2.1
-9 4 3 0.9 1.7
-9 5 -3 58.29 8.2
9 -5 -3 58.29 6.6
-9 -5 -3 57.59 3.9
9 -5 3 52.19 7.4
-9 5 3 64.99 7.4
-9 5 3 58.19 6.8
-9 -6 3 221.58 4.7
-9 6 -3 241.38 14.2
9 -6 -3 239.48 13.3
-9 6 3 220.18 13.8
9 -6 3 240.58 13.9
-9 -6 -3 239.88 7.2
-9 6 3 237.78 13.9
-9 7 -3 222.88 14
9 -7 -3 223.88 13.6
-9 -7 3 230.58 6.8
-9 -7 -3 209.48 6.5
-9 7 3 230.78 14.5
-9 7 3 208.48 14.1
9 -7 3 208.68 13.8
-9 -8 3 0.2 1.1
9 -8 -3 -1.7 2.7
-9 8 -3 1.2 3
-9 8 3 -2 2.5
-9 8 3 -0.1 2.1
9 -8 3 -1 3.2
-9 -8 -3 1.4 0.9
-9 -9 3 6.9 0.9
-9 9 -3 6.4 3.9
-9 -9 3 10.7 2.4
-9 9 3 11.7 4.9
-9 9 3 1.4 3.1
-9 -9 -3 6.9 1.6
-9 10 -3 3.7 3.3
-9 -10 3 6.1 2.4
-9 -10 3 8.1 1.4
-9 -10 -3 10.1 2.2
-9 10 3 7.3 4.5
-9 10 3 14.4 5.5
-9 -11 3 83.69 7.2
-9 -11 3 74.49 4.2
-9 11 -3 71.69 10.4
-9 11 3 96.89 13.6
-9 -11 -3 68.89 5.6
-9 11 3 80.19 11.6
-9 -12 3 35.4 3.5
-9 -12 3 32.8 5.7
-9 12 -3 24.2 7.1
-9 -12 -3 28 4.6
-9 12 3 15.6 5.9
-9 12 3 33.2 8.8
-9 13 -3 17.5 6.2
-9 -13 3 22.3 5.1
-9 -13 3 23.8 3.4
-9 -13 -3 19.7 4.1
-9 13 3 31.5 7.5
-9 13 3 21.8 7.5
-10 0 3 -0.5 0.8
10 0 3 0.3 0.7
-10 0 -3 -3.5 1.3
-10 -1 3 116.49 4.3
10 -1 -3 115.89 6
-10 1 -3 131.29 9
-10 1 3 98.89 8
-10 -1 -3 84.49 6.7
-10 1 3 114.09 6.6
10 -1 3 112.99 6.1
-10 2 -3 -1.2 1.9
10 -2 -3 3.5 1.9
-10 -2 -3 3 1.9
-10 2 3 4.4 2.7
10 -2 3 3.5 1.8
-10 2 3 3.9 2.1
10 -3 -3 0.8 1.5
-10 3 -3 -0.6 2.1
-10 -3 -3 0.4 1.6
-10 3 3 0.2 1.9
-10 3 3 4.7 2.3
-10 4 -3 91.39 8.7
10 -4 -3 93.99 7.6
10 -4 3 87.19 7.6
-10 4 3 96.29 8.1
-10 4 3 97.19 9
-10 -4 -3 94.29 5.9
10 -5 -3 324.57 14.8
-10 5 -3 312.57 16.2
-10 5 3 354.76 17.4
10 -5 3 338.97 15.8
-10 -5 -3 344.07 10.3
-10 5 3 345.07 16.1
10 -6 -3 2.4 2.4
-10 6 -3 0 2.4
-10 -6 -3 0.6 1.1
-10 6 3 3.4 3
-10 6 3 -1.5 2.2
10 -6 3 2.4 2.4
-10 7 -3 27.9 6.4
10 -7 -3 38.7 7.8
-10 -7 -3 22.5 2.5
10 -7 3 19 5.3
-10 7 3 26.1 6
-10 7 3 21.9 5.8
10 -8 -3 -3.9 2.8
-10 -8 3 7.9 1.2
-10 8 -3 5.4 4
-10 8 3 4.5 3.4
-10 8 3 10.6 4.6
10 -8 3 7.5 3.8
-10 -8 -3 8.4 1.7
-10 9 -3 20 5.9
-10 -9 3 23.2 2.5
-10 9 3 25.9 6.8
-10 9 3 17.1 5.8
-10 -9 -3 16.9 2.5
-10 -10 3 281.27 9.7
-10 -10 3 277.57 5.5
-10 10 -3 271.47 17.5
-10 10 3 290.77 19.2
-10 10 3 275.47 17.9
-10 -10 -3 281.57 8.7
-10 11 -3 88.69 12.4
-10 -11 3 85.49 3.8
-10 -11 3 85.99 6
-10 11 3 93.89 11.1
-10 11 3 80.79 12.9
-10 -12 3 10 2
-10 -12 3 13.9 3
-10 12 -3 13.6 5.4
-10 12 3 4.2 4.4
-10 12 3 4.4 4.3
-10 13 -3 22.5 7.3
-10 -13 3 9.8 4.1
-10 13 3 25.7 7.7
-10 13 3 15.2 6.4
11 0 3 -2.1 0.7
-11 0 3 -0.6 0.9
-11 0 3 2.6 2.2
-11 0 -3 0.1 1.9
-11 1 -3 -0.5 2.2
11 -1 3 3.5 1.7
-11 -1 -3 4.8 2.8
-11 1 3 6.3 2.1
-11 1 3 2 1.9
11 -2 -3 -1.4 1.2
-11 2 -3 0 2.4
-11 -2 -3 3 1.9
-11 2 3 1 1.7
11 -2 3 1.5 1.6
-11 2 3 2.2 2.3
-11 3 -3 110.69 9.5
11 -3 -3 101.89 7.2
-11 -3 -3 110.09 7.3
-11 3 3 115.19 9.7
-11 3 3 125.19 8.7
11 -3 3 101.39 7.5
-11 4 -3 11.9 4.4
11 -4 -3 7.2 3
-11 4 3 10.7 3.6
-11 4 3 15.7 5
11 -4 3 10.1 3.4
-11 -4 -3 5.9 2.4
-11 5 -3 -0.2 2.9
11 -5 -3 2.3 2.4
11 -5 3 2.5 2.6
-11 -5 -3 6.3 2.1
-11 5 3 2.5 2.8
-11 5 3 4 3.1
11 -6 -3 163.08 11.4
-11 6 -3 153.78 12.4
-11 -6 -3 159.58 7.1
11 -6 3 142.69 11.2
-11 6 3 141.59 12.1
-11 6 3 146.89 11.8
11 -7 -3 47.6 7.6
-11 7 -3 51.79 8.9
-11 7 3 54.89 9
11 -7 3 54.19 8.9
-11 7 3 73.89 10.9
-11 -7 -3 53.19 4
-11 8 -3 -3 2.3
-11 8 3 3.1 3.7
-11 -8 -3 -2.4 1.1
-11 8 3 1.1 3.6
-11 9 -3 3.5 3.8
-11 9 3 0.7 3.2
-11 -9 -3 7 1.5
-11 9 3 8.9 4.7
-11 10 -3 52.89 9.6
-11 10 3 62.29 11.2
-11 -10 -3 61.39 4
-11 10 3 59.09 10.3
-11 -11 3 30.4 2.6
-11 11 -3 27.1 7.7
-11 11 3 29 7.2
-11 11 3 20.2 6.7
-11 12 -3 15.5 5.8
-11 -12 3 10.7 2.2
-11 12 3 2.8 4.7
-11 12 3 1.9 4.9
12 0 3 0.4 0.6
-12 0 -3 -2.9 1.3
-12 0 3 -1.2 2.2
-12 1 -3 185.38 12.1
-12 -1 3 202.18 11.3
-12 1 3 180.78 8.3
-12 1 3 194.18 12.2
-12 -1 -3 191.28 11.1
12 -1 3 175.28 7.3
-12 -2 3 353.86 14.2
-12 2 -3 339.37 16.6
12 -2 -3 345.57 12
-12 -2 -3 383.66 17.6
12 -2 3 326.47 12.1
-12 2 3 373.76 17.4
-12 2 3 353.76 13.1
-12 3 -3 4.4 3
12 -3 -3 4.2 2.1
-12 -3 -3 4.7 2.5
-12 3 3 1.5 2.2
12 -3 3 5.4 2.7
-12 3 3 2.6 2.8
-12 4 -3 194.38 13.5
12 -4 -3 200.78 11
-12 4 3 209.68 14.4
12 -4 3 202.48 11.5
-12 4 3 204.68 11.9
-12 -4 -3 193.08 9.5
-12 5 -3 -2.3 3.1
12 -5 -3 -1.3 2.2
-12 5 3 -0.5 1.9
12 -5 3 3.1 2.9
-12 -5 -3 -1.9 1.4
-12 5 3 0.2 2.7
-12 6 -3 235.68 15.8
12 -6 -3 207.58 13.1
-12 6 3 201.38 13.6
-12 -6 -3 214.08 8.9
-12 6 3 210.88 15.1
12 -6 3 203.18 13.3
-12 7 -3 41.8 9.5
12 -7 -3 52.19 8
-12 7 3 38.6 7.7
-12 -7 -3 44.9 3.9
-12 7 3 47.9 10.4
12 -7 3 57.09 8.8
-12 8 -3 108.99 11.4
-12 8 3 120.09 12.1
-12 8 3 81.29 12.2
-12 -8 -3 101.59 5.4
-12 9 -3 -2.3 3.1
-12 9 3 0.1 3.2
-12 9 3 0.2 3.2
-12 -9 -3 -2.7 0.9
-12 10 -3 39.6 8.6
-12 10 3 23.8 7
-12 10 3 32.2 8.2
-12 -10 -3 28.6 3
-12 11 -3 10.6 5.6
-12 11 3 9.3 5.2
-12 11 3 5.6 5.8
-13 0 3 0.5 2.4
-13 0 -3 1.2 2.5
-13 -1 3 3.7 3.1
-13 1 -3 4.8 3.5
-13 1 3 16.1 4.7
-13 -1 -3 17.2 4.8
13 -1 3 16.1 2.4
-13 -2 3 133.79 9.3
-13 2 -3 110.59 10.2
13 -2 3 115.59 7
-13 2 3 124.79 11
-13 -2 -3 116.09 9
-13 2 3 125.69 7.8
13 -3 -3 -1 1.6
-13 3 -3 2.6 2.8
13 -3 3 1 2.1
-13 3 3 0.8 1.9
-13 3 3 -4.4 2.6
-13 -3 -3 -0.6 1.6
13 -4 -3 25.1 4.7
-13 -4 3 35.2 5.1
-13 4 -3 23.7 6.2
-13 4 3 30.5 5.4
-13 4 3 40.2 8
-13 -4 -3 28.9 4.8
13 -4 3 37.7 6.4
-13 -5 3 32.4 4.7
13 -5 -3 32.6 6.3
-13 5 -3 33.5 7.3
13 -5 3 40.8 6.7
-13 -5 -3 30.9 4.6
-13 5 3 33.5 6.3
-13 5 3 28.4 6.9
-13 -6 3 81.79 5.7
13 -6 -3 76.19 8.7
-13 6 -3 64.09 13.2
-13 6 3 76.69 8.7
-13 -6 -3 73.89 5.8
-13 -7 3 5.6 2.2
-13 7 -3 4 4.3
-13 7 3 4.6 4
13 -7 3 3.8 3.8
-13 -7 -3 5 2.1
-13 7 3 4.3 3.8
-13 -8 3 2.8 1.4
-13 8 -3 13.2 5.4
-13 -8 -3 2.7 1.9
-13 8 3 4.2 3.9
-13 8 3 8.8 4.3
-13 -9 3 18.3 2.2
-13 9 -3 8.4 5.9
-13 9 3 12.5 5.4
-13 -9 -3 25.1 2.9
-13 9 3 19 6.6
-13 10 -3 32.3 8.1
-13 10 3 43.8 9.2
-13 -10 -3 37.7 3.4
-13 10 3 26.7 8.2
-14 0 -3 -1 2.6
-14 0 3 -3.5 2.3
-14 -1 3 223.98 13.2
-14 1 -3 258.47 15.5
-14 1 3 251.97 15.3
14 -1 3 226.58 6.6
-14 -1 -3 233.38 13.5
-14 -2 3 35.2 6.2
-14 2 -3 32.6 6.7
-14 2 3 40.1 7.9
-14 -2 -3 45.1 6.7
14 -2 3 40.5 4.3
-14 3 -3 3.2 3.1
-14 -3 3 -0.1 2
14 -3 -3 3.3 2.3
-14 3 3 -2.1 2.6
14 -3 3 1.5 2.1
-14 -3 -3 -4.1 1.7
14 -4 -3 23.8 4.7
-14 -4 3 19.6 4.1
-14 4 -3 28.2 7
14 -4 3 19.6 4.5
-14 4 3 24.7 4.9
-14 -4 -3 31 5.4
-14 4 3 15.5 6.3
-14 -5 3 30 4.7
-14 5 -3 25.2 7.1
14 -5 -3 28.1 5.5
-14 5 3 35 7.8
-14 -5 -3 23 5
-14 5 3 33.6 6.2
14 -5 3 22 5.5
-14 -6 3 147.29 8.4
14 -6 -3 136.59 11.3
-14 6 -3 176.88 14.5
14 -6 3 142.89 11.9
-14 6 3 181.18 15.1
-14 -6 -3 163.78 9.1
-14 6 3 162.18 12.6
-14 -7 3 3.1 1.9
-14 7 -3 -0.7 3.2
-14 7 3 2.9 3.1
-14 7 3 6.7 4.8
-14 -7 -3 -2.7 1.7
-14 -8 3 66.59 4.8
-14 8 -3 69.39 11.2
-14 -8 -3 54.99 5.1
-14 8 3 61.79 11.4
-14 8 3 50.09 9.5
-14 9 -3 2.3 4.5
-14 -9 3 4.1 1.6
-14 9 3 -3.8 5.3
-14 9 3 8.3 4.8
-14 -9 -3 4.2 1.8
-15 0 3 0.4 3.5
-15 0 -3 2.1 3.4
-15 1 -3 1.6 3.7
-15 -1 3 10.3 4.4
-15 -1 -3 1.7 2.9
-15 1 3 5.4 4.3
-15 2 -3 65.99 10
-15 -2 3 52.99 7.9
-15 2 3 38.9 8.3
15 -2 3 64.69 4.6
-15 -2 -3 71.59 7.8
-15 -3 3 49.6 7.3
-15 -3 -3 39.8 6.6
15 -3 3 26.5 4.7
-15 3 3 44.4 10.4
-15 -4 3 20.7 5
-15 4 -3 32.2 7.7
15 -4 -3 34.1 5.6
15 -4 3 29.6 5.4
-15 -4 -3 33.2 5.6
-15 4 3 34.1 8
-15 5 -3 -1.6 3.2
15 -5 -3 -2.7 3
-15 -5 3 4 2.7
15 -5 3 -3.2 3
-15 -5 -3 4.5 2.5
-15 5 3 -3.2 3.5
-15 -6 3 13.4 3.7
15 -6 -3 11 5
-15 6 -3 22 6.6
-15 6 3 15.4 6.4
15 -6 3 21.2 5.9
-15 -6 -3 17.9 4.2
-15 7 -3 9.5 6.2
-15 -7 3 28.7 4.5
-15 -7 -3 14.7 4.5
-15 7 3 26.2 7.7
-16 0 -3 0.6 3
-16 0 3 2 3.9
-16 1 -3 47.5 8.7
-16 -1 3 34.2 7.2
-16 1 3 68.69 10.5
-16 -1 -3 54.49 8.6
-16 2 -3 12.1 5.4
-16 -2 3 19.1 5.5
-16 -2 -3 17.8 5
-16 2 3 12.8 5.6
-16 3 -3 12.6 5.7
-16 -3 3 18.2 5.3
-16 -3 -3 28.9 5.8
-16 3 3 14.4 6.2
-16 4 -3 18 6
-16 -4 3 18.1 4.9
-16 -4 -3 13.2 4.4
16 -4 3 29.5 4.9
-16 4 3 19.6 6.6
-16 -5 3 15.6 3.9
-16 5 -3 15 6.3
16 -5 3 18.3 5.4
-16 5 3 9.6 5.9
-16 -5 -3 17.6 4.6
-17 0 3 -2.2 3.8
-17 0 -3 0.8 3.8
-17 -1 3 60.79 9.8
-17 1 -3 46.4 9.2
-17 1 3 45.2 8.9
-17 -1 -3 57.49 10.3
0 0 -4 2078.99 95.39
0 0 4 2262.87 97.09
0 -1 -4 0.5 0.8
0 1 4 0.2 0.7
0 1 -4 0.6 0.8
0 -1 4 1.4 0.9
0 1 4 0.4 0.8
0 2 -4 430.86 8.9
0 2 4 423.66 10.1
0 -2 -4 427.86 9.8
0 2 4 420.96 9.3
0 -2 4 422.06 9
0 -3 4 0.9 1
0 3 4 0.2 0.7
0 -3 -4 -1.3 0.6
0 3 -4 -1 0.5
0 3 4 -0.7 0.6
0 -4 -4 38.9 3.7
0 4 4 41.2 3.2
0 -4 4 36.7 3.8
0 -4 4 35.7 3.1
0 4 -4 37.3 2.8
0 4 4 38.8 3.9
0 -5 4 -0.2 0.9
0 -5 -4 1.3 1.2
0 -5 4 -0.6 1
0 5 -4 -0.4 0.7
0 5 4 1.1 1.1
0 5 4 2 1.6
0 5 4 1.6 1.1
0 6 -4 43.8 3.4
0 -6 -4 37.5 5.2
0 -6 4 45 4
0 6 4 43.8 3.8
0 6 4 45.1 6.1
0 6 4 38.5 3.7
0 -6 4 42.3 5.8
0 -7 4 0.5 1.8
0 -7 4 -0.7 1.2
0 7 -4 -1.4 0.7
0 7 4 -0.6 1.4
0 7 4 1.2 1.4
0 -7 -4 -1.7 1.3
0 7 4 0.3 1.1
0 -8 4 561.54 16.5
0 8 4 532.55 19.6
0 8 4 564.04 14.5
0 8 -4 544.25 13.1
0 -8 4 546.45 19.9
0 -8 -4 558.64 19.1
0 8 4 569.44 14.7
0 9 4 0 1.2
0 -9 4 -0.6 1.6
0 9 4 -1.4 1.1
0 -9 4 0.4 2.1
0 -9 -4 0.2 2
0 9 4 -2.7 1.5
0 9 -4 -0.9 0.9
0 -10 4 22 5
0 -10 4 20.9 5.4
0 10 4 20.8 3.6
0 10 -4 18.6 3
0 10 4 23.1 3.7
0 -10 -4 15.5 4.6
0 10 4 22.3 6
0 -11 4 -0.9 2.1
0 11 -4 2.3 1.5
0 11 4 0.5 1.5
0 11 4 -0.9 2.5
0 -11 -4 3 3
0 -11 4 1.2 3.1
0 11 4 0.8 1.6
0 -12 -4 97.39 10.4
0 12 4 96.69 6
0 12 -4 94.29 5.2
0 12 4 84.39 9.9
0 -12 4 81.99 11.4
0 -12 4 86.29 8.6
0 12 4 93.09 5.9
0 13 4 -1.7 1.5
0 13 4 -5.3 1.9
0 13 -4 1.8 1.1
0 13 -4 -0.2 1
0 13 4 0.7 1.5
0 14 4 11.4 2.1
0 14 4 5.9 5.1
0 14 4 9.7 2
0 15 4 9.8 4.8
0 16 4 6.9 4.3
-1 0 4 86.09 3.9
1 0 4 80.39 3.6
-1 0 -4 83.49 3.7
-1 -1 4 608.84 10.5
1 -1 -4 593.34 11.4
-1 1 -4 585.84 11.1
1 1 4 642.84 10.7
1 1 -4 642.44 10.5
1 -1 4 601.44 11.3
-1 1 4 606.14 11.6
-1 -1 -4 602.84 10.8
-1 -2 4 1034.4 14.5
1 2 4 999.5 14.6
1 2 4 983.3 16
1 -2 -4 1048.3 17.3
-1 2 4 997.9 17.3
1 -2 4 1008.5 16.3
-1 -2 -4 999.8 15.8
1 2 -4 990.7 13.8
-1 -2 -4 969.9 15
1 3 4 1023.2 18
-1 -3 4 1012.7 15.1
1 -3 -4 1000.2 18.6
1 3 4 1012.6 15.1
-1 3 -4 1036 17.1
1 3 -4 965.3 13.8
-1 -3 -4 992.1 17.2
1 -3 4 1004.6 17.4
-1 3 4 1004 19.3
-1 -3 -4 1009.1 16.2
-1 -4 4 382.56 11.7
1 4 4 381.16 11.5
-1 4 -4 386.26 10.3
1 4 4 385.96 9
-1 -4 4 385.76 9
1 -4 -4 374.46 11.9
1 4 4 386.36 8.7
1 4 -4 390.06 7.9
1 -4 4 404.76 12.8
-1 -4 -4 359.96 10.7
1 -4 4 385.96 10.8
-1 4 4 367.56 12.2
1 5 4 1410.56 20.8
-1 -5 4 1390.56 21.3
1 5 4 1393.96 20.1
-1 5 -4 1407.76 22.9
1 -5 -4 1398.76 26.7
1 5 4 1422.56 26.5
-1 -5 4 1398.86 26.5
-1 -5 -4 1419.86 25.5
1 -5 4 1391.86 27.7
-1 5 4 1410.96 27.8
1 -5 4 1399.06 24.3
-1 5 4 1426.56 24.4
1 5 -4 1405.06 18.4
1 6 4 432.06 10.5
-1 6 -4 430.86 12.1
1 6 4 444.66 15
-1 -6 4 443.96 15.2
-1 -6 4 446.86 11.8
1 6 4 453.85 10.4
1 6 -4 444.26 9.1
-1 -6 -4 456.45 14.5
-1 6 4 444.56 15.8
1 -6 4 439.86 13.5
1 -6 4 408.86 18.8
-1 6 4 444.36 13.2
-1 -7 4 803.72 22.3
1 -7 -4 800.72 22.4
-1 -7 4 801.52 17.7
-1 7 -4 811.42 17.8
1 7 4 764.12 21.7
1 7 4 833.82 15.2
1 7 4 814.62 15.4
-1 -7 -4 774.72 20.9
1 -7 4 792.42 19.7
1 7 -4 810.52 13.3
-1 7 4 799.92 18.9
1 -7 4 828.82 23.7
1 8 4 586.24 12.7
1 -8 -4 595.84 20.2
-1 -8 4 572.14 19.9
-1 8 -4 570.04 15.1
1 8 4 585.34 12.9
-1 -8 4 555.74 15.9
1 8 4 593.94 20.2
-1 -8 -4 574.04 19
1 -8 4 569.44 20.6
-1 8 4 561.54 16.2
1 8 -4 590.64 11
1 -8 4 576.24 17.8
-1 8 4 578.14 20.8
1 -9 -4 59.09 8.2
-1 -9 4 51.09 5.2
-1 -9 4 46 7.4
1 9 4 49 3.6
-1 9 -4 44.2 4.4
1 9 4 48.3 3.7
1 9 4 59.29 6.9
-1 9 4 53.49 5.1
-1 9 4 48.8 8
-1 -9 -4 47.4 7.2
1 -9 4 52.29 7.9
1 -9 4 44.7 6.3
1 9 -4 48.3 2.9
-1 -10 4 28 4.8
1 10 4 36.2 6.9
1 10 4 23.8 2.7
1 10 4 28.3 2.9
1 -10 -4 22.6 5.8
-1 -10 4 27.5 6.1
-1 10 -4 22.4 3.7
1 -10 4 38.4 7.1
-1 -10 -4 30.2 6
1 -10 4 19.6 4.9
-1 10 4 28.5 6.3
1 10 -4 22.2 1.9
-1 10 4 31.7 4.9
1 11 4 364.96 9.1
-1 11 -4 362.66 12.5
1 11 4 345.47 18.3
-1 -11 4 384.96 15.8
1 -11 -4 369.36 18.7
-1 -11 4 327.27 21
1 11 4 370.36 9.2
-1 11 4 359.26 16.4
-1 -11 -4 388.96 18.9
-1 11 4 392.56 20.3
-1 11 4 389.16 14.2
1 -11 4 369.56 19.4
1 -11 4 374.66 17.2
-1 12 -4 30.1 4.3
-1 -12 4 28.8 6.5
1 12 4 31.4 2.1
-1 -12 4 32.3 6
1 12 4 25.6 2
1 12 4 14.1 5.4
-1 12 4 27 6.9
-1 12 4 27.4 4.3
1 -12 4 18.5 5
-1 -12 -4 26.5 6.3
-1 12 4 22.6 4.1
1 13 4 240.08 16.8
-1 -13 4 253.57 14.3
-1 13 -4 244.08 10
-1 13 4 237.98 17.5
-1 13 4 247.28 11
-1 13 4 241.48 11
-1 14 -4 30.5 4.1
1 14 4 21.6 9.7
-1 14 4 31.4 5
-1 14 4 27.8 8.1
-1 15 -4 265.77 8.6
-1 15 -4 282.97 8.5
1 15 4 258.07 19.3
-1 15 4 255.37 20.2
-1 15 4 268.97 10.5
1 16 4 1.1 4.9
-1 16 4 2.4 1.7
-1 16 4 2 1.7
-1 16 4 8.5 5
2 0 4 5286.57 170.08
-2 0 4 5876.31 148.89
2 -1 -4 38.1 2.9
-2 1 -4 31 2.8
2 1 4 31.6 2.4
-2 1 4 27 2.7
2 -1 4 34.7 2.9
-2 -1 -4 31.5 2.4
2 2 4 360.36 8.4
2 -2 -4 363.86 9.9
2 2 4 366.16 7.3
-2 -2 4 362.26 7.4
-2 2 4 347.47 10
-2 -2 -4 363.36 7.9
2 -2 4 351.86 9.6
2 3 4 210.88 5.2
-2 -3 4 219.78 5.6
2 3 4 215.88 7.3
2 -3 -4 211.18 8.3
-2 3 -4 209.18 7.6
-2 -3 -4 220.38 6.9
2 -3 4 216.58 8.8
-2 -3 -4 210.38 6.2
-2 3 4 218.78 8.7
2 -3 4 220.98 8
-2 -4 4 13.5 1.6
2 4 4 10.3 2.1
-2 4 -4 12.2 2.5
2 -4 -4 13.9 2.9
2 4 4 12.9 1.3
2 4 4 13.6 1.5
-2 -4 -4 11.7 1.9
2 -4 4 10.4 2.4
-2 -4 -4 10.7 2.1
2 -4 4 11.1 2.8
-2 4 4 13.7 3.4
-2 5 -4 215.88 8.7
-2 -5 4 210.48 9.3
2 5 4 217.28 9.2
2 5 4 218.78 5.5
-2 -5 4 222.28 6.7
2 5 4 218.88 5.2
2 -5 -4 222.38 10.2
-2 5 4 238.48 11
2 -5 4 213.18 10.4
2 -5 4 234.98 9.6
-2 5 4 229.68 9.5
-2 -5 -4 215.38 8.7
2 6 4 -0.2 0.6
2 6 4 0.6 0.6
-2 -6 4 0.2 0.8
2 -6 -4 1.3 1.7
-2 -6 4 -2 1
2 6 4 -0.4 1.1
-2 6 -4 -0.1 1.1
-2 6 4 -0.3 1.2
-2 6 4 1.6 2
-2 -6 -4 -1.1 1
2 -6 4 -0.2 1
2 -6 4 -2.2 0.9
2 7 4 -0.4 0.4
-2 7 -4 0.7 1.3
2 7 4 0.6 1.4
-2 -7 4 1 1.4
2 7 4 0.8 0.6
-2 -7 4 1.4 1.2
2 -7 -4 -0.4 1.5
2 -7 4 -0.1 1.6
2 -7 4 -0.7 1.2
-2 7 4 0.1 1.8
-2 7 4 -0.3 1.4
-2 8 -4 5.4 2.3
-2 -8 4 5.5 2.1
2 8 4 6.3 1
2 8 4 6.3 0.9
-2 -8 4 10.6 3.4
2 -8 -4 7.1 3.2
-2 8 4 1.2 2.1
-2 -8 -4 6.7 2.5
2 -8 4 6 2.8
-2 8 4 9.1 3.6
2 -8 4 3.1 2.3
2 -9 -4 18.2 4.8
-2 9 -4 22.4 4.7
2 9 4 23.4 5.2
-2 -9 4 25.1 5.3
-2 -9 4 25.9 4.2
-2 9 4 23.9 5.5
2 -9 4 25.6 5
-2 9 4 27.8 4.8
2 -9 4 29.8 6.3
-2 -9 -4 29.4 5.4
2 -10 -4 25.9 5.9
-2 10 -4 18 4
2 10 4 20.1 5.2
-2 -10 4 20.4 5.2
-2 -10 4 18.8 4
2 -10 4 8.2 3.8
2 -10 4 18 4.4
-2 10 4 19.4 4.3
-2 10 4 19.8 5.7
-2 -10 -4 16.3 4.5
2 11 4 3.8 3.2
-2 -11 4 -4.5 2.3
-2 11 -4 -0.9 1.7
2 -11 -4 5.1 3.7
-2 -11 4 5.6 2.9
-2 -11 -4 6.2 3.1
-2 11 4 1.5 2.1
2 -11 4 3.7 3.4
2 -11 4 7.2 3.5
-2 11 4 3.2 3.2
-2 -12 4 381.56 16.2
-2 -12 4 389.46 20.2
-2 12 -4 395.86 14.6
2 12 4 406.36 20.6
2 -12 4 394.96 21.9
-2 12 4 373.46 21.2
-2 -12 -4 381.16 18.8
-2 12 4 399.56 15.7
-2 -13 4 -3.8 3.1
2 13 4 9.3 4.6
-2 13 -4 3 2.4
-2 13 4 2.1 2.8
-2 13 4 0.3 2.5
-2 13 4 -2.4 2.9
-2 14 -4 66.49 6.3
2 14 4 74.39 11.7
-2 14 4 75.29 7.1
-2 14 4 67.09 11.5
-2 14 4 76.89 7.5
2 15 4 -1.8 3.8
-2 15 -4 0.2 2.2
-2 15 4 4.5 3.4
-2 15 4 6.8 4.8
-2 15 4 -0.6 2.6
2 16 4 13.6 5.4
-2 16 -4 11.3 4.5
-2 16 4 3.2 4.6
-2 16 4 16.2 4.4
-2 16 4 7.9 3.2
3 0 4 1611.64 22.1
-3 0 -4 1625.64 22.5
-3 0 4 1645.44 21.8
3 1 4 148.59 4.9
-3 1 -4 142.49 6
3 -1 -4 143.09 5.6
3 -1 4 142.79 5.9
-3 -1 -4 145.59 5.2
-3 1 4 139.79 5.8
-3 2 -4 2241.58 31.2
3 2 4 2293.17 24.8
3 -2 -4 2282.07 30.9
3 2 4 2266.37 26.8
-3 2 4 2332.77 32.1
3 -2 4 2323.87 31.7
-3 -2 -4 2293.27 26.7
3 3 4 576.44 11.9
3 3 4 593.44 7.9
3 -3 -4 600.34 14.8
-3 3 -4 610.94 14.6
-3 -3 -4 589.44 11.4
3 -3 4 603.44 15.4
-3 3 4 570.54 15.1
-3 -3 -4 562.64 10.4
3 -3 4 562.64 14.3
3 4 4 788.92 16.1
-3 -4 4 808.42 11.8
3 -4 -4 823.92 19.3
-3 -4 -4 805.12 13.4
-3 4 4 816.62 20
3 -4 4 833.72 20.1
3 -4 4 837.52 18.8
-3 -4 -4 810.32 15.3
-3 5 -4 1110.09 22.7
-3 -5 4 1108.69 15.7
3 5 4 1091.79 21.5
-3 -5 4 1130.79 22.3
3 -5 -4 1102.19 24.7
-3 5 4 1091.39 23.4
3 -5 4 1131.69 27.8
-3 -5 -4 1146.09 20.8
-3 -5 -4 1122.09 17.6
3 -5 4 1115.69 25.5
-3 5 4 1108.89 25.7
-3 -6 4 263.77 11
-3 -6 4 275.97 7.5
3 -6 -4 258.07 12.2
3 6 4 251.87 10.6
-3 6 -4 269.67 11
-3 -6 -4 260.87 10.1
3 -6 4 277.27 13.1
-3 -6 -4 266.97 8.5
3 -6 4 271.87 11.7
-3 6 4 262.07 11.5
-3 6 4 255.77 12.6
3 7 4 11.2 3.2
-3 -7 4 11.7 3.2
3 -7 -4 10.6 3.4
-3 -7 4 9.4 2
-3 7 -4 10.5 2.9
-3 -7 -4 11.9 2.8
3 -7 4 9.6 3.2
-3 7 4 13 3.5
3 -7 4 12.2 3.8
-3 7 4 6.7 3.2
3 8 4 155.28 9.7
3 -8 -4 161.28 10.9
-3 -8 4 161.08 10
-3 8 -4 164.38 9.2
-3 -8 4 166.58 7.2
-3 -8 -4 152.38 9.1
3 -8 4 158.88 10.1
3 -8 4 148.79 10.9
-3 8 4 152.78 9.5
-3 8 4 156.58 11.3
3 -9 -4 76.09 8.2
-3 -9 4 73.09 7.4
3 9 4 81.09 7.6
-3 9 -4 78.59 6.7
-3 -9 4 70.09 6.1
3 -9 4 57.49 8.6
3 -9 4 72.69 7.3
-3 9 4 74.39 8.4
-3 9 4 82.39 7.5
-3 -9 -4 64.09 6.5
-3 -10 4 42.1 4.6
-3 -10 4 38.4 6.6
3 10 4 36.7 6.6
-3 10 -4 38.9 5.9
3 -10 -4 40.7 7.5
-3 10 4 35.4 5.9
-3 10 4 46 8.4
-3 -10 -4 38.8 6.5
3 -10 4 30.9 6.9
-3 -11 4 279.17 16
-3 11 -4 291.27 13.4
-3 -11 4 291.77 12.5
3 11 4 285.27 15.9
-3 -11 -4 266.27 14.6
3 -11 4 242.98 14.5
-3 11 4 282.87 17.8
-3 11 4 279.97 13.8
-3 12 -4 117.79 8.7
-3 -12 4 122.49 8.9
-3 -12 4 132.79 11.5
3 12 4 132.39 11.7
-3 12 4 123.99 9.4
-3 12 4 114.69 12.2
-3 -12 -4 116.69 10.3
-3 -13 4 81.49 8.8
3 13 4 65.49 10.3
-3 13 -4 63.09 6.7
-3 13 4 53.49 12.8
-3 -13 -4 35.1 10.9
-3 13 4 67.29 7.1
-3 -14 4 254.07 14.3
-3 14 -4 264.77 13.2
3 14 4 222.38 16.5
-3 14 4 243.78 13.3
-3 14 4 242.78 19
3 15 4 12.6 6.1
-3 15 -4 13.7 3.9
-3 15 4 25.8 5.5
-3 15 4 17 5.4
-3 15 4 19.1 7.1
3 16 4 11.2 6
-3 16 -4 27.2 5
-3 16 4 20.9 5.1
-3 16 4 32.9 10.1
-3 16 4 26.8 6.2
-4 0 -4 638.94 13.4
-4 0 4 655.93 12.5
4 0 4 641.24 12.9
-4 1 -4 76.09 4.7
4 1 4 64.19 3.3
4 -1 -4 72.39 4.1
4 -1 4 70.49 4.4
-4 -1 -4 67.89 3.8
-4 1 4 65.39 4.2
4 -2 -4 714.33 15.2
4 2 4 705.83 9.8
4 2 4 678.83 11.3
4 -2 4 677.83 15.5
-4 2 4 687.73 15.7
4 -2 4 684.23 15.7
-4 -2 -4 693.63 12.3
4 -3 -4 510.55 13.9
4 3 4 474.15 10.2
-4 3 -4 478.35 13.7
-4 -3 -4 480.05 9.5
4 -3 4 485.15 13.9
-4 3 4 493.65 14.4
4 -3 4 489.85 14.2
-4 4 -4 136.99 7.6
4 4 4 139.09 6
4 -4 -4 132.59 7.7
4 -4 4 144.29 8.4
4 -4 4 135.89 8
-4 -4 -4 132.79 4.7
-4 4 4 133.09 8.1
-4 -4 -4 130.39 5.3
-4 -5 4 282.07 10.2
4 5 4 297.17 10.1
-4 -5 4 282.67 6
-4 5 -4 284.97 11.5
4 -5 -4 316.57 13.1
-4 5 4 308.67 12.4
4 -5 4 283.27 11.9
-4 5 4 289.07 12.9
-4 -5 -4 277.37 7.4
-4 -5 -4 294.67 9.2
4 -5 4 295.27 15.8
-4 -6 4 16.1 1.7
-4 -6 4 19.7 3.8
4 -6 -4 10.7 3.3
4 6 4 14.8 3.1
-4 6 -4 17.4 3.9
-4 6 4 13.2 3.8
-4 -6 -4 15.2 2.3
-4 6 4 14.4 3.5
4 -6 4 12.7 3.8
4 -6 4 20.9 4.3
-4 -6 -4 16.7 3
-4 -7 4 259.97 7.4
4 -7 -4 253.77 13.2
-4 7 -4 244.58 11.6
4 7 4 267.47 11.4
-4 -7 4 253.87 11.5
4 -7 4 263.67 13.8
-4 -7 -4 253.37 8.6
-4 7 4 254.97 13.8
-4 -7 -4 269.07 10.7
4 -7 4 245.38 12.4
-4 7 4 268.57 12.7
4 -8 -4 45.1 7.2
-4 8 -4 55.29 6
-4 -8 4 55.19 3.9
-4 -8 4 44.1 6.1
4 8 4 55.69 5.7
-4 8 4 49.8 5.9
4 -8 4 50.79 7.2
4 -8 4 55.59 8
-4 8 4 58.09 8.6
-4 -8 -4 46.9 4.9
4 9 4 57.09 7.5
-4 -9 4 54.39 4.5
4 -9 -4 78.59 8.3
-4 9 -4 58.99 6.3
-4 -9 4 58.49 6.6
-4 9 4 74.69 8.6
4 -9 4 65.99 7.3
4 -9 4 73.79 8.4
-4 -9 -4 70.69 6.6
-4 9 4 70.19 7.1
-4 10 -4 50.09 7
4 10 4 59.69 8.2
-4 -10 4 77.69 7.8
-4 -10 4 52.59 5
-4 10 4 60.59 9.5
4 -10 4 62.89 8.7
-4 -10 -4 59.29 6.5
-4 10 4 75.79 7.8
-4 -11 4 106.69 10.1
-4 11 -4 109.89 8.8
-4 -11 4 109.89 7.4
4 11 4 125.99 10.6
-4 11 4 118.99 11.9
-4 -11 -4 106.49 8.9
-4 11 4 101.59 9.1
-4 -12 4 7.5 4.4
-4 -12 4 7.8 3.2
-4 12 -4 14.9 4.2
4 12 4 9.1 4
-4 12 4 6.5 3.5
-4 12 4 5.5 4.3
-4 13 -4 6.6 3.3
4 13 4 1.8 3.3
-4 -13 4 3.7 4.4
-4 -13 4 2.1 3
-4 -13 -4 9.7 4.3
-4 13 4 13.3 4.3
-4 13 4 3.6 4.1
4 14 4 6.4 4.2
-4 -14 4 0.4 3.1
-4 14 -4 -3.5 2.3
-4 14 4 2.6 3.1
-4 14 4 1.2 3.8
4 15 4 16.4 6.1
-4 15 -4 22.4 5.4
-4 15 4 27.3 8.1
-4 15 4 21.9 5.4
-5 0 -4 161.98 6.9
-5 0 4 156.58 6
5 0 4 160.28 6.4
5 1 4 1061.29 16.2
5 -1 -4 1105.09 18.6
-5 -1 4 1072.09 16.4
-5 1 -4 1099.49 20.8
5 -1 4 1074.79 19.1
5 -1 4 1118.79 20.4
-5 -1 -4 1092.69 18.5
-5 1 4 1106.59 19.7
-5 2 -4 1622.34 27.8
5 2 4 1630.84 19.9
5 -2 -4 1640.34 26.1
-5 -2 -4 1637.64 22.8
-5 2 4 1625.34 27.3
5 -2 4 1693.53 28.1
5 -2 4 1669.73 27.3
-5 3 -4 16.1 3.4
5 3 4 17.3 1.9
5 -3 -4 20.6 3.5
-5 -3 -4 17.2 2
5 -3 4 11 2.8
-5 3 4 22.3 3.9
5 -3 4 23.6 4.2
5 -4 -4 2077.49 34.9
5 4 4 2028.3 27.1
-5 4 -4 2063.79 35.1
5 -4 4 2065.09 35.8
-5 4 4 2039.9 36.2
-5 -4 -4 2027.3 24.8
5 -4 4 2004.6 35
5 -5 -4 13.3 3.6
-5 5 -4 19.7 4.2
-5 -5 4 17.1 2.9
5 5 4 17.1 2.8
-5 -5 -4 14.3 2
-5 5 4 12.2 3.2
5 -5 4 20.9 4.5
-5 -5 -4 17 2.5
-5 5 4 20.3 4.2
5 -5 4 22.8 4.5
-5 6 -4 58.49 5.9
-5 -6 4 56.59 2.5
5 6 4 51.29 4.5
5 -6 -4 45.5 6.4
-5 -6 4 49.9 4.7
-5 6 4 55.29 6
-5 -6 -4 47.9 3.9
5 -6 4 56.59 6.3
-5 6 4 57.09 6.5
5 -6 4 59.69 6.1
-5 -6 -4 49 3.2
-5 -7 4 106.69 4.1
-5 -7 4 110.09 7.4
-5 7 -4 111.89 8.3
5 -7 -4 102.39 8.6
5 7 4 109.99 7.1
-5 7 4 112.59 9.5
5 -7 4 95.49 8.2
-5 -7 -4 111.09 5.2
-5 7 4 105.79 8.5
5 -7 4 107.39 9.2
-5 -7 -4 113.89 6.5
-5 8 -4 108.19 8.6
-5 -8 4 113.59 8.3
5 8 4 113.99 7.8
-5 -8 4 117.19 5
5 -8 -4 116.39 9.6
-5 8 4 115.09 9.2
-5 -8 -4 110.79 7.4
-5 8 4 115.39 10.2
5 -8 4 103.19 9.6
5 -8 4 95.79 8.6
5 -9 -4 59.49 8.6
-5 9 -4 54.09 7.4
-5 -9 4 54.09 4
5 9 4 53.99 8.2
-5 -9 4 62.89 6.6
-5 -9 -4 54.99 5.6
-5 9 4 46.8 8
5 -9 4 61.99 8.6
-5 9 4 56.89 8
5 -9 4 50.69 8.3
5 10 4 11.4 3.9
-5 -10 4 17.8 4.8
-5 10 -4 11.2 3.9
-5 -10 4 12.7 2.8
-5 10 4 7 3.4
-5 10 4 9.1 4.4
5 -10 4 8.4 3.9
-5 -10 -4 19.3 4.3
5 11 4 123.69 10
-5 -11 4 130.19 7.6
-5 -11 4 132.39 10.6
-5 11 -4 117.99 9.9
-5 11 4 136.59 10.9
-5 -11 -4 118.99 9.3
-5 11 4 115.19 12.3
-5 -12 4 28.1 7
-5 -12 4 27.9 4.6
-5 12 -4 26.4 6.1
5 12 4 25 5.6
-5 12 4 39.5 7.3
-5 -12 -4 28 5.9
-5 12 4 30.2 8.1
-5 13 -4 119.99 10.2
-5 -13 4 107.09 8.4
-5 -13 4 94.39 10.6
5 13 4 110.19 10.9
-5 -13 -4 107.49 10.2
-5 13 4 110.49 10.1
-5 13 4 106.69 15.4
-5 -14 4 259.27 15.7
5 14 4 273.67 17.3
-5 14 -4 262.87 15
-5 14 4 257.17 20.4
-5 14 4 263.67 15.5
-5 15 -4 25.3 6
-5 15 4 33.8 9.2
-5 15 4 30.8 7.7
6 0 4 110.49 5.5
-6 0 4 96.79 5
-6 0 -4 111.99 6.1
6 0 4 104.79 4.9
-6 -1 4 588.14 11.7
-6 1 -4 589.24 15.5
6 -1 -4 605.94 13.4
6 -1 4 588.14 13.9
-6 -1 -4 597.54 13.8
6 -1 4 607.64 15
-6 1 4 610.54 14.4
-6 -2 4 70.19 3.5
6 -2 -4 69.99 4.9
-6 2 -4 72.19 5.7
6 2 4 69.89 2.9
6 -2 4 65.69 5.2
6 -2 4 70.69 5.6
-6 2 4 72.19 5.3
-6 -2 -4 64.89 4.2
6 3 4 700.43 11.3
-6 3 -4 702.03 18.9
6 -3 -4 717.23 17.8
-6 3 4 740.93 19.2
6 -3 4 700.83 18.4
6 -3 4 695.33 21.8
-6 -3 -4 713.03 13.5
-6 4 -4 51.89 5.5
-6 -4 4 42.3 3.3
6 4 4 44.9 3.1
-6 4 4 45.6 5.2
6 -4 4 53.99 5.5
-6 -4 -4 44.4 3
6 -4 4 42.5 4.9
-6 4 4 43.9 6.1
6 5 4 100.49 5.1
6 -5 -4 105.49 7.8
-6 -5 4 111.19 5.8
-6 5 -4 106.09 7.9
-6 -5 -4 102.39 4.3
6 -5 4 103.09 8
-6 5 4 86.99 9.3
6 -5 4 95.59 7.6
-6 5 4 90.29 7.5
-6 6 -4 0.5 1.8
6 -6 -4 -3.5 1.2
6 6 4 0.8 1.1
-6 -6 4 -0.3 1.1
6 -6 4 -0.2 1.6
-6 6 4 2.7 2.1
6 -6 4 -0.4 1.9
-6 -6 -4 0.6 0.8
-6 -6 -4 0.8 0.9
-6 6 4 -0.4 1.9
-6 -7 4 -1.1 0.6
-6 -7 4 -0.6 1.3
6 -7 -4 -2.5 1.5
6 7 4 -0.4 1.2
-6 7 -4 -3.4 1.3
-6 -7 -4 -0.7 0.7
-6 7 4 -1 1.7
6 -7 4 -0.8 1.6
-6 -7 -4 0.9 1.2
-6 7 4 0.5 2.1
6 -7 4 0.5 1.9
-6 -8 4 53.69 3.1
6 8 4 51.69 5.3
-6 -8 4 57.19 5.7
6 -8 -4 41.8 7.3
-6 8 -4 44.6 6.8
-6 8 4 50.89 8.2
-6 8 4 39.3 6.9
-6 -8 -4 50.79 4.7
6 -8 4 49.8 8.1
6 -8 4 47.8 7.5
-6 -8 -4 47.2 3.7
6 9 4 90.79 7.5
-6 -9 4 92.29 4.7
-6 -9 4 88.89 7.5
-6 9 -4 95.29 8.9
6 -9 -4 85.99 9.3
-6 9 4 97.19 10.2
-6 -9 -4 73.39 6
-6 9 4 88.69 8.9
6 -9 4 92.79 9.9
-6 -10 4 0.6 2.2
-6 -10 4 -2.1 1.2
6 10 4 0.2 1.7
-6 10 -4 -2.3 1.7
-6 -10 -4 -0.9 1.6
-6 10 4 1.4 2.7
-6 11 -4 174.28 12.5
6 11 4 162.88 11.2
-6 -11 4 155.28 11.3
-6 -11 4 162.98 8
-6 11 4 181.68 13
-6 -11 -4 161.88 10.3
-6 11 4 161.98 14.5
-6 -12 4 7.5 2.5
6 12 4 6.6 3.4
-6 -12 4 6.6 4.3
-6 12 -4 2.4 2.9
-6 12 4 8.4 4.1
-6 -12 -4 3.1 2.6
-6 12 4 9.2 4.8
-6 -13 4 83.49 9.6
-6 -13 4 77.69 7
6 13 4 83.09 9.3
-6 13 -4 75.19 8.6
-6 13 4 94.89 14.2
-6 13 4 79.89 9.4
-6 -13 -4 98.89 9
-6 14 4 3.4 3.1
-6 14 4 4.3 4.5
-6 -15 4 19.3 5.3
-6 15 -4 15.1 4.9
-6 15 4 11.7 5
-6 15 4 6.1 5.7
-7 0 -4 693.73 17.2
-7 0 4 707.13 14.8
7 0 4 720.23 14.2
7 1 4 1.4 0.8
7 -1 -4 0.3 1
-7 1 -4 1.6 1.4
-7 -1 4 0.1 0.8
7 -1 4 1.1 1.3
7 -1 4 0.7 1
-7 1 4 -0.3 1
-7 -1 -4 2.5 1.6
7 2 4 56.79 2.6
7 2 4 54.29 2.3
-7 2 -4 52.99 5.4
7 -2 -4 63.79 4.8
-7 -2 4 60.59 3.3
7 -2 4 62.49 5.3
-7 -2 -4 59.39 4.2
-7 2 4 52.99 4.9
7 -2 4 58.39 5
-7 3 -4 44.5 5.2
7 -3 -4 41.8 4.4
7 3 4 49.6 2.2
-7 -3 4 49.5 2.8
7 -3 4 47.7 5
-7 -3 -4 43.2 3.5
-7 3 4 45.4 5
7 -3 4 44.2 4.8
7 -4 -4 719.63 19.7
-7 -4 4 692.63 13.1
-7 4 -4 685.23 20.5
7 4 4 684.83 10.9
7 -4 4 704.23 20.3
-7 -4 -4 686.73 13.4
-7 4 4 702.23 21
7 -4 4 669.23 19.9
-7 4 4 698.23 20.6
-7 -5 4 1040.6 18.3
7 -5 -4 1031.5 25.8
-7 5 -4 1026.9 26.4
7 5 4 1021.5 16.3
-7 5 4 982.4 26.5
-7 5 4 991.2 26.6
7 -5 4 1019.4 26.2
-7 -5 -4 1044.2 16.5
7 -5 4 1052.99 27.1
-7 -6 4 8.1 2
7 6 4 9.4 2.1
7 -6 -4 8.9 3.4
-7 6 -4 4.8 2.9
-7 -6 -4 9.6 1.8
7 -6 4 12.4 3.9
-7 6 4 8.1 3.4
7 -6 4 7.2 3.2
-7 6 4 8.5 3.7
-7 -7 4 93.49 6.2
-7 7 -4 87.99 8.4
7 -7 -4 80.99 8.1
7 7 4 89.09 5.6
-7 -7 -4 96.19 5.3
-7 7 4 87.19 8.9
-7 -7 -4 91.39 4.4
7 -7 4 90.29 9.2
7 -7 4 78.19 8.1
-7 7 4 75.99 8
-7 -8 4 81.49 3.3
7 8 4 77.29 5.9
-7 -8 4 73.19 6.1
7 -8 -4 76.89 8.4
-7 8 -4 63.09 7.4
-7 -8 -4 72.49 5.1
7 -8 4 57.89 8.9
-7 8 4 73.59 10.3
-7 -8 -4 82.39 4.5
-7 8 4 67.29 7.9
7 -8 4 60.99 8.4
7 -9 -4 49.6 8.1
-7 9 -4 53.59 8.1
-7 -9 4 57.89 3.4
7 9 4 59.39 5.8
-7 -9 4 63.39 6.2
-7 9 4 64.89 10.1
-7 -9 -4 63.49 6.1
-7 9 4 64.29 9
-7 -9 -4 59.39 4.4
7 -9 4 46.8 8.3
-7 -10 4 42 6.4
-7 10 -4 35.6 7.3
-7 -10 4 34.6 3.3
-7 10 4 32.2 7.8
-7 10 4 39.9 7.6
-7 -10 -4 38.1 5.2
-7 -11 4 235.88 13.1
-7 11 -4 217.58 14.3
-7 -11 4 219.38 8.7
7 11 4 229.88 12.6
-7 11 4 223.28 17.2
-7 11 4 221.68 15.2
-7 -11 -4 212.58 11.4
-7 -12 4 1.6 1.9
7 12 4 2.9 2.7
-7 12 -4 -2.8 2.4
-7 -12 4 2.4 3
-7 -12 -4 2.8 2.7
-7 12 4 2.7 3.3
-7 12 4 -1.5 3
-7 -13 4 89.69 7
-7 13 -4 81.29 10.9
-7 -13 4 86.19 9.6
-7 13 4 104.39 15.1
-7 13 4 99.09 10.7
-7 -14 4 0.8 2.7
-7 14 -4 6 4.6
-7 14 4 13.8 6.6
-7 -14 -4 11.6 4.2
-7 14 4 1.7 3.8
8 0 4 345.87 9.5
-8 0 4 347.77 10.3
-8 0 -4 337.57 12.4
-8 -1 4 130.19 5.5
8 -1 -4 136.59 6.4
8 1 4 133.69 4.7
-8 1 -4 124.69 7.9
-8 -1 -4 135.09 7.4
8 -1 4 135.09 6.7
-8 1 4 132.29 7
8 2 4 108.29 2.5
-8 2 -4 115.39 8.1
8 -2 -4 100.99 6.2
-8 -2 4 111.69 4.4
8 2 4 107.69 2.4
-8 -2 -4 116.89 6.4
8 -2 4 109.99 6.9
-8 2 4 116.39 7.3
8 -3 -4 69.19 5.8
-8 -3 4 64.09 3
-8 3 -4 56.39 6
8 -3 4 63.89 6
-8 3 4 61.19 5.8
-8 -3 -4 65.49 4.5
-8 3 4 61.39 6.2
-8 -4 4 31.7 2.4
8 -4 -4 37.8 5.4
-8 4 -4 35.6 5.8
-8 -4 4 33.4 2.2
-8 4 4 26.9 5
8 -4 4 32.3 5.4
8 -4 4 33.9 5.8
-8 4 4 42.7 6.6
-8 -4 -4 30.2 3.1
-8 -5 4 0 0.8
8 -5 -4 -0.5 2
-8 5 -4 0.6 2.5
8 -5 4 -0.1 2.1
-8 -5 -4 1.2 1.1
-8 5 4 -2.3 1.6
-8 5 4 1.3 2.1
8 -5 4 -1.3 1.8
-8 -6 4 88.49 4.9
-8 6 -4 81.09 8.1
8 -6 -4 76.69 7.7
8 6 4 85.39 4.1
8 -6 4 82.39 8.3
-8 6 4 81.39 8.4
8 -6 4 91.99 8.6
-8 6 4 82.49 8.6
-8 -6 -4 93.09 4.6
8 7 4 237.68 8.2
-8 7 -4 233.38 13.8
8 -7 -4 254.77 14.5
-8 -7 4 227.88 9
-8 -7 -4 224.78 7.1
8 -7 4 235.88 14.5
8 -7 4 227.68 16.3
-8 7 4 230.48 14.1
-8 7 4 225.98 14.3
8 8 4 9.2 2.5
8 -8 -4 8.3 3.6
-8 8 -4 6.4 3.5
-8 -8 4 9.1 1.2
-8 -8 4 7 2.3
8 -8 4 6 3.5
-8 -8 -4 9.6 2
-8 8 4 4.7 3.7
-8 8 4 9.4 4.2
8 -9 -4 60.09 9
-8 -9 4 60.79 5.7
-8 -9 4 59.49 3.1
8 9 4 65.59 5.7
-8 9 -4 70.89 9.9
-8 9 4 67.49 9.9
-8 -9 -4 65.79 4.3
8 -9 4 62.79 9.6
-8 -9 -4 60.79 4.8
-8 9 4 61.29 10.1
-8 10 -4 53.99 8.7
-8 -10 4 41.4 3.2
-8 -10 4 42.1 5.9
-8 10 4 47.6 9.3
-8 -10 -4 40.4 4.4
-8 10 4 42 7.9
-8 -11 4 37.9 6.1
-8 11 -4 39.2 7.6
-8 -11 4 41.1 3.8
-8 -11 -4 45.3 6
-8 11 4 40.9 8.1
-8 -12 4 68.29 7.6
-8 12 -4 78.99 11.2
-8 -12 4 72.19 5.3
-8 -12 -4 70.69 6.7
-8 12 4 70.69 12.1
-8 12 4 72.39 10.8
-8 -13 4 71.39 5.8
-8 -13 4 59.39 7.9
-8 13 -4 69.89 10.4
-8 13 4 49.4 10.5
-8 13 4 63.29 10.2
-8 -13 -4 75.99 6.9
-8 -14 4 9.5 3.1
-8 14 -4 1.4 3.5
-8 -14 4 -5.1 3.2
-8 14 4 4.2 4.2
-8 -14 -4 -1.9 3.1
-8 14 4 -5.7 3.3
-9 0 -4 99.89 7.2
-9 0 4 105.49 5.7
9 0 4 90.49 4.9
9 1 4 3.3 1
9 -1 -4 0.9 1.2
-9 -1 4 1.8 1
-9 1 -4 0.7 1.8
-9 1 4 2 1.5
9 -1 4 2.6 1.5
-9 -1 -4 1.3 1.7
9 -2 -4 355.76 11.9
-9 2 -4 370.66 15
-9 -2 4 357.76 7.8
-9 2 4 374.46 13.4
9 -2 4 355.56 12.7
-9 -2 -4 362.36 12.2
-9 -3 4 -0.2 0.4
-9 -3 4 0.1 0.4
-9 3 -4 1 1.8
9 -3 -4 -2.3 1
-9 3 4 1.7 1.9
9 -3 4 1.3 1.5
-9 -3 -4 -0.6 1
-9 3 4 0.5 1.4
-9 4 -4 136.49 10
9 -4 -4 149.59 9.2
9 -4 4 129.39 9.2
-9 4 4 138.29 9.8
-9 -4 -4 146.79 6.9
-9 4 4 157.48 10.8
-9 -5 4 749.53 10.8
-9 -5 4 761.42 10.3
9 -5 -4 761.02 22.7
-9 5 -4 757.62 24.4
-9 5 4 782.02 25.4
-9 -5 -4 741.23 15.4
-9 5 4 735.53 23.6
9 -5 4 792.72 24.3
-9 -6 4 15.1 1.7
-9 6 -4 11.3 3.9
9 -6 -4 10.8 3.7
-9 6 4 9 4
9 -6 4 13.4 4.4
-9 -6 -4 12.9 2.3
-9 6 4 11.9 4.2
9 -7 -4 9.2 4
-9 7 -4 16 4.8
-9 -7 4 12.3 2.3
-9 -7 -4 14.1 2.3
9 -7 4 14.2 5
-9 7 4 19.3 5.4
-9 7 4 13.9 4.9
-9 8 -4 204.68 13.9
9 -8 -4 184.08 13.1
-9 -8 4 172.98 7.7
9 -8 4 177.08 13.6
-9 -8 -4 175.98 6.5
-9 8 4 175.18 13.4
-9 8 4 195.38 14.1
-9 -9 4 706.13 10.8
-9 9 -4 744.93 27.2
-9 -9 4 723.83 17.8
-9 9 4 746.03 29.3
-9 -9 -4 705.13 14.7
-9 9 4 677.53 26.8
-9 -10 4 14.3 2
-9 10 -4 14.3 4.9
-9 10 4 18.3 5.6
-9 10 4 14.7 6
-9 -10 -4 15.5 2.8
-9 -11 4 139.39 9
-9 11 -4 167.88 13.6
-9 -11 4 138.09 5.8
-9 11 4 135.49 14.1
-9 11 4 149.39 13.4
-9 -11 -4 120.89 7.4
-9 12 -4 -6.8 2.7
-9 -12 4 0.2 2.8
-9 -12 -4 3.5 2.4
-9 12 4 -0.9 3.3
-9 12 4 -8.1 3
-9 -13 4 143.79 10.6
-9 -13 4 157.88 7.9
-9 13 -4 151.38 13.6
-9 13 4 100.69 15
-9 -13 -4 152.18 9.4
-9 13 4 142.29 13.5
-10 0 4 185.98 7.7
10 0 4 178.58 6.7
10 1 4 30.4 1.7
-10 -1 4 33.5 2.8
-10 1 -4 29.5 5.3
-10 -1 -4 33.2 5.1
10 -1 4 33 4.3
-10 1 4 32.3 4.3
10 -2 -4 90.79 6.1
-10 2 -4 93.19 8.1
-10 -2 4 88.89 3
-10 2 4 83.39 6.5
10 -2 4 89.19 6.6
-10 -2 -4 91.39 6.6
-10 2 4 83.99 7.6
-10 3 -4 56.49 7.9
10 -3 -4 52.49 5.2
10 -3 4 57.79 6
-10 -3 -4 58.89 5.2
-10 3 4 57.09 6
-10 3 4 58.29 6.8
10 -4 -4 3.6 2.1
-10 4 -4 0 1.9
-10 4 4 0.3 1.5
-10 -4 -4 -1.4 1.3
-10 4 4 0.4 2.2
10 -4 4 0.3 2
-10 5 -4 6.6 3.2
10 -5 -4 7.8 3.3
10 -5 4 5.8 3.3
-10 -5 -4 11.4 2.5
-10 5 4 9.7 3.7
-10 5 4 7.6 3.5
10 -6 -4 61.49 8.3
-10 6 -4 60.59 9.3
10 -6 4 66.59 9.1
-10 -6 -4 68.09 4.5
-10 6 4 62.59 9.2
-10 6 4 67.09 9.4
-10 -7 4 160.48 3.4
-10 7 -4 152.78 12.1
-10 -7 -4 158.18 6.5
-10 7 4 150.98 12.5
10 -7 4 142.69 14.3
-10 7 4 172.28 13.1
-10 8 -4 17.8 5.3
-10 -8 4 20 2.4
10 -8 -4 16 5.1
10 -8 4 29.6 6.7
-10 8 4 24.9 6.5
-10 -8 -4 23.8 3
-10 8 4 15 5.1
-10 -9 4 1 1.2
-10 9 -4 2.5 3.2
-10 9 4 1.2 3
-10 9 4 -2.3 2.5
-10 -10 4 161.18 7.8
-10 -10 4 154.88 4.6
-10 10 -4 154.88 13.1
-10 -10 -4 165.18 7
-10 10 4 174.08 14.5
-10 -11 4 -0.4 1
-10 11 -4 -0.9 3.4
-10 11 4 -0.5 3.8
-10 11 4 6.5 5.1
-10 -12 4 160.38 9.4
-10 -12 4 151.88 6.3
-10 12 4 150.58 14.2
-10 12 4 150.88 15.4
-10 13 -4 8.9 4.5
-10 -13 4 6.6 2.7
-10 -13 4 7.5 3.3
-10 13 4 3.1 4.1
-10 13 4 8 5.1
11 0 4 652.93 12.8
-11 0 4 632.64 14.7
-11 0 -4 660.33 20.8
-11 1 -4 138.69 9.9
-11 -1 4 121.49 4.8
11 -1 4 127.39 6.7
-11 1 4 122.89 9.2
-11 -1 -4 115.29 8.6
-11 1 4 131.39 7.4
-11 2 -4 1.3 2.4
11 -2 -4 0.9 1.2
-11 -2 -4 -0.2 1.8
-11 2 4 2.3 2.3
11 -2 4 -1.1 1.5
-11 2 4 1.7 1.9
11 -3 -4 18.9 3.9
-11 3 -4 18 4.8
-11 3 4 19.4 4.1
11 -3 4 22 4.3
-11 3 4 12.5 4.3
-11 -3 -4 18.3 3.6
11 -4 -4 308.87 13.6
-11 4 -4 275.87 15.4
-11 -4 -4 290.47 11.2
-11 4 4 303.47 14.6
-11 4 4 286.77 16.1
11 -4 4 272.37 13.5
-11 5 -4 12.2 4.6
11 -5 -4 17.5 4.5
-11 -5 -4 21.7 3.6
11 -5 4 25.4 5.4
-11 5 4 14.6 5.3
-11 5 4 28.1 6
11 -6 -4 45.3 7.4
-11 6 -4 41.5 8
-11 6 4 39.6 7.4
11 -6 4 36.9 7.5
-11 -6 -4 40.3 3.9
-11 6 4 35.2 7.7
11 -7 -4 30 6.7
-11 7 -4 29.2 6.9
-11 7 4 35.7 7.4
-11 7 4 27.2 6.7
11 -7 4 32.7 7.1
-11 -7 -4 33.5 3.4
-11 8 -4 78.89 11.7
-11 8 4 46.6 8.9
-11 -8 -4 53.09 4
-11 8 4 45.7 8.9
-11 -9 4 523.75 9.1
-11 9 -4 523.45 24.4
-11 9 4 526.55 25.4
-11 -9 -4 519.45 12.6
-11 9 4 493.75 24.8
-11 -10 4 86.39 3
-11 -10 4 77.49 3.4
-11 10 -4 82.79 11.9
-11 -10 -4 85.79 5.2
-11 10 4 76.09 11.9
-11 10 4 82.09 12.8
-11 -11 4 5.8 1.4
-11 11 -4 7.3 4.8
-11 -11 4 9.8 2
-11 11 4 11.4 5.5
-11 11 4 7.4 4.9
-11 12 -4 48.4 9.4
-11 -12 4 41.3 4.2
-11 -12 4 41.3 3
-11 12 4 43.9 10
-11 12 4 40.6 10
-12 0 -4 199.28 11.9
12 0 4 204.28 5.9
-12 0 4 211.88 12.2
-12 0 4 193.88 7.5
-12 1 -4 3.2 2.8
-12 1 4 4.9 2.1
-12 -1 -4 4.1 2.9
12 -1 4 6.1 2
-12 1 4 1.4 2.6
12 -2 -4 160.08 9.9
-12 2 -4 180.18 12.1
-12 2 4 184.78 12.5
-12 -2 -4 187.88 10.6
12 -2 4 170.08 8.8
-12 2 4 170.68 9.5
12 -3 -4 4.2 2.4
-12 3 -4 7.6 3.8
-12 3 4 8 3.5
-12 3 4 5.8 3
12 -3 4 5.7 2.6
-12 -3 -4 5.5 2.6
12 -4 -4 135.49 9.2
-12 4 -4 111.09 10.3
-12 -4 -4 125.89 7.9
-12 4 4 151.38 10.6
12 -4 4 123.19 9.3
-12 4 4 110.09 10.8
-12 5 -4 92.59 9.7
12 -5 -4 93.49 8.4
-12 5 4 100.49 9.3
-12 5 4 88.69 9.7
-12 -5 -4 84.09 6.3
12 -5 4 100.59 9.2
12 -6 -4 -4.5 2.6
-12 6 -4 -4 2.8
-12 -6 -4 2.1 1.5
12 -6 4 1.1 2.8
-12 6 4 -3.7 2.1
-12 6 4 9.2 4.3
12 -7 -4 1.7 2.8
-12 7 4 3.8 3
-12 -7 -4 1.9 1.4
12 -7 4 4.8 3.3
-12 8 -4 5.7 3.8
-12 8 4 4.1 4.1
-12 8 4 1.4 4.1
-12 -8 -4 1.8 1.6
-12 9 -4 -0.3 3.4
-12 -9 -4 1.9 1.4
-12 9 4 12.5 5.7
-12 10 -4 24.8 7.2
-12 -10 4 23.4 1.6
-12 10 4 33.3 8.4
-12 10 4 15.8 6.4
-12 -10 -4 19.1 2.8
-12 11 -4 9.8 4.2
-12 11 4 -1.3 3.8
-12 11 4 -6.8 3.4
-13 0 -4 1032.9 28.9
-13 0 4 1048.2 29.1
-13 -1 4 19.5 4.7
-13 1 -4 15 5
-13 -1 -4 22.7 4.9
-13 1 4 21.4 5.3
13 -1 4 29.3 3.2
-13 1 4 15.2 3.1
-13 2 -4 57.49 8.5
-13 -2 4 66.69 7.2
13 -2 4 72.29 6
-13 2 4 52.69 5.5
-13 2 4 70.79 9.9
-13 -2 -4 53.49 6.2
-13 3 -4 -1.7 3
13 -3 -4 3.8 2.6
-13 -3 -4 3.6 2.4
-13 3 4 4.5 2.6
13 -3 4 5.2 2.6
-13 3 4 2.3 3.7
13 -4 -4 222.78 11.7
-13 4 -4 191.98 14.1
-13 4 4 228.78 12.8
13 -4 4 220.78 12.2
-13 4 4 213.68 14.9
13 -5 -4 1.7 2.5
-13 5 -4 -0.4 2.7
13 -5 4 -0.7 2.5
-13 5 4 5.9 3.9
-13 5 4 -0.8 2.5
-13 -5 -4 0.7 1.6
-13 6 -4 -1.9 2.9
13 -6 -4 0.9 3.6
-13 6 4 4.8 4.7
-13 6 4 3.4 2.8
-13 -6 -4 4.6 2.3
13 -6 4 3.8 3.7
-13 7 -4 10.3 5.2
-13 7 4 1.5 3
-13 7 4 4.6 4.2
-13 -7 -4 4.1 2.1
-13 8 -4 29.7 7.6
-13 8 4 22.2 7
-13 8 4 22.9 6.7
-13 -8 -4 23.2 3.7
-13 9 -4 0.5 4.4
-13 -9 -4 2.1 1.7
-13 9 4 -5.3 3.1
-13 9 4 3.8 4.3
-13 -10 4 3.9 1.3
-13 -10 4 6.1 1.3
-13 10 -4 -1.2 2.9
-13 10 4 6.4 5.1
-13 -10 -4 13.8 2.5
-13 10 4 5.3 5
-14 0 -4 52.09 7.9
-14 0 4 48.4 8.1
-14 1 -4 115.59 10.6
-14 -1 4 119.79 9.9
-14 -1 -4 106.89 9.4
-14 1 4 127.79 11.1
14 -1 4 120.09 5.1
-14 2 -4 14.9 4.9
-14 -2 4 9.3 4.1
-14 -2 -4 10.5 3.7
14 -2 4 14.9 3.1
-14 2 4 9.4 4.8
-14 -3 4 -1 2.2
-14 3 -4 0.3 2.6
14 -3 4 7.5 2.7
-14 3 4 3.3 3.2
-14 -3 -4 4.8 2.3
-14 3 4 1.2 1.9
-14 4 -4 3.8 3.1
-14 -4 4 0.4 2.3
14 -4 -4 -1.6 2.3
-14 4 4 -2.5 2
-14 -4 -4 4.7 2.7
-14 4 4 2.2 3.8
14 -4 4 8.2 3.6
14 -5 -4 -1.9 2.6
-14 5 -4 -0.5 3.2
-14 -5 4 2.4 1.9
-14 5 4 3.4 3.3
-14 -5 -4 1.2 2.1
14 -5 4 -3.4 2.5
-14 5 4 0.4 2.4
-14 -6 4 13.4 3.2
14 -6 -4 8.4 4.6
-14 6 -4 7.7 4.7
-14 6 4 -2.5 3.4
-14 -6 -4 0.9 3.5
-14 6 4 6.4 3.8
14 -6 4 14.1 4.9
-14 7 -4 27.9 7.9
-14 -7 4 40.2 4.5
-14 7 4 33 7.9
-14 7 4 27.4 6.5
-14 -7 -4 41.8 4.7
-14 -8 4 3.9 2
-14 8 -4 5.5 5
-14 -8 -4 5 2.1
-14 8 4 4.8 4.5
-14 -9 4 1.8 2
-14 9 -4 6 4.9
-14 9 4 4.2 4.4
-14 -9 -4 9.2 2.5
-14 9 4 0.6 4.8
-15 0 4 186.48 13.6
-15 0 -4 194.68 13.7
-15 -1 4 5.3 3.6
-15 1 -4 6.9 4.7
-15 1 4 7.7 4.5
-15 -1 -4 4.8 3.9
-15 -2 4 30.9 6.1
-15 2 -4 19.1 6
15 -2 4 20 3.2
-15 2 4 32 7.8
-15 -2 -4 30.8 6
-15 3 -4 0 4.2
-15 -3 4 6.5 3.1
-15 -3 -4 5.6 3.2
15 -3 4 -1 2.1
-15 4 -4 11 5
15 -4 -4 21.1 4.2
-15 -4 4 16.9 4.6
-15 4 4 9.5 4.9
-15 -4 -4 12.6 4
-15 -5 4 57.49 6.4
-15 5 -4 46 9.4
-15 5 4 42.3 9.4
-15 5 4 35.1 6.7
15 -5 4 36.6 6.4
-15 -5 -4 54.19 7.3
-15 6 -4 0.3 3.2
-15 -6 4 9.4 3.4
-15 -6 -4 0.9 2
-15 6 4 3.4 3.8
15 -6 4 -3.8 3.7
-15 6 4 -1.3 2.7
-15 7 -4 24.4 7.6
-15 -7 4 32.1 4.7
-15 7 4 25 7
-15 7 4 30.9 8.3
-15 -7 -4 34.8 5
-16 0 4 -0.4 3.8
-16 0 -4 1.2 3.4
-16 -1 4 -3.7 3
-16 -1 -4 2.5 3.2
-16 1 4 2.7 4.2
-16 -2 4 85.49 9.4
-16 2 -4 112.39 11.6
-16 2 4 98.09 11.5
-16 -2 -4 94.19 9.5
16 -2 4 90.99 4.6
-16 3 -4 14.6 5.3
-16 -3 4 0.9 3.8
-16 -3 -4 16.6 4.6
-16 3 4 4.2 5.3
16 -3 4 7.4 3.8
-16 -4 4 16.8 4.7
-16 4 -4 5 4.4
-16 4 4 17.9 6.7
-16 -4 -4 15.4 4.6
16 -4 4 15.1 4.3
-16 5 -4 0.5 3.3
-16 -5 4 5.7 3.1
16 -5 -4 -4.1 3.6
-16 5 4 -0.6 4.8
16 -5 4 -0.9 4
-16 -5 -4 4.5 3.1
0 0 -5 0.4 1
0 0 5 0.3 0.7
0 1 -5 2.1 1.1
0 -1 -5 1.4 1.1
0 -1 5 1.3 1
0 1 5 1.5 1.1
0 -2 5 1359.16 19.6
0 2 5 1363.26 20
0 -2 -5 1328.37 20.5
0 -2 -5 1334.97 20.6
0 2 -5 1303.97 19.1
0 2 5 1304.67 20.8
0 -3 -5 0.1 0.7
0 -3 5 -0.9 0.7
0 3 5 -1.1 0.6
0 3 5 0.1 0.7
0 3 -5 0.8 0.7
0 4 5 2898.91 36.9
0 -4 -5 3107.59 40.7
0 4 5 2997.6 41.5
0 -4 5 2993.2 37.1
0 4 -5 2905.71 35.3
0 5 -5 0.6 0.9
0 -5 -5 -0.3 1
0 5 5 1.2 1.3
0 5 5 -0.4 0.8
0 -5 5 1.6 1.6
0 5 5 -0.3 0.9
0 -5 5 1 1.2
0 -6 5 29.4 4
0 6 5 29.4 4.8
0 6 -5 27.9 2.9
0 -6 -5 27.5 5.1
0 6 5 24.1 3.5
0 6 5 27.5 3.8
0 7 -5 2 1.2
0 -7 -5 0.7 1.6
0 7 5 -0.4 1.2
0 7 5 -0.3 1.5
0 -7 5 0.3 1.7
0 -7 5 1.2 1.4
0 7 5 1.3 1.3
0 8 5 -3.3 1.2
0 -8 -5 0.4 1.8
0 8 5 -0.4 1.3
0 8 -5 -0.9 0.7
0 8 5 0.6 1.2
0 -8 5 -1.3 1.5
0 -8 5 0.7 2.1
0 9 -5 1.3 1.4
0 -9 5 2.7 2.6
0 -9 5 -1.3 1.3
0 9 5 1.1 1.6
0 9 5 0.1 1.7
0 9 5 -0.6 1.1
0 -9 -5 1.5 1.9
0 10 -5 1432.46 23.9
0 -10 5 1335.57 36.3
0 -10 5 1428.56 31.8
0 10 5 1411.96 26.2
0 10 5 1404.06 26.2
0 -10 -5 1473.45 36.1
0 10 5 1507.25 38.2
0 -11 5 1 2.7
0 -11 -5 2.6 2.7
0 11 5 3.4 1.8
0 11 5 -0.2 1.3
0 11 5 -2.7 1.9
0 11 -5 1.5 1.3
0 -11 5 2.2 2.4
0 12 5 121.79 11.9
0 -12 -5 110.39 11.3
0 12 -5 120.29 5.8
0 12 5 110.69 6.7
0 12 5 102.49 6.4
0 -12 5 112.79 9.5
0 13 5 -0.8 1.4
0 13 -5 2.4 1.2
0 13 5 -4.6 2.5
0 13 5 1 1.6
0 14 5 452.95 11.3
0 14 5 461.55 11.3
0 14 5 469.85 25.3
0 15 5 9 5.2
0 16 5 4.1 3.8
-1 0 5 2.2 1.3
1 0 5 0.7 1
-1 0 -5 1.8 1
-1 -1 5 1022.6 15.7
1 1 5 1041 16
-1 1 -5 1003 16.4
-1 -1 -5 980.4 16
-1 1 5 1006.7 16.8
-1 1 5 1005 16.8
1 -1 5 1026.3 16.5
-1 -2 5 6.7 1.5
1 2 5 8.2 1.9
-1 2 -5 6.9 1.7
1 2 5 7.2 1.5
1 -2 -5 9.1 1.9
-1 -2 -5 6.9 1.7
1 2 -5 6.6 1.3
1 -2 5 5.4 1.5
-1 2 5 7.4 1.8
1 3 5 424.36 11.3
1 -3 -5 430.36 11.9
-1 3 -5 438.76 10.8
1 3 5 420.06 9.6
-1 -3 5 432.36 9.7
-1 -3 -5 425.46 10.9
1 -3 5 434.16 11.1
1 3 -5 420.76 8.9
-1 -3 -5 424.56 10.4
1 4 5 3 1.2
-1 4 -5 3.5 1.4
1 -4 -5 5.8 1.9
1 4 5 3 1.7
-1 -4 5 3.1 1.3
-1 -4 -5 2.5 1.4
1 4 -5 3.6 1.2
-1 4 5 1.6 1.5
1 -4 5 1.8 1.3
1 -4 5 1.9 1.5
1 5 5 10.8 2.8
1 5 5 16.9 2.6
-1 5 -5 11.4 2.4
1 -5 -5 11.7 2.8
-1 -5 5 12.2 2.3
-1 -5 5 16.9 3.7
1 5 5 11.2 2.1
-1 -5 -5 19.3 3.5
-1 5 5 13.4 3.2
1 -5 5 14.6 3.4
1 -5 5 12.4 2.7
1 5 -5 14.1 2
1 6 5 12.2 2.2
-1 -6 5 12.6 2.5
-1 -6 5 5.8 2.5
1 6 5 10.3 2.7
1 6 5 13.6 2.4
1 -6 -5 13.3 3.3
-1 6 -5 12.6 2.7
-1 6 5 12.2 3.5
-1 -6 -5 14.9 3.3
1 -6 5 14.2 3.8
1 6 -5 15.4 2.2
-1 6 5 16.5 3.2
1 -7 -5 803.92 22.5
1 7 5 903.31 23.8
-1 -7 5 831.62 23.2
1 7 5 811.62 16.4
1 7 5 809.72 15.9
-1 7 -5 842.42 18.3
-1 -7 5 838.12 18.5
1 -7 5 804.52 23.6
1 7 -5 830.22 14.2
-1 7 5 840.62 19.9
1 -7 5 797.92 20.2
-1 7 5 775.12 23.3
-1 -7 -5 850.61 21.8
1 8 5 158.38 6.7
-1 -8 5 173.18 8.6
-1 -8 5 159.68 10.6
-1 8 -5 178.98 8.3
1 8 5 159.28 10.5
1 -8 -5 142.19 9.9
1 8 5 160.58 6.9
1 -8 5 169.58 9.5
-1 8 5 158.88 8.6
-1 -8 -5 177.08 10.4
1 8 -5 157.88 5.6
-1 8 5 170.08 11.3
1 -8 5 175.48 11.6
1 9 5 434.16 11.5
-1 9 -5 409.76 13
-1 -9 5 404.16 17.8
1 9 5 410.76 11
1 9 5 417.86 18.1
1 -9 -5 433.86 18.2
-1 -9 5 400.86 14.3
1 -9 5 418.56 16.2
1 -9 5 380.96 17.9
1 9 -5 409.86 9.2
-1 -9 -5 423.76 17.2
-1 9 5 424.36 14.6
-1 9 5 450.45 19.5
-1 -10 5 70.19 9.5
1 10 5 71.29 4.5
-1 -10 5 74.09 6.7
1 10 5 65.99 4.5
-1 10 -5 71.49 5.7
1 -10 -5 72.09 9.9
1 10 5 71.09 8.1
1 -10 5 72.79 8.6
1 -10 5 71.39 7.2
-1 -10 -5 61.59 7.2
1 10 -5 68.59 3.3
-1 10 5 65.69 6
-1 10 5 70.29 10
-1 -11 5 101.19 14.8
1 11 5 79.79 4.5
1 -11 -5 83.09 9
1 11 5 71.29 10.1
-1 -11 5 82.29 7.5
-1 11 -5 62.59 5.3
1 11 5 76.99 4.5
-1 11 5 75.29 6.4
1 -11 5 81.89 9.3
-1 11 5 78.59 11
-1 11 5 75.59 6.4
-1 12 -5 8 2.8
1 12 5 11.7 5.2
1 12 5 6.1 1.5
1 12 5 3.6 1.3
-1 -12 5 7 3.7
-1 -12 -5 11.8 4.5
1 -12 5 15.2 4.3
-1 12 5 8.1 2.6
-1 12 5 5.5 4
-1 12 5 3.1 2.3
1 13 5 263.47 17.9
-1 -13 5 258.47 14.8
-1 13 -5 254.37 11.3
-1 13 5 264.67 11.6
-1 13 5 238.58 17.5
-1 13 5 257.17 11.7
1 14 5 106.39 20.1
-1 14 -5 112.39 6.4
-1 14 5 114.89 13
-1 14 5 102.79 7.2
-1 14 5 93.49 7.3
1 15 5 78.09 12.8
-1 15 -5 82.49 5
-1 15 -5 83.29 4.7
-1 15 5 79.59 13.5
1 16 5 42.6 10.8
-1 16 5 47 4.2
-1 16 5 49.99 11.1
-1 16 5 50.69 4
2 0 5 0.6 0.9
-2 0 -5 -0.2 0.8
-2 1 -5 197.28 6.9
2 1 5 210.88 6.4
-2 -1 5 202.28 6.3
-2 -1 -5 204.98 6.5
-2 1 5 203.78 7.1
2 -1 5 222.68 7.3
-2 2 -5 1108.39 19.1
2 -2 -5 1125.09 19.4
2 2 5 1133.09 16.4
-2 -2 5 1115.89 16.5
2 2 5 1081.39 17.5
-2 2 5 1132.99 20
-2 -2 -5 1112.19 17.3
2 -2 5 1121.59 19.3
-2 -3 5 530.95 10.4
-2 3 -5 528.75 12.9
2 3 5 526.85 12.3
2 -3 -5 540.85 13.9
2 3 5 526.45 10.1
2 -3 5 544.55 13.4
-2 -3 -5 533.05 11.9
-2 -3 -5 537.15 11.4
-2 3 5 514.25 14.1
2 4 5 16.4 2.9
-2 -4 5 16.5 1.9
2 4 5 15.7 1.8
2 -4 -5 19.7 3.5
-2 4 -5 23.3 3.5
2 -4 5 18.5 3.5
-2 -4 -5 14 2.5
-2 -4 -5 23.2 3.1
2 -4 5 16.7 3.1
-2 4 5 18.2 3.5
-2 -5 5 387.46 13
2 5 5 378.86 12.6
2 5 5 397.66 9
-2 -5 5 410.16 9.9
2 5 5 415.66 8.6
2 -5 -5 419.06 14.1
-2 5 -5 395.26 12.2
-2 5 5 405.46 14.6
2 -5 5 408.76 14.8
-2 -5 -5 417.96 12.4
2 -5 5 399.96 13
-2 -5 -5 406.36 11.1
-2 -6 5 180.68 9.4
2 6 5 183.08 5.8
-2 6 -5 163.38 8
-2 -6 5 171.08 6.8
2 -6 -5 168.58 9.6
2 6 5 174.18 5.4
2 6 5 174.48 9.2
-2 -6 -5 177.08 8.7
-2 6 5 171.38 8.8
2 -6 5 176.78 9
2 -6 5 181.98 10.6
-2 6 5 170.68 10.3
2 7 5 27.2 2.1
-2 -7 5 26.8 3.1
2 7 5 30.7 5.2
2 -7 -5 33.9 5.4
2 7 5 27.7 2.3
-2 7 -5 32.3 4.5
-2 -7 5 30.3 5.1
-2 -7 -5 32.7 4.8
-2 7 5 34.7 5
-2 7 5 32.8 5.7
2 -7 5 30.1 4.9
2 -7 5 24 5.1
2 8 5 443.46 8.6
-2 -8 5 433.66 13.3
2 8 5 431.66 16.9
-2 -8 5 436.96 17.2
-2 8 -5 442.36 14.4
2 8 5 447.86 8.8
2 -8 -5 431.16 17.4
2 -8 5 431.66 18.4
2 -8 5 417.86 15.9
-2 8 5 474.35 19.3
-2 8 5 411.56 17.4
-2 -8 -5 455.75 16.2
2 9 5 9.2 3.3
-2 -9 5 10.6 3.8
2 -9 -5 14 4.2
2 9 5 15.4 1.4
-2 9 -5 15.2 5.4
2 9 5 15.4 1.5
-2 -9 5 23.4 3.9
2 -9 5 17.7 4.8
-2 9 5 16.1 3.8
-2 -9 -5 19.7 4.4
-2 9 5 17.2 4.8
2 -9 5 23.3 4.8
-2 10 -5 110.19 7.6
2 10 5 89.79 9
-2 -10 5 100.79 9.5
2 -10 -5 103.59 11.2
-2 -10 5 94.09 7.1
-2 10 5 88.39 7.4
-2 -10 -5 92.59 8.7
-2 10 5 110.49 10.5
2 -10 5 108.89 9.1
-2 -11 5 40.1 6.1
-2 11 -5 38.4 5.6
2 11 5 43.9 7.8
2 -11 -5 32.5 6.8
-2 -11 5 45.1 8.4
-2 11 5 47.7 6.6
2 -11 5 32.9 7.3
-2 11 5 49.5 8.7
2 -11 5 43 7.1
-2 -11 -5 38 7
-2 12 -5 8 2.8
-2 -12 5 11.8 5.1
-2 -12 5 0.8 2.6
2 12 5 5.9 4.3
-2 12 5 11.8 3.5
-2 -12 -5 4.1 3.5
-2 12 5 2.5 3.6
-2 12 5 11.6 3.4
-2 -13 5 129.99 10.5
2 13 5 131.59 12.6
-2 13 -5 121.49 8.2
-2 13 5 116.19 17.1
-2 13 5 130.49 9.2
-2 13 5 124.19 9.2
2 14 5 28.4 7.4
-2 14 -5 34.9 5.3
-2 14 5 40.3 6.1
-2 14 5 32.9 8.2
-2 14 5 36.6 6.1
-2 15 -5 37.9 5.2
2 15 5 39.4 9
-2 15 5 52.09 10.8
-2 15 5 46.5 6.4
-2 15 5 41.8 5.9
2 16 5 38.4 8.5
-2 16 5 25.8 4.5
-2 16 5 28.3 5.5
-2 16 5 34.3 9.6
3 0 5 -0.2 0.7
-3 0 -5 0.3 0.9
-3 0 5 0.1 0.7
3 1 5 8.3 1.7
-3 1 -5 11.7 2.3
3 -1 -5 5.1 1.5
-3 -1 -5 8 1.6
-3 1 5 7.7 1.8
3 -1 5 8.9 2
3 2 5 683.73 11.7
3 2 5 677.33 12.7
3 -2 -5 675.43 14.8
-3 2 -5 696.13 15.3
3 -2 5 709.63 15.5
-3 -2 -5 690.63 12.9
-3 2 5 697.73 15.8
3 3 5 220.08 5.5
3 3 5 228.08 7.5
-3 3 -5 217.58 8.7
-3 -3 5 217.98 6.1
3 -3 -5 234.28 9.2
-3 -3 -5 212.18 6.7
3 -3 5 229.18 9.5
3 -3 5 234.18 9.2
-3 3 5 227.58 9.5
-3 4 -5 3.2 1.6
3 -4 -5 -0.4 1.1
3 4 5 2.9 1.3
-3 -4 5 2.1 1
3 4 5 2.6 0.8
3 4 5 2.8 0.8
-3 4 5 1.6 1.8
3 -4 5 2.6 1.8
-3 -4 -5 1.3 1
3 -4 5 2.2 1.5
-3 -4 -5 3.1 1.3
-3 5 -5 50.99 4.8
3 5 5 45.3 4.2
-3 -5 5 44 4.4
-3 -5 5 38.6 2.8
-3 -5 -5 49.1 4.1
3 -5 5 47.8 4.9
-3 5 5 36.5 5.4
-3 -5 -5 45.6 3.4
3 6 5 381.66 13.4
-3 6 -5 388.96 13.4
3 -6 -5 401.56 15.3
-3 -6 5 397.16 9.7
-3 -6 5 397.76 13.9
3 -6 5 400.56 16.1
-3 -6 -5 391.46 12.6
-3 6 5 390.76 14.2
3 -6 5 374.16 14
-3 -6 -5 389.06 11
3 7 5 88.19 7
-3 7 -5 95.49 7
-3 -7 5 85.29 7.3
-3 -7 5 97.19 5.1
3 -7 -5 100.09 8.2
3 -7 5 101.39 8.7
-3 7 5 88.39 8.2
3 -7 5 94.59 7.4
-3 -7 -5 88.99 6.7
-3 -8 5 2.2 2.1
3 -8 -5 1.3 2.2
3 8 5 1 1.9
-3 8 -5 1.8 1.8
-3 -8 5 2 1.4
-3 -8 -5 2.5 2
-3 8 5 4.3 2.7
3 -8 5 0.6 2
3 -8 5 0 1.7
-3 8 5 1.4 2.1
3 9 5 57.19 6.6
-3 -9 5 55.99 7.7
-3 -9 5 54.19 4.9
3 -9 -5 68.19 7.7
-3 9 -5 70.79 6.5
3 -9 5 66.49 7
3 -9 5 60.89 8.8
-3 -9 -5 48.1 6.6
-3 9 5 53.79 6.3
-3 9 5 56.09 9.1
3 -10 -5 58.09 8.8
-3 -10 5 45.3 7.2
-3 -10 5 56.39 5.3
-3 10 -5 40.5 5.9
3 10 5 46.7 7.5
3 -10 5 49.4 8.6
-3 10 5 55.09 6.5
3 -10 5 58.39 10
-3 -10 -5 46.6 7
-3 10 5 48.5 8.2
-3 -11 5 13.5 3.3
-3 11 -5 17.1 4.2
-3 -11 5 13 4.5
3 11 5 7.8 3.7
3 -11 -5 11.4 3.6
-3 11 5 11.4 3.7
-3 -11 -5 8.8 3.8
-3 11 5 7.5 4.4
3 -11 5 10.3 4
-3 -12 5 47.1 6.4
-3 12 -5 31.8 5.3
-3 -12 5 28.5 6.8
3 12 5 39.4 7.9
-3 12 5 25.9 7.1
-3 -12 -5 34.4 6.8
-3 12 5 35.1 6.3
3 13 5 174.78 14.1
-3 13 -5 158.98 10.2
-3 13 5 161.08 15
-3 13 5 152.78 10.8
-3 -14 5 58.59 8.8
-3 14 -5 58.29 6.6
3 14 5 69.19 10.8
-3 14 5 50.69 8.1
-3 14 5 48.6 7.3
-3 14 5 67.39 12
-3 15 -5 14.9 3.8
3 15 5 11.5 5.6
-3 15 5 3.8 3.7
-3 15 5 25.3 8
3 16 5 60.79 11.1
-3 16 -5 68.89 6.9
-3 16 5 43.9 6.6
-3 16 5 51.49 11.1
-3 16 5 70.99 12.8
4 0 5 0.2 0.8
-4 0 -5 -0.7 0.7
-4 0 5 1 0.8
-4 1 -5 326.27 10.1
4 1 5 298.97 8.1
4 -1 -5 298.97 9
4 -1 5 322.47 10
-4 1 5 307.77 9.5
-4 -1 -5 307.37 8.8
4 2 5 27.3 2.2
4 -2 -5 22.7 3.2
-4 2 -5 28.5 3.9
4 2 5 27.5 2.4
4 -2 5 26 3.7
-4 -2 -5 29.3 2.7
-4 2 5 25.7 3.6
4 3 5 141.39 3.4
-4 3 -5 145.49 7.6
4 -3 -5 136.19 7.2
4 3 5 139.39 5.6
-4 3 5 143.39 7.8
4 -3 5 158.58 8
-4 -3 -5 138.99 5.4
4 -3 5 145.59 7.8
4 -4 -5 52.59 5
-4 -4 5 51.49 2.9
4 4 5 50.29 3.9
-4 4 -5 60.39 5.2
-4 4 5 53.09 5.4
4 -4 5 57.99 5.3
4 -4 5 47.6 5
-4 -4 -5 46.6 3.2
4 -5 -5 3115.19 47
4 5 5 3029.9 40.9
-4 5 -5 2968.3 44.6
-4 -5 5 3024.4 41.9
-4 -5 5 2986.6 33.3
4 -5 5 3063.99 48.6
-4 5 5 3106.09 48.9
-4 -5 -5 3044.4 36.2
-4 -5 -5 3007 38.7
4 -5 5 3082.39 46.3
-4 -6 5 5.6 2.1
4 6 5 3 1.6
4 -6 -5 3.4 2.5
-4 -6 5 3.2 1.2
-4 6 -5 5.4 2.7
4 -6 5 4.2 2.3
4 -6 5 4.1 2
-4 -6 -5 5.2 1.9
-4 6 5 3.1 2.3
-4 -6 -5 6.3 1.8
-4 -7 5 152.58 5.9
4 7 5 132.49 8.3
4 -7 -5 146.89 10
-4 -7 5 151.58 9.1
-4 7 -5 128.19 8.5
-4 7 5 155.28 9.8
4 -7 5 148.69 10.6
4 -7 5 151.98 9.8
-4 -7 -5 149.19 6.9
-4 7 5 153.08 10.9
-4 -7 -5 132.59 7.5
4 8 5 11 3.3
-4 8 -5 14.7 3.6
-4 -8 5 12.9 3.6
-4 -8 5 11.8 2.3
4 -8 -5 11.7 3.9
-4 8 5 12.1 3.7
4 -8 5 13.3 4
-4 8 5 13.3 4.2
4 -8 5 8.1 3.3
-4 -8 -5 13.7 3.2
4 -9 -5 4.9 2.8
-4 -9 5 4.7 2.6
-4 9 -5 0.7 1.7
-4 -9 5 3.1 1.6
4 9 5 5.5 2.7
-4 -9 -5 1 1.9
4 -9 5 0.5 2.5
-4 9 5 -0.6 1.9
-4 9 5 -0.5 1.6
4 -9 5 2.6 2.8
-4 10 -5 269.07 13.3
-4 -10 5 262.37 14.4
-4 -10 5 245.08 10.2
4 10 5 257.57 14.2
-4 10 5 243.08 13.4
-4 10 5 259.37 16.5
-4 -10 -5 260.97 13.1
4 -10 5 253.77 14.8
-4 -11 5 1.7 1.9
-4 -11 5 -2 2.1
4 11 5 0.2 2.5
-4 11 -5 0.2 2.2
-4 11 5 6.5 4
-4 11 5 0.7 2.7
-4 -11 -5 -1.3 1.9
-4 -12 5 91.19 9.8
-4 -12 5 79.99 7.2
-4 12 -5 72.89 7.6
4 12 5 83.49 9.5
-4 12 5 92.39 8.9
-4 12 5 86.29 12.4
-4 -12 -5 84.59 9.1
-4 -13 5 143.49 10
4 13 5 148.39 12.8
-4 13 -5 153.08 10.9
-4 13 5 125.69 13.7
-4 -13 -5 159.98 12.6
-4 13 5 144.29 11.1
4 14 5 0.2 3.2
-4 -14 5 -3.9 3.3
-4 14 -5 -0.5 2.8
-4 14 5 1.3 3
-4 14 5 1.5 3.7
-4 15 -5 6.2 3.5
4 15 5 4.5 4.5
-4 15 5 2 3.3
-4 15 5 15.4 6.8
5 0 5 1.3 1.3
-5 0 5 3.9 1.3
-5 0 -5 1.8 1.3
5 1 5 49.1 3.4
5 -1 -5 55.49 4
-5 -1 5 45 3.2
-5 1 -5 46.5 4.2
5 -1 5 43.3 4
-5 -1 -5 42.3 3.6
-5 1 5 52.39 4.2
5 2 5 236.38 5.9
5 -2 -5 233.28 8.9
5 2 5 228.58 6.5
-5 2 -5 235.18 9.7
-5 -2 -5 237.68 7.7
-5 2 5 214.68 9.1
5 -2 5 236.58 9.4
5 -2 5 231.68 9.6
-5 3 -5 133.29 7.7
5 3 5 135.39 5.3
5 -3 -5 140.19 7.5
-5 3 5 147.69 8.2
-5 -3 -5 143.09 5.7
5 -3 5 140.79 8.2
5 -3 5 140.69 8
-5 4 -5 1540.35 29.5
5 4 5 1478.05 22.8
5 -4 -5 1542.15 30.1
-5 4 5 1465.45 30.2
5 -4 5 1491.05 30.1
-5 -4 -5 1463.35 21.3
5 -4 5 1557.04 30
5 -5 -5 153.78 9.2
5 5 5 146.39 6.9
-5 -5 5 151.38 7.4
-5 -5 -5 148.99 6.3
5 -5 5 143.49 9
-5 5 5 137.49 9.3
5 -5 5 140.49 9.4
-5 -5 -5 150.78 5.8
-5 -6 5 117.29 4.4
-5 -6 5 125.89 7.4
-5 6 -5 127.09 8.6
5 -6 -5 105.79 8.2
5 6 5 120.89 7
-5 -6 -5 117.69 6.2
-5 6 5 126.29 9.6
5 -6 5 119.09 8.6
-5 6 5 121.59 8.7
-5 -6 -5 114.59 5.3
5 -6 5 118.29 9.1
-5 -7 5 424.26 14.9
5 -7 -5 405.26 17.1
-5 7 -5 443.36 16.6
-5 -7 5 418.46 9.5
5 7 5 417.56 14.3
-5 -7 -5 422.26 13.1
-5 -7 -5 434.76 11.4
5 -7 5 428.66 17.2
5 -7 5 464.15 19
-5 7 5 440.86 17.3
-5 7 5 402.46 18
-5 -8 5 38.6 3.2
5 8 5 43.1 5.9
5 -8 -5 38.5 6.5
-5 8 -5 35.7 6.1
-5 -8 5 37.4 5.6
-5 8 5 34.1 6.1
-5 8 5 37.2 7.2
5 -8 5 31 6.4
5 -8 5 38.8 6.6
-5 -8 -5 42.5 6.4
-5 -9 5 10.1 2.2
-5 9 -5 9.5 3.6
-5 -9 5 12 3.8
5 9 5 11.6 3.6
-5 9 5 7.5 3.5
-5 -9 -5 5.6 2.3
5 -9 5 6 3.5
-5 9 5 14.7 4.8
-5 10 -5 65.19 7.4
-5 -10 5 62.09 7.1
5 10 5 68.09 7.5
5 -10 5 71.59 9.9
-5 -10 -5 83.99 7.4
-5 10 5 89.09 10.1
-5 10 5 75.69 8
-5 -11 5 91.29 9.3
-5 -11 5 82.19 6.5
5 11 5 91.49 8.8
-5 11 -5 79.89 8.1
-5 11 5 87.29 9
-5 -11 -5 88.79 7.9
-5 11 5 91.19 13
-5 12 -5 3.2 3.3
5 12 5 8.4 3.9
-5 -12 5 -1.2 2.1
-5 12 5 0.3 3.3
-5 12 5 7.4 4.2
-5 -12 -5 2.4 2.4
5 13 5 7.4 4.4
-5 -13 5 11.9 5.3
-5 -13 5 5 3.4
-5 13 -5 7.6 4
-5 -13 -5 9.8 3.6
-5 13 5 11.7 4.5
-5 13 5 6.3 4.8
5 14 5 89.69 11.9
-5 -14 5 84.59 8.3
-5 14 -5 95.99 9.4
-5 14 5 121.39 14.1
-5 14 5 96.19 10.1
-5 15 -5 -7.6 2.8
5 15 5 6.6 3.7
-5 15 5 -1.2 3.8
-6 0 -5 -0.6 0.9
-6 0 5 0.9 0.9
6 0 5 1.4 1.2
6 -1 -5 1063.99 19.4
-6 1 -5 1050.49 22
6 1 5 1088.19 17.6
-6 -1 5 1079.99 17.9
6 -1 5 1061.79 21.2
-6 -1 -5 1041.3 19.9
6 -1 5 1054.19 20.2
-6 1 5 1086.99 20.9
6 -2 -5 12.6 2.7
-6 2 -5 22.9 4.1
-6 -2 5 18.9 2.5
6 2 5 15.1 1.7
-6 -2 -5 16.5 2.7
6 -2 5 21.6 3.6
-6 2 5 13.8 2.9
6 -2 5 16.8 3.4
6 -3 -5 233.48 10
-6 3 -5 242.88 11
6 3 5 230.38 6.6
6 -3 5 244.08 10.9
-6 3 5 229.18 10.7
-6 -3 -5 218.98 7.5
6 -3 5 223.28 10.4
6 4 5 1314.67 20.2
6 -4 -5 1314.67 27.3
-6 -4 -5 1313.27 20.3
-6 4 5 1320.37 29.1
6 -4 5 1298.17 34.2
6 -4 5 1348.77 28.6
6 5 5 370.96 10.6
6 -5 -5 363.46 14.6
-6 5 -5 341.57 14.3
-6 -5 5 370.26 11.4
6 -5 5 368.16 14.9
-6 -5 -5 366.46 9.4
-6 5 5 346.37 15.3
-6 5 5 367.46 15.2
6 -5 5 348.67 15
6 -6 -5 80.19 7.3
-6 -6 5 81.29 5.8
-6 6 -5 87.49 7.6
6 6 5 80.99 5.5
-6 -6 5 78.69 3.4
-6 6 5 86.69 7.8
-6 -6 -5 80.99 4.9
6 -6 5 82.09 7.5
-6 6 5 79.49 7.9
6 -6 5 74.39 7.6
-6 -6 -5 79.39 4.4
-6 -7 5 1277.07 18
-6 -7 5 1331.37 27
-6 7 -5 1288.57 31
6 -7 -5 1338.97 32.9
6 7 5 1346.27 26
-6 7 5 1336.17 32.6
-6 -7 -5 1295.07 21.2
-6 -7 -5 1346.37 23.9
-6 7 5 1338.97 34.5
6 -7 5 1332.47 32.5
6 -7 5 1306.77 33.8
6 8 5 -1.4 1.6
-6 -8 5 2.7 1.2
6 -8 -5 5.3 3.4
-6 -8 5 3.6 2.2
-6 8 -5 4 2.8
6 -8 5 6.6 3.4
-6 -8 -5 1.3 1.2
-6 8 5 0.3 2.8
-6 -8 -5 5 2.2
-6 8 5 3.1 3.2
6 -9 -5 59.89 9.1
-6 9 -5 72.99 7.7
6 9 5 71.39 6.7
-6 -9 5 66.99 6.7
-6 -9 5 59.19 4
-6 9 5 56.89 9
-6 -9 -5 75.19 6.1
6 -9 5 66.99 10.2
-6 9 5 73.29 8.3
6 10 5 0.7 1.7
-6 -10 5 1.4 1.3
-6 -10 5 3 2.2
-6 10 -5 2.8 3
-6 10 5 -1.4 3
-6 10 5 2.6 2.7
-6 -10 -5 2.1 1.7
-6 -11 5 32.5 4.6
-6 -11 5 31.8 6.4
6 11 5 21.6 4.9
-6 11 -5 34.5 6.7
-6 11 5 33.1 8.1
-6 -11 -5 46.4 6.6
-6 11 5 31.4 6.9
-6 12 -5 125.19 10.8
-6 -12 5 112.89 10.7
-6 -12 5 118.29 7.7
6 12 5 122.89 10.5
-6 12 5 119.89 11
-6 -12 -5 121.19 9.7
-6 12 5 118.59 13.2
-6 13 -5 9.4 4
6 13 5 9.6 4.3
-6 -13 5 11.8 4.5
-6 -13 5 13.2 3.6
-6 13 5 6.4 3.8
-6 13 5 9.6 4.6
-6 -13 -5 16 4.4
6 14 5 236.28 15.8
-6 -14 5 225.08 18.5
-6 14 5 231.78 15.7
-6 14 5 206.18 18.5
-6 -15 5 114.99 10.8
-6 15 -5 74.79 10.1
-6 15 5 94.89 10.5
-6 15 5 77.09 14
-7 0 -5 -0.2 1.2
7 0 5 0.9 1.2
-7 0 5 -1 0.8
7 0 5 -0.2 0.8
-7 -1 5 44.7 3.4
-7 1 -5 50.89 5
7 -1 -5 46.5 3.9
-7 -1 -5 40.7 4
7 -1 5 45 4.1
7 -1 5 45.8 4.4
-7 1 5 47.2 4.3
7 -2 -5 262.37 9.9
7 2 5 252.47 6.3
-7 2 -5 268.07 11.6
-7 -2 5 258.27 7.6
-7 2 5 268.67 10.9
7 -2 5 260.27 10.6
-7 -2 -5 262.27 9.3
7 -2 5 257.57 13.1
7 3 5 1.4 0.8
7 -3 -5 -0.6 1.4
-7 -3 -5 1.8 1.3
-7 3 5 1.8 1.9
7 -3 5 0.8 1.4
7 -3 5 4.1 2.2
7 -4 -5 124.29 8.1
7 4 5 111.39 4.6
-7 4 -5 110.09 8.3
-7 4 5 115.89 8.5
7 -4 5 114.79 8.2
7 -4 5 104.69 7.9
-7 -4 -5 110.99 5.4
-7 -5 5 10.5 2.3
7 -5 -5 17 4
7 5 5 13.2 2.2
-7 5 -5 10.8 3.7
7 -5 5 12.9 3.8
-7 5 5 19.2 4.7
7 -5 5 10.8 3.4
-7 5 5 10 3.8
-7 -5 -5 16.2 2.4
-7 6 -5 20.7 4.8
7 6 5 26.5 3.5
-7 -6 5 24 3.6
7 -6 -5 27.5 5.4
-7 -6 -5 30.4 2.9
-7 6 5 26.1 5.5
7 -6 5 34 6.1
7 -6 5 33.5 6.2
-7 6 5 26.9 5.5
-7 -7 5 391.66 13.2
7 7 5 364.26 12
7 -7 -5 383.66 17.3
-7 -7 5 358.96 7.8
-7 7 -5 356.46 16.3
7 -7 5 409.86 17.9
7 -7 5 361.86 17.6
-7 7 5 383.86 17.7
-7 -7 -5 353.16 9.9
-7 7 5 385.06 18.3
-7 8 -5 17.4 4.8
-7 -8 5 14.4 3.4
7 -8 -5 21.4 5.6
7 8 5 24 4.2
-7 -8 5 22 2.1
7 -8 5 36.2 7.1
-7 -8 -5 22.7 3.2
-7 -8 -5 20.9 3.5
-7 8 5 20.6 5.4
7 -8 5 23.7 5.5
-7 8 5 23.4 5.8
7 -9 -5 54.39 8.6
-7 9 -5 55.19 8.3
-7 -9 5 53.19 3.5
7 9 5 45.5 6.1
-7 -9 5 43.7 6.1
-7 -9 -5 58.99 4.6
-7 -9 -5 51.09 5.7
-7 9 5 72.69 8.5
-7 9 5 48.3 8.8
7 -9 5 46.1 8.5
7 10 5 0.7 1.7
-7 -10 5 2 1.3
-7 -10 5 2.4 2.5
-7 10 -5 2.7 2.9
-7 10 5 0.1 3.1
-7 -10 -5 -2.3 1.7
-7 10 5 -0.3 2.5
-7 -11 5 143.69 10.8
7 11 5 161.38 10.8
-7 11 -5 144.19 11.9
-7 11 5 137.89 12
-7 -11 -5 166.08 10.1
-7 11 5 150.88 14.3
-7 -12 5 17.9 3.5
-7 12 -5 17.1 5.4
-7 -12 5 18.6 5
7 12 5 8.4 3.8
-7 12 5 19.3 6.8
-7 -12 -5 16.3 4.2
-7 12 5 15.4 5.7
7 13 5 5.2 3.5
-7 13 -5 1.6 3.2
-7 -13 5 5.1 3.6
-7 -13 -5 6.2 3.9
-7 13 5 2.8 4
-7 13 5 6.1 3.9
-7 -14 5 15.1 4.1
-7 14 -5 5.5 3.9
-7 14 5 10.2 6.4
-7 14 5 11.5 5.3
-7 -14 -5 6.5 3.8
8 0 5 -0.6 1
-8 0 5 0.2 1
-8 0 -5 -0.6 1.5
8 1 5 208.48 6.7
-8 1 -5 205.48 10.2
-8 -1 5 205.68 7.4
8 -1 5 212.38 8.8
-8 -1 -5 198.18 9.2
-8 1 5 202.38 9
8 2 5 39.9 2.3
-8 -2 5 41.2 3.1
8 2 5 39 2.4
8 -2 -5 41.8 4.2
8 -2 5 39.1 4.5
-8 2 5 44.7 4.8
-8 -2 -5 33.3 3.7
8 -2 5 47.7 4.8
-8 -3 5 -0.8 0.6
8 3 5 0.8 0.5
-8 3 -5 -0.2 1.6
8 -3 -5 0.4 1.8
8 -3 5 -0.6 1.5
8 -3 5 -0.7 1.2
-8 -3 -5 -2.2 0.9
-8 3 5 0.6 1.7
8 4 5 451.65 7.9
-8 -4 5 461.45 9.9
8 -4 -5 457.05 16
-8 4 -5 450.65 17.4
-8 -4 -5 450.25 12
8 -4 5 462.65 17.1
8 -4 5 462.15 16.9
-8 4 5 455.55 17.7
-8 -5 5 35.8 3.3
-8 5 -5 40.3 6.7
8 -5 -5 37.8 6
8 5 5 40.5 2.7
-8 -5 -5 39.6 3.4
-8 5 5 33.7 6.4
8 -5 5 33.8 6
-8 5 5 32.5 5.7
8 -5 5 35.6 6
8 6 5 42.3 3.3
-8 6 -5 49.6 7.5
-8 -6 5 39.7 3.7
8 -6 -5 42 6.9
8 -6 5 38.1 6.7
8 -6 5 47.9 7.4
-8 6 5 40.9 7.1
-8 -6 -5 41.9 3.5
-8 6 5 47.5 7.7
8 7 5 -0.4 1
8 -7 -5 -1.5 1.9
-8 -7 5 -1.2 1.1
-8 7 -5 1.3 2.2
-8 7 5 -0.2 2.1
-8 7 5 6.3 3.5
8 -7 5 -0.1 2.1
8 -7 5 -0.2 2.7
-8 -7 -5 0.6 1
8 -8 -5 6.8 3.1
-8 -8 5 -0.6 1.3
-8 -8 5 2.6 0.9
8 8 5 3.1 1.6
-8 8 -5 -3.2 1.6
-8 8 5 0.8 2.6
8 -8 5 0.2 3.1
-8 8 5 0.9 3
8 -8 5 -2.1 2.4
-8 -8 -5 0.6 1
-8 -9 5 79.39 4
-8 9 -5 101.19 9.8
-8 -9 5 99.69 11.5
8 9 5 90.99 6.6
-8 9 5 90.29 10.4
8 -9 5 82.99 13.4
-8 -9 -5 87.49 5.4
-8 9 5 98.59 10.1
-8 -10 5 208.78 7.2
8 10 5 213.88 10.9
-8 10 -5 215.68 14.4
-8 -10 5 214.48 11.7
-8 -10 -5 223.08 10.1
-8 10 5 195.68 14.4
-8 10 5 215.38 16.3
8 11 5 102.39 8.3
-8 -11 5 99.29 5.8
-8 -11 5 111.79 9.1
-8 11 -5 102.69 10.4
-8 11 5 111.39 11.6
-8 11 5 100.39 16.5
-8 -11 -5 120.99 7.9
-8 12 -5 -0.8 2.9
-8 -12 5 -1.2 2.6
-8 12 5 -0.4 3
-8 12 5 4.7 4.5
-8 13 -5 -0.2 3.1
-8 -13 5 -0.3 2.5
-8 13 5 -3.1 4.2
-8 -13 -5 1.6 2.9
-8 13 5 1.2 3.7
-8 -14 5 253.67 15.7
-8 -14 5 268.67 12.5
-8 14 -5 255.27 17.1
-8 -14 -5 245.08 13.7
-8 14 5 290.67 22.3
9 0 5 -0.4 0.8
-9 0 -5 -0.5 1.1
-9 0 5 0.8 1
-9 1 -5 11.9 4.1
-9 -1 5 12.8 2.3
9 1 5 10.4 1.8
-9 1 5 10.5 2.8
-9 -1 -5 7.5 2.6
9 -1 5 14.7 2.9
9 2 5 366.96 6
9 2 5 380.96 6.5
9 -2 -5 377.26 12.5
-9 -2 5 368.46 9.2
-9 2 -5 369.46 15.2
-9 2 5 376.86 13.8
9 -2 5 396.66 13.7
-9 -2 -5 393.66 13.1
9 -3 -5 120.29 7.8
-9 -3 5 128.79 4.7
-9 3 -5 115.49 8.9
9 -3 5 135.49 10.6
-9 3 5 121.99 8.5
-9 -3 -5 137.39 7.3
-9 -4 5 583.54 11
-9 -4 5 573.94 10.4
9 -4 -5 580.34 18.4
-9 4 -5 575.74 20.6
9 -4 5 593.24 19.7
9 -4 5 563.04 19.4
-9 4 5 614.44 20.4
-9 4 5 573.94 20.9
-9 -4 -5 591.54 14.8
-9 5 -5 120.19 9.9
-9 -5 5 104.99 4.2
9 -5 -5 116.59 9
-9 -5 5 106.09 4.6
-9 -5 -5 112.89 6
9 -5 5 100.99 8.8
-9 5 5 109.69 9.2
-9 5 5 102.79 9.3
9 -5 5 96.69 8.7
-9 6 -5 51.89 8.1
-9 -6 5 39.8 3.3
9 -6 -5 43.5 7
-9 -6 -5 36.5 3.5
-9 6 5 40 7.2
9 -6 5 41.3 7.2
9 -6 5 38.9 7.8
-9 6 5 24.3 5.7
9 -7 -5 181.78 12.5
-9 7 -5 177.48 12.6
-9 -7 5 157.18 7.1
-9 7 5 182.98 13.2
9 -7 5 169.28 12.6
-9 7 5 165.78 12.6
9 -7 5 167.58 12.3
-9 -7 -5 175.08 7
-9 -8 5 4 1.1
-9 8 -5 2.6 3.1
9 -8 -5 4.9 3.2
-9 -8 5 1.7 1.7
-9 8 5 6.7 4.2
-9 -8 -5 5.6 1.6
-9 8 5 1.6 3.1
9 -8 5 14 4.9
-9 -9 5 4 2.2
-9 9 -5 1.7 3.2
-9 -9 5 3.9 1.2
-9 -9 -5 3.7 1.7
-9 9 5 0.5 3.3
-9 9 5 -0.4 3.2
-9 10 -5 52.79 9.1
-9 -10 5 51.59 3.4
-9 -10 5 48 5.5
-9 -10 -5 59.09 4.7
-9 10 5 59.99 10.5
-9 10 5 71.29 10.7
-9 11 -5 71.79 10.8
-9 -11 5 77.09 4.6
-9 -11 5 67.59 7
-9 11 5 52.99 9.5
-9 11 5 65.09 11.4
-9 -12 5 35.1 6.2
-9 -12 5 47.3 5.1
-9 12 -5 37.5 8.4
-9 12 5 35.3 8
-9 -12 -5 38 5.2
-9 12 5 49 10.5
-9 -13 5 42 5.2
-9 -13 5 58.89 8.1
-9 13 -5 62.39 10
-9 -13 -5 38.3 5.6
-9 13 5 59.99 11.9
-9 13 5 51.29 9.6
-10 0 -5 -0.6 1.3
10 0 5 0.3 0.9
-10 0 5 1 1.3
10 1 5 2.9 1
-10 -1 5 1.2 1.2
-10 1 -5 1.8 1.9
10 -1 5 3.2 2
-10 -1 -5 0.4 2.1
-10 1 5 3.1 1.9
-10 2 -5 364.46 15.7
10 -2 -5 339.37 12.1
-10 -2 5 350.96 8.5
-10 2 5 339.17 13.4
10 -2 5 359.36 13.2
-10 -2 -5 363.26 13.4
10 -3 -5 59.29 5.6
-10 3 -5 49.4 7.2
-10 -3 5 52.89 2.5
-10 -3 -5 53.29 5.1
-10 3 5 58.99 6.1
10 -3 5 61.29 6.1
-10 3 5 43.8 7.3
-10 4 -5 211.08 12.9
10 -4 -5 190.08 10.6
-10 4 5 183.08 12.3
-10 4 5 190.48 11.6
10 -4 5 192.38 11.4
-10 -4 -5 186.48 8.6
10 -5 -5 578.44 19.9
-10 5 -5 541.05 21.6
10 -5 5 577.44 21.2
-10 5 5 540.75 21.9
-10 5 5 573.94 21.4
-10 -5 -5 576.74 14.8
-10 6 -5 657.73 24.6
-10 -6 5 671.73 9.6
10 -6 -5 644.14 22.6
-10 -6 5 669.83 10
-10 6 5 695.43 25
-10 -6 -5 694.83 15.7
-10 6 5 677.83 25.8
10 -6 5 661.93 24.1
-10 7 -5 4.8 3.4
10 -7 -5 6.1 3.9
-10 -7 5 10 1.8
-10 7 5 8.6 4.1
-10 -7 -5 9.2 2.3
-10 7 5 8 4.5
-10 8 -5 211.18 14.8
-10 -8 5 210.08 7.5
10 -8 5 228.88 15.8
-10 8 5 216.38 15.4
-10 8 5 180.48 14.1
-10 -8 -5 213.98 8.1
-10 9 -5 14.1 5.6
-10 -9 5 8.5 1.5
-10 -9 5 4.6 1.9
-10 9 5 3.3 3.9
-10 9 5 4.3 4.5
-10 -9 -5 3.1 1.7
-10 10 -5 51.09 9.3
-10 -10 5 40.4 4.6
-10 -10 5 48.8 3
-10 10 5 57.89 16.9
-10 -10 -5 54.29 4.5
-10 10 5 58.69 10.1
-10 11 -5 2.3 4
-10 -11 5 6.1 2.2
-10 -11 5 12.5 1.9
-10 11 5 8.7 4.9
-10 11 5 14.5 6.5
-10 12 -5 24.8 7
-10 -12 5 41.7 3.6
-10 -12 5 33.8 5.3
-10 12 5 34.9 8.5
-10 12 5 53.39 10.8
-10 13 -5 -1 3.8
-10 -13 5 2.5 3.3
-10 -13 5 -3.6 2.1
-10 13 5 5.8 5.2
-10 13 5 3.4 4.4
-11 0 -5 1.5 2.1
11 0 5 0 1.1
-11 0 5 -0.7 1.1
-11 1 -5 3.2 2.7
11 1 5 4.4 0.9
-11 -1 5 6 1.5
-11 1 5 5.3 2.2
-11 -1 -5 3.9 2.6
11 -1 5 7 2.3
-11 2 -5 257.47 13.8
-11 -2 5 253.57 5.9
11 -2 5 260.97 11.4
-11 2 5 250.07 11.6
-11 2 5 240.18 13.6
-11 -2 -5 239.98 11.9
11 -3 -5 113.89 7.8
-11 3 -5 114.89 9.7
-11 3 5 95.89 9.1
11 -3 5 92.79 7.7
-11 3 5 103.79 8.7
-11 -3 -5 121.29 7.8
-11 4 -5 23.3 5.6
11 -4 -5 36.6 5.8
-11 -4 -5 30.8 4.5
-11 4 5 27.2 6.4
11 -4 5 26.6 5.4
-11 4 5 31.6 5.9
-11 5 -5 -2.1 3
11 -5 -5 -1.8 1.9
-11 -5 -5 0.9 1.5
11 -5 5 2.6 3
-11 5 5 5.2 3.2
-11 5 5 2.7 3
11 -6 -5 32 6.5
-11 6 -5 33.7 6.9
-11 6 5 47.7 7.9
11 -6 5 55.89 8.7
-11 -6 -5 44 4.2
-11 6 5 45.8 8.4
11 -7 -5 -4.3 2.7
-11 7 -5 -0.6 2.1
-11 -7 -5 3.2 1.7
-11 7 5 4 3.5
-11 7 5 -0.2 3
11 -7 5 3.9 3.6
-11 8 5 21.8 6.7
-11 -8 -5 20.9 3.3
-11 -9 5 14 1.6
-11 9 -5 21.9 6.4
-11 -9 5 16.7 2
-11 9 5 25 7.4
-11 9 5 14.7 5.4
-11 -9 -5 18.2 3.1
-11 -10 5 3.5 1.5
-11 10 -5 -0.1 3
-11 10 5 0.1 3.8
-11 10 5 6.1 5.5
-11 -10 -5 2 2
-11 -11 5 22.9 3.3
-11 -11 5 18 2.3
-11 11 -5 18.8 6.5
-11 11 5 27.8 8.3
-11 11 5 29.6 8.4
-11 -12 5 12.1 2.3
-11 -12 5 12.8 3.2
-11 12 -5 25.7 7
-11 12 5 3.2 4.7
-11 12 5 20.3 7.1
-12 0 -5 -2.1 1.5
12 0 5 0 1
-12 0 5 0.8 1.4
-12 -1 5 71.79 3.9
-12 1 -5 84.59 8.4
-12 -1 -5 67.29 7.1
-12 1 5 65.59 8.7
-12 1 5 77.09 6.1
12 -1 5 79.89 5.5
-12 2 -5 43.3 7.5
-12 2 5 48 5.3
-12 -2 -5 48 6.6
-12 2 5 56.39 8.5
12 -2 5 47.3 5.1
-12 3 -5 -1.7 2.1
12 -3 -5 1.9 1.9
-12 3 5 -2.3 2.1
12 -3 5 2.5 2.4
-12 -3 -5 4.3 2.5
-12 3 5 -4 1.7
12 -4 -5 4.5 2.6
-12 4 -5 1.3 2.7
12 -4 5 0.7 2.4
-12 4 5 -0.5 2.1
-12 -4 -5 0.5 1.8
-12 4 5 3.2 3.2
12 -5 -5 110.99 9.2
-12 5 -5 134.09 11.6
-12 5 5 107.39 9.9
-12 5 5 98.59 10.6
12 -5 5 122.09 10
-12 -5 -5 123.49 7.7
12 -6 -5 2.3 3.2
-12 6 -5 3.7 3.2
-12 -6 -5 1.2 1.4
12 -6 5 6.6 4.1
-12 6 5 -1.2 2.2
-12 6 5 -2.1 3.1
-12 7 -5 51.59 11.2
12 -7 -5 47.2 7.9
12 -7 5 28.9 6.4
-12 7 5 46.1 8.6
-12 -7 -5 37.5 4.7
-12 8 -5 40 8.4
-12 8 5 32.3 8.4
-12 -8 -5 33 3.8
-12 8 5 27.8 7.3
-12 9 -5 0.9 3.8
-12 9 5 3.2 5.2
-12 9 5 -3.6 3.4
-12 -9 -5 2.9 1.7
-12 -10 5 185.68 5.4
-12 10 5 222.48 17.5
-12 10 5 181.58 16.4
-12 -10 -5 204.68 8.5
-12 -11 5 23.9 2
-12 11 -5 19.3 6.5
-12 11 5 19 6.8
-12 -11 -5 16.5 3.2
-12 11 5 19.3 6.8
-13 0 5 -3.3 2.4
13 0 5 0.3 0.7
-13 0 -5 -2.1 2.2
-13 0 5 1.1 1.1
-13 1 -5 -0.3 2.6
-13 -1 5 9.2 3.5
-13 1 5 5.7 3.1
-13 -1 -5 3.2 2.9
-13 1 5 8.8 2.5
13 -1 5 7.1 2.2
-13 2 -5 291.37 16.4
-13 2 5 280.17 16.2
-13 -2 -5 289.17 13.9
13 -2 5 314.17 12.1
-13 2 5 317.47 13.2
-13 3 -5 49.5 8.4
13 -3 -5 51.69 5.6
-13 3 5 40.4 6.3
-13 -3 -5 53.09 5.9
-13 3 5 48 8.4
13 -3 5 56.89 6.2
13 -4 -5 26.6 5.1
-13 4 -5 18.6 5.4
-13 -4 -5 23.1 4.4
-13 4 5 22.2 5.4
13 -4 5 26.2 5.6
-13 4 5 29 6.9
13 -5 -5 12.1 4.1
-13 5 -5 7.7 4.3
-13 -5 -5 10.1 4.2
13 -5 5 6 3.5
-13 5 5 3 3.3
-13 5 5 3.7 3.4
13 -6 -5 49.6 7.6
-13 6 -5 60.09 9.9
-13 -6 -5 55.19 5.4
13 -6 5 50.69 8.1
-13 6 5 58.99 10
-13 6 5 58.29 9
-13 7 -5 -0.4 3.4
-13 -7 -5 3.7 1.8
-13 7 5 1 3.8
-13 7 5 -5.6 2.5
-13 8 -5 -2.8 3.4
-13 8 5 -6.4 3.6
-13 8 5 -1.1 3.8
-13 -8 -5 -0.4 1.9
-13 9 -5 8.3 4.9
-13 -9 -5 1.5 1.6
-13 9 5 2 4.4
-13 9 5 -7.8 3.5
-13 -10 5 11.3 1.8
-13 10 -5 6.7 4.8
-13 10 5 13.7 6.1
-13 10 5 8.3 6.2
-14 0 5 1.2 3
-14 0 -5 0.4 2.3
-14 -1 5 114.69 9.7
-14 1 -5 127.29 11.2
-14 1 5 135.49 7.4
-14 1 5 141.19 11.4
-14 -1 -5 118.39 9.8
14 -1 5 122.19 5.6
-14 -2 5 14.4 4.6
-14 2 -5 11.9 4.5
-14 2 5 15.7 5.7
14 -2 5 15.5 3.3
-14 -2 -5 17.5 4.5
-14 2 5 18.9 3.9
-14 -3 5 79.29 7.7
-14 3 -5 70.29 10.4
14 -3 5 66.49 6.9
-14 3 5 77.29 7.2
-14 3 5 75.89 10.9
-14 -3 -5 71.99 7.3
14 -4 -5 9.1 3.7
14 -4 5 16.2 4.7
-14 -4 -5 18.1 4.5
-14 4 5 16.5 4.1
-14 4 5 6.9 4.8
14 -5 -5 3.6 3.1
-14 5 -5 3.6 3.2
-14 5 5 0.6 3.8
14 -5 5 6 3.4
-14 -5 -5 4.7 2.3
-14 5 5 -4.4 2.8
-14 6 -5 22.7 7
14 -6 -5 18.2 5.4
14 -6 5 5.5 4.4
-14 6 5 19.3 5.9
-14 6 5 14 5.7
-14 -6 -5 18.2 4.2
-14 7 -5 115.69 12.6
-14 7 5 126.99 13.5
-14 7 5 108.49 11.8
-14 -7 -5 99.79 8.2
-14 8 -5 2.5 6.1
-14 8 5 -0.7 4.1
-14 -8 -5 -0.6 1.9
-14 -9 5 29.2 3.6
-14 9 -5 27.5 8.4
-14 -9 -5 31.5 4.3
-14 9 5 30.8 8.5
-14 9 5 25.6 7.4
-15 0 -5 0.9 2.6
-15 0 5 -1 3
-15 -1 5 9.3 4.3
-15 1 -5 9.6 4.3
-15 1 5 10 4.6
-15 -1 -5 11.1 4.3
-15 -2 5 8.5 4.4
-15 2 -5 18.9 5.7
-15 -2 -5 15.3 4.7
15 -2 5 14.3 2.9
-15 2 5 24.6 6.6
-15 3 -5 69.79 10.6
-15 -3 5 66.29 7.5
-15 3 5 58.79 6.6
-15 -3 -5 63.69 7.5
15 -3 5 75.69 6.8
-15 4 -5 20.8 6.5
-15 -4 5 31.6 5.7
15 -4 5 27.7 5.6
-15 -4 -5 25.5 5.2
-15 4 5 17.2 4.5
-15 4 5 17.6 5.8
-15 5 -5 3.3 3.7
-15 -5 5 -0.8 2.7
15 -5 -5 5 3.2
-15 5 5 -7 2.8
-15 -5 -5 3.6 2.5
-15 5 5 2.1 2.9
15 -5 5 -8.4 3.3
-15 -6 5 85.89 8.4
-15 6 -5 70.59 11.4
-15 -6 -5 78.49 7.3
-15 6 5 86.09 13.1
-15 6 5 58.59 9.4
15 -6 5 61.09 9.5
-15 -7 5 2.1 2.3
-15 7 -5 -2.3 3
-15 -7 -5 -0.6 2.3
-15 7 5 -2.2 3.5
-15 7 5 2.8 4.8
-16 0 5 -3.4 3
-16 0 -5 -1.9 3
-16 -1 5 13 5.2
-16 1 -5 6.9 4.8
-16 1 5 7.2 7
-16 -1 -5 19.1 5.7
-16 2 -5 82.39 11.5
-16 -2 5 79.69 9.3
-16 2 5 70.89 11
16 -2 5 71.29 4.4
-16 -2 -5 61.09 8.7
-16 -3 5 22 5.4
-16 3 -5 13.7 5.3
16 -3 5 26.2 4.4
-16 -3 -5 17.3 5.1
-16 3 5 5 5.4
-16 -4 5 15.5 4.5
-16 4 -5 4.3 4.7
16 -4 5 14.4 4.6
-16 -4 -5 9.7 4.3
-16 4 5 17.1 6.6
-16 -5 5 24.4 4.8
-16 5 -5 8 4.9
-16 -5 -5 23 5.2
16 -5 5 18.3 8.6
-16 5 5 10.1 5.9
0 0 -6 1031 17.3
0 0 6 1051.79 17.3
0 1 6 0.3 0.8
0 -1 6 0.6 1
0 -1 -6 0.3 0.9
0 1 -6 -0.1 0.8
0 -2 6 477.55 11.2
0 2 -6 530.55 11.5
0 2 6 500.05 11.6
0 -3 -6 -0.3 0.7
0 3 6 -1.3 0.6
0 3 6 0.8 0.9
0 3 -6 -0.3 0.6
0 -3 6 -0.6 0.7
0 -4 6 277.17 9.1
0 4 6 279.77 10.7
0 4 -6 281.87 8.6
0 4 6 269.07 9
0 -4 -6 284.37 10.3
0 -5 6 -0.1 1.4
0 5 -6 -0.6 0.7
0 -5 6 0.5 1.2
0 5 6 0.7 1.3
0 5 6 -0.2 0.8
0 -5 -6 0.4 1.1
0 6 -6 135.69 6.3
0 6 6 129.69 8.6
0 -6 6 144.39 7.4
0 -6 6 129.89 8.8
0 -6 -6 129.39 8
0 6 6 122.39 6.7
0 6 6 144.79 7
0 -7 6 -2.1 1.5
0 7 6 -1.5 1
0 7 -6 -1.8 0.8
0 -7 6 -1.7 1
0 7 6 -0.5 1.6
0 7 6 1.6 1.3
0 -7 -6 0.1 1.5
0 8 6 446.86 18.3
0 8 6 469.35 13.8
0 -8 -6 448.76 17.2
0 -8 6 445.86 18.3
0 8 6 475.95 14.3
0 8 -6 465.35 12.5
0 -8 6 464.05 15.3
0 9 6 2.1 1.7
0 9 -6 0.4 1.3
0 -9 6 1.6 2.3
0 9 6 -1.5 1.1
0 9 6 1.2 2.5
0 -9 -6 2.2 2.1
0 -9 6 0.8 1.7
0 10 6 1780.22 30.8
0 10 6 1752.82 30.2
0 -10 6 1695.93 41.5
0 -10 -6 1728.43 39.4
0 -10 6 1669.93 35.1
0 10 -6 1696.53 27.3
0 10 6 1772.32 42.3
0 11 6 -2 2
0 -11 6 -2.4 2.5
0 -11 -6 2 2.4
0 11 -6 0.3 1.3
0 -11 6 4.8 2.7
0 11 6 0 1.5
0 11 6 -2.7 1.5
0 12 6 70.79 5.6
0 -12 6 70.59 8
0 12 6 66.99 5.5
0 12 6 80.49 11.7
0 12 -6 68.49 4.5
0 13 6 -1 2
0 13 6 -2.3 2.8
0 13 -6 -0.2 1.1
0 13 6 1.4 1.7
0 14 6 148.29 6.8
0 14 6 147.19 6.8
0 14 6 124.69 14
0 15 6 -6.3 3.4
0 16 6 45.5 10.1
-1 0 6 541.15 11.9
1 0 6 562.24 12
-1 0 -6 569.94 12.2
1 0 -6 571.74 12.3
-1 1 -6 80.89 4.5
1 1 6 85.09 4.4
-1 -1 6 90.79 4.5
-1 1 6 80.79 4.6
-1 -1 -6 95.19 4.8
-1 1 6 88.29 4.8
1 -1 6 85.69 4.6
1 1 -6 87.09 4.4
1 2 6 14.1 2.3
1 2 6 21.1 2.8
-1 -2 6 15.9 2.3
-1 2 -6 15.3 2.5
1 -2 -6 15.8 2.5
-1 2 6 15.1 2.5
1 2 -6 18.8 2
-1 2 6 15.2 2.5
1 -2 6 17.8 2.8
-1 -2 -6 18 2.8
1 -3 -6 1050.29 20.1
-1 3 -6 1037.2 18.5
-1 -3 6 1030.3 17.4
1 3 6 1018.9 17.3
1 3 6 1018.6 19.4
-1 -3 -6 1040.1 18.5
1 -3 6 1048.7 19.2
-1 -3 -6 1033.2 18.9
-1 3 6 1012.9 19.3
-1 3 6 995.3 20.4
1 3 -6 1000.8 16.3
-1 -4 6 313.27 9.1
1 4 6 286.97 8.6
1 -4 -6 298.57 10.8
1 4 6 300.37 10.7
-1 4 -6 288.47 9.4
-1 -4 -6 293.57 10.1
1 4 -6 290.47 8
-1 4 6 284.07 11.2
1 -4 6 292.57 10
-1 -4 -6 296.97 9.8
1 5 6 353.06 9.9
1 -5 -6 395.06 13.6
-1 5 -6 362.46 11
-1 -5 6 376.56 10.7
1 5 6 371.86 13.1
-1 5 6 373.76 13.8
1 -5 6 376.46 14.1
1 -5 6 360.66 11.9
-1 -5 -6 370.96 12.4
1 5 -6 370.06 9.2
-1 -6 6 0.7 1.2
1 -6 -6 0.4 1.4
1 6 6 3.5 1.7
1 6 6 1.5 1.2
-1 -6 6 0 1.4
1 6 6 3.2 1.7
-1 6 -6 0.1 1
-1 6 6 2.6 2
-1 -6 -6 3.4 1.7
-1 6 6 0.6 1.3
1 -6 6 2 1.8
1 -6 6 0.4 1.2
1 6 -6 0 0.7
1 7 6 1176.38 28.5
1 7 6 1147.99 21.2
-1 7 -6 1201.88 22.9
1 7 6 1200.08 20.8
1 -7 -6 1157.28 27.7
-1 -7 6 1156.18 28.2
-1 -7 6 1157.38 26.4
-1 7 6 1207.58 25
1 -7 6 1142.89 29.1
1 7 -6 1148.99 18.4
-1 7 6 1182.38 29.6
-1 -7 -6 1201.08 26.8
1 -7 6 1220.78 25.7
-1 8 -6 21.5 3.6
1 8 6 17 3
1 8 6 23.8 3.4
1 -8 -6 25.8 5.3
-1 -8 6 18.7 3.8
-1 -8 6 24.9 5.1
1 8 6 24.2 5.2
1 8 -6 20.7 2.3
1 -8 6 27.8 4.9
-1 -8 -6 22.4 4.5
-1 8 6 19.7 3.9
-1 8 6 21.6 4.3
1 -8 6 20.2 4.9
-1 8 6 13.4 4.1
1 -9 -6 459.95 18.8
1 9 6 455.75 19.1
1 9 6 468.75 12.3
-1 -9 6 441.76 15.2
-1 9 -6 431.86 13.7
-1 -9 6 463.25 19.4
1 9 6 456.95 12.6
-1 9 6 454.85 15.9
1 9 -6 450.35 10.1
1 -9 6 442.06 16.6
1 -9 6 503.65 20.8
-1 9 6 442.66 15.1
-1 -9 -6 478.25 18.3
-1 9 6 422.36 19.2
1 10 6 36.1 3.7
-1 -10 6 38.1 5.9
1 10 6 27.3 6.2
-1 10 -6 36.8 4.3
1 10 6 36.3 3.6
1 -10 -6 35 6.6
-1 -10 6 35.8 7
1 -10 6 36.7 7.3
-1 10 6 35.1 5.3
-1 10 6 30.4 5.1
1 -10 6 38.6 6.7
-1 10 6 36 7.1
1 10 -6 33.7 2.6
-1 -10 -6 24.3 5.3
-1 -11 6 1.5 2.5
1 11 6 3.5 1.6
1 11 6 4.1 1.8
-1 11 -6 3.9 2
1 11 6 2.8 3
-1 -11 6 -2.7 2.6
1 -11 6 9.4 4.9
-1 11 6 2 3
-1 11 6 1.7 2.1
-1 11 6 3.9 2.2
1 11 -6 4.8 0.9
-1 -11 -6 2.9 2.4
1 -11 6 5.5 3.1
1 12 6 6 3.9
-1 -12 6 -4.4 1.8
1 12 6 -2.2 0.9
-1 -12 6 7.5 3.6
1 12 6 0.5 1.1
-1 12 6 6.5 4.3
-1 12 6 0.6 1.9
-1 12 6 0.6 2
1 -12 6 2.2 2.5
-1 -12 -6 -6.2 2
-1 13 -6 15.3 5
-1 -13 6 10.9 4.6
1 13 6 9.5 4.7
1 13 6 11.5 1
-1 13 6 20.5 4.1
-1 13 6 10.8 3.6
-1 13 6 14.4 5.4
-1 14 -6 62.09 5
1 14 6 60.09 11
-1 14 6 72.29 12.2
-1 14 6 57.59 5.6
-1 14 6 57.19 6
1 15 6 6.5 5.2
-1 15 -6 -0.5 1.5
-1 15 6 3.7 4.5
-1 15 6 0.4 2.1
1 16 6 18.5 6.6
-1 16 6 19.3 3.2
-1 16 6 22.7 3.5
-1 16 6 21.8 7.8
-2 0 -6 44 3.4
2 0 6 46.4 3.4
-2 0 6 44 3.4
2 1 6 2621.94 32.1
-2 1 -6 2633.94 33.8
-2 -1 6 2544.65 32
-2 -1 -6 2615.34 32.7
-2 1 6 2575.34 33.9
2 -1 6 2642.54 33.8
2 2 6 925.51 16.9
-2 2 -6 971.7 18.2
2 -2 -6 982.8 18.6
-2 -2 6 974.5 16.2
2 2 6 972.4 16.1
2 -2 6 956.5 18.3
-2 -2 -6 988.8 17.1
-2 2 6 971.1 19
2 -3 -6 2014.5 31
2 3 6 2016.1 26.1
2 3 6 2055.49 29.3
-2 -3 6 2047.7 26.6
-2 3 -6 2090.79 30.3
-2 -3 -6 1961.2 27.7
2 -3 6 2017.5 30.5
-2 3 6 2066.49 32.5
2 4 6 170.98 7.8
2 4 6 167.28 5.9
2 -4 -6 162.38 8.2
-2 -4 6 148.79 5.9
-2 4 -6 179.18 7.9
2 -4 6 153.38 7.7
-2 -4 -6 170.98 7.4
-2 -4 -6 165.88 6.9
-2 -5 6 52.39 3.8
-2 5 -6 58.49 4.8
2 5 6 46.5 4.6
2 5 6 46.1 3.2
2 -5 6 71.69 6.7
-2 -5 -6 41.7 3.9
-2 5 6 55.19 5.7
-2 -5 -6 50.89 4.4
-2 -6 6 93.49 7.1
-2 6 -6 106.79 6.6
2 6 6 105.99 4.7
2 -6 -6 106.59 7.7
2 6 6 106.59 5
-2 -6 6 104.19 5.6
2 6 6 99.59 7.2
2 -6 6 110.69 8.5
-2 6 6 96.69 8.3
2 -6 6 103.99 7.1
-2 -6 -6 100.19 6.6
-2 6 6 108.99 7.3
-2 -7 6 48.9 4.3
-2 7 -6 45.9 4.6
2 7 6 43.1 6.2
2 -7 -6 49.2 5.7
2 7 6 52.19 3.3
2 7 6 47.3 3.4
-2 -7 6 49.8 6.7
-2 7 6 42.5 4.8
2 -7 6 45 5.2
2 -7 6 48 6.8
-2 -7 -6 43 4.9
-2 7 6 42.8 6.7
2 8 6 385.16 16.2
2 8 6 371.26 8.8
-2 -8 6 352.26 12
2 8 6 365.56 9.1
-2 -8 6 362.06 15.9
-2 8 -6 384.66 13.5
2 -8 -6 377.76 16.5
2 -8 6 374.36 17.4
2 -8 6 375.46 15
-2 -8 -6 363.26 14.6
-2 8 6 344.17 16.8
-2 8 6 385.46 15
2 9 6 27.4 5.8
-2 -9 6 37.9 5.2
2 9 6 34.8 2.6
2 9 6 35.2 2.6
-2 -9 6 26 5.6
2 -9 -6 31.3 6.3
-2 9 -6 26.1 4.5
-2 9 6 24.4 6
-2 9 6 27.5 4.9
-2 -9 -6 35.2 5.9
2 -9 6 27.4 6.1
2 -9 6 26.1 5.1
-2 -10 6 5.9 2.9
-2 -10 6 3.7 3.1
2 -10 -6 3.9 3.2
-2 10 -6 15.6 3.7
2 10 6 8.8 3.7
2 10 6 9.3 1.2
2 10 6 11.9 1.4
-2 -10 -6 12 4
-2 10 6 10.4 3.4
-2 10 6 17.3 5.3
2 -10 6 2.6 2.5
2 -10 6 9.1 4.3
2 11 6 5.9 3.6
-2 -11 6 14.3 3.4
-2 11 -6 9.6 3.1
2 -11 -6 16.5 5
-2 11 6 8.1 4.2
-2 11 6 10.4 3.6
-2 11 6 11.8 3.5
-2 -11 -6 6.4 3.3
2 -11 6 9.3 4.2
2 -11 6 9.4 3.8
-2 -12 6 340.97 15.6
-2 -12 6 311.87 18.4
-2 12 -6 364.06 14.2
2 12 6 342.57 19.1
-2 -12 -6 336.07 17.8
-2 12 6 376.96 21.6
-2 12 6 351.06 15.2
-2 12 6 326.47 14.5
2 13 6 9.6 5.1
-2 -13 6 -1.3 3.3
-2 13 -6 4.9 2.6
-2 13 6 3.5 2.7
-2 13 6 1.3 3
-2 14 -6 14.6 3.6
2 14 6 32.1 12.4
-2 14 6 22.7 4.8
-2 14 6 32.1 8.3
-2 14 6 20.6 4.6
2 15 6 17.2 5.9
-2 15 -6 7.6 2.9
-2 15 6 7.6 4
-2 15 6 20.1 4.4
-2 15 6 13.5 6.1
2 16 6 3.4 5.6
-2 16 6 4.8 4.7
-2 16 6 -4.6 7.6
-2 16 6 -3 2.8
-3 0 -6 221.88 7.8
3 0 6 222.98 7.7
-3 0 6 213.38 7.5
-3 1 -6 889.11 17.7
3 1 6 949.6 16.3
3 -1 6 896.81 17.6
-3 -1 -6 949.51 16.9
-3 1 6 921.61 17.8
3 2 6 1816.52 25.4
-3 -2 6 1814.02 24.9
3 2 6 1874.31 24.4
3 -2 -6 1887.21 28.4
-3 2 -6 1801.12 28.2
3 -2 6 1827.32 28.6
-3 -2 -6 1884.91 25.9
-3 2 6 1808.12 28.9
3 3 6 210.98 6.3
3 3 6 212.28 7.7
3 -3 -6 200.68 8.6
-3 3 -6 220.58 8.9
-3 -3 6 210.68 6.7
3 -3 6 221.38 9.2
-3 -3 -6 208.58 7.3
3 -4 -6 67.49 5.5
3 4 6 75.89 3.5
-3 -4 6 74.19 4
3 4 6 71.09 4.9
-3 4 -6 70.69 5.4
-3 -4 -6 70.39 4.6
3 -4 6 68.29 6
3 -4 6 82.89 7.1
-3 -4 -6 67.69 4.3
-3 4 6 62.49 5.7
-3 5 -6 37.9 4.2
3 5 6 34.1 3.8
-3 -5 6 33.5 2.9
3 5 6 34.7 2.2
3 -5 -6 28.3 4.4
3 5 6 32.5 2.3
3 -5 6 38.1 5.8
-3 -5 -6 38.2 3.8
-3 -5 -6 34.5 3.3
-3 5 6 28 4.8
3 -5 6 36.8 5.3
-3 6 -6 555.94 16.4
3 -6 -6 537.05 17.9
3 6 6 570.74 8.8
-3 -6 6 555.04 17
-3 -6 6 566.04 12.7
3 6 6 550.14 16.6
3 6 6 569.64 8.5
3 -6 6 561.84 17.6
-3 6 6 561.94 17.5
-3 6 6 589.04 20
-3 -6 -6 544.45 15.3
-3 -6 -6 550.14 14.1
3 -6 6 531.25 18.9
3 -7 -6 27.6 5.1
3 7 6 27.2 4.7
-3 -7 6 28.9 5.1
-3 -7 6 33.1 3.3
-3 7 6 34 5.4
-3 7 6 34.2 6.4
3 -7 6 31.2 5.2
3 -7 6 37.5 6.5
-3 -7 -6 33.7 5
-3 8 -6 81.39 6.9
-3 -8 6 87.49 5.7
-3 -8 6 77.69 7.4
3 8 6 80.29 7.8
3 -8 -6 78.69 7.7
-3 8 6 71.29 8
-3 -8 -6 77.89 6.7
3 -8 6 90.09 8.7
-3 8 6 83.69 7.3
3 -8 6 79.69 7.5
3 9 6 36.4 6.3
-3 9 -6 28.3 4.9
3 -9 -6 44.8 7.7
-3 -9 6 35.4 4.2
-3 -9 6 38.1 6.8
3 -9 6 39.2 6.7
-3 -9 -6 43.6 6.3
3 -9 6 37.8 7.3
-3 9 6 31.8 6.7
-3 9 6 50.29 7.1
-3 -10 6 29.4 5.9
-3 10 -6 30.8 5.3
-3 -10 6 29.3 4.6
3 10 6 26.8 5.8
3 -10 -6 21.7 5.6
-3 -10 -6 21.6 5
3 -10 6 30.2 6.1
-3 10 6 17.6 5.5
-3 10 6 29 5.6
-3 -11 6 153.18 12
3 11 6 129.29 11.1
-3 -11 6 141.29 9
-3 11 -6 150.48 9.7
-3 -11 -6 142.89 10.8
-3 11 6 144.89 10.4
3 -11 6 132.09 10.8
-3 11 6 142.19 13.1
-3 -12 6 300.47 14
3 12 6 321.37 18.1
-3 12 -6 285.27 13.6
-3 -12 6 285.67 17.4
-3 -12 -6 317.47 17
-3 12 6 258.97 18.2
-3 12 6 339.37 15.8
3 13 6 48.9 9.2
-3 13 -6 36 5.8
-3 -13 6 39.4 6.8
-3 13 6 48.2 7.5
-3 13 6 41.1 6.7
-3 13 6 59.99 11
3 14 6 33.1 8
-3 14 -6 38.7 6.1
-3 14 6 46.3 7.2
-3 14 6 42.3 9.7
3 15 6 7.3 5.3
-3 15 -6 12.2 3.9
-3 15 6 10.1 5.6
-3 15 6 2.1 7.2
-3 15 6 8.9 3.9
4 0 6 238.98 8.3
-4 0 -6 240.58 8.6
-4 0 6 240.98 8.2
4 1 6 1607.14 23.4
-4 1 -6 1649.73 26.5
-4 -1 -6 1580.94 24.4
-4 1 6 1548.05 25.4
4 -1 6 1616.54 26.1
4 -2 -6 174.38 7.7
-4 2 -6 169.98 7.9
4 2 6 157.98 5.7
4 2 6 159.78 6.1
-4 2 6 166.78 7.9
4 -2 6 169.68 8
-4 -2 -6 160.28 6.4
-4 3 -6 13.8 3
4 -3 -6 21.7 3.5
4 3 6 16.6 2.5
4 3 6 22.7 2
4 -3 6 22 4
-4 3 6 20.1 3.6
4 -3 6 21.1 3.8
-4 -3 -6 21.6 2.5
4 -4 -6 1.5 1.5
4 4 6 0 0.4
4 4 6 -1 0.7
-4 -4 6 0.3 0.8
-4 4 -6 -0.7 1.3
-4 4 6 0.5 1.4
4 -4 6 0.1 1.4
4 -4 6 -0.7 1.2
-4 -4 -6 0.1 0.8
4 5 6 26.7 4
-4 -5 6 25.2 2.5
-4 5 -6 27.6 4.4
4 -5 -6 31.9 5.1
4 -5 6 23.2 4.6
-4 -5 -6 25.4 3.6
-4 -5 -6 31.9 3.2
-4 5 6 28.1 4.8
4 -5 6 36.5 5.4
4 -6 -6 118.39 8.6
-4 -6 6 117.89 5.2
-4 -6 6 115.79 7.5
4 6 6 118.79 7.4
-4 6 -6 105.79 7.7
-4 -6 -6 118.49 6.7
4 -6 6 111.99 8.1
-4 6 6 113.19 9
4 -6 6 106.69 8.6
-4 6 6 113.69 8.2
-4 -6 -6 116.99 6
-4 -7 6 1.3 2
4 -7 -6 0.4 1.7
-4 -7 6 0.9 1.1
-4 7 -6 -0.2 1.7
4 7 6 1.2 1.8
4 -7 6 1.8 2.4
-4 -7 -6 4 1.6
-4 7 6 1.2 1.9
-4 -7 -6 4.4 1.8
-4 7 6 -0.6 1.5
4 -7 6 3.7 2.7
-4 -8 6 8.9 3.1
-4 -8 6 4.7 1.8
-4 8 -6 9.8 3.3
4 8 6 10.3 3.2
4 -8 -6 5.1 3.2
-4 8 6 4 3.3
4 -8 6 1.2 2.9
-4 -8 -6 6.5 2.3
4 -8 6 5 3.1
-4 8 6 2.1 2.5
4 -9 -6 659.03 24.1
-4 9 -6 656.83 20.7
-4 -9 6 597.04 21.1
4 9 6 617.64 21.1
-4 9 6 618.64 24.7
4 -9 6 631.84 24.7
-4 -9 -6 644.34 19.7
-4 9 6 601.04 21.2
-4 10 -6 -0.8 2
4 10 6 0.4 1.9
-4 -10 6 2.8 1.7
-4 -10 6 -2.1 1.6
-4 10 6 -0.1 2.3
-4 -10 -6 1.8 2.2
-4 10 6 1.3 2.8
4 -10 6 -0.4 2
-4 11 -6 114.39 9.1
4 11 6 148.69 11.7
-4 -11 6 116.89 10.5
-4 -11 6 131.99 8.4
-4 -11 -6 123.09 9.6
-4 11 6 121.39 10.3
-4 11 6 132.29 13
-4 -12 6 37.9 7.6
4 12 6 34.9 7.4
-4 -12 6 45.3 5.1
-4 12 -6 29.4 5.8
-4 12 6 33.4 6.5
-4 -12 -6 30.5 6.1
-4 12 6 53.49 10.8
4 13 6 182.18 14.1
-4 -13 6 166.88 10.9
-4 13 -6 144.29 10.7
-4 13 6 157.58 15.5
-4 13 6 165.18 12.1
-4 14 -6 48.3 7.4
-4 -14 6 38.6 6.6
4 14 6 41.4 8.8
-4 14 6 43.7 7.3
-4 14 6 30.3 8.5
-4 15 -6 63.99 8.4
4 15 6 94.09 13.4
-4 15 6 63.59 8.7
-4 15 6 70.39 12.7
5 0 6 207.78 8.1
-5 0 6 209.98 7.9
-5 0 -6 214.48 8.6
-5 -1 6 173.48 6.8
5 1 6 175.68 6.8
-5 1 -6 191.68 8.5
-5 -1 -6 186.48 7.6
5 -1 6 178.08 8
-5 1 6 188.78 8
5 -2 -6 8.7 2.3
5 2 6 6 1.5
-5 2 -6 5.6 2.2
-5 2 6 4 1.8
-5 -2 -6 6.6 1.9
5 -2 6 6.1 2.1
5 3 6 56.49 3.7
5 3 6 53.39 2.4
5 -3 -6 58.99 5.1
-5 3 -6 53.79 5.1
-5 -3 -6 55.59 3.9
-5 3 6 56.79 5.4
5 -3 6 53.69 5.2
5 -3 6 57.19 5.3
-5 4 -6 166.28 9.1
5 -4 -6 180.38 9.4
5 4 6 162.78 6.9
5 -4 6 189.68 9.9
-5 4 6 172.88 9.8
-5 -4 -6 176.38 6.8
-5 -5 6 81.89 4.1
5 5 6 81.99 5.4
-5 5 -6 93.09 7.1
5 -5 -6 94.39 7.4
5 -5 6 80.69 7
5 -5 6 87.09 7.4
-5 5 6 79.79 10.7
-5 -5 -6 94.99 5
-5 -6 6 38.5 2.9
5 -6 -6 36.7 5.9
5 6 6 36.6 4.2
-5 6 -6 35.2 5.4
-5 -6 6 43.5 4.7
-5 -6 -6 43.7 3.7
5 -6 6 47.2 6.7
-5 -6 -6 32 3.5
5 -6 6 39.3 6.6
-5 6 6 52.09 7.8
-5 6 6 33.8 5.9
5 7 6 97.39 7.1
-5 7 -6 125.79 8.9
-5 -7 6 109.19 5.1
5 -7 -6 107.99 9.1
-5 -7 6 110.09 8
-5 -7 -6 114.39 6.2
-5 7 6 96.39 9.1
-5 -7 -6 100.99 6.5
5 -7 6 105.19 9.5
-5 7 6 128.59 9.6
5 -7 6 98.59 8.5
5 -8 -6 51.49 7.5
-5 -8 6 44.2 6.3
-5 -8 6 44.9 3.7
5 8 6 50.99 5.7
-5 8 -6 38.1 6.1
5 -8 6 46.3 7.5
-5 -8 -6 54.59 4.9
-5 -8 -6 40.9 5.4
-5 8 6 65.19 9.1
5 -8 6 48.6 8.1
-5 8 6 49.4 7.5
-5 9 -6 26.1 5.3
-5 -9 6 27.1 5.3
5 -9 -6 30 6.4
-5 -9 6 30.3 3.9
5 9 6 24.3 4.9
5 -9 6 20.3 5.3
-5 -9 -6 16.7 3.8
5 -9 6 29.2 6.3
-5 9 6 30.3 6.3
-5 9 6 27.5 6.8
5 10 6 12.5 3.9
-5 -10 6 8.5 2.4
-5 10 -6 4.6 3.3
-5 -10 6 1.6 2.7
-5 -10 -6 9.5 3.4
-5 10 6 13.9 4.5
-5 10 6 8.7 4.1
-5 -11 6 35.6 6.9
-5 -11 6 27.4 4.5
5 11 6 35 6.5
-5 11 -6 27.7 5.6
-5 -11 -6 32.2 6
-5 11 6 37.1 8
-5 11 6 33.1 6.7
-5 -12 6 345.07 18.5
-5 -12 6 323.67 13.4
-5 12 -6 322.87 16.3
5 12 6 341.57 17.9
-5 12 6 333.07 17.4
-5 13 -6 3.7 3.5
-5 -13 6 -0.4 2.7
-5 -13 6 21.5 7.2
5 13 6 -1.3 2.9
-5 13 6 2.5 4.3
-5 -13 -6 -4.4 2.6
-5 13 6 -3 2.4
-5 14 -6 -6.7 2.2
-5 -14 6 -7.2 2.9
5 14 6 -2.5 3.4
-5 14 6 -4.2 2.4
-5 14 6 3.3 4.3
-5 15 -6 43.7 7
5 15 6 48.7 9.3
-5 15 6 49.99 8
-5 15 6 36.9 10
-6 0 -6 72.59 5.4
6 0 6 79.29 5.2
-6 0 6 67.39 4.7
-6 1 -6 168.18 8.5
-6 -1 6 173.58 6.9
6 1 6 170.68 6.8
-6 -1 -6 163.18 7.6
6 -1 6 168.18 8.1
-6 1 6 155.58 7.7
6 2 6 32.2 2.5
6 -2 -6 32.6 3.6
-6 2 -6 25.9 4.2
6 -2 6 34.9 4
-6 -2 -6 26.5 3.1
6 -2 6 28.9 4.4
-6 2 6 26.4 4
6 -3 -6 1088.49 23.2
6 3 6 1077.09 17.5
-6 3 -6 1042.9 24.3
-6 -3 -6 1077.29 19.4
6 -3 6 1126.29 24.9
6 -3 6 1097.09 24.7
-6 3 6 1127.09 25.1
-6 4 -6 987 24.2
6 -4 -6 948.11 22.9
6 4 6 936.91 17.3
-6 -4 -6 956.4 17.6
6 -4 6 947.81 23.9
6 -4 6 931.61 24.1
-6 4 6 934.01 24.3
-6 5 -6 72.09 6.7
6 -5 -6 72.49 6.8
6 5 6 64.59 4.7
6 -5 6 64.89 6.7
6 -5 6 65.09 6.5
-6 -5 -6 73.29 4.5
-6 5 6 74.99 7.5
-6 -6 6 8.9 1.7
6 6 6 12.6 2.9
-6 6 -6 7.7 3.2
6 -6 -6 4.5 2.4
-6 -6 6 9.7 2.6
-6 6 6 13.7 4.1
-6 6 6 8.8 3.5
6 -6 6 10.4 3.8
6 -6 6 7.7 2.9
-6 -6 -6 8.9 2
6 -7 -6 68.39 7.5
-6 -7 6 54.59 3.5
6 7 6 66.49 5.7
-6 -7 6 51.19 5.5
-6 7 -6 70.49 7.2
-6 7 6 76.89 8.5
-6 -7 -6 70.69 4.8
-6 -7 -6 60.69 4.9
6 -7 6 55.39 7.9
-6 7 6 65.99 7.3
6 -7 6 76.09 8.1
6 8 6 73.89 6.3
6 -8 -6 71.29 8
-6 -8 6 72.79 4.3
-6 8 -6 68.49 7.3
-6 -8 6 73.69 6.8
-6 -8 -6 69.49 9.9
6 -8 6 72.89 8.1
-6 8 6 68.49 7.8
-6 8 6 66.89 9.6
-6 -8 -6 69.49 5.1
6 -8 6 71.19 8
6 -9 -6 100.49 9.8
-6 -9 6 88.19 7.9
-6 -9 6 94.39 5.3
-6 9 -6 96.69 8.8
-6 9 6 84.39 9.3
6 -9 6 83.09 9.5
-6 9 6 96.09 10.5
-6 -9 -6 93.39 6.9
6 10 6 78.19 7.8
-6 -10 6 83.49 8.1
-6 10 -6 92.69 9
-6 -10 -6 85.79 7.3
-6 10 6 91.59 12.2
-6 10 6 92.19 9.4
-6 11 -6 129.99 11
6 11 6 129.69 10.3
-6 -11 6 117.89 7.2
-6 -11 6 126.59 10.5
-6 11 6 126.99 13.2
-6 11 6 116.59 10.9
-6 -11 -6 127.19 9.3
-6 -12 6 141.59 8.7
-6 12 -6 157.88 11.9
6 12 6 139.89 11.3
-6 -12 -6 165.68 11.1
-6 12 6 125.39 13.3
-6 12 6 143.19 11.9
-6 -13 6 33.6 5.3
-6 -13 6 28.2 6.7
-6 13 -6 27.3 6.3
6 13 6 20.3 5.7
-6 13 6 30.1 7
-6 13 6 26.2 7.9
-6 -13 -6 24.8 5.9
6 14 6 -4 2.7
-6 14 -6 4.6 4.1
-6 -14 6 1.6 3.9
-6 14 6 -0.2 3.9
-6 14 6 0.2 3.3
-6 15 -6 6.6 3.7
-6 15 6 -1.1 4.9
-6 15 6 0.7 4.2
-7 0 6 0.3 1
-7 0 -6 -0.2 1.1
7 0 6 2.1 1.6
-7 1 -6 28.6 4.8
-7 -1 6 25.2 2.9
7 1 6 26.2 2.8
-7 -1 -6 21.7 3.6
-7 1 6 27.8 4.2
7 -1 6 29.1 4.2
7 -1 6 25.2 4
7 2 6 111.09 4.6
7 -2 -6 120.89 6.9
-7 2 -6 106.49 7.5
-7 -2 6 106.59 5.2
7 -2 6 111.79 7.4
-7 -2 -6 108.09 6.3
-7 2 6 113.89 7.4
7 -2 6 119.39 7.4
7 -3 -6 947.91 26.4
-7 3 -6 1017.9 24.7
7 3 6 992.7 15.9
-7 -3 -6 997.9 19.3
7 -3 6 968.3 23.6
7 -3 6 959.7 23.8
-7 3 6 941.01 23.6
7 4 6 18.4 2.5
-7 4 -6 14.4 3.8
7 -4 -6 17.6 3.8
-7 4 6 19.7 5.6
-7 -4 -6 11.1 2.4
7 -4 6 21 4.5
7 -4 6 20 4.6
7 -5 -6 156.08 9.8
7 5 6 174.78 7.1
-7 5 -6 162.08 10.4
-7 -5 6 169.48 7.8
-7 -5 -6 167.78 7
-7 5 6 157.88 10.7
7 -5 6 149.59 10.1
-7 5 6 184.18 11.3
7 -5 6 176.08 11.1
7 6 6 12.1 2.7
-7 -6 6 15.8 3.1
-7 6 -6 9.7 3.6
7 -6 -6 12.9 4
-7 -6 -6 16.6 2.9
7 -6 6 21.9 5
7 -6 6 6.7 3.4
-7 6 6 15.1 4.4
-7 6 6 10.9 3.9
-7 7 -6 292.77 15
-7 -7 6 294.67 11.9
7 -7 -6 266.77 14.5
7 7 6 328.97 11.7
-7 -7 6 313.67 8.2
-7 7 6 316.27 16.1
-7 7 6 335.37 17.2
7 -7 6 306.57 16.4
7 -7 6 311.27 18.6
-7 -7 -6 314.77 9.9
7 -8 -6 228.38 22.3
-7 8 -6 249.28 14.2
-7 -8 6 251.37 7.6
7 8 6 273.37 11.6
-7 -8 -6 253.87 9.4
7 -8 6 273.37 15.4
-7 8 6 244.08 15.5
-7 8 6 268.17 15.4
-7 -9 6 30 3
7 9 6 27.8 5
-7 9 -6 34.2 6.6
7 -9 -6 36.5 7.3
-7 -9 6 33.8 5.8
-7 9 6 32.9 7.4
-7 -9 -6 29.5 4
-7 9 6 26.3 6.4
-7 -9 -6 38 4.5
7 -9 6 35.5 7.5
-7 10 -6 111.49 10
7 10 6 85.69 7.8
-7 -10 6 82.29 5.2
-7 -10 6 106.09 8.9
-7 10 6 83.39 9.4
-7 -10 -6 88.69 7
-7 10 6 117.09 12.1
-7 -11 6 1.2 1.6
-7 -11 6 -1.4 2.6
-7 11 -6 2.6 3.3
7 11 6 -2.5 2.1
-7 11 6 -1.8 2.8
-7 -11 -6 2.3 2.2
-7 -12 6 22.7 5.5
-7 12 -6 14.3 5.6
-7 -12 6 28.6 4.5
7 12 6 30.1 6.1
-7 12 6 34.4 9
-7 -12 -6 25.6 5
-7 12 6 35.5 8.6
-7 -13 6 53.99 8.6
-7 13 -6 51.89 8.7
7 13 6 51.59 8
-7 -13 6 45.5 6
-7 -13 -6 46.1 6.7
-7 13 6 44.3 10.3
-7 13 6 42.6 8.1
-7 -14 6 4.9 3.5
7 14 6 1.2 3.5
-7 14 -6 10.8 4.5
-7 14 6 -1.9 3.8
-7 14 6 10.4 5.8
-8 0 6 529.15 14.2
8 0 6 541.25 13.7
-8 0 -6 531.35 16.2
8 0 6 539.85 14.2
-8 -1 6 260.87 9
8 1 6 242.38 8
-8 1 -6 235.78 11.2
8 -1 6 246.28 10
-8 1 6 250.87 10.4
-8 -1 -6 256.47 10.7
8 -1 6 231.78 10.1
-8 -2 6 45.9 3.5
8 2 6 43.9 2.8
-8 2 -6 33.8 5.4
8 -2 -6 44.8 4.5
8 -2 6 49.6 5.1
-8 2 6 43.2 4.8
-8 -2 -6 40.9 4.3
8 -2 6 37.3 5.5
-8 3 -6 14.2 3.9
8 -3 -6 12.5 3.1
8 3 6 15.2 2
-8 -3 6 15.1 2.3
-8 3 6 17.3 3.8
8 -3 6 10.9 3.3
8 -3 6 9.6 3.7
-8 -3 -6 15.1 3
8 4 6 168.98 5.7
-8 4 -6 191.98 11.4
8 -4 -6 182.88 10.1
-8 -4 -6 172.48 7.6
8 -4 6 184.18 11
8 -4 6 172.28 10.6
-8 4 6 160.18 10.4
-8 -5 6 208.98 8.2
-8 5 -6 218.18 12.5
8 -5 -6 203.78 11.4
8 5 6 199.98 6.9
-8 -5 -6 196.28 7.9
8 -5 6 184.38 11.5
-8 5 6 197.08 12.3
-8 5 6 203.08 12.4
8 -5 6 195.78 12.1
-8 -6 6 324.07 11.1
-8 6 -6 320.67 15.8
8 6 6 339.07 10
8 -6 -6 318.87 15.3
-8 6 6 319.77 16.2
8 -6 6 320.57 16
-8 6 6 333.47 16.7
-8 -6 -6 327.77 10.1
8 -6 6 316.37 15.8
8 -7 -6 183.08 12.2
8 7 6 159.08 7.5
-8 7 -6 171.48 12.1
-8 -7 6 189.88 6.3
-8 -7 6 170.08 8.6
-8 7 6 165.78 12.2
-8 7 6 204.98 13.9
-8 -7 -6 170.18 7.3
8 -7 6 156.18 11.6
8 -7 6 173.48 12.7
8 8 6 179.88 8.8
-8 8 -6 175.98 12.5
-8 -8 6 185.48 9.7
8 -8 -6 187.28 13.2
-8 -8 6 191.18 6.4
-8 8 6 187.08 13.9
8 -8 6 189.88 13.9
8 -8 6 167.38 13.1
-8 -8 -6 183.68 7.8
-8 8 6 191.18 13.5
8 9 6 8.4 2.7
-8 -9 6 4.4 2.7
-8 -9 6 7.3 1.7
-8 9 -6 5.1 3.3
-8 -9 -6 6.8 2.1
-8 9 6 11.8 4.9
-8 9 6 -0.2 2.9
-8 10 -6 50.19 8.6
-8 -10 6 55.39 4.1
-8 -10 6 54.19 7.3
8 10 6 51.99 6.8
-8 10 6 50.79 9
-8 10 6 59.89 10.8
-8 -11 6 4.1 3
-8 11 -6 4.2 3.4
8 11 6 0.8 2.1
-8 11 6 0.8 3.9
-8 -11 -6 4.6 2.3
-8 -12 6 102.99 6.7
8 12 6 99.59 8.7
-8 -12 6 89.49 9.3
-8 12 -6 95.69 10.3
-8 -12 -6 98.79 7.9
-8 12 6 116.09 15.8
-8 12 6 94.59 10.9
-8 -13 6 16.1 3.7
-8 -13 6 6.8 4.2
-8 13 -6 9.7 4.1
-8 -13 -6 -0.2 2.8
-8 13 6 16.1 6.6
-8 13 6 11.8 5.7
-8 14 -6 25.4 6.7
-8 -14 6 23.2 4.7
-8 14 6 29.5 9.1
-8 -14 -6 16 4.6
-8 14 6 17.2 6.4
-9 0 -6 287.87 12.5
-9 0 6 288.37 10.6
9 0 6 269.17 9.5
9 1 6 524.25 12.1
-9 1 -6 507.65 17.4
-9 -1 6 529.05 13.4
9 -1 6 508.15 14.8
-9 -1 -6 534.45 16.5
-9 1 6 540.65 15.9
-9 -2 6 32.1 3.1
9 -2 -6 27 4.1
-9 2 -6 33 5.7
9 2 6 40.7 2.7
9 2 6 37 2.4
-9 2 6 39.8 5.7
9 -2 6 43.2 5.9
-9 -2 -6 30.7 4.6
9 -2 6 43.3 4.9
9 3 6 135.09 4
9 -3 -6 131.09 8.2
9 3 6 127.89 3.8
-9 -3 6 130.99 5.6
-9 3 -6 139.69 9.8
-9 3 6 145.89 9.4
9 -3 6 137.59 9.2
9 -3 6 124.89 8.6
-9 -3 -6 144.09 7.7
9 4 6 371.66 6.1
9 -4 -6 355.96 14.5
-9 4 -6 395.76 17.1
-9 -4 6 374.66 9.3
9 -4 6 384.56 16
-9 4 6 367.96 16.1
9 -4 6 356.96 15.7
-9 4 6 403.26 17.5
-9 -4 -6 377.86 12.1
-9 -5 6 11.3 2.3
9 5 6 13.2 1.4
-9 5 -6 12.2 4.2
9 -5 -6 11.5 3.7
-9 -5 6 11.2 2
-9 5 6 11.5 4.3
9 -5 6 16 4.4
9 -5 6 12 4.1
-9 5 6 13.6 4.3
-9 -5 -6 14.6 2.9
9 -6 -6 210.08 12.7
-9 6 -6 241.18 14.3
-9 -6 6 236.88 8.7
9 6 6 229.08 6.6
-9 6 6 253.57 15.1
-9 -6 -6 235.88 8.9
9 -6 6 250.87 14.6
9 -6 6 229.28 14
-9 6 6 228.98 14.3
9 7 6 46 3.6
-9 -7 6 55.99 4.7
-9 7 -6 42.7 7.5
-9 7 6 46.8 8.4
-9 7 6 45.6 7.9
9 -7 6 53.09 8.2
9 -7 6 37.6 7.2
-9 -7 -6 48.5 4.2
9 -8 -6 67.09 9.6
-9 -8 6 74.19 4
9 8 6 69.89 4.9
-9 8 -6 73.09 10.1
-9 -8 6 73.89 5.9
-9 -8 -6 76.09 5.1
-9 8 6 63.29 9.8
-9 8 6 66.29 10.3
9 -8 6 68.69 10.2
-9 -9 6 94.89 4.6
-9 9 -6 80.89 9.3
-9 -9 6 91.69 7.1
9 9 6 85.39 6
-9 -9 -6 88.49 5.8
-9 9 6 81.09 12.1
-9 9 6 83.99 9.9
-9 -10 6 24.9 2.8
-9 10 -6 21.6 6.8
9 10 6 26 4.4
-9 -10 6 33.9 5.3
-9 -10 -6 20 3.5
-9 10 6 34.5 8.1
-9 11 -6 2.7 3.7
-9 -11 6 0 1.7
-9 -11 6 2.2 3
-9 11 6 -0.8 3.8
-9 11 6 5.4 5.3
-9 -12 6 24.3 4
-9 -12 6 35.3 5.8
-9 12 -6 26.6 6.9
-9 12 6 39.5 10
-9 12 6 24.8 7.4
-9 13 -6 46.9 9.1
-9 -13 6 52.89 7.8
-9 -13 6 46.8 5.1
-9 13 6 43.3 8.8
-9 13 6 47.8 10.9
10 0 6 664.93 15.4
-10 0 6 656.13 16.8
-10 0 -6 681.73 20.6
10 1 6 103.99 5
-10 1 -6 96.29 8
-10 -1 6 105.29 5.9
10 -1 6 111.99 6.9
-10 1 6 123.39 7.7
-10 -2 6 709.93 14.5
10 -2 -6 700.83 18.3
10 2 6 695.03 9.7
10 2 6 722.33 10.3
-10 2 -6 709.73 22.5
10 -2 6 714.43 19.7
-10 2 6 696.73 20.1
-10 -2 -6 734.63 19.8
-10 3 -6 183.48 11.8
-10 -3 6 167.68 5.9
10 -3 -6 160.98 9.1
-10 3 6 155.38 10.5
-10 -3 -6 152.38 8.5
10 -3 6 157.98 9.8
-10 -4 6 102.19 4.4
10 -4 -6 103.69 8
-10 4 -6 125.19 10.1
-10 -4 6 104.09 4.3
-10 4 6 114.69 9.3
-10 4 6 121.09 10.1
-10 -4 -6 110.29 6.9
10 -4 6 112.99 9
-10 -5 6 69.59 3.4
-10 5 -6 71.29 8.1
-10 -5 6 71.09 3.7
10 -5 -6 70.49 7.3
-10 5 6 74.59 8.1
-10 -5 -6 80.79 5.7
-10 5 6 68.29 9.6
10 -5 6 81.79 8.3
10 -6 -6 327.07 15.9
-10 6 -6 342.37 17.6
-10 -6 6 335.37 8.8
-10 -6 6 324.17 8
-10 6 6 307.07 16.9
-10 6 6 328.67 18
-10 -6 -6 334.67 11.2
10 -6 6 372.96 18.1
-10 7 -6 31.7 6.9
10 -7 -6 20.4 5
-10 -7 6 25.2 2.9
-10 -7 -6 28.2 3.8
10 -7 6 16.9 5.5
-10 7 6 29.1 6.7
-10 7 6 28.6 7
-10 -8 6 -3.2 1.2
-10 8 -6 -3 2.9
-10 -8 6 0.7 1.1
-10 -8 -6 -2.1 1.1
-10 8 6 2.7 3.3
-10 8 6 -0.8 3.3
-10 -9 6 37 3
-10 -9 6 34.8 4.6
-10 -9 -6 35.4 4
-10 9 6 30.5 7.5
-10 -10 6 28.2 4.6
-10 -10 6 26.7 2.9
-10 10 -6 29.5 7.1
-10 10 6 25.6 7.1
-10 10 6 28.8 7.3
-10 -10 -6 27 4.1
-10 -11 6 67.19 4.3
-10 11 -6 74.29 11.2
-10 -11 6 79.59 6.6
-10 11 6 67.39 11.8
-10 11 6 64.09 11
-10 12 -6 168.98 14.3
-10 -12 6 161.98 10.1
-10 12 6 180.38 17
-10 12 6 168.88 15
-10 13 6 33.6 10.2
11 0 6 114.29 6
-11 0 -6 130.19 9.4
-11 0 6 110.99 6.7
-11 1 -6 306.37 14.8
11 1 6 324.07 7.8
-11 -1 6 312.47 10
-11 -1 -6 325.97 14.1
-11 1 6 318.27 12.4
11 -1 6 282.27 11.1
-11 -2 6 30.2 2.7
-11 2 -6 23.6 5.3
-11 2 6 31.2 5.3
-11 -2 -6 28.3 5.1
11 -2 6 32.9 5
11 -3 -6 26 4.5
-11 -3 6 26.1 1.9
-11 3 -6 19.9 5.1
-11 3 6 21.4 4.8
-11 3 6 19.3 5.1
-11 -3 -6 29.4 4.8
11 -3 6 31.7 5.4
-11 4 -6 122.79 10.5
11 -4 -6 143.39 9.5
-11 4 6 143.19 11.5
-11 4 6 138.49 10.3
-11 -4 -6 144.59 8.4
11 -4 6 133.89 10.1
-11 5 -6 3.6 3.3
11 -5 -6 -3.7 2
-11 5 6 1.8 2.7
-11 5 6 0.9 2.6
11 -5 6 1.9 3.2
-11 -5 -6 2.6 1.7
11 -6 -6 27.8 6.7
-11 6 -6 23.8 6.5
-11 6 6 14 4.8
11 -6 6 31.1 6.7
-11 -6 -6 16.2 3.3
-11 6 6 16.3 5.8
-11 7 -6 85.79 9.6
11 -7 -6 77.19 10.1
-11 -7 -6 89.99 5.9
11 -7 6 84.29 9.7
-11 7 6 98.19 10.7
-11 7 6 82.99 11.4
-11 8 -6 20.3 7.3
-11 -8 6 37.4 2.2
-11 -8 6 39.6 2.4
-11 -8 -6 39.1 4.2
-11 8 6 45 8.5
-11 8 6 38.8 10.1
-11 -9 6 4.9 1.5
-11 -9 6 -0.3 1.3
-11 9 -6 -1.4 3
-11 -9 -6 0.8 1.9
-11 9 6 1.5 4
-11 9 6 2.5 4.4
-11 -10 6 9 1.7
-11 10 -6 8.7 4.7
-11 -10 6 8.4 2.1
-11 10 6 8 5.7
-11 10 6 5.2 5.2
-11 -10 -6 14.4 2.9
-11 -11 6 -1.1 1.9
-11 -11 6 5.6 1.7
-11 11 -6 -2.5 3.8
-11 11 6 -4.2 3.7
-11 11 6 -5.7 2.9
-11 -12 6 106.09 5.4
-11 12 -6 110.19 12.3
-11 12 6 80.29 12.4
-11 12 6 145.09 15.8
12 0 6 13.6 2.3
-12 0 6 16.5 3.2
-12 0 -6 13.4 4
-12 -1 6 42.8 3.5
-12 1 -6 32.1 6
-12 1 6 43.4 4.7
12 -1 6 41.1 4.4
-12 -1 -6 48.7 7.1
-12 2 -6 13.5 4.5
-12 -2 6 12.7 1.6
12 -2 6 13 5.3
-12 -2 -6 14.7 4
-12 2 6 16.1 3.9
-12 2 6 22.4 5.4
-12 3 -6 136.19 11
12 -3 -6 137.19 8.7
-12 3 6 135.89 9.7
-12 -3 -6 146.19 9.3
-12 3 6 146.79 11.7
12 -3 6 156.98 10.2
12 -4 -6 -1.9 2
-12 4 -6 1.8 3
12 -4 6 3 2.5
-12 4 6 2.5 2.2
-12 4 6 0.7 2.5
-12 5 -6 55.19 9
12 -5 -6 61.49 8.2
-12 -5 -6 65.49 5.8
-12 5 6 65.09 10
-12 5 6 61.99 8.9
12 -5 6 61.59 8.6
12 -6 -6 69.69 7.8
-12 6 -6 60.19 9.5
-12 -6 -6 57.39 5.4
-12 6 6 57.49 9
-12 6 6 74.79 11.1
-12 7 -6 89.39 10.4
12 -7 6 107.89 11.1
-12 -7 -6 119.29 7.1
-12 7 6 110.79 11.8
-12 7 6 112.99 11.7
-12 8 -6 58.19 10
-12 8 6 60.59 10.4
-12 8 6 45.7 9
-12 -8 -6 69.89 5.5
-12 9 -6 9 5.2
-12 -9 6 2.9 1.7
-12 9 6 0.7 4.1
-12 9 6 10.1 5.4
-12 -9 -6 6.7 2.3
-12 -10 6 6.3 1.5
-12 10 -6 8 4.7
-12 10 6 9.8 5.5
-12 -10 -6 7 2.4
-12 10 6 10.3 5.7
-12 -11 6 0.5 1.4
-12 11 -6 15.8 5.1
-12 11 6 3.2 4.6
-12 -11 -6 1.4 2.1
-12 11 6 1.3 4.7
-13 0 6 141.89 7.2
-13 0 -6 134.89 10.4
13 0 6 145.79 5.2
-13 1 -6 -1.5 2.3
-13 -1 6 0.8 1
-13 1 6 3.3 1.8
-13 -1 -6 -3.1 1.9
-13 1 6 2.9 2.6
13 -1 6 -1.7 1.3
-13 2 -6 12.1 4.8
-13 2 6 8.9 4.5
-13 2 6 4.4 2.6
-13 -2 -6 11.8 3.9
-13 3 -6 47.6 8.4
-13 3 6 44.8 8.2
-13 3 6 28.1 5.2
-13 -3 -6 46.9 6.8
13 -3 6 38.8 6
13 -4 -6 51.99 7.1
-13 4 -6 62.49 9.5
13 -4 6 65.19 7.3
-13 -4 -6 68.69 6.5
-13 4 6 63.39 10.1
-13 4 6 68.79 7.7
-13 5 -6 20.4 6.2
13 -5 -6 25 5.4
-13 5 6 25.3 6
13 -5 6 23 5.5
-13 5 6 18.9 6.7
-13 -5 -6 20.5 4
13 -6 -6 0.3 3.1
-13 6 -6 2.5 3.7
-13 6 6 -3.8 2.4
-13 6 6 5.1 4.1
13 -6 6 4.2 3.5
-13 7 -6 10.6 4.8
-13 7 6 7.6 4.6
-13 7 6 0.4 3.2
-13 -7 -6 3.3 2.2
-13 8 -6 171.48 15.2
-13 8 6 179.68 15.5
-13 -8 -6 197.78 9.4
-13 8 6 210.28 17.4
-13 -9 6 4.1 1.9
-13 9 -6 7.7 4.8
-13 9 6 2.8 4.4
-13 -9 -6 8.4 2.4
-13 9 6 4.6 4.4
-13 10 -6 166.68 15.3
-13 -10 6 153.88 5.9
-13 10 6 163.88 16.1
-13 -10 -6 168.28 8.6
-13 10 6 169.08 16.1
-14 0 6 208.78 13.6
-14 0 -6 201.68 13.2
-14 0 6 198.18 7.6
-14 1 -6 8.4 4.1
-14 -1 6 2.6 3.2
-14 1 6 4 1.8
-14 -1 -6 10.5 3.9
14 -1 6 2.5 1.9
-14 1 6 5 3.3
-14 2 -6 25.7 6.5
-14 2 6 24.3 6.2
-14 2 6 24.6 5.7
14 -2 6 20.5 4.1
-14 -2 -6 15.7 4.4
-14 3 -6 275.37 16.8
-14 3 6 255.37 16.7
-14 -3 -6 255.97 13.5
-14 3 6 265.77 13.6
14 -3 6 247.88 12.3
-14 4 -6 43.6 9.6
-14 -4 -6 56.89 6.4
14 -4 6 49.3 7
-14 4 6 43.7 7.1
14 -5 -6 10.6 3.5
-14 5 -6 3.2 3.7
-14 5 6 2.1 3.6
-14 -5 -6 -0.7 2.2
14 -5 6 5.5 4
-14 5 6 6 3.3
-14 6 -6 35.9 8.1
-14 -6 -6 35 5.4
-14 6 6 44.9 9.4
-14 6 6 28.1 6.9
14 -6 6 26.4 6.4
-14 7 -6 80.39 12.2
-14 -7 -6 93.79 7.2
-14 7 6 70.39 11.1
-14 7 6 82.69 12.7
-14 8 -6 39.9 11.6
-14 8 6 37.4 9.3
-14 8 6 48.2 8.9
-15 0 -6 45.5 8.2
-15 0 6 55.29 8.8
-15 -1 6 12.2 4.8
-15 1 -6 5.9 4.2
15 -1 6 10.7 1.8
-15 1 6 14.4 5.4
-15 -1 -6 9.7 4.8
-15 -2 6 -4.6 2.5
-15 2 -6 4.4 3.9
15 -2 6 2.1 2.2
-15 2 6 -0.9 2
-15 2 6 7.4 4
-15 -2 -6 7.5 3.9
-15 -3 6 45.3 7.2
-15 3 -6 42.7 8.5
-15 3 6 37.4 8
-15 -3 -6 43.6 7
15 -3 6 38.3 5.8
-15 3 6 37.9 6
-15 4 -6 2.6 3.9
-15 4 6 -3.6 1.9
-15 -4 -6 -1.5 2.1
-15 4 6 3 3.9
15 -4 6 -3.7 2.9
-15 -5 6 5.3 3.2
-15 5 -6 6.6 4.8
15 -5 -6 -1.4 3.2
-15 -5 -6 10.6 3.3
-15 5 6 0.3 3.5
-15 5 6 6.8 3.8
-15 -6 6 3.4 2.7
-15 6 -6 -7.8 3.7
-15 6 6 5.8 3.9
-15 -6 -6 -1.5 2.1
-15 6 6 -1.5 3.5
-15 -7 6 6.6 2.9
-15 7 -6 1.6 4.4
-15 7 6 -1.7 3.5
-15 7 6 6.8 4.5
-15 -7 -6 5.7 2.9
-16 0 -6 169.18 16
-16 0 6 146.69 12.9
-16 1 -6 72.29 10.8
-16 -1 6 66.19 10.2
-16 -1 -6 60.49 9.2
-16 -2 6 2.6 3.6
-16 2 -6 1.4 4
16 -2 6 1.5 1.9
-16 -2 -6 4.2 3.5
-16 2 6 -2.2 3.2
-16 -3 6 7.4 3.1
-16 3 -6 3.6 4.1
-16 -3 -6 2.6 3.8
-16 3 6 2 4.7
16 -3 6 2.4 3.1
-16 -4 6 0.7 2.5
-16 4 -6 6.8 4
16 -4 6 -2.1 3.5
-16 4 6 6.4 2.9
-16 4 6 3.2 3.9
0 0 7 1.3 1.1
0 0 -7 0.6 1
0 -1 -7 -0.9 0.7
0 1 -7 0.1 0.8
0 1 7 -0.5 0.6
0 -1 7 -0.8 0.6
0 2 7 1845.32 27
0 2 -7 1838.12 26.3
0 2 7 1796.82 27.8
0 -2 7 1834.62 26.7
0 -2 -7 1801.72 27.6
0 3 7 -0.2 0.9
0 -3 7 0.4 0.9
0 -3 -7 -0.1 0.8
0 3 7 -1.3 0.6
0 3 -7 1.1 1
0 4 -7 82.79 4.9
0 4 7 81.59 5.2
0 4 7 79.29 6
0 -4 7 69.99 4.9
0 -4 -7 78.99 5.5
0 -5 7 1.1 1.3
0 -5 -7 1.1 1.4
0 5 -7 0.1 0.9
0 5 7 3.2 1.8
0 5 7 0.2 1.1
0 6 7 0 1.4
0 6 7 -0.1 1.2
0 6 -7 -1 0.7
0 -6 -7 -0.4 1.2
0 -6 7 1.6 1.7
0 -6 7 -0.6 1.5
0 7 7 -2.4 0.9
0 7 7 0.2 1.4
0 7 -7 1.1 1.2
0 7 7 0.8 1.9
0 -7 7 1.1 1.6
0 -7 -7 1.4 1.8
0 -7 7 1 1.6
0 -8 -7 205.18 11.7
0 -8 7 216.48 13
0 8 7 213.18 12.9
0 -8 7 213.58 10.6
0 8 7 211.18 9.4
0 8 -7 197.48 8.3
0 8 7 190.98 9.3
0 9 7 -0.9 2.4
0 -9 7 0.6 2
0 9 -7 -1.6 1.2
0 9 7 1.8 1.8
0 9 7 -1 1.4
0 -9 -7 -4.1 1.6
0 -9 7 -3.1 1.7
0 -10 -7 4.7 2.7
0 10 7 0.8 2.8
0 10 -7 1.3 1.5
0 -10 7 4.4 2.8
0 10 7 4.9 2.3
0 11 -7 -0.5 1.2
0 -11 7 0.3 2.5
0 11 7 6.8 3.8
0 11 7 -2.5 1.4
0 -11 7 1.6 3.3
0 -11 -7 1.5 2.4
0 12 -7 103.59 5.7
0 12 7 95.29 12.8
0 -12 7 98.49 9.5
0 12 7 115.09 7.5
0 13 7 -1 1.9
0 13 7 -0.6 1.5
0 13 7 0.6 3.1
0 13 -7 -1 1
0 14 7 9.2 2.5
0 14 7 16.5 3.2
0 14 7 16.9 6.7
0 15 7 1.2 1.2
0 15 7 -4.8 3.1
0 16 7 67.69 13.1
-1 0 -7 -1.3 0.6
-1 0 7 -0.1 0.8
1 0 7 0.4 0.8
1 0 -7 1.7 1.2
-1 1 -7 2637.24 34.4
1 1 7 2660.73 33.9
-1 -1 7 2669.13 33.9
-1 1 7 2662.83 34.8
-1 1 7 2644.34 35.4
-1 -1 -7 2626.64 34.4
1 1 -7 2597.04 33.6
1 -1 7 2680.63 34.6
-1 2 -7 8.6 2.1
-1 -2 7 8.4 1.9
1 2 7 7.1 1.9
1 2 7 8.1 1.9
-1 -2 -7 6.4 1.9
-1 2 7 7.5 2.1
-1 2 7 7.8 2
1 -2 7 6.1 1.8
1 2 -7 9 2
1 3 7 643.74 13.9
-1 -3 7 621.44 13.8
-1 3 -7 655.43 14.8
1 -3 -7 641.14 15.7
-1 -3 -7 672.93 15.2
-1 3 7 623.84 15.1
1 3 -7 645.34 13.3
1 -3 7 680.53 15.5
1 -4 -7 32.9 3.9
-1 4 -7 36 3.6
1 4 7 36.9 4.1
1 4 7 30.1 3
-1 -4 7 36.2 3.5
-1 4 7 27.5 4.4
-1 -4 -7 41.6 4.1
-1 4 7 40 4
-1 -4 -7 39.6 3.9
1 4 -7 37.8 3.1
1 -4 7 36 3.8
1 5 7 145.69 6.6
-1 5 -7 143.69 7
-1 -5 7 140.29 6.8
1 5 7 141.49 8.3
-1 5 7 155.98 9.2
-1 -5 -7 155.18 8.2
1 5 -7 145.19 6
-1 5 7 152.38 7.8
-1 6 -7 5.3 1.8
-1 -6 7 4 2.3
1 6 7 2.8 1.6
1 -6 -7 5.1 2.5
1 6 7 1.4 1.8
1 6 7 6.7 1.9
-1 -6 7 1.4 1.5
-1 6 7 3.3 1.8
-1 -6 -7 5.1 2
-1 6 7 5.1 2.6
1 -6 7 7.6 2.8
1 6 -7 5.4 1.5
1 -6 7 3.2 1.8
1 7 7 467.45 18.2
-1 -7 7 457.85 17.5
-1 7 -7 503.45 14.3
1 -7 -7 475.35 17.3
1 7 7 482.55 12.9
1 7 7 457.75 13.1
-1 -7 7 465.15 14.1
-1 7 7 484.15 18.5
-1 -7 -7 502.75 16.8
1 -7 7 499.15 18.9
1 7 -7 458.15 11.1
-1 7 7 482.45 15.1
-1 7 7 468.45 15.2
1 -7 7 484.95 15.9
1 8 7 17.2 3.1
1 8 7 17 3.2
-1 8 -7 20.2 3.6
1 -8 -7 14.7 4.1
1 8 7 20.8 5.1
-1 -8 7 12.8 3.9
-1 -8 7 18.8 3.8
1 8 -7 18 2.6
1 -8 7 22.7 4.7
-1 -8 -7 20.3 4.4
1 -8 7 10.1 4
-1 8 7 15.5 3.7
-1 8 7 20.8 5
-1 8 7 20.1 4.1
1 9 7 27.1 3.7
1 9 7 37.6 4.1
-1 -9 7 39.9 5.7
-1 9 -7 37.7 4.4
1 -9 -7 41.3 6.9
1 9 7 30.2 6
-1 -9 7 28.4 5.9
1 -9 7 48.6 8.1
-1 -9 -7 39.5 6.3
-1 9 7 41.6 4.9
-1 9 7 36.8 5.6
1 -9 7 43.5 6.6
1 9 -7 41.4 3.3
-1 9 7 43.8 7.8
1 10 7 292.67 16.4
-1 -10 7 310.17 13.7
1 10 7 323.37 10.5
1 10 7 306.37 10.6
-1 10 -7 309.87 11.8
-1 -10 7 284.87 16.1
1 -10 7 290.87 20.5
1 -10 7 312.07 15
-1 10 7 295.77 12.9
-1 10 7 303.67 12.9
-1 -10 -7 309.67 15.6
-1 10 7 303.67 17.4
1 10 -7 295.87 7.9
1 11 7 4.1 3.7
-1 -11 7 3.3 2.3
1 -11 -7 0.3 2.5
-1 -11 7 0.9 2.9
1 11 7 6.2 2
1 11 7 2 1.6
-1 11 7 4.1 3.4
1 -11 7 2.9 2.8
-1 -11 -7 1.7 3.2
1 11 -7 4.6 1.1
-1 11 7 1.8 2.3
1 -11 7 7.9 3.4
-1 11 7 5.5 2.5
1 12 7 0.8 1.3
-1 -12 7 3.4 3
1 12 7 0 3
1 12 7 3.7 1.5
-1 -12 -7 -2.8 2.9
-1 12 7 -0.7 1.9
-1 12 7 -0.6 1.9
-1 12 7 3.5 2.5
1 13 7 0.4 1
1 13 7 2.1 1
1 13 7 -3 2.9
-1 13 7 -2.4 1.6
-1 13 7 4.8 2.9
-1 13 7 -0.9 3.5
-1 14 -7 0.6 1.6
1 14 7 -2.7 3.3
-1 14 7 3.7 2.2
-1 14 7 7.5 5.3
-1 14 7 -1.7 2.5
-1 15 -7 54.69 4
1 15 7 46 9.8
-1 15 7 46.5 10.2
-1 15 7 48 6.3
-1 15 7 55.89 5.4
1 16 7 11.2 6.1
-1 16 7 1.4 5.8
-1 16 7 3.4 2.9
-1 16 7 2.3 3.1
-2 0 -7 0.2 1
2 0 7 -1.1 0.6
-2 0 7 0.8 0.9
-2 1 -7 39.4 3.5
2 1 7 47.9 3.6
-2 -1 7 47.1 3.5
-2 1 7 40.9 3.6
-2 1 7 40.2 3.6
2 -1 7 37.7 3.5
-2 -1 -7 43.8 3.6
2 2 7 2.1 1.2
-2 2 -7 1.6 1.1
-2 -2 7 0.2 0.8
2 2 7 1 1.1
-2 2 7 2.1 1.3
-2 -2 -7 -0.1 0.9
2 -2 7 2.6 1.3
2 3 7 865.81 17.9
-2 -3 7 855.21 16.1
2 3 7 855.91 15.9
-2 3 -7 836.62 18
2 -3 -7 843.22 18.8
-2 -3 -7 850.31 17.1
2 -3 7 861.51 18.6
-2 3 7 883.81 20.1
2 4 7 610.24 15.8
2 -4 -7 637.04 17
-2 -4 7 601.94 13.4
2 4 7 610.74 12.9
-2 4 -7 619.84 15.6
-2 4 7 605.74 17.6
-2 -4 -7 609.94 14.6
2 -4 7 635.84 16.5
-2 -4 -7 606.64 15
-2 5 -7 177.28 8.4
2 5 7 175.68 9
-2 -5 7 175.08 7.2
2 5 7 191.68 6.9
2 -5 -7 180.48 9.5
2 -5 7 179.58 10.1
2 5 -7 176.08 5.7
-2 5 7 179.98 10.1
-2 -5 -7 186.18 8.6
2 -5 7 194.68 9.4
-2 -5 -7 199.38 8.5
-2 6 -7 944.91 21.2
-2 -6 7 984.3 19.2
-2 -6 7 970.3 24.1
2 -6 -7 964.5 24.3
2 6 7 985.1 17.2
2 6 7 947.61 17.7
2 6 7 966.2 23.6
2 -6 7 972.9 26
2 -6 7 949.9 22.8
2 6 -7 978.1 14.5
-2 6 7 1034.8 26.8
-2 -7 7 81.19 7.5
2 7 7 88.49 7.5
-2 -7 7 92.99 6
2 7 7 88.59 5
-2 7 -7 96.79 6.7
2 -7 -7 82.09 7.4
2 7 7 88.99 4.7
-2 7 7 92.79 8.5
2 -7 7 103.39 8.7
-2 -7 -7 91.79 6.9
-2 7 7 102.69 8.8
2 -7 7 87.99 7.2
2 8 7 87.49 7.8
2 8 7 90.89 5
-2 -8 7 82.99 7.9
2 8 7 86.49 4.6
2 -8 -7 84.19 7.9
-2 -8 7 85.99 6.1
-2 8 7 83.89 7.3
-2 8 7 91.79 8.8
2 -8 7 85.49 7.4
2 -8 7 89.59 8.7
-2 -8 -7 89.79 7.2
-2 -9 7 13.2 4.3
2 -9 -7 15.5 4.7
-2 -9 7 12.9 3.5
2 9 7 12.4 4.4
2 9 7 16.3 2.4
-2 9 -7 13.5 3.4
2 9 7 17.3 2.6
2 -9 7 6.2 3.7
-2 9 7 17.2 5.3
-2 -9 -7 16.9 4.2
-2 9 7 17.8 4.3
2 -9 7 18.3 4.5
2 10 7 9.7 1.7
2 10 7 8.5 3.8
-2 10 -7 6.6 2.9
2 -10 -7 5 3.7
2 10 7 8.6 1.8
-2 -10 7 10 2.9
-2 -10 7 9.3 3.9
-2 10 7 14.8 4
-2 -10 -7 12.6 4.3
-2 10 7 14.9 4.2
2 -10 7 8.8 4.2
-2 10 7 5.5 4
-2 -11 7 48.4 6.6
-2 -11 7 62.49 9.4
2 -11 -7 43.9 8.1
2 11 7 56.29 9
-2 11 -7 48.9 5.6
-2 11 7 64.39 7
-2 11 7 74.09 7
-2 -11 -7 56.69 9.7
2 -11 7 47.3 8.5
-2 11 7 84.79 9.9
2 -11 7 56.99 8.4
2 12 7 5.7 4.2
-2 12 -7 0.9 2.4
-2 -12 7 4.2 4
-2 12 7 1.2 3.2
-2 12 7 3.6 2.7
-2 -12 -7 5.7 3.3
-2 12 7 7.1 3
2 13 7 73.39 11.1
-2 -13 7 83.09 8.7
-2 13 -7 82.29 7
-2 13 7 74.49 7.8
-2 13 7 68.99 7.1
-2 13 7 93.99 13.6
2 14 7 13.7 6.7
-2 14 -7 13.9 3.6
-2 14 7 18.1 6.9
-2 14 7 11 4.3
-2 14 7 18.9 4.5
2 15 7 164.68 15.4
-2 15 -7 173.18 9.1
-2 15 7 149.99 12.1
-2 15 7 154.18 15.8
-2 15 7 163.68 10.3
-3 0 -7 0.5 0.9
3 0 7 0.1 0.8
-3 1 -7 40.2 3.8
3 1 7 44.4 3.5
-3 -1 -7 35.6 3.3
-3 1 7 35.5 3.6
3 -1 7 37.4 3.6
3 2 7 38.1 3.4
-3 -2 7 31.7 3
-3 2 -7 36.5 3.8
3 2 7 30.6 2.9
3 -2 -7 34.9 3.5
-3 2 7 33.4 3.8
3 -2 7 31.3 3.6
-3 -2 -7 33.9 3.2
3 3 7 592.94 14.1
-3 3 -7 574.94 15.3
-3 -3 7 596.64 12.8
3 -3 -7 576.24 15.6
3 3 7 599.44 12.3
-3 -3 -7 571.24 13.5
3 -3 7 588.84 15.8
3 -4 -7 6.5 2.2
-3 4 -7 5.5 2.3
-3 -4 7 5.6 1.7
3 4 7 5.5 1.4
3 4 7 5.7 1.8
-3 4 7 3.6 2.1
3 -4 7 2.1 1.5
-3 -4 -7 6.2 2
3 5 7 1133.49 23.6
-3 -5 7 1142.19 19.5
3 -5 -7 1176.28 26.1
3 5 7 1124.99 17.1
-3 5 -7 1159.78 24.3
3 -5 7 1130.99 27
3 -5 7 1179.38 25.4
-3 5 7 1133.99 27.1
-3 -5 -7 1126.19 21.2
-3 -5 -7 1178.68 22.6
3 6 7 214.38 6.1
3 -6 -7 216.98 11.4
-3 6 -7 205.48 10
-3 -6 7 210.18 7.9
3 6 7 219.98 10.5
3 6 7 212.58 6.4
3 -6 7 205.78 10.7
3 -6 7 224.38 12.3
-3 -6 -7 216.38 9.6
-3 -6 -7 205.38 8.8
-3 6 7 228.88 12.5
3 -7 -7 48.7 7.2
-3 -7 7 32.3 5.5
3 7 7 45.1 2.5
3 7 7 42.4 6
3 7 7 43.3 2.6
-3 7 -7 45 5
-3 -7 7 40 3.7
3 -7 7 24 5.1
-3 7 7 40.5 5.9
-3 -7 -7 46.7 4.9
3 -7 7 49.2 5.6
-3 7 7 44.2 6.8
-3 8 -7 484.95 16.5
-3 -8 7 510.95 16.9
-3 -8 7 465.55 18.2
3 -8 -7 443.86 18.4
3 8 7 483.95 18.1
-3 -8 -7 496.95 16.9
-3 8 7 495.45 20.7
-3 8 7 440.86 17.1
3 -8 7 486.45 18.2
3 -8 7 451.85 19.8
-3 9 -7 27.2 4.9
3 -9 -7 21.5 5.3
-3 -9 7 28.8 4.5
3 9 7 16.2 4.5
-3 -9 7 21.6 5.1
-3 9 7 24.4 5.1
3 -9 7 26.3 5.9
-3 9 7 29.9 6.8
-3 -9 -7 24.2 4.9
3 -9 7 27 5.6
-3 -10 7 211.28 10.4
3 10 7 203.68 13.3
-3 -10 7 213.18 13.8
-3 10 -7 211.38 11.4
3 -10 -7 190.68 13.4
3 -10 7 199.38 12.8
-3 10 7 251.27 16.4
-3 -10 -7 213.58 12.3
-3 10 7 218.38 12.6
-3 -11 7 7 2.9
-3 11 -7 5.9 3.2
3 11 7 7.3 3.8
-3 11 7 10.3 3.8
-3 -11 -7 10 3.8
-3 11 7 12.9 5.7
-3 -12 7 91.79 8.2
-3 12 -7 109.89 8.5
3 12 7 94.89 10.7
-3 -12 7 91.49 10.5
-3 -12 -7 109.09 10
-3 12 7 132.19 13.1
-3 12 7 105.29 9.1
-3 -13 7 113.19 9.6
-3 13 -7 105.79 8.8
3 13 7 107.69 11.6
-3 13 7 127.59 13.6
-3 13 7 117.59 10
-3 14 -7 -2 2.3
3 14 7 -2.9 3.8
-3 14 7 -2.7 4.1
-3 14 7 2.8 3.2
-3 14 7 8.1 4.5
3 15 7 2.7 4.9
-3 15 -7 25.3 4.9
-3 15 7 9.6 5.3
-3 15 7 8.9 6
-3 15 7 22.4 5.1
-4 0 7 0.1 0.9
4 0 7 1.7 1.4
-4 0 -7 0.4 1.1
4 1 7 178.98 7.1
-4 1 -7 191.08 8.3
-4 -1 -7 179.78 7.5
-4 1 7 174.48 7.8
4 -1 7 181.28 8.1
-4 2 -7 24.6 3.8
4 2 7 23.3 2.6
4 -2 -7 33 3.6
-4 2 7 33 3.8
4 -2 7 30.6 4.3
-4 -2 -7 35.2 3.3
-4 -3 7 123.19 5.6
-4 3 -7 115.49 7.1
4 3 7 117.49 5.9
4 -3 -7 104.69 6.6
4 3 7 112.69 4.9
-4 -3 -7 113.49 5.8
4 -3 7 118.79 8.7
-4 3 7 114.09 7.3
4 -4 -7 491.25 15.6
-4 4 -7 469.15 15
4 4 7 469.25 9.3
4 4 7 481.95 13.2
-4 -4 7 472.35 11.2
-4 -4 -7 491.05 12.5
4 -4 7 488.45 15.8
-4 4 7 492.45 16.6
4 -4 7 493.65 20.2
4 5 7 608.24 16.2
4 5 7 605.74 9
-4 -5 7 616.04 13.1
4 -5 -7 593.24 18.3
-4 5 -7 602.34 18.2
4 5 7 617.44 9.2
4 -5 7 599.34 19.7
4 -5 7 629.34 18.8
-4 -5 -7 602.04 14.4
-4 -6 7 135.19 6
4 6 7 136.69 8.2
-4 6 -7 148.89 9
-4 -6 7 131.89 8.3
4 -6 -7 128.39 9
-4 -6 -7 125.29 6.7
-4 -6 -7 138.69 7.4
-4 6 7 134.29 9.9
4 -6 7 122.99 8.6
4 -6 7 119.39 9.2
-4 -7 7 668.73 20.3
4 7 7 658.43 19.6
-4 -7 7 679.23 15
4 -7 -7 688.23 22.3
-4 7 -7 671.63 20
4 -7 7 684.63 21.8
-4 -7 -7 678.03 17
4 -7 7 676.53 23.3
-4 7 7 658.63 21
-4 -7 -7 695.73 18.4
-4 7 7 681.13 23.9
4 -8 -7 3 2.7
-4 8 -7 11.1 3.7
-4 -8 7 13.5 3.7
4 8 7 10.1 4
-4 -8 7 10.2 2.3
-4 8 7 17.6 4.6
-4 -8 -7 4.7 2.3
4 -8 7 12.7 3.9
4 -8 7 12.5 4.1
-4 8 7 1.7 2.7
-4 -9 7 35.7 6.2
-4 9 -7 37.9 6
4 9 7 42.3 6.9
-4 -9 7 38 4.3
-4 9 7 51.69 8.4
4 -9 7 46.1 7.3
-4 -9 -7 35.2 5.5
-4 9 7 55.59 7.8
4 10 7 44.7 7.4
-4 10 -7 47.4 7
-4 -10 7 41.5 4.8
-4 -10 7 39.6 7.3
-4 -10 -7 35.4 5.9
-4 10 7 40.5 8.4
4 -10 7 25.9 6.4
-4 10 7 43.5 7.1
4 11 7 32.6 6.8
-4 11 -7 34.1 6.2
-4 -11 7 31.3 5
-4 -11 7 24.5 6
-4 -11 -7 36.9 6.3
-4 11 7 31.1 7.5
-4 11 7 33 6.8
-4 12 -7 23.2 5.4
-4 -12 7 19.1 4.3
-4 -12 7 27.1 6.8
4 12 7 33.6 7.2
-4 12 7 22 6.9
-4 -12 -7 15 4.4
-4 12 7 17.3 5.4
-4 -13 7 143.29 12.5
-4 13 -7 162.48 11.3
4 13 7 183.98 14.7
-4 13 7 175.38 16.1
-4 13 7 157.78 12
-4 -14 7 2.4 5.4
-4 14 -7 11.1 4.1
4 14 7 9.9 6
-4 14 7 24 5.5
-4 14 7 10.2 6.4
4 15 7 34.3 8.2
-4 15 -7 19.3 4.9
-4 15 7 33.3 6.4
-4 15 7 33.9 9.2
-5 0 -7 0.8 1.2
-5 0 7 1.3 1.1
5 0 7 -1.4 1
5 1 7 0.7 1.2
-5 -1 7 -0.1 0.9
-5 1 -7 0.6 1.3
-5 1 7 1.9 1.2
-5 -1 -7 1 1.3
5 -1 7 0.3 1
5 -2 -7 471.65 13.7
-5 2 -7 461.75 14.4
5 2 7 477.75 11.2
5 -2 7 454.35 14.3
-5 2 7 463.85 14.5
-5 -2 -7 472.35 12.5
5 3 7 1443.06 22.9
5 -3 -7 1450.55 27.4
5 3 7 1462.55 19.8
-5 3 -7 1435.76 28.2
-5 -3 -7 1432.66 23.7
5 -3 7 1443.66 28.5
-5 3 7 1483.75 29.4
5 -3 7 1449.65 28.9
-5 4 -7 774.92 21.5
5 4 7 802.12 17
-5 -4 7 796.02 15.4
5 -4 -7 807.82 21
5 -4 7 786.92 21.2
5 -4 7 792.52 21.9
-5 4 7 833.62 22.5
-5 -4 -7 835.02 16.8
-5 -5 7 11.5 2.1
5 5 7 10 2.4
-5 5 -7 7 2.8
5 -5 -7 15.8 3.9
-5 5 7 10.4 3.1
5 -5 7 8 3
5 -5 7 8.1 3.2
-5 -5 -7 8.8 2.1
-5 -6 7 72.79 4.4
5 6 7 73.49 5.8
5 -6 -7 78.59 7.4
-5 -6 7 77.39 6.3
-5 6 -7 78.99 7.1
-5 6 7 82.79 8
5 -6 7 88.29 7.7
-5 -6 -7 87.09 5.5
5 -6 7 73.59 7.5
-5 -7 7 124.69 8.4
-5 7 -7 134.79 9.3
-5 -7 7 129.29 6
5 -7 -7 119.29 9.4
5 7 7 120.09 8.1
-5 7 7 120.89 10.3
-5 -7 -7 126.49 7.4
-5 7 7 113.79 9.1
-5 -7 -7 137.89 7.1
5 -7 7 121.09 9.5
5 -7 7 120.19 10
-5 -8 7 331.57 10.3
-5 -8 7 352.06 15.2
5 -8 -7 347.47 16.8
-5 8 -7 324.17 14.9
5 8 7 355.06 14.8
-5 8 7 344.67 16.3
-5 -8 -7 355.66 12.5
5 -8 7 333.67 17.4
-5 -8 -7 339.17 13
5 -8 7 355.16 19.2
-5 8 7 340.77 17.9
-5 -9 7 34.1 6.1
-5 9 -7 32 6
5 -9 -7 32.9 6.6
5 9 7 41.1 6.6
5 -9 7 35.8 7.7
-5 9 7 20.1 5
5 -9 7 40.8 7
-5 -9 -7 28.3 4.8
-5 9 7 36.9 7.4
-5 -10 7 250.67 14.3
5 10 7 267.87 14.4
-5 -10 7 261.17 10.5
-5 10 -7 274.37 14.5
-5 -10 -7 256.87 12.8
-5 10 7 271.17 15.2
-5 10 7 246.98 17
-5 -11 7 164.28 12.5
-5 11 -7 164.98 11.7
5 11 7 165.58 12
-5 -11 7 168.88 9.2
-5 11 7 176.08 15
-5 11 7 162.78 12.5
-5 -11 -7 167.38 10.9
5 12 7 7.8 4.4
-5 -12 7 19.1 5
-5 12 -7 8 3.9
-5 -12 7 4.5 2.9
-5 -12 -7 4.7 3.7
-5 12 7 14.2 5.9
-5 12 7 7.7 4.3
5 13 7 62.49 9.8
-5 -13 7 60.39 6.7
-5 13 7 63.29 9.3
-5 -13 -7 51.29 8.1
-5 13 7 55.09 10.5
5 14 7 19 5.8
-5 -14 7 21 4.4
-5 14 -7 18.8 5.1
-5 14 7 23.8 5.5
-5 14 7 17.6 7.2
-5 15 -7 14.1 4.6
5 15 7 5.3 5.7
-5 15 7 15.1 5.7
-5 15 7 -5.5 3.6
-6 0 7 -1 0.9
6 0 7 -1.6 1
-6 0 -7 0.9 1.3
-6 1 -7 91.59 6.5
6 1 7 89.09 5.3
-6 -1 7 94.19 5.5
-6 -1 -7 77.79 5.4
6 -1 7 90.69 6.2
-6 1 7 85.79 5.9
-6 2 -7 90.19 6.7
6 -2 -7 89.19 6.1
6 2 7 85.29 4.5
-6 2 7 91.79 6.6
6 -2 7 93.89 6.7
-6 -2 -7 97.49 5.9
6 3 7 825.72 15.9
6 3 7 805.12 11.9
6 -3 -7 834.52 21.1
-6 3 -7 779.42 25
6 -3 7 836.02 21.6
-6 -3 -7 839.82 17.5
6 -3 7 813.12 21.3
-6 3 7 818.32 21.7
6 4 7 221.08 8.3
6 -4 -7 228.28 11
-6 4 -7 245.38 11.8
-6 4 7 200.38 13.7
-6 -4 -7 234.38 8.7
6 -4 7 226.38 11.6
6 -4 7 228.38 11.6
-6 5 -7 12.9 3.6
6 5 7 17.6 3.1
-6 -5 7 10 2.2
6 -5 -7 13.4 3.6
-6 5 7 11.8 3.9
6 -5 7 11.4 3.7
6 -5 7 3.6 2.7
-6 -5 -7 14.4 2.7
-6 -6 7 64.09 4.1
-6 -6 7 66.89 5.8
6 -6 -7 70.99 7.1
-6 6 -7 76.99 7.3
6 6 7 68.59 5.6
6 -6 7 70.29 7.5
-6 6 7 79.19 8.2
-6 -6 -7 71.69 4.9
-6 6 7 63.79 6.9
6 -6 7 66.19 8.5
6 -7 -7 141.19 10.4
6 7 7 122.29 7.8
-6 7 -7 142.39 10
-6 -7 7 129.99 5.8
-6 7 7 111.89 9.4
-6 7 7 106.79 10
6 -7 7 129.19 10.6
-6 -7 -7 123.59 6.8
6 -7 7 144.29 10.5
6 8 7 99.89 7.7
-6 8 -7 92.19 8.4
6 -8 -7 83.39 9
-6 -8 7 103.19 8.1
-6 -8 7 94.99 5.2
6 -8 7 87.59 10.1
6 -8 7 83.29 8.9
-6 -8 -7 92.29 6.5
-6 8 7 91.89 8.9
-6 -8 -7 97.59 6.3
-6 8 7 84.09 9.4
-6 9 -7 333.77 16.1
-6 -9 7 314.57 10.2
6 9 7 323.67 14.4
-6 -9 7 291.77 14.3
6 -9 -7 262.27 15.8
-6 9 7 312.17 16.7
-6 -9 -7 315.67 12.9
-6 9 7 290.77 17.8
6 -9 7 314.17 17.9
6 10 7 8.5 3.4
-6 -10 7 12.2 3.6
-6 10 -7 15.9 4.6
-6 -10 7 3.6 2.1
-6 10 7 4 4
-6 10 7 7.1 4
-6 -10 -7 13.1 3.5
-6 -11 7 86.09 6.4
6 11 7 89.99 9
-6 -11 7 91.79 9.1
-6 11 -7 111.59 10.1
-6 11 7 94.59 13.3
-6 11 7 100.59 10.3
-6 -11 -7 82.99 7.7
-6 -12 7 29.7 7
6 12 7 34.9 7.1
-6 12 -7 30.7 6.7
-6 -12 7 36.2 5.2
-6 12 7 33 8.3
-6 12 7 39 7.6
-6 -12 -7 30.9 6.2
6 13 7 105.69 10.7
-6 13 -7 103.49 10.3
-6 -13 7 99.19 7.5
-6 -13 7 90.39 13.7
-6 -13 -7 95.99 9.2
-6 13 7 83.99 13.2
-6 -14 7 -1 2.8
-6 14 -7 -0.8 2.9
6 14 7 0.4 3.4
-6 14 7 4.8 5.2
-6 14 7 6.8 4.3
7 0 7 3.4 1.8
-7 0 -7 0.8 1.4
-7 0 7 1 1.3
-7 1 -7 484.75 15.7
7 1 7 497.05 12.7
-7 -1 7 500.85 13.2
-7 1 7 518.15 15.2
-7 -1 -7 508.75 14.9
7 -1 7 493.25 15.1
7 -2 -7 113.19 7
-7 -2 7 125.79 6.2
7 2 7 122.59 5.1
-7 2 7 117.49 7.7
-7 -2 -7 120.29 6.8
7 -2 7 118.09 7.8
7 -2 7 120.19 7.6
7 3 7 575.54 12.6
7 -3 -7 613.54 17.5
-7 3 -7 598.64 18.9
-7 -3 -7 602.84 15.2
7 -3 7 598.54 19.2
7 -3 7 605.14 18.9
-7 3 7 585.74 18.6
-7 4 -7 689.33 21.2
7 4 7 732.63 15.1
7 -4 -7 744.63 20.7
7 -4 7 729.33 21.9
-7 -4 -7 704.23 16.3
-7 4 7 749.42 22.4
7 -4 7 738.33 22
7 5 7 20 3.1
-7 5 -7 20.6 4.6
7 -5 -7 26.4 5
7 -5 7 32.3 6
-7 5 7 35.5 6.3
7 -5 7 25.5 5.3
-7 -5 -7 23.2 3.5
-7 -6 7 528.15 12
-7 -6 7 554.04 16
-7 6 -7 530.75 19.6
7 6 7 542.05 14.9
7 -6 -7 510.35 19.2
-7 6 7 496.45 19.8
-7 6 7 501.15 20.4
7 -6 7 492.75 20.2
-7 -6 -7 501.15 13.4
7 -6 7 536.05 20.2
-7 -7 7 379.96 14.1
-7 7 -7 384.16 17.2
7 -7 -7 373.36 17.3
7 7 7 380.76 13.2
-7 -7 7 377.36 10
-7 7 7 360.46 18.2
-7 -7 -7 376.06 11.7
7 -7 7 346.97 17.3
7 -7 7 383.06 18.6
-7 7 7 363.96 17.4
-7 8 -7 123.69 10.1
-7 -8 7 115.09 5.6
7 8 7 138.79 8.4
-7 -8 7 105.79 8
7 -8 -7 123.09 10.6
-7 8 7 139.49 12
7 -8 7 138.39 20.6
7 -8 7 130.29 11.7
-7 8 7 128.59 11
-7 -8 -7 121.89 6.9
-7 -9 7 -1.2 1.1
-7 9 -7 0.8 2.1
-7 -9 7 -2.4 2
-7 9 7 -4 1.8
-7 -9 -7 3.4 1.7
-7 9 7 -0.9 2.4
7 -9 7 3.8 3.2
-7 -10 7 -1.3 2.6
7 10 7 -2.1 2.2
-7 10 7 3.8 3.3
-7 -10 -7 -3.1 1.4
-7 10 7 -0.1 2.6
-7 11 -7 88.09 9.4
-7 -11 7 85.59 8.9
7 11 7 79.79 8.3
-7 -11 7 90.79 6.1
-7 11 7 84.49 11.5
-7 -11 -7 76.99 7
7 12 7 71.19 8.3
-7 12 -7 69.09 11.2
-7 -12 7 82.89 6.6
-7 -12 7 89.49 12.4
-7 -12 -7 65.59 7
-7 12 7 81.89 12.9
-7 12 7 56.29 11.3
-7 13 -7 -2.7 2.7
-7 -13 7 8 2.8
7 13 7 -2.9 2.4
-7 -13 7 9.5 4.1
-7 13 7 -4.4 2.5
-7 -13 -7 1.2 2.9
-7 13 7 2 4.2
7 14 7 45.2 8.1
-7 14 -7 49.99 8.4
-7 14 7 34 8.6
-7 14 7 69.69 12.4
8 0 7 -0.5 1.1
8 0 7 0.6 1.5
-8 0 -7 0.3 1.5
-8 0 7 -0.7 1.1
8 1 7 207.68 7.9
-8 -1 7 204.68 8.5
-8 1 7 209.88 9.8
-8 -1 -7 213.28 10
8 -1 7 218.38 9.8
-8 -2 7 561.94 13.6
8 2 7 543.55 11.6
-8 2 -7 547.25 18.3
-8 2 7 542.05 17.2
-8 -2 -7 556.54 15.8
8 -2 7 536.25 17.2
8 -2 7 526.45 16.6
-8 -3 7 261.27 8.7
8 -3 -7 259.67 11.5
8 3 7 257.97 7.7
-8 3 -7 264.77 13
-8 3 7 244.38 12.2
-8 -3 -7 253.97 10.1
8 -3 7 273.87 12.7
8 -3 7 269.97 12.7
8 -4 -7 44.7 6.2
8 4 7 50.59 3.6
-8 4 -7 33.9 6
8 -4 7 45.4 6.9
-8 4 7 49.6 7.1
-8 -4 -7 44.4 4.3
8 -4 7 41.4 6.4
8 5 7 129.09 6.1
-8 5 -7 128.49 9.9
8 -5 -7 137.09 9.5
8 -5 7 132.89 10.3
-8 5 7 139.19 10.7
8 -5 7 132.39 10
-8 -5 -7 130.39 6.9
8 -6 -7 287.77 14.6
-8 6 -7 259.87 14.5
-8 -6 7 265.07 10.6
8 6 7 275.07 9.7
8 -6 7 246.68 14.4
-8 6 7 268.67 15.1
-8 -6 -7 269.07 9.8
-8 6 7 268.07 15.2
8 -6 7 245.78 14.4
8 7 7 259.97 10.1
8 -7 -7 271.57 14.9
-8 7 -7 267.57 14.9
-8 -7 7 268.37 11.4
-8 -7 7 261.57 8.2
8 -7 7 249.28 15.1
-8 -7 -7 254.67 9.6
-8 7 7 226.38 14.6
8 -7 7 226.88 14.2
-8 7 7 256.37 15.3
-8 -8 7 4 1.6
-8 8 -7 1.4 2.8
8 -8 -7 12.6 4
8 8 7 7.7 2.5
8 -8 7 3.6 3.6
-8 -8 -7 11.1 2.8
-8 8 7 3.5 3.2
-8 8 7 5.4 3.6
-8 -9 7 11 3.5
-8 -9 7 8.8 2
-8 9 -7 8.3 3.8
8 9 7 5.2 2.7
-8 9 7 3.2 4.1
-8 9 7 12.9 5
-8 -9 -7 13.7 2.8
-8 -10 7 166.48 7.2
8 10 7 189.88 12.3
-8 -10 7 199.88 11.7
-8 10 -7 183.58 13.4
-8 10 7 168.68 13.7
-8 -10 -7 194.68 9.6
-8 10 7 171.38 15.1
-8 -11 7 -3.2 1.5
8 11 7 -0.1 2
-8 -11 7 -0.3 2.9
-8 11 7 0.1 3.6
-8 11 7 -7.3 2.4
-8 -12 7 0.5 3.1
-8 -12 7 3.6 2.2
8 12 7 -2.2 2.2
-8 12 -7 -1.4 2.8
-8 12 7 2.9 3.1
-8 -12 -7 4.1 2.5
-8 12 7 7.1 5.1
8 13 7 8.6 3.9
-8 13 -7 6.7 4.2
-8 -13 7 -3 4
-8 -13 7 3.2 2.6
-8 13 7 6.5 4.5
-8 13 7 0.4 3.8
-8 -14 7 36.1 6.3
8 14 7 34.1 7.2
-8 -14 -7 33.5 5.8
-8 14 7 52.89 11
-8 14 7 39.5 8.8
-9 0 7 0.4 1.1
9 0 7 -2.7 0.9
-9 0 -7 -1.8 1.7
-9 1 -7 194.58 10.9
9 1 7 185.58 7.6
-9 -1 7 190.08 8.3
9 -1 7 180.58 9.1
-9 -1 -7 187.78 9.8
9 -1 7 192.48 10.7
-9 1 7 169.98 9.2
-9 -2 7 115.99 6.1
9 2 7 125.19 5
-9 2 -7 109.39 8.5
9 2 7 120.69 5.5
-9 -2 -7 125.29 7.8
9 -2 7 118.39 8
-9 2 7 119.19 8.3
9 -2 7 112.19 8
-9 -3 7 0.8 1.1
9 3 7 1.8 1
9 -3 -7 3 1.7
-9 3 -7 1.9 2.3
-9 -3 -7 4.9 2
9 -3 7 -2.7 1.5
9 -3 7 2.6 2.3
-9 3 7 2.5 1.9
9 -4 -7 361.66 14.7
9 4 7 336.97 8.2
-9 4 -7 348.97 16.2
-9 -4 7 336.07 9.7
-9 4 7 354.46 16
9 -4 7 355.16 15.7
9 -4 7 356.66 15.8
-9 -4 -7 341.17 12
9 -5 -7 322.97 14.8
-9 5 -7 325.27 16.2
9 5 7 321.87 8.4
-9 -5 7 338.27 10.8
9 -5 7 312.87 15.7
9 -5 7 310.17 15.5
-9 5 7 325.57 16.6
-9 -5 -7 323.67 11.3
-9 5 7 316.87 16.1
-9 -6 7 36.4 4
9 6 7 40.8 3.4
-9 6 -7 43.9 7.6
9 -6 -7 48.4 7.4
9 -6 7 55.09 8.4
-9 -6 -7 36 4.1
-9 6 7 44.9 7.8
-9 6 7 37.5 7.1
9 -6 7 53.49 8.3
-9 7 -7 16.8 5.2
9 -7 -7 27.1 6.1
-9 -7 7 17.5 2.8
9 7 7 23 3.2
-9 -7 7 24.1 4
9 -7 7 24.8 5.8
-9 -7 -7 19.9 3.4
-9 7 7 18.1 5
-9 7 7 20.3 5.8
9 8 7 31.1 4.3
-9 -8 7 27.8 3
-9 8 -7 32.8 7
-9 -8 7 38.4 5.3
9 -8 -7 43 7.9
-9 8 7 32 7.3
9 -8 7 33.5 7
-9 -8 -7 31.9 4.3
-9 8 7 33.3 7.4
-9 -9 7 2.3 1.4
9 9 7 -0.1 1.7
-9 9 -7 -0.9 2.6
-9 -9 7 -2.6 1.7
-9 9 7 -2.8 2.3
-9 -9 -7 3.1 1.8
-9 9 7 -0.6 3
-9 -10 7 62.99 4.5
9 10 7 64.89 5.8
-9 10 -7 68.79 12.4
-9 -10 7 74.39 7.4
-9 10 7 73.19 15.7
-9 -10 -7 73.39 5.9
-9 10 7 72.09 11.1
-9 -11 7 3.2 2.8
-9 11 -7 -2 3.2
9 11 7 5.8 2.7
-9 -11 7 10.2 2.3
-9 11 7 2.1 4.3
-9 11 7 -0.9 3
-9 -12 7 234.48 13.5
-9 12 -7 225.38 16.4
-9 -12 7 206.18 9.3
9 12 7 224.78 12.4
-9 12 7 271.97 20.9
-9 12 7 210.18 16.7
-9 -13 7 94.39 7
-9 13 -7 123.89 12.4
-9 13 7 97.29 13.5
-9 13 7 87.99 14.2
-10 0 -7 -1 1.8
-10 0 7 2.7 1.6
10 0 7 1 1.4
10 1 7 -0.8 1
-10 1 -7 -0.6 2.2
-10 -1 7 0.3 1.2
-10 1 7 -1.1 1.2
10 -1 7 -0.2 1.5
-10 -1 -7 9.3 3.2
-10 -2 7 238.68 8.6
10 2 7 221.18 6.8
-10 2 -7 218.28 12.5
10 2 7 223.58 6.2
-10 -2 -7 245.58 11.7
-10 2 7 202.38 11
10 3 7 12.2 1.4
-10 -3 7 15.2 2.6
10 3 7 18.1 1.5
-10 3 -7 13.9 4.2
10 -3 -7 14.3 3.5
-10 -3 -7 18 3.9
10 -3 7 22.1 4.8
10 -3 7 19.5 4.3
-10 3 7 14.5 4
10 -4 -7 4 2.2
-10 -4 7 3.2 1.2
-10 4 -7 5.7 3
10 -4 7 2.5 3.1
10 -4 7 3.9 2.5
-10 -4 -7 0.6 1.8
-10 4 7 -1.7 1.7
-10 -5 7 15 2.3
10 -5 -7 11.4 3.6
-10 -5 7 12.2 2.3
-10 5 -7 9 4.1
-10 -5 -7 13.7 3.2
-10 5 7 21.8 5.8
-10 5 7 14.3 4.5
10 -5 7 16.3 4.7
10 -6 -7 159.88 11.3
-10 -6 7 167.38 7.2
-10 6 -7 175.68 13
-10 -6 7 164.48 6.4
-10 6 7 163.58 12.8
-10 6 7 165.38 12.7
10 -6 7 164.38 12.1
10 -6 7 152.18 12.1
-10 -6 -7 165.68 8.3
-10 7 -7 114.39 10.9
-10 -7 7 102.69 6.1
10 -7 -7 106.69 9.7
-10 7 7 133.59 12.1
10 -7 7 106.09 10.5
-10 -7 -7 106.19 6.5
-10 7 7 97.19 10.7
-10 8 -7 140.09 12.4
-10 -8 7 124.19 5.8
-10 -8 7 129.39 7.2
-10 8 7 116.99 11.6
-10 -8 -7 135.39 7.3
-10 8 7 98.19 10.8
-10 -9 7 12.2 2.3
-10 9 -7 0.7 3.2
-10 -9 7 11.8 3.1
-10 -9 -7 3.7 2.2
-10 9 7 3.5 4
-10 9 7 9.7 5.5
-10 -10 7 8.4 2.1
-10 10 -7 13.5 5
-10 -10 7 9.3 3
-10 -10 -7 3.2 2
-10 10 7 15.3 6
-10 10 7 7 4.6
-10 11 -7 -4.4 3.1
-10 -11 7 -2.9 2.1
-10 11 7 0.9 4.5
-10 11 7 6.7 4.9
-10 -12 7 3.5 2.4
-10 12 -7 5.8 4.7
-10 -12 7 7.7 3.5
-10 12 7 9.2 5.8
-10 12 7 11.4 5.3
-11 0 -7 2.2 2.3
-11 0 7 -0.6 1
11 0 7 -0.8 1.2
11 1 7 31.1 3
-11 -1 7 30.2 3.5
-11 1 -7 28.7 5.7
11 -1 7 29.8 4.5
-11 -1 -7 30.3 5.3
-11 1 7 35.7 5.2
-11 2 -7 182.98 12.1
-11 -2 7 191.18 7.6
11 2 7 187.38 4.1
11 2 7 197.68 4.5
-11 -2 -7 207.38 11.1
11 -2 7 199.98 10.8
-11 2 7 208.38 13.2
-11 -3 7 43.4 3.3
-11 3 -7 52.39 8.1
11 -3 -7 51.19 5.8
-11 -3 -7 43.6 7.1
11 -3 7 43.7 6.3
-11 3 7 41.9 6.4
-11 -4 7 2.1 1
11 -4 -7 1.7 2.1
-11 4 -7 2.6 2.8
-11 4 7 4.9 3.2
-11 -4 -7 3.2 1.9
-11 4 7 0.4 2
11 -4 7 0.4 2.3
-11 5 -7 121.39 11
-11 -5 7 129.79 4.4
11 -5 -7 154.98 10.7
-11 -5 7 142.39 4.8
-11 5 7 122.99 11.3
11 -5 7 113.89 10.3
-11 -5 -7 134.99 8.1
-11 5 7 150.08 11.5
11 -6 -7 255.17 14.8
-11 6 -7 266.87 16.3
-11 -6 7 244.78 6.1
-11 -6 7 238.48 6.4
11 -6 7 235.98 15.5
-11 6 7 228.88 15.1
-11 -6 -7 234.78 10.3
-11 6 7 231.78 15.8
-11 7 -7 1.5 3.3
11 -7 -7 -0.4 3.3
-11 -7 7 0.3 0.9
-11 -7 7 -0.1 0.8
-11 -7 -7 1.1 1.5
-11 7 7 -2.8 2.3
-11 7 7 2.1 3.3
11 -7 7 -1.5 3.9
-11 -8 7 7.7 1.6
-11 -8 7 4.8 1.4
-11 -8 7 7.8 2.1
-11 8 -7 8.4 4.6
-11 8 7 3.9 3.9
-11 8 7 7.4 4.5
-11 -8 -7 8 2.4
-11 -9 7 15 2.8
-11 9 -7 12.5 5.7
-11 -9 7 16.7 2.8
-11 -9 -7 14.2 3.2
-11 9 7 15.5 6
-11 -10 7 77.79 4.7
-11 10 -7 85.29 12
-11 -10 7 89.39 5.9
-11 -10 -7 95.39 6.8
-11 10 7 97.29 13.5
-11 10 7 97.09 14.3
-11 -11 7 1.9 1.7
-11 11 -7 4.8 3.6
-11 -11 -7 2.5 2.3
-11 11 7 11.8 6.1
-11 11 7 1.8 4.3
-11 12 -7 10.9 6.2
-11 -12 7 22.6 4.7
-11 -12 7 12.6 3.2
-11 12 7 13.8 6.2
-11 12 7 25.4 7.4
-12 0 -7 -3.5 2.3
-12 0 7 1.3 1.4
12 0 7 -0.4 1.3
-12 1 -7 61.79 8.7
12 1 7 65.89 3.4
12 1 7 62.49 2.9
-12 -1 7 65.89 4.8
-12 -1 -7 71.79 7.4
-12 1 7 65.29 6.1
12 -1 7 63.09 5.5
-12 -2 7 23 2.5
-12 2 -7 20.6 5.5
-12 -2 -7 25.2 4.9
12 -2 7 34.9 5.3
-12 2 7 30.6 6.2
-12 3 -7 69.69 9.6
-12 -3 7 78.59 3
12 -3 7 96.89 8.3
-12 -3 -7 77.39 7
-12 3 7 89.79 8.1
-12 3 7 96.99 9.9
-12 4 -7 132.19 11.2
12 -4 -7 142.69 9.7
12 -4 7 157.28 10.9
-12 4 7 131.19 11.6
-12 4 7 144.39 10.7
-12 -4 -7 143.49 9
12 -5 -7 4.8 2.8
-12 5 -7 5.4 3.9
-12 5 7 12.8 4.4
-12 5 7 3.5 3.1
12 -5 7 2.8 3.6
-12 6 -7 258.27 17.2
12 -6 -7 264.17 15
12 -6 7 297.37 16.9
-12 6 7 281.37 16.9
-12 -6 -7 285.47 11.9
-12 6 7 323.37 19.1
-12 7 -7 381.36 20.7
-12 7 7 325.07 19.2
-12 7 7 365.46 21
-12 -7 -7 357.46 13.1
-12 8 -7 46 9.1
-12 8 7 45.5 9.2
-12 8 7 56.19 10.6
-12 -8 -7 53.79 5.3
-12 -9 7 10.1 2.5
-12 9 -7 13.4 6.2
-12 9 7 27.1 7.9
-12 9 7 19.8 6.8
-12 -9 -7 17.5 3.5
-12 -10 7 13.2 2.4
-12 10 -7 15.8 6
-12 10 7 14.8 5.9
-12 10 7 17.8 7.2
-12 -10 -7 10.2 3
-12 -11 7 111.89 5.6
-12 11 -7 132.09 14.1
-12 -11 7 126.19 4.3
-12 11 7 120.19 16.8
-12 -11 -7 128.19 8.2
-12 11 7 99.49 14.1
-13 0 -7 -0.2 2.2
-13 0 7 0 1.1
13 0 7 -0.2 1.1
-13 -1 7 33.7 3.2
-13 1 -7 24.6 5.9
13 -1 7 26.9 4.1
-13 1 7 28.1 4.6
-13 -1 -7 24.3 5.4
-13 2 -7 38.9 7.1
-13 -2 7 45.4 2.3
-13 2 7 47.4 8.1
-13 2 7 50.49 5.8
-13 -2 -7 40.6 6.7
13 -2 7 47.5 5.4
-13 3 -7 12.6 4.9
-13 -3 -7 14.8 4.3
-13 3 7 11.2 4.8
-13 3 7 12.9 4
13 -3 7 8.9 3.7
-13 4 -7 378.46 20
13 -4 -7 359.16 15.6
-13 4 7 399.06 20.9
-13 4 7 363.56 17.1
13 -4 7 374.26 17
-13 -4 -7 384.06 15.5
-13 -5 -7 44 6.2
-13 5 7 45.3 7.7
13 -5 7 40.1 7.4
-13 5 7 26 8.3
-13 6 -7 5.3 4.2
13 -6 -7 1.1 3.7
-13 6 7 20.1 5.6
-13 6 7 12.6 5.4
13 -6 7 8.5 4.6
-13 -6 -7 14.9 3.7
-13 7 -7 0.6 4
-13 7 7 -4.7 3.1
-13 7 7 1 3.6
-13 -7 -7 3.9 2.5
-13 8 -7 -1.7 3.2
-13 8 7 -2.6 3.2
-13 -9 7 10.2 2.6
-13 9 -7 17 6.5
-13 9 7 12.1 6.2
-13 9 7 6.2 5.3
-13 -9 -7 14.9 3.5
-13 10 -7 83.19 12.6
-13 -10 -7 70.39 6.2
-13 10 7 76.59 13.1
-13 10 7 66.79 12.1
-14 0 7 2.2 3
14 0 7 0.5 0.6
-14 0 7 0.8 1.4
-14 0 -7 -0.8 2.3
-14 1 -7 24.3 6.1
-14 1 7 25.8 6.4
-14 -1 -7 9.1 3.9
14 -1 7 21.1 3.4
-14 1 7 18.5 3.8
-14 2 -7 37 7.6
-14 2 7 53.09 6.9
-14 -2 -7 50.19 7.5
14 -2 7 59.19 9.4
-14 2 7 45.9 8.5
-14 3 -7 35.1 7.6
14 -3 7 27.3 5
-14 3 7 30.5 5.9
-14 3 7 21.5 6.1
-14 -3 -7 32.5 6.1
-14 4 -7 31.9 7.4
-14 -4 -7 36.1 5.9
-14 4 7 37.8 6.6
14 -4 7 38.3 6.2
-14 4 7 28.2 8.5
-14 5 -7 10.4 5.4
14 -5 -7 16.6 4.5
-14 5 7 17.2 5.5
-14 -5 -7 13.3 3.6
14 -5 7 5.7 4.8
-14 5 7 16.2 5.9
-14 6 -7 -4.1 2.7
-14 -6 -7 9.2 3
-14 6 7 -5 2.2
-14 6 7 -3.6 2.8
14 -6 7 2.4 4.3
-14 7 -7 32.5 8.3
-14 7 7 19.7 6.3
-14 7 7 42.1 9.3
-14 -7 -7 27.3 5
-14 8 -7 68.49 11.5
-14 -8 -7 74.19 6.8
-14 8 7 57.69 11.1
-14 8 7 88.39 12.5
-15 0 -7 0.2 3
-15 0 7 -0.3 3
-15 1 -7 39.4 7.7
-15 -1 7 30.6 6.8
15 -1 7 41.1 3.4
-15 1 7 29.9 6.7
-15 -1 -7 44.8 7.9
-15 1 7 39.1 4.5
-15 -2 7 11.5 4.3
-15 2 -7 12.5 7
-15 -2 -7 14.2 5
-15 2 7 12.4 3.7
15 -2 7 10.5 3.6
-15 2 7 12.1 5.3
-15 3 -7 4.1 3.7
15 -3 7 13.1 4
-15 -3 -7 7 3.6
-15 3 7 15 4
-15 3 7 16.3 5.8
-15 4 -7 64.09 10.9
-15 -4 -7 66.09 7.7
15 -4 7 46.8 7.2
-15 4 7 49.6 9.5
-15 4 7 52.09 7.6
-15 5 -7 -1.6 3.3
-15 5 7 0.1 3.4
-15 -5 -7 2.4 2.4
15 -5 7 -3.5 3.2
-15 5 7 -1.1 3.2
-15 6 -7 7.9 5.3
-15 6 7 3.6 3.9
-15 -6 -7 0.6 2.7
-15 6 7 -0.8 3.8
-16 0 -7 4.9 4.2
-16 0 7 -1.2 3.2
-16 1 -7 6.8 4.3
-16 -1 7 7.3 4.2
-16 1 7 11.2 5.8
-16 -1 -7 5.8 4.5
-16 2 -7 95.59 11.2
-16 -2 7 101.89 10
16 -2 7 87.09 5.7
-16 2 7 97.29 13.1
-16 -2 -7 98.29 10
-16 -3 7 5.4 4.2
-16 3 -7 9.5 5.2
16 -3 7 6.1 3.7
-16 -3 -7 9.5 4.4
-16 3 7 0.5 4.7
-16 4 -7 11.2 5.3
-16 -4 7 5.4 4.1
-16 4 7 -2.1 2.3
-16 -4 -7 16.9 4.7
-16 4 7 18.5 6.3
16 -4 7 2.3 3.9
0 0 -8 2123.59 30.8
0 0 8 2171.58 30.8
0 1 8 1.7 1.2
0 -1 8 -1 0.6
0 -1 -8 -0.2 0.6
0 1 -8 0.7 1
0 -2 8 59.79 4.4
0 2 -8 56.99 4.2
0 -2 -8 61.89 4.7
0 2 8 63.69 4.6
0 3 8 0.7 1.4
0 3 -8 0.1 1
0 3 8 1.7 1.3
0 -3 8 1.5 1.3
0 4 -8 1546.75 25.4
0 -4 -8 1614.94 28.5
0 -4 8 1587.54 26.7
0 4 8 1593.34 26.7
0 4 8 1545.15 29.2
0 5 -8 0.7 1.1
0 5 8 -0.8 1.1
0 5 8 -1.3 0.6
0 -5 -8 0.7 1.3
0 -5 8 1 1.3
0 6 8 202.78 9
0 6 8 200.08 17
0 -6 8 225.68 9.9
0 6 -8 213.98 8.6
0 -6 8 230.38 12
0 -6 -8 211.38 10.6
0 7 -8 1 1.3
0 -7 8 -1.9 1.6
0 -7 8 0.5 1.4
0 7 8 0.7 1.4
0 -7 -8 1.9 1.7
0 7 8 0.7 1.5
0 7 8 0.2 1.7
0 8 8 56.79 8.3
0 -8 8 49.5 7.5
0 8 8 46 6.5
0 -8 8 47.2 6.6
0 -8 -8 63.39 6.5
0 8 8 49.5 5.1
0 8 -8 49.9 4.4
0 9 8 2.5 2
0 -9 8 4.4 2.6
0 9 8 -0.2 2.2
0 9 8 -1.4 1.3
0 -9 -8 5.1 2.7
0 9 -8 0.1 1.3
0 -9 8 -0.7 2.3
0 10 8 170.98 13
0 -10 8 169.68 10.9
0 10 -8 170.28 8
0 10 8 168.18 13.7
0 -10 8 167.18 17.7
0 10 8 179.08 9.3
0 -10 -8 149.49 13.3
0 11 -8 -0.1 1.4
0 11 8 1.6 2.8
0 -11 8 2.5 2.8
0 11 8 0 2.2
0 -11 8 -1.6 1.5
0 -11 -8 3.3 2.5
0 12 8 266.27 16.6
0 -12 8 229.68 14
0 12 -8 262.67 9.2
0 12 8 269.27 11.3
0 12 8 252.67 17.3
0 13 -8 0 1.1
0 13 8 1.8 3.3
0 14 8 3.3 3.6
0 14 8 2.2 2.4
0 14 8 5.8 2.5
0 15 8 0.6 1.5
0 15 8 5.9 4.1
0 15 8 -1.4 1.4
-1 0 8 228.28 8.4
1 0 8 245.38 8.6
1 0 -8 232.68 8.6
-1 1 -8 9.4 2.2
-1 -1 8 17.5 2.8
1 1 8 11.9 2.4
1 -1 8 11.1 2.3
1 1 -8 9.7 2.1
-1 1 8 14.2 2.7
-1 -1 -8 11.7 2.4
1 2 8 9.9 2.3
-1 2 -8 5.6 1.8
-1 -2 8 7.1 1.9
1 2 8 7 2.1
1 -2 8 7.1 2
-1 -2 -8 7.1 2
-1 2 8 7.7 2.1
1 2 -8 5.5 1.6
-1 2 8 5 1.8
1 3 8 262.67 9.1
1 -3 -8 279.07 10.5
-1 -3 8 268.87 9.2
-1 3 -8 264.97 9.5
1 3 8 265.57 10.1
-1 3 8 275.07 10.1
1 3 -8 277.47 8.9
1 -3 8 270.37 10
-1 -3 -8 275.67 10
-1 4 -8 168.88 7.8
-1 -4 8 188.48 7.8
1 4 8 189.58 7.8
1 -4 -8 178.28 8.9
1 4 8 190.98 9.1
1 -4 8 188.98 8.6
-1 4 8 188.08 9.5
1 4 -8 188.28 7.2
-1 -4 -8 196.48 8.8
-1 -4 -8 177.58 8.4
-1 4 8 168.48 8.2
-1 5 -8 2.8 1.7
-1 -5 8 3.1 1.6
1 5 8 3.1 1.5
1 5 8 1.9 2
1 -5 -8 1.4 1.6
-1 5 8 -0.3 1.3
1 -5 8 6.8 2.3
-1 5 8 2.4 2
-1 -5 -8 4.4 2
1 5 -8 2.4 1.4
-1 6 -8 -0.9 1.1
-1 -6 8 0.4 1.2
1 6 8 -0.3 1.2
1 -6 -8 -1.1 1.4
1 6 8 4.2 1.7
1 6 -8 1.8 1.1
-1 -6 -8 0.6 1.5
1 -6 8 0.2 1.5
-1 6 8 -0.1 1.4
-1 6 8 0.1 1.7
1 -6 8 -0.5 1.6
-1 -7 8 1.9 1.8
-1 -7 8 3.1 2.3
1 7 8 2.5 2.2
-1 7 -8 4.5 2
1 7 8 3.4 1.7
1 7 8 1 1.6
1 -7 -8 3.8 2.3
-1 7 8 1.7 2.1
-1 7 8 3.7 2
1 -7 8 0.6 1.8
1 -7 8 6 3
1 7 -8 1.5 1.3
-1 7 8 2.4 2
-1 -7 -8 3.2 2.3
1 8 8 40.1 4.2
-1 -8 8 50.99 8
1 8 8 38.5 4.3
-1 8 -8 45.1 4.7
1 -8 -8 49.3 7.2
1 8 8 42.6 6.8
-1 -8 8 44.8 4.9
1 8 -8 44.6 3.7
-1 -8 -8 49.9 5.8
-1 8 8 50.59 5.1
-1 8 8 35.9 6.3
1 -8 8 35.4 6.5
1 -8 8 40.9 6.1
1 -9 -8 0.6 1.9
1 9 8 -0.3 2.2
1 9 8 -0.7 1.3
1 9 8 0.8 1.6
-1 -9 8 2.1 2.7
-1 9 -8 1.6 1.6
1 9 -8 1.2 1.1
1 -9 8 0.5 2.2
1 -9 8 2.1 3.1
-1 9 8 0.4 2.1
-1 -9 -8 3.6 2.6
-1 9 8 -0.8 1.8
1 10 8 136.89 7.2
1 10 8 157.38 12.2
1 -10 -8 159.88 11.7
1 10 8 141.59 7.6
-1 -10 8 145.29 11.7
-1 -10 8 147.39 9.6
1 -10 8 145.29 10.4
1 -10 8 139.99 12.3
-1 10 8 136.19 12
-1 -10 -8 129.29 10.1
1 10 -8 140.59 5.8
-1 10 8 153.28 9.6
-1 10 8 149.69 9.1
1 -11 -8 116.89 10.6
-1 -11 8 112.79 9
1 11 8 116.19 6.7
-1 -11 8 113.89 11.2
1 11 8 99.29 10.6
1 11 8 115.09 6.5
-1 11 -8 106.09 7.1
1 11 -8 117.19 4.4
-1 11 8 95.69 10.4
-1 -11 -8 107.69 9.8
-1 11 8 111.19 8.4
1 -11 8 113.09 9.9
1 -11 8 117.99 11.6
-1 11 8 114.89 8.4
1 12 8 14.6 2.7
1 12 8 21 3.1
-1 12 -8 12.6 3.1
1 12 8 8.3 4.1
-1 -12 8 14.8 4.1
-1 12 8 7.9 3.4
-1 12 8 15.9 5.4
-1 12 8 11.6 3.6
1 13 8 11.3 4.7
1 13 8 7.9 1.8
1 13 8 7.1 1.8
-1 13 -8 2.4 3.2
-1 13 8 6.7 3.1
-1 13 8 9.6 3.1
-1 13 8 4.3 5.4
-1 14 -8 6.3 3.1
1 14 8 0.4 3.7
-1 14 8 -1.5 1.9
-1 14 8 -1.2 2.7
-1 14 8 5.2 4.4
1 15 8 15.7 6.1
-1 15 -8 20.1 2.8
-1 15 8 30.1 8.3
-1 15 8 22.3 4.7
-1 15 8 20 3.8
-2 0 -8 2404.16 33.9
2 0 8 2382.26 33.3
-2 0 8 2407.76 33.7
2 1 8 434.76 11.7
-2 1 -8 436.36 12.3
-2 -1 8 420.96 11.6
2 -1 8 447.16 12.5
-2 1 8 439.36 12.5
-2 -1 -8 442.46 12.2
-2 1 8 431.86 12.6
-2 -2 8 7.9 2
2 2 8 7 2
-2 2 -8 9.3 2.5
2 2 8 6.8 1.8
2 -2 8 5.1 1.9
-2 2 8 5.8 2
-2 2 8 10 2.6
-2 -2 -8 10.6 2.3
-2 -3 8 157.68 6.9
2 3 8 156.88 7.6
-2 3 -8 166.58 7.9
2 3 8 158.48 6.7
2 -3 -8 159.08 8.1
-2 3 8 166.28 8.2
-2 -3 -8 157.58 7.3
2 -3 8 159.68 7.9
2 4 8 -1.8 0.7
2 4 8 0.5 1.1
-2 4 -8 -1.1 1
-2 -4 8 0.5 1.1
2 -4 8 3.1 1.9
-2 4 8 -0.8 1.1
-2 -4 -8 0.4 1.3
2 4 -8 0.6 0.9
2 5 8 487.65 15.5
-2 5 -8 486.65 14.6
-2 -5 8 494.65 13.1
2 5 8 488.85 12.3
2 -5 -8 496.95 16.2
-2 -5 -8 510.75 14.9
-2 5 8 512.15 17.6
2 5 -8 486.45 10.9
2 -5 8 478.45 15.3
-2 -5 -8 478.05 14.2
2 6 8 343.07 13.9
2 6 8 342.57 10.1
2 -6 -8 351.96 14.3
-2 6 -8 342.37 12.5
-2 -6 8 327.37 11
-2 -6 -8 342.87 12.8
2 6 -8 342.27 8.6
2 -6 8 338.47 15.2
-2 6 8 337.97 15.1
2 -6 8 340.37 13.4
2 7 8 997.7 26.1
-2 -7 8 983.6 21
2 7 8 960.8 18.1
2 -7 -8 990.1 26.3
-2 7 -8 950.1 22.3
2 7 8 985.4 19
-2 -7 8 956.9 25.8
2 -7 8 932.01 27.2
2 -7 8 964.1 24.5
-2 7 8 979.8 27.9
-2 7 8 983.4 24.4
2 7 -8 962.8 15
-2 -7 -8 947.11 23.5
-2 8 -8 233.68 10.8
2 8 8 220.58 7.9
2 -8 -8 236.18 13.2
-2 -8 8 238.98 10.4
2 8 8 226.18 8.5
-2 -8 8 226.68 13
2 8 8 245.28 13.3
2 -8 8 251.17 12.7
-2 8 8 237.28 14.2
-2 8 8 214.28 11.4
-2 8 8 236.28 11.6
2 -8 8 231.68 14
-2 -8 -8 247.88 12.4
-2 9 -8 2020.2 36
2 9 8 2029.3 28
2 9 8 1982.1 28.6
-2 -9 8 1938.91 42.8
-2 -9 8 1992.9 35.4
2 -9 -8 1953.9 42.6
2 9 8 2090.99 43.7
-2 9 8 1971.6 45.5
2 -9 8 1995.7 40.6
2 -9 8 1967.8 45.5
-2 9 8 1975 38.5
-2 9 8 2008.4 38.2
-2 -9 -8 2007.5 39.9
2 10 8 246.88 7.6
2 10 8 244.48 7.9
2 -10 -8 247.18 15.1
-2 10 -8 271.47 12.2
-2 -10 8 250.07 12.1
-2 -10 8 268.97 15.6
2 10 8 233.38 14.6
2 -10 8 235.18 13.6
-2 10 8 252.47 16.5
-2 10 8 272.77 13.3
-2 10 8 265.87 13.4
2 -10 8 251.37 16.1
-2 -10 -8 279.57 14.6
2 11 8 73.29 10.5
-2 -11 8 65.19 7
2 11 8 73.89 3.4
2 11 8 80.69 3.6
-2 -11 8 83.49 9.1
-2 11 -8 85.79 7.1
-2 11 8 77.79 11.6
-2 -11 -8 83.69 8.7
-2 11 8 81.19 7.7
-2 11 8 87.09 8
2 -11 8 84.39 8.9
2 12 8 174.78 14.1
-2 -12 8 172.18 11.4
-2 12 -8 163.68 9.7
-2 12 8 175.48 11.1
-2 -12 -8 154.28 13.5
-2 12 8 177.38 11.2
-2 12 8 159.18 14.4
2 13 8 5.6 4.3
-2 13 -8 12 3.5
-2 -13 8 5.4 4.9
-2 13 8 10.3 3.8
-2 13 8 12.7 5.7
-2 13 8 8.6 3.8
-2 14 -8 220.28 10.8
2 14 8 206.18 16.9
-2 14 8 198.08 11.9
-2 14 8 232.28 12.7
-2 14 8 215.88 18.1
-2 15 -8 138.79 8.4
2 15 8 132.19 14.6
-2 15 8 147.09 10.3
-2 15 8 137.19 9.7
-2 15 8 126.49 17.5
3 0 8 155.78 7.1
-3 0 -8 143.89 7
-3 1 -8 114.09 6.4
3 1 8 112.49 5.9
-3 -1 8 112.69 6
-3 1 8 126.19 6.8
3 -1 8 118.49 6.5
-3 -1 -8 112.09 6.1
3 2 8 210.98 7.9
-3 2 -8 222.78 9.2
-3 -2 8 203.98 7.9
3 -2 8 222.38 9.3
-3 -2 -8 210.08 8.3
-3 2 8 213.68 9.4
3 3 8 0.7 1.1
3 -3 -8 -1.1 1
-3 -3 8 0.1 0.9
3 3 8 1.3 1.1
-3 3 -8 3.1 1.7
-3 -3 -8 1.1 1.1
-3 3 8 1.7 1.4
3 -3 8 1.4 1.8
3 -4 -8 23.4 4
3 4 8 12.5 2.7
3 4 8 17.7 2.6
-3 4 -8 16.2 3.2
-3 -4 8 17.9 2.9
-3 4 8 15.4 3.7
-3 -4 -8 14.4 2.7
3 -4 8 12 3.2
3 5 8 104.29 7
-3 5 -8 105.49 7.1
3 5 8 111.89 5.2
3 -5 -8 115.99 7.9
-3 -5 8 113.09 5.9
-3 5 8 111.99 10.6
3 -5 8 104.79 7.4
-3 -5 -8 112.59 6.6
3 -5 8 97.59 7.9
-3 -5 -8 107.69 6.6
3 6 8 1.1 1.1
3 -6 -8 2 2
3 6 8 0 0.9
3 6 8 -0.9 1.1
-3 -6 8 1.2 1.2
3 -6 8 1.2 1.6
3 -6 8 -0.3 2
-3 -6 -8 1.2 1.4
-3 -6 -8 -0.1 1.3
-3 6 8 2.4 2.1
3 7 8 36.1 3
3 7 8 45.2 7.5
-3 -7 8 48.9 7
3 -7 -8 43.2 6.7
-3 7 -8 48.8 5.3
3 7 8 48.5 3.1
-3 -7 8 46.8 5
3 -7 8 52.09 8.1
-3 -7 -8 43.9 5
-3 7 8 44.2 6.4
-3 7 8 49.99 8
3 -7 8 51.49 6.1
-3 -8 8 173.78 8.5
3 8 8 180.38 5.3
3 8 8 170.38 11.1
-3 8 -8 181.98 10.2
3 8 8 175.78 5.5
-3 -8 8 190.78 11.8
3 -8 -8 170.58 11.6
3 -8 8 169.08 12.3
-3 8 8 200.88 13.6
3 -8 8 177.48 11.1
-3 -8 -8 185.68 10.4
-3 8 8 166.48 10.6
-3 -9 8 17.6 3.6
3 9 8 12.5 4.1
-3 -9 8 20.3 5
-3 9 -8 23.6 4.8
-3 -9 -8 19.7 4.4
3 -9 8 14.5 5.1
-3 9 8 17.1 4.7
-3 9 8 16.4 5.2
-3 -10 8 106.79 7.7
3 10 8 107.79 10.1
-3 10 -8 99.99 7.9
-3 -10 8 98.49 10
-3 10 8 84.49 11.5
3 -10 8 112.49 9.9
-3 10 8 107.49 9.3
-3 -10 -8 93.29 8.4
-3 -11 8 19.3 5.9
-3 -11 8 21.7 4.6
-3 11 -8 21.7 4.7
3 11 8 23.5 6.3
-3 11 8 20.2 5.3
-3 11 8 19.9 6.2
-3 11 8 17.6 4.6
-3 -12 8 -1.7 3.3
-3 12 -8 5.1 2.4
3 12 8 2.6 3.6
-3 -12 8 5.5 2.8
-3 -12 -8 -2.4 2.8
-3 12 8 -2.8 1.8
-3 12 8 1.8 2.6
-3 13 -8 67.19 7.2
3 13 8 73.19 11.3
-3 -13 8 71.99 8.3
-3 13 8 69.89 7.8
-3 13 8 65.49 7.7
-3 13 8 78.09 12.9
-3 14 -8 -1.3 2.2
3 14 8 2.3 4.7
-3 14 8 1.5 3.6
-3 14 8 -0.6 3.5
-3 14 8 0.6 2.6
-3 15 -8 32.9 5.8
3 15 8 13.1 6.4
-3 15 8 8.4 6.3
-3 15 8 31.6 6.8
-3 15 8 27.8 5.7
-4 0 8 1955.5 30.6
-4 0 -8 1990.9 31.1
4 0 8 2041.9 31
4 1 8 19.5 3.1
-4 1 -8 26 4.2
4 -1 8 22.1 3.7
-4 -1 -8 24 3.7
-4 1 8 26.2 3.9
-4 -2 8 42.3 3.8
4 2 8 41 3.5
-4 2 -8 44.6 4.5
-4 2 8 36.1 4.1
-4 -2 -8 44.2 4
4 -2 8 46.7 4.7
4 -3 -8 23.2 4.7
-4 3 -8 21.5 3.8
4 3 8 26 3.5
4 3 8 25.3 2.7
-4 -3 8 25.1 2.9
4 -3 8 25.7 4.3
-4 3 8 32.2 4.7
-4 -3 -8 22.2 3.5
4 -4 -8 183.58 9.6
4 4 8 161.88 7.9
-4 4 -8 179.58 9.3
-4 -4 8 170.28 7.1
4 4 8 178.48 6.3
4 -4 8 170.68 9.4
-4 -4 -8 186.88 8
-4 4 8 164.98 9.8
-4 -5 8 279.67 9.2
4 5 8 279.47 7.2
4 5 8 281.77 11.1
-4 5 -8 289.27 12.3
4 -5 -8 277.67 12.5
4 -5 8 275.77 13.3
-4 -5 -8 283.67 10.2
4 -5 8 283.87 12.7
-4 5 8 286.77 13.7
4 -6 -8 0.3 1.3
4 6 8 0.3 0.7
-4 6 -8 -2.4 0.9
4 6 8 0.2 1.1
-4 -6 8 0.4 1
4 6 8 0 0.6
-4 -6 -8 -1.6 0.8
4 -6 8 2.1 2.4
-4 6 8 2.7 2.2
4 -6 8 -2.1 1.4
-4 -6 -8 2.2 1.5
-4 7 -8 139.09 9.2
4 7 8 146.29 9.3
-4 -7 8 156.28 7.3
4 -7 -8 157.98 10.7
-4 -7 8 175.88 10.5
-4 7 8 146.79 10
4 -7 8 152.28 10.3
4 -7 8 145.79 10.8
-4 -7 -8 149.88 8.5
-4 7 8 145.89 11.2
-4 -7 -8 156.68 8.4
-4 -8 8 2.5 1.7
-4 8 -8 2.2 2.3
-4 -8 8 8.5 3.2
4 -8 -8 2.1 2.7
4 8 8 7.6 3
4 -8 8 5.1 3.3
-4 -8 -8 7.6 2.8
-4 8 8 2.5 2.5
4 -8 8 5.9 3.6
-4 8 8 9.6 4
-4 -9 8 892.21 20.5
-4 -9 8 861.91 26.7
4 9 8 920.51 26.9
-4 9 -8 930.31 25.4
-4 9 8 919.81 31.2
-4 9 8 908.81 27
4 -9 8 886.21 27.5
-4 -9 -8 879.51 23.9
4 10 8 17.7 5.1
-4 -10 8 14.5 3.5
-4 -10 8 21.4 5.5
-4 10 -8 17.1 4.4
4 -10 8 15.8 5.1
-4 -10 -8 11.1 3.6
-4 10 8 14 5.4
-4 10 8 13 4.2
-4 11 -8 458.75 18.2
-4 -11 8 391.16 23.7
4 11 8 408.26 19.5
-4 -11 8 423.96 15.5
-4 11 8 402.56 18.5
-4 11 8 375.46 21.7
-4 -11 -8 397.16 17.6
4 12 8 24.2 6.4
-4 12 -8 25.9 5.5
-4 -12 8 23 6.3
-4 -12 8 22.8 4.7
-4 12 8 27.7 6.1
-4 -12 -8 30 6.2
4 13 8 489.35 23.5
-4 -13 8 481.75 18.4
-4 13 8 435.06 25.5
-4 13 8 483.25 24.3
-4 13 8 478.65 20.9
-4 14 -8 23.8 5.3
4 14 8 21.8 6.6
-4 14 8 27.1 7.7
-4 14 8 19.6 6
-4 15 -8 36.9 6.5
4 15 8 51.59 9.9
-4 15 8 64.99 9
-4 15 8 78.29 12.9
5 0 8 228.48 9.2
-5 0 8 217.98 9
-5 0 -8 220.18 9.4
5 1 8 712.33 16
-5 1 -8 732.33 18.2
-5 -1 -8 697.23 16.8
5 -1 8 722.13 17.9
-5 1 8 694.13 17.5
-5 2 -8 46.8 4.8
5 2 8 53.09 3.9
-5 2 8 49.2 4.8
5 -2 8 45.2 4.9
-5 -2 -8 44.3 4.1
5 3 8 2.7 1.3
5 -3 -8 2.5 1.7
5 3 8 1.1 1.2
-5 3 -8 3.4 2
-5 -3 -8 1 1.3
5 -3 8 4.8 2.2
-5 3 8 3.6 2
-5 -4 8 149.69 6.7
5 -4 -8 153.28 8.9
5 4 8 150.28 5.1
-5 4 -8 157.68 9.1
5 4 8 148.99 7.3
-5 -4 -8 155.88 7.4
5 -4 8 150.18 9.2
5 -4 8 133.79 9
5 -5 -8 167.88 10
5 5 8 151.78 8
-5 -5 8 153.78 6.7
-5 5 -8 160.08 9.6
5 -5 8 151.98 10.3
-5 5 8 172.48 10.9
-5 -5 -8 159.28 7.6
5 -5 8 147.39 9.5
-5 -6 8 60.29 4.3
-5 6 -8 59.69 6.1
5 -6 -8 65.49 6.7
5 6 8 59.79 5.5
-5 6 8 71.59 7.5
5 -6 8 62.09 6.7
-5 -6 -8 61.89 4.9
5 -6 8 63.29 7.1
-5 7 -8 2.3 2.2
-5 -7 8 -1.5 1
5 7 8 -0.9 1.3
5 -7 -8 -2.9 1.7
-5 -7 8 0.9 1.8
5 -7 8 1.9 2.3
-5 7 8 -0.5 1.8
-5 -7 -8 -2.2 1.1
-5 7 8 -1 1.8
5 -7 8 -0.6 2.4
-5 -7 -8 0.3 1.4
5 8 8 -0.3 1.6
-5 -8 8 0.5 1.2
5 -8 -8 0.7 2.2
-5 8 -8 2.4 2.3
-5 -8 8 -1.5 1.7
5 -8 8 -1.4 2.2
-5 8 8 1.9 2.4
5 -8 8 -3.3 2.1
-5 -8 -8 1.5 1.4
-5 8 8 0 1.9
-5 -8 -8 0.4 1.6
5 9 8 5.7 3.2
-5 -9 8 7.8 2.6
-5 9 -8 3 2.5
-5 -9 8 10.7 3.9
5 -9 8 8.9 3.8
-5 9 8 9.4 3.9
-5 9 8 16.2 5.9
-5 -9 -8 3.2 2.6
5 -9 8 8.7 3.9
5 10 8 -0.2 2.1
-5 -10 8 -0.4 1.6
-5 -10 8 -2.1 1.9
-5 10 -8 -1.1 1.7
-5 10 8 1.4 3.5
-5 -10 -8 -3.6 1.8
-5 10 8 7.6 3.5
-5 -11 8 9.5 2.7
-5 11 -8 7.2 3.9
-5 -11 8 7.8 3.1
5 11 8 6.1 3.1
-5 11 8 4 3.8
-5 -11 -8 7.1 3
-5 11 8 2.5 3.5
5 12 8 -0.2 2.7
-5 -12 8 -2.6 3.1
-5 12 -8 4.3 3.7
-5 12 8 2.5 3.6
-5 -12 -8 -4.9 2.2
-5 12 8 1.2 3.6
-5 13 -8 17 4.9
-5 13 8 12.5 6.1
-5 13 8 3.1 3.2
-5 -14 8 22.1 5.7
5 14 8 25.6 7.1
-5 14 -8 20.5 5
-5 14 8 15.9 7
5 15 8 -2.8 3.5
-5 15 8 -5.4 3.4
-5 15 8 1.6 4.5
6 0 8 4067.29 51.49
-6 0 -8 4023.3 53.09
-6 0 8 3959.1 50.99
-6 1 -8 159.78 8.7
-6 -1 8 185.18 8.1
6 1 8 187.98 8
6 -1 8 182.68 9.2
-6 -1 -8 175.68 8.5
-6 1 8 191.78 9.1
-6 2 -8 79.99 6.4
6 2 8 72.59 4.6
-6 -2 -8 83.09 5.7
6 -2 8 80.99 6.4
-6 2 8 71.39 6.1
-6 3 -8 8.8 2.9
6 3 8 7.3 1.6
6 -3 -8 7.9 2.6
6 3 8 8.8 2
-6 3 8 3.1 2.2
-6 -3 -8 7 2.2
6 -3 8 12.2 3.4
6 -3 8 5.9 2.4
-6 4 -8 257.07 12.3
6 4 8 258.87 9.4
6 -4 -8 251.87 11.7
-6 -4 -8 273.47 9.9
6 -4 8 249.78 12.6
-6 4 8 258.87 12.9
6 -4 8 247.48 12.3
-6 -5 8 740.13 15.7
6 -5 -8 718.33 21.5
-6 5 -8 748.93 22.1
6 5 8 743.43 17.8
6 -5 8 704.43 22
6 -5 8 742.03 23.3
-6 -5 -8 729.13 17
-6 5 8 713.73 23.2
6 6 8 217.88 10
-6 -6 8 217.48 8
-6 6 -8 191.88 11.4
6 -6 -8 198.18 11.8
6 -6 8 205.88 12.8
6 -6 8 197.78 12
-6 -6 -8 179.88 8.4
-6 6 8 212.58 13.2
-6 -7 8 -3.4 1.2
6 -7 -8 2.3 2.6
-6 7 -8 -2.1 1.2
6 7 8 -0.1 1.3
-6 -7 8 1.1 1.3
-6 -7 -8 -0.5 1.4
6 -7 8 6.1 3.1
6 -7 8 1.8 2.6
-6 7 8 1.6 2.2
-6 7 8 -2 1.9
-6 -8 8 0.7 1.2
-6 8 -8 3.3 2.6
-6 -8 8 1.7 2.4
6 -8 -8 4.1 3.2
6 8 8 5.8 2.5
-6 8 8 -0.9 2.1
-6 8 8 3.1 2.6
-6 -8 -8 -1.5 1.3
-6 -9 8 137.49 7.2
-6 9 -8 153.18 11.1
6 9 8 146.29 10
-6 -9 8 139.49 10.1
6 -9 -8 131.39 11.2
-6 9 8 153.98 13.4
6 -9 8 160.08 13
-6 9 8 139.89 11.4
-6 -9 -8 137.79 8.4
-6 -9 -8 138.69 8.6
-6 10 -8 166.48 11.9
6 10 8 175.38 11.5
-6 -10 8 151.78 11.3
-6 -10 8 145.79 7.8
-6 10 8 152.18 14
-6 10 8 154.08 12.5
-6 -10 -8 151.98 9.7
-6 11 -8 57.69 8.9
-6 -11 8 56.59 8.5
6 11 8 61.99 8.8
-6 -11 8 59.49 5.8
-6 11 8 59.09 11
-6 11 8 67.79 10.1
-6 -11 -8 55.39 7.5
-6 -12 8 34.1 6.8
-6 12 -8 24.3 6.2
-6 -12 8 24.8 4.6
6 12 8 35.3 7.1
-6 -12 -8 30.6 6.5
-6 12 8 26.7 6.7
-6 12 8 32 8.4
-6 13 -8 36 6.9
-6 -13 8 43.5 6.1
6 13 8 35.9 7.6
-6 13 8 29.4 7.1
-6 -13 -8 41.2 6.5
-6 13 8 51.19 10.6
-6 14 -8 4.6 3.5
6 14 8 10.5 4.3
-6 -14 8 2.8 3.8
-6 14 8 11.2 6.3
-6 14 8 7 4.5
-7 0 -8 32.8 4.8
7 0 8 36.9 5
-7 0 8 33.9 4.7
-7 -1 8 7.7 2.2
7 1 8 11.7 2.7
-7 1 -8 8.2 2.6
-7 -1 -8 13.2 3.2
-7 1 8 6.4 2.4
7 -1 8 6.2 2.6
-7 2 -8 3.1 2.3
7 2 8 5.7 1.8
-7 -2 8 4.9 1.8
-7 2 8 4.6 2.3
-7 -2 -8 0.4 1.6
7 -2 8 2.3 2.1
7 -2 8 7.4 2.8
7 3 8 45.2 3.7
7 -3 -8 64.19 5.8
7 3 8 48.1 2.6
-7 3 -8 48.1 5.6
7 -3 8 40.1 5.9
-7 3 8 37.5 5.9
7 -3 8 38.7 5.9
-7 -3 -8 48.1 4.6
7 4 8 116.59 6.1
7 -4 -8 122.49 8.4
-7 4 -8 127.69 9.1
7 -4 8 106.69 8.3
-7 4 8 111.19 8.8
-7 -4 -8 111.89 6.5
7 -4 8 117.89 8.9
7 -5 -8 3.1 2.2
7 5 8 -0.3 1
-7 5 -8 1.3 1.9
-7 5 8 0.9 2.1
7 -5 8 -1.3 2.1
7 -5 8 -1.9 2.1
-7 -5 -8 -2.5 0.9
7 6 8 419.46 13.5
-7 6 -8 414.66 17.5
7 -6 -8 407.06 17.3
-7 -6 8 437.26 14.8
-7 -6 8 398.06 11.2
-7 -6 -8 424.26 13
7 -6 8 415.96 18.7
7 -6 8 426.56 18.2
-7 6 8 387.36 18.3
-7 7 -8 1.2 2
-7 -7 8 5 2.3
-7 -7 8 4.3 1.7
7 7 8 0.1 1.8
7 -7 -8 7.8 3.2
7 -7 8 8.6 3.8
-7 7 8 2.4 2.8
7 -7 8 6 3.4
-7 7 8 5.1 3.1
-7 -7 -8 6 2.3
7 -8 -8 0.8 2.3
-7 -8 8 1.6 2.1
-7 8 -8 2.2 2.4
-7 -8 8 1.8 1.2
-7 8 8 1.1 2.8
-7 8 8 2.9 3
-7 -8 -8 0.2 1.3
7 -8 8 5.6 3.1
-7 9 -8 6.7 3.5
-7 -9 8 3.1 2.8
7 9 8 1 2.1
-7 9 8 8.4 4.3
-7 -9 -8 9.1 2.6
-7 9 8 4 3.9
-7 -10 8 -0.3 1.5
-7 -10 8 3.7 2.9
7 10 8 -1.3 1.8
-7 10 -8 5.8 3.3
-7 10 8 2.5 3.2
-7 10 8 1.6 3
-7 -11 8 71.69 8
-7 -11 8 94.79 6.5
-7 11 -8 70.59 10.1
7 11 8 69.39 9.2
-7 11 8 73.39 12.3
-7 -11 -8 69.99 6.8
-7 11 8 69.49 10.7
-7 -12 8 2.8 4
7 12 8 4 3.6
-7 -12 8 8.9 2.8
-7 -12 -8 1.8 2.5
-7 12 8 7.7 4.4
-7 12 8 -1.7 4.1
7 13 8 24.1 6.3
-7 -13 8 23.9 4.7
-7 -13 8 34.6 8.3
-7 13 -8 29.2 6.9
-7 13 8 27.1 7
-7 -13 -8 18.1 4.8
-7 13 8 22 7.6
-7 14 -8 -0.3 3.6
7 14 8 -0.5 3.4
-7 -14 8 0.6 3.9
-7 14 8 -2.2 3.2
-7 14 8 -4.1 4.1
-8 0 -8 327.27 15.8
-8 0 8 353.86 12.5
8 0 8 341.57 12.2
-8 -1 8 480.45 14
-8 1 -8 480.45 16.7
8 1 8 472.15 13.1
-8 -1 -8 464.25 15.3
8 -1 8 477.45 15.2
-8 1 8 518.35 16.2
8 -1 8 492.55 15.9
-8 2 -8 303.57 13.7
-8 -2 8 321.87 10.7
-8 -2 -8 322.87 12.3
-8 2 8 343.77 13.9
8 -2 8 315.07 13.4
-8 3 -8 368.26 15.6
8 3 8 361.76 10
-8 -3 8 354.86 11.1
8 -3 -8 360.06 13.9
-8 -3 -8 361.66 12.7
8 -3 8 357.56 15.1
-8 3 8 363.16 15.2
8 -3 8 350.46 14.7
8 -4 -8 357.96 14.6
8 4 8 347.07 10.2
-8 4 -8 343.57 15.6
-8 4 8 370.46 16.3
-8 -4 -8 353.86 12.2
8 -4 8 352.76 15.6
8 -4 8 373.36 16.1
8 5 8 47.5 4.2
-8 5 -8 52.39 7.5
8 -5 -8 58.19 7.7
8 -5 8 49.2 7.7
8 -5 8 50.79 8
-8 5 8 43.9 7.3
-8 -5 -8 51.89 4.8
-8 6 -8 123.89 10.1
-8 -6 8 132.59 6.5
-8 -6 8 125.29 7.8
8 6 8 126.49 7
8 -6 -8 112.09 9.3
-8 6 8 121.19 10.5
8 -6 8 116.09 12.2
8 -6 8 115.39 10.2
-8 6 8 131.39 10.7
-8 -6 -8 120.29 7
8 7 8 29.5 4.3
-8 -7 8 26.4 3.5
-8 7 -8 26 6
-8 -7 8 26 4.5
-8 -7 -8 32.3 4.4
-8 7 8 38.7 7.4
8 -7 8 37.3 6.9
-8 7 8 31.6 7.1
8 -7 8 27.5 6.1
8 8 8 1.6 1.9
-8 8 -8 0.3 2.2
-8 -8 8 2.1 2.2
8 -8 -8 5.5 3
-8 -8 8 0.4 1.2
-8 -8 -8 3.4 1.8
-8 8 8 2.2 2.8
-8 8 8 -3.6 1.8
8 -8 8 2.4 3.1
8 9 8 85.99 7.2
-8 -9 8 89.79 5.4
-8 9 -8 86.49 9.2
-8 -9 8 81.09 7.6
-8 9 8 78.29 12
-8 9 8 87.49 9.7
-8 -9 -8 99.29 6.8
8 10 8 1.2 2.3
-8 10 -8 3.2 3.7
-8 -10 8 1.6 3
-8 -10 8 -1.4 1.4
-8 10 8 2 3.1
-8 -10 -8 2.6 2.1
-8 10 8 9 4.8
8 11 8 204.28 12.3
-8 -11 8 220.68 13.6
-8 -11 8 194.98 9.1
-8 11 -8 207.48 14.9
-8 11 8 215.18 15.8
-8 11 8 204.28 17.6
-8 -12 8 7 4.5
8 12 8 3.5 3.1
-8 12 -8 4.1 3.9
-8 12 8 14.3 6.5
-8 12 8 11.5 5.6
-8 13 -8 48.4 8.6
-8 -13 8 48.3 8
-8 -13 8 51.59 6.2
8 13 8 51.09 8.6
-8 13 8 42.1 8.6
-8 13 8 48 10.6
-9 0 -8 53.29 5.8
9 0 8 51.49 4.8
9 0 8 49.9 4.8
-9 0 8 48.5 4.9
-9 1 -8 86.29 7.4
9 1 8 85.49 5.6
-9 -1 8 78.29 5.8
-9 -1 -8 87.09 8.3
-9 1 8 83.59 6.7
9 -1 8 90.99 6.6
9 -1 8 77.99 6.6
-9 2 -8 3.6 2.5
9 2 8 6.3 1.6
-9 -2 8 3.9 1.7
-9 -2 -8 2.9 2
-9 2 8 8.6 2.9
9 -2 8 3 2.2
9 -2 8 5.2 2.7
9 -3 -8 7.7 2.7
-9 -3 8 5.5 1.9
9 3 8 1.5 1.2
-9 3 -8 4 2.8
-9 -3 -8 4.3 2.2
9 -3 8 3.2 2.5
9 -3 8 6.9 3.2
-9 3 8 6.6 2.9
9 4 8 -0.1 0.9
9 -4 -8 -1.3 1.6
-9 -4 8 -0.5 1.1
-9 4 -8 2.2 2.7
-9 4 8 3.3 2.6
9 -4 8 -2.1 2.2
-9 -4 -8 2 1.9
-9 5 -8 25.5 6
9 5 8 28 3.1
9 -5 -8 29.5 6
-9 5 8 30.2 6.5
9 -5 8 28.5 5.8
-9 -5 -8 31.6 4.6
9 -5 8 24.5 5.6
9 6 8 225.18 8.5
9 -6 -8 203.08 12.6
-9 6 -8 229.78 14.2
-9 -6 8 237.98 10.2
9 -6 8 244.38 14.7
-9 6 8 236.88 14.9
-9 -6 -8 230.08 9.9
-9 6 8 227.58 14.6
9 -6 8 230.98 14.2
-9 7 -8 19 5.3
9 7 8 15 2.8
-9 -7 8 15.4 3.5
-9 -7 8 11 2.3
9 -7 -8 9.1 4
-9 7 8 11.4 4.5
-9 7 8 2.3 3.4
-9 -7 -8 9.5 2.5
9 -7 8 10.7 3.9
9 8 8 44.1 4.6
-9 -8 8 50.39 4.2
-9 8 -8 46.8 8
-9 8 8 54.49 9.3
-9 8 8 57.69 9.7
-9 -8 -8 43.2 4.6
9 9 8 -0.2 1.6
-9 -9 8 3.2 1.5
-9 9 -8 2.2 2.5
-9 -9 8 0.4 2
-9 9 8 2.2 3.1
-9 9 8 0.7 2.7
-9 -9 -8 -3.5 1.3
-9 -10 8 16.1 3.1
-9 10 -8 25.9 6.7
9 10 8 18.4 4.1
-9 -10 8 25.2 5
-9 10 8 23.7 6.6
-9 10 8 28.8 8.2
-9 -10 -8 21.4 4.1
9 11 8 17.9 4
-9 -11 8 9.3 3.8
-9 -11 8 13.7 2.9
-9 11 -8 7.4 4.2
-9 11 8 17.2 6.9
-9 11 8 11.7 5.9
9 12 8 7.2 3.3
-9 -12 8 6.4 3.7
-9 12 -8 7.4 4
-9 -12 8 5.8 2.7
-9 12 8 -0.7 4.4
-9 12 8 9.6 4.8
-9 -13 8 0.6 3.9
-9 13 -8 3.2 3.7
9 13 8 6.5 3.6
-9 -13 8 -3.1 2.8
-9 13 8 1.9 3.9
-10 0 -8 268.97 13.2
-10 0 8 296.97 12
10 0 8 284.57 11
-10 1 -8 7 3.3
10 1 8 7.6 2.2
-10 -1 8 8.6 2.4
10 -1 8 9 2.8
-10 1 8 11.5 3.2
-10 -1 -8 7.8 3
10 2 8 9.8 1.9
-10 -2 8 13.4 2.6
-10 2 -8 13.9 4.2
10 2 8 14.9 2.5
10 -2 8 15 3.7
-10 2 8 17.2 4.9
10 -2 8 13 4
-10 -2 -8 16.3 3.7
10 3 8 12.2 2
-10 -3 8 14.1 2.7
-10 3 -8 13.1 4.2
10 -3 -8 17.9 3.9
10 3 8 12.6 2
10 -3 8 13.2 4
-10 -3 -8 15.9 4.1
10 -3 8 13.7 4
-10 3 8 15.9 4.4
10 -4 -8 53.89 6.2
-10 -4 8 52.69 4
10 4 8 59.19 3.3
-10 4 -8 56.69 8.5
-10 4 8 46.4 7.2
10 -4 8 52.09 7.7
10 -4 8 55.09 7.8
-10 -4 -8 59.99 5.7
-10 5 -8 28.7 6.3
10 -5 -8 28.9 5.5
-10 -5 8 26 3.7
-10 -5 8 32.4 3.3
10 5 8 31.5 2.4
10 -5 8 33.9 6.3
-10 -5 -8 32 4.7
-10 5 8 32.9 6.7
-10 5 8 36.4 7.2
10 -5 8 27.9 5.8
-10 6 -8 278.97 16.2
-10 -6 8 266.67 9.1
10 6 8 262.27 7.1
-10 -6 8 263.47 10.1
10 -6 8 230.58 14.9
-10 6 8 228.88 15.6
-10 6 8 270.17 16.3
10 -6 8 241.58 15
-10 -6 -8 277.27 11.2
-10 7 -8 13.8 4.8
-10 -7 8 7.8 2.4
10 7 8 10.7 1.9
10 -7 -8 9.2 4.1
-10 -7 8 10.2 2.3
-10 -7 -8 12.7 3
-10 7 8 8.9 4.5
10 -7 8 8.7 4.2
-10 7 8 7.8 4.5
-10 -8 8 46.9 4.2
10 8 8 52.19 4.1
-10 8 -8 49.3 8.8
-10 -8 8 52.69 5.2
-10 -8 -8 44 4.8
-10 8 8 41.4 8.7
-10 8 8 49.1 9.2
-10 9 -8 149.79 12.9
10 9 8 156.38 7.6
-10 -9 8 172.68 8.5
-10 9 8 149.99 14
-10 -9 -8 159.78 8.7
-10 9 8 167.28 14.1
-10 -10 8 13.8 2.8
10 10 8 8.8 2.4
-10 -10 8 6.2 2.9
-10 10 -8 7.1 5.2
-10 10 8 7 4.1
-10 -10 -8 8.4 2.5
-10 10 8 2.9 4.4
-10 11 -8 36.8 8.1
-10 -11 8 28.7 5.5
-10 -11 8 34.7 4.2
-10 11 8 35.9 8.5
-10 11 8 20.4 7.1
-10 -12 8 -1.7 2.8
-10 -12 8 3.6 2.4
-10 12 -8 2.5 3.6
-10 12 8 -0.3 4.4
-10 12 8 -1.5 3.8
-11 0 8 1.7 1.5
-11 0 -8 0.8 2.2
11 0 8 3.3 1.8
11 1 8 7.9 2.1
-11 1 -8 16.2 4.6
-11 -1 8 5.2 2.2
11 -1 8 8.3 2.6
-11 1 8 7.4 2.8
-11 -1 -8 10.8 3.4
11 2 8 120.49 4.6
11 2 8 129.79 5.2
-11 -2 8 117.79 6.5
-11 2 -8 130.69 10.3
11 -2 8 123.99 8.6
-11 2 8 119.89 8.8
-11 -2 -8 126.59 8.9
-11 -3 8 51.89 4.1
-11 3 -8 56.29 8.2
-11 -3 -8 46.9 6.4
11 -3 8 57.99 6.6
-11 3 8 46.7 6.8
11 -4 -8 101.89 8.4
-11 4 -8 102.89 10.2
-11 -4 8 116.79 5.5
-11 4 8 85.29 9.3
11 -4 8 99.89 9.3
-11 -4 -8 113.59 8
-11 4 8 106.39 9.5
-11 -5 8 22.2 3
11 -5 -8 27.3 5.2
-11 5 -8 22.2 5.8
-11 -5 8 25.2 3
-11 -5 -8 23.7 4.8
11 -5 8 23.8 5.9
-11 5 8 32.7 7.5
-11 5 8 30.8 6.5
-11 -6 8 2.1 1.5
-11 -6 8 6.6 1.6
11 -6 -8 3.9 3.5
-11 6 -8 5.9 4.1
-11 6 8 7.9 3.9
11 -6 8 -1.7 3.7
-11 6 8 11.5 4.8
-11 -6 -8 5 2.5
-11 -7 8 14.8 2.7
-11 -7 8 13.3 2.3
-11 7 -8 7.9 4.6
-11 7 8 19.2 5.9
-11 7 8 17.3 5.7
11 -7 8 10.2 5.5
-11 -7 -8 15.1 3.4
-11 -8 8 27.5 4
-11 8 -8 33.8 7.7
-11 -8 8 39.5 4.3
-11 8 8 31.1 7.4
-11 8 8 22.1 6.5
-11 -8 -8 31.8 4.5
-11 9 -8 0.8 2.8
-11 -9 8 2.7 1.8
-11 -9 8 5 1.9
-11 9 8 -0.5 3.4
-11 9 8 5.1 4.1
-11 -9 -8 2.7 1.9
-11 -10 8 5.1 1.7
-11 10 -8 -0.7 2.5
-11 -10 8 2.5 2
-11 10 8 2.9 4.1
-11 -10 -8 -4.4 1.8
-11 10 8 -5.1 3
-11 11 -8 4.3 4.1
-11 11 8 4.5 3.8
-11 11 8 12 6.5
-11 -11 -8 8.7 3.5
-12 0 -8 350.66 16.3
12 0 8 343.17 11.5
-12 0 8 331.77 12.8
-12 -1 8 136.59 7.4
-12 1 -8 142.89 11
12 1 8 126.39 5.7
-12 -1 -8 124.19 9.8
-12 1 8 141.49 9
12 -1 8 142.09 8.4
-12 -2 8 493.25 13.1
-12 2 -8 520.85 21.4
-12 2 8 507.75 18.4
-12 -2 -8 537.25 19.1
12 -2 8 503.35 17.3
-12 -3 8 63.69 4
-12 3 -8 64.89 9.2
-12 -3 -8 68.09 6.9
-12 3 8 77.29 7.8
12 -3 8 55.69 7.5
-12 -4 8 56.79 3.1
12 -4 -8 59.29 6.7
-12 -4 8 64.69 3.2
-12 4 -8 51.29 8.6
12 -4 8 53.39 7.7
-12 4 8 58.69 9.6
-12 -4 -8 54.69 6
-12 4 8 60.69 8.6
-12 5 -8 11.5 5.3
-12 5 8 13.3 5
12 -5 8 22.9 5.7
-12 -5 -8 13.6 3.7
-12 5 8 14.3 5.4
12 -6 -8 164.78 11.8
-12 6 8 143.89 12.6
-12 -6 -8 145.39 8.9
-12 6 8 156.38 16
12 -6 8 138.49 12.4
-12 7 -8 86.59 12.1
-12 7 8 73.09 10.9
-12 7 8 83.99 12.6
-12 -8 8 71.79 5.4
-12 8 -8 62.59 10.6
-12 8 8 92.99 13
-12 8 8 72.09 11.8
-12 9 -8 161.68 14.6
-12 -9 8 181.28 4.6
-12 -9 8 170.08 4.6
-12 -9 8 158.98 7.4
-12 9 8 181.78 15.9
-12 9 8 179.58 15.7
-12 -10 8 207.98 6.6
-12 -10 8 220.88 8.5
-12 -10 8 222.58 6.3
-12 10 8 221.38 17.9
-12 10 8 213.88 18.5
13 0 8 28.2 3.6
-13 0 -8 38.3 7
-13 0 8 27.2 4.1
-13 -1 8 29.5 3.9
13 1 8 38.4 2
-13 1 -8 50.79 8.3
13 -1 8 37.1 5.1
-13 1 8 45.7 6.2
-13 -1 -8 41.8 7.2
-13 2 -8 19.4 5.8
-13 -2 8 15 2.3
-13 2 8 19.4 4.6
-13 -2 -8 9.1 3.6
13 -2 8 20 4.2
-13 3 -8 24.6 6.5
-13 3 8 27.4 6.6
-13 3 8 30 5.9
13 -3 8 35.9 6.2
-13 -3 -8 31.2 5.9
-13 4 -8 6.7 4.1
-13 -4 -8 5.4 2.7
-13 4 8 1.7 2.5
13 -4 8 7.7 4
-13 4 8 5.8 4.1
13 -5 -8 42.1 6.7
-13 5 -8 42.9 8.6
-13 5 8 52.49 8.3
13 -5 8 51.19 8.5
-13 -5 -8 51.49 6
-13 6 -8 17.8 6.4
-13 -6 -8 15.1 4
-13 6 8 11.9 4.8
-13 6 8 15.8 5.9
13 -6 8 12.8 5.6
-13 7 -8 33.4 8.1
-13 7 8 14.2 6.1
-13 -7 -8 25.4 4.7
-13 7 8 14.4 5.6
-13 -8 8 28.4 4.1
-13 8 -8 25.7 7
-13 -8 -8 35.9 5.3
-13 8 8 31.4 8.1
-13 8 8 23.4 7.7
-13 -9 8 -0.1 2.2
-13 9 -8 2.3 3.6
-13 -9 -8 5.3 2.5
-13 9 8 -5.9 3.1
-13 9 8 -6.7 3.5
14 0 8 86.09 4.2
-14 0 8 89.19 6.3
-14 0 -8 78.99 9
-14 -1 8 38.5 3.5
-14 1 -8 43.6 8
-14 1 8 41.4 5.6
-14 -1 -8 31.1 6.3
14 -1 8 46.1 4.6
-14 1 8 36.3 7.6
-14 2 -8 45.5 8.4
-14 2 8 40.4 6.2
14 -2 8 43 5.8
-14 -2 -8 42.7 7.1
-14 2 8 41.2 8.2
-14 3 8 4 3.4
-14 -3 -8 6.7 3.2
14 -3 8 13.6 4.1
-14 3 8 -2.1 2.6
-14 4 -8 131.59 12.2
14 -4 8 119.69 10.3
-14 4 8 119.99 12.5
-14 -4 -8 114.49 9.2
-14 4 8 97.69 9.6
-14 5 -8 176.28 14.6
-14 5 8 176.08 15
-14 -5 -8 176.98 11.1
14 -5 8 173.18 13.3
-14 5 8 188.28 13.8
-14 6 -8 16.5 6.5
-14 6 8 18.1 6.9
-14 -6 -8 11.1 3.6
-14 6 8 17.1 6.1
-14 7 -8 1.7 3.6
-14 7 8 -4 3.6
-14 7 8 6.9 4.6
-14 -7 -8 -3.6 2.3
-14 8 -8 96.89 13.7
-14 8 8 82.49 13.2
-14 -8 -8 105.19 8
-14 8 8 125.19 13.4
-15 0 8 5 4.4
-15 0 -8 12.8 5.1
-15 0 8 5.5 2.1
-15 -1 8 1.8 3.4
-15 1 -8 -7.1 3.3
-15 1 8 1.9 2
-15 -1 -8 -1.6 3.1
-15 1 8 0 3.5
15 -1 8 0.8 1.7
-15 2 -8 0.6 3.7
-15 2 8 2.7 2.6
-15 -2 -8 5 3.5
-15 3 -8 3.4 3.9
15 -3 8 4.7 3.4
-15 -3 -8 3.1 3.5
-15 3 8 3.7 3.5
-15 3 8 6.7 3.6
-15 4 -8 1.8 3.9
-15 4 8 2.1 3.7
-15 -4 -8 3.1 3
15 -4 8 4.7 3.6
-15 4 8 -1.2 2.8
-15 5 -8 2.6 3.9
-15 5 8 -1 4
15 -5 8 -3 4.4
-15 -5 -8 0.7 2.8
-15 5 8 -2.6 3.4
-15 6 -8 3.4 4.8
-15 6 8 0.4 4.1
-15 6 8 2.3 4.4
-15 -6 -8 -1.1 2.7
-16 0 8 45.8 9.4
-16 0 -8 56.59 9.4
-16 1 -8 108.79 11.5
-16 -1 8 107.29 11.2
-16 1 8 100.79 11.1
-16 -2 8 0.7 3.7
-16 2 -8 -1.3 3.5
-16 2 8 2.6 4.9
16 -2 8 -3.4 2.1
-16 2 8 3.4 2
-16 -2 -8 3.5 3.6
-16 3 -8 10.8 5.8
-16 -3 8 18.5 4.9
-16 3 8 17.5 4.2
-16 -3 -8 5.8 4.1
16 -3 8 10.8 4.1
-16 3 8 3.8 4.9
0 0 9 -0.7 0.8
0 0 -9 0.3 1
0 1 9 -0.6 0.9
0 1 -9 -0.7 0.7
0 -1 9 1.2 1.3
0 -1 -9 -0.7 0.8
0 2 9 838.32 18.1
0 2 9 781.62 18.4
0 2 -9 808.72 17.5
0 -2 9 805.42 17.7
0 -2 -9 809.62 18.6
0 3 9 0.6 1.2
0 3 9 -0.3 1.1
0 3 -9 0.5 1.2
0 -3 9 0.9 1.2
0 4 9 758.72 19.9
0 4 9 767.92 18
0 4 -9 748.33 17
0 -4 9 740.33 20.9
0 -4 -9 707.13 22.3
0 5 -9 0.8 1.2
0 5 9 -1.3 0.8
0 -5 9 0 1.2
0 -5 -9 0.5 1.2
0 5 9 1 1.1
0 -6 -9 16.8 3.8
0 -6 9 13.8 3.3
0 6 9 15.4 4
0 6 -9 17.2 3.3
0 7 9 -0.2 1.7
0 7 9 0.2 1.4
0 -7 9 -0.2 1.5
0 -7 9 0.4 1.9
0 -7 -9 1.7 2
0 7 -9 -0.8 1
0 -8 9 375.36 14.7
0 8 -9 358.36 12
0 -8 9 354.06 17.1
0 8 9 350.56 12.9
0 -8 -9 365.16 15.9
0 8 9 384.36 14.1
0 8 9 371.96 17.4
0 9 -9 0.5 1.5
0 9 9 0.8 1.8
0 9 9 0 1.9
0 -9 9 -1.1 1.5
0 -9 9 -2.3 1.8
0 -9 -9 -1.9 1.6
0 -10 9 400.56 16.7
0 10 9 453.55 21.4
0 10 9 416.06 14.6
0 10 9 424.46 15.2
0 -10 -9 388.56 18.4
0 10 -9 397.76 12.6
0 -10 9 398.36 20.2
0 -11 9 1.5 2.9
0 11 9 -2.1 2.1
0 -11 9 -1.6 2.5
0 11 9 1.8 1.6
0 -11 -9 -1.8 1.9
0 11 -9 -0.7 1.3
0 11 9 -1.3 1.7
0 12 9 124.99 8
0 12 9 171.48 14.5
0 12 -9 130.69 6.7
0 12 9 136.79 8.5
0 13 9 1.5 2.2
0 13 9 0.2 2
0 13 -9 0.1 1.3
0 14 9 43.3 9.5
0 14 9 38.7 4.9
0 15 9 2.1 1.9
0 15 9 1.4 3.7
0 15 9 -1 1.9
1 0 -9 -0.8 0.9
-1 0 -9 -0.4 0.9
-1 0 9 -0.8 0.8
1 0 9 -0.2 1.1
1 1 9 918.61 18.9
-1 1 -9 937.71 19.4
-1 -1 9 952.4 19.2
1 1 -9 942.21 19.2
-1 -1 -9 923.71 19.5
1 -1 9 952.3 19.5
-1 1 9 971 19.8
1 2 9 47.2 4
1 2 9 50.79 4.4
-1 -2 9 44.5 4
-1 2 -9 58.69 4.6
1 2 -9 58.49 4.4
-1 2 9 53.49 4.6
-1 -2 -9 50.49 4.5
1 -2 9 47.9 4.3
1 3 9 7.6 2.4
1 3 9 5 2.1
-1 -3 9 8.3 2.3
-1 3 -9 9.2 2.5
-1 3 9 9.6 2.9
-1 3 9 10.3 2.6
1 3 -9 7.8 2.2
1 -3 9 7.8 2.3
-1 -3 -9 9.4 2.5
-1 -4 9 53.89 4.6
1 4 9 54.39 5.2
1 -4 -9 53.29 5.1
-1 4 -9 53.69 4.7
1 4 9 46.6 4.2
-1 4 9 65.09 5.8
1 4 -9 51.19 4.1
1 -4 9 53.29 4.9
-1 -4 -9 54.29 5
1 -5 -9 136.89 8.3
1 5 9 146.89 7.4
1 5 9 142.59 8.7
-1 5 -9 134.89 7.4
-1 5 9 129.69 9.3
-1 5 9 145.09 8
-1 -5 -9 132.19 8
1 -5 9 124.39 7.7
1 5 -9 131.89 6.4
-1 -6 9 612.14 16.7
1 6 9 647.24 16.1
1 6 9 593.24 24.1
-1 6 -9 604.84 16.5
1 -6 -9 615.04 19.1
1 -6 9 625.64 20.9
-1 6 9 616.34 17.6
-1 6 9 613.94 20.4
1 -6 9 624.04 18.1
-1 -6 -9 612.34 18.3
1 6 -9 641.84 14.8
-1 -7 9 303.37 12
1 7 9 331.47 11.9
-1 7 -9 310.27 11.8
1 7 9 306.77 14.6
-1 -7 9 282.67 14.3
1 7 9 320.97 11.3
1 -7 -9 325.57 14.4
-1 7 9 307.17 15.2
1 -7 9 329.87 15.8
-1 -7 -9 303.87 13.4
1 7 -9 322.27 10.2
-1 7 9 334.57 13
1 -7 9 317.37 13.4
1 8 9 271.47 14.6
-1 -8 9 256.97 14.3
1 -8 -9 251.17 13.4
1 8 9 250.57 10.5
1 8 9 263.67 10.3
-1 8 -9 251.77 10.8
-1 -8 9 261.57 11.8
1 -8 9 241.38 14.4
-1 8 9 269.77 12.5
-1 8 9 252.17 14.7
-1 8 9 260.07 11.9
1 8 -9 260.27 9
1 -8 9 263.87 12.8
-1 -8 -9 271.37 13.3
-1 -9 9 45.9 6.4
1 9 9 44.9 4.6
1 -9 -9 54.89 8
1 9 9 50.19 5.1
-1 -9 9 47.5 7.8
1 9 9 39.2 7
-1 9 9 54.79 5.7
-1 9 9 43.6 6.3
1 -9 9 59.69 9.2
-1 9 9 59.59 9
1 -9 9 41.4 6.7
-1 -9 -9 53.49 7.4
1 9 -9 45.6 3.8
1 10 9 124.69 11.3
-1 -10 9 131.09 9.5
1 10 9 132.49 7.7
1 -10 -9 130.99 10.7
1 10 9 138.69 7.6
-1 10 -9 134.49 8.1
-1 -10 9 131.39 11.8
1 -10 9 125.99 11.8
1 10 -9 130.49 5.9
-1 10 9 130.09 8.9
-1 10 9 137.49 9.5
-1 10 9 156.08 12.9
1 -10 9 139.69 12.2
-1 -10 -9 151.78 16.8
-1 -11 9 93.69 10.6
1 11 9 113.89 11.3
1 11 9 90.19 6.1
1 11 9 96.59 6.4
-1 11 -9 100.29 6.8
1 11 -9 86.39 4.2
1 -11 9 98.89 8.9
-1 11 9 79.79 7
-1 11 9 85.59 7.6
-1 -11 -9 96.39 9.6
-1 11 9 67.69 10.8
1 12 9 6.1 2.3
1 12 9 15 5.1
-1 -12 9 9.9 3.3
1 12 9 11.3 2.5
-1 12 -9 8.3 2.7
-1 12 9 7.9 2.7
-1 12 9 12 3.6
-1 12 9 0.1 2.9
1 13 9 12.9 2.5
-1 13 -9 15.6 3.5
1 13 9 9.2 5.3
1 13 9 16.7 2.7
-1 13 9 19.8 4.4
-1 13 9 31.6 7.9
-1 13 9 17.9 4.3
1 14 9 4.9 3.8
-1 14 9 3.3 3.7
-1 14 9 2.4 2.5
-1 14 9 -4.5 2.9
1 15 9 39.4 9.8
-1 15 -9 38.8 3.6
-1 15 9 45.8 6.2
-1 15 9 32.4 9
-1 15 9 33.2 5.1
-2 0 -9 0.5 1.2
2 0 9 2.9 1.5
-2 0 9 -0.3 0.9
2 1 9 146.89 7
-2 -1 9 140.49 7
-2 1 -9 136.99 7.1
2 -1 9 134.09 7
-2 1 9 138.29 7.2
-2 -1 -9 127.49 6.8
-2 1 9 123.99 6.9
-2 2 -9 132.49 7.1
2 2 9 137.69 7.1
-2 -2 9 133.59 6.7
2 2 9 132.39 6.6
2 -2 9 139.89 7.4
-2 2 9 130.29 7.5
-2 2 9 137.09 7.4
-2 -2 -9 123.99 6.8
-2 3 -9 326.57 11.5
2 3 9 298.47 10
2 3 9 297.27 11
-2 -3 9 317.27 10.5
-2 3 9 345.17 14.6
2 3 -9 315.27 9.8
2 -3 9 310.47 11.5
-2 3 9 293.27 12
-2 -3 -9 302.67 10.8
2 4 9 662.33 17.8
-2 4 -9 658.63 17.2
2 -4 -9 642.24 18.2
-2 -4 9 637.94 15.5
2 4 9 664.43 15.3
2 4 -9 672.13 14.5
-2 4 9 676.53 19.5
-2 -4 -9 643.34 16.8
2 -4 9 642.74 17.7
-2 4 9 692.53 18.4
2 -5 -9 684.63 19.6
2 5 9 685.23 15.7
2 5 9 712.93 19.6
-2 -5 9 682.33 16.5
-2 5 -9 676.83 17.9
-2 -5 -9 726.93 22.2
-2 5 9 675.93 21
2 5 -9 678.53 14.2
-2 5 9 728.23 19.6
-2 -5 -9 686.73 18.1
2 -5 9 710.13 19.4
-2 -6 9 402.06 12.7
-2 6 -9 388.56 13.6
2 6 9 413.86 11.8
2 -6 -9 369.76 15
2 6 9 383.96 15.2
-2 -6 -9 408.46 14.4
-2 6 9 406.06 16.9
2 -6 9 397.36 16.8
2 -6 9 388.66 14.7
-2 6 9 410.66 15
2 6 -9 397.66 10.2
2 -7 -9 0.3 1.8
-2 -7 9 0.6 1.4
2 7 9 -1.4 1.7
-2 7 -9 -1.9 1
-2 -7 9 -0.7 1.6
2 7 9 -1.7 1.2
2 7 9 2 1.4
-2 7 9 -1.2 1.5
-2 7 9 -0.6 1.5
2 -7 9 2.4 2.2
2 -7 9 3.1 2.5
-2 -7 -9 2.3 1.8
2 7 -9 1 1
-2 -8 9 35.6 6.2
2 8 9 46.6 7.4
2 8 9 38.7 3.9
-2 8 -9 44.1 5
2 -8 -9 36.2 6.2
2 8 9 37.6 4
-2 -8 9 39 5.4
-2 8 9 39.6 6
-2 8 9 51.79 8.6
2 -8 9 43.2 6.6
-2 8 9 36.6 5.8
-2 -8 -9 43.3 6.5
2 -8 9 36 6.9
2 9 9 499.55 12.8
2 -9 -9 516.15 24.4
-2 9 -9 501.15 16.7
-2 -9 9 469.35 20.1
2 9 9 467.55 20.1
2 9 9 474.05 13
-2 -9 9 484.25 16.3
-2 9 9 475.65 18
-2 9 9 489.55 21.9
2 -9 9 474.35 18.8
-2 -9 -9 493.25 18.7
-2 9 9 461.75 17.2
2 10 9 3.1 1.7
2 -10 -9 7.3 3.3
2 10 9 3.5 2.9
-2 10 -9 3.4 2.2
-2 -10 9 7.7 4.2
-2 -10 9 2.9 2.2
2 10 9 2 1.3
-2 -10 -9 3.3 3.1
2 -10 9 4.1 3.5
-2 10 9 1.7 2.5
-2 10 9 3.6 2.9
-2 10 9 -1.2 2.1
2 -10 9 2.6 3.5
2 11 9 49.3 3.4
-2 -11 9 61.09 6.6
-2 -11 9 70.19 10.2
2 11 9 57.49 3.8
-2 11 -9 52.69 5.9
2 11 9 60.19 9.6
-2 11 9 45.9 7.2
-2 11 9 49.3 6.9
-2 -11 -9 69.39 7.9
-2 11 9 51.19 9.2
2 12 9 44.8 8.2
-2 -12 9 45.4 6.8
-2 12 -9 39.8 5.9
-2 12 9 35.8 6.1
-2 12 9 51.29 9.7
-2 12 9 42 6.7
2 13 9 69.19 11
-2 13 -9 77.29 6.8
-2 13 9 84.49 8.3
-2 13 9 64.89 7.4
-2 13 9 65.59 11.3
-2 14 -9 1.8 2.3
2 14 9 -5.2 2.9
-2 14 9 2.5 4.1
-2 14 9 1.9 2.8
-2 14 9 -0.4 3.6
2 15 9 37.8 10.2
-2 15 -9 22.1 4.1
-2 15 9 12.1 3.9
-2 15 9 10.8 5.8
-2 15 9 24.1 5.5
3 0 9 -0.4 1.2
-3 0 9 -0.5 1
-3 0 -9 -1.1 0.8
-3 -1 9 100.89 6
-3 1 -9 101.59 6.4
3 1 9 99.29 5.8
-3 1 9 94.29 6.2
3 -1 9 101.39 6.3
-3 -1 -9 112.19 6.4
-3 1 9 103.69 6.5
-3 2 -9 558.24 15.7
-3 -2 9 588.94 14.6
3 2 9 604.04 14.5
-3 -2 -9 567.44 15
-3 2 9 602.44 16.9
3 -3 -9 -0.6 1.2
-3 3 -9 2.9 2
-3 -3 9 1.5 1.3
3 3 9 4.9 1.7
3 3 9 3.2 1.6
3 -3 9 0.2 1.2
-3 3 9 3.1 1.8
-3 -3 -9 1.8 1.4
3 -4 -9 10.3 2.8
3 4 9 7.9 2.4
3 4 9 9.2 2.1
-3 -4 9 10.2 2.4
-3 4 -9 8.6 2.5
-3 4 9 8.7 3.1
-3 -4 -9 9.8 2.6
3 -4 9 6.7 2.6
3 5 9 262.47 8.7
-3 5 -9 244.18 13.2
3 5 9 281.67 11.8
3 -5 -9 273.87 12.4
-3 -5 9 283.57 10
-3 -5 -9 274.97 10.8
3 -5 9 306.67 13
-3 5 9 269.47 13.2
-3 6 -9 4.9 2.5
-3 -6 9 2.2 1.7
3 6 9 3.1 1.4
3 6 9 -1.2 1.1
3 -6 -9 2.7 2.1
-3 -6 -9 6.4 2.3
3 -6 9 2.7 2.2
-3 6 9 1.3 2.2
-3 -6 -9 2.5 1.8
3 -6 9 2.3 2.2
-3 -7 9 10.7 2.6
-3 -7 9 10.3 3.5
3 7 9 11.5 2.2
3 7 9 10.7 3.3
-3 7 -9 10.2 3.1
3 -7 -9 17.7 4.4
3 7 9 13.3 2.5
-3 -7 -9 10 2.9
-3 7 9 6.8 3.3
3 -7 9 14.3 3.9
3 -7 9 15.9 4.6
-3 -8 9 123.39 7.5
3 8 9 121.89 9.6
-3 -8 9 110.29 9.4
3 8 9 125.69 5.6
3 8 9 117.99 5.1
3 -8 -9 111.39 9.3
-3 8 -9 144.39 9.1
-3 8 9 111.09 8.9
-3 8 9 146.09 11.5
3 -8 9 108.99 8.9
3 -8 9 116.89 10.5
-3 -8 -9 128.69 8.8
-3 9 -9 182.68 10.7
-3 -9 9 173.48 9.4
3 9 9 165.58 5.4
3 9 9 174.48 11.9
3 9 9 159.48 5.1
3 -9 -9 153.18 11.7
-3 -9 9 157.68 11.5
-3 9 9 177.18 11.5
-3 -9 -9 174.58 10.8
3 -9 9 173.18 11.5
-3 9 9 171.18 13.4
3 10 9 271.77 15.7
-3 -10 9 265.87 15.7
-3 10 -9 261.37 13
-3 -10 9 240.98 11.7
-3 -10 -9 270.67 14.1
-3 10 9 246.38 13.5
3 -10 9 239.88 14.8
-3 10 9 262.57 14.3
-3 10 9 250.37 16.9
-3 -11 9 4.9 2.8
3 11 9 -0.4 2.4
-3 11 -9 7.2 2.9
-3 -11 9 2.4 3.1
-3 11 9 6 3.2
-3 -11 -9 6.1 3.2
-3 11 9 1.9 3.1
-3 11 9 5.6 4
-3 -12 9 57.89 7.6
3 12 9 64.29 10
-3 12 -9 56.49 6.5
-3 12 9 69.99 8.1
-3 12 9 55.19 8.1
-3 12 9 54.79 17.1
-3 -12 -9 64.59 9.4
-3 13 -9 10.9 3.8
3 13 9 1.2 4
-3 -13 9 17.1 4.4
-3 13 9 14.3 6.6
-3 13 9 17.2 4.9
-3 13 9 7.8 4.1
3 14 9 -3.3 3.5
-3 14 -9 9.3 3.6
-3 14 9 -2.9 4.1
-3 14 9 11 4.3
-3 14 9 10.3 5.5
3 15 9 24.1 7.3
-3 15 -9 24 4.9
-3 15 9 26.2 6.1
-3 15 9 10.6 4.6
-3 15 9 24.5 8.4
-4 0 9 0.4 1
-4 0 -9 0.3 1.2
4 0 9 3.2 1.8
-4 1 -9 11.5 2.7
4 1 9 10.8 2.5
-4 -1 9 14.2 3
4 -1 9 9.3 2.6
-4 -1 -9 12.7 2.8
-4 1 9 10.2 2.7
4 2 9 476.45 12.7
-4 2 -9 456.45 14.6
-4 -2 9 458.65 13
4 -2 9 483.25 15
-4 2 9 478.45 15.2
-4 -2 -9 452.25 13.4
4 3 9 49.6 3.9
4 3 9 54.49 4.6
-4 3 -9 47.9 4.9
4 -3 -9 63.19 5.4
-4 -3 9 56.99 4.4
-4 3 9 51.59 5.4
4 -3 9 51.59 5.1
-4 -3 -9 53.69 4.5
4 -4 -9 19.7 4.1
4 4 9 15.6 2.6
-4 -4 9 18.1 3
4 4 9 16.1 3.1
4 -4 9 21.1 4.2
-4 4 9 13 4.2
-4 -4 -9 15.8 3
-4 5 -9 118.49 8.1
-4 -5 9 123.79 6.5
4 -5 -9 107.19 8
4 5 9 114.29 5.2
4 5 9 108.09 7.2
4 -5 9 110.09 8.1
-4 5 9 108.89 8.6
-4 -5 -9 111.39 6.8
4 -5 9 115.89 9
4 6 9 1 0.9
-4 6 -9 2.7 2
4 6 9 -2.6 1
-4 -6 9 -0.7 1.1
4 -6 -9 -2.4 1
4 6 9 0.7 0.9
4 -6 9 0.6 1.8
-4 -6 -9 -1.9 0.8
4 -6 9 1.2 2.3
-4 6 9 -0.5 1.6
4 -7 -9 1244.18 31.3
4 7 9 1228.88 15.6
4 7 9 1217.98 15.9
-4 7 -9 1236.18 28.8
-4 -7 9 1258.37 30.1
-4 -7 9 1265.67 26.7
-4 -7 -9 1198.58 25.7
-4 7 9 1193.28 32.9
-4 -7 -9 1266.27 26.8
4 -7 9 1192.88 30.3
4 -7 9 1254.37 33.5
-4 -8 9 89.09 6.2
-4 -8 9 85.59 8.3
4 -8 -9 94.19 8.7
4 8 9 85.69 7.9
-4 8 -9 76.99 7.4
4 -8 9 89.69 9.2
-4 8 9 61.59 9.2
-4 -8 -9 85.09 7
-4 8 9 89.39 8.3
4 -8 9 86.09 9.8
-4 -9 9 94.09 6.8
4 9 9 107.29 9.3
-4 9 -9 100.49 8.5
-4 -9 9 96.99 9.1
-4 9 9 103.69 9.4
4 -9 9 88.69 9.1
-4 -9 -9 100.69 8.1
-4 9 9 105.49 10.8
-4 -10 9 18.4 5.6
4 10 9 10.4 4
-4 10 -9 11.6 3.7
-4 -10 9 15.9 3.6
-4 10 9 15.9 5.8
-4 -10 -9 8 3.1
-4 10 9 15.6 4.8
4 11 9 189.28 13.6
-4 -11 9 184.18 10.4
-4 11 -9 188.78 12
-4 -11 9 167.18 12.7
-4 11 9 173.68 12.7
-4 11 9 181.38 15.4
-4 -12 9 0.8 2.8
-4 -12 9 2.2 2.7
-4 12 -9 -1.3 2.2
4 12 9 -1.5 2.3
-4 12 9 -4.1 2.4
-4 12 9 5.9 4
-4 -12 -9 1.3 2.8
-4 12 9 1.1 3.3
-4 -13 9 39.7 6.8
-4 13 -9 36.9 6.7
4 13 9 41.8 8.5
-4 13 9 41.9 9.8
-4 13 9 44.3 7.9
-4 14 -9 12.4 4.3
4 14 9 8.3 8.4
-4 14 9 19.5 5.3
-4 14 9 19.1 6.6
4 15 9 61.19 11
-4 15 -9 68.49 8
-4 15 9 54.29 9.9
-4 15 9 65.19 12.8
-5 0 -9 -0.7 1.2
5 0 9 0.8 1.6
-5 0 9 0.6 1.2
-5 1 -9 177.68 9
5 1 9 197.58 8.5
-5 1 9 192.28 9.3
-5 -1 -9 173.78 8.4
5 2 9 335.07 10.6
-5 2 -9 336.87 12.9
-5 2 9 306.37 12.4
5 -2 9 334.67 12.8
-5 -2 -9 317.47 11.3
-5 -3 9 2089.39 31.6
5 3 9 2050.89 29.1
5 -3 -9 2147.59 36.1
-5 3 -9 1929.51 41.9
5 3 9 2066.89 31.6
5 -3 9 2090.79 36.9
-5 -3 -9 2023.1 32.3
-5 3 9 2072.59 37.7
-5 -4 9 247.68 9.2
5 4 9 251.37 7.8
5 4 9 249.48 10
5 -4 -9 231.28 11.2
-5 4 -9 258.57 12
5 -4 9 273.47 12.7
-5 -4 -9 249.88 10
-5 4 9 254.87 12.7
-5 -5 9 334.07 10.7
5 5 9 338.87 12.5
-5 5 -9 347.07 14.4
5 5 9 336.67 7.7
5 -5 -9 337.67 14.3
-5 5 9 317.37 15.1
5 -5 9 355.76 15.1
5 -5 9 356.96 15.9
-5 -5 -9 338.07 11.8
5 6 9 119.69 7.9
-5 6 -9 109.19 8.4
-5 -6 9 112.69 6.3
5 -6 -9 125.19 9.2
5 -6 9 104.49 9.1
-5 6 9 115.99 9.9
-5 -6 -9 113.49 7
5 -6 9 121.29 9.2
-5 -7 9 161.48 10.2
5 7 9 150.28 9.4
-5 -7 9 141.09 8.4
-5 7 -9 124.39 9.3
5 -7 -9 129.79 10.2
5 -7 9 129.59 10.7
5 -7 9 127.59 10.2
-5 -7 -9 156.48 8.5
-5 7 9 140.39 11.3
-5 -8 9 134.69 10
-5 8 -9 130.09 9.6
5 8 9 143.59 9.9
-5 -8 9 139.99 7.5
-5 8 9 136.09 11.7
-5 -8 -9 133.49 8.6
-5 -8 -9 140.29 8.5
5 -8 9 145.19 11.1
-5 8 9 147.39 11
-5 -9 9 45 7.2
5 9 9 30.8 5.8
-5 9 -9 48.4 7.3
-5 -9 9 36.7 4.3
5 -9 9 36.9 7
-5 9 9 56.39 9.4
-5 9 9 37.7 7
-5 -9 -9 43.6 6.2
5 10 9 125.99 10.5
-5 -10 9 129.49 8
-5 -10 9 124.89 10.8
-5 10 -9 118.79 9.8
-5 10 9 139.19 13.2
-5 10 9 127.39 10.8
-5 -10 -9 135.69 9.6
-5 -11 9 65.59 6.4
5 11 9 75.49 8.5
-5 -11 9 70.69 10.3
-5 11 -9 65.99 8.8
-5 11 9 68.69 9.8
-5 11 9 71.69 11.9
-5 -11 -9 70.79 7.7
-5 12 -9 21.2 5.4
-5 -12 9 14.8 6.1
-5 -12 9 20 4.7
5 12 9 20.8 5.9
-5 12 9 22.1 7
-5 12 9 21.8 6.5
-5 -12 -9 27.9 5.6
-5 13 -9 75.49 8.1
-5 -13 9 50.09 6.9
5 13 9 68.39 10.2
-5 13 9 72.79 10.2
-5 13 9 68.89 12.7
-5 14 -9 21.2 5.7
5 14 9 25.1 6.8
-5 14 9 2.2 5.5
-5 14 9 14.5 5.9
6 0 9 -0.7 1.3
-6 0 9 0.3 1.1
-6 0 -9 -1.1 1.2
6 1 9 30.9 4.3
-6 1 -9 35.3 5.1
-6 -1 9 35.6 3.9
-6 -1 -9 36 5
6 -1 9 36.5 4.3
-6 1 9 35.9 5
6 2 9 127.79 6.5
-6 2 -9 117.89 8.2
6 -2 9 127.79 8.2
-6 -2 -9 124.59 7.3
-6 2 9 115.19 7.9
6 3 9 191.08 7.1
-6 3 -9 190.48 10.5
6 -3 -9 194.88 10
6 3 9 191.58 8.2
6 -3 9 190.28 10.4
-6 -3 -9 203.68 9.1
-6 4 -9 68.09 6.7
-6 -4 9 67.29 4.9
6 4 9 63.19 5
6 4 9 66.39 3.4
6 -4 -9 64.39 6.3
-6 4 9 63.49 6.6
6 -4 9 56.29 6.4
6 -4 9 64.69 6.6
-6 -4 -9 65.19 5.3
-6 5 -9 2.1 2.2
-6 -5 9 2.2 1.4
6 -5 -9 0.8 1.8
6 5 9 -0.9 1.1
-6 -5 -9 1.9 1.5
-6 5 9 -0.9 1.5
6 -5 9 2.5 2.7
6 -5 9 3.9 2.5
6 -6 -9 351.26 15.7
-6 6 -9 348.57 15.5
6 6 9 354.96 13.3
-6 -6 9 358.96 11.2
6 -6 9 342.87 16.1
-6 -6 -9 346.67 12.3
6 -6 9 317.17 16.3
-6 6 9 361.96 17.4
-6 -7 9 3.1 1.7
-6 -7 9 2 2.2
6 7 9 1.4 1.8
-6 7 -9 4 2.7
6 -7 -9 0.5 2.3
6 -7 9 -5 1.7
-6 7 9 0.5 2
-6 -7 -9 3.3 1.9
-6 7 9 -0.3 2.1
6 -8 -9 0.7 2.7
-6 8 -9 6.1 3.1
-6 -8 9 2.4 1.5
6 8 9 0.7 1.9
-6 -8 9 6.4 2.5
-6 8 9 -2.6 1.7
6 -8 9 2 2.9
-6 -8 -9 1.1 1.8
-6 8 9 -1.1 2.6
-6 9 -9 127.29 10.2
-6 -9 9 123.09 7
6 9 9 118.69 9.3
-6 -9 9 136.49 10.3
-6 9 9 125.49 11.1
-6 -9 -9 124.79 8.5
-6 9 9 139.49 12.8
-6 -10 9 25.5 5.9
-6 10 -9 44.9 7.5
-6 -10 9 40.6 5.2
6 10 9 29.7 6
-6 10 9 31.3 7.2
-6 -10 -9 38.4 6.1
-6 10 9 43.9 8.8
-6 -11 9 364.76 13.8
-6 -11 9 372.46 22.2
6 11 9 376.86 18.1
-6 11 -9 334.57 17.5
-6 11 9 362.96 19.3
-6 11 9 336.67 29.9
-6 -11 -9 350.06 15.7
-6 12 -9 2.7 3.6
-6 -12 9 -8 2.5
6 12 9 -1.7 2.6
-6 -12 9 -3.1 2.2
-6 -12 -9 -3 2.4
-6 12 9 -1.1 2.7
-6 12 9 -1.4 3.2
6 13 9 24.9 6.3
-6 13 9 31.3 8.9
-6 13 9 37.8 8.2
-6 -14 9 29 5.8
6 14 9 24.7 7
-6 14 -9 26.5 5.8
-6 14 9 22 7.1
-6 14 9 32.2 7.6
-7 0 -9 -0.3 1.2
7 0 9 0 1.5
-7 0 9 0.2 1.2
-7 -1 9 215.48 9.4
-7 1 -9 214.18 10.8
7 1 9 221.08 9.2
-7 -1 -9 200.78 9.9
7 -1 9 222.28 10.6
-7 1 9 232.68 10.8
7 2 9 40.4 3.7
-7 2 -9 30.5 5
-7 -2 9 33.3 4.4
-7 -2 -9 38.6 4.4
7 -2 9 37.5 5.5
-7 2 9 29.6 4.9
-7 3 -9 85.99 7.4
7 -3 -9 83.09 6.8
7 3 9 79.99 4.3
7 3 9 80.49 5.2
7 -3 9 85.29 7.4
-7 3 9 76.89 7.1
-7 -3 -9 74.59 5.8
7 -3 9 74.79 6.9
7 4 9 145.59 7.3
-7 4 -9 155.68 10.2
7 -4 -9 139.29 9.1
7 -4 9 163.48 10.8
7 -4 9 146.99 10
-7 4 9 150.18 10.4
-7 -4 -9 162.08 8.3
-7 5 -9 59.59 6.8
7 5 9 53.89 4.8
-7 -5 9 52.39 4.4
7 -5 -9 54.19 7.2
7 -5 9 53.29 7.7
-7 5 9 49.6 7.7
-7 -5 -9 54.19 4.9
7 -5 9 66.89 7.5
-7 -6 9 236.28 9.1
7 -6 -9 257.27 13.9
-7 6 -9 244.38 13.6
7 6 9 247.98 10.7
-7 -6 -9 254.17 10.5
-7 6 9 253.07 15
7 -6 9 251.47 14.8
7 -6 9 233.28 14
-7 -7 9 9.1 2.3
-7 7 -9 11.4 3.9
-7 -7 9 3.5 2.3
7 7 9 3.8 2.2
-7 -7 -9 6.2 2.5
7 -7 9 9.2 3.9
7 -7 9 6.8 4.1
-7 7 9 5.8 3.4
-7 7 9 7.1 3.4
7 8 9 60.79 6.3
-7 8 -9 71.59 7.8
-7 -8 9 76.69 6.3
7 -8 -9 79.49 8.8
-7 -8 9 89.29 7.9
-7 -8 -9 71.39 6.1
-7 8 9 80.19 11.4
-7 8 9 84.09 9.1
7 -8 9 82.79 11.5
-7 -9 9 82.59 5.8
-7 9 -9 94.19 9.4
7 9 9 86.59 7.8
-7 -9 9 75.09 7.9
-7 -9 -9 79.09 6.6
-7 9 9 77.49 11.4
-7 9 9 61.39 9.3
-7 10 -9 -1 2.2
-7 -10 9 5.8 2.6
7 10 9 2.5 2.2
-7 -10 9 -4.5 1.6
-7 10 9 -2 1.9
-7 10 9 -4.2 2.5
-7 -11 9 119.89 10.4
-7 -11 9 120.09 7.8
7 11 9 135.79 10.7
-7 11 -9 146.59 12.2
-7 11 9 131.49 13.8
-7 11 9 131.39 12.4
-7 -12 9 94.29 9.9
-7 -12 9 89.79 7
7 12 9 78.89 9.2
-7 12 -9 90.69 9.8
-7 12 9 87.09 12.1
-7 12 9 91.19 14.2
-7 -13 9 0.6 2.8
-7 13 -9 4.9 3.7
7 13 9 0.7 2.7
-7 -13 -9 -1 3
-7 13 9 -5.2 3
-7 13 9 -6.9 3.1
7 14 9 102.39 10.9
-7 -14 9 107.49 8.4
-7 14 -9 92.99 10.6
-7 14 9 72.79 13.8
-7 14 9 84.39 11.9
-8 0 -9 -0.2 1.5
8 0 9 2.2 1.8
-8 0 9 -0.3 1.2
-8 -1 9 18.4 3.4
-8 1 -9 20.5 4.5
8 1 9 22 3.7
8 -1 9 21.3 4.2
-8 -1 -9 13 3.8
-8 1 9 22.9 4.2
8 2 9 663.73 14.6
-8 2 -9 653.83 20.7
-8 -2 9 662.43 16.7
8 -2 9 663.33 19.8
-8 -2 -9 647.64 18.4
8 -2 9 652.63 20
8 3 9 11.7 2.4
8 -3 -9 15.3 3.7
-8 3 -9 8.6 3.4
-8 -3 9 12.3 2.6
8 -3 9 7.7 3.4
8 -3 9 10.9 3.7
-8 3 9 5.9 2.8
-8 -3 -9 10.3 2.9
-8 4 -9 246.28 13.4
8 -4 -9 272.57 13
8 4 9 271.27 9.6
-8 -4 -9 281.17 11.3
8 -4 9 276.57 14.2
8 -4 9 252.87 13.6
-8 4 9 277.77 14.6
8 5 9 697.33 16.7
-8 5 -9 692.53 23.3
8 -5 -9 685.53 22
8 -5 9 695.83 24
-8 5 9 696.93 24.3
8 -5 9 686.53 23.5
-8 -5 -9 703.43 18.2
8 6 9 40.1 4.3
-8 -6 9 49.6 4.4
8 -6 -9 51.89 7.5
-8 6 -9 38.8 6.9
8 -6 9 33.3 6.9
-8 6 9 41 7.7
-8 -6 -9 42.3 4.5
8 -6 9 50.59 8.1
-8 7 -9 32.1 6.4
-8 -7 9 16.9 4
8 7 9 38.1 5.2
-8 -7 9 28.2 4.3
8 -7 -9 27.6 6.1
-8 7 9 25 6.2
-8 7 9 36.3 7.2
8 -7 9 33.6 6.8
8 -7 9 29 6.6
-8 -7 -9 37.9 4.4
-8 8 -9 61.89 9
8 8 9 56.49 5.9
-8 -8 9 70.59 6.8
8 -8 9 71.89 10.6
-8 -8 -9 58.89 5.5
-8 8 9 65.09 10.5
-8 8 9 70.59 10.2
-8 -9 9 3.6 2.3
-8 -9 9 2.2 1.3
-8 9 -9 0.3 1.9
-8 9 9 3.9 2.9
-8 9 9 -0.4 2.9
-8 -9 -9 -1.9 1.5
-8 10 -9 200.48 14.1
-8 -10 9 196.58 8.8
-8 -10 9 182.48 12
8 10 9 193.28 11.5
-8 10 9 197.28 15.3
-8 -10 -9 181.98 11.8
-8 10 9 178.48 29.8
8 11 9 29 6.1
-8 -11 9 35.6 5
-8 11 -9 36.6 7.4
-8 -11 9 33.7 6.3
-8 11 9 32.3 7.8
-8 11 9 42.1 9.6
-8 -12 9 30.3 6.1
-8 -12 9 32.4 4.6
-8 12 -9 24.4 6.9
8 12 9 34 6.5
-8 12 9 56.19 12
-8 12 9 36.2 8.4
-8 13 -9 -3.6 3.8
-8 -13 9 -0.8 2.5
8 13 9 2.3 3
-8 -13 9 1.3 5.1
-8 13 9 0.6 4.3
-8 13 9 1.1 3.7
9 0 9 0 2.7
-9 0 9 1.1 1.4
9 0 9 1.6 1.7
-9 0 -9 -1 1.6
-9 -1 9 259.47 10.9
9 1 9 272.77 10.1
-9 1 -9 286.57 13.6
-9 1 9 277.37 12.4
9 -1 9 273.17 12.4
-9 -1 -9 271.47 12.6
9 -1 9 266.47 12.1
-9 2 -9 25.2 5.3
9 2 9 18.8 2.9
-9 -2 9 17.1 3.3
9 -2 9 22.4 4.8
-9 -2 -9 23.1 5.2
-9 2 9 19.7 4.6
9 -2 9 22.4 4.3
9 3 9 13.3 2.5
-9 3 -9 17.5 4.7
-9 -3 9 18.1 3.3
9 -3 9 14.3 4.1
-9 3 9 18.2 4.8
-9 -3 -9 16.1 3.9
9 -3 9 16.5 4.5
-9 4 -9 699.63 23.6
9 4 9 673.93 15
-9 -4 9 679.03 16.4
9 -4 -9 667.03 21.1
9 -4 9 642.04 22.3
-9 -4 -9 679.73 18.6
-9 4 9 680.63 23.3
9 -4 9 677.13 22.8
-9 5 -9 234.58 14
9 -5 -9 222.78 12.4
9 5 9 230.68 8.8
-9 5 9 227.78 14.1
-9 -5 -9 224.08 10.3
9 -5 9 225.98 13.8
9 6 9 461.95 13.4
-9 -6 9 438.76 13.4
-9 6 -9 434.86 19.6
-9 -6 9 457.15 15
9 -6 -9 433.66 22
-9 -6 -9 440.76 14.5
-9 6 9 440.66 20.8
-9 6 9 442.06 20.5
9 -6 9 466.75 20.6
9 -6 9 433.76 19.8
9 -7 -9 24.8 6
-9 7 -9 14.7 5.2
-9 -7 9 24.6 4.3
9 7 9 30.1 4.4
9 -7 9 32.7 7.1
-9 -7 -9 21.6 3.9
-9 7 9 24.3 6.6
-9 7 9 22.4 6
-9 8 -9 121.49 11.1
-9 -8 9 101.19 8
-9 -8 9 105.29 6.2
9 8 9 102.79 7
-9 -8 -9 103.09 7.2
-9 8 9 95.39 10.6
-9 8 9 96.59 10.6
9 9 9 23.4 4.4
-9 -9 9 19.1 4.4
-9 -9 9 20.2 3.6
-9 9 -9 31.4 7.5
-9 -9 -9 16.6 3.9
-9 9 9 20.4 7.4
-9 9 9 25.1 6.7
-9 -10 9 47.9 7.3
-9 -10 9 54.09 4.7
9 10 9 41.8 7.4
-9 10 -9 51.49 9
-9 -10 -9 58.29 6.1
-9 10 9 48.6 9.7
-9 10 9 51.29 9.7
-9 -11 9 -1.5 2.7
-9 11 -9 -1 2.8
9 11 9 3.1 2.6
-9 -11 9 3.4 2.1
-9 11 9 -3.4 3.1
-9 11 9 1.5 4.3
-9 12 -9 135.49 13.1
-9 -12 9 151.68 11.9
-9 -12 9 142.99 8.3
9 12 9 135.39 10.3
-9 12 9 152.88 15.8
-9 12 9 142.19 14.5
-9 13 -9 26.7 7.3
-9 -13 9 32.4 5.6
9 13 9 36.7 6.8
-9 -13 9 29.5 6.7
-9 13 9 23.9 7.3
-9 13 9 15.9 7.6
-10 0 -9 -0.8 1.6
10 0 9 1.9 1.5
-10 0 9 -1.3 1.3
-10 1 -9 112.59 9
10 1 9 110.09 6.7
-10 -1 9 107.09 7.1
-10 1 9 101.89 8
-10 -1 -9 120.49 8.8
10 -1 9 118.39 8.2
-10 -2 9 88.39 6.1
-10 2 -9 101.19 8.8
10 2 9 96.99 5.2
10 2 9 98.19 5.9
-10 2 9 93.79 8.1
10 -2 9 105.69 8.3
-10 -2 -9 95.29 7.7
10 -2 9 116.09 8.6
10 3 9 1.1 1
-10 -3 9 -0.1 1
-10 3 -9 2 2.7
-10 3 9 -0.1 2.1
10 -3 9 3.7 2.6
10 -3 9 7.1 2.8
-10 -3 -9 0.3 1.7
10 -4 -9 54.89 6.2
-10 4 -9 48.2 7.6
10 4 9 46.7 3.6
-10 -4 9 42 4
-10 4 9 66.19 9
10 -4 9 53.59 7.9
10 -4 9 45.8 7.1
-10 5 -9 8.2 3.9
10 5 9 5.9 1.7
10 -5 -9 21.3 4.9
-10 -5 9 8.4 2.3
-10 -5 -9 7.5 2.9
10 -5 9 8.8 4.3
10 -5 9 3.9 2.9
-10 5 9 8.4 3.7
-10 6 -9 53.39 8.6
-10 -6 9 69.29 5.7
10 6 9 58.29 4.2
10 -6 -9 65.19 7.5
-10 6 9 50.39 9.2
-10 -6 -9 57.09 5.6
10 -6 9 53.49 8.9
-10 6 9 68.99 10
-10 -7 9 161.08 8.8
10 7 9 157.88 7
-10 7 -9 142.09 12
-10 -7 9 147.89 7.6
-10 -7 -9 143.89 8.5
10 -7 9 149.09 12.9
-10 7 9 164.18 13.7
-10 7 9 139.59 12.3
-10 -8 9 0.2 2.1
10 8 9 6 2.1
-10 8 9 6.1 4.9
-10 -8 -9 5.7 2.6
10 9 9 0.5 1.7
-10 -9 9 0.3 1.7
-10 9 -9 -3.7 2.3
-10 -9 9 -1.2 2.2
-10 9 9 1.1 3.4
-10 9 9 0.6 5.2
10 10 9 -1.5 1.4
-10 10 -9 -2.3 2.7
-10 -10 9 1.9 1.6
-10 -10 9 2.2 2.6
-10 10 9 6.8 4.4
-10 10 9 0.4 3.7
-10 -10 -9 -0.1 1.9
-10 -11 9 9.6 2.6
-10 -11 9 9.5 3.9
-10 11 -9 11 4.8
-10 11 9 12.6 6.4
-10 11 9 0.7 4.9
-10 -12 9 22.2 5.8
10 12 9 25.2 4.8
-10 -12 9 24.6 4.1
-10 12 -9 23 6.9
-10 12 9 34.6 8.6
-10 12 9 37.3 9.7
-11 0 9 -0.2 1.5
-11 0 -9 1.3 2.3
-11 -1 9 14.5 3.2
11 1 9 18.3 3.2
-11 1 -9 19.6 4.8
-11 -1 -9 18.5 4.4
-11 2 -9 3.2 2.7
11 2 9 3.2 1.2
-11 -2 9 2 1.5
11 2 9 -0.2 1.2
11 -2 9 -3.1 1.5
-11 -2 -9 -2.4 1.6
-11 2 9 -1.8 2.1
11 3 9 62.79 3.7
11 3 9 63.99 3.5
-11 3 -9 61.49 9
-11 -3 9 65.39 4.9
11 -3 9 59.19 7
-11 3 9 49.3 7.4
11 -3 9 71.69 7.7
-11 -3 -9 55.79 6
11 4 9 161.98 4.5
-11 -4 9 159.08 7.3
11 -4 -9 168.68 10.9
11 4 9 166.08 4.6
-11 4 -9 150.38 11.9
11 -4 9 159.88 11.4
-11 -4 -9 164.58 9.8
-11 4 9 169.28 12.2
-11 5 -9 363.06 18.8
11 -5 -9 359.26 19.3
-11 -5 9 348.17 10.6
-11 -5 9 347.17 11.3
11 -5 9 357.76 17.9
-11 5 9 334.37 17.8
-11 5 9 380.26 19.7
-11 -5 -9 357.06 14
11 -5 9 329.57 17.1
-11 6 -9 19.3 6.1
11 -6 -9 25.6 5.7
-11 -6 9 33.4 3.7
-11 -6 9 17.1 2.8
-11 6 9 18.6 6.3
-11 6 9 23.1 6.3
-11 -6 -9 17.6 3.9
11 -6 9 26.8 6.5
-11 -7 9 4 1.9
-11 -7 9 2.6 1.6
-11 7 -9 -0.9 2.9
-11 -7 9 0.6 1.2
-11 7 9 0.3 3
-11 -7 -9 -3.7 1.5
-11 -8 9 5.4 2
-11 -8 9 0.3 1.9
-11 8 -9 5.9 3.7
-11 -8 -9 2.4 2.2
-11 8 9 2.3 3.5
-11 8 9 2.1 3.7
-11 -9 9 7.8 2.2
-11 -9 9 7.2 2.7
-11 9 -9 2.1 3.2
-11 9 9 6.3 4.7
-11 -9 -9 4.5 2.4
-11 9 9 4.1 4.6
-11 -10 9 102.99 6.4
-11 -10 9 103.49 7.6
-11 10 -9 120.99 12.4
-11 10 9 128.79 13.5
-11 10 9 149.29 14.9
-11 -10 -9 105.79 7.8
-11 -11 9 3.4 3.2
-11 11 -9 -1.9 3.9
-11 11 9 -7.3 3.2
-11 -11 -9 6.4 3.3
-11 11 9 5.5 4.3
-12 0 9 0.6 1.6
12 0 9 0.9 1.7
-12 0 -9 0.9 2.2
-12 -1 9 41.2 4.7
-12 1 -9 45.5 7.6
12 1 9 34.9 3.7
-12 1 9 36.4 5.7
-12 -1 -9 48.6 7.2
12 2 9 2.9 1.2
-12 2 -9 9.1 4.2
12 2 9 6.2 1.4
-12 -2 9 6.6 1.9
-12 2 9 4.4 2.2
12 -2 9 6.3 3.3
-12 -2 -9 0.4 2.8
-12 -3 9 88.69 5.4
-12 3 -9 87.09 9.2
12 -3 9 77.09 7.8
-12 3 9 91.39 8.6
-12 -3 -9 85.49 7.6
-12 -4 9 41.5 3.5
-12 4 -9 42.4 8.1
-12 4 9 34.8 6.6
-12 4 9 64.59 9.8
12 -4 9 40.9 6.9
-12 -4 -9 37.3 5.9
12 -5 -9 10.8 4
-12 -5 9 10.3 2.2
-12 5 -9 19.3 5.9
-12 -5 9 16.8 2.3
-12 -5 -9 12.3 3.5
-12 5 9 14.3 5.5
12 -5 9 13 4.7
-12 5 9 15.9 5.3
-12 -6 9 225.28 6.8
-12 -6 9 228.98 7.2
-12 6 -9 196.98 14.8
12 -6 -9 220.78 20.5
-12 6 9 231.68 17.1
-12 -6 -9 241.48 11.8
12 -6 9 216.28 15.3
-12 6 9 241.28 16.1
-12 -7 9 22.9 2.6
-12 7 -9 27.2 7.1
-12 -7 9 25.1 2.4
-12 7 9 33.3 8.4
-12 -7 -9 19.7 4.2
-12 7 9 25.1 6.9
-12 -8 9 123.29 7.1
-12 -8 9 127.09 5.6
-12 -8 9 117.99 5
-12 8 -9 131.09 12.7
-12 8 9 130.89 13.6
-12 -8 -9 124.09 8.4
-12 -9 9 21.3 2.5
-12 9 -9 21.8 6.4
-12 -9 9 11.7 3.2
-12 -9 9 12.1 2.6
-12 -9 -9 17.9 4
-12 9 9 11 5.9
-12 9 9 13.5 6.9
-12 -10 9 17.4 3.1
-12 10 -9 35.5 8.1
-12 -10 9 26 3
-12 -10 9 21.2 3.6
-12 10 9 9.5 5.8
-12 -10 -9 28.5 5
-12 10 9 19.2 7.3
13 0 9 -3.8 1.5
-13 0 -9 0.1 2.7
-13 -1 9 4.8 1.9
13 1 9 3.9 1.2
-13 1 -9 6.4 4
13 1 9 3.7 1.4
13 -1 9 2.6 3.9
-13 -1 -9 2.7 2.9
-13 1 9 7.4 2.9
-13 2 -9 -0.9 2.7
-13 -2 9 2.2 1.4
13 -2 9 2.5 2.6
-13 2 9 -4.3 1.7
-13 -2 -9 -3.8 1.9
-13 3 -9 89.69 9.8
-13 -3 9 63.79 3.9
-13 -3 -9 54.49 7.6
-13 3 9 62.99 8.7
13 -3 9 67.49 7.5
-13 3 9 70.79 10.5
-13 4 9 72.89 11.4
-13 4 9 74.49 8.4
-13 -4 -9 76.29 7.6
13 -4 9 68.09 9.1
-13 5 -9 37.5 8
13 -5 9 34.1 7.3
-13 5 9 40 8.4
-13 5 9 29.4 6.8
-13 -5 -9 46.4 6.6
-13 6 -9 3.8 4.2
-13 6 9 0.2 3.1
-13 6 9 -1.9 3.3
-13 -6 -9 -1.3 1.9
13 -6 9 -0.3 6.6
-13 7 -9 3.1 4.5
-13 7 9 3.2 4.4
-13 -7 -9 6.3 3.2
-13 7 9 7.8 4.8
-13 -8 9 34.5 5
-13 8 -9 35.1 8.3
-13 8 9 35.9 8.8
-13 -8 -9 46 5.4
-13 8 9 35.2 8.7
-13 9 -9 2.4 3
-13 9 9 -0.2 4.9
-13 -9 -9 4.3 2.5
-13 9 9 7 4.2
-14 0 -9 1.6 3.1
-14 0 9 4.1 2
14 0 9 -2.8 1.3
-14 -1 9 -1.9 1.2
-14 1 -9 3.2 3.1
-14 1 9 2.2 2.2
14 -1 9 1.8 2.3
-14 -2 9 129.59 5.3
-14 2 -9 121.99 11.4
-14 -2 -9 124.19 10.6
-14 2 9 153.48 10.4
14 -2 9 140.09 9.3
-14 2 9 141.59 12.7
-14 3 -9 31.7 7.5
-14 3 9 31.8 5.7
-14 -3 -9 35.8 6.5
14 -3 9 44.1 6.7
-14 4 -9 19 5.7
14 -4 9 15.1 4.9
-14 -4 -9 13.7 4.5
-14 4 9 11.7 5.4
-14 4 9 11.3 4.2
-14 5 -9 15 5.8
14 -5 9 10.6 5.2
-14 5 9 16.2 6.3
-14 5 9 13.7 4.8
-14 -5 -9 9.7 3.7
-14 6 -9 3.8 3.9
-14 6 9 5.3 4.6
-14 -6 -9 3.9 2.5
-14 6 9 21.8 6
-14 7 -9 -0.6 3.9
-14 7 9 3.9 5.2
-14 -7 -9 4 3
-14 7 9 4.1 4.4
-14 8 -9 45.1 9.2
-14 -8 9 37.5 7.7
-14 8 9 39 9.1
-14 -8 -9 43.1 5.9
-14 8 9 26.2 8.5
-15 0 9 3 1.7
-15 0 9 -3 2.2
-15 0 -9 -0.4 3.6
-15 -1 9 18.6 2.5
-15 1 -9 15.5 5.1
-15 -1 -9 20.7 6.2
15 -1 9 23.9 3.7
-15 1 9 10.9 5.3
-15 2 -9 3.3 3.5
15 -2 9 3.7 3
-15 2 9 -1.3 2.3
-15 2 9 -2.7 3.6
-15 -2 -9 8.3 3.6
-15 3 -9 -3.3 3
-15 3 9 -1.9 3.3
-15 3 9 -1.2 2.7
-15 -3 -9 -4.4 2.4
-15 4 -9 147.89 13.7
-15 4 9 150.38 14.4
-15 4 9 150.58 11.8
15 -4 9 134.99 10.9
-15 -4 -9 153.38 11.6
-15 5 -9 58.59 10.4
-15 5 9 76.09 12.2
15 -5 9 70.89 9.9
-15 -5 -9 63.59 7.5
-15 5 9 53.19 9.2
-15 6 -9 6.4 4.7
-15 6 9 -5.8 4.2
-15 6 9 6 5.1
-15 -6 -9 4.5 3.4
-16 0 -9 1 3.5
-16 0 9 1.8 4.7
-16 -1 9 22.5 5.9
-16 1 -9 44 8.8
-16 -1 -9 36.9 7.8
-16 1 9 30.4 7.6
-16 1 9 27 4.3
-16 2 -9 93.09 10.9
-16 -2 9 106.49 10.9
-16 2 9 105.49 11.8
-16 -2 -9 98.49 10.6
16 -2 9 99.79 10.9
-16 2 9 111.39 8.5
-16 3 -9 33.4 8
-16 -3 -9 34.4 7.2
-16 3 9 56.99 10.6
-16 3 9 48.2 7.1
0 0 -10 14.1 3.1
0 0 10 11 2.6
0 -1 10 1.9 1.5
0 1 -10 1.1 1.4
0 1 10 1.6 1.4
0 -1 -10 1.5 1.3
0 2 -10 301.97 10.8
0 2 10 310.07 11.1
0 -2 -10 317.77 11.8
0 -2 10 286.97 10.7
0 3 10 0.6 1.3
0 3 -10 -1.5 0.8
0 -3 10 0.5 1.4
0 3 10 0.9 1.5
0 4 -10 192.38 8.7
0 4 10 193.78 10.2
0 -4 10 187.98 8.9
0 5 10 -0.3 1.6
0 5 10 0.1 1.3
0 5 -10 -1.1 1
0 -5 -10 -1.2 1.2
0 -5 10 1.5 1.6
0 -6 10 63.09 5.7
0 6 10 55.09 6.2
0 6 -10 70.09 5.4
0 6 10 67.19 5.7
0 -6 -10 58.99 6
0 -7 10 -0.3 1.5
0 -7 10 1.9 2.1
0 7 10 0.3 1.6
0 7 -10 0.7 1.4
0 -7 -10 0.6 1.8
0 7 10 0.8 1.8
0 8 10 1172.38 25.7
0 8 10 1218.48 27.5
0 -8 10 1232.28 33.3
0 -8 10 1126.79 27.3
0 8 10 1222.08 33
0 8 -10 1214.58 24.1
0 -8 -10 1221.68 30.4
0 -9 -10 1.9 2.4
0 9 10 -0.3 1.7
0 9 -10 -2.3 1.1
0 -9 10 4.1 3.1
0 -9 10 -1.3 1.7
0 9 10 0.9 1.9
0 10 10 1101.59 25.3
0 -10 10 1085.49 34.2
0 10 -10 1122.09 22.8
0 10 10 1085.79 34.1
0 -10 -10 1045.4 30.7
0 10 10 1103.79 26.2
0 11 10 0.9 1.9
0 11 -10 0.5 1.5
0 11 10 1.6 3
0 -11 10 1.1 3
0 11 10 -2 1.5
0 12 10 39 5.5
0 12 10 34.2 5.3
0 12 10 29.9 7.4
0 12 -10 37.8 4
0 13 -10 1.1 1.5
0 13 10 1.1 2.5
0 13 10 -2.1 1.8
0 13 10 -1 3.3
0 14 10 143.89 15.1
0 14 10 136.59 8.1
0 15 10 0 1.9
0 15 10 0.7 2
0 15 10 -7.4 3.8
-1 0 10 8.7 2.4
-1 0 -10 9.8 2.7
1 0 10 12.8 2.7
1 0 -10 10.3 2.7
-1 1 -10 49.4 4.6
1 1 10 55.19 4.7
-1 -1 10 48.6 4.4
-1 1 10 54.79 4.6
1 1 -10 44.7 4.2
1 -1 10 54.49 4.7
-1 -1 -10 49.7 4.5
-1 2 -10 846.42 19.3
1 2 10 837.22 18.7
-1 -2 10 856.91 19
1 2 10 861.91 20
-1 2 10 881.01 20.6
-1 2 10 812.22 22.5
1 2 -10 885.71 19
-1 -2 -10 869.81 19.9
-1 -3 10 2609.54 43
1 3 10 2620.54 37.9
-1 3 -10 2666.53 38.9
1 3 10 2672.33 40.4
1 3 -10 2557.94 36.8
1 -3 10 2702.83 39.8
-1 3 10 2634.94 39.6
-1 -3 -10 2615.34 39.9
-1 3 10 2578.54 41.2
1 4 10 60.29 5.6
1 -4 -10 72.09 6
1 4 10 56.59 4.9
-1 4 -10 62.99 5.2
-1 -4 10 66.29 5.4
1 -4 10 68.19 5.6
-1 4 10 66.99 5.5
-1 -4 -10 56.89 5.3
1 4 -10 60.39 4.6
-1 4 10 57.29 5.7
1 5 10 102.99 6.5
-1 -5 10 84.19 6.2
-1 5 -10 98.19 6.5
1 -5 -10 87.59 7
1 5 10 95.19 7.4
-1 5 10 88.69 6.5
-1 -5 -10 97.69 7
1 5 -10 88.79 5.6
-1 5 10 94.09 7.8
1 -5 10 99.49 7.1
-1 -6 10 16.9 3.6
1 6 10 18.9 4.4
1 -6 -10 22.5 4.5
1 6 10 18.9 3.5
-1 6 -10 19.1 3.5
-1 6 10 23.1 5
1 -6 10 19.5 4.1
1 6 -10 21.6 3.4
-1 -6 -10 15.5 3.6
-1 6 10 27 4.7
-1 -7 10 705.93 23.3
1 7 10 704.73 22.9
-1 7 -10 701.93 18.7
1 -7 -10 708.73 22
-1 -7 10 701.73 19.4
1 -7 10 708.43 20.9
1 -7 10 671.33 23.3
-1 -7 -10 708.43 21.2
-1 7 10 719.33 23.9
-1 7 10 712.63 20
1 7 -10 709.43 16.3
-1 8 -10 12.8 3.6
1 8 10 16.2 4.5
-1 -8 10 17 5
1 -8 -10 12.9 3.8
1 8 10 16.3 3.5
-1 -8 10 19.4 4.3
-1 8 10 11.8 4.2
-1 8 10 16.6 4.2
1 -8 10 13.7 3.9
-1 -8 -10 24.8 5.2
1 -8 10 7.1 3.5
1 8 -10 15.7 2.9
-1 8 10 24.8 4.8
1 9 10 92.19 6.9
1 9 10 89.89 9.2
1 9 10 107.19 10.3
-1 -9 10 73.59 8.5
-1 9 -10 106.59 7.3
1 -9 -10 80.49 11.5
-1 -9 10 88.19 7.3
1 -9 10 86.99 8
-1 9 10 93.89 7.9
-1 9 10 86.59 9.6
-1 -9 -10 84.79 8
1 9 -10 96.99 5.6
-1 9 10 85.09 7.3
-1 10 -10 4.4 2.2
-1 -10 10 -3.9 2.4
-1 -10 10 12.6 3.7
1 10 10 0.5 1.8
1 -10 -10 4.3 2.8
1 10 10 4.5 3.6
1 -10 10 6.9 3.4
-1 10 10 6.4 4.4
1 10 -10 11.3 2.3
-1 -10 -10 2 2.4
1 -10 10 3.3 3.6
-1 10 10 6.3 3.3
-1 10 10 -2.2 2.3
-1 11 -10 23.8 4.3
1 11 10 25.5 4
1 11 10 17.2 5.3
-1 -11 10 15.9 6.3
-1 -11 10 23.4 4.9
1 11 10 11.9 5
1 11 -10 16.3 2.5
-1 11 10 24.9 4.7
-1 11 10 24.2 6.9
-1 11 10 24.5 4.8
1 -11 10 16.3 5
-1 -11 -10 22.5 5.9
1 12 10 73.29 5.6
1 12 10 80.49 5.8
-1 12 -10 64.19 5.9
1 12 10 70.59 11.2
-1 12 10 55.99 6.5
-1 12 10 65.59 6.9
-1 12 10 76.69 11.7
1 13 10 1.1 1.7
1 13 10 0.1 1.6
-1 13 -10 0.8 1.7
-1 13 10 -5.5 2.3
-1 13 10 5.4 3
-1 13 10 -3.1 2.5
1 14 10 10.6 5.8
1 14 10 3.5 1.3
-1 14 10 3.9 4.3
-1 14 10 3.6 3
-1 14 10 6.8 3.6
1 15 10 100.39 14.5
-1 15 -10 87.89 5.1
-1 15 10 84.69 7.1
-1 15 10 95.59 14.8
-1 15 10 73.59 7.8
-2 0 -10 231.28 9.7
-2 0 10 221.08 9.4
2 0 10 229.68 9.4
-2 1 -10 1052.49 22.1
-2 -1 10 1094.89 21.8
2 1 10 1096.49 21.7
2 -1 10 1015.6 25.2
-2 -1 -10 1067.79 22.1
-2 1 10 1052.99 22.6
-2 -2 10 799.52 18.3
-2 2 -10 812.62 19.3
2 2 10 821.02 18.2
-2 2 10 817.82 20.3
-2 2 10 818.52 19.6
-2 -2 -10 789.42 18.9
2 -2 10 811.52 19.5
-2 -3 10 121.89 6.8
2 3 10 113.99 7.1
2 3 10 110.39 6.4
-2 3 -10 112.59 7
-2 -3 -10 110.49 7
2 3 -10 117.69 6.3
-2 3 10 114.09 7.7
2 -3 10 110.59 7.2
-2 3 10 108.19 7.1
2 4 10 106.49 7.3
2 4 10 87.19 5.7
2 -4 -10 89.79 6.8
-2 4 -10 89.19 6.5
-2 4 10 95.99 14.5
2 4 -10 87.19 5.4
2 -4 10 97.49 7
-2 4 10 102.09 7
-2 -4 -10 93.19 6.5
2 -5 -10 85.09 7
2 5 10 84.39 6.8
-2 -5 10 92.39 6.3
2 5 10 81.39 5.5
-2 5 -10 73.99 6
2 5 -10 72.19 4.8
2 -5 10 81.49 6.7
-2 -5 -10 81.59 6.4
-2 5 10 77.69 6.4
-2 5 10 84.39 7.5
2 6 10 111.59 8.4
-2 -6 10 103.69 6.8
-2 6 -10 106.19 7.5
2 6 10 113.99 6.5
2 -6 -10 105.29 8.2
-2 6 10 111.99 9
-2 -6 -10 104.19 7.4
2 6 -10 106.69 5.6
-2 6 10 105.29 7.7
2 -6 10 111.69 8.2
2 7 10 49.4 4.4
-2 7 -10 53.09 5.4
2 -7 -10 45.9 7
2 7 10 61.69 8.3
-2 -7 10 54.79 5.3
2 7 -10 47.5 3.6
2 -7 10 49.8 7.6
2 -7 10 50.89 7.2
-2 -7 -10 59.89 6
-2 7 10 56.59 8.5
-2 7 10 45.5 6.2
-2 -8 10 521.65 20.6
2 8 10 498.95 19.9
2 8 10 524.65 14.8
-2 8 -10 497.75 16.7
2 8 10 537.75 14.3
2 -8 -10 546.55 20.6
-2 -8 10 518.45 16.7
2 -8 10 541.85 19.4
2 -8 10 531.65 22
-2 8 10 519.65 21.9
-2 8 10 519.95 18.7
-2 8 10 527.65 18.2
-2 -8 -10 541.55 18.9
-2 -9 10 75.69 6.7
-2 9 -10 73.79 6.7
2 -9 -10 69.79 8
2 9 10 72.79 5.1
2 9 10 68.69 5.4
-2 -9 10 72.69 8.4
2 9 10 71.09 8.3
-2 9 10 75.19 7.3
-2 -9 -10 68.09 7.2
-2 9 10 63.29 9.6
-2 9 10 74.79 7.4
2 -9 10 74.59 8.8
2 10 10 0.1 1.4
-2 -10 10 0.1 1.8
-2 -10 10 6.3 3.4
2 10 10 -3.2 1.8
2 10 10 -1.9 1.1
-2 10 -10 1.4 2.1
-2 10 10 4 2.7
2 -10 10 -0.8 2.6
-2 10 10 1.7 2.6
-2 10 10 -3.8 1.9
-2 -11 10 0.5 3.5
2 11 10 -0.1 1.3
2 11 10 1.1 1.4
2 11 10 6.5 3.5
-2 11 -10 0.3 1.8
-2 -11 -10 -1.7 2.1
-2 11 10 1.4 2.8
-2 11 10 -5.3 2.2
-2 11 10 3.2 2.9
2 12 10 238.18 6.5
-2 12 -10 228.18 11.7
2 12 10 248.68 17.2
-2 -12 10 228.48 13.5
2 12 10 227.58 6.2
-2 12 10 236.78 13.5
-2 12 10 226.88 13
-2 12 10 267.97 22.3
-2 13 -10 0.8 2.2
2 13 10 -3 2.7
-2 13 10 0 2.2
-2 13 10 0.8 4.2
-2 13 10 7.3 3.5
2 14 10 71.69 12.4
-2 14 -10 51.59 6.7
-2 14 10 60.39 12
-2 14 10 59.49 9
-2 14 10 40.4 6.7
2 15 10 51.79 10.1
-2 15 -10 53.59 5.3
-2 15 10 39.3 6.8
-2 15 10 49.9 6.9
-2 15 10 45.5 10.2
3 0 10 153.38 7.8
-3 0 -10 155.68 8.1
-3 1 -10 86.19 6.1
-3 -1 10 72.29 5.4
3 1 10 73.29 5.3
-3 1 10 65.19 5.5
3 -1 10 79.79 7
-3 1 10 84.29 6.3
-3 -1 -10 72.19 5.5
3 2 10 228.48 9.1
-3 -2 10 222.88 9.2
-3 2 -10 212.28 9.8
-3 -2 -10 215.88 9.5
3 -2 10 224.48 10.1
-3 2 10 235.88 10.6
-3 2 10 224.78 10.5
-3 -3 10 695.13 16.9
3 3 10 698.23 16.4
-3 3 -10 719.33 18.9
3 3 10 701.03 17.9
-3 -3 -10 728.53 18.1
3 -3 10 735.63 19.5
-3 3 10 744.03 19.8
-3 3 10 710.73 20.1
-3 -4 10 36.3 3.9
3 4 10 42.1 4.5
3 4 10 39.1 3.8
3 -4 -10 41 5.7
-3 4 -10 40.9 5.6
-3 4 10 43.5 6.6
3 -4 10 54.09 5.5
-3 -4 -10 37.4 4.1
3 5 10 2.6 1.8
-3 -5 10 -1.4 1.2
3 5 10 2.4 1.5
-3 5 -10 4.7 2.3
3 -5 -10 0.4 1.4
-3 -5 -10 2.9 1.8
3 -5 10 1.4 2
-3 5 10 3.2 2.5
3 -6 -10 338.77 15
3 6 10 341.27 10.5
-3 -6 10 344.07 12.1
-3 6 -10 365.96 14.2
3 -6 10 361.76 16.7
-3 6 10 353.26 16.6
3 -6 10 356.86 15
-3 -6 -10 356.96 13.5
-3 7 -10 2.7 2.2
3 7 10 1.1 1.4
3 7 10 4.2 2.3
3 7 10 3.2 1.6
-3 -7 10 -1.3 1.5
3 -7 -10 3.4 2.4
3 -7 10 0.9 2.4
-3 7 10 2.2 2.7
-3 -7 -10 2.9 1.8
3 -7 10 -0.7 1.6
-3 -8 10 30.4 4.8
-3 -8 10 33.1 6.1
3 -8 -10 22.8 5.1
3 8 10 26.8 3.6
3 8 10 27.2 5.6
-3 8 -10 19.6 4.6
3 8 10 26.2 2.9
-3 8 10 19.2 4.8
3 -8 10 23.6 5.1
-3 8 10 27.7 5.5
3 -8 10 22.8 6
-3 -8 -10 25.3 4.8
-3 8 10 27 6.4
3 9 10 23.8 2.8
-3 -9 10 24.5 6
-3 -9 10 32.7 5.2
3 9 10 22.4 2.5
-3 9 -10 26.1 5
3 9 10 20.4 5
-3 -9 -10 23.7 5
-3 9 10 19.9 6
-3 9 10 30.5 5.8
-3 9 10 19.4 4.8
3 -9 10 32.4 6.2
3 10 10 147.49 4.5
-3 -10 10 127.79 8.8
-3 10 -10 134.29 9.5
3 10 10 139.09 11.5
3 10 10 140.29 4.3
-3 -10 -10 160.38 11.2
-3 10 10 128.39 12.4
3 -10 10 136.49 13.1
-3 10 10 139.39 10.6
-3 10 10 133.69 10.4
3 11 10 17.7 5.7
-3 11 -10 12.3 3.6
-3 -11 10 12.4 5.1
-3 -11 10 7.2 3.3
-3 11 10 9.2 4.8
-3 11 10 19.7 5.3
-3 11 10 14.1 4
-3 -11 -10 23.6 5.4
-3 -12 10 96.19 8.5
3 12 10 101.29 11.2
-3 12 -10 71.99 7.4
-3 12 10 70.09 7.8
-3 12 10 71.49 8.1
-3 12 10 93.29 13.9
-3 13 -10 0.6 2.9
3 13 10 -1.5 3.5
-3 13 10 2.8 3.9
-3 13 10 0.5 3.4
-3 13 10 -1.9 3.2
3 14 10 107.89 14.6
-3 14 -10 107.89 9.1
-3 14 10 116.59 10.5
-3 14 10 118.49 10.8
-3 14 10 117.69 13.6
-3 15 -10 12.3 4.1
3 15 10 12.9 6.3
-3 15 10 18.9 7.7
-3 15 10 11.3 4.8
-4 0 -10 13.1 3
-4 0 10 10.7 2.8
4 0 10 15.4 3.2
-4 0 10 8 2.4
4 1 10 1883.11 30.7
-4 1 -10 1932.21 33.1
-4 1 10 1868.41 32.7
-4 -1 -10 1883.61 31.8
4 -1 10 1847.02 32.2
-4 -2 10 8.7 2.6
4 2 10 12.7 2.8
-4 2 -10 9.6 2.8
-4 -2 -10 14 3
-4 2 10 11.1 3.1
4 -2 10 10.2 2.9
-4 -3 10 1.8 1.4
4 3 10 1 1.2
4 3 10 3.3 1.7
-4 3 10 -0.9 1.4
-4 -3 -10 2.6 1.5
4 -3 10 -0.1 1.3
4 -4 -10 10.1 3.2
-4 -4 10 12.2 2.8
4 4 10 10.7 3
-4 4 -10 11.2 3.2
4 4 10 10.3 2.3
-4 4 10 10.8 3.4
-4 -4 -10 17 3.4
4 -4 10 16.8 4.1
-4 5 -10 2.2 2
4 -5 -10 0.7 1.7
4 5 10 2.8 1.8
4 5 10 2.9 1.6
-4 -5 -10 2.1 1.7
-4 5 10 2.1 2.2
4 -5 10 0.8 1.9
-4 6 -10 310.97 13.7
4 6 10 321.97 13.5
-4 -6 10 300.47 11
4 -6 -10 287.67 14
4 6 10 309.07 8.9
4 -6 10 319.37 14.6
4 -6 10 286.77 14.9
-4 -6 -10 293.17 12
-4 6 10 283.37 15
-4 7 -10 35.5 5.7
4 7 10 35.1 2.9
4 7 10 33.9 2.9
4 7 10 36.9 6
-4 -7 10 37.4 4.3
4 -7 -10 25.5 5.3
4 -7 10 36.3 6.7
4 -7 10 40.2 6.8
-4 7 10 32.2 6.5
-4 -7 -10 40 5.7
-4 -8 10 388.66 17.3
-4 -8 10 374.56 13.2
4 8 10 368.06 6.8
4 8 10 402.46 17
4 8 10 372.36 7
-4 8 -10 382.46 16
-4 8 10 379.36 19.3
4 -8 10 349.37 16.7
-4 -8 -10 357.06 14.6
-4 8 10 371.16 16.9
-4 9 -10 224.18 12.6
-4 -9 10 225.08 13.9
-4 -9 10 223.38 10.5
4 9 10 241.88 14
-4 9 10 239.08 16.2
-4 9 10 200.58 12.8
-4 -9 -10 216.08 11.9
4 -9 10 224.48 14.1
4 10 10 9.7 4.2
-4 10 -10 10.4 4
-4 -10 10 2.8 2.3
-4 -10 10 8.5 3.5
-4 -10 -10 5.9 3
-4 10 10 9.5 4
-4 10 10 3.6 3.8
-4 -11 10 51.59 6.9
-4 11 -10 61.99 7
-4 -11 10 48.7 8.8
4 11 10 61.19 9.3
-4 -11 -10 62.99 7.3
-4 11 10 60.79 9.1
-4 11 10 55.79 8.2
-4 11 10 64.59 11.1
-4 -12 10 -5.1 2.5
4 12 10 0.4 2.8
-4 12 -10 1.2 2.6
-4 12 10 0.9 3.2
-4 -12 -10 1.3 3.3
-4 12 10 -1.5 2.8
4 13 10 72.19 11.1
-4 13 -10 65.49 7.6
-4 -13 10 55.99 9
-4 13 10 82.79 13.1
-4 13 10 53.89 8.9
4 14 10 0.6 3.2
-4 14 -10 0.4 3
-4 14 10 -0.7 3.7
-4 14 10 1.4 3.5
4 15 10 45.9 10.1
-4 15 -10 35.8 6.4
-4 15 10 44.9 10.8
-4 15 10 32.3 7.7
-5 0 10 217.58 9.9
-5 0 -10 211.48 10
5 1 10 36.1 4
-5 1 -10 38.4 4.5
5 -1 10 36.7 5.4
-5 1 10 40.7 4.4
-5 -1 -10 35.1 4.1
-5 -2 10 254.87 12.2
5 2 10 255.27 9.7
-5 2 10 254.97 11.8
5 -2 10 254.67 11.6
-5 -2 -10 265.67 10.8
-5 3 -10 296.97 12.8
-5 -3 10 277.07 15.9
5 3 10 293.27 9.9
5 3 10 276.37 10.6
-5 3 10 284.67 13
5 -3 10 283.37 12.6
-5 -3 -10 283.97 11.2
-5 -4 10 83.19 6.6
-5 4 -10 72.19 6.7
5 -4 -10 79.59 6.8
5 4 10 83.89 5
5 4 10 87.49 6.2
5 -4 10 86.99 7.5
-5 -4 -10 86.79 6.3
-5 4 10 81.59 7.5
5 5 10 26.4 2.6
5 5 10 26.8 4.5
5 -5 -10 19.5 4.3
-5 5 -10 19.2 4.3
-5 -5 -10 23.5 3.9
-5 5 10 23 5.1
5 -5 10 20.4 4.9
5 -5 10 34 5.8
5 6 10 689.43 19.8
5 -6 -10 647.94 21.6
-5 -6 10 633.64 16.5
-5 6 -10 658.43 21.1
5 6 10 639.94 10.9
5 6 10 642.04 11.1
-5 -6 -10 668.93 18.3
-5 6 10 652.23 23.5
5 -6 10 642.14 23.2
5 -6 10 681.73 22.5
-5 7 -10 126.99 9.5
5 7 10 139.59 9.3
5 -7 -10 149.49 10.8
-5 -7 10 135.79 7.5
-5 7 10 134.89 11.4
-5 -7 -10 139.89 8.5
5 -7 10 124.89 11
-5 -8 10 21.9 3.8
5 8 10 26.7 5.4
-5 -8 10 24.1 5.2
-5 8 -10 23.4 5.1
5 -8 -10 25.6 6
-5 8 10 26.1 5.8
-5 -8 -10 18.7 4.8
-5 8 10 21.4 5.8
5 -8 10 27.5 6.4
5 9 10 110.79 9.4
-5 -9 10 117.69 10.1
-5 9 -10 140.09 10.5
-5 -9 10 116.69 7.6
5 -9 10 148.69 15
-5 9 10 119.09 12
-5 9 10 119.39 10.7
-5 -9 -10 122.89 8.9
-5 -10 10 16.4 5.1
-5 -10 10 15.3 3.7
5 10 10 15.9 4.4
-5 10 -10 23.6 5.8
-5 10 10 17.6 5.6
-5 -10 -10 13.2 4
-5 10 10 16.4 5.2
5 11 10 330.17 17.9
-5 -11 10 304.67 13.4
-5 11 -10 325.47 16.5
-5 -11 10 338.17 18.4
-5 11 10 316.97 17.8
-5 11 10 386.06 27.4
-5 -11 -10 306.87 18.2
-5 12 -10 334.87 16.9
-5 -12 10 341.57 17.1
5 12 10 303.87 17.8
-5 12 10 313.87 18.1
-5 -12 -10 312.67 16.3
-5 12 10 356.26 22.8
-5 -13 10 48.6 6.6
-5 13 -10 40.5 7.4
5 13 10 36.1 8
-5 13 10 46.8 10.3
-5 13 10 43.7 9.1
5 14 10 35.5 9.7
-5 14 -10 22.9 6.7
-5 14 10 19.4 5.9
-5 14 10 25.5 7.7
6 0 10 19.9 4
-6 0 10 17.7 3.6
-6 0 -10 18.7 3.7
-6 -1 10 9.1 2.5
-6 1 -10 9.5 3.1
6 1 10 9.6 2.8
-6 1 10 13.5 3.1
6 -1 10 14.1 3.4
-6 -1 -10 7.5 2.5
6 2 10 32.5 3.8
-6 2 -10 36.1 5.7
-6 -2 -10 38 4.3
-6 2 10 30.1 5.7
6 -2 10 41.5 5.9
-6 3 -10 991.6 25.3
6 3 10 981.7 20.7
-6 -3 10 990.4 21.6
6 3 10 1028.1 19.3
6 -3 10 987.3 25.3
-6 3 10 970 25.6
-6 -3 -10 987 22.2
6 4 10 0.4 1.1
-6 4 -10 0.5 1.7
6 -4 -10 -0.1 1.7
6 4 10 1 1.4
-6 -4 -10 0.8 1.5
-6 4 10 2.7 2.2
6 -4 10 0.6 2.2
6 -4 10 2.6 2.5
6 5 10 64.29 2.9
-6 5 -10 56.79 6.6
6 5 10 64.59 5.6
6 -5 -10 58.59 6.4
6 -5 10 59.79 6.7
-6 -5 -10 64.99 5.7
-6 5 10 56.29 8.1
6 -5 10 54.59 7.8
-6 6 -10 0.5 2.4
6 6 10 6.4 2.4
-6 -6 10 3.9 1.8
6 -6 -10 2.9 2.4
6 -6 10 5.6 3.3
-6 6 10 2.8 2.8
-6 -6 -10 2 1.9
6 -6 10 5.3 3.2
-6 -7 10 93.09 8
6 7 10 92.19 7.9
-6 -7 10 100.69 6.4
6 -7 -10 111.49 10.8
-6 7 -10 96.29 8.9
6 -7 10 92.39 9.1
-6 -7 -10 84.29 6.7
6 -7 10 107.59 10.1
-6 7 10 94.79 9.9
6 8 10 257.97 13.1
6 -8 -10 285.37 15.7
-6 -8 10 244.08 10.1
-6 -8 10 249.08 13.6
-6 8 -10 275.47 14.9
6 -8 10 260.37 16.4
-6 8 10 267.87 15.4
-6 -8 -10 269.07 12.4
-6 8 10 258.77 16.9
-6 -9 10 102.29 9.4
-6 -9 10 106.19 6.9
6 9 10 86.99 8.1
-6 9 -10 96.99 9.1
-6 -9 -10 90.89 7.6
-6 9 10 89.29 10.4
-6 9 10 98.19 10
-6 10 -10 127.19 10.7
-6 -10 10 141.49 8.4
-6 -10 10 139.99 11.4
6 10 10 139.09 10.8
-6 10 10 144.09 14.1
-6 10 10 168.78 13.3
-6 -11 10 76.59 8.5
6 11 10 76.09 8.6
-6 -11 10 75.59 6.6
-6 11 -10 75.69 8.6
-6 11 10 77.39 12.1
-6 11 10 84.49 11.6
-6 -11 -10 63.39 8.4
-6 -12 10 24.9 4.5
6 12 10 9.8 4.7
-6 12 -10 23.9 6.1
-6 -12 10 14.2 4.6
-6 -12 -10 13.6 4.3
-6 12 10 17 6.3
-6 13 -10 -6.2 2.7
6 13 10 2.4 3.4
-6 13 10 -1.6 2.9
-6 13 10 -2.1 3.8
-6 14 -10 6.3 4
6 14 10 7.4 5.6
-6 14 10 6.6 5.4
-6 14 10 12.9 6.3
-7 0 10 188.28 9.6
-7 0 -10 178.68 9.8
7 0 10 186.38 9.5
7 1 10 413.36 13.5
-7 1 -10 416.46 15.6
-7 -1 10 427.26 14
-7 -1 -10 397.26 17.1
-7 1 10 407.56 14.9
7 -1 10 428.36 15.2
-7 -2 10 4.3 1.9
7 2 10 0.9 1.5
-7 2 -10 1.1 1.7
-7 -2 -10 2.9 1.9
-7 2 10 2.5 2.1
7 -2 10 1.2 1.8
-7 3 -10 45.1 6.6
7 3 10 33.2 3.3
7 3 10 34.4 3.8
7 -3 10 33.4 5.8
-7 -3 -10 34.8 4.9
-7 3 10 33.9 5.6
7 -3 10 42.1 6.4
-7 -4 10 44.1 4.5
7 4 10 41.3 2.7
-7 4 -10 45.6 7
7 -4 -10 49.7 5.7
7 4 10 45.1 4.5
7 -4 10 31.4 5.9
7 -4 10 48.5 7.5
-7 4 10 34.8 5.9
-7 -4 -10 41.5 4.5
-7 5 -10 8.3 3.7
7 -5 -10 6.3 3.3
-7 -5 10 11.1 2.7
7 5 10 12 2.9
7 -5 10 8.7 3.7
-7 -5 -10 11.8 2.9
-7 5 10 14.2 4.5
7 -5 10 9.7 3.8
7 -6 -10 471.85 18.9
-7 -6 10 505.45 14.3
7 6 10 481.45 15.7
-7 6 -10 442.26 18.6
-7 6 10 482.15 20.9
-7 -6 -10 466.95 15.2
7 -6 10 470.65 19.8
7 -6 10 523.45 21.5
-7 7 -10 118.39 9.9
-7 -7 10 111.19 8.6
7 -7 -10 109.89 9.8
7 7 10 107.29 7.8
-7 -7 10 116.89 6.8
7 -7 10 103.39 9.9
7 -7 10 95.99 13.9
-7 -7 -10 118.09 7.8
-7 7 10 108.29 10.8
-7 -8 10 6 2.1
7 8 10 1.6 1.8
-7 -8 10 -1.8 2.1
7 -8 -10 5.6 3.2
-7 8 -10 8.6 3.6
-7 8 10 6.1 4.1
-7 8 10 1.3 2.8
-7 -8 -10 3.6 2.4
7 -8 10 8.4 4.4
7 9 10 33.3 5.8
-7 -9 10 27.4 4.2
-7 -9 10 22.2 5.1
-7 9 -10 24.2 5.8
-7 9 10 26.1 6.3
-7 9 10 22.3 6.6
-7 -9 -10 23.1 4.7
7 10 10 11.3 4.1
-7 -10 10 3.6 2.6
-7 10 -10 7.9 3.9
-7 -10 10 9.8 3.7
-7 10 10 1.3 3.5
-7 10 10 1.6 3.9
-7 11 -10 0.1 2.3
7 11 10 -1.9 2.4
-7 -11 10 2.2 2.1
-7 11 10 -3.4 3
-7 11 10 -2.3 3.3
7 12 10 2.1 3.8
-7 12 -10 8.9 4.1
-7 -12 10 -1.4 3.5
-7 -12 10 -2.3 2.7
-7 12 10 7.1 5.1
-7 12 10 6.9 4.4
-7 13 -10 71.09 10.5
7 13 10 52.89 9.1
-7 -13 10 59.49 7.7
-7 13 10 64.89 10.7
-7 13 10 65.79 12.8
7 14 10 -8 3.4
-7 14 10 -0.8 4.7
8 0 10 123.39 7.9
-8 0 -10 122.19 8.5
-8 0 10 121.59 7.9
8 1 10 12.8 3
-8 -1 10 19.1 3.6
-8 1 -10 12.9 3.8
8 -1 10 7.6 3.2
-8 1 10 12.3 3.8
-8 -1 -10 8 2.9
-8 2 -10 8.7 3.3
8 2 10 7.6 2.2
-8 -2 10 6 2.2
8 -2 10 5 2.6
8 -2 10 5.8 3.1
-8 2 10 10.6 3.2
-8 -2 -10 11.4 3.8
8 3 10 -0.1 0.9
-8 -3 10 0.2 1.4
-8 3 -10 3.1 2.7
8 3 10 0.5 1.3
8 -3 10 4 2.5
-8 3 10 1.5 2
8 -3 10 -2.1 2.3
-8 -3 -10 2.4 1.7
8 4 10 1.5 1.4
8 -4 -10 -1.6 1.5
-8 4 -10 -1.9 1.5
8 -4 10 -0.9 2.1
-8 4 10 2.7 2.3
8 -4 10 2.3 2.3
-8 -4 -10 1 1.7
-8 -5 10 105.99 6.7
8 5 10 97.79 6.5
8 -5 -10 104.59 8.7
-8 5 -10 104.49 9.2
8 -5 10 100.89 11.1
8 -5 10 103.59 9.4
-8 -5 -10 93.29 6.9
-8 5 10 97.99 9.4
8 6 10 70.59 5.9
-8 6 -10 71.79 7.9
8 -6 -10 74.09 8
-8 -6 10 64.19 5.1
8 -6 10 70.19 9.7
-8 6 10 66.59 9.6
-8 -6 -10 65.19 5.8
8 -6 10 67.99 9.5
8 7 10 24.7 4.4
-8 7 -10 30.4 6.4
8 -7 -10 14.2 4.1
-8 -7 10 20 4.3
-8 -7 10 22.8 3.9
-8 7 10 17.3 5.2
-8 -7 -10 22.2 4.1
8 -7 10 14.6 5.4
-8 7 10 26.3 6.3
8 8 10 201.28 11
-8 -8 10 186.28 11.2
-8 8 -10 187.98 13.2
-8 -8 10 197.28 9
-8 8 10 208.78 14.8
-8 8 10 184.98 14.8
-8 -9 10 36.2 6.5
-8 -9 10 20.9 3.9
8 9 10 27.8 5.2
-8 9 -10 19.1 5.3
-8 9 10 11.9 5.3
-8 -9 -10 27.1 5
-8 9 10 17.7 5.5
-8 -10 10 51.19 5
8 10 10 45.7 6.8
-8 -10 10 62.79 7.3
-8 10 10 46.6 9.8
-8 -10 -10 44 6.2
-8 10 10 29.9 9.1
-8 -11 10 41 4.8
-8 -11 10 29 5.7
8 11 10 32.7 6.2
-8 11 -10 32.5 7.8
-8 11 10 35.9 8.7
-8 11 10 35.4 8.1
-8 -12 10 70.69 10
8 12 10 80.59 9.1
-8 12 -10 70.39 10.3
-8 -12 10 69.59 6.6
-8 12 10 88.79 12.4
-8 12 10 49.3 10.8
8 13 10 62.79 9.4
-8 13 -10 42.7 8.3
-8 13 10 35.3 9.5
-8 13 10 55.89 10.7
9 0 10 286.57 12
-9 0 -10 256.97 12.9
-9 0 10 284.57 12.4
-9 1 -10 276.47 13.7
9 1 10 295.07 11.2
-9 -1 10 310.67 12.3
9 -1 10 285.17 13
9 -1 10 293.77 12.9
-9 1 10 300.57 13.9
-9 -1 -10 303.77 13.6
-9 2 -10 407.96 17.3
-9 -2 10 444.66 14.3
9 2 10 439.56 11.8
-9 -2 -10 424.96 15.8
9 -2 10 443.26 16.9
-9 2 10 460.35 17.6
9 -2 10 441.46 16.9
-9 -3 10 355.36 12.4
-9 3 -10 344.27 16.3
9 3 10 348.77 11
9 -3 10 356.46 16.1
-9 3 10 368.96 16.5
-9 -3 -10 363.26 14.2
9 -3 10 344.57 15.5
9 4 10 10.2 2.4
9 -4 -10 12.6 3.6
-9 4 -10 6.8 3.4
-9 -4 10 7.7 2.5
9 -4 10 4.2 3.1
-9 4 10 9.6 3.8
-9 -4 -10 8.2 3.3
9 -4 10 6.5 3.5
9 -5 -10 250.97 13.6
9 5 10 273.07 10.2
-9 5 -10 247.38 14.6
9 -5 10 240.38 14.5
9 -5 10 261.47 15.1
-9 5 10 240.78 14.8
-9 -6 10 43.8 4.6
9 -6 -10 37.2 6.6
-9 6 -10 52.29 8.2
9 6 10 44.5 4.5
9 -6 10 38.9 7.8
-9 6 10 41.7 7.9
-9 -6 -10 43.7 8.7
9 7 10 115.79 7.4
9 -7 -10 118.59 10.8
-9 -7 10 129.69 8.8
-9 7 -10 106.19 10.5
-9 -7 10 122.59 7.2
-9 7 10 106.59 10.8
9 -7 10 122.59 11.5
-9 7 10 130.99 12.3
9 8 10 18.8 4.2
-9 -8 10 13.9 3.1
-9 8 -10 14.6 5.1
-9 -8 10 9.4 3.8
-9 8 10 6.2 4
-9 -8 -10 12.1 3.4
-9 8 10 11.6 5.1
9 9 10 3.1 2
-9 -9 10 -1 1.6
-9 -9 10 -0.1 2.4
-9 9 10 -2 3.7
-9 9 10 -2.1 2.5
-9 -9 -10 3.8 2.5
9 10 10 24.8 5.1
-9 10 -10 19.1 6.1
-9 -10 10 21.8 5.2
-9 -10 10 27.2 4.2
-9 10 10 16.6 5.9
-9 -10 -10 30.7 5.1
-9 10 10 31.3 8.2
-9 -11 10 9.1 2.6
-9 -11 10 0.1 2.9
9 11 10 4.5 2.9
-9 11 -10 4.5 4.2
-9 11 10 -1.4 3.3
-9 11 10 -4.9 2.6
-9 -12 10 69.49 9.2
-9 12 -10 72.69 11
9 12 10 86.59 8.6
-9 -12 10 82.59 7
-9 12 10 81.79 14.5
-9 12 10 67.59 11.1
10 0 10 782.12 20.2
-10 0 10 755.42 21.2
10 0 10 770.82 20.3
-10 0 -10 797.42 24
10 1 10 238.88 10.4
-10 1 -10 228.88 13
-10 -1 10 242.58 11.1
10 -1 10 220.58 11.6
-10 1 10 229.58 12.1
10 -1 10 231.58 11.7
-10 -1 -10 247.28 12.7
10 2 10 416.46 11.9
-10 2 -10 438.16 18.4
-10 -2 10 426.06 14.1
-10 -2 -10 409.76 16.1
-10 2 10 430.06 17.3
10 -2 10 410.76 16.7
10 -2 10 403.76 16.3
10 3 10 2.9 1.4
-10 3 -10 3 2.3
-10 -3 10 2.2 1.5
10 -3 10 0.2 2.3
-10 -3 -10 3.2 2.6
10 -3 10 -2.1 2.4
-10 3 10 -0.2 1.8
-10 4 -10 4 3.4
10 4 10 0.4 1
-10 -4 10 1.7 1.3
-10 4 10 1.7 2.3
-10 -4 -10 -3.3 1.3
10 -4 10 -3.4 2.5
-10 -5 10 8 2.4
-10 5 -10 15.2 4.8
10 -5 -10 17.1 4.6
10 5 10 12 2.4
10 -5 10 8.2 4.2
-10 -5 -10 13.3 3.4
-10 5 10 13.9 4.8
10 -5 10 6.9 3.7
-10 6 -10 76.39 8.9
10 6 10 72.49 5.1
-10 -6 10 72.09 6
-10 -6 10 74.49 6.3
10 -6 -10 58.49 8.3
-10 6 10 82.99 11.6
-10 6 10 85.89 10
-10 -6 -10 75.89 6.6
10 -6 10 74.09 10.2
10 7 10 24.2 3.6
-10 7 -10 22.6 6.1
-10 -7 10 19.9 4.6
-10 -7 10 19.8 3.7
-10 -7 -10 19.7 4.2
-10 7 10 18.5 6.4
-10 7 10 17.8 6
-10 -8 10 7.9 2.7
-10 -8 10 0.8 2.8
-10 8 -10 5.2 4
10 8 10 10.8 2.7
-10 8 10 6.3 4.3
-10 8 10 18.2 6
-10 -8 -10 8 3
-10 9 -10 45.7 8.6
10 9 10 46.9 5.2
-10 -9 10 39.6 6.2
-10 -9 10 50.89 5
-10 -9 -10 54.99 5.9
-10 9 10 40.7 9
-10 9 10 31.2 7.9
-10 -10 10 12.4 2.9
10 10 10 7.7 3.1
-10 10 -10 11.2 5.4
-10 -10 10 13.5 4.4
-10 -10 -10 8.6 3.5
-10 10 10 5 4.6
-10 10 10 16.2 6
-10 -11 10 15.1 3.4
-10 -11 10 23.4 5.2
-10 11 -10 16.5 5.5
10 11 10 12.6 3.8
-10 11 10 28.9 8
-10 11 10 16.6 7.1
-10 -12 10 112.69 10.7
10 12 10 127.29 9.4
-10 -12 10 114.39 7.8
-10 12 10 119.99 13.6
-10 12 10 108.59 15.8
-11 0 10 80.39 8.4
-11 0 -10 81.79 8.1
11 0 10 80.49 6.6
-11 1 -10 115.19 9.6
11 1 10 110.19 6.9
-11 -1 10 94.69 7
11 -1 10 95.19 7.7
-11 1 10 86.29 7.6
-11 -1 -10 89.59 8.2
-11 -2 10 13.8 3.3
11 2 10 10.8 2.3
11 2 10 9.6 2.3
-11 2 -10 15.5 4.5
-11 2 10 4.8 2.8
11 -2 10 8.2 3.5
-11 -2 -10 10.7 3.6
11 -2 10 12.7 3.5
11 3 10 52.09 3.8
11 3 10 62.49 4.4
-11 -3 10 46.4 4.7
-11 3 -10 51.99 8.4
11 -3 10 64.59 7.3
-11 3 10 53.79 8
11 -3 10 61.49 8.3
-11 -3 -10 47.9 6.8
-11 4 -10 42.4 7.9
-11 -4 10 37.8 4
11 4 10 32.4 3
11 -4 10 28.5 5.8
11 -4 10 36.1 7.1
-11 4 10 45.9 7.9
-11 -4 -10 41.1 6.1
-11 -5 10 6 2
11 -5 -10 2.5 2.9
-11 5 -10 7 3.7
11 5 10 1.6 1.1
11 -5 10 0.5 2.8
11 -5 10 4.6 3
-11 5 10 3.6 3.3
-11 -5 -10 3.6 2.5
11 -6 -10 13.6 4.6
11 6 10 9.2 1.7
-11 6 -10 14.5 5
-11 -6 10 13.8 2.7
-11 -6 10 10.7 2.7
11 -6 10 14.4 4.3
-11 6 10 17.9 5.6
-11 6 10 19.4 5.9
-11 -6 -10 6.4 2.9
-11 7 -10 3.3 3.4
-11 -7 10 11.5 2.7
11 7 10 6 1.5
-11 -7 10 2.7 2.5
-11 -7 10 3.5 2.4
-11 -7 -10 6.3 2.8
-11 7 10 -1.7 3.2
-11 7 10 4.9 4.1
-11 -8 10 368.56 12.9
-11 -8 10 362.16 17.5
-11 8 -10 392.76 21.2
11 8 10 351.46 9.6
-11 8 10 392.96 22.4
-11 8 10 348.87 21.5
-11 -8 -10 389.56 15
11 9 10 47.4 4
-11 -9 10 52.89 5.8
-11 -9 10 52.59 5.1
-11 9 -10 47.5 9.5
-11 -9 -10 50.99 6.7
-11 9 10 53.19 10.3
-11 9 10 50.19 9.9
-11 -10 10 135.79 7.7
-11 10 -10 123.39 12.6
-11 -10 10 123.29 9.2
-11 10 10 144.09 14.7
-11 -10 -10 111.59 8.5
-11 10 10 100.19 14.7
-11 -11 10 5.7 2.3
-11 11 -10 -1.7 2.9
-11 11 10 1.4 4.2
-11 -11 -10 6.5 2.8
-11 11 10 11.5 4.9
-12 0 -10 29.1 6.1
12 0 10 22.4 4.2
-12 -1 10 30.8 4.9
12 1 10 32 4.4
-12 1 -10 30.9 6.8
-12 1 10 46.1 6.7
12 -1 10 33.3 5.1
-12 -1 -10 30.4 5.9
-12 -2 10 5.1 2.1
12 2 10 1.4 1.1
-12 2 -10 3.5 3.3
12 2 10 1.8 1.4
-12 -2 -10 1.8 2.3
-12 2 10 1.2 2.2
12 -2 10 4.3 2.6
-12 3 -10 39.6 7.8
12 3 10 35.1 2.6
12 3 10 31.2 2.3
-12 -3 10 29 4.1
-12 3 10 28.9 6
-12 -3 -10 30.5 5.7
12 -3 10 26 5.4
-12 -4 10 59.29 4.7
-12 4 -10 51.69 8.7
-12 4 10 67.89 9.5
-12 -4 -10 52.29 7.1
12 -4 10 63.59 8.6
-12 -5 10 -0.7 1.2
-12 -5 10 2.2 1.7
12 -5 10 13 4.4
-12 -5 -10 1.1 2.4
-12 5 10 -1.4 3
-12 5 10 2.7 3
-12 -6 10 54.09 4.2
-12 6 -10 60.39 9.7
-12 -6 10 62.79 4.9
12 -6 10 47.8 8.4
-12 -6 -10 61.19 6.5
-12 6 10 56.19 9.6
-12 6 10 75.19 11.2
-12 -7 10 91.49 5.7
-12 7 -10 95.89 12.8
-12 -7 10 96.69 5.3
-12 -7 10 96.59 7
-12 -7 -10 94.99 7.7
-12 7 10 80.59 11.8
-12 7 10 91.49 12.7
-12 -8 10 7.5 2.7
-12 -8 10 6.8 2.4
-12 -8 10 5.2 1.9
-12 8 -10 19.2 6.2
-12 8 10 3.4 4.7
-12 -8 -10 1.1 2.7
-12 8 10 -2.2 3.9
-12 9 -10 27.1 7.2
-12 -9 10 14.2 2.6
-12 -9 10 17.9 3.3
-12 -9 10 10 3.4
-12 9 10 20.6 7.7
-12 -9 -10 11.2 3.9
-12 9 10 29.3 7.8
-12 -10 10 2.3 2.2
-12 10 -10 3.8 4.2
-12 -10 10 10.7 3
-12 -10 10 4.2 1.7
-12 10 10 2.4 4.1
-12 -10 -10 8.1 3.1
-12 10 10 2.9 4.2
13 0 10 -1.6 1.9
-13 0 -10 1.7 2.8
-13 1 -10 1.4 2.8
13 1 10 1.9 1.6
-13 -1 10 1.7 2
13 -1 10 -1 2.2
-13 1 10 2.9 2.1
-13 -1 -10 -2.4 2.2
-13 2 -10 16.2 5
13 2 10 15.2 1.7
13 2 10 17.2 1.5
-13 -2 10 20.3 3.5
13 -2 10 19.9 4.7
-13 2 10 20.7 4.7
-13 -2 -10 18.8 5
-13 -3 10 4.2 1.8
-13 3 -10 -1.9 2.7
13 -3 10 -1 3
-13 -3 -10 2.5 2.8
-13 3 10 9.2 3.5
-13 4 -10 2 3
-13 -4 10 1 1.1
-13 -4 -10 0.7 2.7
-13 4 10 5.3 3.4
13 -4 10 9.5 4.2
-13 -5 10 30.4 2.4
-13 -5 10 25.4 2.3
-13 5 -10 8.6 4.4
13 -5 10 33.2 7.2
-13 -5 -10 20.5 5
-13 5 10 18.9 6.4
-13 5 10 31 7.1
-13 6 -10 14.4 5.6
-13 6 10 45.4 8.8
-13 6 10 25.2 7.2
-13 -6 -10 37.5 6
-13 7 -10 45.4 9.4
-13 -7 10 42.7 5.6
-13 7 10 54.49 11.4
-13 -7 -10 48.1 6.7
-13 7 10 51.19 10.5
-13 8 -10 257.27 18.6
-13 -8 10 254.97 11.5
-13 -8 -10 286.27 13.5
-13 8 10 243.98 21.7
-13 8 10 276.67 19.7
-13 9 -10 55.89 10.3
-13 -9 10 61.09 6.2
-13 9 10 62.89 12.1
-13 -9 -10 68.89 7
-13 9 10 60.59 11.4
14 0 10 45.6 4.5
-14 0 10 55.99 5.7
-14 0 -10 58.09 9
14 1 10 15.5 1.8
14 1 10 14.9 1.5
-14 -1 10 12.6 3.2
-14 1 -10 5.1 4.6
-14 -1 -10 17.5 5.1
-14 1 10 15 3.9
-14 -2 10 0.6 1.5
14 -2 10 2.4 2.9
-14 -2 -10 -1.9 2.5
-14 2 10 1.6 2.5
-14 3 -10 221.98 15.9
-14 -3 10 213.48 6.2
-14 -3 -10 203.28 13.3
14 -3 10 189.78 12.4
-14 3 10 167.58 14.5
-14 3 10 220.18 13.6
-14 4 -10 4.6 4.1
-14 4 10 1 3.9
-14 4 10 2.2 2.8
14 -4 10 1.8 3.6
-14 -4 -10 -5 2.4
-14 5 -10 1.5 4.2
14 -5 10 14.8 5.1
-14 5 10 12.4 5.5
-14 5 10 11 5.2
-14 -5 -10 9.9 3.5
-14 6 -10 34.4 8.3
-14 6 10 30.6 7.7
-14 -6 -10 22.5 5.3
-14 6 10 16.9 6.6
-14 7 -10 56.09 10.4
-14 7 10 64.89 12
-14 -7 -10 77.79 7.8
-14 7 10 67.99 10.8
15 0 10 126.19 4.4
-15 0 10 123.99 8
15 0 10 132.59 4.9
-15 -1 10 188.28 8.2
-15 1 -10 214.58 15.4
-15 1 10 194.98 10.9
15 -1 10 166.28 8.6
-15 2 -10 16 6.2
-15 -2 -10 15.2 5.2
15 -2 10 19.9 4.8
-15 2 10 18.1 6.5
-15 2 10 15.4 4.1
-15 3 -10 20 6.1
-15 3 10 22.6 6.8
-15 -3 -10 5.9 4.7
15 -3 10 16.7 4.8
-15 3 10 24.8 5.4
-15 4 -10 25.8 7.1
15 -4 10 23.5 7
-15 -4 -10 26 6.1
-15 4 10 14.7 6.5
-15 4 10 24.5 6.1
-15 5 -10 8.2 4.8
15 -5 10 6.2 5.9
-15 5 10 1.8 3.8
-15 -5 -10 6.9 3.3
-15 5 10 -2.2 4.7
-16 0 10 155.18 13.5
-16 0 -10 118.29 11.9
-16 0 10 111.49 6.5
-16 1 -10 16.2 6
-16 1 10 33 8.7
-16 -1 -10 20 6.3
0 0 11 1.2 1.4
0 0 -11 0.4 1.2
0 1 11 0.8 1.4
0 1 -11 0.8 1.2
0 -1 -11 -0.8 0.9
0 -1 11 1.7 1.5
0 2 11 1219.48 25.5
0 2 -11 1205.28 24.1
0 -2 11 1201.78 24.3
0 2 11 1197.08 24.2
0 -2 -11 1153.58 25
0 -3 -11 0 1.4
0 3 -11 3.1 1.9
0 -3 11 1.2 1.3
0 3 11 -0.1 1.2
0 3 11 1.8 1.4
0 4 11 2422.16 38.4
0 -4 11 2468.75 38.9
0 4 -11 2451.05 37.4
0 5 11 -0.5 1.3
0 5 11 -1.5 1.2
0 -5 11 1 1.7
0 5 -11 -0.4 1.2
0 6 11 142.59 8.4
0 6 11 145.99 10.1
0 -6 11 149.19 8.9
0 -6 -11 151.48 9.6
0 6 -11 153.38 8.2
0 7 -11 0.6 1.3
0 7 11 2.3 1.9
0 -7 11 -1.7 1.7
0 7 11 -1.2 1.5
0 -7 -11 -3.1 1.5
0 8 11 155.58 11.6
0 -8 -11 168.78 11.1
0 -8 11 164.28 10.3
0 8 -11 166.98 8.6
0 -8 11 165.78 12
0 8 11 171.08 9.6
0 9 11 -0.1 2.2
0 -9 11 -2.1 2.1
0 9 11 -0.1 2
0 -9 11 -4 1.7
0 9 11 -0.6 2.4
0 9 -11 3.6 1.8
0 -10 -11 93.99 9.1
0 10 11 130.29 8.5
0 10 11 124.89 11.9
0 -10 11 115.99 9.9
0 10 -11 105.49 6.9
0 -10 11 92.79 10.3
0 10 11 113.49 8.5
0 11 -11 0.3 1.5
0 11 11 -0.1 1.9
0 11 11 -0.7 2.5
0 -11 11 -2.5 2.3
0 11 11 -2.2 1.8
0 12 11 6.5 4.8
0 12 11 5.1 3.1
0 12 11 9 3
0 12 -11 2.8 1.7
0 13 11 2 2.3
0 13 11 3 2.9
0 13 11 -6.2 2.1
0 13 -11 -3 1.4
0 14 11 205.38 17.9
0 14 11 199.68 9.9
0 14 11 211.38 10.4
0 15 11 5.8 2.6
0 15 11 5.3 5.1
1 0 -11 0.7 1.2
-1 0 -11 0.5 1.3
1 0 11 1.7 1.4
-1 0 11 0.1 1.2
-1 -1 11 163.28 8.3
1 1 11 142.89 9.1
-1 1 -11 163.68 8.5
-1 1 11 155.98 8.2
-1 -1 -11 161.38 8.5
1 -1 11 164.28 8.4
1 1 -11 162.78 8.3
-1 2 -11 216.58 9.7
-1 -2 11 215.18 9.5
1 2 11 232.58 10.4
1 2 -11 231.38 9.7
1 -2 11 220.28 9.9
-1 2 11 214.68 9.9
-1 2 11 216.88 10.3
-1 -2 -11 220.48 10.1
1 3 11 290.17 12
1 3 11 301.97 13.4
-1 3 -11 306.67 11.7
-1 -3 11 307.47 11.5
-1 3 11 292.97 12.5
-1 3 11 294.57 11.7
1 -3 11 291.17 11.7
1 3 -11 299.97 11
-1 -3 -11 304.67 12.3
1 4 11 107.49 7.7
1 4 11 93.29 6.5
-1 -4 11 110.69 7
-1 4 -11 112.69 7.1
-1 -4 -11 94.79 7.1
1 -4 11 106.49 7.4
-1 4 11 104.09 7.1
-1 4 11 103.79 7.9
1 4 -11 105.89 6.4
1 -5 -11 192.48 10.6
1 5 11 182.98 9.1
-1 5 -11 194.68 9.6
1 5 11 186.18 10.7
-1 -5 11 197.98 9.6
-1 5 11 189.88 9.8
-1 5 11 190.38 11.2
1 5 -11 201.28 8.8
1 -5 11 200.28 10.3
-1 -6 11 70.19 6.1
1 -6 -11 73.29 6.8
-1 6 -11 66.59 6.9
1 6 11 73.79 7.1
1 6 11 77.59 6.1
-1 6 11 67.39 6.1
-1 6 11 72.69 7.4
1 6 -11 66.49 5.1
-1 -6 -11 79.59 6.9
1 -6 11 66.79 6.5
1 -7 -11 327.17 14.9
1 7 11 342.47 12.6
-1 7 -11 322.37 12.7
-1 -7 11 310.07 13.1
1 7 11 352.76 16.3
1 7 -11 315.67 11.1
-1 7 11 348.37 16.7
-1 -7 -11 342.47 14.8
1 -7 11 318.57 16.2
1 -7 11 325.27 14.2
-1 7 11 309.47 13.2
1 -8 -11 0.1 1.5
1 8 11 2.3 2.5
-1 -8 11 -0.9 1.7
-1 8 -11 6.7 2.6
1 8 11 2 2.1
1 8 11 3.4 2.2
-1 -8 11 1.3 2.5
1 -8 11 -1.9 1.9
-1 -8 -11 -2.6 1.8
1 -8 11 4.5 2.7
1 8 -11 0.1 1.4
-1 8 11 2.4 2.1
-1 -9 11 26.3 8.3
1 -9 -11 39.4 7
-1 -9 11 33.4 6
1 9 11 30.1 4.9
-1 9 -11 37.5 5.5
1 9 11 35.8 6.8
1 -9 11 42 8
1 9 -11 38.1 3.9
-1 9 11 44.3 6.8
-1 9 11 39.3 5.8
-1 9 11 29.5 7
-1 -9 -11 41.4 7.1
-1 10 -11 0.2 1.6
1 -10 -11 0.3 2.1
1 10 11 0.3 2.8
1 10 11 -2.8 1.6
-1 -10 11 -2 2.1
1 10 11 2.7 2.6
-1 10 11 0.7 2
-1 -10 -11 0.2 2.5
-1 10 11 0.8 2.3
1 -10 11 2.3 2.9
1 10 -11 1.4 1.5
1 -10 11 -1.9 2.5
-1 10 11 0.7 2.6
-1 11 -11 363.36 14
1 11 11 351.36 12.8
-1 -11 11 361.96 16.7
1 11 11 343.77 19.9
1 11 -11 359.56 10
-1 11 11 354.76 20.7
-1 11 11 369.06 15.5
-1 11 11 377.86 16.2
1 12 11 7.5 4.7
-1 12 -11 -1.9 1.5
-1 12 11 1.7 2.3
-1 12 11 -0.4 2.6
-1 12 11 -1.9 3.6
1 13 11 10.5 2.8
-1 13 -11 7.8 2.8
1 13 11 6.4 2.7
1 13 11 20.9 6.5
-1 13 11 5.2 4.7
-1 13 11 16.8 4.4
-1 13 11 7.7 3.7
1 14 11 0.6 1.5
-1 14 -11 -4.3 3.3
1 14 11 3.3 1.7
1 14 11 8.3 4.9
-1 14 11 1.4 2.9
-1 14 11 -5.9 3.3
-1 14 11 3.5 5.5
1 15 11 -6.5 4
-1 15 -11 0 1.8
-1 15 11 9.5 4.5
-1 15 11 -3.5 4.2
-1 15 11 0 2.5
2 0 11 0.4 1.2
-2 0 11 0.5 1.2
-2 0 -11 0 1.3
-2 1 -11 55.49 5.1
-2 -1 11 52.49 5
-2 -1 -11 56.69 5.2
2 -1 11 50.09 4.9
-2 1 11 60.49 5.3
-2 1 11 42.4 4.7
-2 -2 11 4.1 1.9
2 2 11 0 1.2
-2 2 -11 4 2.2
-2 2 11 3.9 2.3
2 -2 11 3.4 1.9
-2 2 11 2.3 1.8
-2 -2 -11 2.5 1.7
-2 -3 11 5.3 2.2
-2 3 -11 11.7 3
2 3 11 4.8 2.1
2 3 11 5.9 2.2
-2 -3 -11 8.2 2.5
-2 3 11 4.9 2.8
2 3 -11 6.1 2.1
2 -3 11 11.5 3.1
-2 3 11 11.9 3.2
-2 4 -11 69.49 6
2 4 11 83.19 6.7
2 4 11 80.09 5.7
-2 -4 11 73.19 5.8
-2 4 11 84.39 6.7
2 4 -11 73.29 5.2
2 -4 11 82.89 6.7
-2 -4 -11 75.39 6.2
-2 4 11 76.59 7
-2 -5 11 461.35 14.6
2 -5 -11 457.35 16.6
-2 5 -11 444.16 15.3
2 5 11 461.55 13.8
2 5 11 423.06 16.5
-2 5 11 443.46 15.8
-2 -5 -11 441.26 15.5
2 5 -11 459.35 12.9
2 -5 11 460.65 16.3
-2 5 11 473.25 18.1
2 -6 -11 243.28 12.7
2 6 11 267.47 10.5
-2 6 -11 264.67 11.9
-2 -6 11 251.67 11
2 6 11 250.57 12.8
-2 6 11 244.88 12
-2 6 11 242.38 13.6
2 -6 11 264.87 12.7
2 6 -11 264.87 9.4
-2 7 -11 71.09 6.3
-2 -7 11 63.49 6
2 7 11 70.59 7.3
2 -7 -11 75.79 7.6
2 7 11 71.59 5.6
2 -7 11 59.59 6.5
-2 7 11 69.89 7.9
2 7 -11 70.29 4.8
-2 7 11 56.59 6.1
-2 -7 -11 77.59 7
2 -7 11 61.39 9.2
2 8 11 841.72 19.2
2 8 11 837.12 19.9
2 8 11 817.52 26.2
-2 -8 11 791.62 21.6
-2 8 -11 839.42 22.4
2 -8 -11 829.82 25.9
-2 -8 11 772.22 26
-2 8 11 826.82 28.2
-2 8 11 778.42 23
-2 -8 -11 828.52 24.1
2 -8 11 803.32 24.7
2 -8 11 782.42 27.5
2 8 -11 829.82 16.1
2 9 11 20.6 3.5
2 9 11 24 3.9
-2 -9 11 24.5 4.6
-2 -9 11 27.2 6.3
-2 9 -11 24.5 4.7
2 -9 -11 16.2 4.7
2 9 11 10.7 4.2
2 -9 11 16.2 4.7
-2 9 11 17.2 4.6
-2 -9 -11 22.6 5.1
-2 9 11 19.5 5.7
-2 9 11 9.2 3.8
2 -9 11 22.1 6
2 10 11 68.29 10.1
-2 -10 11 80.99 9.2
-2 -10 11 74.29 7.2
2 10 11 74.69 5.3
2 10 11 70.09 5.5
-2 10 -11 68.89 6.7
-2 10 11 65.79 7.2
-2 10 11 58.19 9.6
-2 -10 -11 71.19 7.5
-2 10 11 79.59 8.1
2 -10 11 68.59 9.3
2 11 11 9 2.4
2 11 11 11.5 2.6
2 11 11 7.2 4.3
-2 11 -11 1.5 2.4
-2 -11 11 15.3 4.3
-2 11 11 7.9 3.3
-2 -11 -11 17.4 4.6
-2 11 11 22.5 6.1
-2 11 11 7.6 3.7
-2 12 -11 12.9 3.9
2 12 11 4 4
2 12 11 14.9 2.4
2 12 11 13.4 2.4
-2 12 11 11.9 4.6
-2 12 11 14.2 6.5
-2 12 11 11.7 4.4
-2 13 -11 281.37 13
2 13 11 264.17 23.2
-2 13 11 247.08 19.3
-2 13 11 264.17 14.5
-2 13 11 295.77 23
2 14 11 26.5 7.8
-2 14 -11 38.5 5.5
-2 14 11 39.6 6.8
-2 14 11 39.3 6.5
-2 14 11 25.8 7.7
2 15 11 6.1 5.4
-2 15 -11 0.8 2.5
-2 15 11 0.9 4.2
-2 15 11 2.6 3
3 0 11 -0.6 1.1
-3 0 -11 1.5 1.4
-3 0 11 4.3 1.8
-3 1 -11 472.55 15.1
-3 -1 11 485.85 14.8
-3 -1 -11 465.85 14.8
-3 1 11 482.95 15.6
3 -1 11 480.55 15.1
-3 1 11 503.75 15.7
-3 -2 11 1760.22 30.4
-3 2 -11 1741.03 31.8
3 2 11 1750.02 29.7
-3 2 11 1652.53 32.2
-3 2 11 1789.12 32.7
3 -2 11 1778.42 32.3
-3 -2 -11 1800.72 31.5
3 3 11 124.39 7
-3 -3 11 95.69 6.4
3 3 11 105.99 7
-3 -3 -11 105.39 7.1
3 -3 11 104.99 7.4
-3 3 11 102.59 7.5
-3 3 11 98.89 7.6
3 4 11 401.46 14.4
-3 -4 11 426.56 13.6
-3 4 -11 407.56 14.7
3 4 11 394.86 12.4
-3 -4 -11 373.66 13.6
-3 4 11 385.86 14.8
3 -4 11 399.16 15
-3 4 11 373.26 15.6
-3 -5 11 24.3 4.1
3 5 11 15 3.1
3 5 11 19.4 4.9
-3 5 -11 17.8 3.9
3 -5 -11 18.6 4.1
-3 -5 -11 15 3.6
-3 5 11 14.3 3.7
-3 5 11 23 5
3 -5 11 21.2 4.5
-3 -6 11 0.7 1.5
3 6 11 2 1.6
3 -6 -11 0 1.7
3 6 11 1.4 1.7
-3 6 -11 -0.3 1.4
-3 6 11 -0.7 1.7
3 -6 11 0 1.7
-3 -6 -11 -0.2 1.3
-3 6 11 0 1.9
-3 7 -11 31.8 5.6
3 -7 -11 17.7 4.4
3 7 11 21 5.1
3 7 11 22.7 3.5
-3 -7 11 28.5 4.6
-3 7 11 32.1 6.5
-3 7 11 24 5
3 -7 11 20.7 5
3 -7 11 23 5.2
3 8 11 80.09 5.5
-3 -8 11 96.29 9.2
-3 8 -11 93.49 7.8
3 8 11 88.39 5.4
-3 -8 11 97.89 7.3
3 8 11 97.59 8.9
3 -8 11 89.99 8.6
-3 8 11 91.89 9.6
-3 -8 -11 95.99 8.1
-3 8 11 85.79 8.2
3 9 11 21.8 3.3
3 9 11 27 3
-3 9 -11 22 4.6
-3 -9 11 20.2 5.3
3 9 11 29.3 6.2
-3 -9 11 32.8 5.3
-3 -9 -11 22.2 4.6
-3 9 11 31 6.9
3 -9 11 16.9 4.7
-3 9 11 18.8 4.5
-3 9 11 24.7 5.5
3 10 11 186.78 13.5
-3 -10 11 162.28 12.9
-3 10 -11 160.28 10.4
-3 -10 11 153.18 9.9
3 10 11 170.28 6.3
3 10 11 164.48 5.9
-3 -10 -11 153.68 13.4
-3 10 11 159.68 13.9
-3 10 11 162.18 13.4
-3 10 11 160.68 11.8
-3 -11 11 12.3 5.1
3 11 11 29.1 7
-3 -11 11 20.8 5.5
-3 11 -11 16.7 4.4
-3 11 11 18.9 5
-3 -11 -11 21.3 4.9
-3 11 11 12.4 5.5
-3 11 11 28.8 6.1
-3 -12 11 4.5 3.4
3 12 11 -2.2 3.3
-3 12 -11 -3.3 2.1
-3 12 11 1.2 3.2
-3 12 11 5 3.8
-3 12 11 2.1 3.4
-3 13 -11 30.2 5.8
3 13 11 39.1 8.7
-3 13 11 43.2 9.7
-3 13 11 34.4 7
-3 13 11 30.7 7
3 14 11 65.09 11.1
-3 14 -11 63.19 7.2
-3 14 11 80.79 13.7
-3 14 11 56.89 8.5
-3 15 -11 -3.2 2.7
3 15 11 1.6 3.7
-3 15 11 0.8 3.6
-3 15 11 10.6 5.5
4 0 11 -2.4 1.1
-4 0 11 1.6 1.5
-4 0 -11 0.7 1.4
-4 0 11 0.1 1.3
-4 -1 11 545.65 16.1
-4 1 -11 559.94 17
-4 1 11 556.44 17.1
-4 1 11 569.04 17.2
-4 -1 -11 552.74 16.4
4 -1 11 527.15 16.3
4 2 11 47.3 4.5
-4 -2 11 47.2 4.6
4 -2 11 44.5 5
-4 -2 -11 51.49 5
-4 2 11 48.8 7.7
-4 3 -11 65.09 6.1
-4 -3 11 83.09 5.9
4 3 11 86.39 5.8
4 3 11 72.29 5.8
4 -3 11 86.69 7
-4 -3 -11 69.99 5.9
-4 3 11 67.79 6.5
4 4 11 20 3.4
4 -4 -11 10.2 2.9
-4 -4 11 25 3.9
4 4 11 18.2 3.8
-4 4 -11 16.7 3.7
-4 4 11 15 4.1
4 -4 11 17.3 4.2
-4 -4 -11 17.3 3.7
4 5 11 1586.34 25.9
-4 -5 11 1553.44 28.5
4 -5 -11 1537.45 33.4
-4 5 -11 1594.64 32.9
4 5 11 1595.04 31.5
-4 5 11 1594.44 36.3
-4 -5 -11 1643.04 31
4 -5 11 1540.45 33.7
4 6 11 100.59 8
-4 6 -11 92.29 7.9
4 6 11 90.19 5.3
4 -6 -11 90.29 8.2
-4 -6 11 104.09 6.8
-4 -6 -11 101.49 7.5
-4 6 11 92.69 8.9
4 -6 11 86.19 8.7
4 -6 11 106.19 8.7
4 7 11 112.79 5.5
-4 -7 11 93.49 6.8
4 -7 -11 109.39 9.2
4 7 11 109.39 5.7
4 7 11 103.59 8.6
-4 7 -11 102.09 8.3
-4 7 11 109.79 10.2
4 -7 11 103.79 9.8
-4 -7 -11 119.39 8.6
4 -7 11 111.39 9.4
4 8 11 107.79 4.7
4 8 11 103.99 4.9
-4 -8 11 110.59 9.6
-4 -8 11 99.09 7.1
-4 8 -11 110.89 8.9
4 8 11 108.39 9.1
4 -8 11 106.19 9.6
4 -8 11 83.69 9.4
-4 8 11 93.89 10.1
-4 9 -11 189.38 11.7
-4 -9 11 173.68 12.5
4 9 11 185.38 12.5
-4 -9 11 172.78 9.7
-4 9 11 173.18 12.3
-4 9 11 189.28 12.3
4 -9 11 159.48 14.1
-4 9 11 191.38 14.8
-4 -9 -11 175.38 11
-4 -10 11 84.89 9.1
4 10 11 106.99 10.2
-4 -10 11 84.99 7.6
-4 10 -11 100.09 9
-4 10 11 82.39 12.2
-4 -10 -11 88.89 8.4
-4 10 11 99.89 9.7
-4 10 11 92.99 8.9
-4 11 -11 -0.1 2.6
-4 -11 11 -3.5 3.7
-4 -11 11 -5 2.1
4 11 11 3.8 3.5
-4 11 11 -2.7 3.3
-4 11 11 -2.2 3
-4 11 11 1.2 3.3
-4 -11 -11 -1.7 2.1
-4 12 -11 25.2 5.8
-4 -12 11 11.5 4.6
4 12 11 10.7 4.9
-4 12 11 14.2 5.4
-4 12 11 9.9 5
-4 13 -11 203.88 12.9
4 13 11 204.58 15.8
-4 13 11 207.08 18
-4 13 11 182.08 13.8
4 14 11 20.7 6.6
-4 14 -11 24.9 5.8
-4 14 11 29.4 8.3
-5 0 -11 0.6 1.3
5 0 11 -1.5 1.2
-5 -1 11 14.6 3.4
-5 1 -11 14.4 3.4
-5 1 11 20.3 4
5 -1 11 21.7 4.3
-5 -1 -11 19.5 3.8
-5 -2 11 20.1 3.6
5 2 11 17.9 3.5
-5 2 -11 12.7 3.5
-5 -2 -11 17.7 3.7
5 -2 11 24.3 4.6
-5 2 11 21.2 4.4
-5 3 -11 120.39 8.4
5 3 11 115.79 6.6
5 3 11 107.69 7
-5 -3 11 111.59 7
-5 3 11 121.09 8.8
5 -3 11 108.99 8.2
-5 -3 -11 106.79 7.2
5 -4 -11 145.19 9.5
-5 -4 11 144.19 7.8
-5 4 -11 149.19 9.6
5 4 11 145.99 7
5 4 11 153.38 8.5
5 -4 11 155.78 9.9
-5 -4 -11 157.68 8.7
-5 4 11 166.98 10.8
5 5 11 18 3.7
-5 -5 11 21.3 3.7
5 -5 -11 17.4 4.1
-5 5 -11 17 4.1
5 5 11 14.9 2.7
5 -5 11 9.8 3.8
-5 -5 -11 19.6 3.9
-5 5 11 17.1 4.6
5 -5 11 12 3.8
-5 -6 11 17.2 3.6
5 6 11 19.4 2.6
-5 6 -11 13.2 4.1
5 -6 -11 20.1 4.6
-5 -6 -11 16.3 3.7
5 -6 11 14.3 4.5
-5 6 11 10.1 4.1
5 -6 11 17 4.7
5 7 11 76.29 3.1
5 -7 -11 72.79 10.6
5 7 11 80.09 3.2
5 7 11 79.19 7.4
-5 -7 11 71.89 5.9
-5 7 -11 84.79 8
5 -7 11 83.19 8.5
-5 7 11 87.79 9.5
5 -7 11 73.89 10.3
-5 -7 -11 83.89 8.6
5 -8 -11 51.89 8
5 8 11 58.69 6.9
-5 -8 11 55.09 8.3
-5 8 -11 49.9 7.3
-5 -8 11 59.39 5.6
-5 8 11 74.69 10.9
-5 -8 -11 67.89 6.7
5 -8 11 47.3 8.2
5 9 11 39 6.7
-5 9 -11 40.4 6.9
-5 -9 11 26.5 5.9
-5 -9 11 29 4.7
-5 9 11 30.7 8
-5 9 11 25 6.2
-5 -10 11 18.4 4.2
-5 10 -11 19.3 5.1
5 10 11 20.1 5.3
-5 10 11 20.1 6.2
-5 10 11 14.2 5.3
-5 11 -11 190.78 12.8
-5 -11 11 172.88 13.6
5 11 11 165.88 13.2
-5 -11 11 161.48 10.1
-5 -11 -11 143.79 10.8
-5 11 11 179.38 15.8
-5 11 11 154.38 12.7
5 12 11 24.6 6.2
-5 12 -11 28.9 6.4
-5 -12 11 34 5.6
-5 12 11 29.5 8.2
-5 12 11 34.6 7.6
5 13 11 -1.8 2.3
-5 13 -11 -6.5 2.5
-5 13 11 -5.8 3.3
-5 13 11 -1.2 3.2
-5 14 -11 21.8 6.4
5 14 11 12.8 5.8
-5 14 11 11.8 5.2
-5 14 11 22.5 7.7
-6 0 -11 3.5 2.1
-6 0 11 0 1.2
6 0 11 -0.8 1.5
-6 -1 11 548.05 16.6
-6 1 -11 537.35 17.6
6 -1 11 566.84 17.7
6 2 11 31.2 4.4
-6 2 -11 37 5.8
-6 -2 11 41.3 4.5
6 -2 11 31.3 5.3
-6 -2 -11 34.4 5.2
-6 2 11 27.7 5
6 3 11 582.94 14.9
6 3 11 554.04 15.8
-6 -3 11 598.34 16.9
-6 3 -11 575.64 19.2
-6 -3 -11 594.34 17.5
-6 3 11 576.44 19.9
6 -3 11 590.64 19.7
-6 4 -11 500.75 18.3
-6 -4 11 495.75 15
6 -4 -11 491.55 17.8
6 4 11 505.35 15.5
6 4 11 495.35 12.6
-6 -4 -11 492.15 15.9
-6 4 11 489.75 19.1
6 -4 11 470.35 18.2
6 5 11 34.7 3
-6 -5 11 42.4 4.6
6 5 11 30 4.8
-6 5 -11 37.6 6.3
6 -5 -11 37 6
6 -5 11 52.19 8.1
-6 5 11 48.5 7.5
-6 -5 -11 42.5 4.8
6 -5 11 32.7 6
6 6 11 235.28 11.6
-6 6 -11 242.28 13.4
6 -6 -11 239.78 13.4
-6 -6 11 239.58 10.3
6 -6 11 218.18 14
-6 6 11 246.48 15
6 -6 11 238.18 16.5
-6 -6 -11 227.98 11.2
-6 7 -11 106.79 9.2
6 7 11 126.09 9
-6 -7 11 103.09 6.9
6 -7 -11 124.89 10.1
-6 -7 -11 100.99 9.2
-6 7 11 107.59 10.6
6 -7 11 119.39 13.1
-6 -8 11 42 4.5
-6 -8 11 39.5 6.4
6 8 11 35.7 6.2
6 -8 -11 36.7 6.9
-6 8 -11 38.1 6.7
6 -8 11 35.2 7.8
-6 8 11 29.3 6.6
-6 -8 -11 37.4 5.8
-6 8 11 34.1 7.5
-6 9 -11 23.7 5.8
6 9 11 22.8 5.3
-6 -9 11 28 6.1
-6 -9 11 22.8 4.3
-6 9 11 12.3 5.4
-6 -9 -11 31.2 5.4
-6 9 11 40.3 7.7
-6 -10 11 10.7 4.3
-6 10 -11 14.9 4.7
6 10 11 7.5 3.5
-6 -10 11 5.4 2.8
-6 10 11 3.1 3.2
-6 10 11 6.5 4.5
-6 11 -11 49.5 8.2
-6 -11 11 44 7.5
6 11 11 32.3 6.4
-6 -11 11 48.9 5.6
-6 11 11 42.5 9.8
-6 11 11 45.8 8.5
-6 12 -11 34 7.5
6 12 11 42.7 8.4
-6 -12 11 17.9 7.4
-6 12 11 30 8.5
-6 12 11 24.8 6.9
-6 -13 11 14.1 4.9
6 13 11 29 7.4
-6 13 -11 18.5 5.4
-6 13 11 30.5 8.6
-6 13 11 18.7 6.4
6 14 11 186.88 15.9
-6 14 11 152.58 13.9
-6 14 11 178.38 18.3
-7 0 11 0.1 1.4
-7 0 -11 0.1 2
7 0 11 2.7 2
-7 1 -11 2.7 2.2
-7 -1 11 1.4 1.5
-7 1 11 0.4 1.6
-7 -1 -11 4.6 2.4
7 -1 11 1.3 2
7 2 11 1 1.8
-7 -2 11 -0.5 1.1
-7 2 -11 -0.5 1.5
7 -2 11 -1.3 1.5
-7 -2 -11 -2.5 1
7 3 11 14 3.2
7 3 11 17.4 3.1
-7 3 -11 13.5 3.9
-7 -3 11 15.8 3.4
-7 3 11 11.9 3.4
7 -3 11 13.2 4.1
-7 4 -11 14.4 4.2
-7 -4 11 15 3.3
7 4 11 11.8 2.3
7 4 11 15.7 3.4
-7 4 11 18.7 4.7
7 -4 11 14.8 4.7
-7 -4 -11 12.4 3.7
7 -4 11 19.7 5
7 5 11 819.32 20.6
7 -5 -11 826.62 24.8
-7 -5 11 818.92 19.8
-7 5 -11 816.82 25.4
-7 5 11 797.92 26.5
7 -5 11 853.51 27.2
-7 -5 -11 826.92 23.8
7 -5 11 834.82 26.3
-7 6 -11 356.96 17
7 -6 -11 332.47 16.5
7 6 11 337.67 13.6
-7 -6 11 358.16 12.7
7 -6 11 335.07 17
-7 6 11 338.87 17.9
7 -6 11 326.77 17.3
7 -7 -11 461.95 20
-7 -7 11 438.86 14.2
-7 7 -11 432.76 19.2
-7 7 11 481.55 22.4
7 -7 11 444.76 20.3
7 -7 11 441.06 21.2
-7 -7 -11 430.56 15.9
-7 8 -11 17.5 5
-7 -8 11 21.6 3.7
7 8 11 14.8 3.8
-7 -8 11 11.5 3.9
-7 -8 -11 10.5 3.3
-7 8 11 33.6 7.9
-7 8 11 19.6 5.8
7 9 11 6.7 3
-7 -9 11 5.2 2.6
-7 9 -11 2.5 2.7
-7 -9 11 8.6 3.7
-7 9 11 4.9 3.4
-7 9 11 8.5 4.7
-7 -9 -11 7.8 3
7 10 11 21.6 5.3
-7 10 -11 15.3 5.1
-7 -10 11 21 5.8
-7 -10 11 20 3.8
-7 10 11 17.5 7.3
-7 10 11 9.4 4.3
7 11 11 83.99 9.1
-7 11 -11 103.99 14.8
-7 -11 11 65.49 6.7
-7 -11 11 79.69 9.2
-7 11 11 99.59 11
-7 11 11 69.69 12.4
-7 12 -11 10.8 5
-7 -12 11 5.5 5
7 12 11 3 4
-7 12 11 8.8 5.7
-7 12 11 5 5.6
-7 -13 11 -1.4 3.4
-7 13 -11 -1.2 3.2
7 13 11 -1.8 3.5
-7 13 11 0.1 4.6
-7 13 11 -6 3.5
8 0 11 0.6 1.8
-8 0 -11 0 1.5
-8 -1 11 83.69 6.8
-8 1 -11 73.99 7.4
-8 1 11 92.39 7.5
-8 -1 -11 72.29 6.7
8 -1 11 89.39 7.5
-8 -2 11 1.3 1.7
8 2 11 -0.2 1.5
-8 2 -11 2.1 2.2
-8 -2 -11 0.8 1.8
8 -2 11 0.5 2
-8 2 11 1.6 2.2
8 3 11 27.6 3.6
8 3 11 28.3 4
-8 3 -11 26.3 5.2
-8 -3 11 16.3 3.5
8 -3 11 30.8 5.9
-8 -3 -11 25.2 4.6
-8 3 11 22.8 5.2
8 -3 11 28.1 5.5
8 4 11 724.73 18.2
-8 4 -11 728.33 23.9
-8 -4 11 739.53 19.7
8 -4 11 746.03 24.3
-8 -4 -11 781.72 21
-8 4 11 744.53 24.8
8 -4 11 745.43 24.7
-8 5 -11 88.79 8.7
8 5 11 80.19 6.3
-8 -5 11 87.59 6.5
8 -5 -11 82.59 7.7
8 -5 11 89.89 9.1
8 -5 11 72.59 8.5
-8 -5 -11 77.79 6.6
-8 5 11 82.99 9.1
-8 -6 11 56.79 5.4
8 -6 -11 57.39 8.1
8 6 11 53.99 5.5
-8 6 -11 48.3 7.7
8 -6 11 72.19 9.6
-8 -6 -11 49.5 5.6
-8 6 11 79.39 8.9
-8 -7 11 33.4 4.6
-8 -7 11 32.6 5.6
8 -7 -11 31.5 6.5
8 7 11 28.1 4.8
-8 7 -11 33 6.6
8 -7 11 32.1 7.1
-8 7 11 28.5 6.9
-8 -7 -11 31.8 5.1
-8 8 -11 19.6 5.4
-8 -8 11 16.8 4.5
-8 -8 11 17.4 3.4
8 8 11 10.4 3.3
-8 8 11 21.9 6.4
-8 8 11 1.7 3.8
-8 -8 -11 11.1 3.4
-8 -9 11 98.79 9.2
8 9 11 104.69 8.7
-8 9 -11 106.69 10.5
-8 -9 11 112.09 7.2
-8 -9 -11 110.69 8.4
-8 9 11 111.29 11.5
-8 9 11 99.89 11.8
8 10 11 171.38 11.6
-8 -10 11 183.18 9.6
-8 10 -11 153.78 12.7
-8 -10 11 186.08 12.7
-8 10 11 187.58 14.9
-8 -10 -11 178.98 11.1
-8 10 11 197.28 16.5
-8 -11 11 93.19 10.2
8 11 11 100.59 9.3
-8 11 -11 114.69 11.2
-8 -11 11 96.19 7.5
-8 11 11 108.49 12.2
-8 11 11 112.79 15.8
8 12 11 4.7 3.4
-8 -12 11 19 4.2
-8 12 -11 8 4.5
-8 -12 11 8.2 4.6
-8 12 11 8.9 5.6
-8 12 11 13.3 6.3
-8 13 -11 1.9 4
8 13 11 5.3 3.7
-8 -13 11 5.7 3.3
-8 13 11 3.6 3.9
-8 13 11 -2.1 4.6
-9 0 -11 1 1.9
9 0 11 -2.6 1.5
-9 0 11 -0.4 1.3
-9 -1 11 0.5 1.6
-9 1 -11 3.5 2.7
9 1 11 -3.6 1.6
-9 1 11 2.9 2.3
9 -1 11 6.2 2.5
-9 -1 -11 -1.2 2.1
-9 -2 11 3.3 2.1
9 2 11 4.6 2
-9 2 -11 8.4 3.3
-9 -2 -11 6.1 2.8
9 -2 11 5.4 2.8
-9 2 11 4.4 2.3
9 -2 11 0.4 2.3
-9 -3 11 188.68 9.5
9 3 11 176.88 8.2
-9 3 -11 186.68 12.1
-9 -3 -11 185.18 10.5
9 -3 11 167.58 11.2
-9 3 11 196.28 12.3
9 -3 11 187.58 11.8
-9 4 -11 29.5 6.2
-9 -4 11 31.8 4.6
9 4 11 35.4 4
9 -4 11 38.6 6.8
-9 4 11 27.3 6
-9 -4 -11 29.6 5.2
9 -4 11 43.1 8.3
9 -5 -11 84.99 8.6
-9 5 -11 84.89 8.8
9 5 11 90.29 6.3
-9 -5 11 74.19 6.3
9 -5 11 86.39 9
-9 -5 -11 89.39 7.2
-9 5 11 84.99 9.2
9 -5 11 102.29 9.9
-9 6 -11 209.68 13.8
9 -6 -11 204.58 12.9
-9 -6 11 229.58 10.4
9 6 11 214.58 10
-9 -6 -11 223.98 11.2
9 -6 11 216.38 14.8
-9 6 11 205.38 14.7
-9 -7 11 4.2 2.7
-9 7 -11 2.4 2.8
9 7 11 2.3 1.9
-9 -7 11 9.1 2.6
-9 -7 -11 1.3 2.1
9 -7 11 -2.4 3.9
-9 7 11 8.3 4.2
-9 7 11 3.2 3.6
9 8 11 26.1 4.8
-9 -8 11 13.7 3.8
-9 -8 11 28.5 5.5
-9 8 -11 20.1 5.9
-9 8 11 19.2 6.2
-9 -8 -11 22.2 4.6
-9 8 11 25.3 6.8
-9 -9 11 33.9 4.9
-9 9 -11 33.2 7.4
9 9 11 27.4 5.2
-9 -9 11 34.6 6.4
-9 9 11 31.8 13.1
-9 -9 -11 36.1 5.7
-9 9 11 36.8 8.2
9 10 11 7.8 3.7
-9 10 -11 19.6 6.2
-9 -10 11 16 3.2
-9 -10 11 13.7 4
-9 -10 -11 18.2 4.2
-9 10 11 9.3 5.2
-9 10 11 17.5 6.4
-9 11 -11 28.7 7.2
-9 -11 11 19.8 5
-9 -11 11 10 3.5
9 11 11 22.3 5.1
-9 11 11 20.9 7.2
-9 11 11 26.3 7.8
-9 12 -11 9.3 4.8
-9 -12 11 13.4 4.9
9 12 11 10.3 4.2
-9 12 11 0.9 4.8
-9 12 11 8.4 4.5
-10 0 11 -0.4 1.6
10 0 11 2.5 2
10 0 11 2.2 2.2
-10 0 -11 4 2.6
10 1 11 17.2 3.4
-10 1 -11 16.9 4.8
-10 -1 11 20.7 4.9
10 -1 11 19.2 4.4
10 -1 11 20 4.5
-10 1 11 14.4 3.8
-10 -1 -11 19 4.6
10 2 11 44.5 4.2
-10 -2 11 38.1 5.3
-10 2 -11 45.2 7.4
-10 2 11 49.3 7.4
10 -2 11 46 6.8
10 -2 11 37.5 6.4
-10 -2 -11 47.9 6.8
-10 -3 11 38 4.4
-10 3 -11 50.79 8.1
10 3 11 37.4 3.9
-10 -3 -11 35.2 5.8
10 -3 11 44.6 6.9
-10 3 11 39.5 6.9
10 -3 11 45.8 7.4
10 4 11 2.7 1.5
-10 4 -11 2.9 2.9
-10 -4 11 0.4 1.4
-10 -4 -11 1.8 2.1
-10 4 11 0.4 1.9
10 -4 11 4.3 2.6
10 -4 11 2.4 3.1
10 -5 -11 370.66 17.2
10 5 11 379.16 12.2
-10 5 -11 356.56 18.3
-10 -5 11 375.16 13.2
10 -5 11 388.86 19
-10 5 11 370.26 19.1
-10 -5 -11 394.86 15.4
10 -5 11 352.16 17.9
10 6 11 455.25 13.8
-10 6 -11 462.85 21.3
10 -6 -11 461.65 19.9
-10 -6 11 429.16 14.9
-10 -6 -11 459.35 16.6
10 -6 11 428.06 21.1
-10 6 11 474.45 22.5
-10 -7 11 5.8 2.4
-10 -7 11 4.3 2.4
-10 7 -11 9.1 3.9
10 7 11 1.1 1.8
-10 -7 -11 -2.2 1.6
-10 7 11 3.6 3.6
-10 7 11 4.7 3.5
10 8 11 464.95 15.3
-10 -8 11 467.95 17.6
-10 8 -11 439.66 22
-10 -8 11 468.85 15.1
-10 -8 -11 486.25 17.2
-10 8 11 460.95 23.6
-10 8 11 505.95 25.3
-10 -9 11 40.5 4.8
-10 -9 11 30.8 5.8
10 9 11 24.8 4.3
-10 9 -11 28.9 7.2
-10 -9 -11 27.2 5.2
-10 9 11 15.8 5.8
-10 9 11 16.8 6.8
-10 -10 11 47.3 5.2
10 10 11 31.1 8
-10 10 -11 36.7 8.3
-10 -10 11 38.3 6.1
-10 10 11 33.7 8.9
-10 -10 -11 55.79 6.6
-10 10 11 61.69 11
-10 11 -11 -0.7 4.4
-10 -11 11 5.6 3.8
10 11 11 0.8 2.6
-10 -11 11 -5.2 2.3
-10 11 11 -0.2 3.1
-10 11 11 5.5 5.4
11 0 11 -1 1.5
-11 0 -11 4.3 2.7
-11 0 11 -4.1 1.5
11 1 11 72.09 6.2
-11 1 -11 69.99 7.9
11 -1 11 76.99 7.3
-11 1 11 76.99 7.3
11 -1 11 67.29 7
-11 -1 -11 94.19 8.6
11 2 11 233.38 9.1
11 2 11 238.18 10.1
-11 -2 11 249.38 11.4
-11 2 -11 243.08 14.7
11 -2 11 231.28 12.9
-11 2 11 244.88 13.7
11 -2 11 232.98 12.9
-11 -2 -11 245.78 13.2
-11 3 -11 155.38 12
-11 -3 11 154.08 8.6
11 3 11 161.48 7.3
-11 3 11 157.88 11.6
-11 -3 -11 154.88 10.3
11 -3 11 148.89 10.9
11 -3 11 183.38 12.1
-11 -4 11 20.1 3.8
-11 4 -11 22.3 5.8
11 4 11 21 3.1
-11 4 11 21.7 5.6
-11 -4 -11 27.4 5
11 -4 11 30.7 6.1
11 -4 11 20.8 5.2
-11 -5 11 45.8 4.7
-11 5 -11 51.99 8.7
11 5 11 49.99 4
-11 -5 -11 46.8 6.6
-11 5 11 46.3 8.4
11 -5 11 48.9 8.3
-11 -6 11 8.1 2.5
-11 -6 11 3.4 2.4
11 6 11 7.9 2.1
-11 6 11 8.6 4.6
11 -6 11 9 5
-11 6 11 2.8 4.1
-11 -6 -11 5.3 2.8
-11 7 -11 47.4 8.9
-11 -7 11 54.29 5
-11 -7 11 55.59 5.7
11 7 11 68.49 4.7
-11 -7 11 54.19 5.7
-11 -7 -11 60.19 6.4
-11 7 11 51.09 9.5
-11 7 11 46 9
11 8 11 37.9 4
-11 8 -11 29.3 7.2
-11 -8 11 34.6 5.5
-11 -8 11 41.6 5.3
-11 8 11 28.8 8.6
-11 -8 -11 33.8 5.5
-11 8 11 38.3 8.2
-11 -9 11 27.3 5
-11 9 -11 23.1 6.8
11 9 11 27.6 4
-11 -9 11 27.1 4.5
-11 9 11 27.5 8.2
-11 9 11 31.7 8.2
-11 -9 -11 43.7 6.5
-11 10 -11 39.7 8.3
11 10 11 55.19 5.4
-11 -10 11 62.49 7.1
-11 -10 11 67.39 6
-11 10 11 58.99 11.3
-11 -10 -11 45.4 6.6
-11 10 11 70.49 12.1
11 11 11 10.4 3.2
-11 -11 11 9.6 5.4
-11 11 -11 9.4 5
-11 -11 11 13.4 4.7
-11 -11 -11 17.4 4.5
-11 11 11 5.3 5.2
-11 11 11 6 5.6
-12 0 11 -1.2 1.8
12 0 11 2.7 2.1
-12 0 -11 0.9 2.6
-12 1 -11 112.59 9.9
12 1 11 113.39 7.4
-12 1 11 118.99 9.2
-12 -1 -11 126.29 10.2
12 -1 11 110.59 8.5
12 2 11 0.8 1.8
-12 2 -11 4.5 3.5
-12 -2 11 4.1 1.8
12 2 11 1.6 1.4
-12 -2 -11 4.1 3.2
12 -2 11 4.3 3.2
-12 2 11 2.1 2.2
-12 -3 11 16.2 3.5
12 3 11 17.8 2.8
-12 3 -11 10.2 4.4
-12 -3 -11 17.8 4.6
12 -3 11 20.5 4.9
-12 3 11 18.4 4.6
-12 4 -11 25.7 6.7
12 4 11 22.7 2.4
12 4 11 20.1 2.2
-12 -4 11 20.7 3.6
-12 -4 -11 28.4 5.5
-12 4 11 13.4 4.9
12 -4 11 22.5 5.8
12 -4 11 21.1 5.5
-12 5 -11 33.1 7.5
-12 -5 11 36.1 4
12 -5 11 23.7 5.9
-12 5 11 30 6.9
-12 -5 -11 41.8 6.5
-12 6 -11 4.7 4.1
-12 -6 11 9.6 2.5
-12 -6 11 13.3 2.6
-12 -6 -11 -0.6 2.4
-12 6 11 7.3 4.6
-12 6 11 4 4.3
-12 7 -11 7.7 4.2
-12 -7 11 3.4 1.9
-12 -7 11 4.2 2
-12 -7 11 -0.5 2.2
-12 7 11 6.7 4.5
-12 -7 -11 8.4 2.8
-12 7 11 -2.5 3.7
-12 8 -11 4.3 4.3
-12 -8 11 2.8 1.9
-12 -8 11 -0.4 1.5
-12 -8 11 -0.1 2.3
-12 -8 -11 -3.9 2.2
-12 8 11 5.5 4.5
-12 8 11 -0.2 4.2
-12 9 -11 16.5 5.9
-12 -9 11 18.1 4.2
-12 -9 11 12.7 2.9
-12 9 11 15.1 6.8
-12 9 11 14.5 6.2
-12 -9 -11 18.5 4.6
-12 10 -11 24.5 7.6
-12 -10 11 41.7 5.7
-12 -10 -11 51.09 7
-12 10 11 30.9 8.5
-12 10 11 25 8.1
13 0 11 2 3.1
-13 0 -11 0 3.1
-13 0 11 -2.1 1.7
13 1 11 -1.3 1.6
-13 -1 11 2.5 2.1
13 1 11 0.7 1.3
-13 1 -11 2.7 2.7
-13 1 11 -3.6 1.5
-13 -1 -11 0.8 3.3
13 -1 11 0.9 2.7
13 2 11 7.5 2.1
-13 -2 11 8.5 2.7
-13 2 -11 9 4.6
13 2 11 9.4 1.8
13 -2 11 3.9 3.3
-13 2 11 7.6 3.3
-13 -2 -11 12 4.4
-13 -3 11 2.6 1.5
-13 3 11 -0.1 2.2
13 -3 11 -0.4 2.9
-13 -3 -11 4.6 3.1
-13 -4 11 9.2 2.5
-13 4 -11 2.1 4
13 -4 11 15.2 5
-13 4 11 13.3 5
-13 -4 -11 15.6 4.4
-13 5 -11 1.8 3.6
-13 -5 11 -2.4 1.1
-13 -5 11 2 1.5
-13 -5 -11 -3.1 2.5
-13 5 11 6 4.2
-13 5 11 -1.5 3.3
13 -5 11 -5.7 3.9
-13 -6 11 151.98 6.4
-13 6 -11 159.48 14.5
-13 -6 11 149.39 6.1
-13 -6 -11 159.48 10.9
-13 6 11 136.79 13.6
-13 6 11 174.08 14.6
-13 -7 11 1.3 3
-13 -7 11 2 1.1
-13 7 -11 14.4 5.6
-13 -7 11 3.2 1.5
-13 -7 -11 0.8 2.3
-13 7 11 -0.3 3.5
-13 7 11 1.5 3.5
-13 -8 11 4.7 3
-13 8 -11 -6.8 2.7
-13 -8 11 1.1 1.4
-13 -8 11 1.3 1.1
-13 8 11 -2.3 4.3
-13 8 11 10.8 5.2
-13 -8 -11 1 2.5
14 0 11 -0.7 2
-14 0 -11 4.7 4
-14 0 11 -0.3 1.9
-14 1 -11 70.99 12.2
-14 -1 11 89.09 6.9
14 1 11 91.49 5.2
14 1 11 97.39 4.7
-14 1 11 91.69 8.4
14 -1 11 80.89 7.6
-14 -1 -11 94.09 10
-14 2 -11 13.8 5.7
-14 -2 11 27 4
14 -2 11 16.2 5.1
-14 2 11 14.3 4.7
-14 -2 -11 32.5 7.1
-14 -3 11 75.99 5.1
-14 3 -11 73.39 11
14 -3 11 59.39 8.7
-14 3 11 74.79 8.7
-14 3 11 68.69 10.7
-14 -3 -11 86.19 9.1
-14 -4 11 14.3 1.9
-14 -4 11 11.1 1.6
-14 4 -11 13 5.3
-14 4 11 16 5.6
14 -4 11 21.3 6.2
-14 -4 -11 18.1 4.9
-14 4 11 7.2 4
-14 5 -11 6.4 4.1
-14 -5 -11 11.3 4.5
-14 5 11 6.5 5.6
-14 5 11 -3.2 3.3
-14 6 -11 15.2 6.3
-14 6 11 24.2 6.7
-14 -6 -11 25.8 5.4
-14 6 11 12.4 7.4
-14 -7 11 58.09 7.3
-14 7 -11 71.49 11.6
-14 7 11 66.79 11.4
-14 7 11 82.89 12.6
-14 -7 -11 87.89 8.5
-15 0 -11 -3.2 2.9
15 0 11 -0.9 1.2
15 0 11 -1.7 1.8
-15 -1 11 8.9 2.5
-15 1 -11 2.6 3.5
-15 1 11 9.4 3.4
-15 -2 11 23 3
-15 2 -11 21.1 6.8
15 -2 11 21.5 5.3
-15 2 11 21.7 4.7
-15 2 11 22.5 6.9
-15 -2 -11 17.7 5.6
-15 3 -11 1.7 3.9
15 -3 11 9.9 4.6
-15 3 11 0.5 4.4
-15 -3 -11 3.4 3.7
-15 3 11 -0.7 3.8
-15 4 -11 6.5 5.1
15 -4 11 -2.4 5.1
-15 4 11 -1.9 3.5
-15 4 11 1.9 3.4
-15 -4 -11 5.3 3.9
-15 5 -11 -4.1 3
-15 -5 -11 5.4 3.8
-15 5 11 -0.3 3.8
-15 5 11 0.8 4.4
0 0 -12 102.09 7
0 0 12 105.89 7
0 -1 -12 -0.4 1
0 -1 12 0.7 1.2
0 1 -12 -1.4 0.8
0 1 12 1.4 1.3
0 -2 12 13.2 3.4
0 2 -12 11.8 3
0 2 12 11.4 3
0 -2 -12 11.5 3.4
0 2 12 14.7 3.5
0 -3 -12 0.5 1.4
0 -3 12 -0.6 1.2
0 3 12 -1.2 1.1
0 3 12 1.2 1.9
0 3 -12 0 1.1
0 4 12 590.14 19
0 4 -12 597.74 17
0 4 12 561.94 17.1
0 -4 12 607.94 17.8
0 5 -12 -2.4 1.1
0 5 12 -0.6 1.4
0 5 12 -2.3 1
0 -5 12 -0.3 1.5
0 6 -12 46.9 4.9
0 6 12 57.59 7.7
0 6 12 53.79 5.5
0 -6 -12 40.9 6
0 -6 12 43.8 6.4
0 7 12 1.3 2
0 -7 12 -1.4 1.9
0 7 12 4.1 2.2
0 7 -12 -1.2 1
0 -7 -12 2.2 1.8
0 -8 12 106.49 8.6
0 8 12 104.59 7.7
0 8 12 77.89 8.8
0 -8 -12 107.69 9
0 -8 12 102.19 9.9
0 -9 -12 2.6 2.1
0 9 12 0.4 2.3
0 9 -12 0.8 2.5
0 -9 12 -1.4 2.1
0 9 12 -2 1.7
0 9 12 -4.5 1.5
0 10 12 132.29 9.4
0 10 12 113.69 11.4
0 -10 -12 123.89 10.9
0 10 12 118.49 8.4
0 10 -12 130.99 9.2
0 -10 12 111.29 15.4
0 -10 12 111.59 9.5
0 11 12 -4.1 2.4
0 11 12 -3.4 2
0 11 12 -1.1 2.2
0 12 12 13.7 4
0 12 12 6.4 3.4
0 12 12 14 8.5
0 12 -12 13.5 2.9
0 13 12 6.8 4.4
0 13 12 -4.2 2.6
0 13 12 1.5 2.4
0 13 -12 -0.2 1.4
0 14 12 -5.4 3.4
0 14 12 -0.1 3.2
0 14 12 -1.4 2.2
0 15 12 1.3 5.3
1 0 12 151.48 8.3
-1 0 -12 142.69 8.3
1 0 -12 151.88 8.5
-1 0 12 157.98 8.4
-1 -1 12 1718.53 30.9
1 1 12 1689.93 30.6
-1 1 -12 1696.13 31.2
-1 1 12 1732.53 31.4
1 -1 12 1710.83 31
-1 -1 -12 1694.43 31.5
1 1 -12 1704.63 30.9
1 2 12 24.4 4.2
-1 2 -12 30.9 4.7
1 2 12 20.6 3.9
-1 -2 12 30.5 4.7
-1 2 12 25.1 4.4
1 2 -12 31 4.6
-1 -2 -12 32.4 5.1
-1 2 12 30.5 5.7
1 -2 12 22.2 4.3
1 3 12 1009 30.2
1 3 12 1062.69 23.2
-1 -3 12 995.3 22.8
-1 3 -12 1025.4 23.4
-1 3 12 1057.39 24.2
1 3 -12 1048 22.7
1 -3 12 1071.09 24.3
-1 3 12 1075.19 25.8
-1 -3 -12 1027.7 24.5
-1 4 -12 133.59 8.3
1 4 12 133.59 8.9
-1 -4 12 133.39 8.2
1 4 12 123.99 7.8
1 -4 12 131.99 8.4
1 4 -12 126.19 7.3
-1 4 12 126.99 9
-1 4 12 119.69 7.9
-1 -5 12 367.86 13.8
1 5 12 388.96 15.8
1 5 12 394.06 13.9
-1 5 -12 385.06 17
1 5 -12 386.86 12.9
1 -5 12 390.06 14.9
-1 5 12 398.96 16.8
-1 5 12 373.66 14.4
1 6 12 359.06 13.4
1 6 12 384.56 16.6
-1 -6 12 358.86 14
1 -6 -12 366.46 15.6
-1 6 -12 357.76 13.7
1 -6 12 355.56 14.8
-1 6 12 355.56 14.3
-1 6 12 355.26 16.6
1 6 -12 363.86 12.5
1 -7 -12 68.49 7.1
-1 7 -12 67.29 6.2
1 7 12 74.19 6.3
1 7 12 66.59 7.5
-1 -7 12 68.29 6.4
-1 7 12 62.99 8.8
1 -7 12 49.9 5.8
-1 7 12 59.19 6.4
1 7 -12 74.49 5.7
-1 -7 -12 64.89 6.6
-1 8 -12 106.89 7.8
-1 -8 12 122.09 8.9
-1 -8 12 112.29 10.3
1 -8 -12 94.09 8.6
1 8 12 109.39 7.6
1 8 12 93.09 9.2
1 -8 12 106.09 8.9
-1 -8 -12 112.99 9.1
-1 8 12 107.69 10.2
-1 8 12 110.59 8.3
1 -8 12 101.89 17.4
1 8 -12 99.99 6.4
-1 -9 12 354.66 18.6
1 9 12 318.17 13.4
-1 9 -12 321.27 13.4
1 9 12 304.27 12.6
-1 -9 12 325.97 15
1 -9 -12 332.77 16.8
1 9 12 311.47 17.2
-1 9 12 337.27 18.7
1 9 -12 319.67 11.2
-1 9 12 329.67 15
-1 9 12 320.57 14.2
-1 -9 -12 328.87 17.6
1 -9 12 314.77 17.8
1 -9 12 317.97 15.7
1 10 12 22.2 6.4
-1 10 -12 16.8 3.7
-1 -10 12 10.1 3.9
1 10 12 19.4 4.2
-1 -10 12 9 3.9
1 10 12 10.8 3.2
-1 10 12 25.1 5
-1 10 12 22.1 5
-1 10 12 14.8 5.7
1 -10 12 15.2 4.8
1 10 -12 17.7 3.2
-1 -10 -12 18.7 5
-1 11 -12 276.97 12.3
1 11 12 285.57 12.4
1 11 12 286.67 18.4
-1 -11 12 268.27 15
1 11 12 268.07 11.6
1 11 -12 287.57 9.3
-1 11 12 280.67 13.8
-1 11 12 255.47 17.7
-1 11 12 300.67 14.7
1 12 12 14 3.6
1 12 12 13.1 3.2
1 12 12 23.2 7
-1 12 -12 11.8 3.4
-1 12 12 12.6 4.2
-1 12 12 7.4 5.1
-1 12 12 14.3 4.3
-1 13 -12 54.39 5.6
1 13 12 64.39 11.2
1 13 12 56.29 5.8
-1 13 12 65.69 11.9
-1 13 12 55.69 7.8
-1 13 12 51.99 7.3
-1 14 -12 23.6 4
1 14 12 24.3 3.2
1 14 12 21.4 3.2
1 14 12 26.1 8.5
-1 14 12 25.4 5.4
-1 14 12 18.3 6.9
-1 14 12 28.6 5.2
1 15 12 316.17 22.8
-1 15 -12 303.47 9.3
-1 15 12 313.57 13.9
-1 15 12 319.67 23.5
-1 15 12 296.37 14.3
-2 0 12 210.18 9.9
2 0 12 190.08 9.4
-2 0 -12 179.88 9.4
2 1 12 14.4 3.2
-2 1 -12 15.4 3.4
-2 -1 12 15.4 3.5
-2 1 12 18.4 3.9
-2 -1 -12 17 3.5
-2 1 12 19.7 3.9
2 -1 12 18.7 3.8
2 2 12 30.2 4.5
-2 2 -12 36.2 5.3
-2 -2 12 24.4 4.1
2 -2 12 31.7 4.9
-2 2 12 30.5 4.9
-2 2 12 22.3 5.2
-2 -2 -12 28.8 4.8
-2 -3 12 253.97 11
2 3 12 263.57 11.8
2 3 12 260.87 10.8
2 -3 12 271.97 12
-2 3 12 262.27 12.5
2 3 -12 277.97 10.9
-2 3 12 273.87 12
-2 -3 -12 277.97 12
2 4 12 35.8 5
2 4 12 31.4 5.3
-2 -4 12 27.6 4.7
-2 4 -12 25.4 4.4
2 4 -12 29.3 4.2
-2 -4 -12 27.5 4.7
-2 4 12 41.9 6.2
-2 4 12 29 5.1
2 -4 12 37.6 5.8
2 5 12 10.5 2.8
-2 -5 12 9.6 3
-2 5 -12 3.1 2.1
2 5 12 4.9 2.4
2 5 -12 11.9 2.7
-2 -5 -12 5.8 2.8
-2 5 12 9.3 3.2
2 -5 12 7.4 2.9
-2 5 12 3.9 2.8
2 6 12 5.6 2.9
2 -6 -12 5.2 2.6
2 6 12 9.8 2.8
-2 -6 12 9.9 3.1
-2 6 -12 9.3 3
2 -6 12 8.2 3.4
-2 6 12 2.7 2.1
-2 6 12 6.2 3.4
2 6 -12 9.4 2.5
2 -7 -12 0.6 1.8
2 7 12 -1.2 1.6
2 7 12 0.8 2.1
-2 7 -12 0.6 1.7
-2 -7 12 0.1 1.6
2 -7 12 4.2 2.5
2 -7 12 1 2.7
-2 7 12 2.9 2.3
2 7 -12 -0.3 1.2
-2 7 12 2.8 2.2
2 -8 -12 5.2 2.8
-2 8 -12 0.5 1.8
-2 -8 12 0.8 2
2 8 12 -0.3 2.2
2 8 12 4.3 2.1
-2 -8 12 0.7 2.7
2 8 -12 3.2 1.6
2 -8 12 -4.9 2
2 -8 12 -0.7 2.9
-2 8 12 3.6 3
-2 -8 -12 -2.2 1.4
-2 8 12 3.1 2.8
2 9 12 24.6 4.3
-2 -9 12 24.6 4.8
2 -9 -12 20.9 5.5
-2 9 -12 28.9 5.1
2 9 12 19.2 5.2
-2 -9 12 22.7 6
-2 9 12 25.3 5.4
-2 9 12 37.1 7.8
-2 9 12 24.3 5.2
-2 -9 -12 27.5 5.9
2 -9 12 20.9 5
2 10 12 5.5 2.3
2 10 12 -1.3 2.6
2 10 12 6.9 2.4
-2 10 -12 3.8 2.3
-2 -10 12 7.3 4
-2 10 12 6.5 3.3
-2 -10 -12 5.7 3.3
-2 10 12 6.1 3.5
-2 10 12 10.7 4.6
2 11 12 13.3 2.9
-2 11 -12 7.8 3.1
-2 -11 12 12.6 3.9
2 11 12 10 2.7
2 11 12 4.5 3.6
-2 11 12 14.9 4.5
-2 11 12 13 5.3
2 12 12 147.39 13.8
2 12 12 152.98 6.8
-2 12 -12 164.18 10.3
2 12 12 148.79 6.9
-2 12 12 141.59 11.1
-2 12 12 147.79 11.2
-2 12 12 174.18 15.8
2 13 12 19.4 6.5
-2 13 -12 11.6 3.5
-2 13 12 9.3 5.7
-2 13 12 2.2 4.2
-2 13 12 8.2 4.2
-2 14 -12 17.9 4
2 14 12 23.1 7
-2 14 12 32.8 8.9
-2 14 12 24.1 5.9
-2 14 12 17.6 5.1
-3 0 -12 -0.6 1.3
-3 0 12 1.3 1.7
3 0 12 5.7 2
-3 -1 12 3.2 2
-3 1 -12 5.7 2.7
3 1 12 4 2.1
-3 1 12 6.4 2.4
3 -1 12 2.9 1.9
-3 -1 -12 5.1 2.2
-3 2 -12 496.15 16.7
3 2 12 504.55 15.2
-3 -2 12 499.75 15.5
3 -2 12 487.25 16.2
-3 2 12 466.05 16.4
-3 2 12 488.85 16.3
-3 -2 -12 494.75 16
3 3 12 -0.8 1.2
-3 -3 12 -1.1 1.5
-3 3 -12 0.6 1.6
3 3 12 -0.8 1.1
3 -3 12 0.5 1.8
-3 3 12 3 2
-3 3 12 -1.9 1
-3 4 -12 488.55 16.7
-3 -4 12 502.25 15.6
-3 -4 -12 475.85 16.6
-3 4 12 508.75 18.7
3 -4 12 526.45 17.9
-3 4 12 525.85 17.8
-3 5 -12 225.38 11.5
3 5 12 251.37 12.3
3 5 12 254.27 10.5
3 -5 -12 233.88 12.4
-3 -5 12 245.18 10.9
-3 5 12 239.28 13.4
-3 5 12 243.58 12.3
3 -5 12 248.88 12.6
-3 -5 -12 247.38 14.3
3 -6 -12 638.14 21.5
-3 6 -12 585.04 19.1
-3 -6 12 648.54 18.4
3 6 12 620.74 20.6
3 6 12 631.24 16.3
3 -6 12 630.54 21.1
-3 6 12 632.24 23.1
-3 -6 -12 607.04 19.4
-3 6 12 609.74 20.4
-3 -7 12 3.1 2.1
3 -7 -12 -2.5 1.8
3 7 12 3.4 2.5
-3 7 -12 -0.4 2
3 7 12 1.1 1.7
-3 7 12 -0.4 1.8
3 -7 12 -0.7 2.6
3 -7 12 0.6 2.2
-3 7 12 2.2 2.6
-3 -8 12 1042.7 25.4
3 8 12 1070.89 21.3
-3 8 -12 1087.29 27.6
3 8 12 1060.59 22
3 8 12 1115.39 30.9
-3 -8 12 1103.29 31.7
-3 8 12 1100.09 29.2
-3 8 12 1106.59 34.1
3 -8 12 1090.19 30.3
-3 -9 12 144.89 9.4
3 9 12 123.79 10.9
-3 9 -12 122.59 9.2
3 9 12 137.49 7.2
3 9 12 129.89 6.7
3 -9 12 128.59 10.8
-3 9 12 118.09 10
-3 9 12 126.39 12.2
-3 -9 -12 137.09 10.2
3 10 12 243.78 8.6
-3 -10 12 216.08 12.1
-3 10 -12 242.68 13
3 10 12 234.08 8.2
3 10 12 249.18 16
-3 -10 12 256.67 16.4
-3 10 12 252.77 14.5
-3 -10 -12 242.68 14
-3 10 12 297.57 19.2
-3 10 12 233.58 14.3
-3 -11 12 0 2.1
3 11 12 1 0.9
-3 11 -12 0.9 1.9
3 11 12 0.1 1
3 11 12 -5.6 2.6
-3 11 12 2.9 3.5
-3 11 12 0.9 3
-3 -11 -12 -0.3 2.5
-3 11 12 3 3.2
3 12 12 181.18 14.9
-3 12 -12 167.98 11.3
-3 12 12 179.18 13.2
-3 12 12 185.78 16.3
-3 12 12 174.88 12.6
3 13 12 3.8 3.8
-3 13 -12 11.6 4
-3 13 12 -1.6 3.1
-3 13 12 1.3 3.4
-3 14 -12 15.4 4.3
3 14 12 24.1 6.9
-3 14 12 4.2 3.9
-3 14 12 17.9 7.6
4 0 12 -1.5 1.2
-4 0 12 -2.3 0.8
-4 0 12 2.9 2
-4 1 -12 162.98 9.3
-4 -1 12 148.39 8.5
4 1 12 159.98 8.7
4 -1 12 138.59 8.5
-4 -1 -12 164.68 9.4
-4 1 12 149.99 9.3
-4 1 12 148.99 9
4 2 12 201.68 9.4
-4 -2 12 201.48 9.9
-4 2 -12 180.88 10
4 -2 12 193.18 10.4
-4 2 12 198.08 10.6
-4 2 12 199.98 10.8
-4 -2 -12 158.48 9.1
4 3 12 0.3 1.4
4 3 12 0.2 1.6
-4 3 -12 0.6 1.5
-4 -3 12 2.7 1.8
4 -3 12 -0.2 1.7
-4 3 12 4.1 2.1
-4 -3 -12 0.5 1.4
-4 3 12 0.1 1.8
4 4 12 72.69 6.6
-4 -4 12 80.89 6.1
-4 4 -12 67.29 6.5
4 4 12 81.39 5.8
-4 4 12 80.89 7.7
-4 4 12 72.99 6.9
4 -4 12 72.69 7
-4 -4 -12 69.59 7.2
4 5 12 2.1 1.7
-4 -5 12 1.5 1.9
-4 5 -12 4 2.3
4 -5 -12 8 2.9
4 5 12 6.7 2.5
-4 5 12 1.8 1.9
4 -5 12 8.6 3.4
-4 -5 -12 0.7 2.1
-4 5 12 3.4 2.4
-4 -6 12 11.7 2.8
4 -6 -12 11.2 3.7
4 6 12 15.1 2.9
-4 6 -12 8.8 3.4
4 6 12 10.1 3.5
4 -6 12 5.3 3.3
-4 6 12 11.2 3.8
-4 -6 -12 10.1 3.4
-4 6 12 13.8 4.3
4 -6 12 9.5 3.9
4 7 12 183.68 11.5
-4 7 -12 175.58 11
-4 -7 12 180.78 9.7
4 7 12 185.58 7.7
4 -7 12 176.48 12
-4 7 12 181.78 13.2
4 -7 12 183.18 14.9
-4 7 12 164.68 11.1
-4 -7 -12 196.78 11.1
-4 8 -12 421.76 17.4
4 8 12 433.36 11
4 8 12 435.06 18.6
4 8 12 397.56 11.1
-4 -8 12 416.46 15.1
-4 -8 12 398.76 18.6
4 -8 12 426.96 19.3
-4 8 12 424.96 18.4
-4 8 12 443.96 21.6
4 9 12 29.3 2.5
-4 -9 12 29 6.2
4 9 12 29.4 2.5
-4 9 -12 22.9 5.1
-4 -9 12 24.3 4.9
4 9 12 24.4 5.9
-4 9 12 21 5.4
-4 9 12 24.1 6.6
-4 9 12 21.1 5.4
-4 -10 12 8.4 3.8
-4 10 -12 21.9 5.1
4 10 12 14.2 4.8
-4 -10 12 10.1 3.3
-4 10 12 17.6 4.9
-4 -10 -12 11.1 4.1
-4 10 12 19.4 5.4
-4 10 12 19.2 6.2
-4 11 -12 9 3.8
4 11 12 9.9 4.7
-4 -11 12 5.1 3.5
-4 11 12 11.5 4.8
-4 11 12 8.6 4.6
-4 -11 -12 17.5 4.5
-4 12 -12 33.4 6.4
4 12 12 33.6 7.7
-4 -12 12 33 5.9
-4 12 12 30.4 6.8
-4 12 12 23.2 8
-4 13 -12 22.9 5.5
-4 13 12 24.6 7.4
-4 13 12 26.7 6.2
-4 14 -12 9.4 4.5
4 14 12 12.5 5.5
-4 14 12 2.4 4.3
-4 14 12 5.2 4.4
-5 0 -12 1145.79 26
5 0 12 1093.79 24.8
-5 0 12 1080.49 25.5
-5 0 12 1017.9 30.1
-5 -1 12 12.2 3.2
-5 1 -12 12.3 3.2
5 1 12 11.4 3
-5 1 12 11.4 3.3
-5 -1 -12 3.3 2.4
5 -1 12 5.6 2.5
-5 1 12 8.3 2.9
5 2 12 187.58 10.2
-5 -2 12 180.98 9.4
-5 2 -12 184.48 10.5
-5 2 12 207.68 11.3
5 -2 12 182.48 10.4
5 3 12 66.19 5.4
-5 -3 12 57.69 5.5
-5 3 -12 53.29 5.9
5 3 12 61.79 5.6
-5 3 12 63.49 6.7
5 -3 12 59.49 6.3
-5 4 -12 506.95 18.2
5 4 12 488.05 13.9
5 4 12 481.85 16
-5 -4 12 501.05 15.6
-5 4 12 531.35 19.9
5 -4 12 479.75 18.3
5 -5 -12 98.89 8.3
-5 5 -12 101.39 8.4
-5 -5 12 112.79 7.3
5 5 12 103.39 6
5 5 12 116.49 8.7
-5 5 12 97.69 9.1
5 -5 12 106.19 8.9
-5 -5 -12 90.09 7.4
5 6 12 639.14 14.3
-5 6 -12 590.44 20.7
5 6 12 660.43 20.6
5 -6 -12 649.54 22.4
-5 -6 12 633.44 17.9
-5 6 12 651.43 24.4
-5 -6 -12 659.53 19.8
5 -6 12 635.84 24
5 -7 -12 2.4 2.6
5 7 12 7.8 3.3
5 7 12 5.1 1.7
5 7 12 7.6 1.7
-5 7 -12 2.2 2.8
-5 -7 12 6.6 2.8
5 -7 12 7.2 3.6
-5 -7 -12 1.8 1.9
-5 7 12 9.3 3.9
5 8 12 213.88 12.9
-5 -8 12 189.28 12.7
-5 8 -12 188.98 12.3
-5 -8 12 205.28 10.5
-5 8 12 193.68 14.6
-5 -8 -12 204.58 11.6
5 -8 12 207.08 15.2
-5 -9 12 2.8 2.1
-5 9 -12 3.9 2.8
5 9 12 -0.5 2.5
-5 9 12 -4.7 1.9
-5 9 12 -2.5 2.2
-5 -10 12 -0.3 2
-5 10 -12 -0.6 2.4
5 10 12 1.7 2.4
-5 -10 12 4.5 2.9
-5 10 12 -0.4 3.1
-5 10 12 1.9 2.7
-5 -11 12 9.7 6
-5 11 -12 3.2 3.5
5 11 12 1.3 3.4
-5 11 12 -0.6 3.2
-5 11 12 10.1 5.4
-5 -12 12 33 5.6
-5 12 -12 25.3 5.9
5 12 12 40.3 7.9
-5 12 12 25.5 7.7
-5 12 12 28.4 8.2
5 13 12 3.4 4.8
-5 13 -12 15.6 4.9
-5 13 12 11.6 4.5
-5 13 12 5.6 5
5 14 12 221.48 17.4
-5 14 12 254.37 20.6
-5 14 12 226.28 16
-6 0 12 14 3.7
6 0 12 11.9 3.3
-6 0 -12 9.9 3.2
6 1 12 146.59 8.5
-6 -1 12 162.88 11.6
-6 1 -12 144.19 9.4
-6 -1 12 163.98 9.4
-6 -1 -12 154.58 9.3
-6 1 12 159.88 9.8
6 -1 12 166.88 9.7
-6 2 -12 24.5 4.9
-6 -2 12 33.7 5.2
-6 -2 -12 41.2 5.8
6 -2 12 38.9 6
-6 2 12 31.6 5.4
6 3 12 8.9 2.7
-6 -3 12 6.3 2.4
6 3 12 8.2 2.5
-6 3 -12 7 3
-6 3 12 4.3 2.6
-6 -3 -12 8.1 2.6
6 -3 12 4.8 2.7
6 4 12 206.28 8.6
-6 -4 12 198.88 9.8
6 4 12 208.38 10.2
-6 4 -12 189.98 11.6
-6 4 12 219.58 13
-6 -4 -12 197.18 10.4
6 -4 12 194.78 12
6 5 12 44.3 3.8
6 -5 -12 35.1 6
-6 5 -12 45.5 7.1
-6 -5 12 34.2 5
6 5 12 36.8 6.5
-6 -5 -12 29.8 5
-6 5 12 30 6.4
6 -5 12 42.1 7.2
6 -5 12 30.6 6.5
6 6 12 3.8 1.3
-6 -6 12 7.1 2.5
6 -6 -12 2.7 2.9
6 6 12 2.7 2.1
-6 6 -12 3.1 2.7
6 -6 12 0.6 2.2
-6 6 12 4.4 3.2
6 -6 12 3.2 3.3
-6 -6 -12 1.3 2.1
6 -7 -12 91.29 9
-6 7 -12 98.29 9.1
-6 -7 12 105.09 7.2
6 7 12 92.39 8
-6 -7 -12 97.59 7.8
6 -7 12 111.39 10.8
-6 7 12 106.99 10.7
6 8 12 45.6 7
-6 8 -12 55.79 8.1
-6 -8 12 34.1 6.1
-6 -8 12 42.3 5.8
-6 8 12 42.9 8.4
-6 -8 -12 38.9 6.1
-6 -9 12 9.1 3.2
-6 -9 12 5.1 3.5
6 9 12 0.8 2.4
-6 9 -12 11.1 4.1
-6 9 12 8 4.1
-6 9 12 4.1 3.7
-6 -9 -12 7.5 3.2
-6 10 -12 6.9 3.4
-6 -10 12 11.8 4.6
6 10 12 6.8 3.5
-6 -10 12 9.8 3.4
-6 10 12 12.7 4.6
-6 11 -12 159.18 12.2
6 11 12 165.88 13
-6 -11 12 164.18 10.3
-6 -11 12 146.99 13.3
-6 11 12 163.88 16.1
-6 12 -12 10.1 4.9
-6 -12 12 15.4 4.3
6 12 12 14.6 5.4
-6 12 12 6 5.1
-6 12 12 5.3 4.4
-6 13 -12 62.79 9.8
6 13 12 81.79 11.4
-6 13 12 79.79 11.5
-6 13 12 74.69 13.3
-7 0 -12 1436.96 31.3
-7 0 12 1324.37 29.3
7 0 12 1409.66 29.6
7 1 12 332.57 13
-7 1 -12 349.17 15
-7 -1 12 333.07 13.5
-7 1 12 349.37 14.7
7 -1 12 330.87 14.2
-7 -1 -12 316.97 13.7
-7 2 -12 25 5.2
-7 -2 12 29.7 5.8
7 2 12 33.8 4.9
-7 -2 -12 23.2 4.5
-7 2 12 20.1 4.6
7 -2 12 28.3 5.3
7 3 12 176.48 9
7 3 12 163.98 8
-7 -3 12 161.78 9.4
-7 3 -12 172.88 11.1
7 -3 12 157.28 10.8
-7 3 12 171.88 11.3
-7 -3 -12 160.38 9.5
-7 4 -12 18.9 4.9
7 4 12 20 3
7 4 12 23.1 4.3
-7 -4 12 22.3 4.2
7 -4 12 24.5 5.3
7 -4 12 24.9 5.5
-7 -4 -12 22.2 4.4
-7 4 12 17.7 4.8
7 5 12 150.08 8.9
-7 5 -12 149.59 11
7 -5 -12 150.28 10.5
7 5 12 145.19 5.3
-7 -5 12 133.49 8.2
7 -5 12 141.39 11
-7 5 12 147.59 11.7
-7 -5 -12 154.68 9.5
7 -5 12 138.59 11.3
7 -6 -12 72.19 8
-7 -6 12 69.59 6.1
-7 6 -12 67.59 7.8
7 6 12 59.89 8.5
-7 -6 -12 68.49 6.5
-7 6 12 79.89 9.1
7 -6 12 74.79 8.5
7 7 12 40.6 6.3
-7 7 -12 38.3 7.2
-7 -7 12 41.3 5.6
7 -7 -12 36.5 7
-7 7 12 37.7 7.8
-7 -7 -12 44.4 6.5
7 -7 12 36.3 7.4
7 8 12 43.5 6.6
-7 -8 12 43.2 7.1
-7 8 -12 48.1 8.1
-7 -8 12 45.4 6.1
-7 8 12 51.19 8.9
-7 -8 -12 41.5 6.1
-7 8 12 40.5 8.4
7 9 12 5.4 3.2
-7 -9 12 15.2 3.8
-7 -9 12 12.5 4
-7 9 -12 14 4.5
-7 9 12 6.8 4
-7 9 12 8.4 4.4
-7 -9 -12 12.7 3.7
7 10 12 21.5 5.4
-7 -10 12 21.5 4.1
-7 -10 12 30.2 7.8
-7 10 -12 24.4 5.9
-7 10 12 28 8
-7 -11 12 457.85 16.9
7 11 12 464.55 21.1
-7 11 -12 457.65 21.6
-7 -11 12 465.25 21.9
-7 11 12 507.75 27.7
-7 11 12 500.85 24.5
-7 -12 12 26.6 4.6
7 12 12 14.8 5.1
-7 12 -12 14.6 5.3
-7 12 12 25.7 8
-7 12 12 11.8 5.5
-7 13 -12 281.37 17.6
7 13 12 262.27 17.3
-7 13 12 332.77 24
8 0 12 401.66 15.3
-8 0 -12 400.56 16.3
-8 0 12 406.76 15.6
-8 1 -12 523.95 19.1
-8 -1 12 532.05 17.4
8 1 12 510.75 16.4
-8 -1 -12 517.15 18.3
-8 1 12 523.25 18.5
8 -1 12 511.05 18.2
8 2 12 53.39 5
-8 2 -12 65.19 7
-8 -2 12 54.09 5.5
8 -2 12 49.99 7.1
-8 -2 -12 50.19 5.6
-8 2 12 51.99 7.4
-8 3 -12 113.69 9.3
8 3 12 119.19 6.5
8 3 12 97.79 6.7
-8 -3 12 104.39 7.7
-8 -3 -12 114.99 8.3
8 -3 12 98.79 8.9
8 -3 12 106.49 9.2
-8 3 12 101.79 9.1
8 4 12 37.6 3.2
-8 -4 12 38.2 5.6
-8 4 -12 43 7.3
8 4 12 34.2 4.8
-8 -4 -12 46.6 6.4
8 -4 12 27.8 6
8 -4 12 42.2 8.1
-8 4 12 38.4 6.9
8 -5 -12 3.1 3.2
-8 -5 12 13.5 3.1
-8 5 -12 6.1 3.5
8 5 12 8.5 2.6
-8 -5 -12 7.4 3
8 -5 12 1.9 3.3
-8 5 12 9.7 3.9
8 -5 12 6.1 3.6
-8 -6 12 2.5 2.2
-8 6 -12 0.4 2.6
8 -6 -12 3.3 2.9
8 6 12 0.9 1.7
8 -6 12 2.3 4.1
8 -6 12 -1.3 3.2
-8 6 12 -3 1.9
-8 -6 -12 4.1 2.7
-8 -7 12 22 4.2
-8 7 -12 18.8 5.3
8 7 12 20.2 4.4
-8 7 12 27.7 7.1
-8 -7 -12 27.7 5
8 -7 12 24.4 7.1
-8 -8 12 0.5 2.1
8 8 12 -4.3 1.5
-8 -8 12 -1.2 2.2
-8 8 -12 1.3 2.8
-8 -8 -12 -1.8 1.8
-8 8 12 4.3 3.4
-8 8 12 -3.4 2.5
-8 9 -12 5.7 4.2
8 9 12 2.4 2.6
-8 -9 12 7.3 2.5
-8 -9 12 6.6 3.9
-8 -9 -12 3.6 2.8
-8 10 -12 14.2 4.9
8 10 12 10.2 3.8
-8 -10 12 10.5 4.5
-8 -10 12 15.7 3.7
-8 -10 -12 10.1 3.6
-8 10 12 12.8 6.2
-8 10 12 12.2 6
-8 -11 12 32.4 6.1
8 11 12 27 5.9
-8 11 -12 23.9 6.4
-8 -11 12 21.4 4.5
-8 11 12 35.3 9.3
-8 11 12 30.8 7.8
-8 -12 12 -4.4 2.9
-8 12 -12 -5.5 3.1
8 12 12 3.8 3.6
-8 12 12 -0.7 4.1
-8 12 12 4.3 4.5
9 0 12 11.8 3.6
-9 0 -12 5.9 2.9
-9 0 12 10.9 3.4
-9 -1 12 6.5 2.7
9 1 12 7.6 2.8
-9 1 -12 9.1 3.6
9 -1 12 14.2 3.8
-9 1 12 10.3 3.6
-9 -1 -12 11.5 3.6
9 2 12 17.4 3.5
-9 2 -12 14.5 4.6
-9 -2 12 16.1 3.7
9 -2 12 17.6 4.6
-9 -2 -12 24.2 4.8
-9 2 12 11 3.8
9 -2 12 19.4 5
9 3 12 25.6 3.5
9 3 12 32.7 4.6
-9 3 -12 36.3 6.7
-9 -3 12 28.2 4.9
-9 -3 -12 37.4 6.1
9 -3 12 28.6 5.7
-9 3 12 29.5 5.9
9 -3 12 34.6 6.3
-9 4 -12 23.9 5.9
-9 -4 12 27.4 5
-9 -4 12 34.3 5.1
9 4 12 28.4 4.2
9 -4 12 30 6
-9 -4 -12 33.5 5.5
-9 4 12 31 6.5
9 -4 12 22 6.4
-9 5 -12 181.18 12.9
-9 -5 12 173.48 9.7
9 5 12 167.68 9
-9 -5 -12 178.38 10.5
9 -5 12 161.18 12.8
9 -5 12 183.78 13.4
-9 5 12 176.98 13.4
9 -6 -12 8.2 3.4
-9 6 -12 6.2 3.9
9 6 12 7.4 2.7
-9 -6 12 1.3 2.5
-9 -6 -12 1.7 2.3
-9 6 12 4.8 4
9 -6 12 12.7 4.7
9 7 12 57.89 6
-9 -7 12 61.29 8
-9 7 -12 64.89 9.9
-9 -7 12 57.69 5.7
-9 -7 -12 65.99 6.6
-9 7 12 57.19 10.2
-9 -8 12 -4.2 2.1
-9 -8 12 -1.6 2.2
9 8 12 0.1 1.9
-9 8 12 -2.6 2.3
-9 -8 -12 1.6 2.1
-9 -9 12 612.34 18.4
-9 9 -12 660.43 26.8
-9 -9 12 606.14 22.4
9 9 12 670.93 21.5
-9 9 12 668.13 28.8
-9 9 12 664.23 30.2
-9 -9 -12 652.33 21.2
-9 10 -12 19.1 5.9
9 10 12 21.2 5
-9 -10 12 24.9 4.8
-9 -10 12 36.5 6.4
-9 10 12 34.7 8.5
-9 -10 -12 27.7 5.5
-9 10 12 28.9 7.5
-9 11 -12 10 4.6
-9 -11 12 -6.9 3.2
9 11 12 9.1 3.3
-9 -11 12 9.7 3.1
-9 11 12 -3.1 3.8
-9 11 12 -0.6 4.3
-9 -12 12 20.4 6.6
9 12 12 17.8 5
-9 12 -12 27.4 7.3
-9 -12 12 13.3 4.7
-9 12 12 13.9 6.4
-9 12 12 16.6 6.9
-10 0 -12 33.1 6.1
-10 0 12 31.4 5.5
10 0 12 32.9 5.4
-10 -1 12 42 6.1
-10 1 -12 29.8 5.9
-10 1 12 31.1 5.7
10 -1 12 44.8 6.5
-10 -1 -12 35.3 6.1
10 -1 12 39.2 6.2
10 2 12 135.39 7.6
10 2 12 115.69 6.5
-10 -2 12 115.99 8.1
-10 2 -12 123.69 10.4
10 -2 12 148.49 10.6
10 -2 12 110.29 9.3
-10 -2 -12 116.49 9.1
-10 2 12 123.69 9.8
-10 -3 12 8.6 3.3
-10 3 -12 5.7 3.5
10 3 12 11.8 2.8
10 -3 12 17.3 4.7
10 -3 12 3.7 3.3
-10 -3 -12 6.6 3.2
-10 3 12 8 3.6
10 4 12 37.5 4.3
-10 4 -12 40.1 7.6
10 -4 12 35.9 7.1
10 -4 12 34.7 7.2
-10 4 12 33.9 7
-10 -4 -12 51.59 7
-10 5 -12 20.2 5.4
-10 -5 12 23.7 4.8
10 5 12 39.4 4.5
-10 -5 12 28.5 5
-10 5 12 30.7 6.9
10 -5 12 31.8 7.2
-10 -5 -12 33.2 5.6
-10 -6 12 71.49 6.6
-10 6 -12 58.09 9.5
10 6 12 66.29 5.7
-10 6 12 61.39 9.9
10 -6 12 65.49 10.3
-10 -6 -12 66.59 6.6
-10 -7 12 64.39 6.7
-10 -7 12 63.09 6.1
-10 7 -12 60.89 9.6
10 7 12 61.59 5.8
-10 7 12 43.6 10.3
-10 7 12 51.79 9.6
-10 -7 -12 53.49 7.1
-10 -8 12 14.9 4
10 8 12 16.5 3.8
-10 8 -12 9.8 4.8
-10 -8 12 19.1 4.7
-10 -8 -12 11.1 3.8
-10 8 12 20 7
-10 -9 12 4.2 3.2
-10 9 -12 -0.3 3.8
-10 -9 12 -2.7 1.9
-10 9 12 2.5 4.9
-10 9 12 -2.9 2.9
-10 -9 -12 5.5 2.9
-10 -10 12 17 3.7
-10 10 -12 15.6 5.6
10 10 12 18.8 4.6
-10 -10 12 11.3 4.3
-10 -10 -12 14.4 4.3
-10 10 12 8.9 6.5
-10 10 12 25.8 7.5
-10 -11 12 8 3.7
10 11 12 18.8 4.8
-10 -11 12 24.7 7.2
-10 11 -12 28.1 7.3
-10 11 12 7.8 6.4
-10 11 12 25.9 7.5
11 0 12 100.79 7.8
-11 0 -12 101.29 9.4
-11 0 12 95.99 8.2
11 0 12 103.79 8.1
11 1 12 89.69 7.3
-11 1 -12 89.39 9.1
-11 -1 12 97.99 7.8
-11 1 12 84.89 8.1
11 -1 12 73.79 7.5
-11 -1 -12 87.59 8.4
11 -1 12 88.49 7.8
-11 2 -12 97.89 9.6
11 2 12 122.19 7
-11 -2 12 115.69 8.1
-11 -2 -12 120.79 9.5
-11 2 12 104.69 9.3
11 -2 12 85.89 8.4
11 -2 12 111.09 9.3
11 3 12 35.5 4
-11 3 -12 29.2 6.6
-11 -3 -12 29.7 5.6
11 -3 12 36.2 6.4
11 -3 12 39 8.3
-11 3 12 40.9 7.4
11 4 12 244.78 9.6
-11 4 -12 267.57 16.1
-11 -4 12 254.77 12.1
-11 4 12 256.17 15.9
11 -4 12 260.37 15.4
-11 -4 -12 276.27 13.9
11 -4 12 227.18 14.7
-11 -5 12 1.4 1.5
-11 -5 12 -1.6 2
-11 5 -12 0.1 2.5
11 5 12 0.5 1.3
-11 5 12 -0.3 2.8
-11 -5 -12 3.6 2.4
11 -5 12 4.9 3.7
-11 6 -12 75.79 10.9
11 6 12 85.99 5.8
-11 -6 12 95.29 7.8
-11 6 12 103.59 11.2
-11 -6 -12 100.99 8.3
11 7 12 181.68 8.6
-11 7 -12 207.98 15.2
-11 -7 12 183.48 10
-11 -7 12 192.08 10.1
-11 -7 12 220.98 11.6
-11 7 12 173.58 15.1
-11 7 12 181.98 15.5
-11 -7 -12 177.78 11
11 8 12 19.8 3.7
-11 8 -12 19.7 6.3
-11 -8 12 12.7 3.9
-11 -8 12 14 3.8
-11 8 12 9 5
-11 8 12 8 5.8
-11 -8 -12 25.2 5.1
11 9 12 338.87 12.4
-11 -9 12 314.27 13
-11 9 -12 355.66 20.9
-11 -9 12 284.87 14.2
-11 -9 -12 308.37 14.8
-11 9 12 341.87 22
-11 9 12 315.17 21.4
-11 -10 12 -2.9 2.8
11 10 12 8.3 3
-11 -10 12 1.3 3.1
-11 -10 -12 -3.3 2.2
-11 10 12 -1.7 4.1
-11 10 12 -8.4 4.2
12 0 12 17.5 4.3
-12 0 12 21 4.7
-12 0 -12 30.8 6.5
-12 -1 12 4.8 2.8
-12 1 -12 2.1 3.2
12 -1 12 10.1 3.9
-12 -1 -12 8.7 4.2
-12 1 12 3.9 2.7
12 2 12 50.49 4.5
-12 -2 12 50.39 6.7
-12 2 -12 52.69 8.6
12 2 12 39.5 5
-12 2 12 56.19 8.3
12 -2 12 55.79 7.7
-12 -2 -12 56.39 8.2
12 -2 12 46.8 7.3
12 3 12 0.1 1.7
12 3 12 2.2 1.5
-12 -3 12 1.2 1.7
-12 3 -12 5.8 3.8
-12 -3 -12 5.3 2.8
12 -3 12 7.2 4
12 -3 12 5.5 3.3
-12 3 12 -2.2 2.1
-12 -4 12 14.4 3.3
12 4 12 16.6 2.7
12 4 12 14.3 2.8
-12 -4 -12 14 4.2
12 -4 12 8.1 5.2
-12 4 12 18.7 5.4
-12 -5 12 2.1 1.6
-12 5 -12 6.5 4
12 5 12 2.9 1.3
12 -5 12 -5.6 3.6
-12 -5 -12 2.8 3
-12 5 12 4.9 3.8
-12 -6 12 11.9 3.2
12 6 12 8.4 1.7
-12 -6 12 9 2.7
-12 6 -12 7.9 4.8
-12 -6 -12 9.7 3.6
-12 6 12 -0.5 4.2
-12 6 12 11.1 5.4
-12 7 -12 4.6 4
-12 -7 12 4.8 1.8
-12 -7 12 6.5 2.8
12 7 12 2.4 1.1
-12 -7 12 0.2 2.5
-12 7 12 -3.5 3.8
-12 7 12 -1.4 3.9
-12 -7 -12 4.2 2.9
-12 8 -12 115.29 12.1
-12 -8 12 104.89 7
-12 -8 12 87.19 7.4
-12 -8 12 109.19 8
12 8 12 99.09 3.8
-12 8 12 95.29 13.7
-12 -8 -12 94.99 8.6
-12 8 12 94.29 13.8
-12 -9 12 40.1 5.8
-12 -9 12 36 5.6
-12 9 -12 23.2 6.7
-12 9 12 18.9 7.3
-12 9 12 36.3 8.9
-12 -9 -12 34.3 5.9
-13 0 -12 983 31.1
13 0 12 975.3 24.3
-13 0 12 925.71 25.9
13 1 12 0.5 2.2
13 1 12 3.6 1.9
-13 -1 12 7.9 2.9
-13 1 -12 4.6 4
-13 1 12 4.9 2.6
-13 -1 -12 2.7 3.2
13 -1 12 1.7 3
-13 2 -12 122.69 13.8
13 2 12 123.99 6.9
13 2 12 123.39 6.1
13 -2 12 115.69 9.8
-13 2 12 134.49 10.7
-13 -2 -12 140.89 11.3
-13 -3 12 21.9 4
-13 3 -12 31.6 7.3
13 3 12 21.7 2.7
13 3 12 33.2 2.7
13 -3 12 18.2 4.8
-13 3 12 29.6 6.6
-13 -3 -12 24.1 5.7
-13 4 -12 51.99 9.3
-13 -4 12 42.8 4.5
13 -4 12 37.7 7.3
-13 4 12 32.8 6.9
-13 -4 -12 35.3 6.5
-13 5 -12 4.7 4.1
-13 -5 12 4.8 2.1
-13 -5 12 11.7 3
-13 5 12 9.1 4.6
-13 5 12 18.1 6.3
-13 -5 -12 10.2 3.8
-13 -6 12 24 3.8
-13 6 -12 23.6 7.2
-13 -6 12 10 4.2
-13 -6 12 20.6 3.3
-13 6 12 28.6 7.9
-13 6 12 25.3 7.5
-13 -6 -12 19 4.9
-13 7 -12 -1 3.6
-13 -7 12 -1.3 1.2
-13 -7 12 -1.9 2.8
-13 -7 12 2.2 2.2
-13 7 12 8.5 4.7
-13 7 12 5.1 4.3
-13 -7 -12 8.5 3.3
-13 -8 12 12.6 2.4
-13 8 -12 5.2 4.3
-13 -8 12 12.1 4.6
-13 -8 12 8.3 2.8
-13 8 12 7.9 6
-13 -8 -12 5 3.5
-13 8 12 2 4.5
-14 0 12 84.19 7.7
-14 0 -12 80.69 13
14 1 12 6.9 2.5
-14 1 -12 17.4 5.6
-14 -1 12 6.4 3.1
14 1 12 6.1 2.1
14 -1 12 8.8 3.9
-14 -1 -12 8.3 4.5
-14 1 12 7.2 3.4
-14 -2 12 52.29 5.3
-14 2 -12 48 9.1
14 2 12 32.3 2.2
14 2 12 39.4 2.7
14 -2 12 39.9 6.7
-14 -2 -12 31.9 6.7
-14 2 12 28.4 5.8
-14 -3 12 -0.9 1.6
-14 3 -12 -4.6 3.2
-14 3 12 7.1 3.7
-14 -3 -12 2.4 3.3
14 -3 12 -1.2 3.8
-14 4 -12 -1 3.4
-14 4 12 3.6 3.3
-14 -4 -12 -0.3 2.3
14 -4 12 -9.7 4
-14 4 12 4.1 4.9
-14 -5 12 6.6 1.5
-14 -5 12 3.5 1.8
-14 5 -12 15.4 5.4
-14 5 12 5.2 5.2
-14 -5 -12 -5.9 3
-14 5 12 6.1 4.3
-14 6 -12 35.4 8
-14 6 12 31.2 8.4
-14 -6 -12 41.1 7.4
-14 6 12 35 8.3
15 0 12 47.4 4.2
-15 0 12 49.5 6.7
15 0 12 45.7 4.9
-15 0 -12 31.8 7.8
-15 -1 12 -1.5 2
-15 1 -12 1.8 4.2
-15 1 12 -1.1 2.6
-15 -1 -12 0.7 3.1
15 -1 12 1.5 3.3
-15 2 -12 9.9 5
-15 -2 12 0.4 1.8
15 -2 12 7.3 4
-15 2 12 5.7 3.1
-15 3 -12 -7.4 2.9
-15 -3 12 4.5 1.4
-15 3 12 -4.2 3.5
-15 3 12 3.7 4.1
15 -3 12 0 4.1
-15 -3 -12 1.5 3.2
-15 4 -12 -2.7 3.7
-15 4 12 0.9 5.4
15 -4 12 -0.1 5.4
-15 -4 -12 -1.2 3
-15 4 12 1.5 4.1
0 0 -13 0.3 1.5
0 0 13 1.4 1.5
0 -1 -13 1 1.7
0 1 -13 0.5 1.4
0 1 13 -0.8 1.2
0 -1 13 3.1 1.9
0 2 -13 31.8 4.9
0 2 13 38.6 5.6
0 -2 13 42.8 4.8
0 -2 -13 36.6 5.7
0 2 13 31.2 4.9
0 3 13 0.1 1.4
0 3 -13 -0.3 1.1
0 -3 13 -0.3 1.4
0 3 13 0.3 1.3
0 4 13 1223.08 29.4
0 4 -13 1142.29 30.1
0 4 13 1237.58 26.9
0 -4 13 1231.28 27.2
0 5 13 2.1 2
0 -5 13 -1.5 1.3
0 5 13 0.3 1.8
0 6 13 -0.2 1.8
0 -6 13 -0.5 1.6
0 6 -13 -0.2 1.6
0 6 13 2.1 2.3
0 7 13 -0.8 1.8
0 -7 -13 1.8 2.4
0 7 13 1.1 2
0 -7 13 1.4 1.8
0 7 -13 -2 1.6
0 8 13 199.68 11
0 -8 13 177.88 13.5
0 -8 13 184.58 11.3
0 8 -13 181.18 9.7
0 8 13 191.58 13.4
0 -9 -13 2.3 2.5
0 -9 13 -1 2.2
0 9 13 0.6 2.4
0 9 13 0.2 1.8
0 9 13 -1.3 2
0 -9 13 2.6 2.5
0 9 -13 -0.3 1.4
0 10 13 8.9 3.2
0 10 -13 16.5 3.7
0 10 13 12.8 4
0 -10 13 13.9 4.4
0 10 13 17.8 6
0 11 13 -3 3.2
0 11 13 -1.5 2.2
0 11 -13 0.6 2
0 12 13 20.7 5.1
0 12 13 14.3 5.8
0 12 13 22.3 4.8
0 13 13 -0.4 2.5
0 13 -13 -0.2 1.6
0 13 13 4.3 3.3
0 13 13 -7.7 3.8
0 14 13 254.37 11.9
0 14 13 264.27 20.4
0 14 13 259.17 12.2
-1 0 13 0.2 1.3
1 0 -13 1.8 1.8
-1 0 -13 4.2 2.2
1 0 13 -0.5 1.2
-1 -1 13 2.6 1.9
1 1 13 3.7 2.3
1 1 -13 1.7 1.6
1 -1 13 -1.1 1.6
-1 1 13 2.7 2
1 2 13 59.79 5.8
1 2 13 59.89 5.5
-1 -2 13 57.29 5.5
-1 -2 -13 55.09 8.1
1 2 -13 68.19 5.8
1 -2 13 60.69 5.9
-1 2 13 73.89 6.1
-1 2 13 57.39 5.8
1 3 13 29.6 5.1
-1 -3 13 37.5 5.4
-1 3 -13 40.9 4.8
1 3 13 37.2 5.3
-1 3 13 37.3 5.6
1 -3 13 29.1 4.9
-1 3 13 41.7 6.3
-1 -3 -13 36.9 5.6
1 3 -13 32.8 4.8
-1 -4 13 41.9 5.9
-1 4 -13 32.8 5.1
1 4 13 40 6.1
1 4 13 34.4 5.2
-1 4 13 29.5 5
1 4 -13 34.5 5
1 -4 13 43.9 5.2
-1 -4 -13 36 5.7
-1 4 13 33.5 5.7
-1 -5 13 18.9 3.9
1 5 13 17.3 4.2
-1 5 -13 26.1 4.7
1 5 13 28.2 5
1 -5 13 24.9 4.9
-1 5 13 22.5 5.1
-1 5 13 25.2 4.8
1 5 -13 22.9 3.9
1 6 13 646.24 22.2
1 6 13 633.24 18.6
-1 -6 13 623.74 19.4
-1 6 -13 626.94 18.9
-1 6 13 634.74 19.9
-1 6 13 620.54 22.6
1 6 -13 645.64 17.6
1 -6 13 620.34 20.3
1 -7 -13 821.92 25.3
1 7 13 827.42 26.6
1 7 13 786.32 21.1
-1 -7 13 832.02 23.2
-1 7 -13 820.42 21.9
-1 7 13 787.52 22.7
1 -7 13 793.22 23.9
-1 7 13 793.32 26.9
1 7 -13 746.73 19.1
-1 8 -13 63.79 6.4
-1 -8 13 61.69 6.8
1 -8 -13 59.99 8.4
1 8 13 55.39 8.7
1 8 13 60.09 6.2
-1 8 13 58.19 6.3
1 -8 13 53.69 9
-1 -8 -13 50.59 7.2
1 -8 13 45.1 7.2
-1 8 13 75.19 8.8
1 8 -13 64.29 5.4
1 -9 -13 57.29 8.7
1 9 13 60.19 6.3
-1 -9 13 33.5 7.3
1 9 13 44.7 6
1 9 13 52.29 8.9
-1 9 -13 41.1 6.1
-1 -9 13 45.9 7
-1 -9 -13 58.79 6.8
-1 9 13 54.29 6.1
1 9 -13 58.69 5.1
1 -9 13 50.89 8.8
-1 9 13 55.49 9.6
1 -9 13 55.99 7.9
-1 9 13 47 7.2
1 10 13 61.69 6.3
1 10 13 54.59 9.3
1 10 13 61.59 6
-1 -10 13 56.69 8.1
-1 10 -13 54.69 5.8
-1 10 13 62.39 7
-1 -10 -13 50.19 9.2
-1 10 13 56.19 8
-1 10 13 54.29 9.5
1 10 -13 52.69 4.7
1 11 13 167.18 9.9
1 11 13 157.18 14.3
1 11 13 152.58 9.2
-1 11 -13 156.98 9.6
-1 11 13 154.08 10.7
-1 11 13 154.18 14
1 11 -13 158.98 7.3
-1 11 13 148.29 11
-1 12 -13 0 2.1
1 12 13 0.7 2
1 12 13 -2.9 2.2
-1 12 13 3 4.5
-1 12 13 -2.4 1.9
-1 12 13 0.3 2.9
1 13 13 25.3 4.2
-1 13 -13 16.7 4
1 13 13 18.7 6.8
-1 13 13 19.9 7.3
-1 13 13 15.9 4.8
-1 13 13 29.5 5.6
1 14 13 15.2 3
1 14 13 13.6 3.1
1 14 13 11.6 6.1
-1 14 -13 13.5 3.1
-1 14 13 13.5 4.3
-1 14 13 7.1 5.7
-1 14 13 12 5
-2 0 13 -0.2 1.5
2 0 13 0.3 1.5
-2 0 -13 -0.3 1.5
-2 -1 13 220.58 10.5
2 1 13 211.68 10.3
-2 1 -13 213.98 10.7
2 -1 13 202.28 10.3
-2 1 13 224.98 10.9
-2 1 13 240.98 11.6
-2 -1 -13 208.68 12.9
-2 -2 13 44.6 5.9
2 2 13 37.9 4.5
-2 2 -13 42.7 5.9
-2 2 13 42 4.9
2 -2 13 47.3 5.2
-2 -2 -13 42.7 6
-2 2 13 38 5.8
-2 -3 13 40.1 4.6
-2 3 -13 41.4 5.8
2 3 13 42.9 4.8
2 3 13 45.3 5.2
-2 -3 -13 47.8 5.3
-2 3 13 40.5 6.2
-2 3 13 44.6 5.3
2 3 -13 39.1 4.5
2 -3 13 47.4 6.5
2 4 13 1081.89 26.5
-2 -4 13 1063.59 24.6
-2 4 -13 1065.89 25.4
2 4 13 1055.89 23.7
2 -4 13 1046.3 26
2 4 -13 990.4 22.4
-2 -4 -13 1051.99 25.9
-2 4 13 1052.59 27.9
-2 4 13 1032 25.6
-2 -5 13 1045.2 24.8
-2 5 -13 1083.59 26
2 5 13 1084.49 27.7
2 5 13 1090.69 24.1
-2 -5 -13 1103.09 27.2
2 -5 13 1060.79 27
2 5 -13 1063.89 22.7
-2 5 13 1035 26.3
-2 5 13 1063.59 29.2
2 -6 -13 65.29 7
-2 6 -13 59.09 6
2 6 13 63.09 7
2 6 13 67.59 5.9
-2 -6 13 61.89 6.2
2 6 -13 64.09 5.2
-2 6 13 69.19 7.7
2 -6 13 64.99 6.8
-2 6 13 54.99 6.2
2 -7 -13 12.3 4
-2 -7 13 22.5 4.8
2 7 13 21.1 4.9
-2 7 -13 21.8 4.6
2 7 13 27.1 4.5
-2 7 13 22 4.8
2 7 -13 17.7 3.3
2 -7 13 20.5 4.8
-2 7 13 21.4 5.8
2 8 13 13.6 4.5
-2 8 -13 16 4
2 8 13 11.1 3.3
2 -8 -13 13.8 4.4
-2 -8 13 7.4 3.3
-2 8 13 16.4 5.4
2 -8 13 12.4 4.1
-2 8 13 15.6 4
2 9 13 19 4.1
-2 -9 13 6.3 3.6
2 9 13 19.3 5.6
-2 9 -13 6.1 2.8
2 9 13 15.1 3.5
2 -9 -13 10.2 3.8
-2 -9 13 12.2 4.5
-2 9 13 16.6 4.3
-2 -9 -13 8.3 3.5
2 -9 13 9.1 3.9
-2 9 13 12.3 4.3
-2 9 13 3.9 4
-2 10 -13 16.9 4.1
2 10 13 22.5 6.3
-2 -10 13 17.4 4.8
-2 -10 13 17.8 7.4
2 10 13 12.4 3.3
-2 -10 -13 29.4 6
-2 10 13 19 5.9
-2 10 13 22.8 5.6
-2 10 13 30.7 7.2
2 11 13 1.1 2
-2 11 -13 2.3 2.4
2 11 13 -3.3 2.5
2 11 13 -1.4 2.2
-2 11 13 -1 3.4
-2 11 13 -1.7 2.6
-2 11 13 4.7 3.1
2 12 13 4.8 2.3
2 12 13 2.3 3.4
2 12 13 3.3 2
-2 12 -13 3.4 2.9
-2 12 13 3.3 4.3
-2 12 13 6.5 4.3
-2 12 13 6.8 3.3
-2 13 -13 186.68 11
2 13 13 200.98 16.9
2 13 13 187.28 6.2
2 13 13 184.78 6.1
-2 13 13 197.58 13.3
-2 13 13 193.68 17.2
-2 13 13 175.98 12.4
2 14 13 45.4 10
-2 14 -13 40.6 5.9
-2 14 13 43.7 7.4
-2 14 13 55.69 11.3
-2 14 13 35.5 7.8
3 0 13 -0.1 1.3
-3 0 -13 -0.8 1.3
-3 0 13 -0.5 1.2
-3 -1 13 2.6 1.9
-3 1 -13 2.6 1.9
3 1 13 2.3 1.9
-3 1 13 1.4 1.8
-3 -1 -13 3.2 2.2
-3 1 13 2.6 2
3 -1 13 3.5 2.4
-3 -2 13 1236.48 26.6
-3 2 -13 1240.68 27.8
3 2 13 1287.47 26.5
3 -2 13 1279.07 28.3
-3 -2 -13 1247.38 27.7
-3 2 13 1286.57 28.6
-3 2 13 1242.98 28.8
-3 3 -13 509.65 17.4
-3 -3 13 482.75 15.9
3 3 13 529.65 16
3 3 13 500.35 16.8
-3 3 13 486.65 17.3
-3 -3 -13 523.35 17.3
-3 3 13 511.15 18.4
3 -3 13 514.15 17.7
3 4 13 95.39 7.7
-3 -4 13 113.29 7.8
-3 4 -13 103.89 7.9
3 4 13 114.19 7.4
3 -4 13 102.29 8.2
-3 -4 -13 114.39 8.2
-3 4 13 123.49 8.8
-3 4 13 112.19 9
-3 5 -13 78.59 7.1
3 5 13 90.59 6.6
3 5 13 93.19 7.8
-3 -5 13 101.49 7.5
-3 -5 -13 86.19 7.3
-3 5 13 83.29 8.2
-3 5 13 97.39 8.1
3 -5 13 82.19 7.6
-3 -6 13 14.2 3.6
3 6 13 21.3 4.8
3 6 13 19.2 3.8
3 -6 -13 17 4.3
-3 6 -13 20.9 4.6
-3 6 13 26.7 6.1
3 -6 13 25.1 5.2
-3 6 13 15.1 4.1
-3 -6 -13 19.9 4.4
3 7 13 13.2 4.1
3 -7 -13 12.6 5.2
-3 7 -13 20 4.6
-3 -7 13 17 3.9
3 -7 13 14.1 4.3
-3 7 13 20.5 5.4
-3 7 13 17.8 4.4
3 -7 13 16.8 8
3 8 13 38.6 7
-3 -8 13 31.1 5.5
3 8 13 42.2 4.6
-3 8 -13 36.7 6.1
-3 8 13 33.2 7.2
3 -8 13 35 6.7
-3 9 -13 3.4 2.8
-3 -9 13 3.4 3
3 9 13 2.2 3.2
3 9 13 6.6 2.3
3 9 13 6.8 2.2
-3 -9 13 9.9 4
-3 9 13 4.1 2.9
-3 9 13 3.6 3.6
-3 9 13 7.9 3.6
-3 -10 13 7.9 4.4
3 10 13 6.3 3.9
3 10 13 9.4 2.4
-3 10 -13 15.8 4.5
3 10 13 9.8 2.6
-3 -10 13 10.8 3.5
-3 10 13 9.3 5
-3 10 13 12.7 4.6
-3 10 13 13.8 4.9
-3 -10 -13 10.5 3.9
-3 11 -13 63.59 7.4
-3 -11 13 85.59 8.3
3 11 13 76.29 4.6
3 11 13 88.09 12.4
3 11 13 78.69 4.4
-3 11 13 88.09 12.8
-3 11 13 75.69 8.8
-3 11 13 73.49 8.6
3 12 13 6.6 4
-3 12 -13 -0.8 2.4
-3 12 13 1.6 3.1
-3 12 13 2 4.2
-3 13 -13 8.8 3.6
3 13 13 16 5
-3 13 13 7.5 4.4
-3 13 13 9.2 5.2
3 14 13 40.6 9.1
-3 14 -13 48.6 7.4
-3 14 13 54.99 11.2
-3 14 13 38.3 7.4
-4 0 -13 0 1.4
-4 0 13 0.8 1.4
4 0 13 2.6 1.9
-4 0 13 2.8 1.8
-4 1 -13 549.65 17.9
-4 -1 13 519.45 16.9
4 1 13 495.65 16.1
-4 -1 -13 529.15 17.3
4 -1 13 478.05 16.5
-4 1 13 526.75 17.8
-4 1 13 529.45 17.7
4 2 13 225.38 10.4
-4 2 -13 218.88 11.3
-4 -2 13 236.48 11
-4 2 13 229.78 12
4 -2 13 217.68 11.4
-4 -2 -13 220.38 11.2
-4 2 13 205.08 11.1
-4 3 -13 -0.4 1.8
4 3 13 -0.6 1.5
4 3 13 5.4 2.4
-4 -3 13 2.4 1.9
4 -3 13 3 2.6
-4 -3 -13 7 2.7
-4 3 13 2.1 2.2
-4 3 13 3.9 2.5
-4 4 -13 185.48 10.8
4 4 13 189.68 9.3
4 4 13 209.08 10.8
-4 -4 13 193.88 10.1
-4 -4 -13 200.48 10.8
-4 4 13 188.18 11.3
4 -4 13 194.98 11.5
-4 4 13 184.78 11.9
4 5 13 339.27 14.6
-4 -5 13 365.96 13.8
4 5 13 309.87 14
-4 5 -13 334.77 14.9
-4 5 13 343.77 15.6
-4 5 13 326.67 16.4
-4 -5 -13 321.87 14
4 -5 13 368.76 16.2
-4 -6 13 437.26 15.4
4 6 13 419.86 13.2
-4 6 -13 403.86 16.8
4 -6 -13 405.86 17.6
4 6 13 420.96 17
-4 -6 -13 442.56 16.8
-4 6 13 451.15 18.3
-4 6 13 433.86 19.8
4 7 13 36.3 3.9
4 7 13 44.2 7
-4 -7 13 32.4 5.4
-4 7 -13 29.4 5.6
-4 7 13 33 6.9
4 -7 13 41.5 9.1
4 -7 13 39 7.7
-4 -7 -13 30.8 5.6
-4 7 13 26.9 5.9
4 8 13 119.89 10.2
-4 8 -13 114.99 9.3
4 8 13 106.09 6.1
-4 -8 13 120.89 8.5
4 8 13 116.49 6.6
-4 8 13 129.09 12
-4 8 13 91.29 8.8
4 9 13 33.3 6.9
-4 9 -13 55.39 7.9
-4 -9 13 28.9 6.9
4 9 13 38.4 3.5
-4 -9 13 45.7 6.3
4 9 13 45.5 3.8
-4 9 13 39.2 7.4
-4 9 13 34.5 7.7
-4 9 13 49.3 8
-4 -10 13 3.2 3.9
-4 10 -13 8.4 3.6
4 10 13 7.5 4.2
4 10 13 4.9 0.9
-4 10 13 1.9 3.8
-4 10 13 5.1 3.6
-4 11 -13 36.8 6.9
4 11 13 28.6 6.8
-4 -11 13 27.9 5.4
-4 11 13 25.1 7.6
-4 11 13 31 6.8
-4 12 -13 15.6 4.7
4 12 13 16.8 6.3
-4 12 13 14.6 5.2
-4 12 13 5.3 5.8
4 13 13 102.29 12.1
-4 13 -13 98.49 9.9
-4 13 13 101.89 15.2
-4 13 13 91.29 14.3
-4 14 -13 33.8 6.6
4 14 13 32 7.2
-4 14 13 36.7 7.7
-4 14 13 40.1 9.5
5 0 13 -1.1 1.9
-5 0 13 -0.3 1.6
-5 0 13 -0.2 1.4
-5 0 -13 -2.6 1
5 1 13 70.99 6.4
-5 -1 13 90.79 7
-5 1 -13 78.79 7.1
-5 -1 -13 89.09 7.3
-5 1 13 80.59 7.1
5 -1 13 80.59 6.9
-5 1 13 78.39 7.1
5 2 13 632.74 17.9
-5 -2 13 630.14 18.7
-5 2 -13 598.84 19.7
-5 -2 -13 584.94 18.6
-5 2 13 583.04 19.7
5 -2 13 607.34 19.7
-5 2 13 597.24 20
-5 3 -13 97.99 8
5 3 13 97.09 6.8
5 3 13 114.99 8.3
-5 -3 13 105.79 7.4
-5 3 13 100.69 8.7
5 -3 13 96.49 8.1
-5 -3 -13 113.49 8.2
-5 3 13 83.69 7.7
-5 4 -13 56.09 6.4
5 4 13 50.79 5
-5 -4 13 57.19 5.7
5 4 13 50.89 5.6
-5 4 13 44.6 7.3
-5 -4 -13 62.59 6.2
5 -4 13 55.89 6.6
-5 -5 13 9.1 3.1
5 5 13 12.2 2.9
-5 5 -13 11.5 3.9
5 5 13 10.7 3.4
-5 5 13 20.5 5.2
-5 -5 -13 11.5 3.5
5 -5 13 7.3 3.3
5 6 13 513.55 18.7
-5 6 -13 530.45 20
5 6 13 509.55 13.6
-5 -6 13 531.05 17
5 -6 13 544.65 21.4
5 -6 13 552.74 23.4
-5 -6 -13 543.75 18.7
-5 6 13 526.15 22.4
-5 7 -13 89.89 8.6
5 7 13 100.89 5.4
5 7 13 110.19 9.2
-5 -7 13 90.59 7.1
5 -7 -13 94.89 8.9
-5 7 13 90.49 10.2
5 -7 13 80.69 9.4
-5 -7 -13 95.29 8
5 8 13 37.9 2.8
5 8 13 29.9 6.2
5 8 13 39.9 2.9
-5 8 -13 39 6.6
-5 -8 13 35.8 5.4
-5 -8 -13 43 6.8
-5 8 13 37.5 7
-5 8 13 36.3 7.6
-5 -9 13 343.97 14.4
-5 -9 13 307.67 17.3
-5 9 -13 349.07 17
5 9 13 327.17 16.9
-5 9 13 362.66 21
-5 9 13 327.87 17.9
5 10 13 1.4 2.9
-5 -10 13 6.2 4
-5 10 -13 7.6 3.7
-5 -10 13 15.3 4.3
-5 10 13 10.8 4.4
-5 11 -13 44.4 7.5
5 11 13 47.5 8.5
-5 -11 13 34.4 6
-5 11 13 23.5 7.2
-5 11 13 37.2 7.9
-5 12 -13 -2.4 2.5
5 12 13 -3.3 3.9
-5 12 13 -0.3 3.3
-5 12 13 -0.4 4
-5 13 -13 1.8 3.8
5 13 13 14.7 6.8
-5 13 13 6.4 5.1
-5 13 13 8 5.1
6 0 13 -1 1.8
-6 0 13 -1.6 1.4
-6 0 -13 2.3 2.3
-6 0 13 0.1 1.6
-6 -1 13 25.6 4.6
-6 -1 13 20.3 4.3
6 1 13 15.3 3.8
-6 1 -13 20.4 4.7
6 -1 13 28.3 5.3
-6 -1 -13 27.7 4.9
-6 1 13 18.5 4.3
-6 -2 13 209.68 10.8
6 2 13 204.08 10.2
-6 2 -13 208.38 11.8
6 -2 13 204.88 11.6
-6 -2 -13 211.28 11.1
-6 2 13 221.58 12.4
-6 3 -13 4.5 2.9
-6 -3 13 9.4 2.9
-6 -3 -13 5 2.5
6 -3 13 19.6 4.7
-6 3 13 14.9 4.2
6 4 13 128.69 8.4
-6 -4 13 115.99 7.9
6 4 13 132.49 7.4
-6 4 -13 134.49 10.1
6 -4 13 130.69 10.1
-6 -4 -13 124.99 8.8
-6 4 13 126.79 10.3
6 5 13 359.86 11.4
-6 -5 13 348.47 13.7
-6 5 -13 347.37 16.3
6 5 13 380.76 15.1
-6 -5 -13 347.57 14.5
-6 5 13 344.97 17.6
6 -5 13 382.56 17.7
6 6 13 121.59 5.7
6 -6 -13 101.19 9.2
6 6 13 126.09 9.2
-6 6 -13 115.09 9.6
-6 -6 13 121.69 8.1
-6 -6 -13 126.69 8.9
6 -6 13 141.59 12.2
6 -6 13 131.59 10.6
-6 6 13 126.19 11.2
6 -7 -13 66.69 7.4
-6 7 -13 63.59 7.5
6 7 13 68.29 7.2
-6 -7 13 59.19 5.8
6 7 13 57.09 2.5
-6 -7 -13 60.49 6.6
6 -7 13 54.89 8.9
-6 7 13 44.9 8.3
6 8 13 11.3 4
-6 -8 13 11.5 3.1
-6 8 -13 10.6 4.1
-6 -8 -13 14 3.8
-6 8 13 9.6 4.5
-6 9 -13 58.99 9
-6 -9 13 46.3 6.3
6 9 13 40.7 7.2
-6 -9 -13 40.4 6.7
-6 9 13 47.2 9.7
-6 9 13 57.29 9.8
-6 -10 13 18.7 5.9
6 10 13 34.4 6.8
-6 -10 13 27 5.1
-6 10 -13 33.8 6.8
-6 10 13 28.9 8.3
-6 10 13 41.9 7.9
-6 11 -13 52.79 9.9
-6 -11 13 70.69 7.3
6 11 13 73.89 10.4
-6 11 13 62.29 11.4
-6 11 13 68.79 10.7
-6 12 -13 50.49 8.6
-6 -12 13 44 7.4
6 12 13 59.79 9.6
-6 12 13 66.79 10.7
-6 12 13 46.9 11.3
-6 13 -13 24.8 5.9
6 13 13 30.8 7.2
-6 13 13 9.2 5.1
-6 13 13 32 9.6
7 0 13 -3 1.5
-7 0 13 1.1 1.8
-7 0 -13 -1.3 1.7
-7 -1 13 11 3.3
7 1 13 13.2 3.9
-7 1 -13 12.1 3.7
-7 -1 13 9.4 3.1
7 -1 13 11.2 3.7
-7 1 13 14.6 3.8
-7 -1 -13 10.6 3.6
-7 -2 13 258.57 12.4
-7 2 -13 264.47 13.7
7 2 13 243.58 11.1
-7 -2 13 268.77 12.4
-7 -2 -13 270.57 12.9
-7 2 13 256.27 13.5
7 -2 13 256.87 13.3
7 3 13 157.28 8.4
-7 3 -13 172.08 11.2
7 3 13 145.49 13.7
-7 -3 13 154.98 9.4
-7 3 13 152.58 11
-7 -3 -13 157.18 9.8
7 -3 13 160.48 11
7 4 13 140.69 10.8
-7 4 -13 141.29 10.7
7 4 13 143.29 7.2
-7 -4 13 147.79 9.1
-7 4 13 122.89 10.4
-7 -4 -13 142.59 9.4
7 -4 13 142.99 12.6
7 5 13 49.4 3.9
7 5 13 59.09 5.9
-7 -5 13 61.99 5.9
-7 5 -13 54.89 7.8
-7 -5 -13 49.8 5.7
7 -5 13 62.99 7.1
7 -5 13 50.29 8.4
-7 5 13 51.59 8.3
-7 6 -13 85.99 8.8
-7 -6 13 60.79 6
7 6 13 85.29 7.3
7 -6 -13 64.49 8.9
7 -6 13 60.89 9.3
7 -6 13 78.19 8.8
-7 -6 -13 78.89 7.2
-7 6 13 77.99 9.2
-7 7 -13 575.54 22.6
-7 -7 13 509.05 17
7 7 13 528.55 19.1
-7 -7 -13 572.64 19.5
-7 7 13 559.14 25
-7 8 -13 88.29 9.3
-7 -8 13 82.99 8.8
7 8 13 67.49 7.5
-7 -8 13 84.89 7.3
-7 -8 -13 82.29 7.8
-7 8 13 92.99 10.9
7 9 13 5.8 3
-7 -9 13 8.9 3.3
-7 9 -13 8.5 4.2
-7 -9 13 10.9 4.3
-7 9 13 12.4 5.9
-7 -9 -13 7.8 3.2
-7 9 13 15.2 5.4
-7 -10 13 11.2 3.4
-7 -10 13 13.1 5
7 10 13 15.2 4.6
-7 10 13 6.4 4.9
-7 10 13 15.7 5.7
-7 11 -13 65.09 9.5
-7 -11 13 77.29 7.2
7 11 13 69.59 9.9
-7 11 13 89.69 12.6
-7 11 13 63.79 12.2
7 12 13 91.99 10.3
-7 -12 13 74.99 8
-7 12 -13 60.79 9.9
-7 12 13 81.69 11.9
-7 12 13 79.69 14
7 13 13 14 5.3
-7 13 -13 6.8 4.7
-7 13 13 7.6 6
-7 13 13 1.4 5.3
8 0 13 2.2 2.4
-8 0 -13 0.7 1.8
-8 0 13 -0.6 1.3
-8 1 -13 96.29 8.4
8 1 13 104.69 7.8
-8 -1 13 111.79 8.3
-8 -1 -13 109.89 8.6
8 -1 13 104.79 8.6
-8 1 13 126.79 9.4
8 2 13 51.49 5.7
-8 -2 13 56.39 6
-8 2 -13 50.19 7.6
-8 -2 -13 52.39 6
8 -2 13 46.6 7.1
-8 2 13 53.69 7.8
8 3 13 559.44 15.4
-8 -3 13 547.15 18.4
8 3 13 564.14 17.3
-8 3 -13 570.34 21.4
-8 -3 13 585.44 18.5
8 -3 13 560.94 21.2
-8 3 13 575.54 21.8
-8 -3 -13 559.64 19
-8 4 -13 101.39 9.4
-8 -4 13 105.29 7.9
8 4 13 115.99 6
8 4 13 99.69 7.8
-8 -4 -13 100.49 8.2
-8 4 13 111.59 10.1
8 -4 13 103.59 9.9
8 -4 13 115.69 10.4
-8 5 -13 137.99 11
8 5 13 159.48 14.1
-8 -5 13 133.19 8.8
-8 5 13 137.89 11.8
8 -5 13 129.19 11
-8 -5 -13 137.39 9.4
8 -6 -13 146.49 11.3
-8 -6 13 158.78 9.5
-8 6 -13 171.18 12.6
8 6 13 160.18 9.8
8 -6 13 156.28 12.8
-8 6 13 147.79 12.7
-8 -6 -13 171.88 10.5
-8 -7 13 195.88 10.4
-8 7 -13 190.58 13.6
8 7 13 186.18 11.1
-8 7 13 195.48 15.2
-8 -7 -13 204.88 11.6
-8 8 -13 178.58 13.3
8 8 13 184.88 11.4
-8 -8 13 203.18 10.4
-8 -8 13 182.78 12.7
-8 8 13 165.18 14.5
-8 -8 -13 186.68 11.4
-8 8 13 191.38 14.7
-8 9 -13 18.8 5.7
-8 -9 13 11.5 4.2
8 9 13 12.5 4.2
-8 -9 13 7.8 3.1
-8 9 13 1.6 4.4
-8 9 13 1.9 3.9
-8 -9 -13 22.7 4.8
-8 -10 13 23.1 5.3
8 10 13 23.8 5.7
-8 10 -13 20.8 6.6
-8 -10 13 27 4.6
-8 10 13 21.1 7.3
-8 10 13 22.4 6.9
-8 -10 -13 26.6 5.6
-8 -11 13 17.1 5.3
8 11 13 27.8 6.1
-8 11 -13 14.4 5.8
-8 -11 13 23.2 4.7
-8 11 13 28.8 9.1
-8 11 13 24.2 7
-8 -12 13 4.5 3.5
-8 12 -13 5.7 4.8
8 12 13 9.8 4.4
-8 12 13 -1.4 4.7
-8 12 13 4.6 4.8
-9 0 -13 5.2 2.8
9 0 13 2.9 2.4
-9 0 13 -1.5 1.4
9 1 13 14.6 3.5
-9 1 -13 8.5 3.4
-9 -1 13 10.6 3.3
-9 1 13 7.2 3
-9 -1 -13 9.3 3.6
9 -1 13 9.9 3.6
-9 2 -13 19.3 5
-9 -2 13 13.4 3.5
9 2 13 10.3 3.3
9 -2 13 15.3 4.4
-9 -2 -13 16.1 4.1
-9 2 13 11.7 4.1
9 3 13 90.79 5.8
-9 -3 13 83.89 7.5
-9 -3 13 80.69 7.1
9 3 13 78.49 6.2
-9 3 -13 89.19 9
9 -3 13 98.29 9.3
-9 3 13 91.99 9
-9 -3 -13 88.49 7.8
9 -3 13 89.59 10.4
9 4 13 47.8 5
-9 -4 13 49.7 6.6
-9 -4 13 47.5 5.4
-9 4 -13 33.5 6.8
9 -4 13 39.8 7.2
9 -4 13 46.1 7.4
-9 -4 -13 37.3 6
-9 4 13 43.5 7.8
9 5 13 6.2 2.9
-9 -5 13 4.1 2.6
-9 5 -13 2 2.9
-9 -5 -13 3.3 2.5
-9 5 13 3.6 3.4
9 -5 13 6.2 3.6
-9 6 -13 2.8 2.8
-9 -6 13 0.2 1.8
-9 -6 -13 -0.5 1.7
9 -6 13 1.6 3
-9 6 13 -0.6 2.8
9 7 13 18.1 4.4
-9 -7 13 21.6 4.3
-9 7 -13 6.3 3.9
-9 7 13 8.3 4.5
-9 -7 -13 17.4 4.1
9 8 13 19.8 4.4
-9 8 -13 19 5.7
-9 -8 13 22.8 4.4
-9 -8 13 20.4 5
-9 -8 -13 16.1 4
-9 8 13 16.3 7
-9 8 13 16.8 5.7
-9 -9 13 21.7 4.8
-9 -9 13 36 6.8
9 9 13 34.6 6.1
-9 9 -13 31.1 7.4
-9 9 13 22.1 7.2
-9 9 13 41 9.4
-9 -9 -13 45.5 6.9
-9 -10 13 13.4 3.5
-9 -10 13 10.2 5.2
9 10 13 4.3 3.6
-9 10 -13 12.3 5
-9 -10 -13 14.2 4.3
-9 10 13 25.7 7.7
-9 10 13 6.9 5.2
-9 -11 13 102.19 8.3
9 11 13 101.79 9.6
-9 -11 13 124.49 11.3
-9 11 -13 130.39 12.8
-9 11 13 114.89 16.2
-9 11 13 136.39 14.1
-10 0 -13 3.4 2.8
-10 0 13 -1.8 1.4
10 0 13 -0.2 2.5
-10 1 -13 8.7 3.9
-10 -1 13 4.1 2.5
10 1 13 10.4 3.2
10 -1 13 4.2 3.4
-10 -1 -13 12.2 3.7
-10 1 13 8.9 3.2
10 -1 13 7.9 3.6
10 2 13 31.6 4.8
10 2 13 42.4 4.7
-10 2 -13 39.1 7.1
-10 -2 13 48.1 5.5
-10 2 13 34.4 6.3
-10 -2 -13 34.9 6.2
10 -2 13 45.5 7
10 -2 13 31.7 6.3
10 3 13 13 3.3
-10 3 -13 13.3 4.6
-10 -3 13 13.8 3.5
10 -3 13 1.7 2.8
10 -3 13 14 4.6
-10 -3 -13 13.6 4
-10 3 13 11.8 4
-10 -4 13 71.59 6.6
-10 -4 13 70.79 6.9
-10 4 -13 79.29 9.1
10 4 13 65.49 5.7
-10 -4 -13 70.29 7.3
10 -4 13 70.89 9.5
10 -4 13 75.29 10.2
-10 4 13 55.19 8.9
-10 5 -13 41 7.9
-10 -5 13 46 5.3
10 5 13 41.8 4.9
-10 -5 13 52.99 5.8
-10 5 13 43.6 8.1
-10 -5 -13 31.8 5.9
10 -5 13 54.29 8.8
-10 -6 13 6.6 2.7
10 6 13 7.1 2.8
-10 -6 -13 7.1 2.8
-10 6 13 7 4.2
10 7 13 -0.8 1.8
-10 -7 13 6.1 3
-10 -7 13 5.3 3.3
-10 7 -13 2.1 3.4
-10 7 13 7.8 4.7
-10 -7 -13 8.6 3.2
-10 -8 13 85.19 7.5
-10 -8 13 80.49 8.3
-10 8 -13 84.59 11.9
10 8 13 83.39 7.9
-10 8 13 65.29 11
-10 -8 -13 82.09 7.9
-10 8 13 90.99 13.1
-10 -9 13 57.99 6
-10 -9 13 37.3 6.4
10 9 13 54.99 7.3
-10 9 -13 41.6 8.4
-10 9 13 58.19 11.2
-10 -9 -13 69.39 8.8
-10 9 13 57.99 10.7
-10 10 -13 139.39 13.7
-10 -10 13 132.69 10.4
-10 -10 13 132.09 11.1
10 10 13 146.49 10.2
-10 10 13 136.39 13.9
-10 10 13 148.79 15.7
-10 -10 -13 153.58 11.2
-10 -11 13 8.2 4.1
-10 -11 13 2.4 4.1
-10 11 -13 9.1 5.5
10 11 13 3.4 4
-10 11 13 9 6.9
-10 11 13 15.2 6.3
11 0 13 -1.4 2.3
-11 0 -13 0.4 2.7
-11 0 13 -0.8 1.7
11 0 13 1.3 2.1
-11 1 -13 3 2.7
-11 -1 13 4.2 2.4
11 1 13 5.2 3.9
11 -1 13 2.1 2.3
-11 -1 -13 2.8 3.1
-11 1 13 8.2 3.4
11 -1 13 0.9 3.3
11 2 13 71.39 5.9
-11 -2 13 69.49 6.7
-11 2 -13 76.99 8.9
-11 2 13 74.89 8.2
11 -2 13 62.19 8.5
11 -2 13 72.29 9.2
-11 -2 -13 66.79 8.8
-11 3 -13 37.7 7.2
11 3 13 35.3 4.7
-11 -3 13 34.6 5.4
11 -3 13 36.5 7
11 -3 13 31 7
-11 -3 -13 50.79 7.4
-11 3 13 43 7.8
-11 4 -13 5.7 4.2
-11 -4 13 11.8 3.5
11 4 13 10.5 2.5
11 -4 13 10.3 4.8
11 -4 13 19.7 6.3
-11 -4 -13 13.1 3.9
-11 4 13 8.9 4.3
-11 -5 13 11.2 3.2
-11 -5 13 12.9 3.4
-11 5 -13 3.8 3.7
11 5 13 5.2 2.3
11 -5 13 5.1 4.3
-11 5 13 2.9 3.7
-11 -5 -13 -0.1 2.3
11 6 13 35.5 4.8
-11 -6 13 31.3 4.8
-11 -6 13 30.1 5.4
-11 6 -13 23.2 6.5
-11 6 13 21.3 6.5
-11 -6 -13 30.4 5.8
11 7 13 2.3 1.9
-11 -7 13 5 2.1
-11 -7 13 -4.6 2.5
-11 -7 13 9.1 2.9
-11 7 -13 10.3 4.9
-11 -7 -13 -0.6 2.5
-11 7 13 0.7 3.9
-11 -8 13 82.49 7.9
-11 8 -13 81.99 12.3
11 8 13 76.59 6.5
-11 -8 13 84.59 7.6
-11 8 13 78.69 12.8
-11 8 13 67.79 11.7
-11 -8 -13 76.29 7.8
-11 9 -13 0.3 3.8
11 9 13 -3.5 1.7
-11 -9 13 -6.2 3.1
-11 -9 13 7.4 3.6
-11 -9 -13 3.5 3.3
-11 9 13 1.8 4.1
-11 9 13 -4.3 3.3
-11 -10 13 17.6 5
-11 -10 13 18 4.7
-11 10 -13 23.8 6.6
-11 10 13 5.9 5.2
-11 10 13 12.7 6.4
-11 -10 -13 18.9 4.6
-12 0 -13 5.3 3.8
-12 0 13 -0.6 2.2
12 0 13 -0.5 2.4
12 1 13 167.78 10.1
-12 1 -13 187.78 13.6
-12 -1 13 167.28 10.7
-12 1 13 178.18 11.8
-12 -1 -13 192.68 13.2
12 -1 13 177.88 11.6
12 -1 13 163.38 11
-12 -2 13 46 6.3
12 2 13 46.9 4.7
-12 2 -13 38 7.4
12 -2 13 55.89 7.9
12 -2 13 48.9 7.8
-12 -2 -13 49.8 8
-12 2 13 50.39 8
-12 -3 13 46.4 6.2
12 3 13 49 4.6
12 3 13 50.79 5.3
-12 3 -13 40.1 9
12 -3 13 42.4 7.5
-12 -3 -13 41 7.1
12 -3 13 30.8 6.4
-12 3 13 56.59 8.7
-12 -4 13 20.6 4.1
12 4 13 20.2 3.4
-12 4 -13 13 5.7
-12 -4 -13 38.2 6.7
12 -4 13 43.8 8
-12 4 13 27.1 6.9
12 5 13 0.9 1.5
-12 -5 13 4.1 3.6
-12 -5 13 2.4 2.3
-12 5 -13 5.3 3.8
-12 -5 -13 9.8 3.8
-12 5 13 18.8 5.6
-12 -6 13 104.19 8.9
12 6 13 120.69 6.2
-12 -6 13 123.79 8.6
-12 6 -13 126.79 12.6
-12 -6 13 116.99 9.6
-12 -6 -13 132.69 10.4
-12 6 13 105.29 14.4
-12 6 13 106.99 12.1
12 7 13 45.8 4.1
-12 7 -13 55.19 9.8
-12 -7 13 55.09 6.4
-12 -7 13 45.2 6.1
-12 -7 13 43.6 5.1
-12 -7 -13 46.7 7.3
-12 7 13 40 9.2
-12 7 13 63.19 11
12 8 13 103.89 5.7
-12 -8 13 107.89 7.5
-12 -8 13 98.89 8.3
-12 8 -13 110.09 14.8
-12 -8 13 116.59 9.1
-12 -8 -13 105.69 9.6
-12 8 13 124.39 14.1
-12 8 13 128.59 13.9
12 9 13 5.6 2.2
-12 -9 13 8.6 4
-12 -9 13 6.7 3.8
-12 -9 13 16.9 3.6
-12 9 13 10.6 5.9
-12 9 13 11.6 5.6
-12 -9 -13 7.6 3.6
-13 0 -13 7.4 4.2
13 0 13 0.2 2.9
-13 0 13 -4 2
13 1 13 15.7 3.2
13 1 13 11.3 3.4
-13 -1 13 10.3 3.4
-13 1 -13 5.2 4.6
-13 -1 -13 6.2 4.2
-13 1 13 4.5 3.4
13 -1 13 9.1 4
13 2 13 82.19 5.5
-13 -2 13 69.09 7
-13 2 -13 68.19 10.4
13 2 13 74.89 6
-13 2 13 74.99 8.7
13 -2 13 75.39 8.1
-13 -2 -13 74.19 8.5
13 3 13 -0.6 1.7
13 3 13 0.8 1.4
-13 -3 13 1.1 2
-13 3 -13 -0.5 3.5
-13 3 13 -2 2.6
13 -3 13 3.3 4
-13 -3 -13 -1.6 2.6
13 4 13 118.49 5.2
13 4 13 123.59 5.2
-13 4 -13 150.28 13.1
-13 -4 13 136.19 8.9
-13 -4 -13 133.09 10.8
-13 4 13 128.79 12
13 -4 13 127.59 11.9
-13 -5 13 0.6 1.8
-13 5 -13 5.4 4.2
-13 5 13 5.4 4
-13 -5 -13 2.5 2.8
-13 -6 13 73.39 7.5
-13 6 -13 63.59 10.8
-13 -6 13 59.89 5.2
-13 6 13 68.89 12.3
-13 -6 -13 60.79 8.4
-13 6 13 50.69 9.9
-13 -7 13 13.2 4.3
-13 -7 13 13.9 3
-13 7 -13 3 4.2
-13 7 13 14.1 5.7
-13 7 13 15.7 6.1
-13 -7 -13 16.8 5.1
14 0 13 -2.2 2.6
-14 0 -13 -2.7 2.5
-14 0 13 1.4 2.2
-14 -1 13 64.59 7
14 1 13 65.29 5.1
-14 1 -13 75.09 10.8
14 1 13 63.89 6.1
14 -1 13 51.99 7.4
-14 1 13 54.59 7.8
-14 -2 13 8.1 3
14 2 13 2.2 2
14 2 13 3.6 1.7
-14 2 -13 4 4.1
-14 -2 -13 7.4 4.3
-14 2 13 3.9 3.6
14 -2 13 3.9 4.3
-14 -3 13 45.8 4.9
-14 3 -13 36.6 8
-14 -3 -13 47.1 8
-14 3 13 36.7 7.5
-14 4 -13 3.4 3.6
-14 -4 13 -0.4 1.6
-14 4 13 3.2 3.9
14 -4 13 -6.1 4.5
-14 -4 -13 1.2 3.5
-14 -5 13 2 1.7
-14 5 -13 8.2 4.6
-14 -5 13 0.8 2.2
-14 -5 -13 1 3.5
-14 5 13 2 5.2
-14 5 13 -1.1 3.6
-14 6 -13 27.4 7.5
-14 -6 13 20.2 3.1
-14 -6 13 17.3 2.6
-14 6 13 12.7 5.9
-14 -6 -13 20.1 5.5
-14 6 13 25.2 7.7
15 0 13 1.2 1.8
-15 0 -13 6.5 4.3
-15 0 13 -1.4 2.2
15 1 13 1.9 2
-15 1 -13 7.1 4.7
-15 -1 13 -2.5 2.3
15 1 13 2.4 1.6
-15 1 13 8 3.5
-15 -1 -13 3.8 3.5
15 -1 13 3.1 3.7
-15 -2 13 34.5 4.7
-15 2 -13 21.7 7
15 -2 13 33.2 7
-15 -2 -13 48.6 8.6
-15 2 13 36.5 6.7
-15 3 -13 17.9 6.1
-15 -3 13 10.7 2.6
-15 -3 -13 17.2 5.5
-15 3 13 20 5.8
-15 3 13 22.6 7.2
0 0 14 28.1 4.9
0 0 -14 42 5.8
0 -1 14 -1.4 1.1
0 -1 -14 -0.8 1.4
0 1 14 -0.4 1.3
0 1 -14 0.9 1.3
0 2 14 298.17 12.7
0 -2 14 298.67 12.8
0 2 -14 310.77 13
0 -2 -14 283.67 13.2
0 2 14 273.67 12.8
0 3 14 1 1.7
0 3 14 -1.1 1.4
0 -3 14 -0.3 1.2
0 3 -14 1 1.6
0 4 14 128.99 8.7
0 4 14 135.39 9.7
0 -4 14 149.69 9.4
0 4 -14 145.09 8.9
0 -5 14 1.9 2
0 5 -14 0 1.7
0 5 14 0.2 1.9
0 5 14 1.2 1.7
0 -6 14 1 2.3
0 6 14 7.7 3.3
0 6 -14 4.3 2.5
0 6 14 2.3 2.5
0 -7 14 1.4 2.3
0 7 -14 -2 1.5
0 7 14 -1.4 1.8
0 7 14 -0.4 2.2
0 -8 14 1055.69 29
0 8 14 1107.29 27.4
0 8 14 1099.59 33.4
0 8 -14 1077.39 25.3
0 9 14 0.1 2.2
0 -9 -14 -1.5 2.3
0 9 -14 -2.9 1.5
0 -9 14 -1.5 2
0 -9 14 3 3.1
0 9 14 1.6 2.5
0 10 -14 360.86 13.9
0 10 14 368.86 20.7
0 10 14 379.56 16.3
0 10 14 359.36 15.5
0 11 14 2.9 2.7
0 11 14 2.4 3.8
0 11 14 -0.3 3
0 11 -14 -3 1.7
0 12 14 203.98 16.9
0 12 14 195.28 11.9
0 12 -14 193.58 9.4
0 12 14 186.18 11.3
0 13 14 -0.5 4.3
0 13 -14 -3.3 1.7
0 13 14 3 3.1
0 14 14 42 10.4
0 14 14 29.1 5.7
0 14 14 36.8 5.8
-1 0 -14 302.67 13.2
-1 0 14 283.27 12.5
1 0 14 313.97 13
1 0 -14 284.97 12.8
-1 1 -14 2.3 1.7
1 1 14 -1.7 1.5
-1 -1 14 1.4 1.7
-1 1 14 3.2 2
1 -1 14 -0.4 1.4
1 1 -14 -0.6 1.7
-1 -1 -14 3.8 2.3
-1 2 -14 444.96 15.9
1 2 14 436.96 16.2
1 2 14 436.06 15.5
-1 -2 14 452.15 15.9
-1 2 14 460.35 16.2
1 2 -14 447.16 18.8
1 -2 14 466.15 16.4
-1 2 14 457.55 16.9
-1 -2 -14 474.45 16.9
-1 3 -14 323.97 13.5
-1 -3 14 308.07 13.1
1 3 14 354.86 14.9
1 3 14 334.87 13.5
-1 3 14 338.47 15
-1 -3 -14 326.77 14.3
1 -3 14 293.57 13.2
-1 3 14 330.27 13.8
-1 -4 14 88.79 7.2
-1 4 -14 83.49 7
1 4 14 80.69 6.7
1 4 14 81.69 7.5
-1 4 14 85.19 7.9
-1 -4 -14 79.09 7.4
-1 4 14 74.39 6.8
1 -4 14 79.69 7.1
-1 5 -14 146.09 9.1
-1 -5 14 135.89 9
1 5 14 136.69 10.1
1 5 14 137.39 8.8
1 -5 14 133.49 9.2
-1 5 14 131.69 10.1
-1 5 14 131.69 9
-1 6 -14 8.5 2.9
-1 -6 14 5.4 2.7
1 6 14 5.5 2.9
1 6 14 7.4 3.3
-1 6 14 11.3 3.5
1 -6 14 1.2 2.2
-1 6 14 9.2 3.6
1 7 14 81.39 7
-1 -7 14 89.59 7.7
1 7 14 88.39 9
-1 7 -14 89.29 7.3
-1 7 14 99.29 9.7
-1 7 14 98.19 8.1
1 8 14 67.49 6.6
1 8 14 52.89 8.2
1 -8 -14 47.6 7.5
-1 8 -14 68.09 6.6
1 -8 14 55.69 8
1 -8 14 65.19 9.9
-1 8 14 58.89 6.4
-1 8 14 63.69 9.6
1 9 14 2.4 2.4
-1 -9 14 5.1 3.8
1 9 14 3.6 2.4
-1 -9 14 -2.7 2.1
-1 9 -14 4.5 2.4
1 9 14 -1.5 2.6
-1 9 14 -0.6 2.3
-1 9 14 0.7 2.5
-1 -9 -14 2 2.7
1 -9 14 8.5 3.6
1 9 -14 1.7 2
1 10 14 302.57 14
1 10 14 309.97 18.9
-1 10 -14 295.77 13.5
1 10 14 313.57 13.5
1 10 -14 292.87 11.3
-1 10 14 315.17 15.1
-1 10 14 275.07 18.3
-1 10 14 296.07 15.4
1 11 14 83.79 7.4
1 11 14 84.69 7.7
-1 11 -14 77.19 7
1 11 14 72.79 11.5
1 11 -14 88.79 5.8
-1 11 14 96.49 9.1
1 12 14 65.99 11.3
1 12 14 52.29 6.2
1 12 14 49.9 5.8
-1 12 -14 58.79 6.2
-1 12 14 41.9 7
-1 12 14 61.89 11.2
-1 13 -14 158.28 9.3
1 13 14 157.68 15.4
1 13 14 167.38 9.4
1 13 14 158.28 9.2
-1 13 14 180.88 17.2
-1 13 14 178.68 17.2
-1 13 14 136.59 10.7
1 14 14 56.39 11.5
1 14 14 35 4.6
-1 14 -14 40.7 5.4
-1 14 14 27.3 5.7
-1 14 14 43.8 10.7
2 0 14 235.88 11.4
-2 0 -14 243.88 11.9
-2 0 14 250.77 11.8
-2 1 -14 1278.87 28.8
2 1 14 1312.77 28.2
-2 -1 14 1313.17 28.4
-2 -1 -14 1331.47 29.3
-2 1 14 1264.67 28.4
-2 1 14 1330.67 29.9
2 -1 14 1322.57 28.8
2 2 14 96.89 7.2
-2 2 -14 109.19 8
-2 -2 14 104.79 7.8
-2 2 14 106.99 8.3
2 -2 14 115.19 8.2
-2 -2 -14 120.79 8.5
-2 2 14 103.29 7.9
2 3 14 94.69 7.2
-2 -3 14 92.39 7.2
2 3 14 93.79 7.6
-2 3 -14 83.59 7
-2 3 14 85.09 7.2
-2 -3 -14 77.29 7
2 -3 14 82.49 7.2
-2 3 14 79.09 7.5
2 3 -14 86.49 6.6
2 4 14 64.39 5.9
-2 4 -14 53.69 5.9
-2 -4 14 52.09 5.6
2 4 14 54.19 6.2
2 -4 14 66.29 6.7
-2 4 14 65.19 7
-2 4 14 72.49 6.9
2 4 -14 67.89 6
-2 -4 -14 61.69 6.3
-2 5 -14 0.4 1.9
2 5 14 -2 1.5
-2 -5 14 0.8 1.9
2 5 14 -1.7 1.8
2 5 -14 -0.7 1.3
-2 5 14 -0.6 1.6
2 -5 14 -1.1 2
-2 5 14 1.8 2.1
-2 -5 -14 -0.8 1.6
2 6 14 11.7 3.8
-2 -6 14 23.9 4.8
-2 6 -14 13.1 4
2 6 14 15.2 3.8
2 6 -14 18.6 3.7
2 -6 14 12.5 3.9
-2 6 14 24.8 5.2
-2 6 14 13.6 4.6
2 -7 -14 5.9 3.1
2 7 14 4 2.8
2 7 14 5.8 2.7
-2 7 -14 4 2.6
-2 -7 14 2.8 2.3
-2 7 14 10.5 4.5
-2 7 14 2.9 2.3
2 7 -14 1.7 1.7
2 -7 14 4.6 2.7
2 8 14 376.96 14
2 8 14 347.87 17.9
-2 8 -14 377.26 15.8
-2 -8 14 367.06 15.7
2 -8 -14 349.57 17.4
2 -8 14 386.76 17.7
-2 8 14 388.36 20.2
-2 8 14 352.46 16
2 9 14 130.09 8.3
-2 9 -14 120.09 9.1
-2 -9 14 113.09 9.4
2 9 14 147.99 9.1
-2 -9 14 139.49 12.5
2 9 14 151.48 12.6
-2 9 14 121.59 12.3
-2 9 14 137.69 10.2
-2 10 -14 449.36 17.6
-2 -10 14 425.16 18.3
2 10 14 460.95 22.5
2 10 14 436.86 14.9
2 10 14 443.06 15.7
-2 10 14 455.25 20
-2 10 14 436.66 18.7
-2 10 14 454.65 23.8
2 11 14 -0.9 2.3
-2 11 -14 2.5 2.8
2 11 14 -1.3 1.9
2 11 14 -4.4 2.8
-2 11 14 -3.4 2.8
-2 11 14 4.4 3.4
-2 11 14 2.7 2.7
2 12 14 25.1 5.4
2 12 14 24.7 3.8
-2 12 -14 21.6 4.9
2 12 14 16.6 6.6
-2 12 14 12.1 4.8
-2 12 14 13.9 6.5
-2 12 14 27.3 5.9
2 13 14 -0.1 1.8
2 13 14 1.2 1.7
2 13 14 -4.1 4.3
-2 13 -14 1.6 2.8
-2 13 14 -0.7 2.8
-2 13 14 2.3 4.3
-2 14 -14 0.5 2.8
2 14 14 5 4.9
-2 14 14 1.9 4.8
-2 14 14 7.4 4.1
3 0 14 796.02 21.6
-3 0 14 790.92 21.8
-3 0 -14 777.32 22
-3 -1 14 146.49 9.1
-3 1 -14 163.08 9.9
3 1 14 166.48 9.4
3 -1 14 157.88 9.5
-3 1 14 153.48 9.5
-3 1 14 162.48 10.1
-3 -1 -14 164.78 10
-3 -2 14 6.2 2.7
3 2 14 4.3 2.5
-3 2 -14 4.4 2.4
-3 2 14 0.7 1.9
-3 2 14 -0.7 1.8
3 -2 14 2.9 2.2
-3 -2 -14 3.1 2.4
3 3 14 479.85 15.9
-3 -3 14 482.75 16.5
-3 3 -14 504.85 17.7
3 3 14 480.45 17.1
-3 3 14 483.75 17.6
-3 3 14 485.15 18.5
-3 -3 -14 478.25 17.3
3 -3 14 483.45 17.6
-3 -4 14 362.16 14.1
-3 4 -14 369.06 15.3
3 4 14 340.57 14.8
3 4 14 344.17 13.3
3 -4 14 364.66 15.7
-3 -4 -14 357.56 15.2
-3 4 14 340.57 15.1
-3 4 14 359.36 16.7
3 5 14 101.49 7.1
-3 5 -14 81.59 7.5
3 5 14 87.59 7.9
-3 -5 14 82.19 6.8
-3 5 14 89.49 8.6
-3 5 14 94.69 8.2
3 -5 14 81.39 7.8
-3 -5 -14 81.69 7.4
-3 -6 14 771.82 21.8
3 6 14 750.32 24
-3 6 -14 762.82 23
3 6 14 725.13 19.3
-3 6 14 742.73 26.2
-3 6 14 715.63 23.3
-3 -6 -14 735.93 23
3 -6 14 749.73 29
3 7 14 4.1 2.5
3 7 14 -2.2 1.5
-3 7 -14 1.9 2.3
3 -7 14 0.8 2.3
-3 7 14 1.2 2.5
-3 -8 14 -1.9 1.8
3 8 14 1.2 1.9
-3 8 -14 -0.6 1.9
3 8 14 -2.7 1.5
-3 8 14 -0.4 2.4
-3 8 14 -2.3 2.1
3 -8 14 0.7 3.2
3 9 14 6.5 2.5
-3 9 -14 7.4 3.4
3 9 14 5.4 3.4
-3 -9 14 0.8 2.6
-3 -9 14 9.3 4.4
-3 9 14 4.3 3.4
-3 9 14 10.8 4.8
3 10 14 0 1.9
3 10 14 1.8 1.9
3 10 14 -0.3 3
-3 -10 14 3 2.9
-3 10 -14 1 2.8
-3 10 14 2.9 2.8
-3 10 14 -0.8 3.1
-3 10 14 -1 3
-3 11 -14 39.4 6.7
3 11 14 37 8
3 11 14 34.2 3.8
3 11 14 45.9 4.2
-3 11 14 24.3 7.2
-3 11 14 45.5 8
-3 12 -14 74.99 7.9
3 12 14 67.29 2.4
-3 12 14 84.29 9.5
-3 12 14 64.59 12.1
3 13 14 12 6.4
-3 13 -14 4.6 3.5
-3 13 14 5.5 5.3
-3 13 14 2 3.8
3 14 14 1.7 4.4
-3 14 -14 12.8 4.1
-3 14 14 2.2 5.4
-3 14 14 8.1 5
-4 0 14 72.79 6.7
-4 0 -14 70.49 6.7
4 0 14 67.09 6.4
-4 0 14 82.59 7
-4 1 -14 742.43 21.8
4 1 14 742.23 20.6
-4 -1 14 732.73 21
-4 -1 -14 718.33 21.2
-4 1 14 730.93 21.9
-4 1 14 746.53 21.9
4 -1 14 713.83 21.1
-4 2 -14 150.28 9.8
4 2 14 180.98 9.7
-4 -2 14 170.98 9.8
-4 -2 -14 167.08 10
-4 2 14 194.28 11.4
4 -2 14 166.38 10.2
-4 2 14 172.08 10.5
-4 -3 14 615.84 18.8
-4 3 -14 581.24 19.7
4 3 14 569.24 18.6
4 3 14 612.44 17.9
-4 3 14 580.04 20
-4 -3 -14 588.14 19.3
-4 3 14 584.54 20.7
4 -3 14 601.84 20.2
-4 -4 14 -1 1.4
4 4 14 0.5 1.8
-4 4 -14 -0.4 1.6
4 4 14 -0.1 1.6
4 -4 14 1.5 2
-4 -4 -14 -1.3 1.5
-4 4 14 -0.2 1.8
-4 4 14 -2.7 1
-4 5 -14 100.89 8.5
4 5 14 101.49 8.3
-4 -5 14 99.49 7.4
4 5 14 94.89 6.8
-4 5 14 92.29 9.2
-4 5 14 84.09 8.1
-4 -5 -14 105.89 8.3
4 -5 14 99.19 10.1
4 6 14 80.59 7.7
4 6 14 93.69 6.5
-4 -6 14 91.29 7.5
-4 6 -14 91.79 8.4
-4 -6 -14 78.59 7.5
-4 6 14 82.89 9.2
-4 6 14 84.39 8.3
-4 -7 14 -1.1 1.7
-4 7 -14 0.7 2.1
4 7 14 2.8 1.9
4 7 14 1.8 2.1
-4 7 14 -2.2 1.6
4 -7 14 -0.2 3
-4 -7 -14 -0.9 2.1
-4 7 14 1 2.7
-4 8 -14 23.1 5.4
-4 -8 14 22.3 4.6
4 8 14 11.2 4.1
4 8 14 24.1 3.5
-4 8 14 18 6
-4 8 14 15.4 4.8
-4 9 -14 9.2 4.1
-4 -9 14 12.6 5.3
4 9 14 11.2 4.6
4 9 14 11.8 2.6
4 9 14 10.8 2.6
-4 9 14 16.4 5.6
-4 10 -14 93.69 8.9
4 10 14 90.49 4.4
4 10 14 86.99 4.5
4 10 14 94.19 10.4
-4 -10 14 90.09 8.2
-4 10 14 81.79 9.6
4 11 14 14.3 5.8
-4 11 -14 17.1 4.8
-4 11 14 13.3 6.4
-4 11 14 19.8 5.4
4 12 14 32 7.5
-4 12 -14 40.6 7.3
-4 12 14 30.9 8.5
-4 12 14 30.8 8.1
4 13 14 2.6 4.5
-4 13 -14 2.9 3.3
-4 13 14 -1.9 4
-4 13 14 13.8 4.9
-5 0 14 2.6 2
5 0 14 0.7 2
-5 0 14 -0.3 1.4
-5 0 -14 0.4 1.7
-5 1 -14 418.26 16.5
-5 -1 14 421.66 15.9
5 1 14 431.96 15.7
-5 1 14 433.36 16.8
-5 1 14 407.56 16.4
-5 -1 -14 398.46 15.8
5 -1 14 416.36 16.2
-5 -2 14 7.8 2.9
5 2 14 13 3.6
-5 2 -14 10.3 3.8
-5 -2 -14 9.1 3.3
-5 2 14 8.2 3.5
5 -2 14 5 3.1
-5 2 14 8.2 3.5
-5 -3 14 307.47 13.4
5 3 14 312.27 13.5
5 3 14 311.37 12.5
-5 3 -14 331.67 15.1
-5 3 14 315.47 15
-5 3 14 296.37 15
-5 -3 -14 326.57 14.3
5 -3 14 319.17 15
-5 -4 14 424.06 15.6
5 4 14 424.06 14.3
5 4 14 409.36 15.8
-5 4 -14 411.06 17.2
5 -4 14 423.56 17.9
-5 4 14 405.76 18.3
-5 -4 -14 443.66 16.8
-5 4 14 403.66 17.7
-5 -5 14 54.39 6
5 5 14 56.29 6.4
-5 5 -14 55.29 7.8
-5 -5 -14 63.49 6.5
-5 5 14 54.79 8.8
-5 5 14 70.09 7.5
5 -5 14 69.39 7.8
5 6 14 613.64 21.1
-5 6 -14 648.04 22.5
-5 -6 14 617.24 19.1
5 6 14 666.53 16.7
-5 6 14 672.93 25.8
-5 -6 -14 612.84 20.7
-5 6 14 607.04 22.6
-5 -7 14 19.7 4.1
-5 7 -14 16.7 4.6
5 -7 -14 18.9 5.1
5 7 14 18.2 4.9
5 7 14 11.4 2.6
5 -7 14 13.3 4.8
-5 -7 -14 20.3 4.7
-5 7 14 12.7 4.7
-5 7 14 17.7 5.6
5 8 14 73.59 4.7
-5 8 -14 69.09 9.3
5 8 14 80.29 8.3
-5 -8 14 74.19 7.1
5 8 14 79.09 4.7
-5 -8 -14 72.79 7.8
-5 8 14 73.19 11
-5 9 -14 176.98 12.6
5 9 14 193.58 13.4
-5 -9 14 164.08 11.5
-5 -9 14 198.28 14.2
-5 9 14 158.78 14.5
5 10 14 5 3.3
-5 10 -14 -0.4 2.3
-5 -10 14 2.8 2.4
-5 10 14 3 4
-5 10 14 3.4 3.8
-5 -11 14 76.29 8.3
-5 11 -14 77.89 8.7
5 11 14 92.49 10.4
-5 11 14 101.59 14.9
5 12 14 231.48 16.7
-5 12 14 255.47 20.9
-5 12 14 238.68 16.7
5 13 14 48.5 9.6
-5 13 -14 44.7 8
-5 13 14 51.49 8.9
-5 13 14 27.2 8.4
6 0 14 51.19 5.9
-6 0 14 44.4 6.4
-6 0 14 70.79 6.9
-6 0 -14 48 6.7
6 1 14 732.43 20.9
-6 -1 14 697.93 21.4
-6 1 -14 704.43 22.3
-6 -1 14 696.73 21.2
-6 1 14 724.43 22.5
-6 1 14 762.62 23.3
6 -1 14 725.33 22.1
-6 -1 -14 734.83 22.2
-6 2 -14 0.5 1.8
6 2 14 -2.2 1.7
-6 -2 14 5.4 2.8
-6 2 14 4.1 2.7
-6 2 14 1.6 2.4
-6 -2 -14 3.4 2.4
6 -2 14 0.6 2.6
6 3 14 8.4 2.8
-6 -3 14 7.1 3.3
6 3 14 15.6 3.7
-6 3 -14 11.4 3.8
-6 -3 -14 7.9 3.2
6 -3 14 7 3.1
-6 3 14 3.3 2.6
-6 -4 14 82.99 7.2
6 4 14 77.29 7
-6 4 -14 85.19 8.2
-6 -4 -14 81.79 7.3
-6 4 14 94.99 9.3
-6 -5 14 15.4 4.3
6 5 14 22.2 3.8
-6 5 -14 21.7 5.3
6 5 14 28.6 5.2
6 -5 14 18.6 5
-6 5 14 27.3 6.6
-6 -5 -14 22.5 5
-6 6 -14 5.2 3.2
-6 -6 14 8 2.8
6 6 14 5.8 2.9
6 6 14 8 2.4
6 -6 14 6.4 3.7
-6 6 14 6.1 4
6 -6 14 6.3 4.3
-6 -6 -14 6.5 3
6 7 14 2.1 1.2
6 7 14 3.2 2.4
-6 7 -14 -1.8 2.1
-6 -7 14 -0.6 2.3
-6 7 14 2.4 2.7
-6 -7 -14 -0.4 1.8
-6 8 -14 85.69 9.1
-6 -8 14 105.89 8.1
6 8 14 82.59 8.6
-6 8 14 85.19 11.9
-6 -8 -14 97.99 8.8
6 9 14 91.29 9.2
-6 -9 14 105.79 10.5
-6 -9 14 94.79 7.9
-6 9 -14 88.79 9.3
-6 9 14 89.99 10
-6 -9 -14 125.79 10.1
-6 9 14 89.69 13.9
-6 -10 14 31 5.3
6 10 14 35.2 6.9
-6 10 -14 40 7.7
-6 -10 14 24.4 6.4
-6 10 14 41.2 9.6
-6 11 -14 -2.9 2.8
6 11 14 -1.3 3
-6 -11 14 -3.7 2.4
-6 11 14 4.4 4.2
-6 11 14 -0.9 3.4
6 12 14 81.89 11.8
-6 12 -14 65.99 10.1
-6 12 14 76.59 11.4
-6 12 14 77.79 13.5
6 13 14 0.7 4.1
-6 13 -14 4.1 3.7
-6 13 14 6 4.1
-6 13 14 -7.3 4.7
7 0 14 2.1 2.4
-7 0 14 2.6 2.3
-7 0 14 2.5 1.9
-7 0 -14 3.2 2.3
-7 1 -14 63.89 6.9
-7 -1 14 70.49 6.9
-7 -1 14 80.79 7.4
7 1 14 63.69 6.4
-7 1 14 66.49 7.1
7 -1 14 61.09 6.8
-7 -1 -14 75.39 7.2
-7 -2 14 36.4 5.9
7 2 14 31.6 5.2
-7 -2 14 30.9 5.4
-7 2 -14 36.8 6.1
-7 2 14 36.6 6.3
-7 -2 -14 35.3 6
7 -2 14 35.3 6.3
-7 -3 14 446.36 16.8
7 3 14 462.25 16.2
-7 3 -14 476.05 19.2
7 3 14 434.26 14.6
7 -3 14 427.26 18.4
-7 3 14 471.55 19.7
-7 -3 -14 461.05 17.4
-7 -4 14 400.36 15.5
7 4 14 392.66 15.2
-7 4 -14 403.16 18.1
7 4 14 407.46 13.3
7 -4 14 414.26 18.7
-7 4 14 388.56 18.6
-7 -4 -14 377.76 16
7 5 14 49 4.4
-7 -5 14 47.6 5.5
7 5 14 37.8 5.8
-7 5 -14 41.7 7.2
7 -5 14 42.3 7.9
7 -5 14 50.09 8
-7 -5 -14 54.99 6.1
-7 5 14 41.1 7.5
7 6 14 68.99 7
-7 -6 14 71.39 6.8
-7 6 -14 79.89 8.5
7 6 14 68.39 3.8
-7 -6 -14 71.79 7.3
-7 6 14 63.99 9.8
7 -6 14 71.19 10.3
7 7 14 85.49 8.1
-7 7 -14 80.99 8.8
-7 -7 14 85.69 7.6
-7 7 14 97.49 11.3
-7 -7 -14 76.49 7.8
-7 -8 14 68.19 6.7
7 8 14 54.49 8.2
-7 8 -14 57.69 8.8
-7 -8 -14 73.09 7.5
-7 8 14 59.69 10.2
-7 9 -14 4.7 3
7 9 14 7.9 3.4
-7 -9 14 5.1 2.5
-7 -9 14 4.7 3.4
-7 -9 -14 -1.1 1.8
-7 9 14 -3.7 2.8
-7 10 -14 31.4 6.7
-7 -10 14 22.2 6
-7 -10 14 28.3 5.3
7 10 14 32.4 6.9
-7 10 14 21 6
-7 10 14 46.1 9.6
-7 11 -14 92.59 10.1
-7 -11 14 90.49 7.9
7 11 14 81.79 11
-7 11 14 93.19 14.8
-7 11 14 76.59 11.8
-7 12 -14 18.1 5.6
7 12 14 24.7 6.6
-7 12 14 10.6 7.1
-7 12 14 19.5 6.4
-8 0 -14 4.8 2.9
8 0 14 4.5 2.6
-8 0 14 3 2.2
-8 -1 14 16.6 3.9
8 1 14 16.6 3.7
-8 1 -14 9.8 3.9
-8 -1 14 12.9 3.9
-8 -1 -14 11.7 4
-8 1 14 16.5 4.5
8 -1 14 19.4 4.5
-8 -2 14 95.29 8.2
-8 2 -14 103.59 9.3
-8 -2 14 86.09 7.5
8 2 14 102.39 7.5
-8 2 14 103.19 9.2
8 -2 14 89.19 8.2
-8 -2 -14 87.89 7.9
-8 -3 14 29.6 5.2
-8 3 -14 40.2 6.8
8 3 14 39.6 5.8
8 3 14 28.9 4.8
-8 -3 14 36.3 5.7
-8 -3 -14 39.6 6.5
-8 3 14 39.4 7.2
-8 4 -14 1.6 2.7
8 4 14 2 1.9
8 4 14 1.1 1.7
-8 -4 14 -1.1 2.3
8 -4 14 2.4 2.8
-8 -4 -14 1.5 2.6
8 -4 14 5.7 3.5
-8 4 14 1.2 2.5
8 5 14 31.9 2.9
-8 -5 14 32.4 5.4
-8 5 -14 24.5 5.8
8 5 14 36.9 5.7
-8 -5 -14 36.9 6.2
-8 5 14 30.7 7
8 -5 14 30.8 6.9
-8 6 -14 150.68 12
8 6 14 143.19 9.6
-8 -6 14 144.39 9.5
8 -6 14 161.08 15.9
-8 -6 -14 142.09 10.1
-8 6 14 149.39 13
8 7 14 40.4 6.4
-8 7 -14 46.6 8.3
-8 -7 14 59.09 6.2
-8 -7 -14 42.7 6.6
-8 7 14 40.2 8.4
-8 -8 14 52.59 8.3
8 8 14 52.79 7.7
-8 -8 14 62.89 6.5
-8 -8 -14 62.69 7
-8 8 14 64.39 11.1
-8 -9 14 83.19 9.4
-8 9 -14 86.19 9.7
8 9 14 94.69 9.1
-8 -9 14 90.29 7.8
-8 -9 -14 96.09 8.9
-8 9 14 102.89 14.2
-8 9 14 84.69 11.9
8 10 14 -0.6 2.5
-8 10 -14 1.3 3
-8 -10 14 -2.8 3.2
-8 -10 14 9.3 3.1
-8 10 14 -2.3 3.6
-8 -10 -14 2.3 2.9
-8 10 14 -3 3.3
8 11 14 121.09 11.1
-8 11 -14 150.78 13.2
-8 -11 14 116.59 9.3
-8 11 14 134.39 13.6
-8 11 14 148.89 15.8
8 12 14 235.18 15.7
-8 12 -14 218.08 16.3
-8 12 14 208.98 17.3
-8 12 14 224.98 19.7
-9 0 14 72.19 7.5
9 0 14 79.09 7.3
-9 0 -14 70.09 7.8
-9 -1 14 30.6 5.7
-9 1 -14 38 6.6
9 1 14 38.7 5.9
9 -1 14 37.8 6.3
-9 -1 -14 42 6.7
-9 1 14 39.6 6.6
-9 -2 14 29.1 6.1
-9 -2 14 29.5 5.3
-9 2 -14 19.7 5.1
9 2 14 31.1 5.1
-9 -2 -14 20.2 4.9
9 -2 14 24.4 5.3
-9 2 14 24 5.5
-9 -3 14 253.77 12.6
-9 -3 14 232.78 12.7
-9 3 -14 248.58 14.8
9 3 14 240.98 10.1
9 3 14 232.18 11.2
-9 -3 -14 232.28 13
-9 3 14 250.17 15.1
9 -3 14 239.08 14.7
9 -3 14 252.77 14.5
-9 -4 14 73.69 6.9
9 4 14 59.79 4.2
-9 4 -14 88.59 9.2
-9 -4 14 65.99 7
9 4 14 64.99 6.3
-9 -4 -14 71.69 7.3
9 -4 14 68.89 9.4
-9 4 14 70.89 10
-9 5 -14 171.18 12.9
9 5 14 158.78 9.6
-9 -5 14 157.18 9.9
-9 5 14 174.78 13.7
-9 -5 -14 162.28 10.8
9 -5 14 147.79 12.4
9 6 14 87.69 7.5
-9 -6 14 90.59 7.6
-9 6 -14 81.09 9.2
-9 6 14 88.69 10.4
-9 -6 -14 71.59 7.2
-9 7 -14 1.5 3.3
9 7 14 7.6 2.8
-9 -7 14 0.2 2.6
-9 7 14 0.2 3.1
-9 -7 -14 7.8 3.3
9 8 14 83.89 8.1
-9 8 -14 82.09 11.5
-9 -8 14 84.69 7.9
-9 -8 14 104.79 9.9
-9 8 14 84.59 13
-9 8 14 102.69 11.5
-9 -8 -14 94.09 8.6
9 9 14 2.7 2.4
-9 9 -14 9.2 4.4
-9 9 14 4 4
-9 -9 -14 7 3.2
-9 9 14 4.2 4
-9 -10 14 96.19 8.2
-9 -10 14 112.19 10.5
9 10 14 107.39 9.9
-9 10 -14 93.99 12.8
-9 -10 -14 101.39 9.5
-9 10 14 121.19 14.2
-9 10 14 96.99 13.6
-9 -11 14 -1.6 3
-9 11 -14 3.3 4.2
9 11 14 0.3 3
-9 11 14 5 4.7
-9 11 14 -3.3 3.9
-10 0 -14 3.3 2.8
-10 0 14 7 3.1
10 0 14 5.9 3
-10 1 -14 0 2.3
10 1 14 4.4 2.8
-10 -1 14 -0.9 1.9
-10 -1 -14 1.5 2.4
-10 1 14 2.3 2.5
10 -1 14 3.6 2.8
-10 -2 14 36.1 5.9
10 2 14 35.6 5.4
-10 2 -14 26.8 6.2
-10 -2 -14 33.3 6.3
10 -2 14 22.8 5.7
-10 2 14 39.5 7.2
10 -2 14 38.4 6.9
-10 -3 14 81.89 7.3
-10 -3 14 88.39 8.3
10 3 14 98.69 7.4
-10 3 -14 101.69 10
10 3 14 91.29 5.6
10 -3 14 82.89 9.2
10 -3 14 111.39 10.1
-10 -3 -14 93.49 8.5
-10 3 14 99.89 9.8
-10 4 -14 -0.4 2.6
10 -4 14 -0.8 3.2
-10 -4 -14 0.4 2.3
-10 4 14 2.5 2.9
-10 5 -14 21.8 6.2
-10 -5 14 25.3 4.8
-10 -5 14 20.1 4.9
-10 -5 -14 22.7 5
10 -5 14 14.4 5.8
-10 5 14 26.4 6.4
10 6 14 207.58 11.1
-10 6 -14 210.48 14.8
-10 -6 14 189.68 11.1
-10 6 14 197.48 15.3
-10 -6 -14 205.38 12.4
10 7 14 49.2 5.7
-10 7 -14 55.59 10
-10 -7 14 46.9 7.8
-10 -7 -14 49.7 7.3
10 8 14 160.48 10.5
-10 -8 14 162.58 11.4
-10 8 -14 131.59 12.9
-10 8 14 145.39 14.6
-10 8 14 149.59 14.4
-10 -8 -14 184.48 11.9
-10 -9 14 6.8 3.5
-10 9 -14 16.4 5.3
-10 -9 14 -2.6 3.7
10 9 14 6 3.3
-10 9 14 13.7 6.2
-10 9 14 5.3 4.3
-10 -9 -14 16.3 4.9
-10 -10 14 4.2 4.7
-10 -10 14 3.8 4
-10 10 -14 13.4 5.9
10 10 14 23.7 4.5
-10 10 14 6.3 5
-10 -10 -14 15.7 5.4
-10 10 14 19.1 6.6
-11 0 -14 52.59 8.3
11 0 14 64.09 7.2
11 0 14 61.09 7
-11 0 14 62.89 7
-11 -1 14 208.08 12.2
11 1 14 223.88 11.1
-11 1 -14 202.58 14
11 -1 14 204.08 12.4
-11 1 14 200.08 12.8
11 -1 14 214.58 12.9
-11 -1 -14 185.58 12.7
11 2 14 122.29 8
-11 -2 14 129.79 9.1
-11 2 -14 109.59 10.6
-11 2 14 113.59 10.3
11 -2 14 106.79 9.7
-11 -2 -14 111.89 9.8
-11 -3 14 -0.5 1.6
11 3 14 -1.2 1.6
-11 3 -14 -2.9 2.4
11 -3 14 -3.9 3.5
-11 3 14 -0.8 2.1
-11 -3 -14 -0.7 2.5
11 -3 14 1.7 2.8
-11 -4 14 51.79 6
11 4 14 50.89 5
-11 -4 14 63.39 7.1
11 -4 14 57.79 8.8
-11 -4 -14 54.99 8.1
-11 4 14 58.19 9.4
-11 -5 14 3.4 2.2
11 5 14 2.6 2.2
-11 5 -14 7.1 4.3
-11 -5 14 2.9 3.3
-11 -5 -14 4.8 3
-11 5 14 6.1 4.1
-11 -6 14 5.6 2.6
-11 -6 14 6.3 3.3
-11 6 -14 5.8 3.9
11 6 14 9.2 2.6
-11 -6 -14 8.8 3.9
-11 6 14 10.7 5.4
11 7 14 55.49 5.9
-11 -7 14 69.29 8.5
-11 -7 14 80.79 7.1
-11 7 -14 69.89 11.2
-11 7 14 73.39 11.9
-11 7 14 65.39 10.8
-11 -7 -14 82.99 8.2
-11 8 -14 152.98 14
-11 -8 14 132.49 10.4
-11 -8 14 109.89 9.4
-11 -8 -14 143.99 11
-11 8 14 150.38 15
-11 8 14 158.68 15.4
-11 -9 14 8.5 3.7
-11 9 -14 0.2 4.3
11 9 14 15.3 3.8
-11 9 14 5.2 5.1
-11 -9 -14 4.6 4
-11 9 14 24.7 7.9
-12 0 -14 263.67 16
-12 0 14 266.97 14.3
12 0 14 254.37 12.5
12 0 14 266.77 13.8
-12 1 -14 1.7 3.3
-12 -1 14 3.8 2.5
12 1 14 2.5 2.7
-12 1 14 -0.5 2.6
12 -1 14 -2.3 2.6
12 -1 14 6.2 3.4
-12 -1 -14 -0.9 2.5
-12 -2 14 67.49 6.9
12 2 14 83.69 8.6
12 2 14 63.89 6.7
-12 2 -14 85.19 13.3
-12 2 14 78.89 8.9
12 -2 14 75.89 11
12 -2 14 69.59 9.3
-12 -2 -14 77.89 9.1
12 3 14 142.09 8
-12 -3 14 122.49 8.9
-12 3 -14 145.89 12.5
-12 -3 -14 146.29 11.6
-12 3 14 153.88 12.6
12 -3 14 140.69 12.3
12 -3 14 145.49 12.1
-12 -4 14 25.7 4.8
12 4 14 30 4.3
-12 4 -14 40.7 8.3
12 -4 14 31.9 7.4
-12 -4 -14 39.6 7
-12 4 14 32.4 7.3
-12 5 -14 19.4 5.9
12 5 14 7.9 2.6
-12 -5 14 12.1 3.2
-12 5 14 0 3.7
-12 -5 -14 9 4
-12 -6 14 2.8 3.7
12 6 14 10.2 2.6
-12 6 -14 15.3 5.8
-12 -6 14 8.8 3.2
-12 -6 -14 17.8 4.7
-12 6 14 6.7 5.9
12 7 14 93.89 6.3
-12 -7 14 88.49 8.2
-12 -7 14 91.09 7.2
-12 7 -14 72.19 11.7
-12 -7 14 81.69 7.9
-12 7 14 73.19 11.9
-12 -7 -14 104.29 9.6
-12 7 14 73.39 12
-12 8 -14 -6.1 4.1
12 8 14 0.1 2.1
-12 -8 14 4.5 3.1
-12 -8 14 4.1 2.2
-12 -8 14 -4.1 3.2
-12 8 14 0.1 3.2
-12 8 14 -7.6 3.3
-12 -8 -14 -1.9 2.7
-13 0 14 69.99 7.4
-13 0 -14 75.59 12.6
13 0 14 55.89 7.6
-13 -1 14 13.3 4.3
-13 1 -14 12.3 5.3
13 1 14 19.2 4.5
13 1 14 6.3 3.8
13 -1 14 10.4 4.4
-13 -1 -14 13.2 4.7
-13 1 14 8.7 3.8
13 2 14 24.9 5.6
13 2 14 29.2 4.3
-13 2 -14 28.8 7.3
-13 -2 14 14.2 4.1
13 -2 14 24.7 5.3
-13 2 14 29.3 6.5
-13 -2 -14 26 6.1
13 3 14 9.2 2.9
-13 -3 14 11.5 3.7
13 3 14 12.2 2.7
-13 3 -14 0.8 4.7
13 -3 14 2.6 5.9
13 -3 14 7.9 4.6
-13 3 14 10.3 4.9
-13 -3 -14 9.4 4.2
13 4 14 0.6 2
-13 4 -14 -0.8 3.1
13 4 14 -0.6 1.5
-13 -4 14 4.4 2.3
-13 -4 -14 3.1 3.3
-13 4 14 -0.3 2.9
13 5 14 6.5 1.9
13 5 14 -1.7 1.4
-13 5 -14 1.6 3.8
-13 -5 14 -1.4 1.9
-13 -5 -14 -3.1 2.4
-13 5 14 2.7 3.8
-13 -6 14 7.3 3
-13 -6 14 3.1 2.5
13 6 14 5.4 1.3
-13 6 -14 0.7 3.9
-13 6 14 -3.1 4.2
-13 -6 -14 1.6 3.6
-13 6 14 7.5 4.9
-13 7 -14 14.5 6.2
-13 -7 14 16.3 4
-13 7 14 23.9 7.1
-13 7 14 12.3 6.1
-13 -7 -14 15.4 5.4
14 0 14 10.4 4.1
-14 0 -14 15.3 5.5
-14 0 14 14.5 3.9
-14 -1 14 4.8 2.3
14 1 14 -4 2.6
14 1 14 -1.9 1.7
-14 1 -14 1.8 3.3
-14 1 14 3.8 3.5
14 -1 14 2.8 4.7
-14 -1 -14 4.1 3.9
-14 2 -14 13.2 5.4
14 2 14 7.2 2.3
-14 -2 14 5.2 2.9
14 2 14 2.1 2.6
-14 2 14 7.3 4.3
14 -2 14 10.2 4.3
-14 -2 -14 1.4 4.4
14 3 14 54.79 4.1
14 3 14 50.49 3.6
-14 -3 14 67.29 6.7
-14 3 -14 52.69 9.5
-14 -3 -14 53.09 10.3
-14 3 14 60.69 9.6
14 -3 14 48.7 7.9
-14 4 -14 5.8 4.8
-14 -4 -14 2.2 3.7
-14 4 14 2.1 4.1
-14 -5 14 2.9 2.2
-14 5 -14 5.2 4
-14 5 14 0.9 4.5
-14 -5 -14 5.3 4.2
-14 5 14 -5.2 3.7
15 0 14 116.19 10.4
-15 0 -14 96.59 11.2
15 0 14 91.49 8.2
-15 0 14 93.39 8.6
-15 1 -14 158.88 13.9
-15 -1 -14 179.58 14.1
0 0 15 -0.3 1.9
0 0 -15 1.3 2.2
0 -1 15 -1.3 1.4
0 1 15 0.7 1.3
0 1 -15 -1.7 1.2
0 -1 -15 -0.8 1.5
0 2 15 61.39 6.5
0 -2 -15 49.9 6.9
0 -2 15 48.1 5.6
0 2 15 61.99 6.2
0 2 -15 49.1 5.5
0 3 -15 -3.2 1.2
0 3 15 -1.5 1.3
0 -3 15 -1.7 1.1
0 3 15 2 2.1
0 4 -15 723.03 21
0 -4 15 737.73 22
0 4 15 725.73 21.5
0 4 15 725.23 23.4
0 5 -15 1.2 1.8
0 5 15 3.6 2.6
0 -5 15 -2.7 1.6
0 5 15 2 2.5
0 6 15 806.22 26.5
0 -6 15 756.42 23.4
0 6 15 743.43 22.4
0 6 -15 772.62 21.6
0 7 15 -1.9 2.1
0 -7 15 0.6 2.6
0 7 15 4 3.3
0 7 -15 0.7 1.5
0 8 15 67.89 7.4
0 8 15 65.19 10
0 8 -15 63.89 6.4
0 -8 15 81.09 8.3
0 9 15 3.7 3
0 9 -15 0.9 1.7
0 9 15 3.7 3.1
0 10 15 216.18 12.9
0 10 15 209.78 12.3
0 10 15 227.98 16.6
0 10 -15 197.58 10.6
0 11 15 2.7 2.9
0 11 -15 3 2.3
0 11 15 -1.5 3
0 11 15 -7.2 2.6
0 12 15 28.9 7.8
0 12 -15 25.6 4.3
0 12 15 7.6 4.3
0 12 15 23 5.2
0 13 15 2.3 3.4
0 13 15 3.6 2.9
0 13 15 3.2 4.2
0 14 15 11 5
0 14 15 15.1 6.5
0 14 15 12.5 4.1
-1 0 -15 0.4 1.7
-1 0 15 -0.7 1.7
1 0 15 -0.7 1.5
1 0 -15 1.4 1.8
1 1 15 416.26 15.6
-1 1 -15 443.16 16.5
-1 -1 15 420.96 15.8
-1 1 15 444.06 16.3
1 -1 15 445.66 16.4
-1 -1 -15 453.25 16.9
1 1 -15 413.56 15.8
1 2 15 180.58 10.2
-1 -2 15 165.08 10
-1 2 -15 185.28 10.6
1 2 15 174.88 10.7
-1 2 15 197.48 11.5
-1 2 15 188.38 10.7
1 -2 15 189.08 10.8
-1 -2 -15 184.68 11
1 2 -15 173.68 10.1
-1 3 -15 222.18 11.6
1 3 15 236.18 12.5
-1 -3 15 216.48 11.4
1 3 15 229.28 11.6
1 3 -15 211.58 11
-1 3 15 241.98 12.1
-1 -3 -15 209.98 11.9
-1 3 15 237.38 13
1 -3 15 226.58 12
-1 -4 15 448.86 16.7
-1 4 -15 444.96 16.5
1 4 15 462.45 18.1
1 4 15 440.46 16.2
1 -4 15 426.36 16.8
-1 -4 -15 435.46 17.7
-1 4 15 433.76 16.7
1 4 -15 433.66 15.7
-1 4 15 457.85 18.7
1 5 15 219.78 13.1
-1 5 -15 229.38 11.8
-1 -5 15 206.08 11.5
1 5 15 202.78 11
-1 5 15 229.78 13.8
1 -5 15 201.88 11.8
-1 5 15 188.18 11.2
1 5 -15 189.88 10.2
1 6 15 582.54 22.1
1 6 15 536.15 18.1
-1 6 -15 537.15 18.5
-1 -6 15 531.15 19
-1 6 15 559.24 22.3
1 6 -15 524.65 17.1
-1 6 15 538.65 19.3
1 7 15 163.68 12.3
-1 7 -15 146.09 9.6
1 7 15 152.78 9.5
1 7 -15 153.88 9.1
1 -7 15 142.29 10.5
-1 7 15 147.49 12.1
-1 7 15 141.69 10.2
-1 -8 15 185.48 12.1
1 8 15 224.58 15
1 8 15 217.08 11.6
-1 8 -15 209.08 11.6
-1 8 15 229.28 15.6
-1 8 15 219.68 12.5
1 -8 15 231.48 13.9
1 8 -15 228.88 10.7
-1 9 -15 33 5.6
1 9 15 31.6 5.7
1 9 15 31.8 7.3
-1 -9 15 36.6 6.3
1 9 -15 39.5 5.3
-1 9 15 43.9 8.5
1 10 15 11.4 5.6
1 10 15 11.6 4
1 10 15 5.9 3.3
-1 10 -15 11 3.8
-1 10 15 9.3 3.9
-1 10 15 15.2 5.6
-1 10 15 14.2 4.5
1 11 15 131.29 9.5
1 11 15 123.69 9.1
-1 11 -15 132.69 9.2
1 11 15 147.29 21.2
1 11 -15 137.89 7.4
-1 11 15 114.19 10.2
-1 11 15 130.49 13.6
-1 11 15 138.49 11
1 12 15 53.19 10.2
1 12 15 71.39 6.9
1 12 15 75.39 7.1
-1 12 -15 63.69 6.6
-1 12 15 55.19 11
-1 12 15 50.39 7.9
-1 12 15 66.89 9.2
1 13 15 61.89 11.8
1 13 15 50.29 5.8
-1 13 -15 55.89 7
1 13 15 41.6 6
-1 13 15 35.8 7.4
-1 13 15 47.4 7.6
-1 13 15 34.6 9.3
1 14 15 4.4 2.6
1 14 15 5.9 5
-1 14 -15 -2.4 2.1
-1 14 15 -5.9 3.2
-1 14 15 1 3.2
-1 14 15 -7 4.9
2 0 15 -0.4 1.6
-2 0 15 0.5 1.9
-2 0 -15 -1.6 1.3
-2 1 -15 7.2 2.9
-2 -1 15 8.2 3.1
2 1 15 10.4 3.1
-2 -1 -15 7.7 2.9
-2 1 15 6.1 2.7
2 -1 15 8.5 3.3
-2 1 15 4 2.4
2 2 15 316.47 13.4
-2 -2 15 291.17 13.1
-2 2 -15 309.17 14
-2 2 15 298.77 14.2
2 -2 15 311.37 14
-2 -2 -15 314.47 14.2
-2 2 15 309.87 13.8
-2 3 -15 203.78 11.3
-2 -3 15 195.48 10.8
2 3 15 167.78 10.5
2 3 15 166.68 9.8
2 -3 15 190.68 11.2
-2 -3 -15 194.98 11.4
-2 3 15 189.78 11
-2 3 15 173.98 11.3
2 4 15 23.3 4.5
-2 -4 15 11.9 3.5
2 4 15 24.1 5.2
-2 4 -15 16.8 4.3
2 4 -15 19.3 4.1
-2 4 15 15 4.3
-2 -4 -15 14.4 4.1
2 -4 15 15.2 4.1
-2 4 15 21.7 4.7
-2 -5 15 4 2.1
-2 5 -15 4.7 2.8
2 5 15 7 2.8
2 5 15 8 3.3
-2 -5 -15 5 2.8
-2 5 15 10.4 3.7
-2 5 15 0.8 2.3
2 -5 15 3.9 2.9
2 6 15 143.09 8.9
2 6 15 148.49 10.9
-2 -6 15 136.89 9.7
-2 6 -15 148.29 10
-2 6 15 146.89 10.2
2 6 -15 133.89 9.6
-2 6 15 142.29 11.6
2 -6 15 145.59 10.5
2 7 15 45.5 5.3
-2 -7 15 46.2 6.8
2 7 15 39.3 7.1
-2 7 -15 56.99 6.6
2 7 -15 52.79 5.2
-2 7 15 58.39 9.2
2 -7 15 49.3 7.5
2 8 15 18.7 5.4
2 8 15 20.2 4.2
-2 -8 15 18.6 4.3
-2 8 -15 21.8 4.8
-2 8 15 30.9 7
-2 8 15 26.6 5.3
2 9 15 15.9 5.4
2 9 15 17.6 3.9
-2 9 -15 23.3 5.2
-2 -9 15 21.5 5.2
-2 9 15 12.6 4.3
-2 9 15 20.5 6
2 10 15 342.87 14.2
2 10 15 313.37 19.1
2 10 15 352.16 13.9
-2 10 15 348.37 21.3
-2 10 15 353.16 18
-2 10 15 344.67 17.1
-2 11 -15 30.2 5.7
2 11 15 44 5.9
2 11 15 47.2 6.2
2 11 15 49.9 9.7
-2 11 15 53.99 10.9
-2 11 15 45.2 8
-2 11 15 43.3 7.5
2 12 15 84.19 12.7
2 12 15 79.79 6.4
-2 12 -15 73.69 7.9
-2 12 15 85.19 13.3
-2 12 15 73.79 10.1
2 13 15 96.09 5.8
-2 13 -15 94.89 8.5
2 13 15 113.29 15.6
2 13 15 86.89 5.7
-2 13 15 100.29 15.2
-2 13 15 91.19 9.7
-2 14 -15 29.1 5.6
-2 14 15 24.6 5.9
-2 14 15 40.7 10.3
-3 0 15 0.5 1.6
-3 0 -15 -1.3 1.2
3 0 15 4.2 2.2
-3 -1 15 71.09 6.8
-3 1 -15 78.39 7.2
3 1 15 82.89 7
-3 1 15 83.49 7.3
3 -1 15 84.69 7.3
-3 1 15 82.09 7.5
-3 -1 -15 86.79 7.6
3 2 15 14.5 3.8
-3 -2 15 12.1 3.5
-3 2 -15 13.4 3.7
-3 2 15 13 3.7
-3 -2 -15 16.5 4.2
3 -2 15 15.6 3.9
-3 2 15 11.7 3.9
-3 3 -15 133.49 9.4
3 3 15 130.59 8.5
-3 -3 15 139.29 9.2
3 3 15 119.89 8.8
-3 3 15 118.49 9.5
-3 3 15 131.29 9.5
3 -3 15 123.59 9.1
-3 -3 -15 117.89 8.9
-3 4 -15 69.39 7
3 4 15 68.19 6.5
3 4 15 64.29 6.9
-3 -4 15 62.39 6.2
3 -4 15 59.99 6.8
-3 -4 -15 67.29 6.9
-3 4 15 54.89 7.9
-3 4 15 71.29 7
-3 -5 15 19.3 4.2
3 5 15 16.8 3.9
-3 5 -15 18.5 4.7
3 5 15 14.6 4.1
-3 5 15 19.5 5.3
-3 5 15 12.6 4.1
-3 -5 -15 15.5 4.1
-3 6 -15 235.88 12.8
3 6 15 235.98 13.7
-3 -6 15 246.78 12.6
3 6 15 231.18 11.1
-3 6 15 223.48 13.2
-3 6 15 206.48 14
-3 -6 -15 208.98 12.6
3 -6 15 265.77 14.4
-3 -7 15 98.69 8.2
3 7 15 87.79 7.2
3 7 15 107.89 9.6
-3 7 -15 104.99 9
3 -7 15 113.69 10.1
-3 7 15 93.19 8.6
-3 7 15 113.19 11.1
-3 -8 15 91.09 8.2
-3 8 -15 105.39 8.9
3 8 15 112.59 10.5
3 8 15 97.39 7.2
-3 8 15 104.29 11.1
-3 8 15 101.99 9.4
-3 9 -15 8.9 3.8
3 9 15 17.8 5.4
3 9 15 6.7 2.9
-3 -9 15 1.7 2.7
3 9 15 5.7 2.6
-3 -9 15 1.3 4
-3 9 15 8.6 3.6
-3 9 15 5.2 4.6
3 10 15 376.96 20.8
-3 10 -15 351.36 16.5
-3 10 15 310.97 25.2
-3 10 15 361.76 18.6
3 11 15 1.9 2.1
-3 11 -15 -5.9 2
3 11 15 5 4
3 11 15 0 1.8
-3 11 15 -3.9 3.4
-3 11 15 2.1 3.6
3 12 15 105.89 4.9
-3 12 -15 82.29 8.8
3 12 15 129.39 13.4
3 12 15 102.29 4.8
-3 12 15 122.99 14
-3 12 15 114.19 11.1
3 13 15 27.6 8.3
-3 13 -15 38 6.7
-3 13 15 14.1 7
-4 0 15 0.6 1.7
4 0 15 3.2 2.2
-4 0 15 -0.8 1.5
-4 0 -15 1.1 2
-4 -1 15 32 5.5
4 1 15 21.3 4.8
-4 1 -15 26.4 5.5
4 -1 15 25 5.1
-4 1 15 24.3 5.2
-4 -1 -15 19.4 4.6
-4 1 15 20.6 4.9
4 2 15 -1 1.5
-4 2 -15 1 1.9
-4 -2 15 5.5 2.5
-4 -2 -15 0.6 1.7
-4 2 15 -0.3 1.6
4 -2 15 5.1 3
-4 2 15 0.8 1.9
-4 3 -15 621.24 21
4 3 15 614.04 18.9
4 3 15 614.34 20
-4 -3 15 616.34 19.5
-4 -3 -15 614.24 20.4
-4 3 15 625.94 22.2
-4 3 15 611.34 21.1
4 -3 15 583.54 20.6
-4 -4 15 0.6 1.9
4 4 15 2.2 1.9
-4 4 -15 0.3 1.9
4 4 15 -0.5 2
-4 -4 -15 1.2 2.2
4 -4 15 -0.6 2
-4 4 15 0.7 2.2
-4 4 15 1.3 1.9
4 5 15 21.2 4.7
-4 -5 15 22.8 4.7
4 5 15 26.5 4.7
-4 5 -15 25.7 5.4
-4 -5 -15 22.3 5
-4 5 15 28.1 5.9
-4 5 15 30.5 6.6
4 -5 15 19.8 4.9
-4 6 -15 9.9 3.7
-4 -6 15 8.4 3
4 6 15 6.8 3.1
4 6 15 9.7 2.7
-4 6 15 6.1 3.3
-4 -6 -15 4.8 2.7
-4 6 15 7.1 3.9
4 7 15 1.3 2
-4 -7 15 0.8 2.1
4 7 15 -1.8 1.5
-4 7 -15 4.4 2.8
-4 7 15 0.6 2.6
-4 7 15 2.9 3.3
-4 -7 -15 -2 1.9
4 -7 15 5.5 5.1
4 8 15 31.4 6.8
-4 8 -15 40.1 7.2
-4 8 15 32.2 7.5
-4 9 -15 50.89 8.2
-4 -9 15 48 8.3
4 9 15 45.9 4.7
4 9 15 51.09 8.8
4 9 15 56.49 5
-4 -9 15 45.5 7
-4 9 15 29.3 7.4
4 10 15 -2.3 1.4
4 10 15 -1 1.6
4 10 15 -5.2 2.5
-4 10 -15 1.8 2.9
-4 -10 15 -0.9 3
-4 10 15 2.1 3.2
-4 10 15 -3.2 2.4
4 11 15 19.2 6.1
-4 11 -15 4.8 3.8
-4 11 15 14.7 6.3
-4 11 15 14.3 5.5
4 12 15 2.1 3.9
-4 12 -15 5.4 3.2
-4 12 15 1.9 3.4
-4 12 15 -2.4 3.1
-4 13 -15 54.09 9.5
4 13 15 64.49 11.3
-4 13 15 75.29 11
-4 13 15 58.89 11.8
5 0 15 3.3 2.2
-5 0 15 -0.5 1.6
-5 0 15 1.9 1.8
5 1 15 563.34 18.6
-5 -1 15 584.84 19.5
-5 1 -15 588.54 20.4
5 -1 15 607.84 20.3
-5 1 15 564.04 19.8
-5 -1 -15 578.74 19.9
-5 1 15 566.34 20.2
5 2 15 114.69 8.3
-5 -2 15 121.09 8.6
-5 2 -15 113.59 9.1
-5 2 15 117.19 9.5
-5 -2 -15 98.29 8.3
-5 2 15 110.89 9
5 -2 15 100.09 8.7
5 3 15 483.05 16.3
-5 3 -15 455.05 18.2
5 3 15 439.56 16.7
-5 -3 15 450.45 16.8
-5 -3 -15 436.16 17.2
5 -3 15 464.15 18.6
-5 3 15 468.25 19.6
5 4 15 43.8 5.2
5 4 15 40.5 6.2
-5 -4 15 41 6.1
-5 4 -15 40.1 6.7
-5 4 15 39.1 7
5 -4 15 48.9 7.5
-5 4 15 50.49 7.5
-5 -4 -15 42.7 6.7
-5 5 -15 165.88 11.4
5 5 15 170.38 9.3
-5 -5 15 168.88 10.2
5 5 15 186.18 11.3
-5 -5 -15 188.78 11.5
-5 5 15 185.78 13
5 -5 15 186.78 12.4
-5 5 15 173.98 12.9
5 6 15 21.8 4.8
-5 6 -15 22.6 5.5
-5 -6 15 20.1 4.3
-5 6 15 17.6 5.5
-5 -6 -15 19.4 4.8
-5 6 15 21.9 5.1
-5 -7 15 271.67 13.2
5 7 15 296.57 10.9
-5 7 -15 300.17 15.7
5 7 15 319.37 16
-5 7 15 255.27 16.9
-5 -7 -15 303.27 15.3
-5 8 -15 81.29 8.9
5 8 15 94.59 5.7
5 8 15 80.99 5.6
5 8 15 80.29 8.7
-5 8 15 85.59 12.3
-5 -8 -15 89.19 9.1
5 9 15 19.3 2.6
5 9 15 12.6 4.6
-5 -9 15 26.6 6.8
-5 9 -15 14 4.6
5 9 15 14.9 2.3
-5 -9 15 22.4 4.6
-5 9 15 21.8 7.8
5 10 15 185.48 14.2
-5 -10 15 166.18 11.3
-5 10 -15 192.68 13.5
-5 10 15 200.08 15.2
-5 10 15 198.98 17
-5 11 -15 5.7 4.1
5 11 15 6.9 4.3
-5 11 15 8.4 4.2
-5 11 15 4.3 4.4
-5 12 -15 7.4 4.2
5 12 15 5.9 6.7
-5 12 15 1.7 4.7
-5 12 15 7.3 5.3
-5 13 -15 53.29 8.7
5 13 15 71.09 11.6
-5 13 15 69.39 13.7
-5 13 15 61.79 10.2
-6 0 15 -1.1 1.7
6 0 15 1.6 2.1
-6 0 15 2 1.9
-6 -1 15 134.19 9.5
6 1 15 146.39 9.7
-6 -1 15 136.59 9.5
-6 1 -15 152.18 10.5
-6 1 15 147.29 10.3
-6 1 15 137.29 10
-6 -1 -15 134.19 9.7
6 -1 15 137.89 9.8
-6 2 -15 10.6 3.7
6 2 15 3.4 2.5
-6 -2 15 4.5 2.6
-6 2 15 5.8 3
-6 2 15 2.6 3.3
-6 -2 -15 5.1 2.8
6 -2 15 4.1 3
6 3 15 3 2.3
6 3 15 0.8 2.2
-6 3 -15 4.4 3
-6 -3 15 -0.1 2
-6 3 15 0.5 2.3
-6 -3 -15 4.4 2.7
-6 3 15 5.2 2.6
6 -3 15 3.4 3.4
-6 4 -15 -0.3 2.2
-6 -4 15 1.4 2
-6 -4 -15 1.1 2
-6 4 15 -0.6 1.7
6 -4 15 1.5 2.6
-6 -5 15 117.39 8.6
-6 5 -15 143.09 10.9
6 5 15 114.29 9
-6 -5 -15 107.29 8.8
-6 5 15 102.89 10.4
6 -5 15 111.59 10.1
6 6 15 160.48 8
6 6 15 147.19 10.5
-6 -6 15 155.18 10
-6 6 -15 144.29 11.2
6 -6 15 163.78 13.6
-6 -6 -15 168.28 11
-6 6 15 139.69 12.5
-6 7 -15 301.97 16.3
6 7 15 303.07 9.8
-6 -7 15 327.17 14.7
6 7 15 331.07 16.1
-6 -7 -15 294.67 15.1
-6 7 15 346.67 20
6 8 15 4 2.8
6 8 15 2.1 0.9
-6 8 -15 2.5 2.8
-6 8 15 5.8 4
-6 -8 -15 -0.9 1.8
-6 -9 15 7 3.3
-6 -9 15 7.7 4.6
6 9 15 8.9 4.1
-6 9 -15 5.7 3.1
-6 -9 -15 3.7 2.6
-6 9 15 4.4 3.9
6 10 15 4.9 3.6
-6 -10 15 7.1 3.7
-6 10 15 5.9 5.1
-6 10 15 10 4.8
-6 11 -15 31.4 6.8
6 11 15 25.4 6.6
-6 11 15 23.1 7.4
-6 11 15 34.3 7.9
6 12 15 -5.7 3.5
-6 12 -15 0.8 3.4
-6 12 15 -1.5 3.4
-6 12 15 -5.9 3.6
7 0 15 2.9 2.2
-7 0 15 0.8 1.8
-7 0 -15 0.9 1.8
-7 -1 15 216.08 12.4
-7 -1 15 229.08 12.5
-7 1 -15 229.98 13.1
7 1 15 246.78 12.2
-7 -1 -15 218.98 12.6
-7 1 15 208.38 12.6
-7 1 15 195.88 12.3
7 -1 15 219.18 12.4
7 2 15 4.9 2.5
-7 -2 15 3.9 2.5
-7 2 -15 2.4 2.5
-7 -2 15 1.3 2.4
-7 -2 -15 2.1 2.2
7 -2 15 3.9 3.5
-7 2 15 11.7 4.1
-7 2 15 -3.8 1.7
-7 3 -15 72.19 7.9
7 3 15 64.79 6.6
7 3 15 64.79 6.1
-7 -3 15 63.19 6.6
-7 -3 -15 64.19 7.2
-7 3 15 72.79 8.1
7 -3 15 58.59 8.7
7 4 15 641.74 24.3
-7 4 -15 635.94 23.4
-7 -4 15 660.33 20.8
7 4 15 701.93 21.2
-7 -4 -15 651.03 21.9
-7 4 15 624.14 24.4
7 -4 15 653.43 24.1
7 5 15 49.7 7.3
7 5 15 45.7 4.7
-7 5 -15 59.09 9.1
-7 -5 15 48.4 6.6
7 -5 15 50.79 8.8
-7 5 15 43.4 8.3
-7 -5 -15 46 6.9
-7 -6 15 51.09 7
7 6 15 65.79 6.9
-7 6 -15 54.69 8.6
7 6 15 59.39 4.4
-7 6 15 57.69 9.4
-7 -6 -15 58.89 6.8
7 7 15 -1.3 1.8
-7 -7 15 4 2.3
-7 7 -15 4.7 3.5
-7 7 15 -0.6 2.3
-7 -7 -15 0.6 2.2
7 8 15 15.6 4.4
-7 8 -15 13.3 5.4
-7 8 15 20.6 7.2
-7 -8 -15 16.6 4.8
-7 -9 15 19.3 4.6
-7 9 -15 16.8 5.6
-7 -9 15 18.8 6.1
7 9 15 18.8 5.1
-7 9 15 23.5 7
-7 -9 -15 38.2 6.8
-7 9 15 27.6 6.9
7 10 15 44 8
-7 -10 15 29.9 5.8
-7 10 -15 45.6 8.1
-7 10 15 48.4 9.4
-7 10 15 55.89 11.1
-7 11 -15 81.89 11.2
7 11 15 69.09 9.9
-7 11 15 82.59 12.4
-7 11 15 68.09 12.8
7 12 15 33.6 7
-7 12 -15 13.4 5.8
-7 12 15 24.8 7.8
-7 12 15 33 9.5
-8 0 -15 -0.9 1.7
8 0 15 -3.2 2.2
-8 0 15 -1.2 1.9
-8 1 -15 -0.1 2
-8 -1 15 2.6 2.2
-8 -1 15 1 2
8 1 15 -0.5 2.4
-8 -1 -15 1.6 2.1
-8 1 15 2 2.4
8 -1 15 -0.6 2.2
8 2 15 133.59 8.8
-8 -2 15 146.09 10
-8 2 -15 141.89 11
-8 -2 -15 134.19 10
8 -2 15 123.19 11.5
-8 2 15 120.89 10.2
8 3 15 13.5 3.6
-8 -3 15 5.9 2.9
-8 3 -15 6.6 3.6
8 3 15 7.1 3.1
-8 -3 15 14.7 4.1
-8 -3 -15 11.3 3.8
-8 3 15 14.2 4.3
8 -3 15 7.4 3.6
8 4 15 94.09 6.6
-8 4 -15 88.89 9.2
-8 -4 15 115.09 8.8
8 4 15 108.09 8.2
-8 -4 -15 101.09 8.7
8 -4 15 87.19 9.1
-8 4 15 99.29 10.4
8 5 15 162.88 7.1
8 5 15 151.18 9.9
-8 5 -15 153.88 12
-8 -5 15 130.39 9.5
-8 5 15 186.78 14.1
8 -5 15 156.88 13
-8 -5 -15 163.28 10.9
-8 6 -15 147.69 12
-8 -6 15 123.29 9.2
8 6 15 124.49 9.3
-8 -6 -15 148.19 10.6
-8 6 15 135.79 12.5
-8 7 -15 3.1 2.8
-8 -7 15 3.6 3.1
8 7 15 5.9 2.9
-8 -7 -15 -0.2 2.4
-8 7 15 -0.8 2.7
-8 -8 15 2.2 3.2
-8 8 -15 15.2 5.7
8 8 15 14.4 4.3
-8 -8 -15 9.2 3.3
-8 8 15 0.1 3.5
8 9 15 4.5 3.8
-8 9 -15 4.4 4
-8 -9 15 3.7 3.2
-8 -9 15 4.1 3.5
-8 9 15 5.8 4.4
-8 9 15 2 3.8
-8 -9 -15 13.7 4.6
-8 -10 15 50.89 6.9
-8 10 -15 67.49 10.5
8 10 15 48.9 8.2
-8 10 15 48.5 10.7
-8 -10 -15 42.4 7.4
-8 10 15 58.89 10.3
8 11 15 27.4 6.6
-8 11 -15 21.9 7
-8 11 15 32.7 8.4
-8 11 15 23 8
9 0 15 -2.2 2.4
-9 0 -15 -0.2 2.2
-9 0 15 -1.2 2.1
-9 -1 15 105.59 9.1
-9 1 -15 99.39 9.4
-9 -1 15 118.99 9.6
9 1 15 122.89 8.8
-9 1 15 112.49 9.7
-9 -1 -15 109.19 9.4
9 -1 15 83.09 8.4
-9 2 -15 77.09 8.4
-9 -2 15 80.79 7.7
-9 -2 15 73.09 7.5
9 2 15 79.49 7
-9 2 15 69.89 9.6
-9 -2 -15 81.39 8.3
9 -2 15 78.19 11.4
9 3 15 -1.1 2.1
-9 -3 15 6.2 3
-9 3 -15 3 3
-9 -3 15 3.1 2.5
9 -3 15 3 3.2
-9 3 15 6.4 3.8
-9 -3 -15 9.3 4
-9 -4 15 111.29 14.9
-9 -4 15 131.79 9.5
9 4 15 126.69 6.8
-9 4 -15 126.59 11.1
9 4 15 124.99 8.9
9 -4 15 134.19 11.8
-9 -4 -15 128.39 9.9
-9 4 15 121.69 11.4
9 5 15 1.9 2
-9 5 -15 -0.9 2.3
-9 -5 -15 4.5 3
9 -5 15 -2.2 4
-9 5 15 2.4 3.4
9 6 15 174.58 10.7
-9 -6 -15 174.88 11.6
-9 6 15 185.18 14.8
-9 7 -15 70.89 10.5
-9 -7 15 49.3 6.9
9 7 15 58.49 7.9
-9 -7 -15 51.99 7.7
-9 7 15 91.69 18.9
-9 -8 15 54.79 7.3
9 8 15 69.39 7.5
-9 8 -15 74.29 11
-9 -8 -15 71.89 8
-9 8 15 72.29 12.2
-9 -9 15 4.4 3.5
-9 9 -15 6.2 3.7
9 9 15 5.4 3
-9 -9 -15 -1 2.7
-9 9 15 1 3.7
-9 9 15 -0.7 3.2
-9 -10 15 -0.1 4.7
-9 -10 15 -2.1 3
9 10 15 -2.1 2.8
-9 10 -15 0.3 3
-9 -10 -15 3.6 3.1
-9 10 15 -0.9 3.4
-9 11 -15 21.1 6.8
9 11 15 13.1 5
-9 11 15 18.2 7.9
-9 11 15 10 5.3
-10 0 -15 0.9 2.7
10 0 15 1.9 2.6
-10 0 15 0.3 1.9
-10 -1 15 5.6 3
10 1 15 4.5 2.9
-10 1 -15 8.1 4.1
10 -1 15 4.2 3.8
-10 1 15 -0.8 1.9
-10 -1 -15 6.1 4.2
-10 2 -15 275.37 16.2
-10 -2 15 244.88 13.2
-10 -2 15 241.88 14
10 2 15 267.07 11.9
10 2 15 255.77 12.1
10 -2 15 238.08 14.8
-10 -2 -15 286.67 15.5
-10 2 15 253.27 15.3
10 -2 15 243.78 14.5
-10 3 -15 5.8 3.7
10 3 15 15.8 3.5
-10 -3 15 3.3 3.2
10 3 15 9.2 2.8
-10 -3 15 8.4 3.2
-10 -3 -15 16.3 4.8
10 -3 15 20 5.4
-10 3 15 8.1 4.3
10 -3 15 16.8 4.7
10 4 15 74.49 6.8
-10 4 -15 58.49 9.1
-10 -4 15 66.29 6.9
-10 -4 15 66.89 7.6
-10 -4 -15 68.89 9.3
-10 4 15 64.29 10
10 -4 15 85.59 9.6
-10 -5 15 39.3 6.1
-10 -5 15 27.6 5.2
-10 5 -15 32.8 7.5
10 5 15 33.5 5.2
-10 5 15 33.2 7.7
-10 -5 -15 30.9 6.2
10 6 15 4.9 2.6
-10 -6 15 8.5 3.8
-10 6 -15 13.7 5.2
-10 -6 -15 15 4.4
-10 6 15 5.2 4.3
-10 7 -15 3.2 3.7
-10 -7 15 -4.1 3
-10 -7 -15 3.2 3.1
-10 7 15 3.3 4.2
-10 -8 15 106.89 10.2
-10 -8 15 116.69 9.5
-10 8 -15 132.09 12.7
10 8 15 132.09 9.9
-10 8 15 127.39 14
-10 8 15 136.49 13.7
-10 -8 -15 142.39 11
-10 -9 15 20.4 4.7
-10 9 -15 18.7 6.1
-10 -9 15 0.4 4.5
10 9 15 3.7 3.3
-10 -9 -15 12.5 4.6
-10 9 15 -2 4.2
-10 9 15 11 6
-10 10 -15 51.09 9.5
10 10 15 33.9 6.3
-10 -10 15 33.1 7.1
-10 10 15 45.1 9.4
-10 10 15 21 7.8
-10 -10 -15 28.9 6.9
-11 0 15 -1.5 1.7
11 0 15 -3.6 2.3
-11 0 -15 -2 2.2
-11 1 -15 57.09 9.1
-11 -1 15 67.59 7.4
11 1 15 62.39 6.7
-11 -1 -15 60.49 9
-11 1 15 48.1 7.9
11 -1 15 55.89 8.3
11 -1 15 68.29 8
-11 2 -15 6.5 3.8
11 2 15 8.6 3.2
11 2 15 16.8 3.7
-11 -2 15 10.7 3.4
11 -2 15 4.8 3.7
-11 2 15 10.4 4
11 -2 15 12.4 4.4
-11 -2 -15 3.7 3.2
11 3 15 22.6 4.1
-11 -3 15 21.6 4.5
-11 3 15 27.7 6.6
11 -3 15 22.4 5.1
11 -3 15 17.9 6.2
-11 -3 -15 28.1 6.2
-11 4 -15 94.49 10.2
-11 -4 15 96.59 8.1
-11 -4 15 91.19 8.9
11 4 15 93.69 7.1
-11 4 15 127.89 12.4
11 -4 15 90.49 12.1
-11 -4 -15 99.69 9.7
-11 -5 15 190.88 12.5
-11 5 -15 215.08 15.6
11 5 15 230.08 11.4
-11 -5 15 239.08 12.5
-11 5 15 222.98 16.4
-11 -5 -15 230.38 13.9
-11 -6 15 32.9 6
-11 -6 15 43.3 6.1
-11 6 -15 28.1 6.9
11 6 15 37.9 5.6
-11 -6 -15 42.9 7.1
-11 6 15 20.2 9
-11 7 -15 68.29 10.7
-11 -7 15 56.69 7.6
-11 -7 15 47.9 6.9
11 7 15 47.7 5.6
-11 -7 -15 45.4 7.5
-11 7 15 33.9 8.9
-11 8 -15 10.7 5.5
-11 -8 15 11.5 4.4
11 8 15 23.4 4.4
-11 -8 15 25.4 5.1
-11 8 15 14.8 6.2
-11 8 15 21.8 7.4
-11 -8 -15 15.8 5.2
-11 9 -15 -1.2 3.2
11 9 15 5.6 3.2
-11 9 15 -2.4 5.2
-11 -9 -15 0.6 3.3
-11 9 15 9.9 4.5
-12 0 15 0.7 2.3
12 0 15 3.2 3.2
-12 0 -15 -1.6 1.9
12 0 15 -2.6 2.8
-12 -1 15 0.4 2.1
-12 1 -15 1.6 3.3
12 1 15 0.5 2.9
12 -1 15 0.1 3.3
-12 1 15 -3.7 2.3
12 -1 15 -0.3 2.7
-12 -1 -15 1.3 3.3
-12 2 -15 2.9 3.4
-12 -2 15 4.6 2.6
12 -2 15 -2.7 3.7
-12 2 15 -5.1 2.4
12 -2 15 9.2 4.2
-12 -3 15 7.8 2.9
12 3 15 1.2 2
-12 3 -15 1.2 3.3
-12 -3 -15 0.3 3
-12 3 15 3.2 3.6
12 -3 15 8.5 4
-12 4 -15 18.2 5.9
12 4 15 6.7 2.9
-12 -4 15 13.9 3.8
-12 -4 -15 23.6 5.9
-12 4 15 7.9 4.6
-12 -5 15 67.39 6.9
-12 5 -15 73.39 11.4
12 5 15 63.09 5.9
-12 -5 -15 58.69 8.7
-12 5 15 54.89 9.9
12 6 15 3.8 2.3
-12 -6 15 6.7 2.5
-12 6 -15 7.4 4.9
-12 6 15 5.2 5
-12 -6 -15 8.4 4.1
-12 -7 15 54.69 7
-12 -7 15 43.9 6.8
12 7 15 60.69 5.9
-12 7 -15 50.79 10
-12 7 15 53.19 11.4
-12 -7 -15 64.29 9
-12 7 15 46.1 10
-12 -8 15 -1.9 2
12 8 15 1.5 2.4
-12 -8 15 -2.7 3.3
-12 8 15 -0.9 4.2
-12 8 15 6.1 5.4
-12 -8 -15 -1.2 3.7
13 0 15 -0.5 3.2
-13 0 -15 -4.3 3.2
-13 0 15 0.6 2.6
-13 1 -15 -3.1 3.6
13 1 15 2.3 3
-13 -1 15 6.2 2.5
13 1 15 0.4 1.9
13 -1 15 0.7 3.2
-13 1 15 2 3
13 2 15 14 5.1
13 2 15 16.5 4.4
-13 2 -15 27 6.8
-13 -2 15 17.9 4.6
-13 -2 -15 10.2 4.4
13 -2 15 29.9 6.3
-13 2 15 23.2 6
13 3 15 17.8 3.7
-13 -3 15 28.3 5
13 3 15 21.1 5
-13 3 -15 29.6 7.3
-13 -3 -15 18.4 5.6
-13 3 15 21.7 6.1
13 -3 15 15.2 5.6
13 4 15 49.2 5.5
-13 4 -15 51.89 9.8
13 4 15 51.19 4.9
-13 -4 15 55.89 6.4
-13 4 15 41.9 8.9
-13 -4 -15 63.19 9.3
13 5 15 13.7 3.1
-13 -5 15 9 3.1
-13 5 -15 13.1 5.5
13 5 15 7.1 2.3
-13 5 15 14 6
-13 -5 -15 13.3 5.2
-13 6 -15 30.3 7.7
13 6 15 29.2 3.6
-13 -6 15 24 4.4
-13 -6 -15 37.9 7.2
-13 6 15 39.9 9.7
-13 6 15 30.5 7.8
-14 0 15 -0.2 2.5
-14 0 -15 1.5 3.3
14 0 15 4.1 3.9
14 1 15 -0.1 2.1
-14 1 -15 2.7 3.6
-14 -1 15 -0.2 2.5
14 1 15 2.9 3.5
-14 1 15 2.4 3.7
-14 -1 -15 0.2 3.1
14 -1 15 -0.6 3.9
-14 -2 15 8.1 3.6
14 2 15 11.3 2.7
-14 2 -15 7.9 4.8
-14 -2 -15 4.7 4.3
14 -2 15 8.7 6.3
-14 2 15 10.3 5
14 3 15 56.59 4.7
-14 -3 15 68.09 6.9
14 3 15 59.69 5.5
-14 3 -15 51.19 9.8
-14 -3 -15 51.99 8.5
-14 3 15 49.7 8.9
14 -3 15 49.5 9.1
-14 4 -15 5.6 4.2
14 4 15 -0.8 1.7
14 4 15 2.9 1.6
-14 -4 15 7.6 2.6
-14 -4 -15 -1.4 3.8
0 0 -16 5333.97 73.19
0 0 16 5214.58 71.39
0 -1 -16 -0.4 1.7
0 1 -16 -2.7 1
0 1 16 0.8 2
0 -1 16 0.3 1.7
0 -2 16 186.38 11
0 2 -16 195.78 11.1
0 2 16 184.48 10.7
0 2 16 197.08 11.7
0 -2 -16 177.28 11.3
0 3 16 -1 1.6
0 -3 16 1.8 2
0 3 -16 2.1 1.9
0 3 16 0.9 1.8
0 -4 16 366.06 15.7
0 4 -16 342.27 14.6
0 4 16 341.47 16.5
0 4 16 345.07 15.1
0 5 16 -0.2 1.9
0 5 -16 5.9 2.6
0 -5 16 0.6 2
0 5 16 1.5 2.3
0 6 -16 40.6 6.2
0 -6 16 39.6 6.8
0 6 16 51.59 8.7
0 6 16 45 6.7
0 -7 16 -1.8 2.6
0 7 -16 -0.7 1.9
0 7 16 2.4 3
0 7 16 -3.7 2.1
0 -8 16 164.58 13.7
0 8 16 186.28 14.4
0 8 16 151.28 10.3
0 8 -16 182.28 10.5
0 9 16 2.9 3.2
0 9 -16 0.5 1.7
0 9 16 3.1 2.7
0 10 -16 327.97 13.8
0 10 16 309.37 15.6
0 10 16 330.57 20.6
0 10 16 334.07 18.4
0 11 16 1.8 3.5
0 11 16 -3.8 2.4
0 11 -16 -0.9 1.8
0 12 -16 257.77 11.5
0 12 16 310.17 21.6
0 12 16 287.07 15
0 13 16 1 3.2
0 13 16 -4.5 4.4
0 13 16 -1.5 2.9
-1 0 16 106.39 8.4
-1 0 -16 111.79 8.6
1 0 16 114.69 8.6
1 0 -16 122.89 9.1
1 1 16 88.29 7.5
-1 1 -16 102.09 8.2
-1 -1 16 96.49 8
-1 -1 -16 91.59 8.1
1 1 -16 100.89 8.1
1 -1 16 102.29 8.3
-1 1 16 92.09 7.9
1 2 16 146.79 9.5
1 2 16 137.09 9.8
-1 2 -16 146.99 9.8
-1 -2 16 148.19 9.8
-1 2 16 136.99 9.5
1 2 -16 149.69 9.6
-1 2 16 143.89 10.2
1 -2 16 145.99 9.8
-1 -2 -16 140.79 10.1
1 3 16 22.9 5.1
1 3 16 21.2 4.8
-1 -3 16 23.2 4.8
-1 3 -16 25.6 5.1
-1 -3 -16 20.8 4.7
1 -3 16 25.8 5.4
-1 3 16 26.9 5.5
1 3 -16 16.6 4.1
-1 3 16 28.1 5.3
-1 -4 16 230.38 12.5
-1 4 -16 244.38 12.6
1 4 16 246.08 13.6
1 4 16 232.68 12.3
-1 -4 -16 226.58 13.2
1 -4 16 251.07 13.3
1 4 -16 228.38 11.7
-1 4 16 230.78 13.7
-1 4 16 234.98 12.6
-1 5 -16 122.29 9
1 5 16 113.99 9.7
1 5 16 117.29 8.8
-1 -5 16 128.39 9.7
-1 5 16 138.09 11
1 5 -16 115.89 8.3
-1 5 16 134.59 9.9
1 6 16 14.7 4.4
-1 6 -16 12.7 4
-1 -6 16 15.1 4.8
1 6 16 9.2 3.5
-1 6 16 12.1 4
1 -6 16 21.5 5.3
1 6 -16 17.2 3.9
-1 6 16 21 5.4
1 7 16 19.9 4.4
-1 7 -16 18.6 4.5
-1 -7 16 19.1 4.5
1 7 16 18.4 5.3
-1 7 16 30.4 6.8
-1 7 16 18.9 5.6
1 -7 16 16.4 4.7
1 7 -16 20.8 4.3
1 8 16 30.8 5.7
-1 8 -16 48.4 6.8
1 8 16 40.1 7.9
-1 -8 16 38.9 7
1 8 -16 36.8 5.6
-1 8 16 46.5 8.7
-1 8 16 46.1 7.2
1 9 16 21.4 4.9
-1 9 -16 15.5 4.2
1 9 16 14.5 5.5
-1 9 16 13.8 5.7
1 9 -16 17.1 4
-1 9 16 21.4 5.6
1 10 16 5.7 4
1 10 16 0 2.5
-1 10 -16 2.1 2.4
1 10 16 2.5 3.3
-1 10 16 -6.2 2.1
1 10 -16 5.2 2.5
-1 10 16 -1.9 3.1
1 11 16 -0.1 2.6
-1 11 -16 2.2 2.4
1 11 16 13.3 5.7
1 11 16 7.3 3.5
-1 11 16 3.1 2.9
-1 11 16 -2 3
-1 11 16 4.7 3.9
-1 12 -16 168.08 10.4
1 12 16 172.28 10.3
1 12 16 180.78 11.1
1 12 16 186.48 17
-1 12 16 162.28 12.4
-1 12 16 175.18 12.9
-1 12 16 177.48 17
1 13 16 0.5 2.6
1 13 16 7.3 4.2
1 13 16 0 3.4
-1 13 -16 1.1 2.7
-1 13 16 7 4
-1 13 16 15.3 5.8
-1 13 16 -13.5 4.4
-2 0 16 575.04 19.4
-2 0 -16 554.44 19.5
2 0 16 566.34 19.1
-2 1 -16 36.3 5.9
2 1 16 46.5 6.6
-2 -1 16 36.2 6
2 -1 16 44.4 6.7
-2 1 16 38.4 6.4
-2 -1 -16 37.1 6.2
-2 1 16 41.9 6.5
-2 2 -16 136.59 9.6
-2 -2 16 123.69 8.9
2 2 16 136.89 9.4
2 2 16 136.39 9.5
2 -2 16 137.59 9.6
-2 -2 -16 110.79 9
-2 2 16 133.79 9.5
-2 2 16 114.89 9.2
2 3 16 0.5 1.9
-2 3 -16 2.1 2.1
-2 -3 16 2.4 2.3
2 3 16 -3.4 1.4
-2 3 16 3 2.2
2 -3 16 -1.3 1.9
-2 -3 -16 -0.4 1.7
-2 3 16 4.2 2.9
2 4 16 780.92 22.4
2 4 16 813.02 24.8
-2 -4 16 784.32 23
-2 4 -16 790.42 23.6
-2 4 16 770.22 25.5
-2 4 16 782.82 23.9
2 -4 16 770.22 24.6
-2 -4 -16 801.02 24.7
-2 -5 16 105.49 8.3
-2 5 -16 106.89 8.6
2 5 16 103.29 9.1
2 5 16 120.49 8.5
-2 5 16 113.09 9.2
2 -5 16 127.79 10
-2 -5 -16 101.99 9.3
-2 5 16 116.29 10.1
2 5 -16 128.99 8.5
2 6 16 3.5 2.5
2 6 16 4.1 2.8
-2 6 -16 -1.6 1.4
-2 6 16 -0.7 1.9
-2 6 16 -1.6 2.2
2 -6 16 0.2 2
2 6 -16 -1.5 1.6
-2 -7 16 153.38 10.6
2 7 16 158.78 10
-2 7 -16 169.88 11
2 7 16 159.28 12.5
-2 7 16 157.08 13
-2 7 16 132.29 10.2
2 -7 16 160.68 13.7
-2 8 -16 6.2 2.9
-2 -8 16 3.9 2.7
2 8 16 4.7 3.5
2 8 16 5.5 2.6
-2 8 16 4.6 3.3
-2 8 16 6.2 3.8
2 9 16 626.14 26.5
2 9 16 595.24 19.3
-2 9 -16 621.74 21.6
-2 9 16 613.94 22.7
-2 9 16 631.84 27.9
2 10 16 99.69 11.4
2 10 16 103.39 8.2
-2 10 -16 98.89 8.9
2 10 16 108.99 8.4
-2 10 16 99.69 9.8
-2 10 16 111.19 12.7
2 11 16 95.09 7.9
2 11 16 79.29 13.6
2 11 16 89.39 7.7
-2 11 -16 79.79 8.1
-2 11 16 86.29 13
-2 11 16 104.99 10.3
-2 12 -16 5.8 3.4
2 12 16 14.3 3.8
2 12 16 10.2 3.6
2 12 16 5.7 5.1
-2 12 16 13.8 7
-2 12 16 7.4 4.5
2 13 16 92.19 14.2
2 13 16 84.79 6.3
-2 13 -16 69.99 8
-2 13 16 60.69 9.5
-2 13 16 89.79 14.4
3 0 16 555.34 19.1
-3 0 -16 572.24 19.9
-3 0 16 538.05 19.1
-3 1 -16 257.87 13.3
3 1 16 247.68 12.5
-3 -1 16 249.97 12.7
3 -1 16 239.48 12.6
-3 -1 -16 247.88 13.1
-3 1 16 242.88 13.2
-3 1 16 243.08 12.8
-3 -2 16 30.6 5.5
-3 2 -16 31.1 6.1
3 2 16 19.4 4.7
-3 2 16 23.6 5.1
-3 2 16 23.1 5.1
-3 -2 -16 25.4 5.3
3 -2 16 18.6 4.7
3 3 16 16 4.2
-3 3 -16 18.6 4.5
3 3 16 21.2 4.7
-3 -3 16 15.7 4.1
-3 -3 -16 24.6 5.2
-3 3 16 24 5.1
3 -3 16 21.6 5.2
-3 3 16 20.6 5.2
-3 4 -16 3 2.5
3 4 16 5.3 2.7
3 4 16 6.1 2.9
-3 -4 16 -0.3 2.1
-3 -4 -16 4.9 2.8
-3 4 16 3.4 3
3 -4 16 10.3 4.1
3 5 16 3.2 2.2
-3 5 -16 0.3 1.7
3 5 16 -1.9 1.7
-3 -5 16 -1.7 1.4
-3 -5 -16 2.5 2.6
-3 5 16 -0.1 2.5
-3 5 16 -2.8 1.8
-3 6 -16 12.7 4
-3 -6 16 9.9 3.9
3 6 16 13.9 3.9
3 6 16 10.1 3.7
-3 6 16 7.8 3.4
-3 6 16 6.4 3.8
-3 -6 -16 9.6 3.9
3 7 16 84.59 9.2
-3 7 -16 83.39 8.1
-3 -7 16 83.69 8.2
3 7 16 85.99 7.2
-3 7 16 89.39 10.1
-3 7 16 99.79 9.5
-3 -8 16 17.8 4.8
3 8 16 15.9 3.9
-3 8 -16 11.3 4.3
3 8 16 24.6 6.4
-3 8 16 11.5 5.1
-3 8 16 13.5 6
3 9 16 20.9 4.1
3 9 16 16.5 5.6
-3 -9 16 7.4 4.4
-3 9 -16 11 4.1
3 9 16 10.6 3.5
-3 9 16 12.6 4.8
-3 10 -16 61.59 8.5
3 10 16 63.59 10.6
3 10 16 76.69 6.7
3 10 16 81.89 6.6
-3 10 16 75.29 12.4
-3 10 16 64.49 9.6
-3 11 -16 72.99 8.3
-3 11 16 80.19 12.7
-3 11 16 87.19 9.6
-3 12 -16 14.4 4.9
3 12 16 20.6 7.3
3 12 16 14.2 2.9
3 12 16 11.2 2.6
-3 12 16 29.3 8.3
-3 13 -16 24 5.5
3 13 16 9.9 6.2
-3 13 16 33 7.1
-3 13 16 32.7 8.6
-4 0 16 43.5 6.7
-4 0 -16 38.8 6.6
4 0 16 35.5 6.1
-4 0 16 32.9 5.9
-4 -1 16 904.41 25.2
-4 1 -16 910.51 26.1
4 1 16 959.5 25.2
4 -1 16 915.91 25.6
-4 1 16 935.11 26.3
-4 -1 -16 901.31 25.8
-4 1 16 938.71 26.7
4 2 16 324.17 14
-4 -2 16 322.57 14.6
-4 2 -16 318.07 15.1
-4 -2 -16 341.87 15.7
-4 2 16 351.36 16.5
4 -2 16 357.96 16
-4 2 16 341.47 15.7
4 3 16 80.99 7.1
4 3 16 86.79 7.8
-4 3 -16 64.89 7.1
-4 -3 16 73.39 7.3
-4 3 16 80.99 9.3
-4 -3 -16 80.39 7.6
4 -3 16 86.89 9.7
-4 3 16 71.69 7.9
4 4 16 18.5 4.6
4 4 16 18.7 4.3
-4 4 -16 15.2 4.3
-4 -4 16 21 4.8
-4 4 16 19.5 4.8
4 -4 16 21.1 5.1
-4 -4 -16 29.4 5.7
-4 4 16 11.6 4.2
-4 -5 16 419.16 16.9
4 5 16 426.16 17.9
-4 5 -16 411.06 17.9
4 5 16 431.46 15.7
-4 5 16 424.86 18.5
-4 5 16 434.86 20.2
-4 -5 -16 415.76 17.8
4 6 16 8 2.7
-4 -6 16 7.9 3.3
-4 6 -16 2.6 2.7
4 6 16 1.9 2.6
-4 6 16 6.9 3.7
-4 6 16 6.1 3.5
-4 -6 -16 3.7 3.1
-4 7 -16 46.2 7.3
4 7 16 33.1 5.2
4 7 16 45.9 7.6
-4 -7 16 34.7 6.1
-4 7 16 32.9 7.5
-4 -7 -16 28.6 6.2
4 8 16 19.9 5.6
-4 8 -16 21.5 5.3
4 8 16 20 3.9
-4 -8 16 9.8 4
-4 8 16 23.8 6.8
-4 -9 16 881.71 26.8
4 9 16 936.61 31.6
-4 9 -16 936.71 28.9
-4 10 -16 14 4.8
4 10 16 16.4 5.6
4 10 16 16.3 3.3
4 10 16 16.6 3.2
-4 10 16 5.2 4.7
-4 10 16 12.7 5
4 11 16 30.8 8
4 11 16 40.8 3
4 11 16 29.5 2.7
-4 11 -16 26.7 5.7
-4 11 16 19.1 6.4
-4 11 16 32.8 9
-4 12 -16 6.9 3.9
4 12 16 3.3 4.5
-4 12 16 5.7 5.1
-4 13 -16 141.49 11.7
4 13 16 124.59 13.7
-4 13 16 126.59 17.7
-4 13 16 134.79 12.7
-5 0 16 -0.2 1.7
5 0 16 -4 1.4
-5 0 -16 2.4 2.2
-5 0 16 1.6 1.8
5 1 16 53.89 7.2
-5 -1 16 59.49 6.3
-5 1 -16 63.89 7
-5 1 16 60.39 9.1
-5 -1 -16 59.39 6.9
5 -1 16 67.49 7.1
-5 1 16 68.49 7.4
-5 2 -16 2.3 2.7
5 2 16 10.1 3.2
-5 -2 16 9.8 3.5
5 -2 16 1.3 2.5
-5 -2 -16 11.3 3.6
-5 2 16 11.1 3.9
-5 2 16 7 3.3
-5 -3 16 22.7 5
5 3 16 23.3 5
5 3 16 24.6 4.7
-5 3 -16 19.4 4.9
-5 -3 -16 21.5 5.1
5 -3 16 18.2 4.8
-5 3 16 29.7 6.5
-5 3 16 18.3 4.9
-5 -4 16 5.4 2.7
-5 4 -16 7.4 3.5
5 4 16 -1.3 2.4
5 4 16 5.3 3
-5 4 16 3.8 3.1
5 -4 16 7.9 3.7
-5 -4 -16 1.8 2
5 5 16 19.7 4.8
-5 5 -16 25.2 5.7
5 5 16 17.8 4.2
-5 -5 16 20.5 4.7
5 -5 16 15.7 5
-5 5 16 21.9 6
-5 -5 -16 11.2 3.7
5 6 16 69.09 6.2
5 6 16 70.89 7.9
-5 6 -16 74.99 8.2
-5 -6 16 81.69 9
-5 -6 -16 76.49 8
-5 6 16 72.79 10.5
-5 -7 16 -2.7 2
-5 7 -16 -1.1 2.1
5 7 16 -5.2 2.5
5 7 16 4.3 2.5
-5 7 16 -0.1 2.6
-5 -7 -16 3.6 3.1
5 8 16 58.89 5
5 8 16 83.39 9.2
-5 8 -16 52.39 8.3
-5 -8 16 60.29 8.1
-5 -8 -16 48.5 8
-5 8 16 52.49 10.2
5 9 16 2.1 1.9
5 9 16 0.4 2.8
5 9 16 3.1 2
-5 -9 16 -6.2 2.5
-5 9 -16 6.3 3.6
-5 9 16 5.9 4.6
5 10 16 1.7 2.7
-5 10 -16 -2.7 2.5
-5 10 16 -0.2 3.8
-5 10 16 1.5 3.4
-5 11 -16 49.6 8.6
5 11 16 55.59 9.7
-5 11 16 32 8.9
-5 11 16 53.19 9.3
5 12 16 34.8 8.6
-5 12 -16 22.3 6.1
-5 12 16 33.6 7.9
-5 12 16 36.7 9.5
-6 0 -16 424.66 17.9
-6 0 16 456.15 18.4
-6 0 16 381.66 20.3
6 0 16 407.36 17
-6 -1 16 7.3 3.4
-6 1 -16 5 2.6
-6 -1 16 9 3.3
6 1 16 11.2 3.5
-6 1 16 9 3.6
-6 -1 -16 15.7 4.3
6 -1 16 16.3 4.3
-6 1 16 4.6 2.7
6 2 16 20.3 4.4
-6 2 -16 25.3 5.5
-6 -2 16 20.7 4.9
-6 -2 -16 18.3 4.7
6 -2 16 29.9 7.2
-6 2 16 22.1 5.1
-6 2 16 23.8 5.4
-6 -3 16 19 4.6
6 3 16 20.2 4.6
-6 3 -16 25.5 5.8
6 3 16 21.4 4.6
-6 3 16 15.8 4.7
-6 3 16 21.2 5.3
6 -3 16 26.6 5.6
-6 -3 -16 20.9 5.1
6 4 16 270.87 13.7
6 4 16 285.67 12.4
-6 -4 16 282.27 13.8
-6 4 -16 275.07 15.1
-6 -4 -16 291.47 14.8
-6 4 16 278.87 16.2
6 -4 16 280.07 15.6
6 5 16 114.09 7.6
-6 5 -16 107.79 9.7
6 5 16 102.59 8.7
-6 -5 16 130.09 9.4
-6 5 16 106.09 10.6
-6 -5 -16 113.89 9.6
-6 6 -16 3.4 3
6 6 16 5.5 2.7
-6 -6 -16 0 2.1
-6 6 16 -0.9 2.8
6 7 16 96.79 6.2
6 7 16 100.79 9.2
-6 7 -16 90.59 9.6
-6 -7 16 94.09 8.6
-6 7 16 83.29 11.8
-6 -7 -16 96.49 9
6 8 16 74.89 4.3
-6 8 -16 77.39 8.6
6 8 16 75.29 4.4
-6 -8 16 72.79 7.7
6 8 16 92.49 9.3
-6 -8 -16 75.39 8.5
6 9 16 53.49 8.5
-6 9 -16 66.39 11.3
-6 -9 16 57.69 7.8
-6 9 16 67.79 11.7
6 10 16 119.79 11.7
-6 10 -16 130.19 11.5
-6 10 16 104.49 14.8
-6 10 16 134.49 12.9
6 11 16 196.88 15.6
-6 11 -16 196.78 14.6
-6 11 16 180.08 15.5
-6 11 16 168.68 17.2
6 12 16 33.2 7.8
-6 12 -16 20.1 6.4
-6 12 16 17.9 6.2
-6 12 16 24.5 8.3
-7 0 16 13.1 3.8
7 0 16 5.9 2.8
-7 0 -16 20 4.9
-7 0 16 14.6 4.1
-7 -1 16 116.09 9.3
7 1 16 113.49 8.8
-7 1 -16 110.59 9.5
-7 -1 16 100.29 8.8
-7 1 16 116.19 9.7
-7 -1 -16 119.79 9.6
-7 1 16 123.49 10.1
7 -1 16 114.09 9.3
7 2 16 -2.2 2.2
-7 -2 16 5.5 2.8
-7 2 -16 4.9 3.3
-7 -2 16 3.9 2.4
-7 -2 -16 5.5 2.9
7 -2 16 4 2.8
-7 2 16 6.6 3.5
-7 2 16 5.8 3
7 3 16 46.7 6.4
7 3 16 40.3 6.2
-7 3 -16 47.2 7.7
7 -3 16 48.8 8.1
-7 -3 -16 43.1 7.1
-7 3 16 47.5 7.8
-7 4 -16 160.98 12
7 4 16 143.79 10.1
7 4 16 144.59 8.7
7 -4 16 148.79 11.8
-7 4 16 126.69 11.8
-7 -4 -16 141.99 10.6
7 5 16 48.5 7
-7 5 -16 49 8.2
-7 5 16 54.29 9.2
-7 -5 -16 52.99 7.9
-7 -6 16 -4.7 2.4
7 6 16 -0.1 1.8
7 6 16 2.4 2.2
-7 6 -16 -3.7 2.4
-7 6 16 1.4 3.2
-7 -6 -16 -3.7 1.8
7 7 16 16.2 4.5
7 7 16 11.1 2
-7 7 -16 8.8 4.4
-7 -7 16 5.6 3.5
-7 7 16 11.3 4.9
-7 -7 -16 12.8 4.4
7 8 16 1.7 2.3
-7 -8 16 0.7 2.4
-7 -8 -16 1.7 2.7
-7 8 16 -6.5 2.9
7 9 16 14.9 5.1
-7 -9 16 15.5 4.5
-7 9 -16 18.4 5.7
-7 -9 -16 15.5 5
-7 9 16 18.6 6.8
7 10 16 27.8 6.7
-7 10 -16 31.6 7.3
-7 10 16 31.3 8.5
-7 10 16 27.3 7.4
7 11 16 2.5 3.7
-7 11 -16 5 3.7
-7 11 16 10.4 5.9
-7 11 16 7.8 5
-7 12 -16 3.8 4.5
-7 12 16 16.6 8
-7 12 16 2.7 5.1
-8 0 -16 302.67 15.8
-8 0 16 281.47 14.9
8 0 16 262.47 13.9
-8 0 16 264.87 14.7
-8 1 -16 3 2.8
8 1 16 8.4 3.6
-8 -1 16 0 1.6
-8 -1 16 11.7 3.5
-8 1 16 4.2 2.4
-8 1 16 3.8 3.1
8 -1 16 7.7 3.5
-8 -1 -16 7.2 3.2
-8 -2 16 76.79 7.8
-8 -2 16 64.99 7.2
-8 2 -16 71.89 8.2
8 2 16 76.19 7.2
8 -2 16 74.49 9.6
-8 -2 -16 85.69 8.4
-8 2 16 76.69 8.6
-8 3 -16 6.3 3.7
-8 -3 16 8.4 3.5
-8 -3 16 7.5 3.3
8 3 16 4.8 2.9
8 3 16 5.9 2.7
8 -3 16 7.6 4
-8 3 16 7.7 4.3
-8 -3 -16 8.8 3.8
-8 4 -16 478.95 21.2
8 4 16 475.05 17.8
-8 -4 16 452.45 18.1
-8 4 16 491.15 22.4
-8 -4 -16 468.35 19.3
8 5 16 6.6 2.4
-8 5 -16 8.4 4.3
-8 -5 16 7.3 3.5
8 5 16 12.1 3.8
-8 5 16 9.3 4.1
-8 -5 -16 11.2 3.8
8 6 16 69.89 3.9
-8 -6 16 62.49 8.3
-8 6 -16 65.99 10
8 6 16 84.79 8.2
-8 -6 -16 58.79 8.4
-8 6 16 67.79 10.7
-8 7 -16 46.1 8.6
-8 -7 16 55.99 7.3
8 7 16 55.99 8.2
-8 -7 -16 40.5 7.2
-8 -8 16 2.4 3.1
8 8 16 -0.8 2.3
-8 8 -16 2.9 3.7
-8 -8 -16 1.7 2.7
-8 8 16 1 3.5
-8 9 -16 15.7 5.5
-8 -9 16 4.3 4.3
8 9 16 13.9 4.6
-8 -9 -16 12.9 4.9
-8 9 16 10.9 5.8
-8 9 16 9.9 4.8
-8 10 -16 56.69 9.8
8 10 16 52.09 8.6
-8 10 16 73.59 12.9
-8 10 16 47.7 9.8
-8 -10 -16 79.49 9.3
8 11 16 17.4 5.2
-8 11 -16 7.4 4.3
-8 11 16 5.7 5.4
-8 11 16 17.8 6.5
-9 0 -16 50.99 8.1
9 0 16 57.69 8.2
-9 0 16 65.39 7.6
-9 1 -16 -0.1 2.2
-9 -1 16 8.1 3.5
9 1 16 1.2 3
-9 -1 16 1.1 2.3
-9 -1 -16 8 3.5
9 -1 16 8.3 4.4
-9 1 16 0.8 2.4
9 2 16 45.6 6.5
-9 -2 16 28.4 5.6
9 2 16 37.2 5.8
-9 2 -16 29.3 6.5
-9 -2 16 37.8 6.9
-9 2 16 38.1 7
-9 -2 -16 37.4 7
9 -2 16 36.7 7.1
-9 3 -16 146.29 12.1
-9 -3 16 137.29 10.1
9 3 16 148.59 9
-9 -3 16 153.28 10.9
9 3 16 139.39 9.4
9 -3 16 135.19 11.6
-9 -3 -16 140.09 11
-9 3 16 142.29 12
-9 -4 16 -0.3 2.1
-9 4 -16 1.7 3.1
-9 -4 16 -0.7 1.9
9 4 16 2.9 2.2
9 4 16 2.8 2.4
9 -4 16 -1.5 3.4
-9 4 16 1.8 3.7
-9 -4 -16 2.4 2.8
9 5 16 1 2.3
-9 5 -16 2.2 2.9
9 5 16 0.6 1.3
-9 -5 16 5.8 3.8
-9 -5 -16 4.2 3.2
-9 5 16 -4.8 2.6
-9 -6 16 9 3.8
-9 6 -16 2.8 3.3
9 6 16 7.4 3.3
-9 -6 -16 5.5 3.3
-9 6 16 -2.1 2.5
-9 7 -16 53.59 8.9
-9 -7 16 66.29 7.7
9 7 16 56.89 8
-9 7 16 51.09 9.7
-9 -7 -16 41.1 7.3
9 8 16 7.4 3.2
-9 -8 16 6 3.6
-9 8 -16 11.9 4.7
-9 8 16 18.3 7.5
-9 -8 -16 11.5 4.2
-9 9 -16 31.2 7.6
-9 -9 16 24.1 6.5
9 9 16 25.9 5.6
-9 9 16 27 7
-9 -9 -16 31.4 6.6
-9 9 16 18.4 7.2
9 10 16 2.6 3.4
-9 10 -16 9.8 4.7
-9 10 16 17.3 7.5
-9 -10 -16 5.7 3.8
-9 10 16 12.3 5.5
-10 0 -16 39.1 7.3
-10 0 16 48.1 7.9
10 0 16 40.6 6.7
-10 -1 16 63.39 8.6
10 1 16 72.49 7.3
-10 1 -16 57.19 9
-10 -1 -16 68.49 9.6
-10 1 16 51.19 8.2
-10 2 -16 214.48 14.9
-10 -2 16 239.58 13.5
10 2 16 225.58 11.7
10 2 16 257.87 12.6
10 -2 16 238.68 14.7
-10 2 16 229.98 15
-10 -2 -16 260.97 15.3
-10 3 -16 51.79 8.8
-10 -3 16 59.29 6.9
10 3 16 68.69 6.1
10 3 16 73.29 6.9
-10 -3 -16 69.69 8.1
10 -3 16 54.49 9.4
-10 3 16 69.49 10.2
-10 -4 16 198.88 14.5
-10 -4 16 196.98 11.9
10 4 16 202.18 7.4
10 4 16 201.68 11.3
-10 4 -16 181.08 14.1
-10 -4 -16 224.58 13.7
-10 4 16 203.98 15.2
-10 -5 16 33.5 6.1
-10 -5 16 35.2 6.3
-10 5 -16 40.8 8.1
10 5 16 32.2 5.4
-10 5 16 31.9 7.6
-10 -5 -16 52.29 8.1
-10 6 -16 162.58 13.6
10 6 16 127.29 9.4
-10 -6 16 149.39 10.7
-10 6 16 126.19 18
-10 -6 -16 133.89 11.1
10 7 16 2.8 2.8
-10 -7 16 0.4 3.9
-10 7 -16 -1.6 3.1
-10 7 16 1.2 4.1
-10 -7 -16 3.6 3.8
-10 -8 16 45.3 7.3
10 8 16 35.3 6.1
-10 8 -16 47.6 8.8
-10 -8 -16 34.2 7.3
-10 8 16 36.5 9.4
-10 9 -16 25.6 7.8
10 9 16 26.7 5.8
-10 -9 16 31.6 6.8
-10 9 16 41.3 9.6
-10 -9 -16 40.4 7.7
-10 9 16 47.6 10.4
11 0 16 80.39 8.1
-11 0 16 77.59 8.5
-11 0 -16 84.39 9.3
-11 1 -16 -3.8 1.9
-11 -1 16 -3.4 1.2
11 1 16 -0.9 2.7
11 -1 16 -2.2 2.9
-11 1 16 5.1 3.1
-11 -1 -16 0.2 2.5
11 2 16 33.1 5.3
11 2 16 33.3 5.4
-11 -2 16 33.5 6.3
11 -2 16 41.7 7.7
-11 -2 -16 29.9 6.4
11 -2 16 39.3 8
-11 2 16 33.2 7.3
-11 3 -16 27.7 6.5
11 3 16 23.3 4.7
-11 -3 16 25.8 5.4
11 -3 16 17 4.9
-11 -3 -16 25.8 6.3
-11 3 16 28.7 6.7
-11 -4 16 3.8 2.4
-11 4 -16 -1.8 2.8
11 4 16 2.2 2.6
-11 -4 -16 -2.9 3.1
-11 4 16 -0.4 3.8
-11 -5 16 17.2 4.3
-11 5 -16 10.6 4.9
11 5 16 15 3.8
-11 -5 -16 11.4 4.4
-11 5 16 8.7 5.3
-11 -6 16 4 2.6
11 6 16 6.1 3
-11 6 -16 -0.5 3.6
-11 6 16 2.3 3.8
-11 -6 -16 4.5 3.8
-11 -7 16 6.9 3.5
11 7 16 11.3 3.6
-11 7 -16 8.1 4.6
-11 -7 -16 10.2 4.2
-11 7 16 7.2 4.8
-11 -8 16 22.1 5.3
-11 8 -16 7.9 4.5
11 8 16 8.3 3.7
-11 -8 -16 15.9 4.8
-11 8 16 13.8 6.7
-11 8 16 10.5 6.5
-12 0 -16 14.7 8.1
-12 0 16 10.1 4.4
12 0 16 12.8 4.7
12 0 16 5.9 4.2
12 1 16 109.99 8.4
-12 1 -16 111.49 11.2
-12 -1 16 137.89 10.8
-12 -1 -16 124.19 11.8
-12 1 16 121.69 11.1
12 -1 16 116.39 10.4
-12 -2 16 -0.4 2.5
12 2 16 2.2 2.2
-12 2 -16 -3.9 1.7
12 -2 16 -5 3.6
-12 -2 -16 2.8 3.2
-12 2 16 -1.8 3.2
-12 3 -16 31.4 7.4
-12 -3 16 24.5 5.2
12 3 16 16.1 4.2
-12 3 16 36.7 7.6
-12 -3 -16 13.8 4.8
-12 4 -16 2.2 3.5
12 4 16 2.7 2.2
-12 -4 16 0.4 2
-12 -4 -16 -4.9 2.9
-12 4 16 0 3.1
-12 -5 16 92.29 8.4
12 5 16 96.49 7.5
-12 5 -16 109.69 12.2
-12 -5 -16 88.69 9.6
-12 5 16 103.39 11.9
12 6 16 55.79 8.1
-12 -6 16 47.8 6.7
-12 6 -16 43.8 9.1
-12 -6 -16 56.19 8.5
-12 6 16 52.89 10.4
-12 -7 16 -5.8 3.4
-12 7 -16 -0.9 4.1
-12 -7 16 1.1 2.5
-12 -7 -16 -0.1 3.2
-12 7 16 8.5 4.6
-12 7 16 -2.8 3.9
-13 0 -16 123.79 12.4
-13 0 16 118.49 11.2
13 0 16 120.89 10.5
13 1 16 13.3 3.4
-13 1 -16 9.8 4.7
-13 -1 16 5.6 3.5
13 1 16 -0.5 3.2
-13 -1 -16 17.8 5.9
-13 1 16 9.1 4.1
13 -1 16 8 5
13 -1 16 -1.4 4.1
-13 -2 16 47.7 7.4
-13 2 -16 74.09 11.3
13 2 16 62.09 7.9
13 2 16 68.49 6.3
13 -2 16 63.69 8.6
13 -2 16 59.59 8.9
-13 -2 -16 81.69 9.5
-13 2 16 52.19 9.2
13 3 16 0.2 3.2
-13 -3 16 -1.4 2.2
13 3 16 4.9 2.5
-13 3 -16 3.6 3.8
-13 3 16 3.8 4.2
-13 -3 -16 0.1 3
-13 -4 16 7.2 3.3
13 4 16 2.7 2.5
-13 4 -16 6.8 5
13 5 16 8.7 2.9
-13 -5 16 4.1 3.2
-13 5 -16 7.1 4.8
-13 5 16 8.6 4.7
-14 0 -16 20.8 6.6
-14 0 16 19 5.8
14 0 16 34.9 6.8
14 1 16 92.99 7.2
14 1 16 94.49 9
-14 -1 16 75.79 8.5
-14 1 -16 79.89 12
-14 -1 -16 87.29 11.8
-14 1 16 81.69 10.9
14 -1 16 88.19 11.5
14 2 16 16.1 4.5
-14 2 -16 14.8 5.9
-14 -2 16 9.1 3.9
-14 -2 -16 11.2 4.8
14 -2 16 12.4 5.8
-14 2 16 4.9 4.2
0 0 17 5 2.7
0 0 -17 5.7 3.2
0 -1 17 1.3 2
0 1 -17 -2.9 1.2
0 -1 -17 -1.4 1.7
0 1 17 2.4 2.6
0 2 -17 668.73 21.8
0 -2 -17 712.23 23.7
0 -2 17 723.33 22.6
0 2 17 707.03 23.4
0 2 17 730.73 22.5
0 3 17 -1.4 1.9
0 3 17 -0.1 1.8
0 3 -17 0.4 1.8
0 -3 17 -0.7 2.1
0 4 17 114.69 9.9
0 4 17 129.89 9.7
0 -4 17 114.89 11.1
0 4 -17 114.59 8.9
0 5 17 -1.1 1.8
0 5 17 -2.5 1.8
0 -5 17 -2 2.1
0 5 -17 -1.3 1.9
0 -6 17 472.45 19.5
0 6 -17 472.85 17.8
0 6 17 464.65 18.4
0 6 17 506.55 22
0 7 -17 -0.7 2
0 7 17 -2.2 2.4
0 -7 17 5.3 3.2
0 8 17 45.1 8.6
0 8 -17 55.09 6.3
0 8 17 60.29 9.4
0 9 17 2.2 3.2
0 9 -17 0.1 2
0 9 17 -0.4 2.9
0 10 17 18.3 6.6
0 10 17 13.3 4.6
0 10 17 10.8 4.7
0 10 -17 7.7 3.1
0 11 17 -4.7 2.3
0 11 -17 4.2 2.4
0 11 17 -3.7 3.4
0 11 17 0.2 3.3
0 12 17 -6.4 2.8
0 12 17 -2.3 3.4
0 12 -17 -1.3 2.3
0 13 17 1.8 4.3
0 13 -17 -3.5 2.2
0 13 17 4.8 3.8
0 13 17 -2.4 5
1 0 17 -0.4 1.5
1 0 -17 2.5 2.4
-1 0 17 3 2.2
-1 0 -17 0.4 1.9
-1 1 -17 706.23 22.6
1 1 17 727.33 22.3
-1 -1 17 716.03 22.5
1 1 -17 730.63 22.8
1 -1 17 685.23 22.1
-1 -1 -17 664.63 22.3
-1 1 17 725.63 22.5
-1 -2 17 3.2 2.4
1 2 17 4 2.5
-1 2 -17 -0.5 2
1 2 17 4.5 2.9
1 2 -17 4.4 2.6
1 -2 17 5.2 2.8
-1 2 17 -0.8 1.7
-1 2 17 4.4 2.9
-1 -2 -17 2.5 2.9
1 3 17 568.64 21
-1 3 -17 571.24 20
-1 -3 17 547.15 19.7
1 3 17 546.75 19.3
-1 -3 -17 535.45 20.5
-1 3 17 554.34 19.9
1 -3 17 588.54 24.1
1 3 -17 535.35 19
-1 3 17 568.04 21.3
1 4 17 25.4 5.6
-1 4 -17 40.2 6.5
1 4 17 30.6 5.8
-1 -4 -17 25 5.5
-1 4 17 30.2 6
1 -4 17 33.4 6.1
1 4 -17 31.1 5.6
-1 4 17 33.8 6.3
-1 5 -17 25.2 5.3
-1 -5 17 20.1 4.7
1 5 17 25.1 5.1
1 5 17 30.5 6.3
1 -5 17 28.3 5.5
-1 5 17 26.2 5.8
1 5 -17 22.3 4.7
-1 -6 17 57.29 7.7
-1 6 -17 60.99 6.9
1 6 17 64.49 6.9
1 6 17 73.59 10.1
-1 6 17 50.09 8.6
1 -6 17 66.79 7.9
-1 6 17 59.99 8.2
1 6 -17 52.29 6.1
1 7 17 162.38 10.8
-1 -7 17 166.08 11.6
-1 7 -17 178.58 11.2
1 7 17 155.58 12.7
1 7 -17 167.78 10.2
-1 7 17 165.78 11.1
-1 7 17 202.88 14.8
1 8 17 2.5 3.4
-1 8 -17 -2.5 2
1 8 17 0.6 3
-1 8 17 -4.7 2.6
-1 8 17 9.9 4.6
1 8 -17 3 2.3
-1 9 -17 14.6 4.4
1 9 17 8 4.6
1 9 17 10.4 4.2
-1 9 17 10.5 5.4
1 9 -17 11.3 3.3
-1 9 17 4.1 3.8
1 10 17 46.4 6.9
1 10 17 29.8 6.2
-1 10 -17 38.3 6
-1 10 17 34.7 7.2
1 10 -17 33.8 5.2
-1 10 17 32.4 8.5
1 11 17 137.19 10.2
1 11 17 159.48 15.1
-1 11 -17 161.38 10.6
1 11 17 130.89 9.8
-1 11 17 134.29 11.2
-1 11 17 135.09 14.6
1 12 17 82.29 8.2
1 12 17 73.09 7.7
1 12 17 82.49 13.3
-1 12 -17 68.79 7.1
-1 12 17 64.29 12.2
-1 12 17 67.19 9.6
1 13 17 24.4 4.7
1 13 17 35.1 9.4
-1 13 -17 23.9 4.7
1 13 17 15.1 4.9
-1 13 17 21.9 7.9
2 0 17 -0.6 1.9
-2 0 17 -1.2 2.1
-2 0 -17 1.8 2.3
-2 1 -17 5.9 3.1
-2 -1 17 7.9 3.4
2 1 17 3.4 2.5
-2 1 17 3.9 2.7
-2 -1 -17 6.1 3.1
2 -1 17 1.7 2.8
-2 1 17 2.5 3
2 2 17 441.36 17.3
-2 -2 17 416.56 17.2
2 2 17 457.85 18.4
-2 2 -17 447.96 17.9
-2 -2 -17 452.55 18.5
-2 2 17 449.66 17.9
-2 2 17 431.96 18.4
2 -2 17 446.36 17.9
-2 3 -17 1.4 2
2 3 17 2 2.2
-2 -3 17 -0.5 1.8
2 3 17 1.5 2
-2 -3 -17 0.9 2.1
-2 3 17 1.7 2.3
-2 3 17 0.1 2.7
-2 -4 17 4.9 4.1
-2 4 -17 -2 1.4
2 4 17 0.2 2.2
2 4 17 -2.1 1.4
2 -4 17 1.6 2.2
-2 4 17 -0.7 1.9
-2 4 17 -0.6 2.2
-2 -4 -17 -0.9 1.5
-2 -5 17 -1.1 1.3
2 5 17 -3.6 1.4
-2 5 -17 -1 1.7
-2 -5 -17 2.4 2.7
2 -5 17 -1.5 2.4
-2 5 17 1.1 2.4
-2 5 17 2.5 2.6
-2 6 -17 -0.4 2.8
-2 -6 17 3.3 3.2
2 6 17 3.6 3.1
2 6 17 2.4 2.7
2 -6 17 1.9 3.3
-2 6 17 8.7 3.3
-2 6 17 5.6 3.4
-2 -7 17 245.58 13.8
-2 7 -17 222.18 13
2 7 17 223.88 15
2 7 17 229.58 12.4
-2 7 17 251.07 16.6
-2 7 17 227.68 13.6
-2 8 -17 15.3 4.9
2 8 17 12.1 3.9
2 8 17 15.8 5.4
-2 8 17 20.1 6.1
-2 8 17 15.6 4.4
-2 9 -17 7.7 3.6
2 9 17 0.2 2.9
2 9 17 0.2 3.2
-2 9 17 9.8 6.1
2 10 17 19.6 4.6
2 10 17 18.7 4.8
2 10 17 29 7.8
-2 10 -17 19.9 5
-2 10 17 21.9 7.5
2 11 17 16.4 6.3
2 11 17 17.7 4.3
2 11 17 12.7 4.1
-2 11 -17 15.3 4.3
-2 11 17 9.1 4.7
-2 11 17 9.9 6.2
2 12 17 8.9 3.5
-2 12 -17 8.3 3.9
2 12 17 8 3.5
2 12 17 9.9 5.5
-2 12 17 14.8 6.1
-2 12 17 -0.5 3.2
-2 13 -17 1 3
2 13 17 5.3 4.4
2 13 17 3.8 2.6
-2 13 17 -5.7 3.9
-2 13 17 5.6 4.3
-3 0 -17 0 2
-3 0 17 -0.5 2.2
3 0 17 -0.7 2
3 1 17 0.9 2.2
-3 -1 17 -0.4 1.6
-3 1 -17 0.1 2
-3 -1 -17 1.9 2.4
-3 1 17 -0.2 2.4
3 -1 17 -1.7 1.8
-3 1 17 4.7 2.7
3 2 17 210.28 11.8
-3 2 -17 220.88 12.8
-3 -2 17 231.98 12.8
3 -2 17 210.38 14.3
-3 2 17 228.28 13.5
-3 -2 -17 215.48 12.7
-3 -3 17 14.1 4.1
3 3 17 13.9 3.7
3 3 17 10.1 3.6
-3 3 -17 10.9 3.8
3 -3 17 10.9 4.6
-3 -3 -17 14.1 4.1
-3 3 17 13.7 4.4
-3 3 17 12.1 3.6
3 4 17 130.79 10
-3 4 -17 153.88 10.8
3 4 17 131.89 9.3
-3 4 17 122.19 10.7
-3 4 17 132.69 10.3
-3 -4 -17 117.89 9.9
3 5 17 75.69 8.3
-3 -5 17 87.59 8.3
3 5 17 77.99 7.3
-3 5 -17 99.39 9
-3 5 17 87.69 8.5
-3 -5 -17 100.19 9.1
-3 5 17 105.59 10.3
-3 6 -17 701.93 23.8
3 6 17 676.03 24.7
3 6 17 685.63 21
-3 -6 17 690.13 22.7
-3 6 17 706.73 24.5
-3 6 17 754.22 28.4
-3 -6 -17 697.63 24.8
3 7 17 52.39 8.7
3 7 17 55.09 6.1
-3 7 -17 56.09 8.3
-3 -7 17 57.29 7.8
-3 7 17 40.9 8.1
3 8 17 245.18 12.2
3 8 17 280.97 17
-3 8 -17 306.67 15.9
-3 8 17 238.98 17.1
-3 9 -17 154.98 11.7
3 9 17 147.09 9.4
3 9 17 138.69 12.8
-3 9 17 136.79 13.7
3 10 17 103.79 7.9
3 10 17 97.09 11.3
3 10 17 97.59 7.8
-3 10 -17 103.39 9.5
-3 10 17 83.89 12.9
3 11 17 0.5 4.1
3 11 17 4.3 2.6
-3 11 -17 6.3 3.4
3 11 17 3.9 3
-3 11 17 0.4 3.9
-3 12 -17 107.69 10
3 12 17 85.19 6.4
3 12 17 74.79 5.6
3 12 17 84.09 13.3
-3 12 17 96.79 10.7
-3 12 17 88.19 14.4
3 13 17 46.8 10
-3 13 -17 48.9 7.7
-3 13 17 58.29 12.1
-3 13 17 46.1 8.5
4 0 17 -1.4 1.7
-4 0 17 -1.5 1.3
-4 0 -17 -1.2 1.6
4 1 17 75.09 7.5
-4 1 -17 70.29 7.6
-4 -1 17 71.79 8.4
4 -1 17 56.39 7.8
-4 1 17 69.99 7.7
-4 -1 -17 74.49 7.6
-4 1 17 58.69 6.9
-4 2 -17 353.16 16.5
-4 -2 17 329.27 15.4
4 2 17 341.17 15
-4 -2 -17 325.27 15.7
-4 2 17 323.57 15.7
-4 2 17 343.37 16.7
4 3 17 76.49 7.1
4 3 17 81.79 8
-4 -3 17 66.39 9.2
-4 3 -17 78.39 8
-4 -3 -17 73.79 7.6
4 -3 17 73.59 8
-4 3 17 85.39 9
4 4 17 20.9 4.5
4 4 17 11.1 4.1
-4 4 -17 14.7 4.5
-4 4 17 19.2 5.5
-4 -4 -17 15.2 4.3
4 -4 17 7.6 3.6
4 5 17 88.89 7.6
-4 -5 17 77.39 7.8
-4 5 -17 73.59 8.2
4 5 17 89.59 8.9
-4 -5 -17 93.99 8.8
-4 5 17 79.09 9.3
-4 5 17 88.99 8.7
4 6 17 -1.4 1.9
4 6 17 5.5 3.4
-4 -6 17 2.5 2.6
-4 6 -17 2.5 2.5
-4 -6 -17 4.1 2.9
-4 6 17 6.5 3.5
-4 -7 17 164.38 11.1
4 7 17 173.68 10
4 7 17 164.98 12.7
-4 7 -17 136.79 11.1
-4 7 17 155.88 13.7
-4 -7 -17 174.48 12.5
4 8 17 24.3 4.5
-4 8 -17 20.3 5.2
4 8 17 14.7 5.2
-4 -8 17 11.2 4.7
-4 8 17 17.2 5.6
4 9 17 66.09 10.4
4 9 17 75.79 6.5
4 9 17 77.09 6.4
-4 9 -17 77.99 9
-4 9 17 51.99 9.9
-4 10 -17 4.1 3.6
4 10 17 5.8 4.1
4 10 17 6.8 3.9
4 10 17 -2 2.3
-4 10 17 5.5 4.5
4 11 17 240.58 8.3
4 11 17 239.38 8.1
4 11 17 232.18 17.5
-4 11 -17 232.28 15.1
-4 11 17 271.47 17.6
-4 11 17 246.38 19.8
4 12 17 51.99 10.4
-4 12 -17 44.1 7.8
-4 12 17 46.8 10.6
-4 12 17 47.7 9.4
-5 0 17 -1.4 1.7
5 0 17 2.6 2.2
-5 0 17 1.6 1.9
-5 0 -17 0.8 1.7
5 1 17 133.69 9.6
-5 -1 17 139.99 10.1
-5 1 -17 144.29 10.6
5 -1 17 137.59 10.2
-5 -1 -17 144.39 10.6
-5 1 17 130.19 10.3
-5 1 17 133.49 10.1
-5 -2 17 34.5 7
5 2 17 48.4 7.1
-5 2 -17 40.3 6.8
-5 2 17 39.4 6.8
-5 2 17 44.4 7.3
5 -2 17 37 6.6
-5 -2 -17 31.3 6.2
-5 -3 17 18.7 5.3
5 3 17 19.6 4.4
5 3 17 19.7 4.6
-5 3 -17 23.8 5.6
-5 -3 -17 11.5 4.1
5 -3 17 14.8 4.4
-5 3 17 20.2 5.2
-5 -4 17 53.19 8.5
-5 4 -17 51.19 7.8
5 4 17 48.2 7.4
5 4 17 41.3 6.3
-5 -4 -17 39.4 6.9
-5 4 17 53.99 8.5
5 -4 17 42.8 7.3
-5 5 -17 -1.1 2.1
-5 -5 17 1.8 2
5 5 17 -1.4 2.3
5 5 17 -0.7 2
-5 -5 -17 0.1 1.9
-5 5 17 2.4 2.6
5 6 17 111.89 10.2
-5 -6 17 144.49 10.2
5 6 17 131.49 8.6
-5 6 -17 126.29 10.7
-5 6 17 112.39 11.6
-5 -6 -17 137.79 11
5 7 17 -2.3 2.1
-5 -7 17 0.8 2.9
-5 7 -17 -2.1 2.3
5 7 17 -4.2 1.7
-5 7 17 2.8 3.3
-5 -7 -17 -0.9 2.2
-5 8 -17 72.29 10
-5 -8 17 58.99 8.1
5 8 17 68.59 10
-5 8 17 78.89 19.3
-5 -8 -17 72.29 9.9
5 9 17 27.5 4.1
5 9 17 21.4 6.2
-5 9 -17 25.5 6.9
5 9 17 27.7 3.9
-5 9 17 21.1 6.9
5 10 17 176.28 5.6
-5 10 -17 150.38 15
5 10 17 168.98 5.4
5 10 17 167.88 14
-5 10 17 184.18 15.2
-5 10 17 188.48 17.5
-5 11 17 140.49 13.3
-5 11 17 134.39 15.7
-5 12 -17 11.3 4.9
5 12 17 11.6 6.2
-5 12 17 18.2 6.6
-5 12 17 17.7 6.7
6 0 17 0 2.6
-6 0 17 2.4 2.3
-6 0 -17 2.6 2.5
-6 0 17 0 1.8
-6 1 -17 33.7 6.6
6 1 17 30.4 5.4
-6 -1 17 21.3 5.3
-6 -1 17 21.5 5.4
-6 1 17 19.7 5.1
-6 1 17 37.7 6.7
-6 -1 -17 21 5.2
-6 -2 17 179.18 11.5
6 2 17 175.38 10.8
-6 2 -17 166.28 11.9
6 -2 17 185.78 12.2
-6 2 17 172.68 12.3
-6 -2 -17 168.28 11.5
-6 2 17 175.38 12.2
-6 -3 17 4.7 2.6
6 3 17 0.8 2.3
6 3 17 2.2 2.3
-6 3 -17 -3 1.9
-6 3 17 3.6 2.8
-6 -3 -17 4.3 2.7
6 -3 17 0.9 3.3
-6 4 -17 53.89 8.6
6 4 17 56.49 6.6
-6 -4 17 56.49 7.6
6 4 17 42.8 6.1
-6 -4 -17 51.49 7.9
-6 4 17 36.7 7.6
-6 -5 17 35.2 6.1
6 5 17 44.5 5.9
-6 5 -17 40.2 7.4
6 5 17 22.7 5.2
-6 5 17 43.5 8.4
-6 -5 -17 21.9 5.5
-6 6 -17 105.79 10.1
-6 -6 17 105.89 8.9
6 6 17 109.29 7.5
6 6 17 107.19 9.8
-6 6 17 112.69 11.8
-6 -6 -17 107.89 9.7
-6 -7 17 244.48 13.5
6 7 17 255.07 10.7
-6 7 -17 239.88 15.1
6 7 17 251.57 15
-6 7 17 283.77 18.7
-6 -7 -17 247.18 14.8
-6 8 -17 1 3
6 8 17 -1.2 1.5
6 8 17 -0.7 1.8
6 8 17 -0.9 2.9
-6 -8 17 0.1 3.1
-6 -8 -17 -0.2 2.8
-6 8 17 4.3 4.1
6 9 17 -3.8 3
-6 9 -17 -1.1 2.8
-6 9 17 -3.4 3.3
-6 10 -17 13 5.2
6 10 17 -2.1 3.4
-6 10 17 9.7 5.1
-6 10 17 10.7 6
6 11 17 35.6 9.3
-6 11 -17 49.2 8.9
-6 11 17 29.7 7.6
-6 11 17 34.1 9.7
-6 12 -17 20.4 6.2
6 12 17 19.8 6.3
-6 12 17 16 7.2
-6 12 17 25.6 7.6
7 0 17 -2.5 2.6
-7 0 -17 -2 2.2
-7 0 17 0.9 2.5
-7 0 17 -3 1.7
7 1 17 237.68 13.1
-7 -1 17 207.88 12.7
-7 -1 17 218.48 13.1
-7 1 -17 235.78 14.1
7 -1 17 219.88 13.5
-7 1 17 221.78 15.9
-7 -1 -17 220.18 13.5
-7 1 17 194.98 13
-7 -2 17 9.9 3.8
7 2 17 4.7 3
-7 -2 17 10.6 3.6
-7 2 17 4.8 3
-7 -2 -17 13.9 4.4
7 -2 17 10.7 3.8
7 3 17 179.58 10.7
-7 -3 17 182.58 11.6
-7 3 -17 182.18 12.8
7 3 17 206.98 12.2
7 -3 17 181.88 12.9
-7 3 17 218.98 14.5
-7 -3 -17 177.38 12
7 4 17 639.64 19.4
7 4 17 569.44 20.5
-7 4 -17 594.74 23.5
-7 -4 17 594.64 21.3
-7 4 17 618.54 25.5
-7 -4 -17 618.74 22.8
7 5 17 90.19 8.3
7 5 17 101.39 7.3
-7 -5 17 94.99 8.5
-7 5 -17 91.09 9.6
-7 -5 -17 96.69 9.1
-7 5 17 90.89 10.6
-7 6 -17 -2.3 2.5
-7 -6 17 4 3.1
7 6 17 1.7 2.4
7 6 17 1.6 2.5
-7 -6 -17 4.6 3.6
-7 6 17 2.4 3
7 7 17 94.69 5.5
-7 -7 17 98.59 9.3
7 7 17 110.89 10
-7 7 17 84.79 19.6
-7 -7 -17 96.29 9.3
7 8 17 2.7 3.5
-7 8 -17 1.2 2.6
-7 8 17 2.7 3.6
-7 -8 -17 -1.2 2.6
7 9 17 50.69 8.4
-7 9 -17 42.3 8.5
-7 9 17 54.19 10.9
-7 -9 -17 45 8.2
-7 10 -17 60.99 10.1
7 10 17 58.09 9.4
-7 10 17 50.49 10
-7 10 17 65.59 12.4
7 11 17 57.39 10.2
-7 11 -17 37.5 7.8
-7 11 17 26.5 8.7
-7 11 17 18.6 6.9
-8 0 -17 0.7 2.4
-8 0 17 -2.1 2
8 0 17 -5 2.6
-8 1 -17 2.2 2.8
-8 -1 17 -0.7 3.5
-8 -1 17 1.9 2.5
8 1 17 4 2.8
8 -1 17 -2.6 2.6
-8 -1 -17 3.1 3.1
-8 1 17 -0.1 2.6
-8 -2 17 185.08 12.2
8 2 17 189.78 11.3
-8 -2 17 177.88 12
-8 2 -17 191.38 13.2
8 -2 17 182.08 12.5
-8 2 17 207.98 14
-8 -2 -17 168.68 12.2
-8 3 -17 3.8 3.9
-8 -3 17 15.7 4.3
-8 -3 17 13.2 4.5
8 3 17 11.8 3.8
8 3 17 10.6 3.7
-8 3 17 4.9 3.7
-8 -3 -17 17.7 5.1
-8 -4 17 9.9 3.5
8 4 17 11.4 3.6
-8 4 -17 12.8 4.3
8 4 17 7.8 3.4
-8 -4 -17 11.4 4.3
-8 4 17 10.5 4.7
8 5 17 42.9 7
8 5 17 46 5.6
-8 5 -17 43 8.2
-8 -5 17 38.4 6.8
-8 -5 -17 44.6 7.5
-8 5 17 40.1 8.3
8 6 17 336.17 10.1
-8 6 -17 366.16 20
8 6 17 375.96 17.1
-8 -6 17 331.87 16.2
-8 6 17 358.56 21.4
-8 -6 -17 347.87 17.4
-8 -7 17 2.9 3.8
8 7 17 -3.9 2.2
-8 7 -17 2.5 3.3
-8 -7 -17 2.8 3.2
-8 7 17 9.2 4.3
8 8 17 33.4 6.9
-8 8 -17 23.3 6.5
-8 -8 -17 30.4 6.7
-8 8 17 25.9 7.5
8 9 17 9.3 4.2
-8 9 -17 20.8 6.6
-8 -9 -17 14.7 5.6
-8 9 17 20.8 7.5
-8 10 -17 0.2 3
8 10 17 -6.1 3.1
-8 10 17 15 6.1
-8 10 17 -2.3 3.5
-9 0 -17 6.4 3.5
-9 0 17 0.1 2.3
9 0 17 -3.4 3
9 1 17 50.09 7.3
-9 1 -17 52.79 8.3
-9 -1 17 66.79 7.8
-9 -1 -17 60.29 9.1
-9 1 17 72.49 8.4
9 -1 17 67.49 9.2
9 2 17 27.5 5.1
-9 2 -17 36.5 7.2
9 2 17 36.7 6
-9 -2 17 38 6.5
-9 -2 -17 37.7 7.2
9 -2 17 35.2 7.4
-9 2 17 45.2 8
-9 -3 17 3.1 2.8
-9 3 -17 4 3.3
9 3 17 -0.6 2.1
9 3 17 1.8 2.5
-9 -3 -17 3.7 3.2
-9 3 17 -2.4 2.1
9 4 17 36.8 6.2
-9 -4 17 44.7 7
-9 4 17 35.7 7.8
-9 -4 -17 36.6 7.4
-9 5 -17 255.57 16.5
9 5 17 283.97 14.3
9 5 17 274.87 9.4
-9 -5 -17 303.67 16.4
-9 5 17 286.47 18.6
-9 6 -17 4.4 3.7
9 6 17 0.8 2.3
-9 6 17 5.1 4.2
-9 -6 -17 10.6 4.3
-9 7 -17 32 7.4
9 7 17 31.2 6.2
-9 -7 -17 43.5 7.5
-9 7 17 38.9 8.6
-9 8 -17 30.5 7.3
9 8 17 31 6.5
-9 8 17 28.8 8
-9 -8 -17 27.4 6.4
-9 9 -17 7.2 4.3
9 9 17 3.9 3.5
-9 9 17 3.1 4
-9 -9 -17 9.8 4.4
-9 9 17 10.4 5.5
-9 10 -17 8.8 4.8
9 10 17 21.1 5.8
-9 10 17 9.6 5.5
-9 -10 -17 17.2 5.3
-9 10 17 14.9 7.1
-10 0 -17 -0.4 2.6
10 0 17 -1.6 2.7
-10 0 17 -2.6 2.3
10 1 17 39.4 6.7
-10 1 -17 57.69 9.1
-10 -1 17 39.6 7.2
-10 -1 -17 34.8 7.1
-10 1 17 39 7.5
10 -1 17 30.5 6.4
-10 2 -17 360.86 19.7
10 2 17 348.87 14.9
10 2 17 379.26 16
-10 -2 17 365.56 17.4
-10 -2 -17 372.46 18.6
-10 2 17 366.76 19.4
10 -2 17 320.27 18.1
-10 3 -17 312.77 18.1
-10 -3 17 310.67 15.7
10 3 17 315.47 12.9
10 3 17 317.37 14.6
-10 3 17 310.47 18.5
-10 -3 -17 322.47 17.2
-10 4 -17 -1.9 2.7
-10 -4 17 1 2.3
10 4 17 -0.2 2
10 4 17 0.9 2.3
-10 4 17 4.1 3.8
-10 -4 -17 -3.3 2.4
-10 5 -17 9.5 4.6
-10 -5 17 6.4 3.3
10 5 17 13 3.8
-10 -5 -17 7.3 3.9
10 6 17 2.3 2.7
-10 -6 17 4.5 3.1
-10 6 -17 -1.9 3.2
-10 -6 -17 3.3 3.8
-10 6 17 0.4 3.3
-10 7 -17 16.8 6
10 7 17 14.6 3.8
-10 7 17 20.7 6.8
-10 -7 -17 1.9 3.5
-10 8 -17 3.8 3.5
10 8 17 1.3 2.8
-10 8 17 -2.8 3.5
-10 -8 -17 -1.8 2.4
10 9 17 44.4 7.7
-10 9 -17 23.7 7.1
-10 9 17 28.9 8.9
-10 9 17 42 9.2
-10 -9 -17 26.4 6.5
11 0 17 -3.7 2.6
-11 0 17 4.2 3
-11 0 -17 2.2 3.4
-11 1 -17 1 3.2
-11 -1 17 -1.4 2.3
11 1 17 4.4 3.4
-11 1 17 -0.1 2.7
-11 -1 -17 -0.9 2.5
11 -1 17 0.5 3.9
11 2 17 69.39 7.3
11 2 17 88.29 7.6
-11 -2 17 72.69 8.1
-11 2 -17 77.09 11.1
-11 2 17 70.29 10.2
11 -2 17 90.49 10.6
-11 -2 -17 75.59 10.6
11 3 17 7.5 2.8
-11 3 -17 23 6.4
-11 -3 17 9.6 3.7
11 3 17 11.1 3.5
-11 3 17 13.4 5.5
-11 -3 -17 17.3 5.5
11 4 17 9.7 3.4
-11 -4 17 10 4.1
-11 4 -17 7.1 4.4
-11 -4 -17 5.1 3.7
-11 4 17 7.3 4.9
-11 -5 17 82.59 8.2
11 5 17 77.99 7.5
-11 5 -17 73.09 11.1
-11 -5 -17 86.29 9.5
-11 5 17 74.39 11.7
11 6 17 49.4 7.3
-11 -6 17 35.7 6.3
-11 6 -17 43.4 8.9
-11 6 17 38.5 9.2
-11 -6 -17 28.1 6.6
11 7 17 8.9 2.8
-11 -7 17 5 3.3
-11 7 -17 6.3 5.1
-11 7 17 4.2 4.9
-11 -7 -17 2 3.5
-11 -8 17 93.49 10.9
-11 8 -17 82.79 12.6
11 8 17 106.09 9.3
-11 8 17 121.19 16.6
-11 -8 -17 130.69 11.9
-11 8 17 133.29 14.7
-12 0 17 -4.1 2.1
12 0 17 -2 3.7
-12 0 -17 -0.3 3
12 0 17 -1.7 4.2
-12 1 -17 13.9 5.4
12 1 17 4.5 3.6
-12 -1 17 6.6 4.4
-12 -1 -17 1.5 3.6
12 -1 17 17.3 4.8
-12 1 17 8.7 4.9
12 -1 17 7.7 4.8
-12 2 -17 7 4.9
-12 -2 17 8 3.5
12 2 17 3.5 2.7
-12 2 17 0.4 3.7
12 -2 17 0.9 3.9
-12 -2 -17 9.3 5
-12 -3 17 112.39 9.9
-12 3 -17 128.79 12.5
12 3 17 110.49 8.5
-12 3 17 111.89 11.7
-12 -4 17 4.5 3
12 4 17 3.4 2.2
-12 4 -17 2.2 4.2
-12 4 17 10.4 5.2
-12 5 -17 3.4 3.7
12 5 17 -1.3 2.3
-12 -5 17 -1.7 2.4
-12 5 17 3.7 4.2
-12 -5 -17 11 6.3
-12 6 -17 26.5 7.3
-12 -6 17 26.6 5.6
-12 6 17 28.5 8.3
13 0 17 5.5 4.5
-13 0 17 -5.7 2.8
-13 0 -17 0.2 3.1
-13 1 -17 1.3 3.6
-13 -1 17 0.2 2.9
13 1 17 6.1 4
13 1 17 0.8 2.2
-13 1 17 -0.6 3.4
13 -1 17 -3.3 4.4
-13 -1 -17 -4.5 2.8
13 -1 17 3.1 4.8
13 2 17 7.7 4.7
13 2 17 9.7 2.9
-13 2 -17 7.6 4
-13 -2 17 18.4 4.7
-13 2 17 7.1 4.5
-13 -2 -17 18.9 5.9
-13 -3 17 -6 2.3
13 3 17 -2.3 2.2
13 3 17 6.3 3.8
-13 3 -17 -0.1 3.6
-13 -3 -17 -3.5 3.2
13 4 17 305.77 13
-13 -4 17 315.87 15.5
-13 4 -17 323.17 20.5
-13 4 17 316.77 20.2
0 0 -18 444.46 18.4
0 1 -18 0.8 2.1
0 1 18 -2.3 1.8
0 -1 -18 -0.8 1.5
0 -2 18 85.49 8
0 -2 -18 77.99 8.2
0 2 -18 96.79 8.4
0 2 18 89.69 9.8
0 2 18 95.19 9
0 3 18 4.3 2.5
0 -3 18 0.3 2.8
0 3 -18 -0.6 1.8
0 4 -18 4.1 2.8
0 4 18 2.9 2.9
0 4 18 3.9 3.2
0 -4 18 1 2.3
0 5 18 -1.3 2.2
0 5 -18 0.6 2.1
0 5 18 3.1 2.6
0 -5 18 -5.2 1.9
0 6 18 21.4 5.9
0 6 18 35.2 6.4
0 6 -18 27.3 5.3
0 7 18 -0.7 2.7
0 7 18 9.1 3.4
0 7 -18 -1.2 1.8
0 8 18 731.83 29.3
0 8 18 660.03 23.3
0 8 -18 729.13 22.6
0 9 18 0.6 3.3
0 9 -18 -2.3 2
0 10 18 52.49 10.5
0 10 18 70.49 7.8
0 10 -18 64.59 6.9
0 11 18 3.1 4.2
0 11 -18 1.3 2.3
0 11 18 -3.7 3.4
0 12 18 5.7 4.8
0 12 -18 -2.3 1.9
0 12 18 -4 4.8
0 13 18 1.2 5
1 0 18 61.69 9.2
-1 0 -18 53.99 7.9
1 1 18 -3.1 1.9
-1 1 -18 4.3 2.5
-1 -1 18 2.7 3.1
-1 -1 -18 0.4 2.3
-1 1 18 0.5 1.9
1 1 -18 1 2.1
1 2 18 40.1 6.6
1 2 18 41.7 7
-1 2 -18 36.1 6.3
-1 -2 18 38.4 6.5
-1 2 18 45.5 7.1
1 -2 18 44.7 6.9
1 2 -18 40.4 6.6
-1 -2 -18 50.39 8.2
-1 2 18 36.5 7.4
-1 -3 18 365.06 16.6
-1 3 -18 382.96 16.8
1 3 18 368.36 16.1
1 3 18 364.36 17.3
-1 -3 -18 392.06 18.2
-1 3 18 400.06 18.4
1 3 -18 393.36 16.6
-1 3 18 398.16 17.3
1 -3 18 361.36 21.7
1 4 18 100.69 9.5
1 4 18 109.29 8.8
-1 -4 18 92.59 8.5
-1 4 -18 102.39 8.8
-1 4 18 117.39 9.6
-1 4 18 122.29 10.7
1 4 -18 102.99 8.6
1 -4 18 118.59 9.7
1 5 18 11.6 4.4
-1 5 -18 13.7 4.2
-1 -5 18 15.2 4.2
1 5 18 12.9 4.3
1 -5 18 13 4
1 5 -18 6.4 3.2
-1 5 18 7.2 3.5
-1 5 18 12.4 4.6
-1 -6 18 26 5.4
1 6 18 21.7 6
-1 6 -18 19.7 4.7
1 6 18 28.3 6.6
1 6 -18 19.1 4.6
-1 6 18 22.3 6.1
-1 6 18 23.5 5.2
-1 7 -18 197.28 12.1
1 7 18 211.98 15
1 7 -18 205.78 11.6
-1 7 18 194.68 14.7
-1 7 18 178.28 12.1
-1 8 -18 60.39 8.2
1 8 18 42.9 8.6
1 8 18 47.3 8.2
-1 8 18 53.89 8
-1 8 18 50.49 9.6
1 8 -18 60.99 6.3
1 9 18 5.9 3.6
1 9 18 4.8 3.3
-1 9 -18 2.4 2.7
-1 9 18 1.3 3.7
1 9 -18 1.3 2
1 10 18 69.29 7.9
1 10 18 52.49 8.7
1 10 18 72.39 11.7
-1 10 -18 73.29 8
-1 10 18 67.19 11.4
1 10 -18 64.09 6.4
1 11 18 111.99 15.2
1 11 18 107.49 9.7
-1 11 -18 107.89 9
-1 11 18 103.99 14.8
-1 11 18 122.99 11.2
1 12 18 23.5 6.7
1 12 18 27.1 8
1 12 18 23 5.6
-1 12 -18 29.1 5.5
-1 12 18 30 8.3
-1 12 18 27.3 6.2
-2 0 -18 1.1 2.2
-2 0 18 -1.6 1.9
2 0 18 6.7 3.3
-2 -1 18 1192.88 31.1
-2 1 -18 1215.78 31.5
2 1 18 1282.67 31.3
-2 1 18 1225.78 31.3
2 -1 18 1175.18 36.2
-2 -1 -18 1237.88 32.1
-2 1 18 1244.88 32.5
2 2 18 45.8 7.1
-2 2 -18 37.4 6.6
-2 -2 18 48.9 7.6
2 2 18 46.5 7.6
-2 2 18 39.1 6.6
-2 2 18 32.8 6.5
2 -2 18 42.1 6.7
-2 -2 -18 41 7.1
2 3 18 14.1 4.4
2 3 18 16.8 4.4
-2 -3 18 10.6 3.8
-2 3 -18 12.5 4.1
-2 -3 -18 15.4 4.4
-2 3 18 12.3 4.2
-2 3 18 13.4 4.2
2 4 18 -2.2 1.5
2 4 18 1.1 2.4
-2 -4 18 -2.5 2
-2 4 -18 1.4 2.1
-2 4 18 4.4 2.7
-2 -4 -18 4.2 2.7
-2 4 18 -1.4 1.9
-2 5 -18 5.8 2.9
2 5 18 -3.2 1.7
-2 -5 18 -3.5 1.8
2 5 18 -1.3 2.3
-2 5 18 -0.1 2.1
-2 -5 -18 0.8 2.5
-2 5 18 5.3 2.8
-2 -6 18 3.4 3.1
2 6 18 -1.4 2.3
2 6 18 4 3.1
-2 6 -18 6.5 3.3
-2 6 18 1.1 2.9
-2 6 18 -1.2 2.8
2 7 18 1.4 2.9
-2 7 -18 -3.8 2.1
2 7 18 2.5 2.8
-2 7 18 -1 2.8
2 8 18 296.27 14.6
-2 8 -18 286.17 15.2
2 8 18 295.47 18.2
-2 8 18 305.97 19.7
-2 9 -18 19.7 5
2 9 18 12.2 5.1
2 9 18 21.9 4.8
-2 9 18 21.8 6.9
2 10 18 141.09 13.7
2 10 18 134.29 10.1
2 10 18 166.58 11.2
-2 10 -18 153.58 11.2
-2 10 18 166.48 16
-2 11 -18 -1.4 2.8
2 11 18 1.9 2.7
2 11 18 2.5 3.4
2 11 18 0.8 3.8
-2 11 18 0.6 4.3
-2 11 18 -1 3.4
2 12 18 15.5 4.4
2 12 18 17.3 7.2
2 12 18 12.7 4.2
-2 12 -18 21.7 5.4
-2 12 18 5.4 6
-2 12 18 17.6 6
-3 0 -18 104.79 9.3
3 0 18 100.99 10.4
-3 0 18 118.39 9.8
3 1 18 154.68 10.7
-3 1 -18 138.69 10.5
-3 -1 18 147.99 10.7
-3 1 18 145.69 10.7
-3 1 18 130.99 10.4
-3 -1 -18 141.79 10.7
3 -1 18 127.99 10
-3 -2 18 581.74 20.9
-3 2 -18 572.04 21.3
3 2 18 549.95 19.8
3 2 18 584.64 21.3
-3 -2 -18 530.15 20.7
3 -2 18 574.34 21.3
-3 2 18 582.74 22.3
3 3 18 5.5 2.9
-3 -3 18 4.9 2.1
-3 3 -18 8.3 3.3
3 3 18 2.5 2.3
-3 -3 -18 4.1 2.9
-3 3 18 6.1 3
3 -3 18 2.3 2.9
-3 -4 18 3.2 2.3
3 4 18 2.9 2.1
3 4 18 2.4 2.6
-3 4 -18 4.1 2.7
-3 -4 -18 5.2 3.1
-3 4 18 1.8 2.4
-3 4 18 1.4 2.7
3 5 18 27.1 5.3
3 5 18 32.8 6.6
-3 5 -18 30.6 6.1
-3 -5 18 28.6 5.7
-3 5 18 18.7 5.1
-3 -5 -18 25.7 5.9
-3 5 18 26.3 6.6
3 6 18 105.19 10.3
-3 -6 18 95.89 8.9
3 6 18 122.99 9.2
-3 6 -18 123.69 10.1
-3 6 18 100.99 10.9
-3 -6 -18 94.19 9.6
3 7 18 44.5 6.5
-3 7 -18 54.49 8.2
3 7 18 35 7.3
-3 7 18 36.6 8.1
3 8 18 -2.2 2.7
-3 8 -18 5.9 3.3
3 8 18 4.3 3.1
-3 8 18 -0.5 6.6
3 9 18 93.79 10.7
3 9 18 63.59 6.9
-3 9 -18 80.09 8.8
-3 9 18 81.09 12.4
3 10 18 69.79 13
3 10 18 98.09 7.9
-3 10 -18 85.69 9
3 10 18 83.89 7.5
-3 10 18 130.09 14.3
3 11 18 -0.6 3.1
3 11 18 6.2 4
3 11 18 5 2.6
-3 11 18 2.1 4.1
-3 11 18 2.2 3.5
3 12 18 312.67 21.7
-3 12 18 283.97 22.2
-3 12 18 336.47 19.4
-4 0 -18 25.4 5.6
-4 0 18 26.5 5.9
-4 0 18 37.7 6.5
-4 1 -18 452.55 19.1
4 1 18 479.55 18.6
-4 -1 18 418.66 18
-4 -1 -18 447.46 19
4 -1 18 412.46 18.1
-4 1 18 445.86 19.3
-4 1 18 445.66 18.7
-4 2 -18 195.78 12.6
4 2 18 173.58 11.1
-4 -2 18 175.58 11.7
4 -2 18 162.88 11.6
-4 -2 -18 170.98 11.7
-4 2 18 174.78 12.3
-4 -3 18 120.19 9.7
4 3 18 120.99 9.1
-4 3 -18 129.19 10.3
4 3 18 112.19 9.5
-4 3 18 121.79 10.8
-4 -3 -18 137.99 10.6
4 -3 18 117.59 10
-4 4 -18 7.6 3.7
4 4 18 8.6 3.4
-4 -4 18 12.6 3.8
4 4 18 9.9 3.7
-4 4 18 21.8 5.7
-4 -4 -18 17.3 4.8
4 5 18 12 4
-4 -5 18 8.7 3.2
-4 5 -18 11.1 4.2
4 5 18 4 3
-4 -5 -18 11.2 4.2
-4 5 18 15.5 5
4 6 18 88.79 9.3
-4 6 -18 96.69 9.4
4 6 18 84.49 7.8
-4 -6 18 98.39 9
-4 6 18 104.89 11.3
-4 -6 -18 111.49 10.3
-4 7 -18 27.8 6.2
4 7 18 31 6.6
4 7 18 17.3 4.5
-4 7 18 28 7.4
-4 -7 -18 20 5.4
-4 8 -18 32.1 6.5
4 8 18 42 6.2
4 8 18 49.99 8.8
-4 8 18 63.09 11.1
4 9 18 -2.2 2.7
-4 9 -18 -3.1 2
4 9 18 1.5 2.5
-4 9 18 -3.1 3
-4 10 -18 14.9 4.5
4 10 18 9.7 3.8
4 10 18 19.3 3.8
-4 10 18 11.7 5.7
4 11 18 14 3.1
4 11 18 19.4 6.5
4 11 18 12.8 3
-4 11 -18 7.1 4.2
-4 11 18 9.9 5.8
4 12 18 3.7 4.4
-4 12 -18 17.8 5.8
-4 12 18 3.3 4.5
-4 12 18 15.2 6.4
-5 0 -18 31 6.1
-5 0 18 34 6.4
-5 0 18 38.5 6.8
-5 -1 18 143.99 10.9
5 1 18 168.18 11.3
-5 1 -18 151.48 11.3
-5 -1 18 171.28 11.3
-5 -1 -18 164.48 11.7
5 -1 18 165.38 11.4
-5 1 18 171.28 12.1
-5 1 18 167.08 11.8
-5 2 -18 14.5 4.4
-5 -2 18 6.8 3.9
5 2 18 7.5 3.7
-5 2 18 15.5 4.9
-5 -2 -18 14.7 4.4
5 -2 18 8 3.6
-5 -3 18 29.6 5.9
-5 3 -18 37.5 6.7
5 3 18 21.8 5.1
5 3 18 24.8 5.2
5 -3 18 22.3 5.4
-5 3 18 34.7 7.2
-5 -3 -18 22.5 5.4
5 4 18 100.09 9
-5 -4 18 95.79 8.5
5 4 18 92.29 8.1
-5 4 -18 83.89 8.8
-5 4 18 86.99 9.6
-5 -4 -18 83.79 8.6
-5 -5 18 1.1 2
5 5 18 -4.1 1.7
5 5 18 -2.4 2
-5 5 -18 3 2.6
-5 5 18 -2.6 1.6
-5 -5 -18 6.3 3.4
5 6 18 103.59 8.2
-5 6 -18 121.99 10.7
-5 -6 18 114.19 9.5
5 6 18 123.79 10.8
-5 -6 -18 121.99 10.6
-5 6 18 103.79 11.3
5 7 18 44.4 6.2
-5 7 -18 70.59 8.3
5 7 18 62.09 9.3
-5 7 18 60.99 12.2
-5 -7 -18 56.49 8.8
5 8 18 130.29 11.8
5 8 18 112.79 7.9
-5 8 -18 140.39 11.8
-5 -8 -18 148.29 12.1
-5 8 18 138.79 13.9
5 9 18 1 3.4
5 9 18 1 2.2
-5 9 -18 -5.5 2.3
-5 9 18 -1.1 3.3
5 10 18 10.5 2.5
-5 10 -18 4.2 3.9
5 10 18 16.4 5.4
5 10 18 5.2 2
-5 10 18 3.8 5.5
-5 11 -18 73.69 10.4
5 11 18 63.19 10.6
-5 11 18 51.39 11.5
-5 11 18 58.09 10.5
-5 12 -18 215.78 15
5 12 18 203.68 17.1
-5 12 18 199.78 19.1
-6 0 -18 -1 2.2
-6 0 18 0.4 3
6 0 18 4.8 2.7
-6 0 18 5.9 3.1
6 1 18 119.59 9.7
-6 -1 18 107.79 9.5
-6 1 -18 123.29 10.5
-6 -1 18 102.49 9.3
-6 1 18 117.09 10.3
6 -1 18 109.89 9.5
-6 -1 -18 116.89 10
-6 -2 18 26.3 5.5
-6 2 -18 27.4 6.1
6 2 18 31.8 6
6 -2 18 31.6 6.3
-6 2 18 29 6.3
-6 -2 -18 27.8 6.1
-6 3 -18 38.2 7.1
6 3 18 42.7 7
6 3 18 48 7
-6 -3 18 36.2 6.3
-6 -3 -18 28.1 6.3
-6 3 18 33.9 7
-6 -4 18 33.3 5.9
6 4 18 20.9 4.7
6 4 18 35.6 6.2
-6 4 -18 23 5.9
-6 -4 -18 26.7 6
-6 4 18 27.9 7
-6 -5 18 5.1 2.9
-6 5 -18 1 2.8
6 5 18 2.4 2.8
6 5 18 -3.2 2.2
-6 -5 -18 3.1 2.9
-6 5 18 0.8 2.7
-6 -6 18 17.8 5.9
6 6 18 27.1 6
6 6 18 21.2 4.3
-6 6 -18 20.1 5.7
-6 6 18 25.1 6.5
-6 -6 -18 27.1 6
-6 7 -18 40.8 8
6 7 18 42.2 7.8
6 7 18 48.6 6
-6 7 18 36.8 8
-6 -7 -18 51.59 8.2
6 8 18 272.37 16.8
6 8 18 256.57 10.1
-6 8 -18 269.67 16.6
-6 -8 -18 260.27 16.1
-6 8 18 263.17 19.4
6 9 18 9.6 2
6 9 18 7.5 4
6 9 18 7 1.9
-6 9 -18 9.7 5
-6 9 18 5.3 4.8
-6 10 -18 104.09 10.8
6 10 18 98.19 11.2
-6 10 18 101.49 11.9
-6 10 18 96.29 14.6
-6 11 -18 -2 3.5
-6 11 18 11 5.7
-6 11 18 14.8 6.2
-7 0 -18 87.79 8.9
7 0 18 82.59 8.3
-7 0 18 72.39 8.2
-7 1 -18 125.19 10.9
7 1 18 124.99 9.9
-7 -1 18 127.59 10.6
-7 -1 -18 122.39 10.4
7 -1 18 151.68 11.4
-7 1 18 122.79 10.7
-7 -2 18 1.5 2.6
-7 2 -18 12.8 4.5
7 2 18 5.3 3.4
-7 -2 18 5.9 4.2
7 -2 18 8.3 4.2
-7 -2 -18 5.8 3.2
-7 2 18 13.6 4.1
-7 -3 18 705.63 26.7
7 3 18 748.23 22.7
-7 3 -18 765.82 27
7 3 18 747.93 24.1
-7 -3 -18 724.53 25.3
-7 3 18 703.33 27
7 4 18 32.7 6.2
-7 4 -18 31.4 6.9
7 4 18 14.4 4.2
-7 -4 18 14.7 4.9
-7 -4 -18 23.8 5.9
-7 4 18 12 4.9
7 5 18 2.1 2.8
7 5 18 1.4 2.2
-7 5 -18 0.9 2.7
-7 -5 -18 1.4 2.9
-7 5 18 -4.6 2.8
7 6 18 10.8 4.2
7 6 18 10.1 3.3
-7 -6 -18 13.1 4.7
7 7 18 54.69 5.1
-7 7 -18 69.79 10.4
7 7 18 50.89 8.3
-7 -7 -18 56.39 9
-7 7 18 64.19 10.9
7 8 18 263.97 16.3
7 8 18 230.38 5.5
-7 -8 -18 251.27 15.9
-7 8 18 248.88 19.2
7 9 18 21.3 6
-7 9 -18 7.8 4.4
-7 9 18 14.4 7.2
-7 -9 -18 18.5 5.5
7 10 18 32.9 7.6
-7 10 -18 38.8 7.9
-7 10 18 69.89 12.6
-7 10 18 38 8.7
7 11 18 30.9 7
-7 11 -18 28.1 7.5
-7 11 18 12.7 6.9
-7 11 18 21.8 7.2
-8 0 -18 2.7 3.2
8 0 18 -1.1 2.5
-8 0 18 2.5 2.8
8 1 18 93.49 9
-8 1 -18 94.59 9.7
-8 -1 18 111.79 10
-8 -1 -18 108.79 10
-8 1 18 107.99 10.4
8 -1 18 109.89 10.2
8 2 18 16.1 4.4
-8 -2 18 20.2 5.3
-8 2 -18 28.9 6.4
8 2 18 23.2 5.2
-8 -2 -18 19.4 5.5
-8 2 18 24.4 6.1
-8 3 -18 8.2 3.8
8 3 18 -1.5 1.8
-8 -3 18 1.2 2.5
8 3 18 0.6 2.6
-8 3 18 4.4 2.8
-8 -3 -18 -1.4 2.5
-8 4 -18 2.4 2.9
8 4 18 -5.4 2.3
8 4 18 4 2.7
-8 -4 -18 5.4 3
-8 4 18 1.2 3.6
-8 5 -18 11.9 4.7
8 5 18 4.3 2.8
8 5 18 7.9 3.3
-8 5 18 6.9 4.7
-8 -5 -18 10.2 3.8
8 6 18 18.9 5
8 6 18 41.9 4.4
-8 6 -18 32 7.3
-8 6 18 33.1 8.3
-8 -6 -18 26.2 6.4
8 7 18 45.7 7.5
-8 7 -18 29.5 7.1
-8 -7 -18 39.3 7.4
-8 7 18 27.7 7.2
-8 8 -18 111.49 11.5
8 8 18 99.19 10.1
-8 -8 -18 86.89 9.9
-8 8 18 90.89 13.8
-8 9 -18 99.09 11
8 9 18 90.99 10.1
-8 -9 -18 109.69 11.1
-8 9 18 74.19 13.2
-8 10 -18 49.7 9.3
8 10 18 40.6 8.6
-8 10 18 43.2 8.8
-8 10 18 46.5 10.9
-9 0 18 20.9 5.5
-9 0 -18 18.3 5.6
9 0 18 11.1 4.3
-9 -1 18 277.57 15.8
-9 1 -18 269.97 16.3
9 1 18 238.08 13.5
-9 1 18 279.47 16.3
-9 -1 -18 257.87 15.7
9 -1 18 266.47 15
9 2 18 79.99 7.9
9 2 18 81.49 8
-9 2 -18 78.99 10.8
-9 -2 18 82.39 8.7
-9 -2 -18 84.69 9.3
-9 2 18 87.89 9.5
9 3 18 53.99 7.7
9 3 18 63.29 6.9
-9 -3 18 58.19 8.3
-9 -3 -18 56.69 8.6
-9 3 18 54.19 9.5
9 4 18 9.4 4
-9 -4 18 16.3 4.5
9 4 18 23.7 4.5
-9 4 -18 27.5 6.6
-9 -4 -18 21.3 5.4
-9 4 18 28.6 7.3
9 5 18 7.6 2.8
-9 5 -18 8.9 4.6
9 5 18 4.2 2.7
-9 5 18 14 6.9
-9 -5 -18 11 4.6
9 6 18 72.19 8.2
-9 6 -18 78.39 11.3
-9 6 18 68.19 11.4
-9 -6 -18 68.19 9.6
-9 7 -18 7.5 4.2
9 7 18 5.1 3
-9 7 18 5 4.5
-9 -7 -18 2.7 3.5
-9 8 -18 -3.5 2.7
9 8 18 7.7 4.1
-9 8 18 4.5 4.9
-9 -8 -18 2.7 2.8
-9 9 -18 29.6 7.1
9 9 18 42.5 7.9
-9 9 18 28.6 8.2
-10 0 -18 89.59 9.8
10 0 18 80.59 8.5
-10 0 18 75.89 10.4
-10 -1 18 3.2 3.3
10 1 18 0.1 3.1
10 -1 18 7.3 3.6
-10 1 18 -0.3 2.6
-10 -1 -18 5.6 3.9
10 2 18 192.88 11.9
-10 -2 18 218.48 14
-10 2 -18 216.38 15.2
10 2 18 224.28 13
-10 -2 -18 200.48 14.5
-10 2 18 221.58 15.7
-10 3 -18 6.3 4.6
10 3 18 0.3 2.9
10 3 18 4.6 3.2
-10 -3 18 7.2 3.4
-10 3 18 -1.6 3.2
-10 -3 -18 3.7 3.1
-10 4 -18 26.3 6.7
10 4 18 35.4 6.1
-10 -4 18 31.5 6.6
10 4 18 32.6 4.5
-10 4 18 27.2 8.4
-10 -4 -18 30.3 6.6
-10 -5 18 55.89 8.3
10 5 18 64.99 8.5
-10 5 -18 67.99 10.7
-10 5 18 53.39 10.4
-10 -5 -18 56.69 8.9
-10 -6 18 47.7 7.6
-10 6 -18 47.6 9.4
10 6 18 54.89 8.1
-10 -6 -18 46.7 8.2
-10 6 18 38.8 8.9
10 7 18 2.7 2.8
-10 7 -18 -2.2 2.6
-10 7 18 -5.3 3.6
-10 -7 -18 5.5 4.1
-10 8 -18 16.3 5.3
10 8 18 22.8 5.5
-10 8 18 26.8 7.9
-11 0 -18 60.79 9.9
-11 0 18 74.79 10.2
11 0 18 76.69 10.7
-11 1 -18 77.89 11.1
11 1 18 87.79 8.4
-11 -1 18 84.19 9.4
-11 -1 -18 72.49 10.6
-11 1 18 79.59 11
11 -1 18 59.39 9.4
-11 -2 18 36.8 6.9
-11 2 -18 30.7 7.3
11 2 18 28.1 5.5
11 2 18 31.5 6.1
-11 2 18 35.6 8
-11 3 -18 -0.7 3.7
-11 -3 18 8.9 3.9
11 3 18 11.2 3.7
-11 3 18 5.4 4.2
-11 -4 18 2.1 2.6
-11 4 -18 1.2 3.8
11 4 18 7.6 3.3
-11 4 18 2.6 4.2
-11 -4 -18 9 5.4
-11 -5 18 3 2.8
11 5 18 2.9 2.5
-11 5 -18 -4.8 3.1
-11 5 18 -2.1 3.2
-11 6 -18 44.8 9.3
-11 -6 18 53.39 8.1
11 6 18 58.29 8
-11 6 18 53.39 10.3
-11 -7 18 0.8 3.1
-11 7 -18 12.5 5.1
11 7 18 1.9 3.4
-11 -7 -18 5.2 4.3
-11 7 18 -0.2 3.7
-12 0 18 123.29 11.6
-12 0 -18 117.19 11.7
12 0 18 109.29 10.7
-12 -1 18 30.8 6.8
12 1 18 31 5.5
-12 1 -18 28.7 7
12 1 18 20.9 6.3
12 -1 18 34.6 8
-12 1 18 20.4 6.1
12 -1 18 23.1 6.2
-12 -1 -18 20.5 6.5
12 2 18 118.69 8.4
-12 2 -18 92.19 10.9
-12 -2 18 128.29 11.3
12 2 18 91.99 8.4
-12 2 18 123.69 12.2
-12 -2 -18 132.99 12.8
12 3 18 1.7 2.9
-12 -3 18 6.8 3.2
-12 3 -18 2.6 3.8
-12 -3 -18 6.1 4.7
-12 3 18 4 4.3
-12 -4 18 1.5 3.6
-12 4 -18 8.8 5.1
12 4 18 0.2 2.6
-12 -4 -18 3 3.2
-12 4 18 -4.6 3.2
-12 5 -18 11.5 5.2
-12 -5 18 10.4 4.1
12 5 18 3.9 2.9
-12 -5 -18 13.9 5.3
-12 5 18 -7.8 3.3
-13 0 18 125.59 11.9
13 0 18 110.89 11.3
13 0 18 108.49 10.6
-13 0 -18 111.99 12.1
-13 1 -18 4.5 4.1
-13 -1 18 -2.3 3.1
13 1 18 -0.2 2.7
13 -1 18 1.2 5.3
-13 -1 -18 -1.7 3.1
-13 1 18 -4.1 3.3
13 2 18 23.1 4.6
-13 -2 18 30.8 6.7
-13 2 -18 23 6.9
13 2 18 24.2 6.5
-13 -2 -18 23.8 6.5
13 3 18 -4.8 2.4
-13 -3 18 -1.5 2.5
-13 3 -18 -3.7 2.7
-13 -3 -18 -1.8 3.4
-13 3 18 -3.7 3.7
0 0 19 1.9 2
0 0 -19 -3.8 1.4
0 1 -19 -2.5 1.8
0 -1 -19 0.4 2.5
0 1 19 0.4 2.6
0 2 -19 184.78 12
0 2 19 160.98 11.9
0 2 19 184.68 11.9
0 3 19 1.8 2.2
0 -3 19 -1.6 2.2
0 3 19 0.4 2.5
0 3 -19 0.4 2.1
0 4 19 346.77 16.4
0 -4 19 306.37 16
0 4 19 337.57 17.7
0 4 -19 312.77 15.5
0 5 19 6.2 3.4
0 5 19 1.4 2.4
0 5 -19 -3.9 1.8
0 6 19 43.4 8.3
0 6 -19 47.5 7.2
0 6 19 41.8 6.7
0 7 -19 -1.2 1.7
0 7 19 -3.5 2.2
0 7 19 -0.5 2.8
0 8 19 143.29 13.4
0 8 -19 126.19 9.8
0 8 19 131.49 10.4
0 9 -19 -0.8 2.2
0 9 19 -0.1 3
0 10 -19 43.8 6.5
0 10 19 46.8 10.1
0 11 19 -2.6 4.4
0 11 19 0.6 3.8
0 11 -19 -5.4 2.3
0 12 19 10.8 5.3
0 12 -19 -1.5 2.1
0 12 19 2.8 3.5
-1 0 -19 -1.3 1.7
1 0 19 0.1 2.3
-1 1 -19 76.19 7.9
1 1 19 61.29 8.3
-1 -1 -19 75.79 8.2
1 1 -19 63.59 7.4
1 -1 19 68.79 7.4
-1 1 19 76.59 7.7
-1 1 19 74.49 8.3
-1 2 -19 61.79 7.2
1 2 19 58.29 8.7
1 2 19 44.5 7.1
-1 -2 19 63.19 7.1
1 2 -19 49.7 7.9
-1 2 19 53.09 7.7
-1 -2 -19 59.19 8.8
-1 2 19 67.79 7.8
1 3 19 0.4 2.5
-1 3 -19 -2.7 1.4
1 3 19 2.8 2.4
-1 -3 19 -1.7 2.1
-1 -3 -19 -0.4 2.1
1 3 -19 0.5 2
-1 3 19 1.4 2.4
-1 3 19 4.2 2.9
-1 4 -19 171.58 11.5
1 4 19 156.28 12
-1 -4 19 181.98 12.3
1 4 19 170.98 11.5
1 4 -19 161.48 10.9
-1 4 19 149.49 12.2
-1 4 19 169.98 11.8
-1 5 -19 263.47 14.6
1 5 19 270.57 14.3
1 5 19 258.87 15.9
1 5 -19 264.97 13.9
-1 5 19 263.17 16.4
-1 5 19 262.17 14.7
-1 6 -19 37.3 6.5
1 6 19 67.09 7.6
1 6 19 46.5 8.1
-1 6 19 50.99 9
-1 6 19 50.69 8.2
1 6 -19 47.4 6.9
1 7 19 78.49 8.1
-1 7 -19 67.59 7.8
1 7 19 68.59 10.2
1 7 -19 69.09 7
-1 7 19 78.69 11.4
1 8 19 95.79 8.9
-1 8 -19 104.29 9.6
1 8 19 99.59 11.3
1 8 -19 126.29 9.2
1 9 19 83.79 12.4
-1 9 -19 92.19 8.7
1 9 19 87.19 8.4
-1 9 19 62.79 11.3
1 9 -19 79.39 7.4
1 10 19 49.7 9.8
-1 10 -19 50.19 7.3
1 10 19 46.3 7.4
-1 10 19 50.89 10.2
1 11 19 235.38 14
1 11 19 218.88 18.2
1 11 19 204.48 13.3
-1 11 19 250.67 19.8
-1 11 19 218.08 14.9
1 12 19 14.4 6.5
1 12 19 13.9 4.6
1 12 19 15.7 5.6
-1 12 -19 10.5 4.2
-1 12 19 24 7.6
2 0 19 0.4 2
-2 0 -19 0 2.4
2 1 19 134.19 10.3
-2 1 -19 144.69 11
-2 -1 19 150.18 10.7
-2 -1 -19 129.89 10.6
-2 1 19 146.69 11.4
2 -1 19 145.69 10.6
2 2 19 63.79 8.8
2 2 19 56.59 7.8
-2 -2 19 58.29 8.3
-2 2 -19 44.9 7.4
-2 -2 -19 49.2 7.9
2 -2 19 68.89 10.5
-2 2 19 62.49 8.9
-2 3 -19 115.79 9.8
-2 -3 19 96.89 8.8
2 3 19 116.19 10.1
2 3 19 123.99 9.8
-2 -3 -19 101.09 9.6
-2 3 19 109.79 10.1
-2 3 19 108.79 9.6
-2 -4 19 99.79 9.2
-2 4 -19 112.69 9.8
2 4 19 96.59 8.5
2 4 19 112.89 10.1
-2 -4 -19 120.49 10.5
-2 4 19 86.19 9
-2 4 19 97.09 10.1
2 5 19 400.16 20.1
2 5 19 406.86 19.7
-2 5 -19 408.16 18.2
-2 5 19 432.26 21.3
2 6 19 2 3.3
2 6 19 -1.2 2.4
-2 6 -19 -1.1 2.3
-2 6 19 6.9 4.2
2 7 19 1.2 3.4
-2 7 -19 5.8 3.3
-2 7 19 7.7 4
2 8 19 9.2 4.9
-2 8 -19 11.1 4.3
-2 8 19 12.2 5.3
2 9 19 3.3 4.2
-2 9 -19 -3.8 2.4
-2 9 19 -0.7 3
2 10 19 141.89 13.8
-2 10 -19 175.88 12.3
2 10 19 138.39 10.5
-2 10 19 166.98 15.8
-2 11 -19 7.1 3.8
2 11 19 -1.7 2.2
2 11 19 -2.8 3.3
2 11 19 10.8 4.1
-2 11 19 5.1 4.2
-2 11 19 1 3.3
2 12 19 7.7 5.5
2 12 19 3 4.4
-2 12 -19 6.5 4.1
2 12 19 10.2 4
-2 12 19 4.6 5.3
-2 12 19 4.4 4.7
3 0 19 3 3.1
-3 0 19 -1.4 1.9
-3 0 -19 0.4 2.1
-3 0 19 0.9 2.3
-3 -1 19 30 6.1
-3 1 -19 30.9 6.2
3 1 19 30.7 6
3 -1 19 31.9 6.1
-3 1 19 29.5 6.1
-3 -1 -19 18.4 5.2
3 2 19 195.28 12.7
3 2 19 169.48 11.3
-3 -2 19 204.58 12.5
-3 2 -19 186.28 12.4
-3 -2 -19 194.88 13
3 -2 19 186.78 12.4
-3 2 19 212.28 13.9
-3 3 -19 68.09 7.8
-3 -3 19 63.49 8.6
3 3 19 65.79 7.7
-3 -3 -19 56.09 8.3
-3 3 19 60.89 9.1
-3 4 -19 2.8 2.5
3 4 19 -4.6 1.9
3 4 19 2.5 2.5
-3 -4 19 -3.4 1.8
-3 -4 -19 -0.5 2.1
-3 4 19 3.9 3.4
-3 5 -19 119.99 10.3
3 5 19 125.69 9.4
3 5 19 120.59 10.7
-3 -5 -19 125.39 11
-3 5 19 128.39 11.8
3 6 19 198.88 14.2
-3 6 -19 206.18 13.5
3 6 19 200.18 12.2
-3 -6 -19 212.68 14.4
-3 6 19 211.98 15.7
3 7 19 14.9 4.3
-3 7 -19 7.9 3.7
3 7 19 4.8 3.5
-3 7 19 4 3.9
3 8 19 8.7 4.9
-3 8 -19 12.3 4.2
3 8 19 21.2 4.6
-3 8 19 9.6 5.6
3 9 19 -1.6 2.6
-3 9 -19 0.6 2.7
-3 9 19 -6.3 2.3
3 10 19 19.1 4.5
3 10 19 29 7.4
3 10 19 33.5 5.5
-3 10 -19 29.4 6.1
-3 10 19 14.4 6.1
3 11 19 13.6 5.8
3 11 19 5.4 3.3
-3 11 -19 2.7 3.6
3 11 19 0.1 3.8
-3 11 19 15.7 5.4
-3 11 19 6.6 5
3 12 19 42.9 9.3
3 12 19 28.3 4.6
-3 12 -19 33.6 7.5
3 12 19 25.6 6.2
-3 12 19 27.2 8.7
-3 12 19 26.7 6.7
-4 0 -19 -1.3 2.3
-4 0 19 -0.6 2.4
4 0 19 -3.9 1.7
-4 0 19 1.4 2.1
4 1 19 104.09 9.6
-4 1 -19 114.29 10
-4 -1 19 119.49 9.9
-4 1 19 105.09 10
-4 -1 -19 103.59 9.7
4 -1 19 111.49 9.9
-4 -2 19 132.29 10.5
-4 2 -19 152.48 11.6
4 2 19 153.38 11.3
-4 2 19 128.49 10.9
-4 -2 -19 143.49 11.2
4 -2 19 131.99 10.9
4 3 19 3.9 3.1
-4 3 -19 6.2 3.4
4 3 19 4.6 3.3
-4 -3 19 0.6 2.8
-4 -3 -19 5.1 3.7
-4 3 19 3 3.1
-4 4 -19 56.49 8.6
-4 -4 19 66.69 9.2
4 4 19 51.89 8.6
4 4 19 64.29 6.8
-4 -4 -19 58.19 8.6
-4 4 19 68.19 10.1
-4 5 -19 265.37 15.4
4 5 19 240.58 14.9
4 5 19 250.47 13.4
-4 5 19 287.27 17.9
-4 -5 -19 236.48 14.9
4 6 19 128.89 11.6
-4 6 -19 147.39 11.8
4 6 19 159.98 10.5
-4 -6 -19 128.59 11.2
-4 6 19 122.99 12.4
-4 7 -19 41.7 7.6
4 7 19 38.2 7.8
4 7 19 46.7 6.8
-4 7 19 42.5 10.5
-4 -7 -19 39.2 7.6
-4 8 -19 2.1 2.9
4 8 19 1.1 2.7
4 8 19 6.5 4.3
-4 8 19 -1.5 2.9
-4 9 -19 40.4 8.6
4 9 19 43.9 5.9
4 9 19 39.7 7.8
-4 9 19 27.1 7.7
4 10 19 5.3 3.6
4 10 19 7.6 3
-4 10 -19 8.5 4.2
4 10 19 11 4.4
-4 10 19 8.6 5
4 11 19 5.5 2.7
4 11 19 -4 3.2
-4 11 -19 -0.7 2.9
-4 11 19 2.1 4
-4 11 19 8 4.6
5 0 19 -3.7 2
-5 0 -19 3.3 3.3
-5 0 19 2.3 2.6
-5 1 -19 31.2 6.5
-5 -1 19 15.2 4.9
5 1 19 28.2 5.5
-5 -1 -19 18.9 5.3
5 -1 19 17.4 5
-5 1 19 22 5.6
-5 2 -19 144.79 11.3
-5 -2 19 124.49 12.2
5 -2 19 138.89 12.7
-5 -2 -19 112.69 10.2
-5 2 19 120.09 10.9
-5 3 -19 27.2 6.2
5 3 19 30.5 6
-5 -3 19 28.6 6.8
5 3 19 31.7 6
-5 -3 -19 29 6.6
-5 3 19 29.1 6.8
5 4 19 58.79 8.7
-5 4 -19 39.2 7.5
5 4 19 45 6.6
-5 4 19 55.79 9.7
-5 -4 -19 50.49 8.1
-5 5 -19 248.88 15.2
5 5 19 245.48 12.8
5 5 19 254.97 15.2
-5 5 19 215.68 15.8
-5 -5 -19 252.17 15.3
5 6 19 37.2 6
-5 6 -19 41.1 7.7
5 6 19 36.9 7.2
-5 -6 -19 35.3 7.6
-5 6 19 42.5 8.8
5 7 19 224.48 15.1
-5 7 -19 236.38 15.4
5 7 19 243.78 12.3
-5 7 19 210.68 17.2
-5 -7 -19 227.88 15.2
5 8 19 22.7 4.8
5 8 19 16.7 5.9
-5 8 -19 37 8.7
-5 8 19 12 5.5
5 9 19 16.2 3.9
5 9 19 28.2 6.7
5 9 19 20.1 3.8
-5 9 -19 17.1 5.5
-5 9 19 24.3 8
-5 10 -19 28.6 6.9
5 10 19 28.6 4.1
5 10 19 39.2 8
5 10 19 35.4 4.1
-5 10 19 28.3 9
-5 11 -19 21.2 5.7
5 11 19 6 5.4
-5 11 19 18.5 6.2
-5 11 19 10.8 6.1
6 0 19 -0.3 2.7
-6 0 -19 -3.9 1.5
-6 0 19 1.6 2.6
6 1 19 273.87 14.7
-6 1 -19 271.27 15.8
-6 -1 19 269.37 15.4
-6 1 19 246.08 15.3
6 -1 19 245.78 14.6
-6 -1 -19 250.57 15
6 2 19 52.09 7.5
-6 2 -19 55.19 8.7
-6 2 19 48.4 8.4
-6 -2 -19 51.19 8.2
-6 3 -19 55.29 9.1
6 3 19 48.8 7.7
6 3 19 64.59 7.3
-6 -3 -19 60.09 9
-6 3 19 61.49 9.8
6 4 19 466.45 17.9
6 4 19 432.06 19.1
-6 4 -19 481.65 21.4
-6 -4 -19 443.46 20.2
-6 4 19 501.75 23.4
6 5 19 101.29 9.9
-6 5 -19 78.49 9.1
6 5 19 88.09 8.1
-6 5 19 93.59 12.6
-6 -5 -19 87.69 9.6
6 6 19 34.1 6.8
6 6 19 39.5 6
-6 6 -19 36.5 8.9
-6 -6 -19 48.9 8.3
-6 6 19 42.1 9.8
-6 7 -19 2.7 3.8
6 7 19 6.6 3.3
6 7 19 1.4 3.2
-6 7 19 1 3.8
-6 -7 -19 9.1 4.4
-6 8 -19 12.1 5.2
6 8 19 9.7 4.4
-6 -8 -19 4 3.7
-6 8 19 9 5.4
6 9 19 0.6 3.2
6 9 19 1.4 1.8
6 9 19 2.7 2.1
-6 9 -19 1.6 3.4
-6 9 19 -2.3 3.2
-6 10 -19 2.9 3.7
6 10 19 -2.4 3.7
-6 10 19 0.7 4.6
-6 11 -19 4.1 4.2
6 11 19 8.4 4.8
-6 11 19 1.1 4.7
-6 11 19 10.6 6.1
-7 0 -19 0.6 2.4
7 0 19 7 3.4
-7 0 19 -1.3 2.4
7 1 19 112.69 9.8
-7 1 -19 117.39 10.5
-7 -1 19 135.29 11.2
-7 -1 -19 128.19 10.9
7 -1 19 131.99 10.7
-7 1 19 110.29 10.5
7 2 19 24 5.6
-7 -2 19 24.2 6
7 2 19 20.2 5.1
-7 2 -19 25.2 6.2
-7 -2 -19 19.7 5.4
-7 2 19 35.6 7.5
-7 3 -19 163.48 12.8
7 3 19 140.19 10.4
7 3 19 144.49 11
-7 -3 -19 159.88 12.3
-7 3 19 154.68 13
7 4 19 45.2 7.7
-7 4 -19 32.9 7
7 4 19 30.7 5.8
-7 -4 -19 37.3 7.1
-7 4 19 52.49 9.6
-7 5 -19 0.1 3.1
7 5 19 0.3 2.6
7 5 19 1.1 2.9
-7 -5 -19 2.1 3.2
-7 5 19 3 3.7
7 6 19 -0.3 2.5
-7 6 -19 -0.2 2.9
7 6 19 2.4 3
-7 -6 -19 2.7 3.1
-7 6 19 -7.2 3.3
7 7 19 22.1 5.5
-7 7 -19 21.8 6.2
7 7 19 16.7 5.2
-7 7 19 22.7 7.1
-7 -7 -19 18.5 5.6
7 8 19 24 3
7 8 19 32.1 7.4
-7 8 -19 30.8 7.4
7 8 19 29.8 3.4
-7 8 19 22.4 7
-7 -8 -19 26.7 6.9
7 9 19 123.69 11.9
-7 9 -19 112.69 12.1
-7 9 19 104.99 15.1
7 10 19 3.4 4.9
-7 10 -19 -1.2 4.3
-7 10 19 6.4 4.8
-7 10 19 3.7 4.1
8 0 19 1.3 3.4
-8 0 19 -3.5 2.1
-8 0 -19 -3.4 1.4
8 1 19 37.6 7
-8 1 -19 48.3 8.6
-8 -1 19 43.5 7.8
-8 -1 -19 31.2 6.7
-8 1 19 49.5 8.4
8 -1 19 46.6 9.4
8 2 19 3.8 3.4
-8 2 -19 4.5 3.8
-8 -2 19 -1.5 2.2
8 2 19 3.1 2.9
-8 2 19 -1.5 2.7
-8 -2 -19 1 2.4
8 3 19 168.78 11.9
8 3 19 181.48 11.6
-8 -3 19 207.28 13.8
-8 -3 -19 178.58 13.2
-8 3 19 193.38 14.5
8 4 19 28 6.1
-8 4 -19 29.3 7.2
8 4 19 40.7 6.1
-8 4 19 39 8.4
-8 -4 -19 36.4 7.2
8 5 19 54.09 8.3
-8 5 -19 74.09 10.7
8 5 19 63.99 6.5
-8 5 19 67.09 11.2
-8 -5 -19 77.39 8.9
8 6 19 12.4 4.5
-8 6 -19 6.7 4.4
8 6 19 0 3.1
-8 -6 -19 6.1 3.8
-8 6 19 3 3.5
8 7 19 129.29 5.6
8 7 19 135.79 11.6
-8 7 -19 155.48 13.4
-8 7 19 133.39 14.1
-8 -7 -19 120.29 11.1
8 8 19 108.59 10.8
-8 8 -19 93.59 11
-8 -8 -19 112.69 13
-8 8 19 89.79 14
-8 9 -19 0.8 3.4
8 9 19 3.9 3.8
-8 9 19 5.3 5.7
-8 -9 -19 2.8 3.8
-9 0 19 0.4 2.9
9 0 19 0.6 3
-9 0 -19 -1.4 2.7
9 1 19 26.1 6.9
-9 -1 19 59.49 9.3
-9 1 19 34.2 6.9
-9 -1 -19 31.2 6.7
-9 2 -19 77.09 11.1
9 2 19 89.09 8.6
9 2 19 67.99 7.7
-9 -2 19 70.79 9.8
-9 2 19 68.09 10.1
-9 -2 -19 80.69 9.3
9 3 19 -4.5 2.7
-9 -3 19 0.6 2.7
9 3 19 3.5 3.1
-9 3 -19 2.2 2.9
-9 -3 -19 -2.7 2.1
-9 3 19 0.1 3
-9 -4 19 102.89 10
-9 4 -19 95.99 10.8
9 4 19 116.89 8.7
9 4 19 118.59 10
-9 -4 -19 124.59 11.5
-9 4 19 78.79 16.2
-9 5 -19 12.3 5.1
9 5 19 8.1 3.9
-9 -5 19 -1.1 3.3
-9 -5 -19 5.1 3.7
-9 5 19 11.6 5.6
9 6 19 142.69 11.4
-9 6 -19 146.39 13.4
9 6 19 157.58 6.1
-9 6 19 151.88 14.8
-9 -6 -19 159.78 13
-9 7 -19 67.69 11
9 7 19 64.39 9.8
-9 7 19 54.59 11.3
-9 8 -19 -2.4 3.5
9 8 19 1.9 3.7
-9 -8 -19 -3.1 3.6
-9 8 19 -0.3 4.3
9 9 19 -0.8 3.6
-9 9 -19 0.1 3.1
-9 -9 -19 -7.6 3.3
-9 9 19 -7.3 3.9
10 0 19 2.7 3.9
-10 0 -19 -4 2.8
-10 1 -19 15.2 5.8
-10 -1 19 10 4.7
-10 -1 -19 12 5.8
-10 1 19 2.8 3.9
10 2 19 106.59 9.5
10 2 19 101.29 9
-10 2 -19 107.79 11.3
-10 -2 19 110.79 10.6
-10 2 19 116.19 12.1
10 3 19 30 6
-10 -3 19 40.4 7.3
-10 3 -19 60.59 9.9
10 3 19 37.7 6.5
10 4 19 79.69 8.3
-10 -4 19 62.39 9.1
-10 4 -19 75.49 11.1
-10 4 19 67.59 11.2
-10 5 -19 20.6 6.5
10 5 19 23 3
10 5 19 20.5 5.2
-10 -5 19 25.4 6
-10 5 19 17.1 6.5
-10 -6 19 36.8 7.2
-10 6 -19 42.6 9
10 6 19 41.7 7.1
-10 6 19 40.9 9
-10 -6 -19 46.1 10
-10 7 -19 -3.7 3.5
10 7 19 -6.3 2.7
-10 -7 -19 -6.9 3.3
-10 7 19 -3.2 5
-11 0 -19 -0.6 2.8
11 0 19 -2.4 4.1
-11 0 19 -2.9 2.4
-11 1 -19 8.4 4.7
11 1 19 2.5 4.2
-11 -1 19 3.7 3.4
-11 -1 -19 4.8 4.2
-11 1 19 7.5 4.7
-11 2 -19 8.8 4.6
-11 -2 19 11.6 4.3
11 2 19 -0.7 3.9
11 2 19 7.3 3.4
-11 -2 -19 12.2 4.8
-11 2 19 11.6 6.2
-11 -3 19 13.2 4.6
11 3 19 8.1 3.9
11 3 19 16.2 4.3
-11 3 -19 10.3 4.7
-11 3 19 13.2 5.8
-11 -3 -19 13 5
11 4 19 108.09 9.4
-11 4 -19 99.49 11.5
-11 -4 19 107.39 10.2
11 4 19 95.49 5.5
-11 4 19 107.99 12.4
-11 -4 -19 105.69 11.2
-11 5 -19 3.3 4.1
11 5 19 8.8 3.7
-11 -5 19 9 4.4
-11 -5 -19 16.3 5.6
-11 5 19 4.4 4.7
11 6 19 154.38 11.4
-11 -6 19 156.68 12.4
-11 6 -19 155.68 14.4
-11 6 19 157.98 15.4
-11 -6 -19 149.19 12.7
12 0 19 5.9 4.7
-12 0 19 0.7 3.3
-12 0 -19 -0.8 3.4
-12 -1 19 87.19 9.8
12 1 19 88.99 8.6
12 1 19 88.59 9.1
-12 1 -19 78.89 11.3
-12 -1 -19 94.49 11.1
-12 1 19 97.29 11.1
-12 -2 19 135.39 11.8
-12 2 -19 129.89 13.1
12 2 19 125.09 9.2
12 2 19 141.09 10.5
-12 2 19 133.69 13
-12 -2 -19 130.99 12.7
-12 -3 19 53.09 8.6
-12 3 -19 29.7 7.9
12 3 19 37.1 6.2
-12 3 19 37.7 8.6
-12 -3 -19 46.9 8.9
-12 4 -19 86.19 12.6
12 4 19 89.29 8.3
-12 -4 19 65.29 8.8
-12 -4 -19 84.59 11.5
-12 4 19 62.79 10.6
0 0 -20 170.78 12.2
0 -1 -20 -0.5 1.9
0 1 20 -1.5 1.7
0 1 -20 1.8 2.3
0 2 -20 42.8 7.2
0 2 20 49.8 8.3
0 2 20 45.7 7.6
0 3 20 -2.5 2.6
0 3 -20 -2.3 1.5
0 3 20 0.8 2.3
0 4 -20 2.1 2.6
0 4 20 -0.5 2.7
0 4 20 7.2 3.4
0 5 20 4 2.9
0 5 20 0.4 3.3
0 5 -20 -0.8 1.8
0 6 20 13 5.4
0 6 -20 11.8 4.1
0 7 -20 1.1 2.4
0 7 20 0.5 3.2
0 8 20 6 4.1
0 8 -20 2.8 2.7
0 9 -20 3.5 2.7
0 9 20 -0.2 3.4
0 10 -20 9.1 3.5
0 10 20 6.8 4.8
0 11 20 1.7 3.4
0 11 -20 -1.2 2.7
0 11 20 1.8 4
0 12 20 41.2 7.7
0 12 20 44.7 9.9
0 12 -20 55.99 6.5
1 0 20 230.38 13.7
-1 0 -20 258.97 15
-1 1 -20 156.88 11.6
1 1 20 157.28 11.2
-1 -1 -20 161.88 12
-1 1 20 157.58 12
-1 2 -20 45.9 7.5
1 2 20 41.6 7.1
1 2 20 47 8.1
-1 2 20 33.3 6.1
-1 -2 -20 32.6 6.5
1 2 -20 51.49 7.7
-1 2 20 28.2 6.2
-1 3 -20 234.18 14
1 3 20 272.27 15.9
1 3 20 251.97 14.1
-1 3 20 225.18 16.4
-1 -3 -20 247.38 15.2
-1 3 20 254.67 15.6
1 3 -20 237.28 13.8
1 4 20 98.79 9.6
-1 4 -20 58.59 8.3
1 4 20 76.99 7.9
-1 4 20 85.89 9.8
1 4 -20 93.69 8.6
-1 5 -20 120.59 10.1
1 5 20 127.99 11.6
1 5 20 119.09 9.8
-1 5 20 114.69 11.4
1 5 -20 129.99 10.1
1 6 20 64.79 10
1 6 20 69.39 9.3
-1 6 -20 74.89 8.3
1 6 -20 68.39 7.3
-1 6 20 62.49 9.9
-1 7 -20 10.8 4.2
1 7 20 3.9 3.4
1 7 20 13.2 5.4
-1 7 20 25.1 9.6
1 7 -20 11.7 3.9
1 8 20 212.18 13.2
-1 8 -20 207.18 13
1 8 20 201.38 16.5
-1 8 20 218.78 16.8
1 8 -20 211.08 12.4
1 9 20 105.49 14.4
1 9 20 66.69 9.5
-1 9 -20 66.19 8.7
1 9 -20 78.59 7.7
-1 9 20 58.39 10.6
1 10 20 93.59 11.9
-1 10 -20 107.19 9.6
1 10 20 68.09 11.7
-1 10 20 81.49 12.5
1 11 20 137.29 11.7
1 11 20 149.39 11.9
1 11 20 183.98 16.8
-1 11 -20 162.08 11.5
-1 11 20 170.48 16.5
-1 11 20 167.38 13.3
-2 0 -20 643.84 23.8
2 0 20 579.64 22
2 1 20 -0.6 2.3
-2 1 -20 -0.8 1.8
-2 -1 -20 2.1 2.7
-2 1 20 -2.3 1.7
2 -1 20 2.3 2.5
2 2 20 -2.6 2.5
2 2 20 3.3 2.7
-2 2 -20 -0.3 2.4
-2 2 20 1.1 2.5
-2 -2 -20 -3.1 1.9
-2 3 -20 12 4.4
2 3 20 25.1 5.4
2 3 20 17.7 5.3
-2 3 20 21.6 5.8
-2 -3 -20 17.3 5.2
-2 4 -20 4.2 3.2
2 4 20 1.9 2.8
2 4 20 2.2 2.5
-2 -4 -20 3.7 3.1
-2 4 20 0.4 2.8
-2 5 -20 1.1 2.9
2 5 20 -0.1 2.8
2 5 20 2.6 3.2
-2 5 20 2.6 3.3
-2 6 -20 4.7 3.4
2 6 20 6.4 3.3
2 6 20 4.6 3.1
-2 6 20 -1.8 2.6
2 7 20 44 7
2 7 20 27.6 6.8
-2 7 -20 35.4 6.9
-2 7 20 40.5 8.7
-2 8 -20 -0.3 3
2 8 20 1.2 3.1
-2 8 20 1.2 3.6
2 9 20 6.1 4.2
2 9 20 0.2 3.3
-2 9 -20 0.1 2.9
-2 9 20 9.6 4.9
2 10 20 9.2 5
-2 10 -20 -0.5 3
2 10 20 -7.2 3.5
-2 10 20 -0.7 4.1
2 11 20 5.6 3.9
-2 11 -20 1 3.6
2 11 20 11.1 5.8
-2 11 20 11.3 5.1
-2 11 20 0 4.3
-3 0 -20 523.05 21.7
-3 0 20 555.34 22.6
3 0 20 529.95 21.2
-3 1 -20 0.2 2.1
3 1 20 0.9 2.8
-3 1 20 -3.4 1.8
3 -1 20 1.6 2.6
-3 -1 -20 2.4 2.6
-3 2 -20 2.8 3
3 2 20 4.1 3.1
3 2 20 -3.8 1.7
-3 -2 -20 1.2 2.6
-3 2 20 3.3 2.8
-3 3 -20 20.5 5.6
3 3 20 14.4 4.2
3 3 20 18.8 5.6
-3 3 20 18.9 5.6
-3 -3 -20 12.3 4.7
3 4 20 78.39 8.1
-3 4 -20 80.19 8.6
3 4 20 87.29 9
-3 4 20 64.59 10.1
-3 -4 -20 91.39 9.6
-3 5 -20 14.4 4.8
3 5 20 19.7 5.1
3 5 20 17.8 5.5
-3 5 20 19.3 5.8
-3 -5 -20 19.5 5.5
3 6 20 329.37 15.8
-3 6 -20 334.47 17.5
3 6 20 284.07 17.4
-3 6 20 303.77 19
3 7 20 8.1 4
3 7 20 0.8 2.8
-3 7 -20 -1.8 2.4
3 8 20 95.89 14.6
-3 8 -20 103.09 10.1
-3 8 20 85.89 13.1
-3 9 -20 55.89 8.5
3 9 20 60.29 10.7
3 9 20 60.59 7.9
-3 9 20 54.39 10.5
3 10 20 39.2 8.9
3 10 20 47.8 6.8
3 10 20 47.3 6.7
-3 10 20 57.89 11.3
-3 11 -20 78.79 9.3
3 11 20 68.99 7.7
3 11 20 87.19 8
3 11 20 83.09 13.5
-3 11 20 67.49 10.6
-3 11 20 82.19 13.8
-4 0 20 2.5 2.7
-4 0 -20 -0.2 2.5
4 0 20 -5.2 2.1
4 1 20 20.5 5.1
-4 1 -20 20.3 5.3
-4 1 20 12.7 4.8
-4 -1 -20 12.8 4.7
4 2 20 11.7 3.7
-4 2 -20 6.3 3.9
4 2 20 8.6 4
-4 -2 -20 18.1 5.4
-4 2 20 13.8 4.7
4 3 20 73.89 8.4
-4 3 -20 77.99 8.7
4 3 20 78.59 8.1
-4 3 20 60.29 9.6
-4 -3 -20 70.99 9.8
4 4 20 1.7 2.6
4 4 20 0 2.8
-4 4 -20 4.4 3
-4 4 20 -0.1 2.5
-4 -4 -20 3.9 3.1
4 5 20 -1.1 2.9
-4 5 -20 -1.3 3.1
-4 5 20 3.4 3.4
-4 -5 -20 1.6 3.1
4 6 20 0.1 2.9
4 6 20 3.7 3.2
-4 6 -20 4.2 2.9
-4 6 20 -6.2 3.9
-4 -6 -20 -0.6 2.7
-4 7 -20 9.5 4.6
4 7 20 9 4.4
4 7 20 15.7 5.5
-4 7 20 13.5 5.6
4 8 20 12.2 4.3
4 8 20 6.8 4.1
-4 8 20 23.4 7.1
4 9 20 5.1 3.7
4 9 20 10.4 3.5
-4 9 -20 1.7 3.7
-4 9 20 7.6 4.9
-4 10 -20 -2.1 3
4 10 20 -6.6 3.2
4 10 20 -4.2 2.1
4 10 20 2.6 3.7
-4 10 20 -1.2 3.5
4 11 20 -1 3.8
4 11 20 1.6 2.7
-4 11 20 6.8 5.2
-4 11 20 5.1 4.7
-5 0 20 132.09 11.2
-5 0 -20 125.39 11
5 0 20 127.99 10.7
5 1 20 869.51 27.3
-5 1 -20 935.91 29.9
-5 -1 20 896.71 29.2
-5 1 20 899.81 29.9
-5 -1 -20 942.21 30
5 2 20 156.38 11.9
5 2 20 144.79 11.1
-5 2 -20 155.38 12.2
-5 2 20 156.28 12.8
-5 -2 -20 155.88 12.5
-5 3 -20 252.87 15.6
5 3 20 282.57 15.9
5 3 20 252.27 14.3
-5 3 20 273.37 17
-5 -3 -20 265.57 16
5 4 20 328.37 17.3
-5 4 -20 282.37 16.4
-5 4 20 317.77 18.8
-5 -4 -20 306.47 17.2
-5 5 -20 -0.4 2.6
5 5 20 1 3
5 5 20 1.4 3.2
-5 -5 -20 -1.6 2.6
-5 5 20 7.2 4.2
-5 6 -20 176.68 13.7
5 6 20 170.78 13.4
5 6 20 190.58 11.5
-5 6 20 195.38 15.6
-5 -6 -20 193.68 14.1
-5 7 -20 132.09 11.8
5 7 20 123.29 11.7
5 7 20 125.49 9.5
-5 -7 -20 121.79 11.6
-5 7 20 124.49 13.6
5 8 20 38.9 6
-5 8 -20 24.7 6.4
5 8 20 33.5 7.9
-5 8 20 35 8.7
5 9 20 20.1 4.5
-5 9 -20 16.7 5.6
5 9 20 22.9 6.8
-5 9 20 3.6 5.1
5 10 20 0.1 2.9
5 10 20 2.8 3.5
5 10 20 1.6 3.7
-5 10 -20 -1.1 3.1
-5 10 20 1.2 3.1
5 11 20 106.59 14.9
-5 11 20 139.79 13.8
-5 11 20 112.99 16.7
-6 0 20 40.7 7.8
6 0 20 38.4 7
-6 0 -20 43.1 7.8
-6 -1 20 6.1 4
-6 1 -20 8.3 4
6 1 20 12.3 4.5
-6 1 20 11.7 4.9
-6 -1 -20 16.3 5.1
6 2 20 30.1 6.1
-6 2 -20 14.8 5.1
6 2 20 22.1 5.5
-6 -2 20 21.2 5.8
-6 2 20 20.8 6
-6 -2 -20 21.7 5.7
-6 3 -20 0.1 2.8
6 3 20 7.1 3.9
6 3 20 11 4.8
-6 -3 -20 5.2 3.5
-6 3 20 7 4
-6 4 -20 -2 1.8
6 4 20 -0.5 2.9
-6 4 20 3.8 3.7
-6 -4 -20 -1.1 3.2
6 5 20 3.5 3.1
6 5 20 2.7 3.1
-6 5 20 8.9 5.4
-6 -5 -20 0.1 2.9
-6 6 -20 24.9 6.3
6 6 20 21.6 5.8
6 6 20 11.3 4.3
-6 -6 -20 18.5 5.4
-6 6 20 19.9 7.1
6 7 20 0.9 3.3
6 7 20 8.1 3.7
-6 7 -20 3.3 3.7
-6 -7 -20 -1.1 3.2
-6 7 20 0.8 3.4
6 8 20 -4.9 2.4
-6 8 -20 1.9 3.3
6 8 20 3.6 3.3
-6 -8 -20 -3.6 2.5
-6 8 20 -0.4 4.2
6 9 20 106.29 12.2
6 9 20 94.19 6.7
6 9 20 90.69 6.1
-6 9 20 80.79 13.3
6 10 20 11.5 5
-6 10 -20 0.4 3.4
-6 10 20 3.9 5.1
-7 0 20 448.36 20.8
7 0 20 386.56 19.2
-7 0 -20 438.96 20.6
7 1 20 3.4 3.1
-7 -1 20 -2 2.2
-7 1 -20 1.8 2.9
-7 -1 -20 0.8 2.3
-7 1 20 -2.2 2.1
7 2 20 0.7 3.1
7 2 20 1.1 2.6
-7 2 -20 0 2.8
-7 -2 20 1.8 2.5
-7 2 20 -2.3 2.7
-7 -2 -20 -0.6 2.4
7 3 20 -1.1 2.5
7 3 20 8 4.1
-7 -3 20 5.9 3.6
-7 -3 -20 3.4 3.2
-7 3 20 7.2 4.6
-7 4 -20 123.69 11.7
7 4 20 112.29 10.2
7 4 20 108.99 9.3
-7 -4 -20 130.99 11.7
-7 4 20 125.89 24.6
7 5 20 285.67 14
7 5 20 296.97 16.6
-7 5 -20 276.07 17.5
-7 5 20 295.17 19.5
-7 -5 -20 314.37 18
7 6 20 2.8 3.2
-7 6 -20 2.7 3.5
7 6 20 0.6 2.9
-7 -6 -20 -4 2.4
-7 6 20 -4.7 2.4
7 7 20 2.1 2.8
7 7 20 4.2 4
-7 7 -20 2.6 3.9
-7 7 20 -0.7 3.6
-7 8 -20 10.5 5.2
7 8 20 13.6 3.1
7 8 20 17.2 5.5
-7 8 20 31 8.5
-7 -8 -20 21.8 6.3
-7 9 -20 211.08 16.2
-7 9 20 260.07 20.9
-8 0 -20 30.7 6.8
-8 0 20 35.6 7.3
8 1 20 2 3.2
-8 -1 20 0.7 2.4
-8 1 20 -0.1 3.3
-8 -1 -20 -1.2 2.7
8 2 20 -4.8 2
-8 2 -20 -3 2.8
8 2 20 -3.9 3.1
-8 -2 20 -4.2 2.2
-8 -2 -20 -1.3 2.4
-8 2 20 -0.3 2.8
-8 -3 20 63.19 9.3
-8 3 -20 70.49 10.6
8 3 20 69.89 7.8
8 3 20 63.39 8.9
-8 -3 -20 62.39 9.5
-8 3 20 55.19 10.1
-8 4 -20 48 8.9
8 4 20 38.4 6.5
8 4 20 29.3 6.5
-8 -4 20 46.2 8
-8 4 20 29.1 7.5
-8 -4 -20 38.5 7.5
8 5 20 22.1 5
-8 5 -20 20.5 6.3
8 5 20 15.2 5.1
-8 -5 -20 19.9 6
-8 5 20 12.3 5.6
-8 6 -20 6.8 4.4
8 6 20 3.4 3.4
8 6 20 13.4 3.7
-8 6 20 -0.5 3.9
8 7 20 0.5 3.3
-8 7 -20 1.4 3.7
8 7 20 0.3 2.2
-8 -7 -20 2.5 3.8
-8 7 20 9.2 5.5
-8 8 -20 0.8 3.3
8 8 20 5.4 4.3
-8 -8 -20 3.2 3.9
-8 8 20 8.7 5
-8 9 -20 10.9 5.8
8 9 20 2.5 5.2
-8 9 20 7.6 5.8
-8 -9 -20 13.2 5.1
-9 0 -20 148.19 12.8
-9 0 20 139.79 12.3
-9 1 -20 23.5 6.6
9 1 20 22 5.9
-9 -1 20 23.6 6.2
-9 -1 -20 30.4 7
-9 1 20 37.3 7.5
-9 2 -20 159.98 13.5
-9 -2 20 162.98 12.7
9 2 20 139.39 11
-9 -2 -20 145.39 14.9
-9 2 20 174.88 14.2
9 3 20 22.2 5.3
-9 3 -20 35.9 8
-9 -3 20 26.9 6.4
9 3 20 23.6 5.9
-9 3 20 25.3 6.9
-9 4 -20 239.58 16.7
-9 -4 20 227.58 14.9
9 4 20 218.98 13.9
9 4 20 212.08 12.1
-9 4 20 230.68 17.4
-9 -5 20 40.2 7.5
9 5 20 34.9 6.5
9 5 20 29.9 5
-9 5 -20 42.6 8.6
-9 -5 -20 36.8 8.4
-9 5 20 34.2 8.7
-9 6 -20 47.2 9.2
9 6 20 40.9 4.6
9 6 20 60.49 8.9
-9 6 20 51.39 10.6
-9 -6 -20 51.79 9.2
-9 7 -20 24.5 6.6
9 7 20 10 4.9
-9 7 20 4.2 5.5
-9 -7 -20 11 5.3
9 8 20 192.48 14.2
-9 8 20 190.78 17.9
-9 -8 -20 200.08 15.3
-10 0 20 26.9 6.7
-10 0 -20 17 5.8
-10 1 -20 -1.2 2.7
10 1 20 -0.7 3.9
-10 -1 20 -2.4 2.9
-10 -1 -20 2.5 2.9
-10 1 20 -7 2.7
10 2 20 63.99 8.2
-10 2 -20 74.39 11
10 2 20 54.49 8.2
-10 -2 20 64.39 9.7
-10 2 20 66.59 13.2
-10 -2 -20 72.69 10.4
-10 3 -20 6.6 4.2
10 3 20 3.2 3.3
-10 -3 20 6.4 3.6
10 3 20 4 3.9
-10 3 20 4.2 4.5
-10 -3 -20 13 5.3
10 4 20 8.8 3.8
-10 4 -20 4.7 4.5
10 4 20 7.3 3.3
-10 -4 20 3.2 3.9
-10 -4 -20 4.6 4
-10 4 20 2.2 4.5
10 5 20 19.7 5.1
10 5 20 20.3 3.6
-10 -5 20 13.5 5
-10 5 -20 15.1 6.2
-10 5 20 10.1 5.5
-10 -5 -20 16.3 5.6
-10 -6 20 2 3.9
-10 6 -20 9.8 5.1
10 6 20 13.5 4.8
-10 6 20 19.8 6.6
-10 -6 -20 14 5.3
10 7 20 3 3.4
-10 7 -20 10.9 4.8
-10 -7 -20 -0.4 3.9
-10 7 20 4.1 4.2
-11 0 -20 503.75 24.5
-11 0 20 565.04 25.7
11 1 20 8.5 5.2
-11 -1 20 11 5.1
-11 1 -20 7.4 4.7
-11 -1 -20 14.1 5.8
-11 1 20 10.1 6.4
11 2 20 39.9 6.6
-11 -2 20 29.8 6.8
-11 2 -20 26.5 7.2
11 2 20 27.9 6.2
-11 2 20 34.5 7.7
-11 -2 -20 44.4 8.5
11 3 20 18.6 4.9
-11 3 -20 15.7 5.9
-11 -3 20 15.9 5.4
11 3 20 15.9 4.4
-11 -3 -20 24.5 6.8
-11 3 20 23.2 7
-11 4 -20 30.8 10.5
11 4 20 6.4 3.1
-11 -4 20 6 4
11 4 20 10.1 4.8
-11 -4 -20 15.9 5.3
-11 4 20 13.6 5.9
-11 5 -20 4.5 4.3
11 5 20 1.9 3
-11 -5 20 -1.4 2.7
-11 -5 -20 -3.4 3.2
-11 5 20 2.9 4.8
12 0 20 14.7 6.1
-12 0 20 7 5.4
-12 0 -20 8.5 5.5
-12 1 -20 6.1 4.1
12 1 20 0.7 2.5
12 1 20 -8.6 5
-12 -1 20 5.4 4.2
-12 -1 -20 6.8 4.4
-12 1 20 8.4 4
12 2 20 13.2 5.9
12 2 20 7.8 4
-12 -2 20 7 4.2
-12 2 -20 -1.5 3.5
-12 2 20 11.2 5.6
-12 -2 -20 11 5
-12 -3 20 -2.4 3.1
-12 3 -20 -3.4 3.2
12 3 20 5.3 3.5
-12 -3 -20 3.5 3.9
-12 3 20 3.1 4.5
0 0 -21 -0.5 2.7
0 -1 -21 -1.3 1.9
0 1 -21 -0.5 2.4
0 1 21 2.4 2.4
0 2 -21 -3.9 1.7
0 2 21 -0.4 1.8
0 3 -21 -4.4 1.8
0 3 21 -1.7 1.7
0 4 21 159.08 12.7
0 4 -21 166.88 12.1
0 5 21 2.6 3.3
0 5 -21 3.1 2.6
0 6 21 102.49 11.5
0 6 -21 113.69 10
0 7 21 0.8 2.6
0 7 -21 2.3 2.7
0 8 -21 5.2 3.6
0 8 21 -1.3 3.8
0 9 -21 0.3 2.9
0 9 21 2.6 4.6
0 10 21 121.59 16.3
0 10 -21 129.19 10.1
0 11 21 3.5 4
0 11 21 4.5 5.5
0 11 -21 -6.2 2.5
-1 0 -21 3.2 2.8
-1 1 -21 72.09 8.4
-1 -1 -21 82.19 9
-1 1 21 98.79 10
-1 2 -21 235.48 14.6
1 2 21 269.57 16.1
-1 2 21 255.27 15.9
-1 -2 -21 246.38 15.6
-1 3 -21 225.58 14.1
1 3 21 218.08 14.8
-1 3 21 266.07 16.4
1 3 -21 211.38 13.6
-1 4 -21 15.5 4.8
1 4 21 8.8 4.2
1 4 -21 7.9 3.7
-1 4 21 9.7 4.7
1 5 21 15.6 5.1
-1 5 -21 19.4 5.4
1 5 -21 21.1 5.3
-1 5 21 16.6 6
1 6 21 47.9 8.9
-1 6 -21 44.7 7.4
1 6 -21 44.2 7.1
-1 7 -21 167.38 12.1
1 7 21 169.58 14.8
-1 7 21 177.98 15.2
1 7 -21 157.38 11.3
1 8 21 104.79 12.2
-1 8 -21 118.69 10.4
1 8 -21 120.29 9.8
-1 8 21 133.59 13.9
-1 9 -21 45.7 7.5
1 9 21 64.49 11.5
-1 9 21 41.4 9.2
1 10 21 45.3 9.6
-1 10 -21 29.8 6.3
-1 10 21 41.1 9.3
1 11 21 158.78 12.1
-1 11 -21 131.99 10.9
1 11 21 137.39 15.1
-1 11 21 124.59 14.7
-1 11 21 136.59 12.6
-2 0 -21 1.3 2.4
-2 1 -21 188.78 13.1
-2 1 21 202.08 13.9
-2 -1 -21 208.68 14.3
-2 2 -21 9.3 3.8
2 2 21 17 4.9
-2 -2 -21 9.9 4
-2 2 21 6.8 3.8
2 3 21 142.09 13
2 3 21 144.69 11.9
-2 3 -21 165.08 12.6
-2 3 21 164.88 13.1
-2 -3 -21 157.98 12.5
2 4 21 26.3 5.8
2 4 21 19.7 5.7
-2 4 -21 25.2 6
-2 -4 -21 25.2 6.2
-2 4 21 25.3 6.6
-2 5 -21 353.16 17.9
2 5 21 328.27 18.7
2 5 21 328.07 17.2
-2 5 21 342.87 19.8
2 6 21 4 3.7
2 6 21 5.8 3.8
-2 6 -21 -1.5 2.6
-2 6 21 5.9 4.3
2 7 21 4.2 4
-2 7 -21 1.2 3
-2 7 21 0.2 3.7
2 8 21 16.2 6.1
2 8 21 8.7 4
-2 8 -21 7.8 4.6
-2 8 21 11.6 5.3
2 9 21 3.4 4.4
-2 9 -21 10.4 4.7
2 9 21 12.6 5.9
-2 9 21 9.1 4.9
2 10 21 57.99 11.1
-2 10 -21 55.79 8.8
2 10 21 47.7 8
-2 10 21 49.5 11.2
2 11 21 1.3 3.3
2 11 21 -3.3 5.1
2 11 21 7.9 5.2
-2 11 21 4.3 4.4
-2 11 21 1.3 3.8
-3 0 21 -0.2 2.6
-3 0 -21 -1.7 2.7
-3 1 -21 4.2 3.9
-3 -1 -21 1.6 3
-3 1 21 -3.2 2.6
3 2 21 256.37 17.5
3 2 21 287.67 16.3
-3 2 -21 264.87 15.7
-3 2 21 272.67 16.6
-3 -2 -21 279.67 16.5
3 3 21 4 3
-3 3 -21 2.8 3
3 3 21 -2.7 2.3
-3 3 21 4.6 3
-3 -3 -21 -1.9 2.5
-3 4 -21 55.89 8.7
3 4 21 33.1 6.7
3 4 21 43.6 8.1
-3 -4 -21 37 7.6
-3 4 21 44 8.3
3 5 21 4.4 3.4
3 5 21 7.6 4.5
-3 5 -21 8.6 4.4
-3 -5 -21 8.1 4
-3 5 21 13.6 6.7
3 6 21 179.88 12.1
3 6 21 157.48 13.1
-3 6 -21 180.58 13.1
-3 6 21 163.58 14.5
3 7 21 109.89 9.5
-3 7 -21 123.19 11
-3 7 21 105.59 12.4
3 8 21 -3 3.2
-3 8 -21 5.8 4.1
3 8 21 6.4 3.9
-3 8 21 -0.8 3.4
3 9 21 3.2 4.1
-3 9 -21 1.5 3.1
3 9 21 6.7 5
-3 9 21 4.6 3.9
3 10 21 4 4.4
-3 10 -21 -0.9 3.4
3 11 21 -5.6 3.5
3 11 21 8.1 4.5
3 11 21 0.7 3.2
-3 11 -21 2 3.1
-3 11 21 0.1 3.8
-3 11 21 8.4 4.2
-4 0 -21 -3.1 2.1
-4 0 21 -0.3 2.3
-4 1 -21 31.1 7.1
-4 -1 -21 22 6
-4 1 21 30.8 6.9
-4 2 -21 87.99 9.3
4 2 21 93.19 8.6
4 2 21 97.69 9.7
-4 2 21 109.49 10.7
-4 -2 -21 95.69 9.9
4 3 21 97.19 10.1
-4 3 -21 91.99 9.6
4 3 21 73.59 8.1
-4 3 21 95.49 10.6
-4 -3 -21 73.89 10.5
4 4 21 27.4 6.4
-4 4 -21 35.2 6.9
4 4 21 20.8 5.3
-4 4 21 29 7.2
-4 -4 -21 19.1 5.4
4 5 21 151.98 11.1
-4 5 -21 178.78 13.5
4 5 21 175.48 13.6
-4 5 21 170.08 14.9
-4 -5 -21 179.38 13.9
4 6 21 6.3 3.5
-4 6 -21 3.3 2.8
4 6 21 11 4
-4 -6 -21 1.2 3.8
-4 6 21 -2.8 3.3
4 7 21 -2.7 2.9
4 7 21 -0.8 3.1
-4 7 -21 -1.9 2.4
-4 7 21 -0.2 3.3
4 8 21 -6.9 3.1
4 8 21 -1.5 3.5
-4 8 -21 7.3 3.4
-4 8 21 3.1 4.5
4 9 21 0.3 3.9
4 9 21 4.3 3.4
-4 9 -21 7.6 4.1
-4 9 21 6 5.1
4 10 21 50.89 6.9
4 10 21 49.4 10.2
-4 10 -21 63.99 9.7
4 10 21 58.79 7.3
-4 10 21 56.09 11.2
-5 0 21 2 2.4
-5 0 -21 -0.4 2.5
-5 -1 21 1.6 2.5
-5 1 -21 -1.6 2.6
-5 -1 -21 1.5 3.2
-5 1 21 -2.6 2.5
5 2 21 322.17 17.3
5 2 21 283.97 15.9
-5 2 -21 258.07 16.1
-5 -2 -21 256.57 16.1
-5 2 21 284.17 17.4
-5 3 -21 55.49 9.1
5 3 21 73.79 9.7
5 3 21 72.79 10
-5 3 21 62.29 9.8
-5 -3 -21 62.09 9.5
-5 4 -21 12.1 4.8
5 4 21 8.7 3.7
5 4 21 4.1 4.1
-5 -4 -21 10 4.6
-5 4 21 11.6 8
-5 5 -21 241.58 19.2
5 5 21 230.88 15.5
5 5 21 233.08 13.4
-5 5 21 207.68 16.3
-5 -5 -21 264.47 16.4
-5 6 -21 16.1 5.4
5 6 21 16.7 5.1
-5 6 21 10.7 5.6
-5 -6 -21 14.3 5.2
5 7 21 181.98 14.5
-5 7 -21 199.38 14.7
5 7 21 190.68 11.9
-5 -7 -21 175.28 14.5
-5 7 21 184.88 16.5
5 8 21 0.5 3.5
-5 8 -21 0.3 3.3
5 8 21 6.7 4.6
-5 8 21 14 5.7
-5 9 -21 24.8 6.7
5 9 21 23 4.9
5 9 21 18.2 6.1
-5 9 21 23.8 7.9
-5 10 -21 26.4 7
5 10 21 34.5 8.1
5 10 21 24.5 4.4
5 10 21 22.4 7.1
-5 10 21 17.4 7.5
-6 0 21 0.3 2.6
-6 0 -21 1.9 3
-6 1 -21 80.29 9.4
-6 -1 21 92.29 9.8
-6 1 21 103.89 10.8
-6 -1 -21 83.09 9.3
6 2 21 59.19 8.9
-6 2 -21 49.99 8.8
-6 -2 21 65.49 9.8
6 2 21 79.99 8.4
-6 2 21 52.89 9.4
-6 -2 -21 46.5 8.6
6 3 21 20.4 5.7
6 3 21 35.3 7.2
-6 -3 -21 24.8 6.8
-6 3 21 20.8 6.5
6 4 21 278.47 16.3
6 4 21 293.17 15.3
-6 4 -21 242.08 16.2
-6 4 21 280.57 18.5
-6 -4 -21 307.77 17.7
-6 5 -21 39.4 8.1
6 5 21 32.3 6.8
6 5 21 20 6.3
-6 5 21 31.7 8.2
-6 -5 -21 25.5 6.4
6 6 21 6.7 4
6 6 21 2.3 3.4
-6 6 -21 8 4.3
-6 6 21 9.3 4.9
6 7 21 93.89 10.5
-6 7 -21 111.09 11.3
6 7 21 107.19 8.5
-6 7 21 85.89 13.4
-6 -7 -21 94.29 10.8
6 8 21 30.6 5.6
6 8 21 23.7 7
-6 8 -21 27.2 7
-6 8 21 25.7 8.1
-6 -8 -21 23.4 6.9
6 9 21 -4.3 3.1
-6 9 -21 1.4 3.6
-6 9 21 -7.9 4
-7 0 21 -3.8 1.7
-7 0 -21 -4.5 2.2
-7 -1 21 -1.2 2.8
-7 -1 -21 3.5 3.1
-7 1 21 -0.9 1.9
7 2 21 -1.2 2.3
-7 2 -21 0.2 2.7
-7 -2 21 -1.1 2.7
7 2 21 2.8 3.1
-7 -2 -21 1.4 2.7
-7 2 21 2.1 3.2
7 3 21 93.89 8.9
-7 -3 21 114.49 10.9
7 3 21 90.49 9.5
-7 3 -21 94.09 10.4
-7 3 21 101.69 11.3
-7 -3 -21 93.39 12.4
-7 4 -21 6.4 4.3
7 4 21 11 4.1
-7 -4 -21 1 3.8
-7 4 21 10.7 4.7
-7 5 -21 33.1 7.3
7 5 21 20.5 5.5
7 5 21 31.6 6.9
-7 5 21 26 7.2
-7 -5 -21 23.9 7.2
7 6 21 -3.8 2.4
7 6 21 2.1 3.6
-7 6 -21 2 3.1
-7 -6 -21 5 3.8
-7 6 21 -2.1 3.2
-7 7 -21 12.4 5
7 7 21 16.1 4.1
7 7 21 10 4.7
-7 -7 -21 24.3 6.6
-7 7 21 16.6 6.4
7 8 21 11.5 5.3
7 8 21 5 2.9
-7 8 -21 1.5 3.6
-7 -8 -21 -0.9 3.2
-7 8 21 -0.9 4.6
-7 9 -21 61.79 10.6
7 9 21 53.09 9.9
-7 9 21 52.09 11.5
-8 0 -21 7.6 3.7
-8 0 21 4.4 3
-8 -1 21 0.8 2.9
-8 1 -21 5.8 3.6
-8 -1 -21 -4.7 2.2
-8 1 21 5.9 3.7
-8 -2 21 6 3.7
8 2 21 3.8 3.3
-8 2 -21 -2.8 2.8
8 2 21 3.1 3.9
-8 2 21 4 3.6
-8 -2 -21 5.6 3.3
-8 -3 21 41.1 7.8
-8 3 -21 32.3 7.5
8 3 21 34 6.8
8 3 21 29.2 6.6
-8 -3 -21 31.8 6.7
-8 3 21 29.9 7.3
-8 4 -21 80.79 11.5
8 4 21 77.49 9
8 4 21 77.59 8.4
-8 -4 21 87.69 10
-8 -4 -21 68.29 10.5
-8 4 21 79.49 12.1
8 5 21 47.5 6.7
-8 5 -21 31.6 7.6
8 5 21 23.7 6.3
-8 5 21 29.5 8.2
-8 -5 -21 24.5 6.9
8 6 21 12.1 3.9
8 6 21 7.4 3.9
-8 6 -21 2.7 3.9
-8 6 21 3.5 4.4
-8 -6 -21 7.3 3.9
8 7 21 54.69 5.5
8 7 21 25.4 6.5
-8 7 -21 46.2 9
-8 -7 -21 52.79 9.4
-8 7 21 56.79 11.4
-8 8 -21 20 6.1
-8 8 21 15.4 6.8
-8 -8 -21 12.7 5.9
-9 0 21 1.7 3.2
-9 0 -21 0.1 2.5
-9 -1 21 3 3.4
-9 1 -21 -4 2.2
-9 -1 -21 1.1 3
-9 1 21 1.2 3
-9 -2 21 79.79 10.9
9 2 21 101.79 9.6
-9 2 -21 105.59 11.2
9 2 21 82.09 9.1
-9 2 21 84.69 12
-9 -2 -21 98.99 10.4
-9 3 -21 76.59 11.2
9 3 21 85.99 9.3
9 3 21 77.49 9
-9 -3 21 85.19 10
-9 3 21 96.69 11.3
-9 -3 -21 79.49 11.3
-9 4 -21 171.78 14.5
-9 -4 21 158.58 13
9 4 21 135.89 10.5
9 4 21 168.58 12.7
-9 4 21 153.08 14.8
-9 -4 -21 163.58 13.3
-9 5 -21 14.8 5.9
9 5 21 11 4.6
9 5 21 11.4 4.3
-9 -5 -21 21.2 6.4
-9 5 21 19.1 7
9 6 21 17.7 3.7
9 6 21 15.9 4.9
-9 6 -21 24.1 7.2
-9 6 21 23 7.6
-9 -6 -21 17.4 5.3
9 7 21 294.17 17.4
-9 7 -21 277.97 19.1
-9 7 21 263.57 20.8
-9 -7 -21 263.37 17.7
-10 0 21 5.5 3.7
-10 0 -21 -2.1 3.2
-10 1 -21 7 4
10 1 21 2.9 5.3
-10 -1 -21 5.9 4.3
-10 2 -21 195.68 15.7
-10 -2 21 198.78 18
10 2 21 230.08 14.4
10 2 21 215.48 13.7
-10 -2 -21 207.78 15.8
-10 2 21 239.88 17.2
-10 -3 21 10.4 5.1
10 3 21 -0.1 3.6
-10 3 -21 4.5 4.1
10 3 21 2.4 3.2
-10 3 21 5.8 4.4
-10 -3 -21 0.2 2.9
10 4 21 3.7 3.2
-10 4 -21 4.1 3.1
10 4 21 -2 3.7
-10 -4 -21 5.6 4.2
-10 4 21 2.5 4.4
10 5 21 29.4 4.6
-10 -5 21 31.1 8.3
10 5 21 21.8 5.8
-10 5 -21 32.3 8.3
-10 -5 -21 42.6 8.6
-10 5 21 43.2 9.7
-10 6 -21 146.99 14.8
10 6 21 131.99 11.7
-10 -6 -21 151.18 13.7
-10 6 21 143.19 15.1
-11 0 -21 2.1 3.7
-11 0 21 -1.2 3.7
11 1 21 9.5 5.6
-11 -1 21 1.7 3.3
11 1 21 2.7 3.2
-11 1 -21 -6.5 3.4
-11 1 21 1.9 4.6
-11 -1 -21 2.1 3.2
11 2 21 40.5 7.9
-11 -2 21 40.6 9.7
11 2 21 53.89 8.7
-11 2 -21 55.49 10.1
-11 2 21 41.5 8.4
-11 -2 -21 26.4 7.1
11 3 21 48.9 7.3
11 3 21 43.2 7.1
-11 3 -21 24.6 7.2
-11 -3 -21 61.69 10.3
-11 3 21 51.49 10.1
-11 4 -21 14.2 5.8
11 4 21 14.8 5
-11 -4 21 9.3 5.7
-11 4 21 15.4 6.5
-11 -4 -21 17.9 5.8
0 0 -22 107.69 10.3
0 1 -22 -0.2 2.5
0 1 22 -1.2 2.5
0 2 -22 8.9 3.9
0 2 22 7.2 3.9
0 3 22 -1 2.3
0 3 -22 -0.6 2.4
0 4 -22 7.1 3.5
0 4 22 0.7 2.6
0 5 -22 4.4 2.9
0 6 22 2.9 3.5
0 7 22 -4.4 3
0 7 -22 -1.2 2.6
0 8 22 405.16 23.6
0 8 -22 442.66 19.6
0 9 22 -1 4.2
0 9 -22 -5.8 2.3
0 10 -22 18 5.1
0 10 22 17 7.2
-1 0 -22 12.3 4.7
-1 1 -22 1.6 3.2
-1 1 22 4.6 3.9
-1 -1 -22 10.5 4.3
-1 2 -22 140.19 11.6
1 2 22 148.69 12.4
-1 2 22 152.28 12.8
-1 -2 -22 140.29 12.2
1 3 22 378.26 19.8
-1 3 -22 406.26 19.4
-1 3 22 372.06 19.9
-1 4 -22 6.6 3.9
1 4 22 14.9 4.9
1 4 -22 6 3.8
-1 4 22 9 4.7
-1 5 -22 6.2 3.9
1 5 22 5.4 3.6
1 5 -22 2.3 2.9
-1 5 22 -2 2.5
-1 6 -22 1.9 3.2
1 6 22 5.7 3.4
1 6 -22 1.4 2.3
-1 6 22 5.1 3.9
-1 7 -22 15.8 5.3
1 7 22 8.4 4.8
-1 7 22 25.7 7.2
1 7 -22 30.4 6.3
-1 8 -22 22.8 6
1 8 22 12.9 5.6
-1 8 22 18.1 6.8
-1 9 -22 85.29 9
1 9 22 71.79 12.3
-1 9 22 104.69 14.7
1 10 22 45.9 10.2
-1 10 -22 41.7 7.2
-1 10 22 63.59 12.3
-2 0 22 273.27 16.5
-2 0 -22 330.47 18.1
-2 1 -22 173.18 13
-2 -1 -22 178.28 13.7
-2 1 22 192.38 14
2 2 22 -3.6 2.1
-2 2 -22 0.1 2.5
-2 2 22 1.2 2.8
-2 -2 -22 3.4 3.2
-2 3 -22 3.3 2.9
2 3 22 -0.8 2.4
-2 3 22 2.9 3.3
-2 -3 -22 -0.5 3
2 4 22 24.6 6.8
-2 4 -22 24.5 6.2
-2 -4 -22 10.5 4.4
2 5 22 -0.4 2.7
-2 5 -22 0.4 3.1
-2 6 -22 17.1 5.4
2 6 22 10.4 5.2
-2 6 22 22.1 6.7
-2 7 -22 -0.4 3.2
2 7 22 -2.1 2.4
-2 7 22 3.9 4.1
-2 8 -22 86.39 12.8
2 8 22 124.59 13.1
-2 8 22 82.79 13
-2 9 -22 30.8 7.9
2 9 22 47.3 10.1
-2 9 22 50.29 10.3
2 10 22 -6.1 3.4
-2 10 -22 -4.1 2.5
-2 10 22 11.2 5.1
-3 0 22 382.06 19.8
-3 0 -22 380.16 19.5
-3 1 -22 422.86 20.5
-3 1 22 435.46 21.3
-3 -1 -22 425.96 20.9
3 2 22 163.08 12.6
-3 2 -22 163.28 12.7
-3 2 22 148.19 12.6
-3 -2 -22 171.58 13.3
3 3 22 12.2 4.4
-3 3 -22 17.9 5.4
-3 3 22 12.7 4.5
-3 -3 -22 24.9 6.5
3 4 22 13.2 5
-3 4 -22 9 4
-3 4 22 3.2 4
-3 -4 -22 14.9 5.4
3 5 22 92.79 10.4
-3 5 -22 92.79 10
-3 -5 -22 79.19 13.1
-3 5 22 106.99 11.5
3 6 22 161.18 16.6
-3 6 -22 162.48 15.6
-3 6 22 169.48 14.9
3 7 22 2.5 3.3
-3 7 -22 5.6 4.1
-3 7 22 -3.1 3
3 8 22 10.2 4.7
-3 8 -22 -6.7 2.7
3 8 22 2.5 4.1
-3 8 22 3.1 4.1
3 9 22 46.3 9.7
3 9 22 42 7.7
-3 9 -22 39.9 7.8
-3 9 22 49.5 10.3
3 10 22 51.89 8.1
3 10 22 40 9.1
-3 10 22 55.29 11
-4 0 -22 40 7.9
-4 0 22 39.2 7.7
-4 1 -22 278.97 16.8
-4 -1 22 244.08 16.1
-4 -1 -22 247.38 16
-4 1 22 270.17 16.7
-4 2 -22 50.59 8.8
4 2 22 47.6 8.2
-4 -2 -22 43.1 8.3
-4 2 22 34 7.4
4 3 22 193.08 14.1
-4 3 -22 197.68 14.2
-4 -3 -22 174.98 13.7
4 4 22 0.7 2.4
-4 4 -22 1.3 3.7
-4 4 22 8.1 5.2
-4 -4 -22 1 2.7
4 5 22 0.6 3.1
4 5 22 0.1 3.4
-4 5 -22 -3.2 3.4
-4 5 22 0.8 3.3
4 6 22 -7.8 3
-4 6 -22 0.5 3.1
-4 -6 -22 1 2.8
-4 6 22 3.9 4
4 7 22 93.99 10.8
-4 7 -22 54.79 9.2
4 7 22 56.59 7.8
-4 7 22 65.39 11.7
4 8 22 15.6 5.6
4 8 22 18.3 5.2
-4 8 -22 13.9 5.3
-4 8 22 15.1 6.4
4 9 22 54.89 11.1
-4 9 -22 50.89 9
-4 9 22 46.4 10.1
4 10 22 4.8 3.3
4 10 22 9.1 4.8
4 10 22 2.6 4
-4 10 -22 8.2 4.4
-4 10 22 -3 3.7
-5 0 -22 24.6 6.5
-5 0 22 17.4 5.6
-5 -1 22 -3.8 1.9
-5 1 -22 1.3 3.2
-5 -1 -22 3 2.7
-5 1 22 1.7 2.5
5 2 22 11.6 4.2
-5 -2 -22 13.9 5.1
5 3 22 3.2 3.5
-5 3 -22 1.8 4
-5 -3 -22 4.6 3.4
-5 3 22 3.2 3.3
-5 4 -22 18.2 5.4
5 4 22 17.1 5.6
5 4 22 21.9 5.8
-5 4 22 28.9 7.1
5 5 22 6.2 3.9
-5 5 -22 5 4.3
5 5 22 13.6 4.7
-5 5 22 12.1 5.6
-5 -5 -22 15 5
5 6 22 85.89 9.3
-5 6 -22 104.29 10.9
-5 6 22 65.69 11.8
-5 -6 -22 83.69 11.7
5 7 22 125.59 12.4
5 7 22 109.79 10.9
-5 7 -22 117.69 11.7
-5 7 22 101.29 14.4
-5 -7 -22 118.29 12.4
5 8 22 26.1 7.1
5 8 22 16.5 5.1
-5 8 -22 10.1 4.9
-5 8 22 19.8 7.1
5 9 22 3.6 4.4
5 9 22 -5.4 3.9
-5 9 -22 3.3 3.7
-5 9 22 2.5 4.2
-6 0 -22 19.5 6.9
-6 0 22 26.6 6.7
-6 -1 22 2.6 3.7
-6 1 -22 15.9 5
-6 -2 22 -2.1 2.8
6 2 22 -1.6 2.4
-6 2 -22 5 3.6
-6 2 22 2.7 3.4
6 3 22 272.17 16.6
-6 3 -22 255.77 16.7
6 3 22 251.37 18.1
-6 3 22 245.28 17.1
-6 -3 -22 251.97 19.8
6 4 22 1.5 3.8
6 4 22 5.2 3.6
-6 4 22 5.3 3.8
-6 -4 -22 2 3
6 5 22 8.6 4.8
6 5 22 5.4 3.9
-6 5 -22 13.1 5.7
-6 5 22 3.3 4.2
-6 -5 -22 9.9 4.8
-6 6 -22 3.4 3.4
-6 6 22 4.7 4.9
-6 -6 -22 3.2 3.8
6 7 22 36 6
6 7 22 39.5 7.7
-6 7 -22 25.4 6.8
-6 -7 -22 31.3 7.9
-6 7 22 39.4 9.6
-6 8 -22 132.69 12.8
6 8 22 138.79 9.8
6 8 22 175.88 14.9
-6 8 22 129.19 14.9
6 9 22 36.6 6
6 9 22 52.69 10.1
6 9 22 42 5.4
-6 9 -22 60.09 10
-6 9 22 41.8 10
-7 0 -22 175.78 13.9
-7 1 -22 89.69 10.4
-7 -1 22 71.19 13.8
-7 -1 -22 96.69 10.6
-7 1 22 92.89 10.5
7 2 22 40.5 7.4
-7 2 -22 25.9 6.9
-7 -2 22 40 10.1
-7 -2 -22 38.1 8.1
-7 2 22 46 9.4
7 3 22 334.27 17.1
-7 3 -22 327.37 19.5
7 3 22 357.76 18.8
-7 3 22 344.07 20.5
-7 -3 -22 350.66 19.6
7 4 22 25.9 6.6
7 4 22 37.8 7
-7 4 -22 36.2 8.1
-7 4 22 48.5 9.1
-7 -4 -22 46 8.8
-7 5 -22 35.8 7.8
7 5 22 63.79 10.1
-7 -5 -22 48.9 8.9
-7 5 22 51.49 10.3
7 6 22 10.9 4.6
-7 6 -22 2.6 3.6
-7 6 22 18.8 6.5
-7 -6 -22 6.3 4
7 7 22 78.09 11.5
7 7 22 68.99 7.7
-7 7 -22 76.59 11.6
-7 -7 -22 89.49 12.3
-7 7 22 72.59 12.6
-7 8 -22 151.18 14.4
7 8 22 149.49 13.7
-7 -8 -22 148.19 14.3
-7 8 22 133.09 15.6
-8 0 22 47.2 8.6
-8 0 -22 23.6 6.6
-8 1 -22 39.7 8.2
-8 -1 22 42.1 8.2
-8 -1 -22 40.9 8.4
-8 1 22 38.5 8.5
-8 -2 22 10.8 5.8
-8 2 -22 -2.4 3
8 2 22 2.8 3.2
-8 -2 -22 5.1 4.2
-8 2 22 5 3.2
8 3 22 24.3 6.4
-8 -3 22 39.7 8.1
8 3 22 18.3 6
-8 3 -22 21.1 6.2
-8 3 22 35.6 8.1
-8 -3 -22 35.2 7.8
-8 -4 22 10.2 5.2
-8 4 -22 3 3.8
8 4 22 8.9 4.7
8 4 22 9.9 4
-8 -4 -22 8.1 4.6
-8 4 22 11.9 5.5
8 5 22 28.8 5.8
-8 5 -22 26.7 7
8 5 22 15.5 5.5
-8 5 22 17.7 7
-8 -5 -22 25.5 6.9
8 6 22 33.9 9.1
-8 6 -22 36.7 8.2
8 6 22 26.2 5.5
-8 6 22 37 9.3
-8 -6 -22 28.2 7.6
8 7 22 4.8 4
-8 7 -22 17.3 6
-8 7 22 2.7 4.9
-8 -7 -22 2.8 4.2
-9 0 -22 47 9
-9 0 22 46.6 8.9
-9 -1 22 207.78 15.5
-9 1 -22 194.48 15.4
-9 1 22 216.78 16.2
-9 -1 -22 203.58 15.5
-9 -2 22 4.8 3.7
9 2 22 5.5 5.4
9 2 22 7.7 3.5
-9 2 -22 -4.3 2.9
-9 -2 -22 2.9 3.6
-9 2 22 -3.9 2.8
9 3 22 8.6 3.8
-9 -3 22 5.3 4.4
9 3 22 -1.4 4.9
-9 3 -22 5.9 4.1
-9 3 22 3.8 4.2
-9 -3 -22 0.6 3.3
-9 -4 22 42 8.1
9 4 22 24.3 6.7
9 4 22 21.7 5.2
-9 4 -22 45 9.2
-9 -4 -22 40.6 8.3
-9 4 22 22.6 7.3
-9 -5 22 40.2 7.6
9 5 22 34.3 6.4
9 5 22 26.7 6.9
-9 5 -22 36.3 8
-9 -5 -22 45.4 9.4
-9 5 22 23.3 7.5
-9 6 -22 70.79 11.1
9 6 22 84.19 13.1
-9 -6 -22 72.39 10.9
-9 6 22 72.99 12.9
-10 0 -22 5.3 3.8
-10 0 22 5.8 4.3
-10 1 -22 123.19 12.6
-10 1 22 120.69 12.8
-10 -1 -22 118.69 12.4
10 2 22 23.8 5.6
10 2 22 31 8.2
-10 -2 22 25.3 7.1
-10 2 -22 28.2 7.1
-10 2 22 10.8 6.6
-10 -2 -22 30.3 7.6
-10 -3 22 17.2 5.4
-10 3 -22 19.2 5.8
10 3 22 20.8 5.6
-10 -3 -22 27 7
-10 3 22 22.7 7.5
-10 4 -22 11.2 4.8
10 4 22 5.3 4.8
10 4 22 -1.6 3.5
-10 -4 22 1.8 4
-10 4 22 4.2 4.7
-10 -4 -22 -0.7 2.9
-11 0 22 82.09 11.9
-11 0 -22 112.59 12.5
11 1 22 73.49 12.1
-11 -1 22 95.59 12.5
-11 1 -22 101.89 12
-11 -1 -22 84.29 12.3
-11 1 22 88.29 12.6
-11 -2 22 89.69 10.3
-11 2 -22 73.29 11.7
11 2 22 72.69 10.2
-11 2 22 84.09 13.1
-11 -2 -22 62.99 10.7
0 1 23 -4.5 1.9
0 1 -23 6.8 3.4
0 2 -23 -2.4 1.9
0 2 23 8.5 4.1
0 3 -23 4.4 3.2
0 4 -23 16.6 5.1
0 4 23 2.4 3.4
0 5 -23 1.9 3.2
0 5 23 -1.9 2.3
0 6 -23 130.99 11.3
0 6 23 145.69 13.7
0 7 -23 -1.7 2.8
0 7 23 0.9 2.9
0 8 -23 -0.1 3.3
0 8 23 -6.7 3.4
0 9 -23 -3 2.5
0 9 23 1.6 4.3
0 10 -23 71.99 8.2
0 10 23 64.59 12
-1 0 -23 5.6 3.6
-1 1 -23 565.54 24.1
1 1 23 548.85 24.2
-1 -1 -23 576.04 24.9
-1 1 23 553.84 24.6
-1 2 -23 52.39 8.6
1 2 23 49.7 9
-1 2 23 62.69 12
-1 -2 -23 35.3 8.1
-1 3 -23 124.79 11.7
1 3 23 117.59 19.8
-1 3 23 133.89 12.7
1 4 23 108.69 11.2
-1 4 -23 89.09 9.4
-1 4 23 93.59 10.8
-1 5 -23 14 5.1
1 5 23 18.2 5.5
-1 5 23 3.3 3.1
-1 6 -23 32.7 7.1
1 6 23 38.3 8
-1 6 23 30.4 7.7
1 7 23 19.5 6.7
-1 7 -23 25.8 6.1
-1 7 23 24.5 7.5
-1 8 -23 21.9 5.6
1 8 23 10.7 6.1
-1 8 23 12.5 6.1
1 9 23 33.2 9.5
-1 9 23 42.5 10
1 10 23 83.49 14.4
-1 10 23 85.69 14.5
-2 0 23 0.2 2.8
-2 0 -23 -0.6 2.7
-2 1 -23 3.7 3.3
-2 -1 -23 5.5 4.1
-2 1 23 4.8 3.7
2 2 23 0.1 2.9
-2 2 -23 4.1 3.2
-2 -2 -23 7.7 3.8
-2 3 -23 221.98 15
2 3 23 189.88 17.8
-2 3 23 192.48 14.9
-2 4 -23 13.6 5
2 4 23 3.3 4.4
-2 4 23 10.9 4.7
2 5 23 9.8 4.4
-2 5 -23 2.4 2.5
-2 5 23 -3 2.4
2 6 23 63.49 10.6
-2 6 23 54.09 10.3
-2 7 -23 2.4 3.3
2 7 23 0.7 3.8
-2 7 23 3.8 4.3
2 8 23 -0.9 3.6
-2 8 -23 -4.4 2.2
-2 8 23 4.7 4.8
2 9 23 24.5 8.1
-2 9 -23 39 7.6
-2 9 23 28.6 8.4
-3 0 -23 7.4 3.8
-3 1 -23 6.6 4
-3 -1 -23 9.4 4.2
3 2 23 87.79 9.7
-3 2 -23 99.19 10.4
-3 -2 -23 61.39 11.2
-3 2 23 96.89 11
3 3 23 165.18 15.8
-3 3 23 150.58 13.4
-3 4 -23 2.8 4.3
3 4 23 12.9 7.7
-3 4 23 18 5.9
-3 -4 -23 7.2 4.2
3 5 23 183.38 14.5
-3 5 -23 187.68 14.5
-3 5 23 150.48 14
-3 6 -23 261.97 16.5
3 6 23 280.17 18.2
-3 6 23 271.17 19.4
-3 7 -23 57.79 9.3
3 7 23 61.19 10.6
-3 7 23 58.29 11.3
3 8 23 313.17 20.6
-3 8 23 337.47 22.8
3 9 23 42.4 10.1
-3 9 -23 45.7 8.4
-3 9 23 35.4 9.5
-4 0 23 -0.5 2.6
-4 -1 23 34.4 10.8
-4 1 -23 46.5 10.6
-4 1 23 50.19 9
-4 2 -23 20.7 6.2
4 2 23 23.5 6
-4 -2 -23 18 7
-4 2 23 10.4 4.9
4 3 23 58.99 9.7
-4 3 -23 68.09 10.2
-4 3 23 76.29 11.5
-4 -3 -23 54.09 9.6
-4 4 -23 5.7 4.1
-4 4 23 -0.4 2.8
-4 -4 -23 -0.1 2.9
-4 5 -23 18.7 6.1
4 5 23 12.1 5
-4 5 23 4.2 4.4
-4 -5 -23 19.9 6.2
4 6 23 46.9 8.9
-4 6 -23 39.9 8.2
-4 6 23 41.6 9.1
4 7 23 3.2 4.7
-4 7 -23 6 4.1
-4 7 23 -0.1 4.3
4 8 23 6.1 4.5
4 8 23 11.7 5.5
-4 8 -23 1.9 3.2
-4 8 23 1 5.3
4 9 23 9.2 5.7
4 9 23 28.2 7.1
-4 9 -23 14.2 5.5
-4 9 23 10.8 6.7
-5 0 23 -0.4 2.9
-5 0 -23 0.8 2.8
-5 1 -23 4.3 3.7
-5 -1 23 1.1 3
-5 -1 -23 3 3.4
-5 1 23 0.4 2.2
5 2 23 90.79 9.8
-5 2 -23 80.49 11.3
-5 -2 23 91.49 10.2
-5 2 23 72.89 11.2
-5 -2 -23 96.99 10.3
5 3 23 2.1 3.6
-5 3 -23 4.5 3.4
-5 3 23 -2 3.1
-5 -3 -23 -0.5 3.2
-5 4 -23 11.8 5.2
-5 -4 -23 5.4 4.1
-5 4 23 21.1 6.6
-5 5 -23 -1 2.4
-5 5 23 1.2 4.1
-5 -5 -23 1 3.2
-5 6 -23 38.5 8
5 6 23 40.1 8
5 6 23 36.8 8.5
-5 -6 -23 32.6 7.9
-5 6 23 38.6 9.2
5 7 23 -2.6 3.1
-5 7 -23 -6 2.4
5 7 23 3.5 4.5
-5 7 23 0.4 4.2
-5 8 -23 52.19 9.3
5 8 23 48.3 9.6
5 8 23 35.9 11.2
-5 8 23 65.09 11.9
-6 0 -23 -3.3 2.2
-6 0 23 7.2 3.8
-6 1 -23 12.5 5.7
-6 -1 23 17.5 5.8
-6 1 23 24.5 6.8
-6 -1 -23 20.1 6.5
-6 -2 23 28.8 6.8
6 2 23 25.4 7.6
-6 2 -23 24.7 6.7
-6 -2 -23 24.4 6.9
-6 2 23 32 7.4
-6 3 -23 13.9 5.2
-6 -3 -23 21 6.6
-6 3 23 18.3 6
-6 4 -23 19.3 6.4
6 4 23 12.6 6.1
-6 -4 -23 28.8 7.6
-6 4 23 30.6 7.9
6 5 23 48.7 8.1
6 5 23 30.4 7.7
-6 5 -23 38.3 8.5
-6 5 23 41.7 9.4
-6 -5 -23 56.29 9.9
6 6 23 35.1 6.8
-6 6 -23 36.4 7.7
6 6 23 35.7 8.3
-6 -6 -23 28.2 7.2
-6 6 23 40.4 9.2
6 7 23 15.2 5.8
-6 7 -23 -0.4 3.6
-6 7 23 16 7
-6 -7 -23 -2.2 4.4
-6 8 -23 17.9 6.1
6 8 23 29.9 6.4
6 8 23 19.7 6.6
-6 8 23 16.1 7.5
-7 0 -23 -0.6 3.3
-7 0 23 -7.8 2.5
-7 1 -23 99.69 13.4
-7 -1 23 111.89 11.3
-7 -1 -23 112.79 11.7
-7 1 23 114.39 12
-7 -2 23 7.5 4.4
-7 2 -23 4.4 3.9
-7 -2 -23 2.5 3.9
-7 2 23 5 5.2
-7 -3 23 91.49 10.8
-7 3 -23 91.19 12.6
-7 -3 -23 100.09 11.4
-7 3 23 95.09 13.7
7 4 23 101.89 14.9
-7 4 -23 152.98 13.8
7 4 23 146.69 13.7
-7 -4 -23 141.09 13.2
-7 4 23 150.18 14.3
7 5 23 11.7 4.8
7 5 23 8.8 4.5
-7 5 -23 2 3.6
-7 5 23 6 5
-7 -5 -23 5.4 4.3
-7 6 -23 76.29 11.4
7 6 23 63.59 10.2
-7 -6 -23 74.09 11.3
-7 6 23 54.89 11
-7 7 -23 88.79 12.7
7 7 23 71.19 10.6
7 7 23 70.99 8.8
-7 7 23 78.29 13.3
-7 -7 -23 63.39 10.9
-8 0 -23 7 4.6
-8 0 23 1.8 3.7
-8 1 -23 -2.6 3.1
-8 -1 23 1.6 3
-8 -1 -23 -2.1 3.4
-8 1 23 1.1 3.7
-8 2 -23 32.7 7.7
8 2 23 38.7 11.8
-8 -2 23 42.9 8.6
-8 2 23 38.7 8.4
-8 -2 -23 47.6 9
8 3 23 33.1 9.2
-8 3 -23 50.29 9.7
-8 -3 23 65.89 10.3
-8 -3 -23 61.59 10.4
-8 3 23 56.09 10.4
-8 -4 23 7.6 4.9
-8 4 -23 11.4 5.3
8 4 23 0 3.4
8 4 23 9.2 4.9
-8 4 23 8.1 4.5
-8 -4 -23 6.2 5
-8 5 -23 27 6.8
8 5 23 38.2 7.7
-8 -5 -23 25 7.4
-8 5 23 39.4 9.7
-8 6 -23 29.2 7.8
8 6 23 27.5 6.1
8 6 23 30.6 7.4
-8 -6 -23 31.6 8.1
-8 6 23 22.6 7.4
-9 0 -23 1.5 4
-9 0 23 -2.1 3.7
-9 1 -23 24.2 7.1
-9 -1 23 19.1 6.3
-9 1 23 24.3 6.8
-9 -1 -23 17.4 5.8
-9 2 -23 2.7 4.1
9 2 23 2.9 3.1
-9 -2 23 2.4 3.9
-9 2 23 8.7 4.6
-9 -2 -23 1 3.5
-9 -3 23 11.2 5
-9 3 -23 10.7 5.3
9 3 23 18.9 5.3
9 3 23 1.6 6
-9 3 23 12.3 5.2
-9 -3 -23 2.8 4.8
-9 -4 23 18.6 5.7
9 4 23 14.3 6.5
9 4 23 18.7 5.4
-9 4 -23 19.3 6.2
-9 -4 -23 25.6 7.1
-9 4 23 19 7.3
-9 5 -23 208.78 16.9
9 5 23 233.38 13.5
9 5 23 261.27 16.6
-9 -5 23 237.98 16.9
-9 -5 -23 286.67 18.7
-9 5 23 225.98 18.8
-10 0 23 0.1 3.3
-10 0 -23 3.3 4.8
10 1 23 17.1 6.1
-10 1 -23 14.3 5.8
-10 -1 23 17.2 6.7
-10 -1 -23 20.8 6.6
-10 1 23 13 6.1
-10 2 -23 97.99 13.8
10 2 23 93.89 10.5
-10 -2 23 120.69 12.3
-10 -2 -23 80.59 11.9
-10 2 23 87.09 13.6
-10 3 -23 35.6 8.6
10 3 23 39 7.9
10 3 23 42.4 7.9
-10 -3 23 33.9 7.5
-10 3 23 35.8 9.1
-10 -3 -23 40.5 8.6
0 1 -24 4.8 3.3
0 1 24 3.6 3.8
0 2 24 170.58 14.2
0 2 -24 160.18 13.3
0 3 -24 0.7 2.8
0 3 24 2.6 2.9
0 4 -24 166.28 13
0 4 24 217.18 16.3
0 5 24 0 3.1
0 5 -24 4.5 3.1
0 6 24 6.9 4.4
0 6 -24 -3.2 2.6
0 7 -24 -0.6 2.7
0 7 24 2.7 3.4
0 8 24 54.79 10.9
0 8 -24 56.69 8.8
0 9 24 7.2 4.9
0 9 -24 -2.1 3.2
-1 0 24 376.06 20.6
1 1 24 47.4 8.7
-1 1 -24 35.7 8.7
-1 -1 -24 49.2 10.7
-1 1 24 44.8 8.6
-1 2 -24 11.8 5.4
1 2 24 34.6 7.7
-1 2 24 31 7.8
-1 3 -24 19.5 6.5
1 3 24 13.3 5.5
-1 3 24 14.7 4.9
1 4 24 46.1 9.3
-1 4 24 59.99 11
1 5 24 -1 3.3
-1 5 24 1.2 3.1
1 6 24 -4.7 3
-1 6 -24 0.8 3.6
-1 6 24 6.6 4.5
1 7 24 13.6 5.7
-1 7 -24 11.1 5.2
-1 7 24 3.1 5.1
1 8 24 71.89 12.2
-1 8 -24 89.19 9.9
-1 8 24 66.69 12
1 9 24 17.6 7.2
-1 9 -24 9.9 5.5
-1 9 24 19.8 7.3
-2 0 -24 411.06 21.8
-2 0 24 426.76 22
-2 1 -24 3 4.7
2 1 24 7.2 4.2
-2 -1 -24 3.5 4.1
-2 1 24 5.2 3.6
2 2 24 16.3 5.2
-2 2 -24 14.4 5.6
-2 -2 -24 14.7 5.2
-2 2 24 17 5.4
-2 3 -24 45.5 8.4
2 3 24 34.3 7.4
-2 -3 -24 35.9 8.2
-2 3 24 46.2 9.2
-2 4 -24 167.58 13.7
2 4 24 146.59 13.6
-2 4 24 170.18 14.7
2 5 24 35.3 7.9
-2 5 -24 61.59 9.9
-2 5 24 45.3 9
-2 6 -24 26.5 6.5
2 6 24 25.4 6.9
-2 6 24 29 8.1
2 7 24 112.19 12.5
-2 7 -24 118.29 11.4
-2 7 24 96.09 14.1
-2 8 -24 12.4 5.5
2 8 24 4.4 5.3
-2 8 24 29.5 8.4
2 9 24 298.77 21.4
-2 9 -24 326.27 18.7
-2 9 24 314.67 22.9
-3 0 -24 5.7 4.3
-3 0 24 4 3.4
-3 1 -24 110.89 11.2
3 1 24 96.19 10.3
-3 -1 24 107.89 11.2
-3 1 24 98.19 13.1
-3 -1 -24 106.69 11.2
3 2 24 53.49 9
-3 2 -24 36 7.7
-3 -2 -24 31.7 7.4
-3 2 24 61.89 10.2
-3 3 -24 1.9 3.5
3 3 24 3 4.4
-3 -3 -24 16.4 5.4
-3 3 24 11.6 5.4
-3 4 -24 17.9 5.7
3 4 24 22.5 6.3
-3 4 24 17.6 6.1
-3 -4 -24 12.8 5.7
3 5 24 17.1 6.3
-3 5 -24 27.4 6.5
-3 5 24 27.6 7.4
-3 6 -24 31.6 7.3
3 6 24 37.5 8.4
-3 6 24 28.6 8.2
3 7 24 6.4 5.4
-3 7 -24 4.9 4.5
-3 7 24 1.4 3.9
3 8 24 1.3 3.9
-3 8 -24 -3.8 3.3
-3 8 24 4.6 3.5
-4 0 -24 61.49 9.9
-4 0 24 56.09 9.2
-4 1 -24 3.1 3.2
-4 -1 24 -1.1 3.4
-4 1 24 3.6 4.4
-4 -1 -24 -1.7 3.3
-4 2 -24 10.6 4.7
4 2 24 9.7 4.8
-4 2 24 22.7 7
-4 -2 -24 15.3 5.7
-4 3 -24 -0.9 3.4
4 3 24 7 4.3
-4 -3 -24 -0.9 3.3
-4 3 24 -0.8 3.1
-4 4 -24 3 3.8
4 4 24 0.4 3.3
-4 4 24 -1.2 2.7
-4 -4 -24 2.8 3.2
-4 5 -24 222.08 16
4 5 24 224.88 16.7
-4 -5 -24 270.97 18.4
-4 5 24 214.18 17.5
4 6 24 5.2 4.5
-4 6 -24 4.4 3.6
-4 6 24 0.8 3.4
4 7 24 34.3 8.6
-4 7 -24 35.3 8.4
-4 7 24 34.7 10
4 8 24 0 4.1
-4 8 -24 3.7 4.1
-4 8 24 -3 4
-5 0 24 -0.1 2.9
-5 0 -24 0.5 2.8
-5 -1 24 100.49 10.9
-5 1 -24 106.09 11.3
-5 1 24 96.19 10.9
-5 -1 -24 102.49 11
-5 -2 24 5.8 4
5 2 24 14.3 4.9
-5 2 -24 9 4.6
-5 2 24 22.8 6.7
-5 -2 -24 4.4 4
-5 3 -24 49.9 9.1
5 3 24 50.69 9.2
-5 3 24 43.2 9.1
-5 -3 -24 54.39 9.6
-5 4 -24 -1.3 3.2
5 4 24 0.4 2.8
-5 -4 -24 3.5 4.1
-5 4 24 -0.6 2.9
-5 5 -24 2.9 3.2
5 5 24 -5.3 3.7
-5 -5 -24 4.2 4.5
-5 5 24 3.2 4.9
-5 6 -24 49.9 9.2
5 6 24 46.7 8.9
-5 6 24 54.09 10.9
-5 -6 -24 32.7 8.3
5 7 24 36.2 8.6
-5 7 -24 43.4 8.6
-5 7 24 55.79 12.2
5 8 24 -0.9 3.5
-5 8 24 5.4 4.7
-6 0 -24 270.57 18
-6 0 24 258.77 17.6
-6 -1 24 52.39 9.8
-6 1 -24 47.7 9
-6 -1 -24 39 8.5
-6 1 24 56.39 10
-6 2 -24 2.8 4.1
6 2 24 6 4.5
-6 -2 24 7.9 4.6
-6 -2 -24 25.7 6.7
-6 2 24 13.2 5.4
-6 -3 24 10.1 5.4
-6 3 -24 5.2 4.1
6 3 24 15.8 5.2
-6 3 24 9.4 4.5
-6 -3 -24 6.3 4.5
-6 4 -24 125.39 12.4
6 4 24 120.29 12
-6 4 24 115.29 15.4
-6 -4 -24 117.19 12.6
-6 5 -24 229.18 16.8
6 5 24 208.58 15.6
-6 -5 -24 208.18 16.4
-6 5 24 229.18 18.4
-6 6 -24 11.4 5.8
6 6 24 5.3 4.1
-6 6 24 14.7 7
-6 -6 -24 7.2 4.6
-6 7 -24 13 5.2
6 7 24 5.3 5.5
6 7 24 0 3.5
-6 -7 -24 4.5 4.1
-6 7 24 -2.6 3.8
-7 0 24 162.08 14.4
-7 0 -24 177.78 15
-7 -1 24 28.9 7.2
-7 1 -24 12.6 5.5
-7 -1 -24 17.6 6.5
-7 1 24 25 7.1
-7 2 -24 17.4 6.1
7 2 24 6.7 4.1
-7 -2 24 13.3 5.4
-7 -2 -24 9 4.6
-7 2 24 3 4.1
-7 3 -24 67.89 11.1
7 3 24 66.89 10.4
-7 -3 24 62.49 10.5
-7 3 24 62.09 10.9
-7 -3 -24 62.69 10.3
-7 -4 24 13.8 5.5
-7 4 -24 14.7 5.8
7 4 24 27.4 7
-7 -4 -24 21.8 6.7
-7 4 24 8.6 5.8
-7 5 -24 -9.4 3.6
7 5 24 20.4 5.8
-7 -5 -24 4.8 4.7
-7 5 24 10.8 6.1
7 6 24 13.2 6.5
7 6 24 17.6 6.3
-7 6 -24 33.1 7.7
-7 -6 -24 20.3 6.7
-7 6 24 14.2 7.6
-8 0 -24 332.37 20.4
-8 0 24 332.67 20.4
-8 -1 24 164.28 14.6
-8 1 -24 161.08 14.4
8 1 24 183.68 14.3
-8 -1 -24 165.08 14.6
-8 1 24 140.99 14.5
-8 2 -24 29.3 7.6
-8 -2 24 28.2 7.8
8 2 24 26 6.5
-8 2 24 44.5 9.1
-8 -2 -24 38 8.8
8 3 24 80.49 11
-8 3 -24 68.69 11.2
-8 -3 24 81.89 11.5
-8 3 24 64.29 11.4
-8 -3 -24 82.49 12
8 4 24 156.98 13.7
-8 4 -24 162.28 14.6
-8 -4 24 178.78 15
-8 4 24 161.88 16
-8 -4 -24 181.68 15.5
-8 -5 24 3.9 4.2
-8 5 -24 4.7 4.5
8 5 24 7.1 6
8 5 24 4.3 4.5
-8 5 24 3.4 4.8
-8 -5 -24 10.2 5.3
-9 0 -24 190.08 15.6
-9 0 24 213.98 17
-9 -1 24 28.4 7.9
-9 1 -24 12.9 6.4
9 1 24 21.6 6.5
-9 -1 -24 22.6 7.2
-9 1 24 17.2 5.8
-9 2 -24 43.1 9.7
9 2 24 36.8 7
-9 -2 24 45 9.1
-9 2 24 53.69 10.4
-9 -2 -24 41 8.4
-9 3 -24 -1.5 3.9
9 3 24 -5.8 3.5
-9 -3 24 -0.8 3.1
-9 -3 -24 -1 3.6
-9 3 24 8.8 5.2
0 1 25 7.1 4.3
0 2 25 391.06 21.7
0 3 -25 3.7 3.5
0 3 25 0 2.5
0 4 25 11.1 5.5
0 4 -25 10.5 4.7
0 5 25 4.3 3.7
0 5 -25 -1.3 2.9
0 6 25 43.2 9.2
0 6 -25 49.6 8.6
0 7 -25 -4.7 2.5
0 7 25 1.5 3.4
0 8 -25 7.1 4.1
0 8 25 3.3 5.4
-1 0 -25 4 4
-1 0 25 10.4 5.1
-1 1 -25 158.28 13.4
1 1 25 186.58 15.1
-1 1 25 182.78 14.9
-1 2 -25 174.68 14
1 2 25 198.08 15.7
-1 2 25 162.68 14.5
-1 3 -25 5.3 3.8
1 3 25 3 3.9
-1 3 25 3.7 4
1 4 25 55.69 9.7
-1 4 -25 72.19 10.6
-1 4 25 72.99 11.5
-1 5 -25 8.7 3.9
1 5 25 -5.1 3
-1 5 25 3.2 3.7
-1 6 -25 194.38 14.3
1 6 25 177.48 15.7
-1 6 25 186.28 16.6
1 7 25 28.1 7.6
-1 7 -25 11.8 5.2
-1 7 25 29.1 8.5
-1 8 -25 103.39 10.8
1 8 25 79.59 13.4
-1 8 25 61.99 12.1
-2 0 25 4.8 3.5
-2 0 -25 5.5 3.7
-2 1 -25 12.9 5.4
2 1 25 16.9 5.5
-2 -1 -25 26.9 6.8
-2 1 25 20 6.2
-2 2 -25 104.99 11.5
2 2 25 124.79 12.2
-2 2 25 112.19 12.3
-2 -2 -25 105.39 11.5
-2 3 -25 77.19 11
2 3 25 65.19 10.4
-2 3 25 99.39 11.4
2 4 25 3.4 4
-2 4 -25 9.6 4
-2 4 25 11.5 6
-2 5 -25 23.1 6.4
2 5 25 22.4 6.8
-2 5 25 19.8 6
-2 6 -25 84.19 11.9
2 6 25 77.29 12.3
-2 6 25 69.59 11.4
2 7 25 19.1 7
-2 7 -25 12.7 5.2
-2 7 25 17 7.4
2 8 25 6.9 4.9
-2 8 -25 -6.7 3
-2 8 25 3.5 5.5
-3 0 -25 -2.6 2.4
-3 0 25 -3.1 2.5
3 1 25 52.69 9.5
-3 -1 25 34.5 7.8
-3 1 -25 25.8 7.5
-3 -1 -25 35.3 8.1
-3 1 25 45.8 9.3
-3 2 -25 118.49 12.1
3 2 25 75.39 11.1
-3 -2 -25 72.99 11.2
-3 2 25 79.29 11.8
-3 3 -25 2.4 3.8
3 3 25 6.9 4.6
-3 -3 -25 17.3 5.8
-3 3 25 -1.6 3.8
-3 4 -25 12.7 5.4
3 4 25 19.4 6.5
-3 4 25 5.2 4.4
-3 -4 -25 24.2 7
-3 5 -25 1.6 3.3
3 5 25 -1.6 3.2
-3 5 25 -1.9 3.9
-3 6 -25 8.6 5.4
3 6 25 10.1 5.2
-3 6 25 9.8 5.5
-3 7 -25 33.7 8
3 7 25 35.1 9.1
-3 7 25 34.8 9.3
-4 0 -25 2.6 3.4
-4 0 25 0 3.3
-4 1 -25 -4.5 2.5
-4 -1 25 -0.8 2.8
4 1 25 5.7 3.6
-4 1 25 -0.6 3.9
-4 -1 -25 1.1 2.8
4 2 25 4.9 3.6
-4 2 -25 -6.3 2.2
-4 2 25 -6.7 2.3
-4 -2 -25 4 3.7
4 3 25 170.28 14.2
-4 3 -25 175.78 14.8
-4 3 25 167.48 15.2
-4 -3 -25 150.68 13.9
-4 4 -25 37.5 8.2
4 4 25 41.8 8.7
-4 4 25 48.5 10
-4 -4 -25 47.5 9.7
-4 5 -25 4.3 3.8
4 5 25 0.3 3.7
-4 -5 -25 -3.2 2.6
-4 5 25 -1.8 4
-4 6 -25 31.3 7.8
4 6 25 40.4 8.7
-4 6 25 27.1 8.4
4 7 25 170.18 15.9
-4 7 -25 158.88 14.6
-4 7 25 105.29 15.4
-5 0 25 -5 2.6
-5 0 -25 -5.7 2.2
-5 1 -25 65.09 11
-5 -1 25 58.09 10.3
5 1 25 73.19 10.7
-5 1 25 57.39 10.5
-5 -1 -25 51.49 10.1
-5 -2 25 99.89 11.6
-5 2 -25 74.19 11.6
5 2 25 93.89 12.6
-5 2 25 103.99 12.2
-5 -2 -25 77.99 12.1
5 3 25 150.08 13.4
-5 3 -25 116.79 12
-5 -3 -25 127.19 13
-5 3 25 139.29 14.4
-5 4 -25 1 3.2
5 4 25 -3.8 3.4
-5 -4 -25 -3.7 3.7
-5 4 25 2.7 3.4
-5 5 -25 262.37 17.9
5 5 25 198.78 15.9
-5 -5 -25 238.18 17.6
-5 5 25 206.98 18.6
5 6 25 5.2 4.4
-5 6 -25 10.4 5
-5 -6 -25 6.2 5.1
-5 6 25 6.4 5.2
-6 0 -25 0.6 3.1
-6 0 25 -2.6 2.9
-6 -1 25 5 4.4
-6 1 -25 7.6 4.8
6 1 25 8.7 4.8
-6 -1 -25 5.6 4.6
-6 1 25 9.4 4.8
-6 -2 25 31.7 7.8
6 2 25 49.3 9
-6 2 -25 50.29 9.6
-6 2 25 26.3 7.6
-6 -2 -25 37 8.5
6 3 25 95.19 10.8
-6 3 -25 85.79 12.1
-6 -3 25 80.89 12.2
-6 3 25 79.39 12.4
-6 -3 -25 81.59 12.3
6 4 25 17.5 6.2
-6 4 -25 26.4 6.9
-6 4 25 24.7 7.6
-6 -4 -25 20.1 6.2
-6 5 -25 0.9 4.1
6 5 25 0.5 3.8
-6 -5 -25 4.8 4.3
-6 5 25 3.6 4.8
6 6 25 61.29 10.1
-6 6 -25 63.49 10.8
-6 6 25 74.99 13.1
-6 -6 -25 58.79 10.3
-7 0 25 3.3 4.1
-7 0 -25 -0.9 3.8
-7 -1 25 69.89 11.3
-7 1 -25 59.29 10.6
7 1 25 43.5 8.8
-7 -1 -25 43.2 9
-7 1 25 44.4 9.1
7 2 25 9.2 4.5
-7 2 -25 1.4 3.4
-7 -2 25 -0.8 3.7
-7 2 25 4.4 3.9
-7 -2 -25 7.6 4.6
7 3 25 11.6 4.6
-7 3 -25 4 3.5
-7 -3 -25 12.1 5.6
-7 3 25 2.4 4.6
-7 4 -25 9.7 5.8
-7 -4 25 20.8 6.4
7 4 25 11.6 5.1
-7 -4 -25 14.7 5.9
-7 4 25 11.6 5.7
-7 5 -25 33.8 8
7 5 25 30.1 7.5
-7 -5 -25 32.6 7.7
-7 5 25 34.8 8.9
-8 0 25 -1 3.7
-8 0 -25 0.2 4.2
-8 -1 25 -2.9 3.2
-8 1 -25 2.3 3.4
8 1 25 0.7 3.4
-8 -1 -25 1.1 3.6
-8 1 25 -6.1 3.6
8 2 25 60.19 9.7
-8 -2 25 71.09 11.4
-8 2 -25 58.99 10.3
-8 -2 -25 67.39 11.4
-8 2 25 93.09 13.6
-8 3 -25 48 9.8
-8 -3 25 40.1 8.6
8 3 25 28.3 6.9
-8 3 25 42.6 9.6
-8 -3 -25 33.7 8.7
0 0 26 16.8 6.2
0 1 26 4.5 3.6
0 2 26 17.9 6.1
0 3 26 -0.4 2.8
0 4 26 166.58 15.3
0 5 26 6.5 4
0 5 -26 0.1 3.2
0 6 26 27.1 8.8
0 6 -26 17.4 5.7
0 7 26 -8 3.3
-1 0 -26 77.19 11.4
-1 0 26 69.69 11
-1 1 -26 6 4
1 1 26 3.8 4.1
-1 1 26 11.4 5
1 2 26 189.58 15.8
-1 2 -26 182.38 15.1
-1 2 26 191.98 15.8
-1 3 -26 166.38 14
1 3 26 170.68 14.9
-1 3 26 210.18 16.6
-1 4 -26 2.7 3.8
1 4 26 0.6 3.8
-1 4 26 0.3 3.1
-1 5 -26 15 6.2
1 5 26 11.9 5.3
-1 5 26 14.4 5.6
-1 6 -26 34.6 7.7
1 6 26 24.3 7.6
-1 6 26 25.6 8.5
-1 7 -26 204.58 15.4
1 7 26 223.88 18.9
-1 7 26 192.48 18
-2 0 26 18.2 6
-2 0 -26 10.9 4.7
-2 1 -26 94.79 10.9
2 1 26 97.69 11.4
-2 -1 26 89.79 12.5
-2 1 26 113.09 12.1
-2 -1 -26 77.99 11.6
-2 2 -26 4.5 4.1
2 2 26 5.1 4.1
-2 -2 -26 1 3.5
-2 2 26 8.6 4.9
-2 3 -26 4.6 3.8
2 3 26 12.8 4.9
-2 3 26 1.5 3.8
2 4 26 8.5 5.3
-2 4 -26 15.8 6.3
-2 4 26 20.5 6.8
2 5 26 0.3 4.3
-2 5 -26 12.5 5.2
-2 5 26 10.6 5
2 6 26 22.1 7.2
-2 6 -26 9.3 5.3
-2 6 26 17.4 6.7
-2 7 -26 0.8 3.6
2 7 26 -1.3 4.2
-2 7 26 1 4.3
-3 0 -26 1.7 3.5
-3 0 26 -1.8 3.4
-3 -1 26 13.2 5.2
-3 1 -26 1 3.7
3 1 26 1.7 3.6
-3 1 26 4.8 4
-3 -1 -26 -0.7 3.4
-3 2 -26 -2.8 3
3 2 26 7 3.9
-3 -2 -26 2.8 3.6
-3 2 26 5.1 4.2
3 3 26 248.18 18
-3 3 -26 259.57 18
-3 -3 -26 255.47 18.4
-3 3 26 253.77 18.8
-3 4 -26 -0.3 3.6
3 4 26 -3.8 2.8
-3 4 26 2.1 3.9
-3 5 -26 10.1 5.6
3 5 26 10.6 5.8
-3 5 26 19.6 7.2
3 6 26 180.18 16.3
-3 6 -26 144.59 13.4
-3 6 26 169.78 16.3
-4 0 26 36.2 8.5
-4 0 -26 44.1 9.4
-4 -1 26 86.19 12.3
-4 1 -26 88.79 12.5
4 1 26 87.09 12.2
-4 1 26 90.09 12.7
-4 -1 -26 103.79 11.7
-4 -2 26 52.19 9.8
4 2 26 49.2 9.4
-4 2 -26 54.39 9.7
-4 -2 -26 64.39 10.7
-4 2 26 42 9.2
-4 3 -26 62.59 10.7
4 3 26 83.09 11.9
-4 3 26 93.79 13.4
-4 -3 -26 73.79 12.1
-4 4 -26 13 5.6
4 4 26 8.7 4.3
-4 4 26 13.3 6.4
-4 -4 -26 9.2 5.3
4 5 26 42.7 9.3
-4 5 -26 47.3 9.6
-4 5 26 62.89 11.7
4 6 26 42.3 9.4
-4 6 -26 49.7 9.5
-4 6 26 31.8 8.5
-5 0 26 0.1 3.3
-5 0 -26 4.9 4.5
-5 1 -26 111.09 12.3
-5 -1 26 96.89 13.5
5 1 26 92.79 10.9
-5 1 26 74.89 11.9
-5 -1 -26 120.09 12.8
-5 -2 26 69.59 11.3
5 2 26 49.8 9.6
-5 2 -26 30 7.8
-5 2 26 39.5 9
-5 -2 -26 50.59 9.9
5 3 26 86.79 12.4
-5 3 -26 110.99 12.3
-5 -3 -26 104.49 12.2
-5 3 26 96.59 14.1
-5 4 -26 -4.1 3.7
5 4 26 9.6 4.7
-5 -4 -26 4.4 4.9
-5 4 26 1.4 4.7
-5 5 -26 34.9 8.3
5 5 26 37.7 9.2
-5 -5 -26 30.4 8.3
-5 5 26 22.4 7.6
-6 0 -26 10.1 5.4
-6 0 26 8.3 5
-6 1 -26 0.8 4.1
6 1 26 6.7 4.1
-6 -1 26 3.8 4
-6 -1 -26 4.6 4.5
-6 1 26 -0.6 3.8
-6 2 -26 69.29 11.4
-6 -2 26 77.49 12.1
6 2 26 53.59 9.6
-6 -2 -26 68.09 11.4
-6 2 26 81.89 12.8
6 3 26 31.9 7
-6 3 -26 29.3 8.1
-6 -3 26 34.7 8.2
-6 -3 -26 28.8 8.1
-6 3 26 34.7 8.5
6 4 26 0.6 3.7
-6 4 -26 12.2 4.5
-6 4 26 -7 3.9
-6 -4 -26 -2.6 3.2
-7 0 -26 -3.9 3.5
-7 0 26 4.8 4.3
-7 1 -26 35 8.5
7 1 26 37.9 8.1
-7 -1 26 36.7 8.5
-7 1 26 39.6 9.1
-7 -1 -26 48.3 9.6
7 2 26 11.6 4.6
-7 -2 26 8.1 4.8
-7 2 -26 17.7 6.5
-7 2 26 15.7 5.4
-7 -2 -26 11.8 5.9
7 3 26 58.89 10
-7 -3 26 42.5 8.9
-7 3 -26 57.89 10.4
-7 3 26 46.8 10.7
-7 -3 -26 49.1 9.6
0 0 27 -1.2 3.1
0 1 27 -3.3 2.5
0 2 27 10.2 5.1
0 3 27 -0.6 4
0 4 27 417.76 24.3
0 5 27 1.4 3.4
0 6 27 34.7 9.1
-1 0 27 -0.5 2.7
1 0 27 -1.4 3.2
-1 1 -27 41.2 8.3
1 1 27 47.1 9
-1 1 27 52.59 10.1
-1 2 -27 16.9 6.7
1 2 27 24.8 7.2
-1 2 27 17.4 7
-1 3 -27 -6.5 2.8
1 3 27 -1.6 3.3
-1 3 27 0.8 3.8
-1 4 -27 -0.3 3.6
1 4 27 0.4 4.1
-1 4 27 0.6 3.5
-1 5 -27 114.19 11.8
1 5 27 97.19 14
-1 5 27 86.89 13.2
-1 6 -27 38.6 7.8
1 6 27 23.8 8.2
-1 6 27 14.3 6.8
-2 0 -27 -1.2 3
-2 0 27 4.1 4
2 1 27 9.9 4.8
-2 -1 27 12.8 5.6
-2 1 -27 5 4.2
-2 -1 -27 12.2 5.4
-2 1 27 0.1 3.7
-2 2 -27 4 4
2 2 27 15.9 5.8
-2 2 27 15.3 6.4
-2 3 -27 31.4 7.5
2 3 27 8.9 5.3
-2 3 27 13.8 5.7
-2 4 -27 86.99 12.5
2 4 27 85.79 13.1
-2 4 27 109.59 12.6
2 5 27 79.89 12.6
-2 5 -27 72.99 11.2
-2 5 27 89.59 13.2
-3 0 27 -4.3 2.7
-3 0 -27 2.5 3.8
-3 -1 27 52.19 9.9
3 1 27 48.2 9.3
-3 1 -27 41.3 8.5
-3 1 27 32.8 8.4
-3 -1 -27 35 8.3
3 2 27 133.89 14
-3 2 -27 136.09 13.5
-3 2 27 145.49 15.1
-3 -2 -27 167.68 15.3
3 3 27 46.6 10
-3 3 -27 49.4 9.4
-3 -3 -27 24 7
-3 3 27 41.5 9.1
3 4 27 215.58 17.7
-3 4 -27 213.18 16.8
-3 4 27 204.78 17.9
3 5 27 6.7 4.5
-3 5 -27 0.7 3.8
-3 5 27 5 4.6
-4 0 -27 -4 3.2
-4 0 27 -1.6 3.2
-4 1 -27 25.1 7
4 1 27 26.4 7.8
-4 -1 27 53.69 10.3
-4 1 27 24.7 6.6
-4 -1 -27 32.3 8.2
-4 -2 27 -0.5 3.8
-4 2 -27 11 5.9
4 2 27 6.8 5.2
-4 2 27 1.8 4.1
-4 -2 -27 12.7 5.9
-4 3 -27 90.49 12.8
4 3 27 78.09 12.1
-4 -3 -27 104.29 12.2
-4 3 27 92.79 13.5
-4 4 -27 48.5 9.6
4 4 27 43.1 9.7
-4 -4 -27 34.7 8.7
-4 4 27 42.6 9.8
-5 0 27 -1.5 3.3
-5 0 -27 -4.6 2.5
5 1 27 3.5 3.5
-5 -1 27 -3.2 3.5
-5 1 -27 -0.5 3.1
-5 1 27 1.3 3.8
-5 -1 -27 -2.6 3.4
-5 -2 27 79.89 12.4
-5 2 -27 94.39 13.3
5 2 27 103.59 12.2
-5 2 27 102.69 14.5
-5 -2 -27 92.09 13.2
-5 -3 27 37.7 8.6
5 3 27 52.29 10.1
-5 3 -27 38.4 8.3
-5 3 27 40.7 9.7
-5 -3 -27 56.89 10.6
-6 0 -27 5.6 4.5
-6 0 27 -1.4 4.1
6 1 27 46.2 8.9
-6 -1 27 43.4 9.2
-6 1 -27 34.4 8.7
-6 -1 -27 22.6 6.8
-6 1 27 30.6 7.8
6 2 27 29.2 7.5
-6 2 -27 17.1 6.2
-6 -2 27 8.1 5.7
-6 -2 -27 13.1 6
-6 2 27 8.4 5.7
0 0 28 115.89 12.9
0 1 28 1.6 3
0 2 28 33.6 8
0 3 28 -0.2 3.9
0 4 28 9.1 5.2
-1 0 28 37 8.8
1 0 28 49.7 9.4
-1 -1 28 250.07 18.5
1 1 28 222.78 17.7
-1 1 28 246.38 18.4
1 2 28 -4.4 3.2
-1 2 28 -3.3 3.1
-1 3 -28 3.4 4.8
1 3 28 4.1 4.4
-1 3 28 -6.4 3
1 4 28 7.4 5.5
-1 4 -28 9.1 5.1
-1 4 28 2.6 4.5
-2 0 -28 0.8 3.5
2 0 28 0.3 2.8
-2 0 28 5.1 4.2
-2 1 -28 4 4.1
-2 -1 28 4.5 4.5
2 1 28 9.7 4.5
-2 1 28 3.9 3.2
-2 2 -28 2 3.5
2 2 28 0.5 3.3
-2 2 28 2.9 3.9
-2 3 -28 7.3 4.5
2 3 28 8.6 5
-2 3 28 -5.8 5
2 4 28 8.5 5.1
-2 4 -28 -6.5 3.9
-2 4 28 8.4 5.6
-3 0 28 6.5 3.8
3 0 28 -5.2 2.8
-3 0 -28 0 2.8
-3 1 -28 20.6 6.3
3 1 28 15.8 6.1
-3 -1 28 34 8.2
-3 1 28 10.8 5.3
-3 -1 -28 15.5 6.1
3 2 28 116.59 12.8
-3 -2 28 124.49 13.3
-3 2 -28 114.39 12.3
-3 -2 -28 133.29 14
-3 2 28 112.59 15.6
-3 3 -28 -1.6 4.3
3 3 28 -5.6 3.4
-3 3 28 -1 4.5
-4 0 -28 11.2 5.4
-4 0 28 9.2 4.9
4 0 28 7.9 4.5
-4 1 -28 18.4 5.4
-4 -1 28 14.1 6
4 1 28 5.1 5
-4 -1 -28 22 6.4
-4 1 28 2.5 4.8
-4 2 -28 5.1 5.4
-4 -2 28 8.2 5.4
4 2 28 13.5 5.8
-4 2 28 3.3 4.2
-4 -2 -28 9.6 5.3
0 0 29 1.4 4.8
0 -1 29 -1.5 3.7
0 1 29 2.9 3.9
1 0 29 3.4 4.3
-1 0 29 4.5 4.1
