#------------------------------------------------------------------------------
#$Date: 2024-02-04 14:18:02 +0200 (Sun, 04 Feb 2024) $
#$Revision: 289573 $
#$URL: file:///home/coder/svn-repositories/cod/cif/1/57/06/1570615.cif $
#------------------------------------------------------------------------------
#
# This file is available in the Crystallography Open Database (COD),
# http://www.crystallography.net/
#
# All data on this site have been placed in the public domain by the
# contributors.
#
data_1570615
loop_
_publ_author_name
'Ren, Zhen'
'Sun, Jun-Jun'
'Xu, Long'
'Luo, Peng'
'Ma, Zi-Wei'
'Li, Si'
'Si, Yu-Bing'
'Dong, Xi-Yan'
'Pan, Fangfang'
_publ_section_title
;
 X-ray-triggered through-space charge transfer and photochromism in silver
 nanoclusters.
;
_journal_issue                   5
_journal_name_full               Nanoscale
_journal_page_first              2662
_journal_page_last               2671
_journal_paper_doi               10.1039/d3nr05409h
_journal_volume                  16
_journal_year                    2024
_chemical_formula_moiety         'C72 H108 Ag14, Cl, 0.167(H6 O6)'
_chemical_formula_sum            'C72 H109 Ag14 Cl O'
_chemical_formula_weight         2536.22
_chemical_name_systematic        'AG14 II Ga 300K'
_space_group_crystal_system      trigonal
_space_group_IT_number           148
_space_group_name_Hall           '-R 3'
_space_group_name_H-M_alt        'R -3 :H'
_atom_sites_solution_hydrogens   mixed
_audit_block_doi                 10.5517/ccdc.csd.cc2h9rzk
_audit_creation_date             2023-10-24
_audit_creation_method
;
Olex2 1.5
(compiled 2023.08.24 svn.re1ec1418 for OlexSys, GUI svn.r6817)
;
_audit_update_record
;
2023-10-24 deposited with the CCDC.	2023-12-28 downloaded from the CCDC.
;
_cell_angle_alpha                90
_cell_angle_beta                 90
_cell_angle_gamma                120
_cell_formula_units_Z            3
_cell_length_a                   16.438(3)
_cell_length_b                   16.438(3)
_cell_length_c                   29.900(7)
_cell_measurement_reflns_used    4416
_cell_measurement_temperature    302.00
_cell_measurement_theta_max      47.26
_cell_measurement_theta_min      4.68
_cell_volume                     6997(2)
_computing_cell_refinement       'SAINT V8.40B (?, 2016)'
_computing_data_reduction        'SAINT V8.40B (?, 2016)'
_computing_molecular_graphics    'Olex2 1.5 (Dolomanov et al., 2009)'
_computing_publication_material  'Olex2 1.5 (Dolomanov et al., 2009)'
_computing_structure_refinement  'SHELXL 2018/3 (Sheldrick, 2015)'
_computing_structure_solution    'SHELXT 2018/2 (Sheldrick, 2018)'
_diffrn_ambient_temperature      302.00
_diffrn_measured_fraction_theta_full 0.986
_diffrn_measured_fraction_theta_max 0.986
_diffrn_measurement_device_type  'Bruker APEX-II CCD'
_diffrn_measurement_method       '\f and \w scans'
_diffrn_radiation_type           GaK\a
_diffrn_radiation_wavelength     1.34139
_diffrn_reflns_av_R_equivalents  0.0660
_diffrn_reflns_av_unetI/netI     0.0493
_diffrn_reflns_Laue_measured_fraction_full 0.986
_diffrn_reflns_Laue_measured_fraction_max 0.986
_diffrn_reflns_limit_h_max       15
_diffrn_reflns_limit_h_min       -16
_diffrn_reflns_limit_k_max       16
_diffrn_reflns_limit_k_min       -16
_diffrn_reflns_limit_l_max       30
_diffrn_reflns_limit_l_min       -27
_diffrn_reflns_number            7045
_diffrn_reflns_point_group_measured_fraction_full 0.986
_diffrn_reflns_point_group_measured_fraction_max 0.986
_diffrn_reflns_theta_full        42.493
_diffrn_reflns_theta_max         42.493
_diffrn_reflns_theta_min         4.681
_diffrn_standards_number         0
_exptl_absorpt_coefficient_mu    16.028
_exptl_absorpt_correction_T_max  0.7504
_exptl_absorpt_correction_T_min  0.4129
_exptl_absorpt_correction_type   none
_exptl_absorpt_process_details
;
SADABS-2016/2 (Bruker,2016/2) was used for absorption correction.
wR2(int) was 0.1430 before and 0.1026 after correction.
The Ratio of minimum to maximum transmission is 0.5502.
The \l/2 correction factor is Not present.
;
_exptl_crystal_colour            colourless
_exptl_crystal_colour_primary    colourless
_exptl_crystal_density_diffrn    1.806
_exptl_crystal_description       block
_exptl_crystal_F_000             3672
_exptl_crystal_size_max          0.1
_exptl_crystal_size_mid          0.1
_exptl_crystal_size_min          0.1
_refine_diff_density_max         1.044
_refine_diff_density_min         -1.017
_refine_diff_density_rms         0.159
_refine_ls_extinction_coef       0.00011(2)
_refine_ls_extinction_expression Fc^*^=kFc[1+0.001xFc^2^\l^3^/sin(2\q)]^-1/4^
_refine_ls_extinction_method     'SHELXL-2018/3 (Sheldrick 2018)'
_refine_ls_goodness_of_fit_ref   1.071
_refine_ls_hydrogen_treatment    constr
_refine_ls_matrix_type           full
_refine_ls_number_parameters     168
_refine_ls_number_reflns         1645
_refine_ls_number_restraints     308
_refine_ls_restrained_S_all      1.043
_refine_ls_R_factor_all          0.0779
_refine_ls_R_factor_gt           0.0671
_refine_ls_shift/su_max          0.001
_refine_ls_shift/su_mean         0.000
_refine_ls_structure_factor_coef Fsqd
_refine_ls_weighting_details
'w=1/[\s^2^(Fo^2^)+(0.1114P)^2^+150.7764P] where P=(Fo^2^+2Fc^2^)/3'
_refine_ls_weighting_scheme      calc
_refine_ls_wR_factor_gt          0.1921
_refine_ls_wR_factor_ref         0.2031
_reflns_Friedel_coverage         0.000
_reflns_number_gt                1342
_reflns_number_total             1645
_reflns_threshold_expression     'I > 2\s(I)'
_cod_data_source_file            d3nr05409h2.cif
_cod_data_source_block           ag14-ii-xga_300k
_cod_depositor_comments
'Adding full bibliography for 1570610--1570618.cif.'
_cod_original_cell_volume        6996(3)
_cod_original_sg_symbol_H-M      'R -3'
_cod_database_code               1570615
_shelx_shelxl_version_number     2018/3
_shelx_space_group_comment
;
The symmetry employed for this shelxl refinement is uniquely defined
by the following loop, which should always be used as a source of
symmetry information in preference to the above space-group names.
They are only intended as comments.
;
_olex2_refinement_description
;
1. Fixed Uiso
 At 1.5 times of:
  All C(H,H,H) groups, All O(H) groups
2. Restrained distances
 C5-C009 = C3-C009 = C009-C008 = C4-C00A = C1-C00A = C6-C00A
 1.54 with sigma of 0.02
 C2-C009 = C7-C009 = C10-C009
 1.54 with sigma of 0.02
 C6-C00A
 1.5 with sigma of 0.02
 C009-C007
 1.54 with sigma of 0.01
 C00B-C00A
 1.54 with sigma of 0.01
 C00A-C6
 1.54 with sigma of 0.01
 C007-C005
 1.2 with sigma of 0.02
 C00B-C006
 1.2 with sigma of 0.02
 C1-C4 \\sim C4-C6 \\sim C6-C1 \\sim C3-C5 \\sim C5-C008 \\sim C008-C3
 with sigma of 0.02
 C2-C7 \\sim C7-C10 \\sim C10-C2
 with sigma of 0.02
 C5-C007 \\sim C007-C3
 with sigma of 0.02
 C5-C009 \\sim C10-C009 \\sim C7-C009 \\sim C009-C008 \\sim C2-C009 \\sim
C3-C009
 with sigma of 0.02
 C4-C00A \\sim C1-C00A \\sim C6-C00A
 with sigma of 0.02
3. Rigid bond restraints
 All non-hydrogen atoms
 with sigma for 1-2 distances of 0.01 and sigma for 1-3 distances of 0.01
4. Uiso/Uaniso restraints and constraints
C6 \\sim C00A \\sim C1 \\sim C4: within 2A with sigma of 0.04 and sigma for
terminal atoms of 0.08 within 2A
Uanis(C009) \\sim Ueq, Uanis(C008) \\sim Ueq: with sigma of 0.02 and sigma for
terminal atoms of 0.04
Uanis(C10) \\sim Ueq, Uanis(C7) \\sim Ueq, Uanis(C2) \\sim Ueq: with sigma of
0.02 and sigma for terminal atoms of 0.04
Uanis(C4) \\sim Ueq, Uanis(C6) \\sim Ueq, Uanis(C1) \\sim Ueq, Uanis(C5) \\sim
Ueq, Uanis(C3) \\sim Ueq: with sigma of 0.01 and sigma for terminal atoms of
0.02
5. Rigid body (RIGU) restrains
 C009, C3
 with sigma for 1-2 distances of 0.02 and sigma for 1-3 distances of 0.02
 C006, C00B, C00A
 with sigma for 1-2 distances of 0.02 and sigma for 1-3 distances of 0.02
 All non-hydrogen atoms
 with sigma for 1-2 distances of 0.004 and sigma for 1-3 distances of 0.004
6. Others
 Fixed Sof: C008(0.5) H00A(0.5) H00B(0.5) H00C(0.5) C5(0.5) H5A(0.5) H5B(0.5)
 H5C(0.5) C3(0.5) H3A(0.5) H3B(0.5) H3C(0.5) C2(0.5) H2A(0.5) H2B(0.5) H2C(0.5)
 C10(0.5) H10A(0.5) H10B(0.5) H10C(0.5) C7(0.5) H7A(0.5) H7B(0.5) H7C(0.5)
 H1(0.166667)
7.a Riding coordinates:
 C008(H00A,H00B,H00C), C10(H10A,H10B,H10C), O1(H1)
7.b Idealised Me refined as rotating group:
 C6(H6A,H6B,H6C), C4(H4A,H4B,H4C), C1(H1A,H1B,H1C), C5(H5A,H5B,H5C), C3(H3A,
 H3B,H3C), C2(H2A,H2B,H2C), C7(H7A,H7B,H7C)
;
_shelx_res_file
;
TITL ag14-1_rt_a.res in R-3
    ag14-ii-xga_300k.res
    created by SHELXL-2018/3 at 22:12:38 on 24-Oct-2023
REM Old TITL Ag14-1_rt in R-3
REM SHELXT solution in R-3: R1 0.190, Rweak 0.011, Alpha 0.026
REM <I/s> 0.000 for 0 systematic absences, Orientation as input
REM Formula found by SHELXT: C42 Cl Ag14
CELL 1.34139 16.4375 16.4375 29.9005 90 90 120
ZERR 3 0.0028 0.0028 0.0072 0 0 0
LATT 3
SYMM -Y,+X-Y,+Z
SYMM +Y-X,-X,+Z
SFAC C H Ag Cl O
DISP Ag 0.0782 3.3823 26090.1
DISP C 0.0137 0.0067 57.1
DISP Cl 0.3281 0.5435 4162.2
DISP H -0 0 0.6481
DISP O 0.0389 0.0241 193.4
UNIT 216 327 42 3 3
DFIX 1.54 C5 C009 C3 C009 C009 C008 C4 C00A C1 C00A C6 C00A
DFIX 1.54 C2 C009 C7 C009 C10 C009
ISOR 0.02 0.04 C009 C008
ISOR 0.02 0.04 C10 C7 C2
SADI C1 C4 C4 C6 C6 C1 C3 C5 C5 C008 C008 C3
SADI C2 C7 C7 C10 C10 C2
ISOR 0.01 0.02 C4 C6 C1 C5 C3
SADI C5 C007 C007 C3
DFIX 1.5 C6 C00A
RIGU 0.02 0.02 C009 C3
RIGU 0.02 0.02 C006 C00B C00A
SIMU C6 C00A C1 C4
DFIX 1.54 0.01 C009 C007
DFIX 1.54 0.01 C00B C00A
DFIX 1.54 0.01 C00A C6
DFIX 1.2 C007 C005
DFIX 1.2 C00B C006
DELU
SADI C5 C009 C10 C009 C7 C009 C009 C008 C2 C009 C3 C009
SADI C4 C00A C1 C00A C6 C00A
RIGU

L.S. 10 0 0
PLAN  10
TEMP 28.85
CONF
BOND
list 4
MORE -1
BOND $H
fmap 2 53
acta
OMIT -3 85
OMIT -5 3 4
OMIT -1 1 1
OMIT 0 1 2
REM <olex2.extras>
REM <HklSrc "%.\\Ag14-II-XGa_300K.hkl">
REM </olex2.extras>

WGHT    0.111400  150.776398
EXTI    0.000109
FVAR       0.09057
AG01  3    0.522094    0.365908    0.396670    11.00000    0.08909    0.08176 =
         0.07682    0.01708    0.01478    0.05133
AG02  3    0.666667    0.333333    0.437626    10.33333    0.08290    0.08290 =
         0.07272    0.00000    0.00000    0.04145
AG03  3    0.700052    0.526680    0.369398    11.00000    0.07819    0.09818 =
         0.08260    0.00544    0.00267    0.04226
CL04  4    0.666667    0.333333    0.333333    10.16667    0.05984    0.05984 =
         0.04715    0.00000    0.00000    0.02992
C005  1    0.539460    0.476078    0.357466    11.00000    0.07892    0.07123 =
         0.09226    0.00566    0.00636    0.04653
C006  1    0.501693    0.257322    0.438544    11.00000    0.08542    0.09222 =
         0.06732    0.01969    0.02354    0.04629
C007  1    0.529967    0.532831    0.339016    11.00000    0.09863    0.10656 =
         0.12091    0.04247    0.04310    0.07284
PART 1
C008  1    0.593829    0.702117    0.341608    10.50000    0.17076    0.12348 =
         0.21620    0.00563   -0.01846    0.09255
AFIX   3
H00A  2    0.596029    0.695597    0.373428    10.50000   -1.50000
H00B  2    0.581139    0.751897    0.335068    10.50000   -1.50000
H00C  2    0.653109    0.716587    0.328788    10.50000   -1.50000
AFIX   0
PART 0
C009  1    0.516424    0.611582    0.320356    11.00000    0.14088    0.11613 =
         0.14536    0.03570    0.01405    0.08952
C00A  1    0.444354    0.135485    0.506784    11.00000    0.18354    0.14810 =
         0.10553    0.06293    0.04056    0.07130
C00B  1    0.472928    0.201839    0.466785    11.00000    0.11931    0.10856 =
         0.08614    0.03332    0.03614    0.05965
C6    1    0.385152    0.160228    0.536949    11.00000    0.25798    0.24460 =
         0.15909    0.06302    0.11102    0.10676
AFIX 137
H6A   2    0.421695    0.224631    0.546168    11.00000   -1.50000
H6B   2    0.365706    0.120302    0.562822    11.00000   -1.50000
H6C   2    0.330755    0.151339    0.520861    11.00000   -1.50000
AFIX   0
C4    1    0.387271    0.037497    0.487640    11.00000    0.24292    0.13383 =
         0.19065    0.05969    0.01832    0.06025
AFIX 137
H4A   2    0.351962    0.038854    0.462361    11.00000   -1.50000
H4B   2    0.344954   -0.003826    0.510047    11.00000   -1.50000
H4C   2    0.428691    0.015314    0.478371    11.00000   -1.50000
AFIX   0
C1    1    0.530844    0.147838    0.531156    11.00000    0.25301    0.24225 =
         0.18985    0.07724   -0.03056    0.11547
AFIX 137
H1A   2    0.559031    0.118725    0.514227    11.00000   -1.50000
H1B   2    0.513057    0.119006    0.560120    11.00000   -1.50000
H1C   2    0.575135    0.213595    0.534530    11.00000   -1.50000
AFIX   0
PART 1
C5    1    0.527252    0.616283    0.269662    10.50000    0.15882    0.14239 =
         0.14600    0.05693    0.02104    0.09075
AFIX 137
H5A   2    0.589730    0.630519    0.262001    10.50000   -1.50000
H5B   2    0.516233    0.664447    0.258143    10.50000   -1.50000
H5C   2    0.482616    0.556847    0.256901    10.50000   -1.50000
AFIX   0
C3    1    0.420449    0.595980    0.334072    10.50000    0.15001    0.14319 =
         0.15367    0.01735    0.00004    0.11371
AFIX 137
H3A   2    0.372585    0.545663    0.316718    10.50000   -1.50000
H3B   2    0.418054    0.652386    0.328901    10.50000   -1.50000
H3C   2    0.410194    0.580054    0.365245    10.50000   -1.50000
AFIX   0
PART 2
C2    1    0.483068    0.650625    0.357707    10.50000    0.19345    0.13786 =
         0.20045    0.02569    0.03583    0.12672
AFIX 137
H2A   2    0.432522    0.599702    0.373610    10.50000   -1.50000
H2B   2    0.461544    0.690302    0.345179    10.50000   -1.50000
H2C   2    0.534078    0.686524    0.377916    10.50000   -1.50000
AFIX   0
C10   1    0.436067    0.544932    0.289315    10.50000    0.18271    0.18742 =
         0.19812    0.00677   -0.04145    0.11700
AFIX   3
H10A  2    0.427627    0.579262    0.265535    10.50000   -1.50000
H10B  2    0.379967    0.514422    0.307095    10.50000   -1.50000
H10C  2    0.448837    0.498592    0.276895    10.50000   -1.50000
AFIX   0
C7    1    0.601367    0.685754    0.295036    10.50000    0.18412    0.15758 =
         0.14884    0.08620    0.02757    0.10041
AFIX 137
H7A   2    0.656132    0.683030    0.303817    10.50000   -1.50000
H7B   2    0.610357    0.746807    0.301801    10.50000   -1.50000
H7C   2    0.591303    0.674305    0.263485    10.50000   -1.50000
AFIX   0

PART 0
O1    5    0.333333    0.666667    0.166667    10.16667    0.41670
AFIX   3
H1    2    0.372440    0.722970    0.173970    10.16667   -1.50000
AFIX   0
HKLF 4




REM  ag14-1_rt_a.res in R-3
REM wR2 = 0.2031, GooF = S = 1.071, Restrained GooF = 1.043 for all data
REM R1 = 0.0671 for 1342 Fo > 4sig(Fo) and 0.0779 for all 1645 data
REM 168 parameters refined using 308 restraints

END

WGHT      0.1114    150.6095

REM Highest difference peak  1.044,  deepest hole -1.017,  1-sigma level  0.159
Q1    1   0.7302  0.5903  0.3863  11.00000  0.05    1.04
Q2    1   0.4027 -0.0610  0.4630  11.00000  0.05    0.69
Q3    1   0.2844 -0.0033  0.4355  11.00000  0.05    0.69
Q4    1   0.4848  0.3125  0.4542  11.00000  0.05    0.67
Q5    1   0.3814  0.4151  0.2708  11.00000  0.05    0.65
Q6    1   0.4827  0.4077  0.4386  11.00000  0.05    0.64
Q7    1   0.4215  0.7440  0.1966  11.00000  0.05    0.59
Q8    1   0.4041  0.7584  0.1661  11.00000  0.05    0.55
Q9    1   0.4674  0.1724  0.5531  11.00000  0.05    0.53
Q10   1   0.4017  0.1217  0.4936  11.00000  0.05    0.53
;
_shelx_res_checksum              66123
_shelx_hkl_file
;
   1  -2   0 1729.13  134.89
   1  -2   0 1595.14  134.79
   1   1   0 1580.34  134.79
  -2   1   0 1555.84  134.79
  -1   2   0 1939.61  135.79
  -1  -1   0 1504.25  134.79
   2  -1   0 1640.14  134.79
  -3   3   0  911.01   74.79
   3   0   0  853.61   73.39
  -3   3   0  905.71   73.39
  -3   3   0  841.22   73.39
   0  -3   0 1033.80   73.49
   0   3   0  813.22   73.49
   3  -3   0  799.32   73.39
   3  -3   0  920.61   73.39
  -3   0   0  945.01   73.39
   3  -3   0  941.81   74.79
   2  -4   0 1093.99   86.69
   2   2   0  972.50   84.89
  -4   2   0 1081.49   84.79
  -4   2   0 1029.50   87.09
   2   2   0  993.20   84.79
  -4   2   0 1030.10   84.79
   2  -4   0 1006.70   84.99
   2  -4   0  996.90   84.89
  -2  -2   0 1048.60   84.79
   4  -2   0 1115.39   84.79
  -2   4   0 1104.79   86.79
  -2   4   0 1035.30   84.89
   4  -2   0  958.70   84.89
  -5   1   0 5502.85  436.96
   4  -5   0 6146.69  437.16
   1   4   0 4903.11  437.36
  -4   5   0 5027.10  436.96
  -1  -4   0 5136.79  436.96
   4   1   0    2.70    1.80
  -5   4   0    1.10    0.80
  -5   4   0    2.10    0.60
   1  -5   0    0.70    1.10
  -5   4   0    1.20    0.60
   1  -5   0    4.00    1.10
   1  -5   0    3.30    2.80
   5  -4   0    1.70    0.70
   5  -4   0    2.50    3.70
   5  -4   0    2.10    1.00
  -1   5   0    3.00    3.40
   3  -6   0  249.88   20.50
  -6   3   0  200.18   20.50
   3  -6   0  247.08   23.30
  -6   3   0  269.57   20.40
   3  -6   0  212.18   20.70
   3   3   0  278.97   20.40
  -3  -3   0  258.97   20.50
  -3   6   0  276.17   20.70
   6  -3   0  230.28   20.40
   6  -3   0  260.87   20.50
   6  -3   0  208.58   20.50
   6  -3   0  265.97   22.90
   0  -6   0 4936.11  407.16
   0  -6   0 5199.28  403.16
  -6   6   0 4786.02  402.86
  -6   0   0 4324.07  402.86
   6  -6   0 5479.75  402.86
  -6   0   0 5335.77  402.86
   6  -6   0 4409.56  402.86
  -7   2   0 5473.05  445.06
  -2  -5   0 5446.65  444.96
  -2  -5   0 5394.56  444.86
  -7   5   0  299.77   28.50
   2  -7   0  366.06   28.80
   2  -7   0  370.26   32.60
   7  -5   0  380.16   28.70
  -5  -2   0  321.07   28.60
   7  -8   0  464.15   38.50
  -8   1   0  476.85   38.40
   7  -8   0  465.55   42.50
   1   7   0  489.85   38.50
  -1  -7   0  422.56   42.20
  -7   8   0  501.85   38.50
  -7   8   0  419.46   38.50
   4  -8   0    5.20    4.50
  -8   4   0    4.10    1.00
   4  -8   0    3.80    1.40
   8  -4   0    6.90    3.90
  -4   8   0    1.80    1.30
  -4  -4   0    4.50    1.50
   1  -8   0   40.90    4.70
   1  -8   0   44.30    8.70
  -8   7   0   41.80    4.10
   8  -7   0   42.60    4.20
  -7  -1   0   44.00    4.40
  -1   8   0   43.60    4.50
   8  -7   0   36.30    7.20
  -9   3   0    5.10    1.30
   6  -9   0    1.60    1.30
   6  -9   0    2.50    3.40
   3   6   0    4.10    1.30
  -3  -6   0    1.40    4.20
  -3  -6   0    3.30    1.90
  -6   9   0    2.90    1.40
  -6   9   0    4.40    1.30
   3  -9   0   51.99    5.20
   3  -9   0   43.40    9.40
  -9   6   0   46.30    4.60
  -6  -3   0   44.90    5.00
   9  -6   0   37.80    8.00
  -3   9   0   44.70    5.00
   9  -6   0   59.59    4.90
   0  -9   0  355.26   27.20
  -9   9   0  298.17   26.80
   9  -9   0  328.87   27.10
   0   9   0  292.97   26.90
  -9   0   0  306.07   26.80
   9  -9   0  392.06   39.70
   8 -10   0    0.90    4.00
   2   8   0   -0.50    1.70
 -10   2   0    3.90    1.40
   8 -10   0    0.40    1.30
  -2  -8   0   -1.90    5.80
  -2  -8   0   -0.20    2.00
  -8  10   0    1.70    1.50
  -8  10   0    0.60    1.20
 -10   5   0   46.60    4.90
   5 -10   0   51.69    5.60
  -5  -5   0   48.80    5.70
  -5  10   0   53.19    5.40
 -10   8   0   57.59    5.60
   2 -10   0   55.29   11.90
   2 -10   0   61.99    6.40
  -2  10   0   55.89    5.90
  -8  -2   0   62.49    6.10
  10  -8   0   44.30    9.60
  10  -8   0   54.19    5.70
 -11   1   0  301.57   25.60
  10 -11   0  305.27   40.90
   1  10   0  312.67   25.70
  10 -11   0  294.87   25.80
  -1 -10   0  263.67   32.70
  -1 -10   0  308.77   26.10
 -10  11   0  319.37   25.70
   7 -11   0  147.79   13.10
   4   7   0  150.58   12.50
   7 -11   0  137.39   18.60
 -11   4   0  140.89   12.60
  -4  -7   0  123.59   19.10
  -4  -7   0  148.99   13.20
  -7  11   0  141.19   12.90
  -7  11   0  150.88   12.80
   4 -11   0 2564.34  193.58
   4 -11   0 2155.98  199.28
 -11   7   0 2243.28  193.18
  -4  11   0 2387.76  193.38
  -7  -4   0 2414.86  193.38
   1 -11   0   19.50    3.50
   1 -11   0    9.80    8.10
 -11  10   0   27.30    3.50
 -10  -1   0   21.60    3.20
  11 -10   0   15.40    7.50
  -1  11   0   18.80    3.00
  11 -10   0   15.10    2.90
   9 -12   0  413.16   56.69
 -12   3   0  461.55   42.70
   3   9   0  513.25   42.80
   9 -12   0  541.45   43.20
  -3  -9   0  557.34   43.40
  -9  12   0  549.95   43.00
   6 -12   0   84.49   16.50
 -12   6   0  108.19    9.70
   6 -12   0   94.09   10.40
  -6  12   0  117.29   10.20
  -6  12   0   96.19    9.90
  -6  -6   0  122.69   10.60
   3 -12   0  358.86   44.40
 -12   9   0  466.85   37.60
   3 -12   0  460.95   38.00
  -9  -3   0  498.25   37.90
  12  -9   0  418.16   37.70
  -3  12   0  464.45   37.70
 -12  12   0   14.60    3.10
   0 -12   0   19.70    3.90
 -12   0   0   17.40    3.50
   0  12   0   23.30    3.40
  12 -12   0   12.60    8.30
   2  11   0  896.71   71.09
 -13   2   0  768.22   70.99
  11 -13   0  990.60   93.59
  11 -13   0  789.72   71.39
  -2 -11   0  871.31   71.59
 -11  13   0  901.91   71.29
   8 -13   0   29.50    4.80
   5   8   0   35.40    5.00
 -13   5   0   35.30    4.70
   8 -13   0   19.70   10.80
  -8  13   0   33.40    5.40
  -5  -8   0   33.20    5.10
  -8  13   0   48.60    5.80
   5 -13   0  422.46   36.60
   5 -13   0  363.36   42.00
 -13   8   0  395.96   33.80
  -5  13   0  414.06   34.00
  -8  -5   0  405.36   34.20
   2 -13   0    1.00    2.70
 -13  11   0    0.70    1.90
  13 -11   0    0.50    6.00
 -11  -2   0    2.80    2.80
  -2  13   0    0.50    1.90
  13 -14   0   -8.70   11.30
  13 -14   0   -0.60    4.60
 -14   1   0    3.80    3.40
 -13  14   0    4.50    3.30
  -1 -13   0   -5.80    4.00
  10 -14   0  105.79   22.00
 -14   4   0  121.89   12.00
   4  10   0  148.39   12.70
  10 -14   0  122.39   13.00
 -10  14   0  137.09   12.60
  -4 -10   0  132.29   13.50
 -14   7   0    4.60    2.20
   7 -14   0   -3.70    3.10
   7 -14   0    1.30   10.70
  -7  -7   0    1.60    3.30
  -7  14   0    6.70    2.60
  -7  14   0    4.60    2.30
   4 -14   0    6.10   19.60
   4 -14   0    9.30    3.30
 -14  10   0    2.00    2.00
 -10  -4   0    2.40    3.10
  -4  14   0    1.30    2.10
   1 -14   0    6.90    4.10
 -14  13   0    7.20    3.20
 -13  -1   0   11.00    3.90
  -1  14   0    5.00    3.00
  14 -13   0    9.60    4.80
  14 -13   0    7.60    9.80
 -15   3   0   22.40    4.20
  12 -15   0   26.10    6.00
  12 -15   0    9.90   13.40
 -12  15   0   25.40    4.70
  -3 -12   0   15.20    5.00
 -15   6   0    5.10    2.80
   9 -15   0    5.70   10.20
   9 -15   0    4.40    4.00
  -6  -9   0    7.40    4.70
  -9  15   0    1.40    3.20
 -15   9   0    7.80    3.30
   6 -15   0    9.70    4.10
   6 -15   0   -1.60   29.40
  -6  15   0    8.00    3.40
  -6  15   0    3.60    3.10
  -9  -6   0    6.70    4.10
   3 -15   0    7.50    4.70
 -15  12   0   20.00    4.00
  -3  15   0   18.60    3.90
 -12  -3   0   19.90    4.70
 -15  15   0   12.60    5.30
   0 -15   0   -2.80    6.20
 -15   0   0    7.90    5.40
  15 -15   0    3.10   12.40
   0  15   0   10.10    5.40
 -16   2   0   -5.70    5.30
  14 -16   0   43.90   45.80
  -2 -14   0    1.40    6.80
 -14  16   0   -2.00    6.30
  11 -16   0    6.30    5.80
 -16   5   0    4.20    3.60
  -5 -11   0   -4.60    5.00
 -11  16   0    3.60    4.50
   8 -16   0    8.60   21.40
   8 -16   0   25.80    6.10
 -16   8   0   29.80    4.60
  -8  -8   0   17.70    5.80
  -8  16   0   32.10    5.30
   5 -16   0    3.60    5.30
 -16  11   0    6.20    3.50
  -5  16   0    9.10    5.00
 -11  -5   0   11.70    4.80
  -5  16   0   -0.40    3.20
 -16  14   0   69.19    8.80
   2 -16   0   45.50    9.60
  -2  16   0   77.69   11.10
 -14  -2   0   72.99    9.50
  16 -17   0  -19.40   21.80
 -13  17   0    5.80    9.10
 -17   7   0   55.39    6.90
  10 -17   0   45.40    9.70
 -10  17   0   44.10    7.40
  -7 -10   0   28.10    8.00
   7 -17   0   -0.80    7.90
 -17  10   0    3.90    4.40
 -10  -7   0   -2.10    6.20
  -7  17   0   -3.20    6.10
 -18   6   0    9.90    7.70
  -6 -12   0    0.10   10.80
 -18   9   0   86.89   11.00
   9 -18   0   67.49   15.00
  -9  -9   0   53.09   11.10
 -18  12   0   -1.70    7.70
 -12  -6   0    3.80    9.20
   0   1  -1   -0.60    0.40
   3  -2  -1  675.33   53.19
   3  -2  -1  583.44   53.19
   3  -2  -1  753.92   54.39
  -1   3  -1  719.43   53.29
  -2  -1  -1  666.63   53.19
   2   1   1  643.44   53.09
   1  -3   1  633.14   53.29
   1  -3   1  600.94   53.19
  -3   2   1  657.83   53.19
  -3   2   1  572.94   53.19
   2   1   1  565.14   53.19
   1  -3   1  738.03   54.79
  -3   2   1  641.24   53.19
   2   0  -1   49.80    3.90
   0  -2  -1   52.19    5.20
  -2   2  -1   43.00    3.90
  -2   2  -1   48.90    3.90
  -2   2  -1   43.60    3.90
   2  -2   1   42.50    3.90
   0   2   1   43.30    3.90
  -2   0   1   51.29    3.90
   0   2   1   42.90    4.00
   2  -2   1   40.80    3.90
   2  -2   1   50.09    3.90
  -2   5  -1   72.59    8.90
   5  -3  -1   66.69    6.40
   5  -3  -1   69.49    8.00
   3   2   1   72.69    6.00
   2  -5   1   71.69    8.60
  -5   3   1   81.79    6.40
   2  -5   1   76.99    6.40
   3   2   1   58.59    6.30
   2  -5   1   72.29    6.50
  -3   1  -1  365.86   34.80
   2  -3  -1  386.96   34.80
   2  -3  -1  447.36   36.10
  -3   1  -1  442.56   34.80
   1   2  -1  403.86   34.80
   1   2  -1  473.45   34.80
  -3   1  -1  432.46   37.30
   2  -3  -1  385.56   34.80
   3  -1   1  415.76   34.80
   3  -1   1  454.45   36.10
  -1  -2   1  439.96   34.80
  -1  -2   1  455.05   34.80
  -2   3   1  428.16   34.80
  -2   3   1  438.96   36.20
   3  -1   1  391.76   34.80
  -3   4  -1   32.40    2.80
  -3   4  -1   24.20    2.80
  -1  -3  -1   32.80    3.00
  -1  -3  -1   28.50    2.80
   4  -1  -1   24.50    2.80
   3  -4   1   32.90    3.20
  -4   1   1   33.70    2.70
   3  -4   1   34.90    4.70
   1   3   1   32.30    2.80
   7  -4  -1  151.98   14.10
   7  -4  -1  155.88   16.70
  -3   7  -1  183.88   14.40
  -4  -3  -1  178.88   14.20
  -7   4   1  168.48   14.10
  -4   0  -1   97.49    8.10
   4  -4  -1  110.79   10.00
   4  -4  -1   93.49    8.00
   0   4  -1  101.29    8.20
   0  -4   1   97.99    8.20
   4   0   1   83.69    8.10
  -4   4   1   93.79    8.00
  -4   4   1   98.09    8.10
   0  -4   1  101.79   10.40
   0  -4   1   82.99    8.20
   1  -4  -1 1936.91  152.68
   1  -4  -1 1804.92  152.68
   3   1  -1 1613.04  152.58
  -4   3  -1 1775.22  154.18
   1  -4  -1 1837.82  154.48
  -4   3  -1 1982.90  152.58
   4  -3   1 2014.10  152.58
  -1   4   1 2128.49  155.18
  -3  -1   1 1824.92  152.58
   4  -3   1 1667.23  152.48
  -1   4   1 1932.01  152.58
  -2  -4  -1 4058.49  338.87
   6  -2  -1 4271.57  338.87
  -4   6  -1 3935.81  338.87
   2   4   1 3928.51  338.97
  -6   2   1 4517.85  338.97
  -4   9  -1   50.09    5.00
   9  -5  -1   41.00    7.80
   4  -9   1   43.50    5.00
   5   4   1   51.19    4.50
  -9   5   1   55.99    5.40
   4  -9   1   32.80    8.40
   6  -5  -1  292.57   25.80
  -1   6  -1  322.87   25.70
   6  -5  -1  340.77   28.40
   1  -6   1  360.46   29.30
   1  -6   1  346.67   25.80
  -6   5   1  271.27   25.70
  -6   5   1  322.77   25.60
   1  -6   1  260.17   25.80
   5   1   1  285.57   25.90
   3  -5  -1  253.77   21.20
   2   3  -1  236.08   21.10
   3  -5  -1  283.97   21.10
   2   3  -1  286.67   21.00
  -5   2  -1  238.38   21.10
   5  -2   1  284.37   23.30
  -2  -3   1  241.48   21.00
  -3   5   1  212.58   21.40
   5  -2   1  253.67   21.10
  -5   5  -1 3512.95  254.57
   0  -5  -1 2997.90  257.17
   5   0  -1 2848.52  254.57
   0  -5  -1 2776.82  254.67
  -5   5  -1 3126.99  254.67
  -5   0   1 3477.85  254.57
   0   5   1 3258.57  254.57
   5  -5   1 3447.46  254.67
  -5   0   1 2890.31  254.57
   5  -5   1 2772.72  254.77
  -3  -5  -1  318.47   24.00
  -5   8  -1  298.57   23.90
  -5   8  -1  268.47   24.00
   5  -8   1  270.97   23.90
   5  -8   1  253.57   27.50
   3   5   1  290.27   23.70
  -8   3   1  288.87   23.70
  -6  -5  -1  942.21   73.09
  -5  11  -1  871.41   72.99
 -11   6   1  892.81   72.79
   5 -11   1  882.91   73.19
   5 -11   1  815.92   79.09
  -6  -2  -1  430.46   35.20
  -2   8  -1  423.56   35.30
   8  -6  -1  414.46   35.20
   2  -8   1  430.96   35.40
  -8   6   1  416.26   35.10
   2  -8   1  436.76   41.00
   5  -6  -1 9498.35  716.93
   1   5  -1 8278.77  716.93
  -6   1  -1 8385.16  716.83
   6  -1   1 8703.63  716.93
  -5   6   1 7734.93  716.83
  -1  -5   1 9999.00  716.93
   2  -6  -1  385.16   31.30
   2  -6  -1  314.87   31.40
   2  -6  -1  429.06   34.60
   4   2  -1  321.47   31.30
  -6   4  -1  416.16   31.20
   6  -4   1  388.66   31.20
   6  -4   1  397.16   33.80
   6  -4   1  335.27   31.30
  -4  -2   1  401.56   31.20
  -2   6   1  404.36   31.40
  -1  -6  -1 5483.65  471.75
  -1  -6  -1 6152.88  468.65
  -6   7  -1 5043.50  468.45
   6  -7   1 5982.40  468.55
  -7   1   1 5969.00  468.45
  -6  10  -1  133.39   11.70
  -6  10  -1  149.49   11.90
  -4  -6  -1  107.99   16.00
  -4  -6  -1  149.59   12.00
   4   6   1  132.89   11.40
   6 -10   1  109.69   16.50
   6 -10   1  119.89   11.70
 -10   4   1  131.09   11.40
  -6  13  -1   94.69    9.00
  -6  13  -1   95.99    9.10
  -7  -6  -1   88.09    9.50
 -13   7   1   78.49    8.40
   6 -13   1   84.09   17.90
   6 -13   1   93.99    9.80
  -3  10  -1  709.83   59.89
  10  -7  -1  786.42   59.89
  -7  -3  -1  702.53   59.79
 -10   7   1  697.33   59.69
   7  -7  -1  728.73   60.79
   0   7  -1  748.63   60.79
  -7   0  -1  753.42   60.79
   7  -7  -1  798.12   64.59
  -7   7   1  749.82   60.79
  -7   7   1  629.04   60.79
   0  -7   1  770.22   60.99
   4  -7  -1  843.92   72.09
  -7   3  -1  893.61   71.99
   3   4  -1  845.82   71.99
   4  -7  -1  866.41   75.39
  -4   7   1  874.61   72.19
  -3  -4   1  936.81   72.09
   1  -7  -1   84.09    8.10
   1  -7  -1   85.39   11.60
  -7   6  -1   92.69    7.70
   7  -6   1   92.29   11.00
   7  -6   1   74.09    9.20
  -1   7   1   97.09    8.00
   7  -6   1   89.69    7.80
  -6  -1   1   88.79    7.80
  -2  -7  -1    8.90    9.00
  -7   9  -1    5.50    1.50
  -7   9  -1    9.00    1.90
  -9   2   1    6.60    1.50
   2   7   1    5.30    1.40
  -7  12  -1   14.20    2.80
  -5  -7  -1   16.10    3.50
  -7  12  -1   13.20    2.80
  -5  -7  -1   14.70   12.10
   5   7   1   11.70    2.30
   7 -12   1   14.00    3.20
 -12   5   1   21.00    3.20
   7 -12   1    8.00    6.90
  -7  15  -1    6.60    3.30
  -8  -7  -1    3.60    3.80
  -7  15  -1   -1.40    2.40
 -15   8   1    4.40    2.60
   7 -15   1    7.30    3.90
   7 -15   1    8.30   13.30
  -8  -4  -1 1330.87  105.79
  -4  12  -1 1280.07  105.69
 -12   8   1 1235.88  105.49
   9  -8  -1  178.98   16.10
  -1   9  -1  182.08   16.20
  -8  -1  -1  216.48   16.30
  -9   8   1  191.28   16.10
   1  -9   1  173.48   21.10
   1  -9   1  189.38   16.40
  -8   2  -1 1333.97  108.69
   2   6  -1 1251.87  108.69
   6  -8  -1 1273.77  108.79
  -2  -6   1 1491.75  108.89
  -6   8   1 1264.47  108.89
  -6   8   1 1335.87  108.79
   3  -8  -1  134.99   12.60
   3  -8  -1  142.49   16.50
  -8   5  -1  148.79   12.40
  -5  -3   1  158.08   12.60
   8  -5   1  169.48   12.50
   8  -5   1  128.09   13.10
  -3   8   1  141.19   12.60
   8  -5   1  139.09   15.80
   0  -8  -1   71.99    6.50
   0  -8  -1   55.99   10.20
  -8   8  -1   63.39    5.90
   8  -8   1   93.99   15.50
   0   8   1   58.19    6.10
  -8  11  -1   38.30    4.90
  -3  -8  -1   45.70    5.60
  -3  -8  -1   32.40   10.90
  -8  11  -1   36.90    4.50
   8 -11   1   24.20    8.70
 -11   3   1   31.90    4.20
   8 -11   1   42.10    4.90
   3   8   1   41.50    4.40
  -8  14  -1   47.20    6.80
  -8  14  -1   42.10    6.40
  -6  -8  -1   39.60    6.00
 -14   6   1   47.60    5.60
   8 -14   1   59.09    7.40
  -8  17  -1   53.89    7.90
  -9  -8  -1   41.30    8.20
   8 -17   1   45.20   11.80
 -17   9   1   38.60    6.20
  -9  -5  -1    3.30    3.20
  -5  14  -1   -1.00    2.60
  -5  14  -1    0.80    2.10
 -14   9   1    1.60    2.00
   5 -14   1    6.20   12.70
   5 -14   1   -0.80    3.10
  11  -9  -1  117.09   11.70
  -2  11  -1  126.39   11.80
  -9  -2  -1  147.59   12.00
  11  -9  -1  124.59   17.10
 -11   9   1  135.19   11.70
   2 -11   1  119.99   18.60
   2 -11   1  139.59   12.40
   1   8  -1   36.90    4.00
   8  -9  -1   22.80    8.40
  -9   1  -1   41.80    4.00
   8  -9  -1   33.00    4.00
  -1  -8   1   42.40    4.70
  -8   9   1   40.00    4.30
  -8   9   1   40.60    4.00
  -1  -8   1   24.50    7.40
   5  -9  -1    3.00    9.10
   5  -9  -1   11.80    1.90
  -9   4  -1    7.80    1.40
   4   5  -1    7.80    1.40
  -4  -5   1    5.00    2.10
  -5   9   1    6.00    1.70
  -4  -5   1    6.90    5.70
   2  -9  -1   10.50    6.80
   2  -9  -1    3.30    1.70
   9  -7   1    2.10    3.20
  -7  -2   1    2.90    1.50
  -2   9   1    0.80    2.00
   9  -7   1    0.70    1.10
  -1  -9  -1   14.90    2.90
  -1  -9  -1   17.20    9.20
  -9  10  -1   18.10    2.80
 -10   1   1   17.90    2.50
   9 -10   1   10.50    2.30
   9 -10   1   11.80    7.20
   1   9   1   14.30    2.40
  -4  -9  -1  137.09   12.60
 -13   4   1  115.79   11.10
   4   9   1  128.69   11.30
   9 -13   1   85.79   19.10
  -9  16  -1    6.50    4.40
  -7  -9  -1   10.80    5.50
   9 -16   1    1.70    5.40
 -16   7   1   11.20    3.40
 -10  -6  -1    4.80    4.70
  -6  16  -1   10.80    4.60
   6 -16   1   11.80    5.20
 -16  10   1    5.60    3.30
  13 -10  -1    3.90    6.70
  -3  13  -1    7.80    2.40
 -10  -3  -1    3.40    2.90
  13 -10  -1    8.40    2.80
 -13  10   1    9.50    2.20
   3 -13   1    1.70    3.10
   3 -13   1   13.30   19.20
 -10   0  -1    4.50    1.90
  10 -10  -1    2.20    1.60
   0  10  -1    5.90    1.70
  10 -10  -1    1.50    4.40
 -10  10   1    1.40    1.40
   0 -10   1   10.00    2.50
   0 -10   1    7.40    7.90
   3   7  -1  233.18   19.90
 -10   3  -1  230.58   19.90
   7 -10  -1  262.97   30.50
  -7  10   1  231.28   20.20
  -7  10   1  240.48   20.10
  -3  -7   1  237.98   20.30
 -10   6  -1 1049.09   85.39
   4 -10  -1 1005.30   85.69
   4 -10  -1 1033.30   91.19
  -4  10   1 1027.00   85.59
  10  -6   1  924.41   89.89
  -6  -4   1 1176.88   85.59
 -10   9  -1  191.18   16.80
   1 -10  -1  195.98   22.90
   1 -10  -1  213.28   17.30
  -9  -1   1  206.38   16.90
  10  -9   1  182.98   16.90
  -1  10   1  207.38   16.90
  10  -9   1  164.78   21.70
  -2 -10  -1  784.22   85.29
  -2 -10  -1  972.00   79.39
 -10  12  -1 1019.40   78.59
 -12   2   1  948.71   79.39
   2  10   1 1015.90   78.39
  10 -12   1  920.31   78.59
 -10  15  -1    9.70    3.80
  10 -15   1    4.40    4.30
  10 -15   1    3.60   12.60
  -8 -10  -1   39.40    9.80
 -18   8   1   46.30    7.70
  10 -18   1   48.20   13.30
 -11  -7  -1    3.80    8.30
   7 -18   1   -3.60   10.70
 -18  11   1   -4.50    5.90
  -4  15  -1    2.50    3.70
 -11  -4  -1    4.80    3.80
  -4  15  -1    2.20    2.60
   4 -15   1    0.80    3.90
 -15  11   1    2.00    2.60
  -1  12  -1   23.10    3.50
  12 -11  -1   12.60   16.50
  12 -11  -1   17.50    3.20
 -11  -1  -1   20.50    3.40
   1 -12   1   12.40    3.60
 -12  11   1   21.00    3.20
   9 -11  -1  261.27   30.30
   9 -11  -1  292.67   24.60
   2   9  -1  303.17   24.40
 -11   2  -1  293.67   24.30
  -2  -9   1  235.08   30.50
  -9  11   1  273.87   24.60
  -9  11   1  328.47   24.60
   6 -11  -1   61.89    6.70
 -11   5  -1   59.39    5.90
   6 -11  -1   52.59   11.80
  -6  11   1   59.59    6.20
  -6  11   1   57.79    6.30
  -5  -6   1   62.49    6.80
   3 -11  -1 1004.60   80.69
 -11   8  -1  972.30   80.29
   3 -11  -1  944.01   86.79
  -8  -3   1 1017.40   80.49
  -3  11   1  995.50   80.49
  11  -8   1  864.41   85.89
  11  -8   1 1004.80   80.49
   0 -11  -1    5.00   10.70
 -11  11  -1    2.40    1.80
   0 -11  -1    2.80    2.70
 -11   0   1    4.90    2.80
  11 -11   1    1.90    6.90
  11 -11   1    4.70    2.20
   0  11   1    2.30    2.00
 -11  14  -1  230.08   18.20
  -3 -11  -1  196.08   18.80
  11 -14   1  187.48   18.40
  11 -14   1  147.99   26.60
   3  11   1  219.08   17.90
 -14   3   1  188.28   17.60
 -11  17  -1    7.80    6.00
  -6 -11  -1   -4.00    6.40
 -17   6   1    0.00    4.50
  11 -17   1   -5.10    8.40
 -12  -5  -1   16.10    6.90
 -17  12   1    4.40    4.80
   5 -17   1   11.90    7.50
  14 -12  -1   19.50   11.30
 -12  -2  -1   15.90    5.80
  -2  14  -1   14.70    3.30
 -14  12   1    7.50    4.10
   2 -14   1   11.30    4.20
   1  11  -1  561.04   43.10
  11 -12  -1  483.15   43.20
  11 -12  -1  470.95   50.59
 -12   1  -1  472.15   42.90
 -11  12   1  539.25   43.10
  -1 -11   1  551.14   43.50
   8 -12  -1   38.30    5.80
   4   8  -1   49.30    5.20
   8 -12  -1   24.10    9.80
 -12   4  -1   35.50    5.00
  -8  12   1   48.40    5.50
  -8  12   1   49.30    5.70
  -4  -8   1   53.09    6.70
   5 -12  -1 1208.28   92.39
   5 -12  -1  976.80   98.59
 -12   7  -1 1099.49   91.89
  -5  12   1 1069.59   91.99
  -7  -5   1 1201.98   92.19
   2 -12  -1    9.20   10.70
 -12  10  -1    1.80    1.90
   2 -12  -1    1.70    2.70
  -2  12   1    2.80    1.90
  12 -10   1    1.50    2.10
  12 -10   1    0.80    5.00
  -1 -12  -1  128.69   13.40
 -12  13  -1  142.09   12.80
 -13   1   1  125.69   12.50
   1  12   1  137.69   12.50
  12 -13   1  130.79   12.90
  -4 -12  -1    5.00    6.10
 -12  16  -1    6.60    5.00
 -16   4   1    6.50    5.70
  12 -16   1   -4.30    6.30
  12 -16   1  -12.60   20.60
  -3  16  -1  128.29   13.10
 -13  -3  -1  109.89   13.40
   3 -16   1  112.49   14.50
 -16  13   1  106.39   12.30
  13 -13  -1   19.30    4.40
 -13   0  -1   25.50    4.20
   0  13  -1   23.50    3.70
  13 -13  -1   16.80   11.00
   0 -13   1   16.90    4.40
 -13  13   1   26.50    4.10
   3  10  -1  834.42   69.89
  10 -13  -1  856.61   70.99
 -13   3  -1  767.82   69.89
 -10  13   1  891.91   70.19
  -3 -10   1  875.81   70.49
 -13   6  -1   55.59    6.30
   7 -13  -1   61.29    7.50
  -6  -7   1   53.29    7.00
  -7  13   1   55.79    6.40
   4 -13  -1  244.58   20.90
 -13   9  -1  221.38   20.10
  -4  13   1  228.58   20.30
  -9  -4   1  242.68   20.60
   1 -13  -1    4.40    3.40
 -13  12  -1    6.80    2.60
 -12  -1   1    5.90    3.00
  -1  13   1    6.70    2.50
  13 -12   1    1.20    6.90
  13 -12   1    5.20    3.00
  -2 -13  -1    2.20    4.80
 -13  15  -1   -2.40    4.10
  13 -15   1    1.20   10.00
 -15   2   1   -7.40    3.60
   2  13   1    3.70    3.80
  13 -15   1   -0.40    5.20
  15 -14  -1   -0.90    9.20
  12 -14  -1   75.09   19.60
   2  12  -1   83.09    9.10
  12 -14  -1   65.79    9.80
 -12  14   1   86.39    9.00
  -2 -12   1   86.69   12.20
   9 -14  -1   -0.30    9.40
 -14   5  -1    1.00    2.10
   9 -14  -1   -1.10    3.20
  -9  14   1    6.60    2.80
  -5  -9   1   -1.10    3.80
  -9  14   1    1.30    2.40
 -14   8  -1    5.00    2.20
   6 -14  -1    8.90    3.50
   6 -14  -1   -1.80    7.00
  -6  14   1    3.30    2.60
  -8  -6   1    3.50    3.20
  -6  14   1    4.80    2.20
 -14  11  -1    1.40    2.30
   3 -14  -1   -3.20    3.20
  14 -11   1   -3.20    6.90
  -3  14   1    4.10    2.20
 -11  -3   1    1.10    3.20
 -14  14  -1    2.90    3.80
   0 -14  -1    3.60    4.70
   0  14   1    7.40    3.40
 -14   0   1   -0.60    3.70
  14 -14   1   -2.80    5.00
  14 -14   1   -1.40   19.30
 -14  17  -1   -7.00    8.80
  -3 -14  -1    3.60    8.90
 -17   3   1   -8.40    6.70
 -15  -2  -1   -0.60   10.40
  14 -15  -1   14.30   15.10
   1  14  -1   -0.60    5.40
 -15   4  -1    8.10    3.20
  11 -15  -1    6.40   13.10
  11 -15  -1    6.00    4.80
 -11  15   1    3.50    3.50
  -4 -11   1    7.60    4.50
 -15   7  -1    2.30    2.60
   8 -15  -1   -1.60    3.80
   8 -15  -1    2.10   12.60
  -7  -8   1    2.90    4.10
  -8  15   1    1.80    2.70
  -8  15   1    6.30    3.30
   5 -15  -1   21.90    5.00
   5 -15  -1   20.50   16.20
  -5  15   1   27.60    4.60
  -5  15   1   24.40    5.50
   2 -15  -1   24.60    5.70
 -15  13  -1   40.10    5.40
 -13  -2   1   31.10    5.60
  15 -13   1    7.30   11.90
  -2  15   1   34.00    5.00
  -1 -15  -1   -0.10    8.00
 -15  16  -1    2.20    7.00
  15 -16   1    0.80   20.30
 -16   1   1    2.20    7.20
  16 -16  -1    5.60   14.70
 -16  16   1   -1.70   10.70
 -16   3  -1    0.00    4.50
  13 -16  -1   -2.90   13.90
  -3 -13   1    7.60    5.70
 -13  16   1    1.80    5.10
  10 -16  -1   -1.10    5.50
  10 -16  -1  -11.00   12.70
 -16   6  -1    6.20    3.40
 -10  16   1    2.30    4.10
  -6 -10   1    1.00    5.00
 -16   9  -1    2.30    3.10
   7 -16  -1    1.00   19.10
   7 -16  -1    0.60    5.40
  -7  16   1    1.90    3.10
  -9  -7   1   -1.30    4.50
  -7  16   1   -2.90    3.90
   4 -16  -1   17.80    6.30
 -16  12  -1   23.90    6.00
  -4  16   1   27.30    6.30
  -4  16   1   21.20    6.10
 -12  -4   1   21.80    7.10
 -16  15  -1    5.40    6.60
   1 -16  -1   -7.70    8.40
  -1  16   1   -0.70    6.40
 -15  -1   1    3.50    7.10
 -17   2  -1   -3.00    9.30
  15 -17  -1   -4.40   16.90
 -17   5  -1   12.10    5.20
  12 -17  -1   -1.70   13.70
 -12  17   1   22.10    6.60
  -5 -12   1   10.80    6.90
   9 -17  -1  125.99   19.20
 -17   8  -1  129.59   13.20
  -8  -9   1  114.59   15.50
  -9  17   1  153.78   15.10
   6 -17  -1    6.20    7.90
 -17  11  -1   21.80    5.10
  -6  17   1    3.20    6.70
  -6  17   1   19.60    4.90
 -11  -6   1   13.80    6.60
 -17  14  -1   75.89   11.60
   3 -17  -1   45.20   11.30
 -14  -3   1   29.30    9.00
 -18   7  -1    9.70    6.40
  -7 -11   1    1.80    8.50
 -11  18   1    9.10    8.60
   8 -18  -1    2.40   14.60
 -18  10  -1   13.20    6.30
 -10  -8   1   18.30    8.00
  -1   1  -2   -0.50    0.40
   2  -2  -2    2.10    0.40
   2  -2  -2    2.30    1.30
   0   2  -2    1.70    0.50
   0   2  -2    1.90    0.50
   2  -2  -2    1.80    0.50
  -2   0  -2    1.70    0.50
   0  -2   2    4.70    1.60
   2   0   2    1.20    0.40
  -2   2   2    2.00    0.40
   0  -2   2    1.50    0.50
  -2   2   2    1.30    1.20
  -2   2   2    1.50    0.50
   0  -2   2    1.80    0.60
  -2   3  -2  610.34   49.50
  -2   3  -2  641.84   49.50
   3  -1  -2  650.03   50.49
   3  -1  -2  557.44   49.40
  -2   3  -2  662.13   50.79
  -1  -2  -2  637.94   49.50
  -2   3  -2  506.65   49.40
  -3   1   2  657.53   49.40
   2  -3   2  644.94   49.50
   1   2   2  528.45   49.50
  -3   1   2  579.74   52.59
   2  -3   2  677.73   50.89
  -3   1   2  575.74   49.40
   2  -3   2  560.74   49.50
   1   2   2  564.64   49.40
   4  -3  -2  677.93   54.69
  -1   4  -2  689.13   54.79
  -1   4  -2  699.63   56.69
   4  -3  -2  625.14   54.69
  -3  -1  -2  743.73   54.79
   4  -3  -2  729.13   56.29
   1  -4   2  591.34   54.79
  -4   3   2  609.24   54.69
   1  -4   2  710.53   56.89
   1  -4   2  565.84   54.79
  -4   3   2  729.63   54.69
   3   1   2  630.34   54.79
   3   1   2  685.33   54.69
   1  -3  -2   68.89    6.90
  -3   2  -2   64.79    5.30
   1  -3  -2   65.79    5.40
  -3   2  -2   71.79    6.90
   2   1  -2   58.49    5.30
  -3   2  -2   54.09    5.30
  -2  -1   2   65.99    5.30
   3  -2   2   56.39    5.30
   3  -2   2   63.79    5.30
   3  -2   2   62.89    6.60
   3  -2   2   59.79    5.30
  -1   3   2   64.59    5.40
  -1   3   2   64.19    7.40
  -3   5  -2  911.71   74.89
  -3   5  -2  809.92   72.59
   5  -2  -2  949.11   74.39
   5  -2  -2  814.12   72.49
   2   3   2 1009.60   72.59
   3  -5   2  999.10   75.19
   2   3   2  820.02   72.59
  -5   2   2  781.72   72.59
   6  -4  -2   71.49    8.60
   6  -4  -2   78.19    6.50
  -2   6  -2   63.09   10.20
   2  -6   2   76.09    9.70
   4   2   2   74.99    6.40
   2  -6   2   72.49    7.10
   4   2   2   67.09    7.00
  -6   4   2   84.29    6.40
  -4   1  -2  274.57   21.10
  -4   1  -2  301.87   24.00
  -4   1  -2  225.48   21.20
   1   3  -2  265.17   21.10
   3  -4  -2  258.17   21.10
  -1  -3   2  260.07   21.10
  -1  -3   2  233.48   21.10
   4  -1   2  224.38   21.10
  -3   4   2  264.47   21.20
  -1  -3   2  261.47   22.90
  -4   4  -2   16.00    4.10
   0  -4  -2   16.40    2.30
   0  -4  -2   20.60    4.70
   4   0  -2   10.90    1.80
   0  -4  -2   11.40    1.90
  -4   4  -2   13.10    1.60
  -4   0   2   17.70    1.70
   0   4   2   13.50    1.80
   4  -4   2   16.70    3.60
   4  -4   2   18.90    2.10
  -4   7  -2  126.09   11.40
   3   4   2  143.19   11.10
   4  -7   2  135.49   11.40
   4  -7   2  114.19   14.30
  -7   3   2  131.39   11.10
  -5  -3  -2  644.94   53.19
   8  -5  -2  610.54   53.09
   8  -5  -2  589.14   56.09
  -3   8  -2  719.73   53.29
   3  -8   2  641.04   57.49
  -8   5   2  655.63   53.09
   5  -5  -2 1748.13  161.78
  -5   0  -2 2051.69  161.78
   0   5  -2 2115.79  161.88
   5  -5  -2 2077.99  161.78
   5  -5  -2 2198.08  164.28
   0  -5   2 2029.40  164.58
  -5   5   2 1999.60  161.78
  -5   5   2 1797.72  161.78
   0  -5   2 2104.39  161.88
   5   0   2 1649.23  161.78
   2  -5  -2  987.80   86.59
   3   2  -2  880.21   84.29
  -5   3  -2 1082.09   84.29
   2  -5  -2 1080.79   84.59
  -5   3  -2 1111.89   86.99
   2  -5  -2 1043.50   84.39
   5  -3   2  864.01   84.29
   5  -3   2 1081.29   86.49
   5  -3   2 1050.59   84.29
  -2   5   2 1109.89   84.39
  -1  -5  -2 6611.24  508.75
  -5   6  -2 6100.79  508.75
  -6   1   2 5879.41  508.65
   5  -6   2 5781.52  508.85
   5  -6   2 6721.63  508.65
  -5   9  -2  368.86   28.30
  -5   9  -2  339.57   28.40
   5  -9   2  317.47   32.90
   5  -9   2  327.77   28.40
  -9   4   2  368.86   28.10
   4   5   2  301.27   28.00
  -6  -4  -2  261.17   21.20
  -4  10  -2  255.57   21.10
  10  -6  -2  229.38   25.10
 -10   6   2  240.98   20.80
   4 -10   2  257.57   21.30
   4 -10   2  234.38   26.60
   7  -6  -2   19.00    2.40
   7  -6  -2   15.30    2.80
  -6  -1  -2   19.10    2.80
  -1   7  -2   22.50    2.90
   7  -6  -2   34.20    7.20
   1  -7   2   25.50    7.40
  -7   6   2   17.10    4.30
   1  -7   2   25.90    3.10
  -7   6   2   15.80    2.50
  -7   6   2   20.50    2.30
   4  -6  -2 2182.18  156.28
   4  -6  -2 1656.63  156.18
   4  -6  -2 2082.19  158.98
  -6   2  -2 1668.23  156.08
   2   4  -2 1847.52  156.18
  -2  -4   2 1980.90  156.08
   6  -2   2 1787.42  156.08
  -4   6   2 2098.09  156.28
  -2  -4   2 1858.61  158.48
   1  -6  -2    2.90    2.00
   1  -6  -2    4.70    5.80
  -6   5  -2    5.70    1.00
  -6   5  -2    1.10    1.40
  -5  -1   2    6.00    1.10
   6  -5   2    2.30    3.10
  -1   6   2    3.40    1.10
  -1   6   2    4.50    2.10
   6  -5   2    2.40    1.70
  -6   8  -2  400.66   31.70
  -6   8  -2  372.46   31.80
  -2  -6  -2  337.47   35.10
  -2  -6  -2  417.16   31.80
  -8   2   2  378.96   31.50
   6  -8   2  345.17   35.50
   6  -8   2  387.76   31.70
   2   6   2  386.36   31.50
  -6  11  -2   54.09    5.50
  -5  -6  -2   51.99    6.00
  -5  -6  -2   57.89   13.10
  -6  11  -2   48.90    5.30
   5   6   2   44.30    4.90
   6 -11   2   44.70    5.50
 -11   5   2   39.10    4.70
  -7  -5  -2  706.63   56.39
  -5  12  -2  660.43   56.19
  -5  12  -2  747.23   56.29
   5 -12   2  555.84   62.59
   5 -12   2  698.53   56.49
 -12   7   2  663.53   55.99
   9  -7  -2  127.99   11.70
   9  -7  -2  150.38   16.10
  -7  -2  -2  140.69   12.20
   2  -9   2  136.29   12.20
   2  -9   2  143.19   17.60
  -9   7   2  131.99   11.70
   1   6  -2 3479.15  279.97
   6  -7  -2 3225.38  283.07
   6  -7  -2 3756.72  280.07
  -7   1  -2 3490.45  279.97
  -1  -6   2 3846.42  280.17
  -6   7   2 3416.06  280.07
  -1  -6   2 2834.12  282.77
  -6   7   2 3303.27  280.07
   3  -7  -2  300.17   28.50
   3  -7  -2  288.97   25.20
  -7   4  -2  309.77   25.00
   7  -4   2  344.07   25.30
  -3   7   2  302.47   25.20
   7  -4   2  282.67   27.90
  -4  -3   2  282.47   25.00
  -7   7  -2  731.63   58.99
   0  -7  -2  794.02   59.29
   0  -7  -2  614.44   62.39
  -7   0   2  768.12   58.99
   7  -7   2  760.02   59.09
   0   7   2  675.03   58.99
   7  -7   2  650.43   62.49
  -7  10  -2   36.40    4.10
  -3  -7  -2   31.70    9.30
  -7  10  -2   34.00    4.40
  -3  -7  -2   35.40    4.80
   3   7   2   34.40    3.90
   7 -10   2   34.50    4.30
   7 -10   2   53.99   12.00
 -10   3   2   32.30    3.80
  -6  -7  -2   21.60    4.70
  -7  13  -2   28.70    3.90
  -7  13  -2   19.40    3.40
   7 -13   2    8.30    8.30
 -13   6   2   24.20    3.40
  -8  -6  -2   11.40    3.70
  -6  14  -2    6.60    2.50
 -14   8   2    7.80    2.40
   6 -14   2   10.30    3.60
   6 -14   2    6.80   11.50
  -3  11  -2  653.33   55.39
  -8  -3  -2  670.83   55.39
  11  -8  -2  684.13   55.39
 -11   8   2  662.13   55.19
   8  -8  -2   74.39   10.50
   8  -8  -2   65.89    6.50
   0   8  -2   69.49    6.60
  -8   0  -2   86.19    7.00
   0  -8   2   63.29   11.40
  -8   8   2   66.19    6.60
   5  -8  -2  319.27   25.80
   3   5  -2  288.17   25.50
  -8   3  -2  311.67   25.60
   5  -8  -2  314.87   29.50
  -3  -5   2  277.07   29.00
  -3  -5   2  336.67   25.80
  -5   8   2  302.67   25.80
   2  -8  -2   92.99   12.70
   2  -8  -2   94.69    9.10
  -8   6  -2  109.89    8.80
  -6  -2   2  111.49    8.90
   8  -6   2   82.79   11.80
  -2   8   2   96.69    9.00
   8  -6   2  107.09    8.90
  -1  -8  -2  207.88   17.00
  -8   9  -2  217.78   16.90
   8  -9   2  152.58   20.90
  -9   1   2  190.58   16.60
  -4  -8  -2   15.20    3.50
  -8  12  -2   14.00    2.80
  -4  -8  -2    0.90    9.70
 -12   4   2   14.20    2.60
   8 -12   2    9.50    2.90
   4   8   2   14.20    2.50
   8 -12   2    7.90   15.30
  -7  -8  -2   31.40    5.60
  -8  15  -2   33.20    5.00
 -15   7   2   31.30    4.50
   8 -15   2    8.60   17.40
   8 -15   2   31.60    5.40
  -7  16  -2    1.90    4.30
  -9  -7  -2    0.90    4.60
   7 -16   2    6.20    4.80
 -16   9   2    2.30    3.00
  -9  -4  -2   37.60    5.20
  -4  13  -2   33.30    5.20
 -13   9   2   34.50    4.70
   4 -13   2   34.30   15.00
   4 -13   2   49.00    6.50
  10  -9  -2   -0.60    1.20
  10  -9  -2    1.50    9.20
  -1  10  -2    1.60    1.50
  -9  -1  -2   -0.20    1.60
 -10   9   2    1.60    1.20
   1 -10   2    3.10    6.50
   1 -10   2   -0.60    1.80
   2   7  -2   24.50    3.00
  -9   2  -2   24.40    3.20
   7  -9  -2   24.80    3.30
   7  -9  -2   26.30   10.40
  -7   9   2   26.40    3.40
  -2  -7   2   24.10    3.70
  -7   9   2   24.50    3.40
  -2  -7   2   14.90    6.80
   4  -9  -2   30.60    3.50
   4  -9  -2   45.30   14.50
  -9   5  -2   24.20    2.80
  -4   9   2   26.10    3.50
   9  -5   2   18.30    5.40
  -5  -4   2   25.70    3.40
   1  -9  -2  296.57   24.30
  -9   8  -2  276.47   24.00
   1  -9  -2  273.97   29.00
   9  -8   2  274.47   24.00
  -1   9   2  294.87   24.10
  -8  -1   2  295.77   24.00
  -2  -9  -2  128.69   20.80
  -9  11  -2  174.48   14.20
  -2  -9  -2  164.38   14.70
 -11   2   2  170.88   14.00
   2   9   2  163.98   14.10
   9 -11   2  158.58   14.30
   9 -11   2  131.29   20.50
  -9  14  -2   30.50    4.80
  -5  -9  -2   28.10    5.30
   9 -14   2   33.90    5.30
 -14   5   2   32.80    4.80
  -9  17  -2   48.10    7.90
  -8  -9  -2   38.40    8.40
   9 -17   2   45.80    9.00
 -17   8   2   48.90    7.70
 -10  -8  -2    1.70    8.50
 -18  10   2    7.20    6.00
   8 -18   2   19.20   10.80
  -5  15  -2   13.00    4.10
  -5  15  -2   10.40    4.10
 -15  10   2   10.80    3.60
  12 -10  -2    2.60    2.20
  -2  12  -2    0.70    1.80
  12 -10  -2    3.20    6.10
   9 -10  -2   16.40    2.50
 -10   1  -2   16.70    2.40
   1   9  -2   15.80    2.40
   9 -10  -2   26.80    8.20
  -1  -9   2   10.20   16.00
  -1  -9   2   17.20    2.90
  -9  10   2   15.00    2.40
  -9  10   2   16.80    2.70
   6 -10  -2  403.36   40.40
 -10   4  -2  414.76   35.10
   6 -10  -2  434.66   35.40
  -6  10   2  445.26   35.30
  -6  10   2  434.86   35.40
  -4  -6   2  357.26   39.60
  -4  -6   2  447.76   35.40
 -10   7  -2  630.64   50.09
   3 -10  -2  570.14   50.39
   3 -10  -2  529.15   55.19
  10  -7   2  628.84   50.39
  -7  -3   2  685.13   50.19
  -3  10   2  571.44   50.19
 -10  10  -2  320.77   24.90
   0 -10  -2  233.08   30.40
   0 -10  -2  330.47   25.30
   0  10   2  310.17   25.00
  10 -10   2  274.77   24.90
 -10   0   2  304.17   24.90
  10 -10   2  252.07   30.60
  -3 -10  -2  387.86   33.20
 -10  13  -2  399.06   32.80
   3  10   2  423.06   32.70
 -13   3   2  348.97   32.40
  10 -13   2  365.46   32.90
 -10  16  -2    2.40    4.40
  -6 -10  -2    6.80    5.30
 -16   6   2    4.40    3.40
  10 -16   2    5.90    6.70
 -11  -6  -2    6.50    6.30
 -17  11   2   -4.40    4.20
   6 -17   2   -7.00    6.80
 -11  -3  -2   18.90    4.00
  -3  14  -2   18.40    3.40
 -14  11   2   15.80    3.10
   3 -14   2   14.00    3.80
  11 -11  -2   30.00   10.30
  11 -11  -2   35.70    4.70
 -11   0  -2   33.90    4.70
   0  11  -2   29.10    4.50
 -11  11   2   33.40    4.30
   0 -11   2   21.60    4.40
 -11   3  -2   52.09    5.60
   3   8  -2   57.69    5.70
   8 -11  -2   52.89    6.00
   8 -11  -2   53.49   10.90
  -8  11   2   54.49    5.80
  -8  11   2   55.39    5.90
  -3  -8   2   55.19    6.50
   5 -11  -2  298.87   27.90
 -11   6  -2  320.67   27.50
  -5  11   2  325.67   27.70
  -6  -5   2  365.86   27.90
 -11   9  -2    5.90    2.00
   2 -11  -2    5.30   16.20
   2 -11  -2    4.80    2.70
  -2  11   2    4.90    2.00
  11  -9   2    6.50    2.20
  -9  -2   2    7.70    2.60
  11  -9   2    4.40    6.50
  -1 -11  -2  271.27   24.80
 -11  12  -2  327.87   24.60
  -1 -11  -2  244.68   32.90
 -12   1   2  291.07   24.40
  11 -12   2  285.97   24.80
  11 -12   2  256.37   32.30
 -11  15  -2    2.00    4.80
  -4 -11  -2    5.10    4.40
 -15   4   2    3.00    3.00
   4  11   2   -1.10    3.40
  11 -15   2   10.90   16.70
  -7 -11  -2   -6.70    9.70
 -18   7   2    6.90    6.50
  11 -18   2   19.50   16.80
 -12  -4  -2   23.70    8.90
   4 -16   2   29.20    7.90
 -16  12   2   40.50    8.10
  13 -12  -2   82.79    9.70
  -1  13  -2   91.09    9.10
  13 -12  -2   83.29   16.50
 -12  -1  -2   84.99    9.40
 -13  12   2   94.19    9.00
   1 -13   2   97.19   10.10
  10 -12  -2  682.43   57.59
  10 -12  -2  601.74   64.19
   2  10  -2  767.32   57.29
   7 -12  -2  336.77   39.40
 -12   5  -2  398.56   32.70
   7 -12  -2  396.86   33.20
  -5  -7   2  386.96   33.00
  -7  12   2  416.66   33.00
   4 -12  -2  877.81   77.89
   4 -12  -2 1090.59   95.69
 -12   8  -2  922.11   77.59
  -8  -4   2  988.20   77.89
  -4  12   2  885.81   77.69
 -12  11  -2   45.00    5.20
   1 -12  -2   33.20   13.00
   1 -12  -2   36.50    6.20
 -11  -1   2   38.30    5.30
  12 -11   2   42.10   13.00
  12 -11   2   31.90    5.30
  -1  12   2   39.20    5.40
 -12  14  -2   57.49    7.30
  -2 -12  -2   35.50    6.50
  12 -14   2   31.60   16.50
   2  12   2   56.59    6.90
  12 -14   2   39.20    6.20
  -5 -12  -2   -6.60    6.80
 -12  17  -2   -8.60    7.10
  12 -17   2    3.30    9.90
 -17   5   2   -0.30    5.00
 -18  13   2    0.60   10.80
 -13  -2  -2    3.30    4.30
  -2  15  -2    7.70    3.40
  15 -13  -2   -4.80    5.60
 -15  13   2    7.60    3.50
   2 -15   2    1.80    4.40
 -13   1  -2   17.70    3.50
  12 -13  -2   11.70    9.40
   1  12  -2   15.00    3.10
  12 -13  -2   15.80    3.90
 -12  13   2   16.40    3.20
  -1 -12   2   13.00    4.00
   4   9  -2   38.90    5.00
   9 -13  -2   26.40   10.10
   9 -13  -2   30.10    4.90
 -13   4  -2   32.40    4.70
  -4  -9   2   30.80    5.20
  -9  13   2   43.90    5.50
  -9  13   2   30.70    4.60
   6 -13  -2   26.70    4.70
 -13   7  -2   31.10    4.60
  -6  13   2   30.00    4.90
  -7  -6   2   37.40    5.80
  -6  13   2   37.10    5.10
   3 -13  -2    9.30    3.40
 -13  10  -2   16.00    2.80
   3 -13  -2    6.30   23.60
  -3  13   2   16.40    2.90
  13 -10   2    5.30    8.00
  13 -10   2   10.60    3.00
 -10  -3   2    8.50    3.20
 -13  13  -2   -3.20    2.80
   0 -13  -2    0.70    3.50
   0  13   2    4.70    2.50
  13 -13   2   -0.10    3.10
  13 -13   2  -13.30   23.70
 -13   0   2   -1.00    3.00
  -3 -13  -2   -4.70    5.90
 -13  16  -2    1.10    6.10
 -16   3   2    1.90    4.70
  13 -16   2    4.80    7.40
  13 -16   2   -9.90   37.80
 -14  -3  -2   39.60    9.10
   3 -17   2   49.30   10.30
 -17  14   2   38.80    7.40
  14 -14  -2    0.90    8.20
   0  14  -2   21.70    4.30
 -14   0  -2   20.90    4.50
 -14  14   2   17.80    4.40
   0 -14   2   17.60    4.90
   3  11  -2  143.69   12.30
 -14   3  -2  111.29   11.90
  11 -14  -2   92.09   20.30
  11 -14  -2  129.69   13.20
 -11  14   2  133.79   12.20
  -3 -11   2  138.09   13.40
   8 -14  -2    4.80    6.40
   8 -14  -2    3.30    3.50
 -14   6  -2    9.20    2.60
  -6  -8   2    9.90    3.90
  -8  14   2   10.70    2.80
  -8  14   2   10.10    2.90
 -14   9  -2    2.00    2.10
   5 -14  -2   -1.20   12.70
   5 -14  -2   -1.00    3.10
  -5  14   2   -1.20    2.00
  -9  -5   2   -2.10    3.00
 -14  12  -2    4.00    3.30
   2 -14  -2   -5.00    3.60
  14 -12   2    4.50    3.60
  14 -12   2   -1.20    8.10
  -2  14   2   -0.40    2.50
  14 -15   2   -3.70   11.10
  16 -15  -2   12.50   26.50
 -15  -1  -2   11.60    7.10
   1 -16   2   -4.30   10.60
 -16  15   2    0.00    5.90
  13 -15  -2    1.10   12.60
 -15   2  -2   -1.90    3.80
 -13  15   2   -3.20    3.80
  -2 -13   2    7.40    4.60
 -15   5  -2   -1.60    3.40
  10 -15  -2    5.90    4.40
  10 -15  -2  -17.30   23.00
  -5 -10   2   -2.40    5.30
   7 -15  -2   -1.80    4.00
   7 -15  -2    0.50    9.80
 -15   8  -2    3.00    2.50
  -7  15   2    4.70    3.10
  -7  15   2    2.10    2.60
  -8  -7   2    2.20    3.80
 -15  11  -2    9.90    3.40
   4 -15  -2    2.10    5.30
 -11  -4   2    6.10    4.10
  -4  15   2    4.20    2.80
  15 -14   2   -2.60   14.70
  15 -16  -2    8.00   23.50
 -16   1  -2    1.90    6.30
  -1 -15   2   -5.40    7.60
 -15  16   2    8.10    6.20
  12 -16  -2    7.10   13.70
 -16   4  -2    9.90    6.70
  -4 -12   2   -0.50    8.40
 -12  16   2    4.40    8.90
   9 -16  -2   20.90   13.50
   9 -16  -2   41.70    7.30
 -16   7  -2   36.40    6.10
  -9  16   2   49.10    6.20
  -7  -9   2   29.10    6.50
 -16  10  -2   67.99    8.60
   6 -16  -2   24.50   25.90
   6 -16  -2   75.59   12.10
  -6  16   2   72.29    9.20
  -6  16   2   77.79   10.10
 -10  -6   2   84.39   10.20
 -16  13  -2   75.19    9.80
  -3  16   2   64.99   10.00
 -13  -3   2   62.59    9.00
   0 -16  -2   12.60   14.70
 -17   3  -2   -0.10    6.70
  14 -17  -2   -9.10   24.60
 -14  17   2   -9.00    7.40
  -3 -14   2    0.20    8.70
 -17   6  -2    6.40    4.80
  11 -17  -2    3.30   19.70
  -6 -11   2    7.00    6.40
 -11  17   2    4.70    5.60
   8 -17  -2    8.50    8.50
 -17   9  -2   23.40    5.10
  -8  17   2   23.50    6.50
  -9  -8   2   21.00    7.40
   5 -17  -2    4.00    8.30
 -17  12  -2    3.30    5.00
  -5  17   2    5.80    7.80
 -12  -5   2    5.30    6.80
  -5  17   2   -2.40    4.60
  13 -18  -2   14.30   21.10
 -18   8  -2   29.60    7.40
  -8 -10   2   42.00    9.50
 -10  18   2   22.70    8.80
 -18  11  -2    4.90    6.40
 -11  -7   2   11.40    8.40
   2  -1  -3    0.80    0.80
  -1  -1  -3    0.90    0.50
  -2   1   3    3.10    0.40
   1  -2   3    1.90    0.40
   1  -2   3    0.90    0.90
  -2   1   3    2.70    1.30
   1  -2  -3   33.60    3.20
   1  -2  -3   37.70    3.20
  -2   1  -3   34.90    3.20
  -2   1  -3   38.90    3.20
  -1  -1   3   36.80    3.20
   2  -1   3   39.00    3.30
   2  -1   3   41.70    3.20
  -1   2   3   43.40    3.30
  -1   2   3   34.40    3.30
  -2  -2  -3  134.09   10.60
   4  -2  -3  130.39   12.10
   4  -2  -3  119.89   10.50
  -2   4  -3  141.19   10.70
   4  -2  -3  106.79   10.50
  -2   4  -3  136.89   12.30
   2   2   3  116.09   10.70
   2  -4   3  137.79   10.60
   2  -4   3  120.49   10.70
   2  -4   3  136.69   12.60
   2   2   3  135.69   10.50
  -4   2   3  106.69   10.50
  -4   2   3  128.79   10.50
   3  -3  -3  729.23   53.69
  -3   0  -3  612.54   53.69
  -3   0  -3  735.73   53.79
   0   3  -3  685.43   53.79
   3  -3  -3  582.54   53.69
   0  -3   3  608.24   53.79
  -3   3   3  594.84   53.69
   0  -3   3  663.93   53.79
  -3   3   3  682.83   53.79
   3   0   3  607.14   53.79
   0  -3   3  710.73   55.49
   0  -3  -3 1696.63  163.68
  -3   3  -3 2197.08  165.18
   3   0  -3 1850.81  163.68
   0  -3  -3 2063.79  163.78
   0  -3  -3 2126.39  165.48
  -3   0   3 2122.49  163.68
   3  -3   3 1949.01  163.68
   3  -3   3 1742.83  163.68
   3  -3   3 2218.68  165.38
   0   3   3 2057.09  163.68
  -3   6  -3    9.70    4.70
  -3   6  -3    7.60    1.40
  -3   6  -3    5.80    1.70
   6  -3  -3   15.40    3.90
   6  -3  -3    8.30    1.40
  -3  -3  -3   12.20    1.90
   3  -6   3    7.80    1.80
  -6   3   3   10.60    1.30
   3  -6   3    9.70    1.50
   3   3   3    4.50    1.80
   3  -6   3   11.80    4.80
  -1   5  -3   10.70    1.80
  -1   5  -3   15.50    4.00
   5  -4  -3   21.60    4.40
  -4  -1  -3   12.80    1.80
  -1   5  -3   16.40    2.00
   5  -4  -3   12.40    1.80
   5  -4  -3   16.30    1.60
   1  -5   3   17.00    1.90
  -5   4   3   10.90    1.50
  -5   4   3   15.80    1.70
   1  -5   3   10.30    1.80
   1  -5   3   18.30    5.00
  -5   4   3   10.30    1.90
   4   1   3   13.20    1.40
   2   2  -3 2074.69  152.08
   2  -4  -3 1891.21  151.98
   2  -4  -3 1948.01  153.88
  -4   2  -3 1949.30  151.98
   2  -4  -3 1630.74  151.98
  -2   4   3 1864.11  151.98
   4  -2   3 1647.14  152.08
  -2  -2   3 1904.31  151.98
   4  -2   3 1819.72  151.98
   4  -2   3 1842.52  153.68
  -4   5  -3 1182.18   90.79
  -1  -4  -3 1143.89   93.29
  -4   5  -3 1117.29   92.99
  -4   5  -3 1056.49   90.79
   4  -5   3 1175.38   90.79
  -5   1   3 1084.19   90.69
   4  -5   3 1118.49   90.99
   4  -5   3 1141.99   93.19
  -5   1   3  918.71   90.69
   1   4   3 1137.79   90.69
   8  -4  -3  523.15   49.00
  -4  -4  -3  584.54   46.30
  -4   8  -3  563.74   46.40
   4   4   3  589.74   46.10
  -8   4   3  555.54   46.10
   4  -8   3  536.85   46.30
   7  -5  -3  727.13   63.59
  -5  -2  -3  684.83   60.89
  -2   7  -3  770.62   64.99
   7  -5  -3  731.93   60.89
  -7   5   3  743.93   60.79
   5   2   3  787.82   60.79
   4  -5  -3  461.55   36.50
  -5   1  -3  363.16   34.50
   4  -5  -3  465.25   34.30
   1   4  -3  390.46   34.50
   4  -5  -3  352.66   34.30
  -5   1  -3  466.45   34.30
  -1  -4   3  375.06   34.30
  -1  -4   3  420.36   36.60
  -1  -4   3  450.75   34.30
   4   1  -3  366.36   32.50
  -5   4  -3  332.37   32.70
   1  -5  -3  455.25   32.70
   1  -5  -3  346.87   32.70
   1  -5  -3  444.16   35.60
   5  -4   3  427.26   35.00
   5  -4   3  345.07   32.50
  -1   5   3  412.76   32.60
  -4  -1   3  418.46   32.50
   5  -4   3  383.66   32.60
   5  -4   3  427.46   32.60
  -2  -5  -3  829.92   68.29
  -5   7  -3  907.91   68.39
  -7   2   3  866.01   68.29
   5  -7   3  778.32   71.59
   2   5   3  687.13   68.09
  -7   2   3  904.01   68.09
  -5  10  -3    7.10    1.80
  -5  -5  -3    7.30    2.30
  -5  10  -3    7.10    1.90
   5 -10   3    2.60   12.60
   5 -10   3   11.10    2.20
   5   5   3    8.20    1.50
 -10   5   3    7.70    1.50
  -6  -3  -3  339.87   26.10
   9  -6  -3  285.57   29.60
  -3   9  -3  337.47   26.40
   9  -6  -3  296.57   26.00
   3  -9   3  294.97   31.00
   3  -9   3  303.17   26.70
   6  -6  -3  725.23   55.49
   0   6  -3  710.83   52.49
   6  -6  -3  538.45   52.39
  -6   0  -3  524.85   52.79
  -6   0  -3  719.73   52.39
   6  -6  -3  659.63   52.59
   0  -6   3  626.34   52.49
   0  -6   3  685.73   55.99
  -6   6   3  613.44   52.39
  -6   6   3  574.64   52.29
   3   3  -3  345.07   34.70
   3  -6  -3  455.45   37.70
  -6   3  -3  453.55   34.60
  -6   3  -3  424.76   34.70
   3  -6  -3  361.76   34.80
  -3  -3   3  445.86   34.60
  -3   6   3  455.85   34.80
  -6   6  -3  874.61   69.69
   0  -6  -3  932.11   69.99
   0  -6  -3  812.42   72.99
   0   6   3  873.51   69.69
   6  -6   3  887.41   73.59
   6  -6   3  941.51   69.79
   6  -6   3  715.13   70.09
  -6   0   3  733.93   69.79
  -6   0   3  862.21   69.69
  -6   9  -3  242.48   22.00
  -3  -6  -3  218.48   25.70
  -3  -6  -3  291.47   22.30
   3   6   3  260.87   21.90
   6  -9   3  280.77   22.10
  -6  12  -3  104.29    9.90
  -6  12  -3  122.09    9.90
  -6  -6  -3   96.49   10.30
 -12   6   3   94.49    9.30
   6 -12   3  100.69   10.20
   6 -12   3   95.79   20.20
  -4  11  -3  432.86   36.00
  11  -7  -3  351.66   40.40
  -7  -4  -3  455.95   36.20
   4 -11   3  463.15   36.30
 -11   7   3  429.96   35.80
   8  -7  -3  444.36   39.40
   8  -7  -3  404.06   35.60
  -7  -1  -3  462.15   35.60
  -1   8  -3  442.66   35.70
   1  -8   3  433.36   35.80
   1  -8   3  387.26   39.80
  -8   7   3  425.76   35.50
  -7   2  -3  853.21   73.19
   5  -7  -3  889.71   73.19
   5  -7  -3  989.20   76.79
  -2  -5   3  803.72   75.99
  -5   7   3  929.71   73.39
  -2  -5   3  883.91   73.19
   2  -7  -3  513.15   45.50
  -7   5  -3  518.95   41.70
   2  -7  -3  575.64   41.90
   7  -5   3  551.64   41.80
   7  -5   3  471.95   44.80
  -5  -2   3  483.35   41.70
   7  -5   3  435.26   41.90
  -2   7   3  489.85   41.80
  -1  -7  -3   16.60    2.60
  -7   8  -3   17.50    2.30
  -8   1   3   16.70    2.40
   7  -8   3   25.00    7.90
  -8   1   3    2.50    4.20
   1   7   3   11.50    2.00
  -4  -7  -3    4.20    6.40
  -4  -7  -3    2.90    2.40
  -7  11  -3    1.80    1.70
  -7  11  -3    0.30    1.70
 -11   4   3    1.60    1.40
   7 -11   3    1.60    7.00
   7 -11   3    2.60    1.90
   4   7   3    1.80    1.40
  -7  14  -3   66.09    7.90
  -7  -7  -3   64.29    8.30
 -14   7   3   57.29    6.70
   7 -14   3   76.09    8.60
  -5  13  -3    6.00    2.30
  -8  -5  -3   10.50    3.40
  -5  13  -3    8.70    2.80
 -13   8   3    6.40    2.10
   5 -13   3    8.70    3.30
   5 -13   3    4.50   10.90
  -2  10  -3    2.20    1.40
  10  -8  -3    5.30    4.40
  -8  -2  -3    5.50    2.00
  10  -8  -3    1.10    1.30
   2 -10   3    7.00   17.70
   2 -10   3    3.20    2.10
 -10   8   3    2.50    1.10
   7  -8  -3   19.70    2.50
   7  -8  -3   10.10    5.30
  -8   1  -3   17.40    2.50
   1   7  -3   17.50    2.60
  -1  -7   3   21.00    3.20
  -1  -7   3    8.50    5.20
  -7   8   3   11.90    2.20
  -7   8   3   19.40    2.30
  -8   4  -3   26.80    2.80
   4  -8  -3   25.00    3.10
   4  -8  -3   20.30    5.40
  -4   8   3   27.90    3.40
  -4  -4   3   28.80    3.20
   1  -8  -3   20.80    3.20
   1  -8  -3   14.70    4.90
  -8   7  -3   19.00    2.30
  -7  -1   3   19.80    2.70
  -1   8   3   15.20    2.30
   8  -7   3   18.20    6.50
  -7  -1   3    8.90    4.10
   8  -7   3   17.70    2.40
  -8  10  -3   28.50    3.60
  -2  -8  -3   31.80    4.70
  -2  -8  -3   32.50    9.70
   8 -10   3   22.20    3.70
   2   8   3   30.20    3.60
   8 -10   3   24.10    9.90
 -10   2   3   24.20    3.40
  -5  -8  -3   51.09   21.30
  -5  -8  -3   21.60    4.60
  -8  13  -3   28.30    4.10
   8 -13   3    8.00    9.60
   8 -13   3   22.70    4.90
 -13   5   3   24.30    4.10
   5   8   3   33.00    4.90
  -8  -8  -3   -2.00    5.00
  -8  16  -3    1.60    4.70
   8 -16   3    0.30    4.60
 -16   8   3    5.20    3.10
  -9  -6  -3   15.40    5.40
  -6  15  -3   21.60    4.40
   6 -15   3   14.80    4.70
  -9  -3  -3   29.90    3.90
  12  -9  -3   18.40    8.40
  -3  12  -3   28.60    4.30
  12  -9  -3   18.10    3.30
 -12   9   3   29.20    3.80
   3 -12   3   20.10    3.80
   9  -9  -3   21.80    3.30
   0   9  -3   28.10    3.40
  -9   0  -3   28.80    3.60
   9  -9  -3   29.30    7.80
   0  -9   3   33.10    4.10
  -9   9   3   27.90    3.10
   0  -9   3   24.30    8.30
  -9   9   3   21.60    3.50
   6  -9  -3   77.39    8.20
  -9   3  -3   98.89    8.00
   3   6  -3  107.49    8.00
   6  -9  -3   81.29   11.90
  -6   9   3   94.59    8.30
  -3  -6   3   71.99   13.10
  -6   9   3   83.59    8.30
  -9   6  -3   61.79    6.00
   3  -9  -3   81.29    6.70
   3  -9  -3   67.99   10.80
   9  -6   3   54.19    9.80
   9  -6   3   63.39    6.10
  -9   9  -3  575.94   46.80
   0  -9  -3  476.55   51.39
   0  -9  -3  583.54   47.00
   9  -9   3  570.34   46.80
   9  -9   3  537.45   52.19
  -9   0   3  583.04   46.70
   0   9   3  595.64   46.80
  -3  -9  -3  142.69   14.10
  -3  -9  -3  124.19   21.30
   9 -12   3  133.89   21.70
 -12   3   3  161.48   13.30
   3   9   3  154.68   13.40
   9 -12   3  151.18   13.70
  -6  -9  -3   75.29   10.70
  -9  15  -3   81.09    9.60
   9 -15   3   76.39   10.20
  -9  -9  -3   -0.70   10.40
   9 -18   3   19.40   10.90
 -18   9   3   18.90    6.20
 -10  -7  -3    0.90    6.40
 -17  10   3   -2.20    4.10
   7 -17   3   -6.80    6.60
  -4  14  -3   54.59    6.40
  -4  14  -3   45.70    7.00
 -10  -4  -3   41.60    5.80
 -14  10   3   39.20    5.60
   4 -14   3   49.60    7.10
 -10  -1  -3    2.60    2.20
  -1  11  -3    0.20    1.50
  11 -10  -3   -0.40    1.80
  11 -10  -3    0.80    5.00
   1 -11   3    2.80    2.40
 -11  10   3    2.50    1.40
   8 -10  -3   42.90    8.80
   8 -10  -3   37.50    4.50
   2   8  -3   42.40    4.40
 -10   2  -3   39.90    4.40
  -8  10   3   37.90    4.60
  -2  -8   3   32.60   10.50
  -2  -8   3   49.10    5.20
  -8  10   3   41.30    4.40
   5 -10  -3    9.90    6.20
 -10   5  -3   10.30    1.80
   5 -10  -3    9.20    2.20
  -5  -5   3   10.30    2.30
  -5  10   3    6.50    1.90
   2 -10  -3   19.00    3.20
 -10   8  -3   21.00    3.20
   2 -10  -3   37.60   11.40
  -8  -2   3   16.80    2.80
  10  -8   3   20.50    3.30
  10  -8   3    6.30    9.10
  -2  10   3   19.50    2.80
  -1 -10  -3    2.70    2.80
  -1 -10  -3   -2.70    8.20
 -10  11  -3    2.10    1.80
  10 -11   3    2.80    2.10
 -11   1   3    3.80    2.10
  10 -11   3   -1.20    5.60
   1  10   3    5.80    2.00
 -10  14  -3   17.00    3.90
  -4 -10  -3    9.00    4.40
 -14   4   3   11.10    3.10
  10 -14   3    9.50    3.70
  10 -14   3   -0.50   12.00
  -7 -10  -3   -5.20    6.70
 -10  17  -3    9.80    6.90
  10 -17   3   11.50    7.40
 -17   7   3   13.20    4.90
 -11  -5  -3   -0.40    4.90
 -16  11   3    3.80    3.60
   5 -16   3    5.30    4.90
  -2  13  -3   61.79    6.90
 -11  -2  -3   52.09    7.20
 -13  11   3   58.19    6.50
   2 -13   3   67.79    7.80
 -11   1  -3  136.19   12.20
  10 -11  -3  128.49   12.40
   1  10  -3  145.69   12.20
  10 -11  -3  130.49   18.10
  -1 -10   3  136.19   12.80
 -10  11   3  142.59   12.20
 -11   4  -3  682.83   59.29
   7 -11  -3  749.53   59.69
   7 -11  -3  597.14   64.69
  -4  -7   3  749.82   59.59
  -7  11   3  719.63   59.49
  -7  11   3  788.12   59.59
   4 -11  -3  442.26   49.70
   4 -11  -3  536.95   44.30
 -11   7  -3  615.04   44.00
  11  -7   3  457.75   49.30
  -4  11   3  556.34   44.20
   1 -11  -3  459.45   37.40
 -11  10  -3  460.65   37.10
   1 -11  -3  386.96   43.50
 -10  -1   3  449.76   37.10
  11 -10   3  486.65   37.30
  11 -10   3  371.46   43.30
  -1  11   3  448.96   37.20
  -2 -11  -3  138.39   14.80
 -11  13  -3  158.28   14.30
 -13   2   3  150.78   13.90
   2  11   3  168.78   14.10
  11 -13   3  144.29   14.40
  -5 -11  -3   10.10    5.80
 -11  16  -3   12.10    5.20
  11 -16   3   17.50    5.80
 -16   5   3   12.30    4.10
 -18  12   3    8.50   10.50
 -12  -3  -3    4.30    4.10
   3 -15   3   -3.70    4.10
 -15  12   3    0.10    2.80
  12 -12  -3   15.90    3.50
 -12   0  -3   18.30    3.40
  12 -12  -3   17.70    9.80
   0  12  -3   10.10    2.70
   0 -12   3   12.60    3.60
 -12  12   3   15.60    2.80
   3   9  -3   52.69    5.50
 -12   3  -3   44.60    5.50
  -9  12   3   51.29    5.70
  -9  12   3   41.80    5.80
   6 -12  -3   53.39    6.80
   6 -12  -3   63.99   15.80
 -12   6  -3   50.09    5.70
  -6  12   3   52.59    6.10
  -6  -6   3   57.99    6.80
 -12   9  -3   14.30    2.60
   3 -12  -3   22.90   10.80
   3 -12  -3   13.90    3.40
  12  -9   3    9.50    8.40
  -3  12   3   12.20    2.70
  12  -9   3   13.00    3.00
  -9  -3   3   19.20    3.40
   0 -12  -3    5.10    3.10
   0 -12  -3    3.80   11.20
 -12  12  -3   -1.10    2.30
  12 -12   3   13.20   11.20
  12 -12   3    1.40    2.60
   0  12   3    2.50    2.30
 -12   0   3    4.40    2.70
  -3 -12  -3   -1.60    4.60
 -12  15  -3    0.10    4.20
  12 -15   3    7.40   14.40
  12 -15   3    9.10    4.70
   3  12   3    5.00    3.60
 -15   3   3   -1.50    3.30
 -18   6   3    1.20   10.00
 -13  -4  -3    8.30   12.00
 -17  13   3   27.30    7.10
   4 -17   3   24.40   10.00
  -1  14  -3   69.29    8.00
 -13  -1  -3   60.69    8.20
 -14  13   3   64.79    7.80
   1 -14   3   51.69    8.70
   2  11  -3  146.89   13.30
 -13   2  -3  127.69   13.10
  -2 -11   3  163.48   14.20
 -11  13   3  139.59   13.10
   8 -13  -3  148.19   13.70
   8 -13  -3  112.59   20.20
 -13   5  -3  133.09   12.90
  -8  13   3  154.18   13.20
  -5  -8   3  163.98   13.90
  -8  13   3  142.79   13.30
   5 -13  -3   71.59    8.90
   5 -13  -3   72.19   16.10
 -13   8  -3   77.59    7.70
  -5  13   3   80.89    8.10
  -8  -5   3   81.79    8.70
   2 -13  -3    5.10   11.10
   2 -13  -3    4.40    3.00
 -13  11  -3   -0.10    2.00
  13 -11   3   -4.00   15.10
  -2  13   3    4.70    2.20
 -11  -2   3    1.00    2.80
  13 -11   3   -0.30    2.60
 -13  14  -3    3.00    3.80
  -1 -13  -3   -2.80    4.30
   1  13   3   -2.40    2.90
 -14   1   3    3.10    3.60
  13 -14   3    4.70    4.50
  13 -14   3  -11.90   13.60
  -4 -13  -3    4.30   12.80
 -13  17  -3    0.60    9.30
 -17   4   3   13.20    9.70
  13 -17   3    6.90   12.10
 -14  -2  -3   13.00    6.60
   2 -16   3   11.40    6.90
 -16  14   3   12.40    5.30
 -14   1  -3   40.50    6.40
  13 -14  -3   15.00   10.30
 -13  14   3   41.20    6.10
  -1 -13   3   25.60    5.20
  10 -14  -3   13.90    4.20
 -14   4  -3   19.20    3.40
  10 -14  -3   12.10   21.60
  -4 -10   3   11.80    4.20
 -10  14   3   17.70    3.50
 -10  14   3   17.20    3.60
   7 -14  -3    2.50    3.40
 -14   7  -3    3.80    2.20
   7 -14  -3   -2.70    9.30
  -7  14   3   -1.20    2.20
  -7  14   3   -0.10    2.00
  -7  -7   3    4.90    3.30
 -14  10  -3    2.10    2.30
   4 -14  -3   -2.90    3.20
   4 -14  -3   14.60   15.70
  -4  14   3    1.40    2.10
 -10  -4   3   -0.70    3.20
 -14  13  -3    4.80    3.20
   1 -14  -3    2.90    4.10
  14 -13   3    6.50    7.60
 -13  -1   3   -2.60    3.70
  -1  14   3   -0.90    2.70
  14 -13   3    0.00   10.60
  -2 -14  -3   11.30    8.40
 -14  16  -3   10.40    6.90
 -16   2   3   16.40    6.20
  14 -16   3   24.10   10.30
 -15   0  -3    6.40    5.30
  15 -15  -3    1.20    8.70
   0 -15   3    5.90    6.00
 -15  15   3    2.30    4.80
  12 -15  -3    7.70    8.80
 -15   3  -3    4.90    3.30
 -12  15   3   -0.40    3.30
  -3 -12   3    0.50    4.10
   9 -15  -3    1.50   11.00
   9 -15  -3    9.40    4.60
 -15   6  -3    0.40    3.10
  -9  15   3    0.10    3.40
  -9  15   3    5.10    3.30
   6 -15  -3    8.60    4.60
 -15   9  -3   10.40    4.00
   6 -15  -3   11.60   25.20
  -6  15   3   19.50    4.00
 -15  12  -3    8.70    3.80
   3 -15  -3    2.70    4.90
  -3  15   3    4.10    3.10
 -12  -3   3   10.30    4.60
   0 -15  -3   29.40    7.60
 -15  15  -3   17.60    6.60
 -15   0   3   24.80    6.50
  15 -15   3   18.00   19.30
   0  15   3   20.00    5.80
  14 -16  -3   -2.40   13.50
 -16   2  -3   -6.50    5.40
 -14  16   3   10.90    5.70
  -2 -14   3   12.50    6.50
  11 -16  -3   -7.50   11.30
 -16   5  -3    2.80    3.70
  -5 -11   3    1.60    6.20
 -11  16   3    0.60    4.10
   8 -16  -3   25.10   18.50
 -16   8  -3   26.10    4.70
   8 -16  -3   23.70    6.50
  -8  -8   3   28.20    6.10
  -8  16   3   26.60    4.60
  -8  16   3   26.60    5.30
 -16  11  -3   49.60    8.10
   5 -16  -3   42.00    7.90
  -5  16   3   61.09    8.30
  -5  16   3   66.19    9.70
 -11  -5   3   57.39    7.80
 -16  14  -3    5.80    6.20
   2 -16  -3   10.10    8.10
 -14  -2   3   11.90    7.10
  -2  16   3   -6.60    7.70
  16 -17  -3   -4.70   19.10
  13 -17  -3    4.70   44.40
 -17   4  -3    8.40    8.30
 -13  17   3   12.30    8.60
  -4 -13   3    2.70   12.60
  10 -17  -3   -1.30   14.20
 -17   7  -3   12.40    5.10
  -7 -10   3   -2.30    6.40
 -10  17   3    9.90    5.90
   7 -17  -3   14.60    8.90
 -17  10  -3   24.00    5.80
  -7  17   3   34.30    5.70
 -10  -7   3   24.60    7.80
  -7  17   3   33.60    7.10
 -17  13  -3   16.30    8.40
   4 -17  -3   11.30   11.70
  -4  17   3    5.20    7.50
  12 -18  -3   -5.40   14.30
  -6 -12   3   15.20   13.00
 -18   9  -3   15.30    6.70
  -9  -9   3   12.00    9.20
  -9  18   3   13.30    8.50
 -12  -6   3    8.50   15.70
  -2  -1  -4  116.89    9.20
   3  -2  -4  105.19    9.20
  -1   3  -4  119.79    9.20
   3  -2  -4  117.09   10.00
  -3   2   4  100.89    9.00
  -3   2   4  112.29    9.00
   1  -3   4  120.39    9.10
   2   1   4   95.99    9.10
   1  -3   4   96.59    9.10
   1  -3   4  107.39   10.60
  -2   2  -4  525.55   41.60
   0  -2  -4  537.65   41.70
   2  -2   4  519.05   42.70
   0   2   4  472.15   41.60
   2  -2   4  482.55   41.60
  -2   5  -4   85.99    9.30
  -3  -2  -4   80.19    7.00
   5  -3  -4   89.49    8.60
   5  -3  -4   73.29    6.80
  -5   3   4   76.39    6.80
   2  -5   4   83.99    7.00
   3   2   4   79.59    6.80
   2  -5   4   88.89    9.80
   2  -3  -4 1175.88   86.59
   1   2  -4  975.50   85.19
  -3   1  -4  900.51   85.19
   2  -3  -4  974.70   85.19
  -3   1  -4 1129.69   85.19
   3  -1   4 1069.79   85.19
  -1  -2   4 1030.30   85.19
   3  -1   4  987.80   85.19
  -1  -2   4 1129.39   86.49
  -2   3   4 1040.60   85.19
  -3   4  -4   99.69    9.80
  -3   4  -4  101.29    8.00
   4  -1  -4   96.59    7.90
   3  -4   4   93.39   10.00
  -4   1   4  100.89    7.90
   3  -4   4   78.39    8.10
   3  -4   4  102.59    8.00
   1   3   4   91.19    8.10
   1   3   4  100.59    8.00
  -4   1   4   80.39    8.00
   7  -4  -4  522.25   45.10
  -4  -3  -4  538.85   42.70
  -3   7  -4  541.85   42.80
  -3   7  -4  468.55   45.90
   7  -4  -4  489.65   42.50
  -7   4   4  526.65   42.50
   3  -7   4  532.85   42.70
   4   3   4  532.65   42.50
   3  -7   4  479.05   46.20
   4  -4  -4  122.69    9.40
   0   4  -4  120.69    9.50
  -4   0  -4  116.19    9.40
  -4   0  -4   99.79    9.50
  -4   4   4  114.99    9.50
   0  -4   4  129.49   12.00
   0  -4   4   99.19    9.50
   4   0   4   98.29    9.50
   1  -4  -4 1603.44  134.09
   3   1  -4 1771.12  131.99
   1  -4  -4 1494.55  132.09
  -4   3  -4 1758.92  131.99
  -1   4   4 1560.54  131.99
   4  -3   4 1675.93  131.99
   4  -3   4 1485.55  131.99
   4  -3   4 1650.73  133.89
   4  -3   4 1511.95  131.99
  -4   6  -4    2.40    1.50
  -4   6  -4    2.60    1.10
  -4   6  -4    8.10    4.40
   6  -2  -4    2.60    1.20
  -4   6  -4    1.90    1.00
  -6   2   4    4.40    0.80
   4  -6   4   -0.40    3.50
  -6   2   4    1.20    1.20
   4  -6   4    4.00    1.10
   4  -6   4   -1.10    1.60
  -5  -4  -4  482.85   38.90
   9  -5  -4  396.26   41.80
  -4   9  -4  501.95   38.90
   4  -9   4  481.25   39.50
   5   4   4  499.15   38.70
   4  -9   4  425.36   43.70
  -1   6  -4    7.30    1.40
   6  -5  -4    6.60    1.10
   6  -5  -4    5.10    2.60
   6  -5  -4    4.50    1.30
  -6   5   4    5.00    1.10
   1  -6   4   16.40    6.20
   5   1   4    5.10    2.00
  -6   5   4    7.20    1.40
   1  -6   4    7.50    1.40
  -6   5   4    8.60    1.30
   3  -5  -4  278.17   26.00
   3  -5  -4  327.17   25.90
   2   3  -4  262.57   25.90
  -5   2  -4  329.47   25.90
  -5   2  -4  359.06   29.30
   3  -5  -4  343.37   28.20
  -2  -3   4  296.77   27.70
  -3   5   4  321.97   26.00
   5  -2   4  311.57   25.90
  -2  -3   4  322.37   25.90
  -5   5  -4    4.20    0.90
   0  -5  -4    8.50    6.00
  -5   5  -4    1.30    2.60
   0  -5  -4    5.10    1.50
   0  -5  -4    3.30    1.30
   5  -5   4    2.70    1.50
   0   5   4    4.30    1.40
   5  -5   4    5.70    1.10
  -5   0   4    6.10    1.00
   5  -5   4    4.00    2.90
   0   5   4    6.40    1.10
  -3  -5  -4  723.33   57.49
  -5   8  -4  658.33   57.49
  -5   8  -4  690.03   57.39
   5  -8   4  658.43   61.69
   5  -8   4  743.93   57.49
  -8   3   4  692.53   57.19
   3   5   4  696.93   57.29
  -5  11  -4  100.09   10.00
  -5  11  -4  117.29   10.10
  -6  -5  -4  104.99   10.40
   5 -11   4   84.99   17.10
   6   5   4  109.69    9.60
   5 -11   4  118.69   10.40
 -11   6   4  105.79    9.60
   8  -6  -4  964.60   82.79
   8  -6  -4  970.30   79.09
  -6  -2  -4 1026.10   79.29
   2  -8   4  902.41   83.59
   6   2   4  975.50   78.99
  -8   6   4  931.91   79.09
   5  -6  -4  267.07   22.90
   1   5  -4  284.47   22.90
  -6   1  -4  283.17   22.90
  -1  -5   4  265.27   25.90
  -1  -5   4  273.27   23.00
  -5   6   4  275.67   23.00
   2  -6  -4 1711.93  133.69
  -6   4  -4 1774.02  130.29
   2  -6  -4 1538.25  130.39
   6  -4   4 1583.04  133.09
  -4  -2   4 1652.43  130.29
   6  -4   4 1581.74  130.39
   6  -4   4 1315.77  130.29
  -2   6   4 1572.74  130.39
  -1  -6  -4  131.89   11.30
  -1  -6  -4  105.49   14.20
  -6   7  -4  142.79   10.90
   6  -7   4  133.39   11.00
  -7   1   4  142.39   10.80
   1   6   4  107.59   10.80
   6  -7   4  101.29   14.10
  -4  -6  -4   36.70    5.00
  -4  -6  -4   45.80   10.90
  -6  10  -4   36.70    4.40
  -6  10  -4   32.90    4.20
   6 -10   4   38.10    4.50
   6 -10   4   25.70    8.40
 -10   4   4   32.50    3.80
   4   6   4   39.00    4.00
  -7  -6  -4    6.60    3.50
  -6  13  -4    8.20    2.80
  -7  -6  -4    7.90   10.30
   6 -13   4   17.50    3.70
 -13   7   4    7.10    2.20
  -3  10  -4   32.80    4.00
  10  -7  -4   29.30    3.70
  10  -7  -4   33.00    8.30
   3 -10   4   26.20    4.30
   0   7  -4  125.49   10.90
  -7   0  -4  144.09   10.90
   7  -7  -4  142.89   14.30
   7  -7  -4  120.09   10.80
  -7   7   4  111.09   10.90
  -7   7   4  126.69   10.80
   0  -7   4  132.39   15.70
   7   0   4  126.19   10.60
   0  -7   4  115.29   11.00
   4  -7  -4  191.68   17.10
   4  -7  -4  222.58   20.60
  -7   3  -4  205.68   17.00
   7  -3   4  220.28   17.40
  -3  -4   4  178.98   19.80
  -3  -4   4  204.18   17.10
   1  -7  -4    9.00    4.70
   1  -7  -4    5.30    1.70
  -7   6  -4    5.80    1.20
   7  -6   4    6.50    4.30
  -6  -1   4    4.80    1.20
   7  -6   4    6.20    1.20
  -1   7   4    4.60    1.30
  -2  -7  -4  209.98   16.50
  -7   9  -4  185.18   15.80
  -2  -7  -4  163.18   20.10
   2   7   4  184.38   15.70
   7  -9   4  185.08   16.00
  -9   2   4  182.58   15.60
   7  -9   4  169.68   20.70
  -5  -7  -4   14.20    3.50
  -7  12  -4   16.10    2.90
  -5  -7  -4   12.80   10.10
   7 -12   4   15.70    3.30
 -12   5   4   19.30    2.80
   7 -12   4   19.00   11.70
   5   7   4   13.70    2.60
  -8  -7  -4   31.90    5.40
  -7  15  -4   30.00    5.10
   7 -15   4   22.40    5.40
  12  -8  -4    8.80    6.70
  -8  -4  -4   12.60    3.40
   4 -12   4   17.80    3.30
   9  -8  -4  146.09   13.30
  -1   9  -4  163.68   13.40
  -8  -1  -4  166.18   13.50
   9  -8  -4  162.18   17.60
   1  -9   4  143.99   19.10
  -9   8   4  154.78   13.20
   1  -9   4  174.88   13.70
  -9   8   4  129.19   13.20
   2   6  -4    7.40    1.40
   6  -8  -4    5.50    1.40
  -8   2  -4    5.70    1.40
   6  -8  -4    1.50    2.50
  -2  -6   4    7.70    1.80
  -6   8   4    4.00    1.50
  -6   8   4    6.80    1.30
  -2  -6   4    4.90    5.50
   3  -8  -4   37.30    7.70
   3  -8  -4   32.00    4.10
  -8   5  -4   39.70    3.70
  -5  -3   4   36.20    3.80
   8  -5   4   33.00    7.20
   8  -5   4   42.30    3.90
  -3   8   4   40.90    4.20
   0  -8  -4   71.39    7.20
   0  -8  -4   59.39   11.00
  -8   8  -4   73.49    6.70
   0   8   4   73.19    7.30
  -8   0   4   82.39    6.90
   8  -8   4   69.99   11.00
   8  -8   4   71.09    6.80
  -3  -8  -4    5.20    6.90
  -3  -8  -4    2.70    2.60
  -8  11  -4    6.70    2.00
   8 -11   4   -0.10   14.80
 -11   3   4    9.50    2.00
   3   8   4    7.10    1.90
   8 -11   4    6.50    2.20
  -6  -8  -4   55.59    8.60
  -8  14  -4   67.39    7.90
 -14   6   4   59.89    6.80
   8 -14   4   58.89    8.20
  -9  -8  -4   -8.20    6.70
 -17   9   4   -5.50    4.20
   8 -17   4   -2.60    6.60
  -5  14  -4  103.59   11.00
  -9  -5  -4  101.19   11.20
 -14   9   4  109.99   10.30
   5 -14   4  116.49   11.40
  -9  -2  -4   -1.50    2.00
  11  -9  -4    0.40    4.80
  11  -9  -4    3.80    1.90
  -2  11  -4   -0.70    1.40
   2 -11   4    0.10    2.10
 -11   9   4   -0.10    1.20
   8  -9  -4   70.69   10.50
   1   8  -4   66.59    6.50
   8  -9  -4   64.39    6.50
  -9   1  -4   77.69    6.70
  -8   9   4   66.49    6.60
  -1  -8   4   72.09   13.40
  -8   9   4   73.29    6.50
  -1  -8   4   70.29    6.90
   5  -9  -4   70.09   11.00
  -9   4  -4   94.49    7.20
   5  -9  -4   71.19    7.40
  -4  -5   4   61.89   12.40
  -5   9   4   84.79    7.50
   2  -9  -4   -2.40    3.60
   2  -9  -4    1.10    1.60
  -9   7  -4    1.10    1.10
  -7  -2   4    0.70    1.40
   9  -7   4   -0.90    4.40
   9  -7   4    1.40    1.20
  -2   9   4    1.20    1.30
  -1  -9  -4  144.59   20.20
  -9  10  -4  177.28   14.80
 -10   1   4  170.78   14.70
   9 -10   4  159.08   14.80
   1   9   4  183.98   14.80
  -4  -9  -4   13.90   11.60
  -9  13  -4    5.30    3.70
  -4  -9  -4    7.60    3.90
   9 -13   4    1.20    2.70
 -13   4   4    4.20    2.30
   9 -13   4   -1.40   10.60
   4   9   4    7.80    2.50
  -9  16  -4    7.30    5.20
  -7  -9  -4   15.80    5.70
 -16   7   4   12.60    3.70
   9 -16   4   15.00    5.40
 -10  -6  -4    2.50    4.90
   6 -16   4   -4.60    4.90
 -16  10   4    4.00    3.20
 -10  -3  -4   50.59    6.60
  -3  13  -4   52.39    6.10
   3 -13   4   42.30    6.60
 -13  10   4   44.50    5.40
   0  10  -4   41.50    4.80
 -10   0  -4   46.40    5.00
   0 -10   4   41.00    5.40
 -10  10   4   41.50    4.50
 -10   3  -4  322.97   28.90
   3   7  -4  378.16   28.90
   7 -10  -4  287.37   33.40
   7 -10  -4  329.27   29.10
  -7  10   4  349.67   29.10
  -7  10   4  338.87   29.20
  -3  -7   4  405.56   29.30
   4 -10  -4   95.39    9.60
 -10   6  -4  101.49    9.10
   4 -10  -4  115.89   16.20
  10  -6   4  119.69    9.30
  10  -6   4   80.39   13.40
  -4  10   4  100.39    9.40
  -6  -4   4   99.89    9.40
   1 -10  -4  441.36   38.20
 -10   9  -4  443.86   37.90
  -1  10   4  442.46   38.00
  -9  -1   4  476.95   38.00
  10  -9   4  468.85   38.00
  -2 -10  -4   59.39    7.60
 -10  12  -4   51.99    6.30
  10 -12   4   49.30    6.30
   2  10   4   42.80    5.90
  10 -12   4   33.50   13.60
 -12   2   4   40.20    5.50
 -10  15  -4  112.19   11.60
  -5 -10  -4  114.09   14.90
 -15   5   4   92.59   10.30
  -8 -10  -4   -0.70    9.60
  10 -18   4    6.10   10.80
 -18   8   4   11.90    6.50
 -11  -7  -4    4.30    8.90
   7 -18   4  -14.60   10.20
 -18  11   4   -3.60    6.30
 -11  -4  -4    3.10    3.80
 -15  11   4    1.80    2.60
   4 -15   4    9.90    3.90
  -1  12  -4   32.40    4.90
 -11  -1  -4   34.80    5.30
 -12  11   4   32.90    4.50
   9 -11  -4   17.70   12.80
 -11   2  -4   21.10    3.00
   9 -11  -4   15.30    2.90
  -9  11   4   18.70    3.00
  -2  -9   4   33.00    4.60
  -9  11   4   22.80    3.10
   6 -11  -4  287.27   31.50
 -11   5  -4  294.77   25.40
   6 -11  -4  295.57   25.80
  -6  11   4  293.97   25.60
  -5  -6   4  335.27   25.80
   3 -11  -4   13.30    3.10
   3 -11  -4   16.30    9.60
  11  -8   4    9.30    6.50
  -3  11   4   17.60    2.70
   0 -11  -4  105.39   19.60
   0 -11  -4  147.39   13.00
 -11  11  -4  138.99   12.40
   0  11   4  143.09   12.40
  11 -11   4  106.79   18.90
  11 -11   4  137.59   12.50
  -3 -11  -4   19.50    4.90
 -11  14  -4   15.40    4.40
  11 -14   4   20.40    4.50
  11 -14   4    5.70   13.50
   3  11   4   29.70    4.20
 -14   3   4   22.60    4.00
  -6 -11  -4    6.50    6.90
 -17   6   4    5.90    5.00
  11 -17   4   -4.60    8.00
 -12  -5  -4    6.60    7.10
   5 -17   4    7.60    8.10
 -17  12   4   13.10    5.20
  14 -12  -4   52.09   15.60
 -14  12   4   35.80    6.10
   1  11  -4   13.00    2.60
  11 -12  -4    9.90    7.40
 -12   1  -4   12.50    2.90
  11 -12  -4   13.40    3.00
  -1 -11   4    8.60    3.30
 -11  12   4    8.40    2.40
 -12   4  -4  223.28   20.30
   8 -12  -4  238.08   20.70
   8 -12  -4  271.67   37.30
  -8  12   4  244.68   20.60
  -8  12   4  247.68   20.50
  -4  -8   4  224.78   20.90
   5 -12  -4   -1.20    6.40
   5 -12  -4    9.40    3.00
 -12   7  -4    4.50    2.00
  -5  12   4    5.90    2.20
  -7  -5   4    8.10    2.90
 -12  10  -4  156.58   13.90
   2 -12  -4  162.68   22.40
   2 -12  -4  143.09   14.30
  -2  12   4  157.68   13.90
  12 -10   4  146.59   13.90
 -10  -2   4  155.38   14.00
  -1 -12  -4    6.30    3.70
 -12  13  -4    8.10    3.30
  -1 -12  -4    8.20   30.00
  12 -13   4    9.20    3.20
 -13   1   4    7.90    3.10
   1  12   4   12.10    2.80
 -13  -3  -4    6.30    5.70
   3 -16   4   -7.60    5.60
 -16  13   4    8.90    4.30
 -13   0  -4  111.79   13.20
   0  13  -4  144.89   12.50
  13 -13  -4  120.49   20.70
  10 -13  -4   13.10    3.60
  10 -13  -4    7.30    8.70
 -13   3  -4   16.00    3.10
 -10  13   4   13.20    3.20
 -10  13   4   14.40    3.00
   7 -13  -4  170.38   15.70
 -13   6  -4  159.28   14.80
  -7  13   4  161.68   15.00
  -7  13   4  191.18   15.20
  -6  -7   4  155.48   15.30
   4 -13  -4   -0.70    8.80
 -13   9  -4   -0.40    1.90
  -4  13   4   -1.10    1.80
  -9  -4   4    2.40    2.80
   1 -13  -4    2.60   16.10
   1 -13  -4   -0.80    3.20
 -13  12  -4   -0.80    2.40
  13 -12   4   -1.20    2.70
  -1  13   4   -0.60    2.20
 -12  -1   4   -0.50    3.00
  13 -12   4    7.10   11.10
  -2 -13  -4   -0.40    5.30
 -13  15  -4    0.00    4.90
 -15   2   4    6.70    4.50
   2  13   4    5.10    3.80
  13 -15   4   -2.40    5.20
  15 -14  -4    4.70    7.30
 -14  -1  -4    4.80    5.90
 -15  14   4    1.50    4.10
   1 -15   4    1.00    5.30
  12 -14  -4   24.20   13.40
  -2 -12   4   17.20    5.90
 -14   5  -4    1.20    2.30
   9 -14  -4    4.90    8.00
   9 -14  -4    0.80    3.50
  -5  -9   4    0.10    3.60
  -9  14   4    0.80    2.40
  -9  14   4    2.40    2.50
   6 -14  -4   -1.80    3.30
 -14   8  -4    0.40    2.20
   6 -14  -4    0.70    6.30
  -8  -6   4   -3.00    3.00
  -6  14   4    2.10    2.10
  -6  14   4   -0.70    2.50
   3 -14  -4    0.30    3.40
   3 -14  -4    4.80   13.30
 -14  11  -4    1.40    2.70
 -11  -3   4   -0.40    3.50
  14 -11   4   -4.70    7.30
  -3  14   4   -1.80    2.30
 -14  14  -4   -0.50    4.20
   0 -14  -4   -2.50    5.10
   0  14   4    1.30    3.20
 -14   0   4   -5.20    4.30
  14 -14   4    7.10    5.30
  14 -14   4   -7.10   14.20
  -3 -14  -4   11.90   15.90
 -17   3   4    0.00    7.70
  14 -15  -4    0.30   12.30
 -15   1  -4    5.10    5.60
  -1 -14   4    2.60    5.30
 -14  15   4    4.70    4.60
  11 -15  -4    2.70    9.10
 -15   4  -4    6.70    3.10
  11 -15  -4    0.70    5.60
  -4 -11   4    3.80    4.10
 -11  15   4   -5.70    3.00
   8 -15  -4   10.00    4.60
 -15   7  -4   10.00    3.30
   8 -15  -4   -1.50    6.70
  -8  15   4   10.20    3.20
  -8  15   4    7.30    3.70
 -15  10  -4   18.50    6.10
   5 -15  -4   -0.80   22.60
   5 -15  -4   17.40    5.10
 -10  -5   4   18.10    4.90
  -5  15   4   24.20    4.00
 -15  13  -4   13.60    4.90
   2 -15  -4    5.50    5.40
  15 -13   4    5.90   22.40
  -2  15   4   12.60    3.70
 -13  -2   4    9.30    5.30
  -1 -15  -4   -6.90    9.80
 -15  16  -4    4.00    9.10
 -16   1   4   -0.30    7.10
  16 -16  -4   14.90   18.20
 -16   0  -4   -4.30   11.70
 -16   3  -4    6.60    4.90
  13 -16  -4   -1.60   10.10
 -13  16   4    4.20    5.00
  -3 -13   4    4.10    5.80
  10 -16  -4    1.00   13.90
 -16   6  -4    2.70    3.70
 -10  16   4    7.40    4.10
  -6 -10   4   -1.00    5.00
 -16   9  -4   -1.30    3.80
   7 -16  -4    9.10    6.10
   7 -16  -4   24.60   16.90
  -9  -7   4    7.10    5.00
  -7  16   4    7.40    4.30
  -7  16   4    3.10    3.40
   1 -16  -4    9.80   10.70
 -16  15  -4    0.00    8.30
  -1  16   4    4.50    6.40
 -15  -1   4    2.80    7.90
  15 -17  -4   -4.70   15.40
  12 -17  -4   10.10   20.70
 -17   5  -4   14.40    6.10
 -12  17   4   19.80    7.10
  -5 -12   4   20.20    7.20
   9 -17  -4    7.30   11.20
 -17   8  -4    9.80    5.00
  -9  17   4    7.80    4.80
  -8  -9   4    3.20    6.90
  -9  17   4   11.90    5.90
 -17  11  -4   66.49    9.00
   6 -17  -4   43.30   12.30
  -6  17   4   70.19    9.50
 -11  -6   4   64.69   10.20
  -6  17   4   72.79   10.50
 -14  -3   4   -4.30    8.80
  -3  17   4   -2.60    6.30
  14 -18  -4  -10.50   34.80
  11 -18  -4    7.90   20.00
 -18   7  -4   10.00    7.40
  -7 -11   4    7.10    8.60
 -11  18   4   -1.30   12.30
 -18  10  -4    0.40    6.20
 -10  -8   4   -8.40    9.30
  -8  18   4  -10.00    9.30
  13 -19  -4   18.10   35.30
   0  -1  -5  308.47   26.10
  -1   1  -5  357.46   26.70
   1  -1   5  333.47   26.00
   0   1   5  263.77   26.00
   1  -1   5  288.27   26.00
   1  -1   5  359.46   27.00
  -2   0  -5 1317.57  101.19
  -2   0  -5 1264.97  102.59
  -2   0  -5 1089.99  101.19
   0  -2   5 1412.66  101.19
   0  -2   5 1331.77  102.19
   0  -2   5 1320.67  101.19
  -2   2   5 1068.29  101.09
  -2   2   5 1171.48  101.19
   2   0   5 1152.68  101.19
  -2   3  -5  859.21   69.59
   1   2   5  852.61   69.59
   2  -3   5  769.22   69.69
   2  -3   5  923.11   69.69
  -3   1   5  864.61   69.59
   2  -3   5  829.22   70.99
  -3  -1  -5   61.59    5.10
  -1   4  -5   64.59    5.10
   4  -3  -5   60.69    4.90
   4  -3  -5   46.10    4.80
  -4   3   5   49.40    4.90
   1  -4   5   51.29    5.10
   1  -4   5   63.09    7.40
  -4   3   5   59.29    4.90
   1  -4   5   64.09    5.00
   1  -3  -5  406.06   36.00
   1  -3  -5  395.36   36.10
  -3   2  -5  393.46   36.00
  -3   2  -5  458.55   36.00
   1  -3  -5  506.75   37.90
   3  -2   5  451.35   37.70
  -1   3   5  449.16   36.10
   3  -2   5  400.26   36.00
   3  -2   5  496.15   36.00
  -3   5  -5    8.20    2.50
  -3   5  -5   11.90    1.50
  -3   5  -5    8.90    1.50
  -2  -3  -5   14.80    2.10
   3  -5   5   11.00    3.60
   3  -5   5   13.50    1.70
   2   3   5   11.90    1.40
   3  -5   5    8.10    1.60
  -5   2   5   12.40    1.40
   2   3   5    9.30    1.70
  -5   2   5   10.50    1.20
   6  -4  -5   18.20    4.40
  -2   6  -5   19.90    5.40
   6  -4  -5   14.70    1.70
  -2   6  -5   22.30    2.50
   2  -6   5   17.50    6.40
   4   2   5   18.20    1.80
   4   2   5    7.20    3.10
  -6   4   5   13.30    1.70
   2  -6   5   11.40    1.90
  -4   1  -5   20.10    2.50
   1   3  -5   29.20    2.50
   3  -4  -5   30.50    2.40
   3  -4  -5   27.50    3.90
   1   3  -5   16.70    3.10
  -1  -3   5   29.10    2.60
  -1  -3   5   19.60    2.50
  -3   4   5   23.40    2.50
   4  -1   5   23.40    2.50
  -3   4   5   19.50    2.50
  -1  -3   5   25.80    4.70
   0  -4  -5   79.79    9.40
  -4   4  -5   88.49    9.30
  -4   4  -5   94.89    7.10
   0   4   5   84.09    7.20
  -4   0   5   92.59    7.10
   4  -4   5   71.09    7.10
   4  -4   5   91.49    7.20
   4  -4   5   68.99    7.40
   4  -4   5   77.09    9.30
  -4   7  -5  667.43   53.29
  -4   7  -5  607.04   53.39
  -3  -4  -5  690.73   53.39
  -4   7  -5  628.14   56.69
   4  -7   5  602.54   56.99
  -7   3   5  629.44   53.09
   4  -7   5  676.93   53.39
   3   4   5  660.53   53.19
   8  -5  -5  255.37   19.10
  -3   8  -5  238.18   19.40
  -5  -3  -5  217.58   19.20
   5   3   5  216.48   19.00
   3  -8   5  227.18   19.40
  -8   5   5  218.58   19.00
   3  -8   5  216.48   24.00
   5  -5  -5    2.10    0.80
  -5   0  -5    6.30    9.00
   0   5  -5    3.10    1.50
   5  -5  -5    6.00    2.50
  -5   0  -5    1.70    2.60
   5  -5  -5    2.90    1.00
   0  -5   5    4.50    1.30
  -5   5   5    0.80    1.10
   0  -5   5   11.60    4.80
   5   0   5    4.70    1.50
   2  -5  -5  353.16   32.00
   3   2  -5  326.97   29.50
   2  -5  -5  342.37   29.60
  -5   3  -5  388.46   29.50
   5  -3   5  390.36   29.60
   5  -3   5  372.26   32.10
   5  -3   5  309.27   29.50
  -3  -2   5  364.16   29.50
  -2   5   5  377.46   29.60
  -5   6  -5   92.69   12.50
  -1  -5  -5   99.59   12.20
  -5   6  -5  115.09    9.10
   6  -1  -5  112.29    9.20
  -6   1   5  111.39    9.30
   5  -6   5   94.59   12.20
   5  -6   5  103.69    9.20
  -5   9  -5  647.54   49.30
  -4  -5  -5  617.04   49.40
   4   5   5  579.44   49.10
   5  -9   5  602.94   49.90
   5  -9   5  511.05   54.09
  -6  -4  -5   30.80    4.10
  10  -6  -5   11.40    4.40
  -4  10  -5   16.80    2.70
  -4  10  -5   22.10    3.40
   6   4   5   24.90    2.90
   4 -10   5   16.70    3.00
 -10   6   5   23.10    2.70
   4 -10   5   10.10    5.90
   7  -6  -5  394.06   34.80
  -6  -1  -5  426.46   31.90
   7  -6  -5  361.06   31.70
  -7   6   5  325.07   31.70
   6   1   5  405.76   31.70
   1  -7   5  399.66   36.60
  -7   6   5  381.96   31.70
   4  -6  -5  269.27   24.70
   2   4  -5  258.97   24.60
   4  -6  -5  336.67   27.40
  -4   6   5  335.17   24.60
  -4   6   5  258.27   24.60
  -2  -4   5  295.87   24.60
  -2  -4   5  322.37   24.50
  -6   5  -5  496.15   43.70
  -6   5  -5  513.55   40.00
   1  -6  -5  496.85   40.20
   1  -6  -5  495.75   43.50
  -5  -1   5  473.25   39.90
  -1   6   5  485.95   40.00
   6  -5   5  505.45   40.00
   6  -5   5  414.66   40.20
  -2  -6  -5  648.14   64.79
  -6   8  -5  765.72   61.19
  -2  -6  -5  785.42   61.39
  -8   2   5  718.33   61.09
   6  -8   5  691.93   65.59
   6  -8   5  782.52   61.29
   2   6   5  784.82   61.19
  -6  11  -5   36.20    4.80
  -5  -6  -5   34.30    5.50
  -5  -6  -5   24.60    9.10
 -11   5   5   35.40    4.00
   5   6   5   41.80    4.30
   6 -11   5   33.10    4.90
  -5  12  -5    7.40    2.50
  -7  -5  -5    7.70    3.10
   7   5   5   13.50    2.20
   5 -12   5    6.00    2.80
 -12   7   5    6.40    1.90
   9  -7  -5  235.68   24.40
   9  -7  -5  230.78   20.50
  -7  -2  -5  273.67   21.00
  -2   9  -5  246.38   20.80
  -9   7   5  233.88   20.50
   2  -9   5  260.27   20.90
   2  -9   5  237.68   26.50
   7   2   5  238.88   20.40
  -7   1  -5  269.67   22.60
   1   6  -5  277.57   22.70
   6  -7  -5  292.67   25.90
   6  -7  -5  256.47   22.60
  -6   7   5  268.17   22.80
  -1  -6   5  270.87   26.60
  -1  -6   5  274.07   22.80
  -6   7   5  268.37   22.60
  -7   4  -5  437.36   34.70
   3  -7  -5  415.96   38.30
   3  -7  -5  420.26   34.90
   7  -4   5  416.56   34.80
  -4  -3   5  441.26   34.70
  -3   7   5  387.76   34.80
   0  -7  -5    1.10    3.70
  -7   7  -5    1.50    0.90
   0  -7  -5    5.30    1.70
   7  -7   5    2.60    4.30
   0   7   5    1.70    1.10
   7  -7   5    1.90    1.10
  -7   0   5    3.50    2.60
  -7   0   5    0.00    1.00
  -3  -7  -5    4.90    2.40
  -3  -7  -5    4.00    5.70
 -10   3   5    8.90    1.70
   7 -10   5    7.90    6.70
   7 -10   5    6.80    2.00
   3   7   5    8.20    1.70
  -7  13  -5    1.40    2.60
  -6  -7  -5    3.50   10.70
  -6  -7  -5    3.10    3.50
   7 -13   5    2.70    3.10
   6   7   5    4.90    2.30
 -13   6   5    5.40    2.10
  -8  -6  -5   90.89   10.40
  -6  14  -5   97.49   10.20
   6 -14   5   87.69   10.50
 -14   8   5   93.69    9.10
  -8  -3  -5   29.30    4.80
  11  -8  -5   24.60    4.10
  -3  11  -5   33.80    4.40
   3 -11   5   33.70    5.00
 -11   8   5   31.20    3.70
  -8   0  -5  260.77   22.50
   8  -8  -5  258.87   22.10
   0   8  -5  282.77   22.10
   8  -8  -5  259.27   25.90
   8   0   5  288.57   21.90
  -8   8   5  260.27   22.00
   0  -8   5  287.97   22.30
   0  -8   5  238.38   27.30
  -8   8   5  220.78   22.00
   5  -8  -5  109.69   12.80
  -8   3  -5  111.79    9.10
   5  -8  -5   95.79    9.20
  -3  -5   5  110.79    9.30
  -3  -5   5   79.49   13.50
  -5   8   5  111.69    9.40
   2  -8  -5    0.20    1.40
  -8   6  -5    0.40    0.80
   2  -8  -5    1.30    8.30
  -6  -2   5    1.50    1.10
  -2   8   5    1.30    1.20
   8  -6   5    0.50    2.80
   8  -6   5    2.40    1.10
  -1  -8  -5   56.69    6.40
  -8   9  -5   69.89    6.00
   1   8   5   45.60    5.70
   8  -9   5   48.60   10.90
  -9   1   5   64.99    5.70
   8  -9   5   57.89    5.90
  -4  -8  -5    7.80    3.50
  -4  -8  -5   14.20    9.40
  -8  12  -5   12.30    2.90
   8 -12   5   16.10    3.30
   4   8   5   15.20    2.70
   8 -12   5   18.70   10.50
 -12   4   5   18.80    2.90
  -7  -8  -5    8.00    5.70
  -8  15  -5   14.40    4.30
  -9  -7  -5   -8.00    5.10
   7 -16   5    2.70    4.60
 -16   9   5   -3.80    3.00
  -4  13  -5  183.28   15.40
  -9  -4  -5  169.08   15.50
   4 -13   5  167.18   15.70
 -13   9   5  157.08   14.80
  -1  10  -5   10.40    2.00
  10  -9  -5    8.30    1.90
  -9  -1  -5   13.10    2.30
  10  -9  -5    3.10    3.40
   1 -10   5    6.40    2.30
 -10   9   5    8.70    1.70
   2   7  -5   88.99    8.00
   7  -9  -5   98.99   12.30
  -9   2  -5   81.99    8.10
   7  -9  -5   83.09    8.10
  -2  -7   5   95.59    8.40
  -7   9   5   92.19    8.30
  -7   9   5   93.99    8.10
   4  -9  -5    8.60    1.90
  -9   5  -5    7.70    1.50
   4  -9  -5   17.40   11.50
   9  -5   5    8.10    5.00
  -4   9   5    6.80    2.20
  -9   8  -5    3.60    1.60
   1  -9  -5   12.90    7.60
   9  -8   5    8.30    6.20
   9  -8   5    8.30    1.80
  -2  -9  -5    1.50    6.60
  -9  11  -5    3.70    2.00
  -2  -9  -5    7.50    3.10
   9 -11   5    3.20    2.00
   2   9   5    2.10    1.70
   9 -11   5    7.50   10.50
 -11   2   5    2.10    1.80
  -9  14  -5   62.09    8.00
  -5  -9  -5   63.49    8.90
 -14   5   5   51.79    6.50
   5   9   5   56.19    7.40
   9 -14   5   49.60    7.90
  -8  -9  -5    2.30    7.20
   9 -17   5    9.10    6.90
 -17   8   5   -4.70    4.40
 -10  -8  -5   -4.80    9.40
   8 -18   5    0.00   10.00
 -18  10   5   12.00    6.30
 -10  -5  -5   13.10    4.70
 -15  10   5   11.50    3.10
   5 -15   5    8.40    4.00
  12 -10  -5   -1.80    2.30
  12 -10  -5    0.30    4.90
 -10  -2  -5   -0.50    3.50
   2 -12   5    1.10    2.60
 -12  10   5    5.00    1.80
   9 -10  -5   24.70    3.50
   1   9  -5   29.20    3.60
   9 -10  -5   20.60    6.90
 -10   1  -5   25.20    3.70
  -9  10   5   21.20    3.50
  -9  10   5   26.10    3.30
  -1  -9   5   30.90    4.40
   6 -10  -5   89.69    8.80
   6 -10  -5   87.49   13.30
  -6  10   5  101.59    8.80
   3 -10  -5    8.90    7.20
 -10   7  -5    7.40    1.80
   3 -10  -5   10.20    2.90
  -7  -3   5    8.30    2.00
  10  -7   5    0.50    4.80
  -3  10   5    7.10    1.90
  10  -7   5   11.80    2.10
   0 -10  -5  244.48   29.60
   0 -10  -5  271.57   23.80
 -10  10  -5  283.87   23.50
  10 -10   5  235.98   30.30
 -10   0   5  286.17   23.40
  10 -10   5  288.47   23.60
   0  10   5  285.87   23.50
  -3 -10  -5   36.40   15.60
 -10  13  -5   52.59    6.40
  -3 -10  -5   26.00    5.30
 -13   3   5   31.60    5.30
   3  10   5   41.60    5.80
  10 -13   5   24.10   14.90
  10 -13   5   41.00    6.20
 -10  16  -5   16.20    5.80
  -6 -10  -5    6.80    6.00
  10 -16   5    2.70    5.20
 -16   6   5   11.50    4.20
 -11  -6  -5   12.30    7.00
 -17  11   5    7.00    4.80
   6 -17   5   12.80    6.80
  14 -11  -5    7.80    9.50
 -11  -3  -5   14.60    4.00
 -14  11   5   10.50    2.70
   3 -14   5    9.80    3.70
  11 -11  -5    7.50    2.40
  11 -11  -5    8.60    7.40
   0  11  -5    9.30    2.30
 -11  11   5    8.90    2.00
   0 -11   5    8.30    3.00
 -11   3  -5   30.00    4.30
   8 -11  -5   38.60    4.70
   8 -11  -5   26.40    9.70
  -8  11   5   33.50    4.20
  -8  11   5   35.30    4.60
  -3  -8   5   38.70    5.30
   5 -11  -5   41.00    5.60
   5 -11  -5   45.10   11.50
 -11   6  -5   36.00    4.50
  -5  11   5   42.10    5.00
  -6  -5   5   38.20    5.30
 -11   9  -5  231.98   19.50
   2 -11  -5  227.78   20.10
   2 -11  -5  199.08   26.00
  -9  -2   5  242.68   19.70
  11  -9   5  214.98   26.50
  -2  11   5  244.58   19.70
  11  -9   5  213.08   19.60
  -1 -11  -5    3.70    9.70
 -11  12  -5    6.30    2.80
  -1 -11  -5    0.20    3.10
   1  11   5    2.40    2.20
  11 -12   5    2.80    2.50
 -12   1   5    3.70    2.40
  11 -12   5    6.40    9.40
  -4 -11  -5   84.09   11.20
 -11  15  -5   82.99   11.50
  11 -15   5   98.79   11.10
 -15   4   5   82.99    9.60
  -7 -11  -5   23.90   17.50
 -18   7   5   -0.20    8.70
 -12  -4  -5   -7.40    7.80
   4 -16   5   10.90    6.60
 -16  12   5   -1.10    4.30
  13 -12  -5   62.19   16.10
 -12  -1  -5   42.70    7.00
   1 -13   5   56.19    7.50
 -13  12   5   53.39    6.40
   2  10  -5   -0.40    1.80
  10 -12  -5    4.10   10.60
  10 -12  -5   -2.20    2.40
 -12   2  -5    1.90    2.70
 -10  12   5    6.70    2.30
 -10  12   5    2.20    1.80
  -2 -10   5    1.70    2.80
   7 -12  -5  413.06   46.50
   7 -12  -5  296.67   28.20
 -12   5  -5  296.87   27.70
  -5  -7   5  368.26   28.20
  -7  12   5  329.07   28.00
  -7  12   5  331.67   28.00
 -12   8  -5   30.40    4.70
   4 -12  -5   40.50    5.90
   4 -12  -5   26.70   10.00
  -8  -4   5   40.80    5.90
  -4  12   5   40.40    5.10
 -12  11  -5   62.89    7.20
   1 -12  -5   77.99    8.10
   1 -12  -5   48.60   12.50
  -1  12   5   73.79    7.40
  12 -11   5   60.79    7.40
 -11  -1   5   70.39    7.50
 -12  14  -5    9.00    4.50
 -14   2   5   14.60    3.90
   2  12   5   18.30    3.70
 -17   5   5   -6.60    9.10
  15 -13  -5   -6.00   10.40
 -13  -2  -5   12.30    4.80
 -15  13   5    4.90    4.00
   2 -15   5    4.20    4.50
 -13   1  -5  101.79   11.10
  12 -13  -5   99.19   18.60
 -12  13   5  123.29   10.90
  -1 -12   5  123.39   11.90
   9 -13  -5   41.30   13.20
 -13   4  -5   27.50    4.50
   9 -13  -5   26.10    4.50
  -9  13   5   30.30    4.70
  -9  13   5   31.40    4.80
  -4  -9   5   23.90    4.50
   6 -13  -5   61.79   16.90
 -13   7  -5   34.00    5.00
   6 -13  -5   43.80    6.60
  -7  -6   5   40.30    6.20
  -6  13   5   43.00    5.40
   3 -13  -5   17.20   11.60
 -13  10  -5   21.10    3.40
   3 -13  -5   15.00    3.80
  13 -10   5    7.80    9.50
 -10  -3   5   18.00    3.90
  -3  13   5   24.00    3.50
  13 -10   5   17.10    3.40
 -13  13  -5    3.00    3.30
   0 -13  -5    1.70    3.90
   0 -13  -5    4.80   24.50
  13 -13   5    1.60    3.30
  13 -13   5    4.60   11.20
   0  13   5    4.20    2.90
  -3 -13  -5   -0.50    7.00
  13 -16   5    3.80    7.50
 -16   3   5    1.40    5.40
 -14  -3  -5    0.00   14.70
 -17  14   5    7.20    9.50
   3 -17   5   -0.90   11.30
  14 -14  -5    3.10   10.50
 -14   0  -5   19.40    4.60
 -14  14   5   14.80    4.00
   0 -14   5   12.50    4.70
 -14   3  -5   15.10    3.50
  11 -14  -5    2.80    4.30
  11 -14  -5   27.40   13.30
  -3 -11   5   12.90    4.00
 -11  14   5   21.10    3.40
 -14   6  -5    0.90    2.30
   8 -14  -5    3.90    3.50
   8 -14  -5   -4.50    8.60
  -6  -8   5    0.10    3.40
  -8  14   5    2.80    2.30
  -8  14   5    1.50    2.30
   5 -14  -5   -5.80    7.00
 -14   9  -5    3.00    2.60
   5 -14  -5    3.30    3.60
  -9  -5   5    1.40    3.40
  -5  14   5   -0.30    2.20
   2 -14  -5    0.90   13.90
   2 -14  -5    8.50    4.20
  14 -12   5    7.60   11.10
  14 -12   5   10.40    3.90
  -2  14   5    3.90    3.20
 -12  -2   5    3.70    4.20
 -14  15  -5   -5.70    6.20
  -1 -14  -5    5.70    8.10
  14 -15   5    7.90    7.30
   1  14   5    0.30    4.30
 -15   1   5   -0.70    5.50
 -15  -1  -5    1.50    7.60
   1 -16   5   -7.80    7.90
 -16  15   5   -3.90    5.80
  13 -15  -5    2.40   11.90
 -15   2  -5   15.60    4.40
 -13  15   5    7.50    3.90
  -2 -13   5    6.30    4.70
 -15   5  -5    2.10    3.10
  10 -15  -5   11.70   11.60
  10 -15  -5   -5.70    5.30
  -5 -10   5    0.70    4.10
 -10  15   5    2.80    3.00
 -10  15   5    3.90    3.30
 -15   8  -5    5.10    4.70
   7 -15  -5    0.30    4.60
   7 -15  -5    7.50   11.40
   4 -15  -5    2.50   15.10
   4 -15  -5    6.80    5.10
 -15  11  -5    2.60    3.80
 -11  -4   5    1.20    4.60
  -4  15   5    1.80    2.80
 -15  14  -5   -2.00    5.80
   1 -15  -5    4.60    7.10
  15 -14   5   -2.30    7.60
 -14  -1   5   -5.60    5.80
  -1  15   5   -7.10    4.60
 -16   1  -5    6.60    6.90
  15 -16  -5   -2.40   14.60
 -15  16   5    0.10    6.60
  -1 -15   5    0.70    7.60
  12 -16  -5   -5.80   13.60
 -16   4  -5   -5.60    4.80
  -4 -12   5   -3.90    6.50
 -12  16   5    1.40    4.80
 -16   7  -5    0.70    3.80
   9 -16  -5   14.70   19.10
  -9  16   5    6.40    4.20
  -9  16   5    9.30    3.90
  -7  -9   5   13.30    5.60
   6 -16  -5   45.80   24.40
 -16  10  -5   23.80    5.30
   6 -16  -5   16.20    7.20
  -6  16   5   31.20    5.60
 -10  -6   5   24.50    6.20
  -6  16   5   21.80    4.50
   3 -16  -5    8.60    8.00
 -16  13  -5   -3.00    5.70
 -13  -3   5    5.00    6.80
  -3  16   5    0.70    4.10
  14 -17  -5    5.00   19.20
 -17   3  -5   -4.70   11.80
  -3 -14   5   -9.10   10.80
 -14  17   5    4.90   11.30
  11 -17  -5    6.50   15.60
 -17   6  -5    8.90    5.30
  -6 -11   5   12.10    6.80
 -11  17   5   -6.10    5.70
   8 -17  -5   -1.10    9.80
 -17   9  -5    0.50    4.90
  -8  17   5    2.60    4.50
  -9  -8   5   -4.50    7.40
  -8  17   5    2.80    6.10
 -12  -5   5   14.80   12.30
  13 -18  -5    5.40   18.50
 -18   8  -5  -10.30    7.30
  10 -18  -5   -6.10   19.20
  -8 -10   5  -13.50    8.70
 -10  18   5   -8.30    8.40
  -7  18   5   24.10    8.80
 -11  -7   5   16.70   12.50
  12 -19  -5   -3.10   32.50
   0   0  -6   24.70    2.60
  -1  -1  -6 1007.10   75.79
   1  -2   6  985.20   76.79
   1  -2   6  876.91   75.79
  -2   1   6  836.32   75.79
  -2   1  -6  309.37   22.00
  -2   1  -6  243.68   22.00
  -1   2   6  258.57   22.00
  -1  -1   6  274.17   22.50
   2  -1   6  292.97   22.00
  -1   2   6  226.78   22.00
  -2  -2  -6   71.99    5.90
  -2   4  -6   74.39    5.70
   4  -2  -6   64.59    6.70
   2  -4   6   60.69    7.90
   2  -4   6   52.89    5.80
  -4   2   6   67.29    5.70
  -4   2   6   69.09    5.60
   3  -3  -6   43.50    4.50
  -3   0  -6   42.10    5.90
   0   3  -6   43.10    4.70
  -3   0  -6   29.30    3.30
  -3   0  -6   36.90    3.40
  -3   3   6   38.80    3.30
   3   0   6   29.90    3.30
  -3   3   6   32.30    3.20
   0  -3   6   40.50    3.30
   0  -3   6   38.30    5.50
  -3   3  -6   30.90    2.50
  -3   3  -6   21.50    2.60
   0  -3  -6   32.10    4.60
   3  -3   6   25.40    4.30
   0   3   6   22.70    2.60
   3  -3   6   29.80    2.60
  -3  -3  -6    3.70    1.30
   6  -3  -6    5.00    2.60
  -3   6  -6    7.60    7.20
   3  -6   6    5.40    4.40
  -6   3   6    2.70    1.20
  -6   3   6    3.20    0.70
   5  -4  -6  116.19    9.00
   1  -5   6  110.49    9.20
   1  -5   6   94.99   12.10
   4   1   6   94.79    9.30
  -5   4   6  112.89    9.10
  -4   2  -6  579.74   45.90
  -4   2  -6  621.24   43.60
   2  -4  -6  539.45   43.60
  -2   4   6  543.05   43.80
  -2  -2   6  499.45   43.50
  -2   4   6  457.95   43.60
   4  -2   6  478.65   43.70
  -4   5  -6  220.68   17.50
  -4   5  -6  221.38   20.00
   1   4   6  213.08   17.60
   4  -5   6  172.98   17.70
  -5   1   6  222.18   17.40
  -5   1   6  193.48   17.50
   4  -5   6  231.48   17.60
  -4  -4  -6   25.00    3.80
   4  -8   6   21.60    3.50
   4   4   6   23.50    2.70
   4  -8   6   19.30    7.70
  -8   4   6   15.80    2.30
   7  -5  -6  134.39    9.70
   7  -5  -6  128.19   12.60
  -2   7  -6  100.99   13.80
  -2   7  -6  119.29   10.10
   2  -7   6   93.99   14.40
   2  -7   6  102.59   10.00
  -7   5   6  101.99   10.20
   1   4  -6  117.79   11.70
   4  -5  -6  145.59   13.60
  -5   1  -6  158.38   11.70
  -5   1  -6  116.49   11.70
   4  -5  -6  157.88   11.60
  -5   1  -6  147.89   16.40
  -1  -4   6  142.49   11.60
  -4   5   6  136.99   11.60
  -1  -4   6  139.59   14.50
   5  -1   6  116.99   11.70
  -5   4  -6  196.68   18.60
  -5   4  -6  209.88   15.80
   1  -5  -6  194.28   15.90
   4   1  -6  176.78   15.70
   5  -4   6  204.98   15.80
   5  -4   6  171.78   16.00
   5  -4   6  152.68   15.80
  -1   5   6  185.08   15.80
   5  -4   6  188.48   18.40
  -4  -1   6  208.98   15.70
  -2  -5  -6  835.62   66.59
  -5   7  -6  805.42   66.39
   5  -7   6  891.11   66.49
   5  -7   6  741.93   70.09
   2   5   6  804.82   66.39
  -7   2   6  754.72   66.19
  -5  10  -6   14.40    2.50
  -5  -5  -6   17.00    2.90
   5   5   6   12.70    2.00
 -10   5   6   15.20    2.50
   5 -10   6   17.60    9.90
   5 -10   6   14.80    2.70
   9  -6  -6    6.90    4.20
   6   3   6    3.30    1.20
   3  -9   6    8.60    7.30
  -6   0  -6  416.26   34.10
   0   6  -6  463.95   34.20
   6  -6  -6  453.85   36.90
   6  -6  -6  376.26   34.00
  -6   6   6  367.66   34.10
   0  -6   6  434.06   34.20
   0  -6   6  408.46   38.00
  -6   6   6  387.46   34.00
  -6   3  -6  379.86   30.60
   3  -6  -6  412.76   33.80
   3  -6  -6  342.87   30.70
   6  -3   6  380.56   30.70
  -3   6   6  380.06   30.70
  -3  -3   6  357.16   33.00
  -3  -3   6  349.57   30.60
  -6   6  -6  218.78   16.70
   0  -6  -6  203.68   20.50
   0   6   6  225.48   16.80
  -6   0   6  170.38   16.60
   6  -6   6  202.68   16.80
   6  -6   6  196.08   20.30
  -6   0   6  177.28   16.80
  -3  -6  -6  426.86   34.90
  -6   9  -6  419.56   34.70
  -3  -6  -6  374.16   39.00
   3   6   6  425.36   34.60
   6  -9   6  441.06   34.90
   6  -9   6  350.86   39.70
  -9   3   6  449.06   34.60
  -6  12  -6    9.00    2.70
  -6  -6  -6    6.50    3.20
  -6  -6  -6    9.30    8.70
 -12   6   6    9.60    2.00
   6 -12   6    6.10    2.90
   6   6   6    9.70    2.20
  -7  -4  -6   84.79    8.60
  -4  11  -6   91.19    8.70
  11  -7  -6   73.79   12.10
   4 -11   6   85.59    8.60
   7   4   6   79.59    8.20
 -11   7   6   82.29    7.70
   8  -7  -6  248.18   22.60
  -1   8  -6  299.77   22.80
  -7  -1  -6  285.37   22.80
   8  -7  -6  290.37   26.40
   1  -8   6  271.17   28.50
   7   1   6  238.58   22.40
   5  -7  -6  588.54   51.69
   5  -7  -6  673.83   48.90
  -7   2  -6  559.34   48.60
  -2  -5   6  519.45   51.69
  -2  -5   6  595.14   48.70
  -5   7   6  596.74   48.80
   2  -7  -6  217.98   19.80
  -7   5  -6  246.78   19.70
   2  -7  -6  243.48   23.70
  -2   7   6  221.38   19.80
   7  -5   6  247.58   19.70
   7  -5   6  216.68   23.20
  -5  -2   6  250.47   19.70
  -1  -7  -6  136.69   18.40
  -1  -7  -6   97.89    9.40
  -7   8  -6   95.69    8.90
   1   7   6   99.89    9.00
  -8   1   6   96.09    8.80
   7  -8   6  110.99    9.50
   7  -8   6   95.29   14.20
  -7  11  -6   34.20    4.80
  -4  -7  -6   42.40   10.90
  -4  -7  -6   36.60    5.70
   4   7   6   37.80    4.50
 -11   4   6   37.50    4.30
   7 -11   6   59.99   15.60
   7 -11   6   37.20    5.00
  -7  -7  -6    4.60   15.70
  -7  -7  -6    6.50    4.20
  -7  14  -6    7.40    3.50
   7   7   6   -3.70    3.10
   7 -14   6    1.00    3.60
 -14   7   6    2.30    2.40
  -5  13  -6  229.78   18.80
  -8  -5  -6  195.08   18.90
   5 -13   6  213.38   19.10
 -13   8   6  206.98   18.30
  -8  -2  -6   21.30    3.20
  10  -8  -6   22.20    7.30
  10  -8  -6   21.10    3.50
  -2  10  -6   21.10    3.60
   2 -10   6   29.50    4.10
   8   2   6   28.70    3.20
 -10   8   6   24.30    2.90
   7  -8  -6  300.37   27.70
  -8   1  -6  350.36   27.80
   1   7  -6  360.76   27.80
   7  -8  -6  328.47   31.30
  -7   8   6  324.27   27.80
   4  -8  -6   32.50   11.60
  -8   4  -6   17.80    2.20
   4  -8  -6   13.60    2.20
  -4   8   6   12.80    2.20
  -4  -4   6   18.40    2.50
   1  -8  -6  129.69   11.10
  -8   7  -6  123.39   10.70
  -7  -1   6  113.39   10.60
   8  -7   6  128.49   15.60
   8  -7   6  124.69   10.80
  -2  -8  -6    6.50    2.80
  -2  -8  -6    9.00    6.40
  -8  10  -6    8.00    2.00
   2   8   6    7.80    1.90
 -10   2   6    8.10    1.90
   8 -10   6    6.60    8.40
   8 -10   6    7.10    2.10
  -5  -8  -6   28.50    5.20
  -5  -8  -6   35.30   21.60
  -8  13  -6   34.80    4.80
   5   8   6   36.40    5.30
 -13   5   6   32.70    4.90
   8 -13   6   34.30    5.10
  -8  -8  -6    2.50    5.90
   8 -16   6   -3.60    5.10
 -16   8   6    4.30    3.70
  -9  -6  -6    0.30    5.90
   6 -15   6    0.00    4.20
 -15   9   6    6.40    2.90
  -3  12  -6   60.29    6.60
  -9  -3  -6   60.89    6.80
  12  -9  -6   40.70   12.30
 -12   9   6   51.89    6.50
   3 -12   6   46.30    7.50
  -9   0  -6    0.30    1.60
   0   9  -6    0.70    1.20
   9  -9  -6    1.00    3.40
   9  -9  -6    0.90    1.30
  -9   9   6    0.70    1.00
   0  -9   6    0.00    1.60
   9   0   6    0.20    1.00
  -9   9   6    0.80    1.20
  -9   3  -6   29.10    3.40
   6  -9  -6   28.00    7.30
   6  -9  -6   20.20    3.20
  -3  -6   6   34.50    4.00
   3  -9  -6   77.59   17.30
  -9   6  -6   64.89    5.40
   3  -9  -6   53.39    5.90
  -3   9   6   49.70    5.60
  -6  -3   6   56.89    5.40
   9  -6   6   46.10    9.80
   0  -9  -6   59.09   12.20
  -9   9  -6   70.89    7.20
   9  -9   6   87.69    7.50
  -9   0   6   79.69    7.30
   0   9   6   66.89    7.40
  -9  12  -6    8.80    2.70
  -3  -9  -6    5.20   14.70
  -3  -9  -6   10.80    3.60
   3   9   6   10.90    2.50
   9 -12   6   -2.10    8.70
  -9  15  -6    7.30    4.60
   9 -15   6    0.10    4.00
   6   9   6    2.30    3.60
 -15   6   6    4.00    3.20
  -9  -9  -6   -1.40   13.10
   9 -18   6   12.30   10.90
 -18   9   6   17.60    7.20
 -10  -7  -6  -10.20    7.10
   7 -17   6   -2.60    6.50
 -17  10   6    3.50    4.70
 -10  -4  -6   55.39    7.70
 -14  10   6   50.39    6.20
   4 -14   6   52.49    7.60
  11 -10  -6   89.99   14.20
  -1  11  -6   89.79    8.70
   1 -11   6   87.59    9.30
 -11  10   6   95.79    8.40
 -10   2  -6   22.40    3.30
   8 -10  -6   15.30    6.70
   2   8  -6   19.60    3.00
   8 -10  -6   16.00    2.60
  -2  -8   6   16.50    2.90
  -8  10   6   18.60    2.80
  -8  10   6   15.80    2.70
   5 -10  -6   14.60    2.80
 -10   5  -6   22.00    3.10
   5 -10  -6    6.30    3.90
  -5  -5   6   25.10    3.90
  -5  10   6   14.10    2.50
 -10   8  -6    5.10    1.70
   2 -10  -6    5.00    5.80
   2 -10  -6    0.60    2.20
  -8  -2   6    4.10    2.00
  -2  10   6    4.20    1.80
  10  -8   6    1.90    6.20
  10  -8   6    1.90    1.70
  -1 -10  -6   21.40    4.20
  -1 -10  -6   14.60    8.50
 -10  11  -6   39.30    4.90
   1  10   6   33.20    4.70
 -11   1   6   29.90    4.40
  10 -11   6   29.00    4.60
  -4 -10  -6  121.39   12.80
 -10  14  -6  116.49   12.40
  -4 -10  -6  107.19   31.70
   4  10   6  132.99   11.80
 -14   4   6  113.89   11.40
  10 -14   6  105.49   12.30
  -7 -10  -6    2.40    7.50
  10 -17   6    5.20    7.40
 -17   7   6    2.20    5.40
 -11  -5  -6   12.60    6.90
   5 -16   6    1.90    8.30
 -11  -2  -6   17.90    3.90
  13 -11  -6   42.70   13.80
   2 -13   6   11.30    3.60
 -13  11   6   14.70    3.00
   1  10  -6    3.20    1.80
  10 -11  -6    0.00    4.90
  10 -11  -6    2.50    2.10
 -11   1  -6    4.80    2.20
  -1 -10   6    1.80    2.40
 -10  11   6    2.10    1.80
 -10  11   6    3.80    1.70
   7 -11  -6    7.10    6.20
 -11   4  -6    7.70    2.20
   7 -11  -6    2.40    2.50
  -7  11   6    3.20    1.80
  -7  11   6    3.00    1.90
  -4  -7   6    6.20    2.70
 -11   7  -6  110.69   10.60
   4 -11  -6  124.49   11.20
   4 -11  -6  113.29   17.30
  -4  11   6  124.39   10.90
  -7  -4   6  113.79   11.00
 -11  10  -6  203.58   16.00
   1 -11  -6  156.58   22.70
   1 -11  -6  172.08   16.30
  11 -10   6  179.88   16.00
  -1  11   6  186.98   16.00
  11 -10   6  155.58   23.60
 -11  13  -6   53.39    7.70
  -2 -11  -6   47.10    8.00
  -2 -11  -6   51.89   16.10
   2  11   6   61.69    7.10
  11 -13   6   42.10   23.90
  11 -13   6   64.09    7.50
 -13   2   6   55.69    6.90
  -5 -11  -6    4.60    7.40
  11 -16   6   11.60    9.20
 -12  -3  -6   -7.50    4.50
 -15  12   6   -0.70    2.80
   3 -15   6   -3.80    3.90
 -12   0  -6   18.30    3.90
  12 -12  -6   41.20   13.20
 -12  12   6   18.10    3.10
   0 -12   6   24.70    4.20
   9 -12  -6   47.10    5.80
 -12   3  -6   34.70    4.90
  -9  12   6   31.30    5.00
  -9  12   6   38.00    5.30
  -3  -9   6   37.60    6.70
 -12   6  -6  147.09   13.40
   6 -12  -6  141.89   14.00
  -6  12   6  144.59   13.60
  -6  -6   6  173.58   14.00
   3 -12  -6  171.08   16.40
 -12   9  -6  183.38   15.90
   3 -12  -6  221.88   34.70
  -3  12   6  200.18   16.60
  12  -9   6  180.28   16.10
  12  -9   6  141.69   23.00
 -12  12  -6    2.80    2.60
   0 -12  -6   -3.30    3.10
   0 -12  -6   -2.20   13.10
  12 -12   6   -2.10    2.50
   0  12   6   -0.20    2.20
 -12   0   6    4.20    3.00
  12 -12   6  -21.50   25.20
  -3 -12  -6   15.30    5.80
 -12  15  -6   19.50    6.00
 -15   3   6   27.10    5.30
  12 -15   6   21.90    5.70
   3  12   6   35.60    5.00
 -13  -4  -6   -2.80    7.90
   4 -17   6    4.30    7.60
  14 -13  -6   10.20   19.50
 -13  -1  -6    1.40    3.80
 -14  13   6    5.70    3.20
   1 -14   6    6.50    4.00
  11 -13  -6   73.99   15.40
 -13   2  -6   76.39    8.60
  -2 -11   6   83.19    9.50
 -11  13   6   82.39    8.80
 -11  13   6   94.69    8.50
 -13   5  -6   31.20    5.00
   8 -13  -6   38.00    5.40
   8 -13  -6   74.99   17.50
  -8  13   6   35.80    5.40
  -5  -8   6   43.70    6.50
  -8  13   6   42.60    5.20
 -13   8  -6   41.90    5.60
   5 -13  -6   46.10    7.20
  -5  13   6   55.49    6.00
  -8  -5   6   47.90    6.70
   2 -13  -6   -3.40   11.40
   2 -13  -6    5.70    3.40
 -13  11  -6   -0.30    2.60
 -11  -2   6    1.80    3.20
  13 -11   6   -1.00    2.70
  13 -11   6    6.00   27.70
  -2  13   6    2.50    2.40
 -13  14  -6   10.20    4.70
  -1 -13  -6    5.20    5.10
  -1 -13  -6   21.30   24.70
   1  13   6   10.80    3.60
 -14   1   6   13.20    4.60
  13 -14   6    3.90    4.30
  -4 -13  -6  -14.70   10.20
  13 -17   6    0.00   10.90
 -17   4   6    6.30    7.50
 -14   1  -6   41.30    6.20
  13 -14  -6   72.49   30.40
 -13  14   6   49.70    6.70
  -1 -13   6   52.99    8.20
  10 -14  -6   -1.30    4.00
 -14   4  -6    6.30    2.80
  10 -14  -6   -3.40    7.00
 -10  14   6    4.90    2.80
 -10  14   6    0.70    2.60
  -4 -10   6    4.70    3.50
   7 -14  -6   -3.10    6.40
 -14   7  -6    0.00    2.50
   7 -14  -6    0.10    4.10
  -7  -7   6   -0.20    3.20
  -7  14   6    3.90    2.60
  -7  14   6    3.60    2.30
   4 -14  -6   15.30   23.60
 -14  10  -6    2.10    2.90
   4 -14  -6   -0.10    3.90
  -4  14   6    2.10    2.40
 -10  -4   6    4.20    3.80
 -14  13  -6   15.40    4.80
   1 -14  -6   12.10    5.10
   1 -14  -6   11.20   26.30
 -13  -1   6   19.30    5.00
  14 -13   6    8.60    4.90
  -1  14   6   21.30    3.90
  15 -15  -6   -7.70   14.30
 -15   0  -6    1.50    6.10
   0 -15   6   -9.00    6.40
 -15  15   6    4.40    5.30
  12 -15  -6    5.20    9.10
 -15   3  -6   -4.20    3.80
  -3 -12   6    1.50    4.30
 -12  15   6    4.10    3.40
   9 -15  -6    8.70    5.60
 -15   6  -6   -1.70    5.00
   9 -15  -6    1.00    8.30
  -6  -9   6   -0.70    4.30
  -9  15   6    7.00    3.00
  -9  15   6    7.60    3.30
   6 -15  -6   11.00    5.40
   6 -15  -6   13.40   13.40
  -9  -6   6   11.40    4.80
  -6  15   6   17.90    3.60
  -6  15   6   20.60    4.40
   3 -15  -6   -4.80    5.50
 -15  12  -6    0.80    7.30
   3 -15  -6    2.10   18.50
 -12  -3   6   -2.40    5.20
  -3  15   6    5.70    3.40
   0 -15  -6  -12.50   15.40
  15 -15   6   -7.30   12.30
 -15   0   6    6.70    8.00
   0  15   6   -6.40    7.70
  14 -16  -6    2.60   10.80
  11 -16  -6   -3.00    9.50
 -16   5  -6    4.20    6.00
  -5 -11   6    3.40    6.80
   8 -16  -6    4.20   12.40
 -16   8  -6    7.20    4.00
  -8  -8   6    0.70    5.70
  -8  16   6    2.90    3.50
  -8  16   6   12.30    4.20
   5 -16  -6   -1.40   10.30
 -16  11  -6    7.40    5.80
   5 -16  -6    4.10   27.00
  -5  16   6    4.30    5.10
  -5  16   6   -5.90    5.60
 -11  -5   6    1.90   10.60
  16 -17  -6    8.90   20.30
  13 -17  -6    2.00   14.60
 -17   4  -6    9.00    7.10
 -13  17   6   -3.50    6.70
  -4 -13   6    1.80    7.90
 -17   7  -6   -3.60    5.70
  10 -17  -6    2.10   11.00
 -10  17   6    0.30    5.20
 -10  17   6    0.90    5.80
  -7 -10   6   -2.50    6.90
   7 -17  -6    5.40   14.50
 -17  10  -6   19.20    5.90
 -10  -7   6    7.30    8.60
  -7  17   6   -0.40    4.70
  -7  17   6    6.20    7.10
 -17  13  -6    8.10    8.20
 -13  -4   6   13.50    9.10
  -4  17   6    1.40    5.60
  -4  17   6    1.30    9.00
  15 -18  -6    0.90   25.00
 -18   9  -6   -3.70   10.00
   9 -18  -6   -1.10   17.10
  -9  18   6  -15.00   13.80
  -9  -9   6   -6.70    9.70
  11 -19  -6    5.90   30.80
  -1   0  -7 2183.28  180.18
   1   0   7 1851.91  178.38
   0  -1   7 2511.15  179.08
  -1   3  -7   60.79    5.90
  -2  -1  -7   52.39    4.80
   3  -2  -7   60.09    5.40
   1  -3   7   46.90    4.80
   1  -3   7   55.99    4.70
   1  -3   7   50.09    6.50
   0  -2  -7    3.80    1.00
  -2   2  -7    3.20    1.70
  -2   2  -7    4.80    0.70
   2  -2   7    4.40    2.20
   2  -2   7    3.90    0.60
   0   2   7    3.80    0.70
   0   2   7    2.20    0.80
  -2   5  -7  405.26   31.40
   5  -3  -7  415.16   32.90
  -3  -2  -7  392.16   31.50
  -5   3   7  378.36   31.30
   2  -5   7  363.06   34.20
   2  -5   7  406.66   31.50
   3   2   7  372.56   31.40
  -5   3   7  312.17   31.30
  -3   1  -7 1299.57  115.89
  -2   3   7 1313.97  115.89
  -2   3   7 1536.95  115.89
  -1  -2   7 1496.25  117.09
  -1  -2   7 1432.66  115.79
  -1  -3  -7    2.90    1.20
  -3   4  -7    1.00    0.50
  -3   4  -7   -0.30    1.80
   3  -4   7    5.60    1.30
   3  -4   7   -0.50    2.40
   1   3   7    1.70    0.60
  -3   7  -7 1188.48   98.49
   7  -4  -7 1163.48  100.69
  -4  -3  -7 1352.56   98.59
  -3   7  -7 1308.07  102.59
  -7   4   7 1193.98   98.39
   4   3   7 1003.60   98.39
   4  -4  -7   21.00    3.40
   4  -4  -7   16.30    1.80
  -4   0  -7   20.30    2.10
   0   4  -7   13.80    2.30
  -4   4   7   11.20    2.00
   0  -4   7   20.10    5.20
   0  -4   7   14.50    2.30
   4   0   7   18.20    2.40
  -4   4   7   18.70    2.00
   0  -4   7   18.30    2.10
  -4   3  -7 1870.91  171.88
  -4   3  -7 2345.87  171.88
   4  -3   7 2042.30  174.08
   4  -3   7 2006.20  171.88
  -1   4   7 2232.88  171.88
  -4   6  -7  640.84   47.90
  -2  -4  -7  665.73   48.10
  -4   6  -7  567.94   50.49
  -6   2   7  484.25   47.80
   4  -6   7  593.04   48.00
   2   4   7  548.55   47.90
  -6   2   7  599.94   47.80
   4  -6   7  546.15   51.19
  -5  -4  -7  105.49    8.90
   5   4   7   86.19    8.10
   4  -9   7   89.09    8.80
  -9   5   7   83.19    8.00
   4  -9   7  123.49   20.80
   6  -5  -7   93.39    7.30
   1  -6   7   88.79   12.30
  -6   5   7   82.59    7.30
  -6   5   7   74.29    7.50
  -5   2  -7   92.99    7.40
  -5   2  -7  103.09   11.30
   3  -5  -7   99.29    9.70
   3  -5  -7   76.69    7.30
   5  -2   7   70.29    7.50
  -3   5   7   87.39    7.40
  -2  -3   7   83.19   10.40
  -5   5  -7  321.37   26.80
  -5   5  -7  313.57   29.30
   0  -5  -7  324.27   30.00
   0  -5  -7  349.57   28.20
   5  -5   7  325.87   26.80
   0   5   7  317.47   26.80
   5  -5   7  312.77   29.80
  -5   0   7  324.67   26.70
  -5   0   7  322.47   26.80
  -5   8  -7  437.46   39.50
  -3  -5  -7  518.85   39.70
  -8   3   7  463.45   39.30
   5  -8   7  485.95   39.70
   3   5   7  477.95   39.40
  -5  11  -7   12.60    3.00
  -6  -5  -7   16.00    3.20
   5 -11   7   14.90    3.00
 -11   6   7   14.50    2.20
   6   5   7   13.40    2.30
   8  -6  -7  304.77   27.90
   8  -6  -7  262.97   24.50
  -6  -2  -7  310.27   24.80
  -8   6   7  292.37   24.50
   2  -8   7  259.77   30.10
   6   2   7  319.57   24.60
   2  -8   7  303.27   24.90
   5  -6  -7  739.03   67.69
  -1  -5   7  845.02   67.49
  -1  -5   7  800.92   70.69
  -5   6   7  894.21   67.49
  -6   4  -7   71.59    5.50
   2  -6  -7   68.39    5.70
   6  -4   7   56.79    5.50
  -4  -2   7   64.59    5.40
   6  -4   7   50.69    5.90
   6  -4   7   75.59    9.50
  -2   6   7   50.39    6.10
  -2   6   7   51.89    5.50
  -6   7  -7  493.55   40.00
  -1  -6  -7  463.35   44.00
  -1  -6  -7  494.85   40.30
  -7   1   7  482.05   39.90
   1   6   7  494.35   40.10
   6  -7   7  501.25   40.10
   6  -7   7  444.96   44.20
  -4  -6  -7    3.20    2.40
  -6  10  -7    2.50    1.50
 -10   4   7   -0.40    1.20
   4   6   7    1.60    1.20
   6 -10   7    1.10    1.80
   6 -10   7    1.10    9.40
  -6  13  -7    5.50    2.90
  -7  -6  -7    1.90    3.70
  -7  -6  -7    6.40   17.10
 -13   7   7    6.50    2.20
   7   6   7    5.30    2.30
   6 -13   7   -0.70    3.30
  -7  -3  -7   29.80    4.60
 -10   7   7   34.60    3.60
   7   3   7   25.70    3.50
   7  -7  -7  484.15   45.30
  -7   0  -7  562.54   45.50
   7  -7  -7  597.24   48.90
  -7   7   7  526.35   45.30
   0  -7   7  587.94   45.60
  -7   3  -7  145.99   11.30
   4  -7  -7  113.79   11.90
   4  -7  -7  135.39   14.50
  -3  -4   7  132.39   11.20
  -4   7   7  126.49   11.30
  -7   6  -7    5.70    1.30
   1  -7  -7    8.60    1.80
   7  -6   7    2.10    3.30
  -1   7   7    6.20    1.40
  -6  -1   7    5.40    1.20
   7  -6   7    5.80    1.30
  -2  -7  -7   11.00    6.60
  -7   9  -7   11.80    2.10
  -2  -7  -7   10.80    2.60
   7  -9   7    4.70    7.00
   2   7   7   12.90    2.10
  -9   2   7   11.70    2.00
   7  -9   7   11.20    2.30
  -5  -7  -7  124.99   19.90
  -7  12  -7  155.38   13.80
  -5  -7  -7  149.88   14.30
   7 -12   7  146.59   14.00
 -12   5   7  155.78   13.40
   5   7   7  158.08   13.40
  -8  -7  -7    7.30    7.40
   7 -15   7    7.00    4.40
 -15   8   7   17.70    3.70
  -4  12  -7  289.17   25.70
  -8  -4  -7  282.47   25.90
   8   4   7  330.87   25.50
  -8  -1  -7   11.80    2.20
   9  -8  -7    7.00    3.70
   9  -8  -7    8.60    1.80
  -9   8   7    7.00    1.50
  -9   8   7   10.00    1.70
   8   1   7   10.20    1.60
   1  -9   7    7.30    2.10
   6  -8  -7   84.69    7.80
   6  -8  -7   76.09   10.80
  -8   2  -7  100.19    7.80
  -2  -6   7   88.09    8.00
  -6   8   7   82.79    8.00
   3  -8  -7    2.10    1.30
   3  -8  -7    0.80    2.70
  -8   5  -7    1.70    1.00
  -5  -3   7    1.10    1.00
   8  -5   7    1.50    1.10
   8  -5   7    4.30    4.90
  -3   8   7    0.80    1.20
   0  -8  -7  769.22   58.79
   0  -8  -7  632.94   67.29
  -8   8  -7  679.23   58.49
   8  -8   7  804.72   72.39
   0   8   7  654.23   58.49
  -8   0   7  664.43   58.39
   8  -8   7  776.62   58.69
  -3  -8  -7   21.50    9.10
  -8  11  -7   34.20    4.40
  -3  -8  -7   25.80    4.10
 -11   3   7   30.40    3.90
   3   8   7   21.00    3.20
   8 -11   7    2.10    9.70
  -8  14  -7  173.88   15.20
  -6  -8  -7  123.59   27.20
  -6  -8  -7  142.49   15.70
 -14   6   7  153.58   14.30
   8 -14   7  157.28   15.50
   6   8   7  164.28   14.60
  -9  -8  -7   -2.60    7.60
 -17   9   7   -7.20    4.90
   8 -17   7   -1.70    6.80
  -9  -5  -7   65.69    9.60
   5 -14   7   88.39    9.60
 -14   9   7   80.89    8.20
  -2  11  -7   14.40    2.70
  11  -9  -7   14.30    5.40
  -9   1  -7    9.40    1.80
   8  -9  -7    8.40    4.70
   8  -9  -7    3.20    1.50
  -8   9   7    3.90    1.30
  -1  -8   7    5.40    1.90
   5  -9  -7  335.67   33.20
  -9   4  -7  346.17   28.60
   5  -9  -7  335.57   28.80
  -5   9   7  361.56   28.80
  -4  -5   7  334.47   28.70
  -9   7  -7  221.88   18.20
   2  -9  -7  219.58   18.60
   2  -9  -7  209.78   23.60
  -7  -2   7  212.48   18.20
   9  -7   7  187.98   23.50
  -2   9   7  209.38   18.40
   9  -7   7  227.98   18.30
  -9  10  -7  106.79    9.50
  -1  -9  -7  102.19   10.10
  -1  -9  -7   91.49   15.70
   1   9   7   99.49    9.40
   9 -10   7   81.29   16.80
 -10   1   7  102.99    9.30
   9 -10   7   95.59    9.60
  -4  -9  -7    1.10   11.40
  -4  -9  -7    3.00    4.00
  -9  13  -7    3.40    3.10
   9 -13   7    1.70    2.90
 -13   4   7    4.30    2.50
   4   9   7    2.90    2.30
  -7  -9  -7   -9.30    6.00
 -16   7   7    0.80    3.90
   9 -16   7   -9.70    5.20
 -10  -6  -7   14.50    5.90
 -16  10   7   11.60    4.10
   6 -16   7    9.70    5.80
  13 -10  -7   10.10    6.80
 -10  -3  -7    4.90    3.40
   3 -13   7    0.40    3.10
 -13  10   7    6.40    2.20
 -10   0  -7   88.89    8.40
  10 -10  -7   66.99   12.30
 -10  10   7   78.39    8.10
   0 -10   7   99.79    8.70
 -10  10   7   91.39    8.00
 -10   3  -7  308.47   28.30
   7 -10  -7  331.87   28.50
  -7  10   7  360.06   28.60
  -7  10   7  350.76   28.40
  -3  -7   7  342.67   28.50
 -10   6  -7    7.40    1.70
   4 -10  -7    3.90    2.00
   4 -10  -7    0.20    3.70
  -6  -4   7    5.90    2.00
  -4  10   7    3.40    1.80
   1 -10  -7  113.59   17.50
 -10   9  -7  117.49   11.10
   1 -10  -7  129.09   11.70
  10  -9   7  122.39   18.80
  -1  10   7  124.19   11.20
  -9  -1   7  124.89   11.10
  10  -9   7  115.79   11.20
  -2 -10  -7   65.59   15.90
 -10  12  -7   63.39    7.50
  10 -12   7   60.19    7.30
 -12   2   7   63.79    6.90
  10 -12   7   62.19   20.10
   2  10   7   62.59    7.10
  -5 -10  -7    5.40    5.20
 -10  15  -7   21.30    7.20
 -15   5   7   10.70    4.10
  10 -15   7    8.30    4.40
   7 -18   7   17.10   12.70
 -11  -4  -7    6.90    4.60
   4 -15   7   -0.40    3.80
 -15  11   7    0.40    2.80
 -11  -1  -7  110.09   11.10
  12 -11  -7  112.39   17.40
   1 -12   7  119.09   11.30
 -12  11   7  110.19   10.40
 -11   2  -7    1.80    2.00
   9 -11  -7    1.70    3.90
  -9  11   7    0.80    1.60
  -2  -9   7    4.80    2.50
  -9  11   7    2.00    1.50
 -11   5  -7   37.40    5.10
   6 -11  -7   40.90    6.90
  -6  11   7   38.00    5.30
  -5  -6   7   53.89    5.80
   3 -11  -7  147.09   14.00
   3 -11  -7  133.99   20.20
 -11   8  -7  151.78   13.50
  11  -8   7  153.78   13.60
  11  -8   7  141.39   22.50
  -3  11   7  159.28   13.70
  -8  -3   7  158.98   13.60
   0 -11  -7    9.60    3.60
 -11  11  -7   24.70    3.60
   0 -11  -7    6.00    9.00
  11 -11   7   17.30   11.80
 -11   0   7   32.90    4.90
   0  11   7   16.50    3.20
  11 -11   7   19.30    3.40
  -3 -11  -7  113.29   13.60
  -3 -11  -7   94.29   23.70
 -11  14  -7  140.79   13.60
  11 -14   7  142.99   16.60
   3  11   7  145.49   12.90
  -6 -11  -7    3.00   15.00
 -17   6   7   12.60    7.30
  11 -17   7   -6.40   13.20
 -12  -5  -7    0.70    8.40
 -17  12   7    8.30    6.30
   5 -17   7    5.60    7.90
 -12  -2  -7   18.60    4.60
  14 -12  -7   20.60   10.90
 -14  12   7   21.10    3.60
   2 -14   7   11.50    4.30
 -12   1  -7   37.20    5.50
  11 -12  -7   44.90   13.90
 -11  12   7   34.40    4.70
  -1 -11   7   30.60    4.80
   8 -12  -7    3.10    5.30
   8 -12  -7    2.40    2.60
 -12   4  -7    6.50    2.30
  -4  -8   7    0.50    4.40
 -12   7  -7  161.68   15.10
   5 -12  -7  176.18   23.00
   5 -12  -7  188.08   15.90
  -5  12   7  163.28   15.30
  -7  -5   7  176.48   15.50
 -12  10  -7   91.59    9.70
   2 -12  -7   64.69    8.70
 -10  -2   7   85.79    8.40
  12 -10   7   68.79   18.50
  -2  12   7   77.89    8.10
  12 -10   7   72.59    8.10
 -12  13  -7    1.40    3.50
  -1 -12  -7   -0.90   18.00
  -1 -12  -7   -6.70    3.70
 -13   1   7    2.30    3.40
   1  12   7   -0.60    2.70
  12 -13   7    2.30    3.10
  -4 -12  -7   -4.70    6.90
  12 -16   7    4.30    6.90
 -16   4   7   -1.80    5.70
 -13  -3  -7    6.40    6.70
   3 -16   7    2.30    5.70
 -16  13   7    8.90    4.70
  13 -13  -7   11.80   10.10
 -13   0  -7    6.80    5.10
   0 -13   7    4.20    3.60
 -13   3  -7   44.50    6.40
  10 -13  -7   56.29   15.50
 -10  13   7   63.99    6.60
 -10  13   7   60.59    6.70
  -3 -10   7   54.49    7.40
   7 -13  -7   11.60    4.10
   7 -13  -7    4.60    6.40
 -13   6  -7   20.30    3.30
  -7  13   7   16.20    3.20
  -6  -7   7   19.80    4.00
  -7  13   7   22.40    3.30
   4 -13  -7   16.50    8.40
 -13   9  -7   37.60    5.20
  -4  13   7   38.50    5.30
  -9  -4   7   33.70    4.80
   1 -13  -7    5.90   12.00
   1 -13  -7   -2.80    4.00
 -13  12  -7    4.80    3.50
  -1  13   7    6.00    2.90
  13 -12   7    6.00   24.80
  13 -12   7    7.20    3.50
 -12  -1   7    7.20    3.90
  -2 -13  -7    7.50    7.80
 -13  15  -7   12.00    6.80
   2  13   7    9.40    4.70
  15 -14  -7   -2.90    8.10
 -14  -1  -7    4.30    5.80
 -15  14   7    4.60    4.10
   1 -15   7   -5.50    5.10
  12 -14  -7   51.89   15.90
 -14   2  -7   55.89    7.70
 -12  14   7   59.99    7.20
  -2 -12   7   66.79    8.60
 -14   5  -7    1.20    2.60
   9 -14  -7   -2.40    4.10
   9 -14  -7   -3.40    6.60
  -9  14   7    4.60    2.60
  -9  14   7    1.50    2.40
  -5  -9   7    2.80    3.50
   6 -14  -7    3.80    4.30
   6 -14  -7    3.20    8.50
 -14   8  -7   11.00    3.20
  -8  -6   7    8.20    3.80
  -6  14   7    2.10    2.40
   3 -14  -7   10.90    4.50
 -14  11  -7    9.20    3.70
   3 -14  -7   14.20   14.20
 -14  14  -7   54.69    8.50
   0 -14  -7   36.10   21.90
   0  14   7   58.59    7.40
  14 -14   7   56.99    8.90
 -14   0   7   68.29    8.40
  14 -15  -7   -1.00    8.70
 -15   1  -7   -0.90    5.00
  -1 -14   7   -4.30    5.10
 -14  15   7    0.30    4.50
 -15   4  -7    5.30    3.70
  11 -15  -7   -3.30   15.80
 -11  15   7    3.80    3.50
  -4 -11   7    3.20    4.30
 -11  15   7    2.60    3.60
 -15   7  -7    5.30    4.90
   8 -15  -7    9.80    8.10
   8 -15  -7    2.90    8.50
  -8  15   7    5.20    3.10
  -8  15   7    7.80    3.20
  -7  -8   7   11.70    4.80
   5 -15  -7   73.99   20.30
 -15  10  -7   65.59    8.70
 -10  -5   7   61.79   10.10
  -5  15   7   76.39    8.80
   2 -15  -7   -2.50    7.20
   2 -15  -7   -5.80   16.50
 -15  13  -7    3.30    8.90
 -16   1   7    7.70   10.80
  13 -16  -7   19.60   17.00
 -16   3  -7    4.40    5.80
 -13  16   7    0.50    5.50
  -3 -13   7    0.30    6.30
 -16   6  -7   11.30    4.70
  10 -16  -7    5.70   11.20
 -10  16   7   17.20    4.70
  -6 -10   7   16.70    6.20
 -10  16   7   15.40    5.90
   7 -16  -7   20.30   14.20
 -16   9  -7   13.60    4.80
  -9  -7   7    8.20    6.90
  -7  16   7   18.00    5.10
  -7  16   7   16.90    4.30
   4 -16  -7   -4.50   16.70
 -16  12  -7    5.20    5.70
 -12  -4   7    4.30    7.50
  -4  16   7    9.00    4.30
 -15  -1   7   -9.70   12.10
  15 -17  -7   -2.00   14.20
  12 -17  -7   10.10   13.00
 -17   5  -7   -1.30    7.10
 -12  17   7   18.70    6.90
  -5 -12   7   -3.30    9.00
   9 -17  -7   -1.80    9.10
 -17   8  -7   -7.80    5.90
  -9  17   7   -0.50    6.30
  -8  -9   7   11.80    7.30
  -9  17   7    1.00    5.20
   6 -17  -7    4.20   16.90
 -11  -6   7   14.60   10.60
  -6  17   7   -1.20    6.40
  -3  17   7    1.80    7.60
  14 -18  -7   -3.60   13.10
  11 -18  -7    0.10   13.10
  -7 -11   7   -2.00   13.30
 -11  18   7  -10.20   10.40
   8 -18  -7    6.90   11.60
  10 -19  -7   -3.70   24.30
  -1   1  -8 1162.18   95.79
   2  -2  -8   60.69    5.60
   0   2  -8   60.39    5.60
  -2   0  -8   51.99    5.00
  -2   2   8   62.89    4.90
   0  -2   8   48.50    6.20
  -2   3  -8   10.10    1.60
  -1  -2  -8   16.50    2.20
  -2   3  -8   14.70    1.40
   1   2   8   17.00    1.60
   2  -3   8   10.70    1.50
   1   2   8   11.50    1.70
   2  -3   8   23.40    4.70
  -3  -1  -8   49.80    5.50
   4  -3  -8   72.19    6.50
  -1   4  -8   64.89    6.90
  -3  -1  -8   66.99    5.50
   3   1   8   51.19    5.50
  -4   3   8   71.29    5.30
   1  -4   8   52.99    8.30
  -4   3   8   58.09    5.30
   1  -4   8   59.69    5.40
   1  -3  -8 6179.38  483.95
  -3   2  -8 6127.29  483.95
   3  -2   8 6138.79  486.15
  -1   3   8 5048.79  483.95
   3  -2   8 6106.39  484.05
  -5   2   8   24.70    2.50
   3  -5   8   19.60    5.60
   3  -5   8   43.40    4.20
   2   3   8   29.20    2.80
  -2   6  -8 2025.60  159.78
  -4  -2  -8 2046.60  159.88
   6  -4  -8 1934.61  161.68
   4   2   8 1794.92  159.78
  -6   4   8 1839.82  159.68
   2  -6   8 2188.88  159.88
   2  -6   8 1818.52  163.78
   3  -4  -8  768.32   56.69
  -4   1  -8  641.44   56.69
   4  -1   8  699.53   56.79
  -1  -3   8  757.22   58.99
  -1  -3   8  652.53   56.69
  -3   4   8  651.43   56.69
  -3   4   8  667.63   57.09
  -4   4  -8 1093.69   84.29
   0  -4  -8 1145.69   84.49
   4  -4   8  852.51   84.29
   0   4   8 1065.89   84.39
   4  -4   8  982.10   86.79
  -4   7  -8   46.60    8.70
  -7   3   8   58.69    4.90
  -7   3   8   44.00    5.60
   4  -7   8   56.79    5.50
   4  -7   8   65.39   12.90
   8  -5  -8 3179.58  271.67
  -3   8  -8 3660.33  268.87
  -5  -3  -8 3318.57  268.87
   3  -8   8 2876.41  273.57
  -8   5   8 3259.07  268.67
   5   3   8 3384.16  268.77
   5  -5  -8  390.86   33.10
  -5   5   8  395.36   33.20
   0  -5   8  408.56   33.20
   0  -5   8  415.46   37.00
   2  -5  -8 2719.63  218.28
  -5   3  -8 2587.94  215.48
  -5   3  -8 2776.62  218.18
   2  -5  -8 2619.24  215.48
  -2   5   8 2529.25  215.48
   5  -3   8 2573.14  215.48
  -5   6  -8 1219.48  104.89
  -1  -5  -8 1290.17  102.19
  -1  -5  -8 1236.98  105.59
  -5   6  -8 1325.37  102.19
   1   5   8 1249.18  102.09
   5  -6   8 1342.77  102.09
  -6   1   8 1096.19  101.99
   5  -6   8 1123.59  107.19
  -6   1   8 1292.47  101.89
  -5   9  -8    1.80    1.40
  -4  -5  -8   -0.20    2.20
   5  -9   8    1.40    1.80
  -9   4   8   -0.40    1.10
   5  -9   8   -0.30    8.60
  -6  -4  -8    1.40    2.40
   6   4   8    5.30    1.50
 -10   6   8    3.80    1.40
   4 -10   8    3.00    2.10
   7  -6  -8  189.38   18.60
   7  -6  -8  236.48   21.70
   1  -7   8  244.18   19.10
  -7   6   8  229.78   18.70
   6   1   8  255.57   18.70
  -7   6   8  193.08   18.70
  -6   2  -8  254.57   24.90
  -6   2  -8  242.98   19.60
   4  -6  -8  217.08   19.50
   4  -6  -8  250.07   22.30
  -2  -4   8  219.18   23.60
  -4   6   8  232.38   19.70
  -2  -4   8  234.18   19.60
  -6   5  -8   92.39    8.00
   1  -6  -8   98.29   11.90
   1  -6  -8   94.39    8.40
  -1   6   8   95.79    8.20
  -5  -1   8   86.09    7.90
   6  -5   8   97.09    8.20
   6  -5   8   90.79   12.00
  -6   8  -8  521.25   42.10
  -2  -6  -8  503.55   42.40
   6  -8   8  549.74   42.40
  -8   2   8  514.75   42.00
   2   6   8  513.05   42.10
   6  -8   8  432.06   47.20
  -5  -6  -8   13.40    7.90
  -5  -6  -8   18.50    3.80
   6 -11   8   22.50    3.60
 -11   5   8   20.50    3.30
   5   6   8   21.60    3.50
  -7  -5  -8  142.49   14.00
  -5  12  -8  130.39   13.40
   7   5   8  163.78   13.10
 -12   7   8  148.99   13.60
   9  -7  -8  222.48   24.10
  -2   9  -8  245.68   20.70
   2  -9   8  241.78   20.80
  -9   7   8  259.17   20.50
  -7   1  -8 1075.89   81.99
   6  -7  -8  954.40   84.79
   6  -7  -8  954.10   81.89
  -6   7   8  951.80   81.99
  -1  -6   8 1044.20   81.99
   3  -7  -8    2.20    1.10
  -7   4  -8    2.30    1.00
   3  -7  -8    1.10    2.30
   7  -4   8    4.00    1.10
  -3   7   8    3.30    1.20
  -3   7   8    5.70    4.00
  -4  -3   8    1.30    0.90
   0  -7  -8   33.60    4.30
   0  -7  -8   19.20    5.60
  -7   7  -8   24.00    3.40
  -7   0   8   32.80    3.30
   7  -7   8   36.20    3.70
   0   7   8   31.60    3.60
  -7   0   8   43.70    4.80
  -7  10  -8   18.30    3.00
  -3  -7  -8   20.10    3.40
  -3  -7  -8   14.60    7.20
 -10   3   8   21.00    2.90
   7 -10   8   25.20   15.00
   7 -10   8   21.80    3.40
   3   7   8   30.40    3.50
  -7  13  -8  245.98   23.20
  -6  -7  -8  257.37   23.80
  -6  -7  -8  223.28   30.70
 -13   6   8  278.67   23.00
   6   7   8  277.97   23.00
   7 -13   8  300.17   23.80
  -8  -6  -8    4.20   14.60
  -8  -6  -8    6.50    4.40
 -14   8   8    0.40    2.40
   8   6   8   -2.40    2.60
   6 -14   8    1.40    3.80
  -8  -3  -8  101.49    9.80
   8   3   8  102.79    9.20
 -11   8   8   97.79    9.10
   3 -11   8   97.79    9.80
   8  -8  -8   51.99    5.60
   8  -8  -8   73.49    9.70
   0  -8   8   64.09    6.10
  -8   8   8   60.99    5.60
  -8   8   8   56.29    5.80
   8   0   8   64.49    5.50
   5  -8  -8   78.39    7.80
  -8   3  -8   91.49    7.80
   5  -8  -8   97.09   11.60
  -3  -5   8   92.29    7.90
  -5   8   8   82.09    7.90
  -8   6  -8   27.80    3.30
   2  -8  -8   34.10    8.70
   2  -8  -8   31.70    3.90
  -6  -2   8   26.10    3.20
  -2   8   8   31.00    3.70
  -8   9  -8  688.93   57.09
  -1  -8  -8  674.03   57.99
  -1  -8  -8  594.34   61.99
  -9   1   8  721.83   56.89
   8  -9   8  757.32   57.19
   1   8   8  679.03   56.99
  -4  -8  -8   98.89   11.00
  -8  12  -8  101.79   10.40
   4   8   8   97.29    9.90
   8 -12   8  125.89   11.40
  -7  -8  -8  139.79   16.00
 -15   7   8  153.28   14.10
   8 -15   8  147.89   15.50
  -9  -7  -8    7.00    6.60
   7 -16   8   21.10    6.00
 -16   9   8   27.00    5.50
  -9  -4  -8   73.19    8.90
   4 -13   8   74.99    8.80
 -13   9   8   75.19    7.60
  -9  -1  -8  104.09   10.30
  10  -9  -8  102.49   14.40
   1 -10   8  124.59   10.60
   9   1   8  117.09    9.90
 -10   9   8  108.59    9.90
  -9   2  -8  184.98   15.30
   7  -9  -8  173.38   19.30
   7  -9  -8  163.68   15.20
  -7   9   8  173.68   15.20
  -2  -7   8  183.98   15.40
  -7   9   8  186.08   15.40
  -9   5  -8  132.49   11.30
   4  -9  -8  122.29   11.40
   4  -9  -8  134.39   16.40
  -5  -4   8  121.59   11.20
  -4   9   8  135.09   11.40
   1  -9  -8 1372.36  122.19
   1  -9  -8 1454.35  116.69
  -8  -1   8 1402.46  116.29
  -1   9   8 1412.16  116.49
   9  -8   8 1433.46  116.49
  -9  11  -8   16.00    3.10
  -2  -9  -8   14.50    9.10
  -2  -9  -8   15.20    3.60
 -11   2   8   12.30    2.80
   9 -11   8    9.90   12.60
   9 -11   8   12.90    3.00
   2   9   8   16.20    2.80
  -5  -9  -8   86.39   12.00
  -5  -9  -8   61.19   20.70
 -14   5   8  108.89   10.30
   9 -14   8   97.49   11.40
   5   9   8  115.29   10.50
  -8  -9  -8   15.00    8.80
 -17   8   8    0.50    7.70
   9 -17   8   -2.20    7.10
   8 -18   8   13.00   11.20
 -10  -5  -8    1.00    4.80
 -15  10   8    4.10    4.30
   5 -15   8    2.30    4.20
 -10  -2  -8  204.48   19.50
  12 -10  -8  209.28   25.60
 -12  10   8  225.88   19.10
   2 -12   8  243.58   19.80
   9 -10  -8    5.70    5.40
 -10   1  -8    7.50    2.20
   9 -10  -8    1.10    1.70
  -9  10   8    3.50    1.70
  10  -1   8    2.60    1.30
  -1  -9   8    7.90    2.20
  -9  10   8    3.80    1.50
   6 -10  -8 1102.79  109.29
 -10   4  -8 1252.17  104.29
   6 -10  -8 1369.06  104.59
  -4  -6   8 1276.47  104.39
  -6  10   8 1326.67  104.49
   3 -10  -8    1.70    4.50
 -10   7  -8    6.70    2.00
   3 -10  -8    8.80    2.50
  10  -7   8    8.10    2.10
  -7  -3   8    6.30    2.00
  -3  10   8    7.70    2.00
  10  -7   8    0.90    5.40
   0 -10  -8  333.77   39.10
   0 -10  -8  259.87   23.40
 -10  10  -8  265.17   23.00
   0  10   8  281.67   23.10
  10 -10   8  269.97   23.20
  10 -10   8  205.08   30.60
 -10   0   8  275.37   22.90
  -3 -10  -8  102.19   11.40
 -10  13  -8  107.09   11.20
  10 -13   8   99.29   10.90
   3  10   8  107.89   10.50
 -13   3   8  107.19   10.30
  -6 -10  -8   -2.70    8.20
 -14  11   8   41.90    5.70
   3 -14   8   30.60    5.50
 -11   0  -8   55.29    7.30
  11 -11  -8   33.70   10.80
 -11  11   8   42.80    6.10
 -11  11   8   68.29    6.00
   0 -11   8   60.49    7.20
   8 -11  -8  272.77   29.70
 -11   3  -8  268.67   23.50
   8 -11  -8  259.47   23.60
  -3  -8   8  296.37   23.70
  -8  11   8  282.47   23.50
  -8  11   8  276.37   23.60
   5 -11  -8    6.10    5.10
 -11   6  -8    9.60    2.30
   5 -11  -8    4.30    2.70
  -5  11   8    7.00    2.20
  -6  -5   8    5.40    2.50
 -11   9  -8    0.70    2.10
   2 -11  -8    7.00    3.10
   2 -11  -8    3.10    6.30
  -9  -2   8    4.00    2.50
  11  -9   8    5.30    2.30
  11  -9   8   -8.00   10.00
  -2  11   8    0.30    2.00
  -1 -11  -8   10.20    3.70
 -11  12  -8   10.10    3.40
  -1 -11  -8   -4.20   12.40
 -12   1   8   11.90    3.20
   1  11   8   12.60    2.90
  11 -12   8    3.90    2.90
  -4 -11  -8   17.50    6.30
  -4 -11  -8   10.30   24.20
  11 -15   8   28.20    6.00
   4  11   8   31.70    5.40
 -15   4   8   39.60    5.80
 -12  -4  -8    3.60    6.50
 -16  12   8    3.90    4.20
   4 -16   8    0.10    5.30
 -12  -1  -8  212.78   18.00
  13 -12  -8  179.08   25.00
   1 -13   8  188.88   20.60
 -12   2  -8   73.39    8.30
  10 -12  -8   79.39   14.50
 -10  12   8   84.69    8.90
  -2 -10   8   82.19    8.80
 -10  12   8   86.29    8.10
   7 -12  -8  100.59   10.30
 -12   5  -8  106.09    9.50
   7 -12  -8   69.99   15.20
  -5  -7   8   94.09   10.30
  -7  12   8  106.49    9.70
   4 -12  -8  281.47   39.40
   4 -12  -8  209.98   19.60
 -12   8  -8  210.18   19.00
  -4  12   8  224.08   19.20
   1 -12  -8    3.50    9.80
 -12  11  -8    5.60    2.70
   1 -12  -8    0.50    3.40
  12 -11   8   10.70   16.20
  -1  12   8   -0.90    2.20
 -11  -1   8    3.60    3.00
  12 -11   8    1.90    2.50
  -2 -12  -8    7.30   17.00
  -2 -12  -8    6.50    4.80
   2  12   8    5.40    3.40
  12 -14   8   13.60    4.50
 -14   2   8    7.30    4.50
  -5 -12  -8   -1.70   10.50
  12 -17   8    8.90   10.00
 -17   5   8    5.20    7.50
 -15  13   8    8.60    4.50
   2 -15   8   -3.40    5.40
  12 -13  -8   18.10    8.40
  -1 -12   8   19.00    5.10
   9 -13  -8    5.00    7.90
   9 -13  -8    0.80    3.40
 -13   4  -8   -2.50    2.50
  -4  -9   8    0.70    3.00
  -9  13   8    2.20    2.20
  -9  13   8    0.50    1.90
   6 -13  -8   18.00    4.40
   6 -13  -8   21.90   11.20
 -13   7  -8   28.10    3.90
  -6  13   8   18.90    3.40
  -7  -6   8   20.20    4.00
   3 -13  -8    6.60    3.80
   3 -13  -8    4.50    7.90
 -13  10  -8    4.20    2.80
 -10  -3   8    4.30    3.50
  -3  13   8    5.90    2.50
   0 -13  -8   26.10   15.50
  13 -13   8   31.50    5.90
   0  13   8   49.20    7.00
 -13   0   8   42.20    6.20
  -3 -13  -8   -5.80    9.70
   3  13   8   22.00    7.80
 -16   3   8   11.50    7.20
  13 -16   8   10.90   11.20
  14 -14  -8    2.60    7.40
  11 -14  -8    4.60    6.30
 -11  14   8   21.10    3.70
  -3 -11   8   10.90    4.40
 -11  14   8   21.50    3.90
   8 -14  -8    5.10    8.80
   8 -14  -8    4.80    4.60
 -14   6  -8    1.60    2.70
  -6  -8   8    0.30    3.70
  -8  14   8    0.20    2.50
  -8  14   8    2.20    2.40
   5 -14  -8   65.49   10.10
   5 -14  -8   62.79   15.10
 -14   9  -8   57.59    7.70
  -5  14   8   59.79    7.70
  -9  -5   8   74.89    8.80
 -14  12  -8    8.80    4.70
   2 -14  -8   16.10   24.70
 -12  -2   8   -0.30    5.00
  -2  14   8    2.40    3.10
  14 -12   8    6.20    4.00
   1  14   8   79.69   12.00
 -15   1   8   86.39   13.30
  14 -15   8   76.09   12.00
  13 -15  -8    0.40   10.00
  -2 -13   8   -5.80    6.10
 -13  15   8   -7.40    4.00
  10 -15  -8   -4.30    8.00
 -15   5  -8   22.10    4.40
 -10  15   8   24.60    4.40
  -5 -10   8   12.60    5.00
 -10  15   8   22.70    4.40
 -15   8  -8   45.60    7.40
   7 -15  -8   42.40   15.70
  -7  15   8   52.39    7.60
  -7  15   8   43.30    6.00
  -8  -7   8   48.90    7.00
   4 -15  -8   52.39   22.50
 -15  11  -8   69.09    8.20
   4 -15  -8   46.30    8.70
  -4  15   8   67.59    8.80
 -11  -4   8   62.39    8.50
   1 -15  -8   20.80   21.20
 -15  14  -8   21.90   10.60
 -14  -1   8   13.00    8.10
  -1  15   8   21.30    5.40
  15 -16  -8    9.60   16.30
 -16   4  -8   44.30    7.30
 -12  16   8   47.90    7.00
  -4 -12   8   36.20    7.50
 -16   7  -8   -1.50    4.80
   9 -16  -8    0.50   13.40
  -9  16   8    5.80    4.10
  -7  -9   8    7.20    6.00
  -9  16   8    0.90    5.50
 -16  10  -8   92.39   15.30
   6 -16  -8  139.79   30.70
   3 -16  -8   -7.50   14.90
 -16  13  -8   -3.30   10.00
  -3  16   8   -2.30    4.70
 -13  -3   8    0.90    8.10
  14 -17  -8   -9.90   17.50
  11 -17  -8   15.40   18.00
 -17   9  -8    6.40    6.90
   8 -17  -8   -0.50   11.90
  -8  17   8    6.00    6.60
  -8  17   8   -3.90    5.10
  -9  -8   8   -2.90    9.10
   5 -17  -8   -4.00   16.60
 -17  12  -8    6.00   10.40
 -12  -5   8    7.30   10.60
  -5  17   8   -2.30    8.20
  -5  17   8   10.20    5.80
  13 -18  -8    6.40   16.90
  10 -18  -8   -1.80    9.90
 -10  18   8    5.50   10.10
 -10  18   8   -2.60   12.00
   7 -18  -8   11.50   22.90
   9 -19  -8   18.40   13.00
  -1  -1  -9   35.10    3.10
   1   1   9   35.00    3.20
  -2   1  -9 1144.79   98.69
  -2   1  -9 1338.77   99.99
   1  -2  -9 1275.17   99.79
   2  -1   9 1217.18   98.59
  -1   2   9 1220.48   98.69
   2  -1   9 1033.80   98.59
  -2   4  -9   14.40    3.20
   2  -4   9   14.30    1.90
   2  -4   9   12.50    4.60
   2   2   9   13.70    2.30
  -3   0  -9   96.09    9.00
   0  -3   9  100.29    9.00
   3   0   9  108.39    9.10
  -3   3   9  120.09    9.00
  -3   3  -9 4002.30  296.87
  -3   3  -9 4001.10  298.57
  -3   3  -9 3098.99  296.87
   0  -3  -9 3772.02  296.97
   3  -3   9 3895.11  296.87
   3  -3   9 3184.48  296.77
   0   3   9 3578.34  296.87
   3  -3   9 3504.25  299.07
  -3  -3  -9  547.05   43.10
  -3   6  -9  551.24   42.90
   3   3   9  512.55   42.90
   3  -6   9  471.25   46.90
  -6   3   9  507.85   42.70
   5  -4  -9    2.30    2.10
  -4  -1  -9    0.70    2.10
  -4  -1  -9    0.40    4.30
  -1   5  -9    2.20    2.60
  -1   5  -9    2.50    1.80
   4   1   9    3.20    1.60
   1  -5   9    3.00    1.60
   1  -5   9    1.40    6.70
  -5   4   9    1.40    1.20
  -5   4   9    3.30    0.70
   1  -5   9    1.10    1.00
  -4   2  -9 6312.37  538.35
   4  -2   9 6945.81  538.35
  -2   4   9 6492.65  538.35
  -1  -4  -9  113.09    9.40
  -4   5  -9  106.09    8.90
   4  -5   9   96.79    9.00
   1   4   9  103.09    9.00
   4  -5   9  101.69   12.40
  -4   8  -9 1801.02  150.48
  -4  -4  -9 1905.31  150.68
   4   4   9 1842.12  150.48
   4  -8   9 1739.13  151.18
  -8   4   9 1884.41  150.38
  -5  -2  -9 4776.42  422.56
  -2   7  -9 5435.96  425.96
  -2   7  -9 5864.01  422.56
  -7   5   9 4879.21  422.46
   5   2   9 4874.01  422.46
   4  -5  -9  239.68   20.20
   4  -5  -9  195.48   18.00
  -5   1  -9  245.68   22.30
  -1  -4   9  213.28   18.10
  -4   5   9  208.08   18.10
  -5   4  -9 1944.91  153.28
  -5   4  -9 2048.90  157.28
   1  -5  -9 1943.11  153.48
   1  -5  -9 2034.20  156.88
   5  -4   9 1777.42  153.38
   5  -4   9 1755.92  156.48
  -1   5   9 1617.34  153.38
  -5   7  -9  745.23   56.39
   5  -7   9  585.84   60.69
  -7   2   9  688.23   56.39
   2   5   9  739.83   56.39
   5  -7   9  729.83   56.49
  -7   2   9  596.24   56.29
  -5  10  -9    9.10    2.20
  -5  -5  -9   11.20    2.90
   5 -10   9    8.40    2.60
 -10   5   9   10.50    1.90
   5   5   9   11.30    1.90
  -6  -3  -9 1479.05  112.79
  -3   9  -9 1290.57  112.29
   3  -9   9 1377.46  112.49
  -9   6   9 1322.17  112.19
  -6   0  -9  202.18   16.40
  -6   6   9  174.78   16.30
  -6   6   9  185.48   16.10
   0  -6   9  209.48   16.40
   3  -6  -9  409.06   34.00
   3  -6  -9  348.97   30.60
  -6   3  -9  349.67   34.50
  -3   6   9  393.76   30.70
  -3  -3   9  354.36   30.60
  -6   6  -9  310.57   25.40
   0  -6  -9  319.77   25.70
   0  -6  -9  310.17   29.60
   0   6   9  303.77   25.40
  -6   0   9  282.87   25.20
  -6   9  -9   21.30    3.30
  -3  -6  -9   19.80    3.20
   3   6   9   22.00    3.10
   6  -9   9   13.80    8.50
  -9   3   9   23.20    3.10
  -6  -6  -9   13.80    3.90
  -6  -6  -9    4.60    8.60
   6 -12   9    9.50    3.50
   6   6   9   12.30    2.50
  -7  -4  -9  189.88   18.40
 -11   7   9  199.58   17.80
   7   4   9  231.28   18.00
   4 -11   9  214.08   18.50
  -1   8  -9  298.37   24.80
   8  -7  -9  289.57   28.10
   1  -8   9  275.77   25.00
  -8   7   9  318.07   24.70
   5  -7  -9  289.47   25.80
   5  -7  -9  344.27   29.30
  -7   2  -9  333.57   25.90
  -5   7   9  295.57   26.00
  -2  -5   9  300.47   25.90
   2  -7  -9   13.90    7.10
  -7   5  -9   23.70    2.70
   2  -7  -9   23.30    3.10
   7  -5   9   19.60    7.30
   7  -5   9   23.60    2.70
  -2   7   9   18.70    2.80
  -7   8  -9   88.09    7.40
  -1  -7  -9   66.29   11.80
   7  -8   9   71.39   13.80
   7  -8   9   79.39    7.60
  -4  -7  -9   12.50    3.30
  -4  -7  -9   10.20    7.40
  -7  11  -9    9.20    2.60
   4   7   9   16.10    2.60
 -11   4   9   14.30    2.60
   7 -11   9   19.50    3.40
  -7  -7  -9  248.58   35.30
  -7  -7  -9  318.17   27.10
 -14   7   9  301.17   26.00
   7   7   9  324.17   26.10
   7 -14   9  296.17   26.90
  -8  -5  -9   55.19    9.50
 -13   8   9   63.79    6.90
   8   5   9   65.49    7.20
   5 -13   9   64.69    8.40
  10  -8  -9    6.40    4.40
  -8  -2  -9    6.80    2.50
   8   2   9   12.90    2.00
 -10   8   9    8.10    1.70
   2 -10   9   12.70    2.60
   7  -8  -9   53.09    5.70
  -8   1  -9   59.39    5.70
   7  -8  -9   50.69    8.40
  -7   8   9   59.69    5.40
  -7   8   9   48.90    5.60
  -1  -7   9   67.29    5.80
   4  -8  -9   77.69   10.90
   4  -8  -9   72.29    6.90
  -8   4  -9   77.09    6.90
  -4  -4   9   73.99    6.80
  -4   8   9   74.79    7.00
   1  -8  -9  671.43   55.29
  -8   7  -9  685.83   54.99
   1  -8  -9  593.44   59.79
   8  -7   9  736.93   55.19
   8  -7   9  577.94   60.19
  -1   8   9  701.13   55.19
  -8  10  -9  200.38   18.00
 -10   2   9  203.08   17.80
   2   8   9  235.78   18.00
   8 -10   9  191.08   18.10
  -5  -8  -9  499.15   56.39
  -5  -8  -9  340.17   33.80
   5   8   9  390.06   33.10
   8 -13   9  408.06   33.90
 -13   5   9  394.76   33.20
  -8  -8  -9   15.10    8.30
  -9  -6  -9    6.60    5.40
 -15   9   9   11.70    3.70
   6 -15   9    8.80    4.70
  12  -9  -9    6.60    5.90
 -12   9   9    0.40    1.70
   9   3   9    4.60    2.10
   3 -12   9   -1.40    2.60
   9  -9  -9    0.50    3.20
   9  -9  -9    0.80    1.50
  -9   0  -9    1.20    2.00
  -9   9   9    3.00    1.50
   9   0   9    2.20    1.20
  -9   9   9    1.90    1.10
   0  -9   9    0.70    1.90
   6  -9  -9 1377.96  121.29
  -9   3  -9 1455.95  121.29
   6  -9  -9 1503.35  125.99
  -6   9   9 1492.35  121.49
  -3  -6   9 1558.44  121.29
   3  -9  -9    2.80    5.70
   3  -9  -9    2.40    1.80
  -9   6  -9    1.10    1.30
  -3   9   9    2.50    1.50
   9  -6   9    0.70    1.50
  -6  -3   9    0.60    1.40
   9  -6   9    1.00    5.50
   0  -9  -9 1963.40  166.28
  -9   9  -9 2016.10  166.08
   0  -9  -9 1953.70  172.18
   9  -9   9 2107.59  166.28
  -9   0   9 1981.20  165.98
   0   9   9 2111.59  166.18
  -3  -9  -9    5.70   14.80
  -9  12  -9    6.10    3.10
  -3  -9  -9    2.20    3.70
 -12   3   9    3.80    2.60
   3   9   9    6.40    2.40
   9 -12   9    6.30    2.80
  -6  -9  -9  153.08   28.80
  -6  -9  -9  132.59   17.50
   6   9   9  206.28   17.10
 -15   6   9  167.78   15.80
   9 -15   9  168.98   17.00
 -10  -4  -9    3.20    4.20
 -10  -1  -9  219.38   20.90
  11 -10  -9  234.28   26.60
   1 -11   9  283.37   21.20
 -11  10   9  230.88   20.60
   8 -10  -9  194.88   23.50
 -10   2  -9  214.18   18.80
  -8  10   9  222.68   18.70
  -2  -8   9  236.88   19.00
  -8  10   9  221.28   18.90
   5 -10  -9  431.16   47.80
 -10   5  -9  535.15   42.60
   5 -10  -9  522.35   42.80
  -5  10   9  539.65   42.80
  -5  -5   9  513.85   42.60
   2 -10  -9  282.37   25.50
   2 -10  -9  298.37   32.10
 -10   8  -9  296.87   25.10
  10  -8   9  332.07   25.30
  10  -8   9  242.58   32.00
  -2  10   9  303.37   25.30
  -1 -10  -9   50.19    7.00
  -1 -10  -9   40.70   12.70
 -10  11  -9   37.80    6.30
  10 -11   9   42.50    6.10
   1  10   9   47.90    5.90
 -10  14  -9   -3.20    4.40
  -4 -10  -9    8.30   14.50
  -4 -10  -9    1.50    4.60
   4  10   9    0.40    3.00
  -7 -10  -9   13.00   17.30
 -11  -5  -9    6.20    6.70
   5 -16   9   -0.60    5.30
 -16  11   9   -1.30    4.30
  13 -11  -9  417.46   46.40
 -11  -2  -9  443.56   39.70
 -13  11   9  493.65   39.40
   2 -13   9  505.55   39.90
 -11   1  -9   16.50    3.20
 -10  11   9   15.60    2.60
 -10  11   9   11.00    2.40
  11  -1   9   17.10    2.40
  -1 -10   9   14.30    3.10
   7 -11  -9 1300.97  106.09
 -11   4  -9 1253.57  105.89
   7 -11  -9 1267.57  112.49
  -7  11   9 1311.17  106.09
  -4  -7   9 1299.37  105.99
   4 -11  -9  171.88   17.10
 -11   7  -9  198.98   16.70
   4 -11  -9  192.18   23.90
  -4  11   9  201.08   16.90
  -7  -4   9  191.38   16.70
   1 -11  -9  127.49   12.70
 -11  10  -9  123.09   12.10
  11 -10   9  148.99   12.30
  -1  11   9  118.39   12.00
  -2 -11  -9   53.39    9.30
  -2 -11  -9   50.09   16.60
 -11  13  -9   60.49    9.10
 -13   2   9   81.59    8.50
   2  11   9   68.29    8.30
  11 -13   9   85.89    8.80
  -5 -11  -9    3.70    7.90
  11 -16   9   -1.10    6.30
 -16   5   9    2.50    5.80
 -12  -3  -9    5.20    5.50
   3 -15   9    3.60    5.60
 -15  12   9    5.70    4.90
 -12   0  -9  101.39   10.70
  12 -12  -9  103.59   17.30
   0 -12   9  103.09   10.90
 -12  12   9  109.69   10.10
   9 -12  -9    2.00    7.00
   9 -12  -9    0.60    3.10
  -9  12   9   -1.10    1.70
  -3  -9   9    6.70    2.80
 -12   6  -9    8.00    2.60
   6 -12  -9    9.50    3.30
   6 -12  -9    5.50   10.10
  -6  -6   9    6.40    4.60
 -12   9  -9   63.79    7.00
   3 -12  -9   58.29    8.20
   3 -12  -9   32.80   23.30
  -9  -3   9   65.89    7.40
  -3  12   9   62.19    7.10
  12  -9   9   58.89    6.90
 -12  12  -9    4.10    3.30
   0 -12  -9    0.00   11.00
   0 -12  -9   -7.80    3.70
 -12   0   9    0.00    3.50
   0  12   9   -1.00    2.50
  12 -12   9    0.10    2.90
  -3 -12  -9   18.60   23.10
  -3 -12  -9    3.20    6.60
  12 -15   9   14.20    5.50
   3  12   9   -0.40    4.70
 -15   3   9    6.60    5.60
 -13  -4  -9   10.40   15.20
  14 -13  -9   81.39   17.40
 -13  -1  -9   69.39    9.00
 -14  13   9   82.39    9.30
   1 -14   9   86.09   10.20
 -13   2  -9   46.00    7.30
 -11  13   9   66.89    6.70
 -11  13   9   52.49    7.40
  -2 -11   9   64.39    7.80
   8 -13  -9    2.40    3.70
 -13   5  -9   10.10    3.30
   8 -13  -9    9.10    7.30
  -8  13   9   13.40    2.80
  -8  13   9   16.30    3.00
  -5  -8   9   11.60    3.60
   5 -13  -9    4.40    6.50
   5 -13  -9    4.50    3.80
 -13   8  -9   13.40    3.20
  -8  -5   9   11.40    3.60
  -5  13   9   11.80    2.90
 -13  11  -9    1.80    3.50
   2 -13  -9    0.00    3.90
   2 -13  -9   -2.90   11.40
  -2  13   9    1.10    2.60
  13 -11   9    3.00    3.00
 -11  -2   9   -0.10    3.90
 -13  14  -9   67.49   11.50
  -1 -13  -9   45.20    8.70
  -1 -13  -9   82.19   24.90
  13 -14   9   59.09    8.70
 -14   1   9   83.59   10.70
   1  13   9   78.19   10.00
 -14  -2  -9   -3.00    8.70
   2 -16   9   -7.50    7.20
 -16  14   9   -7.80    5.80
 -14   1  -9    1.70    4.30
  13 -14  -9   -5.40    9.40
  -1 -13   9   -2.60    4.00
 -13  14   9    2.40    3.20
  10 -14  -9    1.20    8.70
 -14   4  -9    2.50    3.10
 -10  14   9   -2.00    2.70
   7 -14  -9   -5.80    7.50
 -14   7  -9   -3.30    3.00
  -7  14   9   -1.10    2.40
  -7  -7   9    1.70    3.80
  -7  14   9   -0.70    2.50
   4 -14  -9   45.00    7.40
   4 -14  -9   42.40   12.10
 -10  -4   9   69.49    9.40
   1 -14  -9   -3.20   28.60
 -14  13  -9   13.00    6.40
   1 -14  -9   14.20    6.60
  14 -13   9   15.60    5.90
 -13  -1   9   24.00    6.50
  -1  14   9   18.10    4.60
   2  14   9   49.40    9.30
 -16   2   9   64.59   10.90
  14 -16   9   64.09   13.90
 -15   0  -9   -5.20    8.20
  15 -15  -9    5.20   21.90
 -15  15   9    7.40    5.80
   0 -15   9  -12.00    7.20
  12 -15  -9   18.90   13.80
 -15   3  -9   12.50    5.10
  -3 -12   9   10.40    5.50
 -12  15   9   13.00    5.70
 -15   6  -9    2.90    3.80
   9 -15  -9    4.10   12.40
  -9  15   9    1.80    3.30
  -9  15   9   -1.30    3.20
  -6  -9   9   -0.70    4.40
   6 -15  -9  233.78   32.90
 -15   9  -9  218.18   21.70
  -6  15   9  273.87   22.00
  -9  -6   9  239.58   22.70
 -15  12  -9   16.00    6.00
   3 -15  -9   -8.10   16.20
  -3  15   9    3.40    4.30
 -12  -3   9    4.10    6.60
   0  15   9   56.79    8.90
 -15   0   9   71.09   11.60
  15 -15   9   56.49   13.70
  14 -16  -9   -3.70    9.20
 -16   2  -9  -12.20    8.00
 -14  16   9    8.60    6.40
  -2 -14   9    1.00    7.30
 -16   5  -9   86.49   11.50
  11 -16  -9   76.59   21.10
 -11  16   9   98.69   12.70
  -5 -11   9   81.69   12.90
   8 -16  -9   10.10   14.40
 -16   8  -9    8.10    7.40
 -16  11  -9   88.69   13.70
 -11  -5   9   97.39   14.40
  -5  16   9  114.19   12.40
   2 -16  -9   16.00   25.50
  -2  16   9   -8.80    8.70
  13 -17  -9   -1.60    9.20
 -17   4  -9   17.40   14.00
  10 -17  -9    3.70   19.00
 -17   7  -9    2.60    9.40
 -17  10  -9   17.50   11.10
   7 -17  -9   11.70   17.90
   4 -17  -9   -9.70   13.50
  12 -18  -9   47.90   22.80
   9 -18  -9   -1.30   15.00
   6 -18  -9    4.20   16.60
   1  -1 -10  533.75   38.90
   0   1 -10  436.86   38.70
  -1   0 -10  432.36   39.40
  -2  -1 -10   42.50    3.80
  -1   3 -10   41.50    4.60
   3  -2 -10   38.70    3.80
   1  -3  10   39.20    8.00
  -3   2  10   31.60    3.40
  -2   2 -10 1175.68   91.59
   0   2  10 1071.89   90.39
   2  -2  10 1062.09   90.29
  -3  -2 -10   40.40    4.00
   5  -3 -10   34.40    4.50
  -2   5 -10   37.00    5.60
   3   2  10   34.30    3.40
   2  -5  10   30.80    8.20
   3   2  10   30.50    4.60
  -3   1 -10 3328.97  283.07
  -3   1 -10 3582.74  284.97
  -2   3  10 3472.55  283.07
  -3   4 -10  351.56   27.10
  -3   4 -10  338.67   29.10
   1   3  10  297.87   27.20
   3  -4  10  351.06   27.20
   3  -4  10  297.57   29.80
  -4  -3 -10 4028.40  335.67
  -3   7 -10 4000.30  338.67
  -3   7 -10 3989.50  335.47
   4   3  10 3996.70  335.57
  -7   4  10 4079.39  335.37
   3  -7  10 4503.55  335.77
  -4   0 -10  326.97   25.30
  -4   0 -10  294.17   28.20
  -4   4  10  257.97   25.20
  -4   4  10  295.97   25.20
   0  -4  10  344.07   25.30
  -4   3 -10 7391.96  677.93
   1  -4 -10 8990.10  677.93
   4  -3  10 8071.89  677.93
   4  -3  10 8715.93  681.03
  -4   6 -10  418.26   33.80
   4  -6  10  430.06   33.90
   4  -6  10  345.67   37.80
   2   4  10  423.66   33.90
  -5  -4 -10 1059.29   89.79
  -4   9 -10 1001.80   89.49
  -9   5  10 1084.99   89.39
   4  -9  10 1204.38   89.89
   5   4  10 1093.49   89.49
  -5  -1 -10  808.72   63.89
   6  -5 -10  799.82   65.89
  -6   5  10  719.33   63.59
  -5   2 -10 1465.15  114.49
  -5   2 -10 1354.56  119.19
   3  -5 -10 1525.35  116.89
   3  -5 -10 1196.28  114.39
  -3   5  10 1445.86  114.59
  -5   5 -10    5.50    3.90
  -5   5 -10    4.20    1.00
   0  -5 -10    7.80    4.30
   0  -5 -10    2.50    1.70
   0   5  10    6.90    1.30
   5  -5  10    4.80    1.70
   5  -5  10   11.70    6.60
   0   5  10   -1.40    2.10
  -3  -5 -10    6.50    2.60
  -5   8 -10   17.30    2.80
   3   5  10   14.50    2.10
  -8   3  10   13.40    1.90
  -6  -5 -10   65.79    8.40
   6   5  10   73.29    7.20
 -11   6  10   73.99    7.10
   5 -11  10   80.49    8.30
  -6  -2 -10 3472.25  270.57
   8  -6 -10 2951.20  273.17
  -2   8 -10 3388.46  270.47
   6   2  10 3273.87  270.37
  -8   6  10 3157.38  270.37
   2  -8  10 3567.84  270.67
   5  -6 -10  810.72   72.79
  -6   1 -10  954.70   72.99
  -1  -5  10  897.71   72.89
   2  -6 -10  553.94   43.30
   2  -6 -10  528.25   46.80
  -6   4 -10  498.95   46.50
  -2   6  10  539.35   43.30
   6  -4  10  479.55   49.40
  -1  -6 -10  335.27   35.80
  -6   7 -10  412.96   31.70
  -7   1  10  383.56   31.60
  -4  -6 -10    5.60    6.40
  -4  -6 -10    8.70    3.00
  -6  10 -10   11.20    2.30
   4   6  10    6.40    1.80
   6 -10  10   10.00    2.60
 -10   4  10   13.00    2.10
  -7  -6 -10   35.50    5.90
   6 -13  10   34.70    5.70
 -13   7  10   43.90    5.80
   7   6  10   41.80    5.70
  10  -7 -10   -1.10    3.40
  -3  10 -10    0.30    1.90
  -7  -3 -10   -0.70    2.40
   3 -10  10    0.80    2.30
 -10   7  10    1.20    1.30
   7   3  10    2.10    1.30
   7  -7 -10   15.50    4.70
  -7   0 -10   24.60    3.30
  -7   7  10   15.00    2.30
  -7   7  10   15.80    2.20
   0  -7  10   13.00    2.70
   4  -7 -10   35.60    6.70
   4  -7 -10   29.30    3.40
  -7   3 -10   31.70    3.50
  -4   7  10   27.90    3.60
  -3  -4  10   33.90    3.50
   1  -7 -10   11.40    5.10
   1  -7 -10   12.00    2.30
  -7   6 -10   18.70    2.40
   7  -6  10   15.90    2.60
   7  -6  10   12.00    7.10
  -6  -1  10   15.60    2.10
  -1   7  10   14.80    2.80
  -7   9 -10   48.60    5.80
  -2  -7 -10   50.89   10.60
  -9   2  10   60.99    5.60
   7  -9  10   51.59    6.00
   2   7  10   59.39    5.80
  -5  -7 -10   87.49   16.90
  -5  -7 -10  105.09   11.50
 -12   5  10  111.09   10.70
   7 -12  10  128.99   11.60
   5   7  10  112.19   10.50
  -8  -7 -10   82.39   12.30
  -8  -7 -10   70.59   21.20
 -15   8  10   76.99    9.40
   7 -15  10   89.59   11.20
  -8  -4 -10   92.89   10.90
   4 -12  10  113.59   10.90
 -12   8  10  103.49    9.90
   8   4  10  116.39   10.00
  -8  -1 -10    2.70    2.20
   9  -8 -10   -0.60    1.60
   9  -8 -10    0.50    3.20
  -9   8  10    3.50    1.30
   1  -9  10    1.80    2.00
   8   1  10    5.60    1.40
  -8   2 -10   24.70    3.60
   6  -8 -10   31.50    6.60
   6  -8 -10   26.10    3.30
  -6   8  10   29.50    3.70
  -2  -6  10   29.70    3.70
   3  -8 -10   25.90    3.70
  -8   5 -10   28.70    3.50
   3  -8 -10   33.80    8.60
  -3   8  10   30.70    3.70
   8  -5  10   30.80    3.50
  -5  -3  10   23.90    3.10
   0  -8 -10 1483.95  142.09
  -8   8 -10 1712.03  136.89
   0  -8 -10 1659.63  137.19
   0   8  10 1710.03  136.99
  -8   0  10 1667.43  136.79
   8  -8  10 1754.42  137.09
  -3  -8 -10   -0.30    3.20
  -3  -8 -10    0.10    6.10
  -8  11 -10    0.40    2.40
   8 -11  10    0.90    2.50
   3   8  10   -0.60    1.70
 -11   3  10   -0.10    2.10
  -6  -8 -10  497.15   48.10
   6   8  10  614.04   47.50
   8 -14  10  584.44   48.60
 -14   6  10  564.14   47.50
  -9  -8 -10   -1.70   11.30
   8 -17  10   -1.90    9.10
 -17   9  10    1.30    7.10
  -9  -5 -10    4.70    4.70
   9   5  10   -2.90    5.40
  -9  -2 -10   23.90    3.90
  11  -9 -10   24.70    8.80
   2 -11  10   26.90    5.60
   9   2  10   23.60    3.20
   8  -9 -10   -1.90    2.90
   8  -9 -10   -0.40    1.40
  -9   1 -10    0.80    1.90
  -1  -8  10    6.90    2.00
  -8   9  10    2.00    1.60
  -8   9  10   -0.30    1.10
  -9   4 -10 1049.79   84.09
   5  -9 -10  907.11   84.09
   5  -9 -10 1027.70   89.19
  -4  -5  10 1120.09   84.09
  -5   9  10 1003.40   84.19
   2  -9 -10  158.98   15.60
  -9   7 -10  169.38   15.30
   2  -9 -10  185.78   21.60
  -2   9  10  185.58   15.40
   9  -7  10  201.38   31.30
   9  -7  10  179.28   15.40
  -9  10 -10  631.64   55.59
  -1  -9 -10  710.03   55.99
 -10   1  10  662.33   55.39
   9 -10  10  647.14   55.79
   1   9  10  696.03   55.69
  -4  -9 -10   42.10   15.50
  -4  -9 -10   26.10    5.80
 -13   4  10   45.10    6.40
   9 -13  10   49.10    7.20
   4   9  10   37.60    5.90
  -7  -9 -10   11.40   10.00
   9 -16  10   20.30    6.10
 -16   7  10   34.20    6.30
 -10  -6 -10    3.10    7.50
   6 -16  10    1.30    5.20
 -16  10  10    1.80    4.50
 -10  -3 -10  123.29   12.90
   3 -13  10  113.89   12.70
 -13  10  10  139.59   11.90
 -10   0 -10    4.30    2.60
  10 -10 -10    2.60    4.80
 -10  10  10   -0.60    1.50
   0 -10  10    2.30    2.60
 -10  10  10    2.60    1.60
  10   0  10    4.80    1.70
   7 -10 -10 1757.32  147.39
 -10   3 -10 1682.43  141.79
  -7  10  10 1709.63  141.89
  -3  -7  10 1747.73  141.79
  -7  10  10 1737.13  141.79
   4 -10 -10   18.30    3.50
 -10   6 -10   26.70    4.10
  -6  -4  10   25.40    4.00
  -4  10  10   29.90    4.10
 -10   9 -10 1387.46  109.49
   1 -10 -10 1268.17  116.29
   1 -10 -10 1326.37  109.69
  -1  10  10 1324.07  109.49
 -10  12 -10   39.80    5.50
  -2 -10 -10   27.30    6.00
  -2 -10 -10   23.30   10.50
 -12   2  10   49.99    6.10
  10 -12  10   48.90    6.40
   2  10  10   41.90    5.90
  -5 -10 -10   22.70    6.80
  -5 -10 -10   13.00   20.10
   5  10  10   28.80    5.70
  10 -15  10   19.70    5.80
 -15   5  10   32.90    5.90
 -11  -4 -10    0.20    5.90
   4 -15  10    0.30    4.50
 -15  11  10   -2.40    3.50
  12 -11 -10  417.26   45.60
 -11  -1 -10  428.16   39.10
 -12  11  10  482.55   39.00
   1 -12  10  519.65   39.50
   9 -11 -10    1.10    4.90
 -11   2 -10    2.20    2.50
  -9  11  10    0.60    1.80
  -9  11  10    2.50    2.10
   6 -11 -10  696.53   64.89
 -11   5 -10  694.73   57.79
  -5  -6  10  671.53   57.79
  -6  11  10  727.73   57.99
 -11   8 -10   42.50    5.70
   3 -11 -10   50.19    6.80
  -8  -3  10   50.09    5.70
  11  -8  10   38.80    5.50
  -3  11  10   42.10    5.60
   0 -11 -10   15.10    9.60
 -11  11 -10   21.10    4.10
   0 -11 -10   13.60    4.20
  11 -11  10   27.00    4.00
 -11   0  10   27.10    3.90
   0  11  10   20.70    3.50
  -3 -11 -10   37.70   24.30
  11 -14  10   21.90    5.50
   3  11  10   34.60    5.20
 -14   3  10   36.50    5.80
  11 -17  10   15.00    9.80
 -17   6  10    0.10    7.70
   5 -17  10    0.80    8.40
 -17  12  10   -9.30    7.30
 -12  -2 -10  160.68   17.20
   2 -14  10  175.48   17.00
 -14  12  10  188.28   16.10
 -12   1 -10    2.80    3.10
  11 -12 -10   11.50    9.00
  -1 -11  10    1.90    3.10
 -11  12  10    5.90    2.10
 -11  12  10    7.60    2.80
 -12   4 -10  165.18   15.90
   8 -12 -10  197.58   23.50
  -4  -8  10  179.68   16.10
  -8  12  10  189.38   16.60
  -8  12  10  179.68   15.90
   5 -12 -10   74.59   15.10
 -12   7 -10   58.89    7.30
  -7  -5  10   73.99    8.70
  -5  12  10   65.69    7.40
   2 -12 -10    6.10    8.80
   2 -12 -10    2.00    3.50
 -10  -2  10    7.20    3.10
  -2  12  10    5.10    2.40
  12 -10  10    5.70    2.70
  -1 -12 -10   -7.80    4.70
 -12  13 -10    6.00    4.90
  -1 -12 -10   12.20   13.20
   1  12  10    2.70    3.10
  12 -13  10    1.20    3.70
 -13   1  10   -2.00    6.00
 -16   4  10    3.60    7.30
   4  12  10    9.70    8.40
  12 -16  10   19.60    7.80
 -13  -3 -10    1.40    9.20
   3 -16  10   17.00    9.60
 -16  13  10   -4.40    6.30
 -13   0 -10   49.40    6.70
 -13  13  10   51.79    6.90
   0 -13  10   46.60    8.00
  10 -13 -10   13.00    7.80
 -13   3 -10   32.50    5.30
  -3 -10  10   28.30    4.50
 -10  13  10   28.10    4.20
 -10  13  10   39.80    5.20
   7 -13 -10    1.10    6.60
 -13   6 -10   -2.90    2.50
  -6  -7  10    1.70    3.20
  -7  13  10    3.20    2.30
  -7  13  10    0.50    2.30
 -13   9 -10   -0.50    3.10
   4 -13 -10   -0.10    7.00
  -9  -4  10    2.30    3.50
  -4  13  10    0.60    2.40
   1 -13 -10    8.40    5.20
   1 -13 -10   -4.10   11.20
 -13  12 -10    4.80    4.70
 -12  -1  10   -3.70    7.30
  13 -12  10    2.00    3.80
  -1  13  10    3.30    3.00
  -2 -13 -10   30.00   21.50
   2  13  10   45.40    7.20
 -15   2  10   50.29    8.50
  13 -15  10   25.00    8.20
 -14  -1 -10  -10.90   13.30
 -15  14  10   -1.30    8.20
   1 -15  10   -3.30    6.90
  12 -14 -10    0.00    8.70
 -14   2 -10   -0.10    4.20
  -2 -12  10    2.60    4.10
 -12  14  10    7.40    3.20
   9 -14 -10    3.20    8.20
 -14   5 -10    1.30    3.20
  -5  -9  10   -1.80    4.80
  -9  14  10    0.70    2.70
   6 -14 -10   15.10    9.00
 -14   8 -10   40.80    5.40
  -6  14  10   35.50    5.00
  -8  -6  10   31.40    5.50
   3 -14 -10    2.20   15.50
  -3  14  10    3.00    3.30
 -11  -3  10    2.60    5.20
   0 -14 -10   93.29   23.40
   0  14  10  118.19   13.50
  14 -14  10  101.79   15.90
  14 -15 -10    1.20    9.40
 -15   1 -10   -4.70   12.90
  -1 -14  10   -2.00    7.70
 -14  15  10    0.70    6.10
 -15   4 -10   53.89    8.00
 -11  15  10   82.89    8.90
  -4 -11  10   66.19   10.10
 -11  15  10   73.09    9.90
 -15   7 -10    5.90    4.20
  -7  -8  10    5.40    4.90
  -8  15  10   10.80    3.70
  -8  15  10   12.70    3.80
 -15  10 -10  277.77   26.10
 -10  -5  10  281.77   26.60
  -5  15  10  316.67   26.10
   2 -15 -10    5.00   17.70
  -2  15  10   -0.50    4.60
  13 -16 -10   23.00   18.00
 -16   3 -10   18.80    9.50
  -3 -13  10   10.80    7.90
 -13  16  10    3.60    7.40
 -16   6 -10   14.30    6.10
  10 -16 -10   22.20   16.70
  -6 -10  10   11.80    6.20
 -10  16  10   18.10    5.60
 -10  16  10   20.90    5.90
 -16   9 -10   65.19   10.10
   7 -16 -10   47.20   17.30
  -7  16  10   61.99   10.00
  -7  16  10   75.99   10.50
   4 -16 -10   15.90   19.70
  -4  16  10    5.30    5.40
  15 -17 -10    6.20   15.60
  12 -17 -10   45.20   18.00
  -5 -12  10   35.80   12.20
 -17   8 -10   12.30    8.90
   9 -17 -10    1.80   17.60
  -9  17  10    7.10    6.40
  -9  17  10    2.10    8.90
  -6  17  10   29.90    7.20
  -6  17  10   44.60   14.30
   3 -17 -10    7.50   19.10
  11 -18 -10    8.10   19.20
   8 -18 -10   10.80   20.70
   5 -18 -10  -16.50   15.90
  -1   1 -11  529.05   41.70
   0  -1 -11  464.65   41.70
   2  -2 -11    7.30    1.70
   0   2 -11   11.10    1.90
  -2   2  11    6.40    1.10
  -2   3 -11   39.20    5.00
   2  -3  11   36.50    3.70
   2  -3  11   43.80    8.70
   1   2  11   44.00    3.90
   2  -3  11   36.50    3.70
  -3   1  11   47.60    3.70
   4  -3 -11  567.94   45.70
  -3  -1 -11  528.15   45.00
  -1   4 -11  541.85   46.40
  -3   2 -11 4879.41  406.36
  -1   3  11 4633.04  406.36
   3  -2  11 5395.76  406.46
  -3   5 -11  306.07   27.20
  -2  -3 -11  317.37   25.20
   2   3  11  276.07   25.00
   3  -5  11  304.77   25.00
  -4  -2 -11  995.90   85.49
   6  -4 -11 1064.69   86.99
  -2   6 -11 1119.89   88.19
   4   2  11  985.60   85.39
  -4   1 -11  770.02   56.39
  -3   4  11  704.53   56.39
   4  -1  11  582.14   56.39
  -4   4 -11 1580.54  121.19
   0  -4 -11 1552.14  124.59
  -4   4 -11 1514.65  123.49
   0   4  11 1567.44  121.39
   4  -4  11 1641.94  121.29
   4  -4  11 1254.17  121.19
   4  -4  11 1240.68  124.19
  -3  -4 -11  245.88   19.80
  -4   7 -11  219.08   22.70
  -4   7 -11  236.58   19.40
   3   4  11  217.38   19.40
  -5  -3 -11 4146.98  333.17
  -3   8 -11 3716.53  332.97
   5   3  11 4164.98  333.07
   3  -8  11 4247.57  333.27
  -5   0 -11  626.24   56.79
   5  -5 -11  656.83   54.39
  -5   0 -11  627.44   52.39
  -5   5  11  557.64   52.29
   0  -5  11  710.63   52.39
   2  -5 -11 3792.82  341.07
  -2   5  11 4547.65  341.27
  -1  -5 -11  743.83   61.99
  -1  -5 -11  741.13   56.89
  -5   6 -11  633.04   56.49
   1   5  11  643.54   56.69
  -4  -5 -11   71.19    8.00
  -5   9 -11   63.69    7.00
  -9   4  11   80.89    6.90
   4   5  11   74.69    6.90
  -6  -4 -11   -3.30    2.50
  -4  10 -11    1.80    1.90
   6   4  11    1.20    1.30
 -10   6  11    1.50    1.40
   4 -10  11   -0.20    2.20
  -6  -1 -11  760.62   60.59
   7  -6 -11  697.33   62.99
  -7   6  11  677.93   60.29
   1  -7  11  804.42   61.59
  -6   2 -11  309.17   24.70
   4  -6 -11  285.87   27.10
  -4   6  11  289.87   24.70
  -6   5 -11   15.80    2.20
   1  -6 -11   10.30    2.10
   1  -6 -11    6.70    3.70
   6  -5  11   18.80    2.40
  -1   6  11    2.30    3.10
   6  -5  11    5.80    6.00
  -1   6  11   12.20    1.90
  -6   8 -11  122.79   11.30
  -2  -6 -11  128.29   11.80
  -2  -6 -11  108.89   15.60
  -8   2  11  137.29   11.60
   2   6  11  118.69   11.40
   6  -8  11  154.08   11.70
  -5  -6 -11   48.60    7.50
   6 -11  11   52.99    6.70
   5   6  11   58.39    6.00
 -11   5  11   54.59    6.00
  -7  -5 -11   49.70    8.80
 -12   7  11   66.69    7.10
   5 -12  11   82.59    8.50
   7   5  11   68.59    7.10
   9  -7 -11  174.68   19.80
  -7  -2 -11  188.98   16.80
   7   2  11  195.58   16.50
  -9   7  11  184.38   16.30
   2  -9  11  216.28   17.00
   6  -7 -11  392.56   34.20
  -7   1 -11  398.56   31.30
  -1  -6  11  381.16   31.30
  -6   7  11  333.37   31.20
   3  -7 -11    8.00    1.70
   3  -7 -11   16.40    6.20
  -7   4 -11   13.50    1.90
  -3   7  11   10.70    1.80
  -7   7 -11   16.50    2.40
   0  -7 -11   17.40    2.80
   0  -7 -11   23.30    8.50
   7  -7  11   15.30   11.30
   0   7  11   15.00    2.40
   7  -7  11   20.50    3.20
  -7  10 -11   29.70    3.90
  -3  -7 -11   23.40    4.10
  -3  -7 -11   22.60    8.40
   7 -10  11   29.50    4.90
   3   7  11   27.00    4.00
 -10   3  11   28.20    4.10
  -6  -7 -11  233.28   24.30
  -6  -7 -11  223.48   31.00
 -13   6  11  287.47   23.50
   7 -13  11  297.57   24.50
   6   7  11  289.27   23.40
  -8  -6 -11   15.10   23.00
  -8  -6 -11    4.20    5.10
   6 -14  11    6.70    6.00
   8   6  11   11.30    3.40
  -8  -3 -11   79.09    9.00
   8   3  11   92.19    8.10
 -11   8  11   79.39    7.90
   8  -8 -11   15.90    5.50
  -8   0 -11   26.70    3.90
  -8   8  11   24.10    2.90
  -8   8  11   19.90    3.30
   5  -8 -11  105.49   13.60
  -8   3 -11  119.39   10.10
   5  -8 -11  111.49   10.20
  -3  -5  11  120.29   11.30
  -5   8  11  116.59   10.30
  -8   6 -11   85.29    7.70
   2  -8 -11   93.99   13.20
   2  -8 -11   75.39    7.90
   8  -6  11   83.39    7.70
  -2   8  11   78.89    7.70
  -8   9 -11  775.42   61.79
  -1  -8 -11  642.84   67.19
   1   8  11  758.32   61.79
   8  -9  11  789.72   61.99
  -4  -8 -11   -0.80    3.80
  -8  12 -11   -2.60    3.00
  -4  -8 -11   17.20   12.90
 -12   4  11    4.30    2.80
   8 -12  11    4.70    3.10
   4   8  11    1.00    2.10
  -7  -8 -11  123.59   18.20
  -7  -8 -11  211.68   35.80
   8 -15  11  160.88   17.20
 -15   7  11  179.78   16.30
   7   8  11  182.88   16.50
  -9  -7 -11    4.60    8.60
 -16   9  11   -1.30    5.00
   7 -16  11    3.90    5.80
  -9  -4 -11    8.20    4.20
   9   4  11    6.50    2.70
   4 -13  11   -1.70    3.40
 -13   9  11   -3.30    2.20
  10  -9 -11    6.00    5.60
  -9  -1 -11    8.00    2.80
 -10   9  11    4.90    1.70
   9   1  11    7.80    1.90
   1 -10  11   12.10    2.80
   7  -9 -11  419.16   38.50
  -9   2 -11  397.76   34.10
  -2  -7  11  400.96   34.10
  -7   9  11  411.86   34.00
  -7   9  11  414.46   34.20
  -9   5 -11   24.60    4.00
   4  -9 -11   29.60    4.30
  -5  -4  11   30.30    3.90
  -9   8 -11 1482.45  116.59
   1  -9 -11 1285.77  116.29
   1  -9 -11 1356.26  122.39
   9  -8  11 1535.55  116.29
  -1   9  11 1393.86  116.29
  -2  -9 -11   -3.00    3.20
  -2  -9 -11    5.70   15.70
  -9  11 -11    3.80    2.80
   2   9  11    0.90    2.10
   9 -11  11    1.70    2.60
  -5  -9 -11  235.18   34.80
  -5  -9 -11  207.38   23.50
   5   9  11  271.27   22.60
   9 -14  11  293.27   23.60
   9 -17  11   -3.40    8.10
 -17   8  11    8.70    7.50
 -10  -5 -11  -15.10   15.70
 -10  -5 -11    7.90    6.20
   5 -15  11    3.60    5.00
 -15  10  11   10.00    4.00
 -10  -2 -11  190.08   18.90
  12 -10 -11  202.38   24.50
 -12  10  11  230.48   18.50
   2 -12  11  219.38   19.20
 -10   1 -11   48.40    6.00
  -1  -9  11   45.30    5.90
  -9  10  11   40.40    5.50
  -9  10  11   50.79    5.20
  10  -1  11   55.19    5.20
 -10   4 -11 1539.75  136.09
  -4  -6  11 1780.82  136.19
  -6  10  11 1654.73  136.39
   3 -10 -11   72.59    8.30
 -10   7 -11   78.59    7.70
   3 -10 -11   78.89   14.20
  -7  -3  11   66.19    7.20
  10  -7  11   85.09    7.70
  -3  10  11   70.19    7.70
   0 -10 -11  489.95   52.99
   0 -10 -11  601.44   46.60
 -10  10 -11  539.85   46.30
 -10   0  11  530.85   46.00
   0  10  11  539.35   46.30
  10 -10  11  599.84   46.60
  -3 -10 -11   24.50    5.30
  -3 -10 -11   40.40   15.80
   3  10  11   22.80    4.00
 -13   3  11   28.20    4.90
  10 -13  11   24.60    4.80
  -6 -10 -11    1.60   21.60
  -6 -10 -11   -3.70   12.80
  10 -16  11   14.00    6.50
   6 -17  11    0.50    8.20
 -17  11  11   11.40    7.30
 -11  -3 -11   83.39   11.60
   3 -14  11   89.39   10.50
 -14  11  11   88.59    9.40
 -11   0 -11   23.00    4.00
  11 -11 -11   14.40    7.90
   0 -11  11   24.00    3.80
 -11  11  11   15.00    3.10
 -11  11  11   15.80    3.00
  11   0  11   25.20    3.20
   8 -11 -11  307.47   31.70
 -11   3 -11  287.47   24.90
  -3  -8  11  289.47   24.90
  -8  11  11  291.57   25.00
 -11   6 -11   -0.30    2.40
   5 -11 -11    3.60    8.40
   5 -11 -11   -3.50    2.50
  -6  -5  11   -1.90    2.30
  -5  11  11    6.30    2.40
 -11   9 -11   63.79    7.50
   2 -11 -11   67.49    8.30
  -9  -2  11   65.19    7.30
  -2  11  11   69.19    7.50
  11  -9  11   71.99    7.60
  -1 -11 -11    2.10    4.10
  -1 -11 -11   -5.80    8.30
 -11  12 -11   -4.20    3.60
  11 -12  11    7.10    3.30
   1  11  11    1.50    2.50
 -12   1  11    4.10    3.50
  -4 -11 -11   -7.60    7.60
  -4 -11 -11    4.10   13.30
  11 -15  11    3.30    6.60
 -15   4  11   -1.80    5.90
   4  11  11   -1.60    5.20
 -12  -1 -11  271.17   25.10
  13 -12 -11  216.18   29.80
 -13  12  11  287.27   23.20
   1 -13  11  270.77   23.70
 -12   2 -11   78.29    9.30
  10 -12 -11  103.89   16.10
  -2 -10  11   95.39    9.60
 -10  12  11   84.09    9.10
 -10  12  11  101.29    9.00
   7 -12 -11  157.38   20.90
 -12   5 -11  129.39   13.00
  -5  -7  11  146.29   13.30
  -7  12  11  152.68   13.40
 -12   8 -11   48.90    7.00
   4 -12 -11  106.39   22.00
  -8  -4  11   52.19    7.00
  -4  12  11   65.89    7.10
   1 -12 -11   -3.60    6.70
   1 -12 -11    8.90    4.40
 -12  11 -11    2.30    3.90
  -1  12  11    3.40    2.70
  12 -11  11   -2.00    2.90
 -11  -1  11    2.30    3.50
  -2 -12 -11   -7.30    6.40
  -2 -12 -11   -3.30   15.50
 -14   2  11   -3.90    5.50
  12 -14  11   -1.20    4.70
   2  12  11    2.70    4.10
 -13  -2 -11    4.80    7.50
 -15  13  11    4.20    4.60
   2 -15  11   -0.70    5.60
  12 -13 -11    1.10    7.00
 -13   1 -11   -1.40    5.10
 -12  13  11    0.20    2.60
  -1 -12  11   -0.40    3.50
 -13   4 -11    1.70    3.00
   9 -13 -11    0.10    7.90
  -4  -9  11    3.20    3.00
  -9  13  11    0.10    2.20
  -9  13  11   -1.90    2.50
 -13   7 -11   -0.70    3.00
   6 -13 -11    3.30    6.90
  -6  13  11    2.70    2.60
  -7  -6  11    0.70    3.40
 -13  10 -11    0.40    3.80
   3 -13 -11    2.40   10.80
   3 -13 -11   -2.30    4.50
  -3  13  11    1.20    2.70
 -13   0  11   14.00    5.90
   0  13  11    4.50    3.90
  13 -13  11   13.00    5.10
  13 -16  11  -16.50   11.10
   3  13  11  -19.80    8.80
 -14   0 -11    4.60    6.80
  14 -14 -11    4.40    9.10
   0 -14  11   -2.30    5.60
 -14  14  11   -1.10    4.70
  11 -14 -11    0.90    6.50
 -14   3 -11   -0.80    4.00
 -11  14  11   -1.60    2.90
 -11  14  11    5.30    3.70
  -3 -11  11   -0.90    4.10
 -14   6 -11   19.60    4.30
   8 -14 -11   16.30   10.50
  -8  14  11   23.30    5.10
  -8  14  11   25.20    5.80
  -6  -8  11   20.30    7.10
   5 -14 -11  133.59   23.80
 -14   9 -11  132.49   14.00
  -5  14  11  155.68   14.10
   2 -14 -11   47.20   20.10
  -2  14  11   37.50    5.70
 -12  -2  11   31.30    7.20
  -1 -14 -11   89.09   36.30
  14 -15  11   81.79   20.60
   1  14  11   95.19   11.60
  13 -15 -11   12.30   13.40
 -15   2 -11    3.30    6.70
 -13  15  11    1.30    5.10
  -2 -13  11    3.40    5.70
  10 -15 -11   19.40   11.80
 -15   5 -11   15.30    5.10
 -10  15  11   16.60    4.50
 -10  15  11   20.10    4.50
  -5 -10  11    8.20    5.00
   7 -15 -11    8.10   11.20
 -15   8 -11    7.40    4.80
  -7  15  11    5.60    3.90
  -8  -7  11   -0.10    5.30
  -7  15  11   10.70    4.50
 -15  11 -11   50.69   10.80
   4 -15 -11   72.49   22.60
  -4  15  11   40.20    7.90
 -11  -4  11   49.00    8.70
   1 -15 -11   -0.90   21.10
  -1  15  11    3.40    8.60
  15 -16 -11    4.70   14.70
  12 -16 -11   59.69   18.00
   9 -16 -11   17.70   15.60
 -16   7 -11    6.90    6.60
  -9  16  11    8.10    5.70
  -7  -9  11   11.20    6.20
  -9  16  11    9.90    5.30
  -6  16  11  149.79   16.50
  -6  16  11  158.48   17.10
   3 -16 -11    3.50   19.60
  -3  16  11   10.30    6.30
  14 -17 -11    9.50   26.50
  11 -17 -11   20.60   18.40
 -11  17  11   28.70    7.80
   8 -17 -11   -1.70   11.30
  -8  17  11  -10.00    8.00
  -8  17  11  -12.10    6.30
  -9  -8  11    9.60    8.90
   5 -17 -11   -4.30   11.30
  13 -18 -11   12.60   16.40
  10 -18 -11   -1.20   13.20
   7 -18 -11   -9.30   14.10
   0   0 -12 1608.04  132.09
   1   1  12  246.28   20.40
  -2   1 -12  267.67   20.80
   1  -2 -12  227.28   20.40
   2  -1  12  219.68   19.20
  -1   2  12  218.88   19.30
  -2  -2 -12  637.94   55.69
  -2   4 -12  730.43   58.49
   2  -4  12  667.33   55.59
  -3   0 -12   13.30    4.10
   3  -3 -12   16.60    2.80
  -3   0 -12   19.10    2.60
   3   0  12   17.90    3.10
  -3   3  12   15.60    2.00
   0  -3 -12 1552.54  118.09
  -3   3 -12 1460.15  116.79
   0   3  12 1502.05  115.19
   3  -3  12 1190.08  114.99
   3  -3  12 1330.67  114.99
  -3   6 -12    1.80    3.60
   3  -6  12    4.80    1.70
  -1   5 -12  394.06   35.50
  -4  -1 -12  416.96   33.70
   5  -4 -12  475.45   36.30
   1  -5  12  391.16   33.60
  -5   4  12  360.06   33.50
  -2   4  12 2811.62  247.08
   4  -2  12 3233.28  247.08
  -2   4  12 3011.80  247.18
  -4   5 -12  268.37   24.90
  -1  -4 -12  268.47   22.70
  -4   5 -12  267.27   22.40
   1   4  12  272.97   22.60
  -4   8 -12 1102.89   92.09
  -4  -4 -12 1159.18   92.39
   4   4  12 1099.19   92.19
   7  -5 -12 1678.33  140.39
  -2   7 -12 1903.41  142.29
  -5  -2 -12 1622.34  138.49
   5   2  12 1579.94  138.49
  -7   5  12 1663.43  138.19
  -4   5  12  369.66   27.10
   5  -1  12  279.07   27.20
  -5   4 -12  723.03   65.19
   1  -5 -12  742.13   64.29
  -5   4 -12  726.83   60.39
   1  -5 -12  759.92   60.39
  -1   5  12  701.13   60.49
   5  -4  12  750.02   60.39
  -2  -5 -12  172.58   15.40
  -5   7 -12  175.78   15.00
  -2  -5 -12  170.48   19.40
   2   5  12  183.78   15.10
  -5  -5 -12   53.89    7.50
   5 -10  12   68.29    7.00
   5   5  12   55.39    6.00
 -10   5  12   59.49    6.00
  -6  -3 -12  456.55   37.60
   3  -9  12  484.65   36.30
  -9   6  12  402.26   35.70
   6   3  12  386.36   35.70
   6  -6 -12  270.77   21.90
  -6   0 -12  237.58   19.30
  -6   6  12  204.68   19.10
  -6   6  12  207.58   18.90
   3  -6 -12   29.00    6.70
  -6   3 -12   15.00    2.40
   6  -3  12    8.10    4.40
  -3   6  12   16.50    2.50
  -6   6 -12  183.88   16.40
   0  -6 -12  200.38   21.10
   0  -6 -12  187.88   16.70
   6  -6  12  206.48   16.60
   0   6  12  194.08   16.60
  -6   9 -12   39.80    4.60
  -3  -6 -12   31.00    5.40
  -3  -6 -12   24.20    8.20
   6  -9  12   37.80    5.00
   3   6  12   37.90    4.40
  -6  -6 -12   11.60   11.90
  -6  -6 -12    3.00    4.30
 -12   6  12    9.20    2.90
   6 -12  12    5.20    3.30
   6   6  12   10.80    2.60
  -7  -4 -12  147.29   15.70
   7   4  12  182.48   15.00
   4 -11  12  204.88   18.60
 -11   7  12  163.08   14.80
  -7  -1 -12   22.80    3.20
   8  -7 -12   27.90    6.60
   7   1  12   21.50    2.90
   1  -8  12   19.60    3.00
  -8   7  12   17.80    2.70
  -7   2 -12  125.39   11.30
   5  -7 -12  141.39   14.30
  -2  -5  12  126.09   11.20
  -5   7  12  130.29   11.30
   2  -7 -12  256.87   27.20
  -7   5 -12  269.97   22.80
   2  -7 -12  258.67   23.60
  -2   7  12  283.07   23.00
   7  -5  12  285.37   22.90
  -1  -7 -12   14.10    3.30
  -7   8 -12   16.70    2.60
  -1  -7 -12   17.50    7.50
   7  -8  12   18.90    2.90
   1   7  12   25.50    3.40
  -4  -7 -12  138.99   14.20
 -11   4  12  146.29   13.30
   7 -11  12  149.69   14.20
   4   7  12  156.18   13.40
  -7  -7 -12   78.29   13.20
  -7  -7 -12   79.39   19.30
 -14   7  12  113.89   13.50
   7 -14  12  123.89   12.10
   7   7  12   97.39   10.60
  -8  -5 -12    4.80    4.70
   5 -13  12    2.30    3.70
 -13   8  12    9.50    3.00
   8   5  12    4.70    2.60
  10  -8 -12   41.30   12.90
  -8  -2 -12   62.69    7.70
 -10   8  12   66.99    6.50
   2 -10  12   74.99    7.70
   8   2  12   81.79    6.90
   7  -8 -12    2.10    3.20
  -8   1 -12    4.50    2.00
  -7   8  12    1.80    1.20
  -1  -7  12    3.80    1.80
  -7   8  12    1.50    2.70
  -8   4 -12   69.59    6.30
   4  -8 -12   55.29    6.20
   4  -8 -12   69.09   10.60
  -4   8  12   73.99    6.50
  -4  -4  12   58.59    6.10
   1  -8 -12   59.29    7.10
  -8   7 -12   63.49    6.60
   1  -8 -12   65.09   11.80
   8  -7  12   68.89    6.70
  -1   8  12   71.29    6.70
  -2  -8 -12    4.30    3.20
  -2  -8 -12   -0.10    6.50
   2   8  12    6.40    2.20
 -10   2  12   10.80    2.40
  -5  -8 -12  119.89   21.90
  -5  -8 -12  106.49   14.60
 -13   5  12  145.59   13.50
   5   8  12  142.79   13.20
   8 -13  12  169.28   14.40
  -8  -8 -12    0.90   15.40
   8 -16  12   -5.50    5.60
  -9  -6 -12   -1.70   17.90
  -9  -6 -12    5.60    7.20
   6 -15  12    6.10    4.90
  -9  -3 -12   10.80    3.90
   3 -12  12    4.70    3.20
   9   3  12    7.90    2.50
 -12   9  12    8.70    2.40
  -9   0 -12  163.78   15.00
   9  -9 -12  160.78   19.00
   9   0  12  172.98   14.50
  -9   9  12  161.88   14.50
   0  -9  12  179.78   14.90
  -9   3 -12  615.94   55.29
   6  -9 -12  712.23   59.79
  -3  -6  12  640.24   54.69
  -6   9  12  688.63   54.99
   3  -9 -12  347.87   32.90
   3  -9 -12  382.46   38.80
  -9   6 -12  413.16   32.90
  -3   9  12  423.56   33.00
   0  -9 -12 1055.09   84.69
  -9   9 -12  963.90   84.29
   0   9  12  985.60   84.39
   9  -9  12 1081.29   84.49
  -3  -9 -12   85.29   17.20
   9 -12  12   84.59    9.20
   3   9  12   71.59    8.30
  -6  -9 -12   51.19    9.40
  -6  -9 -12   84.89   31.30
   9 -15  12   61.99   11.60
   7 -17  12   12.90    8.70
 -17  10  12   -0.90   13.50
 -10  -4 -12   12.80    5.70
   4 -14  12   -0.10    4.40
 -14  10  12    5.50    3.40
  11 -10 -12    3.70    6.60
  10   1  12    7.10    2.30
   1 -11  12    6.60    3.10
 -11  10  12    8.80    2.10
   8 -10 -12   60.59   11.70
 -10   2 -12   56.59    6.60
  -2  -8  12   63.19    6.40
  -8  10  12   58.19    5.80
  -8  10  12   44.70    6.20
 -10   5 -12   76.99    7.20
  -5  10  12   58.39    7.10
   2 -10 -12   62.59    9.40
   2 -10 -12   78.59   14.80
 -10   8 -12   74.49    8.20
  10  -8  12   84.19    8.10
  -2  10  12   78.89    8.40
  -1 -10 -12   -1.50    7.70
  -1 -10 -12    3.90    4.00
 -10  11 -12   -0.60    3.10
 -11   1  12   -3.00    2.70
  10 -11  12    1.40    2.80
   1  10  12   -2.80    2.10
  -4 -10 -12   20.20   14.00
   4  10  12   13.40    4.00
  10 -14  12   12.50    4.70
  10 -17  12   19.60   10.40
   5 -16  12   15.40    8.50
 -11  -2 -12  205.28   21.50
   2 -13  12  240.38   21.50
 -13  11  12  261.77   20.90
  10 -11 -12  158.48   19.70
  11  -1  12  168.58   13.30
 -10  11  12  126.19   13.30
 -10  11  12  150.48   13.20
  -1 -10  12  144.09   13.70
 -11   4 -12  464.75   40.60
   7 -11 -12  520.45   47.60
  -4  -7  12  455.25   40.50
  -7  11  12  514.25   40.80
   4 -11 -12  159.38   23.10
 -11   7 -12  152.18   14.10
  -4  11  12  158.38   15.90
 -11  10 -12   62.59    8.60
   1 -11 -12   77.29   16.10
  11 -10  12   72.09    8.30
  -1  11  12   89.59    8.50
  -2 -11 -12   18.30   12.50
  -2 -11 -12    8.00    5.70
   2  11  12   26.30    4.20
  11 -13  12   12.90    4.50
  -5 -11 -12  -10.10   21.70
  11 -16  12   -1.90    8.00
 -12  -3 -12   -1.40    7.70
   3 -15  12    6.80    5.80
 -15  12  12    2.60    4.60
  12 -12 -12   19.80    9.80
 -12   0 -12    8.20    4.30
 -12  12  12   20.10    3.90
   9 -12 -12   45.40   13.10
 -12   3 -12   15.70    3.70
  -3  -9  12   20.50    3.50
  -9  12  12   14.70    3.30
  -9  12  12   19.30    3.20
   6 -12 -12    0.90    5.00
 -12   6 -12    3.90    2.90
  -6  12  12    2.20    2.40
  -6  -6  12    2.10    2.80
   3 -12 -12    5.40   10.40
 -12   9 -12    5.80    5.90
   3 -12 -12    0.20    4.10
  -3  12  12    2.00    2.50
   0 -12 -12    4.20    9.80
   0 -12 -12   -0.70    5.40
   0  12  12    8.00    3.60
 -12   0  12    0.70    4.40
  12 -12  12    7.40    4.80
  -3 -12 -12    5.20   25.00
  12 -15  12   14.00    6.80
   3  12  12   -6.30    6.00
 -13  -1 -12   20.60   11.50
   1 -14  12   18.20    5.70
 -14  13  12   22.80    5.10
 -13   2 -12   13.00    4.50
  11 -13 -12   30.10   12.40
 -11  13  12   25.30    3.80
 -11  13  12   18.30    3.90
  -2 -11  12   13.10    4.20
 -13   5 -12   -0.90    3.10
   8 -13 -12    2.90    6.90
  -5  -8  12   -2.00    3.00
  -8  13  12    1.60    2.70
  -8  13  12    3.00    2.40
 -13   8 -12   -2.00    3.40
   5 -13 -12    0.90    8.60
  -8  -5  12   -0.20    3.40
  -5  13  12    1.10    2.70
 -13  11 -12    3.20    4.90
   2 -13 -12   18.10   10.40
  -1 -13 -12   -8.40   26.40
   1  13  12   26.60    6.10
  13 -14  12   26.70    7.80
  13 -14 -12    0.60    8.40
 -14   1 -12    3.70    6.90
 -13  14  12    1.50    4.50
  -1 -13  12    5.70    5.10
 -14   4 -12    4.20    4.10
  -4 -10  12   -0.80    3.90
 -10  14  12    3.20    3.30
 -10  14  12    6.30    3.30
 -14   7 -12   16.30    4.60
   7 -14 -12    9.20    7.50
  -7  14  12   18.90    4.00
  -7  14  12   18.10    4.10
   4 -14 -12   84.09   22.10
  -4  14  12   33.80    5.60
   1 -14 -12   17.30   16.00
  -1  14  12    4.10    5.00
  -2 -14 -12   17.40   21.20
  12 -15 -12    7.20    9.50
 -15   3 -12   16.30    7.00
  -3 -12  12    5.60    5.50
 -12  15  12   24.20    5.40
   9 -15 -12   66.29   20.60
 -15   6 -12   25.30    6.20
  -6  -9  12   16.90    5.40
  -9  15  12   36.50    5.70
  -9  15  12   31.40    5.30
 -15   9 -12   66.49   11.60
   6 -15 -12   95.99   19.80
  -6  15  12   97.79   11.20
  -9  -6  12   78.19   11.70
   3 -15 -12   54.69   28.20
  -3  15  12   22.40    5.70
   0 -15 -12   38.40   20.50
   0  15  12   21.10   10.40
  14 -16 -12    2.90   13.00
  11 -16 -12   10.90   10.30
  -5 -11  12   22.50   11.50
   8 -16 -12   25.20   17.40
  -8  -8  12    4.80    6.60
  -8  16  12   22.90    6.40
  -8  16  12   21.10    5.80
   5 -16 -12   11.40   12.90
  -5  16  12   36.40    7.60
   2 -16 -12   26.60   23.40
  13 -17 -12   12.20   16.10
  10 -17 -12    5.00   15.20
 -10  17  12  -10.70   10.60
   7 -17 -12    6.00   14.10
  -7  17  12   29.10   11.70
  -7  17  12    6.60    7.40
   4 -17 -12    4.80   11.50
  12 -18 -12   -2.00   14.70
   9 -18 -12   -8.50   14.20
   6 -18 -12   -4.20    9.10
  -1   0 -13  558.24   47.00
  -2  -1 -13  377.46   32.20
  -3   2  13  351.46   30.00
  -3  -2 -13  659.03   47.50
  -2   5 -13  515.15   49.00
   2  -5  13  584.44   47.60
   3   2  13  529.85   47.30
   2  -3 -13  440.76   35.40
  -3   1 -13  438.76   36.30
   3  -1  13  365.96   34.30
  -2   3  13  420.36   34.40
  -3   4 -13  235.98   21.00
  -1  -3 -13  205.08   18.50
   1   3  13  220.48   18.50
  -4  -3 -13  665.93   53.39
   4   3  13  621.44   53.19
  -4   0 -13  647.44   59.89
   4  -4 -13  774.52   58.79
  -4   4  13  657.43   56.99
  -4   3 -13 1225.68  104.99
  -4   3 -13 1227.78  102.79
  -1   4  13 1309.07  102.99
  -4   6 -13  356.46   32.20
  -4   6 -13  333.47   29.20
   2   4  13  369.26   29.60
   4  -9  13   67.69    7.30
  -9   5  13   65.19    6.30
   6  -5 -13   39.00    5.80
  -5  -1 -13   45.10    5.10
  -6   5  13   43.20    4.30
  -5   2 -13    7.60    1.60
  -5   2 -13    3.10    4.80
  -3   5  13    9.60    2.00
  -5   5 -13   75.79    7.40
   0  -5 -13   70.79    7.60
   0  -5 -13   84.39   11.30
  -5   5 -13   95.49   14.30
   5  -5  13   94.29    7.50
   0   5  13   86.69    7.60
  -3  -5 -13    5.30    2.40
  -5   8 -13    3.40    1.70
   3   5  13    4.80    1.50
   5  -8  13    0.50    1.80
  -6  -5 -13  114.29   13.90
   5 -11  13  154.08   13.50
 -11   6  13  149.69   12.70
   6   5  13  141.59   12.70
  -6  -2 -13  144.69   14.60
   8  -6 -13  157.38   16.70
  -8   6  13  163.28   14.00
   6   2  13  174.78   14.20
   2  -8  13  181.98   14.70
  -6   1 -13  483.45   39.80
   5  -6 -13  513.05   42.10
  -5   6  13  447.86   39.80
   2  -6 -13   -0.10    1.20
   2  -6 -13    2.30    2.90
  -2   6  13    1.70    1.40
  -6   7 -13   77.59    7.90
  -1  -6 -13   87.09    8.60
  -1  -6 -13   83.59   12.70
   1   6  13   97.49    8.20
   6  -7  13   92.59    8.20
  -4  -6 -13  134.09   19.20
  -4  -6 -13  136.09   14.00
   6 -10  13  159.78   13.90
   4   6  13  160.98   13.40
  -7  -6 -13    4.90    8.60
  -7  -6 -13    5.00    5.20
   7   6  13   -1.90    2.50
   6 -13  13   -5.30    3.60
  -7  -3 -13  106.19   12.30
 -10   7  13  129.49   11.30
   7   3  13  128.99   11.40
   3 -10  13  145.19   12.20
  -7   0 -13   10.20    2.40
   7  -7 -13    4.70    3.40
  -7   7  13    7.30    1.40
   0  -7  13    9.50    2.00
  -7   7  13    4.00    1.60
   4  -7 -13   85.09   10.00
  -7   3 -13   63.59    6.60
  -4   7  13   68.69    6.60
   1  -7 -13  206.98   16.30
  -7   6 -13  179.78   16.00
   1  -7 -13  161.78   20.40
   7  -6  13  186.58   16.00
  -1   7  13  191.88   16.10
  -2  -7 -13   25.60   10.10
  -2  -7 -13   16.70    3.60
   2   7  13   16.20    2.70
  -5  -7 -13    6.90    4.60
  -5  -7 -13    5.60    8.80
   7 -12  13    8.10    3.60
   5   7  13    6.70    2.60
  -8  -7 -13   -8.20    9.40
  -8  -7 -13    2.10   14.30
   7 -15  13    3.50    5.80
 -15   8  13   11.80    5.20
  -8  -4 -13    9.80    4.60
 -12   8  13    4.40    2.40
   4 -12  13    5.20    3.60
   8   4  13    6.90    2.30
   9  -8 -13  109.89   13.80
  -8  -1 -13  107.99   10.80
  -9   8  13  109.49   10.00
   8   1  13  117.79   10.10
   1  -9  13  121.09   10.80
  -8   2 -13   65.39    6.20
   6  -8 -13   55.49    8.80
  -6   8  13   53.59    5.90
  -8   5 -13  596.64   51.29
   3  -8 -13  614.64   56.39
  -3   8  13  647.64   51.49
   0  -8 -13  231.58   26.50
   0  -8 -13  203.78   20.60
  -8   8 -13  234.98   20.40
   0   8  13  239.48   20.40
   8  -8  13  273.27   20.60
  -3  -8 -13  220.48   27.80
  -3  -8 -13  242.58   21.40
   3   8  13  240.98   20.60
  -6  -8 -13   67.19   18.40
  -6  -8 -13   74.19   12.20
   8 -14  13  111.19   11.50
   6   8  13   84.39   10.00
  -9  -5 -13   11.00    6.60
  -9  -5 -13    7.20   11.60
   5 -14  13    5.30    4.40
  -9  -2 -13   12.40    3.60
  11  -9 -13    8.30    6.50
   2 -11  13    6.60    3.20
 -11   9  13   11.70    2.50
  -9   1 -13   31.90    4.90
  -8   9  13   26.00    3.50
  -8   9  13   27.20    4.30
   5  -9 -13    8.80    5.80
  -9   4 -13   19.30    2.90
  -5   9  13   12.60    2.70
   2  -9 -13   58.09   13.90
  -9   7 -13   57.49    6.30
   9  -7  13   49.80    6.00
  -2   9  13   47.60    6.00
  -9  10 -13   -1.00    2.80
  -1  -9 -13    0.60    3.30
   9 -10  13    4.80    2.70
   1   9  13   -1.20    2.00
  -4  -9 -13   10.10    5.30
  -4  -9 -13    5.50   11.10
   9 -13  13   -1.10    4.80
   4   9  13    6.00    2.90
  -7  -9 -13   12.10   20.70
   9 -16  13    4.10    6.70
   6 -16  13   11.90    9.80
 -10  -3 -13   59.99    8.20
   3 -13  13   77.79   11.10
  10 -10 -13  155.58   18.00
 -10   0 -13  130.29   12.80
   0 -10  13  128.79   12.70
 -10  10  13  142.49   12.10
  10   0  13  158.78   12.30
 -10  10  13  110.29   12.20
   7 -10 -13  213.18   28.40
 -10   3 -13  237.88   21.10
  -3  -7  13  250.37   20.90
  -7  10  13  254.57   21.20
  -7  10  13  251.17   20.90
   4 -10 -13  329.67   37.10
 -10   6 -13  359.06   30.70
  -4  10  13  393.06   30.90
  -2 -10 -13   89.99   18.00
  10 -12  13   72.19    9.20
   2  10  13   72.49    8.40
  -5 -10 -13   16.80   15.10
  10 -15  13   26.50    8.70
   4 -15  13    3.30    5.90
 -11  -1 -13   20.80    4.90
  12 -11 -13   14.80    8.00
   1 -12  13   14.90    4.30
  11   1  13   19.90    3.60
 -12  11  13   33.70    5.00
   9 -11 -13  150.78   18.00
 -11   2 -13  110.19   11.70
  -2  -9  13  118.59   11.50
  -9  11  13  116.89   11.60
  -9  11  13  128.39   11.20
   6 -11 -13   61.39   15.40
 -11   5 -13   50.99    6.70
  -5  -6  13   58.49    6.40
   3 -11 -13    1.40    3.50
 -11   8 -13   11.60    3.60
   3 -11 -13    6.30    6.60
  -3  11  13   16.30    3.10
 -11  11 -13    5.00    6.40
   0 -11 -13   -0.50    9.90
  11 -11  13    3.60    3.10
   0  11  13   -2.30    2.40
  -3 -11 -13   -7.10   12.80
  11 -14  13    6.50    4.90
   3  11  13   -3.80    4.00
 -12  -2 -13   13.10    8.40
 -12   1 -13   35.00    5.40
  11 -12 -13   44.80   13.40
 -11  12  13   44.20    5.40
 -11  12  13   31.30    4.60
  -1 -11  13   26.40    4.80
 -12   4 -13    7.80    3.90
   8 -12 -13    0.90    6.60
  -4  -8  13    2.90    2.70
  -8  12  13    6.90    2.40
  -8  12  13   11.90    2.90
   5 -12 -13   32.30   13.10
 -12   7 -13   18.30    3.90
  -7  -5  13   15.40    3.50
  -5  12  13   21.70    3.60
 -12  10 -13   -4.40    4.00
   2 -12 -13   -4.50    6.10
  -2  12  13    1.30    2.60
  -1 -12 -13    2.80   12.50
  12 -13  13    0.00    4.40
   1  12  13    6.70    3.80
  -4 -12 -13    5.10   18.80
  12 -16  13   20.70    9.70
   4  12  13    4.10    8.40
  13 -13 -13   -2.00    7.10
 -13   0 -13   -2.90    6.00
   0 -13  13    1.20    4.70
 -13  13  13    1.00    4.30
  10 -13 -13   19.30    9.70
 -13   3 -13    6.70    4.10
  13  -3  13    0.40    3.10
 -10  13  13   10.80    3.20
 -10  13  13    8.10    3.10
   7 -13 -13    6.40    8.60
 -13   6 -13   11.70    3.90
  -7  13  13    8.00    3.40
  -7  13  13   15.30    3.30
   4 -13 -13   -2.20    6.80
 -13   9 -13   -5.50    4.20
  -4  13  13    3.70    3.30
   1 -13 -13   36.70   14.40
  -1  13  13   66.59    9.10
  13 -12  13   68.79   10.00
  -2 -13 -13    7.60   19.80
   2  13  13   -8.60   10.60
 -15  14  13    5.50    6.50
   1 -15  13   -4.10    7.80
 -14   2 -13    6.00    6.80
  12 -14 -13   -1.30    9.80
 -14   5 -13    8.70    5.20
   9 -14 -13    2.60    7.10
  -9  14  13    3.80    3.70
  -5  -9  13    4.30    4.00
  -9  14  13   10.90    3.70
   6 -14 -13   -1.10    6.30
 -14   8 -13   -0.10    7.40
  -6  14  13    4.60    3.60
   3 -14 -13   40.50   17.10
  -3  14  13   32.60    5.50
   0 -14 -13    3.80   19.20
   0  14  13    7.10   10.90
  14 -15 -13   20.60   12.90
 -14  15  13   10.80    6.90
  -1 -14  13   22.90    8.40
  11 -15 -13    8.90   11.40
 -11  15  13   25.70    5.60
 -11  15  13   13.80    6.30
   8 -15 -13  111.49   21.10
  -8  15  13  103.79   12.90
  -8  15  13  105.29   13.00
   5 -15 -13   16.40   11.80
   2 -15 -13   97.99   34.20
  -1 -15 -13   45.00   25.90
  13 -16 -13    4.10   14.00
  10 -16 -13   -6.50   10.10
   7 -16 -13    2.30   10.70
  -7  16  13    8.90    7.00
  -7  16  13    4.00    5.90
   4 -16 -13   15.20   15.90
  -4  16  13   18.00    6.90
   1 -16 -13   15.20   21.10
  12 -17 -13   45.10   20.60
   9 -17 -13   -7.10   10.80
  -9  17  13   -4.60   14.10
   6 -17 -13   -5.60    6.40
   3 -17 -13   -4.20   13.80
  11 -18 -13    3.60   17.80
   8 -18 -13    5.10   15.20
  -1   1 -14  324.57   26.00
   0  -1 -14  282.97   25.90
  -2   0 -14   66.59    7.50
   2   0  14   53.19    5.90
  -2   2  14   78.69    6.00
  -2   3 -14  288.37   24.20
   2  -3  14  307.87   22.70
  -3   1  14  226.48   22.60
  -1   4 -14  599.24   45.40
  -3  -1 -14  504.15   46.50
  -4   3  14  491.35   43.80
  -3   2 -14  162.88   18.00
   3  -2  14  173.98   14.50
  -1   3  14  174.78   14.60
  -3   5 -14  521.35   46.40
  -2  -3 -14  550.54   44.40
   2   3  14  533.15   44.80
  -2   6 -14   36.40    6.60
   4   2  14   38.20    4.10
   2  -6  14   38.50    4.40
  -4   1 -14  101.99   12.60
   3  -4 -14  131.19   11.50
  -3   4  14  117.19   10.20
   0  -4 -14   53.09    8.30
  -4   4 -14   47.60    6.90
   4  -4  14   52.39    4.80
   0   4  14   46.80    4.90
  -4   7 -14    8.00    7.90
  -3  -4 -14    3.00    2.30
   4  -7  14    8.20    1.90
   3   4  14    1.60    1.40
  -5  -3 -14   70.59    7.40
   5   3  14   55.39    6.00
   5  -5 -14  705.73   54.19
  -5   5  14  573.24   52.49
  -5   3 -14   30.80    6.60
   2  -5 -14   34.40    6.00
  -2   5  14   33.20    3.70
  -1  -5 -14  145.99   14.20
  -1  -5 -14  149.79   18.10
  -5   6 -14  156.28   17.00
   5  -6  14  167.68   13.80
   1   5  14  173.78   13.90
  -4  -5 -14   10.00    3.20
   4   5  14   10.70    2.20
  -6  -4 -14  136.09   15.40
   6   4  14  171.08   14.50
   4 -10  14  173.08   15.20
 -10   6  14  173.48   14.40
   7  -6 -14    2.00    2.80
  -6  -1 -14    4.60    2.20
   6   1  14    2.10    1.10
   1  -7  14    2.90    1.90
  -7   6  14    1.60    1.30
   4  -6 -14   77.29    9.10
  -6   2 -14   75.39    7.20
  -4   6  14   76.29    7.00
  -6   5 -14  119.59   10.80
   1  -6 -14  128.89   15.20
   1  -6 -14  109.99   10.90
  -1   6  14  136.39   11.00
   6  -5  14  127.29   10.90
  -2  -6 -14    2.90    2.80
  -2  -6 -14    0.10    4.20
  -6   8 -14   -1.00    1.70
   6  -8  14    2.70    1.80
   2   6  14    2.00    1.50
  -5  -6 -14  116.99   19.40
  -5  -6 -14  103.19   12.10
   6 -11  14  135.69   11.80
   5   6  14  111.19   10.90
  -7  -5 -14   11.60    8.10
   5 -12  14   13.20    3.80
   7   5  14   12.10    2.80
  -7  -2 -14   53.59    7.40
   7   2  14   62.29    6.40
   2  -9  14   77.59    7.30
   6  -7 -14   11.00    4.20
  -7   1 -14    5.80    2.20
  -1  -6  14    3.00    1.60
  -7   4 -14  123.69   10.10
   3  -7 -14  100.79   13.70
  -7   7 -14    4.40    2.00
   0  -7 -14    6.10    2.30
   0  -7 -14    0.60    5.10
   7  -7  14    5.50    1.80
   0   7  14    0.50    1.60
  -3  -7 -14  111.19   11.40
  -3  -7 -14   87.59   16.10
   3   7  14  114.39   10.30
  -6  -7 -14    8.90    9.90
  -6  -7 -14   -1.20    5.60
   6   7  14    6.60    3.00
   7 -13  14   -2.90    4.80
  -8  -6 -14   10.50    7.90
  -8  -6 -14    5.30   10.40
   6 -14  14    0.60    4.50
   8   6  14    1.70    3.70
  -8  -3 -14   38.10    6.10
   8   3  14   45.40    5.60
   3 -11  14   60.29    7.10
   8  -8 -14   19.50    5.80
  -8   0 -14   31.10    4.30
   8   0  14   32.70    3.80
   0  -8  14   45.70    4.90
  -8   8  14   25.70    4.20
  -8   8  14   33.90    3.70
  -8   3 -14   -0.20    1.90
   5  -8 -14    2.00    3.70
  -5   8  14    1.30    1.60
  -8   6 -14  275.27   25.20
   2  -8 -14  303.07   31.10
  -2   8  14  324.07   25.50
   8  -6  14  297.47   25.30
  -1  -8 -14   -6.20    3.20
  -8   9 -14   -0.30    2.60
  -1  -8 -14    3.80    6.60
   8  -9  14    2.40    2.30
   1   8  14    3.90    2.10
  -4  -8 -14   67.79   17.20
   8 -12  14   55.09    8.00
   4   8  14   53.19    7.10
  -7  -8 -14    3.90   13.90
   8 -15  14    4.00    7.70
  -9  -7 -14    3.40   14.80
  -9  -4 -14   31.70    6.20
   4 -13  14   20.40    5.90
   9   4  14   22.50    4.00
  -9  -1 -14   64.09    8.20
  10  -9 -14   66.39   11.30
   9   1  14   82.99    7.50
 -10   9  14   65.89    6.90
   1 -10  14   77.29    8.10
  -9   2 -14   16.80    3.20
   7  -9 -14   23.60    6.90
  -7   9  14   17.60    2.60
  -7   9  14   13.30    2.80
  -9   5 -14  332.97   32.20
   4  -9 -14  427.56   38.70
  -4   9  14  410.76   32.50
   1  -9 -14   43.20   13.20
   9  -8  14   38.60    5.50
  -1   9  14   37.60    5.40
  -2  -9 -14  128.39   21.70
   2   9  14  174.68   14.80
   9 -11  14  161.68   15.30
  -5  -9 -14   22.40   17.40
   9 -14  14   28.10    6.00
   5   9  14   37.20    5.60
 -10  -5 -14    0.70   14.00
   5 -15  14   -1.90    5.80
 -10  -2 -14    7.30    4.70
   2 -12  14    9.50    3.70
  10   2  14   14.90    3.10
 -12  10  14    9.70    3.10
   9 -10 -14  205.68   22.40
 -10   1 -14  184.78   17.70
  -9  10  14  196.58   17.20
  -1  -9  14  216.38   17.60
  -9  10  14  179.18   17.40
  10  -1  14  215.58   17.30
   6 -10 -14   20.10    8.90
 -10   4 -14   13.10    3.20
  -6  10  14   11.90    2.80
 -10   7 -14  135.79   12.70
 -10  10 -14   -0.10    5.30
   0 -10 -14    3.30    8.10
   0 -10 -14   -6.00    4.00
   0  10  14    0.60    2.40
  10 -10  14   -0.10    2.80
  -3 -10 -14   -5.80   10.60
   3  10  14    1.10    3.00
  10 -13  14    4.20    4.20
  -6 -10 -14   -3.00   32.30
  10 -16  14   -2.10    8.30
 -14  11  14    4.70    4.40
   3 -14  14    2.20    5.60
 -11   0 -14   37.10    5.90
  11 -11 -14   51.59   11.20
 -11  11  14   49.80    5.50
   0 -11  14   32.80    5.30
   8 -11 -14    5.80    6.30
 -11   3 -14    2.20    3.00
  -8  11  14    6.80    3.00
  -3  -8  14    0.70    2.50
  -8  11  14    7.30    2.20
 -11   6 -14   66.09    8.30
   5 -11 -14   84.99   15.50
  -5  11  14   92.59    8.60
   2 -11 -14    9.10    8.20
  11  -9  14   12.90    3.20
  -2  11  14   15.40    3.40
  -1 -11 -14   11.10   10.60
  11 -12  14   20.30    4.70
   1  11  14   18.00    4.00
  -4 -11 -14   -7.70   15.20
  11 -15  14   -4.70    6.70
   4  11  14   -3.00    6.70
   4 -16  14   10.30   11.80
 -12  -1 -14    5.20    6.30
 -13  12  14   -0.50    3.80
   1 -13  14    1.60    4.50
  10 -12 -14   86.59   14.30
 -12   2 -14   58.59    9.00
  12  -2  14   93.79    8.50
 -10  12  14   59.49    8.70
 -10  12  14   78.69    8.00
   7 -12 -14    0.20    5.10
  -7  12  14    2.60    2.70
  -7  12  14    5.00    2.40
   4 -12 -14    4.60   10.00
 -12   8 -14    0.60    6.20
  -4  12  14   -0.40    2.60
   1 -12 -14    8.00    8.90
  -1  12  14    9.70    3.40
  12 -11  14   17.10    5.00
  -2 -12 -14   -7.20   24.20
   2  12  14    8.20    5.60
  12 -14  14   -6.70    5.90
   2 -15  14    1.20    7.50
 -15  13  14   10.30    6.20
  12 -13 -14   -0.90    7.60
 -13   1 -14    7.40    5.80
  -1 -12  14   -3.10    4.30
 -12  13  14    1.10    3.50
 -13   4 -14    3.70    4.00
   9 -13 -14    0.50    5.70
  -4  -9  14    1.10    4.50
  -9  13  14    1.10    3.20
  -9  13  14    3.70    3.10
   6 -13 -14    1.00    5.80
 -13   7 -14   -8.50    3.70
  -6  13  14    0.00    3.00
   3 -13 -14    4.50   12.00
  -3  13  14    0.20    3.30
   0 -13 -14    8.60   14.70
   0  13  14    0.90    5.80
  13 -13  14    4.20    7.10
  -3 -13 -14   -2.70   12.90
   0 -14  14   -2.80    7.10
 -14  14  14    1.90    6.00
  11 -14 -14    3.20    7.40
 -11  14  14    4.80    5.10
   8 -14 -14   42.20   14.60
  -8  14  14   48.60    7.40
  -8  14  14   49.00    6.80
   5 -14 -14   19.90   12.90
  -5  14  14   15.00    4.40
   2 -14 -14   87.59   21.20
  -2  14  14   82.69   12.00
  -1 -14 -14   -1.00   17.20
   1  14  14    4.30   12.40
  13 -15 -14   -1.30   12.90
 -13  15  14    2.20    6.30
  10 -15 -14   10.70   13.80
 -10  15  14    2.60    5.20
 -10  15  14   -0.10    5.30
   7 -15 -14   37.70   17.20
  -7  15  14   14.30    8.70
  -7  15  14   10.90    5.90
   4 -15 -14   12.70   16.70
  -4  15  14   10.00    5.60
   1 -15 -14   -6.60   27.70
  -1  15  14   10.80   11.40
  12 -16 -14    6.90   13.50
 -12  16  14   -2.20   10.70
   9 -16 -14   11.60   10.70
  -9  16  14   24.40   11.90
  -6  16  14    4.40    6.90
  -6  16  14    0.40    8.10
   3 -16 -14   14.20   20.10
  11 -17 -14   -7.40   16.40
   8 -17 -14   -4.00   13.10
   5 -17 -14   -0.90    6.80
  -1   2 -15   42.60    4.50
  -1  -1 -15   36.80    5.20
   1  -2 -15   20.30    3.00
  -2   1 -15   25.40    3.90
   1  -2 -15   26.50    3.40
   2  -1  15   19.60    2.70
  -1   2  15   25.60    2.80
  -2   4 -15  127.09   12.00
  -2  -2 -15  114.79   13.50
  -4   2  15  110.89   10.30
   2   2  15  131.09   10.60
  -3   0 -15   66.69    9.80
  -3   3  15   82.19    6.90
  -3   3 -15  208.38   20.40
   0  -3 -15  178.28   18.70
   0   3  15  185.28   16.10
   3  -3  15  190.88   15.90
  -3  -3 -15  122.19   12.20
  -3   6 -15  138.69   14.30
   3  -6  15  139.19   11.90
   3   3  15  133.19   11.70
  -4  -1 -15  332.97   30.40
  -4  -1 -15  321.17   25.70
  -5   4  15  269.97   25.30
   2  -4 -15   50.19    6.30
  -4   2 -15   47.60    7.20
  -2   4  15   47.60    4.80
  -1  -4 -15  250.87   25.10
  -4   5 -15  234.88   23.20
   4  -5  15  248.68   21.00
   1   4  15  257.77   21.10
  -4  -4 -15    8.20    3.10
   4   4  15    7.30    1.80
   4  -8  15    5.10    2.20
  -5  -2 -15   36.70    5.70
   5   2  15   34.40    4.00
   2  -7  15   35.00    4.70
  -5   1 -15  156.48   21.70
   4  -5 -15  220.08   18.10
  -4   5  15  190.28   16.40
  -5   4 -15   66.59    9.50
   1  -5 -15   77.19   10.40
  -1   5  15   77.29    7.00
   5  -4  15   77.99    7.00
  -2  -5 -15    0.90    4.10
  -2  -5 -15    0.90    2.60
   5  -7  15    0.00    1.50
   6   3  15  149.39   12.80
   3  -9  15  137.49   13.30
   6  -6 -15    4.80    2.80
  -6   0 -15    6.50    2.30
  -6   6  15    8.70    1.70
  -6   3 -15   22.00    3.50
   3  -6 -15   16.10    4.70
  -3   6  15   20.90    3.00
   0  -6 -15   10.80    2.60
   0  -6 -15   12.40    5.70
  -6   6 -15   11.40    2.40
   0   6  15   13.70    2.30
   6  -6  15   14.50    2.20
  -3  -6 -15    9.30    6.30
   6  -9  15   19.00    3.30
  -6  -6 -15    8.50    8.60
  -6  -6 -15   -0.60    6.50
   6   6  15   16.30    3.00
   6 -12  15   12.90    4.10
   4 -11  15   29.20    4.70
   7   4  15   35.70    4.80
   8  -7 -15   12.90    4.80
   7   1  15   24.20    3.10
   1  -8  15   15.50    2.90
   5  -7 -15    3.90    3.30
  -7   2 -15    1.40    2.00
  -5   7  15    3.30    1.60
   2  -7 -15   49.10   11.20
  -7   5 -15   33.80    4.40
  -2   7  15   37.80    4.60
  -7   8 -15    0.90    2.50
  -1  -7 -15    0.60    2.60
  -1  -7 -15   -3.80    4.30
   1   7  15    3.60    1.90
   7  -8  15    2.20    2.00
  -4  -7 -15   70.09   16.30
   4   7  15   71.69    7.80
   7 -11  15   71.09    8.70
  -7  -7 -15   22.40   19.60
   7 -14  15   13.00    5.10
   7   7  15   14.20    4.40
  -8  -5 -15    7.90   11.20
  -8  -5 -15   12.40    8.20
   8   5  15   22.60    3.80
   5 -13  15   16.20    4.90
  -8  -2 -15   45.00    8.00
   2 -10  15   66.79    7.30
  -8   1 -15   15.80    3.20
   7  -8 -15    9.40    4.40
  -7   8  15   15.30    2.60
  -7   8  15   12.30    2.00
   4  -8 -15   61.99   10.50
  -8   4 -15   75.19    7.00
  -4   8  15   59.09    6.70
   1  -8 -15   11.10    5.60
   8  -7  15   18.00    3.00
  -2  -8 -15   90.89   15.90
   8 -10  15   86.39    9.80
   2   8  15   98.09    9.50
  -5  -8 -15    7.30   10.70
   5   8  15    2.70    4.30
   8 -13  15   -0.70    4.00
  -8  -8 -15   21.40   26.90
   8 -16  15   22.90    8.40
  -9  -6 -15    4.60   24.00
   6 -15  15    2.10    6.10
  -9  -3 -15   -5.60    5.00
   9   3  15   19.30    3.20
   3 -12  15   11.20    4.20
  -9   0 -15   59.99    7.40
   9  -9 -15   54.39    9.90
  -9   9  15   51.69    6.50
   9   0  15   63.79    6.20
   6  -9 -15    3.50    4.80
  -9   3 -15    7.50    3.70
  -6   9  15    2.80    2.00
   3  -9 -15  298.07   31.90
  -3   9  15  302.27   25.70
   0  -9 -15    2.40    4.90
   0  -9 -15    8.70    7.40
   0   9  15   10.30    2.80
   9  -9  15   10.30    3.00
  -3  -9 -15   86.49   20.70
   9 -12  15   66.79    9.50
   3   9  15   72.39    8.50
  -6  -9 -15   15.80   23.60
   6   9  15    2.20    6.20
   9 -15  15   -2.60    6.00
   4 -14  15    0.10    5.10
  11 -10 -15   19.90    7.80
 -10  -1 -15   11.30    4.70
  10   1  15   31.10    3.80
 -11  10  15   26.70    3.60
   1 -11  15   16.10    4.00
   8 -10 -15   30.30    8.70
 -10   2 -15   33.00    4.80
  -8  10  15   29.20    4.20
  -8  10  15   35.00    5.30
   5 -10 -15  131.59   17.80
  -5  10  15  116.09   12.80
 -10   8 -15   -0.60    3.60
   2 -10 -15   -0.30    7.90
  -2  10  15    4.10    2.50
  -1 -10 -15   84.39   17.10
   1  10  15   79.09    9.50
  10 -11  15   95.29   10.10
  -4 -10 -15   21.70   14.10
   4  10  15   28.60    5.50
  10 -14  15   19.70    6.60
  -7 -10 -15  -14.80   17.40
 -11  -5 -15   19.00   24.80
   5 -16  15   -5.30   10.80
   2 -13  15    8.20    4.80
  10 -11 -15   95.99   14.10
  -1 -10  15   72.29    8.70
 -10  11  15   65.29    8.80
 -10  11  15   78.79    7.90
  11  -1  15   85.79    8.40
   7 -11 -15   12.80    6.90
  -7  11  15    7.10    2.40
  -7  11  15    6.40    2.80
   4 -11 -15   79.09   18.60
  -4  11  15   45.30    7.00
   1 -11 -15   -3.80    6.90
  -1  11  15   -0.70    2.60
  11 -10  15    0.30    3.10
  -2 -11 -15   -3.10   12.30
  11 -13  15    0.80    4.50
   2  11  15    7.50    3.90
  -5 -11 -15    8.40   20.40
  11 -16  15   -3.80   10.80
   3 -15  15   -8.20    7.50
  12 -12 -15    2.00    6.90
   0 -12  15    7.90    4.30
 -12  12  15    3.80    3.60
   9 -12 -15   30.00    9.90
  -3  -9  15   16.00    3.80
  -9  12  15   25.80    3.90
  -9  12  15   23.40    4.20
   6 -12 -15    5.40    8.50
  -6  12  15    1.30    2.80
   3 -12 -15    1.70    8.70
  -3  12  15    5.50    3.00
   0 -12 -15    2.00    8.10
   0  12  15    5.10    3.60
  12 -12  15    4.50    4.80
  -3 -12 -15    6.10   29.60
  12 -15  15   15.30   11.40
   3  12  15   -6.40    8.50
  11 -13 -15   -1.20    6.70
 -11  13  15    1.10    3.40
   8 -13 -15   -0.40    7.90
  -8  13  15    2.40    3.00
   5 -13 -15    1.80    7.10
  -5  13  15    7.30    3.60
   2 -13 -15    5.40   11.60
  -2  13  15    9.50    4.10
  -1 -13 -15   -4.20   16.50
   1  13  15  -13.20   11.50
  13 -14  15    4.00   11.50
  -4 -13 -15   25.30   34.70
  13 -14 -15    1.20    7.60
  10 -14 -15    0.70    9.50
 -10  14  15   -5.40    5.10
 -10  14  15    5.90    4.60
   7 -14 -15    4.60   10.10
  -7  14  15    6.10    4.60
  -7  14  15    7.40    4.40
   4 -14 -15    5.20    9.90
  -4  14  15   -7.80    4.60
   1 -14 -15   25.10   18.40
  -1  14  15   12.30    7.00
  -2 -14 -15    8.80   17.10
  12 -15 -15    4.30   10.50
 -12  15  15   11.70    6.60
   9 -15 -15   22.40   13.50
  -9  15  15   37.10    6.70
  -9  15  15   17.20    6.40
   6 -15 -15    4.10    8.30
  -6  15  15   -1.50    5.50
  -3  15  15   44.30    8.30
   0 -15 -15  -11.80   19.80
  11 -16 -15   -1.60   10.70
 -11  16  15   -2.80   13.30
   8 -16 -15   15.10   11.60
  -8  16  15   29.30    8.50
  -8  16  15   26.70    7.90
   5 -16 -15    4.00    7.70
  -5  16  15   11.50    7.90
   2 -16 -15    6.30   19.20
  13 -17 -15   -5.60   14.60
  10 -17 -15    5.30   14.80
   7 -17 -15   -1.50   10.50
   4 -17 -15   -6.80   13.00
  -1   0 -16    5.50    2.10
  -2  -1 -16  166.08   17.30
  -3   2  16  170.38   14.30
  -2   2 -16   69.59    7.20
   0  -2 -16   68.59    8.00
   0  -2 -16   57.79    7.00
   0   2  16   64.99    6.10
  -3  -2 -16    2.70    4.40
  -3  -2 -16    3.90    2.50
  -2   5 -16    8.60    3.60
   3   2  16    5.50    1.50
  -3   1 -16   40.70    8.10
   2  -3 -16   53.09    5.10
  -2   3  16   43.40    4.70
  -1  -3 -16  108.09   13.50
  -3   4 -16  121.49   12.10
   3  -4  16  111.39   10.00
   1   3  16  122.99   10.40
   3  -7  16   95.89    8.70
   4   3  16   87.49    8.50
  -4   0 -16   16.10    5.90
  -4   0 -16   11.00    2.70
  -4   4  16   21.00    2.70
  -4   3 -16  330.67   34.40
   1  -4 -16  406.16   34.70
  -1   4  16  409.86   32.20
  -4   6 -16   18.40    5.50
  -2  -4 -16   11.60    3.10
  -2  -4 -16   10.20    4.60
   4  -6  16   15.10    2.30
   2   4  16   18.20    2.50
   5   4  16  110.59   10.10
   4  -9  16  103.99   10.50
  -5  -1 -16    9.40    2.80
  -6   5  16    4.60    1.50
  -5   2 -16  117.19   14.70
   3  -5 -16  151.28   13.70
  -5   5 -16   52.69    8.90
   0  -5 -16   61.09   10.40
   5  -5  16   80.99    6.50
   0   5  16   64.09    6.50
  -3  -5 -16   92.99   15.20
   5  -8  16  120.39   10.50
   3   5  16  114.69   10.40
  -6  -5 -16   -4.30    5.00
  -6  -5 -16    8.30    7.80
   6   5  16    1.10    2.10
   5 -11  16    3.30    3.30
   2  -8  16  159.08   15.60
   6   2  16  194.48   15.40
   5  -6 -16    5.10    2.90
  -6   1 -16    1.30    2.20
  -5   6  16    6.00    1.70
   2  -6 -16    5.50    4.60
  -6   4 -16    6.80    1.90
  -2   6  16    4.20    1.70
  -1  -6 -16   64.09   12.20
   1   6  16   67.39    7.30
   6  -7  16   82.19    7.30
  -4  -6 -16   -1.90    4.20
  -4  -6 -16    2.80    5.90
   4   6  16    8.80    2.50
   6 -10  16    5.30    3.10
  -7  -6 -16   -3.10   10.30
   6 -13  16    0.50    4.30
   7   6  16    0.80    3.20
   7   3  16   73.89    7.50
   3 -10  16   74.49    8.50
   7  -7 -16   37.20    6.20
  -7   7  16   26.90    4.30
   4  -7 -16   13.80    4.70
  -4   7  16   22.70    3.00
  -7   6 -16   -0.80    3.00
   1  -7 -16    8.60    6.60
   7  -6  16    6.50    2.10
  -1   7  16    8.80    2.30
  -2  -7 -16    9.30    7.10
  -2  -7 -16    0.60    4.20
  -5  -7 -16    6.20    8.90
   7 -12  16   10.60    4.10
   5   7  16    8.00    3.00
  -8  -7 -16    8.40   12.40
   7 -15  16    8.00    6.80
   8   4  16   73.19    8.00
   4 -12  16   69.09    9.40
  -8  -1 -16   -2.10    3.30
   1  -9  16    6.50    2.90
   6  -8 -16   12.30    4.80
  -6   8  16   10.80    2.40
  -8   5 -16   -0.10    2.40
   3  -8 -16    1.50    5.60
  -3   8  16    6.80    2.20
   0  -8 -16   27.20   10.20
   8  -8  16   14.90    3.60
  -3  -8 -16   10.90    7.90
   8 -11  16   22.00    4.50
   3   8  16   23.20    3.70
  -6  -8 -16   16.20   14.70
   6   8  16   24.50    5.60
   8 -14  16   24.10    6.00
  -9  -8 -16    2.90   26.90
  -9  -5 -16   -4.00   22.30
   5 -14  16   32.90    9.50
   9   5  16   27.80    5.90
  -9  -2 -16   12.00    6.50
   2 -11  16    4.00    3.60
   9   2  16    1.10    2.30
  -9   1 -16   -1.50    3.10
   8  -9 -16    7.20    5.60
  -8   9  16    4.60    2.40
   5  -9 -16   13.70    5.90
   2  -9 -16   46.20   13.20
  -1  -9 -16  111.09   19.20
   9 -10  16  116.49   12.00
   1   9  16  126.09   11.80
  -4  -9 -16    1.30   11.50
   9 -13  16    1.40    4.50
   4   9  16   -2.10    3.50
  -7  -9 -16    9.10   18.00
   9 -16  16   13.30    9.60
 -10  -6 -16   10.10   21.10
  10   3  16    2.70    3.60
   3 -13  16    0.80    4.50
  10 -10 -16    2.20    5.40
  10   0  16   10.00    2.50
   0 -10  16    6.90    3.40
 -10  10  16    8.20    2.70
   7 -10 -16   53.19   10.40
  -7  10  16   42.10    5.40
  -7  10  16   51.69    7.40
   4 -10 -16   76.39   14.70
  -4  10  16   85.99    9.00
   1 -10 -16    3.90    5.90
  10  -9  16   11.40    3.30
  -1  10  16    5.40    2.90
  -2 -10 -16    5.50    9.00
  10 -12  16   16.70    4.70
   2  10  16   15.20    3.70
  -5 -10 -16   22.30   16.80
  10 -15  16    6.50    7.90
   5  10  16   10.80   11.50
 -11  -4 -16    4.40   13.90
   4 -15  16   -6.00   10.90
 -12  11  16   23.20    4.30
  11   1  16   24.50    4.20
   1 -12  16   10.70    4.70
   9 -11 -16   50.19   11.70
  -9  11  16   43.00    6.00
  11  -2  16   51.59    6.10
  -9  11  16   47.20    7.20
   6 -11 -16   27.20   10.70
  -6  11  16   16.60    3.60
   3 -11 -16    9.10   10.70
  -3  11  16   -0.20    2.80
   0 -11 -16    6.20    9.20
   0  11  16    2.10    3.10
  11 -11  16    8.80    4.20
  -3 -11 -16   18.90   14.20
  11 -14  16    6.20    6.60
   3  11  16   20.50    6.50
  -6 -11 -16    2.50   18.70
   2 -14  16   10.00    6.60
  11 -12 -16   -1.10    6.60
  12  -1  16    2.30    3.40
 -11  12  16    0.60    3.10
   8 -12 -16   -1.00    5.80
  -8  12  16   -0.50    2.50
  -8  12  16    6.40    3.30
   5 -12 -16    6.80    8.30
  -5  12  16    4.10    3.20
   2 -12 -16   15.70   12.40
  -2  12  16    9.90    3.70
  -1 -12 -16    9.50   13.80
   1  12  16    5.40    5.10
  12 -13  16  -11.70    6.00
  -4 -12 -16   -2.40   14.70
 -13  13  16    4.20    5.30
  10 -13 -16   10.20    9.00
  13  -3  16    3.50    3.80
 -10  13  16    4.60    4.20
 -10  13  16   -1.60    3.50
   7 -13 -16    7.10    8.70
  -7  13  16    8.10    3.70
  -7  13  16   12.80    4.40
   4 -13 -16    7.70   12.80
  -4  13  16    4.90    4.50
   1 -13 -16   20.00   14.60
  -1  13  16    2.70    4.90
  -2 -13 -16    9.50   26.90
   2  13  16   -1.30   11.80
  12 -14 -16    2.90    8.80
 -12  14  16   11.90    5.60
   9 -14 -16    2.50    8.80
  -9  14  16    0.70    5.40
   6 -14 -16   -3.10    8.10
  -6  14  16    2.00    4.80
   3 -14 -16    5.70   13.00
  -3  14  16    3.60    5.30
   0 -14 -16   -2.50   16.60
   0  14  16  -11.60   15.50
  11 -15 -16   -8.50   10.30
 -11  15  16   -5.80    7.10
   8 -15 -16   10.30   13.40
  -8  15  16    9.60    6.40
  -8  15  16   18.40    6.70
   5 -15 -16    9.70   13.10
  -5  15  16   17.90    7.00
   2 -15 -16   -1.80   14.80
  -2  15  16    6.70   13.20
  13 -16 -16   -3.30   13.30
  10 -16 -16   -4.30   11.30
   7 -16 -16   22.40   16.50
  -7  16  16    0.00    9.60
  -7  16  16    0.60   10.20
   4 -16 -16    4.70    9.00
  12 -17 -16    5.70   14.40
   9 -17 -16    4.00   16.50
   6 -17 -16   -2.10   12.30
   0  -1 -17   40.90    4.50
   0  -1 -17   43.90    4.90
  -1   1 -17   42.30    4.50
  -2   0 -17  237.58   21.60
  -2   2  17  237.88   20.00
  -1  -2 -17  122.29   13.70
  -2   3 -17  156.48   13.50
   1   2  17  148.09   12.40
  -3   1  17  137.89   12.10
  -3  -1 -17  636.94   54.29
  -4   3  17  590.74   50.49
  -3   2 -17  414.16   35.20
   1  -3 -17  356.26   34.30
   1  -3 -17  439.26   35.00
  -2  -3 -17   46.90    8.30
  -3   5 -17   53.89    7.40
   2   3  17   49.99    5.50
   3  -5  17   55.49    5.30
  -4  -2 -17   -1.80    2.90
   4   2  17   10.70    1.90
  -4   1 -17   20.30    6.40
  -3   4  17   21.00    3.10
  -4   4 -17  197.68   19.50
   0  -4 -17  171.08   20.50
   0   4  17  232.58   17.60
  -4   7 -17    2.40    4.40
  -3  -4 -17    0.80    2.90
   4  -7  17    3.10    1.80
   3   4  17    1.40    1.60
   3  -8  17  206.38   20.00
   5   3  17  259.47   20.10
  -5   3 -17  199.98   22.70
   2  -5 -17  251.17   22.70
  -2   5  17  256.37   20.30
  -1  -5 -17   48.00    9.90
   1   5  17   55.99    5.80
   5  -6  17   52.79    5.60
  -4  -5 -17   56.39   12.00
   5  -9  17   39.90    6.60
   6   4  17   44.50    5.70
   4 -10  17   49.60    6.90
  -6  -1 -17   -4.10    3.20
   4  -6 -17   18.80    4.70
  -4   6  17   13.20    2.40
   1  -6 -17   55.59   10.00
  -1   6  17   58.79    6.20
  -2  -6 -17  161.98   22.80
   6  -8  17  196.38   16.30
   2   6  17  178.88   16.20
  -5  -6 -17   13.30    8.40
   6 -11  17   30.50    4.90
  -7  -5 -17   51.49   15.40
   7   5  17   56.09    7.10
   5 -12  17   49.00    9.80
  -7  -2 -17    2.70    4.30
   7   2  17    7.30    2.10
   6  -7 -17   81.99    9.50
  -6   7  17   69.29    7.40
   3  -7 -17  299.87   29.80
  -3   7  17  313.17   26.10
   0  -7 -17   14.70    7.90
   7  -7  17   13.50    2.90
   0   7  17   11.00    2.70
  -3  -7 -17  144.89   21.40
   3   7  17  168.98   14.60
   7 -10  17  151.98   15.10
   6   7  17    6.40    3.90
   7 -13  17   14.40    5.10
  -8  -6 -17    3.00   16.60
   6 -14  17   14.60    7.60
   8   3  17    0.90    2.20
   3 -11  17    1.80    3.60
   8  -8 -17  153.78   15.70
  -8   8  17  137.29   13.20
   5  -8 -17   17.00    8.70
  -5   8  17   13.60    2.80
  -2   8  17  170.18   15.40
  -1  -8 -17   10.50    7.50
   8  -9  17   20.30    3.80
   1   8  17   26.60    3.90
  -4  -8 -17   -2.10    8.60
   4   8  17    1.20    4.60
   8 -12  17   -0.50    4.80
  -7  -8 -17   49.80   19.90
   8 -15  17   47.40   14.10
  -9  -7 -17    4.20   17.90
   4 -13  17   38.80    6.70
   9   4  17   43.40    5.60
   1 -10  17   48.40    8.20
   9   1  17   79.39    7.60
  -9   2 -17    0.70    3.70
   7  -9 -17    1.00    4.30
  -7   9  17    3.00    2.30
   4  -9 -17   50.09   11.20
  -4   9  17   57.49    7.10
   1  -9 -17   69.89   17.10
  -1   9  17   54.39    6.60
   9  -8  17   33.30    6.00
  -2  -9 -17   38.10   14.70
   2   9  17   21.50    4.10
   9 -11  17   20.70    4.80
  -5  -9 -17    7.90   12.70
   5   9  17   -4.10    5.40
   9 -14  17   -0.10    6.10
  -8  -9 -17    1.70   13.20
 -10  -5 -17   57.79   28.50
   2 -12  17    7.70    4.50
  10   2  17   10.80    3.40
   9 -10 -17   31.20    8.50
  -9  10  17   35.10    5.10
   6 -10 -17  108.99   15.10
  -6  10  17  102.19   10.60
   3 -10 -17   -0.20    8.00
  -3  10  17    2.20    2.70
   0  10  17   62.59    8.50
  10 -10  17   61.59    8.60
  -3 -10 -17    9.70   12.50
   3  10  17    6.90    4.30
  10 -13  17   -5.80    5.20
  -6 -10 -17   -3.80   13.50
  11   0  17    2.90    3.30
   8 -11 -17   48.00   11.70
  -8  11  17   36.20    5.30
  -8  11  17   34.80    5.30
   5 -11 -17    2.70    5.90
  -5  11  17    0.00    2.90
   2 -11 -17    0.80    6.90
  -2  11  17    1.90    3.10
  -1 -11 -17   13.00   12.50
   1  11  17    5.70    3.80
  11 -12  17    0.90    4.90
  -4 -11 -17   51.49   18.10
   4  11  17   40.00   10.60
  11 -15  17   36.20   10.30
 -12  -4 -17    1.50   19.10
  10 -12 -17    3.40   12.80
 -10  12  17    1.40    3.20
  12  -2  17    1.60    3.20
   7 -12 -17    3.20    8.00
  -7  12  17   -2.60    3.50
   4 -12 -17   15.80   11.70
  -4  12  17    9.10    3.80
   1 -12 -17   87.59   22.20
  -2 -12 -17    5.30   16.00
   9 -13 -17    3.60    7.20
  -9  13  17    8.70    4.10
  -9  13  17    3.60    4.70
  13  -4  17    1.20    3.30
   6 -13 -17   22.20   10.40
  -6  13  17   37.70    6.10
   3 -13 -17   15.20   10.40
  -3  13  17   19.50    5.30
   0 -13 -17    2.10   12.90
   0  13  17   10.80    8.80
  -3 -13 -17    1.20   16.80
  11 -14 -17   16.00   10.20
 -11  14  17    7.70    5.60
   8 -14 -17   27.40   11.30
  -8  14  17   22.40    6.30
   5 -14 -17   -7.60    7.80
  -5  14  17    2.90    5.60
   2 -14 -17  -10.30   10.90
  -2  14  17   -8.30   10.30
  -1 -14 -17    6.70   21.10
  10 -15 -17   -2.40   13.70
 -10  15  17    1.20    7.10
   7 -15 -17    4.10   11.80
   4 -15 -17    5.20   12.80
  -4  15  17   12.10    7.70
   1 -15 -17    5.00   19.60
  12 -16 -17    1.30   12.10
   9 -16 -17    5.50   14.50
   6 -16 -17   -1.30   11.60
   3 -16 -17   11.90   16.30
   8 -17 -17   -0.80   13.70
  -1  -1 -18  537.25   44.60
  -2   1  18  510.05   43.30
  -2   1 -18    7.10    2.50
  -1   2  18    1.90    1.50
  -2   4 -18 1113.99   99.39
  -2  -2 -18 1085.29   98.59
   2   2  18 1342.17   96.49
  -4   2  18 1135.89   96.19
  -3   0 -18  758.02   68.59
  -3   3  18  853.91   66.59
   0  -3 -18  118.59   14.20
  -3   3 -18  146.59   13.60
   0  -3 -18  114.09   13.10
   0   3  18  159.68   12.10
  -3   6 -18    8.90    4.70
   3   3  18    7.50    2.00
  -5   4  18  402.56   33.50
  -4   2 -18  598.94   53.69
  -2   4  18  642.64   51.59
  -1  -4 -18   35.50    9.00
  -4   5 -18   38.60    7.00
   1   4  18   50.09    5.40
   4  -5  18   55.49    5.20
  -4   8 -18   -1.20    6.80
   4  -8  18   11.90    2.80
   4   4  18   12.00    2.80
   5   2  18  172.38   15.20
  -4   5  18   17.00    2.70
   1  -5 -18   60.79    9.40
  -1   5  18   61.89    6.40
  -2  -5 -18   71.19   12.90
   2   5  18   85.69    8.10
   5  -7  18   79.59    8.00
  -5  -5 -18   78.99   18.00
   5 -10  18   52.49    7.90
   5   5  18   60.99    7.10
   6   3  18   97.59    9.00
   3  -9  18   81.99   10.00
  -6   6  18   51.49    5.70
   3  -6 -18   37.30    6.70
  -3   6  18   48.20    5.20
   0  -6 -18  120.29   16.60
   6  -6  18  127.89   11.40
   0   6  18  124.19   11.60
  -3  -6 -18  399.36   43.20
   3   6  18  449.16   36.80
   6  -9  18  444.96   36.90
  -6  -6 -18   38.20   14.50
   6 -12  18   26.30    5.60
   6   6  18   25.30    4.40
   4 -11  18   11.70    4.20
   7   4  18   18.20    3.30
   7   1  18   46.40    5.50
   5  -7 -18   69.99    8.80
  -5   7  18   64.19    7.00
   2  -7 -18  847.92   74.49
  -2   7  18  835.42   69.79
  -1  -7 -18   17.40    9.50
   7  -8  18    8.60    3.10
   1   7  18   14.70    3.00
  -4  -7 -18  165.68   24.90
   4   7  18  215.68   17.90
   7 -11  18  191.68   18.50
  -7  -7 -18   12.50   11.40
   7   7  18   11.00    6.20
   7 -14  18   14.50    6.70
  -8  -5 -18   74.59   18.60
   8   5  18   61.69    8.00
   5 -13  18   40.80    7.30
   8   2  18   37.80    5.70
   7  -8 -18  204.48   19.10
  -7   8  18  179.58   16.90
   4  -8 -18  366.36   35.30
  -4   8  18  376.46   31.60
   1  -8 -18   24.90   10.20
  -1   8  18   26.70    4.30
  -2  -8 -18   30.40   12.70
   2   8  18   34.20    4.90
  -5  -8 -18   -4.70   10.90
   8 -13  18    8.60    5.50
   5   8  18    6.00    4.40
  -8  -8 -18  -21.40   25.20
  -9  -6 -18   45.30   16.90
   6 -15  18   20.40    8.80
   3 -12  18    3.80    4.50
   9   3  18    2.40    3.00
   9   0  18  434.36   36.60
   6  -9 -18   55.19    9.80
  -6   9  18   57.09    8.10
   3  -9 -18  241.28   28.20
  -3   9  18  266.37   22.60
   0  -9 -18  127.79   20.00
   0   9  18  126.39   12.70
   9  -9  18  130.49   12.80
  -3  -9 -18    1.10   11.70
   3   9  18    1.00    3.50
   9 -12  18    3.40    4.80
  -6  -9 -18   13.20   15.50
   6   9  18   18.20    9.90
   9 -15  18    7.10    9.10
 -10  -4 -18   54.89   20.50
  10   1  18    7.20    3.20
   8 -10 -18   -0.70    4.60
  -8  10  18   -3.40    2.90
   5 -10 -18    7.50    6.50
  -5  10  18    2.10    3.00
   2 -10 -18   12.60    9.90
  -1 -10 -18    3.20    8.20
   1  10  18    8.20    3.90
  10 -11  18    7.20    4.50
  -4 -10 -18   -7.80   11.90
   4  10  18    9.20    7.80
  10 -14  18   11.70    7.90
 -11  -5 -18   -0.40   18.50
  10 -11 -18   58.59   16.30
  11  -1  18   45.00    6.10
   7 -11 -18   70.49   12.30
  -7  11  18   55.59    8.50
  -7  11  18   54.49    7.10
   4 -11 -18    2.10    6.60
  -4  11  18    3.70    3.40
   1 -11 -18    2.00    9.60
  -1  11  18    8.60    3.80
  -2 -11 -18    8.90   10.80
  11 -13  18   13.20    6.90
   2  11  18   21.60    6.20
  -5 -11 -18   15.80   20.90
 -12  -3 -18    2.30   14.20
   9 -12 -18    6.90    7.70
  -9  12  18    0.10    3.60
  12  -3  18    2.10    2.90
  -9  12  18    1.30    4.20
  -6  12  18   35.00    5.80
   3 -12 -18   17.10   13.40
  -3  12  18   28.50    5.40
   0 -12 -18   39.70   15.70
   0  12  18   73.99    8.80
  -3 -12 -18   14.90   18.00
  11 -13 -18   23.80    9.60
   8 -13 -18   76.49   16.40
  -8  13  18   53.49    8.10
  -8  13  18   42.80    7.50
   5 -13 -18   28.10   12.40
  -5  13  18   13.60    5.50
   2 -13 -18   55.19   14.30
  -1 -13 -18   -7.20   15.20
  10 -14 -18   -3.60    8.00
   7 -14 -18   68.49   16.70
  -7  14  18   49.50    9.70
  -7  14  18   83.39    9.90
   4 -14 -18    0.30    8.40
  -4  14  18   -6.90    6.50
   1 -14 -18   21.70   18.00
   9 -15 -18   47.10   15.80
  -9  15  18   19.10   11.30
  -9  15  18   23.40    8.30
   6 -15 -18    7.50   10.50
  -6  15  18   -1.40    8.30
  -6  15  18   11.20    8.00
   3 -15 -18    3.90   13.70
  11 -16 -18    1.30   11.60
   8 -16 -18   -1.70   10.70
   5 -16 -18    7.60   12.60
  -1   0 -19  163.08   14.40
  -2  -1 -19 1856.71  161.98
  -3   2  19 2046.80  160.28
   0  -2 -19    6.80    2.50
   0  -2 -19    6.60    2.90
  -2   2 -19    6.70    4.00
   0   2  19    4.80    1.70
  -3   1 -19   15.00    4.50
  -2   3  19   26.50    3.70
  -1  -3 -19  343.27   34.50
  -3   4 -19  401.46   35.80
   1   3  19  368.36   31.20
   4   3  19  141.59   12.90
   1  -4 -19  628.04   53.49
  -4   3 -19  558.44   53.49
  -1   4  19  675.03   51.69
  -2  -4 -19   22.90    7.80
   2   4  19   28.50    4.40
  -5  -4 -19    7.40    5.90
   5   1  19   17.60    2.80
   3  -5 -19  116.39   10.70
  -3   5  19  101.99   10.10
   0  -5 -19    5.90    5.20
  -5   5 -19    0.90    3.80
   0   5  19    6.90    2.20
  -3  -5 -19   93.09   15.10
   5  -8  19   62.29   11.00
   3   5  19   95.69    8.90
   6   5  19   86.29    8.90
   5 -11  19   69.19    9.90
   6   2  19  103.09   10.00
  -5   6  19   32.60    4.80
   2  -6 -19  206.78   22.00
  -2   6  19  228.38   19.10
  -1  -6 -19   44.20   11.80
   1   6  19   55.39    6.90
   6  -7  19   47.40    6.20
  -4  -6 -19  524.95   54.59
   4   6  19  618.94   47.40
   6 -10  19  531.05   47.40
  -7  -6 -19   17.90   13.30
   6 -13  19    4.20    7.40
   7   6  19    1.10    5.10
   3 -10  19   -2.40    3.40
   7   3  19   -0.10    2.30
  -7   7  19  126.49   13.10
   7   0  19  161.58   13.10
  -4   7  19  259.77   22.40
   1  -7 -19  420.66   41.30
  -2  -7 -19  170.88   25.10
   7  -9  19  244.78   19.40
   2   7  19  210.48   19.30
   7 -12  19   49.00    7.40
   5   7  19   49.80    6.60
  -8  -7 -19  -11.90   13.80
   7 -15  19   -8.80   11.40
  -8  -4 -19    4.40   15.00
   8   4  19   11.20    3.50
   8   1  19  423.46   35.70
   6  -8 -19    2.90    3.80
  -6   8  19   -1.40    2.50
   3  -8 -19 1308.77  115.89
  -3   8  19 1387.36  111.89
   0  -8 -19   50.69   13.60
   0   8  19   57.19    7.50
   8  -8  19   48.70    7.00
  -3  -8 -19  113.29   21.30
   8 -11  19  156.88   14.90
   3   8  19  139.49   13.90
  -6  -8 -19   34.90   15.40
   8 -14  19   35.30    8.50
   6   8  19   37.50    8.10
  -9  -5 -19   23.60   13.60
   9   5  19   53.59   13.80
   5 -14  19   43.10    9.40
   9   2  19    7.00    3.10
   8  -9 -19  233.68   23.00
  -8   9  19  231.08   22.20
   9  -1  19  264.87   21.20
   5  -9 -19    1.40    4.90
  -5   9  19    3.00    3.00
   2  -9 -19   30.60    9.60
  -1  -9 -19   47.20   14.60
   9 -10  19   27.00    8.20
  -4  -9 -19   -2.80   11.80
   9 -13  19    0.50    6.70
   4   9  19   -9.40    5.10
  -7  -9 -19   17.70   16.60
 -10  -6 -19    6.70   15.50
  10   3  19    1.30    4.50
  10   0  19  282.57   26.20
   7 -10 -19   92.39   12.60
  -7  10  19   81.49   10.00
   4 -10 -19   33.00   10.10
  -4  10  19   40.00    5.50
   1 -10 -19   79.79   18.10
  -2 -10 -19    0.00    9.30
   2  10  19    1.20    4.50
  10 -12  19    1.20    5.50
  -5 -10 -19   15.20   15.60
 -11  -4 -19    7.60   14.30
   9 -11 -19    7.60    6.40
  -9  11  19    9.80    4.60
  11  -2  19    4.60    2.70
   6 -11 -19   11.30    6.90
  -6  11  19   13.60    4.10
   3 -11 -19   -3.40    6.50
  -3  11  19    0.10    3.70
   0 -11 -19    3.80    7.90
   0  11  19   13.40    4.70
  -3 -11 -19   12.60   14.50
  11 -14  19   15.00    9.30
   3  11  19   22.90    8.90
   8 -12 -19    1.90    6.40
  -8  12  19   -4.80    4.60
  -8  12  19    4.90    3.80
   5 -12 -19    3.30    7.20
  -5  12  19    8.10    4.50
   2 -12 -19   88.69   18.80
  -2  12  19   73.79   12.00
  -1 -12 -19   30.30   19.00
   1  12  19    9.90    9.00
  10 -13 -19    1.30    6.80
  13  -3  19   -2.90    4.90
   7 -13 -19  145.09   21.10
  -7  13  19  140.89   16.60
   4 -13 -19    4.60    8.60
  -4  13  19    8.30    5.60
   1 -13 -19  124.69   23.70
  -1  13  19  102.39   14.60
  -2 -13 -19    3.80   17.80
   9 -14 -19   43.90   13.20
  -9  14  19   48.00   10.60
   6 -14 -19   14.20   12.30
  -6  14  19    9.10    7.20
  -6  14  19    0.50    8.30
   3 -14 -19   10.10   13.20
  -3  14  19   31.20    8.50
   0 -14 -19    7.70   16.60
  11 -15 -19   -1.50    8.50
   8 -15 -19   59.09   15.90
  -8  15  19   52.89   12.70
   5 -15 -19   -2.40    8.80
  -5  15  19    2.40   11.40
   2 -15 -19   -2.00   12.60
  10 -16 -19    6.80   16.60
   7 -16 -19   -6.90   12.60
  -2   0 -20  372.16   36.00
  -2   2  20  423.66   33.50
  -1  -2 -20  854.71   71.59
   1   2  20  815.62   69.09
  -3   2 -20  362.06   37.30
  -1   3  20  483.45   35.70
  -2  -3 -20  498.05   47.50
  -3   5 -20  470.25   43.30
   2   3  20  539.15   42.20
   4   2  20   13.10    2.70
  -4   1 -20   -3.20    3.50
  -3   4  20    2.90    1.80
   0  -4 -20   39.70    7.60
   0  -4 -20   25.90    7.60
   0   4  20   39.90    5.00
  -3  -4 -20   26.10    9.40
   3   4  20   23.40    3.50
   4  -7  20   18.00    3.20
   5   3  20  264.37   23.00
  -5   5  20   82.29    8.10
   2  -5 -20  199.58   18.90
  -2   5  20  204.68   17.80
  -1  -5 -20    2.00    5.10
  -5   6 -20    8.90    7.70
   1   5  20    3.50    2.60
  -4  -5 -20  111.19   18.50
   4   5  20  139.49   11.80
   5  -9  20  100.49   11.80
  -6  -4 -20   -2.60    7.60
   6   4  20    0.20    2.50
   6   1  20    9.80    2.40
  -4   6  20    4.10    2.40
   1  -6 -20  230.18   24.10
  -1   6  20  228.28   20.20
  -2  -6 -20   53.39   13.90
   6  -8  20   56.69    7.80
   2   6  20   77.29    7.90
  -5  -6 -20  184.68   26.20
   6 -11  20  195.58   19.30
   5   6  20  224.98   18.90
  -7  -5 -20    2.00    8.10
   7   5  20    8.20    3.60
   7   2  20   56.69    7.00
  -6   7  20   12.10    3.00
   3  -7 -20  946.01   80.09
  -3   7  20  919.51   77.39
   0  -7 -20    3.50    6.80
   0   7  20   -1.00    2.60
  -3  -7 -20  494.75   57.99
   3   7  20  615.54   51.39
   7 -10  20  691.03   51.49
  -6  -7 -20   -1.00   12.50
   7 -13  20    3.30    6.50
   6   7  20    1.30    5.60
  -8  -6 -20   34.70   19.70
   8   6  20   33.20   10.10
   8   3  20    4.60    3.00
   8   0  20  424.36   32.00
  -8   8  20  327.57   32.00
   5  -8 -20    2.90    4.10
  -5   8  20    0.60    2.90
   2  -8 -20  753.62   70.99
  -2   8  20  820.82   65.99
  -1  -8 -20   25.20   11.80
   1   8  20   29.90    4.90
   8  -9  20   24.80    4.80
  -4  -8 -20   12.90   10.50
   8 -12  20   26.90    6.50
   4   8  20   35.00    5.70
  -7  -8 -20   -1.50   15.60
  -9  -7 -20    5.10   16.40
  -9  -4 -20   -2.70   10.90
   9   4  20    5.70    4.70
   9   1  20  313.97   27.20
   7  -9 -20    1.00    3.60
  -7   9  20    3.30    3.30
   4  -9 -20  253.47   27.20
  -4   9  20  268.07   23.30
   1  -9 -20   77.19   15.70
  -1   9  20   78.49    9.40
  -2  -9 -20   -0.70    8.40
   2   9  20    2.90    3.80
   9 -11  20   -3.20    4.90
  -5  -9 -20   13.30   11.90
   5   9  20   17.80    8.80
   9 -14  20  -10.20    7.70
 -10  -5 -20   88.99   20.90
  10   2  20   26.60    6.10
  10  -1  20  227.48   20.30
   6 -10 -20  127.89   15.40
  -6  10  20  113.19   12.60
   3 -10 -20   23.80   10.60
  -3  10  20   14.60    4.40
   0 -10 -20   28.00   12.90
   0  10  20   32.20    5.70
  -3 -10 -20    7.30   10.10
   3  10  20   -8.80    6.30
  10 -13  20   -2.80    7.30
  -6 -10 -20    8.80   16.20
 -11  -3 -20   -1.60   13.80
  -8  11  20   14.50    8.60
   5 -11 -20    4.80    7.30
  -5  11  20    1.50    4.20
   2 -11 -20    7.90   10.50
  -2  11  20    5.80    4.30
  -1 -11 -20   20.60   14.80
   1  11  20    9.40    6.20
  -4 -11 -20   23.00   18.90
  12  -2  20    6.80    6.30
   7 -12 -20   11.50    7.90
  -7  12  20    3.00    4.50
  -7  12  20    4.00    5.30
   4 -12 -20    4.50    8.70
  -4  12  20    1.80    4.90
   1 -12 -20  102.09   21.10
  -1  12  20  115.99   15.40
  -2 -12 -20   -1.90   14.80
   9 -13 -20    2.20    6.80
  13  -4  20    3.30    4.60
   6 -13 -20   74.39   17.10
  -6  13  20   57.49    9.20
   3 -13 -20   28.20   12.70
  -3  13  20   37.90    8.10
   0 -13 -20   26.60   14.60
   0  13  20   28.40   13.60
   8 -14 -20  142.49   21.90
  -8  14  20  111.69   16.00
   5 -14 -20    0.10    8.80
  -5  14  20   11.50    8.20
   2 -14 -20   82.19   22.00
  10 -15 -20   -0.60    8.20
   7 -15 -20   11.90   11.30
   4 -15 -20    5.10   11.30
   9 -16 -20   12.40   12.20
   6 -16 -20    0.10   12.20
  -2   1  21  194.58   17.50
   1   1  21  210.28   17.70
  -1   2  21   90.39    8.70
  -2  -2 -21 1412.06  119.79
   2   2  21 1542.55  116.29
  -4   2  21 1276.97  115.79
   0  -3 -21   61.29    8.40
  -3   3 -21   51.49    6.40
   0  -3 -21   43.90    6.10
   0   3  21   62.59    6.40
  -3   0  21   52.59    5.80
  -3  -3 -21    3.30    5.80
   3   3  21   -2.00    2.10
  -5   4  21  262.07   23.80
   4   1  21  300.37   24.60
  -4   5 -21   11.20    4.20
  -1  -4 -21    8.40    5.90
  -1  -4 -21    1.90    4.20
   1   4  21    8.40    2.50
  -4  -4 -21   20.60    8.00
   5   2  21  215.18   18.90
  -4   5  21    4.90    2.30
   1  -5 -21   23.90    5.40
   1  -5 -21   24.90    6.50
  -1   5  21   40.70    5.30
  -5   7 -21   -0.80    4.50
  -2  -5 -21    7.50    7.50
   2   5  21    8.50    2.70
  -5  -5 -21   51.69   14.40
   6   3  21   42.90    6.20
   6   0  21    2.40    1.90
  -6   6  21    0.20    2.50
  -3   6  21   41.20    6.10
   0  -6 -21    5.10    6.00
   0   6  21    3.80    2.60
  -3  -6 -21  248.38   30.90
   3   6  21  298.17   24.60
  -6  -6 -21    6.50    9.50
   6   6  21   -2.20    4.40
  -7  -4 -21    4.80   10.60
   7   4  21    2.10    3.10
   7   1  21   83.39    8.90
  -5   7  21   19.40    3.70
   2  -7 -21  764.02   68.59
  -2   7  21  800.82   65.39
  -1  -7 -21   59.89   15.50
   1   7  21   44.00    6.10
  -4  -7 -21  193.78   27.90
   7 -11  21  214.88   20.80
   4   7  21  247.48   20.70
  -7  -7 -21    7.20   14.40
   7   7  21    4.60    9.90
  -8  -5 -21    5.50   10.30
   8   5  21    1.80    6.60
   8   2  21   69.99    8.50
  -7   8  21   15.70    3.90
   4  -8 -21  272.57   26.40
  -4   8  21  282.57   24.40
   1  -8 -21    1.30    6.40
  -1   8  21    5.70    3.50
   2   8  21   68.49    9.40
   8 -10  21   67.79    9.90
  -5  -8 -21    2.30   11.80
   5   8  21    7.20    6.80
  -9  -6 -21   31.60   21.80
   9   3  21    7.00    6.50
   9   0  21  439.86   37.30
   6  -9 -21  127.79   13.40
  -6   9  21  126.09   13.10
   3  -9 -21  244.38   26.40
  -3   9  21  244.08   22.00
   0  -9 -21  109.29   19.10
   0   9  21  116.89   12.50
  -3  -9 -21   10.00    9.90
   3   9  21   10.90    5.40
   9 -12  21    4.30    6.20
  -6  -9 -21   -0.10   14.80
 -10  -4 -21    8.00   12.40
  10  -2  21   -2.70    2.60
  -8  10  21    7.10    4.60
   5 -10 -21    5.00    5.70
  -5  10  21    1.30    4.00
   2 -10 -21    8.60   10.70
  -2  10  21    5.40    4.30
  -1 -10 -21   -1.40    8.00
  -4 -10 -21    5.50   13.90
   4  10  21   -1.50   14.70
   7 -11 -21   47.30    9.40
  -7  11  21   45.10    7.20
   4 -11 -21    0.10    6.20
  -4  11  21   -3.00    4.50
   1 -11 -21    7.20   11.00
  -2 -11 -21    1.30   13.40
   2  11  21   -8.30    8.40
  12  -3  21   -0.30    4.20
   6 -12 -21   11.00    8.20
  -6  12  21    8.70    6.10
   3 -12 -21    2.30    8.30
  -3  12  21    3.40    5.80
   0 -12 -21   33.20   16.70
   0  12  21   17.00    8.40
   8 -13 -21   54.79   11.80
  -8  13  21   43.70   11.10
   5 -13 -21   -2.60    7.30
  -5  13  21   11.90    7.70
  -2  13  21   80.69   12.40
  -1 -13 -21    1.50   15.50
   7 -14 -21   34.90   12.40
  -7  14  21   39.30   11.50
   4 -14 -21   -4.30    8.90
   1 -14 -21    6.30   12.70
   9 -15 -21   33.40   11.20
   6 -15 -21    5.50   11.70
  -1   1  22   59.69    6.50
  -2  -1 -22  521.05   47.90
  -2  -1 -22  576.64   49.10
   2   1  22  615.84   47.10
  -3   2  22  538.35   46.80
   0   2  22   75.79    7.60
  -2   0  22   67.09    7.20
  -3  -2 -22  215.28   24.80
   3   2  22  251.27   20.80
  -3   1 -22   85.19    9.60
  -2   3  22   97.19    9.00
  -1  -3 -22  105.19   12.10
  -1  -3 -22   78.89   10.30
   1   3  22  110.29    9.90
  -4  -3 -22  195.88   24.70
   4   3  22  235.48   19.60
  -4   3 -22  271.97   27.10
  -1   4  22  333.87   26.10
  -2  -4 -22   19.40    8.50
   2   4  22    8.70    2.90
  -5  -4 -22   41.70   13.10
   5   4  22   48.90    7.50
   5   1  22   19.40    3.30
  -5   5 -22   -3.40    3.30
   0  -5 -22    9.40    5.00
   0  -5 -22    1.20    3.80
   0   5  22    9.30    2.90
  -3  -5 -22    3.60    7.10
   3   5  22    4.30    2.80
  -6  -5 -22   -0.60    7.70
   6   5  22   -1.40    3.60
   6   2  22   52.99    7.10
  -5   6  22   35.10    4.80
   2  -6 -22   66.69    8.40
  -2   6  22   64.19    8.00
  -1  -6 -22   61.09   12.90
   1   6  22   69.99    8.40
  -4  -6 -22  194.98   29.20
   4   6  22  167.38   16.90
  -7  -6 -22    1.70   11.50
   7   6  22   -8.60   16.00
  -7  -3 -22    2.00    9.50
   7   3  22   -2.10    2.90
   7   0  22    0.60    2.20
  -4   7  22    5.90    3.30
   1  -7 -22   20.70    7.80
  -1   7  22   18.20    4.20
  -2  -7 -22   25.20   10.80
   2   7  22   26.80    5.10
  -5  -7 -22    5.10   11.40
   5   7  22    5.90    5.60
  -8  -7 -22  -12.00   15.10
  -8  -4 -22   19.20   11.50
   8   4  22   18.80    5.20
   8   1  22  241.78   21.60
  -6   8  22   96.09   10.80
   3  -8 -22  390.66   36.40
  -3   8  22  399.36   34.00
   0  -8 -22  151.18   20.80
  -3  -8 -22   27.50   10.80
   8 -11  22   49.99    7.60
   3   8  22   74.89   11.00
  -6  -8 -22   40.30   17.40
  -9  -5 -22   14.30   14.60
   9   2  22   -1.10    5.90
   9  -1  22   52.79    7.30
   5  -9 -22   18.60    5.40
  -5   9  22   18.30    4.70
   2  -9 -22   -0.70    5.90
  -2   9  22    1.90    6.30
  -1  -9 -22    1.00    9.10
   1   9  22    4.60    4.40
  -4  -9 -22    4.40   10.80
   4   9  22    6.80   13.60
 -10  -3 -22   45.70   17.40
  10   0  22   85.19   13.20
  -7  10  22   73.89   11.60
   4 -10 -22   17.70   13.30
  -4  10  22   13.10    4.80
   1 -10 -22   36.70   12.40
  -1  10  22   32.60    6.40
  -2 -10 -22    7.80   10.80
   2  10  22   13.30    9.50
  -5 -10 -22   18.90   14.70
  11   1  22   12.60    7.00
  11  -2  22   -9.50    5.80
   6 -11 -22   15.70    6.40
  -6  11  22    2.00    5.40
   3 -11 -22    5.50    7.90
  -3  11  22    6.70    5.30
   0 -11 -22   -2.30    8.90
   0  11  22   -5.70    6.60
  -3 -11 -22   -4.90   11.00
 -12  -2 -22   -0.40   14.70
  12  -1  22    0.40    7.90
  12  -4  22   -2.30    4.30
   5 -12 -22    4.60    7.50
  -5  12  22    5.10    6.60
  -2  12  22   30.10   11.50
  -1 -12 -22    7.80   13.90
   7 -13 -22   33.00   10.90
  -7  13  22   17.60   17.20
   4 -13 -22    2.80   19.40
  -4  13  22   27.20    9.10
   1 -13 -22   25.60   13.10
   6 -14 -22   -1.10    8.80
   3 -14 -22    8.10   10.70
   5 -15 -22   15.70   12.00
   0   1  23  136.89   12.50
  -1   0  23  136.19   12.40
  -2   2  23    1.60    2.30
  -3   1  23   32.50    4.20
  -3  -1 -23  169.18   18.30
  -4   3  23  147.39   14.70
   3   1  23  180.38   15.10
  -1   3  23  259.47   22.50
  -2  -3 -23   28.60    8.20
   2   3  23   42.50    6.10
  -4  -2 -23   40.80   10.50
   4   2  23   42.30    6.30
  -4   4 -23    6.70    3.10
   0  -4 -23    5.00    3.30
   0  -4 -23    6.70    3.10
   0   4  23    9.80    2.90
  -3  -4 -23  120.69   17.90
   3   4  23  133.39   12.70
  -5  -3 -23   63.49   14.30
   5   3  23   84.19    8.80
   5   0  23    2.80    2.30
  -5   5  23    8.00    3.00
  -1  -5 -23   28.10    8.00
  -4  -5 -23   -0.60    7.70
   4   5  23    2.90    3.20
  -6  -4 -23    2.30    7.20
   6   4  23    8.30    3.50
   6   1  23   41.10    6.30
  -4   6  23   27.10    5.70
  -6   5 -23    3.10    4.40
   1  -6 -23    2.40    3.90
   1  -6 -23   -0.80    3.80
  -1   6  23   -0.80    2.80
  -2  -6 -23   32.20   11.20
   2   6  23   23.30    6.20
  -5  -6 -23   -2.00    9.30
  -7  -5 -23    4.00    9.30
   7   5  23   30.40    6.40
   7   2  23   21.00    4.10
  -6   7  23   84.89   10.30
  -3   7  23   66.49    8.70
   0  -7 -23  144.59   18.70
   0   7  23  143.49   14.50
  -3  -7 -23   89.69   17.20
   3   7  23   90.79   11.50
  -6  -7 -23   14.80   13.80
   6   7  23    9.70    9.20
  -8  -6 -23    3.40   14.80
  -8  -3 -23   10.60   11.50
   8   3  23   13.00    4.70
   8   0  23   29.60    4.60
  -5   8  23   83.09   10.10
   2  -8 -23   33.90    8.50
  -2   8  23   23.60    5.10
  -1  -8 -23    8.40    9.00
   1   8  23   10.70    4.50
  -4  -8 -23    0.80    9.50
   4   8  23   -9.70    6.70
  -9  -4 -23   21.90   13.70
  -7   9  23   35.70    8.80
   9  -2  23   63.29    7.50
   4  -9 -23   28.10    6.50
  -4   9  23   29.10    6.40
   1  -9 -23   70.99   15.60
  -1   9  23   54.99    7.90
  -2  -9 -23    1.70    8.40
   2   9  23   -2.30    5.80
  -5  -9 -23    8.10   10.90
 -10  -2 -23   46.10   15.00
  10   2  23   20.40    7.80
  -6  10  23   40.00    7.30
   3 -10 -23   -3.10    5.20
  -3  10  23    8.40    5.30
   0 -10 -23   -0.50    8.20
   0  10  23   -2.20    5.90
  -3 -10 -23    3.20    9.40
   3  10  23   25.00   14.90
 -11  -3 -23    3.70   16.30
  11   0  23   -0.50    6.90
  11  -3  23    0.00    4.70
   5 -11 -23   -0.30    5.00
   2 -11 -23    4.40    8.50
  -2  11  23    2.50    6.60
  -1 -11 -23   -1.30    9.40
   1  11  23   -2.60   16.90
  12  -2  23    0.70    7.20
  -7  12  23   12.00    9.00
   4 -12 -23   31.30   10.10
  -4  12  23   42.70    9.60
   1 -12 -23    7.40   11.20
  -1  12  23   -5.90   12.00
   6 -13 -23    1.20    7.20
  -6  13  23    5.50   10.50
   3 -13 -23    6.10    9.20
  -3  13  23   -4.90   14.10
   5 -14 -23   31.40   11.70
   0   0  24  120.29   11.30
  -2   1  24   24.90    3.80
   1   1  24   24.10    3.90
  -1   2  24   98.19   10.90
  -2  -2 -24   11.20    6.00
   2   2  24   21.60    3.60
  -4   2  24   14.50    3.40
  -3   0 -24    0.60    3.60
  -3   3  24   -1.80    2.50
   3   0  24    0.90    2.20
  -3   0  24    3.70    2.70
   0   3  24    5.50    2.80
  -3  -3 -24   39.90   10.40
   3   3  24   44.80    6.60
  -4  -1 -24    4.30    5.50
  -4  -1 -24    1.00    4.70
  -5   4  24   -1.40    3.00
   4   1  24    1.50    2.30
  -4   2 -24   36.90    8.30
  -2   4  24   44.00    6.30
  -1  -4 -24   -0.40    3.40
  -1  -4 -24    0.00    3.70
   1   4  24    0.30    2.80
  -4  -4 -24   61.29   15.40
   4   4  24   50.29    7.90
  -5  -2 -24   50.89   12.80
   5   2  24   38.00    5.40
  -5   1 -24    0.50    4.00
  -4   5  24    8.50    3.40
  -1   5  24    5.90    3.10
  -2  -5 -24   60.39   12.30
   2   5  24   80.69    9.30
  -5  -5 -24   -1.70    7.70
   5   5  24    2.50    4.10
  -6  -3 -24    5.90    9.10
   6   3  24    0.40    3.40
  -6   6  24   17.40    4.50
  -3   6  24    2.60    3.40
  -3  -6 -24   -2.20    7.20
   3   6  24    7.20    4.00
  -6  -6 -24   37.10   15.40
   6   6  24    8.90    9.60
  -7  -4 -24    0.10    8.50
   7   4  24    2.90    5.20
   7   1  24    0.10    3.10
  -5   7  24   60.49    9.10
  -2   7  24   -1.10    3.60
  -1  -7 -24   52.89   15.60
   1   7  24   57.59    7.60
  -4  -7 -24    2.50    8.50
   4   7  24    8.50    6.00
  -7  -7 -24   17.50   18.40
  -8  -5 -24   13.20   13.10
  -8  -2 -24    7.80    9.20
   8   2  24    0.90    4.50
   8  -1  24   28.70    4.50
  -4   8  24    2.40    5.10
  -1   8  24   35.60    6.20
  -2  -8 -24    3.90    7.50
   2   8  24   18.80    6.00
  -5  -8 -24    3.00   13.50
  -9  -3 -24   27.10   11.60
   9   3  24   31.70    8.80
  -6   9  24   59.69    8.40
   3  -9 -24    2.30    3.90
   3  -9 -24    5.40    4.40
  -3   9  24    7.60    4.60
   0  -9 -24    7.30    8.80
   0   9  24   14.90    9.10
  -3  -9 -24    3.70   10.60
   3   9  24   11.40    8.80
 -10  -4 -24    2.50   13.20
  10   1  24   -1.00    7.20
  10  -2  24   -3.70    4.00
  -5  10  24    3.40    5.80
   2 -10 -24   13.80    7.30
  -2  10  24   19.00    6.70
  -1 -10 -24   -1.30   12.10
   1  10  24   -6.40    8.10
  -4 -10 -24    3.30   10.90
 -11  -2 -24    2.20   16.60
  11  -1  24   -0.40    7.30
   4 -11 -24    6.30    6.10
  -4  11  24  -12.30    7.10
   1 -11 -24    0.40    8.90
  -1  11  24   10.80    8.30
  -2 -11 -24   12.60   16.90
  12  -3  24   -4.20    7.70
  -6  12  24   -9.30   10.70
   3 -12 -24   14.00    8.50
  -3  12  24   28.80    9.60
   0 -12 -24    0.40   10.70
   2 -13 -24    3.60    9.30
   4 -14 -24    6.90   10.10
   1   0  25   28.80    4.40
  -1   1  25   35.40    5.40
   2   1  25    8.90    3.00
  -2   0  25   11.20    3.00
   0   2  25    8.20    3.20
  -3  -2 -25   12.30    5.50
   3   2  25    9.70    3.40
  -2   3  25    7.80    3.20
   1   3  25   -0.70    2.80
  -4  -3 -25   12.10    7.60
   4   3  25   10.50    3.50
  -4   0 -25    0.00    4.50
  -4   0 -25   -0.30    2.80
   4   0  25   -1.80    2.50
  -4   4  25    0.50    3.20
  -1   4  25    3.40    3.00
  -2  -4 -25   16.50    6.40
   2   4  25   14.70    4.00
  -5  -4 -25   -4.30    7.50
   5   4  25    4.70    4.00
  -5  -1 -25    3.70    6.50
  -5   2 -25    0.50    3.30
  -3   5  25   -1.20    3.20
   0   5  25    2.50    3.40
  -3  -5 -25   10.60    7.60
   3   5  25   12.70    4.10
  -6  -5 -25    1.10    8.90
   6   5  25    6.30    7.00
  -6  -2 -25    2.60    7.50
   6   2  25    4.00    3.50
  -5   6  25    3.20    4.10
  -6   4 -25    1.10    4.00
  -2   6  25    5.60    3.80
  -1  -6 -25   24.10    8.50
   1   6  25   32.30    5.60
  -4  -6 -25    5.20    9.00
   4   6  25    0.30    5.20
  -7  -6 -25   -6.80    9.60
  -7  -3 -25   10.00   10.80
   7   3  25   -1.60    5.00
   7   0  25   15.30    3.90
  -4   7  25    7.50    4.20
  -1   7  25   15.40    4.80
  -2  -7 -25   -0.20    7.10
  -5  -7 -25    4.70   11.50
   5   7  25   10.60    9.80
  -8  -4 -25   13.10   13.00
   8   1  25   -1.30    4.30
  -6   8  25   45.70    8.10
   8  -2  25   65.89    8.30
  -3   8  25    4.60    4.80
   0  -8 -25    7.70    6.80
   0   8  25   10.00    5.40
  -3  -8 -25   -4.40    7.80
   3   8  25   10.90    8.80
  -9  -2 -25    6.20   11.60
   9   2  25   18.60    8.00
   9  -1  25    7.80    4.50
  -5   9  25    5.10    5.90
   2  -9 -25    0.70    3.20
   2  -9 -25    4.60    4.60
  -2   9  25    6.70    7.20
  -1  -9 -25    4.40    8.80
   1   9  25   13.60    8.00
  -4  -9 -25    8.20   10.40
 -10  -3 -25    6.30   12.10
  10   0  25   12.70    7.30
  10  -3  25   12.20    5.00
  -4  10  25    1.50    6.70
   1 -10 -25   -2.30    6.40
  -1  10  25   -1.90    7.60
  -2 -10 -25    3.80    9.70
 -11  -1 -25   21.60   15.40
  11  -2  25    8.70    7.60
  -6  11  25   -1.40   12.10
  -3  11  25    5.60    8.80
   0 -11 -25   -0.50    8.60
  12  -4  25    2.30   18.00
   2 -12 -25   -2.90    7.20
   0   1  26    1.50    2.90
  -1   0  26    0.10    2.70
  -2   2  26    6.70    3.20
   2   0  26   -1.40    2.60
   1   2  26    7.10    3.20
  -3   1  26    3.30    3.40
  -4   3  26   20.50    4.60
   3   1  26   21.30    4.20
  -1   3  26    2.80    3.40
  -2  -1  26    3.90    3.30
   2   3  26    8.50    3.80
  -4  -2 -26    1.10    5.30
  -4  -2 -26    0.70    4.20
   4   2  26    9.50    3.60
  -3   4  26    3.50    3.50
   0   4  26   20.90    4.40
  -3  -4 -26    2.10    7.40
   3   4  26    5.40    3.90
  -5  -3 -26    5.00    7.20
   5   3  26   15.30    4.60
  -5   0 -26    3.00    5.70
  -5   0 -26   -1.50    3.40
   5   0  26    2.00    3.00
  -5   5  26    7.80    5.70
  -2   5  26    8.50    3.80
   1   5  26    3.40    3.90
  -4  -5 -26   -4.20    6.50
   4   5  26    0.50    5.00
  -6  -4 -26   20.90   11.40
   6   4  26   10.50    6.30
  -6  -1 -26   -3.10    6.60
   6   1  26    0.50    3.60
  -6   2 -26   -0.80    3.80
  -4   6  26   10.40    4.60
  -1   6  26    5.70    4.40
  -2  -6 -26    3.90    6.10
   2   6  26   -3.70    4.70
  -5  -6 -26   14.00   15.90
   5   6  26   18.00    8.30
  -7  -5 -26   -7.10    8.90
  -7  -2 -26    7.00    8.40
   7   2  26   14.10    5.50
   7  -1  26    1.40    3.30
  -3   7  26    0.40    4.70
   0   7  26   12.40    5.40
  -3  -7 -26    2.10    7.30
   3   7  26    3.90    7.00
  -6  -7 -26   -6.40   13.10
  -8  -3 -26    6.50    9.80
   8   3  26    2.30    9.20
   8   0  26    8.70    5.00
  -5   8  26   -2.20    6.00
  -2   8  26   11.70    5.60
  -1  -8 -26   -1.50    6.40
   1   8  26   -5.40    6.40
  -4  -8 -26   -0.10    8.70
  -9  -4 -26   -2.00   12.50
  -9  -1 -26   -2.00    9.10
   9   1  26    2.80    7.80
   9  -2  26    6.40    4.80
  -4   9  26    1.00    7.70
  -1   9  26    4.20    6.80
  -2  -9 -26   11.50    9.40
   2   9  26   20.10   15.80
  10  -1  26   23.80    8.20
  -3  10  26    2.10    8.60
   0 -10 -26    5.10    7.20
 -11   0 -26   -0.90   18.30
  11  -3  26    8.10    9.50
  -5  11  26  -14.60   10.70
  -2  11  26    6.40   17.50
  -1 -11 -26    9.60    9.90
   0   0  27   86.29    9.70
  -2   1  27    0.50    3.50
   1   1  27    3.20    3.20
  -1   2  27   27.30    4.90
   2  -1  27   29.60    4.90
  -1  -1  27   26.50    4.70
   2   2  27   28.10    7.30
  -3   3  27    5.50    4.10
   0   3  27   16.60    4.50
   3   3  27   -1.70    4.00
   4   1  27    5.20    3.90
  -2   4  27   28.80    5.20
   1   4  27   24.30    5.50
  -4  -4 -27   13.80    7.30
   4   4  27   21.30    6.00
  -5  -2 -27    4.70    6.00
   5   2  27    6.80    4.60
   5  -1  27   33.60    5.40
  -1   5  27   14.70    4.90
   2   5  27   39.70    7.00
   5   5  27   -2.60    7.60
  -6  -3 -27   22.60    9.70
   6   3  27   43.10    7.60
  -6   0 -27   12.80    7.90
   6   0  27   19.60    4.80
  -3   6  27   13.40    5.20
   0   6  27   23.30    6.10
  -3  -6 -27    0.50    5.80
   3   6  27   11.80    6.90
  -6  -6 -27   -0.70    9.60
  -7  -4 -27    9.10    9.30
   7   4  27   13.70   13.50
  -7  -1 -27   -2.90    8.00
   7   1  27   -0.20    5.40
   7  -2  27   27.30    5.30
  -2   7  27   13.10    6.10
   1   7  27    4.60    6.50
  -4  -7 -27   12.60    8.70
   4   7  27   18.60   12.20
  -8  -2 -27    9.40   10.10
   8   2  27   13.00    8.60
   8  -1  27   -2.30    5.10
  -1   8  27   10.80    6.90
  -2  -8 -27   -3.80    6.60
   2   8  27    9.00    9.10
  -9  -3 -27   -1.10   10.90
  -9   0 -27   13.00   10.20
   9   0  27   -0.50   14.20
   9  -3  27    3.30    5.80
  -3   9  27  -15.70    7.80
   0   9  27    2.90    9.10
  -3  -9 -27    6.10   10.00
 -10  -1 -27   -2.80   16.50
  10  -2  27   -8.90    8.40
  -2  10  27   -0.50    9.90
  -1 -10 -27    9.00    9.40
   0  -1  28  110.99   12.30
  -1   1  28  127.59   12.90
  -3   2  28   31.60    7.00
   0   2  28   27.10    5.60
  -2   0  28   24.50    5.20
   3   2  28   39.10    6.60
   3  -1  28    9.10    3.70
  -1  -2  28    9.00    4.50
   1   3  28   -4.10    4.40
   4   3  28   24.90    6.20
   4   0  28    6.40    4.20
  -1   4  28   29.80    6.00
   2   4  28   74.19    9.60
  -5  -4 -28   13.30   12.90
   5   4  28   18.40    9.10
  -3   5  28   51.49    8.10
   5  -2  28   64.89    9.30
   0   5  28   67.89    9.30
   3   5  28   15.80    6.80
  -6  -5 -28    7.90    8.50
  -6  -2 -28    7.40    6.90
   6   2  28   11.40    6.70
  -2   6  28    1.90    5.80
   1   6  28   58.69    9.70
  -4  -6 -28   12.00    7.30
   4   6  28    0.00   17.40
  -7  -3 -28   35.70   11.60
   7   3  28   46.60   12.90
  -7   0 -28    0.20    6.60
   7   0  28    2.80    6.10
  -1   7  28   -1.50    8.10
   2   7  28    7.50    8.80
  -5  -7 -28   -1.30    9.60
  -8  -1 -28    9.00    9.20
   8   1  28   22.30   10.00
   8  -2  28   30.30    7.30
  -3   8  28   33.40    8.70
   0   8  28    8.90    8.90
  -9  -2 -28   -2.90   13.20
  -9   1 -28    5.70    8.60
   9  -1  28   18.20    9.30
   9  -4  28    4.60    9.90
  -2   9  28   32.10   10.40
 -10   0 -28    7.40   12.70
   1  -1  29  153.18   15.30
   0   1  29  166.18   16.20
  -1   0  29  142.19   16.00
  -2   2  29    0.80    5.10
   0  -2  29   -1.50    4.10
   2   0  29    7.40    4.30
   1   2  29    6.90    5.30
   3   1  29   94.29   12.30
  -1   3  29   32.50    6.70
   3  -2  29   28.00    5.50
   4   2  29    5.30    6.00
   4  -1  29   11.60    4.90
  -3   4  29    6.20    6.60
   0   4  29   24.40    6.50
   3   4  29   65.49   10.00
   5   3  29   19.90    9.70
   5   0  29   46.90    7.50
  -2   5  29    9.90    8.10
   1   5  29  163.78   18.70
   4   5  29   20.00   10.50
  -6  -4 -29   20.40    7.80
   6   1  29    3.90    9.00
   6  -2  29  136.59   15.60
  -1   6  29    2.10    7.10
   2   6  29    8.80    8.80
  -7  -2 -29   -0.10    6.50
   7   2  29   13.80   13.30
   7  -1  29   79.59   13.00
  -3   7  29   22.00    9.20
   0   7  29   30.40   10.50
  -8   0 -29    6.30    6.70
   8  -3  29   16.20    8.00
  -2   8  29   31.00   10.50
  -9  -1 -29   -3.60    8.90
  -9   2 -29   14.20    7.60
   9  -2  29   10.00   12.10
 -10   1 -29    5.90    9.80
   0   0  30  213.28   21.30
   1  -2  30    8.50    4.90
   1   1  30   12.60    6.30
  -1   2  30   52.09    8.10
   2  -1  30   42.10    7.20
   2   2  30   92.09   11.60
   3   0  30   31.90    7.70
   0   3  30    4.80   10.10
   3   3  30   12.10    8.70
   4   1  30    0.40    6.90
  -2   4  30    5.20    8.00
   4  -2  30   14.40    5.40
   1   4  30   38.70    8.50
   4   4  30   -2.40   10.30
   5   2  30   11.20    8.50
   5  -1  30   39.00    8.00
  -1   5  30   14.20    7.90
   2   5  30   98.09   13.10
   6   0  30   55.79   10.40
   6  -3  30   10.10    7.00
   0   6  30   42.00   10.30
   7  -2  30   97.09   12.80
  -2   7  30   31.10   11.30
   8  -4  30   18.50   12.00
   1   0  31   60.79    9.90
   2   1  31   49.60    9.40
   2  -2  31   -3.70    5.60
   0   2  31    1.60    7.70
   3  -1  31    5.90    6.20
   1   3  31    7.20    8.30
   3  -4  31    0.40    6.00
   4   0  31    9.70    9.80
   4  -3  31    0.10    6.30
  -1   4  31    4.10    8.70
   2   4  31   36.30   10.10
   5   1  31   15.30    9.50
   5  -2  31  -19.10   13.90
   0   5  31   -0.30    9.90
   6  -1  31   83.29   13.10
   6  -4  31    7.10    8.60
   1   2  32    2.90   10.00
   2  -3  32   22.80    9.50
   3   1  32   39.50   11.40
   3  -2  32    2.00    7.70
   2   3  32   -0.40   11.90
   4  -1  32   -6.40    9.60
   0   4  32   -5.90   10.50
   4  -4  32    2.40    9.40
   5   0  32   13.80   13.10
   5  -3  32   -8.60   11.20
   3   0  33   -0.60   14.50
   0   0   0    0.00    0.00

_computing_structure_solution     'SHELXT 2018/2 (Sheldrick, 2018)'
;
_shelx_hkl_checksum              56359
_olex2_submission_special_instructions 'No special instructions were received'
loop_
_space_group_symop_operation_xyz
'x, y, z'
'-y, x-y, z'
'-x+y, -x, z'
'x+2/3, y+1/3, z+1/3'
'-y+2/3, x-y+1/3, z+1/3'
'-x+y+2/3, -x+1/3, z+1/3'
'x+1/3, y+2/3, z+2/3'
'-y+1/3, x-y+2/3, z+2/3'
'-x+y+1/3, -x+2/3, z+2/3'
'-x, -y, -z'
'y, -x+y, -z'
'x-y, x, -z'
'-x+2/3, -y+1/3, -z+1/3'
'y+2/3, -x+y+1/3, -z+1/3'
'x-y+2/3, x+1/3, -z+1/3'
'-x+1/3, -y+2/3, -z+2/3'
'y+1/3, -x+y+2/3, -z+2/3'
'x-y+1/3, x+2/3, -z+2/3'
loop_
_atom_site_label
_atom_site_type_symbol
_atom_site_fract_x
_atom_site_fract_y
_atom_site_fract_z
_atom_site_U_iso_or_equiv
_atom_site_adp_type
_atom_site_occupancy
_atom_site_site_symmetry_order
_atom_site_calc_flag
_atom_site_refinement_flags_posn
_atom_site_refinement_flags_adp
_atom_site_refinement_flags_occupancy
_atom_site_disorder_assembly
_atom_site_disorder_group
Ag01 Ag 0.52209(8) 0.36591(8) 0.39667(4) 0.0787(6) Uani 1 1 d . U . . .
Ag02 Ag 0.666667 0.333333 0.43763(7) 0.0795(8) Uani 1 3 d S TU P . .
Ag03 Ag 0.70005(8) 0.52668(9) 0.36940(4) 0.0871(7) Uani 1 1 d . U . . .
Cl04 Cl 0.666667 0.333333 0.333333 0.0556(18) Uani 1 6 d S T P . .
C005 C 0.5395(10) 0.4761(9) 0.3575(5) 0.077(4) Uani 1 1 d D U . . .
C006 C 0.5017(11) 0.2573(11) 0.4385(5) 0.081(4) Uani 1 1 d D U . . .
C007 C 0.5300(12) 0.5328(11) 0.3390(6) 0.099(5) Uani 1 1 d D U . . .
C008 C 0.594(2) 0.702(2) 0.3416(15) 0.162(12) Uani 0.5 1 d D U P A 1
H00A H 0.596029 0.695597 0.373428 0.243 Uiso 0.5 1 d R U P A 1
H00B H 0.581139 0.751897 0.335068 0.243 Uiso 0.5 1 d R U P A 1
H00C H 0.653109 0.716587 0.328788 0.243 Uiso 0.5 1 d R U P A 1
C009 C 0.5164(12) 0.6116(11) 0.3204(6) 0.123(5) Uani 1 1 d D U . . .
C00A C 0.4444(13) 0.1355(12) 0.5068(5) 0.151(6) Uani 1 1 d D U . . .
C00B C 0.4729(13) 0.2018(12) 0.4668(5) 0.103(5) Uani 1 1 d D U . . .
C6 C 0.3852(19) 0.1602(19) 0.5369(9) 0.229(11) Uani 1 1 d D U . . .
H6A H 0.421695 0.224631 0.546168 0.343 Uiso 1 1 calc R U . . .
H6B H 0.365706 0.120302 0.562822 0.343 Uiso 1 1 calc R U . . .
H6C H 0.330755 0.151339 0.520861 0.343 Uiso 1 1 calc R U . . .
C4 C 0.3873(18) 0.0375(14) 0.4876(8) 0.204(9) Uani 1 1 d D U . . .
H4A H 0.351962 0.038854 0.462361 0.306 Uiso 1 1 calc R U . . .
H4B H 0.344954 -0.003826 0.510047 0.306 Uiso 1 1 calc R U . . .
H4C H 0.428691 0.015314 0.478371 0.306 Uiso 1 1 calc R U . . .
C1 C 0.5308(16) 0.1478(19) 0.5312(10) 0.232(11) Uani 1 1 d D U . . .
H1A H 0.559031 0.118725 0.514227 0.348 Uiso 1 1 calc R U . . .
H1B H 0.513057 0.119006 0.560120 0.348 Uiso 1 1 calc R U . . .
H1C H 0.575135 0.213595 0.534530 0.348 Uiso 1 1 calc R U . . .
C5 C 0.527(3) 0.616(3) 0.2697(7) 0.142(10) Uani 0.5 1 d D U P A 1
H5A H 0.589730 0.630519 0.262001 0.213 Uiso 0.5 1 calc R U P A 1
H5B H 0.516233 0.664447 0.258143 0.213 Uiso 0.5 1 calc R U P A 1
H5C H 0.482616 0.556847 0.256901 0.213 Uiso 0.5 1 calc R U P A 1
C3 C 0.4204(18) 0.596(3) 0.3341(13) 0.131(10) Uani 0.5 1 d D U P A 1
H3A H 0.372585 0.545663 0.316718 0.196 Uiso 0.5 1 calc R U P A 1
H3B H 0.418054 0.652386 0.328901 0.196 Uiso 0.5 1 calc R U P A 1
H3C H 0.410194 0.580054 0.365245 0.196 Uiso 0.5 1 calc R U P A 1
C2 C 0.483(3) 0.651(3) 0.3577(12) 0.158(14) Uani 0.5 1 d D U P A 2
H2A H 0.432522 0.599702 0.373610 0.237 Uiso 0.5 1 calc R U P A 2
H2B H 0.461544 0.690302 0.345179 0.237 Uiso 0.5 1 calc R U P A 2
H2C H 0.534078 0.686524 0.377916 0.237 Uiso 0.5 1 calc R U P A 2
C10 C 0.436(3) 0.545(3) 0.2893(14) 0.179(15) Uani 0.5 1 d D U P A 2
H10A H 0.427627 0.579262 0.265535 0.268 Uiso 0.5 1 d R U P A 2
H10B H 0.379967 0.514422 0.307095 0.268 Uiso 0.5 1 d R U P A 2
H10C H 0.448837 0.498592 0.276895 0.268 Uiso 0.5 1 d R U P A 2
C7 C 0.601(2) 0.686(3) 0.2950(14) 0.157(13) Uani 0.5 1 d D U P A 2
H7A H 0.656132 0.683030 0.303817 0.235 Uiso 0.5 1 calc R U P A 2
H7B H 0.610357 0.746807 0.301801 0.235 Uiso 0.5 1 calc R U P A 2
H7C H 0.591303 0.674305 0.263485 0.235 Uiso 0.5 1 calc R U P A 2
O1 O 0.333333 0.666667 0.166667 0.42(6) Uiso 1 6 d S . P . .
H1 H 0.372440 0.722970 0.173970 0.625 Uiso 0.1667 1 d R U P . .
loop_
_atom_site_aniso_label
_atom_site_aniso_U_11
_atom_site_aniso_U_22
_atom_site_aniso_U_33
_atom_site_aniso_U_23
_atom_site_aniso_U_13
_atom_site_aniso_U_12
Ag01 0.0891(9) 0.0818(9) 0.0768(10) 0.0171(6) 0.0148(6) 0.0513(7)
Ag02 0.0829(9) 0.0829(9) 0.0727(14) 0.000 0.000 0.0415(5)
Ag03 0.0782(9) 0.0982(10) 0.0826(11) 0.0054(6) 0.0027(6) 0.0423(7)
Cl04 0.060(3) 0.060(3) 0.047(4) 0.000 0.000 0.0299(13)
C005 0.079(7) 0.071(8) 0.092(11) 0.006(7) 0.006(8) 0.047(7)
C006 0.085(7) 0.092(9) 0.067(9) 0.020(6) 0.024(7) 0.046(7)
C007 0.099(10) 0.107(10) 0.121(13) 0.042(9) 0.043(9) 0.073(9)
C008 0.171(18) 0.123(12) 0.22(3) 0.01(2) -0.02(2) 0.093(15)
C009 0.141(10) 0.116(9) 0.145(10) 0.036(7) 0.014(8) 0.090(8)
C00A 0.184(16) 0.148(11) 0.106(14) 0.063(9) 0.041(9) 0.071(12)
C00B 0.119(10) 0.109(10) 0.086(10) 0.033(8) 0.036(9) 0.060(9)
C6 0.258(18) 0.245(18) 0.159(15) 0.063(13) 0.111(13) 0.107(14)
C4 0.243(18) 0.134(9) 0.191(17) 0.060(10) 0.018(13) 0.060(11)
C1 0.253(16) 0.242(19) 0.190(18) 0.077(14) -0.031(12) 0.115(13)
C5 0.16(2) 0.14(2) 0.146(11) 0.057(12) 0.021(13) 0.091(16)
C3 0.150(13) 0.14(2) 0.15(2) 0.017(16) 0.000(13) 0.114(13)
C2 0.19(3) 0.14(3) 0.20(2) 0.026(17) 0.04(2) 0.13(2)
C10 0.18(2) 0.19(3) 0.20(3) 0.01(2) -0.04(2) 0.117(18)
C7 0.18(2) 0.16(2) 0.15(3) 0.09(2) 0.028(18) 0.100(16)
loop_
_atom_type_symbol
_atom_type_description
_atom_type_scat_dispersion_real
_atom_type_scat_dispersion_imag
_atom_type_scat_source
C C 0.0137 0.0067 'International Tables Vol C Tables 4.2.6.8 and 6.1.1.4'
H H 0.0000 0.0000 'International Tables Vol C Tables 4.2.6.8 and 6.1.1.4'
Ag Ag 0.0782 3.3823 'International Tables Vol C Tables 4.2.6.8 and 6.1.1.4'
Cl Cl 0.3281 0.5435 'International Tables Vol C Tables 4.2.6.8 and 6.1.1.4'
O O 0.0389 0.0241 'International Tables Vol C Tables 4.2.6.8 and 6.1.1.4'
loop_
_geom_angle_atom_site_label_1
_geom_angle_atom_site_label_2
_geom_angle_atom_site_label_3
_geom_angle
_geom_angle_site_symmetry_1
_geom_angle_site_symmetry_3
_geom_angle_publ_flag
Ag02 Ag01 Ag03 119.47(6) . 18_545 ?
Ag02 Ag01 Ag03 74.51(4) . 2_655 ?
Ag03 Ag01 Ag02 75.29(4) . . ?
Ag03 Ag01 Ag03 120.31(6) . 2_655 ?
Ag03 Ag01 Ag03 75.67(4) 2_655 18_545 ?
Ag03 Ag01 Ag03 76.46(4) . 18_545 ?
C005 Ag01 Ag02 128.9(4) . . ?
C005 Ag01 Ag03 128.9(4) . 2_655 ?
C005 Ag01 Ag03 53.6(4) . . ?
C005 Ag01 Ag03 53.3(4) . 18_545 ?
C005 Ag01 C006 177.1(6) . . ?
C006 Ag01 Ag02 52.4(4) . . ?
C006 Ag01 Ag03 127.5(4) . . ?
C006 Ag01 Ag03 53.4(5) . 2_655 ?
C006 Ag01 Ag03 129.1(5) . 18_545 ?
Ag01 Ag02 Ag01 103.98(5) 3_665 . ?
Ag01 Ag02 Ag01 103.98(5) 2_655 3_665 ?
Ag01 Ag02 Ag01 103.98(5) 2_655 . ?
C006 Ag02 Ag01 147.6(3) 2_655 . ?
C006 Ag02 Ag01 83.6(4) . 2_655 ?
C006 Ag02 Ag01 83.6(4) 3_665 . ?
C006 Ag02 Ag01 44.1(3) . . ?
C006 Ag02 Ag01 44.1(3) 3_665 3_665 ?
C006 Ag02 Ag01 83.6(4) 2_655 3_665 ?
C006 Ag02 Ag01 147.6(3) . 3_665 ?
C006 Ag02 Ag01 44.1(3) 2_655 2_655 ?
C006 Ag02 Ag01 147.6(3) 3_665 2_655 ?
C006 Ag02 C006 119.986(18) 2_655 . ?
C006 Ag02 C006 119.987(19) 2_655 3_665 ?
C006 Ag02 C006 119.987(15) 3_665 . ?
Ag01 Ag03 Ag01 104.63(6) . 3_665 ?
Ag01 Ag03 Ag01 102.62(5) 3_665 17 ?
Ag01 Ag03 Ag01 103.91(5) . 17 ?
C005 Ag03 Ag01 81.9(3) 17 3_665 ?
C005 Ag03 Ag01 82.2(4) . 17 ?
C005 Ag03 Ag01 43.2(3) 17 17 ?
C005 Ag03 Ag01 146.4(3) 17 . ?
C005 Ag03 Ag01 44.3(3) . . ?
C005 Ag03 Ag01 147.9(3) . 3_665 ?
C005 Ag03 C005 118.8(2) . 17 ?
C005 Ag03 C006 121.9(5) . 3_665 ?
C006 Ag03 Ag01 145.7(3) 3_665 17 ?
C006 Ag03 Ag01 83.7(4) 3_665 . ?
C006 Ag03 Ag01 43.7(3) 3_665 3_665 ?
C006 Ag03 C005 119.3(5) 3_665 17 ?
Ag01 C005 Ag03 83.6(5) . 18_545 ?
Ag01 C005 Ag03 82.1(5) . . ?
Ag03 C005 Ag03 99.7(5) . 18_545 ?
C007 C005 Ag01 164.9(13) . . ?
C007 C005 Ag03 100.1(14) . 18_545 ?
C007 C005 Ag03 111.4(13) . . ?
Ag01 C006 Ag02 83.6(5) . . ?
Ag01 C006 Ag03 82.8(5) . 2_655 ?
Ag02 C006 Ag03 97.8(5) . 2_655 ?
C00B C006 Ag01 161.8(15) . . ?
C00B C006 Ag02 109.6(14) . . ?
C00B C006 Ag03 106.9(15) . 2_655 ?
C005 C007 C009 173.1(18) . . ?
H00A C008 H00B 109.5 . . ?
H00A C008 H00C 109.5 . . ?
H00B C008 H00C 109.5 . . ?
C009 C008 H00A 111.2 . . ?
C009 C008 H00B 108.3 . . ?
C009 C008 H00C 108.8 . . ?
C007 C009 C008 106(2) . . ?
C007 C009 C10 93(2) . . ?
C5 C009 C007 110.1(14) . . ?
C5 C009 C008 110.1(13) . . ?
C3 C009 C007 109.7(14) . . ?
C3 C009 C008 109.8(12) . . ?
C3 C009 C5 111.2(13) . . ?
C2 C009 C007 109(2) . . ?
C2 C009 C10 112.5(14) . . ?
C7 C009 C007 113(2) . . ?
C7 C009 C2 114.1(14) . . ?
C7 C009 C10 112.9(14) . . ?
C6 C00A C00B 106.4(16) . . ?
C4 C00A C00B 105.6(16) . . ?
C4 C00A C6 111.7(11) . . ?
C4 C00A C1 111.4(11) . . ?
C1 C00A C00B 110.3(17) . . ?
C1 C00A C6 111.1(11) . . ?
C006 C00B C00A 174(2) . . ?
C00A C6 H6A 109.5 . . ?
C00A C6 H6B 109.5 . . ?
C00A C6 H6C 109.5 . . ?
H6A C6 H6B 109.5 . . ?
H6A C6 H6C 109.5 . . ?
H6B C6 H6C 109.5 . . ?
C00A C4 H4A 109.5 . . ?
C00A C4 H4B 109.5 . . ?
C00A C4 H4C 109.5 . . ?
H4A C4 H4B 109.5 . . ?
H4A C4 H4C 109.5 . . ?
H4B C4 H4C 109.5 . . ?
C00A C1 H1A 109.5 . . ?
C00A C1 H1B 109.5 . . ?
C00A C1 H1C 109.5 . . ?
H1A C1 H1B 109.5 . . ?
H1A C1 H1C 109.5 . . ?
H1B C1 H1C 109.5 . . ?
C009 C5 H5A 109.5 . . ?
C009 C5 H5B 109.5 . . ?
C009 C5 H5C 109.5 . . ?
H5A C5 H5B 109.5 . . ?
H5A C5 H5C 109.5 . . ?
H5B C5 H5C 109.5 . . ?
C009 C3 H3A 109.5 . . ?
C009 C3 H3B 109.5 . . ?
C009 C3 H3C 109.5 . . ?
H3A C3 H3B 109.5 . . ?
H3A C3 H3C 109.5 . . ?
H3B C3 H3C 109.5 . . ?
C009 C2 H2A 109.5 . . ?
C009 C2 H2B 109.5 . . ?
C009 C2 H2C 109.5 . . ?
H2A C2 H2B 109.5 . . ?
H2A C2 H2C 109.5 . . ?
H2B C2 H2C 109.5 . . ?
C009 C10 H10A 110.7 . . ?
C009 C10 H10B 107.3 . . ?
C009 C10 H10C 110.4 . . ?
H10A C10 H10B 109.5 . . ?
H10A C10 H10C 109.5 . . ?
H10B C10 H10C 109.5 . . ?
C009 C7 H7A 109.5 . . ?
C009 C7 H7B 109.5 . . ?
C009 C7 H7C 109.5 . . ?
H7A C7 H7B 109.5 . . ?
H7A C7 H7C 109.5 . . ?
H7B C7 H7C 109.5 . . ?
H1 O1 H1 180.0 2_665 14_455 ?
H1 O1 H1 113.6 14_455 15 ?
H1 O1 H1 113.6 13_565 15 ?
H1 O1 H1 66.4 13_565 3_565 ?
H1 O1 H1 66.4 14_455 3_565 ?
H1 O1 H1 113.6 . 3_565 ?
H1 O1 H1 180.0 . 13_565 ?
H1 O1 H1 113.6 2_665 3_565 ?
H1 O1 H1 113.6 . 2_665 ?
H1 O1 H1 66.4 . 15 ?
H1 O1 H1 66.4 13_565 2_665 ?
H1 O1 H1 66.4 2_665 15 ?
H1 O1 H1 66.4 . 14_455 ?
H1 O1 H1 180.0 3_565 15 ?
H1 O1 H1 113.6 13_565 14_455 ?
loop_
_geom_bond_atom_site_label_1
_geom_bond_atom_site_label_2
_geom_bond_distance
_geom_bond_site_symmetry_2
_geom_bond_publ_flag
Ag01 Ag02 2.9506(14) . ?
Ag01 Ag03 2.9112(16) . ?
Ag01 Ag03 2.9836(19) 18_545 ?
Ag01 Ag03 2.9642(16) 2_655 ?
Ag01 C005 2.054(13) . ?
Ag01 C006 2.066(14) . ?
Ag02 C006 2.351(15) 3_665 ?
Ag02 C006 2.351(15) . ?
Ag02 C006 2.351(15) 2_655 ?
Ag03 C005 2.365(14) . ?
Ag03 C005 2.407(16) 17 ?
Ag03 C006 2.398(16) 3_665 ?
C005 C007 1.160(14) . ?
C006 C00B 1.156(14) . ?
C007 C009 1.525(10) . ?
C008 H00A 0.9602 . ?
C008 H00B 0.9602 . ?
C008 H00C 0.9598 . ?
C008 C009 1.531(12) . ?
C009 C5 1.524(12) . ?
C009 C3 1.523(12) . ?
C009 C2 1.520(13) . ?
C009 C10 1.536(13) . ?
C009 C7 1.519(13) . ?
C00A C00B 1.526(10) . ?
C00A C6 1.524(8) . ?
C00A C4 1.514(12) . ?
C00A C1 1.518(13) . ?
C6 H6A 0.9600 . ?
C6 H6B 0.9600 . ?
C6 H6C 0.9600 . ?
C4 H4A 0.9600 . ?
C4 H4B 0.9600 . ?
C4 H4C 0.9600 . ?
C1 H1A 0.9600 . ?
C1 H1B 0.9600 . ?
C1 H1C 0.9600 . ?
C5 H5A 0.9600 . ?
C5 H5B 0.9600 . ?
C5 H5C 0.9600 . ?
C3 H3A 0.9600 . ?
C3 H3B 0.9600 . ?
C3 H3C 0.9600 . ?
C2 H2A 0.9600 . ?
C2 H2B 0.9600 . ?
C2 H2C 0.9600 . ?
C10 H10A 0.9600 . ?
C10 H10B 0.9602 . ?
C10 H10C 0.9602 . ?
C7 H7A 0.9600 . ?
C7 H7B 0.9600 . ?
C7 H7C 0.9600 . ?
O1 H1 0.8499 14_455 ?
O1 H1 0.8501 15 ?
O1 H1 0.8500 . ?
O1 H1 0.8500 3_565 ?
O1 H1 0.8500 13_565 ?
O1 H1 0.8500 2_665 ?
