#------------------------------------------------------------------------------
#$Date: 2024-02-04 13:32:11 +0200 (Sun, 04 Feb 2024) $
#$Revision: 289421 $
#$URL: file:///home/coder/svn-repositories/cod/cif/1/57/04/1570495.cif $
#------------------------------------------------------------------------------
#
# This file is available in the Crystallography Open Database (COD),
# http://www.crystallography.net/
#
# All data on this site have been placed in the public domain by the
# contributors.
#
data_1570495
loop_
_publ_author_name
'Chen, Jia-Nan'
'Pan, Zhong-Hua'
'Qiu, Qi-Hao'
'Wang, Cheng'
'Long, La-Sheng'
'Zheng, Lan-Sun'
'Kong, Xiang-Jian'
_publ_section_title
;
 Soluble Gd<sub>6</sub>Cu<sub>24</sub> clusters: effective molecular
 electrocatalysts for water oxidation.
;
_journal_issue                   2
_journal_name_full               'Chemical science'
_journal_page_first              511
_journal_page_last               515
_journal_paper_doi               10.1039/d3sc05849b
_journal_volume                  15
_journal_year                    2024
_chemical_formula_moiety         'C73 H156 Cu24 Gd6 N36 O87, 16(Cl1 O4)'
_chemical_formula_sum            'C73 H156 Cl16 Cu24 Gd6 N36 O151'
_chemical_formula_weight         6989.99
_space_group_crystal_system      trigonal
_space_group_IT_number           148
_space_group_name_Hall           '-R 3'
_space_group_name_H-M_alt        'R -3 :H'
_atom_sites_solution_hydrogens   geom
_audit_creation_date             2023-02-06
_audit_creation_method
;
Olex2 1.5
(compiled 2022.04.07 svn.rca3783a0 for OlexSys, GUI svn.r6498)
;
_audit_update_record
;
2023-02-25 deposited with the CCDC.	2023-12-05 downloaded from the CCDC.
;
_cell_angle_alpha                90
_cell_angle_beta                 90
_cell_angle_gamma                120
_cell_formula_units_Z            3
_cell_length_a                   20.0889(6)
_cell_length_b                   20.0889(6)
_cell_length_c                   57.4977(9)
_cell_measurement_reflns_used    10027
_cell_measurement_temperature    100.01(10)
_cell_measurement_theta_max      67.0960
_cell_measurement_theta_min      3.9780
_cell_volume                     20095.3(9)
_computing_cell_refinement       'CrysAlisPro 1.171.41.110a (Rigaku OD, 2021)'
_computing_data_collection       'CrysAlisPro 1.171.41.110a (Rigaku OD, 2021)'
_computing_data_reduction        'CrysAlisPro 1.171.41.110a (Rigaku OD, 2021)'
_computing_molecular_graphics    'Olex2 1.5 (Dolomanov et al., 2009)'
_computing_publication_material  'Olex2 1.5 (Dolomanov et al., 2009)'
_computing_structure_refinement  'SHELXL 2018/3 (Sheldrick, 2015)'
_computing_structure_solution    'SHELXT 2018/2 (Sheldrick, 2018)'
_diffrn_ambient_environment      N~2~
_diffrn_ambient_temperature      100.01(10)
_diffrn_detector                 'CCD plate'
_diffrn_detector_area_resol_mean 10.4741
_diffrn_detector_type            Atlas
_diffrn_measured_fraction_theta_full 0.994
_diffrn_measured_fraction_theta_max 0.994
_diffrn_measurement_details
;
List of Runs (angles in degrees, time in seconds):

  # Type    Start    End  Width  t~exp~   \w     \q     \k     \f   Frames
#--------------------------------------------------------------------------
  1  \w    -63.00  44.00   1.00    8.00    --  -36.19  37.00-180.00  107
  2  \w   -128.00 -82.00   1.00    8.00    --  -36.19 -77.00-120.00   46
  3  \w   -123.00 -95.00   1.00    8.00    --  -36.19 -77.00 150.00   28
  4  \w    -74.00  42.00   1.00    8.00    --  -36.19  77.00-120.00  116
  5  \w      8.00  57.00   1.00    8.00    --   36.19 -99.00 -30.00   49
  6  \w     -1.00  37.00   1.00    8.00    --   36.19  77.00  60.00   38
  7  \w     -2.00  42.00   1.00    8.00    --   36.19  77.00 120.00   44
  8  \w    103.00 136.00   1.00   13.57    --   99.62  77.00-120.00   33
  9  \w     64.00 172.00   1.00   13.57    --   99.62  45.00  30.00  108
 10  \w     63.00 134.00   1.00   13.57    --   99.62 178.00 -60.00   71
 11  \w    117.00 165.00   1.00   13.57    --   99.62  45.00 -30.00   48
 12  \w     32.00 108.00   1.00   13.57    --   99.62-111.00 -90.00   76
 13  \w     65.00 104.00   1.00   13.57    --   99.62  45.00 -30.00   39
 14  \w     30.00  57.00   1.00   13.57    --   99.62-111.00   0.00   27
 15  \w     64.00 135.00   1.00   13.57    --   99.62 178.00-120.00   71
 16  \w     24.00  55.00   1.00   13.57    --   99.62-111.00  90.00   31
 17  \w     82.00 108.00   1.00   13.57    --   99.62-111.00   0.00   26
 18  \w     64.00 144.00   1.00   13.57    --   99.62 178.00-180.00   80
 19  \w    105.00 159.00   1.00   13.57    --   99.62 111.00 -60.00   54
 20  \w     33.00  67.00   1.00   13.57    --   99.62-111.00 150.00   34
 21  \w     83.00 108.00   1.00   13.57    --   99.62-111.00 150.00   25
 22  \w     98.00 178.00   1.00   13.57    --   99.62  30.00 120.00   80
 23  \w     16.00 139.00   1.00   13.57    --   99.62 -77.00 -90.00  123
;
_diffrn_measurement_device       'four-circle diffractometer'
_diffrn_measurement_device_type  'SuperNova, Dual, Cu at home/near, Atlas'
_diffrn_measurement_method       '\w scans'
_diffrn_orient_matrix_type
'CrysAlisPro convention (1999,Acta A55,543-557)'
_diffrn_orient_matrix_UB_11      0.0075225000
_diffrn_orient_matrix_UB_12      -0.0412194000
_diffrn_orient_matrix_UB_13      0.0215683000
_diffrn_orient_matrix_UB_21      -0.0708817000
_diffrn_orient_matrix_UB_22      -0.0015196000
_diffrn_orient_matrix_UB_23      0.0108747000
_diffrn_orient_matrix_UB_31      -0.0526356000
_diffrn_orient_matrix_UB_32      -0.0783222000
_diffrn_orient_matrix_UB_33      -0.0115581000
_diffrn_radiation_monochromator  mirror
_diffrn_radiation_probe          x-ray
_diffrn_radiation_type           'Cu K\a'
_diffrn_radiation_wavelength     1.54184
_diffrn_reflns_av_R_equivalents  0.0619
_diffrn_reflns_av_unetI/netI     0.0364
_diffrn_reflns_Laue_measured_fraction_full 0.994
_diffrn_reflns_Laue_measured_fraction_max 0.994
_diffrn_reflns_limit_h_max       24
_diffrn_reflns_limit_h_min       -24
_diffrn_reflns_limit_k_max       23
_diffrn_reflns_limit_k_min       -23
_diffrn_reflns_limit_l_max       55
_diffrn_reflns_limit_l_min       -68
_diffrn_reflns_number            43102
_diffrn_reflns_point_group_measured_fraction_full 0.994
_diffrn_reflns_point_group_measured_fraction_max 0.994
_diffrn_reflns_theta_full        67.505
_diffrn_reflns_theta_max         67.505
_diffrn_reflns_theta_min         3.989
_diffrn_source                   'micro-focus sealed X-ray tube'
_diffrn_source_type              'SuperNova (Cu) X-ray Source'
_exptl_absorpt_coefficient_mu    13.733
_exptl_absorpt_correction_T_max  0.399
_exptl_absorpt_correction_T_min  0.106
_exptl_absorpt_correction_type   gaussian
_exptl_absorpt_process_details
;
CrysAlisPro 1.171.41.110a (Rigaku Oxford Diffraction, 2021)
Numerical absorption correction based on gaussian integration over
a multifaceted crystal model
Empirical absorption correction using spherical harmonics,
implemented in SCALE3 ABSPACK scaling algorithm.
;
_exptl_crystal_colour            blue
_exptl_crystal_colour_primary    blue
_exptl_crystal_density_diffrn    1.733
_exptl_crystal_description       block
_exptl_crystal_F_000             10218
_exptl_crystal_size_max          0.275
_exptl_crystal_size_mid          0.215
_exptl_crystal_size_min          0.158
_refine_diff_density_max         2.208
_refine_diff_density_min         -1.252
_refine_diff_density_rms         0.158
_refine_ls_extinction_method     none
_refine_ls_goodness_of_fit_ref   1.083
_refine_ls_hydrogen_treatment    constr
_refine_ls_matrix_type           full
_refine_ls_number_parameters     467
_refine_ls_number_reflns         7987
_refine_ls_number_restraints     312
_refine_ls_restrained_S_all      1.085
_refine_ls_R_factor_all          0.1122
_refine_ls_R_factor_gt           0.0920
_refine_ls_shift/su_max          0.001
_refine_ls_shift/su_mean         0.000
_refine_ls_structure_factor_coef Fsqd
_refine_ls_weighting_details
'w=1/[\s^2^(Fo^2^)+(0.1806P)^2^+202.1831P] where P=(Fo^2^+2Fc^2^)/3'
_refine_ls_weighting_scheme      calc
_refine_ls_wR_factor_gt          0.2772
_refine_ls_wR_factor_ref         0.3022
_reflns_Friedel_coverage         0.000
_reflns_number_gt                5823
_reflns_number_total             7987
_reflns_threshold_expression     'I > 2\s(I)'
_cod_data_source_file            d3sc05849b2.cif
_cod_data_source_block           Gd6Cu24-IM
_cod_depositor_comments
'Adding full bibliography for 1570494--1570495.cif.'
_cod_original_cell_volume        20095.2(12)
_cod_original_sg_symbol_H-M      'R -3'
_cod_database_code               1570495
_shelx_shelxl_version_number     2018/3
_chemical_oxdiff_formula         C73H150Cl16Cu24Gd6N36O145
_shelx_space_group_comment
;
The symmetry employed for this shelxl refinement is uniquely defined
by the following loop, which should always be used as a source of
symmetry information in preference to the above space-group names.
They are only intended as comments.
;
_shelx_estimated_absorpt_t_max   0.220
_shelx_estimated_absorpt_t_min   0.116
_olex2_refinement_description
;
1. Fixed Uiso
 At 1.2 times of:
  All C(H) groups, H11 of O11, All N(H) groups, All N(H,H) groups, All N(H,H,
  H,H) groups
 At 1.5 times of:
  All C(H,H,H) groups, H10 of O10, H24 of O24, H4 of O4, H16 of O16, H12 of O12
2. Restrained distances
 C4A-C10B = C4B-C10A
 1.52 with sigma of 0.01
 N1-C10A = N1-C10B
 1.47 with sigma of 0.01
 Cl3-O2
 1.46 with sigma of 0.01
 Cl3-O2 \\sim Cl3-O7
 with sigma of 0.01
3. Uiso/Uaniso restraints and constraints
All non-hydrogen atoms have similar U: within 2A with sigma of 0.01 and sigma
for terminal atoms of 0.02 within 2A
4. Others
 Sof(C4B)=Sof(H4BA)=Sof(H4BB)=Sof(H4BC)=1-FVAR(1)
 Sof(C4A)=Sof(H4AA)=Sof(H4AB)=Sof(H4AC)=FVAR(1)
 Fixed Sof: H1BC(0.5) H1BD(0.5) H1AA(0.5) H1AB(0.5) C10B(0.5) H10B(0.5)
 O15(0.5) C10A(0.5) H10A(0.5)
5.a Ternary CH refined with riding coordinates:
 O4(H4), O10(H10), O12(H12), O16(H16), O24(H24), C6(H6), C10B(H10B), C10A(H10A)
5.b Secondary CH2 refined with riding coordinates:
 N1(H1BC,H1BD), N1(H1AA,H1AB), N7(H7A,H7B)
5.c Me refined with riding coordinates:
 C4B(H4BA,H4BB,H4BC), C4A(H4AA,H4AB,H4AC)
5.d Aromatic/amide H refined with riding coordinates:
 C5(H5), C15(H15), N5(H5A), C2(H2), N23(H23), C7(H7), C3(H3), C19(H19), O11(H11)
5.e Fitted pentagon refined as free rotating group:
 N11(C5,C15,N5,C2), N23(C7,N17,C3,C19)
5.f Idealised Me refined as rotating group:
 C9(H9A,H9B,H9C)
;
_shelx_res_file
;
TITL 1_a.res in R-3
    1_sq.res
    created by SHELXL-2018/3 at 21:58:23 on 06-Feb-2023
REM Old TITL 1 in R-3
REM SHELXT solution in R-3: R1 0.319, Rweak 0.025, Alpha 0.047
REM <I/s> 0.000 for 0 systematic absences, Orientation as input
REM Formula found by SHELXT: C66 N45 O98 Cl80 Cu14 Gd18
CELL 1.54184 20.0889 20.0889 57.4977 90 90 120
ZERR 3 0.0006 0.0006 0.0009 0 0 0
LATT 3
SYMM -Y,+X-Y,+Z
SYMM +Y-X,-X,+Z
SFAC C H Cl Cu Gd N O
UNIT 219 468 48 72 18 108 453
EQIV $1 1-Y+X,+X,1-Z
SIMU 0.01 0.02 2
DFIX 1.52 0.01 C4A C10B C4B C10A
DFIX 1.47 0.01 N1 C10A N1 C10B
SADI 0.01 Cl3 O2 Cl3 O7
DFIX 1.46 0.01 Cl3 O2

L.S. 20 0 109
PLAN  26
SIZE 0.158 0.215 0.275
TEMP -173
CONF
HTAB O4 O19_$1
BIND O11 Cu3
BIND Cu2 O26
BIND Cu2 O11
BIND Cu3 O8
MORE -1
BOND $H
ABIN
fmap 2 53
acta
OMIT -5 3 4
OMIT -4 6 11
OMIT 0 0 15
REM <olex2.extras>
REM <HklSrc "%.\\1_sq.hkl">
REM </olex2.extras>

WGHT    0.180600  202.183121
FVAR       0.04889   0.30934
GD1   5    0.985856    0.792346    0.450931    11.00000    0.10225    0.08381 =
         0.03054   -0.00319    0.00025    0.05096
CU1   4    0.992084    0.898047    0.546949    11.00000    0.08819    0.08296 =
         0.02607    0.00020   -0.00027    0.04599
CU4   4    1.081646    0.890245    0.500401    11.00000    0.09359    0.09261 =
         0.03086   -0.00449   -0.00420    0.05249
CU2   4    0.759523    0.693849    0.600688    11.00000    0.10550    0.08518 =
         0.04137    0.01163    0.01146    0.03703
CU3   4    0.663839    0.603643    0.554695    11.00000    0.12548    0.09102 =
         0.05106    0.00333    0.01576    0.01810
CL1   3    1.000000    1.000000    0.618412    10.33333    0.10412    0.10412 =
         0.03614    0.00000    0.00000    0.05206
CL4   3    0.876367    0.559328    0.653702    11.00000    0.19337    0.12963 =
         0.05442    0.01003    0.01472    0.11306
CL2   3    0.962661    0.662292    0.540598    11.00000    0.26064    0.18382 =
         0.08178    0.03069    0.01156    0.14779
O1    7    0.898830    0.763018    0.419017    11.00000    0.09817    0.07929 =
         0.04361   -0.01372   -0.00402    0.04023
O4    7    1.096406    0.902663    0.466405    11.00000    0.09178    0.09807 =
         0.03264   -0.00134   -0.00400    0.05136
AFIX  13
H4    2    1.144481    0.902957    0.461707    11.00000   -1.50000
AFIX   0
O6    7    0.849066    0.769003    0.582137    11.00000    0.10320    0.08489 =
         0.03446    0.01214    0.00412    0.04206
O3    7    0.976334    0.827647    0.580142    11.00000    0.09688    0.09280 =
         0.03969    0.01137    0.00389    0.04831
O10   7    0.913012    0.920271    0.558795    11.00000    0.08114    0.08398 =
         0.02803   -0.00354    0.00137    0.03882
AFIX  13
H10   2    0.917470    0.924463    0.576121    11.00000   -1.50000
AFIX   0
O12   7    1.072513    0.879620    0.534653    11.00000    0.09454    0.09253 =
         0.03142   -0.00270    0.00363    0.05125
AFIX  13
H12   2    1.065003    0.828819    0.539862    11.00000   -1.50000
AFIX   0
O14   7    0.745698    0.673341    0.533375    11.00000    0.12323    0.07650 =
         0.04178    0.00612    0.01179    0.03264
O16   7    1.180752    0.981381    0.507552    11.00000    0.09761    0.10393 =
         0.03154   -0.00074   -0.00113    0.05523
AFIX  13
H16   2    1.223350    0.976583    0.500258    11.00000   -1.50000
AFIX   0
O18   7    0.808016    0.675304    0.501170    11.00000    0.12649    0.07762 =
         0.03629    0.00131    0.00590    0.03417
O20   7    0.889747    0.665740    0.463412    11.00000    0.12751    0.06651 =
         0.05083   -0.00220    0.00288    0.03928

O22   7    0.928069    0.935516    0.609947    11.00000    0.10399    0.11768 =
         0.03689   -0.00473   -0.00576    0.04884
O24   7    0.700689    0.698782    0.574027    11.00000    0.09716    0.08955 =
         0.04300    0.00396    0.01043    0.03000
AFIX  13
H24   2    0.657093    0.705895    0.579170    11.00000   -1.50000
AFIX   0
O26   7    0.755000    0.807129    0.622730    11.00000    0.13881    0.09317 =
         0.04254    0.00322    0.00072    0.05421

O30   7    1.000000    1.000000    0.642782    10.33333    0.12676    0.12676 =
         0.03222    0.00000    0.00000    0.06338
O31   7    1.038626    0.728661    0.550422    11.00000    0.19477    0.13703 =
         0.07295   -0.00235   -0.01173    0.09796
N1    6    0.842827    0.704636    0.622199    11.00000    0.11868    0.10388 =
         0.05096    0.02026    0.01104    0.06026
PART 2
AFIX  23
H1BC  2    0.844292    0.732573    0.634846    10.50000   -1.20000
H1BD  2    0.831659    0.657207    0.627231    10.50000   -1.20000
AFIX  23
PART 1
H1AA  2    0.828021    0.705060    0.637130    10.50000   -1.20000
H1AB  2    0.848948    0.662971    0.620506    10.50000   -1.20000
AFIX   0
PART 0
C8    1    0.914822    0.786035    0.590367    11.00000    0.10412    0.09662 =
         0.04848    0.01914    0.00671    0.05300

O9    7    0.879502    0.625047    0.663195    11.00000    0.25365    0.13717 =
         0.06710    0.00691    0.01918    0.13448
O19   7    0.890237    0.663663    0.549000    11.00000    0.24075    0.17002 =
         0.07389    0.02177    0.03560    0.14202
O5    7    0.828270    0.490352    0.667250    11.00000    0.19974    0.13361 =
         0.08243    0.02841    0.00768    0.07959
O21   7    0.852635    0.550214    0.630540    11.00000    0.22652    0.15602 =
         0.06391    0.00300    0.00135    0.11984
AFIX  56
N11   6    0.578521    0.533918    0.572797    11.00000    0.14079    0.11035 =
         0.07504   -0.00243    0.02315    0.00471
C5    1    0.512911    0.536884    0.580519    11.00000    0.15840    0.13955 =
         0.11304   -0.00320    0.02042   -0.00480
AFIX  43
H5    2    0.500749    0.575636    0.576767    11.00000   -1.20000
AFIX  55
C15   1    0.468673    0.471756    0.594836    11.00000    0.15808    0.14130 =
         0.11478   -0.00046    0.01787   -0.01110
AFIX  43
H15   2    0.421719    0.459287    0.602342    11.00000   -1.20000
AFIX  55
N5    6    0.506942    0.428539    0.595961    11.00000    0.15093    0.13223 =
         0.09625    0.01254   -0.00188   -0.00863
AFIX  43
H5A   2    0.491327    0.385504    0.603735    11.00000   -1.20000
AFIX  55
C2    1    0.574832    0.466957    0.582341    11.00000    0.15165    0.12692 =
         0.09039    0.01132    0.00025   -0.00329
AFIX  43
H2    2    0.611368    0.450714    0.580021    11.00000   -1.20000
AFIX  56
N23   6    0.610028    0.525952    0.646007    11.00000    0.15655    0.13929 =
         0.08225    0.01949    0.01223   -0.02105
AFIX  43
H23   2    0.595265    0.485521    0.655004    11.00000   -1.20000
AFIX  55
C7    1    0.675443    0.558874    0.631237    11.00000    0.14573    0.12047 =
         0.07539    0.01453    0.00151   -0.00331
AFIX  43
H7    2    0.710953    0.541119    0.629334    11.00000   -1.20000
AFIX  55
N17   6    0.678461    0.622993    0.619810    11.00000    0.12701    0.10537 =
         0.05403    0.00828    0.01109    0.01228
C3    1    0.614911    0.629699    0.627518    11.00000    0.14391    0.12007 =
         0.08321    0.00218    0.02331    0.00945
AFIX  43
H3    2    0.602814    0.667647    0.622691    11.00000   -1.20000
AFIX  55
C19   1    0.572617    0.569724    0.643708    11.00000    0.14729    0.12640 =
         0.08259    0.00496    0.03424   -0.00975
AFIX  43
H19   2    0.527257    0.560504    0.651614    11.00000   -1.20000
AFIX   0
O25   7    0.963831    0.661740    0.513996    11.00000    0.25369    0.14020 =
         0.07466    0.02116   -0.01505    0.11167
C1    1    0.758393    0.641186    0.516017    11.00000    0.13144    0.07605 =
         0.04881    0.00465    0.01393    0.03332

O13   7    0.952648    0.570850    0.654553    11.00000    0.16938    0.19211 =
         0.13150   -0.00091    0.05095    0.10329
PART 1
C4B   1    0.985790    0.766864    0.624813   -21.00000    0.12548    0.11193 =
         0.05841    0.01754   -0.00010    0.06646
AFIX  33
H4BA  2    1.033129    0.815331    0.621608   -21.00000   -1.50000
H4BB  2    0.983147    0.754930    0.641430   -21.00000   -1.50000
H4BC  2    0.985623    0.725447    0.615761   -21.00000   -1.50000
AFIX   0
PART 0
C6    1    0.710967    0.555798    0.513787    11.00000    0.14795    0.09760 =
         0.06944   -0.00630    0.02128    0.02394
AFIX  13
H6    2    0.745801    0.536166    0.518668    11.00000   -1.20000
AFIX   0
O8    7    0.559982    0.616517    0.529126    11.00000    0.12251    0.18578 =
         0.21632    0.05949   -0.00151    0.00937
O27   7    0.952789    0.585329    0.547483    11.00000    0.30951    0.19229 =
         0.12899    0.04618    0.00006    0.15857
PART 2
C10B  1    0.918673    0.742271    0.610998    10.50000    0.11302    0.10076 =
         0.04822    0.02241    0.00476    0.06119
AFIX  13
H10B  2    0.930868    0.702245    0.605596    10.50000   -1.20000
AFIX   0
PART 0
N7    6    0.648522    0.524867    0.531196    11.00000    0.14101    0.09801 =
         0.06593    0.00458    0.01998    0.01900
AFIX  23
H7A   2    0.646832    0.483801    0.538458    11.00000   -1.20000
H7B   2    0.602727    0.508337    0.523879    11.00000   -1.20000
AFIX   0
C9    1    0.684086    0.523796    0.491534    11.00000    0.20202    0.14092 =
         0.10432   -0.02991    0.03168    0.01492
AFIX 137
H9A   2    0.627771    0.496698    0.491382    11.00000   -1.50000
H9B   2    0.701843    0.487568    0.487891    11.00000   -1.50000
H9C   2    0.703991    0.564917    0.479887    11.00000   -1.50000
AFIX   0

CL3   3    0.666667    0.333333    0.537813    10.33333    0.25599    0.25599 =
         0.12532    0.00000    0.00000    0.12799
C12   1    1.000000    1.000000    0.500000    10.16667    0.07161    0.07161 =
         0.04325    0.00000    0.00000    0.03581
O15   7    1.058555    0.992134    0.495011    10.50000    0.08859    0.09298 =
         0.07071   -0.00521   -0.00232    0.03424
O11   7    0.765861    0.591159    0.576973    11.00000    0.15556    0.09050 =
         0.05756    0.00307    0.00380    0.05185
AFIX  43
H11   2    0.792300    0.563013    0.576612    11.00000   -1.20000
AFIX   0

O2    7    0.652037    0.386421    0.550954    11.00000    0.31536    0.26816 =
         0.13003    0.00756   -0.00270    0.14505
O7    7    0.666667    0.333333    0.512753    10.33333    0.28763    0.28763 =
         0.15976    0.00000    0.00000    0.14381
PART 1
C10A  1    0.916780    0.774434    0.618057    10.50000    0.11300    0.10147 =
         0.04809    0.01800    0.01019    0.05859
AFIX  13
H10A  2    0.918439    0.818821    0.626461    10.50000   -1.20000
AFIX   0
PART 2
C4A   1    0.981921    0.797875    0.627230    21.00000    0.12749    0.10680 =
         0.04810    0.02275    0.00006    0.06304
AFIX  33
H4AA  2    1.031326    0.821553    0.619050    21.00000   -1.50000
H4AB  2    0.970806    0.837955    0.632225    21.00000   -1.50000
H4AC  2    0.984377    0.769939    0.640873    21.00000   -1.50000
AFIX   0
HKLF 4




REM  1_a.res in R-3
REM wR2 = 0.3022, GooF = S = 1.083, Restrained GooF = 1.085 for all data
REM R1 = 0.0920 for 5823 Fo > 4sig(Fo) and 0.1122 for all 7987 data
REM 467 parameters refined using 312 restraints

END

WGHT      0.1804    202.5780

REM Highest difference peak  2.208,  deepest hole -1.252,  1-sigma level  0.158
Q1    1   1.0387  0.8224  0.4537  11.00000  0.05    2.21
Q2    1   0.5668  0.6229  0.5003  11.00000  0.05    2.19
Q3    1   0.8370  0.5961  0.5667  11.00000  0.05    2.19
Q4    1   0.9866  0.8251  0.4422  11.00000  0.05    1.35
Q5    1   0.7138  0.7310  0.5992  11.00000  0.05    1.01
Q6    1   1.1319  0.9462  0.4988  11.00000  0.05    0.96
Q7    1   0.8334  0.5228  0.5662  11.00000  0.05    0.91
Q8    1   0.7053  0.6355  0.5586  11.00000  0.05    0.90
Q9    1   0.7713  0.5202  0.5150  11.00000  0.05    0.79
Q10   1   0.9025  0.6427  0.5880  11.00000  0.05    0.78
Q11   1   0.9379  0.5179  0.5180  11.00000  0.05    0.78
Q12   1   0.9312  0.5977  0.6389  11.00000  0.05    0.78
Q13   1   0.7988  0.7360  0.6037  11.00000  0.05    0.77
Q14   1   0.7151  0.3884  0.5203  11.00000  0.05    0.74
Q15   1   0.6300  0.5979  0.6352  11.00000  0.05    0.64
Q16   1   0.5037  0.4355  0.5113  11.00000  0.05    0.62
Q17   1   0.5054  0.5923  0.5212  11.00000  0.05    0.60
Q18   1   0.5999  0.5586  0.6448  11.00000  0.05    0.59
Q19   1   0.7111  0.3916  0.5391  11.00000  0.05    0.58
Q20   1   1.0521  0.9939  0.5149  11.00000  0.05    0.54
Q21   1   0.6614  0.2652  0.5289  11.00000  0.05    0.53
Q22   1   0.4537  0.4709  0.5790  11.00000  0.05    0.53
Q23   1   0.8786  0.8086  0.4183  11.00000  0.05    0.52
Q24   1   0.8147  0.5772  0.6585  11.00000  0.05    0.52
Q25   1   0.8838  0.7715  0.4128  11.00000  0.05    0.52
Q26   1   0.4946  0.4502  0.6005  11.00000  0.05    0.51
;
_shelx_res_checksum              14471
_shelx_fab_file
;
   -1    2    0    403.59      0.00
    0    3    0    -69.20      0.00
   -2    4    0     49.66      0.00
   -4    5    0     -5.10      0.00
   -1    5    0    -20.40      0.00
   -3    6    0    -77.68      0.00
    0    6    0    -47.29      0.00
   -5    7    0    -71.78      0.00
   -2    7    0    -80.26      0.00
   -7    8    0     26.28      0.00
   -4    8    0      0.01      0.00
   -1    8    0    -39.46      0.00
   -6    9    0     23.23      0.00
   -3    9    0     29.92      0.00
    0    9    0      2.41      0.00
   -8   10    0     29.49      0.00
   -5   10    0    -14.16      0.00
   -2   10    0     24.20      0.00
  -10   11    0     12.31      0.00
   -7   11    0     -6.92      0.00
   -4   11    0      5.03      0.00
   -1   11    0      7.70      0.00
   -9   12    0     -1.70      0.00
   -6   12    0     -2.44      0.00
   -3   12    0      7.45      0.00
    0   12    0      1.77      0.00
  -11   13    0      6.32      0.00
   -8   13    0      2.60      0.00
   -5   13    0     15.13      0.00
   -2   13    0     -0.74      0.00
  -13   14    0      1.88      0.00
  -10   14    0     -5.94      0.00
   -7   14    0     14.59      0.00
   -4   14    0     -6.00      0.00
   -1   14    0      0.99      0.00
  -12   15    0      2.02      0.00
   -9   15    0     -1.71      0.00
   -6   15    0      3.66      0.00
   -3   15    0      6.16      0.00
    0   15    0     -2.89      0.00
  -14   16    0      6.61      0.00
  -11   16    0     -1.41      0.00
   -8   16    0     -2.89      0.00
   -5   16    0      7.45      0.00
   -2   16    0     -0.06      0.00
  -16   17    0      0.49      0.00
  -13   17    0     -4.81      0.00
  -10   17    0      1.76      0.00
   -7   17    0      1.58      0.00
   -4   17    0      7.76      0.00
   -1   17    0     -3.96      0.00
  -15   18    0     -0.88      0.00
  -12   18    0     -5.14      0.00
   -9   18    0      8.98      0.00
   -6   18    0      1.73      0.00
   -3   18    0      9.24      0.00
    0   18    0      3.79      0.00
  -17   19    0      0.85      0.00
  -14   19    0     -7.05      0.00
  -11   19    0     -0.08      0.00
   -8   19    0      8.84      0.00
   -5   19    0     -0.73      0.00
   -2   19    0      8.69      0.00
  -19   20    0      2.01      0.00
  -16   20    0      3.52      0.00
  -13   20    0      0.23      0.00
  -10   20    0      1.74      0.00
   -7   20    0      2.94      0.00
   -4   20    0     -1.80      0.00
   -1   20    0      8.70      0.00
  -18   21    0      4.61      0.00
  -15   21    0      2.09      0.00
  -12   21    0     -5.25      0.00
   -9   21    0      6.35      0.00
   -6   21    0     -6.80      0.00
   -3   21    0     -2.64      0.00
  -17   22    0      3.32      0.00
  -14   22    0      6.65      0.00
  -11   22    0     -3.24      0.00
   -8   22    0      7.14      0.00
   -5   22    0     -6.08      0.00
  -16   23    0      0.99      0.00
  -13   23    0      3.11      0.00
  -10   23    0      2.31      0.00
   -7   23    0     -1.45      0.00
  -12   24    0      7.28      0.00
   -3    2    1   -153.08      0.00
    0    2    1     10.16      0.00
   -5    3    1     95.01      0.00
   -2    3    1   -178.33      0.00
    1    3    1      6.81      0.00
   -7    4    1      2.45      0.00
   -4    4    1    -11.62      0.00
   -1    4    1    -71.28      0.00
    2    4    1    -82.93      0.00
   -9    5    1     32.60      0.00
   -6    5    1    -33.84      0.00
   -3    5    1     24.87      0.00
    0    5    1    -25.40      0.00
    3    5    1     19.42      0.00
  -11    6    1    -39.12      0.00
   -8    6    1    -46.07      0.00
   -5    6    1    -12.74      0.00
   -2    6    1    -86.84      0.00
    1    6    1     59.00      0.00
    4    6    1    -10.10      0.00
  -13    7    1     15.10      0.00
  -10    7    1      3.04      0.00
   -7    7    1    -56.14      0.00
   -4    7    1    -42.37      0.00
   -1    7    1     29.38      0.00
    2    7    1     60.12      0.00
    5    7    1    -10.24      0.00
  -15    8    1     -1.04      0.00
  -12    8    1     -2.86      0.00
   -9    8    1      6.51      0.00
   -6    8    1     26.13      0.00
   -3    8    1     27.13      0.00
    0    8    1     32.76      0.00
    3    8    1      0.11      0.00
    6    8    1      7.41      0.00
  -17    9    1      7.97      0.00
  -14    9    1      1.37      0.00
  -11    9    1     10.86      0.00
   -8    9    1     51.86      0.00
   -5    9    1     21.43      0.00
   -2    9    1      7.67      0.00
    1    9    1      2.31      0.00
    4    9    1    -13.39      0.00
    7    9    1      2.20      0.00
  -19   10    1      6.33      0.00
  -16   10    1     -2.14      0.00
  -13   10    1      2.12      0.00
  -10   10    1     17.63      0.00
   -7   10    1     29.51      0.00
   -4   10    1     16.59      0.00
   -1   10    1     -9.82      0.00
    2   10    1      9.57      0.00
    5   10    1     -1.52      0.00
    8   10    1      2.10      0.00
  -21   11    1     -1.34      0.00
  -18   11    1      4.51      0.00
  -15   11    1      2.58      0.00
  -12   11    1      6.83      0.00
   -9   11    1     24.84      0.00
   -6   11    1    -37.78      0.00
   -3   11    1      9.56      0.00
    0   11    1      2.38      0.00
    3   11    1     -9.81      0.00
    6   11    1      2.15      0.00
    9   11    1     -8.52      0.00
  -23   12    1      1.51      0.00
  -20   12    1      6.76      0.00
  -17   12    1      3.58      0.00
  -14   12    1     -4.46      0.00
  -11   12    1     22.07      0.00
   -8   12    1     -2.83      0.00
   -5   12    1     -6.73      0.00
   -2   12    1      8.99      0.00
    1   12    1     -5.95      0.00
    4   12    1     -1.08      0.00
    7   12    1     -0.31      0.00
   10   12    1    -11.92      0.00
  -22   13    1      6.02      0.00
  -19   13    1      1.33      0.00
  -16   13    1     -4.44      0.00
  -13   13    1      0.59      0.00
  -10   13    1     -1.58      0.00
   -7   13    1      3.02      0.00
   -4   13    1    -14.75      0.00
   -1   13    1     -1.92      0.00
    2   13    1     -0.59      0.00
    5   13    1     -4.93      0.00
    8   13    1     -5.74      0.00
   11   13    1     -0.14      0.00
  -21   14    1      0.59      0.00
  -18   14    1     -1.63      0.00
  -15   14    1    -10.14      0.00
  -12   14    1      3.02      0.00
   -9   14    1     -6.28      0.00
   -6   14    1     20.67      0.00
   -3   14    1     -0.79      0.00
    0   14    1     -2.17      0.00
    3   14    1     -3.55      0.00
    6   14    1     -4.94      0.00
    9   14    1     -2.98      0.00
  -23   15    1      8.38      0.00
  -20   15    1     -4.24      0.00
  -17   15    1     -2.88      0.00
  -14   15    1     -5.27      0.00
  -11   15    1     -3.47      0.00
   -8   15    1     -8.01      0.00
   -5   15    1      5.97      0.00
   -2   15    1      5.34      0.00
    1   15    1     -9.52      0.00
    4   15    1     -4.98      0.00
    7   15    1     -0.88      0.00
  -22   16    1     -3.50      0.00
  -19   16    1      4.31      0.00
  -16   16    1     -4.84      0.00
  -13   16    1     -4.15      0.00
  -10   16    1     -0.70      0.00
   -7   16    1      7.68      0.00
   -4   16    1     15.06      0.00
   -1   16    1    -18.13      0.00
    2   16    1     -7.15      0.00
    5   16    1      2.90      0.00
  -21   17    1      0.85      0.00
  -18   17    1      0.56      0.00
  -15   17    1      4.62      0.00
  -12   17    1    -12.29      0.00
   -9   17    1      9.81      0.00
   -6   17    1     -0.88      0.00
   -3   17    1      4.40      0.00
    0   17    1    -11.35      0.00
    3   17    1      1.02      0.00
    6   17    1     -2.42      0.00
  -20   18    1      3.02      0.00
  -17   18    1     -0.33      0.00
  -14   18    1     -4.49      0.00
  -11   18    1      2.93      0.00
   -8   18    1      6.98      0.00
   -5   18    1      3.44      0.00
   -2   18    1      2.09      0.00
    1   18    1      0.40      0.00
    4   18    1     -4.11      0.00
  -22   19    1     -4.77      0.00
  -19   19    1      3.68      0.00
  -16   19    1     -1.99      0.00
  -13   19    1     -2.18      0.00
  -10   19    1      5.11      0.00
   -7   19    1      0.86      0.00
   -4   19    1      2.76      0.00
   -1   19    1      8.37      0.00
    2   19    1     -2.13      0.00
  -21   20    1      3.05      0.00
  -18   20    1     -1.71      0.00
  -15   20    1      0.36      0.00
  -12   20    1      5.64      0.00
   -9   20    1      5.10      0.00
   -6   20    1     -0.88      0.00
   -3   20    1      2.17      0.00
    0   20    1      2.74      0.00
  -20   21    1      1.16      0.00
  -17   21    1      1.29      0.00
  -14   21    1      6.43      0.00
  -11   21    1     -8.84      0.00
   -8   21    1      3.88      0.00
   -5   21    1     -3.78      0.00
   -2   21    1      2.65      0.00
  -16   22    1     -1.53      0.00
  -13   22    1      7.28      0.00
  -10   22    1     -3.30      0.00
   -7   22    1      3.50      0.00
   -4   22    1      1.88      0.00
  -15   23    1      0.15      0.00
  -12   23    1      1.97      0.00
   -9   23    1     -0.83      0.00
   -6   23    1      0.85      0.00
  -11   24    1     -0.28      0.00
   -2    2    2   -238.22      0.00
    1    2    2   -145.63      0.00
   -4    3    2     15.29      0.00
   -1    3    2   -156.90      0.00
    2    3    2      7.84      0.00
   -6    4    2    166.74      0.00
   -3    4    2    -37.75      0.00
    0    4    2    -98.70      0.00
    3    4    2    -17.97      0.00
   -8    5    2     83.83      0.00
   -5    5    2    119.71      0.00
   -2    5    2    -70.66      0.00
    1    5    2   -111.57      0.00
    4    5    2     17.55      0.00
  -10    6    2    -31.42      0.00
   -7    6    2    -47.24      0.00
   -4    6    2     77.03      0.00
   -1    6    2    -88.19      0.00
    2    6    2     32.30      0.00
    5    6    2    -23.51      0.00
  -12    7    2    -19.26      0.00
   -9    7    2     -4.22      0.00
   -6    7    2     31.93      0.00
   -3    7    2    -58.10      0.00
    0    7    2     79.71      0.00
    3    7    2      8.84      0.00
    6    7    2      1.42      0.00
  -14    8    2     -4.31      0.00
  -11    8    2    -30.29      0.00
   -8    8    2     30.97      0.00
   -5    8    2     19.27      0.00
   -2    8    2    -15.52      0.00
    1    8    2     22.78      0.00
    4    8    2      0.71      0.00
    7    8    2      4.54      0.00
  -16    9    2     -3.99      0.00
  -13    9    2      3.95      0.00
  -10    9    2     10.13      0.00
   -7    9    2     58.71      0.00
   -4    9    2     22.04      0.00
   -1    9    2    -47.00      0.00
    2    9    2     19.01      0.00
    5    9    2     -1.24      0.00
    8    9    2      8.64      0.00
  -18   10    2      6.66      0.00
  -15   10    2     -7.19      0.00
  -12   10    2     -5.31      0.00
   -9   10    2     27.57      0.00
   -6   10    2    -32.59      0.00
   -3   10    2    -15.14      0.00
    0   10    2    -11.88      0.00
    3   10    2      7.71      0.00
    6   10    2      2.56      0.00
    9   10    2     -5.31      0.00
  -20   11    2     -0.91      0.00
  -17   11    2      0.61      0.00
  -14   11    2      4.55      0.00
  -11   11    2      9.82      0.00
   -8   11    2      1.55      0.00
   -5   11    2    -31.00      0.00
   -2   11    2      9.11      0.00
    1   11    2     13.06      0.00
    4   11    2     -5.15      0.00
    7   11    2      2.42      0.00
   10   11    2     -5.29      0.00
  -22   12    2     -1.55      0.00
  -19   12    2      2.81      0.00
  -16   12    2      7.18      0.00
  -13   12    2      8.63      0.00
  -10   12    2     -2.44      0.00
   -7   12    2    -29.34      0.00
   -4   12    2    -14.64      0.00
   -1   12    2     15.90      0.00
    2   12    2    -12.77      0.00
    5   12    2      2.90      0.00
    8   12    2     -2.06      0.00
   11   12    2     -3.66      0.00
  -24   13    2      4.74      0.00
  -21   13    2     -0.99      0.00
  -18   13    2     -4.94      0.00
  -15   13    2     -0.13      0.00
  -12   13    2     16.60      0.00
   -9   13    2    -12.44      0.00
   -6   13    2     11.29      0.00
   -3   13    2     -7.43      0.00
    0   13    2     -9.24      0.00
    3   13    2     -1.70      0.00
    6   13    2      4.52      0.00
    9   13    2    -10.73      0.00
  -23   14    2      8.32      0.00
  -20   14    2     -7.08      0.00
  -17   14    2     -4.36      0.00
  -14   14    2     -1.23      0.00
  -11   14    2     -0.09      0.00
   -8   14    2    -11.56      0.00
   -5   14    2      3.06      0.00
   -2   14    2     -1.11      0.00
    1   14    2     -6.81      0.00
    4   14    2     -3.07      0.00
    7   14    2     -3.54      0.00
  -22   15    2      0.76      0.00
  -19   15    2     -8.93      0.00
  -16   15    2     -2.90      0.00
  -13   15    2     -4.45      0.00
  -10   15    2     -1.15      0.00
   -7   15    2     13.74      0.00
   -4   15    2      4.24      0.00
   -1   15    2    -15.71      0.00
    2   15    2     -5.52      0.00
    5   15    2     -1.54      0.00
    8   15    2     -0.68      0.00
  -21   16    2      2.53      0.00
  -18   16    2     -6.01      0.00
  -15   16    2      2.32      0.00
  -12   16    2    -13.18      0.00
   -9   16    2      4.62      0.00
   -6   16    2      2.66      0.00
   -3   16    2      2.33      0.00
    0   16    2    -22.23      0.00
    3   16    2     -3.30      0.00
    6   16    2     -0.53      0.00
  -23   17    2      2.50      0.00
  -20   17    2     -0.23      0.00
  -17   17    2     -5.17      0.00
  -14   17    2      0.22      0.00
  -11   17    2     -6.57      0.00
   -8   17    2     11.49      0.00
   -5   17    2     -0.45      0.00
   -2   17    2    -10.57      0.00
    1   17    2     -1.04      0.00
    4   17    2     -1.90      0.00
  -22   18    2      2.09      0.00
  -19   18    2      0.21      0.00
  -16   18    2     -3.12      0.00
  -13   18    2     -6.73      0.00
  -10   18    2      4.33      0.00
   -7   18    2     -5.25      0.00
   -4   18    2      3.16      0.00
   -1   18    2      0.88      0.00
    2   18    2      3.01      0.00
  -21   19    2     -5.12      0.00
  -18   19    2     -4.80      0.00
  -15   19    2     -3.02      0.00
  -12   19    2      0.91      0.00
   -9   19    2     -0.68      0.00
   -6   19    2      1.93      0.00
   -3   19    2      3.73      0.00
    0   19    2      7.27      0.00
    3   19    2     -9.18      0.00
  -20   20    2      1.67      0.00
  -17   20    2     -4.66      0.00
  -14   20    2     -1.12      0.00
  -11   20    2     -7.81      0.00
   -8   20    2     -0.01      0.00
   -5   20    2     -1.08      0.00
   -2   20    2      3.88      0.00
    1   20    2     -1.20      0.00
  -19   21    2     -0.20      0.00
  -16   21    2     -1.56      0.00
  -13   21    2      5.88      0.00
  -10   21    2    -10.80      0.00
   -7   21    2      3.33      0.00
   -4   21    2     -2.39      0.00
   -1   21    2      0.50      0.00
  -18   22    2      3.11      0.00
  -15   22    2     -8.19      0.00
  -12   22    2     -5.82      0.00
   -9   22    2     -4.18      0.00
   -6   22    2      0.34      0.00
   -3   22    2      0.96      0.00
  -17   23    2     -0.28      0.00
  -14   23    2     -1.64      0.00
  -11   23    2     -3.86      0.00
   -8   23    2      0.63      0.00
  -13   24    2     -3.66      0.00
    1    1    3     37.59      0.00
   -1    2    3    134.69      0.00
    2    2    3     -5.66      0.00
   -3    3    3   -113.86      0.00
    0    3    3     86.64      0.00
    3    3    3     30.69      0.00
   -5    4    3    190.55      0.00
   -2    4    3     33.44      0.00
    1    4    3   -194.84      0.00
    4    4    3     27.41      0.00
   -7    5    3     50.03      0.00
   -4    5    3    147.95      0.00
   -1    5    3   -170.47      0.00
    2    5    3   -148.71      0.00
    5    5    3    -27.15      0.00
   -9    6    3      7.05      0.00
   -6    6    3    -25.99      0.00
   -3    6    3    -16.00      0.00
    0    6    3    -73.89      0.00
    3    6    3    -63.24      0.00
    6    6    3      5.96      0.00
  -11    7    3    -46.43      0.00
   -8    7    3    -48.34      0.00
   -5    7    3     26.09      0.00
   -2    7    3    -94.39      0.00
    1    7    3     11.73      0.00
    4    7    3     16.04      0.00
    7    7    3     -3.28      0.00
  -13    8    3     12.91      0.00
  -10    8    3    -20.62      0.00
   -7    8    3     28.76      0.00
   -4    8    3    -15.33      0.00
   -1    8    3    -26.01      0.00
    2    8    3     -9.63      0.00
    5    8    3      1.46      0.00
    8    8    3      4.91      0.00
  -15    9    3    -21.86      0.00
  -12    9    3     -8.10      0.00
   -9    9    3     12.41      0.00
   -6    9    3    -27.42      0.00
   -3    9    3    -23.34      0.00
    0    9    3    -46.72      0.00
    3    9    3     27.20      0.00
    6    9    3      2.56      0.00
    9    9    3      0.64      0.00
  -17   10    3     -0.19      0.00
  -14   10    3     -0.06      0.00
  -11   10    3     -7.74      0.00
   -8   10    3      5.39      0.00
   -5   10    3      5.38      0.00
   -2   10    3    -32.67      0.00
    1   10    3      0.26      0.00
    4   10    3      7.17      0.00
    7   10    3     -2.65      0.00
   10   10    3     -5.71      0.00
  -19   11    3      4.03      0.00
  -16   11    3     -0.24      0.00
  -13   11    3     -4.31      0.00
  -10   11    3    -16.20      0.00
   -7   11    3    -35.82      0.00
   -4   11    3      9.19      0.00
   -1   11    3     17.39      0.00
    2   11    3      0.89      0.00
    5   11    3      2.11      0.00
    8   11    3    -12.53      0.00
   11   11    3      1.59      0.00
  -21   12    3     -6.12      0.00
  -18   12    3      1.47      0.00
  -15   12    3     10.15      0.00
  -12   12    3     14.87      0.00
   -9   12    3    -16.73      0.00
   -6   12    3     -0.15      0.00
   -3   12    3     12.05      0.00
    0   12    3      6.27      0.00
    3   12    3     -3.90      0.00
    6   12    3     -1.04      0.00
    9   12    3     -1.18      0.00
   12   12    3      4.70      0.00
  -23   13    3      2.13      0.00
  -20   13    3      0.76      0.00
  -17   13    3      4.79      0.00
  -14   13    3     11.52      0.00
  -11   13    3     -4.49      0.00
   -8   13    3     -5.95      0.00
   -5   13    3      4.15      0.00
   -2   13    3      5.67      0.00
    1   13    3     -6.34      0.00
    4   13    3     -1.23      0.00
    7   13    3      0.12      0.00
   10   13    3     -7.93      0.00
  -22   14    3     -0.79      0.00
  -19   14    3    -11.10      0.00
  -16   14    3     11.66      0.00
  -13   14    3      9.69      0.00
  -10   14    3      3.80      0.00
   -7   14    3      6.73      0.00
   -4   14    3     -7.48      0.00
   -1   14    3     -8.77      0.00
    2   14    3      7.84      0.00
    5   14    3     -2.10      0.00
    8   14    3     -4.07      0.00
  -21   15    3     -7.03      0.00
  -18   15    3     -8.29      0.00
  -15   15    3     12.31      0.00
  -12   15    3      0.57      0.00
   -9   15    3     -2.39      0.00
   -6   15    3      7.04      0.00
   -3   15    3      0.52      0.00
    0   15    3     -7.79      0.00
    3   15    3      0.89      0.00
    6   15    3     -4.70      0.00
  -23   16    3     -0.08      0.00
  -20   16    3     -5.82      0.00
  -17   16    3     -0.29      0.00
  -14   16    3      9.68      0.00
  -11   16    3     -7.44      0.00
   -8   16    3      9.48      0.00
   -5   16    3     -8.84      0.00
   -2   16    3     -5.10      0.00
    1   16    3      2.08      0.00
    4   16    3     -4.24      0.00
    7   16    3      4.34      0.00
  -22   17    3      2.52      0.00
  -19   17    3     -5.85      0.00
  -16   17    3      3.05      0.00
  -13   17    3      0.43      0.00
  -10   17    3      0.03      0.00
   -7   17    3     -5.85      0.00
   -4   17    3      0.53      0.00
   -1   17    3     -4.06      0.00
    2   17    3      5.26      0.00
    5   17    3     -3.45      0.00
  -21   18    3     -5.99      0.00
  -18   18    3      1.22      0.00
  -15   18    3      0.64      0.00
  -12   18    3     -2.74      0.00
   -9   18    3     -5.10      0.00
   -6   18    3     -2.99      0.00
   -3   18    3      5.89      0.00
    0   18    3      8.24      0.00
    3   18    3     -3.73      0.00
  -20   19    3      1.91      0.00
  -17   19    3     -2.81      0.00
  -14   19    3      0.90      0.00
  -11   19    3     -3.44      0.00
   -8   19    3     -6.47      0.00
   -5   19    3      3.33      0.00
   -2   19    3      1.87      0.00
    1   19    3      8.81      0.00
  -19   20    3      2.48      0.00
  -16   20    3      2.66      0.00
  -13   20    3      1.66      0.00
  -10   20    3    -10.62      0.00
   -7   20    3     -0.94      0.00
   -4   20    3     -6.58      0.00
   -1   20    3      2.00      0.00
  -18   21    3      4.56      0.00
  -15   21    3     -5.63      0.00
  -12   21    3      1.23      0.00
   -9   21    3     -4.74      0.00
   -6   21    3     -4.23      0.00
   -3   21    3     -3.46      0.00
  -17   22    3      5.02      0.00
  -14   22    3     -3.30      0.00
  -11   22    3     -5.59      0.00
   -8   22    3     -3.45      0.00
   -5   22    3     -4.72      0.00
  -16   23    3     -3.37      0.00
  -13   23    3     -0.08      0.00
  -10   23    3     -5.08      0.00
   -7   23    3     -3.69      0.00
   -1    1    4     32.58      0.00
   -3    2    4   -228.28      0.00
    0    2    4    230.92      0.00
   -5    3    4     63.84      0.00
   -2    3    4    -59.29      0.00
    1    3    4    -20.76      0.00
   -7    4    4     66.65      0.00
   -4    4    4     34.26      0.00
   -1    4    4     17.89      0.00
    2    4    4    -72.11      0.00
   -9    5    4     24.05      0.00
   -6    5    4    -16.44      0.00
   -3    5    4     47.68      0.00
    0    5    4   -129.41      0.00
    3    5    4    -61.09      0.00
  -11    6    4    -15.00      0.00
   -8    6    4    -27.13      0.00
   -5    6    4     -6.84      0.00
   -2    6    4    -60.75      0.00
    1    6    4     20.59      0.00
    4    6    4    -18.94      0.00
  -13    7    4     14.04      0.00
  -10    7    4    -36.91      0.00
   -7    7    4    -53.62      0.00
   -4    7    4     -0.17      0.00
   -1    7    4     59.78      0.00
    2    7    4    -58.51      0.00
    5    7    4     20.45      0.00
  -15    8    4     -4.54      0.00
  -12    8    4     16.78      0.00
   -9    8    4    -19.93      0.00
   -6    8    4    -26.99      0.00
   -3    8    4    -13.12      0.00
    0    8    4     20.17      0.00
    3    8    4     17.26      0.00
    6    8    4     -9.44      0.00
  -17    9    4      5.89      0.00
  -14    9    4      1.80      0.00
  -11    9    4      9.56      0.00
   -8    9    4      8.51      0.00
   -5    9    4      4.62      0.00
   -2    9    4    -46.76      0.00
    1    9    4    -35.13      0.00
    4    9    4      8.08      0.00
    7    9    4      3.14      0.00
  -19   10    4      0.56      0.00
  -16   10    4    -12.00      0.00
  -13   10    4      0.28      0.00
  -10   10    4      4.17      0.00
   -7   10    4    -45.15      0.00
   -4   10    4     39.18      0.00
   -1   10    4    -22.03      0.00
    2   10    4    -17.01      0.00
    5   10    4      5.02      0.00
    8   10    4     -9.81      0.00
  -21   11    4     -3.78      0.00
  -18   11    4      4.46      0.00
  -15   11    4     -6.93      0.00
  -12   11    4      3.16      0.00
   -9   11    4      1.48      0.00
   -6   11    4      8.22      0.00
   -3   11    4     16.95      0.00
    0   11    4     -5.56      0.00
    3   11    4     -7.46      0.00
    6   11    4     -4.37      0.00
    9   11    4     -7.98      0.00
  -23   12    4      0.37      0.00
  -20   12    4      7.47      0.00
  -17   12    4     -2.62      0.00
  -14   12    4     -5.66      0.00
  -11   12    4    -12.20      0.00
   -8   12    4      5.23      0.00
   -5   12    4      7.41      0.00
   -2   12    4     10.12      0.00
    1   12    4    -13.16      0.00
    4   12    4     -2.29      0.00
    7   12    4    -12.34      0.00
   10   12    4      0.31      0.00
  -22   13    4     -4.52      0.00
  -19   13    4      1.62      0.00
  -16   13    4      4.22      0.00
  -13   13    4      8.31      0.00
  -10   13    4     -7.38      0.00
   -7   13    4      5.83      0.00
   -4   13    4     -4.05      0.00
   -1   13    4      0.67      0.00
    2   13    4     -0.75      0.00
    5   13    4    -11.44      0.00
    8   13    4     -4.33      0.00
   11   13    4     -4.49      0.00
  -21   14    4      2.57      0.00
  -18   14    4     -5.62      0.00
  -15   14    4      4.17      0.00
  -12   14    4     -1.85      0.00
   -9   14    4      4.18      0.00
   -6   14    4     -5.00      0.00
   -3   14    4      0.68      0.00
    0   14    4     -8.51      0.00
    3   14    4     -1.41      0.00
    6   14    4     -6.71      0.00
    9   14    4     -5.77      0.00
  -23   15    4      0.96      0.00
  -20   15    4     -1.93      0.00
  -17   15    4     -1.57      0.00
  -14   15    4      5.31      0.00
  -11   15    4      3.02      0.00
   -8   15    4     -5.90      0.00
   -5   15    4     -0.85      0.00
   -2   15    4     -0.39      0.00
    1   15    4      0.75      0.00
    4   15    4     -7.03      0.00
    7   15    4     -4.48      0.00
  -22   16    4     -0.73      0.00
  -19   16    4     -5.49      0.00
  -16   16    4     -0.16      0.00
  -13   16    4      5.66      0.00
  -10   16    4    -10.34      0.00
   -7   16    4      6.36      0.00
   -4   16    4     -5.06      0.00
   -1   16    4     -2.49      0.00
    2   16    4      2.26      0.00
    5   16    4     -6.63      0.00
  -21   17    4     -0.19      0.00
  -18   17    4      1.37      0.00
  -15   17    4      0.48      0.00
  -12   17    4     -1.32      0.00
   -9   17    4     -4.57      0.00
   -6   17    4     -3.76      0.00
   -3   17    4      6.37      0.00
    0   17    4     -2.63      0.00
    3   17    4     -6.61      0.00
    6   17    4     -0.50      0.00
  -20   18    4     -4.36      0.00
  -17   18    4     -1.78      0.00
  -14   18    4      2.55      0.00
  -11   18    4      0.41      0.00
   -8   18    4     -9.24      0.00
   -5   18    4      7.98      0.00
   -2   18    4      2.94      0.00
    1   18    4      6.42      0.00
    4   18    4     -9.45      0.00
  -22   19    4     -4.12      0.00
  -19   19    4      1.37      0.00
  -16   19    4      1.69      0.00
  -13   19    4      3.56      0.00
  -10   19    4     -5.01      0.00
   -7   19    4     -0.68      0.00
   -4   19    4      4.15      0.00
   -1   19    4     -4.22      0.00
    2   19    4      3.02      0.00
  -21   20    4      1.19      0.00
  -18   20    4     -5.13      0.00
  -15   20    4      3.24      0.00
  -12   20    4      7.27      0.00
   -9   20    4     -3.13      0.00
   -6   20    4     -0.36      0.00
   -3   20    4     -7.13      0.00
    0   20    4      1.43      0.00
  -20   21    4      4.03      0.00
  -17   21    4      5.85      0.00
  -14   21    4     -3.67      0.00
  -11   21    4     -1.05      0.00
   -8   21    4     -4.49      0.00
   -5   21    4     -9.82      0.00
   -2   21    4      2.39      0.00
  -16   22    4     -1.82      0.00
  -13   22    4      6.72      0.00
  -10   22    4     -3.70      0.00
   -7   22    4     -3.91      0.00
   -4   22    4     -2.12      0.00
  -15   23    4     -0.92      0.00
  -12   23    4     -4.00      0.00
   -9   23    4     -4.95      0.00
   -6   23    4     -3.00      0.00
    0    1    5   -161.79      0.00
   -2    2    5   -410.10      0.00
    1    2    5    -51.77      0.00
   -4    3    5    -98.41      0.00
   -1    3    5     61.08      0.00
    2    3    5     77.95      0.00
   -6    4    5     59.76      0.00
   -3    4    5    -65.93      0.00
    0    4    5   -106.45      0.00
    3    4    5    111.54      0.00
   -8    5    5     66.49      0.00
   -5    5    5      3.64      0.00
   -2    5    5    -50.76      0.00
    1    5    5     76.77      0.00
    4    5    5     24.74      0.00
  -10    6    5    -28.75      0.00
   -7    6    5    -16.51      0.00
   -4    6    5      1.41      0.00
   -1    6    5     68.40      0.00
    2    6    5    -21.97      0.00
    5    6    5     11.24      0.00
  -12    7    5     -0.26      0.00
   -9    7    5    -34.73      0.00
   -6    7    5      8.85      0.00
   -3    7    5     22.00      0.00
    0    7    5    141.41      0.00
    3    7    5    -22.41      0.00
    6    7    5    -11.46      0.00
  -14    8    5      1.83      0.00
  -11    8    5      1.90      0.00
   -8    8    5      0.04      0.00
   -5    8    5    -10.70      0.00
   -2    8    5    -15.96      0.00
    1    8    5    -16.23      0.00
    4    8    5     28.87      0.00
    7    8    5      3.26      0.00
  -16    9    5      2.47      0.00
  -13    9    5     20.26      0.00
  -10    9    5     13.13      0.00
   -7    9    5    -54.74      0.00
   -4    9    5     12.28      0.00
   -1    9    5    -42.80      0.00
    2    9    5    -14.10      0.00
    5    9    5     -0.22      0.00
    8    9    5      1.94      0.00
  -18   10    5      0.65      0.00
  -15   10    5     -7.65      0.00
  -12   10    5     15.59      0.00
   -9   10    5     21.10      0.00
   -6   10    5    -31.30      0.00
   -3   10    5    -35.85      0.00
    0   10    5     -3.45      0.00
    3   10    5     -9.23      0.00
    6   10    5      4.04      0.00
    9   10    5     -1.42      0.00
  -20   11    5      0.50      0.00
  -17   11    5     -3.78      0.00
  -14   11    5     -3.74      0.00
  -11   11    5      4.57      0.00
   -8   11    5      8.68      0.00
   -5   11    5      2.97      0.00
   -2   11    5     -4.50      0.00
    1   11    5    -21.43      0.00
    4   11    5      3.85      0.00
    7   11    5     -5.46      0.00
   10   11    5      2.15      0.00
  -22   12    5     -6.97      0.00
  -19   12    5      3.33      0.00
  -16   12    5    -10.03      0.00
  -13   12    5     10.07      0.00
  -10   12    5     -5.28      0.00
   -7   12    5     11.74      0.00
   -4   12    5      2.38      0.00
   -1   12    5      3.62      0.00
    2   12    5     -5.89      0.00
    5   12    5     -5.39      0.00
    8   12    5     -6.78      0.00
   11   12    5     -3.96      0.00
  -21   13    5      5.42      0.00
  -18   13    5    -11.30      0.00
  -15   13    5     -1.51      0.00
  -12   13    5     -3.49      0.00
   -9   13    5     10.08      0.00
   -6   13    5    -24.88      0.00
   -3   13    5     -6.13      0.00
    0   13    5     -2.31      0.00
    3   13    5     -6.03      0.00
    6   13    5     -8.35      0.00
    9   13    5     -5.04      0.00
  -23   14    5      1.56      0.00
  -20   14    5      1.71      0.00
  -17   14    5     -5.08      0.00
  -14   14    5     -0.57      0.00
  -11   14    5      0.66      0.00
   -8   14    5     -1.47      0.00
   -5   14    5     -1.15      0.00
   -2   14    5      9.20      0.00
    1   14    5    -10.29      0.00
    4   14    5    -11.45      0.00
    7   14    5     -6.46      0.00
  -22   15    5      5.74      0.00
  -19   15    5      3.10      0.00
  -16   15    5     -8.33      0.00
  -13   15    5      2.76      0.00
  -10   15    5     -5.21      0.00
   -7   15    5      0.32      0.00
   -4   15    5     -1.35      0.00
   -1   15    5     -5.79      0.00
    2   15    5     -4.27      0.00
    5   15    5     -1.89      0.00
    8   15    5     -1.14      0.00
  -21   16    5      7.73      0.00
  -18   16    5     -1.48      0.00
  -15   16    5     -5.83      0.00
  -12   16    5      5.02      0.00
   -9   16    5    -13.04      0.00
   -6   16    5     15.74      0.00
   -3   16    5     -6.24      0.00
    0   16    5     -9.34      0.00
    3   16    5     -2.45      0.00
    6   16    5     -3.87      0.00
  -23   17    5      1.72      0.00
  -20   17    5      0.90      0.00
  -17   17    5     -2.72      0.00
  -14   17    5     -5.18      0.00
  -11   17    5     -5.85      0.00
   -8   17    5     -2.36      0.00
   -5   17    5     -1.62      0.00
   -2   17    5      3.80      0.00
    1   17    5      0.07      0.00
    4   17    5     -5.64      0.00
  -22   18    5      1.90      0.00
  -19   18    5      0.38      0.00
  -16   18    5     -3.23      0.00
  -13   18    5     -2.59      0.00
  -10   18    5     -2.54      0.00
   -7   18    5     -2.79      0.00
   -4   18    5      7.38      0.00
   -1   18    5     -9.59      0.00
    2   18    5     -1.75      0.00
  -21   19    5     -1.68      0.00
  -18   19    5    -12.23      0.00
  -15   19    5      2.94      0.00
  -12   19    5     -0.94      0.00
   -9   19    5     -4.14      0.00
   -6   19    5      3.68      0.00
   -3   19    5      0.69      0.00
    0   19    5      0.55      0.00
    3   19    5     -3.25      0.00
  -20   20    5     -5.22      0.00
  -17   20    5      0.16      0.00
  -14   20    5     -0.82      0.00
  -11   20    5     -0.39      0.00
   -8   20    5     -2.37      0.00
   -5   20    5     -3.13      0.00
   -2   20    5     -2.79      0.00
    1   20    5      4.05      0.00
  -19   21    5    -10.24      0.00
  -16   21    5      4.48      0.00
  -13   21    5      1.03      0.00
  -10   21    5     -5.69      0.00
   -7   21    5     -0.92      0.00
   -4   21    5     -8.80      0.00
   -1   21    5      2.69      0.00
  -18   22    5     -3.71      0.00
  -15   22    5     -4.32      0.00
  -12   22    5     -5.24      0.00
   -9   22    5     -5.01      0.00
   -6   22    5     -1.84      0.00
   -3   22    5      3.78      0.00
  -17   23    5     -5.54      0.00
  -14   23    5      2.94      0.00
  -11   23    5    -12.75      0.00
   -8   23    5      1.89      0.00
    0    0    6    -79.44      0.00
    1    1    6    -93.71      0.00
   -1    2    6     -2.39      0.00
    2    2    6     84.95      0.00
   -3    3    6   -107.60      0.00
    0    3    6     36.81      0.00
    3    3    6    129.02      0.00
   -5    4    6     12.24      0.00
   -2    4    6     38.08      0.00
    1    4    6    -17.01      0.00
    4    4    6     74.76      0.00
   -7    5    6     -7.93      0.00
   -4    5    6     21.44      0.00
   -1    5    6    -90.11      0.00
    2    5    6     25.87      0.00
    5    5    6      9.97      0.00
   -9    6    6    -41.92      0.00
   -6    6    6     66.00      0.00
   -3    6    6     -1.34      0.00
    0    6    6    104.46      0.00
    3    6    6    -55.52      0.00
    6    6    6    -14.67      0.00
  -11    7    6    -28.59      0.00
   -8    7    6      6.43      0.00
   -5    7    6     34.40      0.00
   -2    7    6     55.01      0.00
    1    7    6    -28.78      0.00
    4    7    6     24.44      0.00
    7    7    6     -8.87      0.00
  -13    8    6     -4.32      0.00
  -10    8    6    -23.75      0.00
   -7    8    6     -8.24      0.00
   -4    8    6     41.28      0.00
   -1    8    6    -44.93      0.00
    2    8    6    -27.51      0.00
    5    8    6      7.88      0.00
    8    8    6      2.91      0.00
  -15    9    6     -1.78      0.00
  -12    9    6     10.91      0.00
   -9    9    6     -9.34      0.00
   -6    9    6    -58.46      0.00
   -3    9    6    -62.90      0.00
    0    9    6      2.15      0.00
    3    9    6     19.43      0.00
    6    9    6      2.14      0.00
    9    9    6     -3.09      0.00
  -17   10    6      4.51      0.00
  -14   10    6      5.47      0.00
  -11   10    6     -1.65      0.00
   -8   10    6    -17.29      0.00
   -5   10    6     -0.32      0.00
   -2   10    6    -57.56      0.00
    1   10    6      8.65      0.00
    4   10    6     10.48      0.00
    7   10    6     -4.33      0.00
   10   10    6      4.98      0.00
  -19   11    6     -0.09      0.00
  -16   11    6      1.45      0.00
  -13   11    6     15.35      0.00
  -10   11    6     -1.15      0.00
   -7   11    6      6.77      0.00
   -4   11    6      7.23      0.00
   -1   11    6     22.23      0.00
    2   11    6      2.44      0.00
    5   11    6      4.19      0.00
    8   11    6      0.90      0.00
   11   11    6      0.41      0.00
  -21   12    6     -0.15      0.00
  -18   12    6      2.17      0.00
  -15   12    6      9.09      0.00
  -12   12    6      5.50      0.00
   -9   12    6     12.56      0.00
   -6   12    6    -14.67      0.00
   -3   12    6     11.01      0.00
    0   12    6      8.06      0.00
    3   12    6      8.06      0.00
    6   12    6     -1.73      0.00
    9   12    6      0.00      0.00
  -23   13    6     -1.40      0.00
  -20   13    6      0.29      0.00
  -17   13    6     -4.78      0.00
  -14   13    6     14.79      0.00
  -11   13    6     -9.45      0.00
   -8   13    6     16.47      0.00
   -5   13    6      1.27      0.00
   -2   13    6      6.38      0.00
    1   13    6      5.31      0.00
    4   13    6     -5.21      0.00
    7   13    6     -8.24      0.00
   10   13    6     -3.85      0.00
  -22   14    6      3.44      0.00
  -19   14    6     -3.07      0.00
  -16   14    6      7.47      0.00
  -13   14    6      8.01      0.00
  -10   14    6     -0.27      0.00
   -7   14    6     -8.77      0.00
   -4   14    6     -3.89      0.00
   -1   14    6     13.93      0.00
    2   14    6     -5.54      0.00
    5   14    6     -5.12      0.00
    8   14    6     -2.34      0.00
  -21   15    6     -0.90      0.00
  -18   15    6      4.90      0.00
  -15   15    6     -0.75      0.00
  -12   15    6     16.85      0.00
   -9   15    6     -5.14      0.00
   -6   15    6     20.16      0.00
   -3   15    6     -5.28      0.00
    0   15    6     -2.22      0.00
    3   15    6     -2.41      0.00
    6   15    6      1.03      0.00
  -23   16    6      1.19      0.00
  -20   16    6      6.78      0.00
  -17   16    6     -0.32      0.00
  -14   16    6      1.42      0.00
  -11   16    6      8.18      0.00
   -8   16    6     -2.36      0.00
   -5   16    6     -2.08      0.00
   -2   16    6     -0.09      0.00
    1   16    6     -0.46      0.00
    4   16    6      5.75      0.00
    7   16    6      1.77      0.00
  -22   17    6     -0.97      0.00
  -19   17    6     -0.34      0.00
  -16   17    6      2.06      0.00
  -13   17    6     -2.37      0.00
  -10   17    6     -0.71      0.00
   -7   17    6     -0.13      0.00
   -4   17    6     -8.88      0.00
   -1   17    6     -0.74      0.00
    2   17    6      1.77      0.00
    5   17    6      1.56      0.00
  -21   18    6      2.32      0.00
  -18   18    6     -1.14      0.00
  -15   18    6      1.55      0.00
  -12   18    6     -7.11      0.00
   -9   18    6     -3.09      0.00
   -6   18    6     -8.49      0.00
   -3   18    6      6.14      0.00
    0   18    6     -0.80      0.00
    3   18    6     -4.73      0.00
  -20   19    6      0.06      0.00
  -17   19    6     -0.46      0.00
  -14   19    6      0.65      0.00
  -11   19    6     -4.39      0.00
   -8   19    6     -7.04      0.00
   -5   19    6     -3.58      0.00
   -2   19    6     -4.55      0.00
    1   19    6      3.61      0.00
  -19   20    6     -9.17      0.00
  -16   20    6     10.99      0.00
  -13   20    6     -5.09      0.00
  -10   20    6     -5.83      0.00
   -7   20    6     -2.14      0.00
   -4   20    6     -7.47      0.00
   -1   20    6      5.21      0.00
  -18   21    6      1.85      0.00
  -15   21    6      3.90      0.00
  -12   21    6     -5.02      0.00
   -9   21    6     -3.86      0.00
   -6   21    6      0.54      0.00
   -3   21    6     -1.60      0.00
  -17   22    6      1.89      0.00
  -14   22    6     -0.94      0.00
  -11   22    6    -13.61      0.00
   -8   22    6      0.28      0.00
   -5   22    6     -5.24      0.00
  -16   23    6     -0.90      0.00
  -13   23    6     -1.91      0.00
  -10   23    6     -6.25      0.00
   -7   23    6      4.81      0.00
   -1    1    7    102.47      0.00
   -3    2    7     75.73      0.00
    0    2    7    148.68      0.00
   -5    3    7     79.72      0.00
   -2    3    7    127.62      0.00
    1    3    7     -4.36      0.00
   -7    4    7     14.56      0.00
   -4    4    7    -22.55      0.00
   -1    4    7    -15.79      0.00
    2    4    7     31.52      0.00
   -9    5    7     14.85      0.00
   -6    5    7    -55.26      0.00
   -3    5    7    -21.78      0.00
    0    5    7    -55.79      0.00
    3    5    7    -12.12      0.00
  -11    6    7     23.56      0.00
   -8    6    7    -38.45      0.00
   -5    6    7     45.07      0.00
   -2    6    7     34.05      0.00
    1    6    7    -26.40      0.00
    4    6    7     23.55      0.00
  -13    7    7     -8.82      0.00
  -10    7    7    -19.05      0.00
   -7    7    7     56.17      0.00
   -4    7    7     39.12      0.00
   -1    7    7     36.29      0.00
    2    7    7    -69.34      0.00
    5    7    7     10.67      0.00
  -15    8    7      2.32      0.00
  -12    8    7     11.33      0.00
   -9    8    7      0.96      0.00
   -6    8    7    -18.01      0.00
   -3    8    7     80.66      0.00
    0    8    7    -23.55      0.00
    3    8    7     -2.99      0.00
    6    8    7     -1.56      0.00
  -17    9    7     -3.00      0.00
  -14    9    7     -3.31      0.00
  -11    9    7     -2.76      0.00
   -8    9    7    -40.47      0.00
   -5    9    7     32.88      0.00
   -2    9    7    -84.81      0.00
    1    9    7     12.15      0.00
    4    9    7     10.99      0.00
    7    9    7     -7.10      0.00
  -19   10    7     -1.22      0.00
  -16   10    7      5.29      0.00
  -13   10    7     12.13      0.00
  -10   10    7    -15.08      0.00
   -7   10    7     -0.02      0.00
   -4   10    7     31.84      0.00
   -1   10    7     18.51      0.00
    2   10    7     -0.80      0.00
    5   10    7     -3.00      0.00
    8   10    7     -3.92      0.00
  -21   11    7      8.07      0.00
  -18   11    7     15.32      0.00
  -15   11    7      5.77      0.00
  -12   11    7      0.90      0.00
   -9   11    7     12.52      0.00
   -6   11    7     18.38      0.00
   -3   11    7     21.05      0.00
    0   11    7      7.39      0.00
    3   11    7      7.87      0.00
    6   11    7     -4.99      0.00
    9   11    7      6.39      0.00
  -23   12    7     -1.45      0.00
  -20   12    7      6.21      0.00
  -17   12    7     10.37      0.00
  -14   12    7     11.59      0.00
  -11   12    7    -11.24      0.00
   -8   12    7     31.38      0.00
   -5   12    7     29.29      0.00
   -2   12    7     11.89      0.00
    1   12    7      0.98      0.00
    4   12    7      1.69      0.00
    7   12    7     -0.67      0.00
   10   12    7      2.84      0.00
  -22   13    7      2.95      0.00
  -19   13    7      6.86      0.00
  -16   13    7     10.99      0.00
  -13   13    7     -1.37      0.00
  -10   13    7    -11.69      0.00
   -7   13    7     -0.22      0.00
   -4   13    7     14.62      0.00
   -1   13    7     11.58      0.00
    2   13    7     -3.86      0.00
    5   13    7     -1.24      0.00
    8   13    7     -9.79      0.00
  -21   14    7     -3.40      0.00
  -18   14    7      4.07      0.00
  -15   14    7      3.64      0.00
  -12   14    7      3.31      0.00
   -9   14    7     -3.73      0.00
   -6   14    7      9.66      0.00
   -3   14    7     -8.37      0.00
    0   14    7     11.57      0.00
    3   14    7     -4.56      0.00
    6   14    7     -9.31      0.00
    9   14    7      5.25      0.00
  -23   15    7     -3.09      0.00
  -20   15    7      2.76      0.00
  -17   15    7      7.49      0.00
  -14   15    7      1.41      0.00
  -11   15    7     10.45      0.00
   -8   15    7     -4.26      0.00
   -5   15    7      4.65      0.00
   -2   15    7      7.13      0.00
    1   15    7      0.06      0.00
    4   15    7     -4.91      0.00
    7   15    7      5.61      0.00
  -22   16    7     -7.01      0.00
  -19   16    7      3.73      0.00
  -16   16    7      1.29      0.00
  -13   16    7      3.19      0.00
  -10   16    7      9.28      0.00
   -7   16    7      3.55      0.00
   -4   16    7     -6.05      0.00
   -1   16    7      8.73      0.00
    2   16    7     -1.95      0.00
    5   16    7      8.54      0.00
  -21   17    7     -0.81      0.00
  -18   17    7     -1.47      0.00
  -15   17    7      7.19      0.00
  -12   17    7      5.55      0.00
   -9   17    7      2.69      0.00
   -6   17    7     -7.19      0.00
   -3   17    7      4.54      0.00
    0   17    7     -0.32      0.00
    3   17    7     -0.89      0.00
    6   17    7      2.74      0.00
  -20   18    7     -1.85      0.00
  -17   18    7     -1.06      0.00
  -14   18    7      2.93      0.00
  -11   18    7     -1.80      0.00
   -8   18    7     -4.04      0.00
   -5   18    7     -5.38      0.00
   -2   18    7      2.43      0.00
    1   18    7      2.21      0.00
    4   18    7      0.20      0.00
  -22   19    7      6.49      0.00
  -19   19    7     -1.63      0.00
  -16   19    7      6.30      0.00
  -13   19    7     -1.85      0.00
  -10   19    7      0.90      0.00
   -7   19    7     -3.69      0.00
   -4   19    7     -4.27      0.00
   -1   19    7     -0.92      0.00
    2   19    7     -0.80      0.00
  -21   20    7      2.41      0.00
  -18   20    7      0.45      0.00
  -15   20    7      8.68      0.00
  -12   20    7     -3.76      0.00
   -9   20    7     -3.06      0.00
   -6   20    7      1.43      0.00
   -3   20    7     -4.41      0.00
    0   20    7      9.63      0.00
  -20   21    7      2.42      0.00
  -17   21    7      7.67      0.00
  -14   21    7      2.31      0.00
  -11   21    7     -6.56      0.00
   -8   21    7      0.97      0.00
   -5   21    7      0.76      0.00
   -2   21    7      2.92      0.00
  -16   22    7      1.94      0.00
  -13   22    7      1.83      0.00
  -10   22    7     -2.74      0.00
   -7   22    7      5.82      0.00
   -4   22    7     -1.73      0.00
  -15   23    7     -1.98      0.00
  -12   23    7     -3.69      0.00
   -9   23    7     -2.20      0.00
   -6   23    7      2.25      0.00
    0    1    8     -7.92      0.00
   -2    2    8     58.93      0.00
    1    2    8    -41.33      0.00
   -4    3    8     12.89      0.00
   -1    3    8     72.87      0.00
    2    3    8     50.62      0.00
   -6    4    8     -5.68      0.00
   -3    4    8    -67.56      0.00
    0    4    8    -84.91      0.00
    3    4    8     91.21      0.00
   -8    5    8    -12.91      0.00
   -5    5    8    -58.18      0.00
   -2    5    8    -45.34      0.00
    1    5    8     32.66      0.00
    4    5    8     48.65      0.00
  -10    6    8     41.49      0.00
   -7    6    8    -19.63      0.00
   -4    6    8    -76.55      0.00
   -1    6    8     48.75      0.00
    2    6    8      2.01      0.00
    5    6    8     43.36      0.00
  -12    7    8     32.39      0.00
   -9    7    8     29.38      0.00
   -6    7    8     20.60      0.00
   -3    7    8     91.00      0.00
    0    7    8      6.14      0.00
    3    7    8     -2.99      0.00
    6    7    8      0.72      0.00
  -14    8    8     11.03      0.00
  -11    8    8     21.77      0.00
   -8    8    8      0.64      0.00
   -5    8    8    -29.44      0.00
   -2    8    8     14.47      0.00
    1    8    8     13.40      0.00
    4    8    8    -14.13      0.00
    7    8    8      5.96      0.00
  -16    9    8     -0.39      0.00
  -13    9    8     15.62      0.00
  -10    9    8      3.85      0.00
   -7    9    8    -21.95      0.00
   -4    9    8     65.46      0.00
   -1    9    8     -7.68      0.00
    2    9    8    -25.79      0.00
    5    9    8     -7.36      0.00
    8    9    8     -4.42      0.00
  -18   10    8     -4.52      0.00
  -15   10    8     -3.74      0.00
  -12   10    8     13.22      0.00
   -9   10    8    -11.34      0.00
   -6   10    8     21.18      0.00
   -3   10    8    -23.77      0.00
    0   10    8      8.11      0.00
    3   10    8     -4.34      0.00
    6   10    8     -7.12      0.00
    9   10    8     -4.57      0.00
  -20   11    8      1.75      0.00
  -17   11    8      6.43      0.00
  -14   11    8      3.93      0.00
  -11   11    8     14.10      0.00
   -8   11    8     45.96      0.00
   -5   11    8     30.59      0.00
   -2   11    8      7.77      0.00
    1   11    8    -23.29      0.00
    4   11    8     -1.07      0.00
    7   11    8      1.92      0.00
   10   11    8      8.89      0.00
  -22   12    8      9.43      0.00
  -19   12    8     12.08      0.00
  -16   12    8      0.31      0.00
  -13   12    8     -7.47      0.00
  -10   12    8     10.89      0.00
   -7   12    8      6.99      0.00
   -4   12    8     22.93      0.00
   -1   12    8     -8.29      0.00
    2   12    8    -14.19      0.00
    5   12    8      2.82      0.00
    8   12    8     -0.18      0.00
   11   12    8     -0.46      0.00
  -21   13    8      4.71      0.00
  -18   13    8      2.04      0.00
  -15   13    8     -1.10      0.00
  -12   13    8     -9.85      0.00
   -9   13    8      1.37      0.00
   -6   13    8      4.47      0.00
   -3   13    8     -3.97      0.00
    0   13    8      5.06      0.00
    3   13    8    -10.80      0.00
    6   13    8      2.64      0.00
    9   13    8     -2.92      0.00
  -23   14    8      2.38      0.00
  -20   14    8      4.27      0.00
  -17   14    8      2.34      0.00
  -14   14    8    -12.79      0.00
  -11   14    8    -10.61      0.00
   -8   14    8     -5.77      0.00
   -5   14    8      4.68      0.00
   -2   14    8      3.07      0.00
    1   14    8     -6.66      0.00
    4   14    8     -2.02      0.00
    7   14    8     -6.16      0.00
  -22   15    8     -1.80      0.00
  -19   15    8      6.18      0.00
  -16   15    8     -0.99      0.00
  -13   15    8     -6.23      0.00
  -10   15    8     -5.60      0.00
   -7   15    8     -1.31      0.00
   -4   15    8      2.25      0.00
   -1   15    8      8.87      0.00
    2   15    8     -5.25      0.00
    5   15    8     -5.44      0.00
    8   15    8     11.12      0.00
  -21   16    8      3.22      0.00
  -18   16    8     -0.48      0.00
  -15   16    8      3.28      0.00
  -12   16    8     -3.37      0.00
   -9   16    8      5.00      0.00
   -6   16    8      0.66      0.00
   -3   16    8      8.72      0.00
    0   16    8      1.71      0.00
    3   16    8     -6.97      0.00
    6   16    8      8.10      0.00
  -20   17    8      0.69      0.00
  -17   17    8     -6.21      0.00
  -14   17    8      1.51      0.00
  -11   17    8      3.93      0.00
   -8   17    8      2.38      0.00
   -5   17    8      5.33      0.00
   -2   17    8      4.87      0.00
    1   17    8     -3.76      0.00
    4   17    8      5.19      0.00
  -22   18    8      0.19      0.00
  -19   18    8     -5.42      0.00
  -16   18    8     -3.40      0.00
  -13   18    8      3.07      0.00
  -10   18    8      0.61      0.00
   -7   18    8      5.22      0.00
   -4   18    8     -1.06      0.00
   -1   18    8     -4.42      0.00
    2   18    8     -0.63      0.00
  -21   19    8     -3.60      0.00
  -18   19    8     -7.08      0.00
  -15   19    8      4.07      0.00
  -12   19    8     -7.70      0.00
   -9   19    8      2.94      0.00
   -6   19    8      6.04      0.00
   -3   19    8     -4.82      0.00
    0   19    8      7.35      0.00
    3   19    8     -2.84      0.00
  -20   20    8     -8.29      0.00
  -17   20    8      1.56      0.00
  -14   20    8      3.01      0.00
  -11   20    8     -0.74      0.00
   -8   20    8      1.64      0.00
   -5   20    8      1.89      0.00
   -2   20    8     -3.63      0.00
    1   20    8      7.97      0.00
  -19   21    8     -3.28      0.00
  -16   21    8      4.46      0.00
  -13   21    8     -1.39      0.00
  -10   21    8     -2.01      0.00
   -7   21    8      4.27      0.00
   -4   21    8      5.03      0.00
   -1   21    8      3.13      0.00
  -18   22    8     -1.70      0.00
  -15   22    8     -1.77      0.00
  -12   22    8     -2.92      0.00
   -9   22    8      0.21      0.00
   -6   22    8      9.10      0.00
   -3   22    8     -1.70      0.00
  -17   23    8     -1.59      0.00
  -14   23    8     -1.92      0.00
  -11   23    8      1.90      0.00
   -8   23    8     -2.12      0.00
    0    0    9    -99.00      0.00
    1    1    9    -69.83      0.00
   -1    2    9     78.31      0.00
    2    2    9    -60.69      0.00
   -3    3    9     10.37      0.00
    0    3    9    -64.44      0.00
    3    3    9    107.87      0.00
   -5    4    9     65.68      0.00
   -2    4    9    -19.63      0.00
    1    4    9      0.17      0.00
    4    4    9     -8.04      0.00
   -7    5    9    -50.26      0.00
   -4    5    9    -49.55      0.00
   -1    5    9    -15.54      0.00
    2    5    9     83.09      0.00
    5    5    9      9.77      0.00
   -9    6    9      5.42      0.00
   -6    6    9     17.75      0.00
   -3    6    9    -17.40      0.00
    0    6    9    -16.41      0.00
    3    6    9     15.75      0.00
    6    6    9      4.86      0.00
  -11    7    9      2.65      0.00
   -8    7    9     12.72      0.00
   -5    7    9    -64.66      0.00
   -2    7    9     58.12      0.00
    1    7    9      1.03      0.00
    4    7    9     -4.12      0.00
    7    7    9     13.11      0.00
  -13    8    9      7.85      0.00
  -10    8    9      2.89      0.00
   -7    8    9     -7.06      0.00
   -4    8    9     -0.09      0.00
   -1    8    9    -23.38      0.00
    2    8    9      0.71      0.00
    5    8    9    -11.50      0.00
    8    8    9      1.33      0.00
  -15    9    9      7.19      0.00
  -12    9    9     -3.27      0.00
   -9    9    9    -52.36      0.00
   -6    9    9    -16.10      0.00
   -3    9    9    -31.95      0.00
    0    9    9     36.99      0.00
    3    9    9    -13.77      0.00
    6    9    9     -3.88      0.00
    9    9    9    -11.57      0.00
  -17   10    9     -8.95      0.00
  -14   10    9     -2.06      0.00
  -11   10    9     17.55      0.00
   -8   10    9      5.93      0.00
   -5   10    9     12.22      0.00
   -2   10    9    -20.83      0.00
    1   10    9    -17.98      0.00
    4   10    9      9.80      0.00
    7   10    9      6.15      0.00
   10   10    9     -7.83      0.00
  -19   11    9     -2.53      0.00
  -16   11    9     -3.27      0.00
  -13   11    9      3.11      0.00
  -10   11    9     28.79      0.00
   -7   11    9     -0.91      0.00
   -4   11    9    -16.18      0.00
   -1   11    9     -8.55      0.00
    2   11    9     -1.61      0.00
    5   11    9      5.06      0.00
    8   11    9     -1.74      0.00
   11   11    9      5.86      0.00
  -21   12    9      4.86      0.00
  -18   12    9     -2.32      0.00
  -15   12    9      5.45      0.00
  -12   12    9      7.70      0.00
   -9   12    9     29.69      0.00
   -6   12    9     -7.20      0.00
   -3   12    9     -5.32      0.00
    0   12    9      5.60      0.00
    3   12    9     -5.46      0.00
    6   12    9      9.01      0.00
    9   12    9     -1.27      0.00
  -23   13    9      9.22      0.00
  -20   13    9      3.55      0.00
  -17   13    9     -3.27      0.00
  -14   13    9     -3.41      0.00
  -11   13    9      0.19      0.00
   -8   13    9      0.51      0.00
   -5   13    9     -9.60      0.00
   -2   13    9     -0.35      0.00
    1   13    9     -2.83      0.00
    4   13    9      4.06      0.00
    7   13    9      1.91      0.00
   10   13    9     -3.53      0.00
  -22   14    9      2.79      0.00
  -19   14    9     -1.30      0.00
  -16   14    9      4.49      0.00
  -13   14    9     -0.75      0.00
  -10   14    9     -9.52      0.00
   -7   14    9      0.11      0.00
   -4   14    9      5.08      0.00
   -1   14    9      9.56      0.00
    2   14    9     -4.48      0.00
    5   14    9      2.17      0.00
    8   14    9      3.11      0.00
  -21   15    9      3.71      0.00
  -18   15    9     -2.84      0.00
  -15   15    9      4.57      0.00
  -12   15    9    -10.22      0.00
   -9   15    9      2.26      0.00
   -6   15    9     -6.97      0.00
   -3   15    9      6.33      0.00
    0   15    9      4.16      0.00
    3   15    9      0.12      0.00
    6   15    9      2.26      0.00
  -23   16    9      3.47      0.00
  -20   16    9      3.09      0.00
  -17   16    9     -0.78      0.00
  -14   16    9      4.87      0.00
  -11   16    9     -3.42      0.00
   -8   16    9      6.48      0.00
   -5   16    9      2.31      0.00
   -2   16    9      1.83      0.00
    1   16    9     -0.25      0.00
    4   16    9     -2.50      0.00
    7   16    9      6.75      0.00
  -22   17    9      0.29      0.00
  -19   17    9     -0.81      0.00
  -16   17    9     -2.99      0.00
  -13   17    9     -1.56      0.00
  -10   17    9      1.22      0.00
   -7   17    9      3.74      0.00
   -4   17    9      1.22      0.00
   -1   17    9      0.62      0.00
    2   17    9     -2.51      0.00
    5   17    9      5.57      0.00
  -21   18    9     -1.19      0.00
  -18   18    9     -1.50      0.00
  -15   18    9      1.70      0.00
  -12   18    9     -1.50      0.00
   -9   18    9      0.10      0.00
   -6   18    9      6.92      0.00
   -3   18    9     -9.37      0.00
    0   18    9     -2.28      0.00
    3   18    9      1.28      0.00
  -20   19    9    -11.70      0.00
  -17   19    9     -3.36      0.00
  -14   19    9      2.71      0.00
  -11   19    9     -5.45      0.00
   -8   19    9      0.89      0.00
   -5   19    9     -2.36      0.00
   -2   19    9     -7.58      0.00
    1   19    9      9.07      0.00
  -19   20    9     -2.20      0.00
  -16   20    9     10.17      0.00
  -13   20    9     -8.11      0.00
  -10   20    9      1.79      0.00
   -7   20    9     -1.36      0.00
   -4   20    9      3.47      0.00
   -1   20    9     -0.61      0.00
  -18   21    9      7.75      0.00
  -15   21    9      3.86      0.00
  -12   21    9     -4.55      0.00
   -9   21    9     -0.94      0.00
   -6   21    9      3.36      0.00
   -3   21    9      1.63      0.00
  -17   22    9      8.34      0.00
  -14   22    9     -3.84      0.00
  -11   22    9     -1.50      0.00
   -8   22    9     -4.86      0.00
   -5   22    9      9.32      0.00
  -16   23    9      0.20      0.00
  -13   23    9     -4.74      0.00
  -10   23    9      4.93      0.00
   -7   23    9      1.20      0.00
   -1    1   10     38.62      0.00
   -3    2   10   -113.56      0.00
    0    2   10     34.23      0.00
   -5    3   10     63.64      0.00
   -2    3   10     71.21      0.00
    1    3   10   -150.17      0.00
   -7    4   10    -80.74      0.00
   -4    4   10    144.92      0.00
   -1    4   10    -29.17      0.00
    2    4   10     48.73      0.00
   -9    5   10    -61.03      0.00
   -6    5   10     59.14      0.00
   -3    5   10     19.96      0.00
    0    5   10    -89.59      0.00
    3    5   10    -25.12      0.00
  -11    6   10    -24.95      0.00
   -8    6   10     -4.04      0.00
   -5    6   10     40.45      0.00
   -2    6   10     59.95      0.00
    1    6   10    -69.60      0.00
    4    6   10     -7.60      0.00
  -13    7   10     -2.70      0.00
  -10    7   10     10.59      0.00
   -7    7   10     24.56      0.00
   -4    7   10    -27.05      0.00
   -1    7   10    -44.06      0.00
    2    7   10     -5.68      0.00
    5    7   10     -2.27      0.00
  -15    8   10      4.57      0.00
  -12    8   10    -31.42      0.00
   -9    8   10    -36.29      0.00
   -6    8   10     21.37      0.00
   -3    8   10      0.34      0.00
    0    8   10      1.03      0.00
    3    8   10      4.18      0.00
    6    8   10     -6.74      0.00
  -17    9   10    -10.86      0.00
  -14    9   10     -5.72      0.00
  -11    9   10    -14.36      0.00
   -8    9   10    -47.96      0.00
   -5    9   10     26.87      0.00
   -2    9   10    -19.07      0.00
    1    9   10     26.54      0.00
    4    9   10      8.57      0.00
    7    9   10     -1.58      0.00
  -19   10   10     -6.84      0.00
  -16   10   10      4.47      0.00
  -13   10   10    -17.73      0.00
  -10   10   10    -10.69      0.00
   -7   10   10      9.71      0.00
   -4   10   10     -0.25      0.00
   -1   10   10     26.29      0.00
    2   10   10      1.43      0.00
    5   10   10     -0.52      0.00
    8   10   10      2.04      0.00
  -21   11   10     -0.74      0.00
  -18   11   10      1.99      0.00
  -15   11   10      1.52      0.00
  -12   11   10      0.60      0.00
   -9   11   10     25.56      0.00
   -6   11   10     -4.47      0.00
   -3   11   10     -1.66      0.00
    0   11   10      0.78      0.00
    3   11   10     11.30      0.00
    6   11   10      6.78      0.00
    9   11   10     -6.75      0.00
  -23   12   10      2.06      0.00
  -20   12   10      7.31      0.00
  -17   12   10      0.78      0.00
  -14   12   10      5.55      0.00
  -11   12   10      6.58      0.00
   -8   12   10     -3.61      0.00
   -5   12   10     -8.92      0.00
   -2   12   10    -10.23      0.00
    1   12   10      9.57      0.00
    4   12   10      0.76      0.00
    7   12   10     -0.05      0.00
   10   12   10     -3.59      0.00
  -22   13   10      1.20      0.00
  -19   13   10      0.26      0.00
  -16   13   10     10.08      0.00
  -13   13   10     -0.10      0.00
  -10   13   10     -2.06      0.00
   -7   13   10     11.77      0.00
   -4   13   10     -6.36      0.00
   -1   13   10     11.83      0.00
    2   13   10     -3.46      0.00
    5   13   10      3.26      0.00
    8   13   10     -0.40      0.00
  -21   14   10     -1.26      0.00
  -18   14   10     -1.43      0.00
  -15   14   10      8.32      0.00
  -12   14   10     -0.36      0.00
   -9   14   10      4.69      0.00
   -6   14   10    -18.23      0.00
   -3   14   10      7.63      0.00
    0   14   10      2.32      0.00
    3   14   10      3.52      0.00
    6   14   10      1.70      0.00
    9   14   10      3.99      0.00
  -23   15   10      2.67      0.00
  -20   15   10     -2.24      0.00
  -17   15   10     -2.36      0.00
  -14   15   10     12.12      0.00
  -11   15   10     -4.59      0.00
   -8   15   10     10.95      0.00
   -5   15   10     -2.07      0.00
   -2   15   10     -1.60      0.00
    1   15   10      4.66      0.00
    4   15   10     -1.89      0.00
    7   15   10     10.38      0.00
  -22   16   10      0.01      0.00
  -19   16   10     -5.17      0.00
  -16   16   10      0.66      0.00
  -13   16   10      2.85      0.00
  -10   16   10      3.37      0.00
   -7   16   10     -0.24      0.00
   -4   16   10     -3.44      0.00
   -1   16   10      3.79      0.00
    2   16   10      1.47      0.00
    5   16   10      0.94      0.00
  -21   17   10     -0.76      0.00
  -18   17   10      3.63      0.00
  -15   17   10      2.64      0.00
  -12   17   10      7.60      0.00
   -9   17   10     -0.84      0.00
   -6   17   10     -1.09      0.00
   -3   17   10     -8.85      0.00
    0   17   10      0.55      0.00
    3   17   10     -1.55      0.00
  -20   18   10     -1.37      0.00
  -17   18   10     -2.95      0.00
  -14   18   10      1.76      0.00
  -11   18   10      1.52      0.00
   -8   18   10     -3.60      0.00
   -5   18   10     -0.71      0.00
   -2   18   10     -4.25      0.00
    1   18   10      0.87      0.00
    4   18   10      4.54      0.00
  -19   19   10      2.15      0.00
  -16   19   10      5.22      0.00
  -13   19   10     -3.93      0.00
  -10   19   10      3.09      0.00
   -7   19   10     -5.88      0.00
   -4   19   10     -2.04      0.00
   -1   19   10     -8.03      0.00
    2   19   10      2.58      0.00
  -21   20   10     -5.90      0.00
  -18   20   10      8.20      0.00
  -15   20   10      6.96      0.00
  -12   20   10     -6.79      0.00
   -9   20   10     -0.35      0.00
   -6   20   10     -1.42      0.00
   -3   20   10      5.15      0.00
    0   20   10      2.41      0.00
  -20   21   10      5.96      0.00
  -17   21   10     17.15      0.00
  -14   21   10     -2.46      0.00
  -11   21   10      1.79      0.00
   -8   21   10     -3.19      0.00
   -5   21   10      8.05      0.00
   -2   21   10     -2.33      0.00
  -16   22   10      3.49      0.00
  -13   22   10     -1.85      0.00
  -10   22   10      4.62      0.00
   -7   22   10     -1.94      0.00
   -4   22   10      5.03      0.00
  -15   23   10     -0.35      0.00
  -12   23   10     -2.73      0.00
   -9   23   10     -1.27      0.00
    0    1   11     39.69      0.00
   -2    2   11   -121.05      0.00
    1    2   11   -165.49      0.00
   -4    3   11     22.78      0.00
   -1    3   11     -2.68      0.00
    2    3   11    -23.00      0.00
   -6    4   11      0.15      0.00
   -3    4   11     53.76      0.00
    0    4   11   -148.97      0.00
    3    4   11    -30.66      0.00
   -8    5   11    -65.87      0.00
   -5    5   11    127.07      0.00
   -2    5   11     22.66      0.00
    1    5   11    -75.22      0.00
    4    5   11    -18.21      0.00
  -10    6   11     25.61      0.00
   -7    6   11     27.39      0.00
   -4    6   11    -31.83      0.00
   -1    6   11     -0.50      0.00
    2    6   11    -29.15      0.00
    5    6   11      9.88      0.00
  -12    7   11     -8.07      0.00
   -9    7   11     73.84      0.00
   -6    7   11      5.76      0.00
   -3    7   11    -10.56      0.00
    0    7   11    -65.44      0.00
    3    7   11      9.28      0.00
    6    7   11     11.61      0.00
  -14    8   11      1.64      0.00
  -11    8   11     21.63      0.00
   -8    8   11    -51.08      0.00
   -5    8   11     20.09      0.00
   -2    8   11    -11.67      0.00
    1    8   11     13.67      0.00
    4    8   11      8.99      0.00
    7    8   11     -6.77      0.00
  -16    9   11     -7.11      0.00
  -13    9   11    -18.36      0.00
  -10    9   11     -4.26      0.00
   -7    9   11     17.55      0.00
   -4    9   11     10.46      0.00
   -1    9   11     24.85      0.00
    2    9   11     -0.77      0.00
    5    9   11     -9.39      0.00
    8    9   11     -3.04      0.00
  -18   10   11     -5.85      0.00
  -15   10   11     -1.33      0.00
  -12   10   11    -10.09      0.00
   -9   10   11     -0.69      0.00
   -6   10   11     27.91      0.00
   -3   10   11     25.66      0.00
    0   10   11     16.69      0.00
    3   10   11     -2.18      0.00
    6   10   11     -2.36      0.00
    9   10   11     -1.65      0.00
  -20   11   11      5.31      0.00
  -17   11   11      2.78      0.00
  -14   11   11     -7.04      0.00
  -11   11   11     -3.05      0.00
   -8   11   11      6.97      0.00
   -5   11   11     18.39      0.00
   -2   11   11      2.76      0.00
    1   11   11    -13.68      0.00
    4   11   11     -7.94      0.00
    7   11   11      5.02      0.00
   10   11   11     -2.57      0.00
  -22   12   11     -0.51      0.00
  -19   12   11      9.45      0.00
  -16   12   11     -4.21      0.00
  -13   12   11    -16.09      0.00
  -10   12   11      0.19      0.00
   -7   12   11      7.54      0.00
   -4   12   11     -1.27      0.00
   -1   12   11    -15.57      0.00
    2   12   11     -7.32      0.00
    5   12   11     -1.17      0.00
    8   12   11     -5.66      0.00
   11   12   11     -4.10      0.00
  -21   13   11      1.38      0.00
  -18   13   11      1.86      0.00
  -15   13   11      3.91      0.00
  -12   13   11    -14.73      0.00
   -9   13   11     -5.77      0.00
   -6   13   11      0.82      0.00
   -3   13   11     -9.88      0.00
    0   13   11     -8.20      0.00
    3   13   11     -3.32      0.00
    6   13   11     -3.88      0.00
    9   13   11     -0.06      0.00
  -23   14   11     -1.67      0.00
  -20   14   11      0.17      0.00
  -17   14   11      1.34      0.00
  -14   14   11     -1.60      0.00
  -11   14   11    -13.49      0.00
   -8   14   11     17.08      0.00
   -5   14   11    -15.74      0.00
   -2   14   11      0.50      0.00
    1   14   11     -5.70      0.00
    4   14   11     -2.94      0.00
    7   14   11      4.82      0.00
  -22   15   11      0.22      0.00
  -19   15   11      0.20      0.00
  -16   15   11     -2.04      0.00
  -13   15   11      4.42      0.00
  -10   15   11     -1.96      0.00
   -7   15   11     -6.36      0.00
   -4   15   11      4.44      0.00
   -1   15   11     -3.72      0.00
    2   15   11     -1.97      0.00
    5   15   11     -0.18      0.00
    8   15   11     10.87      0.00
  -21   16   11     -1.24      0.00
  -18   16   11     -5.46      0.00
  -15   16   11     -0.49      0.00
  -12   16   11      3.52      0.00
   -9   16   11     -5.16      0.00
   -6   16   11      4.07      0.00
   -3   16   11     -3.79      0.00
    0   16   11      2.99      0.00
    3   16   11      1.13      0.00
    6   16   11      2.48      0.00
  -20   17   11      4.53      0.00
  -17   17   11      1.06      0.00
  -14   17   11      0.22      0.00
  -11   17   11      4.78      0.00
   -8   17   11     -1.21      0.00
   -5   17   11      3.76      0.00
   -2   17   11     -1.71      0.00
    1   17   11      1.07      0.00
    4   17   11      1.31      0.00
  -22   18   11      5.22      0.00
  -19   18   11      2.46      0.00
  -16   18   11     -3.54      0.00
  -13   18   11     -5.07      0.00
  -10   18   11     -0.87      0.00
   -7   18   11     -3.33      0.00
   -4   18   11      2.13      0.00
   -1   18   11     -2.34      0.00
    2   18   11      2.37      0.00
  -21   19   11      0.09      0.00
  -18   19   11     -3.18      0.00
  -15   19   11     -0.01      0.00
  -12   19   11     -6.30      0.00
   -9   19   11      2.82      0.00
   -6   19   11      1.41      0.00
   -3   19   11      3.74      0.00
    0   19   11     -1.35      0.00
  -20   20   11     -3.10      0.00
  -17   20   11     -1.18      0.00
  -14   20   11     -5.27      0.00
  -11   20   11      2.39      0.00
   -8   20   11      0.30      0.00
   -5   20   11      3.69      0.00
   -2   20   11     -1.74      0.00
    1   20   11      0.73      0.00
  -19   21   11      0.29      0.00
  -16   21   11     -1.35      0.00
  -13   21   11     -4.90      0.00
  -10   21   11      5.63      0.00
   -7   21   11      4.22      0.00
   -4   21   11      5.23      0.00
   -1   21   11     -2.14      0.00
  -18   22   11      2.06      0.00
  -15   22   11     -2.96      0.00
  -12   22   11      2.92      0.00
   -9   22   11      5.52      0.00
   -6   22   11      1.22      0.00
  -14   23   11      5.97      0.00
  -11   23   11      1.70      0.00
   -8   23   11     -2.92      0.00
    0    0   12     19.98      0.00
    1    1   12   -102.47      0.00
   -1    2   12    -62.81      0.00
    2    2   12     -7.73      0.00
   -3    3   12    -69.74      0.00
    0    3   12    -45.56      0.00
    3    3   12     27.98      0.00
   -5    4   12     88.18      0.00
   -2    4   12     26.63      0.00
    1    4   12    -60.38      0.00
    4    4   12    -44.00      0.00
   -7    5   12    -45.53      0.00
   -4    5   12     30.72      0.00
   -1    5   12     50.43      0.00
    2    5   12      0.50      0.00
    5    5   12      4.45      0.00
   -9    6   12     40.90      0.00
   -6    6   12    -23.80      0.00
   -3    6   12    -51.21      0.00
    0    6   12     -7.26      0.00
    3    6   12      7.37      0.00
    6    6   12     10.12      0.00
  -11    7   12     16.46      0.00
   -8    7   12     -6.31      0.00
   -5    7   12    -60.72      0.00
   -2    7   12     18.58      0.00
    1    7   12     -8.15      0.00
    4    7   12     -5.14      0.00
    7    7   12     12.91      0.00
  -13    8   12     -1.91      0.00
  -10    8   12     48.54      0.00
   -7    8   12    -81.79      0.00
   -4    8   12    -63.34      0.00
   -1    8   12    -19.99      0.00
    2    8   12    -10.92      0.00
    5    8   12      0.81      0.00
    8    8   12     -4.94      0.00
  -15    9   12     -5.31      0.00
  -12    9   12      1.38      0.00
   -9    9   12    -26.24      0.00
   -6    9   12     27.70      0.00
   -3    9   12    -14.11      0.00
    0    9   12     14.03      0.00
    3    9   12    -12.70      0.00
    6    9   12      0.26      0.00
    9    9   12     -9.76      0.00
  -17   10   12     -9.90      0.00
  -14   10   12     -0.85      0.00
  -11   10   12     -2.45      0.00
   -8   10   12     12.58      0.00
   -5   10   12    -15.81      0.00
   -2   10   12      8.43      0.00
    1   10   12    -13.17      0.00
    4   10   12    -11.51      0.00
    7   10   12      7.64      0.00
   10   10   12     -0.26      0.00
  -19   11   12     -2.58      0.00
  -16   11   12    -10.58      0.00
  -13   11   12     -8.40      0.00
  -10   11   12     15.23      0.00
   -7   11   12     -4.30      0.00
   -4   11   12     14.15      0.00
   -1   11   12     -6.01      0.00
    2   11   12     -9.06      0.00
    5   11   12     -2.62      0.00
    8   11   12     -0.83      0.00
   11   11   12     -0.29      0.00
  -21   12   12      4.27      0.00
  -18   12   12     -2.01      0.00
  -15   12   12     -5.46      0.00
  -12   12   12    -17.90      0.00
   -9   12   12     -1.65      0.00
   -6   12   12     15.90      0.00
   -3   12   12    -19.20      0.00
    0   12   12    -21.28      0.00
    3   12   12     -1.62      0.00
    6   12   12      4.89      0.00
    9   12   12     -7.26      0.00
  -23   13   12      0.97      0.00
  -20   13   12      3.88      0.00
  -17   13   12     -6.83      0.00
  -14   13   12     -5.92      0.00
  -11   13   12     -9.58      0.00
   -8   13   12     12.70      0.00
   -5   13   12    -13.96      0.00
   -2   13   12     -7.96      0.00
    1   13   12    -10.21      0.00
    4   13   12      6.47      0.00
    7   13   12     -8.43      0.00
   10   13   12     -2.58      0.00
  -22   14   12      3.42      0.00
  -19   14   12      3.53      0.00
  -16   14   12      3.79      0.00
  -13   14   12     -1.34      0.00
  -10   14   12     -5.54      0.00
   -7   14   12      3.07      0.00
   -4   14   12     -5.00      0.00
   -1   14   12     -4.15      0.00
    2   14   12      0.20      0.00
    5   14   12     -0.49      0.00
    8   14   12      3.43      0.00
  -21   15   12      0.04      0.00
  -18   15   12     -0.74      0.00
  -15   15   12     -3.47      0.00
  -12   15   12     -3.79      0.00
   -9   15   12     -1.57      0.00
   -6   15   12     -3.33      0.00
   -3   15   12      5.19      0.00
    0   15   12     -0.59      0.00
    3   15   12     -3.09      0.00
    6   15   12      4.17      0.00
  -20   16   12      9.09      0.00
  -17   16   12      2.09      0.00
  -14   16   12     -1.77      0.00
  -11   16   12      1.38      0.00
   -8   16   12     -2.78      0.00
   -5   16   12     10.46      0.00
   -2   16   12     -0.33      0.00
    1   16   12     -1.33      0.00
    4   16   12      5.47      0.00
    7   16   12      2.31      0.00
  -22   17   12     -0.32      0.00
  -19   17   12      3.16      0.00
  -16   17   12      4.39      0.00
  -13   17   12     -9.21      0.00
  -10   17   12     -8.55      0.00
   -7   17   12      7.33      0.00
   -4   17   12      6.41      0.00
   -1   17   12      0.55      0.00
    2   17   12      5.55      0.00
    5   17   12     -3.21      0.00
  -21   18   12     12.62      0.00
  -18   18   12      3.83      0.00
  -15   18   12      2.26      0.00
  -12   18   12    -10.18      0.00
   -9   18   12      3.56      0.00
   -6   18   12      0.85      0.00
   -3   18   12     -2.50      0.00
    0   18   12      0.55      0.00
    3   18   12      1.38      0.00
  -20   19   12     -3.02      0.00
  -17   19   12     -7.05      0.00
  -14   19   12     -8.18      0.00
  -11   19   12     -2.89      0.00
   -8   19   12      0.44      0.00
   -5   19   12     -1.55      0.00
   -2   19   12     -0.53      0.00
    1   19   12      1.02      0.00
  -19   20   12     -2.44      0.00
  -16   20   12     -5.66      0.00
  -13   20   12     -7.35      0.00
  -10   20   12      3.49      0.00
   -7   20   12      4.32      0.00
   -4   20   12     -5.22      0.00
   -1   20   12     -3.38      0.00
  -18   21   12     -5.99      0.00
  -15   21   12     -5.31      0.00
  -12   21   12     -1.14      0.00
   -9   21   12      5.61      0.00
   -6   21   12     -1.06      0.00
   -3   21   12     -0.07      0.00
  -17   22   12     -4.27      0.00
  -14   22   12      2.47      0.00
  -11   22   12      3.56      0.00
   -8   22   12      3.42      0.00
   -5   22   12     -4.75      0.00
  -16   23   12     -3.37      0.00
  -13   23   12     11.07      0.00
  -10   23   12      2.81      0.00
   -7   23   12     -2.13      0.00
   -1    1   13    -89.69      0.00
   -3    2   13    -18.31      0.00
    0    2   13     21.98      0.00
   -5    3   13     91.26      0.00
   -2    3   13    -25.89      0.00
    1    3   13     -8.23      0.00
   -7    4   13    -15.03      0.00
   -4    4   13     75.07      0.00
   -1    4   13    138.08      0.00
    2    4   13    -25.46      0.00
   -9    5   13    -37.84      0.00
   -6    5   13     16.38      0.00
   -3    5   13     58.24      0.00
    0    5   13     26.76      0.00
    3    5   13     -5.37      0.00
  -11    6   13    -24.03      0.00
   -8    6   13    -12.62      0.00
   -5    6   13     30.13      0.00
   -2    6   13     86.04      0.00
    1    6   13     24.35      0.00
    4    6   13    -23.35      0.00
  -13    7   13      7.31      0.00
  -10    7   13     -1.97      0.00
   -7    7   13   -100.05      0.00
   -4    7   13    -39.35      0.00
   -1    7   13     30.36      0.00
    2    7   13      7.73      0.00
    5    7   13    -11.13      0.00
  -15    8   13     -0.89      0.00
  -12    8   13    -23.45      0.00
   -9    8   13     -9.30      0.00
   -6    8   13     -0.58      0.00
   -3    8   13    -28.34      0.00
    0    8   13     -3.17      0.00
    3    8   13    -14.00      0.00
    6    8   13      3.50      0.00
  -17    9   13      2.81      0.00
  -14    9   13     -0.10      0.00
  -11    9   13    -23.57      0.00
   -8    9   13    -36.17      0.00
   -5    9   13    -29.05      0.00
   -2    9   13    -20.13      0.00
    1    9   13     -3.55      0.00
    4    9   13    -13.05      0.00
    7    9   13     13.72      0.00
  -19   10   13     -7.40      0.00
  -16   10   13     -4.05      0.00
  -13   10   13      0.76      0.00
  -10   10   13     -4.85      0.00
   -7   10   13     20.24      0.00
   -4   10   13    -15.93      0.00
   -1   10   13     12.48      0.00
    2   10   13      8.15      0.00
    5   10   13     -2.84      0.00
    8   10   13     -0.38      0.00
  -21   11   13      5.72      0.00
  -18   11   13      0.60      0.00
  -15   11   13      2.28      0.00
  -12   11   13    -18.60      0.00
   -9   11   13      3.66      0.00
   -6   11   13    -16.19      0.00
   -3   11   13    -12.56      0.00
    0   11   13      1.86      0.00
    3   11   13      5.43      0.00
    6   11   13      3.79      0.00
    9   11   13     -3.29      0.00
  -23   12   13      0.29      0.00
  -20   12   13      1.05      0.00
  -17   12   13     -5.31      0.00
  -14   12   13      1.81      0.00
  -11   12   13      2.74      0.00
   -8   12   13     -8.88      0.00
   -5   12   13     14.48      0.00
   -2   12   13      2.57      0.00
    1   12   13     -2.29      0.00
    4   12   13      6.41      0.00
    7   12   13     -1.72      0.00
   10   12   13     -4.26      0.00
  -22   13   13      3.55      0.00
  -19   13   13      4.05      0.00
  -16   13   13      2.51      0.00
  -13   13   13      0.23      0.00
  -10   13   13      5.34      0.00
   -7   13   13     12.27      0.00
   -4   13   13    -18.59      0.00
   -1   13   13     -0.82      0.00
    2   13   13      6.32      0.00
    5   13   13     10.57      0.00
    8   13   13    -13.02      0.00
  -21   14   13      1.48      0.00
  -18   14   13     -2.31      0.00
  -15   14   13      4.51      0.00
  -12   14   13      6.78      0.00
   -9   14   13      9.98      0.00
   -6   14   13     -6.09      0.00
   -3   14   13      4.77      0.00
    0   14   13     -0.86      0.00
    3   14   13      6.25      0.00
    6   14   13     -3.89      0.00
    9   14   13     -1.30      0.00
  -20   15   13      2.50      0.00
  -17   15   13     -1.46      0.00
  -14   15   13     -3.22      0.00
  -11   15   13      5.34      0.00
   -8   15   13      2.90      0.00
   -5   15   13      1.38      0.00
   -2   15   13      2.82      0.00
    1   15   13      3.54      0.00
    4   15   13     -0.09      0.00
    7   15   13      1.68      0.00
  -22   16   13     -9.78      0.00
  -19   16   13      5.50      0.00
  -16   16   13      1.24      0.00
  -13   16   13     -5.18      0.00
  -10   16   13      4.07      0.00
   -7   16   13      7.09      0.00
   -4   16   13      5.01      0.00
   -1   16   13      1.09      0.00
    2   16   13     -3.21      0.00
    5   16   13      1.07      0.00
  -21   17   13     13.41      0.00
  -18   17   13      0.72      0.00
  -15   17   13      2.49      0.00
  -12   17   13     -3.11      0.00
   -9   17   13      3.07      0.00
   -6   17   13      3.54      0.00
   -3   17   13      0.69      0.00
    0   17   13      2.63      0.00
    3   17   13      4.55      0.00
  -20   18   13      9.86      0.00
  -17   18   13      6.57      0.00
  -14   18   13     -0.40      0.00
  -11   18   13     -3.72      0.00
   -8   18   13      6.51      0.00
   -5   18   13     -3.50      0.00
   -2   18   13     -2.26      0.00
    1   18   13      2.53      0.00
    4   18   13     -3.30      0.00
  -19   19   13      8.07      0.00
  -16   19   13      1.46      0.00
  -13   19   13     -1.26      0.00
  -10   19   13      1.88      0.00
   -7   19   13     -2.07      0.00
   -4   19   13    -12.01      0.00
   -1   19   13     -0.27      0.00
    2   19   13     -5.07      0.00
  -18   20   13      3.95      0.00
  -15   20   13      1.75      0.00
  -12   20   13      0.94      0.00
   -9   20   13     -4.38      0.00
   -6   20   13     -2.21      0.00
   -3   20   13     -4.07      0.00
    0   20   13     -3.99      0.00
  -17   21   13     -2.92      0.00
  -14   21   13      0.63      0.00
  -11   21   13     -1.07      0.00
   -8   21   13      2.76      0.00
   -5   21   13     -9.17      0.00
   -2   21   13     -4.41      0.00
  -16   22   13     -2.24      0.00
  -13   22   13      6.05      0.00
  -10   22   13     -0.64      0.00
   -7   22   13     -1.45      0.00
   -4   22   13      3.97      0.00
  -15   23   13      0.62      0.00
  -12   23   13      6.53      0.00
   -9   23   13     -2.88      0.00
    0    1   14    -83.39      0.00
   -2    2   14    -57.74      0.00
    1    2   14     42.50      0.00
   -4    3   14     40.01      0.00
   -1    3   14    114.49      0.00
    2    3   14    -88.09      0.00
   -6    4   14     67.63      0.00
   -3    4   14     13.68      0.00
    0    4   14      8.22      0.00
    3    4   14     -9.98      0.00
   -8    5   14     16.89      0.00
   -5    5   14     94.28      0.00
   -2    5   14    106.06      0.00
    1    5   14    -41.96      0.00
    4    5   14    -25.08      0.00
  -10    6   14     -9.70      0.00
   -7    6   14    -21.56      0.00
   -4    6   14     86.84      0.00
   -1    6   14     46.00      0.00
    2    6   14     35.76      0.00
    5    6   14      2.86      0.00
  -12    7   14      9.08      0.00
   -9    7   14     35.02      0.00
   -6    7   14     14.23      0.00
   -3    7   14     19.17      0.00
    0    7   14     19.53      0.00
    3    7   14     16.15      0.00
    6    7   14      5.11      0.00
  -14    8   14      5.00      0.00
  -11    8   14    -26.25      0.00
   -8    8   14    -17.20      0.00
   -5    8   14     30.77      0.00
   -2    8   14      2.14      0.00
    1    8   14      2.29      0.00
    4    8   14     -2.95      0.00
    7    8   14      0.85      0.00
  -16    9   14      3.52      0.00
  -13    9   14      4.19      0.00
  -10    9   14     -0.08      0.00
   -7    9   14     51.61      0.00
   -4    9   14    -24.21      0.00
   -1    9   14      2.41      0.00
    2    9   14     12.65      0.00
    5    9   14    -15.54      0.00
    8    9   14     12.51      0.00
  -18   10   14     10.28      0.00
  -15   10   14      1.37      0.00
  -12   10   14    -20.93      0.00
   -9   10   14     -1.54      0.00
   -6   10   14      7.54      0.00
   -3   10   14    -10.36      0.00
    0   10   14      7.94      0.00
    3   10   14      3.99      0.00
    6   10   14      0.62      0.00
    9   10   14     -4.53      0.00
  -20   11   14      2.16      0.00
  -17   11   14      4.03      0.00
  -14   11   14      3.56      0.00
  -11   11   14    -13.58      0.00
   -8   11   14    -15.16      0.00
   -5   11   14     30.49      0.00
   -2   11   14      6.57      0.00
    1   11   14      5.57      0.00
    4   11   14     -6.36      0.00
    7   11   14     -4.12      0.00
   10   11   14      6.88      0.00
  -22   12   14      1.43      0.00
  -19   12   14      6.28      0.00
  -16   12   14      6.55      0.00
  -13   12   14    -12.56      0.00
  -10   12   14     -5.36      0.00
   -7   12   14     -6.54      0.00
   -4   12   14     -6.28      0.00
   -1   12   14      9.86      0.00
    2   12   14     -2.22      0.00
    5   12   14     -5.19      0.00
    8   12   14     -5.57      0.00
   11   12   14     -0.05      0.00
  -21   13   14      0.13      0.00
  -18   13   14      2.35      0.00
  -15   13   14      8.80      0.00
  -12   13   14     -1.09      0.00
   -9   13   14      5.67      0.00
   -6   13   14     15.92      0.00
   -3   13   14      4.26      0.00
    0   13   14     -9.02      0.00
    3   13   14      3.10      0.00
    6   13   14     -0.50      0.00
    9   13   14     -2.61      0.00
  -23   14   14      0.06      0.00
  -20   14   14      2.59      0.00
  -17   14   14     -2.45      0.00
  -14   14   14      1.02      0.00
  -11   14   14      4.43      0.00
   -8   14   14      5.25      0.00
   -5   14   14     -8.06      0.00
   -2   14   14     -0.34      0.00
    1   14   14      0.51      0.00
    4   14   14      0.12      0.00
    7   14   14     -6.02      0.00
  -22   15   14     -9.30      0.00
  -19   15   14      2.33      0.00
  -16   15   14     -3.06      0.00
  -13   15   14     -2.31      0.00
  -10   15   14      9.00      0.00
   -7   15   14      3.55      0.00
   -4   15   14     -0.32      0.00
   -1   15   14     -2.57      0.00
    2   15   14     -0.51      0.00
    5   15   14     -1.37      0.00
    8   15   14      3.26      0.00
  -21   16   14     -3.08      0.00
  -18   16   14     -6.81      0.00
  -15   16   14    -10.40      0.00
  -12   16   14      0.25      0.00
   -9   16   14      7.66      0.00
   -6   16   14      1.11      0.00
   -3   16   14      2.91      0.00
    0   16   14      6.38      0.00
    3   16   14     -3.79      0.00
    6   16   14     -1.01      0.00
  -20   17   14     19.37      0.00
  -17   17   14     -3.02      0.00
  -14   17   14     -2.04      0.00
  -11   17   14      3.27      0.00
   -8   17   14      9.08      0.00
   -5   17   14     -0.78      0.00
   -2   17   14      3.98      0.00
    1   17   14      1.99      0.00
    4   17   14     -0.18      0.00
  -19   18   14     -0.48      0.00
  -16   18   14     -4.26      0.00
  -13   18   14      3.95      0.00
  -10   18   14     -1.61      0.00
   -7   18   14      7.20      0.00
   -4   18   14     -1.16      0.00
   -1   18   14      7.38      0.00
    2   18   14      4.68      0.00
  -21   19   14      6.46      0.00
  -18   19   14      6.50      0.00
  -15   19   14      3.90      0.00
  -12   19   14      8.64      0.00
   -9   19   14     -4.11      0.00
   -6   19   14      2.44      0.00
   -3   19   14     -4.54      0.00
    0   19   14      3.91      0.00
  -20   20   14      7.27      0.00
  -17   20   14     -5.03      0.00
  -14   20   14      3.08      0.00
  -11   20   14      1.29      0.00
   -8   20   14     -2.61      0.00
   -5   20   14     -4.20      0.00
   -2   20   14     -1.36      0.00
  -19   21   14      5.28      0.00
  -16   21   14     -3.02      0.00
  -13   21   14     -0.25      0.00
  -10   21   14     -5.80      0.00
   -7   21   14      2.26      0.00
   -4   21   14     -0.24      0.00
  -18   22   14     -5.52      0.00
  -15   22   14     -5.22      0.00
  -12   22   14      3.13      0.00
   -9   22   14     -2.07      0.00
   -6   22   14     -4.24      0.00
  -14   23   14      1.91      0.00
  -11   23   14     -0.05      0.00
   -8   23   14     -1.78      0.00
    0    0   15    -86.45      0.00
    1    1   15    103.05      0.00
   -1    2   15    103.73      0.00
    2    2   15    -40.95      0.00
   -3    3   15    -28.89      0.00
    0    3   15    139.75      0.00
    3    3   15    -32.83      0.00
   -5    4   15     42.42      0.00
   -2    4   15     20.32      0.00
    1    4   15   -113.14      0.00
    4    4   15     -5.90      0.00
   -7    5   15     26.28      0.00
   -4    5   15     19.99      0.00
   -1    5   15     -8.73      0.00
    2    5   15     26.90      0.00
    5    5   15     -4.30      0.00
   -9    6   15     42.61      0.00
   -6    6   15    -38.14      0.00
   -3    6   15     25.09      0.00
    0    6   15      8.61      0.00
    3    6   15      3.97      0.00
    6    6   15     37.83      0.00
  -11    7   15     25.74      0.00
   -8    7   15      9.71      0.00
   -5    7   15     11.62      0.00
   -2    7   15      9.20      0.00
    1    7   15      4.51      0.00
    4    7   15     30.14      0.00
    7    7   15     -1.19      0.00
  -13    8   15     35.50      0.00
  -10    8   15     29.86      0.00
   -7    8   15      9.65      0.00
   -4    8   15    -44.35      0.00
   -1    8   15     14.97      0.00
    2    8   15      6.70      0.00
    5    8   15     -9.46      0.00
    8    8   15     -0.78      0.00
  -15    9   15     -4.64      0.00
  -12    9   15     10.43      0.00
   -9    9   15     33.39      0.00
   -6    9   15     33.39      0.00
   -3    9   15    -23.97      0.00
    0    9   15     -7.97      0.00
    3    9   15      2.87      0.00
    6    9   15     -1.68      0.00
    9    9   15     -0.43      0.00
  -17   10   15      1.18      0.00
  -14   10   15      2.14      0.00
  -11   10   15      6.19      0.00
   -8   10   15      4.24      0.00
   -5   10   15     19.77      0.00
   -2   10   15     -3.64      0.00
    1   10   15     -8.05      0.00
    4   10   15     -8.96      0.00
    7   10   15      0.47      0.00
   10   10   15      3.11      0.00
  -19   11   15      2.96      0.00
  -16   11   15     -6.24      0.00
  -13   11   15    -12.13      0.00
  -10   11   15     -3.51      0.00
   -7   11   15    -16.09      0.00
   -4   11   15     18.37      0.00
   -1   11   15      1.54      0.00
    2   11   15     -8.02      0.00
    5   11   15     -7.74      0.00
    8   11   15     -5.98      0.00
   11   11   15      5.97      0.00
  -21   12   15      4.02      0.00
  -18   12   15     -2.45      0.00
  -15   12   15      3.26      0.00
  -12   12   15    -19.88      0.00
   -9   12   15     -9.23      0.00
   -6   12   15     31.25      0.00
   -3   12   15     -8.60      0.00
    0   12   15    -10.90      0.00
    3   12   15     -0.99      0.00
    6   12   15    -10.09      0.00
    9   12   15      3.86      0.00
  -23   13   15     -3.13      0.00
  -20   13   15      6.49      0.00
  -17   13   15      2.86      0.00
  -14   13   15      3.45      0.00
  -11   13   15    -10.82      0.00
   -8   13   15      4.27      0.00
   -5   13   15     -3.13      0.00
   -2   13   15      6.83      0.00
    1   13   15     -9.21      0.00
    4   13   15     -5.59      0.00
    7   13   15     -3.33      0.00
   10   13   15      6.31      0.00
  -22   14   15      0.39      0.00
  -19   14   15      4.44      0.00
  -16   14   15      3.49      0.00
  -13   14   15     -4.72      0.00
  -10   14   15      2.72      0.00
   -7   14   15      3.06      0.00
   -4   14   15      2.43      0.00
   -1   14   15     -9.09      0.00
    2   14   15      5.31      0.00
    5   14   15     -0.91      0.00
    8   14   15      2.02      0.00
  -21   15   15     -8.52      0.00
  -18   15   15     -0.04      0.00
  -15   15   15     -2.58      0.00
  -12   15   15     -5.19      0.00
   -9   15   15      0.22      0.00
   -6   15   15     -0.86      0.00
   -3   15   15     -1.57      0.00
    0   15   15      1.76      0.00
    3   15   15     -3.52      0.00
    6   15   15      1.49      0.00
  -20   16   15     10.39      0.00
  -17   16   15     -2.33      0.00
  -14   16   15     -7.95      0.00
  -11   16   15     -5.83      0.00
   -8   16   15      5.43      0.00
   -5   16   15     -4.16      0.00
   -2   16   15      5.04      0.00
    1   16   15      4.93      0.00
    4   16   15     -0.72      0.00
  -22   17   15      1.53      0.00
  -19   17   15      3.00      0.00
  -16   17   15     -7.30      0.00
  -13   17   15     -2.27      0.00
  -10   17   15     -4.76      0.00
   -7   17   15     10.09      0.00
   -4   17   15      1.86      0.00
   -1   17   15     10.51      0.00
    2   17   15      1.03      0.00
    5   17   15     -2.19      0.00
  -21   18   15     13.42      0.00
  -18   18   15     -5.54      0.00
  -15   18   15     -6.57      0.00
  -12   18   15      5.25      0.00
   -9   18   15     -5.01      0.00
   -6   18   15      8.96      0.00
   -3   18   15      2.93      0.00
    0   18   15      6.02      0.00
    3   18   15      2.94      0.00
  -20   19   15     -6.91      0.00
  -17   19   15     -7.74      0.00
  -14   19   15      0.35      0.00
  -11   19   15      4.74      0.00
   -8   19   15      1.72      0.00
   -5   19   15      4.99      0.00
   -2   19   15      0.72      0.00
    1   19   15      7.46      0.00
  -19   20   15      1.35      0.00
  -16   20   15     -1.71      0.00
  -13   20   15      0.32      0.00
  -10   20   15     -0.82      0.00
   -7   20   15      2.60      0.00
   -4   20   15     -3.56      0.00
   -1   20   15     -1.01      0.00
  -18   21   15     -9.56      0.00
  -15   21   15     -3.99      0.00
  -12   21   15      0.82      0.00
   -9   21   15     -0.46      0.00
   -6   21   15     -5.59      0.00
   -3   21   15      1.42      0.00
  -17   22   15     -6.01      0.00
  -14   22   15     -4.76      0.00
  -11   22   15      3.24      0.00
   -8   22   15     -0.76      0.00
   -5   22   15     -5.68      0.00
  -13   23   15      3.72      0.00
  -10   23   15      0.12      0.00
   -1    1   16     45.84      0.00
   -3    2   16     79.76      0.00
    0    2   16    265.15      0.00
   -5    3   16    -33.87      0.00
   -2    3   16     37.88      0.00
    1    3   16     19.40      0.00
   -7    4   16     -8.16      0.00
   -4    4   16     -1.07      0.00
   -1    4   16     14.27      0.00
    2    4   16     27.35      0.00
   -9    5   16    -47.84      0.00
   -6    5   16    -21.56      0.00
   -3    5   16    -10.95      0.00
    0    5   16     -8.62      0.00
    3    5   16     10.54      0.00
  -11    6   16      1.56      0.00
   -8    6   16     -4.55      0.00
   -5    6   16    -51.94      0.00
   -2    6   16     18.41      0.00
    1    6   16     48.17      0.00
    4    6   16    -20.02      0.00
  -13    7   16      6.83      0.00
  -10    7   16     -3.53      0.00
   -7    7   16    -61.22      0.00
   -4    7   16    -30.54      0.00
   -1    7   16     63.88      0.00
    2    7   16    -25.43      0.00
    5    7   16      7.35      0.00
  -15    8   16     -9.12      0.00
  -12    8   16     24.67      0.00
   -9    8   16     12.03      0.00
   -6    8   16    -17.94      0.00
   -3    8   16    -48.46      0.00
    0    8   16     -4.23      0.00
    3    8   16      6.05      0.00
    6    8   16     -9.96      0.00
  -17    9   16     -5.19      0.00
  -14    9   16      9.97      0.00
  -11    9   16      8.83      0.00
   -8    9   16      9.61      0.00
   -5    9   16    -15.70      0.00
   -2    9   16     -3.43      0.00
    1    9   16     -4.62      0.00
    4    9   16    -10.64      0.00
    7    9   16      6.56      0.00
  -19   10   16     -1.16      0.00
  -16   10   16     -5.92      0.00
  -13   10   16      2.98      0.00
  -10   10   16     29.37      0.00
   -7   10   16    -14.08      0.00
   -4   10   16      4.12      0.00
   -1   10   16     -4.32      0.00
    2   10   16    -11.77      0.00
    5   10   16      9.31      0.00
    8   10   16     -0.82      0.00
  -21   11   16      6.83      0.00
  -18   11   16     -2.42      0.00
  -15   11   16    -10.81      0.00
  -12   11   16     -5.84      0.00
   -9   11   16     -2.58      0.00
   -6   11   16     14.31      0.00
   -3   11   16    -14.31      0.00
    0   11   16     -8.59      0.00
    3   11   16      4.78      0.00
    6   11   16      0.45      0.00
    9   11   16      2.29      0.00
  -23   12   16     -2.97      0.00
  -20   12   16      8.34      0.00
  -17   12   16     -7.12      0.00
  -14   12   16      2.51      0.00
  -11   12   16     -7.03      0.00
   -8   12   16      0.45      0.00
   -5   12   16      5.70      0.00
   -2   12   16     -1.56      0.00
    1   12   16     -8.99      0.00
    4   12   16      8.15      0.00
    7   12   16     -2.72      0.00
   10   12   16      4.88      0.00
  -22   13   16      6.51      0.00
  -19   13   16      0.63      0.00
  -16   13   16      1.29      0.00
  -13   13   16     -2.40      0.00
  -10   13   16      5.38      0.00
   -7   13   16      2.66      0.00
   -4   13   16    -11.36      0.00
   -1   13   16     -0.06      0.00
    2   13   16     14.13      0.00
    5   13   16     -7.04      0.00
    8   13   16     -2.43      0.00
  -21   14   16      4.41      0.00
  -18   14   16      1.56      0.00
  -15   14   16      4.83      0.00
  -12   14   16     -3.36      0.00
   -9   14   16      3.99      0.00
   -6   14   16     -4.25      0.00
   -3   14   16     10.08      0.00
    0   14   16     -1.26      0.00
    3   14   16      4.53      0.00
    6   14   16      4.35      0.00
    9   14   16      4.51      0.00
  -20   15   16     -2.97      0.00
  -17   15   16     -1.95      0.00
  -14   15   16     -5.89      0.00
  -11   15   16     -4.21      0.00
   -8   15   16     -3.78      0.00
   -5   15   16      2.25      0.00
   -2   15   16      0.95      0.00
    1   15   16      4.14      0.00
    4   15   16      2.18      0.00
    7   15   16     -1.79      0.00
  -22   16   16     -6.27      0.00
  -19   16   16      8.16      0.00
  -16   16   16      1.25      0.00
  -13   16   16     -0.35      0.00
  -10   16   16     -6.51      0.00
   -7   16   16      6.25      0.00
   -4   16   16     -4.75      0.00
   -1   16   16      3.25      0.00
    2   16   16     -0.65      0.00
    5   16   16      1.03      0.00
  -21   17   16      6.07      0.00
  -18   17   16     -0.67      0.00
  -15   17   16     -8.61      0.00
  -12   17   16     -3.44      0.00
   -9   17   16     -3.96      0.00
   -6   17   16      4.91      0.00
   -3   17   16      1.46      0.00
    0   17   16      0.11      0.00
    3   17   16     -1.68      0.00
  -20   18   16      0.65      0.00
  -17   18   16      0.41      0.00
  -14   18   16     -5.11      0.00
  -11   18   16      9.02      0.00
   -8   18   16      3.19      0.00
   -5   18   16      2.75      0.00
   -2   18   16      0.30      0.00
    1   18   16     -2.57      0.00
  -19   19   16     -6.65      0.00
  -16   19   16      1.53      0.00
  -13   19   16      3.82      0.00
  -10   19   16      2.69      0.00
   -7   19   16      0.85      0.00
   -4   19   16      3.09      0.00
   -1   19   16     -3.01      0.00
    2   19   16     -0.49      0.00
  -18   20   16     -0.57      0.00
  -15   20   16      7.51      0.00
  -12   20   16      5.02      0.00
   -9   20   16      0.18      0.00
   -6   20   16     -1.53      0.00
   -3   20   16     -1.93      0.00
    0   20   16     -0.34      0.00
  -17   21   16      1.11      0.00
  -14   21   16     -1.73      0.00
  -11   21   16      6.52      0.00
   -8   21   16     -2.24      0.00
   -5   21   16     -8.06      0.00
   -2   21   16      1.26      0.00
  -16   22   16      4.62      0.00
  -13   22   16     -1.10      0.00
  -10   22   16      0.33      0.00
   -7   22   16     -6.42      0.00
  -12   23   16      2.53      0.00
   -9   23   16     -1.12      0.00
    0    1   17    -63.23      0.00
   -2    2   17      5.91      0.00
    1    2   17    124.28      0.00
   -4    3   17      4.72      0.00
   -1    3   17     15.57      0.00
    2    3   17     -6.65      0.00
   -6    4   17     -5.46      0.00
   -3    4   17      5.06      0.00
    0    4   17    -75.61      0.00
    3    4   17     73.17      0.00
   -8    5   17    -20.40      0.00
   -5    5   17     21.42      0.00
   -2    5   17    -39.73      0.00
    1    5   17     62.09      0.00
    4    5   17    -27.89      0.00
  -10    6   17    -33.81      0.00
   -7    6   17     23.41      0.00
   -4    6   17     17.03      0.00
   -1    6   17     58.61      0.00
    2    6   17      7.38      0.00
    5    6   17      5.23      0.00
  -12    7   17     -7.14      0.00
   -9    7   17    -11.47      0.00
   -6    7   17    -22.30      0.00
   -3    7   17     -3.34      0.00
    0    7   17     22.85      0.00
    3    7   17    -12.90      0.00
    6    7   17    -23.81      0.00
  -14    8   17    -10.29      0.00
  -11    8   17    -15.23      0.00
   -8    8   17      8.64      0.00
   -5    8   17      6.79      0.00
   -2    8   17      3.57      0.00
    1    8   17      0.00      0.00
    4    8   17     -1.89      0.00
    7    8   17      0.70      0.00
  -16    9   17      1.93      0.00
  -13    9   17     11.82      0.00
  -10    9   17      3.18      0.00
   -7    9   17     -3.89      0.00
   -4    9   17    -26.89      0.00
   -1    9   17    -10.95      0.00
    2    9   17      9.98      0.00
    5    9   17     -1.96      0.00
    8    9   17     -0.76      0.00
  -18   10   17      1.14      0.00
  -15   10   17      0.63      0.00
  -12   10   17     -4.85      0.00
   -9   10   17     17.52      0.00
   -6   10   17      9.19      0.00
   -3   10   17     -6.86      0.00
    0   10   17     19.82      0.00
    3   10   17     -1.12      0.00
    6   10   17      8.71      0.00
    9   10   17      9.00      0.00
  -20   11   17      4.41      0.00
  -17   11   17      8.33      0.00
  -14   11   17     -1.58      0.00
  -11   11   17      2.08      0.00
   -8   11   17     -5.37      0.00
   -5   11   17      7.05      0.00
   -2   11   17    -12.39      0.00
    1   11   17     -7.89      0.00
    4   11   17      8.91      0.00
    7   11   17      8.60      0.00
   10   11   17      3.15      0.00
  -22   12   17     -4.90      0.00
  -19   12   17      2.50      0.00
  -16   12   17     -5.35      0.00
  -13   12   17      4.06      0.00
  -10   12   17      2.55      0.00
   -7   12   17      1.29      0.00
   -4   12   17    -18.74      0.00
   -1   12   17      3.88      0.00
    2   12   17      7.76      0.00
    5   12   17     -0.03      0.00
    8   12   17      1.14      0.00
   11   12   17     -2.37      0.00
  -21   13   17      6.43      0.00
  -18   13   17     -6.26      0.00
  -15   13   17      6.47      0.00
  -12   13   17     -1.69      0.00
   -9   13   17      9.25      0.00
   -6   13   17    -12.35      0.00
   -3   13   17     -1.10      0.00
    0   13   17     -3.71      0.00
    3   13   17     14.35      0.00
    6   13   17     -1.16      0.00
    9   13   17     -0.83      0.00
  -23   14   17      7.13      0.00
  -20   14   17     -9.96      0.00
  -17   14   17     -5.37      0.00
  -14   14   17     -3.38      0.00
  -11   14   17      3.99      0.00
   -8   14   17    -12.11      0.00
   -5   14   17     -0.27      0.00
   -2   14   17      6.23      0.00
    1   14   17      3.31      0.00
    4   14   17     -4.59      0.00
    7   14   17     -2.18      0.00
  -22   15   17      2.83      0.00
  -19   15   17     -3.03      0.00
  -16   15   17     -6.09      0.00
  -13   15   17      0.63      0.00
  -10   15   17      0.02      0.00
   -7   15   17     -2.24      0.00
   -4   15   17      4.52      0.00
   -1   15   17      0.24      0.00
    2   15   17     -1.13      0.00
    5   15   17      8.68      0.00
  -21   16   17     -3.01      0.00
  -18   16   17     -1.45      0.00
  -15   16   17     -8.35      0.00
  -12   16   17      1.55      0.00
   -9   16   17     -3.13      0.00
   -6   16   17      0.96      0.00
   -3   16   17     -3.73      0.00
    0   16   17     -7.40      0.00
    3   16   17      1.73      0.00
    6   16   17     -4.84      0.00
  -20   17   17      9.23      0.00
  -17   17   17      2.32      0.00
  -14   17   17     -6.08      0.00
  -11   17   17      7.14      0.00
   -8   17   17      2.03      0.00
   -5   17   17     -3.45      0.00
   -2   17   17     -2.06      0.00
    1   17   17     -4.42      0.00
    4   17   17     -0.50      0.00
  -19   18   17     -1.86      0.00
  -16   18   17      0.05      0.00
  -13   18   17     -1.23      0.00
  -10   18   17      8.71      0.00
   -7   18   17     -0.12      0.00
   -4   18   17      1.52      0.00
   -1   18   17     -3.25      0.00
    2   18   17     -4.93      0.00
  -21   19   17      1.76      0.00
  -18   19   17      0.50      0.00
  -15   19   17      7.05      0.00
  -12   19   17     13.84      0.00
   -9   19   17     -0.30      0.00
   -6   19   17     -0.78      0.00
   -3   19   17      3.53      0.00
    0   19   17     -3.14      0.00
  -20   20   17      2.21      0.00
  -17   20   17      3.23      0.00
  -14   20   17      6.66      0.00
  -11   20   17      3.90      0.00
   -8   20   17     -5.34      0.00
   -5   20   17      4.76      0.00
   -2   20   17      2.78      0.00
  -19   21   17      5.56      0.00
  -16   21   17      9.01      0.00
  -13   21   17     -5.46      0.00
  -10   21   17     -0.17      0.00
   -7   21   17     -1.38      0.00
   -4   21   17      0.40      0.00
  -15   22   17      4.91      0.00
  -12   22   17     -3.02      0.00
   -9   22   17     -4.42      0.00
   -6   22   17     -0.25      0.00
  -11   23   17     -7.33      0.00
    0    0   18   -239.92      0.00
    1    1   18     52.57      0.00
   -1    2   18    -48.09      0.00
    2    2   18     -3.61      0.00
   -3    3   18     48.63      0.00
    0    3   18    -61.30      0.00
    3    3   18     -0.21      0.00
   -5    4   18    -33.76      0.00
   -2    4   18    -71.48      0.00
    1    4   18    -73.60      0.00
    4    4   18     10.53      0.00
   -7    5   18     24.92      0.00
   -4    5   18     26.80      0.00
   -1    5   18    -87.39      0.00
    2    5   18     39.87      0.00
    5    5   18     28.19      0.00
   -9    6   18     -7.26      0.00
   -6    6   18     47.87      0.00
   -3    6   18    -24.06      0.00
    0    6   18     -7.93      0.00
    3    6   18    -21.30      0.00
    6    6   18     12.09      0.00
  -11    7   18     11.91      0.00
   -8    7   18     57.66      0.00
   -5    7   18      6.54      0.00
   -2    7   18     -0.63      0.00
    1    7   18    -27.72      0.00
    4    7   18     17.64      0.00
    7    7   18    -16.36      0.00
  -13    8   18     -1.15      0.00
  -10    8   18     -8.59      0.00
   -7    8   18      1.24      0.00
   -4    8   18    -15.27      0.00
   -1    8   18    -50.51      0.00
    2    8   18     10.70      0.00
    5    8   18     -9.02      0.00
    8    8   18     -3.40      0.00
  -15    9   18     -5.99      0.00
  -12    9   18      5.14      0.00
   -9    9   18     19.35      0.00
   -6    9   18     17.20      0.00
   -3    9   18    -15.47      0.00
    0    9   18     14.36      0.00
    3    9   18      5.59      0.00
    6    9   18      5.49      0.00
    9    9   18     -4.42      0.00
  -17   10   18      6.90      0.00
  -14   10   18      2.02      0.00
  -11   10   18     -9.62      0.00
   -8   10   18     -3.07      0.00
   -5   10   18      6.71      0.00
   -2   10   18    -17.26      0.00
    1   10   18     11.34      0.00
    4   10   18      1.13      0.00
    7   10   18     -6.46      0.00
   10   10   18      6.54      0.00
  -19   11   18     -2.40      0.00
  -16   11   18      2.12      0.00
  -13   11   18      0.01      0.00
  -10   11   18     -3.90      0.00
   -7   11   18     14.67      0.00
   -4   11   18     10.14      0.00
   -1   11   18      7.82      0.00
    2   11   18      0.28      0.00
    5   11   18     -4.40      0.00
    8   11   18     11.83      0.00
   11   11   18     -6.33      0.00
  -21   12   18     -4.09      0.00
  -18   12   18      5.03      0.00
  -15   12   18      1.63      0.00
  -12   12   18     -3.65      0.00
   -9   12   18     -1.11      0.00
   -6   12   18     -3.20      0.00
   -3   12   18    -15.75      0.00
    0   12   18     -9.31      0.00
    3   12   18      5.81      0.00
    6   12   18      1.95      0.00
    9   12   18     -1.21      0.00
  -23   13   18     -8.83      0.00
  -20   13   18     -7.61      0.00
  -17   13   18     -4.56      0.00
  -14   13   18      8.24      0.00
  -11   13   18     -3.15      0.00
   -8   13   18    -11.00      0.00
   -5   13   18     -0.37      0.00
   -2   13   18      0.67      0.00
    1   13   18     -1.33      0.00
    4   13   18      0.42      0.00
    7   13   18     -1.36      0.00
   10   13   18      4.15      0.00
  -22   14   18      1.60      0.00
  -19   14   18    -18.14      0.00
  -16   14   18      5.28      0.00
  -13   14   18     -3.22      0.00
  -10   14   18     -1.57      0.00
   -7   14   18    -14.02      0.00
   -4   14   18      0.95      0.00
   -1   14   18      1.01      0.00
    2   14   18      3.64      0.00
    5   14   18     -2.79      0.00
    8   14   18     -4.45      0.00
  -21   15   18     -8.29      0.00
  -18   15   18      0.65      0.00
  -15   15   18     -0.98      0.00
  -12   15   18      1.10      0.00
   -9   15   18     -7.00      0.00
   -6   15   18     -5.15      0.00
   -3   15   18      0.91      0.00
    0   15   18     -1.44      0.00
    3   15   18     -3.09      0.00
    6   15   18      1.22      0.00
  -20   16   18      3.31      0.00
  -17   16   18      0.53      0.00
  -14   16   18     -1.64      0.00
  -11   16   18     -0.63      0.00
   -8   16   18     -4.46      0.00
   -5   16   18     -4.10      0.00
   -2   16   18      0.46      0.00
    1   16   18     -3.13      0.00
    4   16   18      5.96      0.00
  -19   17   18      4.40      0.00
  -16   17   18      3.28      0.00
  -13   17   18     -6.81      0.00
  -10   17   18      5.27      0.00
   -7   17   18     -5.90      0.00
   -4   17   18     -4.64      0.00
   -1   17   18     -2.44      0.00
    2   17   18      0.55      0.00
    5   17   18     -0.72      0.00
  -21   18   18      3.70      0.00
  -18   18   18     -3.96      0.00
  -15   18   18     -2.26      0.00
  -12   18   18      3.28      0.00
   -9   18   18      1.92      0.00
   -6   18   18     -2.73      0.00
   -3   18   18      1.41      0.00
    0   18   18      3.01      0.00
    3   18   18     -0.10      0.00
  -20   19   18      3.19      0.00
  -17   19   18     -2.46      0.00
  -14   19   18      2.51      0.00
  -11   19   18      4.58      0.00
   -8   19   18     -3.29      0.00
   -5   19   18      2.69      0.00
   -2   19   18      6.15      0.00
    1   19   18     -2.24      0.00
  -19   20   18     -0.11      0.00
  -16   20   18      1.05      0.00
  -13   20   18     -2.55      0.00
  -10   20   18     -1.13      0.00
   -7   20   18      0.07      0.00
   -4   20   18      3.35      0.00
   -1   20   18      5.52      0.00
  -18   21   18     -4.19      0.00
  -15   21   18      3.53      0.00
  -12   21   18     -9.14      0.00
   -9   21   18     -1.78      0.00
   -6   21   18      5.85      0.00
   -3   21   18      1.11      0.00
  -17   22   18     -3.02      0.00
  -14   22   18     -9.40      0.00
  -11   22   18     -2.31      0.00
   -8   22   18      1.06      0.00
   -5   22   18      2.43      0.00
  -13   23   18     -7.39      0.00
  -10   23   18     -4.69      0.00
   -1    1   19    -14.09      0.00
   -3    2   19    152.99      0.00
    0    2   19     61.41      0.00
   -5    3   19    -85.46      0.00
   -2    3   19     62.71      0.00
    1    3   19    -52.45      0.00
   -7    4   19    -22.86      0.00
   -4    4   19     -9.23      0.00
   -1    4   19    -65.08      0.00
    2    4   19     14.27      0.00
   -9    5   19    -21.20      0.00
   -6    5   19    -28.42      0.00
   -3    5   19    -47.98      0.00
    0    5   19    -25.51      0.00
    3    5   19    -24.57      0.00
  -11    6   19     46.15      0.00
   -8    6   19     -0.41      0.00
   -5    6   19    -18.73      0.00
   -2    6   19    -12.09      0.00
    1    6   19    -12.42      0.00
    4    6   19     -5.49      0.00
  -13    7   19     -4.21      0.00
  -10    7   19    -10.26      0.00
   -7    7   19     10.92      0.00
   -4    7   19    -36.55      0.00
   -1    7   19    -46.80      0.00
    2    7   19    -24.60      0.00
    5    7   19      4.83      0.00
  -15    8   19     -6.81      0.00
  -12    8   19     14.70      0.00
   -9    8   19      7.45      0.00
   -6    8   19    -42.89      0.00
   -3    8   19      0.99      0.00
    0    8   19    -33.37      0.00
    3    8   19    -12.35      0.00
    6    8   19     -0.74      0.00
  -17    9   19     -9.43      0.00
  -14    9   19     -7.18      0.00
  -11    9   19     -6.61      0.00
   -8    9   19    -16.76      0.00
   -5    9   19     -7.87      0.00
   -2    9   19    -22.76      0.00
    1    9   19      3.78      0.00
    4    9   19     -0.12      0.00
    7    9   19     -4.84      0.00
  -19   10   19     -4.69      0.00
  -16   10   19     -7.36      0.00
  -13   10   19      3.05      0.00
  -10   10   19     -6.88      0.00
   -7   10   19     10.35      0.00
   -4   10   19     16.93      0.00
   -1   10   19     -4.49      0.00
    2   10   19     -5.43      0.00
    5   10   19      4.95      0.00
    8   10   19    -10.00      0.00
  -21   11   19      1.09      0.00
  -18   11   19      2.97      0.00
  -15   11   19     -9.35      0.00
  -12   11   19     -1.51      0.00
   -9   11   19     -8.25      0.00
   -6   11   19     11.43      0.00
   -3   11   19     -2.08      0.00
    0   11   19    -11.20      0.00
    3   11   19      6.34      0.00
    6   11   19     -4.24      0.00
    9   11   19      3.71      0.00
  -23   12   19     -7.12      0.00
  -20   12   19     -1.20      0.00
  -17   12   19      0.61      0.00
  -14   12   19      0.14      0.00
  -11   12   19      1.05      0.00
   -8   12   19      4.90      0.00
   -5   12   19     15.86      0.00
   -2   12   19    -10.73      0.00
    1   12   19     -3.74      0.00
    4   12   19      7.14      0.00
    7   12   19      5.00      0.00
   10   12   19      0.31      0.00
  -22   13   19     -3.11      0.00
  -19   13   19     -6.86      0.00
  -16   13   19      2.68      0.00
  -13   13   19      0.16      0.00
  -10   13   19      6.81      0.00
   -7   13   19    -16.03      0.00
   -4   13   19     -2.27      0.00
   -1   13   19     -2.32      0.00
    2   13   19      6.14      0.00
    5   13   19      3.31      0.00
    8   13   19     -5.33      0.00
  -21   14   19     -2.55      0.00
  -18   14   19     -8.19      0.00
  -15   14   19      9.20      0.00
  -12   14   19      0.48      0.00
   -9   14   19     -4.75      0.00
   -6   14   19     -2.86      0.00
   -3   14   19      0.16      0.00
    0   14   19      5.30      0.00
    3   14   19      7.10      0.00
    6   14   19     -1.73      0.00
  -20   15   19     -8.03      0.00
  -17   15   19      8.23      0.00
  -14   15   19      4.49      0.00
  -11   15   19     -2.98      0.00
   -8   15   19     -4.75      0.00
   -5   15   19     -6.97      0.00
   -2   15   19      3.11      0.00
    1   15   19      4.72      0.00
    4   15   19     -3.55      0.00
    7   15   19     -7.20      0.00
  -22   16   19      1.91      0.00
  -19   16   19      9.28      0.00
  -16   16   19      9.08      0.00
  -13   16   19     -1.77      0.00
  -10   16   19      1.00      0.00
   -7   16   19    -15.27      0.00
   -4   16   19      1.02      0.00
   -1   16   19      3.53      0.00
    2   16   19     -1.05      0.00
    5   16   19     -1.06      0.00
  -21   17   19      0.80      0.00
  -18   17   19     -1.09      0.00
  -15   17   19      3.19      0.00
  -12   17   19     -8.63      0.00
   -9   17   19      0.78      0.00
   -6   17   19     -3.71      0.00
   -3   17   19     -2.19      0.00
    0   17   19      1.31      0.00
    3   17   19     -1.93      0.00
  -20   18   19      1.17      0.00
  -17   18   19      0.59      0.00
  -14   18   19     -0.82      0.00
  -11   18   19      0.46      0.00
   -8   18   19      0.43      0.00
   -5   18   19     -1.79      0.00
   -2   18   19      1.06      0.00
    1   18   19     -3.08      0.00
  -19   19   19     -2.56      0.00
  -16   19   19     -2.46      0.00
  -13   19   19     -0.20      0.00
  -10   19   19     -1.90      0.00
   -7   19   19      2.76      0.00
   -4   19   19     -2.96      0.00
   -1   19   19      6.60      0.00
  -18   20   19      1.43      0.00
  -15   20   19      3.59      0.00
  -12   20   19     -5.42      0.00
   -9   20   19      0.61      0.00
   -6   20   19      2.05      0.00
   -3   20   19     -1.17      0.00
    0   20   19      0.49      0.00
  -17   21   19     -3.62      0.00
  -14   21   19     -5.63      0.00
  -11   21   19      3.12      0.00
   -8   21   19     -1.44      0.00
   -5   21   19      3.58      0.00
  -16   22   19      3.69      0.00
  -13   22   19     -9.80      0.00
  -10   22   19      3.56      0.00
   -7   22   19      2.55      0.00
  -12   23   19      1.68      0.00
    0    1   20    -92.77      0.00
   -2    2   20    107.38      0.00
    1    2   20     39.97      0.00
   -4    3   20     10.89      0.00
   -1    3   20     -2.41      0.00
    2    3   20     -8.47      0.00
   -6    4   20    -27.12      0.00
   -3    4   20     -6.55      0.00
    0    4   20     19.30      0.00
    3    4   20     43.18      0.00
   -8    5   20    -32.61      0.00
   -5    5   20     -3.05      0.00
   -2    5   20     -8.03      0.00
    1    5   20    104.62      0.00
    4    5   20    -45.46      0.00
  -10    6   20     -9.02      0.00
   -7    6   20      6.02      0.00
   -4    6   20    -35.12      0.00
   -1    6   20     22.63      0.00
    2    6   20     15.88      0.00
    5    6   20      2.63      0.00
  -12    7   20      8.17      0.00
   -9    7   20    -30.98      0.00
   -6    7   20    -36.22      0.00
   -3    7   20     35.32      0.00
    0    7   20    -21.19      0.00
    3    7   20    -17.80      0.00
    6    7   20     -9.08      0.00
  -14    8   20      0.67      0.00
  -11    8   20    -12.94      0.00
   -8    8   20    -12.48      0.00
   -5    8   20    -43.38      0.00
   -2    8   20      4.06      0.00
    1    8   20      9.77      0.00
    4    8   20    -15.82      0.00
    7    8   20      6.83      0.00
  -16    9   20      4.67      0.00
  -13    9   20      0.65      0.00
  -10    9   20    -17.12      0.00
   -7    9   20    -19.98      0.00
   -4    9   20      5.94      0.00
   -1    9   20     -1.01      0.00
    2    9   20    -18.50      0.00
    5    9   20      7.03      0.00
    8    9   20     -6.66      0.00
  -18   10   20     -1.03      0.00
  -15   10   20     -4.39      0.00
  -12   10   20      7.06      0.00
   -9   10   20    -18.17      0.00
   -6   10   20      7.91      0.00
   -3   10   20      6.43      0.00
    0   10   20    -12.56      0.00
    3   10   20     -0.60      0.00
    6   10   20      5.68      0.00
    9   10   20     -2.83      0.00
  -20   11   20      2.89      0.00
  -17   11   20      1.73      0.00
  -14   11   20     -5.38      0.00
  -11   11   20      8.09      0.00
   -8   11   20      4.01      0.00
   -5   11   20      5.79      0.00
   -2   11   20    -20.64      0.00
    1   11   20     -7.92      0.00
    4   11   20      6.87      0.00
    7   11   20     -1.75      0.00
   10   11   20      0.73      0.00
  -22   12   20     -2.57      0.00
  -19   12   20      2.86      0.00
  -16   12   20     -4.61      0.00
  -13   12   20      1.09      0.00
  -10   12   20     19.44      0.00
   -7   12   20     -9.27      0.00
   -4   12   20      1.77      0.00
   -1   12   20     -7.13      0.00
    2   12   20      2.85      0.00
    5   12   20     10.39      0.00
    8   12   20      0.76      0.00
   11   12   20      0.52      0.00
  -21   13   20      2.48      0.00
  -18   13   20     -6.79      0.00
  -15   13   20     -4.16      0.00
  -12   13   20      6.44      0.00
   -9   13   20     14.69      0.00
   -6   13   20     -6.62      0.00
   -3   13   20     -5.68      0.00
    0   13   20      3.58      0.00
    3   13   20      8.22      0.00
    6   13   20      4.64      0.00
    9   13   20     -1.88      0.00
  -20   14   20     -1.51      0.00
  -17   14   20     -7.06      0.00
  -14   14   20     -0.58      0.00
  -11   14   20     12.39      0.00
   -8   14   20     -1.12      0.00
   -5   14   20     -1.78      0.00
   -2   14   20      2.77      0.00
    1   14   20      2.31      0.00
    4   14   20      5.06      0.00
    7   14   20     -3.33      0.00
  -22   15   20      0.61      0.00
  -19   15   20     -1.47      0.00
  -16   15   20     -2.45      0.00
  -13   15   20      3.20      0.00
  -10   15   20      3.53      0.00
   -7   15   20     -8.23      0.00
   -4   15   20      5.17      0.00
   -1   15   20     -0.43      0.00
    2   15   20      5.83      0.00
    5   15   20     -6.31      0.00
  -21   16   20      4.88      0.00
  -18   16   20      4.04      0.00
  -15   16   20      1.90      0.00
  -12   16   20     -5.97      0.00
   -9   16   20      7.42      0.00
   -6   16   20     -7.88      0.00
   -3   16   20     -2.03      0.00
    0   16   20      4.09      0.00
    3   16   20     -7.46      0.00
    6   16   20     -8.51      0.00
  -20   17   20      4.99      0.00
  -17   17   20     -0.72      0.00
  -14   17   20     -0.64      0.00
  -11   17   20     -1.44      0.00
   -8   17   20     -2.06      0.00
   -5   17   20      5.70      0.00
   -2   17   20     -2.73      0.00
    1   17   20     -4.86      0.00
    4   17   20     -3.92      0.00
  -19   18   20     -1.37      0.00
  -16   18   20     -2.67      0.00
  -13   18   20      3.42      0.00
  -10   18   20     -1.28      0.00
   -7   18   20      9.74      0.00
   -4   18   20     -4.34      0.00
   -1   18   20      1.11      0.00
    2   18   20     -7.26      0.00
  -18   19   20      5.99      0.00
  -15   19   20      3.61      0.00
  -12   19   20      1.86      0.00
   -9   19   20     -0.62      0.00
   -6   19   20      5.04      0.00
   -3   19   20     -2.70      0.00
    0   19   20     -2.02      0.00
  -17   20   20      3.08      0.00
  -14   20   20      0.69      0.00
  -11   20   20     -0.42      0.00
   -8   20   20     -1.90      0.00
   -5   20   20      2.03      0.00
   -2   20   20     -0.90      0.00
  -16   21   20      5.38      0.00
  -13   21   20     -6.96      0.00
  -10   21   20      4.61      0.00
   -7   21   20     -3.24      0.00
   -4   21   20      4.59      0.00
  -15   22   20      1.22      0.00
  -12   22   20     -0.85      0.00
   -9   22   20     -3.59      0.00
   -6   22   20      7.78      0.00
    0    0   21   -223.79      0.00
    1    1   21    -32.18      0.00
   -1    2   21    -57.70      0.00
    2    2   21    -46.28      0.00
   -3    3   21     54.08      0.00
    0    3   21    -51.39      0.00
    3    3   21     32.15      0.00
   -5    4   21     42.05      0.00
   -2    4   21    -52.78      0.00
    1    4   21     83.96      0.00
    4    4   21    -10.09      0.00
   -7    5   21     36.96      0.00
   -4    5   21     15.95      0.00
   -1    5   21     12.27      0.00
    2    5   21     88.79      0.00
    5    5   21     -8.24      0.00
   -9    6   21     -4.61      0.00
   -6    6   21     46.53      0.00
   -3    6   21     25.96      0.00
    0    6   21     -7.22      0.00
    3    6   21      9.28      0.00
    6    6   21     -2.28      0.00
  -11    7   21      5.21      0.00
   -8    7   21      8.53      0.00
   -5    7   21    -29.65      0.00
   -2    7   21      8.84      0.00
    1    7   21      4.86      0.00
    4    7   21      3.81      0.00
    7    7   21      1.18      0.00
  -13    8   21     -1.75      0.00
  -10    8   21    -20.37      0.00
   -7    8   21      5.20      0.00
   -4    8   21      3.16      0.00
   -1    8   21    -10.64      0.00
    2    8   21     23.04      0.00
    5    8   21      7.71      0.00
    8    8   21      4.82      0.00
  -15    9   21     20.21      0.00
  -12    9   21      1.91      0.00
   -9    9   21    -18.46      0.00
   -6    9   21      5.00      0.00
   -3    9   21     -1.01      0.00
    0    9   21     18.14      0.00
    3    9   21     -2.77      0.00
    6    9   21      4.54      0.00
    9    9   21     -1.84      0.00
  -17   10   21      6.51      0.00
  -14   10   21      1.14      0.00
  -11   10   21      3.40      0.00
   -8   10   21     -9.43      0.00
   -5   10   21     -3.39      0.00
   -2   10   21     -1.13      0.00
    1   10   21      5.03      0.00
    4   10   21      0.83      0.00
    7   10   21     -1.55      0.00
   10   10   21      0.45      0.00
  -19   11   21      0.68      0.00
  -16   11   21      3.75      0.00
  -13   11   21      7.10      0.00
  -10   11   21      2.55      0.00
   -7   11   21     -3.57      0.00
   -4   11   21     -2.02      0.00
   -1   11   21    -14.92      0.00
    2   11   21      4.12      0.00
    5   11   21      4.76      0.00
    8   11   21      0.54      0.00
   11   11   21     -4.21      0.00
  -21   12   21     -3.15      0.00
  -18   12   21     -0.33      0.00
  -15   12   21     -0.87      0.00
  -12   12   21      3.53      0.00
   -9   12   21     11.65      0.00
   -6   12   21    -16.44      0.00
   -3   12   21    -11.12      0.00
    0   12   21     11.27      0.00
    3   12   21     -3.11      0.00
    6   12   21      0.59      0.00
    9   12   21      0.19      0.00
  -20   13   21     -2.05      0.00
  -17   13   21     -3.83      0.00
  -14   13   21      0.16      0.00
  -11   13   21     16.53      0.00
   -8   13   21      2.78      0.00
   -5   13   21      0.20      0.00
   -2   13   21      5.98      0.00
    1   13   21      0.44      0.00
    4   13   21      3.96      0.00
    7   13   21      4.98      0.00
  -22   14   21     -9.85      0.00
  -19   14   21     -2.14      0.00
  -16   14   21     -8.56      0.00
  -13   14   21      4.73      0.00
  -10   14   21     10.61      0.00
   -7   14   21     -2.17      0.00
   -4   14   21      4.43      0.00
   -1   14   21     -1.82      0.00
    2   14   21     -2.33      0.00
    5   14   21     -1.96      0.00
    8   14   21      0.80      0.00
  -21   15   21      5.05      0.00
  -18   15   21     -2.98      0.00
  -15   15   21     -2.06      0.00
  -12   15   21      4.41      0.00
   -9   15   21      9.42      0.00
   -6   15   21     -4.54      0.00
   -3   15   21     -0.23      0.00
    0   15   21      0.00      0.00
    3   15   21      2.04      0.00
    6   15   21     -3.65      0.00
  -20   16   21      4.04      0.00
  -17   16   21     -1.41      0.00
  -14   16   21     -0.47      0.00
  -11   16   21     -6.77      0.00
   -8   16   21     -2.48      0.00
   -5   16   21      4.03      0.00
   -2   16   21    -11.62      0.00
    1   16   21      6.69      0.00
    4   16   21    -10.91      0.00
  -19   17   21      3.95      0.00
  -16   17   21     -3.44      0.00
  -13   17   21     -1.55      0.00
  -10   17   21      1.32      0.00
   -7   17   21      2.55      0.00
   -4   17   21     -5.03      0.00
   -1   17   21      5.57      0.00
    2   17   21     -6.67      0.00
  -18   18   21      2.51      0.00
  -15   18   21     -6.21      0.00
  -12   18   21      2.86      0.00
   -9   18   21     -3.89      0.00
   -6   18   21      5.79      0.00
   -3   18   21     -3.61      0.00
    0   18   21     -1.96      0.00
    3   18   21      1.19      0.00
  -20   19   21      1.52      0.00
  -17   19   21      2.53      0.00
  -14   19   21     -0.41      0.00
  -11   19   21     -2.78      0.00
   -8   19   21      2.29      0.00
   -5   19   21     -0.71      0.00
   -2   19   21      1.94      0.00
    1   19   21     -1.48      0.00
  -19   20   21      8.24      0.00
  -16   20   21     -0.52      0.00
  -13   20   21     -8.07      0.00
  -10   20   21     -1.16      0.00
   -7   20   21     -4.02      0.00
   -4   20   21      3.64      0.00
   -1   20   21      1.09      0.00
  -18   21   21      2.23      0.00
  -15   21   21     -2.07      0.00
  -12   21   21     -5.69      0.00
   -9   21   21     -3.74      0.00
   -6   21   21      1.37      0.00
   -3   21   21      0.37      0.00
  -14   22   21     -7.03      0.00
  -11   22   21     -0.14      0.00
   -8   22   21     -1.34      0.00
   -1    1   22     33.09      0.00
   -3    2   22     38.05      0.00
    0    2   22    -11.14      0.00
   -5    3   22    -41.14      0.00
   -2    3   22     31.32      0.00
    1    3   22    -11.53      0.00
   -7    4   22    -25.77      0.00
   -4    4   22     70.43      0.00
   -1    4   22    -31.34      0.00
    2    4   22     40.19      0.00
   -9    5   22    -16.43      0.00
   -6    5   22     47.87      0.00
   -3    5   22      6.07      0.00
    0    5   22     11.87      0.00
    3    5   22     -8.07      0.00
  -11    6   22      7.03      0.00
   -8    6   22     13.93      0.00
   -5    6   22     -9.34      0.00
   -2    6   22     21.35      0.00
    1    6   22    -52.94      0.00
    4    6   22      3.31      0.00
  -13    7   22     -9.08      0.00
  -10    7   22     19.31      0.00
   -7    7   22      6.65      0.00
   -4    7   22     -4.78      0.00
   -1    7   22    -53.57      0.00
    2    7   22     12.53      0.00
    5    7   22     17.73      0.00
  -15    8   22      3.85      0.00
  -12    8   22      3.89      0.00
   -9    8   22    -14.77      0.00
   -6    8   22     -0.72      0.00
   -3    8   22    -11.24      0.00
    0    8   22     -6.40      0.00
    3    8   22      7.09      0.00
    6    8   22      7.89      0.00
  -17    9   22     -9.82      0.00
  -14    9   22      6.18      0.00
  -11    9   22      2.04      0.00
   -8    9   22     -1.54      0.00
   -5    9   22      7.90      0.00
   -2    9   22     16.08      0.00
    1    9   22     27.60      0.00
    4    9   22     14.00      0.00
    7    9   22    -11.88      0.00
  -19   10   22      1.14      0.00
  -16   10   22     10.25      0.00
  -13   10   22      0.40      0.00
  -10   10   22    -10.79      0.00
   -7   10   22      5.54      0.00
   -4   10   22     -4.90      0.00
   -1   10   22     -3.93      0.00
    2   10   22      7.92      0.00
    5   10   22     -3.48      0.00
    8   10   22     -2.76      0.00
  -21   11   22     -1.75      0.00
  -18   11   22      3.34      0.00
  -15   11   22     -4.90      0.00
  -12   11   22     -1.33      0.00
   -9   11   22     -8.31      0.00
   -6   11   22     -4.66      0.00
   -3   11   22      8.36      0.00
    0   11   22      9.45      0.00
    3   11   22      0.22      0.00
    6   11   22     -1.32      0.00
    9   11   22      3.78      0.00
  -20   12   22      1.27      0.00
  -17   12   22      4.58      0.00
  -14   12   22      2.46      0.00
  -11   12   22      0.82      0.00
   -8   12   22     -0.31      0.00
   -5   12   22      1.92      0.00
   -2   12   22     -6.02      0.00
    1   12   22     11.35      0.00
    4   12   22      3.71      0.00
    7   12   22     -1.28      0.00
   10   12   22      0.04      0.00
  -22   13   22    -12.19      0.00
  -19   13   22      4.74      0.00
  -16   13   22      3.54      0.00
  -13   13   22      1.80      0.00
  -10   13   22      9.81      0.00
   -7   13   22      2.67      0.00
   -4   13   22      6.29      0.00
   -1   13   22      8.99      0.00
    2   13   22      0.39      0.00
    5   13   22     -2.83      0.00
    8   13   22      5.51      0.00
  -21   14   22     -5.26      0.00
  -18   14   22      6.36      0.00
  -15   14   22      3.55      0.00
  -12   14   22     12.97      0.00
   -9   14   22     10.62      0.00
   -6   14   22      6.16      0.00
   -3   14   22      4.42      0.00
    0   14   22      0.49      0.00
    3   14   22      1.86      0.00
    6   14   22      1.57      0.00
  -20   15   22      4.43      0.00
  -17   15   22      1.58      0.00
  -14   15   22      9.03      0.00
  -11   15   22      0.38      0.00
   -8   15   22      0.53      0.00
   -5   15   22      2.53      0.00
   -2   15   22    -10.32      0.00
    1   15   22      6.20      0.00
    4   15   22     -6.91      0.00
    7   15   22      3.27      0.00
  -19   16   22     -5.14      0.00
  -16   16   22      6.44      0.00
  -13   16   22      1.33      0.00
  -10   16   22     -0.96      0.00
   -7   16   22     -6.89      0.00
   -4   16   22     -2.42      0.00
   -1   16   22      5.54      0.00
    2   16   22      5.16      0.00
    5   16   22     -6.71      0.00
  -21   17   22      3.69      0.00
  -18   17   22      3.57      0.00
  -15   17   22     -5.18      0.00
  -12   17   22     -4.33      0.00
   -9   17   22     -5.56      0.00
   -6   17   22     -3.14      0.00
   -3   17   22     -9.20      0.00
    0   17   22      8.30      0.00
    3   17   22     -8.46      0.00
  -20   18   22     -0.25      0.00
  -17   18   22      3.84      0.00
  -14   18   22     -5.81      0.00
  -11   18   22     -0.59      0.00
   -8   18   22      0.68      0.00
   -5   18   22     -8.04      0.00
   -2   18   22      6.52      0.00
    1   18   22     -5.96      0.00
  -19   19   22     -0.94      0.00
  -16   19   22     -4.74      0.00
  -13   19   22     -7.92      0.00
  -10   19   22     -5.43      0.00
   -7   19   22     -3.86      0.00
   -4   19   22     -2.05      0.00
   -1   19   22     -1.25      0.00
  -18   20   22      2.37      0.00
  -15   20   22     -8.03      0.00
  -12   20   22     -7.40      0.00
   -9   20   22      0.54      0.00
   -6   20   22     -6.96      0.00
   -3   20   22      1.76      0.00
  -17   21   22     -3.67      0.00
  -14   21   22    -10.14      0.00
  -11   21   22      2.37      0.00
   -8   21   22     -2.33      0.00
   -5   21   22     -1.61      0.00
  -13   22   22     -6.69      0.00
  -10   22   22      2.88      0.00
   -7   22   22      1.76      0.00
    0    1   23     80.47      0.00
   -2    2   23     93.23      0.00
    1    2   23     19.35      0.00
   -4    3   23      6.18      0.00
   -1    3   23    -24.78      0.00
    2    3   23      4.70      0.00
   -6    4   23    -34.51      0.00
   -3    4   23     42.58      0.00
    0    4   23     76.26      0.00
    3    4   23    -12.72      0.00
   -8    5   23    -27.88      0.00
   -5    5   23      7.17      0.00
   -2    5   23     37.93      0.00
    1    5   23     10.10      0.00
    4    5   23    -20.15      0.00
  -10    6   23      3.48      0.00
   -7    6   23    -11.81      0.00
   -4    6   23    -29.00      0.00
   -1    6   23     37.00      0.00
    2    6   23    -15.20      0.00
    5    6   23     -7.36      0.00
  -12    7   23     -6.71      0.00
   -9    7   23      5.74      0.00
   -6    7   23    -47.34      0.00
   -3    7   23      7.46      0.00
    0    7   23    -35.01      0.00
    3    7   23    -14.25      0.00
    6    7   23     10.42      0.00
  -14    8   23      2.96      0.00
  -11    8   23     17.69      0.00
   -8    8   23    -14.20      0.00
   -5    8   23     -1.65      0.00
   -2    8   23     10.78      0.00
    1    8   23     15.87      0.00
    4    8   23     -0.39      0.00
    7    8   23     -3.07      0.00
  -16    9   23     -1.95      0.00
  -13    9   23      7.90      0.00
  -10    9   23     -5.06      0.00
   -7    9   23     14.22      0.00
   -4    9   23    -18.46      0.00
   -1    9   23     12.92      0.00
    2    9   23    -12.19      0.00
    5    9   23     11.17      0.00
    8    9   23    -14.01      0.00
  -18   10   23     -3.11      0.00
  -15   10   23      2.42      0.00
  -12   10   23      3.54      0.00
   -9   10   23     -2.23      0.00
   -6   10   23      6.15      0.00
   -3   10   23     21.18      0.00
    0   10   23     -8.50      0.00
    3   10   23     -1.02      0.00
    6   10   23     -7.44      0.00
    9   10   23      7.41      0.00
  -20   11   23      6.38      0.00
  -17   11   23      9.62      0.00
  -14   11   23     -9.73      0.00
  -11   11   23     -2.46      0.00
   -8   11   23     -4.46      0.00
   -5   11   23     -5.60      0.00
   -2   11   23    -12.23      0.00
    1   11   23      0.55      0.00
    4   11   23      0.54      0.00
    7   11   23      1.68      0.00
   10   11   23      3.43      0.00
  -22   12   23     -2.52      0.00
  -19   12   23     11.74      0.00
  -16   12   23     -6.28      0.00
  -13   12   23     -7.73      0.00
  -10   12   23      6.92      0.00
   -7   12   23      5.12      0.00
   -4   12   23     12.09      0.00
   -1   12   23     -4.80      0.00
    2   12   23      5.00      0.00
    5   12   23     10.50      0.00
    8   12   23      3.07      0.00
  -21   13   23      1.11      0.00
  -18   13   23     12.65      0.00
  -15   13   23     -4.94      0.00
  -12   13   23      6.40      0.00
   -9   13   23      8.46      0.00
   -6   13   23     13.11      0.00
   -3   13   23      0.25      0.00
    0   13   23     -2.90      0.00
    3   13   23      9.62      0.00
    6   13   23     -0.01      0.00
    9   13   23      2.10      0.00
  -20   14   23      8.48      0.00
  -17   14   23      5.24      0.00
  -14   14   23     -1.29      0.00
  -11   14   23     12.29      0.00
   -8   14   23      6.55      0.00
   -5   14   23     10.98      0.00
   -2   14   23     -3.00      0.00
    1   14   23      1.84      0.00
    4   14   23      1.45      0.00
    7   14   23      5.44      0.00
  -22   15   23      2.16      0.00
  -19   15   23     -0.43      0.00
  -16   15   23      0.34      0.00
  -13   15   23      5.52      0.00
  -10   15   23      6.85      0.00
   -7   15   23     -1.68      0.00
   -4   15   23      3.98      0.00
   -1   15   23      0.23      0.00
    2   15   23      5.95      0.00
    5   15   23     -4.61      0.00
  -21   16   23      5.23      0.00
  -18   16   23     -5.95      0.00
  -15   16   23      0.00      0.00
  -12   16   23     -1.83      0.00
   -9   16   23     -1.91      0.00
   -6   16   23     -3.41      0.00
   -3   16   23     -3.57      0.00
    0   16   23     11.19      0.00
    3   16   23     -4.62      0.00
  -20   17   23     -7.99      0.00
  -17   17   23      5.60      0.00
  -14   17   23     -7.89      0.00
  -11   17   23      0.48      0.00
   -8   17   23     -1.11      0.00
   -5   17   23     -2.90      0.00
   -2   17   23      5.22      0.00
    1   17   23      1.46      0.00
    4   17   23     -5.05      0.00
  -19   18   23     -2.14      0.00
  -16   18   23     -1.07      0.00
  -13   18   23     -1.23      0.00
  -10   18   23     -1.56      0.00
   -7   18   23     -0.68      0.00
   -4   18   23     -5.50      0.00
   -1   18   23      2.08      0.00
    2   18   23     -4.67      0.00
  -18   19   23      1.93      0.00
  -15   19   23     -4.31      0.00
  -12   19   23     -1.42      0.00
   -9   19   23      1.50      0.00
   -6   19   23     -7.98      0.00
   -3   19   23      4.62      0.00
    0   19   23     -7.77      0.00
  -17   20   23     -1.25      0.00
  -14   20   23     -6.18      0.00
  -11   20   23      0.57      0.00
   -8   20   23     -0.07      0.00
   -5   20   23     -5.19      0.00
   -2   20   23     -0.15      0.00
  -16   21   23     -0.34      0.00
  -13   21   23     -3.35      0.00
  -10   21   23      3.62      0.00
   -7   21   23     -0.12      0.00
   -4   21   23     -4.51      0.00
  -15   22   23      0.98      0.00
  -12   22   23      1.35      0.00
   -9   22   23      3.35      0.00
    0    0   24     -5.27      0.00
    1    1   24     -7.85      0.00
   -1    2   24    -70.65      0.00
    2    2   24    -22.34      0.00
   -3    3   24     17.28      0.00
    0    3   24    -18.68      0.00
    3    3   24     12.55      0.00
   -5    4   24     -6.62      0.00
   -2    4   24    -36.77      0.00
    1    4   24     71.29      0.00
    4    4   24      5.06      0.00
   -7    5   24      6.93      0.00
   -4    5   24      1.76      0.00
   -1    5   24     98.77      0.00
    2    5   24     22.79      0.00
    5    5   24    -16.58      0.00
   -9    6   24      3.71      0.00
   -6    6   24    -24.00      0.00
   -3    6   24    -10.88      0.00
    0    6   24     17.89      0.00
    3    6   24      8.07      0.00
    6    6   24     -5.69      0.00
  -11    7   24     -6.93      0.00
   -8    7   24      0.62      0.00
   -5    7   24    -21.19      0.00
   -2    7   24     14.02      0.00
    1    7   24     33.73      0.00
    4    7   24    -21.58      0.00
    7    7   24     10.96      0.00
  -13    8   24     10.59      0.00
  -10    8   24     10.04      0.00
   -7    8   24      5.90      0.00
   -4    8   24    -27.81      0.00
   -1    8   24     12.94      0.00
    2    8   24     -2.78      0.00
    5    8   24     14.44      0.00
    8    8   24     -0.49      0.00
  -15    9   24     11.05      0.00
  -12    9   24     15.40      0.00
   -9    9   24      8.06      0.00
   -6    9   24     16.04      0.00
   -3    9   24    -13.75      0.00
    0    9   24      0.54      0.00
    3    9   24    -12.94      0.00
    6    9   24      1.30      0.00
    9    9   24      0.02      0.00
  -17   10   24      4.58      0.00
  -14   10   24      9.53      0.00
  -11   10   24      4.89      0.00
   -8   10   24      9.14      0.00
   -5   10   24    -38.01      0.00
   -2   10   24     -2.59      0.00
    1   10   24    -10.18      0.00
    4   10   24      0.70      0.00
    7   10   24     -1.79      0.00
   10   10   24      4.07      0.00
  -19   11   24     -0.30      0.00
  -16   11   24      3.37      0.00
  -13   11   24     -1.56      0.00
  -10   11   24      6.90      0.00
   -7   11   24     -7.24      0.00
   -4   11   24     -8.95      0.00
   -1   11   24    -19.14      0.00
    2   11   24      1.73      0.00
    5   11   24     -0.51      0.00
    8   11   24      8.51      0.00
   11   11   24     -0.79      0.00
  -21   12   24     -0.16      0.00
  -18   12   24     10.35      0.00
  -15   12   24    -11.30      0.00
  -12   12   24      3.17      0.00
   -9   12   24     -1.54      0.00
   -6   12   24      1.44      0.00
   -3   12   24     -2.97      0.00
    0   12   24     -2.17      0.00
    3   12   24      1.24      0.00
    6   12   24     11.54      0.00
    9   12   24      0.12      0.00
  -20   13   24      3.38      0.00
  -17   13   24      1.64      0.00
  -14   13   24    -11.07      0.00
  -11   13   24     13.82      0.00
   -8   13   24     -3.62      0.00
   -5   13   24     10.65      0.00
   -2   13   24      1.63      0.00
    1   13   24     -7.25      0.00
    4   13   24     12.44      0.00
    7   13   24      2.39      0.00
  -22   14   24      1.51      0.00
  -19   14   24      2.97      0.00
  -16   14   24     -4.15      0.00
  -13   14   24     -1.76      0.00
  -10   14   24      6.91      0.00
   -7   14   24      1.19      0.00
   -4   14   24      5.03      0.00
   -1   14   24     -5.83      0.00
    2   14   24      0.98      0.00
    5   14   24      0.58      0.00
    8   14   24      1.27      0.00
  -21   15   24      7.27      0.00
  -18   15   24     -4.93      0.00
  -15   15   24     -4.93      0.00
  -12   15   24     -4.07      0.00
   -9   15   24      0.66      0.00
   -6   15   24     -0.49      0.00
   -3   15   24      0.82      0.00
    0   15   24      2.76      0.00
    3   15   24     -0.25      0.00
    6   15   24      3.23      0.00
  -20   16   24     -1.22      0.00
  -17   16   24     -2.60      0.00
  -14   16   24    -11.32      0.00
  -11   16   24     -0.41      0.00
   -8   16   24     -0.85      0.00
   -5   16   24      1.19      0.00
   -2   16   24      2.51      0.00
    1   16   24      5.10      0.00
    4   16   24     -6.12      0.00
  -19   17   24     -1.16      0.00
  -16   17   24     -0.03      0.00
  -13   17   24     -3.85      0.00
  -10   17   24      1.36      0.00
   -7   17   24      0.32      0.00
   -4   17   24     -1.77      0.00
   -1   17   24      4.74      0.00
    2   17   24      2.28      0.00
  -18   18   24      3.21      0.00
  -15   18   24     -5.18      0.00
  -12   18   24      0.97      0.00
   -9   18   24      3.74      0.00
   -6   18   24     -2.99      0.00
   -3   18   24     -1.09      0.00
    0   18   24     -2.03      0.00
  -17   19   24      3.84      0.00
  -14   19   24      2.34      0.00
  -11   19   24      0.15      0.00
   -8   19   24      4.52      0.00
   -5   19   24     -6.45      0.00
   -2   19   24      4.55      0.00
    1   19   24     -0.40      0.00
  -16   20   24     -0.44      0.00
  -13   20   24     -0.56      0.00
  -10   20   24     -0.12      0.00
   -7   20   24      0.70      0.00
   -4   20   24      0.46      0.00
  -15   21   24      2.08      0.00
  -12   21   24      2.83      0.00
   -9   21   24     -1.31      0.00
   -6   21   24      1.79      0.00
  -14   22   24     -2.11      0.00
  -11   22   24     -1.57      0.00
   -8   22   24      4.68      0.00
   -1    1   25    -10.26      0.00
   -3    2   25     -9.10      0.00
    0    2   25    -75.19      0.00
   -5    3   25    -39.68      0.00
   -2    3   25    -52.90      0.00
    1    3   25    -23.25      0.00
   -7    4   25     13.80      0.00
   -4    4   25     16.92      0.00
   -1    4   25      0.51      0.00
    2    4   25    -23.75      0.00
   -9    5   25    -10.64      0.00
   -6    5   25      0.47      0.00
   -3    5   25    -23.02      0.00
    0    5   25     19.83      0.00
    3    5   25     -6.94      0.00
  -11    6   25    -22.65      0.00
   -8    6   25      9.58      0.00
   -5    6   25     13.39      0.00
   -2    6   25     -7.34      0.00
    1    6   25      1.81      0.00
    4    6   25    -10.00      0.00
  -13    7   25      4.68      0.00
  -10    7   25    -12.12      0.00
   -7    7   25      0.52      0.00
   -4    7   25    -11.12      0.00
   -1    7   25    -27.84      0.00
    2    7   25     31.55      0.00
    5    7   25      5.86      0.00
  -15    8   25     -1.18      0.00
  -12    8   25     -8.53      0.00
   -9    8   25     15.68      0.00
   -6    8   25     34.04      0.00
   -3    8   25    -30.15      0.00
    0    8   25     14.48      0.00
    3    8   25      6.60      0.00
    6    8   25      3.52      0.00
  -17    9   25      3.78      0.00
  -14    9   25      5.23      0.00
  -11    9   25     -1.16      0.00
   -8    9   25     27.26      0.00
   -5    9   25    -28.71      0.00
   -2    9   25     -5.72      0.00
    1    9   25     -2.70      0.00
    4    9   25     12.78      0.00
    7    9   25     -2.05      0.00
  -19   10   25      0.91      0.00
  -16   10   25      2.31      0.00
  -13   10   25      1.18      0.00
  -10   10   25     -1.20      0.00
   -7   10   25      0.94      0.00
   -4   10   25    -40.09      0.00
   -1   10   25    -14.79      0.00
    2   10   25     12.42      0.00
    5   10   25     -6.47      0.00
    8   10   25      6.07      0.00
  -21   11   25     -4.24      0.00
  -18   11   25      1.88      0.00
  -15   11   25      0.50      0.00
  -12   11   25      2.70      0.00
   -9   11   25     -8.82      0.00
   -6   11   25    -13.94      0.00
   -3   11   25     -7.46      0.00
    0   11   25      8.46      0.00
    3   11   25      1.70      0.00
    6   11   25      2.41      0.00
    9   11   25      3.19      0.00
  -20   12   25     -7.09      0.00
  -17   12   25      9.78      0.00
  -14   12   25     -4.97      0.00
  -11   12   25     11.56      0.00
   -8   12   25    -17.77      0.00
   -5   12   25      1.22      0.00
   -2   12   25      7.48      0.00
    1   12   25      7.74      0.00
    4   12   25     -3.95      0.00
    7   12   25      7.38      0.00
   10   12   25     -1.82      0.00
  -22   13   25     -2.72      0.00
  -19   13   25     -1.15      0.00
  -16   13   25      3.15      0.00
  -13   13   25      3.32      0.00
  -10   13   25      7.10      0.00
   -7   13   25     -2.88      0.00
   -4   13   25      6.15      0.00
   -1   13   25     10.55      0.00
    2   13   25     -4.09      0.00
    5   13   25      9.31      0.00
    8   13   25     -0.45      0.00
  -21   14   25      0.29      0.00
  -18   14   25     -0.12      0.00
  -15   14   25      4.37      0.00
  -12   14   25      0.91      0.00
   -9   14   25     -6.34      0.00
   -6   14   25     -2.89      0.00
   -3   14   25      5.10      0.00
    0   14   25     -5.14      0.00
    3   14   25      1.70      0.00
    6   14   25      0.53      0.00
  -20   15   25     -2.15      0.00
  -17   15   25      0.97      0.00
  -14   15   25      1.60      0.00
  -11   15   25     -3.11      0.00
   -8   15   25     -4.66      0.00
   -5   15   25     -5.75      0.00
   -2   15   25      3.21      0.00
    1   15   25      3.62      0.00
    4   15   25     -8.83      0.00
  -19   16   25      1.93      0.00
  -16   16   25      4.67      0.00
  -13   16   25     -7.71      0.00
  -10   16   25      0.06      0.00
   -7   16   25     -8.39      0.00
   -4   16   25     -3.45      0.00
   -1   16   25      5.78      0.00
    2   16   25     -1.12      0.00
    5   16   25     -0.59      0.00
  -18   17   25      3.08      0.00
  -15   17   25     -5.74      0.00
  -12   17   25     -1.46      0.00
   -9   17   25      2.80      0.00
   -6   17   25     -6.40      0.00
   -3   17   25     -4.74      0.00
    0   17   25      0.62      0.00
    3   17   25      0.49      0.00
  -20   18   25      6.48      0.00
  -17   18   25      4.08      0.00
  -14   18   25      2.06      0.00
  -11   18   25     -5.62      0.00
   -8   18   25      0.28      0.00
   -5   18   25     -7.88      0.00
   -2   18   25     -0.73      0.00
    1   18   25      5.70      0.00
  -19   19   25      1.10      0.00
  -16   19   25     -1.85      0.00
  -13   19   25     -1.59      0.00
  -10   19   25     -2.90      0.00
   -7   19   25      0.20      0.00
   -4   19   25     -4.02      0.00
   -1   19   25      0.77      0.00
  -18   20   25      4.83      0.00
  -15   20   25     -0.66      0.00
  -12   20   25      2.70      0.00
   -9   20   25      0.78      0.00
   -6   20   25      1.24      0.00
   -3   20   25      5.91      0.00
  -17   21   25      3.02      0.00
  -14   21   25     -6.30      0.00
  -11   21   25      5.89      0.00
   -8   21   25      2.34      0.00
   -5   21   25      1.22      0.00
  -13   22   25     -2.35      0.00
  -10   22   25     -0.68      0.00
    0    1   26     61.62      0.00
   -2    2   26     41.50      0.00
    1    2   26     -9.34      0.00
   -4    3   26    -18.62      0.00
   -1    3   26    -20.32      0.00
    2    3   26    -68.11      0.00
   -6    4   26    -19.22      0.00
   -3    4   26     -1.92      0.00
    0    4   26     20.39      0.00
    3    4   26    -50.36      0.00
   -8    5   26      2.49      0.00
   -5    5   26     -1.64      0.00
   -2    5   26    -17.77      0.00
    1    5   26    -40.04      0.00
    4    5   26    -30.38      0.00
  -10    6   26    -21.09      0.00
   -7    6   26    -28.46      0.00
   -4    6   26     14.88      0.00
   -1    6   26    -41.16      0.00
    2    6   26     -7.65      0.00
    5    6   26     -7.23      0.00
  -12    7   26    -10.41      0.00
   -9    7   26      5.37      0.00
   -6    7   26      7.19      0.00
   -3    7   26     -6.96      0.00
    0    7   26     -9.40      0.00
    3    7   26     13.21      0.00
    6    7   26     -0.68      0.00
  -14    8   26     -8.36      0.00
  -11    8   26    -17.83      0.00
   -8    8   26     24.96      0.00
   -5    8   26     10.51      0.00
   -2    8   26     -1.73      0.00
    1    8   26     -9.99      0.00
    4    8   26     21.14      0.00
    7    8   26    -14.78      0.00
  -16    9   26     -7.42      0.00
  -13    9   26    -16.00      0.00
  -10    9   26      3.20      0.00
   -7    9   26     25.77      0.00
   -4    9   26    -18.75      0.00
   -1    9   26     -0.73      0.00
    2    9   26      2.65      0.00
    5    9   26     -0.01      0.00
    8    9   26      2.92      0.00
  -18   10   26      5.45      0.00
  -15   10   26    -11.02      0.00
  -12   10   26     -8.68      0.00
   -9   10   26     -2.84      0.00
   -6   10   26     -7.12      0.00
   -3   10   26     -5.76      0.00
    0   10   26    -18.47      0.00
    3   10   26      5.05      0.00
    6   10   26     -2.66      0.00
    9   10   26      7.95      0.00
  -20   11   26      2.57      0.00
  -17   11   26      3.82      0.00
  -14   11   26    -11.83      0.00
  -11   11   26      0.19      0.00
   -8   11   26    -14.94      0.00
   -5   11   26      4.17      0.00
   -2   11   26     -3.02      0.00
    1   11   26     11.72      0.00
    4   11   26     -9.02      0.00
    7   11   26      6.16      0.00
   10   11   26     -1.59      0.00
  -22   12   26     -4.00      0.00
  -19   12   26     -1.15      0.00
  -16   12   26      7.93      0.00
  -13   12   26     -0.60      0.00
  -10   12   26      9.61      0.00
   -7   12   26      5.73      0.00
   -4   12   26      6.14      0.00
   -1   12   26     10.74      0.00
    2   12   26      0.53      0.00
    5   12   26      0.75      0.00
    8   12   26      2.70      0.00
  -21   13   26     -0.59      0.00
  -18   13   26     11.68      0.00
  -15   13   26      0.06      0.00
  -12   13   26      7.29      0.00
   -9   13   26      2.31      0.00
   -6   13   26      6.54      0.00
   -3   13   26      8.57      0.00
    0   13   26     -1.04      0.00
    3   13   26     -0.88      0.00
    6   13   26      2.26      0.00
    9   13   26      1.18      0.00
  -20   14   26     -0.32      0.00
  -17   14   26      2.97      0.00
  -14   14   26      8.07      0.00
  -11   14   26      5.78      0.00
   -8   14   26     -2.65      0.00
   -5   14   26     -4.21      0.00
   -2   14   26      7.78      0.00
    1   14   26      0.32      0.00
    4   14   26      0.26      0.00
    7   14   26      2.77      0.00
  -19   15   26     -0.32      0.00
  -16   15   26      5.82      0.00
  -13   15   26      0.19      0.00
  -10   15   26      1.07      0.00
   -7   15   26     -8.79      0.00
   -4   15   26     -5.39      0.00
   -1   15   26      2.20      0.00
    2   15   26      1.62      0.00
    5   15   26     -6.76      0.00
  -21   16   26     -8.88      0.00
  -18   16   26      5.07      0.00
  -15   16   26      1.68      0.00
  -12   16   26      0.61      0.00
   -9   16   26      4.01      0.00
   -6   16   26     -8.68      0.00
   -3   16   26      0.48      0.00
    0   16   26      5.12      0.00
    3   16   26     -9.00      0.00
  -20   17   26      5.43      0.00
  -17   17   26      0.36      0.00
  -14   17   26      0.97      0.00
  -11   17   26     -2.78      0.00
   -8   17   26     -4.75      0.00
   -5   17   26     -3.08      0.00
   -2   17   26     -2.37      0.00
    1   17   26     -2.45      0.00
  -19   18   26     -0.82      0.00
  -16   18   26     -4.93      0.00
  -13   18   26      3.59      0.00
  -10   18   26     -4.04      0.00
   -7   18   26     -4.10      0.00
   -4   18   26     -2.23      0.00
   -1   18   26     -3.70      0.00
    2   18   26      7.52      0.00
  -18   19   26      1.61      0.00
  -15   19   26     -2.49      0.00
  -12   19   26     -3.77      0.00
   -9   19   26     -3.35      0.00
   -6   19   26      1.30      0.00
   -3   19   26      3.07      0.00
    0   19   26      1.95      0.00
  -17   20   26      3.36      0.00
  -14   20   26     -5.83      0.00
  -11   20   26      7.21      0.00
   -8   20   26      2.71      0.00
   -5   20   26      5.11      0.00
   -2   20   26      3.04      0.00
  -16   21   26      4.69      0.00
  -13   21   26      0.88      0.00
  -10   21   26      8.22      0.00
   -7   21   26      5.55      0.00
  -12   22   26      8.73      0.00
   -9   22   26      2.35      0.00
    0    0   27     62.96      0.00
    1    1   27     17.93      0.00
   -1    2   27      1.75      0.00
    2    2   27    -18.63      0.00
   -3    3   27     -3.61      0.00
    0    3   27     19.26      0.00
    3    3   27    -10.71      0.00
   -5    4   27    -11.04      0.00
   -2    4   27    -32.91      0.00
    1    4   27     26.70      0.00
    4    4   27      1.22      0.00
   -7    5   27     14.29      0.00
   -4    5   27     -0.74      0.00
   -1    5   27    -12.94      0.00
    2    5   27     -4.02      0.00
    5    5   27    -11.65      0.00
   -9    6   27     15.56      0.00
   -6    6   27    -47.56      0.00
   -3    6   27     -7.29      0.00
    0    6   27      1.21      0.00
    3    6   27      0.30      0.00
    6    6   27     -4.31      0.00
  -11    7   27     -5.85      0.00
   -8    7   27      5.80      0.00
   -5    7   27     -0.72      0.00
   -2    7   27     -4.47      0.00
    1    7   27     -2.39      0.00
    4    7   27     12.20      0.00
    7    7   27     -8.51      0.00
  -13    8   27      1.11      0.00
  -10    8   27      9.34      0.00
   -7    8   27     14.54      0.00
   -4    8   27     -2.31      0.00
   -1    8   27     24.88      0.00
    2    8   27    -17.84      0.00
    5    8   27      3.62      0.00
    8    8   27     -4.44      0.00
  -15    9   27     -1.60      0.00
  -12    9   27     -9.79      0.00
   -9    9   27     22.29      0.00
   -6    9   27     -6.44      0.00
   -3    9   27      5.61      0.00
    0    9   27    -29.45      0.00
    3    9   27     -3.05      0.00
    6    9   27     -2.90      0.00
    9    9   27      3.08      0.00
  -17   10   27     -2.61      0.00
  -14   10   27    -12.03      0.00
  -11   10   27      0.97      0.00
   -8   10   27     -1.62      0.00
   -5   10   27     -0.61      0.00
   -2   10   27     -2.75      0.00
    1   10   27    -13.67      0.00
    4   10   27     -8.54      0.00
    7   10   27      6.55      0.00
   10   10   27      3.17      0.00
  -19   11   27     -0.20      0.00
  -16   11   27     -2.76      0.00
  -13   11   27     -2.68      0.00
  -10   11   27      3.57      0.00
   -7   11   27      4.95      0.00
   -4   11   27      1.18      0.00
   -1   11   27    -13.06      0.00
    2   11   27     -9.61      0.00
    5   11   27     -1.82      0.00
    8   11   27      6.13      0.00
   11   11   27     -4.41      0.00
  -21   12   27      0.93      0.00
  -18   12   27      2.34      0.00
  -15   12   27     -6.50      0.00
  -12   12   27      5.83      0.00
   -9   12   27     11.17      0.00
   -6   12   27     16.32      0.00
   -3   12   27      0.89      0.00
    0   12   27     -3.81      0.00
    3   12   27     -3.58      0.00
    6   12   27      1.26      0.00
    9   12   27      0.37      0.00
  -20   13   27     -2.40      0.00
  -17   13   27      7.29      0.00
  -14   13   27     -3.78      0.00
  -11   13   27     10.42      0.00
   -8   13   27      8.48      0.00
   -5   13   27      1.99      0.00
   -2   13   27      2.29      0.00
    1   13   27     -5.17      0.00
    4   13   27      2.61      0.00
    7   13   27      1.63      0.00
  -19   14   27      5.63      0.00
  -16   14   27     -7.60      0.00
  -13   14   27     -2.68      0.00
  -10   14   27      3.82      0.00
   -7   14   27     -0.53      0.00
   -4   14   27     -3.63      0.00
   -1   14   27     -4.76      0.00
    2   14   27      5.78      0.00
    5   14   27     -1.68      0.00
  -21   15   27     -4.58      0.00
  -18   15   27      1.87      0.00
  -15   15   27     -1.85      0.00
  -12   15   27     -4.59      0.00
   -9   15   27     -0.23      0.00
   -6   15   27     -0.83      0.00
   -3   15   27      3.70      0.00
    0   15   27      0.36      0.00
    3   15   27     -0.18      0.00
    6   15   27      3.04      0.00
  -20   16   27     -1.85      0.00
  -17   16   27      4.83      0.00
  -14   16   27     -3.47      0.00
  -11   16   27     -1.92      0.00
   -8   16   27     -0.20      0.00
   -5   16   27      4.06      0.00
   -2   16   27     -2.20      0.00
    1   16   27     -1.70      0.00
    4   16   27     -5.31      0.00
  -19   17   27      9.97      0.00
  -16   17   27     -6.11      0.00
  -13   17   27      3.88      0.00
  -10   17   27      4.27      0.00
   -7   17   27     -0.66      0.00
   -4   17   27      4.73      0.00
   -1   17   27     -4.37      0.00
    2   17   27      1.62      0.00
  -18   18   27     -2.01      0.00
  -15   18   27     -3.07      0.00
  -12   18   27     -3.82      0.00
   -9   18   27      0.30      0.00
   -6   18   27      3.50      0.00
   -3   18   27     -1.13      0.00
    0   18   27     -3.47      0.00
  -17   19   27      0.58      0.00
  -14   19   27     -1.96      0.00
  -11   19   27      0.43      0.00
   -8   19   27      0.62      0.00
   -5   19   27      8.64      0.00
   -2   19   27      0.27      0.00
  -16   20   27      0.50      0.00
  -13   20   27      0.50      0.00
  -10   20   27      4.69      0.00
   -7   20   27      4.67      0.00
   -4   20   27      4.87      0.00
  -15   21   27      0.51      0.00
  -12   21   27     11.60      0.00
   -9   21   27      2.83      0.00
   -6   21   27      3.53      0.00
  -11   22   27      8.66      0.00
   -1    1   28    -10.58      0.00
   -3    2   28    -14.25      0.00
    0    2   28    -30.57      0.00
   -5    3   28      5.65      0.00
   -2    3   28    -24.58      0.00
    1    3   28     44.03      0.00
   -7    4   28     43.60      0.00
   -4    4   28      6.21      0.00
   -1    4   28    -30.67      0.00
    2    4   28     24.29      0.00
   -9    5   28     10.83      0.00
   -6    5   28     -0.68      0.00
   -3    5   28     -0.34      0.00
    0    5   28     17.57      0.00
    3    5   28     17.32      0.00
  -11    6   28     -7.66      0.00
   -8    6   28     21.29      0.00
   -5    6   28    -15.58      0.00
   -2    6   28    -34.09      0.00
    1    6   28     11.08      0.00
    4    6   28      8.07      0.00
  -13    7   28     -5.90      0.00
  -10    7   28     -3.82      0.00
   -7    7   28    -14.33      0.00
   -4    7   28      3.91      0.00
   -1    7   28     14.44      0.00
    2    7   28     -9.29      0.00
    5    7   28     -1.37      0.00
  -15    8   28      7.68      0.00
  -12    8   28     -6.92      0.00
   -9    8   28     17.62      0.00
   -6    8   28     -9.43      0.00
   -3    8   28     -9.73      0.00
    0    8   28     -1.55      0.00
    3    8   28     -2.29      0.00
    6    8   28     -2.14      0.00
  -17    9   28     -1.47      0.00
  -14    9   28      7.31      0.00
  -11    9   28    -13.28      0.00
   -8    9   28     12.67      0.00
   -5    9   28    -20.24      0.00
   -2    9   28      4.86      0.00
    1    9   28    -12.66      0.00
    4    9   28     -1.46      0.00
    7    9   28      2.53      0.00
  -19   10   28     -0.89      0.00
  -16   10   28      4.17      0.00
  -13   10   28     -3.55      0.00
  -10   10   28     -3.27      0.00
   -7   10   28     -9.59      0.00
   -4   10   28     -7.62      0.00
   -1   10   28     -5.81      0.00
    2   10   28     -1.44      0.00
    5   10   28     -3.12      0.00
    8   10   28      6.07      0.00
  -21   11   28     -4.78      0.00
  -18   11   28     -4.42      0.00
  -15   11   28     -5.81      0.00
  -12   11   28      7.67      0.00
   -9   11   28      0.87      0.00
   -6   11   28      4.06      0.00
   -3   11   28     -4.94      0.00
    0   11   28     10.22      0.00
    3   11   28    -10.14      0.00
    6   11   28      1.86      0.00
    9   11   28      1.47      0.00
  -20   12   28     -6.31      0.00
  -17   12   28     -0.40      0.00
  -14   12   28      1.90      0.00
  -11   12   28     11.39      0.00
   -8   12   28     13.78      0.00
   -5   12   28     -2.99      0.00
   -2   12   28      3.05      0.00
    1   12   28      0.18      0.00
    4   12   28      0.49      0.00
    7   12   28      0.29      0.00
  -19   13   28     -4.20      0.00
  -16   13   28     -6.95      0.00
  -13   13   28      6.36      0.00
  -10   13   28      9.17      0.00
   -7   13   28     -1.21      0.00
   -4   13   28     -2.00      0.00
   -1   13   28     -0.76      0.00
    2   13   28      7.56      0.00
    5   13   28     -2.84      0.00
    8   13   28      3.10      0.00
  -21   14   28     -4.35      0.00
  -18   14   28      0.17      0.00
  -15   14   28     -4.80      0.00
  -12   14   28     -0.35      0.00
   -9   14   28     -5.06      0.00
   -6   14   28      4.06      0.00
   -3   14   28      1.79      0.00
    0   14   28     -2.01      0.00
    3   14   28      5.05      0.00
    6   14   28      0.62      0.00
  -20   15   28     -5.36      0.00
  -17   15   28      2.86      0.00
  -14   15   28     -2.07      0.00
  -11   15   28     -5.74      0.00
   -8   15   28     -6.86      0.00
   -5   15   28      0.95      0.00
   -2   15   28      2.13      0.00
    1   15   28     -1.39      0.00
    4   15   28     -1.66      0.00
  -19   16   28      5.07      0.00
  -16   16   28      3.03      0.00
  -13   16   28     -2.09      0.00
  -10   16   28      0.86      0.00
   -7   16   28     -0.19      0.00
   -4   16   28      6.66      0.00
   -1   16   28     -6.84      0.00
    2   16   28     -2.27      0.00
    5   16   28     -0.60      0.00
  -18   17   28     10.75      0.00
  -15   17   28     -0.28      0.00
  -12   17   28     -5.81      0.00
   -9   17   28      7.48      0.00
   -6   17   28      2.18      0.00
   -3   17   28     -5.60      0.00
    0   17   28     -6.57      0.00
    3   17   28      1.59      0.00
  -17   18   28     -1.29      0.00
  -14   18   28      0.42      0.00
  -11   18   28     -1.96      0.00
   -8   18   28      2.24      0.00
   -5   18   28      3.24      0.00
   -2   18   28     -5.22      0.00
    1   18   28      4.24      0.00
  -16   19   28     -0.51      0.00
  -13   19   28     -3.97      0.00
  -10   19   28      1.96      0.00
   -7   19   28      1.09      0.00
   -4   19   28      0.72      0.00
   -1   19   28     -0.79      0.00
  -15   20   28     -4.45      0.00
  -12   20   28      4.15      0.00
   -9   20   28      1.77      0.00
   -6   20   28      3.36      0.00
   -3   20   28     -0.80      0.00
  -14   21   28     -0.17      0.00
  -11   21   28      5.99      0.00
   -8   21   28     -0.61      0.00
    0    1   29     10.56      0.00
   -2    2   29     24.75      0.00
    1    2   29     11.72      0.00
   -4    3   29     -2.35      0.00
   -1    3   29    -16.56      0.00
    2    3   29      3.75      0.00
   -6    4   29     17.22      0.00
   -3    4   29     49.74      0.00
    0    4   29     12.75      0.00
    3    4   29      5.30      0.00
   -8    5   29     13.98      0.00
   -5    5   29      5.45      0.00
   -2    5   29    -21.11      0.00
    1    5   29    -13.59      0.00
    4    5   29      7.58      0.00
  -10    6   29     -9.99      0.00
   -7    6   29      2.25      0.00
   -4    6   29     43.18      0.00
   -1    6   29     -7.98      0.00
    2    6   29    -10.23      0.00
    5    6   29      6.67      0.00
  -12    7   29    -12.57      0.00
   -9    7   29     -4.22      0.00
   -6    7   29     -5.42      0.00
   -3    7   29     -1.61      0.00
    0    7   29     -2.03      0.00
    3    7   29     -5.71      0.00
    6    7   29    -12.89      0.00
  -14    8   29     -1.04      0.00
  -11    8   29    -30.85      0.00
   -8    8   29     12.41      0.00
   -5    8   29      6.95      0.00
   -2    8   29     -2.26      0.00
    1    8   29     -8.85      0.00
    4    8   29      2.62      0.00
    7    8   29      2.25      0.00
  -16    9   29     10.33      0.00
  -13    9   29    -10.52      0.00
  -10    9   29    -20.12      0.00
   -7    9   29     -7.16      0.00
   -4    9   29     -3.15      0.00
   -1    9   29     -2.53      0.00
    2    9   29      4.23      0.00
    5    9   29      1.02      0.00
    8    9   29     -0.88      0.00
  -18   10   29      4.78      0.00
  -15   10   29      0.26      0.00
  -12   10   29    -15.44      0.00
   -9   10   29    -13.80      0.00
   -6   10   29     -6.41      0.00
   -3   10   29      3.13      0.00
    0   10   29     17.14      0.00
    3   10   29      1.81      0.00
    6   10   29    -10.42      0.00
    9   10   29      6.48      0.00
  -20   11   29      2.21      0.00
  -17   11   29      7.53      0.00
  -14   11   29     -4.83      0.00
  -11   11   29     -2.98      0.00
   -8   11   29      8.05      0.00
   -5   11   29      3.66      0.00
   -2   11   29      5.69      0.00
    1   11   29     17.99      0.00
    4   11   29     -7.64      0.00
    7   11   29      0.43      0.00
   10   11   29     -3.10      0.00
  -19   12   29      4.41      0.00
  -16   12   29     -5.29      0.00
  -13   12   29     11.36      0.00
  -10   12   29      5.08      0.00
   -7   12   29      6.66      0.00
   -4   12   29      0.35      0.00
   -1   12   29      6.93      0.00
    2   12   29      1.72      0.00
    5   12   29     -3.88      0.00
    8   12   29      0.91      0.00
  -21   13   29     -2.76      0.00
  -18   13   29      0.01      0.00
  -15   13   29     -3.25      0.00
  -12   13   29     14.82      0.00
   -9   13   29      7.56      0.00
   -6   13   29      4.64      0.00
   -3   13   29      0.82      0.00
    0   13   29      1.81      0.00
    3   13   29      9.60      0.00
    6   13   29     -5.81      0.00
  -20   14   29     -6.98      0.00
  -17   14   29     -2.11      0.00
  -14   14   29      4.72      0.00
  -11   14   29      6.94      0.00
   -8   14   29     -9.61      0.00
   -5   14   29      5.00      0.00
   -2   14   29      0.59      0.00
    1   14   29      5.19      0.00
    4   14   29     -1.35      0.00
    7   14   29      3.84      0.00
  -19   15   29     -9.17      0.00
  -16   15   29      5.07      0.00
  -13   15   29      4.28      0.00
  -10   15   29      3.56      0.00
   -7   15   29      2.67      0.00
   -4   15   29     -0.15      0.00
   -1   15   29      1.12      0.00
    2   15   29     -3.78      0.00
    5   15   29     -3.19      0.00
  -18   16   29      5.70      0.00
  -15   16   29      4.09      0.00
  -12   16   29      0.84      0.00
   -9   16   29      3.74      0.00
   -6   16   29     -7.02      0.00
   -3   16   29      1.84      0.00
    0   16   29     -7.94      0.00
    3   16   29     -1.61      0.00
  -20   17   29      4.03      0.00
  -17   17   29     -3.26      0.00
  -14   17   29      6.02      0.00
  -11   17   29      0.36      0.00
   -8   17   29     -1.12      0.00
   -5   17   29     -0.43      0.00
   -2   17   29     -5.97      0.00
    1   17   29     -1.98      0.00
  -19   18   29      5.63      0.00
  -16   18   29     -0.98      0.00
  -13   18   29     -2.54      0.00
  -10   18   29      3.94      0.00
   -7   18   29     -2.97      0.00
   -4   18   29     -2.58      0.00
   -1   18   29      1.46      0.00
  -18   19   29     -2.00      0.00
  -15   19   29     -3.10      0.00
  -12   19   29     -2.40      0.00
   -9   19   29      0.54      0.00
   -6   19   29      0.96      0.00
   -3   19   29     -3.58      0.00
  -17   20   29     -2.25      0.00
  -14   20   29     -1.13      0.00
  -11   20   29      0.43      0.00
   -8   20   29     -0.37      0.00
   -5   20   29     -1.03      0.00
  -13   21   29      2.19      0.00
  -10   21   29     -0.06      0.00
   -7   21   29     -1.23      0.00
    0    0   30     34.72      0.00
    1    1   30     30.07      0.00
   -1    2   30     28.11      0.00
    2    2   30     -4.40      0.00
   -3    3   30     39.61      0.00
    0    3   30     12.42      0.00
    3    3   30      2.29      0.00
   -5    4   30    -11.40      0.00
   -2    4   30     15.72      0.00
    1    4   30     -0.82      0.00
    4    4   30      5.74      0.00
   -7    5   30     15.96      0.00
   -4    5   30     35.40      0.00
   -1    5   30      0.65      0.00
    2    5   30    -13.43      0.00
    5    5   30     17.15      0.00
   -9    6   30     -4.12      0.00
   -6    6   30     -3.07      0.00
   -3    6   30     10.46      0.00
    0    6   30      8.25      0.00
    3    6   30    -10.93      0.00
    6    6   30      7.52      0.00
  -11    7   30      1.90      0.00
   -8    7   30     19.15      0.00
   -5    7   30     24.78      0.00
   -2    7   30      6.59      0.00
    1    7   30     -2.40      0.00
    4    7   30      2.49      0.00
    7    7   30     -0.06      0.00
  -13    8   30     -1.19      0.00
  -10    8   30     -4.22      0.00
   -7    8   30      1.90      0.00
   -4    8   30     18.07      0.00
   -1    8   30     -8.32      0.00
    2    8   30    -15.84      0.00
    5    8   30      2.05      0.00
    8    8   30      4.75      0.00
  -15    9   30      3.40      0.00
  -12    9   30    -10.62      0.00
   -9    9   30      2.60      0.00
   -6    9   30     -6.94      0.00
   -3    9   30     13.78      0.00
    0    9   30     -1.43      0.00
    3    9   30      3.09      0.00
    6    9   30     -5.03      0.00
    9    9   30      0.77      0.00
  -17   10   30      6.94      0.00
  -14   10   30     -4.72      0.00
  -11   10   30     -8.13      0.00
   -8   10   30     -2.69      0.00
   -5   10   30      9.55      0.00
   -2   10   30      2.77      0.00
    1   10   30      1.87      0.00
    4   10   30      2.47      0.00
    7   10   30    -15.28      0.00
   10   10   30      2.28      0.00
  -19   11   30     11.04      0.00
  -16   11   30      1.08      0.00
  -13   11   30      0.47      0.00
  -10   11   30    -11.21      0.00
   -7   11   30     14.34      0.00
   -4   11   30     13.08      0.00
   -1   11   30     -4.24      0.00
    2   11   30     -1.20      0.00
    5   11   30    -13.63      0.00
    8   11   30     -2.25      0.00
  -21   12   30      2.34      0.00
  -18   12   30     10.77      0.00
  -15   12   30     -6.88      0.00
  -12   12   30      9.12      0.00
   -9   12   30      7.20      0.00
   -6   12   30      7.70      0.00
   -3   12   30     -3.56      0.00
    0   12   30     -3.35      0.00
    3   12   30     -2.77      0.00
    6   12   30     -6.85      0.00
    9   12   30      0.45      0.00
  -20   13   30      7.06      0.00
  -17   13   30     -3.13      0.00
  -14   13   30     -1.40      0.00
  -11   13   30      3.86      0.00
   -8   13   30     -0.89      0.00
   -5   13   30     12.13      0.00
   -2   13   30    -14.41      0.00
    1   13   30     -1.41      0.00
    4   13   30      3.75      0.00
    7   13   30      0.98      0.00
  -19   14   30     -7.61      0.00
  -16   14   30     -0.08      0.00
  -13   14   30     -1.07      0.00
  -10   14   30      5.09      0.00
   -7   14   30      9.16      0.00
   -4   14   30     -0.32      0.00
   -1   14   30     -3.01      0.00
    2   14   30      6.04      0.00
    5   14   30     -3.15      0.00
  -18   15   30     -1.80      0.00
  -15   15   30      1.26      0.00
  -12   15   30      1.35      0.00
   -9   15   30      2.69      0.00
   -6   15   30      5.26      0.00
   -3   15   30     -0.23      0.00
    0   15   30     -0.70      0.00
    3   15   30     -0.81      0.00
  -20   16   30     -3.57      0.00
  -17   16   30     -2.63      0.00
  -14   16   30      1.47      0.00
  -11   16   30      5.80      0.00
   -8   16   30      4.21      0.00
   -5   16   30     -4.82      0.00
   -2   16   30      3.37      0.00
    1   16   30     -4.55      0.00
    4   16   30     -3.23      0.00
  -19   17   30      0.98      0.00
  -16   17   30     -8.55      0.00
  -13   17   30      2.45      0.00
  -10   17   30      8.53      0.00
   -7   17   30     -7.13      0.00
   -4   17   30      1.12      0.00
   -1   17   30      3.97      0.00
    2   17   30      4.75      0.00
  -18   18   30    -11.33      0.00
  -15   18   30      0.89      0.00
  -12   18   30     -1.94      0.00
   -9   18   30      1.20      0.00
   -6   18   30      3.21      0.00
   -3   18   30     -0.02      0.00
    0   18   30      7.15      0.00
  -17   19   30     -4.58      0.00
  -14   19   30      2.71      0.00
  -11   19   30      0.76      0.00
   -8   19   30      0.91      0.00
   -5   19   30      2.92      0.00
   -2   19   30      4.32      0.00
  -16   20   30     -7.06      0.00
  -13   20   30      7.09      0.00
  -10   20   30     -1.38      0.00
   -7   20   30     -2.13      0.00
   -4   20   30     -5.63      0.00
  -15   21   30     -1.82      0.00
  -12   21   30      4.42      0.00
   -9   21   30     -3.92      0.00
   -1    1   31      6.10      0.00
   -3    2   31      2.12      0.00
    0    2   31      1.84      0.00
   -5    3   31     -0.25      0.00
   -2    3   31     21.96      0.00
    1    3   31      7.59      0.00
   -7    4   31     18.70      0.00
   -4    4   31     -9.61      0.00
   -1    4   31     -1.21      0.00
    2    4   31     12.21      0.00
   -9    5   31     -6.06      0.00
   -6    5   31     -1.20      0.00
   -3    5   31    -12.58      0.00
    0    5   31     27.58      0.00
    3    5   31     -6.80      0.00
  -11    6   31     19.25      0.00
   -8    6   31      0.19      0.00
   -5    6   31     -3.94      0.00
   -2    6   31     -9.92      0.00
    1    6   31     23.15      0.00
    4    6   31     -7.75      0.00
  -13    7   31      7.78      0.00
  -10    7   31      7.83      0.00
   -7    7   31      6.52      0.00
   -4    7   31      7.66      0.00
   -1    7   31      5.59      0.00
    2    7   31    -10.58      0.00
    5    7   31      1.70      0.00
  -15    8   31     12.85      0.00
  -12    8   31     10.88      0.00
   -9    8   31     26.26      0.00
   -6    8   31    -15.51      0.00
   -3    8   31     10.65      0.00
    0    8   31      0.57      0.00
    3    8   31     -6.97      0.00
    6    8   31      5.62      0.00
  -17    9   31     -0.41      0.00
  -14    9   31      1.91      0.00
  -11    9   31     14.24      0.00
   -8    9   31      4.55      0.00
   -5    9   31     -6.55      0.00
   -2    9   31     -1.20      0.00
    1    9   31    -10.27      0.00
    4    9   31     14.44      0.00
    7    9   31     -5.34      0.00
  -19   10   31      0.16      0.00
  -16   10   31     -2.58      0.00
  -13   10   31      7.45      0.00
  -10   10   31      3.46      0.00
   -7   10   31      1.20      0.00
   -4   10   31      7.33      0.00
   -1   10   31     -0.97      0.00
    2   10   31     -0.54      0.00
    5   10   31     -0.31      0.00
    8   10   31     -9.49      0.00
  -21   11   31     -2.28      0.00
  -18   11   31     -2.62      0.00
  -15   11   31      0.52      0.00
  -12   11   31     13.54      0.00
   -9   11   31     -1.96      0.00
   -6   11   31     -0.42      0.00
   -3   11   31     -1.53      0.00
    0   11   31     -5.46      0.00
    3   11   31     -1.14      0.00
    6   11   31    -11.30      0.00
    9   11   31     -6.36      0.00
  -20   12   31      6.34      0.00
  -17   12   31     -2.06      0.00
  -14   12   31     -0.18      0.00
  -11   12   31     -0.69      0.00
   -8   12   31      1.20      0.00
   -5   12   31     -2.09      0.00
   -2   12   31    -17.80      0.00
    1   12   31      1.18      0.00
    4   12   31     -2.23      0.00
    7   12   31     -4.44      0.00
  -19   13   31      2.08      0.00
  -16   13   31     -7.36      0.00
  -13   13   31     -3.94      0.00
  -10   13   31     -8.27      0.00
   -7   13   31     -7.35      0.00
   -4   13   31     -0.14      0.00
   -1   13   31     -5.99      0.00
    2   13   31      0.88      0.00
    5   13   31     -0.24      0.00
    8   13   31      7.01      0.00
  -21   14   31      3.11      0.00
  -18   14   31     -6.99      0.00
  -15   14   31      0.41      0.00
  -12   14   31     -9.25      0.00
   -9   14   31     -9.51      0.00
   -6   14   31      9.75      0.00
   -3   14   31     -5.56      0.00
    0   14   31      0.99      0.00
    3   14   31      4.17      0.00
    6   14   31      3.00      0.00
  -20   15   31     -2.91      0.00
  -17   15   31      3.04      0.00
  -14   15   31     -5.74      0.00
  -11   15   31     -4.52      0.00
   -8   15   31      1.61      0.00
   -5   15   31     -1.17      0.00
   -2   15   31      2.81      0.00
    1   15   31     -0.98      0.00
    4   15   31     -0.25      0.00
  -19   16   31      4.27      0.00
  -16   16   31     -2.44      0.00
  -13   16   31     -1.92      0.00
  -10   16   31      2.10      0.00
   -7   16   31     -0.42      0.00
   -4   16   31     -3.40      0.00
   -1   16   31      2.07      0.00
    2   16   31     -0.47      0.00
  -18   17   31     -6.76      0.00
  -15   17   31     -1.21      0.00
  -12   17   31     -3.00      0.00
   -9   17   31      4.52      0.00
   -6   17   31     -1.07      0.00
   -3   17   31      0.58      0.00
    0   17   31      6.55      0.00
  -17   18   31     -7.87      0.00
  -14   18   31      3.30      0.00
  -11   18   31      3.25      0.00
   -8   18   31     -1.58      0.00
   -5   18   31      3.20      0.00
   -2   18   31      4.67      0.00
    1   18   31      6.16      0.00
  -16   19   31     -1.47      0.00
  -13   19   31      1.95      0.00
  -10   19   31      2.14      0.00
   -7   19   31      1.47      0.00
   -4   19   31     -2.94      0.00
   -1   19   31      4.93      0.00
  -15   20   31     -0.56      0.00
  -12   20   31      6.75      0.00
   -9   20   31     -0.39      0.00
   -6   20   31     -6.09      0.00
  -14   21   31      4.65      0.00
  -11   21   31      1.46      0.00
   -8   21   31     -9.44      0.00
    0    1   32    -12.54      0.00
   -2    2   32      3.07      0.00
    1    2   32    -19.05      0.00
   -4    3   32    -10.18      0.00
   -1    3   32     10.23      0.00
    2    3   32      9.15      0.00
   -6    4   32     13.83      0.00
   -3    4   32     -2.80      0.00
    0    4   32      8.19      0.00
    3    4   32     -1.69      0.00
   -8    5   32    -26.77      0.00
   -5    5   32    -10.96      0.00
   -2    5   32    -22.62      0.00
    1    5   32     22.34      0.00
    4    5   32    -27.83      0.00
  -10    6   32    -11.50      0.00
   -7    6   32     -7.95      0.00
   -4    6   32     -1.96      0.00
   -1    6   32     -1.25      0.00
    2    6   32     -5.04      0.00
    5    6   32    -14.62      0.00
  -12    7   32     -5.28      0.00
   -9    7   32     -9.29      0.00
   -6    7   32     -9.12      0.00
   -3    7   32      2.70      0.00
    0    7   32      1.25      0.00
    3    7   32    -11.87      0.00
    6    7   32     -8.04      0.00
  -14    8   32      0.82      0.00
  -11    8   32      2.36      0.00
   -8    8   32      8.86      0.00
   -5    8   32     -6.63      0.00
   -2    8   32     -4.92      0.00
    1    8   32     -1.52      0.00
    4    8   32      6.89      0.00
    7    8   32      5.98      0.00
  -16    9   32      6.58      0.00
  -13    9   32     -6.60      0.00
  -10    9   32      7.24      0.00
   -7    9   32     -9.80      0.00
   -4    9   32     -2.57      0.00
   -1    9   32      5.33      0.00
    2    9   32      2.74      0.00
    5    9   32      6.60      0.00
    8    9   32      1.25      0.00
  -18   10   32      0.71      0.00
  -15   10   32     -1.14      0.00
  -12   10   32      8.62      0.00
   -9   10   32     -0.73      0.00
   -6   10   32     -1.66      0.00
   -3   10   32     -1.82      0.00
    0   10   32      6.80      0.00
    3   10   32     10.48      0.00
    6   10   32     -4.47      0.00
    9   10   32      1.40      0.00
  -20   11   32      1.66      0.00
  -17   11   32     -5.68      0.00
  -14   11   32      5.33      0.00
  -11   11   32      4.83      0.00
   -8   11   32      5.08      0.00
   -5   11   32    -16.84      0.00
   -2   11   32     -3.33      0.00
    1   11   32     10.83      0.00
    4   11   32     -0.93      0.00
    7   11   32     -1.70      0.00
   10   11   32     -5.25      0.00
  -19   12   32      0.41      0.00
  -16   12   32     -3.40      0.00
  -13   12   32      4.28      0.00
  -10   12   32     -4.83      0.00
   -7   12   32    -11.25      0.00
   -4   12   32     -5.85      0.00
   -1   12   32      2.75      0.00
    2   12   32      3.14      0.00
    5   12   32     -1.25      0.00
    8   12   32      0.82      0.00
  -21   13   32      3.03      0.00
  -18   13   32     -2.57      0.00
  -15   13   32     -4.05      0.00
  -12   13   32     -0.89      0.00
   -9   13   32    -11.90      0.00
   -6   13   32    -11.87      0.00
   -3   13   32     -3.84      0.00
    0   13   32     13.69      0.00
    3   13   32     -1.65      0.00
    6   13   32      1.03      0.00
  -20   14   32      3.33      0.00
  -17   14   32     -9.64      0.00
  -14   14   32     -0.93      0.00
  -11   14   32     -4.11      0.00
   -8   14   32     -8.43      0.00
   -5   14   32      0.99      0.00
   -2   14   32      5.59      0.00
    1   14   32      1.69      0.00
    4   14   32      0.87      0.00
  -19   15   32      0.57      0.00
  -16   15   32      3.67      0.00
  -13   15   32      1.46      0.00
  -10   15   32     -6.44      0.00
   -7   15   32     -3.07      0.00
   -4   15   32     -4.32      0.00
   -1   15   32      0.23      0.00
    2   15   32     -4.10      0.00
    5   15   32     -1.04      0.00
  -18   16   32      0.82      0.00
  -15   16   32      0.48      0.00
  -12   16   32      2.91      0.00
   -9   16   32     -5.13      0.00
   -6   16   32     -4.74      0.00
   -3   16   32     -3.32      0.00
    0   16   32     -2.34      0.00
    3   16   32     -1.81      0.00
  -17   17   32     -4.86      0.00
  -14   17   32      4.67      0.00
  -11   17   32      2.44      0.00
   -8   17   32     -7.18      0.00
   -5   17   32     -4.36      0.00
   -2   17   32     -0.94      0.00
    1   17   32      1.24      0.00
  -16   18   32      0.89      0.00
  -13   18   32     -1.88      0.00
  -10   18   32      5.44      0.00
   -7   18   32     -3.53      0.00
   -4   18   32     -0.74      0.00
   -1   18   32      3.95      0.00
  -15   19   32      0.30      0.00
  -12   19   32     -0.87      0.00
   -9   19   32     -1.00      0.00
   -6   19   32     -5.31      0.00
   -3   19   32     -2.12      0.00
  -14   20   32     -2.09      0.00
  -11   20   32      1.27      0.00
   -8   20   32     -4.28      0.00
   -5   20   32     -5.95      0.00
  -13   21   32      3.03      0.00
  -10   21   32     -2.58      0.00
    0    0   33      2.00      0.00
    1    1   33    -24.49      0.00
   -1    2   33     15.68      0.00
    2    2   33    -15.42      0.00
   -3    3   33      0.25      0.00
    0    3   33    -11.23      0.00
    3    3   33      5.22      0.00
   -5    4   33      0.90      0.00
   -2    4   33      9.08      0.00
    1    4   33      8.43      0.00
    4    4   33    -17.67      0.00
   -7    5   33     -5.48      0.00
   -4    5   33     -2.67      0.00
   -1    5   33    -14.07      0.00
    2    5   33    -12.54      0.00
    5    5   33     -9.14      0.00
   -9    6   33    -14.68      0.00
   -6    6   33      2.76      0.00
   -3    6   33      6.09      0.00
    0    6   33    -10.82      0.00
    3    6   33     -8.52      0.00
    6    6   33    -16.73      0.00
  -11    7   33      1.44      0.00
   -8    7   33     -0.72      0.00
   -5    7   33     11.89      0.00
   -2    7   33     -5.91      0.00
    1    7   33    -17.03      0.00
    4    7   33     -3.06      0.00
    7    7   33     -2.95      0.00
  -13    8   33    -16.85      0.00
  -10    8   33      0.43      0.00
   -7    8   33      2.01      0.00
   -4    8   33      9.92      0.00
   -1    8   33     -5.32      0.00
    2    8   33      0.07      0.00
    5    8   33      0.81      0.00
    8    8   33      2.11      0.00
  -15    9   33      2.47      0.00
  -12    9   33     -7.00      0.00
   -9    9   33      1.03      0.00
   -6    9   33      6.09      0.00
   -3    9   33     -0.15      0.00
    0    9   33      3.17      0.00
    3    9   33     12.30      0.00
    6    9   33    -10.18      0.00
    9    9   33      9.06      0.00
  -17   10   33      4.74      0.00
  -14   10   33     -1.79      0.00
  -11   10   33     -6.38      0.00
   -8   10   33      3.17      0.00
   -5   10   33      0.62      0.00
   -2   10   33      1.18      0.00
    1   10   33      1.94      0.00
    4   10   33     -3.40      0.00
    7   10   33     -2.43      0.00
   10   10   33      0.21      0.00
  -19   11   33      5.12      0.00
  -16   11   33      3.92      0.00
  -13   11   33      1.69      0.00
  -10   11   33     -5.35      0.00
   -7   11   33     11.27      0.00
   -4   11   33     -7.48      0.00
   -1   11   33      0.31      0.00
    2   11   33      1.32      0.00
    5   11   33     -5.28      0.00
    8   11   33      5.06      0.00
  -21   12   33     -3.23      0.00
  -18   12   33      4.43      0.00
  -15   12   33      0.65      0.00
  -12   12   33     -2.27      0.00
   -9   12   33     -6.56      0.00
   -6   12   33    -14.60      0.00
   -3   12   33     -1.67      0.00
    0   12   33      8.57      0.00
    3   12   33     -5.83      0.00
    6   12   33     -0.31      0.00
    9   12   33      1.19      0.00
  -20   13   33      2.36      0.00
  -17   13   33     -3.99      0.00
  -14   13   33     -2.84      0.00
  -11   13   33     -0.89      0.00
   -8   13   33      0.81      0.00
   -5   13   33      3.99      0.00
   -2   13   33      1.60      0.00
    1   13   33      8.10      0.00
    4   13   33     -3.83      0.00
    7   13   33      4.42      0.00
  -19   14   33      6.46      0.00
  -16   14   33     -4.78      0.00
  -13   14   33      2.35      0.00
  -10   14   33     -4.45      0.00
   -7   14   33      2.30      0.00
   -4   14   33     -0.30      0.00
   -1   14   33      5.05      0.00
    2   14   33     -4.39      0.00
    5   14   33      2.76      0.00
  -18   15   33     -1.69      0.00
  -15   15   33      1.55      0.00
  -12   15   33     10.72      0.00
   -9   15   33     -1.80      0.00
   -6   15   33      0.68      0.00
   -3   15   33      1.24      0.00
    0   15   33     -3.33      0.00
    3   15   33     -0.25      0.00
  -17   16   33      1.48      0.00
  -14   16   33      1.14      0.00
  -11   16   33      6.35      0.00
   -8   16   33    -11.06      0.00
   -5   16   33     -3.67      0.00
   -2   16   33     -4.26      0.00
    1   16   33     -1.60      0.00
  -19   17   33     -8.88      0.00
  -16   17   33     -0.89      0.00
  -13   17   33      3.48      0.00
  -10   17   33      4.41      0.00
   -7   17   33     -6.50      0.00
   -4   17   33     -1.73      0.00
   -1   17   33     -0.10      0.00
    2   17   33      0.26      0.00
  -18   18   33     -6.62      0.00
  -15   18   33      0.27      0.00
  -12   18   33     -0.69      0.00
   -9   18   33     -1.53      0.00
   -6   18   33     -5.17      0.00
   -3   18   33      3.23      0.00
    0   18   33      3.21      0.00
  -17   19   33      0.75      0.00
  -14   19   33     -4.05      0.00
  -11   19   33      1.84      0.00
   -8   19   33     -3.36      0.00
   -5   19   33     -4.63      0.00
   -2   19   33      0.32      0.00
  -13   20   33     -3.74      0.00
  -10   20   33     -3.72      0.00
   -7   20   33     -6.58      0.00
   -9   21   33     -3.37      0.00
   -1    1   34     11.69      0.00
   -3    2   34    -22.51      0.00
    0    2   34    -13.24      0.00
   -5    3   34     -2.70      0.00
   -2    3   34     19.06      0.00
    1    3   34      1.02      0.00
   -7    4   34      4.72      0.00
   -4    4   34    -23.08      0.00
   -1    4   34     -9.86      0.00
    2    4   34      2.90      0.00
   -9    5   34      9.44      0.00
   -6    5   34      0.71      0.00
   -3    5   34     -9.36      0.00
    0    5   34      2.54      0.00
    3    5   34      1.59      0.00
  -11    6   34      9.58      0.00
   -8    6   34      2.42      0.00
   -5    6   34     -7.40      0.00
   -2    6   34     -7.20      0.00
    1    6   34    -28.21      0.00
    4    6   34      4.38      0.00
  -13    7   34     -4.54      0.00
  -10    7   34     21.60      0.00
   -7    7   34      9.39      0.00
   -4    7   34      9.36      0.00
   -1    7   34     -6.69      0.00
    2    7   34     -5.62      0.00
    5    7   34     -1.06      0.00
  -15    8   34      2.54      0.00
  -12    8   34      1.75      0.00
   -9    8   34     12.08      0.00
   -6    8   34      7.09      0.00
   -3    8   34     -3.14      0.00
    0    8   34     -7.81      0.00
    3    8   34      1.73      0.00
    6    8   34      1.48      0.00
  -17    9   34     -3.72      0.00
  -14    9   34     -3.05      0.00
  -11    9   34      2.85      0.00
   -8    9   34      7.89      0.00
   -5    9   34     10.25      0.00
   -2    9   34      5.26      0.00
    1    9   34    -10.18      0.00
    4    9   34      7.04      0.00
    7    9   34    -13.58      0.00
  -19   10   34     -1.54      0.00
  -16   10   34      3.00      0.00
  -13   10   34      5.41      0.00
  -10   10   34     -2.35      0.00
   -7   10   34     13.11      0.00
   -4   10   34      0.60      0.00
   -1   10   34     -6.30      0.00
    2   10   34     -1.43      0.00
    5   10   34    -14.17      0.00
    8   10   34     -0.09      0.00
  -18   11   34      1.82      0.00
  -15   11   34      5.70      0.00
  -12   11   34     -3.51      0.00
   -9   11   34     -5.33      0.00
   -6   11   34      1.41      0.00
   -3   11   34     -4.92      0.00
    0   11   34     -6.49      0.00
    3   11   34     -6.39      0.00
    6   11   34     -3.97      0.00
    9   11   34     -0.02      0.00
  -20   12   34     -5.80      0.00
  -17   12   34      0.94      0.00
  -14   12   34     -0.56      0.00
  -11   12   34     -6.91      0.00
   -8   12   34     -0.51      0.00
   -5   12   34     -5.52      0.00
   -2   12   34     -1.66      0.00
    1   12   34      2.81      0.00
    4   12   34     -3.16      0.00
    7   12   34      1.78      0.00
  -19   13   34      2.22      0.00
  -16   13   34     -3.05      0.00
  -13   13   34     -3.70      0.00
  -10   13   34    -14.81      0.00
   -7   13   34      3.38      0.00
   -4   13   34      6.03      0.00
   -1   13   34      0.15      0.00
    2   13   34      1.07      0.00
    5   13   34      0.53      0.00
  -18   14   34      3.56      0.00
  -15   14   34      1.35      0.00
  -12   14   34      3.50      0.00
   -9   14   34      0.20      0.00
   -6   14   34     11.15      0.00
   -3   14   34      1.77      0.00
    0   14   34      5.42      0.00
    3   14   34     -3.37      0.00
    6   14   34      2.40      0.00
  -20   15   34      2.35      0.00
  -17   15   34      7.85      0.00
  -14   15   34     -0.38      0.00
  -11   15   34      2.05      0.00
   -8   15   34     -1.48      0.00
   -5   15   34      1.10      0.00
   -2   15   34      2.21      0.00
    1   15   34     -1.05      0.00
    4   15   34      5.86      0.00
  -19   16   34     -3.02      0.00
  -16   16   34      8.14      0.00
  -13   16   34     -0.97      0.00
  -10   16   34      1.27      0.00
   -7   16   34     -2.90      0.00
   -4   16   34      5.46      0.00
   -1   16   34     -2.06      0.00
    2   16   34      2.89      0.00
  -18   17   34      0.03      0.00
  -15   17   34     -1.58      0.00
  -12   17   34      1.47      0.00
   -9   17   34     -3.26      0.00
   -6   17   34      1.14      0.00
   -3   17   34      2.45      0.00
    0   17   34      4.13      0.00
  -17   18   34      0.64      0.00
  -14   18   34     -3.71      0.00
  -11   18   34      1.51      0.00
   -8   18   34      1.12      0.00
   -5   18   34     -4.54      0.00
   -2   18   34      1.72      0.00
  -16   19   34     -0.71      0.00
  -13   19   34     -6.66      0.00
  -10   19   34      1.81      0.00
   -7   19   34     -2.01      0.00
   -4   19   34     -1.91      0.00
  -15   20   34     -0.81      0.00
  -12   20   34     -0.63      0.00
   -9   20   34     -3.44      0.00
   -6   20   34     -7.87      0.00
    0    1   35      8.81      0.00
   -2    2   35     13.35      0.00
    1    2   35     -7.17      0.00
   -4    3   35    -18.47      0.00
   -1    3   35      1.85      0.00
    2    3   35     16.01      0.00
   -6    4   35      0.54      0.00
   -3    4   35    -16.75      0.00
    0    4   35     15.89      0.00
    3    4   35      9.53      0.00
   -8    5   35     -2.90      0.00
   -5    5   35    -28.17      0.00
   -2    5   35    -12.32      0.00
    1    5   35     -2.67      0.00
    4    5   35      4.08      0.00
  -10    6   35      6.48      0.00
   -7    6   35     -6.75      0.00
   -4    6   35    -17.16      0.00
   -1    6   35     11.06      0.00
    2    6   35     -7.51      0.00
    5    6   35     -8.26      0.00
  -12    7   35     -5.24      0.00
   -9    7   35     -0.27      0.00
   -6    7   35     -4.80      0.00
   -3    7   35     -2.72      0.00
    0    7   35     -8.02      0.00
    3    7   35     -7.43      0.00
    6    7   35      4.49      0.00
  -14    8   35     -0.25      0.00
  -11    8   35      0.38      0.00
   -8    8   35     -1.11      0.00
   -5    8   35      5.90      0.00
   -2    8   35      5.54      0.00
    1    8   35     -4.34      0.00
    4    8   35     -1.97      0.00
    7    8   35      3.76      0.00
  -16    9   35     -2.09      0.00
  -13    9   35     -0.49      0.00
  -10    9   35     -1.20      0.00
   -7    9   35      2.40      0.00
   -4    9   35      3.54      0.00
   -1    9   35      5.67      0.00
    2    9   35    -10.14      0.00
    5    9   35     -2.99      0.00
    8    9   35     -4.34      0.00
  -18   10   35     -2.50      0.00
  -15   10   35      1.96      0.00
  -12   10   35      4.16      0.00
   -9   10   35      3.58      0.00
   -6   10   35      6.84      0.00
   -3   10   35      2.78      0.00
    0   10   35    -11.32      0.00
    3   10   35      4.61      0.00
    6   10   35     -8.49      0.00
    9   10   35     -2.43      0.00
  -20   11   35    -11.15      0.00
  -17   11   35     -0.43      0.00
  -14   11   35      4.72      0.00
  -11   11   35     -0.37      0.00
   -8   11   35     -2.00      0.00
   -5   11   35     -7.35      0.00
   -2   11   35     -1.29      0.00
    1   11   35      1.41      0.00
    4   11   35     -3.95      0.00
    7   11   35      1.42      0.00
  -19   12   35     -2.93      0.00
  -16   12   35     -6.66      0.00
  -13   12   35     -1.24      0.00
  -10   12   35     -9.42      0.00
   -7   12   35     -3.80      0.00
   -4   12   35     -4.32      0.00
   -1   12   35      6.21      0.00
    2   12   35      3.55      0.00
    5   12   35      4.42      0.00
    8   12   35      4.78      0.00
  -18   13   35     -6.46      0.00
  -15   13   35     -6.06      0.00
  -12   13   35      2.52      0.00
   -9   13   35     -9.99      0.00
   -6   13   35     -2.58      0.00
   -3   13   35      6.12      0.00
    0   13   35      6.96      0.00
    3   13   35     -0.99      0.00
    6   13   35      4.25      0.00
  -20   14   35     -2.44      0.00
  -17   14   35      0.75      0.00
  -14   14   35      3.49      0.00
  -11   14   35      2.15      0.00
   -8   14   35      1.01      0.00
   -5   14   35      1.72      0.00
   -2   14   35      4.25      0.00
    1   14   35      3.56      0.00
    4   14   35      1.96      0.00
  -19   15   35      0.43      0.00
  -16   15   35      9.36      0.00
  -13   15   35      3.71      0.00
  -10   15   35     -0.21      0.00
   -7   15   35     -2.92      0.00
   -4   15   35      3.92      0.00
   -1   15   35      2.34      0.00
    2   15   35     -2.72      0.00
  -18   16   35      5.50      0.00
  -15   16   35      6.37      0.00
  -12   16   35      4.79      0.00
   -9   16   35     -6.57      0.00
   -6   16   35     -0.11      0.00
   -3   16   35      6.69      0.00
    0   16   35     -0.98      0.00
    3   16   35      1.97      0.00
  -17   17   35      6.25      0.00
  -14   17   35     -3.44      0.00
  -11   17   35     -1.06      0.00
   -8   17   35     -2.71      0.00
   -5   17   35      4.28      0.00
   -2   17   35     -1.39      0.00
    1   17   35      1.22      0.00
  -16   18   35      2.92      0.00
  -13   18   35     -1.99      0.00
  -10   18   35     -3.49      0.00
   -7   18   35      5.92      0.00
   -4   18   35     -6.18      0.00
   -1   18   35     -0.49      0.00
  -15   19   35     -2.29      0.00
  -12   19   35     -8.65      0.00
   -9   19   35      0.54      0.00
   -6   19   35     -5.66      0.00
   -3   19   35     -4.17      0.00
  -14   20   35     -4.36      0.00
  -11   20   35      0.22      0.00
   -8   20   35     -1.75      0.00
    0    0   36     -1.75      0.00
    1    1   36      1.64      0.00
   -1    2   36     10.89      0.00
    2    2   36      9.23      0.00
   -3    3   36      6.44      0.00
    0    3   36      4.76      0.00
    3    3   36     17.39      0.00
   -5    4   36      0.00      0.00
   -2    4   36     -4.04      0.00
    1    4   36     11.66      0.00
    4    4   36      7.66      0.00
   -7    5   36      1.95      0.00
   -4    5   36    -17.00      0.00
   -1    5   36     10.51      0.00
    2    5   36     -1.51      0.00
    5    5   36     -4.56      0.00
   -9    6   36     -6.72      0.00
   -6    6   36     -0.16      0.00
   -3    6   36     -0.84      0.00
    0    6   36     -4.07      0.00
    3    6   36      2.90      0.00
    6    6   36     -5.68      0.00
  -11    7   36    -13.11      0.00
   -8    7   36    -15.98      0.00
   -5    7   36      8.14      0.00
   -2    7   36      5.95      0.00
    1    7   36      1.90      0.00
    4    7   36    -10.20      0.00
    7    7   36      7.35      0.00
  -13    8   36    -11.67      0.00
  -10    8   36    -13.95      0.00
   -7    8   36     -7.29      0.00
   -4    8   36     14.06      0.00
   -1    8   36      6.52      0.00
    2    8   36     -4.52      0.00
    5    8   36     -3.62      0.00
    8    8   36      5.65      0.00
  -15    9   36      0.40      0.00
  -12    9   36     -7.98      0.00
   -9    9   36     -8.40      0.00
   -6    9   36      3.22      0.00
   -3    9   36      7.88      0.00
    0    9   36     -3.37      0.00
    3    9   36     -0.52      0.00
    6    9   36     -6.72      0.00
    9    9   36      5.63      0.00
  -17   10   36      4.41      0.00
  -14   10   36      5.24      0.00
  -11   10   36     -2.76      0.00
   -8   10   36      2.08      0.00
   -5   10   36      7.48      0.00
   -2   10   36      4.08      0.00
    1   10   36     -7.80      0.00
    4   10   36     -7.39      0.00
    7   10   36      3.84      0.00
   10   10   36     -5.33      0.00
  -19   11   36      2.37      0.00
  -16   11   36      3.22      0.00
  -13   11   36      4.84      0.00
  -10   11   36     -0.22      0.00
   -7   11   36      0.39      0.00
   -4   11   36     -5.10      0.00
   -1   11   36      4.41      0.00
    2   11   36      3.52      0.00
    5   11   36     -1.35      0.00
    8   11   36      3.53      0.00
  -18   12   36     -0.57      0.00
  -15   12   36     -7.31      0.00
  -12   12   36      1.21      0.00
   -9   12   36     -5.95      0.00
   -6   12   36     -0.67      0.00
   -3   12   36      4.81      0.00
    0   12   36      7.53      0.00
    3   12   36     -3.29      0.00
    6   12   36      6.56      0.00
  -20   13   36     -0.44      0.00
  -17   13   36     -8.78      0.00
  -14   13   36     -2.72      0.00
  -11   13   36      4.42      0.00
   -8   13   36      3.77      0.00
   -5   13   36     -2.63      0.00
   -2   13   36      7.85      0.00
    1   13   36     -0.04      0.00
    4   13   36      0.11      0.00
    7   13   36      6.90      0.00
  -19   14   36     -6.63      0.00
  -16   14   36     -5.10      0.00
  -13   14   36      6.76      0.00
  -10   14   36      5.88      0.00
   -7   14   36      0.05      0.00
   -4   14   36      0.50      0.00
   -1   14   36      0.87      0.00
    2   14   36     -4.81      0.00
    5   14   36      3.73      0.00
  -18   15   36      1.63      0.00
  -15   15   36      4.60      0.00
  -12   15   36     13.34      0.00
   -9   15   36      3.07      0.00
   -6   15   36     -2.62      0.00
   -3   15   36      3.15      0.00
    0   15   36     -2.68      0.00
    3   15   36     -0.58      0.00
  -17   16   36      0.40      0.00
  -14   16   36      0.63      0.00
  -11   16   36      7.66      0.00
   -8   16   36     -2.98      0.00
   -5   16   36      2.68      0.00
   -2   16   36     -1.70      0.00
    1   16   36     -2.22      0.00
  -16   17   36      0.89      0.00
  -13   17   36      6.74      0.00
  -10   17   36     -5.83      0.00
   -7   17   36      2.18      0.00
   -4   17   36     -0.03      0.00
   -1   17   36     -2.34      0.00
  -15   18   36     -3.77      0.00
  -12   18   36     -4.49      0.00
   -9   18   36     -5.98      0.00
   -6   18   36      5.68      0.00
   -3   18   36     -7.41      0.00
  -14   19   36     -3.30      0.00
  -11   19   36     -6.36      0.00
   -8   19   36     -0.18      0.00
   -5   19   36     -5.39      0.00
  -13   20   36     -9.06      0.00
  -10   20   36     -1.00      0.00
   -7   20   36     -2.34      0.00
   -1    1   37      1.10      0.00
   -3    2   37     10.02      0.00
    0    2   37      2.70      0.00
   -5    3   37     18.01      0.00
   -2    3   37     14.83      0.00
    1    3   37      1.35      0.00
   -7    4   37     18.63      0.00
   -4    4   37      6.27      0.00
   -1    4   37     -0.43      0.00
    2    4   37     -3.43      0.00
   -9    5   37     15.76      0.00
   -6    5   37     21.42      0.00
   -3    5   37     -4.12      0.00
    0    5   37    -13.06      0.00
    3    5   37      9.56      0.00
  -11    6   37      7.87      0.00
   -8    6   37      8.33      0.00
   -5    6   37     11.44      0.00
   -2    6   37     -0.47      0.00
    1    6   37     -8.67      0.00
    4    6   37     10.31      0.00
  -13    7   37      1.44      0.00
  -10    7   37      6.75      0.00
   -7    7   37      1.26      0.00
   -4    7   37     18.14      0.00
   -1    7   37     -9.36      0.00
    2    7   37     13.01      0.00
    5    7   37      6.75      0.00
  -15    8   37      2.60      0.00
  -12    8   37     -9.98      0.00
   -9    8   37     -3.66      0.00
   -6    8   37     -0.89      0.00
   -3    8   37      8.76      0.00
    0    8   37      2.75      0.00
    3    8   37      7.24      0.00
    6    8   37     -2.75      0.00
  -17    9   37      1.12      0.00
  -14    9   37     -1.60      0.00
  -11    9   37     -1.25      0.00
   -8    9   37     -2.33      0.00
   -5    9   37      9.50      0.00
   -2    9   37      3.72      0.00
    1    9   37     -5.22      0.00
    4    9   37     -2.28      0.00
    7    9   37      0.97      0.00
  -19   10   37      1.80      0.00
  -16   10   37      2.88      0.00
  -13   10   37      8.71      0.00
  -10   10   37     -1.94      0.00
   -7   10   37     -2.09      0.00
   -4   10   37     -0.46      0.00
   -1   10   37     -1.73      0.00
    2   10   37      3.17      0.00
    5   10   37    -12.89      0.00
    8   10   37      2.05      0.00
  -18   11   37      3.36      0.00
  -15   11   37      6.46      0.00
  -12   11   37      4.27      0.00
   -9   11   37      0.38      0.00
   -6   11   37      6.98      0.00
   -3   11   37     -0.44      0.00
    0   11   37      2.61      0.00
    3   11   37     -2.94      0.00
    6   11   37      1.43      0.00
    9   11   37      0.85      0.00
  -20   12   37     -1.25      0.00
  -17   12   37      3.03      0.00
  -14   12   37      2.39      0.00
  -11   12   37     -4.91      0.00
   -8   12   37     -0.14      0.00
   -5   12   37      1.83      0.00
   -2   12   37      5.50      0.00
    1   12   37     -1.48      0.00
    4   12   37     -5.10      0.00
    7   12   37      5.32      0.00
  -19   13   37     -3.70      0.00
  -16   13   37     -3.91      0.00
  -13   13   37      1.78      0.00
  -10   13   37     -1.09      0.00
   -7   13   37     12.29      0.00
   -4   13   37      2.49      0.00
   -1   13   37      2.71      0.00
    2   13   37     -5.76      0.00
    5   13   37      1.34      0.00
  -18   14   37     -0.47      0.00
  -15   14   37      1.65      0.00
  -12   14   37      3.53      0.00
   -9   14   37      7.43      0.00
   -6   14   37      0.63      0.00
   -3   14   37     -1.42      0.00
    0   14   37     -3.93      0.00
    3   14   37     -3.10      0.00
  -17   15   37      1.51      0.00
  -14   15   37      1.02      0.00
  -11   15   37      6.52      0.00
   -8   15   37      7.09      0.00
   -5   15   37      1.91      0.00
   -2   15   37     -0.32      0.00
    1   15   37     -0.58      0.00
    4   15   37      1.25      0.00
  -16   16   37     -1.84      0.00
  -13   16   37      3.14      0.00
  -10   16   37      1.29      0.00
   -7   16   37      6.95      0.00
   -4   16   37      1.40      0.00
   -1   16   37     -0.15      0.00
    2   16   37      1.04      0.00
  -18   17   37      1.19      0.00
  -15   17   37     -6.89      0.00
  -12   17   37      3.99      0.00
   -9   17   37     -0.69      0.00
   -6   17   37      5.91      0.00
   -3   17   37     -4.64      0.00
    0   17   37      1.19      0.00
  -17   18   37     -2.72      0.00
  -14   18   37     -4.15      0.00
  -11   18   37     -7.57      0.00
   -8   18   37     -3.33      0.00
   -5   18   37      2.10      0.00
   -2   18   37     -1.70      0.00
  -13   19   37     -7.21      0.00
  -10   19   37      0.60      0.00
   -7   19   37     -1.51      0.00
   -4   19   37     -2.72      0.00
  -12   20   37     -0.97      0.00
   -9   20   37     -0.52      0.00
    0    1   38     10.89      0.00
   -2    2   38     14.80      0.00
    1    2   38      2.58      0.00
   -4    3   38      9.76      0.00
   -1    3   38     13.63      0.00
    2    3   38      0.38      0.00
   -6    4   38     10.44      0.00
   -3    4   38      1.14      0.00
    0    4   38     -5.63      0.00
    3    4   38     -6.80      0.00
   -8    5   38      6.46      0.00
   -5    5   38     -0.89      0.00
   -2    5   38     -1.83      0.00
    1    5   38    -15.97      0.00
    4    5   38      4.80      0.00
  -10    6   38     14.12      0.00
   -7    6   38      2.97      0.00
   -4    6   38      0.92      0.00
   -1    6   38    -15.88      0.00
    2    6   38      4.96      0.00
    5    6   38      8.81      0.00
  -12    7   38     -1.15      0.00
   -9    7   38     10.75      0.00
   -6    7   38     -6.90      0.00
   -3    7   38      6.25      0.00
    0    7   38      0.06      0.00
    3    7   38      6.11      0.00
    6    7   38      4.78      0.00
  -14    8   38     -3.39      0.00
  -11    8   38      6.00      0.00
   -8    8   38     -3.27      0.00
   -5    8   38     -4.98      0.00
   -2    8   38      6.24      0.00
    1    8   38      3.78      0.00
    4    8   38      6.74      0.00
    7    8   38      1.33      0.00
  -16    9   38     -5.11      0.00
  -13    9   38      0.31      0.00
  -10    9   38      6.97      0.00
   -7    9   38    -10.53      0.00
   -4    9   38      2.81      0.00
   -1    9   38      4.45      0.00
    2    9   38      5.03      0.00
    5    9   38     -7.66      0.00
    8    9   38     -0.77      0.00
  -18   10   38     -3.42      0.00
  -15   10   38      0.06      0.00
  -12   10   38      9.14      0.00
   -9   10   38      2.65      0.00
   -6   10   38     -2.53      0.00
   -3   10   38     -4.64      0.00
    0   10   38      1.59      0.00
    3   10   38      5.26      0.00
    6   10   38      2.23      0.00
    9   10   38     -1.56      0.00
  -20   11   38     -0.92      0.00
  -17   11   38     -1.40      0.00
  -14   11   38      6.60      0.00
  -11   11   38     -1.82      0.00
   -8   11   38     -1.61      0.00
   -5   11   38     -2.42      0.00
   -2   11   38      1.34      0.00
    1   11   38      1.21      0.00
    4   11   38     -0.24      0.00
    7   11   38      0.65      0.00
  -19   12   38     -3.32      0.00
  -16   12   38     -1.60      0.00
  -13   12   38      6.02      0.00
  -10   12   38     -4.46      0.00
   -7   12   38      5.66      0.00
   -4   12   38      2.76      0.00
   -1   12   38      2.54      0.00
    2   12   38      0.89      0.00
    5   12   38     -2.32      0.00
  -18   13   38      0.15      0.00
  -15   13   38      0.96      0.00
  -12   13   38     -0.07      0.00
   -9   13   38     -3.09      0.00
   -6   13   38      2.97      0.00
   -3   13   38     -5.46      0.00
    0   13   38     -1.27      0.00
    3   13   38     -2.13      0.00
    6   13   38      4.37      0.00
  -17   14   38     -0.38      0.00
  -14   14   38      5.81      0.00
  -11   14   38     -2.34      0.00
   -8   14   38      6.08      0.00
   -5   14   38     -2.64      0.00
   -2   14   38      2.62      0.00
    1   14   38     -0.19      0.00
    4   14   38     -1.28      0.00
  -16   15   38      2.97      0.00
  -13   15   38      1.14      0.00
  -10   15   38     -3.92      0.00
   -7   15   38      1.60      0.00
   -4   15   38     -1.73      0.00
   -1   15   38      2.23      0.00
    2   15   38      2.80      0.00
  -18   16   38      6.67      0.00
  -15   16   38     -3.27      0.00
  -12   16   38      2.11      0.00
   -9   16   38      1.84      0.00
   -6   16   38      6.36      0.00
   -3   16   38      1.86      0.00
    0   16   38      4.80      0.00
  -17   17   38      1.00      0.00
  -14   17   38     -4.50      0.00
  -11   17   38     -6.35      0.00
   -8   17   38      2.69      0.00
   -5   17   38      4.15      0.00
   -2   17   38      1.51      0.00
  -16   18   38     -2.56      0.00
  -13   18   38     -6.54      0.00
  -10   18   38     -0.66      0.00
   -7   18   38     -5.11      0.00
   -4   18   38     -0.26      0.00
  -12   19   38     -6.67      0.00
   -9   19   38      1.00      0.00
   -6   19   38     -2.93      0.00
    0    0   39      5.89      0.00
    1    1   39     -3.33      0.00
   -1    2   39     10.38      0.00
    2    2   39      6.42      0.00
   -3    3   39      8.02      0.00
    0    3   39      0.88      0.00
    3    3   39     -2.23      0.00
   -5    4   39     -1.73      0.00
   -2    4   39      8.36      0.00
    1    4   39      6.36      0.00
    4    4   39    -11.55      0.00
   -7    5   39     -6.19      0.00
   -4    5   39     -9.11      0.00
   -1    5   39     -0.43      0.00
    2    5   39     -2.27      0.00
    5    5   39     -5.36      0.00
   -9    6   39     -6.42      0.00
   -6    6   39    -12.60      0.00
   -3    6   39      5.43      0.00
    0    6   39     -2.21      0.00
    3    6   39     -2.79      0.00
    6    6   39     -4.57      0.00
  -11    7   39     -0.43      0.00
   -8    7   39     -8.09      0.00
   -5    7   39     -9.79      0.00
   -2    7   39      0.66      0.00
    1    7   39     10.55      0.00
    4    7   39    -12.47      0.00
    7    7   39     -1.29      0.00
  -13    8   39     -6.63      0.00
  -10    8   39      7.61      0.00
   -7    8   39    -12.74      0.00
   -4    8   39     -5.29      0.00
   -1    8   39     14.10      0.00
    2    8   39     -6.21      0.00
    5    8   39     -5.82      0.00
    8    8   39      4.45      0.00
  -15    9   39      1.40      0.00
  -12    9   39      5.60      0.00
   -9    9   39     -0.17      0.00
   -6    9   39    -13.33      0.00
   -3    9   39      4.56      0.00
    0    9   39      3.28      0.00
    3    9   39     -0.75      0.00
    6    9   39      1.84      0.00
    9    9   39     -0.93      0.00
  -17   10   39      1.01      0.00
  -14   10   39      4.57      0.00
  -11   10   39      2.32      0.00
   -8   10   39     -1.11      0.00
   -5   10   39     -2.98      0.00
   -2   10   39     -2.58      0.00
    1   10   39      2.65      0.00
    4   10   39     -1.62      0.00
    7   10   39      8.90      0.00
  -19   11   39      2.69      0.00
  -16   11   39     -2.91      0.00
  -13   11   39      3.64      0.00
  -10   11   39     -5.25      0.00
   -7   11   39     -0.32      0.00
   -4   11   39     -5.35      0.00
   -1   11   39      3.40      0.00
    2   11   39     -2.50      0.00
    5   11   39      4.98      0.00
    8   11   39      1.22      0.00
  -18   12   39     -0.70      0.00
  -15   12   39     -5.86      0.00
  -12   12   39      2.67      0.00
   -9   12   39     -1.42      0.00
   -6   12   39      0.19      0.00
   -3   12   39     -1.73      0.00
    0   12   39     -7.61      0.00
    3   12   39      4.96      0.00
    6   12   39      1.91      0.00
  -17   13   39     -7.40      0.00
  -14   13   39      0.98      0.00
  -11   13   39      0.39      0.00
   -8   13   39      0.68      0.00
   -5   13   39     -1.10      0.00
   -2   13   39     -8.15      0.00
    1   13   39     -3.97      0.00
    4   13   39     -1.27      0.00
  -19   14   39     -0.33      0.00
  -16   14   39     -5.50      0.00
  -13   14   39      7.20      0.00
  -10   14   39     -4.95      0.00
   -7   14   39     -2.68      0.00
   -4   14   39    -11.82      0.00
   -1   14   39      0.78      0.00
    2   14   39      2.38      0.00
    5   14   39      1.84      0.00
  -18   15   39     -4.47      0.00
  -15   15   39     -2.82      0.00
  -12   15   39      3.77      0.00
   -9   15   39     -1.91      0.00
   -6   15   39     -4.99      0.00
   -3   15   39      2.11      0.00
    0   15   39     -1.24      0.00
    3   15   39      2.58      0.00
  -17   16   39      3.13      0.00
  -14   16   39     -1.19      0.00
  -11   16   39     -0.32      0.00
   -8   16   39     -0.73      0.00
   -5   16   39     -0.51      0.00
   -2   16   39      1.63      0.00
    1   16   39      3.41      0.00
  -16   17   39     -2.83      0.00
  -13   17   39      0.16      0.00
  -10   17   39     -3.65      0.00
   -7   17   39     -2.99      0.00
   -4   17   39      4.29      0.00
   -1   17   39      2.32      0.00
  -15   18   39     -1.98      0.00
  -12   18   39     -9.44      0.00
   -9   18   39      2.15      0.00
   -6   18   39     -3.68      0.00
   -3   18   39      2.69      0.00
  -14   19   39     -6.82      0.00
  -11   19   39     -1.54      0.00
   -8   19   39     -4.83      0.00
   -5   19   39     -0.83      0.00
   -1    1   40    -12.72      0.00
   -3    2   40     -2.42      0.00
    0    2   40    -20.22      0.00
   -5    3   40      4.71      0.00
   -2    3   40      9.31      0.00
    1    3   40     -0.93      0.00
   -7    4   40      0.36      0.00
   -4    4   40      4.50      0.00
   -1    4   40     -1.88      0.00
    2    4   40      3.28      0.00
   -9    5   40     -5.16      0.00
   -6    5   40      3.33      0.00
   -3    5   40     10.50      0.00
    0    5   40      2.18      0.00
    3    5   40      6.67      0.00
  -11    6   40      5.59      0.00
   -8    6   40     -4.92      0.00
   -5    6   40      4.56      0.00
   -2    6   40     -1.18      0.00
    1    6   40      7.47      0.00
    4    6   40     -5.46      0.00
  -13    7   40     -7.17      0.00
  -10    7   40      3.85      0.00
   -7    7   40      1.68      0.00
   -4    7   40     -2.60      0.00
   -1    7   40     -5.85      0.00
    2    7   40      6.28      0.00
    5    7   40     -6.35      0.00
  -15    8   40      2.04      0.00
  -12    8   40      4.35      0.00
   -9    8   40      5.97      0.00
   -6    8   40     -0.47      0.00
   -3    8   40     -8.58      0.00
    0    8   40      6.45      0.00
    3    8   40    -11.26      0.00
    6    8   40     -5.37      0.00
  -17    9   40      5.14      0.00
  -14    9   40      4.78      0.00
  -11    9   40      9.65      0.00
   -8    9   40     -0.05      0.00
   -5    9   40    -11.73      0.00
   -2    9   40     -4.45      0.00
    1    9   40      3.09      0.00
    4    9   40     -4.88      0.00
    7    9   40      7.32      0.00
  -19   10   40      2.52      0.00
  -16   10   40      9.29      0.00
  -13   10   40      7.33      0.00
  -10   10   40     -4.06      0.00
   -7   10   40     -1.87      0.00
   -4   10   40     -5.02      0.00
   -1   10   40     -0.55      0.00
    2   10   40      0.09      0.00
    5   10   40     -1.64      0.00
    8   10   40      0.08      0.00
  -18   11   40      6.94      0.00
  -15   11   40      2.57      0.00
  -12   11   40     -0.08      0.00
   -9   11   40     -5.29      0.00
   -6   11   40     -3.12      0.00
   -3   11   40     -8.40      0.00
    0   11   40      0.65      0.00
    3   11   40     -0.81      0.00
    6   11   40      2.83      0.00
  -17   12   40     -2.40      0.00
  -14   12   40     -2.05      0.00
  -11   12   40     -4.02      0.00
   -8   12   40     -0.75      0.00
   -5   12   40     -2.59      0.00
   -2   12   40     -4.53      0.00
    1   12   40    -11.65      0.00
    4   12   40      0.89      0.00
    7   12   40      0.99      0.00
  -19   13   40     -1.55      0.00
  -16   13   40     -4.33      0.00
  -13   13   40      6.07      0.00
  -10   13   40     -3.24      0.00
   -7   13   40      0.88      0.00
   -4   13   40     -3.55      0.00
   -1   13   40     -9.12      0.00
    2   13   40      0.05      0.00
    5   13   40      1.83      0.00
  -18   14   40     -7.76      0.00
  -15   14   40     -3.15      0.00
  -12   14   40      4.43      0.00
   -9   14   40     -3.54      0.00
   -6   14   40     -2.56      0.00
   -3   14   40     -8.08      0.00
    0   14   40     -6.89      0.00
    3   14   40      3.47      0.00
  -17   15   40     -1.04      0.00
  -14   15   40     -2.44      0.00
  -11   15   40      2.30      0.00
   -8   15   40      2.05      0.00
   -5   15   40     -8.18      0.00
   -2   15   40      3.36      0.00
    1   15   40      0.65      0.00
  -16   16   40     -2.83      0.00
  -13   16   40     -1.07      0.00
  -10   16   40      1.99      0.00
   -7   16   40     -3.45      0.00
   -4   16   40      1.86      0.00
   -1   16   40     -2.61      0.00
  -15   17   40     -2.46      0.00
  -12   17   40     -1.60      0.00
   -9   17   40      1.81      0.00
   -6   17   40     -4.42      0.00
   -3   17   40      4.18      0.00
  -14   18   40     -4.34      0.00
  -11   18   40     -6.76      0.00
   -8   18   40      0.59      0.00
   -5   18   40      0.80      0.00
  -13   19   40     -1.27      0.00
  -10   19   40      1.83      0.00
   -7   19   40     -2.48      0.00
    0    1   41     -8.73      0.00
   -2    2   41      7.65      0.00
    1    2   41    -15.01      0.00
   -4    3   41      1.62      0.00
   -1    3   41     -3.93      0.00
    2    3   41    -12.78      0.00
   -6    4   41     -3.64      0.00
   -3    4   41     10.39      0.00
    0    4   41     -5.94      0.00
    3    4   41     -4.00      0.00
   -8    5   41     -8.10      0.00
   -5    5   41      2.14      0.00
   -2    5   41      5.84      0.00
    1    5   41     -4.59      0.00
    4    5   41      1.98      0.00
  -10    6   41      6.82      0.00
   -7    6   41      3.33      0.00
   -4    6   41      9.02      0.00
   -1    6   41    -10.14      0.00
    2    6   41     13.87      0.00
    5    6   41      7.82      0.00
  -12    7   41      6.31      0.00
   -9    7   41      1.86      0.00
   -6    7   41     14.38      0.00
   -3    7   41     -9.89      0.00
    0    7   41     -5.45      0.00
    3    7   41     -4.16      0.00
    6    7   41     -0.90      0.00
  -14    8   41     -9.23      0.00
  -11    8   41     13.15      0.00
   -8    8   41      6.43      0.00
   -5    8   41     -5.19      0.00
   -2    8   41    -13.27      0.00
    1    8   41      6.65      0.00
    4    8   41     -0.12      0.00
    7    8   41     -4.21      0.00
  -16    9   41      3.24      0.00
  -13    9   41      2.34      0.00
  -10    9   41     10.33      0.00
   -7    9   41      5.87      0.00
   -4    9   41     -7.16      0.00
   -1    9   41     -5.83      0.00
    2    9   41      3.60      0.00
    5    9   41     -0.85      0.00
    8    9   41      1.52      0.00
  -18   10   41      3.56      0.00
  -15   10   41      4.95      0.00
  -12   10   41      2.49      0.00
   -9   10   41     -2.44      0.00
   -6   10   41     -7.90      0.00
   -3   10   41     -8.62      0.00
    0   10   41      8.70      0.00
    3   10   41      2.38      0.00
    6   10   41      1.37      0.00
    9   10   41     -4.50      0.00
  -17   11   41      2.85      0.00
  -14   11   41      0.67      0.00
  -11   11   41     -2.62      0.00
   -8   11   41     -1.49      0.00
   -5   11   41     -4.03      0.00
   -2   11   41     -1.17      0.00
    1   11   41      0.13      0.00
    4   11   41      1.60      0.00
    7   11   41     -4.95      0.00
  -19   12   41      1.29      0.00
  -16   12   41      1.88      0.00
  -13   12   41      2.36      0.00
  -10   12   41     -5.94      0.00
   -7   12   41     -2.80      0.00
   -4   12   41     -5.32      0.00
   -1   12   41     -2.81      0.00
    2   12   41     -0.27      0.00
    5   12   41     -2.82      0.00
  -18   13   41     -4.59      0.00
  -15   13   41      4.39      0.00
  -12   13   41      6.52      0.00
   -9   13   41     -4.88      0.00
   -6   13   41     -3.05      0.00
   -3   13   41     -1.58      0.00
    0   13   41     -4.28      0.00
    3   13   41      2.44      0.00
  -17   14   41      0.93      0.00
  -14   14   41      4.38      0.00
  -11   14   41      3.03      0.00
   -8   14   41     -0.97      0.00
   -5   14   41     -3.23      0.00
   -2   14   41      1.23      0.00
    1   14   41     -1.85      0.00
    4   14   41      2.72      0.00
  -16   15   41      6.33      0.00
  -13   15   41     -1.25      0.00
  -10   15   41      1.18      0.00
   -7   15   41     -0.19      0.00
   -4   15   41     -3.18      0.00
   -1   15   41     -0.83      0.00
    2   15   41      3.91      0.00
  -15   16   41     -2.66      0.00
  -12   16   41      0.80      0.00
   -9   16   41      3.22      0.00
   -6   16   41     -6.49      0.00
   -3   16   41      8.18      0.00
    0   16   41      1.15      0.00
  -14   17   41     -5.65      0.00
  -11   17   41     -5.09      0.00
   -8   17   41      0.16      0.00
   -5   17   41     -0.72      0.00
   -2   17   41      4.71      0.00
  -13   18   41     -5.95      0.00
  -10   18   41     -2.50      0.00
   -7   18   41      1.14      0.00
   -4   18   41      3.17      0.00
  -12   19   41      1.51      0.00
   -9   19   41      1.39      0.00
    0    0   42      6.86      0.00
    1    1   42      6.30      0.00
   -1    2   42     11.30      0.00
    2    2   42     -6.57      0.00
   -3    3   42      5.04      0.00
    0    3   42     -1.51      0.00
    3    3   42    -18.59      0.00
   -5    4   42    -13.61      0.00
   -2    4   42      6.68      0.00
    1    4   42     -9.36      0.00
    4    4   42    -12.55      0.00
   -7    5   42    -14.24      0.00
   -4    5   42     -8.46      0.00
   -1    5   42      4.80      0.00
    2    5   42      2.55      0.00
    5    5   42     -3.58      0.00
   -9    6   42    -12.52      0.00
   -6    6   42     -4.73      0.00
   -3    6   42      1.71      0.00
    0    6   42     -0.79      0.00
    3    6   42     -2.99      0.00
    6    6   42      7.47      0.00
  -11    7   42     14.07      0.00
   -8    7   42     -6.28      0.00
   -5    7   42      0.37      0.00
   -2    7   42     -3.58      0.00
    1    7   42      8.02      0.00
    4    7   42     -9.87      0.00
    7    7   42     -7.56      0.00
  -13    8   42     -5.09      0.00
  -10    8   42      9.48      0.00
   -7    8   42      1.13      0.00
   -4    8   42     -3.78      0.00
   -1    8   42     -4.34      0.00
    2    8   42     -6.64      0.00
    5    8   42      5.30      0.00
    8    8   42     -0.15      0.00
  -15    9   42     -2.46      0.00
  -12    9   42      4.99      0.00
   -9    9   42      3.18      0.00
   -6    9   42     -1.06      0.00
   -3    9   42      5.74      0.00
    0    9   42      2.74      0.00
    3    9   42     -5.71      0.00
    6    9   42      1.71      0.00
    9    9   42      1.20      0.00
  -17   10   42     -0.33      0.00
  -14   10   42     -3.86      0.00
  -11   10   42      1.67      0.00
   -8   10   42      3.87      0.00
   -5   10   42      0.54      0.00
   -2   10   42      1.97      0.00
    1   10   42      0.01      0.00
    4   10   42      2.23      0.00
    7   10   42      1.73      0.00
  -19   11   42      3.40      0.00
  -16   11   42     -0.84      0.00
  -13   11   42     -4.80      0.00
  -10   11   42     -0.60      0.00
   -7   11   42     -1.71      0.00
   -4   11   42     -1.32      0.00
   -1   11   42      2.34      0.00
    2   11   42     -3.56      0.00
    5   11   42      2.03      0.00
  -18   12   42     -3.24      0.00
  -15   12   42     -0.42      0.00
  -12   12   42      2.78      0.00
   -9   12   42     -1.48      0.00
   -6   12   42     -1.53      0.00
   -3   12   42      0.39      0.00
    0   12   42     -3.08      0.00
    3   12   42      4.78      0.00
    6   12   42     -3.12      0.00
  -17   13   42     -0.85      0.00
  -14   13   42      3.38      0.00
  -11   13   42      5.99      0.00
   -8   13   42     -4.06      0.00
   -5   13   42     -8.49      0.00
   -2   13   42     -2.85      0.00
    1   13   42      1.26      0.00
    4   13   42      2.84      0.00
  -16   14   42      5.46      0.00
  -13   14   42      4.67      0.00
  -10   14   42      2.77      0.00
   -7   14   42     -5.31      0.00
   -4   14   42      0.91      0.00
   -1   14   42      0.52      0.00
    2   14   42      3.04      0.00
  -15   15   42      4.32      0.00
  -12   15   42      8.73      0.00
   -9   15   42     -1.84      0.00
   -6   15   42     -5.53      0.00
   -3   15   42      3.00      0.00
    0   15   42     -3.83      0.00
  -14   16   42     -2.00      0.00
  -11   16   42      3.46      0.00
   -8   16   42     -2.61      0.00
   -5   16   42     -4.67      0.00
   -2   16   42      3.81      0.00
  -13   17   42     -3.10      0.00
  -10   17   42     -7.12      0.00
   -7   17   42     -1.16      0.00
   -4   17   42      5.24      0.00
  -12   18   42     -5.77      0.00
   -9   18   42     -4.38      0.00
   -6   18   42      3.36      0.00
   -1    1   43     -3.09      0.00
   -3    2   43      4.33      0.00
    0    2   43      1.11      0.00
   -5    3   43      1.79      0.00
   -2    3   43      0.55      0.00
    1    3   43      1.31      0.00
   -7    4   43     -1.01      0.00
   -4    4   43    -12.58      0.00
   -1    4   43      7.98      0.00
    2    4   43     -1.57      0.00
   -9    5   43     -5.72      0.00
   -6    5   43     -2.30      0.00
   -3    5   43      0.75      0.00
    0    5   43      2.88      0.00
    3    5   43      8.49      0.00
  -11    6   43      8.08      0.00
   -8    6   43     -3.92      0.00
   -5    6   43     -3.45      0.00
   -2    6   43     -1.18      0.00
    1    6   43     14.89      0.00
    4    6   43    -14.13      0.00
  -13    7   43      0.63      0.00
  -10    7   43     12.81      0.00
   -7    7   43     -1.95      0.00
   -4    7   43     -3.98      0.00
   -1    7   43      2.43      0.00
    2    7   43      1.75      0.00
    5    7   43      2.68      0.00
  -15    8   43     -2.02      0.00
  -12    8   43     16.16      0.00
   -9    8   43      4.49      0.00
   -6    8   43     -2.20      0.00
   -3    8   43      4.26      0.00
    0    8   43      0.53      0.00
    3    8   43    -14.81      0.00
    6    8   43      1.21      0.00
  -17    9   43      3.46      0.00
  -14    9   43      0.55      0.00
  -11    9   43      9.17      0.00
   -8    9   43     -0.26      0.00
   -5    9   43     -1.49      0.00
   -2    9   43      3.18      0.00
    1    9   43     -0.40      0.00
    4    9   43     -5.05      0.00
    7    9   43      0.82      0.00
  -16   10   43      2.25      0.00
  -13   10   43      1.68      0.00
  -10   10   43      3.97      0.00
   -7   10   43      5.08      0.00
   -4   10   43      1.79      0.00
   -1   10   43      4.69      0.00
    2   10   43    -13.28      0.00
    5   10   43      1.37      0.00
    8   10   43      1.98      0.00
  -18   11   43     -3.74      0.00
  -15   11   43     -0.97      0.00
  -12   11   43     -4.64      0.00
   -9   11   43      3.50      0.00
   -6   11   43     -1.04      0.00
   -3   11   43      0.29      0.00
    0   11   43     -4.15      0.00
    3   11   43     -3.44      0.00
    6   11   43     -1.01      0.00
  -17   12   43      0.17      0.00
  -14   12   43     -1.10      0.00
  -11   12   43      3.60      0.00
   -8   12   43     -0.88      0.00
   -5   12   43     -4.31      0.00
   -2   12   43     -3.20      0.00
    1   12   43     -0.42      0.00
    4   12   43      3.74      0.00
  -16   13   43     -0.84      0.00
  -13   13   43     -1.58      0.00
  -10   13   43      1.75      0.00
   -7   13   43     -2.03      0.00
   -4   13   43     -1.63      0.00
   -1   13   43     -2.90      0.00
    2   13   43      4.16      0.00
    5   13   43      3.37      0.00
  -15   14   43      3.70      0.00
  -12   14   43      6.44      0.00
   -9   14   43     -2.12      0.00
   -6   14   43     -8.73      0.00
   -3   14   43      0.76      0.00
    0   14   43     -1.93      0.00
    3   14   43      6.41      0.00
  -17   15   43      1.63      0.00
  -14   15   43     -2.60      0.00
  -11   15   43     11.17      0.00
   -8   15   43     -4.26      0.00
   -5   15   43      0.56      0.00
   -2   15   43     -2.27      0.00
    1   15   43     -1.90      0.00
  -16   16   43      4.11      0.00
  -13   16   43      4.50      0.00
  -10   16   43     -1.69      0.00
   -7   16   43     -0.38      0.00
   -4   16   43     -0.64      0.00
   -1   16   43     -5.90      0.00
  -15   17   43      0.47      0.00
  -12   17   43     -0.12      0.00
   -9   17   43     -5.19      0.00
   -6   17   43      2.50      0.00
   -3   17   43      0.59      0.00
  -11   18   43     -3.94      0.00
   -8   18   43     -1.89      0.00
   -5   18   43      4.63      0.00
    0    1   44    -11.19      0.00
   -2    2   44     -2.88      0.00
    1    2   44      1.06      0.00
   -4    3   44      5.42      0.00
   -1    3   44      1.48      0.00
    2    3   44      2.32      0.00
   -6    4   44     12.99      0.00
   -3    4   44     -0.89      0.00
    0    4   44     -0.76      0.00
    3    4   44      7.12      0.00
   -8    5   44      8.93      0.00
   -5    5   44      2.88      0.00
   -2    5   44      6.34      0.00
    1    5   44     -3.87      0.00
    4    5   44      4.06      0.00
  -10    6   44      7.17      0.00
   -7    6   44     11.23      0.00
   -4    6   44     11.15      0.00
   -1    6   44     -8.91      0.00
    2    6   44     13.93      0.00
    5    6   44     -2.97      0.00
  -12    7   44      7.79      0.00
   -9    7   44      8.67      0.00
   -6    7   44      5.43      0.00
   -3    7   44     -9.99      0.00
    0    7   44      2.37      0.00
    3    7   44     -3.23      0.00
    6    7   44      7.23      0.00
  -14    8   44     -2.31      0.00
  -11    8   44     18.75      0.00
   -8    8   44      1.09      0.00
   -5    8   44     -5.03      0.00
   -2    8   44      1.88      0.00
    1    8   44      7.65      0.00
    4    8   44      2.76      0.00
    7    8   44     -7.57      0.00
  -16    9   44      2.61      0.00
  -13    9   44      8.81      0.00
  -10    9   44      4.84      0.00
   -7    9   44      0.37      0.00
   -4    9   44     -5.21      0.00
   -1    9   44     -3.37      0.00
    2    9   44      3.74      0.00
    5    9   44      0.69      0.00
    8    9   44      2.01      0.00
  -18   10   44      2.63      0.00
  -15   10   44      2.69      0.00
  -12   10   44     -0.02      0.00
   -9   10   44      3.64      0.00
   -6   10   44     -0.80      0.00
   -3   10   44     -7.61      0.00
    0   10   44     10.03      0.00
    3   10   44     -7.21      0.00
    6   10   44     -4.71      0.00
  -17   11   44      1.94      0.00
  -14   11   44      3.58      0.00
  -11   11   44      1.96      0.00
   -8   11   44      4.67      0.00
   -5   11   44     -5.94      0.00
   -2   11   44      1.55      0.00
    1   11   44     -1.02      0.00
    4   11   44     -0.80      0.00
    7   11   44     -0.44      0.00
  -16   12   44      3.34      0.00
  -13   12   44     -2.67      0.00
  -10   12   44      4.62      0.00
   -7   12   44     -1.56      0.00
   -4   12   44     -2.57      0.00
   -1   12   44     -0.78      0.00
    2   12   44      2.94      0.00
    5   12   44     -1.44      0.00
  -15   13   44      4.43      0.00
  -12   13   44      2.62      0.00
   -9   13   44     -0.04      0.00
   -6   13   44     -0.74      0.00
   -3   13   44      1.36      0.00
    0   13   44      8.43      0.00
    3   13   44      4.56      0.00
  -17   14   44      1.31      0.00
  -14   14   44     -0.90      0.00
  -11   14   44      4.72      0.00
   -8   14   44     -0.67      0.00
   -5   14   44     -0.66      0.00
   -2   14   44      0.27      0.00
    1   14   44      0.74      0.00
  -16   15   44      8.03      0.00
  -13   15   44     -0.40      0.00
  -10   15   44      2.45      0.00
   -7   15   44     -2.43      0.00
   -4   15   44      4.20      0.00
   -1   15   44     -4.13      0.00
  -15   16   44     -1.61      0.00
  -12   16   44      5.27      0.00
   -9   16   44     -4.32      0.00
   -6   16   44      4.88      0.00
   -3   16   44     -0.68      0.00
    0   16   44     -4.95      0.00
  -14   17   44     -1.79      0.00
  -11   17   44     -1.82      0.00
   -8   17   44      2.71      0.00
   -5   17   44      1.69      0.00
  -10   18   44      1.65      0.00
   -7   18   44      0.54      0.00
    0    0   45      0.90      0.00
    1    1   45      5.63      0.00
   -1    2   45      3.60      0.00
    2    2   45      3.40      0.00
   -3    3   45      1.27      0.00
    0    3   45     -0.26      0.00
    3    3   45     -4.67      0.00
   -5    4   45     -2.80      0.00
   -2    4   45      7.45      0.00
    1    4   45    -12.98      0.00
    4    4   45      6.05      0.00
   -7    5   45      3.83      0.00
   -4    5   45      6.40      0.00
   -1    5   45     -3.28      0.00
    2    5   45     -9.08      0.00
    5    5   45     -5.96      0.00
   -9    6   45      1.11      0.00
   -6    6   45      1.82      0.00
   -3    6   45      4.01      0.00
    0    6   45     -7.17      0.00
    3    6   45      1.96      0.00
    6    6   45      1.80      0.00
  -11    7   45      4.45      0.00
   -8    7   45     -1.08      0.00
   -5    7   45      3.99      0.00
   -2    7   45     -2.92      0.00
    1    7   45      4.40      0.00
    4    7   45     -1.70      0.00
    7    7   45     -3.02      0.00
  -13    8   45     -1.42      0.00
  -10    8   45      3.02      0.00
   -7    8   45     -5.96      0.00
   -4    8   45     -8.87      0.00
   -1    8   45      3.78      0.00
    2    8   45     11.38      0.00
    5    8   45     12.53      0.00
    8    8   45     -4.96      0.00
  -15    9   45     -2.96      0.00
  -12    9   45      5.50      0.00
   -9    9   45     -2.65      0.00
   -6    9   45     -2.32      0.00
   -3    9   45      5.90      0.00
    0    9   45      6.53      0.00
    3    9   45      4.40      0.00
    6    9   45     -3.76      0.00
    9    9   45      4.85      0.00
  -17   10   45      4.69      0.00
  -14   10   45      0.21      0.00
  -11   10   45     -2.96      0.00
   -8   10   45     -2.49      0.00
   -5   10   45      0.64      0.00
   -2   10   45     -4.51      0.00
    1   10   45      5.66      0.00
    4   10   45      2.85      0.00
    7   10   45     -2.80      0.00
  -16   11   45      3.49      0.00
  -13   11   45     -1.29      0.00
  -10   11   45      4.53      0.00
   -7   11   45      1.53      0.00
   -4   11   45     -1.21      0.00
   -1   11   45      5.86      0.00
    2   11   45     -4.02      0.00
    5   11   45     -3.65      0.00
  -15   12   45      3.48      0.00
  -12   12   45      0.39      0.00
   -9   12   45      4.83      0.00
   -6   12   45      3.68      0.00
   -3   12   45      0.88      0.00
    0   12   45      1.41      0.00
    3   12   45     -1.24      0.00
  -17   13   45      7.03      0.00
  -14   13   45      3.01      0.00
  -11   13   45      4.01      0.00
   -8   13   45      1.38      0.00
   -5   13   45      4.40      0.00
   -2   13   45     -1.81      0.00
    1   13   45      4.25      0.00
    4   13   45      1.40      0.00
  -16   14   45      4.78      0.00
  -13   14   45      1.19      0.00
  -10   14   45      1.56      0.00
   -7   14   45      2.75      0.00
   -4   14   45      2.90      0.00
   -1   14   45      3.39      0.00
    2   14   45      0.57      0.00
  -15   15   45      3.13      0.00
  -12   15   45      2.21      0.00
   -9   15   45     -3.34      0.00
   -6   15   45     -1.91      0.00
   -3   15   45      2.08      0.00
    0   15   45     -2.97      0.00
  -14   16   45     -4.05      0.00
  -11   16   45      0.81      0.00
   -8   16   45     -3.34      0.00
   -5   16   45      3.73      0.00
   -2   16   45      0.40      0.00
  -13   17   45     -3.57      0.00
  -10   17   45     -3.73      0.00
   -7   17   45      3.06      0.00
   -4   17   45      2.56      0.00
   -1    1   46      4.87      0.00
   -3    2   46      9.01      0.00
    0    2   46      1.06      0.00
   -5    3   46     -3.33      0.00
   -2    3   46     -1.01      0.00
    1    3   46     -1.74      0.00
   -7    4   46      4.26      0.00
   -4    4   46     -7.16      0.00
   -1    4   46     -1.67      0.00
    2    4   46    -10.52      0.00
   -9    5   46      6.21      0.00
   -6    5   46     -6.44      0.00
   -3    5   46      2.08      0.00
    0    5   46     -1.81      0.00
    3    5   46      3.24      0.00
  -11    6   46     -3.97      0.00
   -8    6   46     -0.62      0.00
   -5    6   46     -1.68      0.00
   -2    6   46     -3.31      0.00
    1    6   46     -3.19      0.00
    4    6   46     -8.42      0.00
  -13    7   46      3.80      0.00
  -10    7   46      4.85      0.00
   -7    7   46     -5.22      0.00
   -4    7   46     -7.99      0.00
   -1    7   46     10.24      0.00
    2    7   46      4.55      0.00
    5    7   46      4.07      0.00
  -15    8   46     -6.92      0.00
  -12    8   46      5.10      0.00
   -9    8   46     -1.91      0.00
   -6    8   46     -7.73      0.00
   -3    8   46      4.39      0.00
    0    8   46      2.08      0.00
    3    8   46      0.27      0.00
    6    8   46      4.26      0.00
  -17    9   46      1.43      0.00
  -14    9   46     -1.70      0.00
  -11    9   46      5.40      0.00
   -8    9   46     -8.11      0.00
   -5    9   46     -2.48      0.00
   -2    9   46      5.76      0.00
    1    9   46      4.35      0.00
    4    9   46      6.05      0.00
    7    9   46     -4.13      0.00
  -16   10   46     -0.46      0.00
  -13   10   46      3.46      0.00
  -10   10   46      0.82      0.00
   -7   10   46     -6.85      0.00
   -4   10   46      8.63      0.00
   -1   10   46     -0.05      0.00
    2   10   46    -10.08      0.00
    5   10   46      5.76      0.00
  -15   11   46      1.82      0.00
  -12   11   46     -1.67      0.00
   -9   11   46     -3.00      0.00
   -6   11   46      3.40      0.00
   -3   11   46     -5.31      0.00
    0   11   46     -5.54      0.00
    3   11   46     -2.08      0.00
    6   11   46     -2.36      0.00
  -17   12   46      7.74      0.00
  -14   12   46      1.88      0.00
  -11   12   46     -2.49      0.00
   -8   12   46      0.84      0.00
   -5   12   46      6.85      0.00
   -2   12   46     -0.84      0.00
    1   12   46     -6.23      0.00
    4   12   46     -2.67      0.00
  -16   13   46      1.69      0.00
  -13   13   46      0.78      0.00
  -10   13   46     -0.65      0.00
   -7   13   46      1.88      0.00
   -4   13   46     -0.12      0.00
   -1   13   46     -3.97      0.00
    2   13   46     -5.06      0.00
  -15   14   46      3.46      0.00
  -12   14   46     -2.20      0.00
   -9   14   46     -2.71      0.00
   -6   14   46      1.94      0.00
   -3   14   46     -3.59      0.00
    0   14   46     -0.88      0.00
  -14   15   46     -1.21      0.00
  -11   15   46     -1.00      0.00
   -8   15   46     -2.82      0.00
   -5   15   46     -1.67      0.00
   -2   15   46      0.18      0.00
    1   15   46     -1.98      0.00
  -13   16   46     -2.33      0.00
  -10   16   46     -3.76      0.00
   -7   16   46     -3.10      0.00
   -4   16   46      1.94      0.00
  -12   17   46     -1.10      0.00
   -9   17   46     -0.87      0.00
   -6   17   46     -0.41      0.00
    0    1   47     -9.67      0.00
   -2    2   47      0.87      0.00
    1    2   47      4.18      0.00
   -4    3   47      4.39      0.00
   -1    3   47     -8.19      0.00
    2    3   47      0.84      0.00
   -6    4   47      0.70      0.00
   -3    4   47     -0.34      0.00
    0    4   47     -1.99      0.00
    3    4   47      7.63      0.00
   -8    5   47     10.05      0.00
   -5    5   47      0.26      0.00
   -2    5   47     -3.67      0.00
    1    5   47      0.54      0.00
    4    5   47      6.66      0.00
  -10    6   47      3.30      0.00
   -7    6   47      2.68      0.00
   -4    6   47     -2.97      0.00
   -1    6   47      5.48      0.00
    2    6   47      3.46      0.00
    5    6   47     -7.25      0.00
  -12    7   47      1.53      0.00
   -9    7   47      1.32      0.00
   -6    7   47     -1.52      0.00
   -3    7   47     -9.08      0.00
    0    7   47      3.16      0.00
    3    7   47      0.08      0.00
    6    7   47      5.19      0.00
  -14    8   47      0.96      0.00
  -11    8   47      8.36      0.00
   -8    8   47      1.47      0.00
   -5    8   47     -8.22      0.00
   -2    8   47      4.08      0.00
    1    8   47      4.50      0.00
    4    8   47     -0.70      0.00
    7    8   47     -6.38      0.00
  -16    9   47     -6.41      0.00
  -13    9   47      1.73      0.00
  -10    9   47      5.41      0.00
   -7    9   47     -8.22      0.00
   -4    9   47     -3.48      0.00
   -1    9   47     -5.18      0.00
    2    9   47     -4.59      0.00
    5    9   47      6.03      0.00
    8    9   47     -2.59      0.00
  -15   10   47      0.20      0.00
  -12   10   47      7.69      0.00
   -9   10   47      1.39      0.00
   -6   10   47     -5.92      0.00
   -3   10   47     -6.80      0.00
    0   10   47      0.37      0.00
    3   10   47     -2.83      0.00
    6   10   47      2.57      0.00
  -17   11   47      1.58      0.00
  -14   11   47      3.74      0.00
  -11   11   47     -1.53      0.00
   -8   11   47     -5.50      0.00
   -5   11   47     -0.04      0.00
   -2   11   47     -3.61      0.00
    1   11   47     -9.95      0.00
    4   11   47      3.58      0.00
  -16   12   47      3.71      0.00
  -13   12   47      3.74      0.00
  -10   12   47     -3.13      0.00
   -7   12   47     -1.15      0.00
   -4   12   47     -8.20      0.00
   -1   12   47      3.37      0.00
    2   12   47     -2.73      0.00
  -15   13   47     -0.63      0.00
  -12   13   47     -5.97      0.00
   -9   13   47      1.08      0.00
   -6   13   47     -0.86      0.00
   -3   13   47     -3.24      0.00
    0   13   47      2.56      0.00
    3   13   47     -4.78      0.00
  -14   14   47      3.03      0.00
  -11   14   47     -5.04      0.00
   -8   14   47     -4.54      0.00
   -5   14   47     -3.40      0.00
   -2   14   47     -1.76      0.00
    1   14   47     -4.01      0.00
  -13   15   47     -4.16      0.00
  -10   15   47     -2.96      0.00
   -7   15   47     -2.64      0.00
   -4   15   47     -3.49      0.00
   -1   15   47     -0.03      0.00
  -12   16   47     -1.26      0.00
   -9   16   47     -0.14      0.00
   -6   16   47     -3.46      0.00
   -3   16   47      0.98      0.00
   -8   17   47      2.93      0.00
   -5   17   47     -3.68      0.00
    0    0   48     -8.13      0.00
    1    1   48      2.02      0.00
   -1    2   48     -4.33      0.00
    2    2   48      4.42      0.00
   -3    3   48      6.33      0.00
    0    3   48     -3.54      0.00
    3    3   48     -6.69      0.00
   -5    4   48     -4.75      0.00
   -2    4   48      5.83      0.00
    1    4   48     -6.35      0.00
    4    4   48      3.86      0.00
   -7    5   48     -5.69      0.00
   -4    5   48      6.02      0.00
   -1    5   48     -3.83      0.00
    2    5   48     -2.32      0.00
    5    5   48     -5.12      0.00
   -9    6   48     -6.12      0.00
   -6    6   48      3.90      0.00
   -3    6   48     -3.93      0.00
    0    6   48      3.47      0.00
    3    6   48      3.30      0.00
    6    6   48     -1.21      0.00
  -11    7   48     -5.28      0.00
   -8    7   48     -3.30      0.00
   -5    7   48     -3.35      0.00
   -2    7   48      0.90      0.00
    1    7   48     -0.06      0.00
    4    7   48     -0.44      0.00
    7    7   48     -0.96      0.00
  -13    8   48     -3.03      0.00
  -10    8   48     -5.20      0.00
   -7    8   48     -1.74      0.00
   -4    8   48     -3.52      0.00
   -1    8   48     -3.12      0.00
    2    8   48      5.39      0.00
    5    8   48      1.27      0.00
    8    8   48     -6.17      0.00
  -15    9   48     -3.32      0.00
  -12    9   48     -2.57      0.00
   -9    9   48      2.47      0.00
   -6    9   48     -2.51      0.00
   -3    9   48     -4.65      0.00
    0    9   48      1.04      0.00
    3    9   48     -5.74      0.00
    6    9   48      1.37      0.00
  -17   10   48     -1.35      0.00
  -14   10   48     -2.63      0.00
  -11   10   48     -1.77      0.00
   -8   10   48     -1.57      0.00
   -5   10   48     -5.14      0.00
   -2   10   48     -5.00      0.00
    1   10   48     -7.59      0.00
    4   10   48      3.61      0.00
  -16   11   48      2.87      0.00
  -13   11   48      5.67      0.00
  -10   11   48      1.62      0.00
   -7   11   48      2.19      0.00
   -4   11   48     -4.72      0.00
   -1   11   48      7.23      0.00
    2   11   48     -4.46      0.00
    5   11   48      2.04      0.00
  -15   12   48     -2.28      0.00
  -12   12   48     -1.76      0.00
   -9   12   48      5.37      0.00
   -6   12   48      1.87      0.00
   -3   12   48     -6.20      0.00
    0   12   48      3.03      0.00
    3   12   48     -2.82      0.00
  -14   13   48      4.95      0.00
  -11   13   48     -2.47      0.00
   -8   13   48      4.81      0.00
   -5   13   48     -3.12      0.00
   -2   13   48      5.74      0.00
    1   13   48      2.60      0.00
  -13   14   48     -1.49      0.00
  -10   14   48      1.76      0.00
   -7   14   48     -5.55      0.00
   -4   14   48     -3.83      0.00
   -1   14   48      5.32      0.00
  -12   15   48     -2.62      0.00
   -9   15   48     -1.01      0.00
   -6   15   48     -3.30      0.00
   -3   15   48     -2.65      0.00
  -11   16   48     -0.29      0.00
   -8   16   48      0.30      0.00
   -5   16   48     -5.11      0.00
   -7   17   48     -0.74      0.00
   -1    1   49      7.65      0.00
   -3    2   49      4.96      0.00
    0    2   49      0.51      0.00
   -5    3   49    -11.54      0.00
   -2    3   49      7.44      0.00
    1    3   49     -1.68      0.00
   -7    4   49     -8.39      0.00
   -4    4   49     -7.66      0.00
   -1    4   49     -0.61      0.00
    2    4   49     -7.49      0.00
   -9    5   49     -3.40      0.00
   -6    5   49    -10.34      0.00
   -3    5   49      4.01      0.00
    0    5   49     -5.77      0.00
    3    5   49      2.05      0.00
  -11    6   49     -2.14      0.00
   -8    6   49     -8.63      0.00
   -5    6   49     -3.61      0.00
   -2    6   49     -7.91      0.00
    1    6   49      0.37      0.00
    4    6   49      3.93      0.00
  -13    7   49      3.38      0.00
  -10    7   49     -6.35      0.00
   -7    7   49     -0.09      0.00
   -4    7   49     -5.19      0.00
   -1    7   49      6.66      0.00
    2    7   49      3.61      0.00
    5    7   49      5.20      0.00
  -15    8   49     -4.39      0.00
  -12    8   49     -5.44      0.00
   -9    8   49     -4.64      0.00
   -6    8   49     -4.78      0.00
   -3    8   49      4.05      0.00
    0    8   49     -1.30      0.00
    3    8   49     -0.52      0.00
    6    8   49      1.75      0.00
  -14    9   49     -2.44      0.00
  -11    9   49     -7.17      0.00
   -8    9   49     -2.06      0.00
   -5    9   49      1.42      0.00
   -2    9   49      1.89      0.00
    1    9   49     -2.70      0.00
    4    9   49     -4.13      0.00
    7    9   49     -1.42      0.00
  -16   10   49     -0.53      0.00
  -13   10   49     -0.85      0.00
  -10   10   49     -5.33      0.00
   -7   10   49      4.11      0.00
   -4   10   49     -1.47      0.00
   -1   10   49      1.43      0.00
    2   10   49    -16.22      0.00
    5   10   49      3.66      0.00
  -15   11   49      0.38      0.00
  -12   11   49     -2.01      0.00
   -9   11   49      0.73      0.00
   -6   11   49      4.16      0.00
   -3   11   49      0.68      0.00
    0   11   49     -9.42      0.00
    3   11   49     -3.76      0.00
  -14   12   49      2.64      0.00
  -11   12   49     -1.40      0.00
   -8   12   49      9.35      0.00
   -5   12   49      7.17      0.00
   -2   12   49      0.57      0.00
    1   12   49     -6.61      0.00
    4   12   49     -0.91      0.00
  -13   13   49      2.28      0.00
  -10   13   49      2.22      0.00
   -7   13   49      2.29      0.00
   -4   13   49     -4.45      0.00
   -1   13   49      2.37      0.00
    2   13   49     -3.07      0.00
  -15   14   49     -1.07      0.00
  -12   14   49     -3.09      0.00
   -9   14   49      4.84      0.00
   -6   14   49     -1.31      0.00
   -3   14   49      0.14      0.00
    0   14   49      2.91      0.00
  -14   15   49     -2.03      0.00
  -11   15   49     -1.05      0.00
   -8   15   49     -4.67      0.00
   -5   15   49      0.65      0.00
   -2   15   49      0.04      0.00
  -10   16   49      0.65      0.00
   -7   16   49     -0.79      0.00
   -4   16   49     -3.59      0.00
    0    1   50      5.15      0.00
   -2    2   50      3.36      0.00
    1    2   50      1.00      0.00
   -4    3   50    -11.48      0.00
   -1    3   50      0.72      0.00
    2    3   50      5.00      0.00
   -6    4   50     -8.18      0.00
   -3    4   50     -2.30      0.00
    0    4   50      1.96      0.00
    3    4   50      6.55      0.00
   -8    5   50      1.37      0.00
   -5    5   50    -12.37      0.00
   -2    5   50     -3.67      0.00
    1    5   50      5.51      0.00
    4    5   50      4.96      0.00
  -10    6   50     -0.09      0.00
   -7    6   50      0.63      0.00
   -4    6   50     -6.09      0.00
   -1    6   50     -3.40      0.00
    2    6   50      3.30      0.00
    5    6   50      6.98      0.00
  -12    7   50      4.45      0.00
   -9    7   50      2.25      0.00
   -6    7   50     -1.62      0.00
   -3    7   50     -6.39      0.00
    0    7   50      6.55      0.00
    3    7   50      2.10      0.00
    6    7   50      5.32      0.00
  -14    8   50     -1.68      0.00
  -11    8   50      1.86      0.00
   -8    8   50      3.52      0.00
   -5    8   50     -3.39      0.00
   -2    8   50      7.76      0.00
    1    8   50      0.70      0.00
    4    8   50     -3.88      0.00
    7    8   50     -2.91      0.00
  -16    9   50     -3.82      0.00
  -13    9   50      2.23      0.00
  -10    9   50     -1.85      0.00
   -7    9   50      2.48      0.00
   -4    9   50     -2.13      0.00
   -1    9   50     -0.87      0.00
    2    9   50     -7.85      0.00
    5    9   50      0.76      0.00
  -15   10   50      2.29      0.00
  -12   10   50      1.14      0.00
   -9   10   50     -4.48      0.00
   -6   10   50      4.24      0.00
   -3   10   50      1.60      0.00
    0   10   50     -6.37      0.00
    3   10   50     -8.05      0.00
    6   10   50     -1.49      0.00
  -14   11   50      4.96      0.00
  -11   11   50     -2.88      0.00
   -8   11   50      4.63      0.00
   -5   11   50     -3.44      0.00
   -2   11   50     -2.59      0.00
    1   11   50    -16.74      0.00
    4   11   50      2.06      0.00
  -13   12   50      2.55      0.00
  -10   12   50      2.09      0.00
   -7   12   50      1.03      0.00
   -4   12   50     -1.55      0.00
   -1   12   50     -5.20      0.00
    2   12   50     -3.00      0.00
  -15   13   50     -2.02      0.00
  -12   13   50      0.19      0.00
   -9   13   50      2.85      0.00
   -6   13   50     -1.10      0.00
   -3   13   50     -6.33      0.00
    0   13   50     -1.87      0.00
  -14   14   50      0.76      0.00
  -11   14   50     -3.96      0.00
   -8   14   50     -1.95      0.00
   -5   14   50     -2.16      0.00
   -2   14   50      1.34      0.00
  -13   15   50     -0.59      0.00
  -10   15   50      1.82      0.00
   -7   15   50     -5.43      0.00
   -4   15   50      4.04      0.00
   -9   16   50     -2.98      0.00
   -6   16   50      4.63      0.00
    0    0   51      3.55      0.00
    1    1   51     -3.82      0.00
   -1    2   51     -1.18      0.00
    2    2   51     -0.40      0.00
   -3    3   51     -6.04      0.00
    0    3   51      1.81      0.00
    3    3   51      2.91      0.00
   -5    4   51    -12.34      0.00
   -2    4   51      4.21      0.00
    1    4   51     12.77      0.00
    4    4   51      4.25      0.00
   -7    5   51     -2.58      0.00
   -4    5   51     -2.99      0.00
   -1    5   51     -0.22      0.00
    2    5   51      4.33      0.00
    5    5   51     -2.61      0.00
   -9    6   51     -2.96      0.00
   -6    6   51     -1.73      0.00
   -3    6   51      1.60      0.00
    0    6   51      3.14      0.00
    3    6   51     -3.01      0.00
    6    6   51      7.03      0.00
  -11    7   51     -1.75      0.00
   -8    7   51     -1.61      0.00
   -5    7   51      1.33      0.00
   -2    7   51     -2.58      0.00
    1    7   51     -0.10      0.00
    4    7   51     -3.07      0.00
    7    7   51     -4.35      0.00
  -13    8   51      0.00      0.00
  -10    8   51      1.24      0.00
   -7    8   51      6.32      0.00
   -4    8   51      0.45      0.00
   -1    8   51      3.81      0.00
    2    8   51      0.57      0.00
    5    8   51     -2.82      0.00
    8    8   51     -0.75      0.00
  -15    9   51     -3.98      0.00
  -12    9   51      0.97      0.00
   -9    9   51     -4.47      0.00
   -6    9   51      8.76      0.00
   -3    9   51      5.43      0.00
    0    9   51     -1.16      0.00
    3    9   51     -6.25      0.00
    6    9   51     -1.15      0.00
  -14   10   51      6.76      0.00
  -11   10   51     -0.77      0.00
   -8   10   51      4.52      0.00
   -5   10   51     -0.66      0.00
   -2   10   51      2.34      0.00
    1   10   51     -3.06      0.00
    4   10   51      2.23      0.00
  -13   11   51      1.09      0.00
  -10   11   51      2.27      0.00
   -7   11   51      8.18      0.00
   -4   11   51     -0.48      0.00
   -1   11   51     -1.59      0.00
    2   11   51     -4.98      0.00
  -15   12   51      1.05      0.00
  -12   12   51      3.05      0.00
   -9   12   51      8.10      0.00
   -6   12   51     -5.56      0.00
   -3   12   51     -6.34      0.00
    0   12   51     -6.77      0.00
    3   12   51      4.92      0.00
  -14   13   51     -1.83      0.00
  -11   13   51      5.42      0.00
   -8   13   51      0.28      0.00
   -5   13   51     -6.09      0.00
   -2   13   51     -1.68      0.00
    1   13   51      0.46      0.00
  -13   14   51      0.95      0.00
  -10   14   51      0.44      0.00
   -7   14   51     -6.24      0.00
   -4   14   51     -3.21      0.00
   -1   14   51     -0.73      0.00
  -12   15   51      0.88      0.00
   -9   15   51      0.37      0.00
   -6   15   51     -2.17      0.00
   -3   15   51      1.08      0.00
   -8   16   51     -7.87      0.00
   -1    1   52      3.52      0.00
   -3    2   52     -6.14      0.00
    0    2   52     -1.51      0.00
   -5    3   52     -7.92      0.00
   -2    3   52      1.71      0.00
    1    3   52      3.02      0.00
   -7    4   52     -2.29      0.00
   -4    4   52     -2.64      0.00
   -1    4   52      1.41      0.00
    2    4   52     -1.21      0.00
   -9    5   52      0.14      0.00
   -6    5   52     -5.18      0.00
   -3    5   52      7.75      0.00
    0    5   52     -0.92      0.00
    3    5   52      0.72      0.00
  -11    6   52      3.91      0.00
   -8    6   52     -6.13      0.00
   -5    6   52     -0.71      0.00
   -2    6   52     -2.66      0.00
    1    6   52     -4.49      0.00
    4    6   52     -2.21      0.00
  -13    7   52      2.95      0.00
  -10    7   52     -2.56      0.00
   -7    7   52     -3.86      0.00
   -4    7   52      7.31      0.00
   -1    7   52     -6.03      0.00
    2    7   52     -0.87      0.00
    5    7   52      4.82      0.00
  -15    8   52     -3.15      0.00
  -12    8   52     -3.32      0.00
   -9    8   52    -10.65      0.00
   -6    8   52      6.59      0.00
   -3    8   52      0.28      0.00
    0    8   52     -2.86      0.00
    3    8   52     -2.40      0.00
    6    8   52     -2.37      0.00
  -14    9   52      0.15      0.00
  -11    9   52     -0.97      0.00
   -8    9   52     -2.11      0.00
   -5    9   52      7.43      0.00
   -2    9   52      9.85      0.00
    1    9   52      4.59      0.00
    4    9   52     -1.24      0.00
  -13   10   52     -1.13      0.00
  -10   10   52     -5.97      0.00
   -7   10   52      8.93      0.00
   -4   10   52     10.37      0.00
   -1   10   52      0.13      0.00
    2   10   52     -3.37      0.00
    5   10   52      0.95      0.00
  -15   11   52      6.29      0.00
  -12   11   52     -1.76      0.00
   -9   11   52      5.74      0.00
   -6   11   52      7.14      0.00
   -3   11   52      9.73      0.00
    0   11   52     -1.85      0.00
    3   11   52      1.76      0.00
  -14   12   52     -3.14      0.00
  -11   12   52      7.13      0.00
   -8   12   52      6.45      0.00
   -5   12   52     -0.21      0.00
   -2   12   52     -0.77      0.00
    1   12   52     -9.15      0.00
  -13   13   52      0.99      0.00
  -10   13   52      6.14      0.00
   -7   13   52      0.61      0.00
   -4   13   52     -3.34      0.00
   -1   13   52     -6.24      0.00
  -12   14   52      2.38      0.00
   -9   14   52      0.42      0.00
   -6   14   52     -1.85      0.00
   -3   14   52     -0.94      0.00
  -11   15   52      0.58      0.00
   -8   15   52     -3.45      0.00
   -5   15   52      3.15      0.00
    0    1   53     10.14      0.00
   -2    2   53     -1.00      0.00
    1    2   53      1.08      0.00
   -4    3   53      0.23      0.00
   -1    3   53      2.31      0.00
    2    3   53     -3.15      0.00
   -6    4   53     -2.37      0.00
   -3    4   53      3.90      0.00
    0    4   53     -1.57      0.00
    3    4   53      0.05      0.00
   -8    5   53      7.69      0.00
   -5    5   53      0.67      0.00
   -2    5   53     -0.56      0.00
    1    5   53     -4.83      0.00
    4    5   53      8.35      0.00
  -10    6   53      6.50      0.00
   -7    6   53      1.04      0.00
   -4    6   53      0.06      0.00
   -1    6   53     -9.98      0.00
    2    6   53      2.92      0.00
    5    6   53      7.28      0.00
  -12    7   53      5.09      0.00
   -9    7   53     -0.25      0.00
   -6    7   53     -4.92      0.00
   -3    7   53     -5.00      0.00
    0    7   53     -6.25      0.00
    3    7   53      0.46      0.00
    6    7   53      3.94      0.00
  -14    8   53     -2.16      0.00
  -11    8   53      4.09      0.00
   -8    8   53     -7.74      0.00
   -5    8   53      2.19      0.00
   -2    8   53     -5.94      0.00
    1    8   53      1.68      0.00
    4    8   53      0.67      0.00
    7    8   53     -0.29      0.00
  -13    9   53     -1.68      0.00
  -10    9   53     -3.15      0.00
   -7    9   53     -1.03      0.00
   -4    9   53     -1.27      0.00
   -1    9   53     -2.17      0.00
    2    9   53      0.81      0.00
    5    9   53     -0.27      0.00
  -15   10   53      1.11      0.00
  -12   10   53     -0.76      0.00
   -9   10   53     -1.67      0.00
   -6   10   53      2.17      0.00
   -3   10   53     15.97      0.00
    0   10   53     -1.02      0.00
    3   10   53     -1.36      0.00
  -14   11   53      1.12      0.00
  -11   11   53      0.40      0.00
   -8   11   53     -0.73      0.00
   -5   11   53      2.38      0.00
   -2   11   53      1.17      0.00
    1   11   53     -6.61      0.00
  -13   12   53     -0.76      0.00
  -10   12   53      4.94      0.00
   -7   12   53      3.92      0.00
   -4   12   53      1.50      0.00
   -1   12   53     -1.85      0.00
    2   12   53     -0.50      0.00
  -12   13   53      1.60      0.00
   -9   13   53     -3.22      0.00
   -6   13   53     -2.17      0.00
   -3   13   53     -1.42      0.00
    0   13   53     -9.22      0.00
  -11   14   53      0.63      0.00
   -8   14   53      1.22      0.00
   -5   14   53      2.66      0.00
   -2   14   53     -3.51      0.00
  -10   15   53     -2.44      0.00
   -7   15   53     -0.25      0.00
    0    0   54      9.20      0.00
    1    1   54     -1.46      0.00
   -1    2   54     -0.53      0.00
    2    2   54      6.53      0.00
   -3    3   54     -0.38      0.00
    0    3   54      3.47      0.00
    3    3   54     -3.02      0.00
   -5    4   54      6.36      0.00
   -2    4   54      4.34      0.00
    1    4   54     -2.02      0.00
    4    4   54      6.98      0.00
   -7    5   54      7.88      0.00
   -4    5   54      1.26      0.00
   -1    5   54     -1.33      0.00
    2    5   54     -1.23      0.00
    5    5   54     -0.61      0.00
   -9    6   54      4.91      0.00
   -6    6   54      0.53      0.00
   -3    6   54     -1.03      0.00
    0    6   54     -1.05      0.00
    3    6   54      2.62      0.00
    6    6   54     -0.83      0.00
  -11    7   54      2.13      0.00
   -8    7   54      1.79      0.00
   -5    7   54     -2.84      0.00
   -2    7   54     -7.44      0.00
    1    7   54      1.38      0.00
    4    7   54     -4.76      0.00
    7    7   54     -3.32      0.00
  -13    8   54     -2.31      0.00
  -10    8   54      4.15      0.00
   -7    8   54     -6.15      0.00
   -4    8   54     -1.74      0.00
   -1    8   54     -2.45      0.00
    2    8   54     -0.83      0.00
    5    8   54     -2.10      0.00
  -12    9   54      2.53      0.00
   -9    9   54     -1.35      0.00
   -6    9   54      0.02      0.00
   -3    9   54      2.26      0.00
    0    9   54     -3.74      0.00
    3    9   54     -3.34      0.00
  -14   10   54     -0.42      0.00
  -11   10   54      0.45      0.00
   -8   10   54      0.14      0.00
   -5   10   54     -3.96      0.00
   -2   10   54      4.12      0.00
    1   10   54      0.68      0.00
    4   10   54     -2.04      0.00
  -13   11   54     -1.33      0.00
  -10   11   54      5.20      0.00
   -7   11   54      0.38      0.00
   -4   11   54      3.12      0.00
   -1   11   54     -3.62      0.00
    2   11   54     -0.29      0.00
  -12   12   54      0.25      0.00
   -9   12   54     -4.45      0.00
   -6   12   54     -3.11      0.00
   -3   12   54     -5.86      0.00
    0   12   54     -1.13      0.00
  -11   13   54      0.43      0.00
   -8   13   54      0.16      0.00
   -5   13   54     -9.00      0.00
   -2   13   54     -0.29      0.00
  -10   14   54     -1.96      0.00
   -7   14   54     -1.84      0.00
   -4   14   54     -1.00      0.00
   -1    1   55     -8.05      0.00
   -3    2   55     -1.81      0.00
    0    2   55     -6.07      0.00
   -5    3   55      8.01      0.00
   -2    3   55     -2.92      0.00
    1    3   55     -0.14      0.00
   -7    4   55      4.25      0.00
   -4    4   55      5.62      0.00
   -1    4   55      5.42      0.00
    2    4   55     -8.61      0.00
   -9    5   55      0.05      0.00
   -6    5   55      6.60      0.00
   -3    5   55      5.22      0.00
    0    5   55     -4.10      0.00
    3    5   55      0.17      0.00
  -11    6   55     -6.63      0.00
   -8    6   55      7.71      0.00
   -5    6   55      3.17      0.00
   -2    6   55     -2.38      0.00
    1    6   55     -2.67      0.00
    4    6   55     -3.13      0.00
  -13    7   55     -4.06      0.00
  -10    7   55     -2.48      0.00
   -7    7   55     -1.24      0.00
   -4    7   55      3.73      0.00
   -1    7   55      1.56      0.00
    2    7   55     -1.45      0.00
    5    7   55     -4.67      0.00
  -12    8   55      1.54      0.00
   -9    8   55     -0.52      0.00
   -6    8   55     -0.09      0.00
   -3    8   55      2.08      0.00
    0    8   55     -0.15      0.00
    3    8   55     -3.88      0.00
    6    8   55      1.19      0.00
  -14    9   55     -4.04      0.00
  -11    9   55     -1.09      0.00
   -8    9   55     -3.55      0.00
   -5    9   55      4.92      0.00
   -2    9   55      7.20      0.00
    1    9   55      2.23      0.00
    4    9   55     -5.31      0.00
  -13   10   55     -0.60      0.00
  -10   10   55     -1.07      0.00
   -7   10   55      5.54      0.00
   -4   10   55      5.96      0.00
   -1   10   55     -3.95      0.00
    2   10   55      0.28      0.00
  -12   11   55     -3.71      0.00
   -9   11   55      1.16      0.00
   -6   11   55      4.64      0.00
   -3   11   55      4.37      0.00
    0   11   55      0.57      0.00
  -11   12   55      1.51      0.00
   -8   12   55      0.28      0.00
   -5   12   55     -3.14      0.00
   -2   12   55     -4.58      0.00
  -10   13   55     -3.15      0.00
   -7   13   55      3.87      0.00
   -4   13   55     -8.44      0.00
   -9   14   55      2.61      0.00
   -6   14   55     -5.16      0.00
    0    1   56     -5.09      0.00
   -2    2   56     -4.07      0.00
    1    2   56     -4.94      0.00
   -4    3   56     10.12      0.00
   -1    3   56      2.74      0.00
    2    3   56      0.02      0.00
   -6    4   56      8.93      0.00
   -3    4   56      1.82      0.00
    0    4   56     -4.32      0.00
    3    4   56      1.40      0.00
   -8    5   56     13.45      0.00
   -5    5   56      6.54      0.00
   -2    5   56      3.02      0.00
    1    5   56     -9.39      0.00
    4    5   56      7.27      0.00
  -10    6   56     -4.32      0.00
   -7    6   56      6.27      0.00
   -4    6   56      4.80      0.00
   -1    6   56     -8.13      0.00
    2    6   56     -4.63      0.00
    5    6   56      1.05      0.00
  -12    7   56      1.99      0.00
   -9    7   56      4.08      0.00
   -6    7   56      3.77      0.00
   -3    7   56     -5.08      0.00
    0    7   56      0.50      0.00
    3    7   56      3.93      0.00
    6    7   56      3.48      0.00
  -11    8   56     -0.92      0.00
   -8    8   56     -2.92      0.00
   -5    8   56      1.59      0.00
   -2    8   56      1.21      0.00
    1    8   56      0.62      0.00
    4    8   56     -2.75      0.00
  -13    9   56      1.74      0.00
  -10    9   56     -5.08      0.00
   -7    9   56      0.13      0.00
   -4    9   56      3.29      0.00
   -1    9   56     -1.49      0.00
    2    9   56      6.75      0.00
  -12   10   56     -4.31      0.00
   -9   10   56     -4.51      0.00
   -6   10   56      6.54      0.00
   -3   10   56      4.91      0.00
    0   10   56     -1.11      0.00
    3   10   56     -4.27      0.00
  -11   11   56     -0.79      0.00
   -8   11   56      1.57      0.00
   -5   11   56      3.27      0.00
   -2   11   56     -2.53      0.00
    1   11   56      0.62      0.00
  -10   12   56     -1.40      0.00
   -7   12   56      5.40      0.00
   -4   12   56     -0.02      0.00
   -1   12   56     -0.91      0.00
   -9   13   56     -0.85      0.00
   -6   13   56      1.14      0.00
   -3   13   56     -2.46      0.00
    0    0   57      1.72      0.00
    1    1   57     -1.61      0.00
   -1    2   57      3.84      0.00
    2    2   57      2.51      0.00
   -3    3   57      0.39      0.00
    0    3   57     -0.65      0.00
    3    3   57      4.07      0.00
   -5    4   57      5.34      0.00
   -2    4   57      4.33      0.00
    1    4   57     -2.04      0.00
    4    4   57     10.03      0.00
   -7    5   57      5.17      0.00
   -4    5   57     -0.35      0.00
   -1    5   57     -1.37      0.00
    2    5   57     -2.80      0.00
    5    5   57     -2.49      0.00
   -9    6   57      4.51      0.00
   -6    6   57      2.56      0.00
   -3    6   57      0.93      0.00
    0    6   57      2.04      0.00
    3    6   57      0.77      0.00
    6    6   57      4.05      0.00
  -11    7   57     -1.48      0.00
   -8    7   57      3.06      0.00
   -5    7   57      4.38      0.00
   -2    7   57     -4.18      0.00
    1    7   57     -3.77      0.00
    4    7   57     -2.27      0.00
  -13    8   57      1.37      0.00
  -10    8   57     -1.60      0.00
   -7    8   57      4.48      0.00
   -4    8   57     -0.55      0.00
   -1    8   57      5.90      0.00
    2    8   57      5.85      0.00
    5    8   57     -1.46      0.00
  -12    9   57     -0.72      0.00
   -9    9   57     -5.02      0.00
   -6    9   57      1.97      0.00
   -3    9   57     -0.37      0.00
    0    9   57     -3.27      0.00
    3    9   57     -3.49      0.00
  -11   10   57     -3.23      0.00
   -8   10   57      0.75      0.00
   -5   10   57      3.99      0.00
   -2   10   57     -4.24      0.00
    1   10   57      4.92      0.00
  -10   11   57      0.01      0.00
   -7   11   57      2.62      0.00
   -4   11   57     -4.39      0.00
   -1   11   57     -5.94      0.00
   -9   12   57      0.03      0.00
   -6   12   57     -1.21      0.00
   -3   12   57     -1.60      0.00
   -8   13   57      2.05      0.00
   -5   13   57     -3.11      0.00
   -1    1   58     -4.60      0.00
   -3    2   58     -5.95      0.00
    0    2   58     -3.87      0.00
   -5    3   58      0.06      0.00
   -2    3   58     -4.20      0.00
    1    3   58     -5.96      0.00
   -7    4   58     -2.15      0.00
   -4    4   58     -4.21      0.00
   -1    4   58     -0.72      0.00
    2    4   58      2.36      0.00
   -9    5   58     -2.28      0.00
   -6    5   58     -4.50      0.00
   -3    5   58      0.85      0.00
    0    5   58      2.60      0.00
    3    5   58     -0.05      0.00
  -11    6   58     -2.28      0.00
   -8    6   58      0.86      0.00
   -5    6   58      1.52      0.00
   -2    6   58      3.78      0.00
    1    6   58      3.17      0.00
    4    6   58     -6.34      0.00
  -10    7   58     -0.63      0.00
   -7    7   58      4.53      0.00
   -4    7   58      8.45      0.00
   -1    7   58     15.41      0.00
    2    7   58     -2.59      0.00
    5    7   58     -3.51      0.00
  -12    8   58      3.35      0.00
   -9    8   58     -3.17      0.00
   -6    8   58      8.59      0.00
   -3    8   58      6.71      0.00
    0    8   58      4.31      0.00
    3    8   58     -2.58      0.00
  -11    9   58     -4.14      0.00
   -8    9   58      4.32      0.00
   -5    9   58     11.52      0.00
   -2    9   58      7.04      0.00
    1    9   58      5.33      0.00
  -10   10   58     -3.72      0.00
   -7   10   58      4.05      0.00
   -4   10   58      3.01      0.00
   -1   10   58     -6.09      0.00
    2   10   58      0.13      0.00
   -9   11   58      2.15      0.00
   -6   11   58      4.88      0.00
   -3   11   58     -2.45      0.00
    0   11   58     -2.29      0.00
   -8   12   58      0.96      0.00
   -5   12   58     -7.26      0.00
   -2   12   58     -4.02      0.00
    0    1   59     -5.80      0.00
   -2    2   59     -6.43      0.00
    1    2   59     -6.63      0.00
   -4    3   59     -0.89      0.00
   -1    3   59     -6.22      0.00
    2    3   59     -0.37      0.00
   -6    4   59     -3.89      0.00
   -3    4   59     -2.54      0.00
    0    4   59    -11.31      0.00
    3    4   59      0.16      0.00
   -8    5   59     -4.09      0.00
   -5    5   59      0.15      0.00
   -2    5   59     -0.81      0.00
    1    5   59      1.70      0.00
    4    5   59     -0.59      0.00
  -10    6   59     -0.80      0.00
   -7    6   59      2.23      0.00
   -4    6   59      3.17      0.00
   -1    6   59      3.39      0.00
    2    6   59      1.27      0.00
    5    6   59      1.02      0.00
  -12    7   59      7.10      0.00
   -9    7   59      1.29      0.00
   -6    7   59      4.35      0.00
   -3    7   59      5.25      0.00
    0    7   59     10.38      0.00
    3    7   59      3.95      0.00
  -11    8   59      0.84      0.00
   -8    8   59      3.43      0.00
   -5    8   59     11.01      0.00
   -2    8   59      9.75      0.00
    1    8   59      3.75      0.00
    4    8   59      0.53      0.00
  -10    9   59     -7.61      0.00
   -7    9   59      5.84      0.00
   -4    9   59      8.44      0.00
   -1    9   59      3.37      0.00
    2    9   59      7.40      0.00
   -9   10   59      2.81      0.00
   -6   10   59      8.14      0.00
   -3   10   59      2.58      0.00
    0   10   59     -0.89      0.00
   -8   11   59      1.18      0.00
   -5   11   59      1.02      0.00
   -2   11   59     -2.50      0.00
   -7   12   59      2.04      0.00
   -4   12   59     -0.96      0.00
    0    0   60      5.17      0.00
    1    1   60      6.43      0.00
   -1    2   60      0.67      0.00
    2    2   60      4.04      0.00
   -3    3   60      2.91      0.00
    0    3   60     -4.12      0.00
    3    3   60      1.27      0.00
   -5    4   60      1.15      0.00
   -2    4   60      1.29      0.00
    1    4   60     -6.14      0.00
    4    4   60     -7.11      0.00
   -7    5   60     -2.81      0.00
   -4    5   60      2.13      0.00
   -1    5   60     -6.46      0.00
    2    5   60      1.65      0.00
    5    5   60     -0.83      0.00
   -9    6   60     -2.07      0.00
   -6    6   60      0.60      0.00
   -3    6   60     -2.50      0.00
    0    6   60      1.32      0.00
    3    6   60      4.32      0.00
  -11    7   60     -0.13      0.00
   -8    7   60      5.76      0.00
   -5    7   60     -1.77      0.00
   -2    7   60      0.91      0.00
    1    7   60      1.71      0.00
    4    7   60      7.89      0.00
  -10    8   60     -4.13      0.00
   -7    8   60      0.02      0.00
   -4    8   60      2.77      0.00
   -1    8   60      4.29      0.00
    2    8   60      6.39      0.00
   -9    9   60      1.02      0.00
   -6    9   60      4.25      0.00
   -3    9   60     -2.10      0.00
    0    9   60      0.04      0.00
   -8   10   60      5.25      0.00
   -5   10   60      0.50      0.00
   -2   10   60     -1.43      0.00
   -7   11   60      1.63      0.00
   -4   11   60     -2.07      0.00
   -1    1   61      4.95      0.00
   -3    2   61      5.73      0.00
    0    2   61      2.56      0.00
   -5    3   61     -0.46      0.00
   -2    3   61     -0.51      0.00
    1    3   61     -3.30      0.00
   -7    4   61     -7.25      0.00
   -4    4   61     -0.37      0.00
   -1    4   61      2.34      0.00
    2    4   61      0.04      0.00
   -9    5   61     -7.92      0.00
   -6    5   61     -3.56      0.00
   -3    5   61     -0.74      0.00
    0    5   61     -4.56      0.00
    3    5   61     -5.87      0.00
  -11    6   61     -5.35      0.00
   -8    6   61      3.89      0.00
   -5    6   61     -4.31      0.00
   -2    6   61      1.93      0.00
    1    6   61      1.97      0.00
    4    6   61      3.43      0.00
  -10    7   61     -3.72      0.00
   -7    7   61     -2.41      0.00
   -4    7   61     -4.69      0.00
   -1    7   61      5.07      0.00
    2    7   61     -2.26      0.00
   -9    8   61      1.60      0.00
   -6    8   61     -4.67      0.00
   -3    8   61      3.94      0.00
    0    8   61      2.40      0.00
   -8    9   61      1.03      0.00
   -5    9   61      2.16      0.00
   -2    9   61      0.39      0.00
    1    9   61      0.18      0.00
   -7   10   61      4.20      0.00
   -4   10   61     -2.75      0.00
   -1   10   61     -2.57      0.00
   -6   11   61     -0.21      0.00
    0    1   62     -3.98      0.00
   -2    2   62     -2.58      0.00
    1    2   62     -2.87      0.00
   -4    3   62     -1.67      0.00
   -1    3   62     -2.27      0.00
    2    3   62     -4.22      0.00
   -6    4   62     -2.04      0.00
   -3    4   62     -2.56      0.00
    0    4   62     -3.06      0.00
    3    4   62     -3.45      0.00
   -8    5   62      2.50      0.00
   -5    5   62      0.76      0.00
   -2    5   62      4.18      0.00
    1    5   62      1.03      0.00
    4    5   62     -0.50      0.00
  -10    6   62     -1.96      0.00
   -7    6   62      2.40      0.00
   -4    6   62     -5.74      0.00
   -1    6   62      1.26      0.00
    2    6   62     -3.16      0.00
   -9    7   62      5.48      0.00
   -6    7   62     -4.99      0.00
   -3    7   62      3.63      0.00
    0    7   62      3.35      0.00
    3    7   62      3.23      0.00
   -8    8   62     -2.13      0.00
   -5    8   62     -4.49      0.00
   -2    8   62      2.16      0.00
    1    8   62     -1.58      0.00
   -7    9   62     -0.92      0.00
   -4    9   62      2.03      0.00
   -1    9   62      4.10      0.00
   -6   10   62      0.25      0.00
    0    0   63     -0.04      0.00
    1    1   63     -0.37      0.00
   -1    2   63     -1.79      0.00
    2    2   63     -3.19      0.00
   -3    3   63      1.26      0.00
    0    3   63     -0.20      0.00
    3    3   63     -2.96      0.00
   -5    4   63      4.53      0.00
   -2    4   63      2.30      0.00
    1    4   63     -1.07      0.00
    4    4   63      0.81      0.00
   -7    5   63      4.80      0.00
   -4    5   63      1.51      0.00
   -1    5   63      1.42      0.00
    2    5   63      1.65      0.00
   -9    6   63      5.04      0.00
   -6    6   63      3.70      0.00
   -3    6   63      0.05      0.00
    0    6   63     -0.97      0.00
    3    6   63      2.38      0.00
   -8    7   63      0.89      0.00
   -5    7   63     -4.83      0.00
   -2    7   63     -2.08      0.00
    1    7   63     -3.92      0.00
   -7    8   63     -0.16      0.00
   -4    8   63     -1.82      0.00
   -1    8   63     -3.71      0.00
   -6    9   63     -3.26      0.00
   -3    9   63     -6.75      0.00
   -1    1   64      5.62      0.00
   -3    2   64     -0.47      0.00
    0    2   64      0.73      0.00
   -5    3   64     -4.54      0.00
   -2    3   64      1.63      0.00
    1    3   64     -0.23      0.00
   -7    4   64     -4.35      0.00
   -4    4   64      2.18      0.00
   -1    4   64      0.99      0.00
    2    4   64     -1.27      0.00
   -6    5   64      3.65      0.00
   -3    5   64     -0.96      0.00
    0    5   64      0.47      0.00
    3    5   64      0.56      0.00
   -8    6   64     -0.55      0.00
   -5    6   64     -1.26      0.00
   -2    6   64      1.37      0.00
    1    6   64     -0.18      0.00
   -7    7   64      0.24      0.00
   -4    7   64     -1.34      0.00
   -1    7   64     -4.68      0.00
   -6    8   64      0.39      0.00
   -3    8   64     -3.05      0.00
    0    1   65      0.86      0.00
   -2    2   65     -1.23      0.00
    1    2   65     -3.49      0.00
   -4    3   65     -5.52      0.00
   -1    3   65     -6.40      0.00
    2    3   65     -3.53      0.00
   -6    4   65     -2.71      0.00
   -3    4   65     -1.62      0.00
    0    4   65     -1.62      0.00
    3    4   65     -2.23      0.00
   -5    5   65     -2.31      0.00
   -2    5   65     -3.54      0.00
    1    5   65      0.23      0.00
   -7    6   65     -0.95      0.00
   -4    6   65     -4.06      0.00
   -1    6   65      1.22      0.00
   -6    7   65     -2.45      0.00
   -3    7   65      2.84      0.00
    0    0   66     -1.70      0.00
    1    1   66     -3.73      0.00
   -1    2   66     -6.72      0.00
    2    2   66     -1.13      0.00
   -3    3   66      0.03      0.00
    0    3   66     -5.55      0.00
    3    3   66      2.69      0.00
   -5    4   66     -1.37      0.00
   -2    4   66     -4.30      0.00
    1    4   66      0.04      0.00
   -4    5   66     -0.61      0.00
   -1    5   66     -0.37      0.00
   -3    6   66     -1.07      0.00
   -1    1   67     -2.78      0.00
   -3    2   67      0.77      0.00
    0    2   67     -5.50      0.00
   -5    3   67      2.77      0.00
   -2    3   67     -0.89      0.00
    1    3   67     -0.41      0.00
   -4    4   67      1.17      0.00
   -1    4   67     -1.71      0.00
   -3    5   67      0.36      0.00
    0    1   68      0.80      0.00
   -2    2   68     -0.32      0.00
    1    2   68     -2.64      0.00
   -1    3   68     -1.93      0.00
    0   21    0      7.91      0.00
  -15   24    0      5.61      0.00
   -9   24    0      0.60      0.00
   -1    1    1    741.92      0.00
  -24   14    1      2.34      0.00
  -23   18    1     -2.41      0.00
  -19   22    1      5.31      0.00
  -18   23    1      1.55      0.00
  -14   24    1      2.53      0.00
    0    1    2    306.78      0.00
   10   14    2     -5.05      0.00
    5   18    2     -9.02      0.00
   -5   23    2      6.02      0.00
  -10   24    2     -5.55      0.00
    0    0    3    465.22      0.00
  -24   15    3      5.62      0.00
    9   15    3      3.30      0.00
  -21   21    3      5.34      0.00
    0   21    3     -1.88      0.00
  -15   24    3      1.58      0.00
  -12   24    3     -3.90      0.00
   -9   24    3     -0.76      0.00
  -24   14    4      2.16      0.00
  -23   18    4     -0.82      0.00
  -19   22    4      0.46      0.00
  -18   23    4     -4.34      0.00
  -14   24    4      4.88      0.00
  -11   24    4     -8.56      0.00
  -24   13    5      0.37      0.00
   10   14    5     -6.56      0.00
    5   18    5     -5.73      0.00
   -5   23    5     -3.02      0.00
  -13   24    5     -2.63      0.00
  -10   24    5     -7.25      0.00
   12   12    6     -3.85      0.00
  -12   24    6     -4.07      0.00
   11   13    7     -2.81      0.00
  -24   14    7     -0.20      0.00
  -19   22    7      3.57      0.00
  -14   24    7     -0.42      0.00
  -11   24    7      2.70      0.00
  -24   13    8     -0.19      0.00
   10   14    8      1.64      0.00
  -23   17    8     -2.75      0.00
  -13   24    8     -3.73      0.00
  -10   24    8      1.77      0.00
   12   12    9     -0.70      0.00
  -12   24    9     -3.67      0.00
    6   17   10      0.90      0.00
  -22   19   10      0.63      0.00
  -19   22   10      5.72      0.00
   -6   23   10      3.78      0.00
  -23   17   11     -2.40      0.00
    3   19   11      3.07      0.00
   -3   22   11      1.38      0.00
  -17   23   11     -5.09      0.00
  -23   16   12     -1.09      0.00
  -23   15   13      3.16      0.00
  -21   20   13     -0.10      0.00
  -20   21   13      5.64      0.00
  -22   18   14     12.35      0.00
    1   20   14     -2.14      0.00
   -1   21   14     -7.82      0.00
  -23   16   15     -5.59      0.00
    7   16   15      2.38      0.00
  -16   23   15     -3.16      0.00
   -7   23   15     -2.56      0.00
  -23   15   16      6.93      0.00
    4   18   16     -2.01      0.00
   -4   22   16      0.61      0.00
  -15   23   16      2.48      0.00
    8   15   17     -4.01      0.00
  -22   18   17     -1.94      0.00
  -18   22   17     -0.12      0.00
  -14   23   17     -3.87      0.00
   -8   23   17     -0.04      0.00
  -22   17   18      2.60      0.00
    9   14   19      1.37      0.00
    2   19   19     -4.28      0.00
   -2   21   19     -2.50      0.00
   -9   23   19      0.02      0.00
  -23   14   20     -5.16      0.00
  -21   19   20      0.44      0.00
  -20   20   20      4.51      0.00
  -19   21   20      8.94      0.00
  -14   23   20     -6.08      0.00
  -11   23   20      0.43      0.00
  -23   13   21     -8.97      0.00
   10   13   21      1.17      0.00
  -22   17   21     12.12      0.00
    5   17   21     -4.06      0.00
  -21   18   21      5.25      0.00
  -17   22   21     -0.30      0.00
   -5   22   21      8.14      0.00
  -13   23   21     -7.58      0.00
  -10   23   21     -2.61      0.00
  -23   12   22     -6.74      0.00
  -22   16   22     10.84      0.00
  -16   22   22     -1.67      0.00
  -12   23   22     -2.17      0.00
    6   16   23      1.68      0.00
   -6   22   23     -2.30      0.00
  -21   18   24      2.10      0.00
    3   18   24      2.15      0.00
  -20   19   24      1.65      0.00
  -19   20   24      1.11      0.00
   -1   20   24     -2.76      0.00
  -18   21   24      0.31      0.00
   -3   21   24     -1.87      0.00
    7   15   25      2.50      0.00
  -21   17   25      1.77      0.00
   -7   22   25      5.22      0.00
  -22   15   26     -2.15      0.00
    4   17   26     -0.25      0.00
   -4   21   26      4.75      0.00
  -15   22   26     -3.35      0.00
  -22   14   27      1.03      0.00
    8   14   27      4.59      0.00
  -14   22   27     -0.35      0.00
   -8   22   27      2.08      0.00
   10   12   28     -2.60      0.00
  -22   13   28     -2.49      0.00
  -20   18   28     10.57      0.00
  -19   19   28      2.34      0.00
  -18   20   28      2.80      0.00
   -5   21   28     -3.34      0.00
  -13   22   28      0.21      0.00
  -10   22   28      0.66      0.00
  -22   12   29     -4.82      0.00
  -21   16   29     -1.46      0.00
    2   18   29      3.67      0.00
    0   19   29     -0.68      0.00
   -2   20   29      1.80      0.00
  -16   21   29     -7.41      0.00
  -12   22   29     -0.09      0.00
  -21   15   30     -3.32      0.00
    6   15   30      1.81      0.00
   -6   21   30     -0.31      0.00
    3   17   31      1.46      0.00
   -3   20   31     -3.64      0.00
    7   14   32      5.64      0.00
  -19   18   32     -8.06      0.00
  -18   19   32      1.24      0.00
   -7   21   32     -8.50      0.00
  -20   16   33     -1.01      0.00
    4   16   33      0.11      0.00
  -16   20   33     -1.22      0.00
   -4   20   33      0.95      0.00
  -12   21   33      0.32      0.00
  -21   11   34     -9.26      0.00
  -11   21   34     -2.42      0.00
    5   15   35      0.68      0.00
   -5   20   35     -5.01      0.00
    6   14   37      4.80      0.00
  -19   16   37      4.69      0.00
  -16   19   37     -4.29      0.00
   -6   20   37     -2.20      0.00
    8   12   38      5.41      0.00
  -19   15   38      1.01      0.00
    1   17   38     -0.34      0.00
   -1   18   38     -0.11      0.00
  -15   19   38     -7.72      0.00
  -11   20   38      5.66      0.00
   -8   20   38     -2.38      0.00
   10   10   39      3.22      0.00
  -10   20   39     -0.19      0.00
    2   16   40      4.66      0.00
    0   17   40      2.30      0.00
   -2   18   40      3.86      0.00
    6   13   41      1.69      0.00
   -6   19   41      1.45      0.00
    8   11   42     -5.44      0.00
  -18   15   42     -0.25      0.00
    3   15   42      1.80      0.00
  -17   16   42      4.95      0.00
    1   16   42      1.53      0.00
  -16   17   42      0.61      0.00
   -1   17   42      3.90      0.00
  -15   18   42     -0.72      0.00
   -3   18   42      2.54      0.00
  -11   19   42     -0.49      0.00
   -8   19   42     -1.41      0.00
  -19   10   43      3.33      0.00
  -18   14   43      1.93      0.00
  -14   18   43     -2.26      0.00
  -10   19   43     -2.05      0.00
  -18   13   44      8.14      0.00
    2   15   44      1.96      0.00
   -2   17   44     -5.20      0.00
  -13   18   44     -4.17      0.00
  -18   12   45      7.64      0.00
    6   12   45     -0.02      0.00
  -12   18   45     -3.87      0.00
   -9   18   45      4.76      0.00
   -6   18   45     -3.22      0.00
    8   10   46     -2.11      0.00
  -18   11   46      5.23      0.00
    3   14   46      0.88      0.00
   -1   16   46     -1.76      0.00
   -3   17   46      4.34      0.00
  -11   18   46     -3.92      0.00
   -8   18   46      3.88      0.00
    5   12   47     -0.94      0.00
  -11   17   47      0.59      0.00
    7   10   48     -1.06      0.00
  -16   14   48     -6.27      0.00
    2   14   48     -6.16      0.00
  -15   15   48     -1.36      0.00
    0   15   48     -2.09      0.00
  -14   16   48     -4.59      0.00
   -2   16   48      1.44      0.00
  -10   17   48      2.40      0.00
  -17    9   49      0.03      0.00
  -16   13   49     -5.78      0.00
  -13   16   49     -1.09      0.00
   -9   17   49     -0.20      0.00
  -16   12   50      0.08      0.00
    1   14   50      1.89      0.00
   -1   15   50      2.39      0.00
  -12   16   50      1.88      0.00
  -16   11   51      1.69      0.00
    5   11   51      0.50      0.00
  -11   16   51      3.25      0.00
   -5   16   51      6.01      0.00
    7    9   52      2.14      0.00
   -7   16   52     -4.41      0.00
    4   11   53      1.33      0.00
   -4   15   53      3.75      0.00
  -15    9   54     -5.12      0.00
    6    9   54     -0.43      0.00
   -9   15   54     -0.23      0.00
   -6   15   54      1.31      0.00
    3   11   55     -1.93      0.00
    1   12   55      0.66      0.00
   -1   13   55     -0.26      0.00
   -3   14   55     -2.16      0.00
  -14    8   56     -4.78      0.00
    5    9   56      1.97      0.00
   -8   14   56      6.65      0.00
   -5   14   56     -1.47      0.00
  -12   12   57      3.80      0.00
    0   12   57      0.46      0.00
  -13    7   58      4.79      0.00
    4    9   58     -6.64      0.00
  -12   11   58      1.77      0.00
  -11   12   58      1.59      0.00
   -7   13   58     -0.53      0.00
   -4   13   58     -2.39      0.00
  -11   11   59      0.23      0.00
    6    6   60      1.84      0.00
  -11   10   60     -2.06      0.00
    1   10   60      3.28      0.00
  -10   11   60      4.05      0.00
   -1   11   60     -5.69      0.00
   -6   12   60     -0.25      0.00
    3    8   61      2.85      0.00
  -10   10   61      1.32      0.00
   -3   11   61     -0.58      0.00
   -3   10   62     -0.74      0.00
    5    5   63      2.24      0.00
   -5   10   63     -2.81      0.00
   -9    5   64     -0.48      0.00
    2    7   64     -2.71      0.00
    0    8   64     -4.88      0.00
   -5    9   64     -2.19      0.00
   -2    9   64     -5.22      0.00
   -8    5   65     -3.65      0.00
    2    6   65      2.27      0.00
    0    7   65     -2.45      0.00
   -5    8   65      0.86      0.00
   -2    8   65     -0.35      0.00
   -7    5   66      0.37      0.00
    2    5   66      3.19      0.00
   -6    6   66     -3.07      0.00
    0    6   66     -2.12      0.00
   -5    7   66      0.28      0.00
   -2    7   66      3.51      0.00
    2    4   67      4.00      0.00
   -6    5   67     -2.46      0.00
    0    5   67     -0.71      0.00
   -5    6   67      0.93      0.00
   -2    6   67      3.67      0.00
   -4    3   68      0.59      0.00
   -3    4   68     -0.61      0.00
    0    4   68     -3.27      0.00
    0    0   69      6.88      0.00
    1    1   69     -0.36      0.00
   -1    2   69      1.68      0.00
    0    0    0      0.00      0.00
# SQUEEZE RESULTS (Version = 100419)
# Note: Data are Listed for all Voids in the P1 Unit Cell
# i.e. Centre of Gravity, Solvent Accessible Volume,
# Recovered number of Electrons in the Void and
# Details about the Squeezed Material
loop_
  _platon_squeeze_void_nr
  _platon_squeeze_void_average_x
  _platon_squeeze_void_average_y
  _platon_squeeze_void_average_z
  _platon_squeeze_void_volume
  _platon_squeeze_void_count_electrons
  _platon_squeeze_void_content
   1  0.000  0.000  0.000      1482       483 ' '
   2  0.000  0.000  0.288       105        41 ' '
   3  0.000  0.500  0.500        12         6 ' '
   4  0.000  1.000  0.712       106        41 ' '
   5  0.333  0.667  0.667      1481       482 ' '
   6  0.167  0.333  0.833        12         7 ' '
   7  0.167  0.833  0.833        12         6 ' '
   8  0.333  0.667  0.378       106        41 ' '
   9  0.333  0.667  0.955       105        41 ' '
  10  0.333  0.167  0.167        13         7 ' '
  11  0.667  0.333  0.333      1482       483 ' '
  12  0.500  0.000  0.500        12         6 ' '
  13  0.500  0.500  0.500        12         6 ' '
  14  0.667  0.333  0.045       105        41 ' '
  15  0.667  0.333  0.622       107        41 ' '
  16  0.667  0.833  0.833        12         6 ' '
  17  0.833  0.667  0.167        12         6 ' '
  18  0.833  0.167  0.167        12         7 ' '
# Missing Reflections Below sin(th)/lambda = 0.25
loop_
  _platon_missing_refln_index_h
  _platon_missing_refln_index_k
  _platon_missing_refln_index_l
  _platon_missing_refln_theta
   -1    1    1     2.654
    0    1    2     2.969
    0    0    3     2.305
_platon_squeeze_void_probe_radius                  1.20
_platon_squeeze_details
)
TITL 1                R -3         R = 0.12
CELL   20.0889   20.0889   57.4977     90.00     90.00    120.00
SPGR R-3
# Solvent Accessible Volume =      5188
# Electrons Found in S.A.V. =      1744
# Note: Atoms in Void are Labelled as Cxxx and Qxxx for all Others
C101 0.548 0.278 0.597 !       3.06 eA-3
Q102 0.375 0.487 0.118 !       3.02 eA-3
C103 0.751 0.939 0.083 !       2.99 eA-3
Q104 0.767 0.051 0.167 !       2.64 eA-3
C105 0.845 0.706 0.977 !       2.55 eA-3
Q106 0.500 0.074 0.100 !       2.39 eA-3
Q107 1.000 0.995 0.137 !       2.35 eA-3
C108 0.267 0.670 0.356 !       2.23 eA-3
Q109 0.347 0.846 0.221 !       1.97 eA-3
C110 0.746 0.769 0.036 !       1.85 eA-3
Q111 0.919 0.534 0.250 !       1.77 eA-3
C112 0.414 0.142 0.412 !       1.72 eA-3
C113 0.127 0.090 0.115 !       1.65 eA-3
C114 0.965 0.872 0.118 !       1.65 eA-3
C115 0.250 0.720 0.780 !       1.59 eA-3
C116 0.250 0.746 0.695 !       1.46 eA-3
C117 0.077 0.251 0.036 !       1.44 eA-3
Q118 0.934 0.313 0.934 !       1.40 eA-3
Q119 0.845 0.222 0.153 !       1.37 eA-3
C120 0.952 0.019 0.301 !       1.31 eA-3
C121 0.451 0.152 0.429 !       1.31 eA-3
Q122 0.342 0.140 0.161 !       1.30 eA-3
C123 0.468 0.252 0.321 !       1.27 eA-3
C124 0.779 0.329 0.265 !       1.21 eA-3
Q125 1.000 1.000 0.500 !       1.21 eA-3
Q126 0.075 0.496 0.489 !       1.18 eA-3
Q127 0.203 0.718 0.169 !       1.09 eA-3
C128 1.000 0.999 0.297 !       1.08 eA-3
Q129 0.628 0.031 0.106 !       1.08 eA-3
Q130 0.935 0.200 0.610 !       1.06 eA-3
Q131 0.688 0.252 0.212 !       1.05 eA-3
Q132 0.641 0.497 0.101 !       1.05 eA-3
C133 0.702 0.410 0.204 !       1.03 eA-3
C134 0.687 0.453 0.289 !       1.01 eA-3
Q135 0.012 0.966 0.218 !       0.99 eA-3
C136 0.214 0.703 0.710 !       0.97 eA-3
Q137 0.638 0.734 0.415 !       0.94 eA-3
Q138 0.999 0.998 0.203 !       0.92 eA-3
Q139 0.734 1.001 0.309 !       0.91 eA-3
Q140 0.813 0.080 0.147 !       0.85 eA-3
Q141 0.583 0.082 0.236 !       0.84 eA-3
Q142 0.280 0.605 0.480 !       0.82 eA-3
Q143 0.818 0.922 0.180 !       0.81 eA-3
Q144 0.626 0.734 0.980 !       0.81 eA-3
C145 0.987 0.113 0.099 !       0.80 eA-3
C146 0.864 1.005 0.036 !       0.79 eA-3
C147 0.577 0.265 0.276 !       0.77 eA-3
Q148 0.020 0.253 0.215 !       0.76 eA-3
C149 0.533 0.314 0.251 !       0.75 eA-3
C150 0.873 0.984 0.918 !       0.75 eA-3
C151 0.982 0.827 0.961 !       0.74 eA-3
C152 0.238 0.610 0.589 !       0.74 eA-3
Q153 0.017 0.377 0.555 !       0.72 eA-3
Q154 0.297 0.940 0.967 !       0.72 eA-3
Q155 0.466 0.013 0.419 !       0.70 eA-3
C156 0.157 0.141 0.970 !       0.69 eA-3
C157 0.068 0.893 0.034 !       0.69 eA-3
Q158 0.516 0.565 0.402 !       0.68 eA-3
Q159 0.033 0.147 0.864 !       0.68 eA-3
Q160 0.237 0.610 0.114 !       0.67 eA-3
Q161 0.759 0.501 0.200 !       0.67 eA-3
Q162 0.891 0.786 0.410 !       0.66 eA-3
C163 0.285 0.594 0.671 !       0.66 eA-3
C164 0.102 0.108 0.925 !       0.66 eA-3
C165 0.670 0.372 0.280 !       0.66 eA-3
Q166 0.015 0.810 0.171 !       0.65 eA-3
Q167 0.126 0.859 0.746 !       0.65 eA-3
C168 0.393 0.825 0.704 !       0.65 eA-3
Q169 0.391 0.984 0.792 !       0.65 eA-3
C170 0.441 0.672 0.703 !       0.64 eA-3
Q171 0.377 0.033 0.621 !       0.64 eA-3
C172 0.923 0.973 0.992 !       0.63 eA-3
Q173 0.064 0.061 0.486 !       0.62 eA-3
Q174 0.203 0.461 0.086 !       0.62 eA-3
C175 0.542 0.439 0.259 !       0.61 eA-3
Q176 0.485 0.173 0.871 !       0.61 eA-3
Q177 0.532 0.970 0.426 !       0.60 eA-3
Q178 0.887 0.422 0.475 !       0.60 eA-3
C179 0.750 0.330 0.376 !       0.60 eA-3
Q180 0.857 0.393 0.751 !       0.60 eA-3
Q181 0.390 0.954 0.597 !       0.60 eA-3
Q182 0.814 0.283 0.796 !       0.59 eA-3
Q183 0.722 0.532 0.797 !       0.59 eA-3
Q184 0.262 0.561 0.118 !       0.59 eA-3
C185 0.525 0.846 0.657 !       0.59 eA-3
Q186 0.062 0.082 0.535 !       0.58 eA-3
Q187 0.520 0.345 0.542 !       0.58 eA-3
Q188 0.967 0.803 0.172 !       0.57 eA-3
Q189 0.137 0.749 0.274 !       0.57 eA-3
C190 0.410 0.748 0.696 !       0.56 eA-3
Q191 0.299 0.470 0.839 !       0.56 eA-3
Q192 0.970 0.564 0.363 !       0.56 eA-3
C193 0.533 0.196 0.383 !       0.56 eA-3
C194 0.373 0.764 0.667 !       0.56 eA-3
Q195 0.669 0.922 0.637 !       0.55 eA-3
Q196 0.192 0.418 0.343 !       0.55 eA-3
C197 0.840 0.999 0.008 !       0.55 eA-3
Q198 0.610 0.938 0.086 !       0.54 eA-3
Q199 0.925 0.390 0.214 !       0.54 eA-3
)
;
_shelx_fab_checksum              65435
_platon_squeeze_void_probe_radius 1.20
_olex2_submission_special_instructions 'No special instructions were received'
_oxdiff_exptl_absorpt_empirical_details
;
Empirical correction (ABSPACK) includes:
- Absorption correction using spherical harmonics
- Frame scaling
;
_oxdiff_exptl_absorpt_empirical_full_max 1.418
_oxdiff_exptl_absorpt_empirical_full_min 0.734
loop_
_space_group_symop_operation_xyz
'x, y, z'
'-y, x-y, z'
'-x+y, -x, z'
'x+2/3, y+1/3, z+1/3'
'-y+2/3, x-y+1/3, z+1/3'
'-x+y+2/3, -x+1/3, z+1/3'
'x+1/3, y+2/3, z+2/3'
'-y+1/3, x-y+2/3, z+2/3'
'-x+y+1/3, -x+2/3, z+2/3'
'-x, -y, -z'
'y, -x+y, -z'
'x-y, x, -z'
'-x+2/3, -y+1/3, -z+1/3'
'y+2/3, -x+y+1/3, -z+1/3'
'x-y+2/3, x+1/3, -z+1/3'
'-x+1/3, -y+2/3, -z+2/3'
'y+1/3, -x+y+2/3, -z+2/3'
'x-y+1/3, x+2/3, -z+2/3'
loop_
_atom_site_label
_atom_site_type_symbol
_atom_site_fract_x
_atom_site_fract_y
_atom_site_fract_z
_atom_site_U_iso_or_equiv
_atom_site_adp_type
_atom_site_occupancy
_atom_site_site_symmetry_order
_atom_site_calc_flag
_atom_site_refinement_flags_posn
_atom_site_refinement_flags_adp
_atom_site_refinement_flags_occupancy
_atom_site_disorder_assembly
_atom_site_disorder_group
Gd1 Gd 0.98586(5) 0.79235(4) 0.45093(2) 0.0702(3) Uani 1 1 d . . . . .
Cu1 Cu 0.99208(10) 0.89805(10) 0.54695(2) 0.0643(5) Uani 1 1 d . U . . .
Cu4 Cu 1.08165(11) 0.89025(11) 0.50040(2) 0.0697(5) Uani 1 1 d . U . . .
Cu2 Cu 0.75952(13) 0.69385(11) 0.60069(3) 0.0821(6) Uani 1 1 d . U . . .
Cu3 Cu 0.66384(15) 0.60364(13) 0.55470(3) 0.1052(8) Uani 1 1 d . U . . .
Cl1 Cl 1.000000 1.000000 0.61841(8) 0.0815(14) Uani 1 3 d S TU P . .
Cl4 Cl 0.8764(3) 0.5593(3) 0.65370(6) 0.1114(14) Uani 1 1 d . U . . .
Cl2 Cl 0.9627(5) 0.6623(4) 0.54060(9) 0.159(2) Uani 1 1 d . U . . .
O1 O 0.8988(5) 0.7630(5) 0.41902(13) 0.076(2) Uani 1 1 d . . . . .
O4 O 1.0964(5) 0.9027(5) 0.46641(12) 0.0724(19) Uani 1 1 d . U . . .
H4 H 1.144481 0.902957 0.461707 0.109 Uiso 1 1 calc R U . . .
O6 O 0.8491(6) 0.7690(5) 0.58214(12) 0.076(2) Uani 1 1 d . U . . .
O3 O 0.9763(5) 0.8276(5) 0.58014(13) 0.076(2) Uani 1 1 d . U . . .
O10 O 0.9130(5) 0.9203(5) 0.55880(11) 0.0655(18) Uani 1 1 d . U . . .
H10 H 0.917470 0.924463 0.576121 0.098 Uiso 1 1 calc R U . . .
O12 O 1.0725(5) 0.8796(5) 0.53465(12) 0.0708(18) Uani 1 1 d . U . . .
H12 H 1.065003 0.828819 0.539862 0.106 Uiso 1 1 calc R U . . .
O14 O 0.7457(6) 0.6733(5) 0.53337(14) 0.088(2) Uani 1 1 d . U . . .
O16 O 1.1808(5) 0.9814(5) 0.50755(13) 0.076(2) Uani 1 1 d . U . . .
H16 H 1.223350 0.976583 0.500258 0.113 Uiso 1 1 calc R U . . .
O18 O 0.8080(6) 0.6753(5) 0.50117(13) 0.088(3) Uani 1 1 d . U . . .
O20 O 0.8897(6) 0.6657(5) 0.46341(14) 0.086(3) Uani 1 1 d . . . . .
O22 O 0.9281(6) 0.9355(6) 0.60995(14) 0.089(3) Uani 1 1 d . U . . .
O24 O 0.7007(6) 0.6988(5) 0.57403(14) 0.084(2) Uani 1 1 d . U . . .
H24 H 0.657093 0.705895 0.579170 0.126 Uiso 1 1 calc R U . . .
O26 O 0.7550(7) 0.8071(6) 0.62273(14) 0.093(3) Uani 1 1 d . . . . .
O30 O 1.000000 1.000000 0.6428(2) 0.095(4) Uani 1 3 d S TU P . .
O31 O 1.0386(10) 0.7287(9) 0.5504(2) 0.128(4) Uani 1 1 d . U . . .
N1 N 0.8428(7) 0.7046(7) 0.62220(18) 0.089(3) Uani 1 1 d D U . . .
H1BC H 0.844292 0.732573 0.634846 0.107 Uiso 0.5 1 calc R U P A 2
H1BD H 0.831659 0.657207 0.627231 0.107 Uiso 0.5 1 calc R U P A 2
H1AA H 0.828021 0.705060 0.637130 0.107 Uiso 0.5 1 calc R U P B 1
H1AB H 0.848948 0.662971 0.620506 0.107 Uiso 0.5 1 calc R U P B 1
C8 C 0.9148(9) 0.7860(9) 0.5904(2) 0.082(3) Uani 1 1 d . U . . .
O9 O 0.8795(11) 0.6250(8) 0.6632(2) 0.136(4) Uani 1 1 d . U . . .
O19 O 0.8902(11) 0.6637(9) 0.5490(2) 0.144(5) Uani 1 1 d . U . . .
O5 O 0.8283(10) 0.4904(9) 0.6673(2) 0.140(5) Uani 1 1 d . U . . .
O21 O 0.8526(10) 0.5502(9) 0.6305(2) 0.138(4) Uani 1 1 d . U . . .
N11 N 0.5785(8) 0.5339(7) 0.5728(2) 0.135(4) Uani 1 1 d G U . . .
C5 C 0.5129(9) 0.5369(9) 0.5805(3) 0.172(7) Uani 1 1 d G U . . .
H5 H 0.500749 0.575636 0.576767 0.207 Uiso 1 1 calc R U . . .
C15 C 0.4687(7) 0.4718(10) 0.5948(3) 0.176(7) Uani 1 1 d G U . . .
H15 H 0.421719 0.459287 0.602342 0.212 Uiso 1 1 calc R U . . .
N5 N 0.5069(9) 0.4285(7) 0.5960(2) 0.162(6) Uani 1 1 d G U . . .
H5A H 0.491327 0.385504 0.603735 0.194 Uiso 1 1 calc R U . . .
C2 C 0.5748(8) 0.4670(8) 0.5823(3) 0.155(6) Uani 1 1 d G U . . .
H2 H 0.611368 0.450714 0.580021 0.186 Uiso 1 1 calc R U . . .
N23 N 0.6100(8) 0.5260(7) 0.6460(2) 0.168(7) Uani 1 1 d G U . . .
H23 H 0.595265 0.485521 0.655004 0.202 Uiso 1 1 calc R U . . .
C7 C 0.6754(8) 0.5589(7) 0.6312(2) 0.145(6) Uani 1 1 d G U . . .
H7 H 0.710953 0.541119 0.629334 0.174 Uiso 1 1 calc R U . . .
N17 N 0.6785(7) 0.6230(6) 0.61981(17) 0.116(4) Uani 1 1 d G U . . .
C3 C 0.6149(8) 0.6297(8) 0.6275(2) 0.141(6) Uani 1 1 d G U . . .
H3 H 0.602814 0.667647 0.622691 0.169 Uiso 1 1 calc R U . . .
C19 C 0.5726(7) 0.5697(9) 0.6437(2) 0.154(7) Uani 1 1 d G U . . .
H19 H 0.527257 0.560504 0.651614 0.184 Uiso 1 1 calc R U . . .
O25 O 0.9638(11) 0.6617(9) 0.5140(2) 0.150(5) Uani 1 1 d . U . . .
C1 C 0.7584(10) 0.6412(8) 0.5160(2) 0.094(3) Uani 1 1 d . U . . .
O13 O 0.9526(11) 0.5709(11) 0.6546(3) 0.159(5) Uani 1 1 d . U . . .
C4B C 0.9858(15) 0.767(3) 0.6248(5) 0.095(7) Uani 0.69(7) 1 d D U P C 1
H4BA H 1.033129 0.815331 0.621608 0.143 Uiso 0.69(7) 1 calc R U P C 1
H4BB H 0.983147 0.754930 0.641430 0.143 Uiso 0.69(7) 1 calc R U P C 1
H4BC H 0.985623 0.725447 0.615761 0.143 Uiso 0.69(7) 1 calc R U P C 1
C6 C 0.7110(13) 0.5558(10) 0.5138(3) 0.122(4) Uani 1 1 d . U . . .
H6 H 0.745801 0.536166 0.518668 0.146 Uiso 1 1 calc R U . . .
O8 O 0.5600(10) 0.6165(12) 0.5291(4) 0.205(10) Uani 1 1 d . . . . .
O27 O 0.9528(15) 0.5853(12) 0.5475(3) 0.196(7) Uani 1 1 d . U . . .
C10B C 0.9187(10) 0.7423(18) 0.6110(4) 0.084(4) Uani 0.5 1 d D U P C 2
H10B H 0.930868 0.702245 0.605596 0.101 Uiso 0.5 1 calc R U P C 2
N7 N 0.6485(10) 0.5249(8) 0.5312(2) 0.120(4) Uani 1 1 d . U . . .
H7A H 0.646832 0.483801 0.538458 0.144 Uiso 1 1 calc R U . . .
H7B H 0.602727 0.508337 0.523879 0.144 Uiso 1 1 calc R U . . .
C9 C 0.6841(16) 0.5238(15) 0.4915(4) 0.181(10) Uani 1 1 d . U . . .
H9A H 0.627771 0.496698 0.491382 0.271 Uiso 1 1 calc R U . . .
H9B H 0.701843 0.487568 0.487891 0.271 Uiso 1 1 calc R U . . .
H9C H 0.703991 0.564917 0.479887 0.271 Uiso 1 1 calc R U . . .
Cl3 Cl 0.666667 0.333333 0.5378(3) 0.212(6) Uani 1 3 d DS TU P . .
C12 C 1.000000 1.000000 0.500000 0.062(5) Uani 1 6 d S TU P . .
O15 O 1.0586(12) 0.9921(12) 0.4950(3) 0.089(5) Uani 0.5 1 d . U P . .
O11 O 0.7659(8) 0.5912(6) 0.57697(16) 0.106(3) Uani 1 1 d . . . . .
H11 H 0.792300 0.563013 0.576612 0.127 Uiso 1 1 calc R U . . .
O2 O 0.6520(19) 0.3864(15) 0.5510(4) 0.238(9) Uani 1 1 d D U . . .
O7 O 0.666667 0.333333 0.5128(4) 0.245(11) Uani 1 3 d DS TU P . .
C10A C 0.9168(10) 0.7744(12) 0.6181(5) 0.085(4) Uani 0.5 1 d D U P C 1
H10A H 0.918439 0.818821 0.626461 0.102 Uiso 0.5 1 calc R U P C 1
C4A C 0.982(3) 0.798(4) 0.6272(9) 0.092(9) Uani 0.31(7) 1 d D U P C 2
H4AA H 1.031326 0.821553 0.619050 0.138 Uiso 0.31(7) 1 calc R U P C 2
H4AB H 0.970806 0.837955 0.632225 0.138 Uiso 0.31(7) 1 calc R U P C 2
H4AC H 0.984377 0.769939 0.640873 0.138 Uiso 0.31(7) 1 calc R U P C 2
loop_
_atom_site_aniso_label
_atom_site_aniso_U_11
_atom_site_aniso_U_22
_atom_site_aniso_U_33
_atom_site_aniso_U_23
_atom_site_aniso_U_13
_atom_site_aniso_U_12
Gd1 0.1022(6) 0.0838(5) 0.0305(4) -0.0032(3) 0.0003(3) 0.0510(4)
Cu1 0.0882(11) 0.0830(11) 0.0261(7) 0.0002(6) -0.0003(6) 0.0460(9)
Cu4 0.0936(12) 0.0926(12) 0.0309(8) -0.0045(7) -0.0042(7) 0.0525(10)
Cu2 0.1055(14) 0.0852(12) 0.0414(8) 0.0116(8) 0.0115(8) 0.0370(10)
Cu3 0.1255(17) 0.0910(14) 0.0511(10) 0.0033(9) 0.0158(10) 0.0181(12)
Cl1 0.104(2) 0.104(2) 0.036(2) 0.000 0.000 0.0521(12)
Cl4 0.193(4) 0.130(3) 0.0544(17) 0.0100(18) 0.015(2) 0.113(3)
Cl2 0.261(7) 0.184(5) 0.082(3) 0.031(3) 0.012(4) 0.148(5)
O1 0.098(6) 0.079(5) 0.044(4) -0.014(3) -0.004(4) 0.040(5)
O4 0.092(5) 0.098(5) 0.033(3) -0.001(3) -0.004(3) 0.051(4)
O6 0.103(5) 0.085(4) 0.034(3) 0.012(3) 0.004(3) 0.042(4)
O3 0.097(5) 0.093(5) 0.040(4) 0.011(3) 0.004(3) 0.048(4)
O10 0.081(4) 0.084(4) 0.028(3) -0.004(3) 0.001(3) 0.039(4)
O12 0.095(4) 0.093(4) 0.031(3) -0.003(3) 0.004(3) 0.051(4)
O14 0.123(5) 0.076(4) 0.042(3) 0.006(3) 0.012(4) 0.033(4)
O16 0.098(5) 0.104(5) 0.032(3) -0.001(3) -0.001(3) 0.055(4)
O18 0.126(6) 0.078(5) 0.036(4) 0.001(3) 0.006(4) 0.034(5)
O20 0.128(7) 0.067(5) 0.051(4) -0.002(4) 0.003(5) 0.039(5)
O22 0.104(6) 0.118(7) 0.037(4) -0.005(4) -0.006(4) 0.049(5)
O24 0.097(5) 0.090(5) 0.043(4) 0.004(4) 0.010(4) 0.030(4)
O26 0.139(8) 0.093(6) 0.043(4) 0.003(4) 0.001(5) 0.054(6)
O30 0.127(7) 0.127(7) 0.032(6) 0.000 0.000 0.063(4)
O31 0.195(12) 0.137(9) 0.073(6) -0.002(6) -0.012(7) 0.098(9)
N1 0.119(7) 0.104(6) 0.051(5) 0.020(5) 0.011(5) 0.060(5)
C8 0.104(5) 0.097(5) 0.048(4) 0.019(4) 0.007(4) 0.053(5)
O9 0.254(13) 0.137(8) 0.067(6) 0.007(6) 0.019(8) 0.134(9)
O19 0.241(13) 0.170(10) 0.074(7) 0.022(7) 0.036(8) 0.142(10)
O5 0.200(12) 0.134(9) 0.082(7) 0.028(7) 0.008(8) 0.080(9)
O21 0.227(12) 0.156(10) 0.064(6) 0.003(6) 0.001(7) 0.120(9)
N11 0.141(7) 0.110(6) 0.075(5) -0.002(5) 0.023(5) 0.005(6)
C5 0.158(10) 0.140(9) 0.113(8) -0.003(8) 0.020(8) -0.005(8)
C15 0.158(10) 0.141(10) 0.115(8) 0.000(8) 0.018(8) -0.011(9)
N5 0.151(10) 0.132(9) 0.096(7) 0.013(7) -0.002(7) -0.009(8)
C2 0.152(9) 0.127(8) 0.090(7) 0.011(7) 0.000(7) -0.003(8)
N23 0.157(9) 0.139(9) 0.082(6) 0.019(7) 0.012(7) -0.021(8)
C7 0.146(9) 0.120(8) 0.075(7) 0.015(6) 0.002(7) -0.003(7)
N17 0.127(6) 0.105(6) 0.054(5) 0.008(5) 0.011(5) 0.012(5)
C3 0.144(9) 0.120(8) 0.083(7) 0.002(7) 0.023(7) 0.009(7)
C19 0.147(10) 0.126(9) 0.083(7) 0.005(7) 0.034(7) -0.010(8)
O25 0.254(14) 0.140(9) 0.075(7) 0.021(7) -0.015(8) 0.112(10)
C1 0.131(6) 0.076(5) 0.049(5) 0.005(4) 0.014(5) 0.033(5)
O13 0.169(11) 0.192(12) 0.131(10) -0.001(9) 0.051(9) 0.103(10)
C4B 0.125(11) 0.112(12) 0.058(9) 0.018(9) 0.000(8) 0.066(9)
C6 0.148(8) 0.098(6) 0.069(6) -0.006(5) 0.021(6) 0.024(6)
O8 0.123(12) 0.186(17) 0.22(2) 0.059(16) -0.002(13) 0.009(12)
O27 0.310(16) 0.192(12) 0.129(11) 0.046(10) 0.000(12) 0.159(12)
C10B 0.113(7) 0.101(7) 0.048(6) 0.022(6) 0.005(6) 0.061(6)
N7 0.141(7) 0.098(6) 0.066(5) 0.005(5) 0.020(5) 0.019(6)
C9 0.202(17) 0.141(14) 0.104(13) -0.030(11) 0.032(13) 0.015(14)
Cl3 0.256(10) 0.256(10) 0.125(10) 0.000 0.000 0.128(5)
C12 0.072(8) 0.072(8) 0.043(10) 0.000 0.000 0.036(4)
O15 0.089(9) 0.093(9) 0.071(9) -0.005(7) -0.002(7) 0.034(8)
O11 0.156(10) 0.091(7) 0.058(5) 0.003(5) 0.004(6) 0.052(7)
O2 0.315(18) 0.268(18) 0.130(14) 0.008(13) -0.003(14) 0.145(15)
O7 0.288(15) 0.288(15) 0.160(18) 0.000 0.000 0.144(7)
C10A 0.113(7) 0.101(7) 0.048(6) 0.018(6) 0.010(6) 0.059(6)
C4A 0.127(13) 0.107(13) 0.048(11) 0.023(12) 0.000(11) 0.063(13)
loop_
_atom_type_symbol
_atom_type_description
_atom_type_scat_dispersion_real
_atom_type_scat_dispersion_imag
_atom_type_scat_source
C C 0.0181 0.0091 'International Tables Vol C Tables 4.2.6.8 and 6.1.1.4'
H H 0.0000 0.0000 'International Tables Vol C Tables 4.2.6.8 and 6.1.1.4'
Cl Cl 0.3639 0.7018 'International Tables Vol C Tables 4.2.6.8 and 6.1.1.4'
Cu Cu -1.9646 0.5888 'International Tables Vol C Tables 4.2.6.8 and 6.1.1.4'
Gd Gd -8.8380 11.9157 'International Tables Vol C Tables 4.2.6.8 and 6.1.1.4'
N N 0.0311 0.0180 'International Tables Vol C Tables 4.2.6.8 and 6.1.1.4'
O O 0.0492 0.0322 'International Tables Vol C Tables 4.2.6.8 and 6.1.1.4'
loop_
_exptl_crystal_face_index_h
_exptl_crystal_face_index_k
_exptl_crystal_face_index_l
_exptl_crystal_face_perp_dist
-6 4 -33 0.0743
6 -4 33 0.0833
0 11 4 0.1161
0 -11 -4 0.1161
11 -11 -12 0.1163
-12 9 8 0.0765
12 -1 5 0.1326
-2 11 17 0.0906
-9 -3 -9 0.1168
4 -12 -17 0.1069
-5 -2 -31 0.0930
3 -4 -35 0.0881
5 1 -32 0.1064
-6 -6 17 0.0998
-4 3 36 0.0864
loop_
_geom_angle_atom_site_label_1
_geom_angle_atom_site_label_2
_geom_angle_atom_site_label_3
_geom_angle
_geom_angle_site_symmetry_1
_geom_angle_site_symmetry_3
_geom_angle_publ_flag
Cu1 Gd1 Cu4 85.41(4) 12_656 11_566 ?
Cu4 Gd1 Cu1 57.63(4) . 12_656 ?
Cu4 Gd1 Cu4 57.51(4) . 11_566 ?
O1 Gd1 Cu1 105.6(2) . 12_656 ?
O1 Gd1 Cu4 154.6(2) . . ?
O1 Gd1 Cu4 105.6(2) . 11_566 ?
O1 Gd1 O6 79.9(3) . 12_656 ?
O1 Gd1 O10 74.9(3) . 12_656 ?
O1 Gd1 O12 73.5(3) . 11_566 ?
O1 Gd1 O14 137.5(3) . 12_656 ?
O1 Gd1 O16 137.0(3) . 11_566 ?
O1 Gd1 O20 82.4(3) . . ?
O1 Gd1 O24 74.0(3) . 12_656 ?
O4 Gd1 Cu1 33.2(2) . 12_656 ?
O4 Gd1 Cu4 85.11(19) . 11_566 ?
O4 Gd1 Cu4 33.78(18) . . ?
O4 Gd1 O1 137.6(3) . . ?
O4 Gd1 O6 73.8(3) . 12_656 ?
O4 Gd1 O10 66.2(3) . 12_656 ?
O4 Gd1 O12 103.0(3) . 11_566 ?
O4 Gd1 O14 73.6(3) . 12_656 ?
O4 Gd1 O16 67.3(3) . 11_566 ?
O4 Gd1 O20 138.7(3) . . ?
O4 Gd1 O24 119.9(3) . 12_656 ?
O6 Gd1 Cu1 67.0(2) 12_656 12_656 ?
O6 Gd1 Cu4 106.6(2) 12_656 . ?
O6 Gd1 Cu4 152.2(2) 12_656 11_566 ?
O6 Gd1 O14 86.4(3) 12_656 12_656 ?
O10 Gd1 Cu1 33.34(18) 12_656 12_656 ?
O10 Gd1 Cu4 83.30(16) 12_656 . ?
O10 Gd1 Cu4 81.42(17) 12_656 11_566 ?
O10 Gd1 O6 73.7(3) 12_656 12_656 ?
O10 Gd1 O12 64.7(3) 12_656 11_566 ?
O10 Gd1 O14 138.6(3) 12_656 12_656 ?
O10 Gd1 O24 130.2(3) 12_656 12_656 ?
O12 Gd1 Cu1 85.9(2) 11_566 12_656 ?
O12 Gd1 Cu4 33.25(17) 11_566 11_566 ?
O12 Gd1 Cu4 85.59(19) 11_566 . ?
O12 Gd1 O6 134.9(3) 11_566 12_656 ?
O12 Gd1 O14 137.0(3) 11_566 12_656 ?
O12 Gd1 O24 137.1(3) 11_566 12_656 ?
O14 Gd1 Cu1 105.5(3) 12_656 12_656 ?
O14 Gd1 Cu4 67.9(2) 12_656 . ?
O14 Gd1 Cu4 105.14(19) 12_656 11_566 ?
O16 Gd1 Cu1 84.8(2) 11_566 12_656 ?
O16 Gd1 Cu4 32.5(2) 11_566 11_566 ?
O16 Gd1 Cu4 33.7(2) 11_566 . ?
O16 Gd1 O6 140.0(3) 11_566 12_656 ?
O16 Gd1 O10 98.4(3) 11_566 12_656 ?
O16 Gd1 O12 65.7(3) 11_566 11_566 ?
O16 Gd1 O14 74.1(3) 11_566 12_656 ?
O16 Gd1 O20 74.8(3) 11_566 . ?
O16 Gd1 O24 130.6(3) 11_566 12_656 ?
O20 Gd1 Cu1 156.3(2) . 12_656 ?
O20 Gd1 Cu4 106.3(2) . . ?
O20 Gd1 Cu4 70.9(2) . 11_566 ?
O20 Gd1 O6 136.7(3) . 12_656 ?
O20 Gd1 O10 137.7(3) . 12_656 ?
O20 Gd1 O12 74.9(3) . 11_566 ?
O20 Gd1 O14 80.7(4) . 12_656 ?
O20 Gd1 O24 73.8(3) . 12_656 ?
O24 Gd1 Cu1 129.7(2) 12_656 12_656 ?
O24 Gd1 Cu4 131.2(2) 12_656 . ?
O24 Gd1 Cu4 144.4(2) 12_656 11_566 ?
O24 Gd1 O6 63.4(3) 12_656 12_656 ?
O24 Gd1 O14 63.9(3) 12_656 12_656 ?
Gd1 Cu1 Gd1 175.74(5) 11_566 12_656 ?
O4 Cu1 Gd1 139.7(3) 11_566 12_656 ?
O4 Cu1 Gd1 41.5(2) 11_566 11_566 ?
O4 Cu1 O3 88.1(3) 11_566 . ?
O3 Cu1 Gd1 92.8(2) . 12_656 ?
O3 Cu1 Gd1 83.0(2) . 11_566 ?
O10 Cu1 Gd1 136.8(2) . 12_656 ?
O10 Cu1 Gd1 42.4(2) . 11_566 ?
O10 Cu1 Gd1 41.4(2) 2_765 12_656 ?
O10 Cu1 Gd1 137.7(2) 2_765 11_566 ?
O10 Cu1 O4 83.5(4) . 11_566 ?
O10 Cu1 O4 176.6(3) 2_765 11_566 ?
O10 Cu1 O3 95.1(3) 2_765 . ?
O10 Cu1 O3 88.5(3) . . ?
O10 Cu1 O10 95.4(5) 2_765 . ?
O10 Cu1 O12 83.3(4) 2_765 . ?
O12 Cu1 Gd1 138.9(3) . 11_566 ?
O12 Cu1 Gd1 42.0(3) . 12_656 ?
O12 Cu1 O4 97.7(4) . 11_566 ?
O12 Cu1 O3 93.2(3) . . ?
O12 Cu1 O10 177.9(4) . . ?
Gd1 Cu4 Gd1 174.27(6) . 12_656 ?
O4 Cu4 Gd1 42.3(3) . . ?
O4 Cu4 Gd1 135.0(3) . 12_656 ?
O4 Cu4 O12 177.1(4) . . ?
O4 Cu4 O18 87.7(3) . 12_656 ?
O4 Cu4 O15 80.8(5) . . ?
O4 Cu4 O15 99.0(5) . 11_566 ?
O12 Cu4 Gd1 42.5(3) . 12_656 ?
O12 Cu4 Gd1 139.9(3) . . ?
O12 Cu4 O18 90.7(3) . 12_656 ?
O12 Cu4 O15 100.3(5) . . ?
O12 Cu4 O15 83.3(5) . 11_566 ?
O16 Cu4 Gd1 41.1(2) . 12_656 ?
O16 Cu4 Gd1 42.5(2) 11_566 . ?
O16 Cu4 Gd1 140.3(2) 11_566 12_656 ?
O16 Cu4 Gd1 136.3(2) . . ?
O16 Cu4 O4 94.1(4) . . ?
O16 Cu4 O4 84.6(3) 11_566 . ?
O16 Cu4 O12 83.6(3) . . ?
O16 Cu4 O12 97.8(4) 11_566 . ?
O16 Cu4 O16 178.1(4) . 11_566 ?
O16 Cu4 O18 93.9(4) . 12_656 ?
O16 Cu4 O18 87.4(4) 11_566 12_656 ?
O16 Cu4 O15 75.2(6) 11_566 11_566 ?
O16 Cu4 O15 102.1(6) 11_566 . ?
O16 Cu4 O15 76.3(6) . . ?
O16 Cu4 O15 103.7(6) . 11_566 ?
O18 Cu4 Gd1 83.2(2) 12_656 . ?
O18 Cu4 Gd1 91.7(2) 12_656 12_656 ?
O18 Cu4 O15 160.6(6) 12_656 11_566 ?
O15 Cu4 Gd1 89.5(5) 11_566 . ?
O15 Cu4 Gd1 95.3(5) . . ?
O15 Cu4 Gd1 88.8(5) . 12_656 ?
O15 Cu4 Gd1 96.1(5) 11_566 12_656 ?
O15 Cu4 O18 164.3(6) . 12_656 ?
O15 Cu4 O15 34.3(8) . 11_566 ?
O6 Cu2 O26 90.6(4) . . ?
O6 Cu2 N1 81.9(4) . . ?
O6 Cu2 O11 86.3(4) . . ?
O24 Cu2 O6 83.2(4) . . ?
O24 Cu2 O26 92.9(4) . . ?
O24 Cu2 N1 164.9(4) . . ?
O24 Cu2 O11 84.1(4) . . ?
N1 Cu2 O26 89.8(4) . . ?
N1 Cu2 O11 92.4(5) . . ?
N17 Cu2 O6 176.5(5) . . ?
N17 Cu2 O24 100.3(5) . . ?
N17 Cu2 O26 89.0(5) . . ?
N17 Cu2 N1 94.6(5) . . ?
N17 Cu2 O11 94.3(5) . . ?
O11 Cu2 O26 175.9(3) . . ?
O14 Cu3 O24 83.6(4) . . ?
O14 Cu3 O8 90.2(5) . . ?
O14 Cu3 N7 83.4(5) . . ?
O14 Cu3 O11 87.5(4) . . ?
O24 Cu3 O8 98.4(6) . . ?
O24 Cu3 O11 83.3(4) . . ?
N11 Cu3 O14 174.5(5) . . ?
N11 Cu3 O24 99.6(5) . . ?
N11 Cu3 O8 85.0(7) . . ?
N11 Cu3 N7 93.6(6) . . ?
N11 Cu3 O11 97.3(6) . . ?
N7 Cu3 O24 166.8(5) . . ?
N7 Cu3 O8 83.4(8) . . ?
N7 Cu3 O11 94.4(6) . . ?
O11 Cu3 O8 176.9(6) . . ?
O22 Cl1 O22 109.5(4) 3_675 2_765 ?
O22 Cl1 O22 109.5(4) . 2_765 ?
O22 Cl1 O22 109.5(4) . 3_675 ?
O30 Cl1 O22 109.5(4) . 3_675 ?
O30 Cl1 O22 109.5(4) . . ?
O30 Cl1 O22 109.5(4) . 2_765 ?
O9 Cl4 O5 112.6(9) . . ?
O9 Cl4 O13 107.1(11) . . ?
O21 Cl4 O9 110.3(8) . . ?
O21 Cl4 O5 111.4(10) . . ?
O21 Cl4 O13 108.8(10) . . ?
O13 Cl4 O5 106.4(11) . . ?
O31 Cl2 O19 113.7(10) . . ?
O25 Cl2 O31 111.1(10) . . ?
O25 Cl2 O19 109.3(10) . . ?
O27 Cl2 O31 110.8(12) . . ?
O27 Cl2 O19 107.1(12) . . ?
O27 Cl2 O25 104.4(10) . . ?
Gd1 O4 H4 110.6 . . ?
Cu1 O4 Gd1 105.3(3) 12_656 . ?
Cu1 O4 H4 110.6 12_656 . ?
Cu4 O4 Gd1 103.9(4) . . ?
Cu4 O4 Cu1 115.4(4) . 12_656 ?
Cu4 O4 H4 110.6 . . ?
Cu2 O6 Gd1 105.1(4) . 11_566 ?
C8 O6 Gd1 139.6(8) . 11_566 ?
C8 O6 Cu2 115.3(7) . . ?
C8 O3 Cu1 126.3(8) . . ?
Gd1 O10 H10 108.3 11_566 . ?
Cu1 O10 Gd1 106.3(3) 3_675 11_566 ?
Cu1 O10 Gd1 104.2(3) . 11_566 ?
Cu1 O10 Cu1 120.8(4) 3_675 . ?
Cu1 O10 H10 108.3 3_675 . ?
Cu1 O10 H10 108.3 . . ?
Gd1 O12 H12 111.5 12_656 . ?
Cu1 O12 Gd1 105.5(3) . 12_656 ?
Cu1 O12 Cu4 112.3(4) . . ?
Cu1 O12 H12 111.5 . . ?
Cu4 O12 Gd1 104.2(4) . 12_656 ?
Cu4 O12 H12 111.5 . . ?
Cu3 O14 Gd1 105.5(4) . 11_566 ?
C1 O14 Gd1 138.8(9) . 11_566 ?
C1 O14 Cu3 115.7(9) . . ?
Gd1 O16 H16 109.9 12_656 . ?
Cu4 O16 Gd1 106.5(4) . 12_656 ?
Cu4 O16 Gd1 103.8(3) 12_656 12_656 ?
Cu4 O16 Cu4 116.5(4) . 12_656 ?
Cu4 O16 H16 109.9 12_656 . ?
Cu4 O16 H16 109.9 . . ?
C1 O18 Cu4 125.2(9) . 11_566 ?
Gd1 O24 H24 111.6 11_566 . ?
Cu2 O24 Gd1 107.0(4) . 11_566 ?
Cu2 O24 Cu3 109.2(5) . . ?
Cu2 O24 H24 111.6 . . ?
Cu3 O24 Gd1 105.7(3) . 11_566 ?
Cu3 O24 H24 111.6 . . ?
Cu2 N1 H1BC 109.1 . . ?
Cu2 N1 H1BD 109.1 . . ?
Cu2 N1 H1AA 108.9 . . ?
Cu2 N1 H1AB 108.9 . . ?
H1BC N1 H1BD 107.9 . . ?
H1AA N1 H1AB 107.7 . . ?
C10B N1 Cu2 112.4(11) . . ?
C10B N1 H1BC 109.1 . . ?
C10B N1 H1BD 109.1 . . ?
C10A N1 Cu2 113.3(11) . . ?
C10A N1 H1AA 108.9 . . ?
C10A N1 H1AB 108.9 . . ?
O6 C8 C10B 119.0(13) . . ?
O6 C8 C10A 115.1(12) . . ?
O3 C8 O6 123.6(11) . . ?
O3 C8 C10B 116.3(13) . . ?
O3 C8 C10A 118.5(13) . . ?
C5 N11 Cu3 131.1(10) . . ?
C5 N11 C2 108.0 . . ?
C2 N11 Cu3 120.8(10) . . ?
N11 C5 H5 126.0 . . ?
N11 C5 C15 108.0 . . ?
C15 C5 H5 126.0 . . ?
C5 C15 H15 126.0 . . ?
N5 C15 C5 108.0 . . ?
N5 C15 H15 126.0 . . ?
C15 N5 H5A 126.0 . . ?
C2 N5 C15 108.0 . . ?
C2 N5 H5A 126.0 . . ?
N11 C2 H2 126.0 . . ?
N5 C2 N11 108.0 . . ?
N5 C2 H2 126.0 . . ?
C7 N23 H23 126.0 . . ?
C19 N23 H23 126.0 . . ?
C19 N23 C7 108.0 . . ?
N23 C7 H7 126.0 . . ?
N17 C7 N23 108.0 . . ?
N17 C7 H7 126.0 . . ?
C7 N17 Cu2 125.6(8) . . ?
C7 N17 C3 108.0 . . ?
C3 N17 Cu2 126.0(8) . . ?
N17 C3 H3 126.0 . . ?
N17 C3 C19 108.0 . . ?
C19 C3 H3 126.0 . . ?
N23 C19 C3 108.0 . . ?
N23 C19 H19 126.0 . . ?
C3 C19 H19 126.0 . . ?
O14 C1 C6 118.2(13) . . ?
O18 C1 O14 124.8(13) . . ?
O18 C1 C6 117.0(13) . . ?
H4BA C4B H4BB 109.5 . . ?
H4BA C4B H4BC 109.5 . . ?
H4BB C4B H4BC 109.5 . . ?
C10A C4B H4BA 109.5 . . ?
C10A C4B H4BB 109.5 . . ?
C10A C4B H4BC 109.5 . . ?
C1 C6 H6 105.0 . . ?
N7 C6 C1 110.2(14) . . ?
N7 C6 H6 105.0 . . ?
C9 C6 C1 118.7(18) . . ?
C9 C6 H6 105.0 . . ?
C9 C6 N7 111.8(19) . . ?
N1 C10B C8 107.7(16) . . ?
N1 C10B H10B 109.3 . . ?
N1 C10B C4A 112(3) . . ?
C8 C10B H10B 109.3 . . ?
C8 C10B C4A 109(3) . . ?
C4A C10B H10B 109.3 . . ?
Cu3 N7 H7A 109.3 . . ?
Cu3 N7 H7B 109.3 . . ?
C6 N7 Cu3 111.4(10) . . ?
C6 N7 H7A 109.3 . . ?
C6 N7 H7B 109.3 . . ?
H7A N7 H7B 108.0 . . ?
C6 C9 H9A 109.5 . . ?
C6 C9 H9B 109.5 . . ?
C6 C9 H9C 109.5 . . ?
H9A C9 H9B 109.5 . . ?
H9A C9 H9C 109.5 . . ?
H9B C9 H9C 109.5 . . ?
O2 Cl3 O2 95.4(15) 2_655 . ?
O2 Cl3 O2 95.4(15) 3_665 2_655 ?
O2 Cl3 O2 95.4(15) 3_665 . ?
O7 Cl3 O2 121.4(11) . . ?
O7 Cl3 O2 121.4(12) . 3_665 ?
O7 Cl3 O2 121.4(12) . 2_655 ?
O15 C12 O15 115.2(6) 3_675 . ?
O15 C12 O15 64.8(6) 2_765 10_776 ?
O15 C12 O15 180(4) 12_656 3_675 ?
O15 C12 O15 115.2(6) 2_765 . ?
O15 C12 O15 115.2(6) 12_656 11_566 ?
O15 C12 O15 115.2(6) 11_566 10_776 ?
O15 C12 O15 64.8(6) 3_675 11_566 ?
O15 C12 O15 64.8(6) 12_656 . ?
O15 C12 O15 64.8(6) 12_656 2_765 ?
O15 C12 O15 64.8(6) 11_566 . ?
O15 C12 O15 115.2(6) 3_675 2_765 ?
O15 C12 O15 180.0(17) 10_776 . ?
O15 C12 O15 180.0(17) 11_566 2_765 ?
O15 C12 O15 115.2(6) 12_656 10_776 ?
O15 C12 O15 64.8(6) 3_675 10_776 ?
Cu4 O15 Cu4 90.5(7) . 12_656 ?
C12 O15 Cu4 129.0(13) . 12_656 ?
C12 O15 Cu4 131.9(13) . . ?
C12 O15 O15 57.6(3) . 11_566 ?
C12 O15 O15 57.6(3) . 12_656 ?
O15 O15 Cu4 74.3(13) 11_566 . ?
O15 O15 Cu4 144.3(18) 12_656 . ?
O15 O15 Cu4 147(2) 11_566 12_656 ?
O15 O15 Cu4 71.4(13) 12_656 12_656 ?
O15 O15 O15 104.1(18) 11_566 12_656 ?
Cu2 O11 Cu3 79.6(4) . . ?
Cu2 O11 H11 140.2 . . ?
Cu3 O11 H11 140.2 . . ?
N1 C10A C8 102.3(15) . . ?
N1 C10A C4B 114(2) . . ?
N1 C10A H10A 109.9 . . ?
C8 C10A H10A 109.9 . . ?
C4B C10A C8 110.9(19) . . ?
C4B C10A H10A 109.9 . . ?
C10B C4A H4AA 109.5 . . ?
C10B C4A H4AB 109.5 . . ?
C10B C4A H4AC 109.5 . . ?
H4AA C4A H4AB 109.5 . . ?
H4AA C4A H4AC 109.5 . . ?
H4AB C4A H4AC 109.5 . . ?
loop_
_geom_bond_atom_site_label_1
_geom_bond_atom_site_label_2
_geom_bond_distance
_geom_bond_site_symmetry_2
_geom_bond_publ_flag
Gd1 Cu1 3.4811(19) 12_656 ?
Gd1 Cu4 3.4463(16) . ?
Gd1 Cu4 3.5006(16) 11_566 ?
Gd1 O1 2.396(8) . ?
Gd1 O4 2.390(9) . ?
Gd1 O6 2.518(8) 12_656 ?
Gd1 O10 2.423(8) 12_656 ?
Gd1 O12 2.442(9) 11_566 ?
Gd1 O14 2.518(9) 12_656 ?
Gd1 O16 2.398(7) 11_566 ?
Gd1 O20 2.408(9) . ?
Gd1 O24 2.479(8) 12_656 ?
Cu1 O4 1.976(9) 11_566 ?
Cu1 O3 2.301(8) . ?
Cu1 O10 1.974(8) . ?
Cu1 O10 1.958(8) 2_765 ?
Cu1 O12 1.961(8) . ?
Cu4 O4 1.974(7) . ?
Cu4 O12 1.980(7) . ?
Cu4 O16 1.970(9) 11_566 ?
Cu4 O16 1.960(9) . ?
Cu4 O18 2.342(9) 12_656 ?
Cu4 O15 2.37(2) 11_566 ?
Cu4 O15 2.33(2) . ?
Cu2 O6 1.984(9) . ?
Cu2 O24 1.968(10) . ?
Cu2 O26 2.646(10) . ?
Cu2 N1 2.004(12) . ?
Cu2 N17 1.889(8) . ?
Cu2 O11 2.529(11) . ?
Cu3 O14 1.966(9) . ?
Cu3 O24 2.005(9) . ?
Cu3 N11 1.893(9) . ?
Cu3 O8 2.67(2) . ?
Cu3 N7 1.984(14) . ?
Cu3 O11 2.533(14) . ?
Cl1 O22 1.460(10) 3_675 ?
Cl1 O22 1.460(10) . ?
Cl1 O22 1.460(10) 2_765 ?
Cl1 O30 1.401(14) . ?
Cl4 O9 1.401(12) . ?
Cl4 O5 1.457(15) . ?
Cl4 O21 1.395(13) . ?
Cl4 O13 1.432(18) . ?
Cl2 O31 1.546(17) . ?
Cl2 O19 1.546(18) . ?
Cl2 O25 1.530(14) . ?
Cl2 O27 1.510(18) . ?
O4 H4 1.0000 . ?
O6 C8 1.278(17) . ?
O3 C8 1.240(16) . ?
O10 H10 1.0000 . ?
O12 H12 1.0000 . ?
O14 C1 1.282(17) . ?
O16 H16 1.0000 . ?
O18 C1 1.228(17) . ?
O24 H24 1.0000 . ?
N1 H1BC 0.9100 . ?
N1 H1BD 0.9100 . ?
N1 H1AA 0.9100 . ?
N1 H1AB 0.9100 . ?
N1 C10B 1.468(10) . ?
N1 C10A 1.465(10) . ?
C8 C10B 1.50(3) . ?
C8 C10A 1.61(3) . ?
N11 C5 1.4200 . ?
N11 C2 1.4200 . ?
C5 H5 0.9500 . ?
C5 C15 1.4200 . ?
C15 H15 0.9500 . ?
C15 N5 1.4200 . ?
N5 H5A 0.8800 . ?
N5 C2 1.4200 . ?
C2 H2 0.9500 . ?
N23 H23 0.8800 . ?
N23 C7 1.4200 . ?
N23 C19 1.4200 . ?
C7 H7 0.9500 . ?
C7 N17 1.4200 . ?
N17 C3 1.4200 . ?
C3 H3 0.9500 . ?
C3 C19 1.4200 . ?
C19 H19 0.9500 . ?
C1 C6 1.49(2) . ?
C4B H4BA 0.9800 . ?
C4B H4BB 0.9800 . ?
C4B H4BC 0.9800 . ?
C4B C10A 1.519(10) . ?
C6 H6 1.0000 . ?
C6 N7 1.48(2) . ?
C6 C9 1.41(3) . ?
C10B H10B 1.0000 . ?
C10B C4A 1.521(11) . ?
N7 H7A 0.9100 . ?
N7 H7B 0.9100 . ?
C9 H9A 0.9800 . ?
C9 H9B 0.9800 . ?
C9 H9C 0.9800 . ?
Cl3 O2 1.452(10) . ?
Cl3 O2 1.452(10) 2_655 ?
Cl3 O2 1.452(10) 3_665 ?
Cl3 O7 1.441(14) . ?
C12 O15 1.29(2) 3_675 ?
C12 O15 1.29(2) . ?
C12 O15 1.29(2) 10_776 ?
C12 O15 1.29(2) 11_566 ?
C12 O15 1.29(2) 2_765 ?
C12 O15 1.29(2) 12_656 ?
O15 O15 1.39(3) 11_566 ?
O15 O15 1.39(2) 12_656 ?
O11 H11 0.9500 . ?
C10A H10A 1.0000 . ?
C4A H4AA 0.9800 . ?
C4A H4AB 0.9800 . ?
C4A H4AC 0.9800 . ?
loop_
_geom_hbond_atom_site_label_D
_geom_hbond_atom_site_label_H
_geom_hbond_atom_site_label_A
_geom_hbond_distance_DH
_geom_hbond_distance_HA
_geom_hbond_distance_DA
_geom_hbond_angle_DHA
_geom_hbond_site_symmetry_A
_geom_hbond_publ_flag
O4 H4 O19 1.00 1.89 2.887(17) 172.2 12_656 yes
loop_
_geom_torsion_atom_site_label_1
_geom_torsion_atom_site_label_2
_geom_torsion_atom_site_label_3
_geom_torsion_atom_site_label_4
_geom_torsion
_geom_torsion_site_symmetry_1
_geom_torsion_site_symmetry_2
_geom_torsion_site_symmetry_3
_geom_torsion_site_symmetry_4
_geom_torsion_publ_flag
Gd1 O6 C8 O3 -9(2) 11_566 . . . ?
Gd1 O6 C8 C10B -176.9(16) 11_566 . . . ?
Gd1 O6 C8 C10A 151.0(13) 11_566 . . . ?
Gd1 O14 C1 O18 4(3) 11_566 . . . ?
Gd1 O14 C1 C6 -177.3(13) 11_566 . . . ?
Cu1 O3 C8 O6 9(2) . . . . ?
Cu1 O3 C8 C10B 176.6(16) . . . . ?
Cu1 O3 C8 C10A -151.0(14) . . . . ?
Cu4 O18 C1 O14 -2(2) 11_566 . . . ?
Cu4 O18 C1 C6 179.2(13) 11_566 . . . ?
Cu2 O6 C8 O3 174.7(11) . . . . ?
Cu2 O6 C8 C10B 7(2) . . . . ?
Cu2 O6 C8 C10A -24.9(18) . . . . ?
Cu2 N1 C10B C8 21(3) . . . . ?
Cu2 N1 C10B C4A 140(4) . . . . ?
Cu2 N1 C10A C8 -32(2) . . . . ?
Cu2 N1 C10A C4B -152(2) . . . . ?
Cu2 N17 C3 C19 -173.0(9) . . . . ?
Cu3 O14 C1 O18 -178.7(14) . . . . ?
Cu3 O14 C1 C6 0(2) . . . . ?
Cu3 N11 C5 C15 -176.4(11) . . . . ?
Cu3 N11 C2 N5 176.9(10) . . . . ?
O6 C8 C10B N1 -18(3) . . . . ?
O6 C8 C10B C4A -141(4) . . . . ?
O6 C8 C10A N1 37(2) . . . . ?
O6 C8 C10A C4B 159(2) . . . . ?
O3 C8 C10B N1 173.1(16) . . . . ?
O3 C8 C10B C4A 51(4) . . . . ?
O3 C8 C10A N1 -161.1(15) . . . . ?
O3 C8 C10A C4B -40(3) . . . . ?
O14 C1 C6 N7 8(3) . . . . ?
O14 C1 C6 C9 139(2) . . . . ?
O18 C1 C6 N7 -173.3(17) . . . . ?
O18 C1 C6 C9 -43(3) . . . . ?
O24 Cu2 N17 C7 133.2(8) . . . . ?
O24 Cu2 N17 C3 -55.0(9) . . . . ?
O24 Cu3 N11 C5 56.1(11) . . . . ?
O24 Cu3 N11 C2 -120.0(8) . . . . ?
O26 Cu2 N17 C7 -134.0(8) . . . . ?
O26 Cu2 N17 C3 37.8(9) . . . . ?
N1 Cu2 N17 C7 -44.3(9) . . . . ?
N1 Cu2 N17 C3 127.5(9) . . . . ?
N11 C5 C15 N5 0.0 . . . . ?
C5 N11 C2 N5 0.0 . . . . ?
C5 C15 N5 C2 0.0 . . . . ?
C15 N5 C2 N11 0.0 . . . . ?
C2 N11 C5 C15 0.0 . . . . ?
N23 C7 N17 Cu2 173.0(9) . . . . ?
N23 C7 N17 C3 0.0 . . . . ?
C7 N23 C19 C3 0.0 . . . . ?
C7 N17 C3 C19 0.0 . . . . ?
N17 C3 C19 N23 0.0 . . . . ?
C19 N23 C7 N17 0.0 . . . . ?
C1 C6 N7 Cu3 -12(2) . . . . ?
O8 Cu3 N11 C5 -41.7(12) . . . . ?
O8 Cu3 N11 C2 142.3(10) . . . . ?
N7 Cu3 N11 C5 -124.7(12) . . . . ?
N7 Cu3 N11 C2 59.3(10) . . . . ?
C9 C6 N7 Cu3 -146(2) . . . . ?
O15 C12 O15 Cu4 -1.7(7) 12_656 . . 12_656 ?
O15 C12 O15 Cu4 178.2(8) 2_765 . . . ?
O15 C12 O15 Cu4 -140(3) 11_566 . . 12_656 ?
O15 C12 O15 Cu4 40(3) 2_765 . . 12_656 ?
O15 C12 O15 Cu4 136(3) 12_656 . . . ?
O15 C12 O15 Cu4 178.3(7) 3_675 . . 12_656 ?
O15 C12 O15 Cu4 -1.8(8) 11_566 . . . ?
O15 C12 O15 Cu4 -44(3) 3_675 . . . ?
O15 C12 O15 O15 180.000(8) 3_675 . . 12_656 ?
O15 C12 O15 O15 -42(3) 3_675 . . 11_566 ?
O15 C12 O15 O15 138(3) 12_656 . . 11_566 ?
O15 C12 O15 O15 -138(3) 11_566 . . 12_656 ?
O15 C12 O15 O15 42(3) 2_765 . . 12_656 ?
O15 C12 O15 O15 180.000(11) 2_765 . . 11_566 ?
O11 Cu2 N17 C7 48.4(9) . . . . ?
O11 Cu2 N17 C3 -139.7(9) . . . . ?
O11 Cu3 N11 C5 140.4(11) . . . . ?
O11 Cu3 N11 C2 -35.6(9) . . . . ?
loop_
_platon_squeeze_void_nr
_platon_squeeze_void_average_x
_platon_squeeze_void_average_y
_platon_squeeze_void_average_z
_platon_squeeze_void_volume
_platon_squeeze_void_count_electrons
_platon_squeeze_void_content
1 0.000 0.000 0.000 1482 483 ' '
2 0.000 0.000 0.288 105 41 ' '
3 0.000 0.500 0.500 12 6 ' '
4 0.000 1.000 0.712 106 41 ' '
5 0.333 0.667 0.667 1481 482 ' '
6 0.167 0.333 0.833 12 7 ' '
7 0.167 0.833 0.833 12 6 ' '
8 0.333 0.667 0.378 106 41 ' '
9 0.333 0.667 0.955 105 41 ' '
10 0.333 0.167 0.167 13 7 ' '
11 0.667 0.333 0.333 1482 483 ' '
12 0.500 0.000 0.500 12 6 ' '
13 0.500 0.500 0.500 12 6 ' '
14 0.667 0.333 0.045 105 41 ' '
15 0.667 0.333 0.622 107 41 ' '
16 0.667 0.833 0.833 12 6 ' '
17 0.833 0.667 0.167 12 6 ' '
18 0.833 0.167 0.167 12 7 ' '
loop_
_exptl_oxdiff_crystal_face_indexfrac_h
_exptl_oxdiff_crystal_face_indexfrac_k
_exptl_oxdiff_crystal_face_indexfrac_l
_exptl_oxdiff_crystal_face_x
_exptl_oxdiff_crystal_face_y
_exptl_oxdiff_crystal_face_z
-5.5475 4.4870 -33.3135 -0.9452 0.0241 0.3256
5.5475 -4.4870 33.3135 0.9452 -0.0241 -0.3256
0.3057 11.0615 4.4228 -0.3583 0.0096 -0.9336
-0.3057 -11.0615 -4.4228 0.3583 -0.0096 0.9336
10.5699 -10.7491 -12.2889 0.2575 -0.8665 0.4276
-12.3736 8.7746 7.9983 -0.2823 0.9507 -0.1284
11.6764 -1.0262 4.6176 0.2297 -0.7759 -0.5876
-1.6251 10.7501 17.1463 -0.0855 0.2853 -0.9546
-9.4324 -2.5402 -9.3805 -0.1686 0.5704 0.8039
4.3752 -11.5158 -16.9375 0.1423 -0.4768 0.8674
-4.9858 -2.0002 -31.0194 -0.6241 0.0191 0.7776
3.0101 -3.9968 -35.0124 -0.5678 -0.5880 0.5593
4.9986 1.0043 -32.0103 -0.6942 -0.7039 0.0282
-5.9861 -6.0042 17.0035 0.5692 0.6183 0.5888
-4.0075 2.9962 36.0121 0.6231 0.6711 -0.4400
