#------------------------------------------------------------------------------
#$Date: 2024-02-04 13:34:59 +0200 (Sun, 04 Feb 2024) $
#$Revision: 289431 $
#$URL: file:///home/coder/svn-repositories/cod/cif/1/57/05/1570539.cif $
#------------------------------------------------------------------------------
#
# This file is available in the Crystallography Open Database (COD),
# http://www.crystallography.net/
#
# All data on this site have been placed in the public domain by the
# contributors.
#
data_1570539
loop_
_publ_author_name
'Hasebe, Shodai'
'Hagiwara, Yuki'
'Ueno, Takashi'
'Asahi, Toru'
'Koshima, Hideko'
_publ_section_title
;
 Negative to positive axial thermal expansion switching of an organic
 crystal: contribution to multistep photoactuation.
;
_journal_issue                   3
_journal_name_full               'Chemical science'
_journal_page_first              1088
_journal_page_last               1097
_journal_paper_doi               10.1039/d3sc04796b
_journal_volume                  15
_journal_year                    2024
_chemical_formula_moiety         'C21 H26 N2 O3'
_chemical_formula_sum            'C21 H26 N2 O3'
_chemical_formula_weight         354.44
_space_group_crystal_system      triclinic
_space_group_IT_number           2
_space_group_name_Hall           '-P 1'
_space_group_name_H-M_alt        'P -1'
_atom_sites_solution_hydrogens   geom
_atom_sites_solution_primary     dual
_audit_creation_date             2022-06-06
_audit_creation_method
;
Olex2 1.5
(compiled 2022.04.07 svn.rca3783a0 for OlexSys, GUI svn.r6498)
;
_audit_update_record
;
2023-08-31 deposited with the CCDC.	2023-12-11 downloaded from the CCDC.
;
_cell_angle_alpha                101.124(7)
_cell_angle_beta                 92.180(6)
_cell_angle_gamma                101.408(7)
_cell_formula_units_Z            2
_cell_length_a                   6.0394(8)
_cell_length_b                   10.3207(13)
_cell_length_c                   16.801(2)
_cell_measurement_reflns_used    7456
_cell_measurement_temperature    305.15
_cell_measurement_theta_max      68.055
_cell_measurement_theta_min      4.465
_cell_volume                     1004.1(2)
_computing_molecular_graphics    'Olex2 1.5 (Dolomanov et al., 2009)'
_computing_publication_material  'Olex2 1.5 (Dolomanov et al., 2009)'
_computing_structure_refinement  'SHELXL 2014/6 (Sheldrick, 2015)'
_computing_structure_solution    'SHELXT 2014/4 (Sheldrick, 2014)'
_diffrn_ambient_temperature      305.15
_diffrn_detector_area_resol_mean 10
_diffrn_measured_fraction_theta_full 0.978
_diffrn_measured_fraction_theta_max 0.975
_diffrn_measurement_device_type  RAPID
_diffrn_measurement_method       '\w scans'
_diffrn_radiation_type           CuK\a
_diffrn_radiation_wavelength     1.54187
_diffrn_reflns_av_R_equivalents  0.0680
_diffrn_reflns_av_unetI/netI     0.0690
_diffrn_reflns_Laue_measured_fraction_full 0.978
_diffrn_reflns_Laue_measured_fraction_max 0.975
_diffrn_reflns_limit_h_max       7
_diffrn_reflns_limit_h_min       -7
_diffrn_reflns_limit_k_max       12
_diffrn_reflns_limit_k_min       -12
_diffrn_reflns_limit_l_max       20
_diffrn_reflns_limit_l_min       -20
_diffrn_reflns_number            11160
_diffrn_reflns_point_group_measured_fraction_full 0.978
_diffrn_reflns_point_group_measured_fraction_max 0.975
_diffrn_reflns_theta_full        67.687
_diffrn_reflns_theta_max         68.054
_diffrn_reflns_theta_min         4.465
_exptl_absorpt_coefficient_mu    0.630
_exptl_absorpt_correction_T_max  1
_exptl_absorpt_correction_T_min  0.6342
_exptl_absorpt_correction_type   multi-scan
_exptl_absorpt_process_details   ABSCOR(Rigaku,1995)
_exptl_crystal_colour            'clear yellowish yellow'
_exptl_crystal_colour_lustre     clear
_exptl_crystal_colour_modifier   yellowish
_exptl_crystal_colour_primary    yellow
_exptl_crystal_density_diffrn    1.172
_exptl_crystal_description       prism
_exptl_crystal_F_000             380
_exptl_crystal_size_max          1
_exptl_crystal_size_mid          0.6
_exptl_crystal_size_min          0.3
_refine_diff_density_max         0.136
_refine_diff_density_min         -0.235
_refine_diff_density_rms         0.051
_refine_ls_extinction_method     none
_refine_ls_goodness_of_fit_ref   1.120
_refine_ls_hydrogen_treatment    constr
_refine_ls_matrix_type           full
_refine_ls_number_parameters     273
_refine_ls_number_reflns         3586
_refine_ls_number_restraints     72
_refine_ls_restrained_S_all      1.124
_refine_ls_R_factor_all          0.1284
_refine_ls_R_factor_gt           0.0802
_refine_ls_shift/su_max          0.000
_refine_ls_shift/su_mean         0.000
_refine_ls_structure_factor_coef Fsqd
_refine_ls_weighting_details
'w=1/[\s^2^(Fo^2^)+(0.0765P)^2^+0.1629P] where P=(Fo^2^+2Fc^2^)/3'
_refine_ls_weighting_scheme      calc
_refine_ls_wR_factor_gt          0.1901
_refine_ls_wR_factor_ref         0.2133
_reflns_Friedel_coverage         0.000
_reflns_number_gt                1930
_reflns_number_total             3586
_reflns_threshold_expression     'I > 2\s(I)'
_cod_data_source_file            d3sc04796b3.cif
_cod_data_source_block           32point0degC
_cod_depositor_comments
'Adding full bibliography for 1570536--1570543.cif.'
_cod_database_code               1570539
_shelxl_version_number           2014/6
_shelx_space_group_comment
;
The symmetry employed for this shelxl refinement is uniquely defined
by the following loop, which should always be used as a source of
symmetry information in preference to the above space-group names.
They are only intended as comments.
;
_shelx_estimated_absorpt_t_max   1
_shelx_estimated_absorpt_t_min   0.6342
_olex2_refinement_description
;
1. Fixed Uiso
 At 1.2 times of:
  All C(H) groups
 At 1.5 times of:
  All C(H,H,H) groups, All O(H) groups
2. Uiso/Uaniso restraints and constraints
C00I \\sim C1 \\sim C00R \\sim C2: within 2A with sigma of 0.04 and sigma for
terminal atoms of 0.08 within 2A
C00Q \\sim C00P \\sim C00I \\sim C00O: within 2A with sigma of 0.04 and sigma
for terminal atoms of 0.08 within 2A
3. Rigid body (RIGU) restrains
 C1, C00I, C00R, C2
 with sigma for 1-2 distances of 0.004 and sigma for 1-3 distances of 0.004
 C00I, C00P, C00O, C00Q
 with sigma for 1-2 distances of 0.004 and sigma for 1-3 distances of 0.004
4. Others
 Sof(C1)=Sof(H1A)=Sof(H1B)=Sof(H1C)=Sof(C2)=Sof(H2A)=Sof(H2B)=Sof(H2C)=
 Sof(C00R)=Sof(H00Y)=Sof(H)=Sof(HA)=1-FVAR(1)
 Sof(C00O)=Sof(H00P)=Sof(H00Q)=Sof(H00R)=Sof(C00P)=Sof(H00S)=Sof(H00T)=
 Sof(H00U)=Sof(C00Q)=Sof(H00V)=Sof(H00W)=Sof(H00X)=FVAR(1)
5.a Aromatic/amide H refined with riding coordinates:
 C008(H008), C00C(H00C), C00D(H00D), C00E(H00E), C00G(H00G), C00J(H00J),
 C00K(H00K)
5.b Idealised Me refined as rotating group:
 C00L(H00A,H00B,H00F), C00M(H00H,H00I,H00L), C00N(H00M,H00N,H00O), C00O(H00P,
 H00Q,H00R), C00P(H00S,H00T,H00U), C00Q(H00V,H00W,H00X), C1(H1A,H1B,H1C),
 C2(H2A,H2B,H2C), C00R(H00Y,H,HA)
5.c Idealised tetrahedral OH refined as rotating group:
 O001(H001)
;
_shelx_res_file
;
TITL shelxt_a_a.res in P-1
REM Old TITL SHELXT_a.res in P-1
REM SHELXT solution in P-1
REM R1 0.265, Rweak 0.091, Alpha 0.051, Orientation as input
REM Formula found by SHELXT: C23 O2 N
CELL 1.54187 6.0394 10.3207 16.801 101.124 92.18 101.408
ZERR 2 0.0008 0.0013 0.0021 0.007 0.006 0.007
LATT 1
SFAC C H N O
UNIT 42 52 4 6
SIMU C00I C1 C00R C2
RIGU C1 C00I C00R C2
RIGU C00I C00P C00O C00Q
SIMU C00Q C00P C00I C00O

L.S. 10
PLAN  5
BOND $H
list 4
fmap 2
ACTA
OMIT 7 -4 4
REM <olex2.extras>
REM <HklSrc "%.\\SHELXT_a.hkl">
REM </olex2.extras>

WGHT    0.076500    0.162900
FVAR       0.91390   0.78035
O001  4    0.352926    0.398651    0.316559    11.00000    0.09369    0.07007 =
         0.08552    0.03209    0.03024    0.01784
AFIX 147
H001  2    0.276262    0.442672    0.345505    11.00000   -1.50000
AFIX   0
N002  3    0.190011    0.606401    0.381309    11.00000    0.07623    0.07151 =
         0.06818    0.01800    0.01560    0.01399
N3    3    0.154677    0.986527    0.601143    11.00000    0.11796    0.07518 =
         0.07640    0.01884    0.01005    0.01951
O004  4    0.355928    1.028688    0.597589    11.00000    0.12398    0.10247 =
         0.11818   -0.00214    0.01891   -0.01880
O5    4    0.038718    1.044271    0.647560    11.00000    0.15128    0.10281 =
         0.10708   -0.00904    0.01564    0.04133
C006  1    0.462235    0.474716    0.266637    11.00000    0.07073    0.05885 =
         0.06286    0.02249    0.00586    0.00795
C007  1    0.443555    0.609803    0.274497    11.00000    0.07179    0.06049 =
         0.05932    0.01527    0.00981    0.01280
C008  1    0.306515    0.670723    0.333678    11.00000    0.07761    0.06488 =
         0.06751    0.01631    0.00745    0.01608
AFIX  43
H008  2    0.302926    0.761332    0.337284    11.00000   -1.20000
AFIX   0
C009  1    0.690207    0.637118    0.166221    11.00000    0.07369    0.05893 =
         0.06256    0.01818    0.00873    0.01190
C00A  1    0.070538    0.676011    0.440069    11.00000    0.07177    0.06627 =
         0.06245    0.01954    0.01063    0.01274
C00B  1    0.595797    0.417879    0.209516    11.00000    0.07058    0.05990 =
         0.06384    0.01938    0.00676    0.01636
C00C  1    0.559123    0.687935    0.224178    11.00000    0.08104    0.05475 =
         0.06725    0.01816    0.00975    0.01373
AFIX  43
H00C  2    0.546918    0.777664    0.230111    11.00000   -1.20000
AFIX   0
C00D  1    0.704042    0.501588    0.161123    11.00000    0.07548    0.06375 =
         0.06344    0.01855    0.01140    0.01600
AFIX  43
H00D  2    0.792644    0.465146    0.122293    11.00000   -1.20000
AFIX   0
C00E  1    0.169985    0.798586    0.489487    11.00000    0.07061    0.06869 =
         0.06934    0.02394    0.00986    0.01103
AFIX  43
H00E  2    0.318413    0.840114    0.484056    11.00000   -1.20000
AFIX   0
C00F  1    0.044121    0.857985    0.547070    11.00000    0.08450    0.06349 =
         0.06287    0.01898    0.00865    0.01444
C00G  1   -0.150136    0.616680    0.450084    11.00000    0.08236    0.07224 =
         0.07122    0.01742    0.01060    0.00779
AFIX  43
H00G  2   -0.216556    0.533222    0.417686    11.00000   -1.20000
AFIX   0
C00H  1    0.621854    0.270771    0.200423    11.00000    0.08082    0.05675 =
         0.08162    0.02301    0.00986    0.01545
C00I  1    0.816690    0.719648    0.109680    11.00000    0.08514    0.06530 =
         0.07011    0.02620    0.01781    0.01240
C00J  1   -0.175471    0.801952    0.556715    11.00000    0.09005    0.08370 =
         0.06916    0.02391    0.02047    0.02834
AFIX  43
H00J  2   -0.256920    0.845239    0.595487    11.00000   -1.20000
AFIX   0
C00K  1   -0.272631    0.679144    0.507142    11.00000    0.07543    0.09338 =
         0.08065    0.02115    0.01764    0.01412
AFIX  43
H00K  2   -0.421680    0.638535    0.512407    11.00000   -1.20000
AFIX   0
C00L  1    0.390421    0.174011    0.178973    11.00000    0.10297    0.06080 =
         0.11693    0.01663    0.00537    0.01091
AFIX 137
H00A  2    0.292406    0.193316    0.221375    11.00000   -1.50000
H00B  2    0.409320    0.082602    0.173564    11.00000   -1.50000
H00F  2    0.324650    0.185537    0.128549    11.00000   -1.50000
AFIX   0
C00M  1    0.729876    0.250646    0.280360    11.00000    0.10611    0.08675 =
         0.10285    0.04002    0.00014    0.03074
AFIX 137
H00H  2    0.875100    0.310946    0.293495    11.00000   -1.50000
H00I  2    0.748506    0.159068    0.274088    11.00000   -1.50000
H00L  2    0.633427    0.269365    0.323376    11.00000   -1.50000
AFIX   0
C00N  1    0.777054    0.234159    0.133552    11.00000    0.13082    0.07594 =
         0.11567    0.03427    0.04587    0.04892
AFIX 137
H00M  2    0.712228    0.243139    0.082343    11.00000   -1.50000
H00N  2    0.793224    0.142645    0.130307    11.00000   -1.50000
H00O  2    0.923109    0.293718    0.146041    11.00000   -1.50000
AFIX   0
PART 1
C00O  1    0.767865    0.859971    0.120890    21.00000    0.16043    0.08004 =
         0.12701    0.05304    0.05713    0.03276
AFIX 137
H00P  2    0.813602    0.907441    0.175855    21.00000   -1.50000
H00Q  2    0.608492    0.853564    0.109878    21.00000   -1.50000
H00R  2    0.850512    0.907969    0.084052    21.00000   -1.50000
AFIX   0
C00P  1    0.745648    0.648261    0.021104    21.00000    0.14215    0.10287 =
         0.07579    0.03828    0.01685    0.00888
AFIX 137
H00S  2    0.828677    0.698935   -0.014459    21.00000   -1.50000
H00T  2    0.586291    0.641816    0.010023    21.00000   -1.50000
H00U  2    0.777436    0.559276    0.012218    21.00000   -1.50000
AFIX   0
C00Q  1    1.069841    0.731509    0.125845    21.00000    0.08564    0.13515 =
         0.14952    0.07465    0.01760    0.00446
AFIX 137
H00V  2    1.103326    0.642934    0.116903    21.00000   -1.50000
H00W  2    1.116219    0.776881    0.181153    21.00000   -1.50000
H00X  2    1.149953    0.782208    0.089695    21.00000   -1.50000
AFIX   0
PART 2
C1    1    0.643934    0.774358    0.061301   -21.00000    0.10172    0.10851 =
         0.09095    0.05617    0.02113    0.00786
AFIX 137
H1A   2    0.723259    0.830335    0.027585   -21.00000   -1.50000
H1B   2    0.562787    0.826553    0.098655   -21.00000   -1.50000
H1C   2    0.539007    0.699993    0.027770   -21.00000   -1.50000
AFIX   0
C2    1    0.988340    0.850651    0.165584   -21.00000    0.09548    0.08665 =
         0.09590    0.03094    0.01527    0.00620
AFIX 137
H2A   2    1.087659    0.820918    0.200881   -21.00000   -1.50000
H2B   2    0.901865    0.906923    0.197694   -21.00000   -1.50000
H2C   2    1.076410    0.901131    0.131045   -21.00000   -1.50000
AFIX   0
C00R  1    0.962899    0.647540    0.053391   -21.00000    0.13323    0.09815 =
         0.11113    0.03754    0.05438    0.02455
AFIX 137
H00Y  2    1.083956    0.628370    0.084873   -21.00000   -1.50000
H     2    1.024981    0.703864    0.016963   -21.00000   -1.50000
HA    2    0.872720    0.564541    0.022550   -21.00000   -1.50000
AFIX   0
HKLF 4

REM  shelxt_a_a.res in P-1
REM R1 =  0.0802 for    1930 Fo > 4sig(Fo)  and  0.1284 for all    3586 data
REM    273 parameters refined using     72 restraints

END

WGHT      0.0765      0.1622

REM Highest difference peak  0.136,  deepest hole -0.235,  1-sigma level  0.051
Q1    1  -0.2710  0.6156  0.3749  11.00000  0.05    0.14
Q2    1  -0.5270  0.6104  0.4852  11.00000  0.05    0.13
Q3    1  -0.2844  0.7374  0.3725  11.00000  0.05    0.13
Q4    1   1.0739  0.5492  0.2046  11.00000  0.05    0.13
Q5    1   1.2196  0.6519  0.1634  11.00000  0.05    0.12
;
_shelx_res_checksum              54840
_shelx_hkl_file
;
   0   0   2  244.00    8.95
   0   0   2  235.07    8.56
   0   0   2  236.67    8.17
   0   0   2  262.69    9.71
   0   0   2  237.56    8.76
   0   0  -2  260.81    9.78
   0   0  -2  231.89    8.50
   0   0  -2  241.44    8.57
   0   0  -2  223.61    9.44
   0   0  -2  232.80    9.46
   0   0   3 1468.21  109.61
   0   0   3 1543.83  117.46
   0   0   3 1495.10  111.44
   0   0   3 1598.21  123.24
   0   0   3 1483.00  113.94
   0   0  -3 1518.33  114.24
   0   0  -3 1474.86  115.67
   0   0  -3 1471.57  111.46
   0   0  -3 1538.05  121.48
   0   0  -3 1578.71  125.61
   0   0   4  406.69   18.68
   0   0   4  428.47   19.53
   0   0   4  410.44   21.20
   0   0   4  377.89   19.27
   0   0  -4  432.81   20.13
   0   0  -4  409.99   22.65
   0   0  -4  367.96   17.99
   0   0  -4  424.52   21.51
   0   0  -4  422.16   21.83
   0   0   5   15.92    1.33
   0   0   5   17.60    1.43
   0   0   5   13.99    2.32
   0   0   5   15.52    2.07
   0   0  -5   17.13    1.30
   0   0  -5   12.98    1.60
   0   0  -5   14.57    1.40
   0   0  -5   15.45    1.51
   0   0   6  155.79    6.09
   0   0   6  169.54    6.64
   0   0   6  172.76   11.00
   0   0   6  162.22    9.71
   0   0  -6  193.68    8.75
   0   0  -6  175.27    9.68
   0   0  -6  181.38    8.99
   0   0  -6  184.01    9.23
   0   0   7  167.96    6.67
   0   0   7  177.14    7.43
   0   0   7  168.03    9.60
   0   0   7  175.82    8.95
   0   0  -7  184.69    9.34
   0   0  -7  171.52    8.59
   0   0  -7  178.07    9.76
   0   0  -7  181.56   10.09
   0   0   8    1.97    0.72
   0   0   8    3.76    0.61
   0   0   8    3.23    1.24
   0   0   8    2.91    1.06
   0   0  -8    3.01    1.09
   0   0  -8    2.29    0.90
   0   0  -8    3.59    1.22
   0   0  -8    3.08    1.28
   0   0   9    3.06    1.11
   0   0   9    3.53    1.41
   0   0   9    3.77    1.20
   0   0  -9    3.25    2.02
   0   0  -9    3.72    1.02
   0   0  -9    2.69    2.41
   0   0  10    4.34    1.34
   0   0  10    5.48    1.71
   0   0  10    4.44    1.45
   0   0 -10    5.80    3.03
   0   0 -10    4.29    2.14
   0   0 -10    6.39    3.05
   0   0  11    3.35    1.84
   0   0 -11    4.25    1.93
   0   0 -11    5.36    1.98
   0   0  12    2.45    3.50
   0   0 -12    5.05    2.09
   0   0 -12    3.56    2.15
   0   0  13    6.09    2.82
   0   0 -13    9.79    2.75
   0   0 -13    7.53    2.91
   0   0  14    0.64    1.69
   0   0 -14    0.76    1.65
   0   0 -14    0.17    1.73
   0   0  15    1.12    1.84
   0   0 -15   -0.16    2.86
   0   0 -15    0.21    3.10
   0   0  16   -0.72    1.86
   0   0 -16    0.70    1.91
   0   0 -16    1.32    1.80
   0   0  17   22.69    8.14
   0   0 -17   27.39    5.27
   0   0 -17   24.11    5.22
   0   0  18   41.29    6.80
   0   0 -18   51.45    6.76
   0   0 -18   52.49    7.09
   0   0  19    2.50    1.77
   0   0 -19    0.06    2.59
   0   1 -20    2.50    3.20
   0  -1  20    3.72    1.85
   0   1 -19   45.96    5.99
   0   1 -19   44.09    5.97
   0  -1  19   31.28    5.70
   0   1 -18    8.32    3.32
   0   1 -18    6.88    3.09
   0  -1  18    6.25    4.98
   0   1 -17   54.25    8.06
   0   1 -17   41.20   11.46
   0  -1  17   40.71    7.33
   0   1 -16    8.20    5.39
   0   1 -16    7.35    3.33
   0  -1  16    7.32    3.26
   0   1 -15    1.69    1.84
   0   1 -15    0.23    1.89
   0  -1  15   -0.10    1.82
   0   1 -14   13.78    3.50
   0   1 -14   10.10    3.52
   0  -1  14    8.27    5.15
   0   1 -13   36.72    5.22
   0   1 -13   35.79    5.20
   0  -1  13   27.73    4.81
   0   1 -12    2.02    1.73
   0   1 -12    2.11    2.78
   0  -1  12    0.60    1.59
   0   1 -11    2.94    3.03
   0   1 -11    2.78    1.72
   0  -1  11    2.53    1.57
   0   1 -10    0.96    1.69
   0   1 -10    0.16    0.89
   0   1 -10    1.03    1.17
   0  -1  10    1.13    1.09
   0  -1  10    0.06    1.13
   0  -1  10    0.59    1.65
   0   1  -9  173.59    9.93
   0   1  -9  170.63    9.05
   0   1  -9  138.68    7.67
   0   1  -9  179.86   10.78
   0  -1   9  139.76    6.60
   0  -1   9  170.53   13.72
   0  -1   9  158.67   10.04
   0  -1   9  165.37   11.84
   0   1  -8   96.73    4.98
   0   1  -8  108.08    6.18
   0   1  -8  110.66    5.57
   0   1  -8   89.04    4.69
   0   1  -8  114.17    6.76
   0  -1   8  101.40    3.82
   0  -1   8  101.03    3.96
   0  -1   8  104.63    6.59
   0  -1   8   91.11    6.09
   0  -1   8   96.71    7.60
   0   1  -7   38.13    3.08
   0   1  -7   41.69    2.78
   0   1  -7   40.25    2.48
   0   1  -7   35.32    2.03
   0   1  -7   43.81    4.72
   0  -1   7   37.56    1.52
   0  -1   7   39.64    2.31
   0  -1   7   40.41    3.05
   0  -1   7   36.14    2.93
   0  -1   7   34.51    2.52
   0   1  -6  469.38   23.84
   0   1  -6  453.39   24.16
   0   1  -6  464.10   23.68
   0   1  -6  407.65   20.85
   0   1  -6  421.63   23.08
   0  -1   6  415.36   19.46
   0  -1   6  449.35   20.90
   0  -1   6  449.54   24.83
   0  -1   6  385.67   22.26
   0  -1   6  393.81   21.43
   0   1  -5  302.16   15.03
   0   1  -5  302.64   14.08
   0   1  -5  313.12   13.86
   0   1  -5  283.49   12.36
   0   1  -5  297.67   14.10
   0  -1   5  263.11   10.88
   0  -1   5  286.01   12.30
   0  -1   5  322.33   17.78
   0  -1   5  279.74   13.99
   0  -1   5  270.33   12.80
   0   1  -4 2283.53  198.69
   0   1  -4 2203.49  197.89
   0   1  -4 1953.83  168.50
   0   1  -4 2171.62  191.02
   0  -1   4 1875.51  159.95
   0  -1   4 2215.20  186.74
   0  -1   4 2237.14  197.40
   0  -1   4 2054.46  183.69
   0  -1   4 1971.89  173.57
   0   1  -3 1134.88   73.20
   0   1  -3 1091.77   74.09
   0   1  -3 1063.28   68.98
   0   1  -3 1118.93   73.03
   0  -1   3 1128.49   71.32
   0  -1   3 1189.36   74.39
   0  -1   3 1232.93   80.70
   0  -1   3 1130.34   75.29
   0  -1   3 1134.67   76.75
   0   1  -2  654.14   34.39
   0   1  -2  619.81   32.04
   0   1  -2  671.19   33.99
   0   1  -2  739.67   38.58
   0   1  -2  699.83   35.87
   0  -1   2  816.21   40.59
   0  -1   2  710.65   36.39
   0  -1   2  736.79   40.07
   0  -1   2  719.22   37.02
   0   1  -1  697.46   33.81
   0   1  -1  485.73   22.76
   0   1  -1  689.56   31.80
   0   1  -1  621.58   30.08
   0   1  -1  633.94   31.19
   0  -1   1  637.84   29.83
   0  -1   1  628.99   30.06
   0  -1   1  626.16   30.33
   0  -1   1  612.53   29.41
   0   1   0 1101.55   64.49
   0   1   0 1069.42   62.55
   0   1   0 1104.96   65.99
   0   1   0 1102.84   66.59
   0  -1   0 1193.73   69.83
   0  -1   0 1132.46   66.86
   0  -1   0 1131.26   68.61
   0  -1   0 1112.06   66.03
   0   1   1  179.48    5.44
   0   1   1  175.07    6.13
   0   1   1  174.72    6.80
   0   1   1  172.10    5.80
   0  -1  -1  199.42    6.23
   0  -1  -1  161.48    4.49
   0  -1  -1  174.31    5.51
   0  -1  -1  187.35    6.24
   0  -1  -1  169.51    5.76
   0   1   2 1002.28   63.04
   0   1   2 1033.61   65.18
   0   1   2 1120.17   72.86
   0   1   2 1103.54   73.53
   0  -1  -2  970.24   60.23
   0  -1  -2 1133.22   71.91
   0  -1  -2 1110.42   71.70
   0  -1  -2 1102.87   71.64
   0   1   3  962.22   57.70
   0   1   3  920.65   59.43
   0   1   3  881.66   54.32
   0   1   3  935.85   63.88
   0   1   3  973.78   62.13
   0  -1  -3  845.81   52.28
   0  -1  -3  913.07   57.15
   0  -1  -3  985.35   65.87
   0  -1  -3  953.07   61.59
   0   1   4  404.94   18.13
   0   1   4  412.01   19.71
   0   1   4  399.28   18.64
   0   1   4  381.46   22.31
   0   1   4  376.78   21.15
   0  -1  -4  398.92   18.97
   0  -1  -4  356.46   19.46
   0  -1  -4  433.02   21.87
   0  -1  -4  410.19   21.40
   0   1   5   80.89    2.90
   0   1   5   78.92    3.33
   0   1   5   77.31    3.18
   0   1   5   75.59    5.69
   0   1   5   74.70    3.80
   0  -1  -5   81.51    3.57
   0  -1  -5   81.67    3.91
   0  -1  -5   82.12    4.33
   0  -1  -5   82.99    4.46
   0   1   6   27.54    1.41
   0   1   6   35.55    2.55
   0   1   6   37.59    1.84
   0   1   6   34.16    4.07
   0   1   6   35.76    2.42
   0  -1  -6   36.95    2.20
   0  -1  -6   36.67    2.35
   0  -1  -6   37.16    4.10
   0  -1  -6   38.60    2.85
   0   1   7  292.07   14.14
   0   1   7  302.33   14.49
   0   1   7  337.02   16.43
   0   1   7  293.15   21.17
   0   1   7  327.20   17.97
   0  -1  -7  323.54   17.24
   0  -1  -7  309.69   17.00
   0  -1  -7  317.76   18.48
   0  -1  -7  341.43   20.02
   0   1   8    0.83    0.46
   0   1   8    0.96    0.61
   0   1   8    2.75    1.03
   0   1   8    0.97    1.85
   0   1   8    2.70    1.46
   0  -1  -8    1.26    1.40
   0  -1  -8    1.80    1.34
   0  -1  -8    0.57    1.03
   0  -1  -8    1.35    1.14
   0   1   9   94.44    6.49
   0   1   9   90.87   10.13
   0   1   9   88.70    6.00
   0  -1  -9  111.74    9.91
   0  -1  -9   92.30    6.23
   0  -1  -9   88.58    6.73
   0  -1  -9   95.87    7.55
   0   1  10   32.59    2.57
   0   1  10   32.79    4.40
   0   1  10   36.26    3.53
   0  -1 -10   39.32    3.88
   0  -1 -10   31.27    3.35
   0  -1 -10   34.91    4.10
   0  -1 -10   37.81    4.31
   0   1  11   16.79    1.95
   0   1  11   22.72    3.61
   0  -1 -11   24.87    3.23
   0  -1 -11   17.85    2.76
   0  -1 -11   22.13    3.59
   0   1  12    0.94    1.92
   0  -1 -12    2.54    1.75
   0  -1 -12    3.80    3.08
   0   1  13    3.80    2.62
   0  -1 -13    5.38    2.39
   0  -1 -13    8.90    4.23
   0   1  14   -0.77    1.77
   0  -1 -14   -0.04    2.54
   0  -1 -14    2.15    1.77
   0   1  15    4.00    5.19
   0  -1 -15    8.84    3.10
   0  -1 -15    6.40    3.19
   0   1  16   -1.80    4.85
   0  -1 -16    7.66    2.82
   0  -1 -16    6.20    3.03
   0   1  17    3.49    2.47
   0  -1 -17    3.74    2.27
   0  -1 -17    3.49    2.46
   0   1  18    8.99    2.81
   0  -1 -18    4.62    4.12
   0   1  19    0.47    1.32
   0   1  19   -1.41    1.20
   0   2 -20   19.93    4.51
   0   2 -20    7.45    2.60
   0  -2  20    6.45    2.54
   0   2 -19   28.54    4.84
   0   2 -19   22.13    4.66
   0  -2  19   18.69    7.06
   0   2 -18    0.52    2.22
   0   2 -18    2.11    3.37
   0  -2  18    1.72    1.99
   0   2 -17   28.35    9.51
   0   2 -17   21.02    5.38
   0  -2  17   26.07    5.33
   0   2 -16   -5.94    3.44
   0   2 -16    1.30    2.06
   0  -2  16   -2.01    3.29
   0   2 -15    0.53    1.69
   0   2 -15   -0.08    1.68
   0  -2  15    0.04    2.44
   0   2 -14   32.81    5.35
   0   2 -14   30.03    8.37
   0  -2  14   24.62    4.95
   0   2 -13    2.85    2.32
   0   2 -13    3.61    3.50
   0  -2  13    3.08    2.03
   0   2 -12  283.51   21.09
   0   2 -12  262.26   20.11
   0  -2  12  230.39   18.37
   0   2 -11   30.84    6.85
   0   2 -11   30.24    4.01
   0  -2  11   23.76    5.84
   0   2 -10   23.95    4.68
   0   2 -10   22.74    2.66
   0   2 -10   26.59    3.37
   0  -2  10   22.64    3.30
   0  -2  10   23.81    5.11
   0  -2  10   26.73    3.01
   0   2  -9   69.36    6.27
   0   2  -9   81.91    5.60
   0   2  -9   81.20    4.88
   0   2  -9   89.59    8.84
   0  -2   9   71.35    3.10
   0  -2   9   81.67    5.98
   0  -2   9   73.52    8.20
   0  -2   9   79.36    5.30
   0   2  -8  206.83   10.80
   0   2  -8  198.46   11.18
   0   2  -8  194.83   10.20
   0   2  -8  190.21   10.89
   0  -2   8  187.15    7.84
   0  -2   8  203.51    7.90
   0  -2   8  196.66   11.69
   0  -2   8  171.11   14.05
   0  -2   8  187.73   10.51
   0   2  -7   52.97    4.17
   0   2  -7   53.39    3.33
   0   2  -7   50.59    2.95
   0   2  -7   47.33    2.93
   0   2  -7   51.52    3.33
   0  -2   7   45.42    2.55
   0  -2   7   48.46    2.27
   0  -2   7   40.76    5.19
   0  -2   7   46.64    5.27
   0  -2   7   51.15    3.21
   0   2  -6  308.35   14.83
   0   2  -6  289.40   14.12
   0   2  -6  265.31   12.72
   0   2  -6  233.01   11.16
   0   2  -6  286.61   14.14
   0  -2   6  243.22   11.64
   0  -2   6  273.77   10.98
   0  -2   6  279.78   14.41
   0  -2   6  255.15   16.60
   0  -2   6  276.44   13.75
   0   2  -5 2670.91  270.10
   0   2  -5 2721.05  270.19
   0   2  -5 2619.74  258.54
   0   2  -5 2498.21  240.13
   0   2  -5 2631.50  267.07
   0  -2   5 2385.47  234.64
   0  -2   5 2851.94  274.76
   0  -2   5 2838.06  284.61
   0  -2   5 2495.41  254.52
   0  -2   5 2606.17  261.16
   0   2  -4 2960.56  287.40
   0   2  -4 2448.38  243.27
   0   2  -4 2372.81  229.62
   0   2  -4 2574.46  245.87
   0   2  -4 2851.22  279.94
   0   2  -4 2703.82  262.62
   0  -2   4 2427.27  232.17
   0  -2   4 2740.97  262.82
   0  -2   4 2556.40  253.93
   0  -2   4 2616.84  255.43
   0   2  -3 4461.32  542.80
   0   2  -3 3561.33  441.77
   0   2  -3 3858.82  467.45
   0   2  -3 4475.70  534.63
   0   2  -3 4940.97  605.80
   0   2  -3 4790.76  588.80
   0  -2   3 4384.50  529.55
   0  -2   3 4446.12  537.07
   0  -2   3 4479.17  552.70
   0  -2   3 4779.23  583.93
   0   2  -2  371.70   16.34
   0   2  -2  329.32   14.66
   0   2  -2  321.05   12.95
   0   2  -2  362.28   16.43
   0   2  -2  340.19   15.15
   0  -2   2  354.90   15.18
   0  -2   2  359.42   15.43
   0  -2   2  351.72   16.16
   0  -2   2  329.99   15.03
   0   2  -1   14.16    1.40
   0   2  -1   16.23    0.72
   0   2  -1   14.82    1.09
   0   2  -1   14.20    0.92
   0  -2   1   14.79    1.41
   0  -2   1   14.97    0.93
   0  -2   1   15.58    1.07
   0  -2   1   13.51    1.01
   0   2   0 1352.80   90.32
   0   2   0 1273.20   85.02
   0   2   0 1311.33   90.13
   0   2   0 1271.83   87.01
   0  -2   0 1376.93   92.32
   0  -2   0 1326.20   91.04
   0  -2   0 1306.91   89.09
   0   2   1 1738.90  136.68
   0   2   1 1790.40  138.85
   0   2   1 1777.61  145.23
   0   2   1 1696.51  134.22
   0   2   1 1773.04  140.45
   0  -2  -1 1719.53  136.12
   0  -2  -1 1821.82  140.88
   0  -2  -1 1883.52  153.08
   0   2   2   20.71    1.54
   0   2   2   19.25    1.19
   0   2   2   18.02    1.42
   0   2   2   19.87    1.38
   0  -2  -2   21.37    1.22
   0  -2  -2   19.01    0.66
   0  -2  -2   18.41    1.76
   0  -2  -2   20.39    1.47
   0  -2  -2   18.78    1.39
   0   2   3  324.30   14.05
   0   2   3  319.02   16.41
   0   2   3  326.59   18.69
   0   2   3  332.50   18.34
   0  -2  -3  345.46   15.62
   0  -2  -3  343.21   16.05
   0  -2  -3  334.69   16.32
   0  -2  -3  322.54   16.12
   0   2   4   22.17    1.07
   0   2   4   24.29    1.62
   0   2   4   26.05    2.28
   0   2   4   23.41    1.98
   0   2   4   24.79    1.79
   0  -2  -4   20.53    1.59
   0  -2  -4   24.31    1.61
   0  -2  -4   24.30    1.84
   0  -2  -4   23.10    1.86
   0   2   5   78.80    3.10
   0   2   5   90.30    4.52
   0   2   5   96.18    5.57
   0   2   5   89.62    5.31
   0   2   5   93.22    6.77
   0  -2  -5   96.36    5.64
   0  -2  -5   81.92    4.24
   0  -2  -5   94.01    5.06
   0  -2  -5   86.15    6.92
   0   2   6    4.33    0.52
   0   2   6    5.58    1.42
   0   2   6    5.53    1.52
   0   2   6    4.04    1.35
   0   2   6    6.22    1.10
   0  -2  -6    7.05    1.64
   0  -2  -6    6.66    2.05
   0  -2  -6    4.77    1.25
   0  -2  -6    6.88    2.16
   0   2   7    1.69    0.68
   0   2   7    2.35    0.72
   0   2   7    3.35    0.83
   0   2   7    2.08    1.24
   0   2   7    2.44    1.03
   0  -2  -7    2.37    0.94
   0  -2  -7    3.06    1.07
   0  -2  -7    2.46    1.16
   0  -2  -7    2.69    1.99
   0   2   8   22.05    1.87
   0   2   8   17.10    2.78
   0   2   8   19.06    2.37
   0  -2  -8   20.23    2.22
   0  -2  -8   19.08    2.34
   0  -2  -8   19.19    4.08
   0  -2  -8   19.56    4.34
   0   2   9  392.47   23.01
   0   2   9  352.81   26.10
   0   2   9  383.36   28.95
   0  -2  -9  378.51   24.39
   0  -2  -9  362.76   27.79
   0  -2  -9  345.39   24.36
   0  -2  -9  365.16   31.06
   0   2  10    5.14    1.31
   0   2  10    5.66    2.14
   0  -2 -10    6.35    1.76
   0  -2 -10    6.69    1.92
   0  -2 -10    5.53    3.43
   0   2  11   24.08    2.70
   0   2  11   27.47    4.34
   0  -2 -11   30.23    3.58
   0  -2 -11   26.51    4.30
   0   2  12    5.88    4.95
   0  -2 -12   11.04    4.04
   0  -2 -12   10.11    3.06
   0   2  13   20.93    7.58
   0  -2 -13   29.59    7.20
   0  -2 -13   26.43    4.91
   0   2  14   70.69    9.38
   0  -2 -14   74.61    8.44
   0  -2 -14   81.34    9.83
   0   2  15   35.40    6.04
   0  -2 -15   36.04    6.16
   0   2  16   25.52    4.97
   0   2  17   11.96    3.28
   0   2  17    9.91    2.91
   0   2  18    3.25    3.25
   0   2  18    4.04    1.79
   0   3 -20   12.21    4.63
   0   3 -20    6.92    2.50
   0  -3  20   11.34    4.16
   0   3 -19    2.95    2.48
   0   3 -19    3.83    3.61
   0  -3  19    3.07    2.15
   0   3 -18    0.50    1.60
   0   3 -18   -0.19    1.47
   0  -3  18   -0.10    1.43
   0   3 -17   -5.34    4.98
   0   3 -17   -2.44    2.72
   0  -3  17   -5.76    4.37
   0   3 -16   13.37    6.43
   0   3 -16   12.92    4.07
   0  -3  16   11.17    3.63
   0   3 -15    2.32    2.48
   0   3 -15    1.91    4.12
   0  -3  15    3.09    2.16
   0   3 -14    8.06    3.13
   0   3 -14    7.37    2.93
   0  -3  14    6.18    2.79
   0   3 -13   21.45    4.46
   0   3 -13   23.99    4.36
   0  -3  13   22.33    4.12
   0   3 -12   41.67    5.31
   0   3 -12   38.13    5.19
   0  -3  12   34.24    7.65
   0   3 -11   57.07    9.14
   0   3 -11   53.28    5.61
   0  -3  11   45.43    5.38
   0   3 -10  509.63   32.86
   0   3 -10  493.07   38.24
   0   3 -10  471.26   34.82
   0   3 -10  501.20   39.04
   0  -3  10  413.02   25.39
   0  -3  10  502.35   35.55
   0  -3  10  457.26   33.10
   0  -3  10  471.63   37.03
   0   3  -9    3.52    1.99
   0   3  -9    3.72    1.35
   0   3  -9    1.86    1.80
   0   3  -9    3.94    1.32
   0  -3   9    2.35    0.63
   0  -3   9    2.86    1.44
   0  -3   9    2.76    1.44
   0  -3   9    3.68    2.11
   0   3  -8  251.15   13.99
   0   3  -8  232.25   13.44
   0   3  -8  218.62   12.03
   0   3  -8  252.01   14.06
   0  -3   8  230.30   10.64
   0  -3   8  224.11   13.87
   0  -3   8  212.49   13.53
   0  -3   8  224.74   16.07
   0   3  -7   59.02    3.72
   0   3  -7   49.87    3.33
   0   3  -7   48.27    2.95
   0   3  -7   39.77    1.74
   0   3  -7   55.64    5.15
   0  -3   7   49.85    2.36
   0  -3   7   48.21    1.96
   0  -3   7   56.57    3.84
   0  -3   7   47.67    3.76
   0  -3   7   54.94    5.37
   0   3  -6   21.92    1.86
   0   3  -6   21.04    1.73
   0   3  -6   16.96    1.49
   0   3  -6   18.22    0.98
   0   3  -6   22.43    1.82
   0  -3   6   18.70    1.28
   0  -3   6   20.23    1.10
   0  -3   6   20.35    2.12
   0  -3   6   18.37    2.11
   0  -3   6   24.86    2.04
   0   3  -5  405.32   20.82
   0   3  -5  336.81   16.95
   0   3  -5  311.83   15.49
   0   3  -5  396.53   20.79
   0   3  -5  364.11   18.43
   0  -3   5  336.28   16.23
   0  -3   5  362.76   16.88
   0  -3   5  346.76   22.09
   0  -3   5  363.95   19.07
   0   3  -4    2.91    1.21
   0   3  -4    2.66    0.50
   0   3  -4    3.47    0.94
   0   3  -4    5.06    1.29
   0  -3   4    3.05    0.64
   0  -3   4    3.33    0.58
   0  -3   4    2.71    0.90
   0  -3   4    2.29    0.84
   0   3  -3  563.30   30.05
   0   3  -3  454.29   23.07
   0   3  -3  479.49   24.70
   0   3  -3  565.69   30.93
   0   3  -3  536.51   28.53
   0  -3   3  562.16   30.89
   0  -3   3  538.81   28.08
   0  -3   3  543.27   30.29
   0  -3   3  557.21   33.27
   0   3  -2  296.61   13.27
   0   3  -2  247.58    9.40
   0   3  -2  277.43   11.33
   0   3  -2  278.21   12.99
   0   3  -2  290.96   15.06
   0  -3   2  291.04   14.39
   0  -3   2  305.89   15.25
   0  -3   2  264.24   12.37
   0   3  -1 1302.99   97.17
   0   3  -1 1366.46   88.82
   0   3  -1 1199.39   79.42
   0   3  -1 1531.29  112.55
   0   3  -1 1302.13   95.36
   0  -3   1 1409.36  101.77
   0  -3   1 1414.12  103.27
   0  -3   1 1515.59  111.03
   0  -3   1 1471.90  107.72
   0   3   0  932.28   57.33
   0   3   0  910.14   57.77
   0  -3   0  948.71   58.66
   0  -3   0  929.66   59.58
   0   3   1   50.38    2.20
   0   3   1   47.50    2.19
   0   3   1   52.77    2.79
   0   3   1   49.24    3.63
   0   3   1   48.89    2.61
   0  -3  -1   61.38    3.91
   0  -3  -1   54.51    4.10
   0   3   2   43.96    2.01
   0   3   2   43.03    2.23
   0   3   2   44.35    3.95
   0   3   2   42.03    2.41
   0   3   2   45.18    2.51
   0  -3  -2   49.37    2.44
   0  -3  -2   44.61    3.16
   0  -3  -2   47.33    2.74
   0   3   3 1500.91  121.51
   0   3   3 1549.30  128.41
   0   3   3 1624.39  138.70
   0   3   3 1563.34  131.97
   0   3   3 1692.89  143.08
   0  -3  -3 1651.30  125.57
   0  -3  -3 1901.98  156.32
   0  -3  -3 1686.46  146.67
   0   3   4  271.06   12.85
   0   3   4  314.20   16.73
   0   3   4  294.19   14.77
   0   3   4  292.53   16.61
   0   3   4  320.08   17.03
   0  -3  -4  282.02   13.24
   0  -3  -4  313.36   16.21
   0  -3  -4  305.93   16.79
   0   3   5   74.32    3.35
   0   3   5   81.70    6.30
   0   3   5   86.71    4.40
   0   3   5   82.54    5.37
   0   3   5   91.54    5.25
   0  -3  -5   79.17    3.44
   0  -3  -5   82.14    4.73
   0  -3  -5   88.09    7.31
   0  -3  -5   83.23    5.34
   0   3   6    1.41    0.51
   0   3   6    2.49    0.94
   0   3   6    3.74    0.91
   0   3   6    2.67    1.18
   0   3   6    2.63    1.78
   0  -3  -6    2.46    0.69
   0  -3  -6    1.93    2.03
   0  -3  -6    2.33    1.13
   0  -3  -6    2.96    1.16
   0   3   7   74.83    7.13
   0   3   7   93.43    5.38
   0   3   7   86.37    6.73
   0   3   7   90.03    5.84
   0  -3  -7   85.61    4.72
   0  -3  -7  105.47    6.74
   0  -3  -7   94.91    6.69
   0  -3  -7   91.81    6.74
   0   3   8  169.88    9.68
   0   3   8  141.69   11.20
   0   3   8  158.14   10.16
   0  -3  -8  144.06   10.75
   0  -3  -8  171.63   11.26
   0  -3  -8  152.30   10.98
   0  -3  -8  153.33   11.50
   0   3   9   71.32    5.05
   0   3   9   59.54    6.53
   0  -3  -9   70.47    6.08
   0  -3  -9   67.21    6.56
   0   3  10    5.79    1.53
   0   3  10    5.05    2.22
   0  -3 -10    5.26    2.22
   0   3  11   42.36    6.25
   0  -3 -11   42.21    5.99
   0   3  12   21.29    4.64
   0  -3 -12   24.10    4.00
   0  -3 -12   22.57    4.51
   0   3  13    3.57    2.73
   0  -3 -13    5.80    2.11
   0   3  14   -1.21    2.02
   0   3  15   -2.22    2.09
   0   3  15   -1.18    1.84
   0   3  16   -0.08    2.51
   0   3  16   -0.47    1.34
   0   3  17    0.83    1.24
   0   3  17   -1.07    1.10
   0   3  18    4.51    1.71
   0   4 -20   -2.64    2.31
   0   4 -20   -0.97    1.26
   0  -4  20    0.62    1.21
   0   4 -19    0.60    1.82
   0  -4  19    1.24    1.62
   0   4 -18    5.13    2.78
   0   4 -18    4.29    2.51
   0  -4  18    3.12    2.51
   0   4 -17   35.41    6.39
   0   4 -17   32.58    5.91
   0  -4  17   25.00    8.33
   0   4 -16   19.99    7.58
   0   4 -16   23.82    4.95
   0  -4  16   19.05    4.51
   0   4 -15   30.33    5.53
   0   4 -15   32.31    8.88
   0  -4  15   26.98    5.13
   0   4 -14    2.11    1.83
   0   4 -14    0.51    1.80
   0  -4  14   -0.17    1.69
   0   4 -13    6.97    2.80
   0   4 -13    6.65    2.75
   0  -4  13    5.50    4.17
   0   4 -12   17.22    3.57
   0   4 -12   16.96    3.50
   0  -4  12   15.90    3.37
   0   4 -11    4.36    1.92
   0   4 -11    4.08    2.84
   0  -4  11    2.50    1.90
   0   4 -10   77.15    8.96
   0   4 -10   96.34   11.17
   0   4 -10   87.43    7.07
   0   4 -10   81.01    6.64
   0  -4  10   74.11    4.41
   0  -4  10   81.35   10.50
   0  -4  10   81.67    6.85
   0   4  -9   29.73    3.29
   0   4  -9   23.97    4.61
   0   4  -9   28.77    5.20
   0   4  -9   32.12    3.31
   0  -4   9   27.69    3.16
   0  -4   9   27.90    3.44
   0  -4   9   24.53    5.58
   0  -4   9   28.40    3.33
   0   4  -8  467.40   29.96
   0   4  -8  367.15   27.35
   0   4  -8  452.39   32.51
   0   4  -8  436.81   27.24
   0  -4   8  424.54   26.58
   0  -4   8  413.09   27.23
   0  -4   8  371.75   30.74
   0  -4   8  409.62   26.66
   0   4  -7   34.79    2.97
   0   4  -7   30.57    2.61
   0   4  -7   36.76    4.40
   0   4  -7   36.49    2.81
   0  -4   7   31.42    3.16
   0  -4   7   36.36    3.35
   0  -4   7   33.80    3.31
   0  -4   7   34.95    3.08
   0   4  -6  120.35    6.82
   0   4  -6   98.65    5.23
   0   4  -6  119.55    7.90
   0   4  -6  123.07    7.02
   0   4  -6  114.52    5.92
   0  -4   6  101.37    6.54
   0  -4   6  101.27    4.72
   0  -4   6  111.38    6.77
   0  -4   6  113.51    6.29
   0   4  -5   13.46    1.79
   0   4  -5    9.99    1.09
   0   4  -5   12.39    1.92
   0   4  -5   11.94    1.74
   0   4  -5   13.31    1.41
   0  -4   5   13.73    2.11
   0  -4   5   11.99    1.76
   0  -4   5   11.67    1.72
   0  -4   5   12.77    2.69
   0   4  -4   51.37    3.14
   0   4  -4   41.65    2.73
   0   4  -4   52.29    2.41
   0   4  -4   56.78    5.12
   0   4  -4   53.73    2.96
   0  -4   4   56.30    2.92
   0  -4   4   56.87    4.17
   0  -4   4   50.95    5.07
   0  -4   4   54.06    3.29
   0   4  -3   98.99    5.01
   0   4  -3   94.25    4.31
   0   4  -3   92.65    3.34
   0   4  -3  101.10    5.25
   0   4  -3   94.08    4.44
   0  -4   3  100.69    4.71
   0  -4   3   99.34    4.72
   0  -4   3   94.84    5.38
   0  -4   3   95.15    4.88
   0   4  -2   14.50    1.58
   0   4  -2   16.47    1.71
   0  -4   2   15.57    1.45
   0  -4   2   16.45    2.15
   0   4  -1  860.24   56.84
   0   4  -1  781.53   50.13
   0   4  -1  742.41   46.51
   0  -4   1  809.33   49.58
   0  -4   1  801.97   50.36
   0  -4   1  756.48   48.79
   0  -4   1  775.80   48.89
   0   4   0    2.03    1.11
   0   4   0    1.08    0.88
   0  -4   0    2.34    1.19
   0  -4   0    1.30    0.86
   0   4   1 1468.75  118.84
   0   4   1 1569.67  131.10
   0   4   1 1521.09  126.24
   0   4   1 1551.49  128.92
   0  -4  -1 1828.36  149.15
   0  -4  -1 1624.76  136.46
   0   4   2  134.09    6.59
   0   4   2  141.32    8.36
   0   4   2  138.22    9.96
   0   4   2  149.04    8.15
   0  -4  -2  164.10    8.56
   0  -4  -2  152.06    9.04
   0   4   3    5.73    0.90
   0   4   3    6.40    1.18
   0   4   3    6.72    1.47
   0   4   3    4.81    1.22
   0   4   3    6.72    1.32
   0  -4  -3    6.86    1.30
   0  -4  -3    6.13    2.22
   0   4   4  194.80    9.58
   0   4   4  234.21   13.35
   0   4   4  212.74   11.18
   0   4   4  212.29   15.82
   0   4   4  208.06   11.85
   0   4   4  235.85   12.72
   0  -4  -4  227.89   12.37
   0  -4  -4  229.30   12.99
   0   4   5    1.65    0.61
   0   4   5    1.71    1.00
   0   4   5    1.36    0.93
   0   4   5    2.73    1.91
   0   4   5    1.73    1.04
   0   4   5    0.73    1.02
   0  -4  -5    2.78    1.03
   0  -4  -5    1.51    1.09
   0   4   6   50.06    2.95
   0   4   6   59.39    4.84
   0   4   6   66.99    4.31
   0   4   6   61.07    5.29
   0   4   6   60.45    4.85
   0   4   6   70.86    7.05
   0  -4  -6   66.11    6.73
   0  -4  -6   67.29    7.49
   0   4   7   19.46    2.26
   0   4   7   17.94    2.86
   0   4   7   15.59    2.62
   0   4   7   16.06    2.35
   0  -4  -7   22.80    2.99
   0  -4  -7   17.53    2.85
   0   4   8    0.79    1.56
   0   4   8    2.66    1.43
   0   4   9   28.00    4.29
   0   4   9   22.84    3.87
   0   4  10  126.58   12.08
   0   4  10  104.35   10.92
   0   4  11   58.74    8.14
   0   4  11   48.66    7.26
   0  -4 -11   81.82    7.78
   0   4  12   29.59    5.53
   0   4  12   25.19    5.09
   0  -4 -12   39.35    4.90
   0   4  13   16.98    6.61
   0   4  13   14.59    3.70
   0  -4 -13   20.14    3.53
   0   4  14    9.02    5.21
   0   4  14   10.90    2.68
   0  -4 -14    5.39    2.33
   0   4  15    0.96    1.72
   0   4  15    1.27    1.49
   0   4  16    0.63    1.48
   0   4  16    2.05    2.07
   0   4  17   -0.33    1.05
   0   5 -19    0.53    1.59
   0   5 -19    0.63    1.48
   0  -5  19    0.75    1.45
   0   5 -18    1.17    2.07
   0   5 -18    2.50    1.95
   0  -5  18   -0.28    3.13
   0   5 -17   11.51    3.70
   0   5 -17    9.84    3.46
   0  -5  17    9.49    3.17
   0   5 -16   25.83    8.86
   0   5 -16   28.63    8.47
   0  -5  16   23.50    4.94
   0   5 -15   22.22    6.85
   0   5 -15   18.63    4.31
   0  -5  15   15.63    4.14
   0   5 -14    6.81    2.92
   0   5 -14    7.13    2.94
   0  -5  14    6.81    4.59
   0   5 -13    7.31    2.73
   0   5 -13    6.74    2.82
   0  -5  13    6.62    2.72
   0   5 -12    0.81    1.20
   0   5 -12   -0.02    2.09
   0  -5  12   -0.74    1.22
   0   5 -11    0.48    1.20
   0   5 -11    0.47    1.13
   0  -5  11   -0.53    1.22
   0   5 -10   49.43    5.23
   0   5 -10   49.49    5.06
   0   5 -10   51.93    4.91
   0  -5  10   41.87    3.42
   0  -5  10   50.27    7.79
   0   5  -9   62.02    5.81
   0   5  -9   55.30    5.11
   0   5  -9   49.64    4.70
   0   5  -9   56.84    5.05
   0  -5   9   57.76    3.95
   0  -5   9   56.89    5.49
   0  -5   9   55.78    7.69
   0   5  -8    9.67    3.12
   0   5  -8    7.58    1.71
   0   5  -8    6.47    1.58
   0   5  -8    8.97    2.83
   0  -5   8    8.79    1.42
   0  -5   8    8.38    2.12
   0  -5   8    9.36    3.39
   0   5  -7   10.08    2.00
   0   5  -7   10.48    1.61
   0   5  -7    7.31    1.45
   0   5  -7   10.23    1.68
   0  -5   7    9.83    1.48
   0  -5   7    9.51    2.09
   0  -5   7   11.07    2.03
   0   5  -6    4.32    1.53
   0   5  -6    4.02    1.00
   0   5  -6    3.55    0.91
   0   5  -6    4.49    1.48
   0   5  -6    3.33    1.17
   0  -5   6    6.15    1.12
   0  -5   6    4.00    0.92
   0  -5   6    2.67    2.38
   0  -5   6    4.45    1.41
   0   5  -5  131.46   10.80
   0   5  -5   88.91    4.79
   0   5  -5   96.44    4.70
   0   5  -5  126.26    7.28
   0   5  -5  114.88    7.93
   0  -5   5  120.57    6.23
   0  -5   5  111.89    5.84
   0  -5   5  109.71    7.00
   0  -5   5  119.23    6.92
   0   5  -4   17.95    3.14
   0   5  -4   15.46    1.10
   0   5  -4   14.70    1.71
   0   5  -4   20.12    3.47
   0   5  -4   18.12    1.77
   0  -5   4   18.34    1.80
   0  -5   4   14.85    2.52
   0  -5   4   17.93    2.14
   0  -5   4   20.70    3.24
   0   5  -3    1.75    0.79
   0   5  -3    0.23    0.39
   0   5  -3    0.35    0.36
   0   5  -3    0.17    0.64
   0  -5   3   -0.02    0.70
   0  -5   3    0.70    0.69
   0  -5   3   -0.01    0.80
   0   5  -2  184.72   10.00
   0   5  -2  190.13   10.25
   0   5  -2  181.38   11.85
   0  -5   2  170.00    9.06
   0  -5   2  195.09   13.02
   0  -5   2  180.60    9.62
   0   5  -1   18.58    2.09
   0  -5   1   17.93    3.11
   0  -5   1   16.64    2.00
   0   5   0  294.51   16.60
   0   5   0  267.46   18.44
   0   5   0  255.83   15.02
   0   5   0  271.53   16.73
   0  -5   0  345.71   19.52
   0  -5   0  305.02   17.62
   0  -5   0  271.79   21.84
   0   5   1 1158.11   93.71
   0   5   1 1117.95   90.07
   0   5   1 1055.36   82.50
   0   5   1 1089.47   91.68
   0  -5  -1 1237.61   96.08
   0  -5  -1 1230.13   96.21
   0  -5  -1 1175.86   93.44
   0   5   2   36.08    4.34
   0   5   2   36.32    5.31
   0   5   2   30.99    3.00
   0   5   2   33.37    3.09
   0  -5  -2   34.84    3.25
   0  -5  -2   39.22    3.55
   0  -5  -2   35.09    3.59
   0   5   3  323.37   21.44
   0   5   3  297.10   19.17
   0   5   3  284.52   18.30
   0   5   3  321.20   19.53
   0  -5  -3  341.91   21.23
   0  -5  -3  305.92   18.30
   0  -5  -3  307.51   22.83
   0   5   4   10.32    2.40
   0   5   4   11.27    2.14
   0   5   4   10.19    2.08
   0   5   4    9.76    2.95
   0   5   4    8.83    1.79
   0  -5  -4   11.10    1.92
   0  -5  -4   10.74    1.96
   0   5   5    2.61    1.65
   0   5   5    3.50    1.47
   0   5   5    3.59    1.49
   0   5   5    2.54    2.20
   0   5   5    3.09    1.34
   0  -5  -5    3.39    1.44
   0  -5  -5    3.10    1.41
   0   5   6    0.25    0.76
   0   5   6    1.39    2.03
   0   5   6    0.91    1.24
   0   5   6    0.49    1.08
   0   5   6    1.92    1.77
   0   5   7   -0.65    1.21
   0   5   7    0.89    1.07
   0   5   8   20.47    4.05
   0   5   8   18.13    3.62
   0  -5  -8   31.85    4.29
   0   5   9   16.11    3.69
   0   5   9   11.75    3.30
   0  -5  -9   23.53    4.39
   0   5  10    2.68    2.40
   0   5  10    3.67    2.18
   0  -5 -10    6.06    2.51
   0   5  11   -0.26    1.54
   0   5  11    0.54    1.36
   0  -5 -11    0.41    1.46
   0   5  12    2.25    2.32
   0   5  12    2.73    2.00
   0  -5 -12    4.00    2.10
   0   5  13    4.73    2.52
   0   5  13   -0.46    3.54
   0  -5 -13    9.19    3.65
   0   5  14    1.12    1.64
   0   5  14    0.79    1.41
   0  -5 -14    2.05    2.54
   0   5  15    0.93    1.32
   0   5  15    0.54    1.04
   0  -5 -15    0.48    1.07
   0   5  16    1.90    2.17
   0   6 -19    1.04    3.69
   0   6 -19    4.86    2.10
   0  -6  19    7.91    2.09
   0   6 -18   10.62    2.86
   0   6 -18   10.29    2.88
   0  -6  18    9.00    4.34
   0   6 -17    0.71    1.61
   0   6 -17   -1.48    1.61
   0  -6  17    1.94    1.49
   0   6 -16   11.90    3.71
   0   6 -16   16.68    5.81
   0  -6  16   12.63    3.48
   0   6 -15   34.29    6.09
   0   6 -15   40.40    6.07
   0  -6  15   34.62    8.80
   0   6 -14    1.67    3.59
   0   6 -14    0.79    2.13
   0  -6  14    3.25    2.08
   0   6 -13    0.45    2.27
   0   6 -13    1.05    1.50
   0  -6  13   -0.66    1.48
   0   6 -12   27.92    4.63
   0   6 -12   35.23    7.16
   0  -6  12   34.80    5.24
   0   6 -11   -0.56    2.03
   0   6 -11   -0.08    1.07
   0   6 -11   -0.10    1.11
   0  -6  11    0.94    2.01
   0   6 -10   67.22    7.03
   0   6 -10   44.52    5.45
   0   6 -10   64.91    6.00
   0  -6  10   60.95    6.48
   0   6  -9   92.81    8.25
   0   6  -9   57.01    5.78
   0   6  -9   52.40    7.49
   0   6  -9   84.08    6.61
   0  -6   9   83.89    7.17
   0   6  -8   21.53    5.23
   0   6  -8   19.89    4.27
   0  -6   8   23.69    3.25
   0   6  -7    2.55    1.52
   0   6  -7    2.00    1.15
   0  -6   7    2.37    1.11
   0  -6   7    1.33    1.48
   0  -6   7    1.03    1.41
   0   6  -6   17.38    2.94
   0   6  -6   19.42    2.73
   0   6  -6   15.45    2.12
   0  -6   6   16.22    2.18
   0  -6   6   15.64    2.64
   0  -6   6   17.02    4.07
   0   6  -5    4.19    1.68
   0   6  -5    4.14    1.53
   0   6  -5    3.10    1.90
   0  -6   5    3.07    1.26
   0  -6   5    3.27    1.19
   0  -6   5    3.42    1.51
   0  -6   5    3.06    1.41
   0   6  -4   20.63    4.17
   0   6  -4   40.33    5.00
   0   6  -4   20.19    2.43
   0  -6   4   21.11    2.43
   0  -6   4   19.09    3.92
   0  -6   4   26.30    4.78
   0  -6   4   19.85    2.66
   0   6  -3   54.53    4.59
   0  -6   3   59.47    6.17
   0  -6   3   51.23    4.05
   0  -6   3   52.45    4.29
   0   6  -2  582.36   40.52
   0   6  -2  589.22   43.51
   0   6  -2  590.88   41.42
   0  -6   2  700.77   53.32
   0  -6   2  590.14   41.07
   0  -6   2  756.23   51.10
   0   6  -1  216.66   13.67
   0   6  -1  188.15   13.02
   0   6  -1  250.10   16.25
   0  -6   1  244.46   15.39
   0  -6   1  239.04   18.82
   0   6   0   93.55    6.30
   0   6   0   94.21    6.83
   0   6   0   73.67    5.98
   0   6   0   88.32    9.02
   0  -6   0  105.50    7.28
   0  -6   0   91.97    6.52
   0  -6   0   95.57    6.87
   0   6   1    0.63    1.00
   0   6   1    0.16    1.17
   0   6   1    0.55    0.94
   0   6   1    0.92    1.00
   0  -6  -1    1.74    1.11
   0  -6  -1    1.47    1.16
   0  -6  -1    0.98    1.20
   0   6   2   -0.04    0.79
   0   6   2   -0.75    0.95
   0   6   2    0.55    1.37
   0   6   2    0.58    0.85
   0  -6  -2    0.21    1.00
   0  -6  -2    0.48    1.54
   0   6   3   45.28    4.05
   0   6   3   52.79    5.38
   0   6   3   45.33    7.21
   0   6   3   42.10    4.44
   0   6   3   46.34    6.53
   0  -6  -3   53.15    5.12
   0  -6  -3   47.35    4.63
   0   6   4    4.17    1.42
   0   6   4    4.87    2.06
   0   6   4    5.77    3.10
   0   6   4    4.20    1.68
   0   6   4    3.83    1.63
   0  -6  -4    8.01    2.07
   0   6   5   38.86    3.95
   0   6   5   48.90    5.51
   0   6   5   43.22    5.03
   0  -6  -5   61.39    5.97
   0   6   6   22.80    3.87
   0   6   6   15.64    3.38
   0  -6  -6   30.81    4.16
   0   6   7   12.73    3.25
   0   6   7    8.86    2.83
   0  -6  -7   18.12    3.46
   0   6   8    1.06    1.88
   0   6   8    1.64    1.64
   0  -6  -8    2.43    2.03
   0   6   9    1.75    2.11
   0   6   9    1.73    1.86
   0  -6  -9    4.22    2.27
   0   6  10   74.29   10.35
   0  -6 -10  108.45   10.53
   0   6  11    0.74    1.82
   0   6  11    0.31    1.56
   0  -6 -11    2.32    1.85
   0   6  12   25.61    4.92
   0  -6 -12   41.45    7.78
   0   6  13    0.06    2.22
   0   6  13   -0.08    1.09
   0  -6 -13   -1.24    1.48
   0   6  14    0.56    2.56
   0   6  14    1.47    1.82
   0  -6 -14    3.65    1.58
   0   6  15    2.84    1.24
   0   7 -18    8.99    2.16
   0   7 -18    9.04    2.65
   0  -7  18   31.00    4.46
   0   7 -17    2.36    1.77
   0   7 -17    0.12    1.29
   0  -7  17   -0.70    1.20
   0   7 -16    0.13    1.27
   0   7 -16   -0.40    2.27
   0  -7  16    0.64    1.38
   0   7 -15    0.86    1.51
   0   7 -15    0.00    1.61
   0  -7  15    1.22    2.60
   0   7 -14    4.84    2.42
   0  -7  14    3.31    2.42
   0   7 -13    0.98    1.96
   0  -7  13    1.95    1.90
   0   7 -12    8.82    4.47
   0  -7  12   11.45    3.18
   0   7 -11    2.31    2.30
   0   7 -11    2.61    1.85
   0  -7  11    3.33    3.30
   0   7 -10    6.13    2.65
   0   7 -10    4.16    2.03
   0  -7  10    3.80    2.33
   0   7  -9  198.10   17.11
   0   7  -9  181.02   13.35
   0  -7   9  179.59   14.79
   0   7  -8   59.96    9.89
   0   7  -8   60.90    7.95
   0  -7   8   59.83    6.40
   0   7  -7  112.06   10.22
   0   7  -7  113.50    8.26
   0   7  -6  116.48   10.06
   0   7  -6  121.40    9.56
   0   7  -6  102.66    7.46
   0   7  -5   34.62    4.78
   0   7  -5   36.94    4.63
   0   7  -5   30.27    4.93
   0   7  -4   73.53    7.11
   0   7  -4   70.59    9.08
   0   7  -4   64.93    5.11
   0  -7   4   66.33    8.35
   0   7  -3    5.09    3.01
   0   7  -3    5.30    1.88
   0   7  -3    4.47    1.52
   0   7  -3    5.22    1.68
   0  -7   3    3.96    1.66
   0   7  -2    2.06    1.14
   0   7  -2    2.13    1.33
   0  -7   2    0.74    1.39
   0   7  -1   17.50    2.77
   0   7  -1   16.17    2.94
   0   7  -1   15.15    3.58
   0   7  -1   15.65    4.15
   0  -7   1   18.93    3.03
   0   7   0    0.84    1.26
   0   7   0    1.65    2.26
   0   7   0    1.54    1.12
   0   7   0    0.81    1.23
   0  -7   0    1.81    2.47
   0   7   1   13.93    2.58
   0   7   1   17.03    2.88
   0   7   1   12.13    2.32
   0  -7  -1   15.84    4.62
   0   7   2   25.04    3.34
   0   7   2   28.25    3.98
   0   7   2   21.57    3.19
   0  -7  -2   29.25    4.04
   0   7   3    1.61    1.40
   0   7   3    2.93    1.70
   0   7   3    2.11    1.39
   0  -7  -3    2.22    1.85
   0   7   4    1.11    1.32
   0   7   4    0.86    1.74
   0   7   4    1.25    2.24
   0  -7  -4    4.96    2.05
   0   7   5    0.71    1.01
   0   7   5    0.49    1.39
   0   7   5    1.50    1.96
   0  -7  -5   -1.29    1.54
   0   7   6    7.75    2.67
   0   7   6    5.55    3.77
   0  -7  -6    7.79    2.99
   0   7   7    1.45    1.87
   0   7   7    0.52    1.64
   0  -7  -7    3.95    2.19
   0   7   8   17.13    3.75
   0   7   8    7.27    3.08
   0  -7  -8   20.40    4.12
   0   7   9    0.57    1.73
   0  -7  -9    1.72    3.14
   0   7  10   62.65    8.42
   0  -7 -10  117.12   16.29
   0   7  11    1.32    1.90
   0  -7 -11    4.46    2.36
   0   7  12   13.73    3.32
   0  -7 -12   28.08    4.11
   0   7  13    0.19    0.90
   0  -7 -13   -0.51    1.12
   0   8 -17    6.54    2.21
   0  -8  17   11.47    2.27
   0   8 -16    0.86    2.18
   0  -8  16    0.49    1.31
   0   8 -15    8.55    2.54
   0  -8  15    7.22    4.19
   0   8 -14    1.16    1.70
   0  -8  14    1.57    1.73
   0   8 -13   16.27    3.76
   0  -8  13   18.77    3.86
   0   8 -12   30.95    8.88
   0   8 -12   25.73    6.49
   0  -8  12   30.50    4.91
   0   8 -11    4.45    2.76
   0   8 -11    3.31    2.01
   0  -8  11    7.52    3.94
   0   8 -10    4.44    2.63
   0   8 -10    2.73    1.82
   0  -8  10    2.46    2.08
   0   8  -9  193.07   17.99
   0   8  -9  169.42   13.31
   0  -8   9  171.26   14.82
   0   8  -8    5.31    4.58
   0  -8   8    2.43    2.18
   0   8  -7  570.79   48.48
   0   8  -7  538.13   40.45
   0   8  -6   22.22    4.37
   0   8  -6   17.13    3.95
   0   8  -6   16.90    2.96
   0   8  -5    1.50    1.65
   0   8  -5   -0.96    1.05
   0   8  -4   95.46    9.94
   0   8  -4   99.44    9.05
   0   8  -4   75.86    9.36
   0   8  -3    9.38    2.99
   0   8  -3    6.17    1.89
   0  -8   3    7.69    4.04
   0   8  -2   13.65    5.28
   0   8  -2   11.41    2.83
   0   8  -2    7.76    2.10
   0  -8   2   10.76    2.65
   0   8  -1   16.56    5.73
   0   8  -1   15.20    3.20
   0   8  -1    8.77    2.33
   0  -8   1   17.65    3.16
   0   8   0   21.73    6.14
   0   8   0   14.42    3.43
   0   8   0   12.59    2.55
   0  -8   0   22.61    3.66
   0   8   1    3.03    2.66
   0   8   1    1.42    1.83
   0   8   1    2.12    2.39
   0  -8  -1    2.95    2.09
   0   8   2    5.55    3.11
   0   8   2    4.86    3.50
   0   8   2    2.72    1.76
   0  -8  -2    7.10    2.61
   0   8   3   12.31    5.53
   0   8   3   10.66    5.41
   0  -8  -3   18.16    6.45
   0   8   4    2.86    3.01
   0   8   4    1.25    1.92
   0  -8  -4    3.46    3.81
   0   8   5   -0.29    1.45
   0  -8  -5    2.60    2.97
   0   8   6   10.35    3.33
   0  -8  -6   15.49    6.68
   0   8   7    0.65    1.92
   0  -8  -7    3.64    2.42
   0   8   8    0.51    2.13
   0  -8  -8    5.83    2.61
   0   8   9    0.45    1.58
   0  -8  -9    2.58    2.11
   0   8  10    0.57    1.43
   0  -8 -10    2.69    1.99
   0   8  11    0.93    2.06
   0  -8 -11    2.22    1.89
   0  -8 -12    7.28    2.24
   0   9 -16    0.05    1.05
   0  -9  16    1.97    1.15
   0   9 -15    2.76    2.22
   0  -9  15    1.80    1.49
   0   9 -14    1.03    1.35
   0  -9  14    1.41    2.42
   0   9 -13    2.60    1.79
   0  -9  13    3.30    1.90
   0   9 -12    6.22    2.76
   0   9 -12    4.88    3.36
   0  -9  12    3.60    2.23
   0   9 -11   23.62    6.96
   0   9 -11    9.80    4.55
   0  -9  11   16.16    5.62
   0   9 -10   18.08    4.33
   0   9 -10   11.35    2.79
   0  -9  10   13.82    3.21
   0   9  -9   15.27    4.05
   0   9  -9    8.35    2.48
   0  -9   9    9.96    2.92
   0   9  -8    0.41    2.20
   0   9  -8    1.11    1.24
   0  -9   8   -0.11    1.52
   0   9  -7   36.62    8.92
   0   9  -7   26.87    5.75
   0  -9   7   34.56    4.82
   0   9  -6   10.26    3.42
   0   9  -6    8.40    2.14
   0   9  -5   31.69    5.04
   0   9  -5   26.87    4.47
   0   9  -5   18.33    3.14
   0   9  -4   12.79    3.27
   0   9  -4    4.63    2.93
   0   9  -4    6.57    1.95
   0   9  -3    1.40    2.57
   0   9  -3    5.68    2.28
   0   9  -3    2.31    2.45
   0   9  -2    8.85    3.23
   0   9  -2    6.67    4.49
   0  -9   2    7.43    4.91
   0   9  -1    2.86    2.31
   0   9  -1    0.78    3.29
   0  -9   1    3.48    3.36
   0   9   0   25.12    4.88
   0   9   0   20.31    4.36
   0  -9   0   25.05    4.70
   0   9   1    3.99    2.18
   0   9   1    0.49    1.96
   0  -9  -1    2.53    2.25
   0   9   2   26.59    5.16
   0   9   2   25.65    4.88
   0  -9  -2   35.48    5.79
   0   9   3    4.47    2.48
   0   9   3    4.88    2.42
   0  -9  -3    6.18    2.98
   0   9   4   -0.76    1.10
   0   9   4   -0.03    1.15
   0  -9  -4    1.35    1.47
   0   9   5    8.85    2.77
   0  -9  -5    8.30    3.68
   0   9   6   -0.02    1.35
   0  -9  -6    1.41    1.83
   0   9   7    0.31    1.47
   0  -9  -7    3.67    2.09
   0   9   8    4.66    1.79
   0  -9  -8    6.12    2.82
   0   9   9   -0.08    0.82
   0  -9  -9   -0.20    1.33
   0  -9 -10    9.82    4.44
   0 -10  14    0.58    1.74
   0  10 -13    2.25    1.48
   0  10 -13    1.45    1.14
   0 -10  13    2.53    1.43
   0  10 -12    5.97    1.97
   0  10 -12    0.74    1.24
   0 -10  12    0.79    1.46
   0  10 -11    0.85    3.28
   0  10 -11    0.89    1.19
   0 -10  11    1.19    1.41
   0  10 -10    1.77    2.09
   0  10 -10    0.50    1.87
   0 -10  10    1.25    2.44
   0  10  -9    2.33    2.14
   0  10  -9    0.51    1.13
   0 -10   9    0.86    1.44
   0  10  -8    1.80    2.43
   0 -10   8    1.12    1.55
   0  10  -7   18.52    5.52
   0 -10   7   17.64    3.39
   0  10  -6    3.69    6.05
   0 -10   6    5.63    2.20
   0  10  -5    2.09    3.86
   0  10  -4    0.79    2.08
   0  10  -4    1.17    1.67
   0  10  -3    7.25    3.23
   0  10  -3    6.57    2.61
   0  10  -2    3.30    2.18
   0  10  -2   -0.35    1.65
   0  10  -1   16.00    4.27
   0  10  -1   12.62    3.44
   0 -10   1   19.31    3.95
   0  10   0    7.44    2.94
   0  10   0    2.90    3.99
   0 -10   0    5.68    3.03
   0  10   1    1.18    1.80
   0  10   1   -0.96    2.55
   0 -10  -1   -7.65    3.36
   0  10   2    1.67    1.96
   0  10   2    1.11    2.90
   0 -10  -2    5.91    3.57
   0  10   3    2.59    3.11
   0  10   3    3.58    1.84
   0 -10  -3    4.30    3.92
   0  10   4    2.50    2.57
   0  10   4    0.66    1.34
   0 -10  -4    1.55    3.05
   0  10   5    0.00    1.07
   0 -10  -5    2.90    2.61
   0  10   6    0.35    0.94
   0 -10  -6    1.45    2.52
   0 -10  -7   69.55   12.46
   0  11 -11    2.23    1.75
   0 -11  11    0.96    1.16
   0  11 -10   23.58    6.27
   0 -11  10   12.65    2.37
   0  11  -9    9.89    3.08
   0 -11   9    5.93    1.93
   0  11  -8    6.28    2.89
   0 -11   8    2.76    2.71
   0  11  -7    0.17    1.94
   0 -11   7    0.30    1.04
   0  11  -6    2.10    1.79
   0 -11   6   -0.52    0.98
   0  11  -5    2.70    2.46
   0 -11   5    1.31    1.39
   0  11  -4    5.42    2.95
   0 -11   4    2.90    1.64
   0  11  -3    0.41    1.95
   0  11  -2    1.54    3.33
   0  11  -2    0.62    1.26
   0  11  -1    4.48    2.85
   0  11  -1   -0.28    1.05
   0  11   0    8.07    4.34
   0  11   0    2.07    1.66
   0 -11   0    6.45    2.04
   0  11   1   10.24    2.90
   0  11   1    5.59    1.96
   0 -11  -1    9.79    2.59
   0  11   2    1.72    1.56
   0  11   2    0.96    1.07
   0 -11  -2    1.56    1.61
   0  11   3    0.83    1.17
   0 -11  -3    1.66    1.54
   0 -11  -4    1.53    1.62
   0  12  -7   -8.51    4.91
   0  12  -6   27.92    4.91
   0  12  -5    1.95    2.08
   0  12  -4    3.44    2.31
   0  12  -3   -2.71    2.12
   0  12  -2   10.52    3.08
   0  12  -1    2.37    1.79
  -1  12   1   23.09    3.85
  -1  12   0   -3.82    3.65
  -1  12  -1   51.59   10.87
  -1  12  -2   28.65    8.72
  -1  12  -3   -5.77    4.82
  -1  12  -4   -1.89    2.20
  -1  12  -5   -7.03    3.12
  -1  12  -6    4.93    2.71
  -1  12  -7    5.58    2.71
  -1  12  -8   20.63    3.82
   1 -11  -5    0.95    1.69
   1 -11  -4   -0.23    1.44
  -1  11   4    0.59    1.46
   1 -11  -3    2.27    1.88
  -1  11   3    0.61    1.38
   1 -11  -2   -0.09    1.38
  -1  11   2   -0.62    1.15
  -1  11   2    0.72    1.14
   1 -11  -1    1.11    1.85
  -1  11   1    2.44    1.68
  -1  11   1   -0.26    1.59
   1 -11   0    2.03    1.92
  -1  11   0   -0.26    1.90
  -1  11   0    2.04    1.77
   1 -11   1    3.63    3.16
  -1  11  -1    1.90    2.05
  -1  11  -1    1.24    1.18
   1 -11   2   13.63    5.35
  -1  11  -2   19.07    3.79
  -1  11  -2    9.87    2.20
  -1  11  -3    0.77    1.90
  -1  11  -3    0.83    1.14
  -1  11  -4   -1.13    1.69
  -1  11  -4    0.75    0.99
  -1  11  -5    2.93    2.42
  -1  11  -5    2.76    1.44
  -1  11  -6    1.53    2.86
  -1  11  -6    0.22    1.78
  -1  11  -7    0.71    2.09
  -1  11  -7    0.98    1.96
  -1  11  -8    1.60    2.11
  -1  11  -8    1.27    1.27
  -1  11  -9    4.94    2.36
  -1  11  -9    2.89    1.51
  -1  11 -10    1.15    1.39
  -1  11 -10    0.06    0.99
  -1  11 -11    2.61    1.62
  -1  11 -11    1.95    2.32
  -1  11 -12   -0.10    0.86
   1 -10  -8   -0.83    1.73
   1 -10  -7    0.95    1.52
  -1  10   7   -0.03    0.64
   1 -10  -6    6.83    2.50
  -1  10   6    1.23    1.17
   1 -10  -5    0.17    1.67
  -1  10   5    0.85    1.04
  -1  10   5   -0.83    0.85
   1 -10  -4    7.34    4.79
  -1  10   4    3.78    2.05
  -1  10   4    3.12    1.57
   1 -10  -3    2.51    2.44
  -1  10   3   -0.38    1.86
  -1  10   3    2.20    1.35
   1 -10  -2   -0.32    1.88
  -1  10   2   -1.51    1.54
  -1  10   2    0.49    1.09
   1 -10  -1   -4.18    2.21
  -1  10   1   -1.63    3.24
  -1  10   1    0.49    1.32
   1 -10   0   29.81    5.57
  -1  10   0   31.92    8.31
  -1  10   0   18.09    3.61
   1 -10   1    1.19    1.67
  -1  10  -1    1.71    1.65
  -1  10  -1   -1.61    1.16
   1 -10   2   21.54    4.72
  -1  10  -2   24.83    4.96
  -1  10  -2   18.26    3.48
   1 -10   3    1.69    3.34
  -1  10  -3   -0.08    2.24
  -1  10  -3    3.62    2.46
  -1  10  -4    1.98    1.98
  -1  10  -4    0.28    1.32
  -1  10  -5   -0.69    1.82
  -1  10  -5   -0.44    1.26
  -1  10  -6   12.49    3.20
  -1  10  -6    3.18    2.09
  -1  10  -7   18.65    4.16
  -1  10  -7   13.97    3.03
  -1  10  -8   29.57    9.90
  -1  10  -9   13.26    4.13
  -1  10  -9   13.99    3.01
   1 -10  10    3.33    1.82
  -1  10 -10    6.91    2.79
  -1  10 -10    7.60    2.11
   1 -10  11    1.24    1.24
  -1  10 -11    1.86    1.77
  -1  10 -11    1.66    1.50
   1 -10  12    0.18    1.52
  -1  10 -12    0.45    1.87
   1 -10  13   -0.30    0.80
  -1  10 -13   -0.18    1.17
  -1  10 -14    3.92    1.78
   1  -9 -10   76.04    7.87
   1  -9  -9    1.24    2.80
  -1   9   9   -0.52    0.90
   1  -9  -8   12.84    4.76
  -1   9   8    4.42    1.88
   1  -9  -7    5.35    2.68
  -1   9   7    2.27    1.74
   1  -9  -6    0.14    1.75
  -1   9   6   -1.80    2.05
  -1   9   6    0.19    1.20
   1  -9  -5    4.21    2.66
  -1   9   5    1.55    2.67
  -1   9   5    2.64    1.88
   1  -9  -4    4.55    2.76
  -1   9   4    3.38    1.88
  -1   9   4    2.46    1.99
   1  -9  -3   20.61    4.16
  -1   9   3    9.93    3.08
  -1   9   3    9.12    3.13
   1  -9  -2    1.33    2.14
  -1   9   2    1.76    1.69
  -1   9   2    0.28    2.73
   1  -9  -1    3.35    3.82
  -1   9   1    2.16    1.91
  -1   9   1    2.10    2.82
  -1   9   0    4.38    2.08
  -1   9   0    2.44    1.86
   1  -9   1    2.33    1.92
  -1   9  -1    0.43    1.50
  -1   9  -1   -0.12    1.38
   1  -9   2   10.27    3.36
  -1   9  -2    9.25    2.82
  -1   9  -2    8.46    2.52
   1  -9   3    0.97    1.85
  -1   9  -3    1.37    2.61
  -1   9  -3    0.85    1.46
   1  -9   4    1.77    2.82
  -1   9  -4    0.48    3.21
  -1   9  -4    0.36    2.38
  -1   9  -5   -0.20    1.60
  -1   9  -5   -0.09    1.91
   1  -9   6   12.54    2.81
  -1   9  -6   17.50    4.09
  -1   9  -6   17.47    3.10
   1  -9   7    0.75    1.33
  -1   9  -7    1.32    1.88
  -1   9  -7    1.04    1.45
   1  -9   8    2.27    1.65
  -1   9  -8    3.03    2.26
  -1   9  -8    3.12    1.79
   1  -9   9   12.10    5.66
  -1   9  -9   33.80    8.59
  -1   9  -9   33.18    6.52
   1  -9  10   -0.76    1.28
  -1   9 -10    1.93    1.77
  -1   9 -10    1.03    1.44
   1  -9  11    9.31    2.65
  -1   9 -11   15.37    3.14
   1  -9  12    1.20    1.53
  -1   9 -12    2.79    1.74
   1  -9  13    0.08    2.00
  -1   9 -13    1.78    2.66
   1  -9  14    0.43    0.94
  -1   9 -14   -0.51    1.31
   1  -9  15    1.56    1.24
  -1   9 -15    4.26    1.77
  -1   9 -16   -1.46    2.33
   1  -8 -12    6.49    2.02
  -1   8  12    2.56    1.23
   1  -8 -11    1.54    2.47
  -1   8  11    0.38    1.06
   1  -8 -10    7.28    2.63
  -1   8  10    2.79    1.86
   1  -8  -9   10.50    3.40
  -1   8   9    3.25    3.84
   1  -8  -8   28.92    5.34
  -1   8   8    9.61    5.98
   1  -8  -7    5.38    3.04
  -1   8   7    3.08    3.63
   1  -8  -6   52.06    6.93
  -1   8   6   29.03    4.24
  -1   8   6   31.73    8.06
   1  -8  -5   58.39    7.97
  -1   8   5   42.81    5.40
  -1   8   5   41.81    6.22
   1  -8  -4    2.98    2.44
  -1   8   4    0.95    1.67
  -1   8   4    2.79    1.85
   1  -8  -3   42.07    6.41
  -1   8   3   35.45    4.80
  -1   8   3   32.96    5.19
   1  -8  -2    0.86    1.81
  -1   8   2    0.83    1.37
  -1   8   2    0.34    1.22
  -1   8   2    0.62    1.40
   1  -8  -1    2.49    2.25
  -1   8   1    3.31    1.80
  -1   8   1    2.54    1.57
  -1   8   1    3.15    1.81
   1  -8   0    3.01    1.81
  -1   8   0    2.23    1.49
  -1   8   0   -0.65    1.28
  -1   8   0    1.24    1.49
   1  -8   1   19.80    6.00
  -1   8  -1   18.77    3.35
  -1   8  -1   16.02    4.55
  -1   8  -1   19.82    4.91
   1  -8   2    0.58    2.07
  -1   8  -2    0.29    1.69
  -1   8  -2    2.39    2.44
  -1   8  -2    5.38    1.75
   1  -8   3   14.32    3.82
  -1   8  -3   12.54    3.23
  -1   8  -3   26.49    3.27
   1  -8   4  150.94   12.50
  -1   8  -4  146.30   11.54
  -1   8  -4  136.48   10.76
  -1   8  -4  154.69   11.68
   1  -8   5    4.74    3.63
  -1   8  -5    2.08    3.38
  -1   8  -5    8.61    3.51
   1  -8   6   74.45    6.91
  -1   8  -6   96.41    9.58
  -1   8  -6   92.59    7.54
   1  -8   7    1.30    1.36
  -1   8  -7    0.92    1.84
  -1   8  -7    1.44    1.56
   1  -8   8   63.87    6.65
  -1   8  -8   74.18    7.79
  -1   8  -8   80.17    7.21
   1  -8   9  141.25   16.23
  -1   8  -9  152.00   18.08
  -1   8  -9  178.07   17.97
   1  -8  10   13.14    3.59
  -1   8 -10   21.14    4.35
  -1   8 -10   25.25    3.94
   1  -8  11   64.45    7.56
  -1   8 -11   97.23    8.72
   1  -8  12    2.41    2.00
  -1   8 -12    4.82    2.19
   1  -8  13    2.63    3.57
  -1   8 -13    8.78    4.02
   1  -8  14    5.08    2.27
  -1   8 -14   10.49    2.91
   1  -8  15    2.20    1.62
  -1   8 -15    3.74    2.10
   1  -8  16    0.37    0.99
  -1   8 -16   -0.11    1.31
   1  -8  17   19.71    4.36
  -1   8 -17   22.90    5.84
   1  -7 -13   -1.30    2.20
  -1   7  13   -0.17    1.90
   1  -7 -12    6.39    2.15
  -1   7  12    1.65    1.98
   1  -7 -11    8.91    2.99
  -1   7  11    5.23    2.54
   1  -7 -10   28.45    5.06
  -1   7  10   14.23    4.23
   1  -7  -9    0.26    1.61
  -1   7   9   -0.29    1.36
   1  -7  -8  131.95   12.09
  -1   7   8   61.50    8.50
  -1   7   8   88.26   10.52
   1  -7  -7   73.20    8.55
  -1   7   7   37.84    4.85
  -1   7   7   37.98    5.59
  -1   7   7   53.15    7.29
   1  -7  -6   40.67    6.32
  -1   7   6   27.80    6.14
  -1   7   6   19.63    4.10
  -1   7   6   29.36    5.46
   1  -7  -5    3.33    2.12
  -1   7   5    0.85    2.37
  -1   7   5    0.47    1.41
  -1   7   5    1.43    1.84
   1  -7  -4    2.12    1.94
  -1   7   4    0.58    1.29
  -1   7   4    1.24    1.63
   1  -7  -3   44.61    5.75
  -1   7   3   34.91    5.66
  -1   7   3   31.20    4.19
  -1   7   3   38.82    7.55
   1  -7  -2   10.43    2.78
   1  -7  -2    6.29    1.71
  -1   7   2    7.41    2.89
  -1   7   2    7.75    2.99
  -1   7   2    7.50    3.53
   1  -7  -1    1.05    1.52
   1  -7  -1    1.98    1.54
  -1   7   1   -0.03    1.68
  -1   7   1    0.03    1.65
  -1   7   1    0.47    1.24
   1  -7   0   50.31    5.04
   1  -7   0   34.07    3.80
  -1   7   0   52.73    6.77
  -1   7   0   28.87    3.86
  -1   7   0   41.36    4.48
   1  -7   1   38.12    4.57
   1  -7   1   41.70    3.90
  -1   7  -1   38.29    4.18
  -1   7  -1   33.80    3.82
  -1   7  -1   35.01    4.71
   1  -7   2   29.95    6.59
   1  -7   2   36.74    5.30
  -1   7  -2   34.17    4.01
  -1   7  -2   37.24    5.34
  -1   7  -2   44.69    6.45
   1  -7   3    0.06    1.22
   1  -7   3   -1.35    0.88
  -1   7  -3   -0.28    1.04
  -1   7  -3    0.37    0.90
  -1   7  -3    2.89    1.08
   1  -7   4   41.64    4.04
   1  -7   4   23.02    3.10
  -1   7  -4   28.26    3.54
  -1   7  -4   27.64    3.25
  -1   7  -4   30.67    3.50
   1  -7   5   25.53    5.57
   1  -7   5   23.07    4.60
  -1   7  -5   24.20    3.21
  -1   7  -5   26.38    3.13
  -1   7  -5   29.23    3.38
   1  -7   6    1.36    1.49
  -1   7  -6    2.06    2.20
  -1   7  -6    3.33    2.26
   1  -7   7    0.82    1.10
  -1   7  -7    0.33    1.38
  -1   7  -7    0.76    1.21
   1  -7   8   13.02    2.56
  -1   7  -8   15.15    2.98
  -1   7  -8   15.95    2.81
   1  -7   9  220.70   21.00
  -1   7  -9  216.87   16.64
  -1   7  -9  260.38   17.84
   1  -7  10   50.13    6.20
  -1   7 -10   58.31    6.71
  -1   7 -10   75.60   10.08
   1  -7  11  180.96   16.45
  -1   7 -11  255.96   18.96
   1  -7  12   36.04    5.27
  -1   7 -12   28.82    4.82
  -1   7 -12   46.24    5.66
   1  -7  13    4.84    3.69
  -1   7 -13    3.35    2.25
  -1   7 -13    7.68    3.99
   1  -7  14    1.45    1.62
  -1   7 -14    0.46    1.69
  -1   7 -14    1.72    2.04
   1  -7  15    0.78    1.62
  -1   7 -15    0.66    2.69
  -1   7 -15    2.44    2.02
   1  -7  16   -0.23    1.06
  -1   7 -16    1.30    2.01
  -1   7 -16   -0.09    1.34
   1  -7  17    0.65    2.13
  -1   7 -17    0.85    1.37
  -1   7 -17    0.06    2.56
   1  -7  18    0.97    1.04
  -1   7 -18    0.10    1.11
  -1   7 -18   -2.71    1.36
  -1   6  15    0.76    1.15
   1  -6 -14   -0.78    1.94
  -1   6  14   -0.25    0.95
  -1   6  14   -0.92    1.27
   1  -6 -13    2.04    1.68
  -1   6  13    1.99    2.41
  -1   6  13    2.22    1.85
   1  -6 -12   -1.17    1.43
  -1   6  12    0.42    1.24
  -1   6  12   -0.03    1.43
   1  -6 -11    2.70    2.10
  -1   6  11    1.13    1.71
  -1   6  11    2.47    2.07
   1  -6 -10   -0.09    1.56
  -1   6  10    0.02    1.23
  -1   6  10    1.06    2.39
   1  -6  -9   65.20   10.32
  -1   6   9   28.98    5.15
  -1   6   9   35.50    9.72
   1  -6  -8  645.47   61.64
  -1   6   8  424.53   38.63
  -1   6   8  556.69   57.97
   1  -6  -7  143.43   16.52
  -1   6   7   93.96    9.64
  -1   6   7  119.13   16.11
   1  -6  -6    0.73    2.42
  -1   6   6   -0.02    0.88
  -1   6   6    1.29    1.18
  -1   6   6    0.82    1.45
   1  -6  -5   31.57    6.51
   1  -6  -5   23.21    3.06
  -1   6   5   28.05    2.85
  -1   6   5   22.60    5.00
  -1   6   5   30.66    4.17
   1  -6  -4   26.60    5.60
   1  -6  -4   19.12    3.92
  -1   6   4   20.78    2.44
  -1   6   4   21.16    4.36
  -1   6   4   22.26    3.50
   1  -6  -3    2.44    2.33
   1  -6  -3    1.14    1.53
   1  -6  -3    0.79    0.83
  -1   6   3    0.52    0.87
  -1   6   3    0.68    1.48
  -1   6   3    0.37    0.95
  -1   6   3    0.20    1.21
  -1   6   3    1.05    1.27
   1  -6  -2    1.22    0.97
   1  -6  -2    0.63    0.85
  -1   6   2    0.83    0.93
  -1   6   2    1.61    1.56
  -1   6   2    1.66    0.94
  -1   6   2    1.01    1.24
  -1   6   2    1.07    1.28
   1  -6  -1   74.51    6.54
   1  -6  -1   69.44    4.84
  -1   6   1   69.10    4.78
  -1   6   1   81.00    7.28
  -1   6   1   69.20    4.88
  -1   6   1   74.41    8.69
  -1   6   1   72.93    8.83
   1  -6   0   26.90    3.67
   1  -6   0   25.91    2.74
  -1   6   0   24.76    2.69
  -1   6   0   30.63    4.00
  -1   6   0   34.25    3.40
  -1   6   0   33.85    3.91
   1  -6   1   67.08    5.23
   1  -6   1   55.20    5.02
   1  -6   1   43.19    5.43
  -1   6  -1   62.51    4.02
  -1   6  -1   44.27    3.86
  -1   6  -1   51.90    4.67
  -1   6  -1   53.87    5.04
   1  -6   2    4.04    1.55
   1  -6   2    2.74    2.46
  -1   6  -2    3.05    1.90
   1  -6   3   24.18    3.01
   1  -6   3   25.40    3.22
   1  -6   3   22.13    2.35
   1  -6   3   26.06    3.20
  -1   6  -3   27.47    2.81
  -1   6  -3   23.44    2.39
  -1   6  -3   22.74    4.37
   1  -6   4   62.09    4.96
   1  -6   4   55.77    5.00
   1  -6   4   53.04    5.87
   1  -6   4   59.54    5.34
  -1   6  -4   62.33    4.56
  -1   6  -4   61.76    4.37
  -1   6  -4   62.23    4.76
   1  -6   5   27.20    3.10
   1  -6   5   27.56    5.02
   1  -6   5   25.20    2.76
   1  -6   5   29.44    3.44
  -1   6  -5   29.57    2.97
  -1   6  -5   32.09    2.91
  -1   6  -5   31.81    3.16
   1  -6   6    9.20    1.74
   1  -6   6    7.73    1.86
   1  -6   6    8.50    1.61
   1  -6   6    7.82    1.67
   1  -6   6    8.84    3.48
  -1   6  -6    4.91    1.16
  -1   6  -6    5.74    2.31
  -1   6  -6   10.59    2.91
   1  -6   7   15.52    2.28
   1  -6   7   16.23    2.43
   1  -6   7   16.78    2.29
   1  -6   7   15.61    3.77
  -1   6  -7   17.83    4.33
  -1   6  -7   12.72    1.81
  -1   6  -7   12.07    2.19
  -1   6  -7   19.53    2.58
   1  -6   8   30.16    3.24
   1  -6   8   29.68    3.34
  -1   6  -8   34.21    3.61
  -1   6  -8   23.71    2.72
  -1   6  -8   24.89    3.43
  -1   6  -8   35.72    3.64
   1  -6   9   37.13    6.51
  -1   6  -9   40.73    4.08
  -1   6  -9   36.17    3.76
  -1   6  -9   50.29    6.74
   1  -6  10   34.46    4.55
  -1   6 -10   31.28    3.86
  -1   6 -10   46.50    4.80
   1  -6  11    9.48    2.82
  -1   6 -11    8.58    3.93
  -1   6 -11   15.19    2.98
   1  -6  12    6.55    2.66
  -1   6 -12    7.75    4.74
  -1   6 -12    9.83    2.86
   1  -6  13   45.06    9.51
  -1   6 -13   51.97    6.64
  -1   6 -13   59.60   10.20
   1  -6  14    3.80    2.27
  -1   6 -14    4.61    2.52
  -1   6 -14    4.60    2.73
   1  -6  15    0.66    1.43
  -1   6 -15   -0.25    1.60
  -1   6 -15    0.58    1.74
   1  -6  16    0.45    1.37
  -1   6 -16    0.30    1.55
  -1   6 -16    0.09    1.65
   1  -6  17    6.82    4.53
  -1   6 -17   12.13    5.31
  -1   6 -17   11.16    5.40
   1  -6  18    1.00    1.32
  -1   6 -18    0.98    1.58
  -1   6 -18    0.07    1.61
   1  -6  19    1.01    0.96
  -1   6 -19    1.01    1.10
  -1   6 -19   -2.08    1.13
  -1   5  16    0.27    1.13
  -1   5  15    3.92    1.65
  -1   5  15    5.61    3.42
  -1   5  14   -0.22    1.11
  -1   5  14    0.18    2.23
   1  -5 -13    1.15    1.84
  -1   5  13   -0.06    1.81
  -1   5  13    7.93    2.21
   1  -5 -12   20.46    3.64
  -1   5  12   11.14    3.33
  -1   5  12   11.83    3.85
   1  -5 -11    4.77    3.11
  -1   5  11    0.41    1.65
  -1   5  11    0.66    1.94
   1  -5 -10   48.33    7.48
  -1   5  10   16.67    6.84
  -1   5  10   21.69    5.15
  -1   5   9   16.82    5.72
  -1   5   9   20.99    4.32
   1  -5  -8   11.15    2.35
  -1   5   8    4.63    1.33
  -1   5   8    4.35    3.27
  -1   5   8    7.28    2.46
   1  -5  -7   12.44    2.45
   1  -5  -7    8.10    1.91
  -1   5   7    7.61    1.45
  -1   5   7    9.58    4.24
  -1   5   7    7.16    2.06
  -1   5   7   10.79    2.56
   1  -5  -6   47.39    4.54
   1  -5  -6   36.05    3.49
  -1   5   6   34.92    3.04
  -1   5   6   40.33    5.07
  -1   5   6   34.64    3.83
  -1   5   6   41.79    4.56
   1  -5  -5    3.70    1.55
   1  -5  -5    4.01    1.35
   1  -5  -5    2.31    1.11
  -1   5   5    2.62    1.63
  -1   5   5    4.35    1.83
  -1   5   5    2.93    1.23
  -1   5   5    3.89    1.58
  -1   5   5    1.71    1.56
   1  -5  -4   13.50    2.32
   1  -5  -4   13.55    2.79
   1  -5  -4   10.71    2.54
  -1   5   4   11.07    2.51
  -1   5   4   11.15    4.04
  -1   5   4   10.87    1.75
  -1   5   4   13.49    3.63
  -1   5   4   14.46    2.38
   1  -5  -3    2.64    1.32
   1  -5  -3    2.55    1.00
   1  -5  -3    2.02    0.86
  -1   5   3    2.62    1.50
  -1   5   3    3.39    1.54
  -1   5   3    1.79    0.95
  -1   5   3    3.51    1.32
  -1   5   3    1.71    1.35
   1  -5  -2  111.39   10.28
   1  -5  -2  125.29    6.38
   1  -5  -2  108.30    7.47
  -1   5   2  106.04    8.19
  -1   5   2  118.07    8.80
  -1   5   2  105.87    7.92
  -1   5   2  111.50    7.51
  -1   5   2  119.99    7.82
   1  -5  -1   32.85    5.36
   1  -5  -1   30.40    2.41
   1  -5  -1   24.98    2.34
  -1   5   1   29.52    2.64
  -1   5   1   37.91    3.80
  -1   5   1   25.10    2.29
  -1   5   1   27.84    3.21
  -1   5   1   38.90    3.61
   1  -5   0  294.17   18.67
  -1   5   0  282.49   15.77
   1  -5   1 1759.89  151.21
   1  -5   1 1715.55  151.09
   1  -5   1 1688.36  139.67
  -1   5  -1 1744.61  145.37
  -1   5  -1 1186.67   89.79
  -1   5  -1 1355.14  104.24
  -1   5  -1 1846.87  150.74
  -1   5  -1 1678.09  144.89
   1  -5   2   11.44    1.85
   1  -5   2    9.56    1.94
  -1   5  -2   11.51    1.56
  -1   5  -2    8.42    0.76
  -1   5  -2    7.62    0.89
   1  -5   3  609.66   38.07
   1  -5   3  594.53   38.98
   1  -5   3  548.20   32.96
   1  -5   3  565.27   37.88
  -1   5  -3  571.25   37.07
  -1   5  -3  486.40   28.73
  -1   5  -3  622.35   36.30
  -1   5  -3  623.43   44.36
   1  -5   4   47.79    3.61
   1  -5   4   48.04    3.96
   1  -5   4   43.19    3.12
   1  -5   4   50.84    6.37
  -1   5  -4   54.15    3.40
  -1   5  -4   38.24    2.52
  -1   5  -4   41.06    4.15
  -1   5  -4   48.15    3.18
  -1   5  -4   52.07    3.84
   1  -5   5  124.54    7.24
   1  -5   5  123.45   10.42
   1  -5   5  107.88    8.64
   1  -5   5  126.87    8.15
  -1   5  -5  129.17    6.92
  -1   5  -5  117.82    6.40
  -1   5  -5  106.69    6.48
  -1   5  -5  132.46    7.54
   1  -5   6    9.61    1.40
   1  -5   6    5.84    1.62
   1  -5   6    7.14    1.47
   1  -5   6    5.67    1.49
   1  -5   6    6.88    1.90
  -1   5  -6    7.04    1.33
  -1   5  -6    7.77    2.07
  -1   5  -6    6.02    1.48
  -1   5  -6    7.95    2.66
   1  -5   7  216.97   12.78
   1  -5   7  219.19   17.70
   1  -5   7  224.72   13.53
   1  -5   7  210.15   13.37
   1  -5   7  235.56   15.59
  -1   5  -7  257.19   17.94
  -1   5  -7  236.52   16.86
  -1   5  -7  208.87   13.94
  -1   5  -7  193.82   12.11
  -1   5  -7  243.49   14.64
   1  -5   8  152.58    9.16
   1  -5   8  140.93    9.45
   1  -5   8  152.41   13.47
   1  -5   8  146.46   10.32
   1  -5   8  173.39   12.10
  -1   5  -8  161.13    9.88
  -1   5  -8  173.40   10.47
  -1   5  -8  142.24   10.92
  -1   5  -8  180.25   11.15
   1  -5   9    1.71    0.96
   1  -5   9    1.29    1.37
   1  -5   9    1.21    1.35
  -1   5  -9    0.86    1.74
  -1   5  -9    1.94    1.28
  -1   5  -9    8.35    2.52
  -1   5  -9    0.64    2.28
   1  -5  10    4.83    1.97
  -1   5 -10    5.54    1.91
  -1   5 -10    7.16    2.11
   1  -5  11   12.10    3.07
  -1   5 -11   17.59    3.06
  -1   5 -11   17.58    3.18
   1  -5  12    1.68    2.52
  -1   5 -12    1.64    2.41
  -1   5 -12    0.51    1.63
   1  -5  13    6.39    2.67
  -1   5 -13   11.61    5.31
  -1   5 -13   13.97    5.38
   1  -5  14    3.10    2.39
  -1   5 -14    6.84    2.71
  -1   5 -14    5.66    2.79
   1  -5  15    2.24    2.00
  -1   5 -15    2.77    2.35
  -1   5 -15    2.51    2.34
   1  -5  16    5.95    2.75
  -1   5 -16    5.45    3.16
  -1   5 -16   12.58    3.32
   1  -5  17    2.65    2.58
  -1   5 -17   -1.25    1.72
  -1   5 -17    2.88    2.92
   1  -5  18   18.56    3.32
  -1   5 -18   11.36    6.13
  -1   5 -18    8.95    3.58
   1  -5  19    8.39    2.45
  -1   5 -19   11.79    3.03
  -1   4  17    4.56    1.38
  -1   4  17   19.94    3.67
  -1   4  16    5.30    2.66
  -1   4  16   38.24    3.63
  -1   4  15    1.16    1.65
  -1   4  15    2.78    1.95
  -1   4  14   11.39    4.98
  -1   4  14   12.38    3.80
  -1   4  13   26.40    4.97
  -1   4  13   35.04    5.72
   1  -4 -12   94.30   12.77
  -1   4  12   71.76    8.81
  -1   4  12   88.87   10.32
   1  -4 -11  110.34   12.56
  -1   4  11   85.53    9.53
  -1   4  11  104.12   11.26
   1  -4 -10   73.84    6.67
  -1   4  10   52.46    6.62
  -1   4  10   69.95    8.10
   1  -4  -9    0.50    1.18
  -1   4   9    0.66    1.15
  -1   4   9    0.08    1.37
   1  -4  -8   41.55    3.88
   1  -4  -8   29.33    3.27
  -1   4   8   26.69    3.69
  -1   4   8   27.23    4.05
  -1   4   8   29.64    3.63
  -1   4   8   35.82    4.28
   1  -4  -7    0.71    1.08
   1  -4  -7    0.62    0.92
   1  -4  -7    0.72    1.42
  -1   4   7   -0.07    0.70
  -1   4   7    1.70    1.92
  -1   4   7    0.63    0.95
  -1   4   7    0.02    1.19
  -1   4   7    1.48    1.17
   1  -4  -6    4.88    1.38
   1  -4  -6    4.10    1.23
   1  -4  -6    3.26    1.11
  -1   4   6    2.37    0.95
  -1   4   6    4.41    1.64
  -1   4   6    1.86    1.21
  -1   4   6    3.78    1.51
  -1   4   6    4.14    1.56
   1  -4  -5    5.94    0.98
   1  -4  -5    7.14    1.56
   1  -4  -5    7.76    2.24
   1  -4  -5    5.56    1.16
  -1   4   5    4.64    1.09
  -1   4   5    6.34    1.82
  -1   4   5    5.79    1.23
  -1   4   5    5.55    1.65
  -1   4   5    5.45    1.65
   1  -4  -4    2.72    1.08
   1  -4  -4    4.17    1.24
   1  -4  -4    3.87    0.95
   1  -4  -4    2.66    1.38
  -1   4   4    2.88    0.90
  -1   4   4    2.24    2.26
  -1   4   4    3.12    0.53
  -1   4   4    3.25    1.52
  -1   4   4    3.19    1.28
  -1   4   4    3.47    1.36
   1  -4  -3   33.40    1.67
   1  -4  -3   35.11    3.04
   1  -4  -3   40.71    2.47
   1  -4  -3   33.81    2.26
  -1   4   3   35.06    2.48
  -1   4   3   35.69    3.50
  -1   4   3   31.25    2.27
  -1   4   3   35.03    3.07
  -1   4   3   38.05    3.27
   1  -4  -2   70.00    3.26
   1  -4  -2   71.65    4.66
   1  -4  -2   83.30    3.97
   1  -4  -2   73.44    4.81
  -1   4   2   70.98    4.07
  -1   4   2   77.86    5.72
  -1   4   2   72.80    2.33
  -1   4   2   72.82    3.72
  -1   4   2   73.64    6.99
  -1   4   2   75.42    7.27
   1  -4  -1  691.37   38.56
   1  -4  -1  717.92   51.19
   1  -4  -1  682.06   40.24
   1  -4  -1  685.88   40.08
  -1   4   1  678.37   40.93
  -1   4   1  699.38   46.78
  -1   4   1  626.09   33.49
  -1   4   1  644.79   40.77
  -1   4   1  652.71   42.52
  -1   4   1  664.50   43.51
   1  -4   0   67.74    2.31
   1  -4   0   63.68    4.37
   1  -4   0   63.13    3.29
  -1   4   0   64.20    5.12
  -1   4   0   55.35    2.20
  -1   4   0   59.58    3.01
  -1   4   0   62.86    4.44
  -1   4   0   62.01    4.27
   1  -4   1 1735.02  149.69
   1  -4   1 1815.96  158.65
   1  -4   1 1758.99  145.67
   1  -4   1 1767.41  153.45
  -1   4  -1 1904.12  161.77
  -1   4  -1 1603.07  132.06
  -1   4  -1 1835.30  149.90
  -1   4  -1 1736.51  155.54
   1  -4   2   58.34    3.59
   1  -4   2   51.25    5.51
   1  -4   2   51.63    2.74
  -1   4  -2   58.41    3.11
  -1   4  -2   49.26    2.63
   1  -4   3  352.49   18.78
   1  -4   3  352.90   20.29
   1  -4   3  327.24   18.88
   1  -4   3  349.71   23.37
  -1   4  -3  366.62   17.89
  -1   4  -3  303.27   17.92
  -1   4  -3  363.21   18.88
  -1   4  -3  373.26   18.21
  -1   4  -3  367.86   23.33
   1  -4   4    6.81    1.44
   1  -4   4    6.25    1.06
   1  -4   4    6.75    1.56
  -1   4  -4    7.86    1.52
  -1   4  -4    5.62    1.13
  -1   4  -4    7.35    1.15
  -1   4  -4    7.78    1.37
   1  -4   5  579.23   35.69
   1  -4   5  621.00   40.17
   1  -4   5  623.48   37.87
   1  -4   5  555.49   34.92
   1  -4   5  614.00   39.97
  -1   4  -5  668.52   39.20
  -1   4  -5  653.86   39.20
  -1   4  -5  592.98   38.21
  -1   4  -5  597.62   36.78
  -1   4  -5  654.08   40.43
   1  -4   6  524.54   31.81
   1  -4   6  586.83   37.39
   1  -4   6  558.63   34.64
   1  -4   6  518.23   36.64
   1  -4   6  600.01   43.79
  -1   4  -6  565.19   32.95
  -1   4  -6  565.60   35.38
  -1   4  -6  576.21   42.27
  -1   4  -6  500.30   33.97
  -1   4  -6  586.06   36.30
   1  -4   7  444.44   25.69
   1  -4   7  443.57   27.88
   1  -4   7  439.72   31.51
   1  -4   7  415.19   30.55
   1  -4   7  454.23   33.97
  -1   4  -7  506.30   29.03
  -1   4  -7  485.08   30.25
  -1   4  -7  386.62   30.01
  -1   4  -7  489.36   30.16
   1  -4   8  963.64   69.85
   1  -4   8 1014.84   77.29
   1  -4   8 1009.83   79.96
   1  -4   8  944.78   75.34
   1  -4   8 1041.03   82.44
  -1   4  -8  985.86   72.80
  -1   4  -8 1092.57   91.28
  -1   4  -8  818.57   75.22
  -1   4  -8  944.09   79.79
  -1   4  -8 1131.15   86.45
   1  -4   9  331.22   20.77
   1  -4   9  387.27   26.30
   1  -4   9  359.65   24.74
   1  -4   9  397.50   26.80
  -1   4  -9  449.83   28.30
  -1   4  -9  312.58   28.58
  -1   4  -9  311.50   25.83
  -1   4  -9  443.69   28.45
   1  -4  10  107.11    9.15
   1  -4  10  106.75    8.84
  -1   4 -10  136.74    9.84
  -1   4 -10  134.15    9.85
   1  -4  11   -0.34    1.80
  -1   4 -11    1.26    1.15
  -1   4 -11   -0.90    1.13
   1  -4  12   90.70   12.54
  -1   4 -12  104.18    9.36
  -1   4 -12  103.61   12.85
   1  -4  13    2.71    2.22
  -1   4 -13    4.83    3.61
  -1   4 -13    6.78    2.50
   1  -4  14    3.04    2.00
  -1   4 -14    1.71    4.14
  -1   4 -14    2.40    2.27
   1  -4  15   -0.32    1.58
  -1   4 -15   -0.60    1.87
  -1   4 -15   -0.67    1.80
   1  -4  16    2.81    4.03
  -1   4 -16    4.16    2.68
  -1   4 -16    4.32    4.47
   1  -4  17    1.07    1.57
  -1   4 -17    0.30    1.75
  -1   4 -17   -0.37    1.71
   1  -4  18    2.23    2.18
  -1   4 -18    5.26    3.92
  -1   4 -18    4.29    2.31
   1  -4  19    1.17    1.90
  -1   4 -19    5.91    2.31
  -1   4 -19    4.82    3.44
  -1   3  18    3.22    1.76
  -1   3  17    1.90    2.22
  -1   3  17    1.13    1.68
  -1   3  16    2.72    2.81
  -1   3  16    1.80    2.03
  -1   3  15   -3.85    1.57
  -1   3  15    5.45    1.74
  -1   3  14    2.63    2.14
  -1   3  13   26.99    4.83
   1  -3 -12    1.86    1.79
  -1   3  12   -0.19    1.50
   1  -3 -11    7.83    2.37
   1  -3 -11    6.96    1.96
   1  -3 -11    8.32    2.85
  -1   3  11    5.06    3.80
   1  -3 -10    0.51    1.20
   1  -3 -10    0.22    1.03
   1  -3 -10    0.84    1.46
  -1   3  10    0.90    1.94
   1  -3  -9    5.33    1.61
   1  -3  -9    6.32    1.51
   1  -3  -9    7.30    1.52
   1  -3  -9    4.57    1.46
   1  -3  -9    3.17    2.03
  -1   3   9    2.12    0.96
  -1   3   9    3.21    2.44
  -1   3   9    4.96    2.66
   1  -3  -8  214.46   13.35
   1  -3  -8  224.22   13.41
   1  -3  -8  264.06   16.80
   1  -3  -8  177.96   11.90
   1  -3  -8  227.03   15.96
  -1   3   8  191.15   13.96
  -1   3   8  191.85   16.68
  -1   3   8  221.23   14.25
   1  -3  -7  249.80   14.56
   1  -3  -7  265.29   15.21
   1  -3  -7  264.86   14.37
   1  -3  -7  222.45   16.03
   1  -3  -7  259.89   17.37
  -1   3   7  206.92   13.70
  -1   3   7  239.54   16.51
  -1   3   7  234.87   17.90
  -1   3   7  299.82   22.09
   1  -3  -6   62.06    3.95
   1  -3  -6   64.24    4.36
   1  -3  -6   75.69    4.23
   1  -3  -6   63.66    5.86
   1  -3  -6   67.19    5.50
  -1   3   6   54.55    4.98
  -1   3   6   64.14    7.82
  -1   3   6   71.52    3.70
  -1   3   6   57.49    6.25
  -1   3   6   77.03    5.42
   1  -3  -5  498.17   32.84
   1  -3  -5  513.65   31.95
   1  -3  -5  568.74   34.79
   1  -3  -5  507.25   30.28
   1  -3  -5  530.13   34.71
  -1   3   5  531.33   35.88
  -1   3   5  526.09   35.82
  -1   3   5  546.14   30.00
  -1   3   5  488.37   33.30
  -1   3   5  579.81   36.63
   1  -3  -4  108.28    6.73
   1  -3  -4  106.72    5.78
   1  -3  -4  111.64    5.10
   1  -3  -4  105.87    5.14
  -1   3   4  110.04    7.83
  -1   3   4  110.89    7.37
  -1   3   4  115.78    5.53
  -1   3   4  101.78    5.23
  -1   3   4  117.79    9.31
   1  -3  -3    7.88    1.18
   1  -3  -3    6.81    0.89
   1  -3  -3    5.73    1.23
  -1   3   3    6.85    1.84
  -1   3   3    5.69    2.32
  -1   3   3    7.11    0.60
  -1   3   3    4.94    0.82
  -1   3   3    5.02    1.28
  -1   3   3    6.02    1.31
   1  -3  -2  194.42    9.44
   1  -3  -2  195.56    9.41
   1  -3  -2  204.75    8.70
   1  -3  -2  204.39    8.24
  -1   3   2  177.57   10.06
  -1   3   2  201.07   11.03
  -1   3   2  208.39    7.98
  -1   3   2  189.75    9.10
  -1   3   2  191.05    9.63
  -1   3   2  201.62   12.80
   1  -3  -1  107.07    5.35
   1  -3  -1  112.66    7.94
   1  -3  -1  107.78    4.60
   1  -3  -1  115.10    4.25
  -1   3   1  105.81    4.85
  -1   3   1  119.91    6.57
  -1   3   1  106.71    5.04
  -1   3   1  103.45    3.89
  -1   3   1  105.27    7.45
  -1   3   1  104.91    5.54
   1  -3   0  937.79   57.06
   1  -3   0  907.86   60.45
   1  -3   0  898.23   53.73
  -1   3   0  913.82   57.43
  -1   3   0  863.12   53.53
  -1   3   0  987.13   58.40
  -1   3   0  891.85   58.67
   1  -3   1    5.21    0.92
   1  -3   1    4.99    1.09
  -1   3  -1    6.13    0.78
  -1   3  -1    4.16    0.73
  -1   3  -1    5.40    0.96
  -1   3  -1    5.58    0.56
   1  -3   2   18.81    1.39
   1  -3   2   20.38    1.78
   1  -3   2   14.75    1.84
   1  -3   2   14.78    1.52
   1  -3   2   14.69    1.63
  -1   3  -2   16.63    1.86
  -1   3  -2   15.18    2.07
  -1   3  -2   15.08    1.41
  -1   3  -2   14.06    1.53
   1  -3   3  299.30   14.06
   1  -3   3  303.76   13.23
   1  -3   3  291.17   15.51
   1  -3   3  277.43   12.72
   1  -3   3  290.33   14.88
  -1   3  -3  312.27   13.57
  -1   3  -3  277.07   13.99
  -1   3  -3  299.04   17.65
  -1   3  -3  282.04   16.45
   1  -3   4 1261.03   93.46
   1  -3   4 1464.41  105.72
   1  -3   4 1301.92  101.79
   1  -3   4 1363.96  100.29
   1  -3   4 1197.41   90.05
   1  -3   4 1342.18  108.63
  -1   3  -4 1337.84   98.36
  -1   3  -4 1295.20  105.31
  -1   3  -4 1252.14   96.98
  -1   3  -4 1340.37  101.31
   1  -3   5   31.05    1.74
   1  -3   5   29.66    2.53
   1  -3   5   29.06    2.16
   1  -3   5   27.54    2.12
   1  -3   5   29.93    2.50
  -1   3  -5   34.07    1.82
  -1   3  -5   40.23    3.70
  -1   3  -5   27.29    2.24
  -1   3  -5   33.59    3.61
   1  -3   6  142.39    7.66
   1  -3   6  158.59    8.79
   1  -3   6  157.95   10.76
   1  -3   6  145.81    7.95
   1  -3   6  157.15    8.67
  -1   3  -6  187.86    9.56
  -1   3  -6  176.47    9.06
  -1   3  -6  141.54    8.38
  -1   3  -6  143.26    7.97
  -1   3  -6  165.55    8.51
   1  -3   7   58.09    2.63
   1  -3   7   59.45    4.12
   1  -3   7   58.42    4.18
   1  -3   7   56.22    3.99
   1  -3   7   56.27    4.27
  -1   3  -7   59.92    2.89
  -1   3  -7   57.66    4.44
  -1   3  -7   48.51    4.17
  -1   3  -7   50.18    3.55
  -1   3  -7   62.17    4.07
   1  -3   8   64.39    2.97
   1  -3   8   65.13    5.11
   1  -3   8   59.65    6.99
   1  -3   8   64.28    5.08
  -1   3  -8   78.02    3.63
  -1   3  -8   73.75    5.44
  -1   3  -8   55.08    5.06
  -1   3  -8   74.09    5.01
   1  -3   9   81.30    5.55
   1  -3   9   80.05    6.66
   1  -3   9   78.71    8.96
   1  -3   9   84.58    6.60
  -1   3  -9  108.40   10.23
  -1   3  -9   76.04    6.67
  -1   3  -9   92.91    6.58
   1  -3  10   86.54   10.57
   1  -3  10   83.24    7.43
   1  -3  10   94.52    7.62
  -1   3 -10  110.00    8.14
  -1   3 -10   85.90    7.86
  -1   3 -10   96.49    7.51
   1  -3  11   84.05    7.90
  -1   3 -11  107.36    8.53
  -1   3 -11   97.12   11.00
   1  -3  12   65.73    7.46
  -1   3 -12   82.78    7.75
  -1   3 -12   87.76    8.31
   1  -3  13   -0.01    1.26
  -1   3 -13    0.13    1.36
  -1   3 -13   -0.43    1.39
   1  -3  14    1.96    1.94
  -1   3 -14    3.87    4.06
  -1   3 -14    1.76    2.11
   1  -3  15    4.34    4.35
  -1   3 -15    5.68    2.92
  -1   3 -15    3.96    4.34
   1  -3  16    0.90    2.01
  -1   3 -16    2.33    2.22
  -1   3 -16    1.08    2.15
   1  -3  17   -1.13    1.55
  -1   3 -17    0.80    1.70
  -1   3 -17    1.16    1.63
   1  -3  18    1.18    1.89
  -1   3 -18    0.29    3.32
  -1   3 -18    2.22    1.87
   1  -3  19    0.96    2.43
  -1   3 -19   -1.45    1.73
  -1   3 -19   -0.76    2.48
  -1   2  18    1.17    1.85
  -1   2  18    0.07    1.38
   1  -2 -17    2.80    1.88
  -1   2  17    1.66    1.80
  -1   2  17    4.00    2.13
   1  -2 -16   13.09    3.53
  -1   2  16   10.30    3.22
   1  -2 -15   29.58    7.85
   1  -2 -15   32.58    5.63
  -1   2  15   21.17    4.77
   1  -2 -14    2.86    2.31
   1  -2 -14    3.65    2.49
  -1   2  14    1.33    3.53
   1  -2 -13    3.21    2.18
   1  -2 -13    3.38    2.40
  -1   2  13    1.96    2.06
   1  -2 -12   -0.72    1.27
   1  -2 -12    0.09    1.37
  -1   2  12    0.41    1.16
   1  -2 -11   13.82    3.04
   1  -2 -11   13.99    3.25
  -1   2  11    9.56    2.84
   1  -2 -10   12.65    2.44
   1  -2 -10    9.35    1.68
   1  -2 -10    8.27    1.68
   1  -2 -10   10.51    2.67
  -1   2  10    9.43    2.27
   1  -2  -9   73.60    5.86
   1  -2  -9   70.73    4.63
   1  -2  -9   70.30    4.69
   1  -2  -9   59.60    5.14
   1  -2  -9   71.12    6.67
  -1   2   9   67.02    5.95
  -1   2   9   76.01    5.85
   1  -2  -8   11.21    1.79
   1  -2  -8    8.14    1.32
   1  -2  -8    7.67    2.16
   1  -2  -8    6.29    1.46
   1  -2  -8    9.88    2.03
  -1   2   8    4.84    1.19
  -1   2   8    4.51    2.42
  -1   2   8    7.31    1.66
  -1   2   8    8.00    1.71
   1  -2  -7 1016.58   78.31
   1  -2  -7  949.59   70.36
   1  -2  -7  998.44   71.74
   1  -2  -7  930.39   70.15
   1  -2  -7 1004.96   79.94
  -1   2   7  977.43   77.36
  -1   2   7 1145.88   82.40
  -1   2   7  965.70   74.24
  -1   2   7 1022.21   77.42
   1  -2  -6   15.97    1.97
   1  -2  -6   18.76    1.49
   1  -2  -6   14.68    1.72
   1  -2  -6   16.29    2.27
  -1   2   6   12.66    1.60
  -1   2   6   14.89    2.19
  -1   2   6   15.47    1.78
  -1   2   6   19.07    2.32
   1  -2  -5  135.07    7.02
   1  -2  -5  131.10    6.30
   1  -2  -5  141.22    7.06
   1  -2  -5  131.34    7.73
   1  -2  -5  134.98    7.77
  -1   2   5  122.38    6.60
  -1   2   5  132.12   10.63
  -1   2   5  154.64    8.03
  -1   2   5  133.47    6.75
  -1   2   5  153.60    8.04
   1  -2  -4   68.61    3.57
   1  -2  -4   70.50    3.42
   1  -2  -4   73.40    2.91
   1  -2  -4   73.22    3.20
   1  -2  -4   71.96    4.24
  -1   2   4   64.63    3.57
  -1   2   4   69.89    4.66
  -1   2   4   74.42    3.03
  -1   2   4   71.89    3.40
  -1   2   4   76.78    4.16
   1  -2  -3  568.50   35.22
   1  -2  -3  583.18   33.30
   1  -2  -3  670.85   37.43
   1  -2  -3  654.13   34.47
   1  -2  -3  603.43   35.84
  -1   2   3  563.34   33.00
  -1   2   3  648.65   40.16
  -1   2   3  667.93   38.62
  -1   2   3  617.59   33.33
  -1   2   3  643.35   37.82
   1  -2  -2  194.99    8.41
   1  -2  -2  187.70    8.18
   1  -2  -2  202.27    7.79
   1  -2  -2  203.93    8.08
  -1   2   2  190.29    8.65
  -1   2   2  193.34   12.39
  -1   2   2  190.71    7.67
  -1   2   2  206.57    8.32
  -1   2   2  203.03    9.19
   1  -2  -1    7.92    0.89
   1  -2  -1    8.60    1.11
   1  -2  -1    8.13    0.64
  -1   2   1    7.96    1.00
  -1   2   1    7.37    1.30
  -1   2   1    8.08    0.82
  -1   2   1    7.97    0.69
  -1   2   1    7.88    1.01
  -1   2   1    8.18    1.05
   1  -2   0  118.07    6.16
   1  -2   0  124.27    5.65
   1  -2   0  130.28    4.11
   1  -2   0  128.31    5.43
  -1   2   0  139.58    5.60
  -1   2   0  138.42    6.41
  -1   2   0  121.43    5.04
  -1   2   0  127.59    5.39
  -1   2   0  130.43    4.13
  -1   2   0  126.62    5.32
   1  -2   1    9.46    1.68
   1  -2   1    8.99    1.25
   1  -2   1    7.69    0.68
  -1   2  -1    8.64    1.23
  -1   2  -1    8.09    0.99
  -1   2  -1    8.95    1.13
   1  -2   2 5217.40  665.78
   1  -2   2 4842.70  630.48
   1  -2   2 4758.61  594.45
   1  -2   2 4362.30  547.39
   1  -2   2 4945.55  635.01
  -1   2  -2 5176.21  650.21
  -1   2  -2 4673.81  605.07
  -1   2  -2 4580.44  595.43
  -1   2  -2 5277.40  672.03
   1  -2   3 4087.45  508.71
   1  -2   3 4511.88  568.24
   1  -2   3 4627.84  592.29
   1  -2   3 4376.17  542.69
   1  -2   3 4283.94  538.23
   1  -2   3 4653.12  584.98
  -1   2  -3 5099.58  624.20
  -1   2  -3 4753.79  605.95
  -1   2  -3 4436.40  580.43
  -1   2  -3 4902.54  613.21
   1  -2   4 3882.66  478.28
   1  -2   4 4961.11  616.12
   1  -2   4 4682.46  607.44
   1  -2   4 4702.25  591.72
   1  -2   4 3868.80  488.20
   1  -2   4 4652.84  584.93
  -1   2  -4 4639.21  563.01
  -1   2  -4 4085.79  529.88
  -1   2  -4 4282.40  551.45
  -1   2  -4 4772.99  602.22
   1  -2   5 1829.43  160.04
   1  -2   5 2241.57  207.50
   1  -2   5 2163.37  198.16
   1  -2   5 1816.49  170.36
   1  -2   5 2220.97  204.41
  -1   2  -5 2161.27  186.70
  -1   2  -5 2003.33  188.57
  -1   2  -5 2029.60  192.43
  -1   2  -5 2208.36  201.64
   1  -2   6   92.00    3.12
   1  -2   6  108.95    8.03
   1  -2   6  100.06    5.59
   1  -2   6   86.79    5.14
   1  -2   6   92.62    6.90
  -1   2  -6  108.27    4.35
  -1   2  -6  119.60    5.97
  -1   2  -6   86.82    5.57
  -1   2  -6   90.93    5.49
  -1   2  -6  100.36    7.06
   1  -2   7  159.44    8.25
   1  -2   7  154.83    8.80
   1  -2   7  135.19    8.04
   1  -2   7  147.66   10.28
  -1   2  -7  154.17    6.13
  -1   2  -7  173.06    9.14
  -1   2  -7  125.83    8.25
  -1   2  -7  141.25    8.29
  -1   2  -7  167.58    8.62
   1  -2   8   49.69    3.50
   1  -2   8   50.93    5.93
   1  -2   8   46.33    3.90
   1  -2   8   54.99    3.67
  -1   2  -8   56.58    4.26
  -1   2  -8   44.19    4.21
  -1   2  -8   46.53    3.71
  -1   2  -8   53.77    3.87
   1  -2   9    2.10    0.85
   1  -2   9    1.84    1.30
   1  -2   9    3.35    1.36
   1  -2   9    2.94    1.20
  -1   2  -9    5.09    2.29
  -1   2  -9    2.71    1.49
  -1   2  -9    3.29    1.18
  -1   2  -9    4.31    1.29
   1  -2  10   28.62    2.59
   1  -2  10   30.20    3.73
   1  -2  10   31.98    3.68
   1  -2  10   33.54    3.35
  -1   2 -10   42.26    3.90
  -1   2 -10   35.55    4.02
  -1   2 -10   24.98    3.17
  -1   2 -10   43.72    6.19
   1  -2  11    1.22    1.30
   1  -2  11    1.56    1.35
  -1   2 -11    0.50    1.40
  -1   2 -11    0.36    1.14
  -1   2 -11    2.04    1.43
   1  -2  12   68.93    7.61
  -1   2 -12   89.81    7.96
  -1   2 -12   87.52    8.22
   1  -2  13   -0.53    2.19
  -1   2 -13   -0.16    1.38
  -1   2 -13   -0.19    1.40
   1  -2  14   14.95    6.83
  -1   2 -14   26.46    7.80
  -1   2 -14   21.20    6.97
   1  -2  15    0.54    1.91
  -1   2 -15    1.74    2.01
  -1   2 -15    0.83    1.93
   1  -2  16    4.87    2.65
  -1   2 -16    4.37    2.85
  -1   2 -16    3.75    2.68
   1  -2  17    0.42    1.99
  -1   2 -17    0.64    2.10
  -1   2 -17    3.10    1.98
   1  -2  18    2.41    3.59
  -1   2 -18    1.14    4.19
  -1   2 -18    4.75    3.53
   1  -2  19    1.09    1.80
  -1   2 -19    2.89    2.07
  -1   2 -19    2.60    1.77
  -1   1  19    9.25    1.96
  -1   1  19    4.21    2.40
   1  -1 -18    3.95    1.90
  -1   1  18    0.48    1.64
   1  -1 -17    5.17    4.62
   1  -1 -17    6.40    2.89
  -1   1  17    3.85    2.36
   1  -1 -16   22.99    4.60
   1  -1 -16   17.32    4.83
  -1   1  16   12.66    6.62
   1  -1 -15    5.05    2.64
   1  -1 -15    3.86    2.74
  -1   1  15    2.01    2.42
   1  -1 -14    0.81    1.85
   1  -1 -14    0.70    1.85
  -1   1  14    0.38    1.64
   1  -1 -13    5.45    2.63
   1  -1 -13    4.56    2.61
  -1   1  13    3.75    2.35
   1  -1 -12  117.51   10.55
   1  -1 -12  109.43   15.30
  -1   1  12   91.59    9.61
   1  -1 -11    4.15    3.59
   1  -1 -11    6.01    3.55
  -1   1  11    3.12    3.02
   1  -1 -10   22.32    5.00
   1  -1 -10   22.48    3.67
  -1   1  10   20.08    4.57
  -1   1  10   22.58    2.91
   1  -1  -9   20.83    4.41
   1  -1  -9   20.96    1.69
   1  -1  -9   18.79    1.76
   1  -1  -9   21.59    3.15
  -1   1   9   16.51    3.53
  -1   1   9   20.16    2.58
  -1   1   9   24.41    4.21
   1  -1  -8   60.28    4.58
   1  -1  -8   54.78    6.61
   1  -1  -8   53.77    3.00
   1  -1  -8   59.54    3.25
   1  -1  -8   56.16    4.91
  -1   1   8   46.13    3.96
  -1   1   8   69.86    4.55
  -1   1   8   55.31    4.19
  -1   1   8   61.32    4.48
   1  -1  -7  566.20   35.52
   1  -1  -7  493.46   31.83
   1  -1  -7  475.18   27.25
   1  -1  -7  495.95   29.31
   1  -1  -7  518.93   34.37
  -1   1   7  494.01   31.91
  -1   1   7  568.76   33.95
  -1   1   7  514.33   31.79
  -1   1   7  525.44   32.87
   1  -1  -6   50.84    3.71
   1  -1  -6   50.47    5.15
   1  -1  -6   50.95    2.43
   1  -1  -6   54.90    2.37
   1  -1  -6   57.56    3.20
   1  -1  -6   65.12    3.99
  -1   1   6   54.14    5.60
  -1   1   6   60.80    4.62
  -1   1   6   51.31    3.15
  -1   1   6   54.27    3.39
   1  -1  -5   38.78    3.08
   1  -1  -5   40.58    4.12
   1  -1  -5   40.00    1.92
   1  -1  -5   48.39    2.61
   1  -1  -5   50.48    2.48
   1  -1  -5   41.72    2.91
  -1   1   5   40.70    3.23
  -1   1   5   49.85    2.48
  -1   1   5   45.58    2.45
  -1   1   5   45.44    4.33
   1  -1  -4  168.59    8.90
   1  -1  -4  178.86    8.51
   1  -1  -4  168.07    6.63
   1  -1  -4  174.72    6.21
   1  -1  -4  170.73    6.98
   1  -1  -4  172.60    8.20
  -1   1   4  170.51    9.02
  -1   1   4  175.84    7.35
  -1   1   4  172.09    7.16
  -1   1   4  180.80    8.26
   1  -1  -3   36.40    2.49
   1  -1  -3   37.92    2.29
   1  -1  -3   36.78    2.33
   1  -1  -3   38.09    1.35
   1  -1  -3   37.16    1.43
   1  -1  -3   37.81    3.20
  -1   1   3   36.78    4.02
  -1   1   3   43.19    2.18
  -1   1   3   36.00    1.52
  -1   1   3   39.54    2.09
   1  -1  -2 2133.08  201.68
   1  -1  -2 2183.26  206.68
   1  -1  -2 2337.22  210.54
   1  -1  -2 2102.65  182.23
   1  -1  -2 2325.50  211.73
  -1   1   2 2167.58  205.91
  -1   1   2 2289.38  212.89
  -1   1   2 2257.80  194.84
   1  -1  -1   42.41    2.31
   1  -1  -1   40.43    2.18
   1  -1  -1   37.86    2.69
  -1   1   1   40.18    2.48
  -1   1   1   38.92    2.01
  -1   1   1   39.57    2.47
  -1   1   1   40.52    1.71
   1  -1   0 1768.28  140.84
   1  -1   0 1865.48  147.44
   1  -1   0 1727.16  137.68
   1  -1   0 1811.06  138.49
  -1   1   0 1655.54  134.00
  -1   1   0 1752.74  139.67
  -1   1   0 1699.74  134.14
  -1   1   0 1837.04  140.51
   1  -1   1    4.80    0.80
   1  -1   1    3.82    0.86
   1  -1   1    3.90    0.24
   1  -1   1    3.62    0.54
  -1   1  -1    3.52    0.86
  -1   1  -1    4.23    0.85
  -1   1  -1    4.90    0.51
   1  -1   2 3813.99  432.49
   1  -1   2 3838.98  439.99
   1  -1   2 3534.88  393.84
   1  -1   2 3548.12  396.17
  -1   1  -2 4053.13  442.13
  -1   1  -2 3695.73  423.82
  -1   1  -2 3617.46  424.66
  -1   1  -2 3374.90  373.43
  -1   1  -2 3888.62  430.71
   1  -1   3    5.25    1.73
   1  -1   3    4.91    1.07
   1  -1   3    4.41    1.16
   1  -1   3    8.27    1.24
  -1   1  -3    5.87    0.47
  -1   1  -3    4.38    1.86
  -1   1  -3    4.50    1.09
  -1   1  -3    5.46    0.70
  -1   1  -3    5.27    0.68
   1  -1   4 1698.97  130.48
   1  -1   4 1660.90  133.04
   1  -1   4 1537.32  124.22
   1  -1   4 1455.36  112.91
  -1   1  -4 1409.38   98.72
  -1   1  -4 1456.46  116.95
  -1   1  -4 1484.04  121.36
  -1   1  -4 1578.87  122.77
  -1   1  -4 1630.54  124.77
   1  -1   5   29.38    2.10
   1  -1   5   28.37    2.08
   1  -1   5   34.08    1.91
  -1   1  -5   27.75    2.29
  -1   1  -5   26.96    2.38
  -1   1  -5   28.81    2.11
  -1   1  -5   32.90    1.95
   1  -1   6  117.29    5.92
   1  -1   6  106.27    5.83
   1  -1   6  104.27    5.21
  -1   1  -6  134.89    6.32
  -1   1  -6   94.59    5.79
  -1   1  -6  101.50    6.11
  -1   1  -6  112.40    5.94
  -1   1  -6  114.06    5.62
   1  -1   7  563.88   36.29
   1  -1   7  466.46   29.01
   1  -1   7  464.25   27.28
  -1   1  -7  536.14   31.47
  -1   1  -7  355.00   24.43
  -1   1  -7  467.40   29.84
  -1   1  -7  510.64   30.76
  -1   1  -7  502.00   29.41
   1  -1   8    5.04    1.05
   1  -1   8    4.99    1.44
   1  -1   8    4.88    1.23
  -1   1  -8    5.07    1.45
  -1   1  -8    5.95    1.43
  -1   1  -8    7.65    2.38
   1  -1   9   47.80    3.38
   1  -1   9   43.38    4.21
   1  -1   9   44.62    3.67
  -1   1  -9   56.12    6.32
  -1   1  -9   41.08    3.92
  -1   1  -9   51.50    4.33
   1  -1  10    3.54    2.01
   1  -1  10    5.05    1.86
   1  -1  10    6.78    1.93
   1  -1  10    4.98    1.60
  -1   1 -10   10.66    1.83
  -1   1 -10    5.19    1.67
  -1   1 -10    4.95    1.86
   1  -1  11    6.56    1.31
   1  -1  11    8.35    3.71
  -1   1 -11   11.89    2.22
  -1   1 -11    6.23    3.28
  -1   1 -11   10.48    2.31
   1  -1  12    5.07    1.30
   1  -1  12    8.22    4.14
  -1   1 -12   10.47    2.28
  -1   1 -12   10.42    3.84
   1  -1  13    2.28    2.16
  -1   1 -13    4.19    3.08
  -1   1 -13    2.99    2.11
   1  -1  14   12.85    3.84
  -1   1 -14   17.41    3.97
  -1   1 -14   14.86    3.79
   1  -1  15    8.97    3.29
  -1   1 -15    8.78    3.40
  -1   1 -15    8.46    3.20
   1  -1  16    0.51    1.85
  -1   1 -16    2.58    1.82
  -1   1 -16   -1.10    1.75
   1  -1  17    4.03    3.73
  -1   1 -17    2.95    3.70
  -1   1 -17    1.02    3.64
   1  -1  18    7.72    3.08
  -1   1 -18   12.77    3.38
  -1   1 -18    8.42    2.91
   1  -1  19    2.26    1.81
  -1   1 -19    2.59    1.79
  -1   1 -19    1.58    1.56
   1   0 -19   -0.28    1.38
  -1   0  19    0.54    1.13
   1   0 -18    7.38    5.56
   1   0 -18    9.29    3.14
  -1   0  18    6.40    4.34
   1   0 -17   23.58    4.96
   1   0 -17   20.32    4.93
  -1   0  17   16.98    4.32
   1   0 -16   17.45    4.39
   1   0 -16   12.85    4.23
  -1   0  16   11.47    3.88
   1   0 -15   42.79    6.59
   1   0 -15   37.04    6.42
  -1   0  15   29.63    6.04
   1   0 -14    6.75    2.90
   1   0 -14    4.74    4.44
  -1   0  14    2.91    2.48
   1   0 -13    9.09    5.11
   1   0 -13    7.05    3.01
  -1   0  13    7.00    4.05
   1   0 -12   57.81    9.82
   1   0 -12   49.88    6.19
  -1   0  12   41.72    5.25
   1   0 -11    0.26    2.67
   1   0 -11    1.56    1.69
  -1   0  11    2.31    1.40
   1   0 -10  211.44   14.60
   1   0 -10  261.04   17.59
   1   0 -10  268.92   18.34
  -1   0  10  242.58   16.17
  -1   0  10  261.56   16.03
   1   0  -9  116.78    8.43
   1   0  -9  141.25    9.51
   1   0  -9  148.45   10.04
  -1   0   9  133.42    8.72
  -1   0   9  136.38    8.26
   1   0  -8  150.40   11.89
   1   0  -8  135.58    8.64
   1   0  -8  111.88    4.73
   1   0  -8  126.58    6.45
   1   0  -8  145.42    9.04
  -1   0   8  122.13    8.89
  -1   0   8  165.19    8.80
  -1   0   8  142.27   10.67
  -1   0   8  138.61   10.12
   1   0  -7  507.16   30.83
   1   0  -7  394.89   25.30
   1   0  -7  379.58   18.91
   1   0  -7  412.99   21.40
   1   0  -7  465.25   32.18
  -1   0   7  474.25   31.48
  -1   0   7  488.55   27.78
  -1   0   7  449.45   26.31
  -1   0   7  439.17   29.04
   1   0  -6   28.18    2.66
   1   0  -6   28.43    2.50
   1   0  -6   27.77    1.09
   1   0  -6   29.86    1.18
   1   0  -6   29.69    3.77
  -1   0   6   27.01    2.39
  -1   0   6   33.58    3.38
  -1   0   6   29.54    2.14
  -1   0   6   29.61    2.17
   1   0  -5   44.59    3.18
   1   0  -5   41.79    2.78
   1   0  -5   41.05    1.72
   1   0  -5   41.72    1.25
   1   0  -5   46.22    3.97
  -1   0   5   42.71    2.87
  -1   0   5   53.06    2.54
  -1   0   5   46.08    2.41
  -1   0   5   41.83    2.32
   1   0  -4  147.45    9.91
   1   0  -4  132.79    8.39
   1   0  -4  139.42    5.07
   1   0  -4  138.48    4.37
   1   0  -4  141.43    7.91
  -1   0   4  146.46    7.07
  -1   0   4  141.78    5.98
  -1   0   4  156.06    7.27
  -1   0   4  137.00    5.67
   1   0  -3  390.22   24.40
   1   0  -3  394.14   20.30
   1   0  -3  392.67   17.13
   1   0  -3  395.79   15.59
   1   0  -3  398.09   18.81
  -1   0   3  364.16   19.57
  -1   0   3  447.36   21.67
  -1   0   3  433.01   19.26
  -1   0   3  369.36   18.66
   1   0  -2  267.84   12.95
   1   0  -2  255.49   11.84
   1   0  -2  248.69   10.41
   1   0  -2  270.67   10.26
   1   0  -2  264.43   10.46
  -1   0   2  243.27   14.23
  -1   0   2  261.30   11.64
  -1   0   2  298.00   11.42
  -1   0   2  272.01   10.61
   1   0  -1 2747.22  278.34
   1   0  -1 2937.81  293.70
   1   0  -1 2808.22  273.45
   1   0  -1 2766.00  263.50
   1   0  -1 2816.68  268.03
  -1   0   1 2492.57  257.46
  -1   0   1 3008.70  298.36
  -1   0   1 3016.60  292.44
  -1   0   1 2910.72  278.50
  -1   0   1 2889.92  276.41
   1   0   0   51.63    2.27
   1   0   0   50.50    2.38
   1   0   0   49.32    1.99
   1   0   0   51.65    1.44
  -1   0   0   49.97    1.97
  -1   0   0   49.66    2.31
  -1   0   0   52.73    1.99
  -1   0   0   53.63    1.46
  -1   0   0   52.30    1.36
   1   0   1   34.15    2.06
   1   0   1   31.92    1.79
   1   0   1   31.95    1.78
   1   0   1   30.69    1.18
   1   0   1   29.97    1.03
  -1   0  -1   30.76    1.28
  -1   0  -1   30.93    1.74
  -1   0  -1   31.36    2.90
  -1   0  -1   31.94    1.64
  -1   0  -1   30.23    0.99
   1   0   2 7515.31 1283.93
   1   0   2 9999.00 1732.52
   1   0   2 9020.79 1570.54
   1   0   2 9632.47 1664.51
   1   0   2 9644.64 1637.53
  -1   0  -2 8774.81 1485.76
  -1   0  -2 9320.77 1626.36
  -1   0  -2 8852.54 1551.34
  -1   0  -2 9109.50 1573.92
  -1   0  -2 9171.39 1566.46
   1   0   3  116.14    6.09
   1   0   3  126.67    5.89
   1   0   3  133.47    7.48
   1   0   3  124.60    5.45
  -1   0  -3  131.34    5.83
  -1   0  -3  115.55    5.92
  -1   0  -3  139.97    5.80
  -1   0  -3  119.59    4.47
   1   0   4 2649.91  250.94
   1   0   4 2672.01  259.52
   1   0   4 2266.86  227.21
   1   0   4 2189.51  210.69
  -1   0  -4 2229.85  223.22
  -1   0  -4 2638.96  254.76
  -1   0  -4 2451.93  235.74
   1   0   5   55.72    4.35
   1   0   5   54.27    4.90
   1   0   5   53.59    2.57
  -1   0  -5   55.73    3.67
  -1   0  -5   64.47    3.69
  -1   0  -5   73.01    4.67
   1   0   6    1.29    0.67
   1   0   6    4.03    1.33
  -1   0  -6    0.45    0.69
  -1   0  -6    0.18    0.85
  -1   0  -6   -0.14    1.32
  -1   0  -6    0.56    0.70
   1   0   7   34.43    2.47
   1   0   7   27.65    4.50
   1   0   7   31.82    3.35
  -1   0  -7   36.94    2.78
  -1   0  -7   29.09    2.95
  -1   0  -7   32.41    3.06
  -1   0  -7   36.06    2.81
   1   0   8  362.32   20.14
   1   0   8  310.52   25.83
   1   0   8  293.02   19.80
  -1   0  -8  353.12   23.84
  -1   0  -8  294.11   23.48
  -1   0  -8  314.94   20.02
  -1   0  -8  329.33   20.27
   1   0   9   74.62    6.18
   1   0   9   72.71    9.36
   1   0   9   74.66    7.23
  -1   0  -9   89.54    5.83
  -1   0  -9   73.99    8.81
  -1   0  -9   74.59    6.20
  -1   0  -9   79.31    8.32
   1   0  10   58.29    4.05
   1   0  10   55.28    6.04
   1   0  10   60.60    4.76
  -1   0 -10   64.96    5.23
  -1   0 -10   58.22    5.46
  -1   0 -10   60.48    5.69
  -1   0 -10   63.23    8.20
   1   0  11   63.34    4.57
   1   0  11   59.37    6.78
  -1   0 -11   69.72    5.89
  -1   0 -11   59.80    6.34
  -1   0 -11   67.85    6.66
   1   0  12    3.82    1.30
   1   0  12    4.63    2.37
  -1   0 -12    6.51    1.96
  -1   0 -12    6.25    2.23
   1   0  13    0.13    1.58
   1   0  13    2.04    1.82
  -1   0 -13   -0.63    2.93
  -1   0 -13    2.00    1.71
   1   0  14    1.30    1.93
  -1   0 -14    0.73    1.82
  -1   0 -14    1.41    1.82
   1   0  15    2.35    2.93
  -1   0 -15   -1.26    1.67
  -1   0 -15   -0.57    2.75
   1   0  16    6.96    5.52
  -1   0 -16   10.48    3.11
  -1   0 -16    8.42    3.12
   1   0  17    6.35    2.85
  -1   0 -17   10.77    4.64
  -1   0 -17    5.04    2.60
   1   0  18    7.75    2.44
  -1   0 -18    4.33    2.22
  -1   0 -18    1.81    2.05
   1   0  19   10.39    2.62
   1   0  19    5.75    1.87
   1   1 -20    0.62    1.44
  -1  -1  20    0.70    1.09
   1   1 -19    0.80    2.99
  -1  -1  19    0.47    2.21
   1   1 -18    2.47    4.62
   1   1 -18    4.61    2.63
  -1  -1  18    4.86    2.42
   1   1 -17   53.09    7.78
   1   1 -17   48.26    7.22
  -1  -1  17   35.89    6.86
   1   1 -16   34.48    6.24
   1   1 -16   24.58    8.76
  -1  -1  16   21.22    5.29
   1   1 -15  183.02   18.10
   1   1 -15  158.31   17.16
  -1  -1  15  136.46   20.14
   1   1 -14  186.05   17.44
   1   1 -14  165.81   16.22
  -1  -1  14  139.27   14.09
   1   1 -13   39.25    9.45
   1   1 -13   36.11    5.48
  -1  -1  13   29.82    4.81
   1   1 -12    0.35    2.46
   1   1 -12   -0.30    1.49
  -1  -1  12   -0.79    1.27
   1   1 -11   57.27    6.10
   1   1 -11   59.85    6.13
  -1  -1  11   51.92    7.90
   1   1 -10    6.75    2.03
   1   1 -10   11.81    2.37
   1   1 -10   11.20    3.74
  -1  -1  10    9.28    2.05
  -1  -1  10    8.99    1.84
   1   1  -9    4.95    1.54
   1   1  -9    5.38    1.72
   1   1  -9    5.07    1.57
  -1  -1   9    3.78    1.84
  -1  -1   9    3.93    1.46
  -1  -1   9    4.85    1.30
   1   1  -8   64.06    7.25
   1   1  -8   59.56    4.93
   1   1  -8   69.18    4.85
  -1  -1   8   64.73    4.14
  -1  -1   8   76.01    4.73
  -1  -1   8   65.50    4.72
  -1  -1   8   66.23    4.14
   1   1  -7   21.82    3.91
   1   1  -7   19.91    2.40
   1   1  -7   21.42    2.12
  -1  -1   7   20.19    1.91
  -1  -1   7   22.46    2.12
  -1  -1   7   22.19    3.38
  -1  -1   7   21.04    1.83
   1   1  -6   15.37    2.00
   1   1  -6   13.78    1.85
   1   1  -6   15.35    1.56
  -1  -1   6   14.56    1.51
  -1  -1   6   17.74    1.60
  -1  -1   6   15.15    1.54
  -1  -1   6   14.27    1.31
   1   1  -5   31.89    2.68
   1   1  -5   29.78    2.30
   1   1  -5   30.27    1.94
  -1  -1   5   28.10    2.05
  -1  -1   5   33.69    1.97
  -1  -1   5   32.44    2.03
  -1  -1   5   28.34    1.64
   1   1  -4   59.09    5.50
   1   1  -4   49.59    4.31
   1   1  -4   55.62    2.47
  -1  -1   4   50.55    2.86
  -1  -1   4   60.75    2.69
  -1  -1   4   51.36    2.14
   1   1  -3   38.42    2.61
   1   1  -3   38.68    2.33
   1   1  -3   45.41    2.00
   1   1  -3   40.07    2.29
  -1  -1   3   34.05    2.16
  -1  -1   3   36.59    2.65
  -1  -1   3   36.12    1.39
   1   1  -2  292.51   14.62
   1   1  -2  287.19   13.42
   1   1  -2  261.26    9.82
   1   1  -2  311.42   13.34
   1   1  -2  303.52   12.58
  -1  -1   2  291.57   13.64
  -1  -1   2  320.59   13.84
  -1  -1   2  310.75   11.56
  -1  -1   2  303.53   13.03
  -1  -1   2  306.50   12.16
   1   1  -1 2099.24  186.75
   1   1  -1 2194.03  190.94
   1   1  -1 1814.13  153.57
   1   1  -1 2158.08  185.05
   1   1  -1 1768.50  143.83
  -1  -1   1 2145.40  186.87
  -1  -1   1 2269.10  194.90
  -1  -1   1 2129.17  179.98
  -1  -1   1 2245.68  191.49
  -1  -1   1 2026.85  163.42
   1   1   0 1001.10   63.94
   1   1   0  971.87   61.17
   1   1   0  856.93   54.42
   1   1   0 1002.43   62.35
  -1  -1   0 1099.83   69.81
  -1  -1   0  973.72   61.04
  -1  -1   0  910.23   59.53
  -1  -1   0 1049.33   64.58
   1   1   1   54.86    3.31
   1   1   1   55.48    2.32
   1   1   1   46.16    2.12
   1   1   1   50.41    3.61
   1   1   1   47.77    1.20
  -1  -1  -1   56.67    1.78
  -1  -1  -1   48.47    2.31
  -1  -1  -1   44.32    3.22
  -1  -1  -1   60.26    2.69
   1   1   2 4310.17  587.72
   1   1   2 6247.11  846.82
   1   1   2 5192.52  714.51
   1   1   2 5670.51  783.44
   1   1   2 4962.33  662.75
  -1  -1  -2 5560.47  736.26
  -1  -1  -2 6276.78  864.31
  -1  -1  -2 4802.26  678.32
  -1  -1  -2 6314.73  877.26
  -1  -1  -2 5146.19  688.97
   1   1   3 1797.45  138.91
   1   1   3 1681.14  132.44
   1   1   3 1553.28  128.65
   1   1   3 1684.96  146.01
  -1  -1  -3 1862.51  137.65
  -1  -1  -3 1677.71  136.86
  -1  -1  -3 1417.89  125.95
  -1  -1  -3 1724.10  142.81
  -1  -1  -3 1759.82  138.79
   1   1   4  427.39   18.37
   1   1   4  499.81   24.60
   1   1   4  444.49   24.27
   1   1   4  471.17   26.78
   1   1   4  408.05   22.24
  -1  -1  -4  443.00   30.28
  -1  -1  -4  491.88   30.18
  -1  -1  -4  466.28   26.43
   1   1   5  763.32   48.10
   1   1   5  666.92   45.50
   1   1   5  622.02   38.24
  -1  -1  -5  844.41   50.28
  -1  -1  -5  682.42   46.80
  -1  -1  -5  731.11   47.94
  -1  -1  -5  733.99   49.20
   1   1   6  102.45    7.57
   1   1   6   85.29    6.13
   1   1   6   87.25    4.42
  -1  -1  -6   96.98    4.94
  -1  -1  -6   92.05    6.26
  -1  -1  -6   94.12    6.17
  -1  -1  -6   95.85    5.47
   1   1   7  390.19   24.58
   1   1   7  341.51   23.09
   1   1   7  327.43   18.58
  -1  -1  -7  398.48   24.77
  -1  -1  -7  374.17   24.12
  -1  -1  -7  369.54   24.25
  -1  -1  -7  373.29   22.75
   1   1   8   23.20    2.14
   1   1   8   20.09    3.11
   1   1   8   21.18    2.12
  -1  -1  -8   27.54    3.72
  -1  -1  -8   24.50    3.06
  -1  -1  -8   23.97    4.72
  -1  -1  -8   22.40    2.64
   1   1   9  123.62    7.06
   1   1   9  105.44    8.98
   1   1   9  102.12    6.57
  -1  -1  -9  118.77    7.30
  -1  -1  -9  111.16    8.59
  -1  -1  -9  107.06    8.44
  -1  -1  -9  114.03    8.37
   1   1  10    2.18    1.01
   1   1  10    2.54    1.65
   1   1  10    1.54    1.78
  -1  -1 -10    1.65    1.19
  -1  -1 -10    2.64    2.48
  -1  -1 -10    1.03    1.43
   1   1  11   64.11    6.68
   1   1  11   59.36    6.90
  -1  -1 -11   56.59    5.20
  -1  -1 -11   56.15    6.10
   1   1  12    5.80    2.65
   1   1  12    7.31    2.82
  -1  -1 -12    9.85    3.95
  -1  -1 -12    5.88    3.93
   1   1  13    1.77    1.28
   1   1  13    1.28    3.66
  -1  -1 -13    4.38    1.95
  -1  -1 -13    3.58    3.29
   1   1  14    0.97    3.04
  -1  -1 -14   -0.23    1.62
  -1  -1 -14    1.69    1.68
   1   1  15    5.15    3.08
  -1  -1 -15    8.72    2.59
  -1  -1 -15    5.19    2.70
   1   1  16    3.45    2.30
  -1  -1 -16    1.58    3.32
  -1  -1 -16    1.88    1.96
   1   1  17    0.35    1.37
  -1  -1 -17   -0.14    1.11
   1   1  18   -0.41    2.64
   1   1  18    1.13    1.08
   1   2 -20    6.11    2.50
   1   2 -20    3.49    2.01
  -1  -2  20    5.89    3.03
   1   2 -19    7.68    4.83
   1   2 -19    5.50    2.43
  -1  -2  19    4.78    2.30
   1   2 -18    4.07    2.72
   1   2 -18    3.22    2.42
  -1  -2  18    2.76    2.30
   1   2 -17   22.00    5.11
   1   2 -17   13.05    7.11
  -1  -2  17   15.35    4.41
   1   2 -16    3.79    3.14
   1   2 -16    3.77    2.73
  -1  -2  16    3.71    3.98
   1   2 -15  138.16   14.71
   1   2 -15  119.07   13.54
  -1  -2  15  109.24   12.36
   1   2 -14   -0.15    4.33
   1   2 -14    2.41    2.33
  -1  -2  14    2.60    2.06
   1   2 -13   30.30    7.85
   1   2 -13   28.01    4.91
  -1  -2  13   25.85    4.40
   1   2 -12   99.50   14.17
   1   2 -12  112.54   14.05
  -1  -2  12   98.46   12.69
   1   2 -11    3.45    1.91
   1   2 -11    6.67    2.20
   1   2 -11    5.90    1.95
  -1  -2  11    3.44    1.81
  -1  -2  11    5.34    1.91
   1   2 -10  104.13   11.69
   1   2 -10  102.05    8.61
   1   2 -10  123.94    7.41
   1   2 -10  108.94    8.27
  -1  -2  10   98.31    5.98
  -1  -2  10  110.12    8.35
  -1  -2  10  108.61    7.41
   1   2  -9    7.05    1.89
   1   2  -9    7.43    1.96
   1   2  -9    7.06    1.71
  -1  -2   9    6.25    1.16
  -1  -2   9    7.32    1.74
  -1  -2   9    7.89    1.52
   1   2  -8  185.13   12.17
   1   2  -8  152.50   10.39
   1   2  -8  185.77   10.89
  -1  -2   8  168.63    8.93
  -1  -2   8  215.30   11.16
  -1  -2   8  171.33   10.45
  -1  -2   8  179.05    9.83
   1   2  -7  390.34   24.19
   1   2  -7  299.28   19.03
   1   2  -7  380.35   24.67
  -1  -2   7  328.46   18.32
  -1  -2   7  387.24   21.14
  -1  -2   7  362.93   20.99
  -1  -2   7  351.66   19.38
   1   2  -6   74.08    7.25
   1   2  -6   68.21    4.40
   1   2  -6   67.54    5.02
  -1  -2   6   65.94    3.70
  -1  -2   6   79.97    4.11
  -1  -2   6   81.24    4.48
  -1  -2   6   74.68    3.74
   1   2  -5  308.68   17.13
   1   2  -5  281.99   14.66
   1   2  -5  316.87   15.96
   1   2  -5  272.74   13.05
  -1  -2   5  263.78   13.37
  -1  -2   5  314.64   16.86
  -1  -2   5  294.53   13.70
   1   2  -4 1535.52  126.01
   1   2  -4 1515.93  124.64
   1   2  -4 1512.64  119.27
   1   2  -4 1338.59  102.20
  -1  -2   4 1333.41  105.28
  -1  -2   4 1624.59  123.11
  -1  -2   4 1438.23  108.85
   1   2  -3   26.70    3.72
   1   2  -3   23.54    1.67
   1   2  -3   26.20    1.82
   1   2  -3   25.91    1.61
  -1  -2   3   25.98    1.65
  -1  -2   3   25.10    1.28
  -1  -2   3   27.42    1.01
  -1  -2   3   23.69    1.83
  -1  -2   3   25.89    1.73
   1   2  -2  196.59    9.48
   1   2  -2  192.49    9.82
   1   2  -2  215.14    7.72
   1   2  -2  220.33   11.65
   1   2  -2  198.06    6.98
  -1  -2   2  219.85    9.36
  -1  -2   2  247.11   10.57
  -1  -2   2  210.49    7.61
  -1  -2   2  213.58    9.59
  -1  -2   2  208.09    8.30
   1   2  -1    0.64    0.58
   1   2  -1    0.39    0.66
   1   2  -1    0.42    0.27
   1   2  -1    0.49    0.58
  -1  -2   1    0.23    0.47
  -1  -2   1    0.50    0.31
  -1  -2   1    1.08    0.36
  -1  -2   1    0.67    0.35
   1   2   0   35.38    1.98
   1   2   0   34.67    1.96
   1   2   0   35.62    1.43
   1   2   0   34.75    2.14
   1   2   0   36.11    0.95
   1   2   0   35.71    1.33
  -1  -2   0   37.98    2.14
  -1  -2   0   34.79    1.40
  -1  -2   0   30.29    1.56
  -1  -2   0   38.21    2.15
   1   2   1    3.31    0.68
   1   2   1    4.84    0.64
   1   2   1    2.87    0.57
   1   2   1    3.87    0.86
   1   2   1    2.78    0.52
   1   2   1    4.65    0.53
  -1  -2  -1    3.52    0.46
  -1  -2  -1    2.96    0.50
  -1  -2  -1    3.07    0.72
  -1  -2  -1    4.04    1.48
   1   2   2    1.11    0.49
   1   2   2    1.51    0.45
   1   2   2    1.74    0.89
   1   2   2    0.51    1.26
   1   2   2    1.90    0.56
  -1  -2  -2    1.63    0.58
  -1  -2  -2    0.92    0.46
  -1  -2  -2    0.96    0.73
  -1  -2  -2    1.34    0.78
   1   2   3    8.39    1.18
   1   2   3    8.55    1.05
   1   2   3    8.50    1.46
   1   2   3    7.25    1.07
  -1  -2  -3   10.13    0.92
  -1  -2  -3    7.50    1.41
  -1  -2  -3    8.86    2.26
  -1  -2  -3    8.57    0.83
   1   2   4   18.72    1.48
   1   2   4   19.85    1.73
   1   2   4   19.85    2.19
   1   2   4   16.58    1.22
  -1  -2  -4   22.16    1.00
  -1  -2  -4   22.66    1.24
  -1  -2  -4   19.87    2.20
  -1  -2  -4   21.29    2.20
  -1  -2  -4   17.60    1.43
   1   2   5  254.51   10.89
   1   2   5  294.52   12.91
   1   2   5  331.49   17.17
   1   2   5  314.04   18.91
   1   2   5  306.01   15.18
  -1  -2  -5  356.80   16.57
  -1  -2  -5  310.34   18.14
  -1  -2  -5  347.49   23.44
  -1  -2  -5  319.80   19.14
   1   2   6 1081.27   79.06
   1   2   6  946.75   83.45
   1   2   6  966.07   73.22
  -1  -2  -6 1067.72   78.12
  -1  -2  -6 1010.35   84.91
  -1  -2  -6 1062.50   83.14
  -1  -2  -6  975.20   77.14
   1   2   7  102.65    5.95
   1   2   7   83.37    9.91
   1   2   7   81.04    4.86
  -1  -2  -7  102.35    5.22
  -1  -2  -7  101.44   10.64
  -1  -2  -7   91.73    7.05
  -1  -2  -7   86.25    8.05
   1   2   8   43.05    3.22
   1   2   8   36.46    6.60
   1   2   8   36.11    2.94
  -1  -2  -8   38.56    2.87
  -1  -2  -8   42.62    4.52
  -1  -2  -8   43.60    4.29
  -1  -2  -8   37.92    5.36
   1   2   9    7.78    1.45
   1   2   9    3.47    3.37
   1   2   9    3.80    1.29
  -1  -2  -9    5.72    1.30
  -1  -2  -9    6.77    2.11
  -1  -2  -9    5.09    2.75
   1   2  10   23.65    3.58
   1   2  10   11.55    5.01
  -1  -2 -10   10.52    3.13
  -1  -2 -10    9.64    2.58
   1   2  11   72.63    5.83
   1   2  11   57.26    7.61
  -1  -2 -11   71.92    6.34
  -1  -2 -11   58.46    6.82
   1   2  12   -0.66    1.07
   1   2  12   -0.86    1.66
  -1  -2 -12    0.10    1.43
   1   2  13   63.62    5.83
   1   2  13   69.46    8.72
  -1  -2 -13   62.33    7.64
   1   2  14    4.24    2.76
  -1  -2 -14    4.03    2.31
   1   2  15   17.32    4.34
   1   2  16   12.19    3.04
   1   2  16    4.32    2.12
   1   2  17   -1.30    2.39
   1   2  17   -0.15    0.95
   1   2  18   -0.70    1.35
   1   3 -20   -2.33    1.84
  -1  -3  20   -1.11    1.43
   1   3 -19    4.61    3.77
   1   3 -19    2.39    1.82
  -1  -3  19    1.21    1.83
   1   3 -18    1.98    2.16
   1   3 -18    1.55    3.07
  -1  -3  18    0.63    1.87
   1   3 -17   -0.80    2.05
   1   3 -17    2.24    1.76
  -1  -3  17   -1.41    2.70
   1   3 -16    2.23    2.49
   1   3 -16    0.93    2.18
  -1  -3  16    1.85    1.97
   1   3 -15    3.53    2.70
   1   3 -15    0.96    2.30
  -1  -3  15    2.79    2.20
   1   3 -14   25.05    5.44
   1   3 -14   26.12    5.02
  -1  -3  14   22.07    7.10
   1   3 -13   16.64    6.13
   1   3 -13   10.76    5.08
  -1  -3  13   10.48    3.05
   1   3 -12    3.73    3.50
   1   3 -12    4.15    1.96
  -1  -3  12    2.67    1.97
   1   3 -11   46.93    8.24
   1   3 -11   48.36    5.41
   1   3 -11   51.12    5.15
  -1  -3  11   40.19    3.08
  -1  -3  11   50.51    5.30
   1   3 -10   16.38    3.02
   1   3 -10   15.23    2.92
   1   3 -10   18.27    2.23
   1   3 -10   15.94    2.62
  -1  -3  10   12.25    2.48
  -1  -3  10   15.63    4.51
  -1  -3  10   14.93    2.31
   1   3  -9    1.83    1.50
   1   3  -9    0.42    1.33
   1   3  -9    1.99    0.99
   1   3  -9    2.09    1.17
  -1  -3   9    1.30    1.49
  -1  -3   9    2.05    1.25
  -1  -3   9    1.43    1.03
   1   3  -8  145.16   13.41
   1   3  -8  116.86    8.34
   1   3  -8  129.81   10.20
  -1  -3   8  155.19   10.53
  -1  -3   8  147.07    9.22
  -1  -3   8  137.14   10.30
   1   3  -7  105.32    7.62
   1   3  -7   86.38    6.07
   1   3  -7   94.66    5.61
  -1  -3   7  106.52    5.95
  -1  -3   7  122.14    6.25
  -1  -3   7   94.43    6.90
  -1  -3   7   98.13    7.46
   1   3  -6 1843.31  171.19
   1   3  -6 1487.23  141.18
   1   3  -6 1822.09  164.40
   1   3  -6 1622.36  141.41
  -1  -3   6 1780.55  156.58
  -1  -3   6 1918.81  164.83
  -1  -3   6 1585.53  145.94
  -1  -3   6 1725.99  154.51
   1   3  -5    7.53    1.46
   1   3  -5    3.54    1.66
   1   3  -5    3.03    1.17
   1   3  -5    3.11    0.74
  -1  -3   5    3.31    0.98
  -1  -3   5    3.00    0.77
  -1  -3   5    2.47    1.18
  -1  -3   5    3.57    0.80
   1   3  -4    2.68    1.28
   1   3  -4   -0.25    0.58
   1   3  -4    0.67    1.20
   1   3  -4    0.91    0.64
  -1  -3   4    0.60    1.03
  -1  -3   4    0.86    0.42
  -1  -3   4    0.43    0.19
  -1  -3   4    0.26    0.17
  -1  -3   4    0.70    1.20
  -1  -3   4    0.35    0.44
   1   3  -3   17.80    1.90
   1   3  -3   16.14    1.24
   1   3  -3   17.37    1.77
   1   3  -3   15.94    0.92
  -1  -3   3   14.76    2.09
  -1  -3   3   18.73    1.43
  -1  -3   3   18.67    0.86
  -1  -3   3   16.39    1.12
   1   3  -2  472.35   26.47
   1   3  -2  445.74   22.36
   1   3  -2  428.85   20.23
   1   3  -2  461.52   22.92
  -1  -3   2  493.51   24.97
  -1  -3   2  462.82   21.39
  -1  -3   2  489.20   27.11
  -1  -3   2  474.26   24.33
   1   3  -1   49.57    2.95
   1   3  -1   42.35    1.63
   1   3  -1   44.98    1.77
   1   3  -1   44.14    1.56
  -1  -3   1   52.17    2.31
  -1  -3   1   46.87    1.33
   1   3   0  416.43   22.32
   1   3   0  423.11   19.17
   1   3   0  410.44   21.49
   1   3   0  431.49   27.53
   1   3   0  391.07   18.05
   1   3   0  398.84   19.96
  -1  -3   0  423.01   20.71
  -1  -3   0  447.89   19.60
  -1  -3   0  445.06   24.61
   1   3   1  259.86   15.25
   1   3   1  267.66   12.17
   1   3   1  255.57   14.12
   1   3   1  254.91   11.02
   1   3   1  258.41   11.23
  -1  -3  -1  297.36   14.57
  -1  -3  -1  283.01   11.12
  -1  -3  -1  266.61   17.71
   1   3   2   69.96    5.08
   1   3   2   72.46    3.55
   1   3   2   72.47    4.74
   1   3   2   67.48    3.86
   1   3   2   72.52    3.11
  -1  -3  -2   82.96    3.27
  -1  -3  -2   69.94    2.96
  -1  -3  -2   70.09    4.23
  -1  -3  -2   79.40    4.97
   1   3   3   37.53    3.07
   1   3   3   54.48    3.11
   1   3   3   48.10    6.14
   1   3   3   46.28    2.56
   1   3   3   51.04    2.66
  -1  -3  -3   67.61    4.04
  -1  -3  -3   54.86    2.22
  -1  -3  -3   46.78    2.72
  -1  -3  -3   52.71    3.89
  -1  -3  -3   56.05    6.50
   1   3   4  344.48   20.12
   1   3   4  397.28   21.66
   1   3   4  359.51   23.38
   1   3   4  331.95   18.46
   1   3   4  332.80   19.25
  -1  -3  -4  418.68   20.56
  -1  -3  -4  386.02   23.11
  -1  -3  -4  394.30   24.39
   1   3   5  128.88    7.69
   1   3   5  162.67    7.48
   1   3   5  162.90    8.68
   1   3   5  155.47   10.36
   1   3   5  135.67    6.92
  -1  -3  -5  162.85    9.90
  -1  -3  -5  170.00   10.76
   1   3   6    8.12    2.14
   1   3   6    6.85    1.78
   1   3   6    5.08    1.02
  -1  -3  -6    5.23    0.77
  -1  -3  -6    6.86    1.76
  -1  -3  -6    6.43    2.79
   1   3   7    9.87    2.53
   1   3   7    9.02    2.12
   1   3   7    6.71    2.03
  -1  -3  -7   11.51    3.40
  -1  -3  -7    8.05    2.00
  -1  -3  -7    5.75    1.57
   1   3   8   12.65    2.80
   1   3   8    8.29    2.34
   1   3   8    6.71    1.39
  -1  -3  -8    6.76    1.79
   1   3   9    8.16    1.81
   1   3   9    7.92    2.45
  -1  -3  -9    4.44    1.91
   1   3  10   -0.90    1.06
   1   3  10    3.48    1.48
  -1  -3 -10    0.30    1.18
   1   3  11   37.17    4.16
   1   3  11   31.38    5.66
   1   3  12    2.89    1.47
   1   3  12   -0.26    2.28
   1   3  13    4.10    2.24
   1   3  13    0.71    1.65
   1   3  14    0.42    1.24
  -1  -3 -14    0.51    1.33
   1   3  15   -0.94    2.72
  -1  -3 -15    0.68    1.17
   1   3  16   10.37    3.12
   1   3  17   10.46    2.98
   1   4 -19    0.08    3.08
   1   4 -19    1.09    1.44
  -1  -4  19    0.92    1.52
   1   4 -18    1.47    2.62
   1   4 -18   -0.01    2.20
  -1  -4  18   -1.31    2.19
   1   4 -17    1.69    2.16
   1   4 -17    0.07    1.84
  -1  -4  17    1.61    1.77
   1   4 -16   -0.45    1.89
   1   4 -16    0.42    1.63
  -1  -4  16    0.70    1.57
   1   4 -15   22.94    4.94
   1   4 -15   15.72    4.37
  -1  -4  15   17.20    4.25
   1   4 -14    1.70    2.45
  -1  -4  14    3.05    3.41
   1   4 -13    6.15    2.78
   1   4 -13    4.15    2.29
  -1  -4  13    3.88    2.43
   1   4 -12    3.03    4.17
   1   4 -12    5.46    4.43
   1   4 -12    5.02    2.24
  -1  -4  12    7.77    2.44
   1   4 -11    4.35    2.39
   1   4 -11    7.20    3.85
   1   4 -11    4.55    2.01
  -1  -4  11    6.35    3.56
   1   4 -10    2.75    1.69
   1   4 -10    0.65    2.26
   1   4 -10    0.48    1.30
  -1  -4  10    1.00    0.86
  -1  -4  10    1.53    1.44
   1   4  -9  175.29   17.88
   1   4  -9  144.35   14.47
   1   4  -9  170.42    9.87
   1   4  -9  161.07   13.33
  -1  -4   9  164.38    9.54
  -1  -4   9  178.33   12.20
  -1  -4   9  158.03   11.98
  -1  -4   9  166.51   10.92
   1   4  -8  312.17   22.11
   1   4  -8  239.80   20.65
   1   4  -8  307.78   16.75
   1   4  -8  279.09   16.96
  -1  -4   8  291.61   16.81
  -1  -4   8  314.14   20.21
  -1  -4   8  284.54   19.38
  -1  -4   8  286.65   17.65
   1   4  -7  331.96   22.47
   1   4  -7  302.52   22.84
   1   4  -7  314.79   16.49
   1   4  -7  328.41   20.98
   1   4  -7  297.30   16.98
  -1  -4   7  300.52   16.96
  -1  -4   7  297.14   19.74
  -1  -4   7  297.12   17.52
   1   4  -6  210.39   13.93
   1   4  -6  186.30   10.68
   1   4  -6  200.05   12.35
   1   4  -6  180.90    9.40
  -1  -4   6  180.31    9.71
  -1  -4   6  184.58   15.38
  -1  -4   6  179.97   11.95
   1   4  -5   12.55    3.20
   1   4  -5    9.79    1.40
   1   4  -5   11.84    2.07
   1   4  -5   10.42    1.80
  -1  -4   5   13.75    1.46
  -1  -4   5   10.27    0.58
  -1  -4   5   10.75    0.49
  -1  -4   5   10.75    1.95
  -1  -4   5   10.42    1.34
   1   4  -4  394.61   24.17
   1   4  -4  351.59   19.11
   1   4  -4  441.14   25.15
   1   4  -4  384.75   19.38
  -1  -4   4  410.40   22.04
  -1  -4   4  409.51   19.38
  -1  -4   4  414.09   24.49
  -1  -4   4  415.81   21.85
   1   4  -3    4.85    1.44
   1   4  -3    4.33    0.71
   1   4  -3    9.16    1.51
   1   4  -3    4.64    1.07
  -1  -4   3    5.52    1.04
  -1  -4   3    4.68    0.69
  -1  -4   3    8.48    1.49
  -1  -4   3    4.14    1.31
   1   4  -2    0.15    0.88
   1   4  -2    0.67    0.29
   1   4  -2    0.37    0.42
  -1  -4   2    0.55    0.62
  -1  -4   2    0.39    0.45
   1   4  -1   57.66    3.71
   1   4  -1   47.01    2.26
   1   4  -1   49.29    2.09
   1   4  -1   47.91    2.32
  -1  -4   1   57.33    4.16
   1   4   0   16.89    3.33
   1   4   0   18.28    1.38
   1   4   0   14.88    1.12
   1   4   0   14.89    1.85
  -1  -4   0   22.27    1.66
   1   4   1  270.05   18.45
   1   4   1  277.19   13.90
   1   4   1  262.81   20.62
   1   4   1  239.91   13.25
   1   4   1  282.91   13.50
  -1  -4  -1  309.20   14.97
  -1  -4  -1  290.21   18.03
   1   4   2  766.78   59.36
   1   4   2  865.35   58.92
   1   4   2  834.28   62.65
   1   4   2  768.23   51.26
   1   4   2  837.24   56.87
  -1  -4  -2  898.60   61.61
  -1  -4  -2  929.26   68.68
   1   4   3  620.40   45.88
   1   4   3  735.52   47.74
   1   4   3  674.55   49.30
   1   4   3  597.18   39.26
   1   4   3  656.52   41.72
  -1  -4  -3  838.79   52.11
  -1  -4  -3  792.46   62.79
   1   4   4    2.91    1.46
   1   4   4    4.44    1.07
   1   4   4    1.96    1.45
   1   4   4    0.96    1.34
   1   4   4    2.01    1.14
  -1  -4  -4    2.67    0.83
  -1  -4  -4    2.41    1.37
   1   4   5  127.99    7.62
   1   4   5  118.13    9.13
  -1  -4  -5  124.43    8.84
  -1  -4  -5  126.31    9.03
   1   4   6    2.68    1.16
   1   4   6    1.50    2.50
   1   4   6    1.07    0.98
   1   4   6    1.48    0.84
  -1  -4  -6    3.85    1.53
  -1  -4  -6    1.92    2.40
   1   4   7    2.32    1.22
   1   4   7    1.58    1.10
   1   4   7    1.14    1.54
   1   4   8   24.41    2.75
   1   4   8   18.29    5.54
   1   4   8    9.73    2.44
   1   4   9   12.44    2.42
   1   4   9    8.73    5.11
   1   4  10    9.06    2.27
   1   4  10    7.60    5.01
   1   4  11    0.44    2.79
   1   4  12   11.24    6.08
   1   4  13    0.08    2.53
  -1  -4 -13    5.32    2.16
   1   4  14    2.14    2.23
  -1  -4 -14    2.87    1.79
   1   4  15   18.22    2.54
  -1  -4 -15   -1.07    1.74
   1   4  16   -1.23    1.55
   1   5 -19    0.27    1.87
   1   5 -19    1.66    1.45
  -1  -5  19    2.35    1.84
   1   5 -18    2.66    4.42
   1   5 -18    4.77    3.48
  -1  -5  18    5.52    2.23
   1   5 -17    2.52    2.38
   1   5 -17    3.96    2.11
  -1  -5  17    2.62    2.16
   1   5 -16   18.33    4.65
   1   5 -16   16.33    4.21
  -1  -5  16   20.31    4.23
   1   5 -15   13.75    4.04
   1   5 -15    9.29    5.86
  -1  -5  15   16.05    6.05
   1   5 -14   47.81    6.99
   1   5 -14   42.63    9.51
  -1  -5  14   49.69    6.95
   1   5 -13    6.74    2.84
   1   5 -13    3.95    2.44
  -1  -5  13    6.79    2.66
   1   5 -12   21.62    4.66
   1   5 -12   21.64    4.36
   1   5 -12   22.07    3.86
  -1  -5  12   22.19    4.31
   1   5 -11    0.11    1.59
   1   5 -11    0.81    1.38
   1   5 -11   -0.07    1.22
  -1  -5  11    0.46    2.22
   1   5 -10    3.41    2.77
   1   5 -10    0.32    1.32
   1   5 -10    0.49    1.96
  -1  -5  10   -0.01    1.35
   1   5  -9  118.53   10.01
   1   5  -9   90.31    7.94
   1   5  -9   83.30    5.66
   1   5  -9   97.74    7.13
  -1  -5   9  111.96    8.73
   1   5  -8  150.10   12.07
   1   5  -8  111.26    8.89
   1   5  -8  122.73    8.21
  -1  -5   8  136.76    8.29
  -1  -5   8  128.04    9.02
   1   5  -7    1.80    1.52
   1   5  -7    0.34    0.94
   1   5  -7    0.10    0.59
   1   5  -7    2.06    1.22
   1   5  -7    0.46    0.82
  -1  -5   7    0.60    0.90
  -1  -5   7    0.88    1.22
  -1  -5   7    1.05    0.95
   1   5  -6   12.91    4.53
   1   5  -6    7.12    1.53
   1   5  -6   11.40    2.25
   1   5  -6   12.22    2.27
  -1  -5   6   11.10    1.69
  -1  -5   6    8.89    2.23
  -1  -5   6    9.90    1.64
   1   5  -5    3.63    1.37
   1   5  -5    1.57    2.11
   1   5  -5    1.06    0.71
  -1  -5   5    1.46    0.96
  -1  -5   5    1.61    1.28
  -1  -5   5    0.82    1.40
   1   5  -4   37.19    3.86
   1   5  -4   35.91    2.15
  -1  -5   4   38.52    4.40
  -1  -5   4   36.67    2.22
  -1  -5   4   38.44    3.69
  -1  -5   4   35.03    2.56
   1   5  -3   95.98    6.65
   1   5  -3   81.06    5.11
  -1  -5   3  103.36    7.72
  -1  -5   3   84.51    5.67
  -1  -5   3   84.88    4.53
   1   5  -2   12.03    2.10
   1   5  -2    9.78    1.05
   1   5  -2    7.83    1.23
  -1  -5   2   15.17    1.69
  -1  -5   2   11.23    1.40
   1   5  -1   16.41    2.30
   1   5  -1   12.15    1.19
   1   5  -1   12.01    1.38
  -1  -5   1   17.97    1.84
  -1  -5   1   16.72    1.80
   1   5   0   85.09    5.80
   1   5   0   73.82    6.33
   1   5   0   68.15    4.94
   1   5   0   70.02    4.03
  -1  -5   0   90.75    4.89
  -1  -5   0   79.94    9.38
   1   5   1   34.37    3.24
   1   5   1   32.43    2.46
   1   5   1   36.66    3.80
   1   5   1   29.24    2.17
   1   5   1   31.65    2.37
  -1  -5  -1   38.28    3.95
  -1  -5  -1   36.64    3.95
   1   5   2   16.52    3.59
   1   5   2   18.91    1.97
   1   5   2   20.57    4.58
   1   5   2   11.21    2.30
   1   5   2   14.31    1.64
  -1  -5  -2   21.08    2.18
  -1  -5  -2   20.56    2.86
   1   5   3  176.20   14.85
   1   5   3  196.02   11.70
   1   5   3  204.33   14.57
  -1  -5  -3  218.16   12.58
  -1  -5  -3  210.69   18.37
   1   5   4   34.11    3.44
   1   5   4   40.03    3.61
   1   5   4   38.41    4.70
   1   5   5   34.26    3.50
   1   5   5   30.95    4.46
   1   5   6   28.92    3.46
   1   5   6   28.05    4.42
   1   5   7    5.28    1.89
   1   5   7    5.88    2.48
   1   5   8    0.19    1.29
   1   5   8    1.95    1.68
   1   5   9    0.78    1.80
   1   5  10    0.22    1.60
   1   5  11    2.48    2.56
  -1  -5 -11    4.85    2.52
   1   5  12    3.67    3.01
  -1  -5 -12    8.32    2.83
   1   5  13   -1.26    1.74
  -1  -5 -13   -0.40    1.56
   1   5  14   16.16    2.66
  -1  -5 -14    1.43    2.14
   1   5  15    5.88    2.55
  -1  -5 -15    0.10    1.21
   1   6 -18   -0.94    1.45
   1   6 -18    1.40    2.04
  -1  -6  18    2.09    1.43
   1   6 -17    2.36    2.12
   1   6 -17   -0.71    1.09
  -1  -6  17    0.06    1.24
   1   6 -16    3.43    3.52
   1   6 -16    3.52    2.01
  -1  -6  16    2.58    2.23
   1   6 -15    7.05    3.07
   1   6 -15    6.24    4.66
  -1  -6  15   10.95    5.11
   1   6 -14   23.85    5.08
   1   6 -14   29.38    4.87
  -1  -6  14   34.84    5.53
   1   6 -13   29.15    6.10
   1   6 -13   26.38    5.23
   1   6 -13   31.96    4.92
  -1  -6  13   44.11    5.94
   1   6 -12   20.21    4.75
   1   6 -12   14.33    3.78
   1   6 -12   17.44    3.52
  -1  -6  12   19.58    6.58
   1   6 -11   10.85    3.52
   1   6 -11    5.13    2.61
   1   6 -11    7.34    2.47
  -1  -6  11    9.25    2.85
   1   6 -10   33.56    7.86
   1   6 -10   17.09    4.68
  -1  -6  10   24.33    3.95
   1   6  -9   19.42    4.19
   1   6  -9   14.38    2.50
  -1  -6   9   19.39    3.36
   1   6  -8   56.43    6.71
   1   6  -8   42.60    4.06
   1   6  -7   75.56    7.80
   1   6  -7   73.77    6.57
   1   6  -7   54.31    4.44
  -1  -6   7   56.14    7.28
   1   6  -6  144.37   16.96
   1   6  -6  135.07    9.83
  -1  -6   6  104.50    7.32
   1   6  -5    2.81    1.73
   1   6  -5    1.50    2.67
   1   6  -5    2.02    0.88
  -1  -6   5    2.09    1.06
   1   6  -4   -0.73    1.32
   1   6  -4   -0.37    0.63
   1   6  -3   40.75    4.59
   1   6  -3   34.07    3.63
   1   6  -3   35.00    3.11
  -1  -6   3   45.87    3.66
  -1  -6   3   41.66    4.81
   1   6  -2  114.38    8.83
  -1  -6   2  122.99    7.41
  -1  -6   2  101.45    6.48
   1   6  -1    0.79    1.18
  -1  -6   1   -0.09    0.88
  -1  -6   1    0.79    0.89
   1   6   0   -0.19    1.28
   1   6   0    0.02    1.37
  -1  -6   0    1.50    1.56
  -1  -6   0    2.02    1.10
   1   6   1   21.02    3.29
   1   6   1   23.04    3.76
  -1  -6  -1   28.10    3.19
  -1  -6  -1   27.05    3.28
   1   6   2   11.56    2.40
   1   6   2   11.22    2.83
  -1  -6  -2   12.50    2.31
   1   6   3   22.28    3.26
   1   6   3   24.66    4.08
   1   6   4    5.53    1.84
   1   6   4    9.44    4.12
   1   6   5   78.10   12.50
   1   6   6    0.06    2.18
   1   6   7    2.91    2.26
   1   6   8    5.95    3.22
  -1  -6  -8   11.21    3.25
   1   6   9    3.80    2.90
  -1  -6  -9    7.71    3.14
   1   6  10    6.80    5.59
  -1  -6 -10   12.43    3.59
   1   6  11    3.11    3.23
  -1  -6 -11    1.04    2.01
   1   6  12   22.79    7.53
  -1  -6 -12   31.00    4.68
   1   6  13   -0.40    1.35
  -1  -6 -13    0.02    2.07
   1   6  14    5.14    2.65
  -1  -6 -14   15.93    2.67
  -1  -7  18    5.15    1.89
   1   7 -17    1.35    1.23
   1   7 -17    0.72    1.27
  -1  -7  17    3.67    1.64
   1   7 -16    0.16    1.18
  -1  -7  16   -2.78    2.45
   1   7 -15   -1.08    1.30
  -1  -7  15    0.53    1.53
   1   7 -14    8.43    2.84
  -1  -7  14   -1.11    2.11
   1   7 -13   13.90    4.02
   1   7 -13   10.21    2.86
  -1  -7  13   13.13    3.55
   1   7 -12    5.25    3.05
   1   7 -12    2.77    2.01
  -1  -7  12    8.43    4.18
   1   7 -11    3.50    4.04
   1   7 -11    1.09    1.53
  -1  -7  11    1.44    1.88
   1   7 -10    2.18    2.39
   1   7 -10   -0.17    2.13
  -1  -7  10    2.19    1.83
   1   7  -9   10.36    3.51
   1   7  -9    5.44    1.91
  -1  -7   9    9.29    2.73
   1   7  -8    4.21    2.97
   1   7  -7  179.81   17.23
   1   7  -7  186.96   15.51
   1   7  -6   63.30   12.72
   1   7  -6   58.43    7.29
   1   7  -5  198.74   23.09
   1   7  -5  240.26   18.51
   1   7  -4   19.05    4.81
   1   7  -4   65.84    8.40
   1   7  -3   10.59    3.06
   1   7  -2   39.19    5.02
  -1  -7   2   35.96    4.08
   1   7  -1    0.68    1.47
  -1  -7   1    0.43    1.82
   1   7   0   24.59    4.08
   1   7   0   24.67    6.88
  -1  -7   0   26.06    3.53
   1   7   1    0.94    1.48
   1   7   1   -0.81    2.78
  -1  -7  -1    1.43    1.41
   1   7   2    1.95    1.61
   1   7   2    1.12    1.92
  -1  -7  -2    1.84    1.68
   1   7   3    1.11    1.67
   1   7   3    3.04    2.08
  -1  -7  -3    3.08    1.91
   1   7   4    1.02    1.90
  -1  -7  -4    1.87    1.79
   1   7   5    6.17    2.79
  -1  -7  -5    6.25    2.73
   1   7   6    2.71    2.14
  -1  -7  -6    1.55    2.13
   1   7   7    2.39    2.25
  -1  -7  -7    2.26    2.24
   1   7   8    8.32    3.30
  -1  -7  -8   10.47    3.39
   1   7   9    2.12    2.55
  -1  -7  -9    6.01    2.65
   1   7  10   10.79    3.84
  -1  -7 -10   21.36    4.03
   1   7  11    4.77    2.39
  -1  -7 -11    5.92    4.02
   1   7  12   11.19    3.32
  -1  -7 -12   25.74    3.80
  -1  -8  17    0.24    1.08
   1   8 -16    2.11    1.01
  -1  -8  16    2.22    1.63
   1   8 -15    1.26    1.24
  -1  -8  15    4.27    2.97
   1   8 -14    0.18    2.42
  -1  -8  14    0.31    1.41
   1   8 -13    6.54    2.87
  -1  -8  13    3.80    2.51
   1   8 -12   15.40    5.08
  -1  -8  12   20.49    6.41
   1   8 -11    1.51    2.25
  -1  -8  11    0.18    1.67
   1   8 -10    7.43    5.32
  -1  -8  10    4.74    2.52
   1   8  -9    1.84    2.49
  -1  -8   9    1.19    1.86
   1   8  -8    9.17    4.10
   1   8  -7  175.61   18.47
   1   8  -7  181.66   16.65
   1   8  -6    2.91    4.50
   1   8  -6   21.89    4.53
   1   8  -5  380.89   43.82
   1   8  -5  339.00   32.11
   1   8  -4   71.45   11.81
   1   8  -4   17.67   17.82
   1   8  -3   41.77    6.33
   1   8  -2   29.74    5.31
   1   8  -1   32.27    5.40
   1   8  -1   30.90    6.29
  -1  -8   1   35.45    4.82
   1   8   0    0.93    1.86
   1   8   0    2.03    2.21
  -1  -8   0    1.42    1.77
   1   8   1   51.82    7.13
   1   8   1   70.05    8.27
  -1  -8  -1   67.75   11.52
   1   8   2    8.87    3.01
   1   8   2   12.20    5.58
  -1  -8  -2   11.60    5.00
   1   8   3    0.16    2.36
   1   8   3    1.86    2.88
  -1  -8  -3    0.23    2.66
  -1  -8  -4    5.86    2.66
   1   8   5    0.26    1.80
  -1  -8  -5    1.07    1.75
   1   8   6   -6.66    2.94
  -1  -8  -6   -4.96    4.74
   1   8   7    4.97    2.78
  -1  -8  -7    7.96    4.52
   1   8   8    0.69    1.90
  -1  -8  -8    4.11    3.61
   1   8   9   11.96    2.99
  -1  -8  -9    2.34    5.49
   1   8  10    1.95    2.74
  -1  -8 -10    2.47    2.01
   1   8  11    5.35    3.80
  -1  -8 -11   18.31    3.12
  -1  -9  15    2.43    2.80
   1   9 -14    0.90    1.68
  -1  -9  14    3.99    1.75
   1   9 -13    0.30    1.54
  -1  -9  13    0.24    1.35
   1   9 -12    1.45    2.35
  -1  -9  12    2.12    1.85
   1   9 -11    0.64    2.24
  -1  -9  11    1.10    2.65
   1   9 -10    6.52    4.87
  -1  -9  10    1.92    2.10
   1   9  -9    7.07    3.63
  -1  -9   9    5.48    2.86
   1   9  -8   78.14   10.64
  -1  -9   8   73.36    8.55
   1   9  -7   72.01   10.72
   1   9  -6   16.29    4.74
   1   9  -6    9.01    3.74
   1   9  -5    5.73    2.82
   1   9  -5   -0.64    2.32
   1   9  -4    6.81    3.92
   1   9  -3   21.70    9.37
   1   9  -2   11.04    7.29
   1   9  -1    2.84    3.29
   1   9  -1   -1.10    1.65
   1   9   0    1.21    3.80
   1   9   0    2.83    1.97
  -1  -9   0    0.27    1.84
   1   9   1   -1.41    3.08
   1   9   1    1.11    1.68
  -1  -9  -1    0.45    1.60
   1   9   2    7.42    3.13
   1   9   2    6.89    3.05
  -1  -9  -2    8.66    3.03
   1   9   3   12.71    3.82
  -1  -9  -3   16.26    3.96
   1   9   4   22.24    4.69
  -1  -9  -4   25.56    4.87
   1   9   5   -1.03    1.69
  -1  -9  -5   -0.88    1.86
   1   9   6   -0.86    1.28
  -1  -9  -6    0.71    1.48
   1   9   7    1.78    1.56
  -1  -9  -7    1.05    1.85
   1   9   8    0.77    0.97
  -1  -9  -8   -1.06    1.24
   1   9   9    1.23    1.21
   1  10 -12    5.64    2.52
  -1 -10  12    4.92    2.06
   1  10 -11   21.80    4.75
  -1 -10  11   18.81    5.80
   1  10 -10   -1.35    2.31
  -1 -10  10   -0.79    2.57
   1  10  -9    1.30    4.80
  -1 -10   9    3.30    1.97
   1  10  -8    0.85    2.18
  -1 -10   8    0.64    1.53
   1  10  -7    3.64    2.98
  -1 -10   7    2.87    2.06
   1  10  -6    0.68    2.24
   1  10  -5    0.36    2.53
   1  10  -5    1.77    1.86
   1  10  -4    4.31    3.25
   1  10  -3    0.91    2.28
   1  10  -2    1.30    2.50
   1  10  -2   -3.95    2.07
   1  10  -1   18.30    4.56
   1  10  -1   14.57    3.86
   1  10   0   -0.04    1.77
   1  10   0    1.45    2.57
   1  10   1    8.23    3.11
   1  10   1    8.15    4.76
  -1 -10  -1   12.03    4.62
   1  10   2    3.37    2.01
   1  10   2    2.06    3.39
  -1 -10  -2    4.90    3.20
   1  10   3    8.05    2.34
  -1 -10  -3    1.17    3.75
   1  10   4    2.82    1.78
  -1 -10  -4    3.63    1.92
   1  10   5    0.43    1.16
  -1 -10  -5    0.61    1.31
   1  10   6   -0.83    2.05
  -1 -10  -6   -2.25    2.40
   1  11 -10   12.95    3.44
  -1 -11  10   10.22    2.34
   1  11  -9   19.67    4.72
  -1 -11   9   17.88    4.85
   1  11  -8   23.38    4.93
  -1 -11   8   17.35    3.11
   1  11  -7   16.66    6.98
  -1 -11   7   12.03    2.66
   1  11  -6    0.85    3.00
  -1 -11   6    0.33    1.25
   1  11  -5    0.89    2.35
  -1 -11   5    3.04    1.65
   1  11  -4    7.33    3.21
   1  11  -3   -0.96    1.90
   1  11  -2    6.24    2.76
   1  11  -2    6.75    2.24
   1  11  -1    1.07    1.43
   1  11  -1    0.06    1.22
   1  11   0    2.32    2.54
   1  11   0    1.52    1.43
   1  11   1    1.01    1.26
   1  11   2    1.99    1.31
   2 -12  -1    1.88    1.41
  -2  12   1   -3.44    1.34
   2 -12   0   -3.31    1.26
  -2  12   0   -0.03    1.30
  -2  12   0    0.54    0.76
   2 -12   1    7.37    1.90
  -2  12  -1    0.20    2.18
  -2  12  -1    3.14    1.29
   2 -12   2    0.19    1.32
  -2  12  -2    1.46    1.02
   2 -12   3    3.12    1.56
  -2  12  -3   -3.01    1.62
  -2  12  -3    0.62    0.92
  -2  12  -4   -1.05    1.53
  -2  12  -4   -0.51    0.99
  -2  12  -5   32.17    4.69
  -2  12  -5   -0.51    3.09
  -2  12  -6   10.19    3.05
  -2  12  -6    8.19    3.19
  -2  12  -7   -1.60    1.34
  -2  12  -7    0.23    0.94
  -2  12  -8    5.75    2.02
  -2  12  -8   11.89    1.90
   2 -11  -5    4.21    3.40
  -2  11   5    1.16    1.27
  -2  11   5    2.49    1.12
   2 -11  -4    1.22    2.84
  -2  11   4    0.61    1.24
  -2  11   4    0.56    1.00
   2 -11  -3    3.62    4.06
  -2  11   3    3.66    1.94
  -2  11   3    2.87    1.51
  -2  11   2   -0.88    1.62
  -2  11   2   -0.71    1.20
   2 -11  -1   -0.03    3.74
  -2  11   1    2.59    2.05
  -2  11   1    1.95    1.51
   2 -11   0    4.37    4.10
  -2  11   0    2.44    2.38
  -2  11   0    3.31    1.75
   2 -11   1    5.81    2.76
  -2  11  -1    4.09    2.73
  -2  11  -1    4.82    3.33
   2 -11   2    4.08    2.38
  -2  11  -2    3.06    2.46
  -2  11  -2    1.75    2.85
   2 -11   3    0.74    2.03
  -2  11  -3    1.70    2.23
  -2  11  -3    2.99    1.68
   2 -11   4    6.13    3.08
  -2  11  -4   10.70    3.33
  -2  11  -4   10.70    2.50
   2 -11   5    0.77    1.81
  -2  11  -5    0.33    1.32
  -2  11  -5   -0.45    1.03
  -2  11  -6    2.02    2.06
  -2  11  -6    2.51    1.64
  -2  11  -7    1.32    2.03
  -2  11  -7   -0.85    1.74
  -2  11  -8    1.33    4.34
  -2  11  -8    8.84    3.46
  -2  11  -9   -1.34    1.60
  -2  11  -9   -1.39    1.45
  -2  11 -10    6.02    2.15
  -2  11 -10   15.95    2.45
  -2  11 -11   49.58    4.81
  -2  11 -12    4.38    3.03
   2 -10  -8   -2.26    1.70
  -2  10   8    0.12    1.69
   2 -10  -7    0.95    1.58
  -2  10   7   -0.15    0.87
  -2  10   7    1.08    1.57
   2 -10  -6    4.02    2.76
  -2  10   6    4.58    2.93
  -2  10   6    2.33    2.98
   2 -10  -5    0.48    2.19
  -2  10   5    1.67    2.09
  -2  10   5    1.19    2.48
   2 -10  -4    6.20    2.88
  -2  10   4    2.59    1.80
  -2  10   4    1.61    3.07
   2 -10  -3    8.76    3.35
  -2  10   3    3.98    2.28
  -2  10   3    3.72    3.62
   2 -10  -2   13.98    4.26
  -2  10   2    7.73    2.98
  -2  10   2   10.16    2.95
   2 -10  -1   51.56    8.10
  -2  10   1   40.06    6.11
  -2  10   1   42.96    6.04
   2 -10   0    5.84    2.81
  -2  10   0    2.20    2.18
  -2  10   0    1.39    2.13
   2 -10   1   17.09    4.97
  -2  10  -1   12.31    3.94
  -2  10  -1   24.96    4.20
   2 -10   2   58.90   12.89
  -2  10  -2   52.22    6.90
  -2  10  -2   51.92    6.88
   2 -10   3   -0.41    2.04
  -2  10  -3   -1.65    2.68
   2 -10   4   29.62    5.47
  -2  10  -4   29.52    8.96
  -2  10  -4   29.36    7.13
   2 -10   5    2.05    2.37
  -2  10  -5    3.75    2.48
  -2  10  -5    3.46    2.07
  -2  10  -6   -0.56    2.03
  -2  10  -6   -1.97    1.69
  -2  10  -7    6.71    2.83
  -2  10  -7    7.52    2.58
  -2  10  -8    2.71    2.06
  -2  10  -8    3.35    1.95
  -2  10  -9   16.30    6.77
  -2  10  -9   25.83    6.19
  -2  10 -10    2.39    1.83
  -2  10 -11    0.33    1.30
  -2  10 -12   -0.84    1.40
  -2  10 -13    1.20    2.59
  -2  10 -14   -1.72    1.54
   2  -9 -10    3.09    2.05
  -2   9  10    3.35    1.55
   2  -9  -9    0.77    1.65
  -2   9   9    0.45    1.22
   2  -9  -8    4.09    2.35
  -2   9   8    1.26    1.86
  -2   9   8    1.88    1.73
   2  -9  -7    1.87    2.21
  -2   9   7    1.42    1.21
  -2   9   7    0.34    1.61
   2  -9  -6    2.71    2.54
  -2   9   6    1.81    1.49
  -2   9   6    0.68    1.82
   2  -9  -5   -2.84    2.01
  -2   9   5    0.89    1.20
  -2   9   5   -0.29    1.44
  -2   9   4    9.13    2.90
  -2   9   4    9.84    3.23
   2  -9  -3    1.91    2.43
  -2   9   3    1.59    1.65
  -2   9   3   -0.73    1.83
   2  -9  -2   -0.43    1.75
  -2   9   2   -0.49    1.25
  -2   9   2    0.82    1.37
   2  -9  -1   -0.07    2.84
  -2   9   1    1.27    2.03
  -2   9   1   13.37    3.82
   2  -9   0    3.86    3.30
  -2   9   0    3.36    2.45
  -2   9   0   14.86    4.24
   2  -9   1    1.93    1.95
  -2   9  -1    1.40    1.47
  -2   9  -1   -1.42    1.43
  -2   9  -2    1.12    1.43
  -2   9  -2   -0.41    1.41
   2  -9   3    1.02    3.53
  -2   9  -3    2.11    1.67
  -2   9  -3    0.65    1.76
   2  -9   4    8.90    3.33
  -2   9  -4    6.99    2.56
  -2   9  -4    9.13    2.69
   2  -9   5   -0.36    1.63
  -2   9  -5    0.64    2.09
  -2   9  -5   -1.01    2.29
   2  -9   6   12.09    3.78
  -2   9  -6   13.65    6.05
  -2   9  -6   17.50    3.31
  -2   9  -7    5.32    2.64
  -2   9  -7    6.23    2.35
  -2   9  -8    0.57    1.59
  -2   9  -8    0.76    1.53
  -2   9  -9    3.02    2.01
  -2   9  -9    4.76    3.48
  -2   9 -10    3.40    3.64
  -2   9 -11    3.29    2.18
  -2   9 -12   -0.60    1.55
  -2   9 -13   10.03    4.51
  -2   9 -14    0.92    1.66
  -2   9 -15   12.60    2.97
   2  -8 -12   11.47    1.89
  -2   8  12    0.08    1.86
   2  -8 -11    1.18    1.63
  -2   8  11    1.71    2.38
   2  -8 -10    8.66    2.93
  -2   8  10    3.38    3.92
   2  -8  -9    1.98    2.22
  -2   8   9    0.71    3.14
   2  -8  -8   19.61    8.66
  -2   8   8   19.22    7.35
   2  -8  -7    1.42    2.79
  -2   8   7   -1.16    1.85
  -2   8   7    0.51    2.60
   2  -8  -6   16.56    6.43
  -2   8   6    7.03    3.80
  -2   8   6   13.54    5.54
   2  -8  -5  135.45   21.31
  -2   8   5  114.29   13.83
  -2   8   5  130.63   18.43
  -2   8   4  149.55   13.39
  -2   8   4  174.75   16.68
   2  -8  -3  119.82   19.48
  -2   8   3   89.28    8.90
  -2   8   3   97.90   10.76
   2  -8  -2   12.87    6.88
  -2   8   2   13.81    3.16
  -2   8   2    9.24    3.34
   2  -8  -1    1.67    2.39
  -2   8   1    2.28    1.57
  -2   8   1    0.82    1.86
   2  -8   0   21.84    4.96
  -2   8   0   19.10    3.95
   2  -8   1    1.63    1.98
  -2   8  -1    1.75    2.50
  -2   8  -1   -1.59    2.67
   2  -8   2    3.82    2.50
  -2   8  -2    2.22    3.14
  -2   8  -2    3.42    3.17
   2  -8   3    6.23    2.67
  -2   8  -3    3.80    2.05
  -2   8  -3    5.21    2.24
   2  -8   4    9.04    5.01
  -2   8  -4    8.22    2.44
  -2   8  -4    9.09    2.80
   2  -8   5   18.37    4.02
  -2   8  -5   16.65    3.13
  -2   8  -5   19.10    3.55
   2  -8   6   34.42    5.39
  -2   8  -6   33.16    4.34
  -2   8  -6   42.33    7.33
   2  -8   7   38.44    9.67
  -2   8  -7   50.76    9.50
  -2   8  -7   59.40    6.00
  -2   8  -8   18.18    3.76
  -2   8  -8   24.48    3.86
  -2   8  -9    1.04    1.62
  -2   8 -10   50.49    9.66
  -2   8 -11   35.42    5.42
  -2   8 -12    1.81    2.03
  -2   8 -13  137.02   12.55
  -2   8 -14   25.10    7.58
  -2   8 -15    0.87    1.85
  -2   8 -15    0.74    1.73
  -2   8 -16    0.40    1.14
  -2   8 -16    2.52    1.66
  -2   8 -17   -2.96    2.99
  -2   7  14   -2.05    2.22
   2  -7 -13    2.06    1.07
  -2   7  13   -0.43    1.52
   2  -7 -12    1.47    1.46
  -2   7  12    0.09    1.62
   2  -7 -11    0.34    1.47
  -2   7  11   -0.74    1.47
   2  -7 -10   14.19    4.68
  -2   7  10    1.12    2.69
   2  -7  -9    3.25    3.12
  -2   7   9    0.08    1.69
  -2   7   9    1.55    1.97
   2  -7  -8   70.82    9.05
  -2   7   8   63.79    9.44
   2  -7  -7   -0.86    1.67
  -2   7   7   -0.03    0.99
  -2   7   7    0.22    1.62
   2  -7  -6  318.30   30.31
  -2   7   6  259.74   21.23
  -2   7   6  327.02   29.89
   2  -7  -5    1.03    2.18
  -2   7   5    0.69    1.35
  -2   7   5    0.58    2.06
   2  -7  -4   71.52    8.82
  -2   7   4   61.31    6.35
  -2   7   4   72.65    9.37
   2  -7  -3    3.80    2.41
  -2   7   3    3.33    1.62
  -2   7   3    2.25    3.87
   2  -7  -2   -1.03    2.74
  -2   7   2    0.91    1.14
  -2   7   2    1.21    2.44
   2  -7  -1   -0.85    3.49
  -2   7   1    2.07    1.30
  -2   7   1    1.65    1.62
   2  -7   0    5.26    2.16
  -2   7   0    2.09    1.32
  -2   7   0   -0.15    1.70
   2  -7   1   10.95    3.31
  -2   7  -1    7.58    2.11
  -2   7  -1   18.48    2.90
   2  -7   2   18.52    3.95
  -2   7  -2   17.69    2.59
  -2   7  -2   24.63    5.41
   2  -7   3    8.79    2.83
  -2   7  -3    5.77    2.92
  -2   7  -3    9.50    2.25
   2  -7   4    2.33    2.13
  -2   7  -4    2.56    1.56
  -2   7  -4   -1.89    1.09
   2  -7   5    7.48    2.75
  -2   7  -5    8.09    1.98
  -2   7  -5    9.19    2.31
   2  -7   6    2.15    1.77
  -2   7  -6    1.64    1.27
  -2   7  -6    1.43    2.59
   2  -7   7    3.42    3.20
  -2   7  -7    1.66    2.20
  -2   7  -7    3.23    1.73
   2  -7   8   25.72    4.45
  -2   7  -8   34.01    4.21
  -2   7  -8   42.93    4.45
  -2   7  -9    7.39    2.19
  -2   7  -9   15.74    2.83
  -2   7 -10   68.69    6.71
  -2   7 -10  123.56   13.27
  -2   7 -11   16.81    3.38
  -2   7 -11   33.35    4.60
  -2   7 -12    6.55    3.63
  -2   7 -12    8.82    2.95
  -2   7 -13   98.91   15.61
  -2   7 -13  124.19   11.83
   2  -7  14    4.70    1.99
  -2   7 -14    6.21    2.61
  -2   7 -14   10.67    4.84
   2  -7  15    2.57    2.53
  -2   7 -15    1.18    1.91
  -2   7 -15    4.35    2.28
   2  -7  16    0.23    1.09
  -2   7 -16    0.71    1.44
  -2   7 -16    2.27    1.75
   2  -7  17    1.34    0.97
  -2   7 -17    1.76    2.63
  -2   7 -17    3.34    2.93
  -2   6  15   -1.13    1.39
  -2   6  14    2.76    1.94
  -2   6  13    1.60    1.88
   2  -6 -12    2.25    3.09
  -2   6  12    1.86    2.15
   2  -6 -11    1.05    2.44
  -2   6  11    0.23    1.77
   2  -6 -10   24.83    4.62
  -2   6  10   24.89    5.34
   2  -6  -9   64.33    8.07
  -2   6   9   64.30   13.36
   2  -6  -8    5.14    2.46
  -2   6   8    2.83    1.60
  -2   6   8    4.56    2.82
   2  -6  -7   13.01    3.80
  -2   6   7   10.39    3.82
  -2   6   7   13.02    4.07
   2  -6  -6  432.18   36.88
  -2   6   6  365.08   33.64
  -2   6   6  441.97   38.46
   2  -6  -5    3.25    2.20
  -2   6   5   -0.62    2.54
  -2   6   5    4.96    2.19
   2  -6  -4  179.71   15.51
  -2   6   4  180.54   16.69
  -2   6   4  185.82   15.71
   2  -6  -3   28.27    4.33
  -2   6   3   26.72    5.07
  -2   6   3   27.64    4.20
   2  -6  -2   11.94    2.86
  -2   6   2   10.17    3.33
  -2   6   2   10.81    2.69
   2  -6  -1    0.76    1.92
   2  -6  -1    0.83    1.33
  -2   6   1   -0.09    1.34
  -2   6   1   -0.86    2.19
  -2   6   1   -2.17    1.85
  -2   6   1   -0.61    1.92
   2  -6   0   29.88    2.97
  -2   6   0   25.67    2.94
  -2   6   0   26.51    4.63
  -2   6   0   43.03    4.12
  -2   6   0   43.52    4.55
   2  -6   1   46.35    5.51
   2  -6   1   47.77    3.67
  -2   6  -1   44.21    3.83
  -2   6  -1   42.05    5.51
  -2   6  -1   53.36    4.94
  -2   6  -1   53.38    5.41
   2  -6   2    5.32    2.02
   2  -6   2    3.58    1.24
  -2   6  -2    3.15    1.25
  -2   6  -2    4.13    2.02
   2  -6   3    0.12    1.26
   2  -6   3   -0.38    0.76
   2  -6   3   -0.17    1.09
  -2   6  -3    0.38    0.75
  -2   6  -3    1.25    1.24
  -2   6  -3    1.49    1.61
   2  -6   4    0.38    1.77
   2  -6   4    0.19    0.99
  -2   6  -4    0.05    0.63
  -2   6  -4   -0.03    1.20
  -2   6  -4   -0.37    0.90
   2  -6   5   43.22    4.83
  -2   6  -5   45.67    5.40
  -2   6  -5   31.33    3.24
  -2   6  -5   31.88    5.60
  -2   6  -5   49.68    4.06
   2  -6   6    7.63    2.27
  -2   6  -6    7.06    1.49
  -2   6  -6    4.80    1.64
  -2   6  -6    4.96    1.91
  -2   6  -6   10.34    3.20
   2  -6   7   71.82    9.59
  -2   6  -7   68.49    5.01
  -2   6  -7   67.12    6.05
  -2   6  -7   64.61    6.64
  -2   6  -7   87.05    6.21
   2  -6   8    7.39    2.39
   2  -6   8    6.11    1.73
  -2   6  -8    8.68    3.48
  -2   6  -8   13.77    2.31
   2  -6   9   11.71    2.82
   2  -6   9    8.55    2.24
  -2   6  -9   14.58    4.57
  -2   6  -9   21.73    2.89
  -2   6 -10  167.37   13.74
  -2   6 -10  206.14   20.15
  -2   6 -11  177.30   15.08
  -2   6 -11  208.32   16.73
  -2   6 -12  113.76   11.11
  -2   6 -12  134.31   11.97
   2  -6  13    4.45    2.09
  -2   6 -13    5.68    2.44
  -2   6 -13    8.32    4.13
   2  -6  14    1.92    2.46
  -2   6 -14    3.73    3.45
  -2   6 -14    0.31    2.06
   2  -6  15   -0.51    3.30
  -2   6 -15    5.15    2.58
  -2   6 -15    7.17    2.63
   2  -6  16   -0.13    1.02
  -2   6 -16    2.24    1.32
  -2   6 -16   -1.95    1.35
   2  -6  17    0.13    1.00
  -2   6 -17    0.60    1.35
  -2   6 -17   -0.41    2.38
  -2   6 -18   20.99    5.87
  -2   6 -18   16.58    3.24
  -2   5  16   -3.14    1.82
  -2   5  15    0.66    1.50
  -2   5  14   -1.27    3.08
  -2   5  13    5.20    4.45
  -2   5  12    4.63    2.80
   2  -5 -11   13.74    3.25
  -2   5  11   12.23    3.91
   2  -5 -10    1.61    1.68
  -2   5  10    0.56    1.95
   2  -5  -9   49.13    5.94
  -2   5   9   35.18    6.47
  -2   5   9   49.50    6.76
   2  -5  -8   38.32    4.90
  -2   5   8   27.44    3.55
  -2   5   8   34.94    5.27
   2  -5  -7   35.08    4.68
  -2   5   7   29.79    3.59
  -2   5   7   36.29    5.14
   2  -5  -6   93.71    8.55
  -2   5   6   86.83    7.21
  -2   5   6  100.76    9.16
   2  -5  -5   77.18    7.22
   2  -5  -5   89.63    5.71
  -2   5   5   71.77    5.86
  -2   5   5   82.12    8.97
  -2   5   5   80.19   10.81
   2  -5  -4   17.90    3.01
   2  -5  -4   17.70    2.14
  -2   5   4   14.90    2.22
  -2   5   4   18.35    3.84
  -2   5   4   16.82    4.79
  -2   5   4   19.04    3.10
   2  -5  -3   15.50    2.80
   2  -5  -3   16.75    3.12
  -2   5   3   13.87    2.13
  -2   5   3   15.64    3.53
  -2   5   3   15.23    2.77
  -2   5   3   15.48    2.82
   2  -5  -2   59.90    5.54
   2  -5  -2   66.56    4.36
  -2   5   2   57.66    4.55
  -2   5   2   59.29   10.40
  -2   5   2   61.92    5.45
  -2   5   2   64.08    5.59
   2  -5  -1  166.47   15.37
   2  -5  -1  178.31    9.90
  -2   5   1  170.26   10.18
  -2   5   1  161.20   17.26
  -2   5   1  175.73   11.52
  -2   5   1  183.03   11.86
   2  -5   0    1.15    0.62
   2  -5   0    0.92    1.35
   2  -5   0    1.01    0.84
  -2   5   0    1.34    0.90
  -2   5   0    1.30    1.36
  -2   5   0    0.00    0.69
   2  -5   1   76.21    4.61
   2  -5   1   93.18    7.39
  -2   5  -1   93.96    5.55
  -2   5  -1   70.91    6.35
  -2   5  -1   93.01    6.55
   2  -5   2   73.14    5.45
   2  -5   2  106.78    7.96
   2  -5   2   93.39    3.65
  -2   5  -2  105.73    7.45
  -2   5  -2   79.13    5.70
   2  -5   3  467.54   25.95
   2  -5   3  480.20   38.72
   2  -5   3  405.80   21.22
   2  -5   3  395.87   22.96
   2  -5   3  511.62   32.24
  -2   5  -3  478.61   27.79
  -2   5  -3  378.52   31.00
  -2   5  -3  507.90   32.20
  -2   5  -3  551.01   38.13
   2  -5   4   -0.37    0.60
   2  -5   4    0.63    1.18
   2  -5   4    0.28    0.75
   2  -5   4    0.02    0.49
   2  -5   4    3.18    1.14
  -2   5  -4    0.38    0.63
  -2   5  -4   -0.07    0.89
  -2   5  -4    1.35    0.93
   2  -5   5   55.25    5.26
   2  -5   5   40.61    4.00
   2  -5   5   43.83    4.10
   2  -5   5   57.78    7.20
  -2   5  -5   51.48    4.45
  -2   5  -5   47.56    4.49
  -2   5  -5   54.83    4.47
  -2   5  -5   61.15    4.39
   2  -5   6  144.02   14.93
   2  -5   6  105.79    6.54
   2  -5   6  110.72    6.62
   2  -5   6  145.22    9.83
  -2   5  -6  135.82    7.41
  -2   5  -6  119.35    9.34
  -2   5  -6  130.04    8.76
  -2   5  -6  152.44   11.86
   2  -5   7   20.73    2.45
   2  -5   7   23.41    2.54
   2  -5   7   34.16    3.80
  -2   5  -7   24.33    2.22
  -2   5  -7   31.47    3.59
  -2   5  -7   29.61    6.04
  -2   5  -7   24.65    3.05
  -2   5  -7   36.44    3.33
   2  -5   8    1.33    1.63
   2  -5   8    2.34    1.17
   2  -5   8    1.97    1.18
  -2   5  -8    2.86    1.69
  -2   5  -8    7.61    2.89
  -2   5  -8    2.49    1.35
  -2   5  -8    3.37    1.51
   2  -5   9   45.79    8.08
   2  -5   9   37.87    6.21
   2  -5   9   43.66    4.38
  -2   5  -9   56.03    6.08
  -2   5  -9   63.30    7.62
   2  -5  10   16.00    2.93
   2  -5  10   13.80    2.78
  -2   5 -10   25.47    6.00
  -2   5 -10   32.43    3.57
   2  -5  11    2.06    1.60
  -2   5 -11    4.46    1.96
  -2   5 -11    2.63    1.92
   2  -5  12    1.27    1.38
  -2   5 -12    1.32    1.66
  -2   5 -12   -0.13    1.60
   2  -5  13    1.74    1.98
  -2   5 -13    5.23    2.37
  -2   5 -13    9.64    4.14
   2  -5  14   -1.43    3.34
  -2   5 -14    2.24    2.29
  -2   5 -14    6.46    2.39
   2  -5  15    3.70    2.38
  -2   5 -15   10.74    5.15
  -2   5 -15    6.81    2.81
   2  -5  16    1.59    1.84
  -2   5 -16    4.26    2.35
  -2   5 -16    2.98    3.56
   2  -5  17    1.25    1.43
  -2   5 -17    1.11    1.92
  -2   5 -17    1.60    1.77
   2  -5  18    1.84    1.67
  -2   5 -18    1.04    1.47
  -2   5 -18   -0.90    1.32
  -2   4  17   -1.09    1.47
  -2   4  16    6.34    4.02
  -2   4  15   -0.06    1.40
  -2   4  14    7.43    3.15
  -2   4  13   16.39    4.28
  -2   4  12    6.59    3.01
  -2   4  11   -0.09    1.49
   2  -4 -10    0.26    1.17
  -2   4  10    0.07    0.86
  -2   4  10    0.73    1.50
   2  -4  -9    0.83    1.21
  -2   4   9    0.80    0.89
  -2   4   9   -1.27    1.50
   2  -4  -8    2.14    1.55
   2  -4  -8    3.00    1.53
  -2   4   8    1.82    1.14
  -2   4   8    2.17    1.24
  -2   4   8    2.23    1.87
   2  -4  -7    3.57    2.39
   2  -4  -7    3.16    1.54
  -2   4   7    2.26    1.89
  -2   4   7    2.62    2.00
  -2   4   7    2.46    1.17
  -2   4   7    3.14    1.77
   2  -4  -6  171.81   14.66
   2  -4  -6  161.06   11.50
   2  -4  -6  180.08    9.65
  -2   4   6  173.80   15.62
  -2   4   6  171.70   19.50
  -2   4   6  160.86   11.79
  -2   4   6  176.43   12.75
  -2   4   6  192.26   13.29
   2  -4  -5   11.44    3.11
   2  -4  -5   11.60    2.26
   2  -4  -5   14.37    1.65
  -2   4   5   10.56    3.49
  -2   4   5   11.70    4.75
  -2   4   5   12.30    1.37
  -2   4   5   10.78    2.36
  -2   4   5   13.65    2.38
   2  -4  -4  167.95   10.28
   2  -4  -4  167.86   11.22
   2  -4  -4  197.83   12.21
  -2   4   4  184.71   15.18
  -2   4   4  178.11   14.00
  -2   4   4  169.86    8.54
  -2   4   4  182.47   11.96
  -2   4   4  198.43   12.75
   2  -4  -3  131.30    8.01
   2  -4  -3  132.06    8.94
   2  -4  -3  153.62    7.89
  -2   4   3  141.38   12.35
  -2   4   3  140.45   11.46
  -2   4   3  142.57    7.53
  -2   4   3  136.66   12.43
   2  -4  -2  204.59   14.00
   2  -4  -2  209.28   13.23
   2  -4  -2  239.71   11.99
  -2   4   2  236.43   17.80
  -2   4   2  218.85   16.26
  -2   4   2  210.13   11.04
  -2   4   2  221.34   13.50
   2  -4  -1  284.32   15.99
   2  -4  -1  340.74   24.99
   2  -4  -1  290.09   15.49
  -2   4   1  267.21   18.12
  -2   4   1  322.03   26.89
  -2   4   1  283.96   15.69
  -2   4   1  308.06   17.92
   2  -4   0    2.58    1.00
   2  -4   0    2.63    1.49
  -2   4   0    2.68    0.98
  -2   4   0    2.15    1.56
  -2   4   0    6.15    1.36
   2  -4   1   43.02    2.76
   2  -4   1   43.36    4.04
   2  -4   1   36.26    1.09
   2  -4   1   41.89    1.25
  -2   4  -1   41.58    2.88
  -2   4  -1   42.26    3.16
  -2   4  -1   48.10    3.45
  -2   4  -1   48.49    3.42
   2  -4   2    7.75    1.25
   2  -4   2    8.36    1.90
   2  -4   2    6.25    0.70
   2  -4   2    6.15    0.48
  -2   4  -2    7.45    1.12
  -2   4  -2    7.41    2.32
  -2   4  -2    8.31    1.54
   2  -4   3  503.64   30.99
   2  -4   3  420.71   32.62
   2  -4   3  352.11   17.05
   2  -4   3  412.58   24.42
  -2   4  -3  434.74   25.84
  -2   4  -3  390.18   24.67
  -2   4  -3  411.65   28.77
  -2   4  -3  414.12   27.09
   2  -4   4    3.48    0.97
   2  -4   4    3.95    1.63
   2  -4   4    4.31    0.62
   2  -4   4    2.59    0.62
   2  -4   4    3.22    2.20
  -2   4  -4    2.95    0.77
  -2   4  -4    2.66    1.40
  -2   4  -4    5.92    2.38
  -2   4  -4    3.86    1.24
   2  -4   5  394.09   21.68
   2  -4   5  368.19   24.23
   2  -4   5  240.01   16.17
   2  -4   5  315.41   16.89
   2  -4   5  355.39   22.04
  -2   4  -5  353.81   17.93
  -2   4  -5  343.01   27.89
  -2   4  -5  431.19   27.43
  -2   4  -5  404.06   22.30
   2  -4   6  615.62   37.03
   2  -4   6  427.35   26.86
   2  -4   6  412.29   29.32
   2  -4   6  542.63   36.05
  -2   4  -6  532.27   30.31
  -2   4  -6  476.54   40.33
  -2   4  -6  530.80   36.73
  -2   4  -6  568.28   35.12
   2  -4   7  649.68   48.69
   2  -4   7  534.53   40.24
   2  -4   7  547.41   37.02
   2  -4   7  651.06   46.96
  -2   4  -7  569.04   45.09
  -2   4  -7  607.39   45.39
  -2   4  -7  707.87   47.28
   2  -4   8  164.17   17.21
   2  -4   8  135.68   12.35
   2  -4   8  147.00    9.77
   2  -4   8  183.86   12.74
  -2   4  -8  201.99   14.08
  -2   4  -8  152.86   13.13
  -2   4  -8  159.15   12.15
  -2   4  -8  203.41   12.35
   2  -4   9    2.50    1.55
   2  -4   9    1.98    1.35
   2  -4   9    4.14    1.40
  -2   4  -9    3.08    1.99
  -2   4  -9    1.96    1.60
  -2   4  -9    8.02    1.66
   2  -4  10   10.40    2.48
   2  -4  10   10.99    2.38
  -2   4 -10   16.66    3.33
  -2   4 -10   17.43    2.73
   2  -4  11   -0.10    1.64
   2  -4  11    0.43    1.26
  -2   4 -11    1.32    2.81
  -2   4 -11    1.92    1.37
   2  -4  12   17.24    3.74
  -2   4 -12   33.32    4.64
  -2   4 -12   34.78    7.17
   2  -4  13    1.58    2.57
  -2   4 -13    1.02    1.94
  -2   4 -13    1.75    1.90
   2  -4  14   12.91    3.83
  -2   4 -14   20.63    4.29
  -2   4 -14   23.32    4.26
   2  -4  15    0.78    1.35
  -2   4 -15   -0.32    2.39
  -2   4 -15   -0.47    1.48
   2  -4  16    2.59    2.10
  -2   4 -16    4.59    2.64
  -2   4 -16    4.00    3.93
   2  -4  17    0.65    1.48
  -2   4 -17    0.61    1.90
  -2   4 -17    1.59    1.64
   2  -4  18    0.58    2.28
  -2   4 -18    1.90    1.89
  -2   4 -18    1.98    1.59
  -2   4 -19   17.69    4.18
  -2   4 -19    3.88    1.86
  -2   3  18   -2.42    2.66
  -2   3  17    3.40    2.05
  -2   3  16    5.56    2.65
  -2   3  15    0.38    1.70
   2  -3 -14   43.64    6.48
  -2   3  14   42.67    7.02
   2  -3 -13    1.88    2.03
  -2   3  13    0.60    2.02
   2  -3 -12    1.43    2.03
   2  -3 -11    1.97    2.03
   2  -3 -10   71.13    6.81
  -2   3  10   43.16    7.63
   2  -3  -9    3.34    1.79
   2  -3  -9    2.92    1.35
   2  -3  -9    3.32    1.62
  -2   3   9    2.11    1.36
  -2   3   9    0.69    1.97
   2  -3  -8    4.45    1.44
   2  -3  -8    4.16    1.11
  -2   3   8    4.08    1.52
  -2   3   8    6.19    3.37
  -2   3   8    5.60    1.56
  -2   3   8    2.69    1.95
   2  -3  -7   19.32    2.69
   2  -3  -7   15.16    2.16
   2  -3  -7   17.70    2.75
  -2   3   7   14.20    2.43
  -2   3   7   15.32    3.20
  -2   3   7   18.18    3.27
  -2   3   7    8.73    2.63
   2  -3  -6   25.52    2.98
   2  -3  -6   21.50    2.50
   2  -3  -6   24.08    1.87
  -2   3   6   17.91    2.71
  -2   3   6   22.88    3.65
  -2   3   6   28.18    2.16
   2  -3  -5   29.53    2.98
   2  -3  -5   24.89    2.69
   2  -3  -5   30.70    2.03
  -2   3   5   20.29    2.87
  -2   3   5   26.90    4.00
  -2   3   5   28.85    2.17
  -2   3   5   28.38    3.13
   2  -3  -4   25.54    4.25
   2  -3  -4   23.98    2.60
   2  -3  -4   25.71    1.99
  -2   3   4   21.97    2.77
  -2   3   4   18.65    6.30
  -2   3   4   26.03    3.62
  -2   3   4   25.99    2.86
   2  -3  -3  634.59   41.57
   2  -3  -3  608.08   40.35
   2  -3  -3  674.03   40.22
  -2   3   3  581.11   39.81
  -2   3   3  631.02   46.67
  -2   3   3  631.59   40.16
  -2   3   3  656.00   42.89
   2  -3  -2   18.85    2.04
   2  -3  -2   20.78    3.71
  -2   3   2   15.15    2.05
  -2   3   2   17.50    2.82
  -2   3   2   18.96    3.01
  -2   3   2   18.40    3.15
   2  -3  -1   17.52    3.01
   2  -3  -1   17.29    2.14
  -2   3   1   15.38    1.82
  -2   3   1   16.00    2.50
  -2   3   1   15.66    1.72
  -2   3   1   15.63    1.75
  -2   3   1   16.19    1.78
   2  -3   0   37.69    2.73
   2  -3   0   38.15    3.25
  -2   3   0   37.33    2.71
  -2   3   0   34.20    2.85
  -2   3   0   37.08    2.71
  -2   3   0   37.79    2.59
   2  -3   1  351.68   19.44
   2  -3   1  333.04   20.00
   2  -3   1  345.38   18.24
  -2   3  -1  369.42   22.07
  -2   3  -1  316.67   18.44
  -2   3  -1  377.42   24.46
  -2   3  -1  342.85   17.82
   2  -3   2   29.95    2.26
   2  -3   2   29.07    2.97
   2  -3   2   22.82    0.95
   2  -3   2   24.34    0.72
  -2   3  -2   28.02    1.79
  -2   3  -2   26.15    2.59
  -2   3  -2   29.54    2.67
   2  -3   3  143.04    7.24
   2  -3   3  127.30    8.07
   2  -3   3  111.50    4.83
   2  -3   3  123.65    8.44
  -2   3  -3  124.59    5.55
  -2   3  -3  117.90    7.59
  -2   3  -3  124.18    7.43
  -2   3  -3  129.16    6.09
   2  -3   4   54.85    5.26
   2  -3   4   46.61    3.99
   2  -3   4   30.14    2.52
   2  -3   4   37.39    1.89
   2  -3   4   45.38    3.06
  -2   3  -4   40.64    2.90
  -2   3  -4   43.07    3.81
  -2   3  -4   42.00    3.58
  -2   3  -4   48.84    2.78
   2  -3   5    4.54    1.12
   2  -3   5    4.16    1.52
   2  -3   5    2.65    1.18
   2  -3   5    3.46    0.74
   2  -3   5    4.82    1.20
  -2   3  -5    3.35    0.54
  -2   3  -5    6.30    2.42
  -2   3  -5    2.81    2.32
  -2   3  -5    5.18    1.65
   2  -3   6  257.30   13.59
   2  -3   6  223.48   14.98
   2  -3   6  186.79   10.49
   2  -3   6  192.42   12.61
   2  -3   6  230.81   16.26
  -2   3  -6  206.01   14.31
  -2   3  -6  240.60   12.64
   2  -3   7    4.50    1.20
   2  -3   7    6.07    1.98
   2  -3   7    6.79    2.42
  -2   3  -7    7.60    2.06
  -2   3  -7    6.79    1.43
   2  -3   8   22.33    2.99
   2  -3   8   16.79    2.43
   2  -3   8   19.19    3.82
   2  -3   8   24.07    4.29
  -2   3  -8   32.99    3.55
  -2   3  -8   23.54    3.71
  -2   3  -8   30.10    2.77
   2  -3   9   66.49    5.97
   2  -3   9   54.22    5.09
   2  -3   9   58.68    7.46
   2  -3   9   64.55    5.38
  -2   3  -9   78.40    6.75
  -2   3  -9   57.55    6.90
  -2   3  -9   62.85    9.68
  -2   3  -9   77.04    5.61
   2  -3  10   39.49    6.52
   2  -3  10   30.88    4.05
  -2   3 -10   45.47    5.37
  -2   3 -10   30.22    6.41
  -2   3 -10   44.82    4.22
   2  -3  11    1.04    1.19
   2  -3  11    2.15    2.36
  -2   3 -11    6.35    2.95
  -2   3 -11    1.34    2.70
   2  -3  12   22.09    7.24
  -2   3 -12   39.05    5.33
  -2   3 -12   38.05    5.06
   2  -3  13    3.47    2.30
  -2   3 -13    5.84    2.52
  -2   3 -13    4.08    2.36
   2  -3  14   59.09    8.51
  -2   3 -14   89.95    9.51
  -2   3 -14   84.87    9.06
   2  -3  15    1.24    1.85
  -2   3 -15    2.55    3.17
  -2   3 -15    1.14    3.26
   2  -3  16   -1.01    1.54
  -2   3 -16    2.02    1.88
  -2   3 -16    0.77    1.60
   2  -3  17    0.72    1.97
  -2   3 -17   -1.26    1.47
  -2   3 -17    0.50    1.23
   2  -3  18   -0.48    1.11
  -2   3 -18   -0.21    1.38
  -2   3 -18    0.90    1.86
  -2   3 -19    9.84    3.85
  -2   3 -19    3.92    1.39
  -2   2  18   -4.88    2.18
   2  -2 -17    3.52    3.45
  -2   2  17    4.08    2.32
   2  -2 -16    5.16    2.75
  -2   2  16    5.39    2.76
   2  -2 -15    5.46    2.61
  -2   2  15    2.05    1.84
   2  -2 -14   13.72    3.86
  -2   2  14    5.96    4.34
   2  -2 -13    1.69    2.04
   2  -2 -13   -0.21    1.95
  -2   2  13    1.41    2.36
   2  -2 -12    2.62    3.74
   2  -2 -12    2.52    2.20
  -2   2  12    2.01    1.57
   2  -2 -11    2.67    2.95
   2  -2 -11    1.07    1.67
  -2   2  11    0.65    1.12
  -2   2  11    0.71    1.23
   2  -2 -10    7.75    3.53
   2  -2 -10    6.02    2.15
  -2   2  10    3.38    1.54
  -2   2  10    4.04    1.56
   2  -2  -9    7.20    3.31
   2  -2  -9    5.69    2.03
  -2   2   9    4.22    1.54
  -2   2   9    5.16    1.97
  -2   2   9    7.24    1.89
  -2   2   9    3.20    1.42
   2  -2  -8  222.67   19.59
   2  -2  -8  168.50   10.70
   2  -2  -8  222.60   15.52
  -2   2   8  205.52   15.81
  -2   2   8  257.17   15.23
  -2   2   8  192.43   12.08
   2  -2  -7   18.14    4.57
   2  -2  -7   16.38    1.80
   2  -2  -7   16.64    2.21
   2  -2  -7   15.19    2.62
  -2   2   7   13.35    4.89
  -2   2   7   19.84    2.10
   2  -2  -6  512.18   36.03
   2  -2  -6  481.91   32.33
   2  -2  -6  405.76   25.09
   2  -2  -6  442.69   23.96
   2  -2  -6  444.35   30.20
  -2   2   6  462.65   34.17
  -2   2   6  513.31   30.21
   2  -2  -5 2708.51  284.54
   2  -2  -5 2531.58  265.20
   2  -2  -5 2209.63  224.37
   2  -2  -5 2561.29  250.37
   2  -2  -5 2447.02  251.60
  -2   2   5 2397.74  259.86
  -2   2   5 2507.54  258.14
  -2   2   5 1705.76  211.19
   2  -2  -4   -0.70    1.13
   2  -2  -4    0.12    0.95
   2  -2  -4   -0.21    1.07
   2  -2  -4   -0.26    0.47
  -2   2   4    0.97    1.20
  -2   2   4    0.66    0.81
  -2   2   4    0.69    0.32
   2  -2  -3  689.26   48.11
   2  -2  -3  694.82   45.81
   2  -2  -3  694.32   44.03
  -2   2   3  680.78   48.39
  -2   2   3  692.59   43.77
  -2   2   3  562.95   29.85
  -2   2   3  693.51   43.21
   2  -2  -2    4.50    1.24
   2  -2  -2    3.33    1.11
   2  -2  -2    2.12    0.99
  -2   2   2    0.81    2.17
  -2   2   2    2.22    1.04
  -2   2   2    3.10    0.81
  -2   2   2    2.53    0.82
   2  -2  -1  113.63    6.57
   2  -2  -1  104.77    5.85
   2  -2  -1   98.75    5.56
  -2   2   1   99.57    5.48
  -2   2   1  102.33    6.61
  -2   2   1  101.90    4.79
   2  -2   0  287.89   18.52
   2  -2   0  304.34   19.70
  -2   2   0  295.94   16.27
  -2   2   0  311.37   16.02
  -2   2   0  305.92   14.38
   2  -2   1   20.63    2.16
   2  -2   1   21.39    2.25
  -2   2  -1   19.33    1.63
  -2   2  -1   19.42    2.29
  -2   2  -1   21.09    2.07
  -2   2  -1   24.06    1.52
   2  -2   2  114.52    8.09
   2  -2   2  127.51    7.12
   2  -2   2  107.73    3.31
   2  -2   2  108.94    3.65
   2  -2   2  114.35    6.66
  -2   2  -2  124.04    5.51
  -2   2  -2  112.64    6.79
  -2   2  -2  127.56    6.72
   2  -2   3  185.77    9.35
   2  -2   3  163.27   12.71
   2  -2   3  150.66    6.98
   2  -2   3  146.54    5.72
   2  -2   3  169.12    7.53
  -2   2  -3  144.92    7.05
  -2   2  -3  167.73    9.90
  -2   2  -3  170.27    9.96
  -2   2  -3  180.19    7.43
   2  -2   4    3.29    1.09
   2  -2   4    0.55    1.24
   2  -2   4    1.63    0.88
   2  -2   4    2.20    0.54
   2  -2   4    2.59    0.81
  -2   2  -4    2.30    0.39
  -2   2  -4    1.02    2.15
  -2   2  -4    3.54    1.28
  -2   2  -4    1.97    1.11
   2  -2   5    3.65    1.08
   2  -2   5    4.93    1.47
   2  -2   5    2.62    0.74
   2  -2   5    2.72    0.78
   2  -2   5    5.07    1.50
  -2   2  -5    5.13    1.49
  -2   2  -5    5.41    1.52
  -2   2  -5    3.64    0.87
   2  -2   6   37.90    5.93
   2  -2   6   23.62    2.27
   2  -2   6   28.38    2.35
   2  -2   6   33.09    2.50
  -2   2  -6   35.10    3.73
  -2   2  -6   37.83    3.56
   2  -2   7    7.18    1.80
   2  -2   7    5.60    1.36
   2  -2   7    6.54    1.36
   2  -2   7    7.82    1.39
  -2   2  -7    9.24    2.17
  -2   2  -7    7.88    2.07
  -2   2  -7    9.01    1.39
   2  -2   8   10.13    1.69
   2  -2   8    4.25    2.26
   2  -2   8    4.04    1.41
   2  -2   8    5.21    1.38
  -2   2  -8    5.83    1.77
  -2   2  -8    4.85    2.07
  -2   2  -8    4.09    1.94
  -2   2  -8    6.06    1.35
   2  -2   9   16.01    4.26
   2  -2   9   12.77    3.75
   2  -2   9   15.48    2.44
   2  -2   9   17.07    2.28
  -2   2  -9   17.75    2.91
  -2   2  -9   13.30    3.31
  -2   2  -9   16.05    2.98
   2  -2  10    0.78    0.99
   2  -2  10    0.15    1.97
  -2   2 -10    0.18    1.33
  -2   2 -10    1.82    1.33
  -2   2 -10   -0.05    1.17
   2  -2  11    2.01    1.30
   2  -2  11    2.80    1.71
  -2   2 -11    2.97    3.01
  -2   2 -11    2.52    1.65
   2  -2  12    2.23    2.24
   2  -2  12    1.80    1.88
  -2   2 -12    3.52    1.99
  -2   2 -12    2.63    1.82
   2  -2  13   39.94    6.37
  -2   2 -13   58.65    6.71
  -2   2 -13   53.89    9.34
   2  -2  14    1.80    1.77
  -2   2 -14   -0.58    1.75
  -2   2 -14    1.44    1.67
   2  -2  15    2.56    2.11
  -2   2 -15    2.45    3.35
  -2   2 -15    1.93    2.05
   2  -2  16    3.85    3.60
  -2   2 -16    6.58    2.60
  -2   2 -16    1.03    2.21
   2  -2  17    1.46    1.69
  -2   2 -17    1.32    1.93
  -2   2 -17    1.53    2.59
   2  -2  18   -0.90    1.12
  -2   2 -18   -0.09    1.26
  -2   2 -18    0.49    0.98
   2  -2  19    2.95    1.48
  -2   2 -19    2.86    1.80
  -2   1  19    0.79    1.35
   2  -1 -18    1.94    1.38
  -2   1  18   -0.54    0.87
  -2   1  18   -1.57    1.35
   2  -1 -17    3.48    2.34
  -2   1  17    1.99    1.53
   2  -1 -16    3.91    2.68
  -2   1  16    1.38    3.03
   2  -1 -15    0.37    2.18
   2  -1 -15    1.61    1.95
  -2   1  15    0.45    1.54
   2  -1 -14   20.36    6.75
   2  -1 -14   14.55    3.68
  -2   1  14    7.26    2.91
   2  -1 -13   19.54    6.40
   2  -1 -13   17.13    3.74
  -2   1  13    9.34    3.00
   2  -1 -12    3.82    2.28
   2  -1 -12    3.48    2.11
  -2   1  12    1.25    1.64
   2  -1 -11   20.08    3.92
   2  -1 -11   18.20    3.55
  -2   1  11   11.51    4.14
   2  -1 -10    1.44    1.47
   2  -1 -10    1.40    1.62
   2  -1 -10    1.75    1.45
  -2   1  10    0.86    1.91
  -2   1  10    0.42    1.04
   2  -1  -9   50.07    5.70
   2  -1  -9   55.53    5.59
   2  -1  -9   50.12    5.21
  -2   1   9   50.41    5.64
  -2   1   9   63.00    5.34
  -2   1   9   43.01    3.89
   2  -1  -8    3.84    1.96
   2  -1  -8    7.26    2.00
   2  -1  -8    9.02    1.78
  -2   1   8    5.38    1.90
  -2   1   8    7.70    2.71
  -2   1   8    3.87    1.21
   2  -1  -7  124.92    9.81
   2  -1  -7  123.96    8.54
   2  -1  -7  109.40    7.00
   2  -1  -7  114.68    4.70
   2  -1  -7  110.80    7.87
  -2   1   7  119.71    9.20
  -2   1   7  141.70    7.77
  -2   1   7  110.18    6.18
  -2   1   7  124.47    7.34
   2  -1  -6   90.49   11.34
   2  -1  -6   87.56    9.39
   2  -1  -6   87.66    4.35
   2  -1  -6   89.39    3.37
   2  -1  -6   88.42    5.90
  -2   1   6   85.83    6.99
  -2   1   6  103.97    5.63
  -2   1   6   87.90    5.77
  -2   1   6   94.25    5.39
   2  -1  -5  663.87   54.90
   2  -1  -5  647.31   51.34
   2  -1  -5  630.49   38.43
   2  -1  -5  695.02   39.69
   2  -1  -5  611.59   40.76
  -2   1   5  610.43   50.48
  -2   1   5  817.17   56.34
  -2   1   5  595.48   37.50
   2  -1  -4   61.11    7.71
   2  -1  -4   60.07    4.37
   2  -1  -4   54.99    2.86
   2  -1  -4   55.58    2.16
   2  -1  -4   54.73    3.16
  -2   1   4   55.20    7.31
  -2   1   4   62.68    3.93
  -2   1   4   53.28    2.78
   2  -1  -3    1.76    1.78
   2  -1  -3    1.71    1.00
   2  -1  -3   -0.08    0.98
  -2   1   3    2.81    1.06
  -2   1   3   -0.03    1.32
  -2   1   3    1.08    0.47
  -2   1   3    0.61    0.24
  -2   1   3    0.83    0.56
   2  -1  -2  198.92   14.63
   2  -1  -2  187.65   13.21
   2  -1  -2  175.74   10.32
  -2   1   2  180.67   10.63
  -2   1   2  185.32    9.70
  -2   1   2  215.45   10.70
  -2   1   2  172.47    5.27
  -2   1   2  184.77    6.03
  -2   1   2  182.36    7.70
   2  -1  -1    5.48    2.21
   2  -1  -1    4.77    1.34
   2  -1  -1    6.28    1.04
  -2   1   1    4.97    2.04
  -2   1   1    5.27    0.91
  -2   1   1    5.49    1.05
   2  -1   0   24.07    3.22
   2  -1   0   25.78    3.76
   2  -1   0   24.28    2.04
   2  -1   0   23.31    0.62
  -2   1   0   23.66    2.36
  -2   1   0   23.88    3.15
  -2   1   0   27.00    1.78
   2  -1   1   16.33    1.49
   2  -1   1   18.17    1.96
   2  -1   1   17.66    2.83
   2  -1   1   15.32    0.59
   2  -1   1   17.46    0.94
  -2   1  -1   18.22    3.35
   2  -1   2  296.37   14.25
   2  -1   2  299.81   20.06
   2  -1   2  270.52   15.15
   2  -1   2  267.06   11.07
   2  -1   2  268.39   12.93
  -2   1  -2  269.88   15.75
  -2   1  -2  275.26   15.47
  -2   1  -2  271.83   12.03
  -2   1  -2  304.68   12.28
   2  -1   3  701.59   44.47
   2  -1   3  684.07   44.71
   2  -1   3  638.74   39.13
   2  -1   3  640.27   36.45
  -2   1  -3  643.53   35.19
  -2   1  -3  658.83   44.34
  -2   1  -3  659.35   49.79
  -2   1  -3  722.49   42.51
  -2   1  -3  695.86   38.13
   2  -1   4 1033.52   68.38
   2  -1   4  929.65   71.14
   2  -1   4  804.42   51.65
   2  -1   4  805.20   52.42
  -2   1  -4  747.01   42.50
  -2   1  -4  720.86   48.47
  -2   1  -4  875.08   68.34
  -2   1  -4  821.50   65.72
  -2   1  -4  856.60   55.61
  -2   1  -4  880.63   55.70
   2  -1   5  183.73    9.78
   2  -1   5  181.76   11.03
   2  -1   5  163.59    9.45
   2  -1   5  173.92    8.29
  -2   1  -5  173.84   11.70
  -2   1  -5  180.64    9.38
  -2   1  -5  192.77    8.77
   2  -1   6 1407.09  113.62
   2  -1   6 1415.20  118.97
   2  -1   6 1116.86   94.13
   2  -1   6 1218.92   97.39
  -2   1  -6 1244.42  110.48
  -2   1  -6 1247.52  101.25
  -2   1  -6 1315.78  103.04
   2  -1   7    0.26    1.15
   2  -1   7    1.87    1.02
   2  -1   7    1.88    0.79
  -2   1  -7    1.67    1.37
  -2   1  -7    0.29    0.96
  -2   1  -7    0.90    1.26
   2  -1   8   95.14    9.13
   2  -1   8   79.81    7.05
   2  -1   8   86.45    5.95
  -2   1  -8  128.46    8.06
  -2   1  -8   97.31    8.41
  -2   1  -8   93.54    6.95
  -2   1  -8  108.62    6.82
   2  -1   9  103.49    7.53
   2  -1   9   84.14    7.92
   2  -1   9   86.14    6.45
  -2   1  -9  113.30    8.42
  -2   1  -9   94.93   12.44
  -2   1  -9  111.00    7.60
   2  -1  10   69.13    5.60
   2  -1  10   48.70    6.05
   2  -1  10   49.63    4.89
  -2   1 -10   72.75    6.35
  -2   1 -10   58.42    5.61
   2  -1  11   63.76    8.23
   2  -1  11   54.86    6.77
  -2   1 -11   78.61   10.08
  -2   1 -11   60.82    8.70
   2  -1  12    1.97    1.24
   2  -1  12    2.00    1.97
  -2   1 -12    3.51    1.86
  -2   1 -12    3.37    2.93
   2  -1  13    6.96    1.89
   2  -1  13    7.52    3.03
  -2   1 -13   13.51    2.86
  -2   1 -13   10.59    2.78
   2  -1  14    0.91    1.14
   2  -1  14    0.81    3.17
  -2   1 -14    2.50    1.79
  -2   1 -14    2.14    1.82
   2  -1  15    0.63    2.97
  -2   1 -15    2.73    3.31
  -2   1 -15    0.71    1.66
   2  -1  16    0.86    1.97
  -2   1 -16    3.14    2.06
  -2   1 -16    1.66    2.83
   2  -1  17    1.43    1.69
  -2   1 -17    1.98    1.71
  -2   1 -17    0.66    1.37
   2  -1  18    0.38    1.17
  -2   1 -18    1.15    2.07
  -2   1 -18   -0.07    0.83
   2   0 -19    0.25    1.86
  -2   0  19    2.95    1.64
   2   0 -18   11.09    3.36
  -2   0  18    6.44    2.07
   2   0 -17    5.85    2.64
   2   0 -17    1.06    2.22
  -2   0  17    1.95    1.73
   2   0 -16   14.56    4.00
   2   0 -16    9.49    3.26
  -2   0  16    4.10    2.61
   2   0 -15   39.51    9.54
   2   0 -15   30.79    5.36
  -2   0  15   20.26    4.52
   2   0 -14   47.49   10.85
   2   0 -14   38.82    6.27
  -2   0  14   28.60    8.20
   2   0 -13   35.95    6.13
   2   0 -13   32.85    5.36
  -2   0  13   23.47    6.71
   2   0 -12   21.74    4.70
   2   0 -12   44.13    5.80
   2   0 -12   37.85    7.80
  -2   0  12   33.02    4.20
   2   0 -11   72.64    8.24
   2   0 -11   99.67    9.27
   2   0 -11   87.77   11.86
  -2   0  11   82.13    6.89
   2   0 -10   82.69    8.29
   2   0 -10   97.34    8.70
   2   0 -10   96.17   11.14
  -2   0  10   84.85    7.22
  -2   0  10   84.46    6.65
   2   0  -9   26.16    5.48
   2   0  -9   16.11    3.18
   2   0  -9   12.79    2.61
  -2   0   9   13.43    2.40
  -2   0   9   21.21    2.84
  -2   0   9   13.69    3.22
  -2   0   9   15.00    2.16
   2   0  -8   53.96    5.66
   2   0  -8   47.86    5.00
   2   0  -8   45.97    4.35
  -2   0   8   41.13    6.26
  -2   0   8   62.99    6.52
  -2   0   8   45.59    3.57
  -2   0   8   51.79    5.25
   2   0  -7  143.51   11.04
   2   0  -7  127.82    9.21
   2   0  -7  122.77    8.11
  -2   0   7  142.69   13.59
  -2   0   7  154.13    8.45
  -2   0   7  127.16    7.10
  -2   0   7  138.74    9.68
   2   0  -6   19.84    3.05
   2   0  -6   18.28    2.68
   2   0  -6   16.53    0.80
   2   0  -6   17.09    0.86
   2   0  -6   18.32    1.89
  -2   0   6   20.81    2.82
  -2   0   6   22.66    2.09
  -2   0   6   20.21    1.61
  -2   0   6   20.13    1.74
   2   0  -5  312.54   20.73
   2   0  -5  287.41   21.17
   2   0  -5  282.38   12.19
   2   0  -5  308.53   12.36
   2   0  -5  280.12   17.41
  -2   0   5  295.54   19.13
  -2   0   5  304.75   18.82
  -2   0   5  295.96   15.65
  -2   0   5  306.96   14.98
   2   0  -4  104.37    7.39
   2   0  -4  104.22    6.73
   2   0  -4   95.23    4.78
   2   0  -4  101.94    6.02
  -2   0   4  102.60    6.86
  -2   0   4  120.74    6.34
  -2   0   4  110.09    4.31
  -2   0   4  101.62    4.38
   2   0  -3   87.92    6.02
   2   0  -3   91.40    5.60
   2   0  -3   78.48    4.20
   2   0  -3   85.85    3.47
  -2   0   3   87.43    5.66
  -2   0   3   92.35    4.96
  -2   0   3  101.85    4.46
  -2   0   3   84.54    4.08
   2   0  -2   24.10    4.18
   2   0  -2   25.05    3.93
   2   0  -2   22.66    1.47
   2   0  -2   27.09    1.12
  -2   0   2   26.06    2.44
  -2   0   2   27.30    2.38
  -2   0   2   25.00    2.01
  -2   0   2   27.52    1.13
  -2   0   2   27.38    1.57
   2   0  -1    2.32    1.75
   2   0  -1    1.82    1.14
   2   0  -1    3.70    0.71
   2   0  -1    2.35    0.39
  -2   0   1    3.04    0.96
  -2   0   1    2.30    0.99
  -2   0   1    3.25    0.72
  -2   0   1    2.58    0.40
  -2   0   1    2.50    0.28
  -2   0   1    2.65    0.28
   2   0   0  976.68   70.78
   2   0   0 1026.96   79.36
   2   0   0  940.09   66.02
   2   0   0 1009.45   64.04
  -2   0   0  971.15   68.87
  -2   0   0 1012.27   73.04
  -2   0   0  985.35   72.50
  -2   0   0 1133.71   71.37
  -2   0   0  969.80   57.45
  -2   0   0 1093.98   65.10
   2   0   1    1.51    1.01
   2   0   1    3.33    1.49
   2   0   1    1.76    0.49
  -2   0  -1    1.17    1.10
  -2   0  -1    1.30    1.04
  -2   0  -1    1.44    0.87
  -2   0  -1    1.72    0.73
  -2   0  -1    1.95    0.24
   2   0   2  903.72   58.49
   2   0   2  967.72   71.37
   2   0   2  820.29   56.20
   2   0   2  836.03   53.26
   2   0   2  839.64   49.17
  -2   0  -2  814.66   52.06
  -2   0  -2  861.44   60.42
  -2   0  -2  831.40   59.30
  -2   0  -2  925.28   58.15
  -2   0  -2  887.00   50.29
   2   0   3   11.14    1.33
   2   0   3   14.23    1.71
   2   0   3   11.30    1.80
   2   0   3   11.52    1.23
   2   0   3   12.04    1.09
  -2   0  -3   11.60    1.17
  -2   0  -3   11.54    1.89
  -2   0  -3   11.40    2.07
  -2   0  -3   15.08    1.97
   2   0   4 1919.33  171.85
   2   0   4 1646.21  146.93
   2   0   4 1518.71  135.54
   2   0   4 1583.51  127.56
  -2   0  -4 1497.68  137.83
  -2   0  -4 1497.53  138.96
  -2   0  -4 1592.07  135.75
  -2   0  -4 1719.30  140.20
   2   0   5    0.83    0.71
   2   0   5    0.79    1.33
   2   0   5    0.66    0.75
  -2   0  -5    0.54    1.18
  -2   0  -5    0.15    0.79
  -2   0  -5    0.41    0.51
   2   0   6  980.83   67.83
   2   0   6  850.27   67.90
   2   0   6  778.85   59.33
   2   0   6  722.88   52.38
  -2   0  -6  840.85   68.36
  -2   0  -6  862.98   68.12
  -2   0  -6  898.89   61.21
   2   0   7    2.33    1.05
   2   0   7    0.25    1.07
   2   0   7    0.71    1.05
  -2   0  -7    1.84    1.44
  -2   0  -7   -0.08    1.72
  -2   0  -7    0.47    0.78
   2   0   8   32.36    3.32
   2   0   8   22.73    3.42
   2   0   8   21.18    3.38
  -2   0  -8   34.97    3.33
  -2   0  -8   30.57    4.18
  -2   0  -8   29.24    3.47
  -2   0  -8   25.48    4.06
   2   0   9   99.21    6.96
   2   0   9   65.50    6.95
   2   0   9   52.96    6.56
  -2   0  -9   87.66    6.76
  -2   0  -9   82.43    8.06
  -2   0  -9   75.09    6.73
  -2   0  -9   79.03    8.43
   2   0  10   48.04    5.85
   2   0  10   36.10    5.10
   2   0  10   28.88    5.04
  -2   0 -10   46.94    7.32
  -2   0 -10   38.86    4.35
   2   0  11    8.79    1.90
   2   0  11    6.73    4.37
  -2   0 -11   10.79    2.33
  -2   0 -11    7.18    2.26
   2   0  12    2.69    1.26
   2   0  12    1.77    3.03
  -2   0 -12    1.47    1.58
  -2   0 -12    0.72    1.59
   2   0  13    5.04    1.62
   2   0  13    3.81    2.50
  -2   0 -13    5.16    2.13
  -2   0 -13    3.42    3.45
   2   0  14    0.27    1.79
   2   0  14    2.24    1.73
  -2   0 -14   -1.79    2.87
  -2   0 -14    0.31    2.40
   2   0  15    1.27    1.03
   2   0  15    0.15    1.80
  -2   0 -15    0.37    1.71
   2   0  16    1.41    1.73
  -2   0 -16    0.75    1.59
   2   0  17    1.24    1.85
  -2   0 -17    3.57    2.59
   2   0  18  146.94   14.91
   2   1 -19    0.23    1.66
  -2  -1  19   -0.48    0.92
   2   1 -18    3.66    1.86
  -2  -1  18   -1.02    1.18
   2   1 -17    2.82    2.64
   2   1 -17    1.99    2.07
  -2  -1  17    1.80    1.79
   2   1 -16    9.42    6.52
   2   1 -16    6.62    3.00
  -2  -1  16    6.85    2.73
   2   1 -15  129.47   19.09
   2   1 -15  104.84   11.87
  -2  -1  15   83.65   13.96
   2   1 -14   20.07    4.83
  -2  -1  14   11.19    3.27
   2   1 -13  305.13   26.56
   2   1 -13  270.85   29.48
  -2  -1  13  243.95   21.04
   2   1 -12   47.89    6.81
   2   1 -12   72.37    8.10
   2   1 -12   62.30    7.03
  -2  -1  12   56.32    6.05
   2   1 -11    6.49    4.74
   2   1 -11    9.10    3.10
   2   1 -11    8.59    2.42
  -2  -1  11    7.93    3.48
   2   1 -10    1.95    2.02
   2   1 -10    3.52    2.04
   2   1 -10    2.53    1.56
  -2  -1  10    3.67    2.41
  -2  -1  10    2.60    1.38
  -2  -1  10    3.40    2.01
   2   1  -9   76.45    7.95
   2   1  -9   66.92    6.83
   2   1  -9   70.57    5.98
  -2  -1   9   71.89    6.05
  -2  -1   9   86.53    6.28
  -2  -1   9   70.78    5.44
  -2  -1   9   70.97    4.95
   2   1  -8    2.11    1.52
   2   1  -8    2.18    1.39
   2   1  -8    1.09    1.00
  -2  -1   8    0.98    1.13
  -2  -1   8    0.79    1.77
  -2  -1   8    1.23    0.92
  -2  -1   8    0.73    0.80
   2   1  -7    2.91    3.02
   2   1  -7    3.49    1.61
   2   1  -7    3.19    1.10
  -2  -1   7    3.66    1.39
  -2  -1   7    4.63    1.25
  -2  -1   7    3.49    1.03
  -2  -1   7    2.82    0.89
   2   1  -6  415.96   34.99
   2   1  -6  373.86   24.63
   2   1  -6  366.68   20.99
  -2  -1   6  392.86   25.05
  -2  -1   6  442.79   25.34
  -2  -1   6  416.79   22.98
  -2  -1   6  382.11   20.51
   2   1  -5   30.80    3.53
   2   1  -5   29.47    4.57
   2   1  -5   24.37    1.78
  -2  -1   5   26.40    2.72
  -2  -1   5   29.46    2.33
  -2  -1   5   25.87    1.52
   2   1  -4    0.05    1.03
   2   1  -4   -0.19    0.89
   2   1  -4    0.86    0.23
   2   1  -4    0.51    0.52
   2   1  -4    0.58    0.39
  -2  -1   4    1.01    0.78
  -2  -1   4    0.08    0.75
  -2  -1   4    0.24    0.15
  -2  -1   4   -0.05    0.31
   2   1  -3    0.71    1.09
   2   1  -3    0.29    0.94
   2   1  -3    1.82    0.51
   2   1  -3    2.49    0.89
   2   1  -3    0.56    0.51
  -2  -1   3    0.88    0.82
  -2  -1   3    1.14    0.77
  -2  -1   3    0.42    0.53
  -2  -1   3    0.65    0.51
  -2  -1   3    1.00    0.41
   2   1  -2   11.07    1.86
   2   1  -2   11.89    2.67
   2   1  -2    8.80    0.80
   2   1  -2   12.32    1.00
  -2  -1   2    9.79    1.44
  -2  -1   2    9.60    2.35
  -2  -1   2   10.61    0.92
  -2  -1   2   10.19    0.34
   2   1  -1  360.90   21.33
   2   1  -1  357.15   20.50
   2   1  -1  345.97   17.50
   2   1  -1  443.34   21.11
  -2  -1   1  362.58   19.59
  -2  -1   1  384.66   20.53
  -2  -1   1  363.24   18.79
  -2  -1   1  389.31   18.75
   2   1   0  522.36   32.63
   2   1   0  560.28   38.08
   2   1   0  508.83   29.64
   2   1   0  585.98   34.58
  -2  -1   0  580.93   32.94
  -2  -1   0  547.71   36.52
  -2  -1   0  539.81   32.05
  -2  -1   0  626.20   36.39
   2   1   1   46.14    2.92
   2   1   1   47.40    3.10
   2   1   1   53.83    4.30
   2   1   1   48.34    2.62
  -2  -1  -1   45.05    2.74
  -2  -1  -1   42.80    3.11
  -2  -1  -1   46.80    4.50
  -2  -1  -1   52.30    2.67
   2   1   2  501.36   28.98
   2   1   2  511.16   33.30
   2   1   2  496.66   32.22
   2   1   2  536.93   34.03
  -2  -1  -2  592.79   30.72
  -2  -1  -2  543.60   36.38
  -2  -1  -2  506.65   35.60
  -2  -1  -2  597.85   35.94
   2   1   3  178.57    9.55
   2   1   3  216.91   10.90
   2   1   3  172.71    9.44
   2   1   3  188.74   10.38
  -2  -1  -3  206.68    8.09
  -2  -1  -3  190.72   10.76
  -2  -1  -3  175.12   14.16
  -2  -1  -3  209.72   10.86
   2   1   4  729.30   41.65
   2   1   4  773.58   51.59
   2   1   4  817.32   54.32
   2   1   4  764.24   51.91
   2   1   4  635.68   38.18
  -2  -1  -4  855.17   45.31
  -2  -1  -4  780.56   54.48
  -2  -1  -4  698.34   57.12
  -2  -1  -4  877.50   56.96
  -2  -1  -4  586.14   42.55
   2   1   5    0.91    0.67
   2   1   5    1.61    0.97
   2   1   5    1.00    0.96
   2   1   5    0.26    0.38
  -2  -1  -5    1.59    1.93
  -2  -1  -5    1.07    0.99
  -2  -1  -5    0.45    0.49
   2   1   6  981.59   70.88
   2   1   6  790.78   60.95
  -2  -1  -6  804.81   72.02
  -2  -1  -6  877.75   65.60
  -2  -1  -6  653.92   53.16
   2   1   7   62.48    4.96
   2   1   7   47.32    4.97
  -2  -1  -7   62.32    4.31
  -2  -1  -7   61.42    9.12
  -2  -1  -7   55.51    5.06
  -2  -1  -7   41.03    3.53
   2   1   8   11.27    3.07
   2   1   8    6.54    2.03
   2   1   8    4.94    1.16
  -2  -1  -8    7.26    1.60
  -2  -1  -8   10.15    4.25
  -2  -1  -8    7.35    3.23
  -2  -1  -8    6.93    1.47
   2   1   9   26.57    2.91
   2   1   9   18.67    3.63
  -2  -1  -9   23.20    4.43
   2   1  10   14.72    2.39
   2   1  10   12.27    3.14
  -2  -1 -10   15.18    2.50
   2   1  11    7.44    1.86
   2   1  11    4.45    2.58
  -2  -1 -11    6.39    1.95
   2   1  12    8.20    2.03
   2   1  12    7.13    2.88
  -2  -1 -12    7.16    2.17
   2   1  13    1.69    1.88
   2   1  13    0.08    1.69
  -2  -1 -13   -0.78    2.47
   2   1  14    0.37    1.08
   2   1  14    0.19    1.67
  -2  -1 -14    0.78    1.43
   2   1  15    1.46    1.32
   2   1  15    6.11    2.24
   2   1  16    1.02    2.80
   2   1  17   -1.21    1.58
   2   1  18   -2.43    1.49
   2   2 -19   -4.59    1.92
  -2  -2  19    0.80    1.11
   2   2 -18    2.18    2.19
   2   2 -18    0.64    1.60
  -2  -2  18    1.05    1.49
   2   2 -17    1.54    2.37
   2   2 -17    1.10    1.69
  -2  -2  17    0.58    1.64
   2   2 -16   32.90    9.05
   2   2 -16   15.00    4.10
  -2  -2  16   17.37    5.92
   2   2 -15   39.92   10.06
   2   2 -15   31.64    8.08
  -2  -2  15   25.08    4.96
   2   2 -14    1.65    2.11
   2   2 -14   -0.05    1.67
  -2  -2  14    0.66    1.58
   2   2 -13   84.45   15.92
   2   2 -13  148.50   14.21
   2   2 -13  126.18   12.17
  -2  -2  13  126.41   15.87
   2   2 -12   19.18    4.88
   2   2 -12   31.07    5.21
   2   2 -12   24.37    4.14
  -2  -2  12   26.75    3.97
   2   2 -11   58.72    7.68
   2   2 -11   60.01    7.22
   2   2 -11   55.69    6.04
  -2  -2  11   59.13    5.99
   2   2 -10    3.03    2.15
   2   2 -10    0.63    2.04
   2   2 -10    2.62    1.50
  -2  -2  10    3.09    1.50
  -2  -2  10    3.20    1.26
   2   2  -9    3.78    3.48
   2   2  -9    3.78    1.93
   2   2  -9    3.95    1.39
  -2  -2   9    2.73    1.30
  -2  -2   9    4.21    1.55
  -2  -2   9    2.91    2.26
  -2  -2   9    3.06    1.17
   2   2  -8   33.45    4.73
   2   2  -8   32.47    4.03
   2   2  -8   30.52    4.52
  -2  -2   8   29.54    4.53
  -2  -2   8   39.61    3.38
  -2  -2   8   34.26    3.10
  -2  -2   8   29.46    2.63
   2   2  -7   47.56    5.31
   2   2  -7   43.06    4.40
   2   2  -7   38.20    4.58
  -2  -2   7   41.87    5.20
  -2  -2   7   56.84    5.57
  -2  -2   7   49.17    3.60
  -2  -2   7   44.50    2.98
   2   2  -6  176.51   12.90
   2   2  -6  157.98   10.34
   2   2  -6  149.07   10.02
  -2  -2   6  182.94   14.94
  -2  -2   6  192.61   10.00
  -2  -2   6  154.85    7.72
   2   2  -5  213.49   14.96
   2   2  -5  212.80   16.50
   2   2  -5  219.92   11.67
   2   2  -5  181.06   10.77
  -2  -2   5  216.22   16.93
  -2  -2   5  222.29   11.32
  -2  -2   5  203.86    9.12
   2   2  -4  272.17   22.78
   2   2  -4  260.35   15.32
   2   2  -4  290.48   17.41
   2   2  -4  221.28   12.04
  -2  -2   4  294.83   20.70
  -2  -2   4  271.39   15.98
  -2  -2   4  273.36   14.08
  -2  -2   4  278.04   12.96
   2   2  -3   32.24    5.28
   2   2  -3   33.44    2.84
  -2  -2   3   31.44    3.68
  -2  -2   3   41.85    2.49
  -2  -2   3   33.85    2.16
  -2  -2   3   36.79    2.36
  -2  -2   3   32.15    1.43
   2   2  -2   74.01    7.61
   2   2  -2   72.08    6.23
   2   2  -2   75.73    3.70
   2   2  -2   81.39    4.24
  -2  -2   2   76.05    4.06
  -2  -2   2   80.24    3.98
  -2  -2   2   73.66    3.50
   2   2  -1  173.49   10.62
   2   2  -1  186.83   10.21
   2   2  -1  204.40    8.92
   2   2  -1  250.91   11.74
  -2  -2   1  203.42    9.72
  -2  -2   1  217.97   12.79
  -2  -2   1  185.61   11.14
   2   2   0  234.42   13.68
   2   2   0  249.36   13.11
   2   2   0  247.96   12.16
   2   2   0  302.02   15.25
  -2  -2   0  291.46   13.51
  -2  -2   0  256.87   13.22
  -2  -2   0  248.34   13.05
   2   2   1   93.65    5.57
   2   2   1  108.65    7.51
   2   2   1  105.38    5.30
   2   2   1  109.31    6.11
  -2  -2  -1  132.12    6.63
  -2  -2  -1  113.67    7.83
  -2  -2  -1  104.40    5.95
  -2  -2  -1  125.20    6.65
   2   2   2   66.63    5.38
   2   2   2   72.37    3.82
   2   2   2   77.10    4.27
   2   2   2   73.49    4.65
  -2  -2  -2   81.81    3.09
  -2  -2  -2   71.73    4.39
  -2  -2  -2   67.51    4.81
  -2  -2  -2   83.51    5.02
   2   2   3   11.62    1.99
   2   2   3    9.40    1.55
   2   2   3   11.88    1.59
   2   2   3   10.31    1.76
  -2  -2  -3   12.42    1.11
  -2  -2  -3   10.39    1.54
  -2  -2  -3   11.92    2.07
  -2  -2  -3   10.50    1.78
   2   2   4  127.18    6.05
   2   2   4  131.15    6.46
   2   2   4  164.31   11.92
   2   2   4  135.93   11.71
  -2  -2  -4  137.70    9.44
  -2  -2  -4  153.74    9.18
   2   2   5  180.68   13.15
   2   2   5  160.35   11.61
  -2  -2  -5  170.01   12.14
  -2  -2  -5  177.89   15.35
   2   2   6   57.77    4.09
   2   2   6   48.36    4.89
  -2  -2  -6   54.79    3.52
  -2  -2  -6   55.26    5.60
  -2  -2  -6   52.83    5.04
   2   2   7    1.01    1.09
   2   2   7    1.20    1.35
  -2  -2  -7    1.62    0.85
  -2  -2  -7    1.65    1.62
  -2  -2  -7    1.48    1.31
   2   2   8   14.95    2.18
   2   2   8    7.20    2.63
  -2  -2  -8    9.74    2.69
   2   2   9    4.69    1.51
   2   2   9    2.14    1.97
  -2  -2  -9    2.78    1.28
   2   2  10    1.67    1.40
   2   2  10    2.08    1.88
   2   2  11    8.33    3.37
   2   2  11    5.18    2.83
   2   2  12    0.60    1.27
   2   2  12    0.91    1.76
   2   2  13   40.78    4.74
   2   2  13   35.53    6.35
   2   2  14    2.72    1.60
   2   2  14    6.91    3.97
   2   2  15    9.49    5.12
   2   2  16    0.40    1.30
  -2  -2 -16    0.06    0.91
   2   2  17   -3.61    1.80
   2   3 -19    3.83    1.77
  -2  -3  19    6.35    1.84
   2   3 -18    0.03    1.98
   2   3 -18    1.64    1.36
  -2  -3  18    0.11    1.43
   2   3 -17    0.38    2.39
   2   3 -17    1.61    1.66
  -2  -3  17    1.74    2.65
   2   3 -16   28.09   10.22
   2   3 -16   25.34    7.35
  -2  -3  16   27.90    4.64
   2   3 -15   15.10    6.01
   2   3 -15    5.28    4.67
  -2  -3  15    7.26    2.88
   2   3 -14   13.34    3.76
   2   3 -14    7.78    2.93
  -2  -3  14    6.05    4.78
   2   3 -13    7.36    3.59
   2   3 -13   13.22    3.71
   2   3 -13    8.19    2.89
  -2  -3  13   11.08    2.92
   2   3 -12    1.26    1.91
   2   3 -12   -0.23    1.88
   2   3 -12    1.12    1.44
  -2  -3  12    0.53    1.49
   2   3 -11    1.48    3.05
   2   3 -11    2.10    1.70
   2   3 -11    0.29    1.31
  -2  -3  11    0.22    1.37
   2   3 -10    3.80    3.60
   2   3 -10    1.82    1.91
   2   3 -10    2.40    2.32
  -2  -3  10    1.80    2.48
   2   3  -9   49.87    6.39
   2   3  -9   42.66    5.23
   2   3  -9   37.56    5.88
  -2  -3   9   56.74    4.58
  -2  -3   9   48.91    4.63
  -2  -3   9   37.91    5.61
   2   3  -8   12.89    3.43
   2   3  -8   12.66    2.65
   2   3  -8    9.42    2.83
  -2  -3   8   12.79    2.14
  -2  -3   8   15.48    2.08
  -2  -3   8   14.24    2.21
  -2  -3   8    9.82    2.69
   2   3  -7    2.78    1.85
   2   3  -7    1.84    2.22
   2   3  -7    1.56    0.84
  -2  -3   7    2.43    1.14
  -2  -3   7    2.82    1.04
  -2  -3   7    1.05    0.81
   2   3  -6    2.40    3.23
   2   3  -6    3.33    2.36
   2   3  -6    2.30    1.33
   2   3  -6    2.20    0.77
  -2  -3   6    3.36    1.21
  -2  -3   6    5.63    1.70
  -2  -3   6    2.28    0.74
   2   3  -5   62.51    9.22
   2   3  -5   63.51    4.99
   2   3  -5   71.64    4.82
  -2  -3   5   63.87    4.72
  -2  -3   5   71.58    4.13
  -2  -3   5   57.98    3.93
   2   3  -4 1656.42  150.50
   2   3  -4 1506.57  131.78
   2   3  -4 1796.16  157.57
   2   3  -4 1032.56  100.09
  -2  -3   4 1723.10  145.98
  -2  -3   4 1726.59  141.45
  -2  -3   4 1321.63  120.71
   2   3  -3   32.09    3.66
   2   3  -3   29.19    3.89
  -2  -3   3   33.62    2.76
  -2  -3   3   30.58    1.96
  -2  -3   3   27.88    1.71
  -2  -3   3   29.12    1.00
   2   3  -2   24.70    3.00
   2   3  -2   21.23    1.99
   2   3  -2   22.00    1.75
  -2  -3   2   29.53    2.27
  -2  -3   2   25.95    2.65
  -2  -3   2   21.49    1.65
   2   3  -1  158.23    9.87
   2   3  -1  144.76    9.32
   2   3  -1  151.96    6.89
   2   3  -1  166.34    9.54
  -2  -3   1  165.66    9.63
  -2  -3   1  170.29    7.77
  -2  -3   1  158.84    8.20
   2   3   0   12.87    1.97
   2   3   0   10.68    1.23
   2   3   0   11.80    1.13
  -2  -3   0   13.61    1.24
  -2  -3   0   11.22    1.75
  -2  -3   0   12.21    1.60
   2   3   1  113.06    7.20
   2   3   1  127.15    6.33
   2   3   1  136.63   11.00
  -2  -3  -1  141.42    6.10
  -2  -3  -1  103.01    5.93
  -2  -3  -1  113.03    7.16
  -2  -3  -1  147.91    8.64
   2   3   2  192.65   11.35
   2   3   2  202.37   10.98
   2   3   2  206.24   12.87
  -2  -3  -2  224.41   11.57
  -2  -3  -2  175.72   11.99
  -2  -3  -2  239.24   14.36
   2   3   3   13.78    1.66
   2   3   3   14.28    1.71
   2   3   3   14.57    2.30
  -2  -3  -3   15.34    1.12
  -2  -3  -3    8.32    2.34
  -2  -3  -3   13.56    2.44
  -2  -3  -3   15.34    2.33
   2   3   4   60.62    4.18
   2   3   4   55.65    5.17
  -2  -3  -4   57.14    5.47
  -2  -3  -4   62.48    5.28
   2   3   5   13.89    1.89
   2   3   5   12.02    2.44
  -2  -3  -5   11.98    2.78
  -2  -3  -5   10.86    2.35
   2   3   6   30.58    3.12
   2   3   6   25.72    6.01
   2   3   7   21.77    2.80
   2   3   7   17.42    5.57
   2   3   8   49.39    4.96
   2   3   9    4.64    2.65
   2   3   9   -1.22    3.40
   2   3  10    2.04    1.52
   2   3  10    1.64    3.41
   2   3  11    4.49    1.91
   2   3  11    2.14    4.16
   2   3  12    0.93    1.40
   2   3  12    1.97    3.23
   2   3  13   14.13    2.87
   2   3  13   12.59    3.84
   2   3  14    5.53    2.72
   2   3  15    1.52    1.54
  -2  -3 -15    0.05    1.24
   2   3  16   11.71    1.91
  -2  -3 -16   -0.27    1.21
   2   4 -19    6.68    2.11
  -2  -4  19    0.98    1.56
   2   4 -18    3.33    2.14
   2   4 -18    1.28    1.38
  -2  -4  18    1.87    2.76
   2   4 -17    4.05    2.26
   2   4 -17   -0.09    1.53
  -2  -4  17    1.95    1.65
   2   4 -16   12.21    3.88
   2   4 -16    5.25    4.26
  -2  -4  16    9.05    2.96
   2   4 -15   15.63    6.45
   2   4 -15    6.15    2.75
  -2  -4  15   12.20    4.81
   2   4 -14    1.26    1.94
   2   4 -14    2.46    3.20
   2   4 -14    0.55    1.50
  -2  -4  14   -0.20    1.64
   2   4 -13    2.68    2.67
   2   4 -13    4.28    4.07
   2   4 -13    1.63    1.90
  -2  -4  13    4.35    2.14
   2   4 -12    3.01    3.26
   2   4 -12    2.54    2.82
   2   4 -12   -0.20    1.33
  -2  -4  12    0.51    1.52
   2   4 -11   22.73    5.04
   2   4 -11   20.24    4.20
   2   4 -11   15.00    5.11
  -2  -4  11   22.65    5.85
   2   4 -10   12.22    3.78
   2   4 -10   11.41    4.81
   2   4 -10    7.37    3.44
  -2  -4  10   12.86    2.68
   2   4  -9    1.90    2.11
   2   4  -9    3.67    2.59
   2   4  -9    0.20    1.09
  -2  -4   9    2.42    1.43
  -2  -4   9    1.54    1.04
   2   4  -8   23.39    4.70
   2   4  -8   17.69    5.60
  -2  -4   8   22.32    2.63
   2   4  -7  255.47   27.60
   2   4  -7  214.98   16.12
   2   4  -7  252.36   17.47
  -2  -4   7  225.65   17.52
  -2  -4   7  239.64   14.29
   2   4  -6  371.37   28.00
   2   4  -6  335.34   23.24
   2   4  -6  390.79   26.02
  -2  -4   6  349.97   25.14
  -2  -4   6  343.65   20.50
   2   4  -5  158.23   12.56
   2   4  -5  136.45    9.29
   2   4  -5  163.78   14.34
  -2  -4   5  148.63   11.57
  -2  -4   5  160.98    8.39
   2   4  -4   47.90    5.17
   2   4  -4   35.04    4.69
   2   4  -4   47.74    4.07
  -2  -4   4   40.77    3.23
  -2  -4   4   39.13    3.51
   2   4  -3    1.72    1.32
   2   4  -3    0.15    0.68
  -2  -4   3    0.59    0.76
  -2  -4   3    0.35    0.76
   2   4  -2   23.48    3.18
   2   4  -2   17.02    1.28
  -2  -4   2   22.49    1.97
  -2  -4   2   19.27    1.85
   2   4  -1    1.49    1.41
   2   4  -1    1.76    0.64
  -2  -4   1    1.46    0.85
  -2  -4   1    1.95    0.96
   2   4   0   11.58    2.34
   2   4   0   11.07    2.08
   2   4   0   11.62    2.34
  -2  -4   0   13.42    1.45
  -2  -4   0   10.81    1.90
  -2  -4   0   13.80    2.34
   2   4   1   48.92    4.55
   2   4   1   51.90    4.89
   2   4   1   57.62    5.06
  -2  -4  -1   62.10    4.81
  -2  -4  -1   40.58    4.19
  -2  -4  -1   62.01    5.17
   2   4   2    2.58    1.43
   2   4   2    3.59    1.76
   2   4   2    8.69    2.78
  -2  -4  -2    4.21    0.92
  -2  -4  -2    3.65    1.58
  -2  -4  -2    3.51    1.75
   2   4   3    5.66    1.52
   2   4   3    5.75    2.19
   2   4   3    6.17    1.97
  -2  -4  -3    5.75    1.53
  -2  -4  -3    5.55    2.04
  -2  -4  -3    6.42    1.84
   2   4   4    3.05    2.69
   2   4   4   12.98    2.40
   2   4   5   73.03    7.99
   2   4   5   61.16    6.82
   2   4   6    5.51    2.80
   2   4   6    4.04    2.25
   2   4   7   50.31    5.07
   2   4   7   40.17    6.11
   2   4   8   -0.24    1.21
   2   4   8   -0.52    1.55
   2   4   9   22.93    3.54
   2   4   9   16.56    4.49
   2   4  10    6.08    2.14
   2   4  10    3.58    2.81
   2   4  11    0.41    1.35
   2   4  11    1.03    1.80
   2   4  12   -0.79    1.94
   2   4  13   -2.38    2.18
   2   4  14    1.67    2.02
  -2  -4 -14    3.33    1.79
   2   4  15   13.07    2.67
  -2  -4 -15   -0.99    1.24
   2   5 -18   14.54    2.90
   2   5 -18    6.75    1.64
  -2  -5  18   14.73    3.85
   2   5 -17    9.78    2.81
   2   5 -17    2.23    1.85
  -2  -5  17   11.22    2.45
   2   5 -16   24.07    5.03
  -2  -5  16   23.68    4.32
   2   5 -15   18.37    4.28
   2   5 -15   11.51    3.01
  -2  -5  15   13.08    5.89
   2   5 -14    5.83    3.20
   2   5 -14    6.81    3.20
   2   5 -14    3.64    2.27
  -2  -5  14    8.92    2.78
   2   5 -13    6.16    3.45
   2   5 -13    5.08    3.01
  -2  -5  13    6.00    2.67
   2   5 -12   17.95    7.58
   2   5 -12   11.61    6.37
  -2  -5  12   13.91    5.85
   2   5 -11    5.96    3.58
   2   5 -11    7.03    4.73
  -2  -5  11    7.77    2.61
   2   5 -10   26.74    5.79
   2   5 -10   18.76    4.38
  -2  -5  10   27.90    4.18
   2   5  -9   40.11    6.50
   2   5  -9   26.34    4.66
  -2  -5   9   36.71    4.65
   2   5  -8    8.07    5.01
   2   5  -8    3.95    2.00
   2   5  -7   58.04    7.41
   2   5  -7   60.94    5.92
   2   5  -6   48.04    6.46
   2   5  -6   50.69    5.28
   2   5  -5    0.66    1.57
   2   5  -5   -1.79    1.99
   2   5  -4   24.42    4.03
   2   5  -4   18.28    3.62
   2   5  -3   37.95    5.19
  -2  -5   3   39.63    3.32
   2   5  -2    4.25    2.16
  -2  -5   2    4.41    2.09
   2   5  -1   29.10    4.51
   2   5  -1   45.96    7.08
  -2  -5   1   37.85    4.78
   2   5   0   72.98    6.76
   2   5   0   65.46    4.42
   2   5   0   61.78    7.44
  -2  -5   0   90.71    5.38
   2   5   1   91.88    8.09
   2   5   1  100.27    6.43
   2   5   1  101.34    9.09
  -2  -5  -1  109.54    6.53
   2   5   2    0.49    1.32
   2   5   2    1.02    0.95
   2   5   2    1.05    1.51
  -2  -5  -2    1.09    1.31
   2   5   3   20.47    2.56
   2   5   3   19.69    3.79
   2   5   4    2.22    1.37
   2   5   4    3.98    3.25
   2   5   5   97.26    7.71
   2   5   5   86.39   13.89
   2   5   6    4.85    1.86
   2   5   6    2.70    2.44
   2   5   7   68.13    6.58
   2   5   7   54.54    8.04
   2   5   8    7.04    2.35
   2   5   8    7.06    3.05
   2   5   9    3.10    1.89
   2   5   9    2.72    2.42
   2   5  10    2.89    2.47
   2   5  11    6.99    3.21
   2   5  12    3.13    4.29
  -2  -5 -12    6.60    2.71
   2   5  13    1.03    2.99
  -2  -5 -13    2.16    1.75
   2   5  14   -3.15    1.47
  -2  -5 -14    3.58    1.32
  -2  -6  18    2.11    1.40
   2   6 -17    1.20    2.93
  -2  -6  17    5.18    1.90
   2   6 -16    2.57    1.71
  -2  -6  16    1.19    1.80
   2   6 -15    1.69    1.80
  -2  -6  15    1.30    1.83
   2   6 -14   14.87    3.78
  -2  -6  14   14.58    3.93
   2   6 -13   16.89    7.82
  -2  -6  13   16.25    3.94
   2   6 -12   11.96    4.96
  -2  -6  12   18.05    6.04
   2   6 -11   21.87    5.70
  -2  -6  11   20.96    4.14
   2   6 -10   69.64    9.88
  -2  -6  10   63.04    7.15
   2   6  -9    9.70    4.35
  -2  -6   9   11.45    3.00
   2   6  -8    1.84    4.12
   2   6  -7    4.77    3.28
   2   6  -7    6.79    2.45
   2   6  -6    7.29    3.42
   2   6  -6    7.61    2.55
   2   6  -5    2.16    1.95
   2   6  -5   -0.23    1.52
   2   6  -4   63.00    8.14
   2   6  -4   75.54   10.89
   2   6  -3   22.53    4.66
   2   6  -2    9.70    3.29
   2   6  -1   20.30    4.18
   2   6  -1   25.94    4.17
  -2  -6   1   17.62    2.69
   2   6   0   12.41    3.55
   2   6   0   16.68    5.77
   2   6   1   16.65    3.80
   2   6   1   19.69    3.97
   2   6   2    2.88    1.99
   2   6   2    3.13    2.20
   2   6   3    1.90    2.02
   2   6   4    5.20    2.67
   2   6   5    2.75    2.33
   2   6   6    1.38    2.04
   2   6   7   28.04    5.39
   2   6   8    3.64    2.62
   2   6   9    0.92    2.50
  -2  -6  -9    5.08    2.54
   2   6  10    5.69    2.83
  -2  -6 -10    6.35    2.78
   2   6  11    0.71    1.50
  -2  -6 -11    0.03    1.51
   2   6  12    0.66    1.67
  -2  -6 -12    2.03    1.65
   2   6  13   -1.08    2.04
  -2  -6 -13   22.32    3.33
  -2  -7  17    2.26    1.49
  -2  -7  16    1.10    1.44
   2   7 -15    0.79    2.88
  -2  -7  15   22.43    3.01
   2   7 -14    5.15    3.08
  -2  -7  14    7.83    2.60
   2   7 -13    2.13    4.05
  -2  -7  13    1.72    1.99
   2   7 -12    2.96    1.94
  -2  -7  12   -4.27    2.47
   2   7 -11   24.91    5.96
  -2  -7  11   21.69    4.30
  -2  -7  10    0.31    1.56
   2   7  -9   17.82    5.15
  -2  -7   9    9.40    3.22
   2   7  -8    1.58    4.28
   2   7  -7    1.71    2.67
   2   7  -7    1.67    2.10
   2   7  -6    3.94    3.37
   2   7  -6    4.01    2.64
   2   7  -5   80.81   12.91
   2   7  -5  152.05   12.83
   2   7  -4  175.33   22.33
   2   7  -4  554.69   43.46
   2   7  -3  497.05   47.19
   2   7  -2    2.29    2.61
   2   7  -1   -0.25    4.60
   2   7  -1   49.52    6.14
   2   7   0   82.18   10.38
   2   7   0  108.24   11.49
  -2  -7   0   90.25    8.10
   2   7   1    5.88    3.04
   2   7   1   10.03    5.23
  -2  -7  -1    7.90    2.40
   2   7   2   -1.43    3.10
  -2  -7  -2   -0.65    1.51
   2   7   3    2.35    2.30
  -2  -7  -3    2.43    1.97
   2   7   4    0.57    1.70
  -2  -7  -4    0.18    1.49
   2   7   5   10.05    3.38
  -2  -7  -5    9.07    3.20
   2   7   6   -0.49    1.81
  -2  -7  -6    1.63    1.72
   2   7   7    3.20    2.65
  -2  -7  -7    5.53    2.56
   2   7   8    4.85    2.90
  -2  -7  -8    8.08    2.88
   2   7   9    0.83    1.34
  -2  -7  -9   -0.82    1.35
   2   7  10    0.12    1.41
  -2  -7 -10   -0.74    1.39
   2   7  11   -0.85    1.20
  -2  -7 -11    1.57    1.97
   2   8 -15    1.89    1.25
  -2  -8  15   -2.79    2.60
   2   8 -14    1.78    2.29
  -2  -8  14    5.57    2.06
   2   8 -13    1.73    3.12
  -2  -8  13    0.32    1.52
   2   8 -12    4.72    3.05
  -2  -8  12    3.11    3.84
   2   8 -11    0.15    2.68
  -2  -8  11    2.37    1.93
   2   8 -10   11.30    4.34
  -2  -8  10    6.68    3.01
   2   8  -9    0.60    3.03
  -2  -8   9    2.62    2.04
   2   8  -8   -0.11    3.59
   2   8  -7   18.50    6.14
   2   8  -7    2.40    2.99
   2   8  -6    7.89    4.18
   2   8  -5   76.21   11.56
   2   8  -5   94.75   11.00
   2   8  -4    6.84    3.86
   2   8  -3   84.04   11.68
   2   8  -2   55.28    9.21
   2   8  -2   71.18   10.20
   2   8  -1   40.31    6.94
   2   8  -1   34.06    7.97
   2   8   0    9.95    3.80
   2   8   0   12.38    4.28
   2   8   1    8.12    3.25
   2   8   1    8.73    3.47
  -2  -8  -1   10.11    4.17
   2   8   2   -0.39    1.75
  -2  -8  -2    1.63    2.19
   2   8   3    2.38    2.45
  -2  -8  -3    3.39    1.98
  -2  -8  -4   -0.13    1.32
   2   8   5    6.39    4.39
  -2  -8  -5    4.76    2.37
   2   8   6    2.17    3.62
  -2  -8  -6    3.09    2.01
   2   8   7    5.12    3.37
  -2  -8  -7    0.66    3.16
   2   8   8    2.24    2.87
  -2  -8  -8    1.45    3.15
   2   8   9   -2.95    1.66
  -2  -8  -9    6.99    1.82
  -2  -9  14    2.18    1.58
   2   9 -13    3.49    1.97
  -2  -9  13    0.48    1.67
   2   9 -12    5.69    4.58
  -2  -9  12    4.30    2.14
   2   9 -11    1.08    2.44
  -2  -9  11    2.02    2.88
   2   9 -10   -1.85    1.93
  -2  -9  10    0.70    1.36
   2   9  -9    1.07    2.66
  -2  -9   9    1.49    1.81
   2   9  -8    9.16    3.93
  -2  -9   8    5.17    2.76
   2   9  -7   24.65   10.47
   2   9  -6   73.85   14.50
   2   9  -6   51.78    9.74
   2   9  -5   75.67   15.63
   2   9  -5   62.07   11.15
   2   9  -4   25.84    6.31
   2   9  -3    3.97    3.11
   2   9  -2   -0.77    2.10
   2   9  -1    3.41    3.16
   2   9  -1   10.08    4.92
   2   9   0   -0.22    2.73
   2   9   0   -0.65    1.73
   2   9   1    4.47    2.52
   2   9   2   -0.53    1.71
  -2  -9  -2    1.34    1.34
   2   9   3    0.91    1.67
  -2  -9  -3    0.62    1.43
   2   9   4   14.91    2.63
  -2  -9  -4   -0.37    2.27
   2   9   5    0.24    1.39
  -2  -9  -5    0.69    1.34
   2   9   6   -1.69    1.41
  -2  -9  -6    0.36    1.29
   2   9   7    2.01    1.40
  -2  -9  -7    0.20    1.35
   2  10 -11   15.53    3.56
  -2 -10  11   -0.74    1.56
   2  10 -10    7.98    3.06
  -2 -10  10   -0.37    3.30
   2  10  -9    9.79    3.89
  -2 -10   9    9.78    2.63
   2  10  -8    2.14    2.90
  -2 -10   8    3.86    1.98
   2  10  -7    2.22    2.96
  -2 -10   7    3.84    2.08
   2  10  -6    7.49    3.81
   2  10  -5    2.08    2.63
   2  10  -4    1.24    3.76
   2  10  -3   -5.15    5.12
   2  10  -2   -0.85    2.85
   2  10  -2    9.99    2.62
   2  10  -1    2.96    1.91
   2  10  -1    0.69    1.85
   2  10   0    0.54    1.28
   2  10   0    0.16    1.42
   2  10   1    0.85    1.50
   2  10   2    1.91    2.76
   2  10   3   -3.77    3.12
   2  11  -5    1.00    1.71
   2  11  -4    2.22    1.95
   3 -12   1    3.26    2.68
  -3  12  -1    3.74    1.75
  -3  12  -1    1.73    1.35
   3 -12   2   12.35    4.00
  -3  12  -2   11.06    2.90
  -3  12  -2   11.03    2.29
  -3  12  -3   14.38    3.06
  -3  12  -3   15.79    2.62
  -3  12  -4    8.60    2.61
  -3  12  -4   14.62    2.40
  -3  12  -5   18.24    3.83
  -3  12  -5    2.49    3.43
   3 -11  -4   -3.12    1.85
  -3  11   4   -1.54    2.38
  -3  11   4   -0.21    1.23
   3 -11  -3    8.03    2.72
  -3  11   3    1.80    2.96
  -3  11   3    3.91    1.93
   3 -11  -2    2.78    2.01
  -3  11   2    0.51    2.36
  -3  11   2    1.00    1.46
   3 -11  -1    3.33    2.41
  -3  11   1    2.56    2.87
  -3  11   1    2.30    1.76
  -3  11   0    0.60    2.28
   3 -11   1    4.50    3.07
  -3  11  -1    9.08    3.84
  -3  11  -1    5.32    3.87
   3 -11   2   -1.35    2.25
  -3  11  -2   -5.48    3.56
  -3  11  -2   -1.26    2.81
   3 -11   3   -0.57    1.66
  -3  11  -3   -0.15    2.64
  -3  11  -3   -0.43    1.32
   3 -11   4    4.02    3.17
  -3  11  -4    0.92    2.03
  -3  11  -4    2.91    1.77
   3 -11   5    1.67    1.60
  -3  11  -5    1.24    1.65
  -3  11  -5    0.58    1.55
   3 -11   6    4.80    2.16
  -3  11  -6    8.59    2.29
  -3  11  -6    6.06    2.26
   3 -11   7    1.13    1.32
  -3  11  -7    1.98    1.42
  -3  11  -7    2.75    2.53
  -3  11  -8   -0.06    1.00
  -3  11  -8    0.81    1.89
  -3  11  -9    1.17    1.39
  -3  11 -10   -0.66    1.22
   3 -10  -7   13.39    3.89
  -3  10   7   21.12    3.68
   3 -10  -6    1.50    2.67
  -3  10   6    0.15    1.00
  -3  10   6    0.62    1.96
   3 -10  -5    5.06    4.89
  -3  10   5    5.45    1.99
   3 -10  -4   -0.32    3.20
  -3  10   4    0.95    1.36
  -3  10   4   -0.01    2.35
   3 -10  -3   16.46    6.94
  -3  10   3   11.11    3.01
  -3  10   3   11.00    5.06
   3 -10  -2   31.58    9.65
  -3  10   2   22.95    4.51
  -3  10   2   28.26    4.81
   3 -10  -1   42.23   10.49
  -3  10   1   30.37    5.12
  -3  10   1   28.50    5.13
   3 -10   0   19.90    4.78
  -3  10   0   15.47    3.61
  -3  10   0   10.84    3.80
   3 -10   1   19.80    4.85
  -3  10  -1   14.71    3.57
  -3  10  -1   13.28    3.82
   3 -10   2   -1.40    2.05
  -3  10  -2   -0.78    1.49
  -3  10  -2    0.57    1.69
   3 -10   3   -6.41    3.03
  -3  10  -3   -4.54    2.20
  -3  10  -3   -1.68    2.39
   3 -10   4    6.67    3.05
  -3  10  -4    2.29    2.19
  -3  10  -4    9.01    3.82
   3 -10   5    3.61    3.09
  -3  10  -5    2.61    2.71
  -3  10  -5   -2.62    1.53
   3 -10   6    3.58    2.51
  -3  10  -6    4.70    2.37
  -3  10  -6    6.30    2.31
   3 -10   7    1.69    1.70
  -3  10  -7    0.42    1.57
  -3  10  -7    1.82    1.66
   3 -10   8    1.09    1.56
  -3  10  -8    1.97    1.64
  -3  10  -9    9.28    4.40
  -3  10 -10    0.40    1.34
  -3  10 -11    7.22    2.30
  -3  10 -12   -1.09    1.37
  -3  10 -13   14.70    2.97
  -3   9  10   -1.24    1.30
   3  -9  -9    2.48    2.79
  -3   9   9    1.83    1.59
   3  -9  -8   -0.67    3.17
  -3   9   8    1.24    1.17
  -3   9   8    2.88    1.65
   3  -9  -7   -2.26    1.67
  -3   9   7    1.00    1.09
  -3   9   7   -1.10    1.40
   3  -9  -6    1.33    2.01
  -3   9   6    0.71    2.21
  -3   9   6    0.27    1.65
   3  -9  -5   17.52    4.74
  -3   9   5   11.67    5.39
  -3   9   5   13.40    3.74
   3  -9  -4    3.18    2.56
  -3   9   4    3.27    2.54
  -3   9   4   -1.02    2.02
   3  -9  -3   16.11    4.98
  -3   9   3   12.57    5.02
  -3   9   3   14.53    4.06
  -3   9   2    0.92    2.01
  -3   9   2   -0.85    1.58
   3  -9  -1    0.08    4.10
  -3   9   1    2.07    2.55
  -3   9   1    0.77    3.27
   3  -9   0    5.26    5.32
  -3   9   0    3.30    3.76
   3  -9   1   15.67    4.68
  -3   9  -1   12.30    5.57
  -3   9  -1   13.11    3.52
   3  -9   2    0.63    2.58
  -3   9  -2    0.19    1.84
  -3   9  -2    5.15    2.09
   3  -9   3    0.45    2.17
  -3   9  -3    0.40    1.54
  -3   9  -3    1.53    1.76
   3  -9   4    6.53    3.34
  -3   9  -4    4.74    2.37
  -3   9  -4    7.82    2.75
   3  -9   5   17.37    3.72
  -3   9  -5    5.56    2.41
  -3   9  -5    2.28    4.44
   3  -9   6   39.72   10.19
  -3   9  -6   26.66    7.16
  -3   9  -6   55.35    5.75
   3  -9   7    3.08    2.42
  -3   9  -7    2.67    2.06
  -3   9  -7    5.08    2.18
   3  -9   8    2.15    2.18
  -3   9  -8    3.87    2.03
  -3   9  -9   -5.58    3.87
  -3   9 -10    0.81    1.66
  -3   9 -11    3.17    2.02
  -3   9 -12    2.72    1.87
  -3   9 -13   17.25    5.75
  -3   9 -14    2.67    1.90
   3  -8 -11    0.77    0.96
  -3   8  11   -2.24    1.21
   3  -8 -10   -1.34    1.99
  -3   8  10    0.13    0.73
  -3   8  10   -0.46    1.25
   3  -8  -9   -0.68    1.43
  -3   8   9    0.94    1.54
  -3   8   9   -0.58    1.35
   3  -8  -8    3.77    2.38
  -3   8   8    2.21    1.38
  -3   8   8    2.71    3.47
   3  -8  -7    8.49    3.27
  -3   8   7    5.45    1.92
  -3   8   7    0.47    4.51
   3  -8  -6   27.73    5.54
  -3   8   6   18.15    3.43
  -3   8   6   20.93    4.68
   3  -8  -5   -0.30    1.67
  -3   8   5   -0.08    1.05
  -3   8   5    0.31    1.38
   3  -8  -4   11.90    4.22
  -3   8   4    8.73    2.69
  -3   8   4   11.03    3.44
   3  -8  -3   18.93    5.09
  -3   8   3   13.03    3.16
  -3   8   3   15.93    3.96
  -3   8   2   13.61    3.12
  -3   8   2   17.26    3.95
   3  -8  -1    2.11    3.08
  -3   8   1    3.65    1.79
  -3   8   1    2.30    2.32
   3  -8   0    8.75    5.68
  -3   8   0    5.17    2.20
  -3   8   0    7.43    2.77
   3  -8   1   -0.27    3.35
  -3   8  -1    0.45    1.25
  -3   8  -1    1.60    2.59
   3  -8   2    0.18    1.84
  -3   8  -2   -0.20    1.13
  -3   8  -2    0.88    1.38
   3  -8   3    5.28    2.98
  -3   8  -3    0.74    2.88
  -3   8  -3    6.33    2.26
   3  -8   4   -0.13    1.84
  -3   8  -4    0.58    1.24
  -3   8  -4   -1.75    1.46
   3  -8   5    5.65    2.85
  -3   8  -5    3.33    1.86
  -3   8  -5    5.88    3.69
   3  -8   6    7.48    4.71
  -3   8  -6    5.09    1.98
  -3   8  -6    9.72    3.88
   3  -8   7   17.12    4.46
  -3   8  -7   23.80    3.85
   3  -8   8   28.69    5.67
  -3   8  -8   43.05    5.05
   3  -8   9   17.87    6.54
  -3   8  -9   20.57    5.97
  -3   8 -10    0.24    1.47
  -3   8 -11    4.82    2.46
  -3   8 -12   17.45    5.38
  -3   8 -12   43.18    5.05
  -3   8 -13    2.97    1.83
  -3   8 -13    6.86    3.42
  -3   8 -14    1.33    1.32
  -3   8 -14    1.52    1.82
  -3   8 -15   32.20    4.89
  -3   8 -15  101.20    7.48
  -3   8 -16    3.80    2.72
  -3   7  13   -3.35    2.80
  -3   7  12    1.69    2.93
  -3   7  11    0.97    1.79
   3  -7 -10   -0.43    1.47
  -3   7  10    0.41    0.86
  -3   7  10    1.10    1.65
   3  -7  -9    0.26    2.09
  -3   7   9    1.79    1.28
  -3   7   9    2.51    2.14
   3  -7  -8    4.79    2.81
  -3   7   8    4.32    1.76
  -3   7   8    4.33    2.76
   3  -7  -7   23.94    5.09
  -3   7   7   17.50    3.42
  -3   7   7   21.85    4.83
   3  -7  -6    5.61    3.18
  -3   7   6    4.81    2.13
  -3   7   6    6.05    2.92
   3  -7  -5   -0.49    1.63
  -3   7   5    0.89    1.72
  -3   7   5   -0.63    2.35
   3  -7  -4  208.43   21.47
  -3   7   4  184.04   20.53
  -3   7   4  220.64   27.51
   3  -7  -3   11.77    4.24
  -3   7   3   10.66    4.31
  -3   7   3    8.84    5.55
   3  -7  -2  293.61   27.34
  -3   7   2  256.06   25.80
  -3   7   2  283.66   24.07
   3  -7  -1    7.57    3.05
  -3   7   1    5.28    1.89
  -3   7   1    2.41    2.58
   3  -7   0    6.07    3.44
  -3   7   0    5.07    2.07
  -3   7   0   16.96    3.14
   3  -7   1   32.67    8.72
  -3   7  -1   26.02    3.50
  -3   7  -1   30.83    4.65
   3  -7   2   49.70    7.31
  -3   7  -2   42.71    4.68
  -3   7  -2   79.81    9.37
   3  -7   3   44.47    6.77
  -3   7  -3   37.83    4.36
  -3   7  -3   63.72    5.82
   3  -7   4    2.37    2.46
  -3   7  -4    0.27    1.33
  -3   7  -4    9.97    2.05
   3  -7   5    4.67    2.78
  -3   7  -5    2.67    2.78
  -3   7  -5    6.90    2.17
   3  -7   6   13.12    5.02
  -3   7  -6    7.64    1.97
  -3   7  -6   13.82    4.03
   3  -7   7    3.06    2.21
  -3   7  -7    1.14    1.75
  -3   7  -7    3.97    1.78
   3  -7   8    0.44    1.92
  -3   7  -8    1.90    1.63
  -3   7  -8    1.55    1.58
   3  -7   9   10.98    5.57
  -3   7  -9    9.12    4.76
  -3   7  -9   17.05    4.84
   3  -7  10    0.71    1.40
  -3   7 -10   -0.07    1.35
  -3   7 -10    1.03    1.52
  -3   7 -11    0.53    1.67
  -3   7 -11    3.03    1.85
  -3   7 -12   13.35    3.40
  -3   7 -12   21.45    3.70
  -3   7 -13    2.69    1.86
  -3   7 -13    3.26    3.22
  -3   7 -14    5.72    4.15
  -3   7 -14    5.95    2.54
  -3   7 -15   28.37    4.58
  -3   7 -15   36.56    4.94
  -3   7 -16    1.65    1.53
  -3   7 -16    2.37    2.50
  -3   6  14   -5.13    2.32
  -3   6  13    1.00    1.71
  -3   6  12    2.78    2.30
  -3   6  11    0.03    0.87
  -3   6  11   -2.08    1.67
   3  -6 -10    2.33    1.72
  -3   6  10   -0.33    1.11
  -3   6  10    2.97    1.93
   3  -6  -9    0.32    1.98
  -3   6   9    1.68    2.32
  -3   6   9    2.81    2.13
   3  -6  -8    1.94    1.70
  -3   6   8   -0.14    1.18
  -3   6   8   -0.13    1.69
   3  -6  -7    1.29    1.98
  -3   6   7    1.72    1.43
  -3   6   7   -0.04    1.98
   3  -6  -6  114.18   12.87
  -3   6   6  115.66   10.67
  -3   6   6  133.60   13.72
   3  -6  -5    6.57    3.10
  -3   6   5    5.61    2.27
  -3   6   5    6.65    2.97
   3  -6  -4  413.07   38.18
  -3   6   4  393.65   32.06
  -3   6   4  455.56   38.30
   3  -6  -3    2.11    2.16
  -3   6   3    0.76    1.53
  -3   6   3    1.89    1.92
   3  -6  -2  189.93   17.26
  -3   6   2  175.33   13.74
  -3   6   2  197.98   20.16
   3  -6  -1   -0.98    1.82
  -3   6   1   -0.70    1.22
  -3   6   1    4.57    1.58
   3  -6   0   73.29    8.20
  -3   6   0   70.88    6.15
  -3   6   0   65.82    6.86
   3  -6   1   10.70    3.40
   3  -6   1   21.26    5.95
  -3   6  -1   16.96    3.74
  -3   6  -1   12.11    2.42
   3  -6   2    1.70    1.25
   3  -6   2    0.77    1.76
  -3   6  -2   -0.62    1.53
  -3   6  -2    0.52    1.13
   3  -6   3  135.38    9.04
   3  -6   3  182.44   14.83
  -3   6  -3  156.48    9.99
  -3   6  -3  121.88   14.95
  -3   6  -3  180.45   11.66
   3  -6   4    2.21    1.09
   3  -6   4    3.19    2.18
  -3   6  -4    2.02    1.09
   3  -6   5    3.11    1.31
   3  -6   5    7.34    2.43
  -3   6  -5    2.80    1.16
  -3   6  -5    6.20    1.75
   3  -6   6    2.82    3.38
  -3   6  -6    2.80    2.54
   3  -6   7   12.15    3.30
  -3   6  -7    9.08    2.99
  -3   6  -7   13.84    2.54
   3  -6   8    1.10    1.89
  -3   6  -8   -0.24    1.82
  -3   6  -8    2.69    1.45
   3  -6   9   27.73    7.82
  -3   6  -9   25.88    5.21
  -3   6  -9   38.27    6.37
  -3   6 -10   19.53    7.43
  -3   6 -10   26.22    4.04
   3  -6  11    4.39    2.42
  -3   6 -11    4.56    4.98
  -3   6 -11   10.55    2.51
  -3   6 -12   11.55    3.42
  -3   6 -12   14.02    3.18
  -3   6 -13    2.66    2.09
  -3   6 -13    2.83    3.52
  -3   6 -14   14.68    3.59
  -3   6 -14   16.38    3.57
  -3   6 -15    2.99    3.18
  -3   6 -15    0.71    1.60
  -3   6 -16    2.61    2.06
  -3   6 -16    4.16    2.97
  -3   6 -17   -2.83    1.73
  -3   6 -17   -1.91    1.43
  -3   5  15   -1.68    1.68
  -3   5  14   13.94    3.49
  -3   5  13    2.93    2.31
  -3   5  12   -3.50    4.14
  -3   5  11    0.02    1.05
  -3   5  11    3.59    2.85
  -3   5  10    1.00    1.27
  -3   5  10    1.26    3.16
   3  -5  -9   13.16    3.22
  -3   5   9    9.88    2.44
  -3   5   9   12.76    5.62
   3  -5  -8    1.40    1.87
  -3   5   8    1.12    1.43
  -3   5   8    4.98    3.28
   3  -5  -7   13.39    3.24
  -3   5   7    9.43    2.61
  -3   5   7   13.27    5.43
   3  -5  -6    5.65    2.38
  -3   5   6    4.20    1.94
  -3   5   6    3.65    2.49
   3  -5  -5   35.04    6.84
   3  -5  -5   46.92    5.66
  -3   5   5   40.31    4.89
  -3   5   5   40.34    3.60
  -3   5   5   49.61    5.93
   3  -5  -4    2.91    1.51
   3  -5  -4    4.72    2.03
  -3   5   4    0.73    1.52
  -3   5   4    2.32    1.78
  -3   5   4    4.00    1.85
   3  -5  -3   15.89    2.75
   3  -5  -3   21.90    3.56
  -3   5   3   16.47    2.67
  -3   5   3   14.54    2.46
  -3   5   3   18.97    3.26
   3  -5  -2   90.12    7.61
   3  -5  -2  100.62    8.94
   3  -5  -2  100.01    6.81
  -3   5   2   89.74    7.10
  -3   5   2   81.88    6.58
  -3   5   2  106.93    8.61
   3  -5  -1   64.77    8.71
   3  -5  -1   82.90    7.76
   3  -5  -1   79.08    5.66
  -3   5   1   74.99    5.98
  -3   5   1   62.67    8.38
  -3   5   1   82.06    9.00
   3  -5   0    1.21    1.45
   3  -5   0    0.43    2.35
  -3   5   0    0.34    0.91
  -3   5   0    0.13    1.01
   3  -5   1   22.22    2.78
   3  -5   1   30.70    6.60
  -3   5  -1   20.31    2.64
  -3   5  -1   20.38    3.04
  -3   5  -1   30.13    3.48
  -3   5  -1   28.18    3.06
  -3   5  -1   27.71    3.30
   3  -5   2   -0.24    0.82
   3  -5   2    1.85    1.23
  -3   5  -2   -0.48    0.68
  -3   5  -2    1.11    0.98
  -3   5  -2   -0.67    0.99
   3  -5   3  136.05   12.29
   3  -5   3  123.75   10.82
  -3   5  -3  113.89    9.37
  -3   5  -3   97.37    9.38
  -3   5  -3  126.55    9.60
  -3   5  -3  126.23    8.06
   3  -5   4    1.65    1.03
   3  -5   4    0.81    1.83
   3  -5   4    1.57    1.34
  -3   5  -4    0.94    0.83
  -3   5  -4    2.23    1.56
  -3   5  -4    2.25    1.30
   3  -5   5  158.82   10.33
   3  -5   5  146.60   17.75
   3  -5   5  149.95   10.85
  -3   5  -5  129.10   16.94
  -3   5  -5  181.60   14.17
   3  -5   6    2.43    1.26
  -3   5  -6    1.91    1.32
  -3   5  -7   62.95    5.24
   3  -5   8    0.88    1.77
  -3   5  -8    0.14    1.84
  -3   5  -8    1.98    1.27
   3  -5   9    3.88    2.07
  -3   5  -9    4.26    2.56
  -3   5  -9    5.04    2.98
  -3   5 -10    2.18    1.88
  -3   5 -10   -0.08    1.33
  -3   5 -11   -1.84    2.70
  -3   5 -11    0.15    1.20
   3  -5  12    1.28    1.42
  -3   5 -12    2.65    3.87
  -3   5 -12    3.61    2.75
  -3   5 -13    2.41    1.98
  -3   5 -13    0.56    1.79
  -3   5 -14    2.71    2.81
  -3   5 -14    9.38    2.55
  -3   5 -15    1.18    1.70
  -3   5 -15    0.26    2.44
  -3   5 -16   11.07    4.07
  -3   5 -16    1.66    1.79
  -3   5 -17    1.58    1.67
  -3   5 -17    1.03    1.19
  -3   4  16    1.76    1.72
  -3   4  15   -1.42    3.06
  -3   4  14    4.19    4.01
  -3   4  13    1.85    2.22
  -3   4  12   11.64    2.54
  -3   4  12   31.78    4.47
   3  -4 -11    3.07    2.05
  -3   4  11    1.54    1.35
  -3   4  11    1.08    2.09
   3  -4 -10   12.54    3.22
  -3   4  10    7.23    2.21
  -3   4  10   10.64    3.20
   3  -4  -9   12.67    3.50
  -3   4   9   13.80    5.00
  -3   4   9   12.50    3.47
   3  -4  -8    2.99    1.79
   3  -4  -8    1.21    1.59
  -3   4   8   -0.33    2.76
  -3   4   8    1.03    1.73
   3  -4  -7   24.92    4.04
   3  -4  -7   17.62    3.66
  -3   4   7   22.72    3.85
  -3   4   7   23.18    3.91
   3  -4  -6   20.57    3.57
   3  -4  -6   17.77    3.40
  -3   4   6   16.23    3.42
  -3   4   6   23.06    2.55
  -3   4   6   21.11    5.49
   3  -4  -5   19.87    3.25
   3  -4  -5   18.49    3.20
   3  -4  -5   17.05    3.07
  -3   4   5   16.09    3.16
  -3   4   5   17.90    3.47
  -3   4   5   19.21    5.02
   3  -4  -4   -0.39    1.13
   3  -4  -4    0.41    1.17
   3  -4  -4    0.57    0.70
  -3   4   4   -0.09    1.09
  -3   4   4   -0.61    1.52
  -3   4   4    0.08    0.94
  -3   4   4    0.88    1.07
   3  -4  -3  175.96   16.05
   3  -4  -3  170.62   12.94
   3  -4  -3  175.22   10.15
  -3   4   3  170.13   12.64
  -3   4   3  164.55   15.29
  -3   4   3  173.07   11.41
  -3   4   3  182.34   12.54
   3  -4  -2  248.54   17.14
   3  -4  -2  244.40   17.88
  -3   4   2  238.08   16.95
  -3   4   2  244.47   19.49
  -3   4   2  260.12   17.11
   3  -4  -1   47.69    4.71
   3  -4  -1   47.30    7.95
  -3   4   1   45.89    4.76
  -3   4   1   47.23    4.49
  -3   4   1   59.56    4.71
  -3   4   1   45.86    6.59
   3  -4   0   44.40    4.66
   3  -4   0   45.26    8.09
  -3   4   0   47.25    6.67
  -3   4   0   41.23    4.49
  -3   4   0   49.69    4.58
  -3   4   0   62.40    4.46
  -3   4   0   62.76    4.85
   3  -4   1   64.58    7.48
   3  -4   1   69.53    6.72
  -3   4  -1   60.28    6.18
  -3   4  -1   64.25    8.89
  -3   4  -1   70.99    5.66
  -3   4  -1   79.48    5.31
  -3   4  -1   78.55    5.60
   3  -4   2    2.61    1.30
   3  -4   2    3.46    1.76
  -3   4  -2    2.09    0.92
  -3   4  -2    2.58    1.60
  -3   4  -2    3.37    1.39
   3  -4   3    5.82    1.57
   3  -4   3    4.85    2.11
   3  -4   3    4.54    1.38
  -3   4  -3    3.81    1.01
  -3   4  -3    4.84    1.92
  -3   4  -3    3.39    3.12
  -3   4  -3    5.16    1.25
   3  -4   4    1.19    2.23
   3  -4   4    2.21    1.10
  -3   4  -4    0.58    1.15
  -3   4  -4    1.84    2.59
  -3   4  -4    1.52    0.99
   3  -4   5  227.11   14.44
   3  -4   5  204.86   13.39
  -3   4  -5  201.75   16.58
  -3   4  -5  244.44   16.26
   3  -4   6    3.70    1.49
   3  -4   6    3.57    2.15
   3  -4   6    3.81    1.50
  -3   4  -6    4.55    2.25
  -3   4  -6    4.10    1.32
   3  -4   7   94.54    6.95
   3  -4   7   80.07    8.52
   3  -4   7   77.68    9.41
  -3   4  -7   87.71    6.11
   3  -4   8    1.07    1.56
  -3   4  -8    1.69    1.96
   3  -4   9    1.77    1.60
  -3   4  -9    1.54    1.90
  -3   4  -9    1.17    1.30
   3  -4  10   -0.01    1.50
  -3   4 -10    2.37    1.84
  -3   4 -10    0.58    1.24
   3  -4  11    0.87    2.21
  -3   4 -11    0.65    2.18
  -3   4 -11    2.33    2.26
   3  -4  12    2.00    1.63
  -3   4 -12    3.27    4.16
  -3   4 -12    3.97    1.99
   3  -4  13   -0.39    1.37
  -3   4 -13    2.37    2.04
  -3   4 -13    3.54    1.75
  -3   4 -14   11.26    3.33
  -3   4 -14    8.38    2.70
  -3   4 -15    3.37    2.10
  -3   4 -15    1.13    1.73
  -3   4 -16   12.86    4.94
  -3   4 -16    4.47    2.00
  -3   4 -17    3.89    1.98
  -3   4 -17    1.05    2.07
  -3   4 -18   -1.56    1.53
  -3   3  17   -5.04    3.24
   3  -3 -16    1.20    1.39
  -3   3  16    1.65    2.71
   3  -3 -15    1.40    1.60
  -3   3  15    0.07    1.67
   3  -3 -14   -3.33    1.94
  -3   3  14    1.13    1.84
   3  -3 -13    4.44    4.49
  -3   3  13    3.65    2.57
   3  -3 -12   63.02   13.18
  -3   3  12   57.36    8.25
   3  -3 -11    2.91    2.36
  -3   3  11   -2.31    1.11
  -3   3  11    2.76    1.28
   3  -3 -10    4.13    3.68
  -3   3  10    1.42    1.75
  -3   3  10    3.10    1.94
   3  -3  -9    1.45    2.86
  -3   3   9    0.88    1.39
  -3   3   9    0.50    1.50
   3  -3  -8    1.54    2.25
  -3   3   8   -1.06    1.14
  -3   3   8    0.51    1.13
   3  -3  -7   47.49    8.53
   3  -3  -7   35.47    4.20
  -3   3   7   39.59    4.87
  -3   3   7   44.39    4.98
   3  -3  -6   48.83    5.27
   3  -3  -6   35.63    4.14
   3  -3  -6   44.09    2.91
  -3   3   6   39.92    4.87
  -3   3   6   48.89    3.89
  -3   3   6   44.58    4.65
   3  -3  -5    0.52    1.18
   3  -3  -5    0.68    0.95
   3  -3  -5   -0.38    0.93
  -3   3   5   -0.63    1.04
  -3   3   5    0.78    1.49
  -3   3   5    0.10    1.64
  -3   3   5    0.77    0.94
   3  -3  -4   25.29    3.56
   3  -3  -4   21.72    2.96
   3  -3  -4   24.49    2.05
  -3   3   4   18.85    3.16
  -3   3   4   24.28    4.25
  -3   3   4   27.71    3.03
  -3   3   4   22.36    4.33
   3  -3  -3   63.27    5.62
   3  -3  -3   54.73    7.32
  -3   3   3   47.72    5.08
  -3   3   3   56.69    6.49
  -3   3   3   60.18    4.76
  -3   3   3   57.56    4.74
   3  -3  -2  145.95   14.45
   3  -3  -2  128.84   12.97
  -3   3   2  121.41    9.24
  -3   3   2  143.57   10.11
  -3   3   2  153.96    9.25
  -3   3   2  138.58    8.78
   3  -3  -1  505.55   35.37
   3  -3  -1  497.56   35.14
  -3   3   1  447.54   31.41
  -3   3   1  507.94   35.51
  -3   3   1  544.85   35.22
  -3   3   1  548.78   37.78
   3  -3   0   24.12    3.09
   3  -3   0   22.28    3.04
  -3   3   0   15.98    2.37
  -3   3   0   20.31    4.77
  -3   3   0   19.01    3.95
  -3   3   0   21.34    1.96
   3  -3   1   -0.67    1.19
   3  -3   1    1.45    1.24
  -3   3  -1    0.97    0.83
  -3   3  -1    0.41    1.24
  -3   3  -1    0.90    1.22
  -3   3  -1    1.09    0.79
   3  -3   2   -1.00    0.92
  -3   3  -2    0.32    0.68
  -3   3  -2    1.58    1.13
  -3   3  -2    0.48    1.02
  -3   3  -2    0.43    0.96
   3  -3   3   17.00    2.40
   3  -3   3   13.27    1.64
  -3   3  -3   13.91    2.84
  -3   3  -3   14.95    2.57
  -3   3  -3   14.87    1.52
   3  -3   4    9.98    2.12
   3  -3   4   10.84    2.51
   3  -3   4    8.08    1.46
  -3   3  -4    8.01    4.06
  -3   3  -4    8.56    2.29
  -3   3  -4   10.44    2.01
   3  -3   5  129.88   11.10
   3  -3   5  137.87   10.85
   3  -3   5  126.42    7.56
  -3   3  -5  129.67   11.00
  -3   3  -5  126.37   10.15
  -3   3  -5  138.17    7.25
   3  -3   6  123.38    8.18
   3  -3   6  106.22    9.48
  -3   3  -6  115.31   10.49
  -3   3  -6  116.47    6.67
   3  -3   7   14.41    2.23
   3  -3   7   10.75    2.65
   3  -3   7   10.77    1.99
  -3   3  -7   11.66    2.84
   3  -3   8    1.30    1.53
   3  -3   8    1.44    1.17
  -3   3  -8    1.07    1.05
   3  -3   9    4.27    2.27
  -3   3  -9    7.18    2.51
  -3   3  -9    5.98    1.65
   3  -3  10    1.42    2.44
  -3   3 -10    0.06    1.71
  -3   3 -10    1.25    2.05
   3  -3  11    5.09    1.96
  -3   3 -11    6.07    2.82
  -3   3 -11    4.83    2.05
   3  -3  12    1.63    1.51
   3  -3  12    1.43    2.52
  -3   3 -12    6.03    3.56
  -3   3 -12    1.03    1.63
   3  -3  13    9.83    4.35
   3  -3  13    7.25    4.58
  -3   3 -13   21.68    3.99
  -3   3 -13   12.21    4.88
   3  -3  14   -0.48    0.90
   3  -3  14   -0.04    1.20
  -3   3 -14    2.47    1.58
  -3   3 -14    0.39    1.29
   3  -3  15    0.96    1.42
  -3   3 -15    2.26    1.98
   3  -3  16    6.76    2.18
  -3   3 -16   26.11    5.83
   3  -3  17   -0.03    1.74
  -3   3 -17    3.08    1.80
  -3   3 -18   -0.86    1.37
   3  -2 -17    0.65    1.39
  -3   2  17    0.92    1.37
   3  -2 -16    2.05    1.86
  -3   2  16    0.59    1.70
   3  -2 -15   24.38    7.43
  -3   2  15   16.04    4.15
   3  -2 -14   37.23    6.34
  -3   2  14   25.33    5.36
   3  -2 -13   10.62    3.57
  -3   2  13    4.53    2.14
  -3   2  13    7.26    2.91
   3  -2 -12    0.25    1.76
  -3   2  12    0.44    1.15
  -3   2  12   -0.43    1.37
   3  -2 -11    7.09    2.90
  -3   2  11    3.29    1.99
   3  -2 -10    1.23    2.06
  -3   2  10    1.31    1.48
   3  -2  -9    7.18    3.05
   3  -2  -8    2.38    1.76
  -3   2   8    0.14    1.28
   3  -2  -7    0.93    1.68
   3  -2  -7   -1.46    1.62
  -3   2   7    2.42    1.12
  -3   2   7    0.14    1.13
   3  -2  -6  116.46   10.56
   3  -2  -6  112.94   13.31
   3  -2  -6   75.03    8.55
  -3   2   6  100.58    9.81
  -3   2   6  117.24   10.04
  -3   2   6  101.39    7.60
   3  -2  -5   31.10    4.55
   3  -2  -5   34.88    6.42
   3  -2  -5   24.93    2.79
  -3   2   5   30.47    6.73
  -3   2   5   37.13    3.63
  -3   2   5   24.63    2.88
   3  -2  -4    2.88    1.31
   3  -2  -4    0.38    1.26
   3  -2  -4    0.64    0.84
  -3   2   4    0.00    2.29
  -3   2   4    1.23    1.06
  -3   2   4   -0.91    0.75
   3  -2  -3  376.32   28.07
   3  -2  -3  367.64   26.12
   3  -2  -3  358.58   23.21
  -3   2   3  391.41   29.75
  -3   2   3  423.86   24.20
  -3   2   3  361.61   25.14
   3  -2  -2   88.38    7.84
   3  -2  -2   92.82    7.51
   3  -2  -2   85.97    6.22
  -3   2   2   93.89    7.09
  -3   2   2   92.70    5.77
  -3   2   2   87.11    5.22
   3  -2  -1   94.23    7.81
   3  -2  -1  101.89   10.62
   3  -2  -1   99.04    6.92
  -3   2   1  101.07    7.54
  -3   2   1  104.07    9.39
  -3   2   1   98.92    7.05
   3  -2   0  159.59   11.04
   3  -2   0  149.11   10.25
  -3   2   0  160.85   15.13
  -3   2   0  163.08    9.93
  -3   2   0  149.40    7.34
   3  -2   1   -1.03    1.17
  -3   2  -1    1.12    1.20
  -3   2  -1    1.01    0.96
   3  -2   2  227.49   17.79
   3  -2   2  212.02   14.51
  -3   2  -2  223.75   15.50
  -3   2  -2  215.22   18.38
  -3   2  -2  231.85   10.55
   3  -2   3   47.70    4.23
   3  -2   3   44.86    4.51
   3  -2   3   41.74    2.46
  -3   2  -3   42.51    7.45
  -3   2  -3   46.54    7.27
  -3   2  -3   43.73    3.16
   3  -2   4    0.78    1.19
   3  -2   4    0.76    0.63
  -3   2  -4    0.68    0.66
  -3   2  -4    1.79    2.28
  -3   2  -4    0.84    1.39
  -3   2  -4    0.79    0.55
   3  -2   5   36.99    4.94
   3  -2   5   35.84    6.43
   3  -2   5   33.86    3.72
  -3   2  -5   38.03    4.84
  -3   2  -5   36.94    4.74
  -3   2  -5   39.18    3.30
   3  -2   6    9.96    1.79
   3  -2   6    8.94    2.33
   3  -2   6    2.96    1.93
   3  -2   6    6.99    1.36
  -3   2  -6    8.35    2.66
  -3   2  -6    9.29    2.66
  -3   2  -6    8.98    1.24
   3  -2   7   -0.03    1.06
   3  -2   7    1.79    1.33
   3  -2   7   -0.07    1.29
   3  -2   7    0.87    0.78
   3  -2   7    0.60    0.83
  -3   2  -7    0.58    0.75
   3  -2   8   19.16    3.01
   3  -2   8    6.93    3.20
   3  -2   8   10.32    2.02
   3  -2   8   11.84    2.07
  -3   2  -8   14.08    2.90
   3  -2   9    1.78    2.29
   3  -2   9    1.14    2.05
  -3   2  -9    1.77    1.71
   3  -2  10    1.15    1.57
   3  -2  10    0.84    2.32
  -3   2 -10    3.63    1.95
   3  -2  11    1.00    1.57
   3  -2  11    1.32    2.48
  -3   2 -11    3.15    2.01
   3  -2  12   11.85    2.61
   3  -2  12    6.58    2.60
  -3   2 -12   11.71    5.45
   3  -2  13    1.53    2.12
   3  -2  13    0.49    1.63
  -3   2 -13    2.58    1.95
   3  -2  14    1.76    1.25
   3  -2  14    0.96    1.64
  -3   2 -14    2.39    1.98
   3  -2  15    2.79    1.39
   3  -2  15    3.22    1.92
  -3   2 -15    9.93    2.40
   3  -2  16    1.47    1.34
  -3   2 -16    1.00    1.81
   3  -2  17   -0.03    1.45
  -3   2 -17    0.39    1.23
   3  -1 -18   -0.08    1.24
  -3   1  18    0.47    1.02
   3  -1 -17    3.96    3.62
  -3   1  17    2.30    1.77
   3  -1 -16    3.18    3.81
  -3   1  16    1.52    1.83
   3  -1 -15    4.86    3.03
  -3   1  15    3.03    2.28
   3  -1 -14    2.47    2.85
   3  -1 -13    0.81    2.25
  -3   1  13    0.85    1.37
   3  -1 -12   23.77    5.86
   3  -1 -11    1.53    2.39
   3  -1 -10    0.73    1.92
   3  -1 -10    0.53    2.03
   3  -1 -10    1.38    1.48
   3  -1  -9   10.13    3.13
   3  -1  -9   10.27    3.18
   3  -1  -9    5.73    2.22
   3  -1  -8   33.34    5.58
   3  -1  -8   39.60    5.53
   3  -1  -7    0.49    1.68
   3  -1  -7    0.60    1.67
  -3   1   7    1.37    1.64
  -3   1   7    1.22    1.17
   3  -1  -6    3.25    1.99
   3  -1  -6    3.28    1.95
  -3   1   6    3.77    1.96
  -3   1   6    5.70    2.21
  -3   1   6    2.12    0.97
   3  -1  -5    8.52    4.15
   3  -1  -5   11.69    4.13
   3  -1  -5    6.44    2.08
  -3   1   5   10.83    2.54
  -3   1   5   13.12    2.14
  -3   1   5    7.61    1.40
  -3   1   5    8.57    1.20
   3  -1  -4   19.50    5.53
   3  -1  -4   24.29    5.59
   3  -1  -4   16.24    3.11
  -3   1   4   21.59    3.47
  -3   1   4   27.51    3.00
   3  -1  -3  213.86   20.39
   3  -1  -3  230.79   15.38
   3  -1  -3  183.18   13.61
  -3   1   3  218.12   15.45
  -3   1   3  233.86   17.87
  -3   1   3  231.35   11.82
  -3   1   3  214.91   12.54
   3  -1  -2    1.25    2.32
   3  -1  -2    1.01    1.59
  -3   1   2    3.51    1.49
  -3   1   2    2.17    0.94
  -3   1   2    1.91    0.60
   3  -1  -1  322.33   22.66
   3  -1  -1  377.89   29.66
   3  -1  -1  310.62   19.81
  -3   1   1  347.40   22.46
  -3   1   1  358.58   21.11
   3  -1   0   12.90    2.09
   3  -1   0   14.16    2.51
   3  -1   0   13.26    2.02
  -3   1   0   16.67    4.10
  -3   1   0   11.69    1.21
   3  -1   1   59.31    4.98
   3  -1   1   77.57    6.30
   3  -1   1   79.61    5.72
  -3   1  -1   80.92    6.60
  -3   1  -1   85.12    6.02
  -3   1  -1   74.14    3.46
   3  -1   2  251.71   20.20
   3  -1   2  218.32   14.07
  -3   1  -2  208.18   15.01
  -3   1  -2  220.86   14.96
  -3   1  -2  204.28    8.31
   3  -1   3  247.34   15.70
   3  -1   3  223.49   18.81
  -3   1  -3  239.21   17.15
  -3   1  -3  242.87   16.62
  -3   1  -3  229.45   11.41
   3  -1   4    0.10    0.96
   3  -1   4    0.01    0.98
   3  -1   4   -0.04    0.76
  -3   1  -4    0.77    1.12
  -3   1  -4    0.06    0.45
   3  -1   5   56.65    6.42
   3  -1   5   62.32    5.64
  -3   1  -5   59.44    6.17
   3  -1   6  263.18   16.96
   3  -1   6  277.25   20.00
  -3   1  -6  242.64   19.78
   3  -1   7   16.72    2.31
   3  -1   7   17.24    4.81
   3  -1   7    7.22    1.95
  -3   1  -7   10.57    2.00
   3  -1   8   52.09    5.21
   3  -1   8   31.87    4.18
   3  -1   9   -0.57    1.20
   3  -1   9    0.73    1.09
  -3   1  -9    0.58    1.27
   3  -1  10   50.50    5.33
   3  -1  10   23.41    4.70
  -3   1 -10   49.12    5.63
   3  -1  11   47.15    7.85
   3  -1  11   24.76    4.79
  -3   1 -11   45.61    5.76
   3  -1  12    0.94    2.18
   3  -1  12    0.36    1.60
  -3   1 -12    3.95    2.93
   3  -1  13    3.74    1.65
   3  -1  13    2.47    2.05
  -3   1 -13    3.88    2.19
   3  -1  14   -0.39    1.13
   3  -1  14   -1.37    1.48
  -3   1 -14   -0.78    1.54
   3  -1  15    0.04    1.65
   3  -1  15    0.90    1.39
  -3   1 -15    1.94    2.82
   3  -1  16   -0.08    0.72
   3  -1  16   -1.25    1.84
  -3   1 -16   -0.55    1.31
   3  -1  17   -0.42    0.89
  -3   1 -17    0.95    1.01
   3   0 -18   12.55    2.84
  -3   0  18   -1.39    1.11
   3   0 -17    4.74    4.67
  -3   0  17    4.43    1.97
   3   0 -16    7.95    3.19
  -3   0  16    3.14    2.20
   3   0 -15    7.24    3.97
   3   0 -14    0.92    2.38
  -3   0  14    0.87    1.33
   3   0 -13   10.44    3.94
   3   0 -13    5.10    2.76
   3   0 -12  132.41   15.32
   3   0 -12  166.41   16.21
   3   0 -12  112.24   12.27
   3   0 -11   37.81    6.60
   3   0 -11   38.56    6.54
   3   0 -11   23.02    4.52
   3   0 -10   13.49    3.72
   3   0 -10   15.52    4.03
   3   0 -10    8.32    2.60
   3   0  -9    7.24    4.63
   3   0  -9    8.62    3.05
   3   0  -9    4.77    1.86
   3   0  -8    4.30    3.76
   3   0  -8    3.33    2.18
   3   0  -8    2.39    1.25
  -3   0   8    1.94    1.01
   3   0  -7   27.70    4.70
   3   0  -7   29.84    4.32
   3   0  -7   16.07    2.44
  -3   0   7   23.82    3.50
  -3   0   7   34.09    3.13
  -3   0   7   22.61    2.16
   3   0  -6    3.64    2.12
   3   0  -6    3.20    1.93
  -3   0   6    3.17    2.63
  -3   0   6    4.55    2.13
  -3   0   6    1.66    1.23
   3   0  -5    3.65    1.68
   3   0  -5    1.60    1.54
  -3   0   5    3.47    2.54
  -3   0   5    1.75    1.29
  -3   0   5    0.52    0.90
  -3   0   5    1.04    0.88
   3   0  -4    7.52    2.17
   3   0  -4    8.33    3.19
  -3   0   4    6.50    3.20
  -3   0   4    7.47    1.69
  -3   0   4    5.04    0.75
  -3   0   4    5.93    0.67
  -3   0   4    5.34    1.10
  -3   0   4    3.71    0.76
  -3   0   4    2.96    1.05
   3   0  -3   20.15    3.46
   3   0  -3   24.61    3.28
   3   0  -3   16.36    2.72
  -3   0   3   23.30    2.71
  -3   0   3   19.89    2.58
  -3   0   3   21.41    1.21
   3   0  -2   12.63    2.63
   3   0  -2   14.43    2.53
   3   0  -2   11.86    0.86
  -3   0   2   16.66    2.45
  -3   0   2   12.94    1.47
   3   0  -1   92.91    7.53
   3   0  -1  108.32   11.21
   3   0  -1   87.99    7.26
   3   0  -1   84.85    4.75
  -3   0   1   79.17    7.90
  -3   0   1  104.88    7.21
  -3   0   1  108.32    8.71
  -3   0   1  106.19    4.23
   3   0   0   14.87    2.63
   3   0   0   20.21    2.77
   3   0   0   17.07    2.02
   3   0   0   19.42    1.80
  -3   0   0   15.52    1.95
  -3   0   0   18.36    2.76
  -3   0   0   18.14    2.35
  -3   0   0   17.29    1.15
   3   0   1    0.58    0.96
   3   0   1   -0.53    1.22
   3   0   1    0.76    0.93
   3   0   1    0.69    0.49
  -3   0  -1    0.54    0.72
  -3   0  -1    0.12    1.31
  -3   0  -1    1.57    1.10
  -3   0  -1    1.02    0.47
   3   0   2  680.60   52.01
   3   0   2  704.79   48.04
  -3   0  -2  519.14   41.32
  -3   0  -2  730.32   52.37
  -3   0  -2  709.92   55.81
  -3   0  -2  537.61   40.72
   3   0   3   17.84    2.47
   3   0   3   18.21    2.49
   3   0   3   12.82    1.52
  -3   0  -3   15.31    2.91
  -3   0  -3   18.51    4.57
  -3   0  -3   13.41    1.50
   3   0   4  166.02   10.72
   3   0   4  145.57   10.56
  -3   0  -4  132.16   14.25
  -3   0  -4  135.81   15.56
   3   0   5   17.33    2.30
   3   0   5   18.04    3.93
   3   0   5   11.94    3.10
  -3   0  -5   19.76    3.42
  -3   0  -5   13.33    2.01
   3   0   6  983.75   72.18
   3   0   6  902.75   70.66
   3   0   6  672.77   54.24
  -3   0  -6  903.75   76.67
  -3   0  -6  694.92   58.98
   3   0   7    1.86    1.28
   3   0   7    2.35    1.60
   3   0   7    0.82    1.31
  -3   0  -7    1.69    1.25
   3   0   8  559.21   40.74
   3   0   8  343.41   29.26
   3   0   9    1.30    1.43
   3   0   9   -0.67    1.31
  -3   0  -9    0.99    1.33
   3   0  10    1.47    2.52
   3   0  10    0.53    1.48
  -3   0 -10    1.03    1.47
   3   0  11    1.74    1.43
   3   0  11    0.95    1.69
   3   0  12   -0.38    1.03
   3   0  12    0.69    1.27
  -3   0 -12    0.20    1.16
   3   0  13   -1.22    1.14
   3   0  13    0.78    1.43
  -3   0 -13   -0.15    1.30
   3   0  14    0.86    1.44
   3   0  14   -0.57    1.89
  -3   0 -14   -0.79    1.64
   3   0  15    0.09    0.91
   3   0  15    1.15    2.03
  -3   0 -15    0.28    1.22
   3   0  16    0.51    0.73
   3   0  16    0.55    1.13
  -3   0 -16   -0.03    1.03
   3   0  17   -1.77    1.18
   3   1 -18   -2.69    2.40
  -3  -1  18    0.37    0.83
   3   1 -17    4.72    2.41
  -3  -1  17    0.68    1.49
   3   1 -16    0.66    2.22
   3   1 -15    8.41    3.10
   3   1 -15    0.53    1.94
   3   1 -14   11.48    2.84
   3   1 -14   -0.31    3.35
   3   1 -14    1.00    2.23
   3   1 -13   27.29    5.94
   3   1 -13   46.62    6.90
   3   1 -13   20.72    4.53
   3   1 -12   85.89   11.44
   3   1 -12  110.79   12.20
   3   1 -12   61.76    8.08
   3   1 -11  459.03   48.18
   3   1 -11  462.69   40.40
   3   1 -11  303.41   26.81
   3   1 -10    0.10    3.13
   3   1 -10   -1.32    1.85
   3   1 -10    1.32    1.10
  -3  -1  10    0.13    0.99
   3   1  -9   -0.48    2.00
   3   1  -9    0.40    1.82
   3   1  -9    1.68    1.04
  -3  -1   9    0.41    0.97
  -3  -1   9    0.63    1.44
   3   1  -8   47.55    6.45
   3   1  -8   52.09    5.77
  -3  -1   8   36.85    3.37
  -3  -1   8   31.95    4.22
   3   1  -7   -1.01    1.53
   3   1  -7    1.66    1.35
  -3  -1   7   -0.01    1.15
  -3  -1   7    0.27    0.95
  -3  -1   7    0.06    1.09
   3   1  -6   36.30    5.35
   3   1  -6   37.87    4.66
  -3  -1   6   35.47    4.08
  -3  -1   6   39.84    3.46
  -3  -1   6   33.75    2.52
   3   1  -5   37.22    5.05
   3   1  -5   34.71    6.91
  -3  -1   5   32.51    3.91
  -3  -1   5   46.12    6.07
  -3  -1   5   36.29    2.42
   3   1  -4    0.96    2.36
   3   1  -4    2.18    2.05
   3   1  -4    0.17    0.61
  -3  -1   4   -0.07    1.08
  -3  -1   4    2.18    1.08
  -3  -1   4    0.11    0.98
   3   1  -3  159.80   17.74
   3   1  -3  164.85   11.77
   3   1  -3  160.88    8.08
  -3  -1   3  163.40   11.05
  -3  -1   3  177.51   10.87
  -3  -1   3  181.98    8.86
   3   1  -2  419.65   36.61
   3   1  -2  428.56   29.18
   3   1  -2  314.71   24.78
   3   1  -2  437.10   26.64
  -3  -1   2  424.55   27.89
  -3  -1   2  510.63   36.89
  -3  -1   2  362.28   24.80
  -3  -1   2  479.47   28.43
   3   1  -1   31.62    6.07
   3   1  -1   35.95    5.74
   3   1  -1   27.92    3.83
  -3  -1   1   35.64    3.12
  -3  -1   1   41.21    3.74
  -3  -1   1   31.46    2.90
   3   1   0   59.85    7.87
   3   1   0   70.51    5.53
   3   1   0   63.81    6.41
   3   1   0   67.01    5.59
  -3  -1   0   70.72    6.49
  -3  -1   0   72.36    5.43
  -3  -1   0   72.27    7.12
  -3  -1   0   65.09    4.03
   3   1   1   51.96    4.55
   3   1   1   63.41    5.06
   3   1   1   47.23    5.11
   3   1   1   53.82    3.52
  -3  -1  -1   52.24    4.31
  -3  -1  -1   58.14    6.78
  -3  -1  -1   58.34    6.88
  -3  -1  -1   52.22    4.66
   3   1   2    8.85    1.69
   3   1   2   11.26    1.79
   3   1   2   10.05    1.58
   3   1   2   11.25    2.30
  -3  -1  -2    9.37    1.09
  -3  -1  -2   11.43    2.10
  -3  -1  -2   12.18    2.19
  -3  -1  -2    8.05    1.34
   3   1   3    1.29    1.11
   3   1   3    1.89    1.05
   3   1   3    1.51    0.94
  -3  -1  -3    2.29    1.32
  -3  -1  -3    0.63    1.49
  -3  -1  -3    2.02    1.46
   3   1   4   39.22    5.64
   3   1   4   36.87    3.50
   3   1   4   30.21    3.27
  -3  -1  -4   35.97    4.17
  -3  -1  -4   36.75    4.58
  -3  -1  -4   32.09    4.73
   3   1   5    0.84    0.86
   3   1   5    0.13    1.11
   3   1   5    1.19    1.00
  -3  -1  -5   -1.41    1.53
  -3  -1  -5    0.72    1.03
   3   1   6  156.85    9.87
   3   1   6  184.19   12.50
   3   1   6  125.03   13.78
  -3  -1  -6  135.33   10.46
   3   1   7   12.15    2.75
   3   1   7    6.99    4.03
   3   1   8  167.86   17.26
   3   1   8  103.17   14.16
  -3  -1  -8  129.81   10.07
   3   1   9   13.95    2.70
   3   1   9   10.64    4.75
  -3  -1  -9   12.62    2.55
   3   1  10    1.93    1.24
   3   1  10    0.63    2.36
   3   1  11    6.86    2.09
   3   1  11    5.87    3.95
  -3  -1 -11    4.71    1.98
   3   1  12    2.41    1.72
   3   1  12    0.19    3.43
  -3  -1 -12    4.31    1.67
   3   1  13   22.56    4.24
   3   1  13    1.88    2.90
   3   1  14    2.32    1.37
   3   1  14    0.60    1.71
   3   1  15    1.19    1.10
   3   1  15    1.34    1.50
   3   1  16   -0.53    1.16
   3   2 -18   -6.85    3.67
  -3  -2  18    2.48    0.97
   3   2 -17    3.96    2.08
  -3  -2  17   -0.09    1.07
   3   2 -16    1.22    2.33
  -3  -2  16    1.04    2.24
   3   2 -15    0.97    2.41
   3   2 -15   -0.09    1.46
  -3  -2  15   -2.12    1.37
   3   2 -14    7.54    3.64
   3   2 -14   24.62    4.49
   3   2 -14    8.34    2.77
  -3  -2  14    8.71    2.67
   3   2 -13   61.66    9.65
   3   2 -13   97.16   10.72
  -3  -2  13   58.42    6.82
   3   2 -12    0.92    5.29
   3   2 -12    7.88    3.25
  -3  -2  12    1.86    3.17
   3   2 -11  123.14   16.08
   3   2 -11  115.44   13.88
   3   2 -10   45.41    7.33
   3   2 -10   42.91    6.51
  -3  -2  10   33.79    4.26
   3   2  -9  127.45   13.47
   3   2  -9  115.27   11.31
  -3  -2   9   91.13   10.77
   3   2  -8    0.26    1.90
   3   2  -8   -0.10    1.62
  -3  -2   8    0.80    0.96
   3   2  -7   45.34   10.06
   3   2  -7   44.72    5.36
  -3  -2   7   39.95    3.50
   3   2  -6    1.41    3.42
   3   2  -6    1.99    1.72
  -3  -2   6    1.32    2.11
  -3  -2   6    2.21    1.19
   3   2  -5    8.39    2.81
   3   2  -5    7.65    3.65
   3   2  -5    6.90    1.53
  -3  -2   5    6.56    2.82
  -3  -2   5    7.64    1.61
   3   2  -4   95.50    9.48
   3   2  -4   94.76    7.77
   3   2  -4   98.57    6.02
  -3  -2   4   87.81    9.07
  -3  -2   4  113.08   10.28
  -3  -2   4   99.00    6.18
   3   2  -3  136.07   12.15
   3   2  -3  139.03   10.38
  -3  -2   3  135.19    9.08
  -3  -2   3  159.05    9.99
   3   2  -2  318.03   26.65
   3   2  -2  372.40   31.90
   3   2  -2  466.68   27.86
  -3  -2   2  353.60   23.23
  -3  -2   2  372.44   25.07
  -3  -2   2  496.88   31.73
   3   2  -1  138.83   11.33
   3   2  -1  151.97   10.25
   3   2  -1  133.64    7.97
  -3  -2   1  159.94    9.24
  -3  -2   1  170.91   13.08
  -3  -2   1  147.53   12.24
  -3  -2   1  183.37   10.05
   3   2   0   17.08    2.88
   3   2   0   16.98    2.56
   3   2   0   15.52    1.83
   3   2   0   18.70    2.14
  -3  -2   0   22.63    1.97
  -3  -2   0   19.50    2.46
  -3  -2   0   19.25    2.52
   3   2   1    6.56    1.90
   3   2   1    7.15    2.46
   3   2   1    7.40    1.43
   3   2   1    8.59    1.61
  -3  -2  -1    8.46    1.94
  -3  -2  -1    8.11    1.75
  -3  -2  -1    9.09    1.94
  -3  -2  -1    9.87    2.55
   3   2   2    8.52    2.95
   3   2   2   10.30    1.71
   3   2   2   12.53    1.73
   3   2   2   10.89    2.90
  -3  -2  -2    9.09    1.05
  -3  -2  -2    9.94    1.91
  -3  -2  -2    9.85    2.33
  -3  -2  -2   11.34    1.73
   3   2   3  115.03   10.98
   3   2   3  137.38    8.93
   3   2   3  123.11   11.50
  -3  -2  -3  121.23   10.18
  -3  -2  -3  133.56    8.74
   3   2   4   14.34    1.79
   3   2   4   20.53    4.01
   3   2   4   17.60    2.63
  -3  -2  -4   18.53    3.46
  -3  -2  -4   19.27    4.01
   3   2   5   31.29    4.34
   3   2   5   12.67    2.87
   3   2   6    1.11    1.98
   3   2   6    1.24    1.41
   3   2   7   37.04    4.10
   3   2   7   25.35    4.48
   3   2   8    2.85    1.71
   3   2   8    2.64    1.97
   3   2   9   14.30    2.81
   3   2   9    6.73    3.16
   3   2  10    0.35    1.21
   3   2  10   -0.07    1.42
   3   2  11    0.84    2.59
   3   2  11    1.83    1.91
   3   2  12   -1.89    2.53
   3   2  12   -0.97    1.80
   3   2  13    1.32    1.30
   3   2  13    0.09    1.60
   3   2  14    0.75    1.09
   3   2  14    0.23    1.40
   3   2  15    2.07    1.58
   3   3 -18   -3.93    4.00
   3   3 -17    1.39    2.41
  -3  -3  17   -0.19    0.86
   3   3 -16   16.97    3.82
  -3  -3  16    6.72    2.26
   3   3 -15    4.46    2.89
   3   3 -15   15.33    3.67
  -3  -3  15    5.57    2.29
   3   3 -14   73.00   10.82
   3   3 -14  126.27   12.68
  -3  -3  14   80.92    8.70
   3   3 -13   84.32   17.84
   3   3 -13   87.59   11.47
  -3  -3  13   70.71   11.65
   3   3 -12   19.77    5.53
   3   3 -12   20.40    5.03
  -3  -3  12   16.38    3.50
   3   3 -11   15.80    4.96
   3   3 -11   14.91    4.23
  -3  -3  11   11.32    2.99
   3   3 -10   11.52    4.32
   3   3 -10    9.58    3.49
  -3  -3  10    6.53    3.94
   3   3  -9   -1.47    4.10
   3   3  -9    2.43    2.02
  -3  -3   9    1.58    1.37
   3   3  -8    2.72    3.74
   3   3  -8    0.79    1.83
  -3  -3   8    1.24    1.25
   3   3  -7   81.96   10.26
   3   3  -7   76.47    8.22
   3   3  -6   55.75    7.46
   3   3  -6   51.83    8.74
   3   3  -6   51.27    4.89
  -3  -3   6   59.03    4.55
   3   3  -5    6.32    2.78
   3   3  -5    5.04    2.03
   3   3  -5    5.44    1.67
  -3  -3   5    5.14    1.41
   3   3  -4  134.63   13.07
   3   3  -4  130.37   10.57
   3   3  -4  158.25   13.15
  -3  -3   4  150.39   10.26
  -3  -3   4  137.21    8.61
   3   3  -3   55.87    6.92
   3   3  -3   46.36    7.84
  -3  -3   3   63.40    5.06
  -3  -3   3   63.70    6.96
   3   3  -2  192.47   15.93
   3   3  -2  177.16   12.51
  -3  -3   2  236.45   13.66
  -3  -3   2  171.18   12.23
   3   3  -1   69.48    6.66
   3   3  -1   53.21    4.96
  -3  -3   1   73.93    5.91
  -3  -3   1   65.47    4.86
  -3  -3   1   63.69    5.12
   3   3   0   22.40    3.40
   3   3   0   15.64    3.39
   3   3   0   18.61    1.93
   3   3   0   24.88    2.85
  -3  -3   0   25.43    2.03
  -3  -3   0   18.12    2.35
  -3  -3   0   22.00    2.92
   3   3   1   17.42    3.24
   3   3   1   20.75    2.12
   3   3   1   23.54    3.07
  -3  -3  -1   24.34    1.92
  -3  -3  -1   21.13    4.03
  -3  -3  -1   23.99    3.20
  -3  -3  -1   27.14    4.84
   3   3   2    9.01    1.57
   3   3   2   10.27    2.17
  -3  -3  -2   10.22    2.46
  -3  -3  -2    8.64    2.05
   3   3   3    9.22    1.73
   3   3   3    9.71    3.66
   3   3   4   14.73    2.31
   3   3   4   14.76    4.58
   3   3   5   85.47    6.64
   3   3   5   62.70    7.24
   3   3   6   63.02    6.09
   3   3   6   53.52    6.70
   3   3   7   14.00    2.80
   3   3   7   11.56    3.35
   3   3   8    0.44    1.14
   3   3   8   -0.82    1.30
   3   3   9    0.06    2.48
   3   3   9    1.34    1.71
   3   3  10    2.12    2.79
   3   3  10    0.76    1.92
   3   3  11   -0.88    1.65
   3   3  11   -3.92    2.03
   3   3  12   -0.20    1.21
   3   3  12    1.36    1.46
   3   3  13    0.99    1.27
   3   3  13    0.92    1.54
   3   3  14   -0.15    1.87
   3   3  15    1.64    1.63
  -3  -3 -15    6.02    1.66
   3   4 -18    2.23    1.79
   3   4 -17    7.44    3.98
  -3  -4  17    3.72    2.45
   3   4 -16    8.21    4.42
  -3  -4  16    4.21    1.82
   3   4 -15    0.80    1.92
   3   4 -15    2.32    2.19
  -3  -4  15    1.23    1.51
   3   4 -14   47.84    9.18
   3   4 -14   17.31    4.91
  -3  -4  14    8.91    5.83
   3   4 -13   32.92    6.93
   3   4 -13   27.90    5.88
  -3  -4  13   27.53    4.64
   3   4 -12    0.63    2.30
   3   4 -12    0.19    1.90
  -3  -4  12    0.57    1.46
   3   4 -11   10.28    4.32
   3   4 -11    6.60    3.36
  -3  -4  11    6.94    4.25
   3   4 -10    2.86    4.70
   3   4 -10    3.27    2.18
  -3  -4  10    1.10    1.66
   3   4  -9    8.74    5.49
   3   4  -9    3.05    2.48
  -3  -4   9    4.06    1.92
   3   4  -8    2.46    2.64
   3   4  -8    1.50    3.10
  -3  -4   8    1.87    1.54
   3   4  -7    5.99    3.28
   3   4  -7    3.67    3.67
   3   4  -6   41.37    6.68
   3   4  -6   32.89    4.66
   3   4  -6   42.13    4.57
   3   4  -5   44.24    6.52
   3   4  -5   31.90    4.49
   3   4  -5   44.07    4.51
  -3  -4   5   37.42    4.98
   3   4  -4   18.40    4.67
   3   4  -4   23.48    5.28
   3   4  -3   18.63    8.07
   3   4  -3  162.91    9.19
   3   4  -2  224.43   21.32
   3   4  -2  283.67   19.70
   3   4  -1   24.82    7.62
   3   4  -1  192.41   10.43
   3   4   0    1.12    1.44
   3   4   0    0.34    1.17
   3   4   0    2.44    2.08
  -3  -4   0   -0.34    1.18
   3   4   1    4.00    1.90
   3   4   1    2.68    1.81
   3   4   1    3.31    1.79
  -3  -4  -1    2.79    1.78
   3   4   2    8.91    2.68
   3   4   2    8.34    2.51
   3   4   3    0.43    1.80
   3   4   3    1.89    1.59
   3   4   4    0.68    1.91
   3   4   4    1.43    1.71
   3   4   5    3.00    2.71
   3   4   5    4.85    3.79
   3   4   6   12.60    4.38
   3   4   6   10.42    5.45
   3   4   7   19.26    3.38
   3   4   7   14.22    6.43
   3   4   8    1.97    1.67
   3   4   8    1.52    3.36
   3   4   9   19.93    3.53
   3   4   9   13.48    6.58
   3   4  10   -1.32    1.59
   3   4  10   -1.84    3.14
   3   4  11    2.95    1.75
   3   4  11    2.70    3.49
   3   4  12    3.00    3.42
   3   4  13    3.46    1.88
   3   4  14   -0.08    1.27
  -3  -4 -14   -2.41    1.32
   3   5 -17    5.32    2.02
  -3  -5  17    4.25    2.50
   3   5 -16    2.74    1.82
   3   5 -16    6.38    2.15
  -3  -5  16    5.06    1.76
   3   5 -15    2.24    2.26
   3   5 -15    4.97    3.61
  -3  -5  15    4.30    1.86
   3   5 -14    7.69    3.70
   3   5 -14    7.20    4.79
  -3  -5  14    8.58    2.56
   3   5 -13   21.94    4.91
   3   5 -13    9.19    6.04
   3   5 -13    4.55    5.88
  -3  -5  13   10.49    3.24
   3   5 -12    0.70    2.63
   3   5 -12    0.76    3.20
   3   5 -12    0.44    3.19
  -3  -5  12    1.70    1.69
   3   5 -11   12.37    6.39
  -3  -5  11   18.33    5.77
   3   5 -10   23.54    9.91
  -3  -5  10   21.94    3.90
   3   5  -9    4.78    3.43
  -3  -5   9    3.82    2.09
   3   5  -8   51.72    8.69
  -3  -5   8   51.90    5.71
   3   5  -7    1.92    2.77
   3   5  -6    2.47    2.79
   3   5  -6    2.61    1.85
   3   5  -5    5.58    2.93
   3   5  -5    2.59    2.00
   3   5  -4    6.20    4.30
   3   5  -4   25.44    5.47
   3   5  -3   35.01    6.32
   3   5  -2   12.44    3.99
   3   5  -1   78.37    9.18
   3   5  -1   64.37    8.80
   3   5   0   45.08    6.90
   3   5   0   53.79   10.00
   3   5   1   63.86    5.30
   3   5   1   94.97   12.32
   3   5   2  151.23   11.05
   3   5   2  170.34   15.01
   3   5   3   48.92    5.04
   3   5   3   52.59    7.04
   3   5   4   19.69    3.18
   3   5   4   21.35    4.36
   3   5   5   11.11    2.56
   3   5   5   11.62    3.41
   3   5   6   -0.02    1.04
   3   5   6   -0.08    1.37
   3   5   7   32.62    4.26
   3   5   7   22.22    5.25
   3   5   8   -0.60    1.49
   3   5   8   -1.84    1.86
   3   5   9    8.34    2.44
   3   5   9    7.37    2.99
   3   5  10    1.10    1.77
   3   5  11    1.28    1.68
   3   5  12    2.82    1.41
  -3  -5 -12   -3.76    1.45
  -3  -6  16    7.96    1.91
   3   6 -15    3.27    3.37
  -3  -6  15    4.34    2.84
   3   6 -14    0.98    1.78
  -3  -6  14    0.00    1.26
   3   6 -13    1.90    2.17
  -3  -6  13    0.15    1.47
   3   6 -12   22.51    6.01
  -3  -6  12   21.32    4.16
   3   6 -11   13.52    8.13
  -3  -6  11   12.84    5.22
   3   6 -10   43.26   13.31
  -3  -6  10   41.74    5.66
   3   6  -9   18.24    5.27
  -3  -6   9   13.16    3.47
   3   6  -8    4.89    3.67
   3   6  -7   27.83    6.90
   3   6  -6    8.39    3.86
   3   6  -6    6.01    2.76
   3   6  -5    7.77    3.88
   3   6  -5    7.16    2.78
   3   6  -4   -1.55    2.34
   3   6  -4   -0.63    1.73
   3   6  -3   19.14    5.33
   3   6  -2    2.74    2.74
   3   6  -1    5.49    2.75
   3   6  -1    1.81    2.46
   3   6   0   -0.21    1.67
   3   6   0   -0.29    1.56
   3   6   1    5.81    2.78
   3   6   2    2.91    3.80
   3   6   3    0.61    3.05
   3   6   4    1.65    2.04
   3   6   5   -0.09    1.48
   3   6   6    0.73    1.84
   3   6   7    0.91    1.83
   3   6   8    0.18    1.43
   3   6   9    3.12    2.43
  -3  -6  -9    6.99    2.46
   3   6  10    1.93    1.69
  -3  -6 -10    2.11    1.70
   3   6  11    9.77    3.25
  -3  -6 -11    4.24    2.03
   3   7 -15   -0.89    1.28
  -3  -7  15   -1.07    1.88
   3   7 -14    0.99    1.56
  -3  -7  14   -0.08    1.13
   3   7 -13    3.24    2.66
  -3  -7  13    2.75    1.80
   3   7 -12    6.17    3.64
  -3  -7  12    6.84    2.44
   3   7 -11    2.12    4.21
  -3  -7  11    0.82    2.71
   3   7 -10    1.19    4.07
  -3  -7  10    0.73    1.60
   3   7  -9   12.67    4.83
  -3  -7   9    9.68    3.21
   3   7  -8   11.10    4.84
  -3  -7   8   10.95    3.13
   3   7  -7    0.85    2.63
   3   7  -6    0.79    3.43
   3   7  -6   -6.37    2.61
   3   7  -5   24.23    7.22
   3   7  -5   38.93    6.08
   3   7  -4   36.24    7.81
   3   7  -3   -0.12    1.97
   3   7  -2  128.97   18.22
   3   7  -2  234.60   27.10
   3   7  -1  158.45   17.56
   3   7  -1  149.75   22.32
   3   7   0    1.66    2.90
   3   7   0    8.54    3.30
   3   7   1    4.96    2.86
   3   7   2    0.49    1.82
  -3  -7  -2    0.74    1.34
   3   7   3   10.49    2.66
  -3  -7  -3    0.78    1.98
   3   7   4   33.11    3.76
  -3  -7  -4   -0.13    2.75
   3   7   5   -0.62    2.54
  -3  -7  -5   -0.21    1.30
   3   7   6   -0.31    2.80
  -3  -7  -6   -1.04    1.50
   3   7   7   -0.69    2.59
  -3  -7  -7    1.17    1.45
   3   7   8    1.15    1.94
  -3  -7  -8   -0.43    1.10
   3   7   9    0.24    1.34
  -3  -7  -9   -1.69    1.29
   3   8 -13   14.96    3.49
  -3  -8  13    8.93    2.41
   3   8 -12    1.65    2.11
  -3  -8  12    0.93    1.43
   3   8 -11   -1.39    1.90
  -3  -8  11    1.17    2.05
   3   8 -10    2.95    4.55
  -3  -8  10    2.16    1.82
   3   8  -9    3.63    3.35
  -3  -8   9    3.97    2.14
   3   8  -8   -0.38    2.25
  -3  -8   8    0.62    1.45
   3   8  -7   -2.01    2.95
   3   8  -6    8.31    4.27
   3   8  -5    8.19    4.83
   3   8  -5   17.45    4.22
   3   8  -4   16.08    5.46
   3   8  -3   36.37    7.60
   3   8  -2    0.87    4.06
   3   8  -2   23.72    4.62
   3   8  -1   45.30    8.13
   3   8  -1   87.54   12.92
   3   8   0   -5.29    4.70
   3   8   1   14.20    3.70
   3   8   2   14.40    3.69
   3   8   3    0.67    1.63
   3   8   4    4.75    2.36
   3   8   5    1.62    1.68
   3   8   6    9.66    2.80
   3   8   7   -0.97    1.23
  -3  -8  -7    1.82    1.14
   3   9 -11    8.12    3.25
  -3  -9  11    7.24    2.09
   3   9 -10   10.80    4.12
  -3  -9  10   10.32    4.10
   3   9  -9    5.67    5.00
  -3  -9   9    4.61    1.98
   3   9  -8    3.57    3.93
  -3  -9   8    1.38    1.60
   3   9  -7   -1.41    2.12
  -3  -9   7   -0.61    1.49
   3   9  -6    4.22    3.03
   3   9  -5    1.83    2.39
   3   9  -4    2.22    2.40
   3   9  -3    6.14    2.95
   3   9  -2   -0.27    1.76
   3   9  -2   -2.28    1.95
   3   9  -1    8.01    4.46
   3   9  -1   12.13    3.18
   3   9   0   -0.53    1.49
   3   9   1   10.55    2.93
   3   9   2    3.25    3.17
   3   9   3   -3.80    3.17
   3  10  -6   -0.49    3.50
  -3 -10   6   -4.10    1.62
   3  10  -5   15.76    5.93
   3  10  -4   14.04    4.71
   4 -11  -2   -0.79    3.15
  -4  11   2   -0.88    1.33
  -4  11   2   -2.44    1.36
   4 -11  -1    5.60    4.56
  -4  11   1    5.70    1.97
  -4  11   1    7.92    3.35
  -4  11   0   10.43    2.70
  -4  11   0   26.41    4.60
   4 -11   1   -2.77    2.90
  -4  11  -1    3.18    2.18
   4 -11   2    0.33    1.74
  -4  11  -2    0.75    2.61
  -4  11  -2    1.89    1.37
   4 -11   3    5.65    2.31
  -4  11  -3    3.32    3.27
  -4  11  -3    4.69    1.88
   4 -11   4    2.72    1.67
  -4  11  -4    1.10    1.37
  -4  11  -4    1.17    1.43
   4 -11   5   -4.05    1.49
  -4  11  -5   -0.08    1.12
  -4  11  -5    0.27    1.38
   4 -11   6   13.22    4.55
  -4  11  -6   15.83    4.34
  -4  11  -7   -0.41    1.14
  -4  11  -8    2.52    1.41
   4 -10  -6   -0.65    1.37
  -4  10   6    2.26    1.06
  -4  10   6   -0.28    1.15
   4 -10  -5   20.87    4.38
  -4  10   5   22.49    3.49
   4 -10  -4   -0.17    1.72
  -4  10   4    0.62    1.28
  -4  10   4    1.13    1.33
   4 -10  -3    6.40    2.99
  -4  10   3    4.51    2.22
  -4  10   3    6.95    2.25
   4 -10  -2    3.10    2.74
  -4  10   2    2.07    2.07
  -4  10   2    6.07    2.09
   4 -10  -1    3.40    2.90
  -4  10   1    3.59    2.10
  -4  10   1    4.08    2.07
   4 -10   0    9.89    3.57
  -4  10   0    7.69    2.48
  -4  10   0    5.38    2.62
   4 -10   1    3.26    2.63
  -4  10  -1    2.92    1.75
  -4  10  -1    1.11    1.91
   4 -10   2    4.85    4.49
  -4  10  -2    2.25    1.79
  -4  10  -2    4.87    3.24
   4 -10   3    0.53    3.48
  -4  10  -3    1.99    1.46
  -4  10  -3    0.60    2.64
   4 -10   4    1.14    2.05
  -4  10  -4    0.86    1.33
  -4  10  -4    2.28    1.57
   4 -10   5    3.02    2.11
  -4  10  -5    1.38    2.65
  -4  10  -5    1.81    1.65
   4 -10   6    1.90    1.71
  -4  10  -6    0.58    1.20
  -4  10  -6    0.71    1.39
   4 -10   7    2.12    3.21
  -4  10  -7    3.24    2.78
   4 -10   8    4.37    1.88
  -4  10  -8   10.08    3.41
   4 -10   9   -0.07    0.86
  -4  10  -9    0.70    1.09
  -4  10 -10    4.49    1.78
  -4  10 -11    0.42    1.65
  -4   9   8   -1.06    1.16
  -4   9   8   -2.13    1.52
   4  -9  -7    0.02    1.44
  -4   9   7    2.29    1.90
  -4   9   7    0.13    1.34
   4  -9  -6    9.72    2.98
  -4   9   6    6.53    3.17
  -4   9   6    6.09    2.56
   4  -9  -5   -0.28    1.83
  -4   9   5    1.65    1.96
  -4   9   5    0.37    2.58
   4  -9  -4    6.12    3.12
  -4   9   4    5.71    2.10
  -4   9   4    3.98    4.20
   4  -9  -3    0.10    2.34
  -4   9   3    1.69    1.51
  -4   9   3    2.58    2.86
   4  -9  -2    8.11    3.42
  -4   9   2    5.29    2.21
  -4   9   2    5.18    4.08
   4  -9  -1   12.48    4.16
  -4   9   1    8.22    2.57
  -4   9   1   10.13    2.99
   4  -9   0    7.48    3.40
  -4   9   0    5.53    3.30
  -4   9   0    2.86    2.50
   4  -9   1   22.32    5.51
  -4   9  -1   18.16    6.27
   4  -9   2    6.53    3.34
  -4   9  -2   -2.23    3.72
  -4   9  -2    6.52    2.46
   4  -9   3   25.40    7.43
  -4   9  -3    7.78    2.86
  -4   9  -3   21.20    5.35
   4  -9   4    6.30    2.70
  -4   9  -4    0.45    1.72
  -4   9  -4    6.54    3.35
   4  -9   5   14.53    4.46
  -4   9  -5   13.01    2.78
  -4   9  -5   19.53    3.39
   4  -9   6    1.67    2.05
  -4   9  -6    1.00    1.59
   4  -9   7   -0.61    1.59
  -4   9  -7    0.75    1.23
   4  -9   8    8.69    4.87
  -4   9  -8   17.33    4.56
   4  -9   9    0.23    1.48
  -4   9  -9    2.56    1.52
   4  -9  10   -0.41    1.17
  -4   9 -10    2.08    1.31
   4  -9  11    0.11    1.06
  -4   9 -11   -0.38    1.02
  -4   9 -12    0.96    2.25
  -4   9 -13   -1.58    1.17
  -4   8  10    8.25    2.52
  -4   8  10    4.93    2.14
   4  -8  -9    2.33    1.35
  -4   8   9    1.68    1.06
  -4   8   9    0.37    1.60
   4  -8  -8    2.58    1.98
  -4   8   8    1.65    1.45
  -4   8   8    7.96    2.17
   4  -8  -7    1.65    1.64
  -4   8   7   -0.01    1.18
  -4   8   7    0.84    1.54
   4  -8  -6    2.41    2.06
  -4   8   6    0.36    1.42
  -4   8   6    1.89    1.79
   4  -8  -5   -0.66    1.51
  -4   8   5   -0.27    1.02
  -4   8   5    0.90    1.28
   4  -8  -4    1.85    1.90
  -4   8   4   -0.49    1.30
  -4   8   4   -1.50    1.56
   4  -8  -3   16.08    4.60
  -4   8   3   11.92    3.11
  -4   8   3   15.13    3.67
   4  -8  -2   14.46    4.46
  -4   8   2    9.65    2.81
  -4   8   2   11.47    3.44
   4  -8  -1    4.72    2.65
  -4   8   1    0.26    1.62
  -4   8   1    3.25    3.39
   4  -8   0   15.02    4.67
  -4   8   0   11.37    2.88
  -4   8   0   12.97    3.35
   4  -8   1   23.30    5.11
  -4   8  -1   10.48    3.86
   4  -8   2   34.61    6.37
  -4   8  -2   22.58    3.73
  -4   8  -2   33.48    4.81
   4  -8   3    8.44    7.30
  -4   8  -3    4.46    3.86
  -4   8  -3   19.96    3.50
   4  -8   4    8.47    4.43
  -4   8  -4    1.09    2.83
  -4   8  -4    2.00    3.30
   4  -8   5    9.88    3.65
  -4   8  -5    5.58    2.19
  -4   8  -5   12.20    2.57
   4  -8   6    1.86    2.78
  -4   8  -6    4.48    1.94
   4  -8   7    5.55    2.97
  -4   8  -7    5.27    2.16
   4  -8   8   -2.48    3.76
  -4   8  -8   -1.70    2.75
   4  -8   9    0.86    1.65
  -4   8  -9    1.31    1.50
   4  -8  10    3.59    1.78
  -4   8 -10    0.74    1.44
  -4   8 -10    3.57    1.70
   4  -8  11    0.17    1.71
  -4   8 -11   -0.70    0.90
  -4   8 -11    0.61    1.05
   4  -8  12    0.79    0.75
  -4   8 -12   -0.96    0.91
  -4   8 -12    1.77    1.95
  -4   8 -13   -0.33    1.79
  -4   8 -13    0.67    1.09
  -4   8 -14   12.76    1.88
  -4   7  12   10.47    2.32
  -4   7  11    0.45    0.75
  -4   7  11    1.09    1.28
  -4   7  10    0.71    1.06
  -4   7  10    2.95    1.60
  -4   7   9    1.15    1.20
  -4   7   9    1.39    2.70
   4  -7  -8    6.34    2.47
  -4   7   8    4.12    1.89
  -4   7   8    5.28    3.92
   4  -7  -7    0.51    2.77
  -4   7   7    4.76    3.40
  -4   7   7   10.55    2.67
   4  -7  -6    1.88    1.90
  -4   7   6   -1.30    2.31
  -4   7   6    0.84    1.70
   4  -7  -5   28.94    5.98
  -4   7   5   30.37    7.39
  -4   7   5   28.79    5.39
   4  -7  -4    5.64    3.19
  -4   7   4    5.25    3.78
  -4   7   4    5.28    2.64
   4  -7  -3    2.13    2.30
  -4   7   3    1.22    2.58
  -4   7   3    0.47    1.82
   4  -7  -2  138.19   16.37
  -4   7   2  135.79   17.24
  -4   7   2  154.93   14.59
   4  -7  -1   15.65    4.60
  -4   7   1    9.89    4.45
  -4   7   1   12.32    3.89
   4  -7   0   93.02   11.53
  -4   7   0   79.32   10.81
  -4   7   0   73.92   13.84
   4  -7   1   38.31    6.70
  -4   7  -1   25.53    3.91
  -4   7  -1   38.98    5.13
   4  -7   2   16.32    4.85
  -4   7  -2   11.08    2.68
  -4   7  -2   24.19    3.70
   4  -7   3   15.87    6.34
  -4   7  -3    6.32    2.04
  -4   7  -3   13.12    2.83
   4  -7   4    4.48    1.62
   4  -7   4   10.83    4.92
  -4   7  -4    4.16    1.57
  -4   7  -4    7.66    3.53
   4  -7   5    9.17    3.50
  -4   7  -5    7.84    2.33
   4  -7   6    1.73    1.90
  -4   7  -6   -0.30    1.50
  -4   7  -6    0.56    1.29
   4  -7   7   -0.97    1.83
  -4   7  -7    1.75    1.53
  -4   7  -7    0.04    1.21
   4  -7   8   -2.82    3.68
  -4   7  -8    1.49    1.99
  -4   7  -8    3.59    2.50
   4  -7   9    2.68    2.18
  -4   7  -9    1.69    2.38
  -4   7  -9    3.65    1.80
   4  -7  10    3.22    1.79
  -4   7 -10   -4.67    3.15
   4  -7  11    1.80    2.54
  -4   7 -11    0.47    1.56
  -4   7 -11    1.49    1.37
   4  -7  12    0.52    1.11
  -4   7 -12    1.45    1.45
  -4   7 -12    2.22    2.34
  -4   7 -13    0.17    1.30
  -4   7 -13    1.17    1.22
  -4   7 -14    0.08    1.69
  -4   7 -14    0.28    0.89
  -4   7 -15   36.30    4.08
  -4   6  13    0.65    2.05
  -4   6  12    0.50    0.72
  -4   6  12   -0.23    2.22
  -4   6  11   -0.02    0.84
  -4   6  11    0.81    1.36
  -4   6  10    0.17    1.80
  -4   6  10    0.43    1.52
  -4   6   9   -1.07    1.43
  -4   6   9   -0.73    1.93
  -4   6   8    1.03    1.50
  -4   6   8    1.06    1.88
   4  -6  -7   12.49    3.88
  -4   6   7   15.83    3.33
  -4   6   7   16.06    3.99
   4  -6  -6   12.15    3.70
  -4   6   6   11.56    3.02
  -4   6   6   12.92    5.82
   4  -6  -5    2.15    1.74
  -4   6   5    0.32    1.35
  -4   6   5   -2.57    2.47
   4  -6  -4   26.04    5.45
  -4   6   4   28.16    4.34
  -4   6   4   23.88    4.78
   4  -6  -3    1.92    2.38
  -4   6   3    2.15    1.75
  -4   6   3    1.77    1.92
   4  -6  -2  179.07   18.03
  -4   6   2  164.57   14.80
  -4   6   2  184.24   16.02
   4  -6  -1   -1.12    1.39
   4  -6  -1   -0.23    2.09
  -4   6   1   -0.48    1.35
   4  -6   0  215.90   20.90
  -4   6   0  188.80   15.49
  -4   6   0  214.51   21.65
   4  -6   1    0.63    1.56
   4  -6   1    1.56    2.32
  -4   6  -1    1.87    1.35
   4  -6   2   17.88    4.59
   4  -6   2   35.18    5.58
  -4   6  -2   17.39    4.59
  -4   6  -2   29.33    3.69
   4  -6   3    0.85    1.18
   4  -6   3    2.26    3.44
  -4   6  -3    0.66    1.07
  -4   6  -3    2.68    1.50
   4  -6   4   16.15    2.83
   4  -6   4   21.88    4.65
  -4   6  -4   24.21    4.94
   4  -6   5   12.26    2.46
   4  -6   5   13.16    4.10
  -4   6  -5   14.18    2.52
   4  -6   6    1.25    1.34
   4  -6   6    0.81    2.17
  -4   6  -6    1.77    1.34
   4  -6   7    0.87    2.03
  -4   6  -7    0.95    1.29
  -4   6  -8    1.32    2.27
  -4   6  -8    2.38    2.51
  -4   6  -9   -1.08    1.93
  -4   6  -9   -0.12    1.24
   4  -6  10    0.20    1.40
  -4   6 -10   -1.10    1.78
  -4   6 -10    0.10    1.07
   4  -6  11   -0.71    2.73
  -4   6 -11   -5.57    3.21
  -4   6 -11    1.29    2.05
   4  -6  12    0.52    1.21
  -4   6 -12    3.22    1.73
  -4   6 -12   -0.39    1.36
   4  -6  13    0.26    0.88
  -4   6 -13   -0.73    1.32
  -4   6 -13    0.60    1.01
  -4   6 -14    0.07    1.31
  -4   6 -14   -0.82    1.47
  -4   6 -15   -5.06    3.03
  -4   5  14    5.87    2.07
  -4   5  13    0.36    0.67
  -4   5  13    0.17    1.28
  -4   5  12    4.23    2.58
  -4   5  12    6.07    2.42
  -4   5  11   -0.29    0.91
  -4   5  11    0.64    1.26
  -4   5  10    2.95    1.86
  -4   5  10    4.17    2.33
  -4   5   9    4.72    2.14
  -4   5   9    4.77    2.61
  -4   5   8    1.47    1.62
  -4   5   8    1.71    1.94
   4  -5  -7    2.52    2.08
  -4   5   7    2.24    1.80
  -4   5   7    2.89    2.07
   4  -5  -6    4.04    2.32
   4  -5  -6    3.55    2.37
  -4   5   6    5.03    3.29
  -4   5   6    3.52    2.24
   4  -5  -5    3.95    2.39
   4  -5  -5    4.72    2.57
  -4   5   5    3.96    3.43
  -4   5   5    5.58    2.28
   4  -5  -4   20.34    4.08
   4  -5  -4   20.17    4.33
  -4   5   4   18.78    5.69
  -4   5   4   21.13    6.26
   4  -5  -3    3.42    2.11
   4  -5  -3    3.40    2.42
  -4   5   3    3.06    2.87
  -4   5   3    2.90    2.88
   4  -5  -2    1.19    2.90
   4  -5  -2    3.11    2.03
  -4   5   2    1.62    1.48
  -4   5   2    0.83    1.45
   4  -5  -1   15.27    4.85
   4  -5  -1   19.98    4.09
  -4   5   1   14.33    2.85
  -4   5   1   15.23    2.93
   4  -5   0   24.39    3.64
   4  -5   0   27.15    4.71
  -4   5   0   19.01    3.07
  -4   5   0   18.00    3.20
   4  -5   1   19.11    3.34
   4  -5   1   23.88    4.34
  -4   5  -1   13.97    2.63
  -4   5  -1   16.25    4.18
   4  -5   2    6.04    2.17
   4  -5   2    7.13    4.68
  -4   5  -2    3.63    1.51
  -4   5  -2    5.99    1.73
   4  -5   3   16.19    5.07
   4  -5   3   16.83    3.71
  -4   5  -3    8.83    3.17
  -4   5  -3   15.60    2.39
   4  -5   4    0.46    1.08
   4  -5   4   -0.28    1.69
  -4   5  -4    0.63    1.55
   4  -5   5   15.85    2.90
   4  -5   5   19.77    4.34
  -4   5  -5   17.94    2.49
   4  -5   6   19.09    3.17
   4  -5   6   22.38    4.64
  -4   5  -6   18.32    2.65
   4  -5   7   29.55    4.09
   4  -5   7   44.94    9.47
  -4   5  -7   27.53    5.14
  -4   5  -8    0.81    1.33
  -4   5  -9   72.84    9.48
  -4   5  -9   57.65    5.68
  -4   5 -10    9.45    4.05
   4  -5  11    0.90    2.26
  -4   5 -11    0.62    2.25
   4  -5  12    0.29    1.16
  -4   5 -12   -0.71    2.88
   4  -5  13    0.83    1.18
  -4   5 -13    0.81    1.72
   4  -5  14    0.54    1.44
  -4   5 -14    1.94    1.70
  -4   5 -15    0.80    1.44
  -4   5 -16    6.20    2.20
  -4   4  15    0.31    1.08
  -4   4  14   -0.29    1.19
   4  -4 -13   -0.28    1.84
  -4   4  13   -0.26    0.79
  -4   4  13    1.17    1.20
   4  -4 -12    1.33    2.82
  -4   4  12    0.59    1.16
  -4   4  12    1.05    1.60
   4  -4 -11   20.89    6.60
  -4   4  11   14.20    2.90
  -4   4  11   14.83    3.72
   4  -4 -10   33.42    5.94
  -4   4  10   25.86    6.35
  -4   4  10   23.25    5.05
   4  -4  -9    0.21    2.26
  -4   4   9    2.57    3.19
  -4   4   9    1.79    1.84
   4  -4  -8    0.87    1.86
  -4   4   8    0.09    1.66
  -4   4   8    0.82    1.52
   4  -4  -7    0.83    3.36
  -4   4   7    2.22    1.87
  -4   4   7    0.70    1.63
   4  -4  -6   12.03    5.34
   4  -4  -6    6.58    2.66
  -4   4   6    9.55    2.99
  -4   4   6    7.92    2.58
   4  -4  -5   15.00    5.48
   4  -4  -5   11.03    3.12
  -4   4   5   13.91    3.30
  -4   4   5   10.40    2.81
   4  -4  -4   -0.08    1.71
   4  -4  -4    2.26    1.59
  -4   4   4    0.70    1.57
  -4   4   4    1.01    1.33
   4  -4  -3   28.73    4.44
   4  -4  -3   22.93    4.17
  -4   4   3   22.98    3.98
  -4   4   3   20.96    4.83
   4  -4  -2    0.88    1.52
   4  -4  -2    0.54    1.51
  -4   4   2   -0.09    1.33
  -4   4   2    0.86    1.03
   4  -4  -1    1.83    1.89
   4  -4  -1    3.78    1.93
  -4   4   1    2.30    1.60
  -4   4   1    1.50    1.24
   4  -4   0   16.38    5.22
   4  -4   0   15.14    5.44
  -4   4   0   10.70    4.12
  -4   4   0   10.92    3.25
   4  -4   1    2.21    1.65
   4  -4   1    3.84    3.12
  -4   4  -1    0.95    1.81
  -4   4  -1    2.19    1.07
   4  -4   2    7.26    2.18
   4  -4   2    7.18    2.53
  -4   4  -2    3.21    1.35
  -4   4  -2    6.36    1.36
   4  -4   3    6.85    2.06
   4  -4   3    4.30    2.39
  -4   4  -3    2.76    1.16
  -4   4  -3    4.42    2.01
  -4   4  -3    4.46    1.52
   4  -4   4    3.53    3.35
   4  -4   5    0.63    1.30
   4  -4   5    1.87    1.90
   4  -4   6    0.52    1.25
   4  -4   6   -8.03    3.18
   4  -4   7  118.03    9.64
   4  -4   7  101.98   11.34
   4  -4   9   29.26    5.56
  -4   4  -9   36.80    6.43
   4  -4  10    4.16    4.16
  -4   4 -10    4.11    2.98
   4  -4  11    2.96    1.74
  -4   4 -11    0.34    2.63
   4  -4  12    0.27    1.21
  -4   4 -12   -0.15    2.99
   4  -4  13   -0.51    1.05
  -4   4 -13    0.55    1.50
   4  -4  14    0.17    0.82
  -4   4 -14    0.58    1.47
   4  -4  15    0.13    0.60
  -4   4 -15   -0.08    1.24
  -4   4 -16   -6.48    4.08
  -4   3  16    4.67    1.32
   4  -3 -15    1.37    2.49
  -4   3  15    1.22    1.33
   4  -3 -14    1.17    1.79
  -4   3  14    1.18    0.95
  -4   3  14    1.10    1.48
   4  -3 -13    0.09    1.88
  -4   3  13    0.79    1.07
  -4   3  13    1.32    2.41
   4  -3 -12   -1.10    2.26
  -4   3  12   -1.50    2.88
   4  -3 -11    0.32    1.91
  -4   3  11    0.21    2.34
   4  -3 -10   25.57    5.45
  -4   3  10   13.42    6.39
   4  -3  -9   -0.03    2.03
  -4   3   9    1.36    1.68
  -4   3   9    0.01    2.38
   4  -3  -8    6.37    2.85
  -4   3   8    3.58    2.41
  -4   3   8    3.09    3.28
   4  -3  -7    0.62    1.96
  -4   3   7    0.73    1.62
  -4   3   7    0.81    1.32
   4  -3  -6   14.77    3.53
  -4   3   6   10.36    2.95
  -4   3   6    7.45    2.34
   4  -3  -5   11.07    3.06
   4  -3  -5    4.68    2.18
  -4   3   5    7.97    2.47
  -4   3   5    5.70    1.94
   4  -3  -4    2.83    2.93
   4  -3  -4   -1.77    2.20
  -4   3   4    2.00    1.43
  -4   3   4    0.31    1.08
   4  -3  -3   28.46    4.23
   4  -3  -3   21.13    5.56
  -4   3   3   17.98    3.49
  -4   3   3   17.48    3.85
   4  -3  -2   48.11    5.96
   4  -3  -2   42.56    7.31
  -4   3   2   38.27    4.81
  -4   3   2   44.04    4.43
   4  -3  -1  145.10   12.12
   4  -3  -1  123.18   14.26
  -4   3   1  104.54    9.78
   4  -3   0   65.89    7.13
   4  -3   0   54.37    6.51
  -4   3   0   43.07    4.99
   4  -3   1   78.47    9.10
  -4   3  -1   43.26    4.69
   4  -3   2    3.15    1.88
  -4   3  -2    2.30    2.03
   4  -3   3    2.44    1.79
   4  -3   3    1.82    1.95
   4  -3   4    0.85    1.63
   4  -3   4    2.69    3.05
   4  -3   5   11.09    3.85
   4  -3   5   11.85    4.89
   4  -3   6   98.81    8.45
   4  -3   6   92.95    9.72
   4  -3   7   51.76    5.57
   4  -3   7   46.68    6.62
   4  -3   8   15.06    4.16
   4  -3   9   -0.51    3.30
  -4   3  -9    1.97    2.11
   4  -3  10    0.41    1.16
  -4   3 -10   -0.60    1.52
   4  -3  11    0.54    1.28
  -4   3 -11   -0.54    1.69
   4  -3  12    1.16    1.50
  -4   3 -12    0.71    3.31
   4  -3  13    1.60    2.22
  -4   3 -13    2.59    2.07
   4  -3  14    0.53    1.05
  -4   3 -14    2.11    1.66
   4  -3  15    0.77    0.90
  -4   3 -15    3.09    1.60
  -4   3 -16   -2.07    1.66
   4  -2 -16   -2.29    1.26
  -4   2  16    0.84    0.83
   4  -2 -15    5.41    2.52
  -4   2  15    3.27    1.75
   4  -2 -14    2.84    2.10
  -4   2  14    0.41    1.70
  -4   2  14    0.19    2.34
   4  -2 -13   15.67    3.54
  -4   2  13    4.41    2.46
  -4   2  13    4.03    3.82
   4  -2 -12   11.23    3.74
  -4   2  12    7.09    2.74
  -4   2  12    5.59    4.06
   4  -2 -11    1.09    2.17
  -4   2  11    0.19    1.65
  -4   2  11    0.76    1.42
   4  -2 -10   50.78    7.20
  -4   2  10   39.65    5.75
  -4   2  10   24.07    4.70
   4  -2  -9   27.62    5.35
  -4   2   9    9.78    5.37
   4  -2  -8    1.62    2.40
  -4   2   8    1.65    2.37
   4  -2  -7    6.47    3.26
   4  -2  -6   -1.29    1.92
   4  -2  -6    1.83    1.75
   4  -2  -5   11.81    4.40
   4  -2  -5   20.63    4.25
   4  -2  -4   10.70    3.27
   4  -2  -4   10.93    3.24
   4  -2  -4    5.44    1.97
   4  -2  -3    1.30    1.97
   4  -2  -3    2.25    3.18
   4  -2  -3    1.86    1.32
  -4   2   3    2.03    1.15
   4  -2  -2    0.98    1.56
   4  -2  -2    0.33    1.66
   4  -2  -2    0.43    1.21
  -4   2   2    0.97    1.02
   4  -2  -1   72.54    7.29
   4  -2  -1   50.59    5.79
   4  -2   0   37.47    5.20
   4  -2   0   25.16    4.00
  -4   2   0   30.69    4.06
   4  -2   1  217.99   21.45
   4  -2   1  162.50   14.12
  -4   2  -1  160.90   13.88
   4  -2   2    5.70    2.12
  -4   2  -2    3.92    1.30
   4  -2   3   17.90    3.44
   4  -2   3   18.72    5.18
   4  -2   4   31.77    4.46
   4  -2   4   24.96    4.23
   4  -2   5   23.76    4.94
   4  -2   5   21.53    4.01
   4  -2   6    4.00    1.72
   4  -2   6    2.93    2.25
   4  -2   7   24.35    3.58
   4  -2   7   26.05    4.63
   4  -2   8    2.31    3.14
   4  -2   9   36.66    5.51
  -4   2  -9   40.71    6.07
   4  -2  10   -0.68    1.34
  -4   2 -10    0.44    1.54
   4  -2  11   -1.28    1.50
  -4   2 -11    0.32    1.77
   4  -2  12    0.78    2.39
  -4   2 -12    3.08    3.33
   4  -2  13    3.40    1.75
  -4   2 -13    8.13    2.46
   4  -2  14    0.56    1.01
  -4   2 -14    0.66    1.42
   4  -2  15    0.80    1.37
  -4   2 -15    0.33    2.02
  -4   2 -16    0.39    1.13
   4  -1 -17   -0.31    1.31
   4  -1 -16    1.95    1.55
  -4   1  16   -0.26    0.83
   4  -1 -15    2.52    1.89
  -4   1  15    0.11    1.37
  -4   1  15   -0.26    1.82
  -4   1  14    1.15    1.43
  -4   1  14    1.80    2.27
   4  -1 -13   22.21    6.10
   4  -1 -12    0.58    2.24
   4  -1 -11    4.01    3.36
   4  -1 -10    2.09    3.55
   4  -1 -10    7.42    3.34
   4  -1  -9   42.90    8.65
   4  -1  -9   46.62    7.96
   4  -1  -8  108.12   14.17
   4  -1  -8  108.52   12.79
   4  -1  -7   68.48   10.02
   4  -1  -7   71.75    9.41
   4  -1  -6  251.07   24.84
   4  -1  -6  268.00   24.01
   4  -1  -5   77.46   10.23
   4  -1  -5   91.53    9.71
   4  -1  -4    3.33    2.35
   4  -1  -4    3.25    2.43
   4  -1  -3   17.58    3.77
   4  -1  -3   24.33    6.50
   4  -1  -3   21.72    3.99
  -4   1   3   15.23    2.13
   4  -1  -2    4.23    2.09
   4  -1  -2    4.25    2.24
   4  -1  -2    3.20    2.42
  -4   1   2    2.57    2.07
   4  -1  -1   24.95    4.09
   4  -1  -1   34.43    4.61
   4  -1  -1   21.68    4.61
  -4   1   1   26.59    3.31
   4  -1   0   28.35    4.39
   4  -1   0   46.74    5.30
   4  -1   0   31.00    3.81
   4  -1   1    4.76    2.13
   4  -1   1    9.08    4.73
   4  -1   1    9.12    2.16
  -4   1  -1   13.39    2.63
   4  -1   2   88.05    7.90
   4  -1   2   75.94    7.29
   4  -1   3   82.49    7.77
   4  -1   3   69.98    7.14
   4  -1   4    1.65    1.69
   4  -1   4    1.68    1.65
   4  -1   5   18.10    4.36
   4  -1   5   18.41    3.63
   4  -1   6    1.79    1.44
   4  -1   6    2.14    2.61
   4  -1   7    9.38    2.33
   4  -1   7    8.54    2.76
   4  -1   8   35.77    5.49
   4  -1   9    5.44    2.58
  -4   1  -9    6.31    2.56
   4  -1  10   28.94    4.63
  -4   1 -10   24.10    4.67
   4  -1  11    1.99    2.83
  -4   1 -11    3.30    2.09
   4  -1  12    0.54    1.45
  -4   1 -12    2.37    1.69
   4  -1  13    2.69    1.48
  -4   1 -13    1.84    1.74
   4  -1  14   -0.32    1.00
  -4   1 -14   -0.43    1.20
   4  -1  15   -0.29    0.75
  -4   1 -15    0.09    1.02
   4   0 -17    6.30    2.71
   4   0 -16    1.92    2.23
   4   0 -15    3.39    2.61
  -4   0  15    2.43    1.43
   4   0 -14   -0.15    2.07
  -4   0  14    0.66    1.28
   4   0 -12    0.35    2.22
   4   0 -12    1.63    3.79
   4   0 -11   17.01    5.40
   4   0 -11   23.17    8.93
   4   0 -10   72.44   12.27
   4   0 -10   89.15   17.07
   4   0  -9   42.56    9.89
   4   0  -9   55.22    8.64
   4   0  -8    2.71    2.98
   4   0  -8    2.57    2.73
   4   0  -7    0.83    2.19
   4   0  -7    0.90    2.11
   4   0  -6    4.24    4.05
   4   0  -6    1.50    2.35
   4   0  -5   58.40   12.97
   4   0  -5   76.25    8.46
   4   0  -4   19.55    7.62
   4   0  -4   23.06    4.45
   4   0  -3    6.00    4.98
   4   0  -3    9.98    4.83
   4   0  -2   14.92    5.68
   4   0  -2   27.61    3.69
   4   0  -2   11.85    2.22
  -4   0   2   19.20    2.44
   4   0  -1    3.41    3.42
   4   0  -1    8.71    2.31
   4   0  -1    2.42    1.50
  -4   0   1    5.98    1.62
   4   0   0    9.08    2.78
   4   0   0   18.08    3.29
   4   0   0   13.32    2.34
  -4   0   0   14.05    3.91
   4   0   1   12.07    2.84
   4   0   1   25.45    4.94
   4   0   1   17.76    2.83
  -4   0  -1   21.19    5.29
   4   0   2    7.02    2.26
   4   0   2    7.95    3.43
   4   0   3    1.80    1.49
   4   0   3    0.83    2.03
   4   0   4   -0.12    2.12
   4   0   4    0.43    1.09
   4   0   5   24.01    3.33
   4   0   5   26.83    3.72
   4   0   6    0.70    1.28
   4   0   6    2.07    1.53
   4   0   7    9.48    2.30
   4   0   7   12.54    2.99
   4   0   8  181.97   15.53
  -4   0  -8  156.99   14.50
   4   0   9    1.10    2.82
  -4   0  -9    0.70    1.51
   4   0  10  146.97   12.44
  -4   0 -10  117.55   11.62
   4   0  11    0.31    1.15
  -4   0 -11   -0.55    1.89
   4   0  12    4.94    1.92
  -4   0 -12    3.48    1.84
   4   0  13   -0.59    1.26
  -4   0 -13    2.43    1.24
   4   0  14    1.97    1.16
  -4   0 -14    0.52    1.20
   4   0  15   -1.00    0.92
   4   1 -17    2.96    2.25
   4   1 -16    0.07    1.80
  -4  -1  16    0.58    0.85
   4   1 -15    2.63    2.29
  -4  -1  15    1.03    1.32
   4   1 -14    4.12    3.18
   4   1 -13   -0.21    1.90
   4   1 -12   33.63    7.47
   4   1 -12   40.71   11.55
   4   1 -11    2.65    2.84
   4   1 -11    0.10    4.73
   4   1 -10  198.39   24.03
   4   1 -10  231.90   32.07
   4   1  -9  687.78   85.47
   4   1  -9  655.01   66.62
   4   1  -8    2.80    6.04
   4   1  -8    5.38    3.23
   4   1  -7   32.29    7.21
   4   1  -7   36.24    6.35
   4   1  -6   67.78   10.33
   4   1  -6   72.84    8.95
   4   1  -5    6.55    3.70
   4   1  -5    9.97    3.22
   4   1  -4   -1.17    1.44
   4   1  -4    0.91    1.32
   4   1  -3   -0.44    1.65
   4   1  -3   -0.16    2.31
   4   1  -2    0.47    1.92
   4   1  -2    2.43    1.73
   4   1  -1    3.14    1.91
   4   1  -1    3.97    1.78
   4   1  -1    0.99    0.98
  -4  -1   1    2.12    2.06
   4   1   0    3.54    3.46
   4   1   0    7.93    3.50
   4   1   0    3.32    1.31
  -4  -1   0    4.59    1.32
  -4  -1   0    5.73    1.90
   4   1   1    5.38    1.80
   4   1   1    2.71    1.39
   4   1   2    2.36    1.50
   4   1   2    1.23    1.23
   4   1   3    1.54    1.52
   4   1   3    2.18    1.35
   4   1   4    4.02    2.16
   4   1   4    2.14    1.62
   4   1   5    5.83    1.75
   4   1   5    7.84    2.18
   4   1   6    1.24    1.18
   4   1   6    2.39    2.68
   4   1   7   47.87    8.15
   4   1   8  166.94   12.72
  -4  -1  -8  106.48   10.45
   4   1   9   78.43    7.29
  -4  -1  -9   39.70    5.55
   4   1  10    2.98    1.92
   4   1  11    3.21    1.82
   4   1  11    0.73    2.71
   4   1  12    5.43    3.02
   4   1  12    1.76    2.70
   4   1  13   10.11    2.05
   4   1  13    0.22    2.80
   4   1  14    0.33    0.92
   4   2 -17    4.99    2.46
   4   2 -16    8.14    2.38
  -4  -2  16    1.56    1.18
   4   2 -15   -0.53    1.94
   4   2 -14    0.15    1.77
   4   2 -14    0.72    1.98
   4   2 -13   -4.49    3.22
   4   2 -12   20.47    6.04
   4   2 -12   22.84    5.91
   4   2 -11   63.40   17.10
   4   2 -11   70.28   10.81
   4   2 -10    1.33    4.70
   4   2 -10    1.01    2.51
   4   2  -9  111.43   16.66
   4   2  -9  111.46   13.48
   4   2  -8    7.10    4.40
   4   2  -8    8.89    3.62
   4   2  -7   25.86    6.77
   4   2  -7   26.87    5.47
   4   2  -6   59.12    9.81
   4   2  -6   60.66    8.06
   4   2  -5   23.50    5.97
   4   2  -5   27.97    4.98
   4   2  -4    8.48    3.72
   4   2  -4    9.97    4.59
   4   2  -3   30.72    5.82
   4   2  -3   32.91    4.73
   4   2  -2   60.60    8.53
   4   2  -2   82.90    8.06
   4   2  -1    0.37    1.61
   4   2  -1    0.70    1.41
   4   2   0    2.37    1.96
   4   2   0    2.59    2.52
   4   2   0    2.50    1.60
   4   2   1   41.99    4.70
   4   2   1   37.96    5.81
   4   2   2    0.62    1.23
   4   2   2    1.28    1.57
   4   2   3    0.30    1.59
   4   2   3    1.99    1.76
   4   2   4    0.58    0.88
   4   2   4   -0.14    1.71
   4   2   5    1.77    1.33
   4   2   5    0.18    1.37
   4   2   6   -0.86    1.28
   4   2   6   -0.10    1.34
   4   2   7    3.90    1.90
   4   2   7    2.46    1.92
   4   2   8    1.44    1.65
   4   2   8    1.15    2.62
   4   2   9    0.75    1.39
   4   2   9   -0.19    2.21
   4   2  10   -0.28    2.09
   4   2  10   -0.24    2.01
   4   2  11    1.71    2.37
   4   2  11    0.50    1.30
   4   2  12    1.30    1.26
   4   2  12   -0.02    1.13
   4   2  13    0.87    1.12
   4   2  13    0.63    0.95
   4   3 -16    4.07    2.06
  -4  -3  16    2.03    1.14
   4   3 -15    1.62    2.04
   4   3 -15    3.40    2.26
   4   3 -14   10.71    3.88
   4   3 -14   14.23    3.99
   4   3 -13    3.60    3.04
   4   3 -13    4.19    2.89
   4   3 -12   21.31   11.18
   4   3 -12   31.76    6.41
   4   3 -11   12.47    8.89
   4   3 -11   12.07    4.46
   4   3 -10   -0.44    2.63
   4   3 -10    1.60    2.06
   4   3  -9    2.84    3.63
   4   3  -9    3.89    2.73
   4   3  -8   15.07    5.65
   4   3  -8   13.31    4.17
   4   3  -7    5.73    3.44
   4   3  -7    2.70    2.62
   4   3  -6    4.42    3.34
   4   3  -6    3.70    2.49
   4   3  -5   10.95    4.33
   4   3  -5   10.08    4.82
   4   3  -4    0.82    2.14
   4   3  -4    0.75    1.49
   4   3  -3    0.79    1.76
   4   3  -3   -0.01    1.26
   4   3  -2   20.45    4.42
   4   3  -2   14.62    3.21
   4   3  -1    7.35    1.64
   4   3  -1   -3.01    1.18
   4   3   0   86.00    9.72
   4   3   0   80.66    7.30
   4   3   1    1.07    0.96
   4   3   1    0.99    1.31
   4   3   2   51.36    4.60
   4   3   2   40.26    7.83
   4   3   3   20.69    2.94
   4   3   3   14.98    3.40
   4   3   4  115.46    9.06
   4   3   4   77.26    9.21
   4   3   5   54.11    5.55
   4   3   5   31.93    5.60
   4   3   6   45.54    4.91
   4   3   6   19.59    4.78
   4   3   7   27.68    5.26
   4   3   7    9.47    3.44
   4   3   8    6.92    3.27
   4   3   8    2.18    2.06
   4   3   9   -0.90    1.33
   4   3   9   -0.06    1.34
   4   3  10    1.11    1.31
   4   3  10   -0.02    1.30
   4   3  11   21.28    2.74
   4   3  11    2.00    2.41
   4   3  12   -1.07    1.01
   4   3  12    0.62    0.89
   4   4 -16   -1.49    1.56
   4   4 -15    4.55    2.27
   4   4 -15    4.71    2.19
   4   4 -14   10.37    3.06
   4   4 -14    2.50    2.64
   4   4 -13    2.89    4.18
   4   4 -13    1.93    2.16
   4   4 -12    2.18    4.88
   4   4 -12    1.87    2.20
   4   4 -11    1.48    3.05
   4   4 -11    1.56    2.11
   4   4 -10    1.97    2.81
   4   4 -10    0.53    1.96
   4   4  -9   52.81    7.21
   4   4  -9    8.28    4.60
   4   4  -8    2.88    3.12
   4   4  -8    0.81    3.44
   4   4  -7    8.63    4.59
   4   4  -6    3.74    3.39
   4   4  -5   62.59   13.65
   4   4  -5   51.08    5.57
   4   4  -4    6.25    3.97
   4   4  -4    0.60    1.55
   4   4  -3   11.29    6.16
   4   4  -3    9.23    2.51
   4   4  -2    7.22    6.00
   4   4  -2   11.76    4.20
   4   4  -1    4.42    4.12
   4   4  -1    3.19    1.91
   4   4   0    8.97    2.56
   4   4   1    0.24    1.26
   4   4   2   17.81    4.37
   4   4   2   24.87    3.97
   4   4   3    1.97    2.14
   4   4   3    1.43    2.89
   4   4   4    7.01    3.07
   4   4   4    3.73    4.10
   4   4   5    1.50    1.34
   4   4   5    0.77    1.69
   4   4   6    0.84    1.30
   4   4   6    1.02    1.57
   4   4   7   -1.22    1.30
   4   4   7   -0.09    1.53
   4   4   8    3.13    1.58
   4   4   8    1.13    1.78
   4   4   9    8.76    2.10
   4   4   9    2.95    2.22
   4   4  10   -0.26    1.07
   4   4  10    1.17    1.10
   4   4  11   -1.96    2.20
   4   5 -15    0.05    1.11
   4   5 -14    0.65    1.53
   4   5 -14   -0.12    1.54
   4   5 -13    7.29    5.34
   4   5 -12    1.77    2.35
  -4  -5  12    0.62    1.17
   4   5 -11    2.66    2.81
  -4  -5  11    1.53    1.41
   4   5 -10   -1.12    4.19
  -4  -5  10   13.39    3.65
   4   5  -9   13.90    5.10
  -4  -5   9   10.65    2.71
   4   5  -8   93.41   13.48
  -4  -5   8   79.72    7.61
   4   5  -7    1.63    3.86
  -4  -5   7    6.48    2.19
   4   5  -6    6.71    6.80
   4   5  -5    8.70    7.19
   4   5  -5   10.58    2.76
   4   5  -4    3.14    4.61
   4   5  -4    2.71    1.91
   4   5  -3    1.84    4.72
   4   5  -3    3.74    2.02
   4   5  -2   -0.04    3.44
   4   5  -2    1.28    2.59
   4   5  -1   18.24    7.42
   4   5  -1   17.63    5.98
   4   5   0   25.53    4.62
   4   5   1   34.64    5.29
   4   5   2   10.30    3.05
   4   5   3    2.35    1.33
   4   5   3    2.75    1.99
   4   5   4    0.63    1.13
   4   5   4    1.39    1.60
   4   5   5   -0.60    1.09
   4   5   5   -0.46    2.38
   4   5   6   -0.23    0.85
   4   5   6    1.17    1.80
   4   5   7    0.77    1.04
   4   5   7   -1.50    2.09
   4   5   8    0.01    1.60
   4   5   9    1.11    2.08
   4   5  10   -0.29    1.08
  -4  -5 -10    2.86    1.38
   4   6 -14    1.92    1.76
   4   6 -13    1.52    3.25
   4   6 -12    0.44    1.98
  -4  -6  12    0.40    0.96
   4   6 -11    1.08    1.96
  -4  -6  11   -0.45    0.98
   4   6 -10    2.40    2.63
  -4  -6  10    0.60    2.26
   4   6  -9    9.46    3.76
  -4  -6   9    4.57    2.03
   4   6  -8   27.51    6.55
  -4  -6   8   23.29    3.78
   4   6  -7   14.99    5.66
  -4  -6   7   17.60    3.42
   4   6  -6   16.95    9.28
   4   6  -5    2.46    4.89
   4   6  -5    2.82    1.97
   4   6  -4    4.81    5.11
   4   6  -4    4.05    2.23
   4   6  -3    0.14    3.86
   4   6  -3    1.63    1.75
   4   6  -2    4.53    4.12
   4   6  -2    2.31    1.99
   4   6  -1   -4.78    3.81
   4   6   0   21.37    6.26
   4   6   1    6.47    2.56
   4   6   2   10.84    2.99
   4   6   3    1.90    1.79
   4   6   4    2.24    1.82
   4   6   5    0.41    1.33
  -4  -6  -5    0.52    1.20
   4   6   6   -0.65    1.45
  -4  -6  -6   -1.90    1.42
   4   6   7   -0.46    1.06
  -4  -6  -7    0.87    1.07
   4   6   8   -2.04    1.13
  -4  -6  -8    0.19    1.18
   4   7 -12   -4.79    4.61
   4   7 -11    9.83    3.35
  -4  -7  11    6.19    1.69
   4   7 -10    4.74    2.97
  -4  -7  10    4.00    1.60
   4   7  -9    3.11    2.74
  -4  -7   9    1.13    2.30
   4   7  -8   -0.46    2.32
  -4  -7   8    1.38    1.29
   4   7  -7   -0.24    1.89
  -4  -7   7   -0.11    1.10
   4   7  -6    1.54    2.29
  -4  -7   6    0.83    1.43
   4   7  -5    3.13    4.68
   4   7  -4    1.79    3.85
   4   7  -4    1.98    1.74
   4   7  -3    1.24    2.04
   4   7  -3    1.18    1.62
   4   7  -2   -0.03    1.38
   4   7  -2   -0.08    1.21
   4   7  -1    3.33    2.01
   4   7   0    0.68    1.47
   4   7   1   15.17    5.17
   4   7   2    3.20    3.11
   4   7   3    1.45    2.52
   4   7   4    1.90    1.50
   4   7   5    2.23    1.56
   4   7   6   15.03    2.56
   4   8 -10   -0.59    1.67
   4   8  -9   -2.56    2.33
   4   8  -8   -3.07    2.58
   4   8  -7    1.37    2.01
  -4  -8   7    1.23    1.18
   4   8  -6    0.28    1.73
  -4  -8   6    0.68    1.11
   4   8  -5    1.05    1.73
  -4  -8   5    0.64    1.20
   4   8  -4    1.96    1.96
   4   8  -3    1.02    1.51
   4   8  -2   -0.52    1.25
   4   8  -1    2.07    1.58
   4   8   0    0.02    1.02
   4   8   1   26.34    3.97
   4   8   2   -0.65    1.22
   5 -10  -2    6.95    2.19
  -5  10   2    2.98    1.75
  -5  10   2    6.79    2.52
   5 -10  -1   -1.00    1.54
  -5  10   1    1.70    1.14
  -5  10   1    0.53    1.64
   5 -10   0   18.02    3.07
  -5  10   0    9.43    2.05
  -5  10   0    5.30    1.89
   5 -10   1   -0.23    1.72
  -5  10  -1   -0.65    1.05
  -5  10  -1   -1.00    1.07
  -5  10  -2   -0.16    1.22
   5 -10   3    3.70    1.79
  -5  10  -3    0.93    1.33
  -5  10  -3   -0.43    0.99
   5 -10   4    0.19    3.45
  -5  10  -4    2.28    1.20
   5 -10   5   -1.06    2.65
  -5  10  -5    3.31    1.96
   5 -10   6   -2.73    1.39
  -5  10  -6   -0.62    0.99
   5 -10   7    1.34    1.22
  -5   9   6   -0.34    1.60
  -5   9   6    0.25    0.81
   5  -9  -5    2.07    1.62
  -5   9   5   -0.80    2.32
  -5   9   5    4.04    1.35
   5  -9  -4    1.19    1.33
  -5   9   4    1.45    1.75
  -5   9   4   -0.23    1.05
   5  -9  -3   -0.19    1.52
  -5   9   3    1.47    1.79
  -5   9   3    0.55    1.11
   5  -9  -2    9.70    2.75
  -5   9   2    2.63    3.10
  -5   9   2    6.20    2.00
   5  -9  -1    3.46    2.48
  -5   9   1   11.55    2.70
  -5   9   1    0.59    1.73
   5  -9   0    2.83    2.46
  -5   9   0    2.76    2.83
  -5   9   0    3.48    2.71
   5  -9   1    2.40    2.16
  -5   9  -1    1.65    1.39
  -5   9  -1   -0.07    2.19
   5  -9   2    6.40    2.83
  -5   9  -2    3.73    1.73
  -5   9  -2    5.66    1.77
   5  -9   3    0.43    1.83
  -5   9  -3    0.43    0.98
  -5   9  -3    0.82    1.11
   5  -9   4    0.14    1.96
  -5   9  -4    1.00    1.12
   5  -9   5   44.47    4.61
  -5   9  -5    0.30    1.55
   5  -9   6    1.19    2.53
  -5   9  -6    0.64    1.76
   5  -9   7    2.16    1.65
  -5   9  -7    1.51    1.10
   5  -9   8    0.90    1.20
  -5   9  -8    0.23    0.81
   5  -9   9    0.32    1.77
  -5   8   8    0.66    1.15
  -5   8   8    4.63    1.84
  -5   8   7    2.80    1.37
  -5   8   7    1.40    2.10
   5  -8  -6    0.95    1.17
  -5   8   6    0.31    1.06
  -5   8   6   -0.41    1.73
   5  -8  -5    2.99    2.92
  -5   8   5    2.29    1.47
  -5   8   5    1.27    2.40
   5  -8  -4    6.79    4.01
  -5   8   4    5.28    2.03
  -5   8   4    5.07    1.94
   5  -8  -3    5.64    4.19
  -5   8   3    5.47    1.91
  -5   8   3    3.38    1.89
   5  -8  -2    0.38    2.87
  -5   8   2    0.75    1.22
  -5   8   2    0.38    1.25
   5  -8  -1    1.64    2.14
  -5   8   1    1.59    1.36
  -5   8   1    0.85    1.43
   5  -8   0    6.72    3.09
  -5   8   0    5.05    1.83
  -5   8   0    4.28    1.99
   5  -8   1    6.71    2.96
  -5   8  -1    3.07    1.63
  -5   8  -1    4.86    3.06
   5  -8   2   10.53    3.51
  -5   8  -2    4.23    2.88
  -5   8  -2    7.43    3.27
   5  -8   3   -0.79    1.76
  -5   8  -3    1.49    1.62
  -5   8  -3   -0.01    1.03
   5  -8   4    5.82    3.24
  -5   8  -4    6.15    1.84
   5  -8   5    7.19    2.99
  -5   8  -5    4.28    1.66
   5  -8   6   -0.35    2.91
  -5   8  -6    1.57    1.90
   5  -8   7    0.17    1.62
  -5   8  -7   -0.17    1.91
  -5   8  -7    1.22    1.05
   5  -8   8   -1.22    1.45
  -5   8  -8   -0.07    1.80
  -5   8  -8   -0.19    0.90
   5  -8   9    0.28    1.25
  -5   8  -9   -0.16    0.85
  -5   8  -9    1.02    1.21
   5  -8  10    1.83    1.73
  -5   8 -10    0.60    0.92
   5  -8  11   -0.26    0.77
  -5   7  10    1.49    0.96
  -5   7   9   -0.54    0.97
  -5   7   9   -0.45    0.97
  -5   7   8    0.07    1.05
  -5   7   8    0.90    1.07
  -5   7   7    1.62    1.37
  -5   7   7    1.27    1.39
   5  -7  -6    4.03    2.07
  -5   7   6    5.49    3.18
  -5   7   6    4.29    1.94
   5  -7  -5    5.09    3.65
  -5   7   5    4.29    3.17
  -5   7   5    2.95    3.18
   5  -7  -4    2.10    2.58
  -5   7   4   -0.92    2.08
  -5   7   4   -1.56    2.15
   5  -7  -3    5.09    4.11
  -5   7   3    2.59    3.11
  -5   7   3    3.72    2.99
   5  -7  -2    3.26    4.02
  -5   7   2   -2.22    2.89
  -5   7   2    4.29    1.73
   5  -7  -1    0.54    2.18
  -5   7   1   -0.13    1.40
  -5   7   1   -2.95    1.48
   5  -7   0   77.38    9.24
  -5   7   0   48.09    5.79
  -5   7   0   55.31    6.14
   5  -7   1    4.33    2.53
  -5   7  -1    1.38    1.38
  -5   7  -1    0.67    1.71
   5  -7   2   28.49    4.24
  -5   7  -2   37.54    4.24
  -5   7  -2   53.89    6.82
   5  -7   3   -0.33    1.07
   5  -7   3    0.11    1.97
  -5   7  -3    1.03    1.13
   5  -7   4    4.10    3.04
   5  -7   5   32.51   10.00
   5  -7   6   -0.73    3.17
  -5   7  -6   -1.16    1.90
   5  -7   7    2.59    1.94
  -5   7  -7   -0.33    1.99
   5  -7   8    1.18    1.90
  -5   7  -8    1.94    2.07
   5  -7   9    1.99    1.96
  -5   7  -9    2.64    2.19
  -5   7 -10    0.43    2.48
   5  -7  11    1.83    1.25
  -5   7 -11    1.73    1.41
   5  -7  12    2.72    1.17
  -5   7 -12    2.15    1.45
  -5   6  11   -0.09    0.81
  -5   6  11    0.75    0.81
  -5   6  10    2.57    1.88
  -5   6  10    0.63    1.11
  -5   6   9    2.51    2.03
  -5   6   9   -0.20    1.12
  -5   6   8    3.65    1.69
  -5   6   8    1.05    1.54
  -5   6   7    2.20    1.62
  -5   6   7    0.43    1.44
  -5   6   6   -0.15    1.51
  -5   6   6    1.95    1.42
   5  -6  -5    0.59    2.40
  -5   6   5   -2.55    1.37
  -5   6   5    1.31    1.24
   5  -6  -4    0.80    1.40
   5  -6  -4    1.86    2.72
  -5   6   4   -0.08    1.44
  -5   6   4    0.81    1.32
   5  -6  -3    0.94    1.82
   5  -6  -3    1.82    3.47
  -5   6   3    3.20    1.72
  -5   6   3    0.38    2.69
   5  -6  -2    0.93    1.94
   5  -6  -2    2.05    2.40
  -5   6   2    3.94    1.80
   5  -6  -1   -0.82    1.68
   5  -6  -1    1.26    2.15
  -5   6   1   -2.29    1.49
   5  -6   0   43.75    6.18
   5  -6   0   50.28    7.58
  -5   6   0   32.37    5.00
   5  -6   1    0.18    2.17
   5  -6   1    0.75    1.70
  -5   6  -1   -0.72    1.51
   5  -6   2   83.13    8.25
   5  -6   2   98.35   12.09
   5  -6   3    0.53    1.53
   5  -6   3    4.06    2.51
   5  -6   4    6.95    2.22
   5  -6   4    4.26    3.44
   5  -6   5    0.23    1.39
   5  -6   5    3.12    3.59
   5  -6   5    1.99    3.07
  -5   6  -7   -1.33    2.33
  -5   6  -8    0.52    2.01
   5  -6   9   -0.31    1.60
  -5   6  -9   -0.64    2.01
   5  -6  10   -0.90    2.68
  -5   6 -10    4.34    2.47
  -5   6 -11    3.93    4.15
   5  -6  12   -0.58    1.01
  -5   6 -12   -0.42    1.32
   5  -6  13    0.56    1.20
  -5   6 -13   -2.31    1.26
  -5   5  12   10.21    2.68
  -5   5  11   -0.18    0.88
  -5   5  11    0.28    0.77
   5  -5 -10    5.89    3.70
  -5   5  10   11.77    2.25
  -5   5  10    3.92    1.90
   5  -5  -9    0.54    1.47
  -5   5   9    0.39    1.34
  -5   5   9    1.02    1.16
   5  -5  -8    1.47    1.32
  -5   5   8   -0.87    1.20
  -5   5   8    0.03    1.02
   5  -5  -7   -0.70    2.07
  -5   5   7    3.90    1.84
   5  -5  -6    3.87    2.40
  -5   5   6    2.78    1.98
   5  -5  -5    7.37    4.98
  -5   5   5    5.81    2.37
   5  -5  -4   -0.02    3.36
   5  -5  -4   -1.36    1.77
  -5   5   4   -1.20    1.57
   5  -5  -3    4.66    3.24
   5  -5  -3    0.98    2.05
  -5   5   3    1.57    1.71
   5  -5  -2    0.84    1.99
   5  -5  -2    1.50    2.09
  -5   5   2    1.95    1.58
   5  -5  -1   33.64    5.64
   5  -5  -1   35.03    5.77
  -5   5   1   26.19    4.35
   5  -5   0   58.25    7.62
   5  -5   0   54.73    7.67
  -5   5   0   37.68    5.30
   5  -5   1   43.20    6.77
   5  -5   1   40.29    7.20
   5  -5   2    2.43    4.00
   5  -5   2    3.68    2.76
   5  -5   3    1.44    2.37
   5  -5   3    0.62    2.23
   5  -5   4    1.32    1.50
   5  -5   4    1.60    3.80
   5  -5   5    2.75    1.80
   5  -5   6    0.86    1.47
   5  -5   7   -1.57    2.17
  -5   5  -8   18.38    5.21
  -5   5  -9    0.23    1.99
   5  -5  10    0.42    1.58
  -5   5 -10    2.68    2.35
   5  -5  11   13.17    2.93
  -5   5 -11   16.08    6.48
   5  -5  12   -0.36    1.03
  -5   5 -12    0.10    1.31
   5  -5  13   -0.12    1.47
  -5   5 -13   -2.13    1.51
  -5   4  13    0.65    0.86
   5  -4 -12   -0.05    0.98
  -5   4  12    0.04    0.79
   5  -4 -11    1.41    1.62
  -5   4  11    1.13    1.35
   5  -4 -10    1.99    2.12
  -5   4  10    3.00    1.71
   5  -4  -9    1.70    2.05
  -5   4   9    1.33    2.65
   5  -4  -8   10.09    3.59
  -5   4   8    9.48    5.62
   5  -4  -7    6.96    3.37
  -5   4   7    8.99    5.29
   5  -4  -6   12.79    4.48
  -5   4   6   16.70    4.21
   5  -4  -5    0.33    2.30
  -5   4   5    2.84    2.21
   5  -4  -4   -0.73    1.69
  -5   4   4    0.32    1.52
   5  -4  -3   -1.15    2.03
   5  -4  -3    0.54    1.64
  -5   4   3   -2.03    1.83
   5  -4  -2    3.84    4.38
   5  -4  -2    2.89    2.19
  -5   4   2    1.11    3.57
   5  -4  -1    2.11    2.14
   5  -4  -1    1.91    2.12
  -5   4   1    1.54    2.41
   5  -4   0    3.58    2.30
   5  -4   0    2.33    2.36
  -5   4   0    2.22    2.46
   5  -4   1    5.20    2.47
   5  -4   1    3.64    2.61
  -5   4  -1    2.91    1.50
   5  -4   2    4.38    2.66
   5  -4   2    3.99    4.73
   5  -4   3    2.66    3.83
   5  -4   4    4.66    2.11
   5  -4   5   -0.58    1.40
   5  -4   5   -0.61    1.78
   5  -4   6    0.79    1.47
   5  -4   7   -0.34    1.34
   5  -4   9   19.79    3.99
  -5   4  -9   21.36    5.45
   5  -4  10    2.63    1.90
  -5   4 -10    2.06    2.64
   5  -4  11    6.77    2.54
  -5   4 -11   11.74    3.61
   5  -4  12   17.04    4.32
  -5   4 -12    2.33    5.62
   5  -4  13   -0.77    0.85
  -5   4 -13    0.77    1.27
   5  -4  14   -0.80    0.79
  -5   4 -14   -2.55    1.39
   5  -3 -14    3.86    1.68
  -5   3  14    5.08    1.00
   5  -3 -13    0.69    1.47
  -5   3  13    0.96    1.02
   5  -3 -12    0.52    1.67
  -5   3  12   -1.52    1.22
   5  -3 -11    1.37    2.01
  -5   3  11    1.56    3.00
   5  -3 -10    1.93    2.25
  -5   3  10    1.63    1.99
   5  -3  -9   -1.22    2.49
  -5   3   9   -2.74    2.26
   5  -3  -8   35.03    7.00
   5  -3  -7    0.24    1.92
   5  -3  -6   59.35    8.72
  -5   3   6   50.58    7.86
   5  -3  -5    9.89    3.54
  -5   3   5    4.68    2.95
   5  -3  -4  137.31   14.50
  -5   3   4   95.91   12.05
   5  -3  -3  149.80   15.63
  -5   3   3  102.12   12.27
   5  -3  -2   23.37    5.32
   5  -3  -2   14.30    5.85
  -5   3   2   15.96    3.78
   5  -3  -1   39.74    8.29
   5  -3  -1   32.68    7.55
  -5   3   1   21.60    4.28
   5  -3   0   22.43    4.98
   5  -3   0   30.85    6.95
   5  -3   1   17.82    4.23
   5  -3   2    0.07    2.14
   5  -3   2   -3.63    2.17
   5  -3   3   23.41    4.58
   5  -3   3   17.00    4.31
   5  -3   4    1.18    2.49
   5  -3   5    0.58    1.42
   5  -3   6    0.09    1.22
   5  -3   7    0.53    1.54
   5  -3   7    3.08    3.27
   5  -3   8    8.06    2.86
   5  -3   9    8.22    2.65
  -5   3  -9    4.74    3.29
   5  -3  10    2.01    1.75
  -5   3 -10    1.35    2.28
   5  -3  11    0.06    1.19
  -5   3 -11    0.09    1.52
   5  -3  12    3.31    3.65
  -5   3 -12   27.56    5.35
   5  -3  13    0.66    1.06
  -5   3 -13    2.01    1.46
   5  -3  14    2.15    1.01
  -5   3 -14    2.53    1.43
   5  -2 -14    4.15    1.65
  -5   2  14    0.05    0.95
   5  -2 -13    2.67    2.45
  -5   2  13   -1.35    1.58
   5  -2 -12    0.54    2.76
  -5   2  12    0.34    1.38
  -5   2  11    1.51    1.84
   5  -2 -10    9.48    4.87
  -5   2  10    1.50    2.25
   5  -2  -9    0.35    3.60
  -5   2   9    0.53    1.75
   5  -2  -8   -0.51    3.26
  -5   2   8    0.54    1.73
   5  -2  -7    6.70    4.47
  -5   2   7    1.53    2.39
   5  -2  -6    0.91    1.90
  -5   2   6   -0.86    1.55
   5  -2  -5    2.75    2.87
   5  -2  -4    4.95    3.16
   5  -2  -3    9.99    3.35
  -5   2   3    3.60    2.56
   5  -2  -2    2.37    2.71
   5  -2  -2    2.79    1.67
  -5   2   2    2.68    1.92
   5  -2  -1   -2.78    3.18
   5  -2  -1    0.20    1.24
  -5   2   1   -0.41    1.26
   5  -2   0    2.69    1.62
   5  -2   0   -3.12    1.28
  -5   2   0    0.11    1.11
   5  -2   1   46.82    6.27
   5  -2   1   29.67    5.39
   5  -2   2   -3.59    2.49
   5  -2   3   66.14    7.93
   5  -2   3   45.04    7.23
   5  -2   4    0.68    2.56
   5  -2   4   -2.76    1.91
   5  -2   5   19.42    3.59
   5  -2   5   21.92    6.96
   5  -2   6    0.38    1.40
   5  -2   6    1.47    2.42
   5  -2   7    1.51    1.75
   5  -2   7    3.57    1.95
   5  -2   8    2.03    1.96
   5  -2   9    3.53    2.14
  -5   2  -9    3.18    2.42
   5  -2  10    0.27    2.15
  -5   2 -10    0.00    1.43
   5  -2  11   -0.38    1.80
  -5   2 -11    0.88    2.18
   5  -2  12   -1.94    1.32
  -5   2 -12   -0.06    1.47
   5  -2  13    0.06    1.06
  -5   2 -13    1.62    1.20
   5  -1 -15   -1.51    1.64
   5  -1 -14    3.54    2.45
  -5   1  14   -1.16    1.77
   5  -1 -13    8.86    5.03
  -5   1  13    4.74    2.09
   5  -1 -12    2.65    3.53
  -5   1  12   -1.37    1.58
   5  -1 -11    4.17    4.39
  -5   1  11    1.91    2.05
  -5   1  10    2.70    2.33
   5  -1  -9   38.11   12.94
   5  -1  -8   24.88   10.69
   5  -1  -7  112.26   16.54
   5  -1  -7  117.57   20.57
   5  -1  -6  110.85   15.89
   5  -1  -6  120.85   20.74
   5  -1  -5    1.73    2.76
   5  -1  -5    2.78    2.64
   5  -1  -4   38.73    7.87
   5  -1  -4   54.21    7.74
   5  -1  -3    2.70    2.71
   5  -1  -3    4.59    2.86
   5  -1  -2    2.27    2.49
   5  -1  -1   10.33    5.44
   5  -1  -1    5.25    2.13
   5  -1   0   -0.52    1.38
   5  -1   0    1.16    1.73
   5  -1   1   21.06    4.17
   5  -1   1   11.61    5.47
   5  -1   2    2.82    2.01
   5  -1   2   -1.60    2.87
   5  -1   3   13.04    3.48
   5  -1   3    9.15    4.26
   5  -1   4    7.76    3.68
   5  -1   4    7.36    2.41
   5  -1   5    5.25    2.10
   5  -1   5    5.30    2.22
   5  -1   6    3.10    1.81
   5  -1   6    3.25    1.99
   5  -1   7    1.07    1.66
   5  -1   8    1.19    1.64
  -5   1  -8    0.60    1.67
   5  -1   9    5.20    3.60
  -5   1  -9    2.89    2.16
   5  -1  10   -1.15    1.15
  -5   1 -10    1.02    1.23
   5  -1  11   18.94    3.25
  -5   1 -11   15.68    5.15
   5  -1  12   38.19    4.19
  -5   1 -12   28.70    3.89
   5  -1  13    0.17    2.83
  -5   1 -13    9.39    1.63
   5   0 -15    5.25    4.50
  -5   0  15   10.42    2.70
   5   0 -14    5.49    3.76
  -5   0  14    1.96    1.52
   5   0 -13  103.80   11.60
  -5   0  13   34.44    4.89
   5   0 -12    8.49    3.16
  -5   0  12    2.74    2.34
   5   0 -11    1.47    2.58
   5   0 -10    7.28    4.05
   5   0  -9   -1.46    2.52
   5   0  -9    0.83    3.97
   5   0  -8   27.40    7.24
   5   0  -8   31.42   10.82
   5   0  -7   43.11   10.03
   5   0  -7   52.24   12.63
   5   0  -6   13.10    5.67
   5   0  -6   19.29    4.94
   5   0  -5   30.69    7.21
   5   0  -5   41.76    6.84
   5   0  -4    6.69    3.63
   5   0  -4    9.61    3.58
   5   0  -3    1.11    1.96
   5   0  -3    0.48    2.02
   5   0  -2   -0.82    1.41
   5   0  -2    0.98    1.54
   5   0  -1    0.20    1.50
   5   0  -1    0.49    2.80
   5   0   0    3.67    2.12
   5   0   0    1.99    1.40
   5   0   1   -0.34    1.64
   5   0   1    1.15    1.13
   5   0   2    1.23    1.52
   5   0   2   -0.17    1.16
   5   0   3    6.90    4.11
   5   0   3    4.15    2.02
   5   0   4    1.31    1.47
   5   0   4    2.31    1.60
   5   0   5    1.03    1.37
   5   0   5    1.76    1.58
   5   0   6    1.61    1.38
   5   0   6    1.10    1.68
   5   0   7   -0.11    2.15
   5   0   8    4.42    1.99
  -5   0  -8    3.30    1.96
   5   0   9    2.46    1.73
  -5   0  -9    2.66    1.63
   5   0  10   10.07    2.60
   5   0  11    1.22    1.75
  -5   0 -11    5.37    1.42
   5   0  12    6.70    3.09
   5   1 -15   -0.52    5.75
  -5  -1  15   23.88    2.56
   5   1 -14    1.22    2.52
  -5  -1  14   -0.37    1.07
   5   1 -13   -2.00    4.00
   5   1 -12    2.80    4.49
   5   1 -11    6.81    3.57
   5   1 -11    3.54    5.59
   5   1 -10    2.24    3.01
   5   1  -9   11.55    4.87
   5   1  -9   13.14    7.53
   5   1  -8   14.32    5.58
   5   1  -8   21.65    7.86
   5   1  -7  179.24   23.20
   5   1  -7  201.12   28.97
   5   1  -6   19.50    6.37
   5   1  -6   27.44    5.79
   5   1  -5   48.11    9.32
   5   1  -5   65.50    8.96
   5   1  -4   27.09    6.29
   5   1  -4   34.67    6.20
   5   1  -3    0.56    2.03
   5   1  -3    1.47    2.05
   5   1  -2   -0.79    1.71
   5   1  -2    0.36    2.93
   5   1  -1    0.46    1.83
   5   1  -1    1.98    1.75
   5   1   0   15.92    3.50
   5   1   1    2.17    1.81
   5   1   1    1.24    2.18
   5   1   2   -0.37    2.20
   5   1   2   -0.04    1.71
   5   1   3    3.37    1.64
   5   1   3    5.87    2.98
   5   1   4    0.98    1.19
   5   1   4    0.96    1.99
   5   1   5    2.62    1.23
   5   1   5   -0.58    1.40
   5   1   6   10.90    2.60
   5   1   7   18.66    2.82
  -5  -1  -7    7.75    2.48
   5   1   8    9.51    2.46
   5   1   9    7.63    2.22
   5   1  10   29.87    5.96
   5   1  11    4.56    2.82
   5   1  12    7.51    1.76
   5   2 -14    6.45    4.11
  -5  -2  14    5.62    2.03
   5   2 -13    0.25    2.39
   5   2 -12    1.80    2.55
   5   2 -12    3.54    3.86
   5   2 -11    0.73    2.09
   5   2 -11   -0.47    3.06
   5   2 -10    6.90    4.00
   5   2 -10    9.93    5.36
   5   2  -9   12.78    4.57
   5   2  -9    4.92    6.37
   5   2  -8   17.37    6.01
   5   2  -8   21.14    5.04
   5   2  -7   53.00   10.58
   5   2  -7   61.88    8.69
   5   2  -6    6.63    5.14
   5   2  -6    2.46    2.67
   5   2  -5   37.55   12.09
   5   2  -5   44.44    6.96
   5   2  -4   -1.43    3.35
   5   2  -4    1.47    1.85
   5   2  -3    4.87    4.65
   5   2  -3    5.06    4.34
   5   2  -2    2.82    2.61
   5   2  -2    5.04    2.12
   5   2  -1    0.28    1.29
   5   2   0    3.55    1.93
   5   2   1    2.45    2.86
   5   2   2    8.57    1.94
   5   2   3    5.66    1.72
   5   2   4    0.96    1.18
   5   2   5    0.66    1.17
   5   2   6   -0.50    1.14
   5   2   7    0.85    1.23
   5   2   8    3.76    2.65
   5   2   9   -1.05    2.05
   5   2  10    2.57    1.42
   5   2  11   14.57    2.22
   5   3 -14   11.15    2.55
   5   3 -13    6.77    3.09
   5   3 -13    8.18    2.39
   5   3 -12    1.20    2.13
   5   3 -12    0.83    1.55
   5   3 -11    1.57    2.38
   5   3 -11    1.09    1.72
   5   3 -10    0.24    1.93
   5   3 -10    0.21    1.45
   5   3  -9    3.22    3.03
   5   3  -9    2.50    2.25
   5   3  -8   -7.21    5.91
   5   3  -8    7.09    2.61
   5   3  -7    1.51    3.57
   5   3  -7   -0.03    1.47
   5   3  -6   21.77    8.96
   5   3  -6   14.07    3.85
   5   3  -5    7.16    6.09
   5   3  -5    5.53    2.62
   5   3  -4    1.28    4.05
   5   3  -3   11.32    6.84
   5   3  -2    1.18    3.15
   5   3   3    2.14    2.03
   5   3   4   13.26    3.77
   5   3   5   -0.22    1.54
   5   3   6    0.66    1.07
   5   3   7    2.44    1.34
   5   3   8    0.89    1.07
   5   3   9   -2.44    1.26
   5   3  10   -0.75    0.91
   5   4 -13    1.05    1.80
   5   4 -12    0.72    1.91
   5   4 -12    0.90    1.07
   5   4 -11   -1.11    1.76
   5   4 -11    0.18    1.02
   5   4 -10    3.26    2.61
   5   4 -10    1.55    1.56
   5   4  -9    0.35    3.17
   5   4  -8    3.85    5.36
   5   4  -7   -0.68    3.85
   5   4  -6    1.02    4.04
   5   4  -5    7.46    3.89
   5   4  -4   -3.70    4.97
   5   4  -3    3.47    4.44
   5   4   4    1.68    1.04
   5   4   5   -0.10    0.75
   5   4   6    0.15    0.77
   5   4   7    1.60    1.02
   5   5 -12   -3.26    2.19
   5   5 -11   13.96    3.79
   5   5 -10    1.42    2.07
   5   5  -9    0.48    2.99
   5   5  -8    8.73    6.32
   5   5  -6   10.14    6.55
   5   5  -5    2.14    4.12
   5   5  -4    4.52    4.71
   5   5  -3    0.34    2.63
   5   6 -10   -3.44    2.14
   5   6  -9    8.89    3.18
   5   6  -8   -0.87    2.82
   5   6  -7    0.64    2.95
   5   6  -6    4.06    4.22
   5   6  -5    1.01    2.95
   5   6  -4    1.02    2.43
  -6   8   4   -0.44    0.84
   6  -8  -3    0.76    0.81
  -6   8   3   -0.19    0.78
   6  -8  -2    5.51    2.93
  -6   8   2    5.90    1.43
   6  -8  -1    0.87    1.94
  -6   8   1    0.49    1.33
   6  -8   0    0.43    2.03
  -6   8   0   -0.81    1.40
   6  -8   1   -0.83    1.32
  -6   8  -1   -0.27    0.71
   6  -8   2    0.57    1.44
   6  -8   3    1.73    1.77
   6  -8   4   -4.97    2.37
   6  -8   5    8.44    2.65
   6  -8   6    5.46    2.14
  -6   7   6    1.26    1.09
  -6   7   5    0.38    0.96
   6  -7  -4    1.44    0.90
  -6   7   4   -0.31    1.03
   6  -7  -3    1.52    1.60
  -6   7   3   -0.11    0.92
   6  -7  -2   -1.46    1.97
  -6   7   2   -0.39    0.97
   6  -7  -1   -0.06    0.79
   6  -7  -1    2.12    2.11
  -6   7   1    1.02    0.92
   6  -7   0    0.07    0.90
   6  -7   0    2.79    2.47
  -6   7   0    1.42    0.92
   6  -7   1    2.59    1.14
   6  -7   1    4.01    1.91
  -6   7  -1    1.24    0.99
   6  -7   2    4.42    2.48
   6  -7   3    6.82    2.90
   6  -7   4   49.01    5.91
  -6   7  -4   24.43    5.36
   6  -7   5    6.38    2.47
  -6   7  -5    3.50    2.38
   6  -7   6    0.39    1.38
  -6   7  -6    0.21    1.43
  -6   7  -7    1.86    1.78
   6  -7   8    2.77    1.47
  -6   7  -8    0.53    2.55
  -6   6   8    4.63    2.41
  -6   6   7   -3.12    2.53
   6  -6  -6    0.70    1.54
  -6   6   6    0.55    1.90
   6  -6  -5   -3.20    2.10
  -6   6   5    0.64    2.29
   6  -6  -4    2.86    1.96
  -6   6   4   -1.99    1.97
   6  -6  -3   -0.56    2.05
   6  -6  -3    0.58    1.08
  -6   6   3    0.50    1.79
   6  -6  -2    0.52    1.79
   6  -6  -2    0.78    2.14
  -6   6   2    0.85    1.78
   6  -6  -1    0.20    1.99
   6  -6  -1    1.34    2.44
  -6   6   1    1.60    1.78
   6  -6   0    2.33    1.53
   6  -6   0    3.54    1.88
  -6   6   0    1.52    1.18
   6  -6   1    1.56    1.52
   6  -6   1    1.67    1.88
   6  -6   2   25.05    4.02
   6  -6   2   29.31    4.98
   6  -6   3   -2.49    1.48
   6  -6   3    1.14    1.90
   6  -6   4   32.38    4.50
   6  -6   4   29.59    5.58
   6  -6   5   -0.22    1.60
   6  -6   6    3.23    2.41
  -6   6  -6    4.69    2.76
  -6   6  -7    3.84    2.63
   6  -6   8   -0.96    1.18
  -6   6  -8    0.47    1.79
   6  -6   9   -3.14    1.52
  -6   6  -9   -1.58    3.26
  -6   5   9   -1.49    1.22
   6  -5  -8    0.60    1.15
  -6   5   8    1.66    1.28
   6  -5  -7   -0.23    1.09
  -6   5   7    0.78    1.12
   6  -5  -6    0.98    1.28
  -6   5   6   -1.79    1.24
   6  -5  -5    2.53    1.55
  -6   5   5    0.11    1.41
   6  -5  -4    1.77    1.64
  -6   5   4    0.78    1.37
   6  -5  -3    0.44    1.54
  -6   5   3    0.58    1.19
   6  -5  -2    7.81    2.65
   6  -5  -2    3.72    2.04
  -6   5   2    4.57    1.89
   6  -5  -1   16.08    3.29
   6  -5  -1    8.10    2.69
  -6   5   1    6.23    2.15
   6  -5   0   10.70    4.64
   6  -5   0    4.23    2.33
  -6   5   0    3.09    2.61
   6  -5   1   34.09    7.19
   6  -5   1   26.14    5.02
   6  -5   2   32.21    4.94
   6  -5   2   28.88    5.31
   6  -5   3    1.33    1.69
   6  -5   3    1.86    2.04
   6  -5   4    0.01    1.08
   6  -5   5    2.18    1.64
   6  -5   5    1.52    2.20
   6  -5   6   -0.51    2.78
   6  -5   7    4.36    1.89
  -6   5  -7    2.78    2.89
  -6   5  -8    2.08    2.36
   6  -5   9   -0.16    1.08
  -6   5  -9    1.28    1.69
   6  -5  10    6.82    1.82
  -6   5 -10    1.99    3.96
   6  -4 -10   -0.54    1.21
  -6   4  10   -2.09    1.21
   6  -4  -9    0.35    1.86
  -6   4   9    0.40    1.09
   6  -4  -8    1.45    3.10
  -6   4   8    4.14    1.73
   6  -4  -7    1.49    2.09
  -6   4   7   -0.16    1.11
   6  -4  -6   13.56    4.92
  -6   4   6    9.37    2.58
   6  -4  -5   -0.86    1.43
  -6   4   5    0.63    1.09
   6  -4  -4    1.16    2.02
  -6   4   4    1.52    1.47
   6  -4  -3    1.96    2.09
  -6   4   3    1.16    1.43
   6  -4  -2    0.20    1.78
  -6   4   2   -0.70    1.16
   6  -4  -1   -1.73    2.20
   6  -4  -1    2.20    1.59
  -6   4   1    2.01    1.32
   6  -4   0   -0.90    2.23
   6  -4   0    2.88    1.71
   6  -4   1   -6.74    3.52
   6  -4   1    3.22    1.73
   6  -4   2   23.12    6.22
   6  -4   3    1.37    1.41
   6  -4   3   -1.21    1.65
   6  -4   4    5.30    2.12
   6  -4   4    0.27    4.18
   6  -4   5   -0.67    1.39
   6  -4   6    0.80    1.45
   6  -4   7    0.83    1.24
  -6   4  -7   -0.83    1.88
   6  -4   8   -0.11    1.14
  -6   4  -8    0.67    1.69
   6  -4   9   -0.21    1.05
  -6   4  -9    0.07    1.52
   6  -4  10   -1.32    2.58
  -6   4 -10   -4.27    3.27
   6  -3 -11    5.17    3.03
  -6   3  11    2.81    1.41
   6  -3 -10    2.52    3.25
  -6   3  10    2.70    1.46
   6  -3  -9    0.79    1.53
  -6   3   9   -1.77    1.86
   6  -3  -8   -0.59    2.28
  -6   3   8   -5.49    3.36
   6  -3  -7    1.44    2.93
  -6   3   7   -0.41    2.47
   6  -3  -6    6.27    4.85
  -6   3   6    3.09    3.95
   6  -3  -5    8.73    5.04
  -6   3   5    6.39    4.63
   6  -3  -4   43.15   10.12
  -6   3   4   34.34    8.79
   6  -3  -3    8.00    4.18
  -6   3   3   24.48    5.68
   6  -3  -2   18.30    3.86
  -6   3   2    3.31    3.62
   6  -3  -1    0.94    2.43
  -6   3   1    2.34    1.33
   6  -3   0    0.93    1.88
   6  -3   0   -0.43    2.21
   6  -3   1    2.59    2.41
   6  -3   1    1.30    3.03
   6  -3   2   10.07    4.05
   6  -3   2    2.50    4.47
   6  -3   3    0.63    1.44
   6  -3   4    1.35    1.62
   6  -3   4    1.34    1.55
   6  -3   5    3.96    1.80
   6  -3   5    0.78    1.79
   6  -3   6    0.13    1.19
   6  -3   7    2.22    1.62
  -6   3  -7    1.13    2.24
   6  -3   8   -0.09    1.35
  -6   3  -8   -1.53    1.77
   6  -3   9    0.82    1.94
  -6   3  -9   -0.84    1.47
   6  -3  10   -0.71    1.17
  -6   3 -10   -2.09    2.47
   6  -2 -11    0.30    1.89
  -6   2  11   -4.04    2.25
   6  -2 -10    2.84    2.16
  -6   2  10    2.01    3.08
   6  -2  -9   10.33    3.38
  -6   2   9    6.04    2.68
   6  -2  -8    2.07    2.32
  -6   2   8    1.85    1.92
   6  -2  -7    2.74    2.27
  -6   2   7    0.70    1.86
   6  -2  -6    3.10    2.51
  -6   2   6    1.43    1.97
   6  -2  -5    4.31    4.11
  -6   2   5    1.10    1.91
   6  -2  -4   -4.76    3.30
  -6   2   4   -0.02    1.75
   6  -2  -3    7.53    2.79
  -6   2   3    2.15    2.20
   6  -2  -2   -0.68    1.63
  -6   2   2    0.14    1.18
   6  -2  -1    0.82    1.94
   6  -2   0    9.33    3.39
   6  -2   1   -1.20    1.43
   6  -2   1    0.60    0.88
   6  -2   2    6.30    2.85
   6  -2   2   -0.25    1.47
   6  -2   3    5.29    2.14
   6  -2   3    2.96    1.92
   6  -2   4    2.39    1.70
   6  -2   4    1.40    1.62
   6  -2   5   19.23    3.32
   6  -2   5   14.34    3.20
   6  -2   6    0.67    1.34
   6  -2   7    0.92    2.34
  -6   2  -7    1.03    1.71
   6  -2   8   -0.32    2.07
  -6   2  -8   -2.09    1.69
   6  -2   9    1.00    1.02
  -6   2  -9   -0.58    1.25
   6  -2  10   -0.79    1.05
  -6   2 -10   -1.24    1.97
  -6   1  12    0.11    1.70
   6  -1 -11   16.99    3.57
  -6   1  11    8.95    2.83
   6  -1 -10    0.77    2.00
  -6   1  10    2.08    1.71
   6  -1  -9   21.65    3.86
  -6   1   9    5.01    3.19
   6  -1  -8    3.43    2.49
  -6   1   8    2.26    2.09
   6  -1  -7    1.87    1.56
  -6   1   7   -1.12    1.28
   6  -1  -6    0.08    1.58
  -6   1   6   -0.08    1.30
   6  -1  -5    2.20    5.38
  -6   1   5   -7.58    2.81
   6  -1  -4    0.04    3.79
  -6   1   4    3.20    2.07
   6  -1  -3    2.84    1.84
  -6   1   3   -0.87    1.39
   6  -1  -2    1.71    1.81
  -6   1   2   -0.15    1.27
   6  -1  -1   -1.54    2.08
   6  -1   0   -2.25    2.22
   6  -1   1   13.38    3.78
   6  -1   1    0.07    1.35
   6  -1   2   -2.48    3.59
   6  -1   2    7.97    1.89
   6  -1   3   16.08    3.08
   6  -1   3   11.90    2.75
   6  -1   4   -0.53    1.11
   6  -1   4    0.38    1.06
   6  -1   5    1.98    1.44
   6  -1   5    0.77    2.43
   6  -1   6    0.45    1.71
   6  -1   7   24.17    2.43
  -6   1  -7    1.26    2.69
   6  -1   8    1.41    1.12
  -6   1  -8    0.52    1.22
   6  -1   9    1.46    1.20
   6  -1  10    2.55    1.21
   6   0 -11   19.97    3.40
  -6   0  11    7.58    2.86
   6   0 -10    0.31    1.54
  -6   0  10    0.26    1.33
   6   0  -9    2.63    2.20
  -6   0   9    1.78    1.94
   6   0  -8    0.77    1.61
  -6   0   8   -0.17    1.36
   6   0  -7    3.06    2.59
  -6   0   7    3.23    2.09
   6   0  -6    5.14    5.00
   6   0  -5    8.07    5.78
   6   0  -4   19.82    5.44
  -6   0   4    7.16    2.84
   6   0  -3    3.61    2.36
  -6   0   3    2.56    1.85
   6   0  -2    3.25    2.42
   6   0  -1    6.31    2.84
   6   0   0   -2.52    2.17
   6   0   1    2.11    2.48
   6   0   2    0.08    1.17
   6   0   2    0.72    0.86
   6   0   3    0.31    1.09
   6   0   3   -0.97    0.88
   6   0   4    1.02    1.02
   6   0   4   -0.30    0.90
   6   0   5    0.85    1.03
   6   0   6   -0.23    0.89
   6   0   7    0.85    1.02
   6   0   8    0.83    0.99
   6   0   9    6.30    2.48
   6   1 -11    2.01    1.69
  -6  -1  11    1.35    1.55
   6   1 -10    5.95    2.44
  -6  -1  10    4.98    2.25
   6   1  -9    1.46    1.90
   6   1  -8    2.01    2.13
   6   1  -7   15.02    6.50
   6   1  -6    4.46    3.76
   6   1  -5   25.70    7.27
   6   1  -4   11.61    3.46
   6   1  -3   34.92    5.55
   6   1  -2   -0.18    1.38
   6   1  -1    3.97    2.16
   6   1   0    2.11    2.18
   6   1   1    0.27    0.93
   6   1   2    0.07    0.81
   6   1   3    0.38    0.77
   6   1   3   -0.22    0.68
   6   1   4   -0.06    0.69
   6   1   5    0.33    0.82
   6   1   6    0.28    1.31
   6   1   7   -1.80    1.71
   6   1   8    3.33    1.16
   6   2 -11    1.83    1.30
  -6  -2  11   -0.77    1.00
   6   2 -10    7.36    3.80
   6   2  -9    0.47    1.90
   6   2  -8    1.54    2.38
   6   2  -7    5.96    2.24
   6   2  -6    0.14    1.58
   6   2  -6    0.34    1.19
   6   2  -5   10.50    2.74
   6   2  -4    2.42    1.67
   6   2  -3    9.08    2.46
   6   2  -2   -0.49    1.94
   6   2   4   -0.46    0.66
   6   2   5    0.63    0.71
   6   2   6    2.86    1.00
   6   3  -7   -0.15    1.35
   6   3  -7    0.21    0.72
   6   3  -6    3.67    2.20
   6   3  -5    1.31    1.69
   7  -5  -2    1.43    1.05
   7  -5  -1    1.26    1.09
   7  -5   0   -0.17    0.88
   7  -5   1    2.80    1.32
   7  -4  -3   -2.09    2.09
   7  -4  -2    3.09    1.54
   7  -4  -1   12.86    2.45
   7  -4   0   19.73    2.97
   7  -4   1   35.04    3.74
   7  -4   3   -0.02    0.62
   7  -4   4   67.79    6.74
   7  -3  -5   18.37    2.32
  -7   3   5    3.77    1.20
   7  -3  -3   30.60    7.51
   7  -3  -1   -1.09    1.25
   7  -3   0   -0.48    1.10
   7  -3   1   -2.14    1.40
   7  -3   2    6.13    1.86
   7  -2  -6   -1.20    1.40
   7  -2  -5   -2.19    1.69
  -7   2   5    3.03    0.84
   7  -2  -4   10.65    2.93
   7  -2  -3    8.11    4.53
   7  -2  -2    1.11    1.96
   7  -2  -1    0.11    0.95
   7  -2   0    0.14    0.94
   7  -2   1    0.01    0.86
   7  -2   2    4.20    1.56
  -7   2  -4    1.33    1.43
   7  -1  -5    6.92    2.29
   7  -1  -4   -0.03    1.09
   7  -1  -3  150.30   16.00
   7  -1  -2    4.26    2.57
   7  -1  -1   -0.72    1.07
   7  -1   0    5.17    1.59
   7  -1   1    3.37    1.38
   7  -1   2   -1.41    1.07
   7   0  -5   -2.77    2.48
   7   0  -4    8.35    2.83
   7   0  -3    1.16    1.03
   7   0  -2    2.18    1.14
   7   0  -1    0.08    0.71
   7   0   0    0.58    0.81

_computing_structure_solution     'SHELXT 2014/4 (Sheldrick, 2014)'
_computing_structure_solution     'SHELXT 2014/4 (Sheldrick, 2014)'
;
_shelx_hkl_checksum              65086
_olex2_submission_special_instructions 'No special instructions were received'
loop_
_space_group_symop_operation_xyz
'x, y, z'
'-x, -y, -z'
loop_
_atom_site_label
_atom_site_type_symbol
_atom_site_fract_x
_atom_site_fract_y
_atom_site_fract_z
_atom_site_U_iso_or_equiv
_atom_site_adp_type
_atom_site_occupancy
_atom_site_site_symmetry_order
_atom_site_calc_flag
_atom_site_refinement_flags_posn
_atom_site_refinement_flags_adp
_atom_site_refinement_flags_occupancy
_atom_site_disorder_assembly
_atom_site_disorder_group
O001 O 0.3529(4) 0.3987(2) 0.31656(13) 0.0802(7) Uani 1 1 d . . . . .
H001 H 0.2763 0.4427 0.3455 0.120 Uiso 1 1 calc R U . . .
N002 N 0.1900(4) 0.6064(2) 0.38131(15) 0.0714(7) Uani 1 1 d . . . . .
N3 N 0.1547(7) 0.9865(3) 0.60114(18) 0.0894(9) Uani 1 1 d . . . . .
O004 O 0.3559(6) 1.0287(3) 0.59759(17) 0.1240(11) Uani 1 1 d . . . . .
O5 O 0.0387(5) 1.0443(3) 0.64756(17) 0.1224(10) Uani 1 1 d . . . . .
C006 C 0.4622(5) 0.4747(3) 0.26664(17) 0.0635(8) Uani 1 1 d . . . . .
C007 C 0.4436(5) 0.6098(3) 0.27450(16) 0.0635(8) Uani 1 1 d . . . . .
C008 C 0.3065(5) 0.6707(3) 0.33368(18) 0.0694(8) Uani 1 1 d . . . . .
H008 H 0.3029 0.7613 0.3373 0.083 Uiso 1 1 calc R U . . .
C009 C 0.6902(5) 0.6371(3) 0.16622(17) 0.0645(8) Uani 1 1 d . . . . .
C00A C 0.0705(6) 0.6760(3) 0.44007(18) 0.0661(8) Uani 1 1 d . . . . .
C00B C 0.5958(5) 0.4179(3) 0.20952(17) 0.0634(8) Uani 1 1 d . . . . .
C00C C 0.5591(5) 0.6879(3) 0.22418(17) 0.0669(8) Uani 1 1 d . . . . .
H00C H 0.5469 0.7777 0.2301 0.080 Uiso 1 1 calc R U . . .
C00D C 0.7040(5) 0.5016(3) 0.16112(17) 0.0664(8) Uani 1 1 d . . . . .
H00D H 0.7926 0.4651 0.1223 0.080 Uiso 1 1 calc R U . . .
C00E C 0.1700(5) 0.7986(3) 0.48949(18) 0.0686(8) Uani 1 1 d . . . . .
H00E H 0.3184 0.8401 0.4841 0.082 Uiso 1 1 calc R U . . .
C00F C 0.0441(6) 0.8580(3) 0.54707(18) 0.0695(9) Uani 1 1 d . . . . .
C00G C -0.1501(6) 0.6167(3) 0.45008(19) 0.0760(9) Uani 1 1 d . . . . .
H00G H -0.2166 0.5332 0.4177 0.091 Uiso 1 1 calc R U . . .
C00H C 0.6219(6) 0.2708(3) 0.20042(19) 0.0716(9) Uani 1 1 d . . . . .
C00I C 0.8167(6) 0.7196(3) 0.10968(18) 0.0720(9) Uani 1 1 d . U . . .
C00J C -0.1755(6) 0.8020(4) 0.55671(19) 0.0780(10) Uani 1 1 d . . . . .
H00J H -0.2569 0.8452 0.5955 0.094 Uiso 1 1 calc R U . . .
C00K C -0.2726(6) 0.6791(4) 0.5071(2) 0.0829(10) Uani 1 1 d . . . . .
H00K H -0.4217 0.6385 0.5124 0.099 Uiso 1 1 calc R U . . .
C00L C 0.3904(6) 0.1740(3) 0.1790(2) 0.0947(11) Uani 1 1 d . . . . .
H00A H 0.2924 0.1933 0.2214 0.142 Uiso 1 1 calc R U . . .
H00B H 0.4093 0.0826 0.1736 0.142 Uiso 1 1 calc R U . . .
H00F H 0.3246 0.1855 0.1285 0.142 Uiso 1 1 calc R U . . .
C00M C 0.7299(6) 0.2506(3) 0.2804(2) 0.0945(11) Uani 1 1 d . . . . .
H00H H 0.8751 0.3109 0.2935 0.142 Uiso 1 1 calc R U . . .
H00I H 0.7485 0.1591 0.2741 0.142 Uiso 1 1 calc R U . . .
H00L H 0.6334 0.2694 0.3234 0.142 Uiso 1 1 calc R U . . .
C00N C 0.7771(6) 0.2342(3) 0.1336(2) 0.1007(12) Uani 1 1 d . . . . .
H00M H 0.7122 0.2431 0.0823 0.151 Uiso 1 1 calc R U . . .
H00N H 0.7932 0.1426 0.1303 0.151 Uiso 1 1 calc R U . . .
H00O H 0.9231 0.2937 0.1460 0.151 Uiso 1 1 calc R U . . .
C00O C 0.7679(11) 0.8600(5) 0.1209(4) 0.116(2) Uani 0.780(6) 1 d . U P A 1
H00P H 0.8136 0.9074 0.1759 0.174 Uiso 0.780(6) 1 calc R U P A 1
H00Q H 0.6085 0.8536 0.1099 0.174 Uiso 0.780(6) 1 calc R U P A 1
H00R H 0.8505 0.9080 0.0841 0.174 Uiso 0.780(6) 1 calc R U P A 1
C00P C 0.7456(11) 0.6483(5) 0.0211(3) 0.106(2) Uani 0.780(6) 1 d . U P A 1
H00S H 0.8287 0.6989 -0.0145 0.160 Uiso 0.780(6) 1 calc R U P A 1
H00T H 0.5863 0.6418 0.0100 0.160 Uiso 0.780(6) 1 calc R U P A 1
H00U H 0.7774 0.5593 0.0122 0.160 Uiso 0.780(6) 1 calc R U P A 1
C00Q C 1.0698(9) 0.7315(7) 0.1258(4) 0.120(2) Uani 0.780(6) 1 d . U P A 1
H00V H 1.1033 0.6429 0.1169 0.179 Uiso 0.780(6) 1 calc R U P A 1
H00W H 1.1162 0.7769 0.1812 0.179 Uiso 0.780(6) 1 calc R U P A 1
H00X H 1.1500 0.7822 0.0897 0.179 Uiso 0.780(6) 1 calc R U P A 1
C1 C 0.644(3) 0.774(2) 0.0613(12) 0.097(5) Uani 0.220(6) 1 d . U P A 2
H1A H 0.7233 0.8303 0.0276 0.146 Uiso 0.220(6) 1 calc R U P A 2
H1B H 0.5628 0.8266 0.0987 0.146 Uiso 0.220(6) 1 calc R U P A 2
H1C H 0.5390 0.7000 0.0278 0.146 Uiso 0.220(6) 1 calc R U P A 2
C2 C 0.988(3) 0.8507(18) 0.1656(10) 0.093(5) Uani 0.220(6) 1 d . U P A 2
H2A H 1.0877 0.8209 0.2009 0.139 Uiso 0.220(6) 1 calc R U P A 2
H2B H 0.9019 0.9069 0.1977 0.139 Uiso 0.220(6) 1 calc R U P A 2
H2C H 1.0764 0.9011 0.1310 0.139 Uiso 0.220(6) 1 calc R U P A 2
C00R C 0.963(4) 0.648(2) 0.0534(14) 0.111(6) Uani 0.220(6) 1 d . U P A 2
H00Y H 1.0840 0.6284 0.0849 0.166 Uiso 0.220(6) 1 calc R U P A 2
H H 1.0250 0.7039 0.0170 0.166 Uiso 0.220(6) 1 calc R U P A 2
HA H 0.8727 0.5645 0.0226 0.166 Uiso 0.220(6) 1 calc R U P A 2
loop_
_atom_site_aniso_label
_atom_site_aniso_U_11
_atom_site_aniso_U_22
_atom_site_aniso_U_33
_atom_site_aniso_U_23
_atom_site_aniso_U_13
_atom_site_aniso_U_12
O001 0.0937(18) 0.0701(14) 0.0855(16) 0.0321(12) 0.0302(12) 0.0178(12)
N002 0.0762(19) 0.0715(17) 0.0682(16) 0.0180(13) 0.0156(14) 0.0140(14)
N3 0.118(3) 0.075(2) 0.076(2) 0.0188(17) 0.010(2) 0.020(2)
O004 0.124(2) 0.102(2) 0.118(2) -0.0021(16) 0.019(2) -0.0188(19)
O5 0.151(3) 0.103(2) 0.107(2) -0.0090(16) 0.0156(18) 0.0413(19)
C006 0.071(2) 0.0589(19) 0.0629(18) 0.0225(15) 0.0059(16) 0.0079(16)
C007 0.072(2) 0.0605(18) 0.0593(18) 0.0153(14) 0.0098(15) 0.0128(16)
C008 0.078(2) 0.0649(19) 0.0675(19) 0.0163(16) 0.0074(17) 0.0161(17)
C009 0.074(2) 0.0589(18) 0.0626(18) 0.0182(14) 0.0087(16) 0.0119(16)
C00A 0.072(2) 0.066(2) 0.0625(19) 0.0195(16) 0.0106(17) 0.0127(17)
C00B 0.071(2) 0.0599(18) 0.0638(18) 0.0194(15) 0.0068(16) 0.0164(16)
C00C 0.081(2) 0.0548(18) 0.0673(19) 0.0182(14) 0.0098(17) 0.0137(16)
C00D 0.075(2) 0.0637(19) 0.0634(18) 0.0185(15) 0.0114(16) 0.0160(17)
C00E 0.071(2) 0.069(2) 0.0693(19) 0.0239(17) 0.0099(17) 0.0110(17)
C00F 0.084(3) 0.063(2) 0.0629(19) 0.0190(16) 0.0087(18) 0.0144(19)
C00G 0.082(3) 0.072(2) 0.071(2) 0.0174(16) 0.0106(19) 0.0078(19)
C00H 0.081(2) 0.0568(18) 0.082(2) 0.0230(16) 0.0099(18) 0.0155(17)
C00I 0.085(2) 0.0653(19) 0.070(2) 0.0262(15) 0.0178(17) 0.0124(17)
C00J 0.090(3) 0.084(2) 0.069(2) 0.0239(19) 0.0205(19) 0.028(2)
C00K 0.075(2) 0.093(3) 0.081(2) 0.021(2) 0.0176(19) 0.014(2)
C00L 0.103(3) 0.061(2) 0.117(3) 0.0166(19) 0.005(2) 0.011(2)
C00M 0.106(3) 0.087(2) 0.103(3) 0.040(2) 0.000(2) 0.031(2)
C00N 0.131(3) 0.076(2) 0.116(3) 0.034(2) 0.046(3) 0.049(2)
C00O 0.160(6) 0.080(3) 0.127(5) 0.053(3) 0.057(5) 0.033(4)
C00P 0.142(5) 0.103(4) 0.076(3) 0.038(3) 0.017(3) 0.009(4)
C00Q 0.086(4) 0.135(5) 0.150(5) 0.075(5) 0.018(3) 0.004(3)
C1 0.102(9) 0.109(13) 0.091(11) 0.056(9) 0.021(7) 0.008(8)
C2 0.095(10) 0.087(9) 0.096(9) 0.031(7) 0.015(8) 0.006(7)
C00R 0.133(13) 0.098(11) 0.111(12) 0.038(9) 0.054(10) 0.025(10)
loop_
_atom_type_symbol
_atom_type_description
_atom_type_scat_dispersion_real
_atom_type_scat_dispersion_imag
_atom_type_scat_source
C C 0.0181 0.0091 'International Tables Vol C Tables 4.2.6.8 and 6.1.1.4'
H H 0.0000 0.0000 'International Tables Vol C Tables 4.2.6.8 and 6.1.1.4'
N N 0.0311 0.0180 'International Tables Vol C Tables 4.2.6.8 and 6.1.1.4'
O O 0.0492 0.0322 'International Tables Vol C Tables 4.2.6.8 and 6.1.1.4'
loop_
_geom_angle_atom_site_label_1
_geom_angle_atom_site_label_2
_geom_angle_atom_site_label_3
_geom_angle
_geom_angle_site_symmetry_1
_geom_angle_site_symmetry_3
_geom_angle_publ_flag
C006 O001 H001 109.5 . . ?
C008 N002 C00A 119.5(3) . . ?
O004 N3 O5 123.6(4) . . ?
O004 N3 C00F 118.6(3) . . ?
O5 N3 C00F 117.8(4) . . ?
O001 C006 C007 119.7(3) . . ?
O001 C006 C00B 119.3(3) . . ?
C00B C006 C007 121.0(3) . . ?
C006 C007 C008 121.8(3) . . ?
C00C C007 C006 119.4(3) . . ?
C00C C007 C008 118.8(3) . . ?
N002 C008 C007 123.4(3) . . ?
N002 C008 H008 118.3 . . ?
C007 C008 H008 118.3 . . ?
C00C C009 C00D 116.1(3) . . ?
C00C C009 C00I 123.4(3) . . ?
C00D C009 C00I 120.5(3) . . ?
C00E C00A N002 122.0(3) . . ?
C00E C00A C00G 119.3(3) . . ?
C00G C00A N002 118.7(3) . . ?
C006 C00B C00H 122.0(3) . . ?
C00D C00B C006 116.3(3) . . ?
C00D C00B C00H 121.7(3) . . ?
C007 C00C H00C 118.9 . . ?
C009 C00C C007 122.2(3) . . ?
C009 C00C H00C 118.9 . . ?
C009 C00D H00D 117.5 . . ?
C00B C00D C009 125.0(3) . . ?
C00B C00D H00D 117.5 . . ?
C00A C00E H00E 120.8 . . ?
C00F C00E C00A 118.5(3) . . ?
C00F C00E H00E 120.8 . . ?
C00E C00F N3 117.9(3) . . ?
C00J C00F N3 119.1(3) . . ?
C00J C00F C00E 123.0(3) . . ?
C00A C00G H00G 119.5 . . ?
C00K C00G C00A 121.0(3) . . ?
C00K C00G H00G 119.5 . . ?
C00B C00H C00M 109.7(3) . . ?
C00L C00H C00B 110.4(3) . . ?
C00L C00H C00M 109.6(3) . . ?
C00N C00H C00B 111.4(2) . . ?
C00N C00H C00L 108.3(3) . . ?
C00N C00H C00M 107.3(3) . . ?
C009 C00I C00P 109.5(3) . . ?
C009 C00I C1 109.0(6) . . ?
C009 C00I C2 108.2(6) . . ?
C00O C00I C009 112.4(3) . . ?
C00O C00I C00P 107.9(4) . . ?
C00O C00I C00Q 108.8(4) . . ?
C00Q C00I C009 109.3(3) . . ?
C00Q C00I C00P 108.9(4) . . ?
C1 C00I C2 106.9(11) . . ?
C00R C00I C009 115.2(7) . . ?
C00R C00I C1 111.2(12) . . ?
C00R C00I C2 105.9(11) . . ?
C00F C00J H00J 121.0 . . ?
C00F C00J C00K 118.0(3) . . ?
C00K C00J H00J 121.0 . . ?
C00G C00K C00J 120.3(3) . . ?
C00G C00K H00K 119.9 . . ?
C00J C00K H00K 119.9 . . ?
C00H C00L H00A 109.5 . . ?
C00H C00L H00B 109.5 . . ?
C00H C00L H00F 109.5 . . ?
H00A C00L H00B 109.5 . . ?
H00A C00L H00F 109.5 . . ?
H00B C00L H00F 109.5 . . ?
C00H C00M H00H 109.5 . . ?
C00H C00M H00I 109.5 . . ?
C00H C00M H00L 109.5 . . ?
H00H C00M H00I 109.5 . . ?
H00H C00M H00L 109.5 . . ?
H00I C00M H00L 109.5 . . ?
C00H C00N H00M 109.5 . . ?
C00H C00N H00N 109.5 . . ?
C00H C00N H00O 109.5 . . ?
H00M C00N H00N 109.5 . . ?
H00M C00N H00O 109.5 . . ?
H00N C00N H00O 109.5 . . ?
C00I C00O H00P 109.5 . . ?
C00I C00O H00Q 109.5 . . ?
C00I C00O H00R 109.5 . . ?
H00P C00O H00Q 109.5 . . ?
H00P C00O H00R 109.5 . . ?
H00Q C00O H00R 109.5 . . ?
C00I C00P H00S 109.5 . . ?
C00I C00P H00T 109.5 . . ?
C00I C00P H00U 109.5 . . ?
H00S C00P H00T 109.5 . . ?
H00S C00P H00U 109.5 . . ?
H00T C00P H00U 109.5 . . ?
C00I C00Q H00V 109.5 . . ?
C00I C00Q H00W 109.5 . . ?
C00I C00Q H00X 109.5 . . ?
H00V C00Q H00W 109.5 . . ?
H00V C00Q H00X 109.5 . . ?
H00W C00Q H00X 109.5 . . ?
C00I C1 H1A 109.5 . . ?
C00I C1 H1B 109.5 . . ?
C00I C1 H1C 109.5 . . ?
H1A C1 H1B 109.5 . . ?
H1A C1 H1C 109.5 . . ?
H1B C1 H1C 109.5 . . ?
C00I C2 H2A 109.5 . . ?
C00I C2 H2B 109.5 . . ?
C00I C2 H2C 109.5 . . ?
H2A C2 H2B 109.5 . . ?
H2A C2 H2C 109.5 . . ?
H2B C2 H2C 109.5 . . ?
C00I C00R H00Y 109.5 . . ?
C00I C00R H 109.5 . . ?
C00I C00R HA 109.5 . . ?
H00Y C00R H 109.5 . . ?
H00Y C00R HA 109.5 . . ?
H C00R HA 109.5 . . ?
loop_
_geom_bond_atom_site_label_1
_geom_bond_atom_site_label_2
_geom_bond_distance
_geom_bond_site_symmetry_2
_geom_bond_publ_flag
O001 H001 0.8200 . ?
O001 C006 1.359(3) . ?
N002 C008 1.280(3) . ?
N002 C00A 1.413(4) . ?
N3 O004 1.215(4) . ?
N3 O5 1.217(3) . ?
N3 C00F 1.473(4) . ?
C006 C007 1.402(4) . ?
C006 C00B 1.394(4) . ?
C007 C008 1.448(4) . ?
C007 C00C 1.392(4) . ?
C008 H008 0.9300 . ?
C009 C00C 1.370(4) . ?
C009 C00D 1.404(4) . ?
C009 C00I 1.524(4) . ?
C00A C00E 1.381(4) . ?
C00A C00G 1.383(4) . ?
C00B C00D 1.387(4) . ?
C00B C00H 1.536(4) . ?
C00C H00C 0.9300 . ?
C00D H00D 0.9300 . ?
C00E H00E 0.9300 . ?
C00E C00F 1.379(4) . ?
C00F C00J 1.367(4) . ?
C00G H00G 0.9300 . ?
C00G C00K 1.373(4) . ?
C00H C00L 1.533(4) . ?
C00H C00M 1.539(4) . ?
C00H C00N 1.530(4) . ?
C00I C00O 1.513(5) . ?
C00I C00P 1.531(5) . ?
C00I C00Q 1.519(6) . ?
C00I C1 1.554(17) . ?
C00I C2 1.633(17) . ?
C00I C00R 1.510(17) . ?
C00J H00J 0.9300 . ?
C00J C00K 1.380(4) . ?
C00K H00K 0.9300 . ?
C00L H00A 0.9600 . ?
C00L H00B 0.9600 . ?
C00L H00F 0.9600 . ?
C00M H00H 0.9600 . ?
C00M H00I 0.9600 . ?
C00M H00L 0.9600 . ?
C00N H00M 0.9600 . ?
C00N H00N 0.9600 . ?
C00N H00O 0.9600 . ?
C00O H00P 0.9600 . ?
C00O H00Q 0.9600 . ?
C00O H00R 0.9600 . ?
C00P H00S 0.9600 . ?
C00P H00T 0.9600 . ?
C00P H00U 0.9600 . ?
C00Q H00V 0.9600 . ?
C00Q H00W 0.9600 . ?
C00Q H00X 0.9600 . ?
C1 H1A 0.9600 . ?
C1 H1B 0.9600 . ?
C1 H1C 0.9600 . ?
C2 H2A 0.9600 . ?
C2 H2B 0.9600 . ?
C2 H2C 0.9600 . ?
C00R H00Y 0.9600 . ?
C00R H 0.9600 . ?
C00R HA 0.9600 . ?
