#------------------------------------------------------------------------------
#$Date: 2024-02-04 13:35:58 +0200 (Sun, 04 Feb 2024) $
#$Revision: 289434 $
#$URL: file:///home/coder/svn-repositories/cod/cif/1/57/05/1570532.cif $
#------------------------------------------------------------------------------
#
# This file is available in the Crystallography Open Database (COD),
# http://www.crystallography.net/
#
# All data on this site have been placed in the public domain by the
# contributors.
#
data_1570532
loop_
_publ_author_name
'Sun, Zhen'
'Xu, Wan'
'Qiu, Shuai'
'Ma, Zhiying'
'Li, Chunli'
'Zhang, Sheng'
'Wang, Hua'
_publ_section_title
;
 Thia[<i>n</i>]helicenes with long persistent phosphorescence.
;
_journal_issue                   3
_journal_name_full               'Chemical science'
_journal_page_first              1077
_journal_page_last               1087
_journal_paper_doi               10.1039/d3sc05480b
_journal_volume                  15
_journal_year                    2024
_chemical_formula_moiety         'C23 H18 S3 Si'
_chemical_formula_sum            'C23 H18 S3 Si'
_chemical_formula_weight         418.64
_space_group_crystal_system      orthorhombic
_space_group_IT_number           61
_space_group_name_Hall           '-P 2ac 2ab'
_space_group_name_H-M_alt        'P b c a'
_atom_sites_solution_hydrogens   geom
_audit_creation_date             2020-09-30
_audit_creation_method
; 
Olex2 1.2 
(compiled 2018.05.29 svn.r3508 for OlexSys, GUI svn.r5506) 
;
_audit_update_record
;
2022-12-11 deposited with the CCDC.	2023-12-08 downloaded from the CCDC.
;
_cell_angle_alpha                90
_cell_angle_beta                 90
_cell_angle_gamma                90
_cell_formula_units_Z            8
_cell_length_a                   21.1138(8)
_cell_length_b                   7.7627(2)
_cell_length_c                   24.2285(8)
_cell_measurement_reflns_used    9925
_cell_measurement_temperature    150(2)
_cell_measurement_theta_max      28.279
_cell_measurement_theta_min      2.559
_cell_volume                     3971.1(2)
_computing_cell_refinement       'SAINT V8.38A (?, 2016)'
_computing_data_collection       'Bruker XSCANS'
_computing_data_reduction        'SAINT V8.38A (?, 2016)'
_computing_molecular_graphics    'Olex2 (Dolomanov et al., 2009)'
_computing_publication_material  'Olex2 (Dolomanov et al., 2009)'
_computing_structure_refinement  'ShelXL (Sheldrick, 2015)'
_computing_structure_solution    'SHELXT 2018/2 (Sheldrick, 2018)'
_diffrn_ambient_temperature      149.97
_diffrn_measured_fraction_theta_full 0.999
_diffrn_measured_fraction_theta_max 0.999
_diffrn_measurement_device_type  'Bruker P4'
_diffrn_measurement_method       '\w scans'
_diffrn_radiation_monochromator  graphite
_diffrn_radiation_type           MoK\a
_diffrn_radiation_wavelength     0.71073
_diffrn_reflns_av_R_equivalents  0.0791
_diffrn_reflns_av_unetI/netI     0.0526
_diffrn_reflns_Laue_measured_fraction_full 0.999
_diffrn_reflns_Laue_measured_fraction_max 0.999
_diffrn_reflns_limit_h_max       28
_diffrn_reflns_limit_h_min       -24
_diffrn_reflns_limit_k_max       10
_diffrn_reflns_limit_k_min       -10
_diffrn_reflns_limit_l_max       31
_diffrn_reflns_limit_l_min       -32
_diffrn_reflns_number            32514
_diffrn_reflns_point_group_measured_fraction_full 0.999
_diffrn_reflns_point_group_measured_fraction_max 0.999
_diffrn_reflns_theta_full        25.242
_diffrn_reflns_theta_max         28.291
_diffrn_reflns_theta_min         2.559
_exptl_absorpt_coefficient_mu    0.440
_exptl_absorpt_correction_T_max  0.7457
_exptl_absorpt_correction_T_min  0.3950
_exptl_absorpt_correction_type   multi-scan
_exptl_absorpt_process_details
'SADABS-2016/2 (Bruker,2016/2) was used for absorption correction. wR2(int) was 0.1514 before and 0.0988 after correction.'
_exptl_crystal_colour            yellow
_exptl_crystal_colour_primary    yellow
_exptl_crystal_density_diffrn    1.400
_exptl_crystal_description       block
_exptl_crystal_F_000             1744
_exptl_crystal_size_max          0.12
_exptl_crystal_size_mid          0.09
_exptl_crystal_size_min          0.04
_refine_diff_density_max         0.549
_refine_diff_density_min         -0.417
_refine_diff_density_rms         0.075
_refine_ls_extinction_method     none
_refine_ls_goodness_of_fit_ref   1.038
_refine_ls_hydrogen_treatment    constr
_refine_ls_matrix_type           full
_refine_ls_number_parameters     247
_refine_ls_number_reflns         4925
_refine_ls_number_restraints     0
_refine_ls_restrained_S_all      1.038
_refine_ls_R_factor_all          0.0590
_refine_ls_R_factor_gt           0.0450
_refine_ls_shift/su_max          0.001
_refine_ls_shift/su_mean         0.000
_refine_ls_structure_factor_coef Fsqd
_refine_ls_weighting_details
'w=1/[\s^2^(Fo^2^)+(0.0667P)^2^+1.2325P] where P=(Fo^2^+2Fc^2^)/3'
_refine_ls_weighting_scheme      calc
_refine_ls_wR_factor_gt          0.1133
_refine_ls_wR_factor_ref         0.1254
_reflns_Friedel_coverage         0.000
_reflns_number_gt                3946
_reflns_number_total             4925
_reflns_threshold_expression     'I > 2\s(I)'
_iucr_refine_instructions_details
; 
TITL a_a.res in Pbca 
    a.res 
    created by SHELXL-2018/3 at 10:42:14 on 30-Sep-2020 
REM Old TITL A in Pbca 
REM SHELXT solution in Pbca: R1 0.120, Rweak 0.002, Alpha 0.017 
REM <I/s> 0.302 for 542 systematic absences, Orientation as input 
REM Formula found by SHELXT: C23 S4 
CELL 0.71073 21.1138 7.7627 24.2285 90 90 90 
ZERR 8 0.0008 0.0002 0.0008 0 0 0 
LATT 1 
SYMM 0.5-X,-Y,0.5+Z 
SYMM -X,0.5+Y,0.5-Z 
SYMM 0.5+X,0.5-Y,-Z 
SFAC C H S Si 
UNIT 184 144 24 8 
  
L.S. 20 
PLAN  20 
SIZE 0.12 0.09 0.04 
TEMP -123.18 
list 4 
fmap 2 53 
acta 
REM <olex2.extras> 
REM <HklSrc "%.\\a.hkl"> 
REM </olex2.extras> 
  
WGHT    0.066700    1.232500 
FVAR       0.34135 
S1    3    0.447867    0.652585    0.297741    11.00000    0.02494    0.02621 = 
         0.02908    0.00570   -0.00335    0.00499 
S2    3    0.567339    0.650750    0.220611    11.00000    0.03118    0.02892 = 
         0.02395    0.00536   -0.00056   -0.00501 
S3    3    0.707209    0.524030    0.226199    11.00000    0.02839    0.02859 = 
         0.02923   -0.00652    0.00882   -0.00799 
SI1   4    0.387614    0.532488    0.408678    11.00000    0.01826    0.03238 = 
         0.02726   -0.00162   -0.00046    0.00537 
C1    1    0.538334    0.008330    0.394318    11.00000    0.02325    0.02815 = 
         0.03834    0.00494    0.00109    0.00124 
AFIX  43 
H1    2    0.500401   -0.022728    0.375726    11.00000   -1.20000 
AFIX   0 
C2    1    0.550958   -0.059459    0.446694    11.00000    0.03345    0.03077 = 
         0.03841    0.00888    0.00735    0.00175 
AFIX  43 
H2    2    0.520977   -0.132109    0.464387    11.00000   -1.20000 
AFIX   0 
C3    1    0.606878   -0.020007    0.472107    11.00000    0.04253    0.03047 = 
         0.02577    0.00418    0.00306    0.01028 
AFIX  43 
H3    2    0.615289   -0.065497    0.507762    11.00000   -1.20000 
AFIX   0 
C4    1    0.652239    0.086225    0.446773    11.00000    0.03072    0.02390 = 
         0.02586   -0.00520   -0.00376    0.00944 
C5    1    0.715294    0.100868    0.468572    11.00000    0.04112    0.02494 = 
         0.03304   -0.00695   -0.01470    0.00925 
AFIX  43 
H5    2    0.724222    0.060884    0.504805    11.00000   -1.20000 
AFIX   0 
C6    1    0.761824    0.171051    0.437863    11.00000    0.02826    0.02328 = 
         0.04602   -0.01147   -0.01593    0.00608 
AFIX  43 
H6    2    0.804094    0.167950    0.451263    11.00000   -1.20000 
AFIX   0 
C7    1    0.749370    0.250000    0.385712    11.00000    0.02313    0.01959 = 
         0.03830   -0.01133   -0.00673    0.00334 
C8    1    0.800382    0.306886    0.352131    11.00000    0.01768    0.02465 = 
         0.04990   -0.01564   -0.00379    0.00056 
AFIX  43 
H8    2    0.842603    0.293182    0.364952    11.00000   -1.20000 
AFIX   0 
C9    1    0.790067    0.380512    0.302041    11.00000    0.01973    0.02653 = 
         0.04675   -0.01554    0.00659   -0.00427 
AFIX  43 
H9    2    0.824344    0.407843    0.278197    11.00000   -1.20000 
AFIX   0 
C10   1    0.727282    0.414960    0.286590    11.00000    0.02308    0.02283 = 
         0.03134   -0.00916    0.00371   -0.00267 
C11   1    0.674689    0.372272    0.319771    11.00000    0.01912    0.02045 = 
         0.02641   -0.00951    0.00023   -0.00161 
C12   1    0.685685    0.268004    0.367504    11.00000    0.02037    0.01824 = 
         0.02984   -0.00782   -0.00314    0.00277 
C13   1    0.637768    0.165972    0.395421    11.00000    0.02325    0.01936 = 
         0.02443   -0.00426   -0.00066    0.00525 
C14   1    0.580442    0.119831    0.369417    11.00000    0.02179    0.02154 = 
         0.02882    0.00127   -0.00143    0.00390 
AFIX  43 
H14   2    0.570666    0.166324    0.334161    11.00000   -1.20000 
AFIX   0 
C15   1    0.617755    0.454224    0.297997    11.00000    0.02080    0.01966 = 
         0.02130   -0.00324   -0.00066   -0.00347 
C16   1    0.629840    0.534020    0.248047    11.00000    0.02582    0.02352 = 
         0.02444   -0.00368    0.00184   -0.00575 
C17   1    0.554211    0.494755    0.316668    11.00000    0.02103    0.01956 = 
         0.02215   -0.00085   -0.00225   -0.00185 
C18   1    0.522501    0.594208    0.277618    11.00000    0.02579    0.02351 = 
         0.02338    0.00271   -0.00045   -0.00189 
C19   1    0.515649    0.472131    0.364827    11.00000    0.01999    0.02079 = 
         0.02208    0.00062   -0.00193    0.00192 
AFIX  43 
H19   2    0.529506    0.411146    0.396605    11.00000   -1.20000 
AFIX   0 
C20   1    0.456671    0.546908    0.360806    11.00000    0.02204    0.02154 = 
         0.02605    0.00119   -0.00155    0.00160 
C21   1    0.415035    0.534112    0.481751    11.00000    0.02748    0.03683 = 
         0.03019    0.00255   -0.00064   -0.00138 
AFIX 137 
H21A  2    0.442463    0.434371    0.488348    11.00000   -1.50000 
H21B  2    0.378306    0.528547    0.506416    11.00000   -1.50000 
H21C  2    0.438763    0.640274    0.488933    11.00000   -1.50000 
AFIX   0 
C22   1    0.344368    0.326791    0.394727    11.00000    0.03304    0.06474 = 
         0.04175   -0.01335    0.00955   -0.02053 
AFIX 137 
H22A  2    0.324644    0.332342    0.358156    11.00000   -1.50000 
H22B  2    0.311549    0.309988    0.422819    11.00000   -1.50000 
H22C  2    0.374249    0.230256    0.395897    11.00000   -1.50000 
AFIX   0 
C23   1    0.335079    0.718977    0.395080    11.00000    0.04501    0.07095 = 
         0.04201    0.00400    0.00225    0.03491 
AFIX 137 
H23A  2    0.358711    0.826159    0.400796    11.00000   -1.50000 
H23B  2    0.298869    0.715342    0.420359    11.00000   -1.50000 
H23C  2    0.319876    0.714044    0.356896    11.00000   -1.50000 
AFIX   0 
HKLF 4 
  
  
  
  
REM  a_a.res in Pbca 
REM wR2 = 0.1254, GooF = S = 1.038, Restrained GooF = 1.038 for all data 
REM R1 = 0.0450 for 3946 Fo > 4sig(Fo) and 0.0590 for all 4925 data 
REM 247 parameters refined using 0 restraints 
  
END 
  
WGHT      0.0667      1.2325 
  
REM Highest difference peak  0.549,  deepest hole -0.417,  1-sigma level  0.075 
Q1    1   0.4241  0.5470  0.3806  11.00000  0.05    0.55 
Q2    1   0.6040  0.6276  0.2410  11.00000  0.05    0.48 
Q3    1   0.5359  0.6402  0.2447  11.00000  0.05    0.41 
Q4    1   0.7014  0.3740  0.2998  11.00000  0.05    0.39 
Q5    1   0.5435  0.5715  0.3020  11.00000  0.05    0.38 
Q6    1   0.4767  0.4763  0.3603  11.00000  0.05    0.36 
Q7    1   0.4844  0.6531  0.2780  11.00000  0.05    0.36 
Q8    1   0.6465  0.4369  0.3199  11.00000  0.05    0.35 
Q9    1   0.6642  0.2136  0.3812  11.00000  0.05    0.35 
Q10   1   0.4439  0.7638  0.2992  11.00000  0.05    0.35 
Q11   1   0.5408  0.4945  0.3393  11.00000  0.05    0.34 
Q12   1   0.5729  0.7587  0.2221  11.00000  0.05    0.33 
Q13   1   0.7419  0.5001  0.1991  11.00000  0.05    0.32 
Q14   1   0.3606  0.4317  0.3970  11.00000  0.05    0.31 
Q15   1   0.5341  0.6226  0.1972  11.00000  0.05    0.30 
Q16   1   0.7455  0.0984  0.4416  11.00000  0.05    0.29 
Q17   1   0.3696  0.6300  0.4014  11.00000  0.05    0.29 
Q18   1   0.7773  0.2413  0.3589  11.00000  0.05    0.28 
Q19   1   0.7170  0.2388  0.3676  11.00000  0.05    0.28 
Q20   1   0.4147  0.7178  0.2817  11.00000  0.05    0.27 
  
  REM The information below was added by Olex2. 
  REM 
  REM R1 = 0.0450 for 3946 Fo > 4sig(Fo) and 0.0590 for all 34751 data 
  REM n/a parameters refined using n/a restraints 
  REM Highest difference peak 0.55, deepest hole -0.42 
  REM Mean Shift 0, Max Shift -0.001. 
  
  REM +++ Tabular Listing of Refinement Information +++ 
  REM R1_all = 0.0590 
  REM R1_gt = 0.0450 
  REM wR_ref = 0.1254 
  REM GOOF = 1.038 
  REM Shift_max = -0.001 
  REM Shift_mean = 0 
  REM Reflections_all = 34751 
  REM Reflections_gt = 3946 
  REM Parameters = n/a 
  REM Hole = -0.42 
  REM Peak = 0.55 
  REM Flack = n/a 
  
  
;
_cod_data_source_file            d3sc05480b2.cif
_cod_data_source_block           TB[6]H
_cod_depositor_comments
'Adding full bibliography for 1570529--1570532.cif.'
_cod_database_code               1570532
_shelx_shelxl_version_number     2018/3
_shelx_space_group_comment
; 
The symmetry employed for this shelxl refinement is uniquely defined 
by the following loop, which should always be used as a source of 
symmetry information in preference to the above space-group names. 
They are only intended as comments. 
;
_shelx_estimated_absorpt_t_max   0.983
_shelx_estimated_absorpt_t_min   0.949
_olex2_refinement_description
; 
1. Fixed Uiso 
 At 1.2 times of: 
  All C(H) groups 
 At 1.5 times of: 
  All C(H,H,H) groups 
2.a Aromatic/amide H refined with riding coordinates: 
 C1(H1), C2(H2), C3(H3), C5(H5), C6(H6), C8(H8), C9(H9), C14(H14), C19(H19) 
2.b Idealised Me refined as rotating group: 
 C21(H21A,H21B,H21C), C22(H22A,H22B,H22C), C23(H23A,H23B,H23C) 
;
_olex2_submission_special_instructions 'No special instructions were received'
loop_
_space_group_symop_operation_xyz
'x, y, z'
'-x+1/2, -y, z+1/2'
'-x, y+1/2, -z+1/2'
'x+1/2, -y+1/2, -z'
'-x, -y, -z'
'x-1/2, y, -z-1/2'
'x, -y-1/2, z-1/2'
'-x-1/2, y-1/2, z'
loop_
_atom_site_label
_atom_site_type_symbol
_atom_site_fract_x
_atom_site_fract_y
_atom_site_fract_z
_atom_site_U_iso_or_equiv
_atom_site_adp_type
_atom_site_occupancy
_atom_site_site_symmetry_order
_atom_site_calc_flag
_atom_site_refinement_flags_posn
_atom_site_refinement_flags_adp
_atom_site_refinement_flags_occupancy
_atom_site_disorder_assembly
_atom_site_disorder_group
S1 S 0.44787(2) 0.65259(6) 0.29774(2) 0.02674(14) Uani 1 1 d . . . . .
S2 S 0.56734(3) 0.65075(6) 0.22061(2) 0.02802(14) Uani 1 1 d . . . . .
S3 S 0.70721(2) 0.52403(6) 0.22620(2) 0.02874(14) Uani 1 1 d . . . . .
Si1 Si 0.38761(3) 0.53249(7) 0.40868(2) 0.02597(15) Uani 1 1 d . . . . .
C1 C 0.53833(10) 0.0083(3) 0.39432(10) 0.0299(5) Uani 1 1 d . . . . .
H1 H 0.500401 -0.022728 0.375726 0.036 Uiso 1 1 calc R . . . .
C2 C 0.55096(11) -0.0595(3) 0.44669(10) 0.0342(5) Uani 1 1 d . . . . .
H2 H 0.520977 -0.132109 0.464387 0.041 Uiso 1 1 calc R . . . .
C3 C 0.60688(11) -0.0200(3) 0.47211(9) 0.0329(5) Uani 1 1 d . . . . .
H3 H 0.615289 -0.065497 0.507762 0.040 Uiso 1 1 calc R . . . .
C4 C 0.65224(10) 0.0862(2) 0.44677(8) 0.0268(4) Uani 1 1 d . . . . .
C5 C 0.71529(11) 0.1009(3) 0.46857(10) 0.0330(5) Uani 1 1 d . . . . .
H5 H 0.724222 0.060884 0.504805 0.040 Uiso 1 1 calc R . . . .
C6 C 0.76182(10) 0.1711(2) 0.43786(10) 0.0325(5) Uani 1 1 d . . . . .
H6 H 0.804094 0.167950 0.451263 0.039 Uiso 1 1 calc R . . . .
C7 C 0.74937(9) 0.2500(2) 0.38571(9) 0.0270(4) Uani 1 1 d . . . . .
C8 C 0.80038(9) 0.3069(3) 0.35213(10) 0.0307(5) Uani 1 1 d . . . . .
H8 H 0.842603 0.293182 0.364952 0.037 Uiso 1 1 calc R . . . .
C9 C 0.79007(9) 0.3805(3) 0.30204(10) 0.0310(5) Uani 1 1 d . . . . .
H9 H 0.824344 0.407843 0.278197 0.037 Uiso 1 1 calc R . . . .
C10 C 0.72728(10) 0.4150(2) 0.28659(9) 0.0257(4) Uani 1 1 d . . . . .
C11 C 0.67469(9) 0.3723(2) 0.31977(8) 0.0220(4) Uani 1 1 d . . . . .
C12 C 0.68568(9) 0.2680(2) 0.36750(8) 0.0228(4) Uani 1 1 d . . . . .
C13 C 0.63777(9) 0.1660(2) 0.39542(8) 0.0223(4) Uani 1 1 d . . . . .
C14 C 0.58044(9) 0.1198(2) 0.36942(9) 0.0240(4) Uani 1 1 d . . . . .
H14 H 0.570666 0.166324 0.334161 0.029 Uiso 1 1 calc R . . . .
C15 C 0.61775(9) 0.4542(2) 0.29800(8) 0.0206(4) Uani 1 1 d . . . . .
C16 C 0.62984(10) 0.5340(2) 0.24805(8) 0.0246(4) Uani 1 1 d . . . . .
C17 C 0.55421(9) 0.4948(2) 0.31667(8) 0.0209(4) Uani 1 1 d . . . . .
C18 C 0.52250(10) 0.5942(2) 0.27762(8) 0.0242(4) Uani 1 1 d . . . . .
C19 C 0.51565(9) 0.4721(2) 0.36483(8) 0.0210(4) Uani 1 1 d . . . . .
H19 H 0.529506 0.411146 0.396605 0.025 Uiso 1 1 calc R . . . .
C20 C 0.45667(9) 0.5469(2) 0.36081(8) 0.0232(4) Uani 1 1 d . . . . .
C21 C 0.41504(10) 0.5341(3) 0.48175(9) 0.0315(5) Uani 1 1 d . . . . .
H21A H 0.442463 0.434371 0.488348 0.047 Uiso 1 1 calc GR . . . .
H21B H 0.378306 0.528547 0.506416 0.047 Uiso 1 1 calc GR . . . .
H21C H 0.438763 0.640274 0.488933 0.047 Uiso 1 1 calc GR . . . .
C22 C 0.34437(12) 0.3268(4) 0.39473(11) 0.0465(7) Uani 1 1 d . . . . .
H22A H 0.324644 0.332342 0.358156 0.070 Uiso 1 1 calc GR . . . .
H22B H 0.311549 0.309988 0.422819 0.070 Uiso 1 1 calc GR . . . .
H22C H 0.374249 0.230256 0.395897 0.070 Uiso 1 1 calc GR . . . .
C23 C 0.33508(13) 0.7190(4) 0.39508(11) 0.0527(7) Uani 1 1 d . . . . .
H23A H 0.358711 0.826159 0.400796 0.079 Uiso 1 1 calc GR . . . .
H23B H 0.298869 0.715342 0.420359 0.079 Uiso 1 1 calc GR . . . .
H23C H 0.319876 0.714044 0.356896 0.079 Uiso 1 1 calc GR . . . .
loop_
_atom_site_aniso_label
_atom_site_aniso_U_11
_atom_site_aniso_U_22
_atom_site_aniso_U_33
_atom_site_aniso_U_23
_atom_site_aniso_U_13
_atom_site_aniso_U_12
S1 0.0249(3) 0.0262(2) 0.0291(3) 0.00570(18) -0.0033(2) 0.00499(18)
S2 0.0312(3) 0.0289(3) 0.0239(3) 0.00536(18) -0.0006(2) -0.00501(19)
S3 0.0284(3) 0.0286(3) 0.0292(3) -0.00652(19) 0.0088(2) -0.00799(19)
Si1 0.0183(3) 0.0324(3) 0.0273(3) -0.0016(2) -0.0005(2) 0.0054(2)
C1 0.0233(10) 0.0281(9) 0.0383(12) 0.0049(8) 0.0011(9) 0.0012(8)
C2 0.0335(12) 0.0308(10) 0.0384(13) 0.0089(9) 0.0074(10) 0.0018(9)
C3 0.0425(13) 0.0305(10) 0.0258(11) 0.0042(8) 0.0031(9) 0.0103(9)
C4 0.0307(11) 0.0239(9) 0.0259(10) -0.0052(7) -0.0038(8) 0.0094(8)
C5 0.0411(13) 0.0249(9) 0.0330(12) -0.0069(8) -0.0147(10) 0.0092(9)
C6 0.0283(11) 0.0233(9) 0.0460(14) -0.0115(9) -0.0159(10) 0.0061(8)
C7 0.0231(10) 0.0196(8) 0.0383(12) -0.0113(8) -0.0067(9) 0.0033(7)
C8 0.0177(10) 0.0247(9) 0.0499(14) -0.0156(9) -0.0038(9) 0.0006(7)
C9 0.0197(10) 0.0265(9) 0.0468(14) -0.0155(9) 0.0066(9) -0.0043(7)
C10 0.0231(10) 0.0228(9) 0.0313(11) -0.0092(8) 0.0037(8) -0.0027(7)
C11 0.0191(9) 0.0204(8) 0.0264(10) -0.0095(7) 0.0002(7) -0.0016(7)
C12 0.0204(9) 0.0182(8) 0.0298(10) -0.0078(7) -0.0031(8) 0.0028(7)
C13 0.0232(10) 0.0194(8) 0.0244(10) -0.0043(7) -0.0007(8) 0.0053(7)
C14 0.0218(10) 0.0215(8) 0.0288(10) 0.0013(7) -0.0014(8) 0.0039(7)
C15 0.0208(9) 0.0197(8) 0.0213(9) -0.0032(6) -0.0007(7) -0.0035(7)
C16 0.0258(10) 0.0235(9) 0.0244(10) -0.0037(7) 0.0018(8) -0.0057(7)
C17 0.0210(9) 0.0196(8) 0.0222(10) -0.0008(7) -0.0023(7) -0.0018(7)
C18 0.0258(10) 0.0235(9) 0.0234(10) 0.0027(7) -0.0004(8) -0.0019(7)
C19 0.0200(9) 0.0208(8) 0.0221(10) 0.0006(6) -0.0019(7) 0.0019(7)
C20 0.0220(10) 0.0215(8) 0.0260(10) 0.0012(7) -0.0016(8) 0.0016(7)
C21 0.0275(11) 0.0368(11) 0.0302(11) 0.0025(8) -0.0006(9) -0.0014(8)
C22 0.0330(13) 0.0647(16) 0.0418(15) -0.0134(12) 0.0096(11) -0.0205(11)
C23 0.0450(15) 0.0710(18) 0.0420(15) 0.0040(13) 0.0023(12) 0.0349(14)
loop_
_atom_type_symbol
_atom_type_description
_atom_type_scat_dispersion_real
_atom_type_scat_dispersion_imag
_atom_type_scat_source
C C 0.0033 0.0016 'International Tables Vol C Tables 4.2.6.8 and 6.1.1.4'
H H 0.0000 0.0000 'International Tables Vol C Tables 4.2.6.8 and 6.1.1.4'
S S 0.1246 0.1234 'International Tables Vol C Tables 4.2.6.8 and 6.1.1.4'
Si Si 0.0817 0.0704 'International Tables Vol C Tables 4.2.6.8 and 6.1.1.4'
loop_
_geom_angle_atom_site_label_1
_geom_angle_atom_site_label_2
_geom_angle_atom_site_label_3
_geom_angle
_geom_angle_site_symmetry_1
_geom_angle_site_symmetry_3
_geom_angle_publ_flag
C18 S1 C20 91.54(9) . . ?
C18 S2 C16 88.73(10) . . ?
C16 S3 C10 89.68(10) . . ?
C20 Si1 C22 108.68(10) . . ?
C21 Si1 C20 110.33(10) . . ?
C21 Si1 C22 109.23(11) . . ?
C23 Si1 C20 108.07(11) . . ?
C23 Si1 C21 110.47(12) . . ?
C23 Si1 C22 110.03(14) . . ?
C14 C1 C2 120.6(2) . . ?
C3 C2 C1 119.3(2) . . ?
C2 C3 C4 121.6(2) . . ?
C3 C4 C5 121.16(19) . . ?
C3 C4 C13 119.41(19) . . ?
C13 C4 C5 119.1(2) . . ?
C6 C5 C4 120.3(2) . . ?
C5 C6 C7 121.84(19) . . ?
C8 C7 C6 120.03(19) . . ?
C8 C7 C12 120.6(2) . . ?
C12 C7 C6 119.38(19) . . ?
C9 C8 C7 121.39(19) . . ?
C8 C9 C10 118.0(2) . . ?
C9 C10 S3 123.11(17) . . ?
C9 C10 C11 123.2(2) . . ?
C11 C10 S3 113.65(16) . . ?
C10 C11 C12 117.77(18) . . ?
C10 C11 C15 109.89(18) . . ?
C12 C11 C15 132.29(17) . . ?
C7 C12 C11 117.38(18) . . ?
C7 C12 C13 117.43(18) . . ?
C11 C12 C13 124.90(17) . . ?
C4 C13 C12 119.67(18) . . ?
C14 C13 C4 117.66(18) . . ?
C14 C13 C12 121.89(18) . . ?
C1 C14 C13 121.12(19) . . ?
C16 C15 C11 111.08(17) . . ?
C16 C15 C17 110.27(17) . . ?
C17 C15 C11 138.08(17) . . ?
S3 C16 S2 128.98(12) . . ?
C15 C16 S2 115.42(15) . . ?
C15 C16 S3 115.12(15) . . ?
C18 C17 C15 110.68(17) . . ?
C18 C17 C19 110.35(17) . . ?
C19 C17 C15 138.82(18) . . ?
S1 C18 S2 131.61(12) . . ?
C17 C18 S1 113.33(15) . . ?
C17 C18 S2 114.82(15) . . ?
C20 C19 C17 113.84(17) . . ?
S1 C20 Si1 119.30(11) . . ?
C19 C20 S1 110.89(15) . . ?
C19 C20 Si1 129.57(15) . . ?
loop_
_geom_bond_atom_site_label_1
_geom_bond_atom_site_label_2
_geom_bond_distance
_geom_bond_site_symmetry_2
_geom_bond_publ_flag
S1 C18 1.711(2) . ?
S1 C20 1.744(2) . ?
S2 C16 1.733(2) . ?
S2 C18 1.731(2) . ?
S3 C10 1.743(2) . ?
S3 C16 1.719(2) . ?
Si1 C20 1.866(2) . ?
Si1 C21 1.863(2) . ?
Si1 C22 1.870(2) . ?
Si1 C23 1.853(2) . ?
C1 C2 1.399(3) . ?
C1 C14 1.380(3) . ?
C2 C3 1.366(3) . ?
C3 C4 1.405(3) . ?
C4 C5 1.437(3) . ?
C4 C13 1.423(3) . ?
C5 C6 1.347(3) . ?
C6 C7 1.429(3) . ?
C7 C8 1.420(3) . ?
C7 C12 1.422(3) . ?
C8 C9 1.359(3) . ?
C9 C10 1.403(3) . ?
C10 C11 1.410(3) . ?
C11 C12 1.431(3) . ?
C11 C15 1.459(3) . ?
C12 C13 1.452(3) . ?
C13 C14 1.411(3) . ?
C15 C16 1.383(3) . ?
C15 C17 1.450(3) . ?
C17 C18 1.393(3) . ?
C17 C19 1.434(3) . ?
C19 C20 1.377(3) . ?
loop_
_refln_index_h
_refln_index_k
_refln_index_l
_refln_F_squared_meas
_refln_F_squared_sigma
0 -1 0 0.9 0.3
0 1 0 0 0.3
0 2 0 6915.21 506.65
0 3 0 0.4 0.7
0 -3 0 -0.4 0.6
0 -3 0 0.7 0.6
0 -4 0 36 4.5
0 4 0 34.9 4.4
0 -4 0 43 4.3
0 -5 0 -0.4 1.3
0 -5 0 1.2 1
0 5 0 1.2 1.3
0 -6 0 1481.45 111.49
0 6 0 1491.45 110.99
0 -7 0 -1 1.9
0 7 0 -0.1 1.6
0 -8 0 175.68 16.8
0 8 0 166.78 15.5
0 -9 0 3.9 3
0 -10 0 227.78 21.1
-1 1 0 0.3 0.5
1 -1 0 0 0.4
-1 -1 0 -0.3 0.3
1 1 0 0.4 0.4
1 2 0 -0.1 0.7
-1 -2 0 -0.5 0.4
1 -2 0 0.1 0.8
-1 2 0 -0.2 0.5
-1 -2 0 0.1 0.8
-1 -3 0 -0.8 0.5
-1 -3 0 0.2 0.6
1 3 0 0 0.8
1 -3 0 0.5 0.7
-1 3 0 2.3 0.9
-1 -4 0 1.7 1.1
-1 -4 0 -1.5 0.8
-1 4 0 -0.1 0.8
1 -4 0 -1.5 0.8
-1 -5 0 -0.3 1.2
1 5 0 0 1.3
1 -5 0 -1.7 1.2
-1 -5 0 0.8 1.2
-1 5 0 -0.1 1.1
1 -6 0 -1.9 2.2
-1 6 0 0.4 1.8
-1 -6 0 1.9 2.2
-1 -6 0 0.8 1.6
1 6 0 1.7 1.7
1 7 0 -0.4 1.6
1 -7 0 -0.7 2.3
-1 -7 0 2.5 2.4
-1 7 0 -1.1 1.6
1 -8 0 0.3 2.8
1 8 0 3.2 2.3
-1 -8 0 -0.5 2.2
-1 -9 0 -3.1 2.5
1 -9 0 -4.8 3.1
-1 -10 0 5.7 3.3
2 1 0 1144.99 82.99
2 -1 0 1108.69 83.19
-2 -1 0 1120.19 82.89
-2 1 0 1163.58 83.09
2 1 0 1102.49 82.49
-2 -1 0 1106.89 82.79
2 2 0 3316.97 259.67
-2 -2 0 3968.3 259.77
-2 2 0 3311.47 263.87
2 -2 0 3329.47 262.67
-2 3 0 462.95 34
2 3 0 441.86 35.2
-2 -3 0 452.85 34.4
-2 -3 0 444.96 34.9
2 -3 0 432.16 35.2
-2 -3 0 486.95 34.3
-2 -4 0 277.37 21.2
2 -4 0 260.47 22.3
-2 4 0 259.77 20.8
2 4 0 248.78 22
-2 -4 0 290.27 21.8
-2 5 0 184.88 15.9
2 5 0 193.58 17.4
-2 -5 0 196.08 16.5
-2 -5 0 222.98 16.9
2 -5 0 185.28 17.6
-2 -6 0 540.05 40.6
2 -6 0 501.75 42.1
2 6 0 501.95 41.3
-2 6 0 523.85 39.9
-2 7 0 3.3 2
2 -7 0 3 3
-2 -7 0 -0.1 1.8
-2 -7 0 2.2 2.4
2 7 0 9.1 3.4
-2 -8 0 -1.5 2.4
2 8 0 0.9 2.2
2 -8 0 -1.8 2.7
2 -9 0 23.5 6.1
-2 -9 0 22 5.3
-2 -10 0 127.69 12.9
2 -10 0 114.49 14
3 0 0 -0.4 0.6
-3 0 0 0.9 0.8
-3 0 0 0.1 0.7
3 0 0 -0.4 0.4
3 1 0 -0.3 0.8
-3 -1 0 0 0.9
3 -1 0 0.9 1.3
-3 1 0 -0.5 1.1
3 1 0 0.3 0.9
-3 -1 0 2.3 1.3
-3 -2 0 -0.7 0.8
3 -2 0 1.1 1.2
-3 -2 0 -0.5 0.9
-3 2 0 -1.7 0.8
3 2 0 0.2 1.1
-3 -3 0 0.5 1
3 3 0 -1.2 0.6
-3 3 0 0 0.4
3 -3 0 0.4 1.3
-3 -3 0 0.1 0.9
-3 -3 0 0.2 1
-3 -4 0 0.4 1.2
-3 -4 0 -1.1 0.8
3 -4 0 -1.2 1.1
3 4 0 -0.7 0.9
-3 -4 0 0.3 1.3
-3 4 0 0.6 0.6
3 5 0 0.5 1.8
-3 5 0 -1.1 0.7
-3 -5 0 0.5 1.2
-3 -5 0 -0.4 1.6
3 -5 0 -0.9 1.5
3 6 0 -0.9 1.6
-3 6 0 0.4 1
3 -6 0 -1.1 2
-3 -6 0 0.7 2
-3 -6 0 0.9 1.9
3 -7 0 -3.2 2
-3 -7 0 -1.6 1.7
3 7 0 1.4 2
-3 7 0 0.3 1.2
-3 -7 0 -0.9 2.2
-3 -8 0 -2.5 1.9
3 8 0 -3.1 2.2
3 -8 0 -1.9 2.9
3 -9 0 -1.4 3.2
3 -10 0 -3.4 3.1
-3 -10 0 -1.9 2.7
4 0 0 26.5 4.1
-4 0 0 30.1 4.3
4 0 0 24.6 3.5
-4 0 0 31.1 3.7
4 1 0 -0.3 1.4
4 1 0 -1 1
4 -1 0 -0.1 1.4
-4 -1 0 0.3 1.4
-4 -1 0 0.6 1.3
-4 1 0 0.3 1.4
-4 -2 0 199.88 16.6
-4 -2 0 184.88 16.4
4 2 0 188.88 15.5
4 -2 0 190.08 17.1
-4 2 0 211.18 16.8
-4 -3 0 243.98 19.3
4 3 0 226.48 19.6
-4 -3 0 225.58 19.4
4 -3 0 222.68 20.1
-4 -4 0 89.49 9.1
-4 4 0 99.49 7.7
4 4 0 82.19 9.4
-4 -4 0 91.89 9.4
4 -4 0 79.29 9.8
4 -5 0 64.09 8.3
-4 -5 0 60.69 7.2
4 5 0 52.09 7.5
-4 5 0 57.49 5.5
4 6 0 45.5 7.5
-4 -6 0 37.5 6.4
-4 6 0 40.7 4.5
4 -6 0 34.7 7.6
-4 7 0 868.51 68.69
-4 -7 0 1094.29 71.49
4 -7 0 914.41 73.99
4 7 0 847.42 72.19
4 8 0 37.1 8
-4 -8 0 41.5 6.7
-4 -8 0 42.6 6.1
4 -8 0 34.7 8.8
-4 -9 0 246.28 21.2
-4 -10 0 37.2 6.2
4 -10 0 31.4 7.5
-5 0 0 1.1 1.5
5 0 0 2.9 1.9
5 0 0 0.8 1.3
-5 0 0 0 1.4
5 1 0 0.7 1.2
-5 1 0 -0.8 1.4
-5 1 0 -0.4 0.9
-5 -1 0 0.1 1.4
-5 -1 0 -0.3 1.4
5 1 0 -0.5 1.2
5 -1 0 -0.9 1.2
-5 -2 0 0 1.1
5 2 0 -1.3 0.8
-5 2 0 -0.1 1.5
5 -2 0 -1 1
5 2 0 0.5 0.6
5 2 0 -0.7 1
-5 -2 0 1 1
-5 -3 0 -0.4 0.6
5 3 0 0.3 1.4
5 -3 0 -1.1 1.2
-5 -3 0 2.2 1.9
-5 3 0 0.4 1.2
-5 -3 0 -1.1 1.1
-5 4 0 -0.2 0.6
-5 -4 0 -1.9 1.6
-5 -4 0 1.1 1.8
-5 -4 0 0.7 0.9
5 -4 0 -1.5 2
5 5 0 -0.2 1.9
-5 -5 0 -0.8 1.8
-5 -5 0 0 1.3
-5 5 0 1.5 0.8
-5 -5 0 0.2 2.2
5 -5 0 -3.3 1.5
-5 -6 0 -0.2 1.5
-5 -6 0 -1.2 2.1
5 -6 0 -0.4 2.2
-5 6 0 -0.1 0.9
5 6 0 -0.3 1.7
-5 -7 0 2.6 2.4
5 7 0 -0.4 3.1
5 -7 0 1.4 3.3
-5 7 0 -1.3 0.6
-5 -7 0 -0.5 1.8
-5 -8 0 -2.5 1.8
-5 -8 0 -2.3 2.4
5 -8 0 -4.9 3.3
5 8 0 -2.4 2.4
5 -9 0 3.9 4.3
-5 -9 0 -5 2.5
-5 -9 0 -3.5 2.2
-5 -10 0 -2.1 2.8
5 -10 0 5.9 5
-6 0 0 1363.06 101.79
6 0 0 1376.36 100.49
-6 0 0 1351.96 100.39
6 0 0 1288.87 101.59
-6 -1 0 95.99 9.7
6 1 0 88.29 10.1
-6 1 0 94.79 9.2
6 1 0 94.99 9.7
-6 -1 0 97.99 10.3
-6 1 0 97.39 10.5
6 -1 0 100.79 10.8
-6 -2 0 576.14 43.5
6 2 0 545.45 41.1
6 2 0 523.85 43.2
-6 -2 0 549.05 43.7
6 -2 0 536.75 44.4
6 2 0 558.84 43
-6 2 0 559.84 44
-6 3 0 326.87 26
6 3 0 287.27 25.9
6 3 0 335.67 23.3
6 3 0 287.97 23.5
-6 -3 0 309.17 26.1
-6 -3 0 297.67 25.9
6 -3 0 296.67 26.9
-6 -4 0 76.09 8.9
6 4 0 66.79 9.1
-6 -4 0 83.79 9.3
6 -4 0 69.39 9.7
6 5 0 177.48 18.3
-6 -5 0 197.98 15.9
-6 -5 0 203.68 18.4
-6 5 0 197.78 15.2
6 -5 0 172.68 19.2
-6 -6 0 264.47 23.9
-6 6 0 257.17 20.8
6 -6 0 276.27 26.4
6 6 0 248.18 24.5
-6 -6 0 296.07 22
-6 -7 0 333.97 26.7
6 -7 0 336.87 31.7
6 7 0 310.47 29.8
-6 -7 0 347.17 28.7
6 8 0 32.9 7.7
-6 -8 0 44 7.6
-6 -8 0 46.7 6
-6 -9 0 4.3 3.2
6 -9 0 13.8 6.3
-6 -9 0 5.7 2.9
6 -10 0 125.69 17.2
-7 0 0 -0.3 1.5
7 0 0 0 1.8
-7 0 0 -1.6 0.9
7 0 0 1.2 1.3
7 1 0 -0.5 1.1
7 -1 0 -1.6 1.2
7 1 0 0.4 1.8
-7 -1 0 -0.1 1.3
-7 -1 0 0.7 1.4
-7 1 0 -0.1 1.1
-7 -2 0 -0.4 1.2
-7 2 0 0.8 1.2
7 2 0 1.9 1.9
7 -2 0 0.8 1.6
-7 -2 0 -0.4 1.3
7 2 0 0.7 1.4
-7 2 0 0.1 1.7
-7 3 0 -1.5 1.5
7 -3 0 -1.7 1.5
7 3 0 0.5 0.8
7 3 0 -0.1 1.3
7 3 0 -0.8 1.5
-7 -3 0 -1.5 1.5
-7 -3 0 -1.8 1.1
-7 -4 0 -0.2 1.4
-7 -4 0 -1.7 1.6
7 -4 0 3.3 3.2
7 4 0 -0.4 1.5
7 5 0 -2.4 1
-7 -5 0 -2.7 1.9
7 -5 0 -1.6 2.2
-7 -5 0 0.5 2.5
-7 5 0 0.4 0.7
7 6 0 1.9 2.4
-7 6 0 -0.2 0.9
-7 -6 0 -1.8 2.7
7 -6 0 -1.7 3.6
7 -7 0 -0.9 3.6
-7 -7 0 2.1 2.8
7 7 0 -2.7 3.1
-7 -8 0 -7 2.7
7 8 0 2.6 3.7
7 -8 0 -6.7 3.2
-7 -9 0 -4.8 3
7 -9 0 1.7 4.6
7 -10 0 12.3 5.8
8 0 0 2799.62 213.88
-8 0 0 2896.81 212.18
-8 0 0 2918.91 214.08
-8 1 0 581.14 46.6
8 -1 0 576.14 48.8
-8 1 0 612.44 48.9
-8 -1 0 621.94 48.8
-8 -1 0 577.44 47.3
8 1 0 608.44 48.5
8 1 0 610.74 47.6
-8 2 0 733.83 57.69
8 -2 0 745.33 60.69
-8 -2 0 769.32 59.19
-8 -2 0 761.62 59.99
-8 2 0 776.02 60.29
8 2 0 742.03 59.09
-8 3 0 86.99 10.6
8 3 0 71.49 9.7
-8 -3 0 88.89 10.4
-8 -3 0 77.89 10.2
8 3 0 75.39 8.9
8 -3 0 80.39 11.2
8 3 0 101.49 7.9
-8 -4 0 1242.78 95.29
-8 -4 0 1290.47 95.89
8 -4 0 1170.58 96.79
8 4 0 1124.29 95.09
-8 4 0 1368.26 94.89
8 5 0 146.09 17.7
8 -5 0 186.08 19.8
-8 -5 0 189.48 18.5
-8 -5 0 194.78 18.2
8 6 0 436.86 38.2
-8 6 0 434.86 33.1
-8 -6 0 470.45 37.6
8 -6 0 442.96 40
-8 6 0 422.36 33.6
8 7 0 176.38 19.7
-8 -7 0 191.48 18.5
8 -7 0 183.98 21.9
8 -8 0 124.29 17.8
8 8 0 111.29 15.5
-8 -8 0 154.38 14.7
8 -9 0 163.38 21.6
-8 -9 0 179.68 17.6
-9 0 0 0.6 2.1
-9 0 0 1.6 1.8
9 0 0 -1.2 1.4
-9 1 0 1.3 1.6
9 1 0 -0.7 1.7
-9 -1 0 -1.8 0.8
9 -1 0 -0.4 2.3
-9 1 0 -0.5 2
-9 -1 0 -2.2 1.1
9 1 0 -0.5 1.5
-9 2 0 0.1 1.9
9 -2 0 0.4 2.1
9 2 0 0.2 2.1
-9 -2 0 1.7 2.2
-9 2 0 -0.4 1.4
9 2 0 0.1 1.3
-9 -2 0 0 2.2
-9 -3 0 0.3 1.8
-9 3 0 -0.4 1.8
9 3 0 1.2 2
9 -3 0 1.6 2.9
-9 3 0 1.1 1.7
-9 -3 0 0.9 2.7
9 3 0 1.3 2.1
9 3 0 1.3 1.3
-9 -4 0 2.6 2.5
-9 -4 0 -2.4 2.3
9 -4 0 2 2.9
-9 4 0 -1.6 1.8
9 4 0 -0.2 0.7
-9 4 0 0.6 1.3
-9 5 0 -0.7 1.2
9 -5 0 -0.7 2.8
9 5 0 3.5 3.3
-9 -5 0 1.3 2.8
-9 -5 0 -3.1 2.1
-9 -6 0 -1.6 3.1
-9 6 0 2.3 1.5
9 6 0 -6.4 2.1
-9 6 0 -1.8 0.8
9 7 0 -0.5 3.5
9 -7 0 3.3 4.1
-9 -7 0 -7.3 2.6
-9 -8 0 5.9 3.6
9 -8 0 0.6 4.5
9 -9 0 7.7 7
-9 -9 0 7 4.4
-10 0 0 393.76 33.3
10 0 0 384.76 35.2
-10 0 0 417.96 35.6
-10 -1 0 1.6 2.2
10 -1 0 2.2 2.9
10 1 0 2.8 2.5
-10 1 0 1.9 2.4
10 1 0 2.3 2.9
-10 1 0 3.9 2.8
-10 -1 0 2.7 2.9
-10 -2 0 1786.22 134.99
-10 -2 0 1685.93 138.79
-10 2 0 1962.5 137.19
10 -2 0 1695.13 136.89
10 2 0 1843.52 135.39
-10 2 0 1763.62 133.59
10 2 0 1761.52 135.49
-10 3 0 185.28 18.4
10 -3 0 169.08 19
-10 -3 0 173.88 17.4
-10 3 0 180.78 15.9
10 3 0 151.08 18.8
10 3 0 172.48 14.2
10 3 0 148.49 16.2
-10 4 0 1198.98 84.69
-10 -4 0 1130.09 84.49
10 4 0 1033.8 84.39
10 -4 0 975.2 85.89
10 4 0 1120.69 79.69
10 4 0 980.4 80.39
-10 4 0 1053.99 81.59
-10 -4 0 1133.49 85.49
-10 5 0 -0.2 1.6
-10 -5 0 1.1 3
10 5 0 5.1 3.9
-10 -5 0 4.6 3.3
-10 -6 0 77.09 12.1
-10 6 0 80.89 8.5
-10 6 0 92.79 7.6
10 -6 0 84.19 13.3
10 6 0 85.19 14
-10 -6 0 77.89 11.4
10 7 0 208.68 23
10 -7 0 213.18 25.3
-10 -7 0 238.18 22.3
10 -8 0 11.9 6.7
10 -9 0 4.8 6.9
-11 0 0 1.1 2
11 0 0 0.1 3.2
-11 0 0 -1.4 2.2
-11 -1 0 1.7 3
-11 -1 0 -1.6 2.3
-11 1 0 -2.1 1.5
11 1 0 -1.2 1.3
11 -1 0 1.5 3.4
-11 -2 0 2.1 2.8
11 -2 0 1.4 3.5
11 2 0 0.7 2.7
-11 2 0 3.5 3.8
-11 2 0 -2.3 1.4
11 2 0 2.1 2.8
-11 -2 0 1.4 2.8
-11 -3 0 1 3.2
11 -3 0 -2.8 2.2
11 3 0 1.1 1.2
11 3 0 -2.6 1.2
11 3 0 -3.4 1.9
-11 -3 0 -2.7 1.9
-11 -4 0 -1.2 2.3
-11 -4 0 -5.1 2.2
-11 4 0 -0.9 1.7
11 4 0 -1.1 2.1
-11 4 0 0.5 3
11 4 0 -0.9 1.2
11 5 0 -0.2 2.3
-11 5 0 -0.6 2
-11 -5 0 -1.7 3.6
-11 -5 0 -0.2 2.8
11 -5 0 -3.2 2.4
11 -6 0 -2.8 3.2
-11 6 0 -3.1 1.3
11 6 0 1.7 3.1
-11 -6 0 0.8 3.7
-11 -6 0 -0.7 2.8
-11 7 0 -0.4 1.1
11 -7 0 4.2 5.3
11 7 0 2.7 3.8
-11 -7 0 -3.2 4.7
-11 7 0 -0.4 0.8
11 -8 0 5.2 3.9
-11 -8 0 8.1 4.2
11 -9 0 -5.1 5.2
-12 0 0 2924.71 210.18
-12 0 0 2753.52 206.88
12 0 0 2644.14 209.38
12 1 0 5.3 4
12 1 0 6.8 4.4
-12 -1 0 5.9 4.4
12 -1 0 16.7 6.2
-12 1 0 14 5.6
-12 -1 0 6.1 3.3
12 2 0 2972.1 223.98
-12 2 0 3108.79 225.98
-12 -2 0 3059.39 225.88
-12 -2 0 2933.81 223.58
-12 2 0 2949.9 222.28
12 2 0 2941.71 224.58
-12 3 0 30.4 6.3
12 3 0 24.7 6.6
12 3 0 36.6 8
-12 -3 0 35.3 7.8
-12 3 0 39.4 9.1
12 -3 0 38.4 9.8
12 3 0 26.4 4.1
-12 -3 0 34.3 8.3
12 4 0 510.95 36.2
12 -4 0 417.86 42.7
12 4 0 460.75 41.1
12 4 0 426.06 37.9
-12 -4 0 484.15 42.3
-12 4 0 538.75 42.7
-12 4 0 448.36 38.1
-12 -4 0 466.55 40.7
-12 5 0 56.39 8
12 -5 0 59.39 13.6
12 5 0 73.19 12.5
-12 -5 0 79.79 12.6
-12 -5 0 66.89 13
-12 -6 0 426.66 36.9
-12 -6 0 447.06 38.7
-12 6 0 378.76 32.2
12 -6 0 406.46 40
12 6 0 373.26 36.8
-12 7 0 188.08 16
-12 -7 0 209.58 21.5
-12 7 0 204.78 15.7
12 7 0 190.18 22.2
12 -7 0 208.78 24.7
12 -8 0 18.7 8.8
12 -9 0 159.48 22.9
-13 0 0 -0.3 1.6
-13 0 0 2.8 3.4
-13 -1 0 -1.4 3.1
13 -1 0 -2.3 1.9
-13 1 0 -1.2 1.9
-13 1 0 0.9 2.4
13 1 0 1.2 3.3
-13 -1 0 -2.5 1.9
-13 2 0 -1.2 2.1
13 2 0 -0.1 2.3
13 -2 0 -1.2 3.2
-13 2 0 3.4 3.9
13 2 0 -0.4 2.5
-13 -2 0 0 3.1
-13 -2 0 0 1.8
13 3 0 3.8 3.7
-13 3 0 0.5 3.9
-13 -3 0 2.1 3.4
13 3 0 -3.1 1.6
-13 3 0 -2 2.7
-13 -3 0 -5 2.1
13 -3 0 2 4.2
-13 4 0 -5.5 3
13 4 0 2.8 2.8
-13 -4 0 5.1 3.8
13 4 0 -3.6 1.8
13 -4 0 -4.7 2.6
-13 -4 0 -0.9 3.8
-13 4 0 0.8 2.3
13 4 0 0 1.4
-13 5 0 1.4 2.4
13 -5 0 0.2 3.9
13 5 0 2.1 3.9
-13 -5 0 -4.4 2.7
-13 -5 0 -1.8 3.9
-13 -6 0 -4.2 3.7
13 -6 0 -3.8 3.3
-13 6 0 2.3 2.3
13 6 0 0.9 3.4
-13 -6 0 0.4 4.5
-13 7 0 -2.3 1.6
-13 -7 0 6.3 4.5
-13 7 0 -0.1 1.2
13 -7 0 0.9 4.5
13 -8 0 0.4 5
13 -9 0 11.5 7
-14 0 0 46.2 10.8
-14 0 0 34 8
14 0 0 41.3 10.5
14 1 0 6.9 3.8
-14 -1 0 14.4 5.2
-14 -1 0 15.1 6
14 -1 0 14.5 6.4
-14 1 0 13.1 6.1
-14 1 0 20.2 5.6
14 -2 0 7.8 5.4
-14 2 0 20.1 6
-14 -2 0 15.4 5.7
-14 -2 0 24.4 8.2
14 2 0 20.2 6.1
-14 2 0 18.7 7.3
14 3 0 73.69 12.5
-14 -3 0 59.19 12.3
14 -3 0 46 12.1
-14 3 0 64.79 9.2
14 3 0 66.39 10.7
-14 -3 0 79.79 12.9
-14 3 0 74.99 11.8
14 4 0 621.94 56.79
14 4 0 628.04 54.49
14 4 0 722.03 51.79
14 -4 0 642.34 59.99
-14 4 0 736.83 58.59
-14 -4 0 682.33 57.19
-14 4 0 660.23 54.19
-14 -4 0 715.03 59.39
14 5 0 320.97 30.2
14 5 0 280.97 22.6
-14 -5 0 313.67 30.1
-14 5 0 293.27 25.8
14 -5 0 266.77 31.7
-14 -5 0 322.57 31.7
-14 -6 0 120.39 16.5
14 -6 0 104.39 19.6
14 6 0 112.19 17.6
-14 -6 0 101.79 15.7
-14 6 0 78.79 10.2
-14 7 0 3.5 1.6
14 -7 0 0.7 5.3
-14 7 0 10.5 2.5
14 -8 0 9.3 8.1
15 0 0 2 3.7
-15 0 0 3.5 4.6
-15 0 0 0.8 2.5
-15 1 0 0 3.8
15 -1 0 -1.9 3.1
15 1 0 0.8 3.2
-15 1 0 5.1 3.9
-15 -1 0 -2.7 2.8
-15 -1 0 -2.8 2.8
15 2 0 -4.5 3.1
15 -2 0 4.4 4.5
-15 -2 0 6 3.7
-15 -2 0 0 4.4
-15 2 0 -5 3.6
-15 2 0 0.4 2.4
-15 3 0 -4.2 2.4
-15 -3 0 -5.6 2.4
-15 3 0 -1.8 4.1
15 -3 0 -0.3 4.2
-15 -3 0 0.4 4.3
15 3 0 -0.4 2.9
15 -4 0 2.8 3.9
15 4 0 1.5 2
-15 4 0 -2 4.6
-15 4 0 -0.8 2.3
15 4 0 2.2 2.7
15 4 0 -0.9 2.7
15 -5 0 -3.8 3.6
-15 -5 0 -1.5 4.3
15 5 0 -2.4 2.9
-15 5 0 -1.5 2.5
15 5 0 -0.4 1.4
-15 -5 0 5.6 4.1
15 5 0 1.6 2
15 -6 0 -2.5 5
-15 -6 0 8 5.6
-15 6 0 -2.3 2.4
-15 7 0 0.3 2.2
-15 7 0 -0.7 1.3
15 -7 0 0.2 4.7
15 -8 0 8.3 6.3
16 0 0 308.87 32.2
-16 0 0 339.07 33.2
-16 0 0 284.57 29.1
-16 -1 0 668.33 58.49
16 1 0 743.13 61.79
-16 1 0 707.03 61.79
-16 1 0 692.23 57.99
-16 -1 0 759.02 62.59
16 -1 0 656.03 61.49
-16 -2 0 267.57 27.9
-16 2 0 314.97 31.5
-16 2 0 275.97 26.9
16 2 0 281.67 29.7
-16 -2 0 296.67 31
16 -2 0 283.37 31.2
16 3 0 312.07 31
-16 3 0 354.46 33.7
16 -3 0 313.47 34
-16 -3 0 311.37 33.1
-16 3 0 295.37 28.6
-16 4 0 0.9 5.1
16 -4 0 7.3 5.9
-16 4 0 4 3.3
-16 -4 0 2.7 4
16 4 0 7.5 4.5
16 -5 0 19.6 9.1
-16 -5 0 22.7 6.9
16 5 0 9.8 3.5
-16 5 0 15.9 5.3
16 5 0 12.5 2.9
-16 -5 0 14.2 8.2
16 -6 0 193.78 26.7
-16 6 0 191.48 18.9
-16 -6 0 212.78 25.3
16 -7 0 183.78 26.2
-16 7 0 178.58 16.4
17 0 0 0.1 4.4
-17 0 0 1.3 4.5
-17 0 0 6.5 4.5
17 1 0 6.5 5.2
-17 1 0 -3.7 3
-17 1 0 0.7 3.4
-17 -1 0 1.4 3.7
17 -1 0 -4.9 3
-17 -1 0 -0.5 3.7
-17 2 0 -5.3 5
-17 2 0 7.3 3.8
-17 -2 0 4.7 6.4
17 -2 0 0.4 4.2
17 2 0 5.9 5.2
-17 -3 0 3.3 3.6
-17 -3 0 -5.4 4
-17 3 0 -7.5 2.6
17 -3 0 0.1 4.2
17 3 0 2.8 4.1
-17 3 0 0.1 4.4
17 4 0 2.9 4.1
-17 -4 0 0.3 5.5
-17 4 0 -0.9 2.8
17 -4 0 3.7 5.4
17 4 0 -0.5 2.1
-17 4 0 3.3 5.6
-17 -4 0 1.5 4.1
17 -5 0 0.6 5.8
17 5 0 -0.6 2.6
-17 -5 0 0.2 4.4
17 5 0 0.6 2
-17 5 0 3.2 3.9
-17 6 0 -0.6 2.9
17 -6 0 -4.5 5.1
-17 7 0 -4.1 2.8
17 -7 0 -8.3 5.1
17 -8 0 -1.3 7.6
-18 0 0 673.43 57.19
-18 0 0 697.93 61.49
18 0 0 648.74 60.39
18 -1 0 16.4 7.5
-18 -1 0 17.6 8.8
-18 1 0 22.8 9.6
-18 -1 0 31.3 10.3
18 1 0 26.5 9.2
-18 1 0 18.5 7.1
-18 2 0 331.87 34.5
18 2 0 305.07 32.2
-18 -2 0 328.07 33.9
-18 2 0 304.27 29.4
18 -2 0 261.97 32.5
-18 3 0 -1.1 3.3
-18 -3 0 -0.1 3.1
18 -3 0 -0.6 4.7
-18 -3 0 -2.6 5.6
18 3 0 -0.7 4.1
-18 4 0 11.6 5.5
-18 4 0 23.9 10.3
18 4 0 18.3 4.5
-18 -4 0 19.4 8.9
18 -4 0 13.7 7.7
18 4 0 14 6.5
-18 5 0 277.57 26.8
18 5 0 293.27 23.5
18 -5 0 300.67 34.9
18 5 0 278.07 25.6
18 -6 0 128.19 24.7
-18 6 0 131.19 14.7
18 -7 0 2.5 7
19 0 0 -1.2 3.5
-19 0 0 -1.1 3.8
-19 1 0 -2.4 5.2
-19 1 0 7.1 4.8
19 1 0 0.1 3.7
19 -1 0 0.9 4.8
-19 -1 0 -1.4 3.9
19 -2 0 0.5 4
-19 2 0 -0.3 4.1
-19 2 0 8.5 7.8
19 2 0 -0.2 3.8
-19 3 0 6.3 3.5
19 3 0 -0.5 4.1
19 -3 0 -5.6 3
-19 3 0 3.7 6.8
-19 4 0 6.7 3.5
19 4 0 1.9 2.5
-19 4 0 5.2 6.8
19 -4 0 -0.1 4.7
19 4 0 -4.6 3.7
-19 5 0 -1.5 3.7
19 5 0 7 4.2
19 -5 0 8.2 7.3
-19 6 0 5.6 4
-19 7 0 10.4 4.2
19 -7 0 -8.2 6.1
20 0 0 156.98 22.6
-20 0 0 161.88 19.7
20 -1 0 83.69 18.6
-20 1 0 58.39 12.1
20 1 0 76.89 17
20 -2 0 4.3 5.4
-20 2 0 0.8 3.4
-20 2 0 -6.2 7.1
20 2 0 8.8 7.2
-20 3 0 2.6 3.9
20 3 0 -6.2 3.1
-20 3 0 2.6 7.2
20 -3 0 -0.1 5.2
20 -4 0 105.89 22.4
-20 4 0 119.19 15
20 4 0 111.49 12.2
-20 4 0 132.09 20.7
-20 5 0 110.59 13.9
20 -6 0 68.59 18.1
-20 6 0 70.59 11.3
20 -7 0 -1.1 7.4
-20 7 0 2.8 4.8
21 0 0 -3.7 3.9
21 -1 0 -3.7 5
21 1 0 1.8 6.3
-21 1 0 -0.6 4.3
21 2 0 -4.7 5.1
21 -2 0 -2.2 4.8
-21 2 0 -3.6 4.8
-21 3 0 8 4.4
21 -3 0 -3.8 5.4
21 3 0 -7.3 4
21 4 0 -4.5 3.8
-21 4 0 -0.5 5
21 4 0 -5.8 3
21 -5 0 4.5 6.2
21 5 0 -2.3 4
-21 5 0 14.2 6.4
21 -6 0 1.9 7.1
-21 6 0 -13.2 4.4
22 0 0 490.55 49.9
22 1 0 -5.2 4.7
22 -1 0 1.1 6.3
22 2 0 130.29 20.6
22 -2 0 148.19 23.5
22 3 0 5.2 6
22 -3 0 -0.5 5.6
-22 3 0 6.1 6
22 -4 0 65.59 18.3
22 4 0 87.19 16
-22 4 0 108.99 14.1
22 4 0 66.59 10.1
22 -5 0 0.4 7.3
22 5 0 0.9 5
-22 5 0 0.6 5.4
22 -6 0 19 11
23 0 0 -0.3 6.7
23 1 0 4.9 7
23 -2 0 4.7 8.1
23 2 0 5.5 6.5
23 3 0 -7.3 4.6
23 -3 0 -6 5.6
23 -4 0 -3.4 5.5
23 4 0 -3.1 5.7
23 -5 0 7.7 8.4
23 5 0 -0.6 4.2
24 0 0 34.5 12.9
24 -1 0 361.96 41.9
24 -2 0 73.49 18.7
24 2 0 81.39 17.9
24 -3 0 -4.4 6
24 3 0 0.3 6.1
24 -4 0 72.09 20.5
24 4 0 83.19 15.8
24 4 0 71.69 11.1
24 -5 0 443.96 52.39
24 5 0 546.15 40.9
24 5 0 456.35 43.4
25 0 0 3.4 8.1
25 -1 0 -3.3 6.3
25 1 0 -2 5.8
25 2 0 -7.8 5.6
25 -2 0 7.7 8.2
25 3 0 -5.6 5.8
25 -3 0 5 8.3
25 4 0 -0.9 5.4
25 4 0 -4.1 5.4
25 -4 0 9.6 8.6
26 0 0 12.2 9.9
26 -1 0 1.3 7.9
26 1 0 -2.7 7.3
26 2 0 15.8 10.1
26 -2 0 15.8 10.4
26 3 0 3.2 7.4
26 -3 0 4.6 8
27 0 0 -2.1 6.8
27 -1 0 -4.1 6.5
27 1 0 3.9 8.2
27 -2 0 -3.5 6.2
27 2 0 -4.3 6.5
28 0 0 3.6 7.6
28 1 0 124.29 25.8
28 -1 0 171.38 26.5
0 -1 1 0.1 0.3
0 1 -1 0.4 0.3
0 1 1 -0.1 0.2
0 1 -1 0 0.4
0 -1 -1 0.7 0.3
0 -1 1 0 0.5
0 2 1 4446.26 304.87
0 2 -1 3838.32 306.97
0 3 -1 0.3 0.8
0 3 1 0.3 0.6
0 -3 1 0.8 0.7
0 -3 -1 1 0.7
0 -3 1 0.6 1
0 -4 -1 32.9 3.5
0 -4 1 29 4.4
0 4 -1 25.5 4.2
0 -4 -1 29.3 3.3
0 4 1 25 3.6
0 -4 1 40.2 4
0 5 1 1.3 1.2
0 -5 -1 -0.3 1.1
0 -5 1 1.4 1.5
0 5 -1 1.7 1.3
0 -5 -1 -1.1 0.8
0 6 1 -1.1 1.6
0 6 -1 1.3 1.6
0 -6 -1 -0.5 1.9
0 -6 1 -0.4 2.2
0 7 -1 -2.9 1.4
0 7 1 -0.4 1.5
0 -7 1 1 2.1
0 -7 -1 1.6 1.7
0 -8 1 1329.67 99.39
0 -8 -1 1248.88 98.49
0 8 -1 1332.47 98.49
0 -9 -1 -2.2 2.1
0 -9 1 1.9 3.1
0 -10 1 13.7 4.9
0 -10 -1 9.2 3.9
-1 -1 1 250.77 19.2
-1 1 -1 243.88 19.5
1 1 1 244.68 19.2
1 1 -1 247.68 19.2
-1 -1 -1 236.28 19.1
1 1 -1 272.47 19.3
1 -1 1 243.08 19.6
1 1 -1 277.57 19.2
-1 2 -1 27.7 2.7
-1 -2 1 24.1 3.1
-1 -2 1 28.9 3.1
-1 2 -1 25.2 2.7
1 2 1 18.3 2.8
-1 -2 -1 21.8 2.8
1 2 -1 29.7 3.3
-1 2 1 23.1 2.2
1 -2 1 20.3 3.2
1 -3 -1 214.98 16.7
1 3 1 196.08 17.3
-1 -3 1 216.08 17.5
-1 -3 1 251.37 17.6
-1 3 -1 230.98 17.2
1 -3 1 205.68 17.9
1 3 -1 211.48 17.6
-1 3 1 201.98 16.7
-1 -3 -1 229.58 17.3
-1 4 -1 216.48 17.6
1 4 1 215.18 17.9
-1 -4 1 218.38 18.1
-1 -4 1 245.98 17.9
1 -4 -1 210.68 17.4
-1 -4 -1 234.88 17.5
1 -4 1 212.58 18.6
-1 4 1 210.68 17.1
1 4 -1 197.68 18
-1 -4 -1 207.48 16.6
1 5 1 138.19 13
-1 -5 1 136.59 13.1
-1 -5 1 167.88 13
-1 5 -1 139.29 12.7
1 -5 -1 139.99 13
-1 -5 -1 173.98 12.7
1 5 -1 146.39 13.5
-1 -5 -1 142.49 12.4
-1 5 1 127.39 12.2
1 -5 1 142.29 13.9
1 6 1 366.06 28.2
1 -6 -1 351.36 28.7
-1 6 -1 317.47 27.6
-1 -6 1 375.16 28.7
1 -6 1 340.07 29.2
-1 6 1 340.77 27.1
1 6 -1 332.47 28.4
-1 -6 -1 327.57 27.5
-1 7 -1 0.1 1.4
-1 -7 1 2.9 2.2
1 7 1 0.8 1.6
1 -7 -1 0.5 2.1
-1 7 1 1.7 1.5
1 7 -1 -0.9 1.7
-1 -7 -1 0.9 1.8
1 -7 1 -0.1 2.3
1 -8 -1 79.09 9.7
-1 8 -1 63.09 8
-1 -8 1 85.69 9.5
1 -8 1 76.49 10
-1 -8 -1 66.89 8.5
1 8 -1 70.29 9
1 -9 -1 4.3 3.9
-1 -9 1 11.6 4.6
1 -9 1 9.5 4.5
-1 -9 -1 17.6 4.4
1 -10 -1 105.59 12.2
-1 -10 1 122.69 13.2
1 -10 1 112.69 13.3
-1 -10 -1 112.49 12.1
2 -1 -1 146.59 11.7
-2 -1 1 143.49 11.6
-2 1 -1 134.39 11.9
-2 -1 1 146.89 11.8
2 1 1 154.28 10.8
-2 1 1 134.49 10.8
-2 -1 -1 137.89 11.6
2 1 -1 139.69 11.6
2 1 -1 142.89 11.7
-2 -1 -1 141.69 11.2
2 -1 1 140.99 12.1
-2 -2 1 7212.88 476.05
2 2 1 6035 472.95
-2 2 -1 6175.68 479.85
2 -2 -1 6277.57 476.95
2 2 -1 6735.23 476.15
2 -2 1 6350.86 477.95
-2 -2 -1 6727.63 472.15
-2 2 1 5961.1 476.65
-2 -3 1 773.02 55.69
2 3 1 711.03 55.79
2 -3 -1 726.93 55.49
-2 3 -1 832.62 54.99
-2 3 1 737.73 54.39
-2 -3 -1 732.13 55.59
2 3 -1 697.63 55.89
2 -3 1 696.33 56.29
-2 -4 1 647.64 45.2
-2 -4 1 667.83 45.3
2 -4 -1 554.44 45.1
-2 4 -1 578.34 44.3
2 4 1 562.54 45.3
-2 -4 -1 582.34 43.8
-2 -4 -1 617.24 45
-2 4 1 548.45 43.8
2 4 -1 551.24 45.4
-2 -4 -1 567.14 43.7
2 -4 1 610.74 46.3
-2 -5 1 2.7 2.1
2 -5 -1 3.7 2.2
-2 5 -1 6.4 2
-2 -5 1 3.4 1.8
2 5 1 2.6 2.1
-2 -5 -1 4.2 1.7
2 -5 1 5.5 2.9
-2 -5 -1 4.2 1.7
2 5 -1 7.7 2.7
-2 5 1 4.6 1.5
2 -6 -1 746.13 61.09
2 6 1 765.72 60.59
-2 6 -1 759.52 59.49
-2 -6 1 841.82 60.49
2 -6 1 764.52 61.89
2 6 -1 753.72 60.89
-2 -6 -1 779.82 59.39
-2 -6 -1 910.31 59.89
-2 6 1 747.63 58.69
-2 -7 1 17.9 3.9
-2 7 -1 14.6 3.5
2 -7 -1 16 4.8
-2 -7 1 19.4 4.5
2 7 1 10.6 3.4
2 7 -1 15.5 4.4
-2 -7 -1 18.3 3.6
2 -7 1 19.3 5.5
-2 -7 -1 18.5 3.8
2 -8 -1 -1.6 3.1
-2 8 -1 2 1.8
-2 -8 1 5.3 2.8
2 -8 1 -1.5 3.3
2 8 -1 -2 2.2
-2 -8 -1 3.7 2.8
2 -9 -1 11 4.1
-2 -9 1 3.8 3.6
-2 -9 -1 8.4 3.5
2 -9 1 3.7 4
2 -10 -1 39.1 7.8
-2 -10 1 15.6 5.7
-2 -10 -1 26.3 5.6
2 -10 1 21.4 6.6
3 0 -1 -0.1 0.6
-3 0 1 0.2 0.7
-3 0 1 -0.3 0.8
3 0 1 -0.4 0.7
3 0 -1 0.2 0.7
-3 0 -1 -0.2 0.7
3 1 1 113.69 10
-3 1 -1 123.39 10.9
-3 -1 1 120.49 10.6
3 -1 -1 120.39 10.6
-3 -1 1 114.29 10.3
3 -1 1 114.29 10.9
3 1 -1 122.39 9.5
-3 1 1 136.89 10.7
3 1 -1 116.79 10.5
-3 -1 -1 112.49 10.2
3 1 -1 112.69 10.3
-3 -1 -1 123.19 10.4
3 2 1 1023.7 81.49
3 -2 -1 1077.49 81.69
-3 -2 1 1119.09 81.69
-3 2 -1 1100.49 81.79
-3 -2 1 1040.4 81.39
-3 -2 -1 1089.99 81.59
3 2 -1 1035.9 81.59
-3 -2 -1 1053.19 80.79
-3 -2 -1 1270.77 80.09
3 2 -1 1214.58 80.59
3 2 -1 1048 80.79
3 -2 1 1031.3 82.19
-3 -3 1 -0.9 0.7
3 -3 -1 1 1.2
3 3 1 -0.1 1.1
-3 -3 1 -0.1 1.2
-3 -3 1 0 1.1
-3 3 -1 1 1
-3 3 -1 0.8 0.7
-3 3 1 0.3 0.4
3 3 -1 0.6 1.3
-3 -3 -1 0.9 0.7
-3 -3 -1 -0.2 0.6
-3 -3 -1 -0.2 0.8
3 -3 1 -0.5 1.2
-3 4 -1 502.15 37.2
3 4 1 457.85 38.6
-3 -4 1 543.55 38.6
3 -4 -1 478.65 38.8
-3 4 1 464.55 36.6
3 -4 1 470.85 39.5
-3 -4 -1 474.05 38.2
-3 -4 -1 570.94 37.2
3 4 -1 451.75 38.7
-3 -4 -1 491.15 37.4
-3 5 -1 89.19 8.8
-3 -5 1 113.49 10.2
3 5 1 97.59 10.4
-3 -5 1 118.99 10.1
3 -5 -1 88.99 10.4
-3 -5 -1 102.99 9.9
3 -5 1 106.09 11.5
3 5 -1 95.79 10.5
-3 5 1 90.49 8.3
-3 -5 -1 101.09 9
-3 -6 1 325.17 24.8
-3 6 -1 274.77 23.5
-3 -6 1 349.07 24.9
3 6 1 268.77 25
3 -6 -1 272.87 25.8
3 6 -1 285.87 25.5
-3 -6 -1 312.07 24.4
3 -6 1 293.57 26.6
-3 -6 -1 308.97 23.7
-3 6 1 261.37 22.5
-3 -7 1 1 2.1
3 -7 -1 -1.2 2.2
3 7 1 1.2 2.4
-3 7 -1 0.8 1.4
-3 -7 -1 0.6 1.8
-3 -7 -1 -4 1.5
3 -7 1 -0.4 2.8
3 7 -1 -3.2 1.6
-3 -8 1 337.27 26.4
-3 8 -1 276.67 24.5
3 -8 -1 285.57 28
3 8 -1 265.87 26.9
-3 -8 -1 337.57 25.6
-3 -8 -1 370.16 25.8
3 -8 1 282.67 28.4
3 -9 -1 3.1 3.7
-3 -9 1 -3.1 2.6
-3 -9 -1 0.3 2.4
-3 -10 1 3.4 3.6
3 -10 -1 -3.7 3.9
-3 -10 -1 5.9 3.4
3 -10 1 3 3.9
4 0 1 0.8 1.3
4 0 -1 0.1 1
-4 0 1 -0.4 0.8
-4 0 -1 -0.6 1.3
4 0 -1 0.5 0.8
-4 0 1 -0.1 1.1
-4 -1 1 1068.29 80.29
4 1 1 1102.59 79.89
-4 -1 1 1095.69 79.79
4 1 1 1032.8 79.69
-4 1 -1 1015.8 80.39
4 -1 -1 1078.59 80.49
-4 1 1 1048.4 78.99
4 -1 1 1061.69 80.69
-4 -1 -1 1051.99 79.99
4 1 -1 1057.69 80.19
-4 -1 -1 1084.09 79.89
4 1 -1 1058.69 79.79
-4 1 1 1135.99 80.39
4 -2 -1 22 4.3
-4 2 -1 24.8 4.5
-4 -2 1 23 3.7
-4 -2 1 23.9 2.8
4 2 1 24 2.4
4 2 1 25.8 4.1
-4 -2 1 21.7 3.9
4 -2 1 16.8 4.1
4 2 -1 24.9 4.2
-4 -2 -1 24.3 4.3
4 2 -1 19.3 3.3
4 2 -1 32.4 3
-4 -2 -1 19.4 3.3
-4 2 1 28.8 3.8
-4 -3 1 1045.5 73.69
-4 3 -1 1024.2 73.09
4 -3 -1 959.1 73.79
4 3 1 957.1 73.49
-4 -3 1 997.4 73.39
-4 -3 -1 905.81 72.39
-4 -3 -1 1008.9 73.49
4 3 -1 909.61 73.39
4 -3 1 926.31 74.19
-4 4 -1 43.6 4.4
4 4 1 42.1 6.1
-4 -4 1 59.89 5.6
4 -4 -1 51.49 6.8
-4 -4 1 38.8 5.7
-4 4 1 41.5 4
-4 -4 -1 45.2 5.3
4 4 -1 42.6 6.8
-4 -4 -1 42.6 5.8
4 -4 1 40.9 6.6
4 -5 -1 32.1 6.6
-4 -5 1 40.9 5.7
-4 5 -1 38.5 4.3
4 5 1 25.8 5.7
-4 -5 1 49.1 5.5
4 5 -1 35.2 6.7
4 -5 1 27.8 6.4
-4 -5 -1 39.9 5.4
-4 -5 -1 39.7 5.6
-4 -5 -1 48.1 4.8
-4 5 1 37.5 3.7
-4 6 -1 5.6 1.8
4 6 1 2.5 2.6
-4 -6 1 4.1 2.5
-4 -6 1 7.1 2.9
4 -6 -1 1.2 3.4
4 6 -1 3.3 2.6
-4 6 1 5.5 1.1
4 -6 1 3 3.3
-4 -6 -1 5 2.2
-4 -6 -1 3.8 2.7
4 7 1 18.8 5
-4 -7 1 26.1 5.3
-4 7 -1 15.6 3.3
4 -7 -1 17.8 5.5
-4 -7 1 25.8 5
-4 -7 -1 17.3 6.1
4 -7 1 17 5.8
-4 -7 -1 21.9 4
4 7 -1 15.3 5.2
-4 8 -1 0.9 1.3
-4 -8 1 -1.9 2.2
-4 -8 1 1.6 2.3
4 -8 -1 2.1 3.8
-4 -8 -1 -2.6 1.9
4 8 -1 -1.4 2.7
-4 -8 -1 -1.1 2
4 -8 1 0 3
-4 -9 1 -1.1 2.6
4 -9 -1 5.6 4.1
4 9 -1 -0.4 3.1
-4 -9 -1 -0.4 2.1
4 -9 1 -3.4 3.7
4 -10 -1 6 4.4
4 -10 1 -3.3 4.5
-4 -10 -1 -2.9 2.3
-5 0 1 -0.3 1.1
5 0 -1 -1.5 1.5
-5 0 -1 -0.9 0.9
5 0 -1 0.2 1.2
-5 0 -1 -0.6 1.6
5 0 1 -1.3 1.2
-5 0 1 0.5 1.5
5 1 1 425.36 33.9
-5 -1 1 428.36 34.3
-5 1 -1 424.56 34.6
-5 -1 1 437.86 33.7
5 1 -1 435.76 34.3
-5 -1 -1 420.56 34.1
-5 1 1 438.96 34.4
5 -1 1 426.66 34.7
5 1 -1 421.26 33.6
-5 1 1 425.56 32.9
-5 -1 -1 417.96 33.6
-5 -2 1 544.55 41.4
5 2 1 608.44 38.9
5 -2 -1 504.15 41.5
5 2 1 497.35 39.7
5 2 1 500.05 40.9
-5 -2 1 514.55 40.8
-5 2 -1 537.85 41.6
5 -2 1 489.55 41.7
5 2 -1 479.95 40.4
-5 -2 -1 515.35 40.9
-5 2 1 519.55 39.5
-5 -2 -1 500.15 40.7
-5 2 1 557.44 41.2
-5 -3 1 772.32 57.99
-5 -3 1 766.72 56.19
5 3 1 711.53 57.89
-5 3 -1 805.82 58.09
-5 -3 1 792.92 58.29
5 -3 -1 721.73 58.49
5 3 -1 712.43 55.79
-5 -3 -1 767.52 57.99
5 3 -1 772.82 55.69
5 3 -1 719.93 57.99
-5 -3 -1 748.13 57.49
5 -3 1 729.23 58.99
-5 -4 1 13.6 3.7
5 -4 -1 8.2 3.3
-5 -4 1 7.6 3
5 4 1 11.3 3.5
-5 4 -1 8.9 1.7
-5 -4 1 13.4 2.6
-5 -4 -1 9.4 2.8
5 4 -1 4 2.4
-5 -4 -1 11.2 2
-5 4 1 8.9 1.4
-5 -4 -1 4.4 2.8
5 -4 1 5.5 3.2
5 -5 -1 4.4 3.4
-5 -5 1 8.2 3.2
5 5 1 4.3 2.6
-5 5 -1 6.1 1.6
-5 -5 1 11.1 2.7
-5 5 1 7.8 1.4
-5 -5 -1 8.9 3.1
-5 -5 -1 6 3
5 -5 1 4.5 3.3
-5 -5 -1 9.9 2.1
5 5 -1 6.6 3.2
5 6 1 -1.7 1.2
-5 6 -1 0.2 1
-5 -6 1 -2.3 1.8
-5 -6 1 1 1.9
5 -6 -1 -2.4 2.4
5 -6 1 1.4 3.4
5 6 -1 -2.7 1.9
-5 -6 -1 -0.2 1.4
-5 -6 -1 -0.7 2.2
-5 7 -1 3.9 1.8
5 -7 -1 5.7 4.2
-5 -7 1 3.4 2.8
-5 -7 1 3.6 2.7
5 7 1 4 2.5
5 7 -1 0.3 2.1
-5 -7 -1 1.6 1.9
5 -7 1 5.8 4.5
-5 -7 -1 -0.6 2.4
5 -8 -1 23.4 7.4
-5 -8 1 21.3 5.2
-5 -8 1 29.5 5.5
-5 -8 -1 27.8 5.5
5 8 -1 28.1 6.5
-5 -8 -1 26.5 4.6
5 -8 1 22.3 8.2
-5 -9 1 -1.1 2.2
5 -9 -1 0.4 5
5 -9 1 1 4.2
-5 -9 -1 -2.1 1.8
5 9 -1 2.7 3.4
5 -10 -1 29.3 6.8
-5 -10 1 31.2 6
5 -10 1 32.6 8.7
-5 -10 -1 26.1 4.9
-6 0 -1 0.8 1.3
-6 0 -1 -0.6 1.1
-6 0 1 3.7 2.2
6 0 -1 0.5 1.2
6 0 -1 0 1.7
-6 0 1 -0.3 0.9
6 0 1 -0.8 1.3
6 1 1 502.35 41.6
-6 -1 1 531.05 42.2
-6 1 -1 540.45 42.5
-6 -1 1 523.95 41.2
6 -1 -1 547.55 42.5
6 1 -1 507.15 41.2
-6 -1 -1 493.95 41.8
-6 1 1 557.94 42.4
-6 1 1 537.15 40.5
-6 -1 -1 541.05 41.5
6 1 -1 526.45 42
6 -1 1 511.65 42.4
6 -2 -1 1935.61 144.29
-6 -2 1 1928.21 143.79
-6 2 -1 1965.1 144.19
-6 -2 1 1959.1 143.19
6 2 1 1905.81 143.29
6 2 1 1906.51 142.39
-6 -2 -1 1877.11 143.39
-6 2 1 1881.21 141.69
-6 -2 -1 1849.02 143.09
6 -2 1 1833.82 144.29
6 2 -1 1886.71 143.29
-6 2 1 2055.99 143.79
6 2 -1 1888.31 143.09
6 2 -1 2054.99 141.19
-6 3 -1 844.82 64.39
-6 -3 1 838.92 64.19
-6 -3 1 846.22 64.59
6 -3 -1 813.62 65.09
6 3 1 823.02 64.29
-6 -3 -1 798.72 63.89
6 -3 1 829.92 65.59
6 3 -1 824.82 64.39
-6 3 1 790.82 61.99
-6 -3 -1 836.42 64.19
6 3 -1 928.31 61.89
6 3 -1 790.72 62.49
6 4 1 495.95 42.4
-6 -4 1 591.64 43.1
6 -4 -1 494.35 43.2
-6 4 -1 583.84 41.5
-6 -4 1 495.85 40.1
-6 -4 1 514.75 42.2
-6 -4 -1 552.84 42.5
6 4 -1 491.15 42.5
-6 -4 -1 527.25 42
6 -4 1 513.45 43.8
6 -5 -1 154.48 16.5
-6 5 -1 159.08 12.6
-6 -5 1 156.28 15.2
-6 -5 1 179.08 13.7
6 5 1 143.99 15.3
-6 -5 -1 160.08 15.3
6 -5 1 153.28 17
6 5 -1 140.69 15.5
-6 -5 -1 132.59 12.5
-6 5 1 154.48 12
-6 -5 -1 155.38 14.9
6 6 1 121.39 14.2
-6 -6 1 145.59 12.4
-6 -6 1 146.39 14.2
6 -6 -1 134.89 15.6
-6 6 -1 125.49 11.3
-6 -6 -1 143.19 14
6 -6 1 116.59 15.6
-6 -6 -1 132.89 11.6
-6 -7 1 27.2 5.8
6 -7 -1 24 6.7
6 7 1 16.4 5.3
-6 7 -1 22.8 3.4
-6 -7 1 27.4 4.8
-6 -7 -1 18 3.6
-6 -7 -1 21.8 5.5
6 7 -1 11 4.7
6 -7 1 25 7.7
6 -8 -1 270.47 27.5
-6 -8 1 276.37 23
-6 -8 1 288.57 24.5
6 -8 1 275.37 28.3
6 8 -1 259.07 25.9
-6 -8 -1 252.97 22.1
-6 -8 -1 296.87 24.3
6 -9 -1 58.49 12
-6 -9 1 49.7 8.4
-6 -9 1 52.19 7.3
-6 -9 -1 70.59 8.7
6 -9 1 81.19 12.3
6 -10 -1 26.5 8
6 -10 1 36.8 8.7
7 0 -1 -0.1 1.7
-7 0 -1 -1.3 1.6
-7 0 1 0 1.3
7 0 1 0.2 1.5
-7 0 -1 1.1 1.2
-7 0 1 0 1
7 0 -1 -0.3 1.2
7 -1 -1 113.69 12.4
-7 1 -1 107.69 12.3
7 1 1 106.19 11.7
-7 -1 1 107.89 11.9
-7 -1 1 121.99 11.4
-7 -1 -1 106.39 11.9
-7 1 1 111.49 10.6
7 1 -1 110.49 12
7 1 -1 100.49 11.1
-7 1 1 125.29 12.5
7 -1 1 117.59 12.7
-7 -1 -1 116.59 11.5
7 2 1 162.98 15.5
-7 -2 1 168.68 15.9
-7 2 -1 164.58 16.7
7 -2 -1 167.18 17
7 2 1 158.98 15.8
-7 -2 1 191.28 17
7 -2 1 163.78 17.1
7 2 -1 160.38 13.8
7 2 -1 166.78 16
-7 -2 -1 180.98 16.3
7 2 -1 172.18 16.1
-7 2 1 158.88 14.6
-7 -2 -1 184.18 16.7
-7 2 1 198.68 17.2
7 -3 -1 9.6 3.9
7 3 1 5.4 2.8
7 3 1 8.2 2.1
-7 3 -1 9.8 3.5
-7 -3 1 8.2 3.1
-7 -3 1 7.2 3.3
7 3 1 10.9 1.7
7 3 -1 7.3 2.7
-7 3 1 12.1 3.6
-7 3 1 7.4 2.1
-7 -3 -1 4.3 2.7
-7 -3 -1 6.1 3.1
7 -3 1 8.2 3.7
7 3 -1 7.1 2.9
7 3 -1 10.3 2.1
7 -4 -1 535.15 47
7 4 1 553.94 46.1
-7 4 -1 645.74 45.7
-7 -4 1 609.14 46.7
7 4 -1 541.15 46.1
7 -4 1 534.15 47.3
-7 -4 -1 585.24 46
-7 4 1 550.04 43.2
-7 -4 -1 566.54 45.8
-7 -5 1 6 3.6
-7 5 -1 7 1.7
7 -5 -1 2.1 3.4
7 5 1 9.2 4
-7 5 1 6.1 1.5
-7 5 1 8.4 1.4
7 -5 1 3.8 3.5
7 5 -1 9.6 3.9
-7 -5 -1 7.2 3.6
-7 -5 -1 7.7 3.6
-7 -6 1 97.39 9.3
7 -6 -1 95.69 13
-7 6 -1 89.59 8.3
7 6 1 92.39 11.7
-7 -6 1 87.49 11.1
7 6 -1 89.69 11.7
7 -6 1 86.69 13
-7 -6 -1 111.49 12.1
-7 -6 -1 86.69 10.9
-7 -7 1 -1.3 2.6
7 7 1 -1.1 2.3
-7 -7 1 3.3 2.1
7 -7 -1 -0.6 3.8
-7 7 -1 -0.4 1.1
7 7 -1 -1.2 2.3
7 -7 1 2.8 6
-7 -7 -1 0.8 2.6
-7 -8 1 18.8 4.2
7 -8 -1 10.6 5.8
-7 -8 1 27.2 5.2
7 8 -1 18.3 6
-7 -8 -1 21.8 5.6
7 -8 1 15.9 7.6
7 -9 -1 34.8 9.4
-7 -9 1 18.7 5.1
7 -9 1 32.4 10.1
-7 -9 -1 23.6 5.7
7 -10 -1 25.9 7.8
7 -10 1 11.6 6.8
-8 0 1 -1.1 1.8
8 0 -1 -0.9 1.2
-8 0 -1 1.9 2.2
-8 0 -1 4.1 2.3
8 0 -1 -0.3 1.8
-8 0 1 -0.6 1.3
8 0 1 -1.9 1.3
-8 1 -1 459.45 36.9
8 1 1 452.25 38.1
8 1 1 507.55 37.9
8 -1 -1 454.25 38.8
-8 -1 1 440.26 37.1
-8 1 -1 463.35 38.9
-8 -1 1 465.25 38.7
8 1 -1 439.16 37.3
8 -1 1 452.95 38.9
8 1 -1 490.65 38.8
-8 -1 -1 452.15 37.4
-8 -1 -1 473.35 38.7
-8 1 1 468.85 38.7
-8 1 1 441.66 36.5
-8 -2 1 988 73.09
-8 2 -1 943.41 73.09
8 -2 -1 913.01 73.29
8 2 1 895.01 71.39
-8 -2 1 994.2 72.09
8 2 1 899.21 71.79
-8 2 1 985.8 72.99
8 -2 1 900.41 73.39
8 2 -1 910.11 71.79
-8 2 1 915.41 70.29
8 2 -1 885.31 71.99
-8 -2 -1 917.41 71.79
-8 -2 -1 933.61 72.59
-8 -3 1 -0.1 1.5
8 3 1 1.1 1.2
8 3 1 0.5 0.9
-8 3 -1 1.8 2.5
-8 -3 1 2.4 2.2
8 3 1 -1.5 1.7
8 -3 -1 2.5 2.8
-8 -3 -1 -0.4 2.2
-8 3 1 -0.2 1.1
8 -3 1 1.8 2.5
-8 3 1 0.8 2.2
8 3 -1 0.4 1.8
8 3 -1 -0.3 1
8 3 -1 2.1 1.8
-8 -3 -1 -1.8 1.6
-8 4 -1 60.29 8.5
-8 -4 1 60.09 8.6
-8 -4 1 77.19 9.7
8 -4 -1 64.49 11.5
8 4 1 63.19 8.8
8 4 -1 52.79 9.4
8 4 -1 60.29 5.4
-8 -4 -1 72.29 9.1
-8 -4 -1 60.59 8.7
-8 4 1 59.39 6.4
8 -4 1 57.29 11.3
-8 -5 1 252.47 25
8 -5 -1 223.88 23.5
-8 -5 1 244.88 22.3
8 5 -1 231.68 22.7
-8 -5 -1 235.78 22
8 -5 1 227.78 24
-8 -5 -1 244.88 22.5
-8 5 1 232.48 18.9
-8 -6 1 80.39 10.7
-8 6 -1 90.19 7.8
8 6 1 95.29 11.9
8 -6 -1 95.29 13.3
8 6 -1 75.19 12.6
8 -6 1 78.49 13
-8 6 1 83.19 6.7
-8 6 1 81.99 6.8
-8 -6 -1 93.39 11.4
-8 -6 -1 91.59 12.4
8 7 1 28.9 7.8
-8 -7 1 54.69 8.9
-8 7 -1 40.6 4.3
-8 -7 -1 32.7 6.9
8 -7 1 37.4 10
8 7 -1 37.1 8.6
-8 -8 1 436.86 35.4
8 -8 -1 402.26 39.1
8 -8 1 396.46 39.3
8 8 -1 380.06 36.7
-8 -8 -1 426.76 35
8 -9 -1 100.09 15.5
-8 -9 -1 91.29 11.5
8 -9 1 99.79 16.1
-9 0 -1 -1.7 1.3
9 0 -1 0.6 1.6
-9 0 -1 -1.7 1.6
9 0 1 0.8 2.6
-9 0 1 1.2 1.9
9 0 -1 0.3 1.3
-9 0 1 3.5 2.6
9 1 1 48.2 7.9
-9 -1 1 52.79 7.5
9 -1 -1 53.79 10.2
-9 -1 1 57.29 8.6
-9 1 -1 62.89 7.6
-9 1 -1 70.09 9.4
9 1 -1 56.69 8.7
-9 -1 -1 58.09 8.6
9 -1 1 60.39 9.1
-9 -1 -1 63.99 8.1
9 1 -1 56.89 7.8
-9 1 1 55.79 8.5
-9 1 1 59.79 7.2
9 2 1 228.58 21
9 2 1 229.68 21.1
-9 -2 1 243.18 21.2
9 -2 -1 232.78 22.6
-9 -2 1 231.08 22
-9 2 -1 230.98 20.1
-9 2 -1 209.18 21.7
9 2 -1 218.18 21.3
-9 2 1 247.58 22.2
9 2 -1 221.78 20.9
-9 -2 -1 213.08 21.6
-9 2 1 210.08 19.4
9 -2 1 223.48 22.6
-9 -2 -1 242.98 21.3
9 -3 -1 412.96 39
9 3 1 432.16 36.1
-9 3 -1 460.45 38.7
9 3 1 431.26 37.8
-9 -3 1 459.75 38.7
-9 -3 1 451.45 37.8
9 3 1 485.45 34.4
-9 3 1 503.15 38.7
9 -3 1 400.16 39
-9 3 1 425.66 35.6
9 3 -1 411.36 37.6
9 3 -1 501.65 34.8
-9 -3 -1 458.05 38
-9 -3 -1 448.66 38.4
9 3 -1 445.96 37.1
-9 -4 1 136.39 14.6
9 -4 -1 137.09 16.3
9 4 1 136.59 16.6
-9 4 -1 126.19 14.4
9 4 -1 126.79 14.9
9 4 -1 131.29 11.9
-9 -4 -1 132.49 14.7
9 -4 1 148.69 16.8
-9 -4 -1 147.59 15.3
-9 4 1 138.89 12.3
9 4 -1 128.09 11.1
-9 -5 1 5.4 4.2
9 -5 -1 0.6 3
9 5 1 2 3.4
-9 -5 1 1.9 2.7
-9 5 1 2.9 1.7
-9 -5 -1 4.4 4.4
-9 -5 -1 1.5 2.7
9 -5 1 1.3 3.5
9 5 -1 -1.4 1.8
9 6 1 35.1 8.1
-9 6 -1 34.8 3.9
9 -6 -1 29.1 8.4
-9 -6 1 31.3 7.5
-9 6 1 29.3 3.5
9 6 -1 28.1 7.1
-9 -6 -1 38.9 8.6
-9 6 1 31.5 3.2
-9 -6 -1 34.8 7.7
-9 -7 1 19.9 5.1
9 7 1 32 8.3
-9 7 -1 19.2 3.2
-9 7 -1 15.7 2.8
9 -7 -1 15.4 6.6
9 -7 1 20.3 7.6
-9 -7 -1 10.7 4.6
9 7 -1 16.6 6.7
-9 -8 1 25 5.7
9 -8 -1 8.4 5.7
-9 -8 -1 13.3 4.7
9 8 -1 3 4.2
9 -8 1 4.6 5.6
9 -9 -1 40.9 11
-9 -9 1 35 7.3
9 -9 1 46.7 11.5
-9 -9 -1 27.6 7.4
-10 0 1 3.5 2.6
-10 0 -1 -1.3 1.4
10 0 -1 -0.9 2.2
-10 0 -1 -0.9 1.8
10 0 1 -2.4 1.8
10 0 -1 -2.6 0.8
-10 0 1 -0.4 1.1
-10 1 -1 217.18 19.3
10 1 1 203.08 20.4
10 -1 -1 196.78 21
-10 -1 1 217.48 21.4
-10 1 -1 225.78 21.5
-10 -1 1 207.78 19.4
-10 1 1 194.98 18.5
10 1 -1 202.28 20.6
-10 1 1 223.58 21.3
10 -1 1 193.88 21
10 1 -1 200.78 19.4
-10 -1 -1 200.18 20.7
-10 -1 -1 192.08 19.3
-10 2 -1 1046.3 81.39
10 2 1 1005.6 79.79
10 -2 -1 1004.1 81.59
-10 2 -1 1069.79 78.69
10 2 1 1090.59 80.19
-10 -2 1 999.9 79.39
10 2 -1 1004.1 79.59
-10 2 1 1127.79 81.49
-10 -2 -1 973 80.59
-10 -2 -1 1007.7 79.59
10 -2 1 988.2 81.59
-10 2 1 976.5 77.89
10 2 -1 1019.2 80.29
-10 3 -1 515.75 42
10 -3 -1 529.05 45.7
10 3 1 506.65 39.8
-10 3 -1 528.45 44.7
-10 -3 1 555.54 43.9
10 3 1 515.05 42.3
10 3 1 500.95 44.1
-10 -3 1 543.55 44.9
10 -3 1 493.75 45.4
-10 3 1 581.84 44.8
-10 -3 -1 487.45 43.3
-10 3 1 499.65 41.3
10 3 -1 515.35 43.1
10 3 -1 567.14 40.3
10 4 1 912.31 65.89
10 4 1 810.42 65.89
-10 -4 1 937.31 72.19
-10 4 -1 934.91 71.29
10 -4 -1 852.91 72.69
-10 -4 1 945.01 71.19
10 4 1 870.41 70.89
10 4 -1 840.42 70.79
-10 -4 -1 946.81 72.29
-10 4 1 832.02 67.69
-10 -4 -1 934.71 71.09
10 4 -1 852.71 67.89
10 -4 1 891.51 73.29
10 4 -1 954.3 66.69
10 -5 -1 1 4
-10 -5 1 -0.1 3.3
-10 -5 1 3.7 4
10 5 1 7.8 4.4
-10 -5 -1 -0.6 2.7
10 -5 1 1.8 4.1
10 5 -1 4.5 3.9
-10 -5 -1 1.3 3.5
-10 5 1 -0.9 1.4
10 -6 -1 230.28 25.7
-10 6 -1 253.47 19.1
-10 -6 1 234.98 23.6
-10 6 -1 238.48 20.3
10 6 1 241.18 24.2
10 -6 1 214.58 25.6
-10 -6 -1 228.38 23.3
-10 6 1 239.48 19
-10 6 1 240.28 18.4
-10 -6 -1 275.77 25
10 6 -1 220.28 23.9
-10 -7 1 152.68 16.5
10 -7 -1 164.58 20.3
-10 7 -1 144.99 12.6
-10 7 -1 139.49 12
10 -7 1 148.19 19.5
10 7 -1 127.09 17
-10 -7 -1 150.28 16.5
-10 -8 1 42.1 8
10 -8 -1 28.5 9.9
10 -8 1 24.5 9.3
10 8 -1 20.7 7.3
-10 -8 -1 37.8 12.7
-10 -9 1 17.2 5.5
10 -9 -1 -3.5 6.1
-10 -9 -1 11.3 5.2
10 -9 1 0.1 5.4
-11 0 1 -1 2.1
11 0 -1 -0.2 1.7
-11 0 1 -1.9 1.4
11 0 -1 -1.3 1.9
-11 0 -1 -3.5 1.1
-11 0 -1 -1.1 2.6
11 0 1 -0.4 2.3
-11 -1 1 162.18 17.1
-11 -1 1 137.99 14.7
11 -1 -1 116.89 15.8
-11 1 -1 146.79 16.8
-11 1 -1 144.99 14.7
11 1 1 146.99 16.4
-11 1 1 140.09 14.2
11 1 -1 150.08 15.2
11 1 -1 123.79 15.7
-11 -1 -1 138.29 14.9
-11 1 1 147.39 16.5
11 -1 1 139.89 16.7
-11 -1 -1 135.99 16.3
-11 2 -1 241.98 24.6
-11 2 -1 253.87 22.4
11 2 1 239.18 23.7
11 -2 -1 241.78 25.1
-11 -2 1 247.88 23.2
11 2 1 239.38 23.8
-11 -2 1 248.98 24.7
-11 2 1 283.67 25.4
11 2 -1 245.88 24.1
-11 -2 -1 248.28 24.7
-11 2 1 233.68 21.8
-11 -2 -1 243.98 23.2
11 -2 1 252.97 25.5
11 2 -1 255.97 25.7
-11 3 -1 43.3 8.9
-11 -3 1 31.3 7.4
-11 3 -1 32.4 6.3
11 -3 -1 31 8.6
11 3 1 30.2 7.3
11 3 1 33.2 4.2
11 3 1 32.8 6.8
-11 -3 1 40.4 8.9
11 3 -1 34.9 7.6
11 3 -1 28.3 7.1
-11 3 1 41.6 6.7
-11 -3 -1 41.5 9.1
11 -3 1 28.7 8.4
-11 3 1 50.29 9.5
-11 -3 -1 33 7.4
11 3 -1 35.9 4.6
-11 -4 1 116.99 13.9
11 4 1 129.09 10.1
-11 -4 1 122.69 15.2
11 4 1 126.59 14.6
11 4 1 106.09 10.8
-11 4 -1 112.89 12.2
-11 4 -1 123.39 14.7
-11 4 1 115.29 11.7
-11 -4 -1 110.39 14.7
11 4 -1 102.09 11.9
11 4 -1 131.09 10.7
11 -4 1 117.39 15.9
-11 -4 -1 93.19 13.2
11 4 -1 122.89 14.5
-11 -5 1 -3.4 2.8
11 -5 -1 0.9 3.3
11 5 1 2 3
-11 -5 1 0.1 2.7
-11 5 -1 -1.9 2.4
11 5 -1 -3 2.7
11 -5 1 -3.4 2.7
-11 5 1 0.4 1.6
-11 -5 -1 -0.1 3.8
-11 -5 -1 -1 3
11 6 1 265.97 26.5
-11 6 -1 252.17 22.1
11 -6 -1 252.27 28
-11 -6 1 265.77 25.4
-11 -6 -1 259.87 26.5
-11 6 1 261.57 21
-11 6 1 292.87 20.3
11 6 -1 231.98 25.6
-11 -6 -1 239.48 24.9
11 -6 1 245.08 28.1
11 -7 -1 15.6 8.3
-11 7 -1 14.8 2.6
-11 7 -1 15.1 3.4
-11 -7 1 22.2 6.4
-11 -7 -1 14 5.8
11 7 -1 12.5 6.2
11 -7 1 12.5 7
-11 -8 1 89.49 11.8
11 -8 -1 82.69 16.1
11 -8 1 72.49 16.2
11 8 -1 50.59 11.6
-11 -8 -1 90.39 11.2
11 -9 -1 1.4 6
11 -9 1 12.5 7.9
-12 0 1 -1.7 1.8
12 0 1 -1 2.5
12 0 -1 -1.2 2.3
-12 0 -1 1.7 2.8
-12 0 1 0.9 3.2
-12 0 -1 1.9 3.2
-12 -1 1 8.5 3.6
12 1 1 3.5 3
-12 -1 1 10.5 4.9
-12 1 -1 9.9 4.9
-12 1 -1 8.3 3.8
12 -1 -1 3 3.9
12 1 -1 8.6 4.5
12 -1 1 3.3 3
-12 -1 -1 9.4 4.9
-12 -1 -1 4.3 3.1
-12 1 1 11.2 4.4
-12 1 1 4.4 3.3
-12 2 -1 97.19 11.7
-12 2 -1 104.29 13.5
12 -2 -1 92.19 18.1
12 2 1 98.69 12.9
-12 -2 1 108.69 12.6
-12 -2 1 99.89 13.5
-12 -2 -1 117.19 13.1
-12 2 1 119.69 14.7
12 2 -1 94.29 13
-12 2 1 92.99 11
12 2 -1 96.29 12.4
-12 -2 -1 88.79 13.1
12 3 1 75.19 10
-12 -3 1 69.39 10.8
12 3 1 66.29 11
-12 3 -1 83.99 11.4
-12 -3 1 58.69 10.4
12 -3 -1 60.49 12.6
-12 3 -1 69.29 9
12 3 -1 67.69 7.2
-12 3 1 70.49 11
-12 -3 -1 68.89 11.6
-12 -3 -1 54.09 11.9
12 3 -1 68.39 10.2
-12 3 1 64.29 8.5
12 -3 1 71.49 13.7
12 3 -1 70.89 11.6
12 4 1 134.09 15.2
12 4 1 128.39 10.3
12 -4 -1 103.79 15.6
-12 4 -1 129.59 13
12 4 1 106.19 11.6
-12 4 -1 90.59 13.8
-12 -4 1 113.89 14.2
-12 -4 1 108.79 15.3
12 4 -1 108.29 12.6
-12 4 1 113.29 11.9
12 4 -1 122.99 10.7
12 4 -1 93.49 13.8
-12 -4 -1 114.99 15.1
-12 -4 -1 131.89 14.8
12 -4 1 128.19 16.8
12 -5 -1 72.69 15
12 5 1 80.59 13.6
-12 -5 1 82.29 11.8
-12 5 -1 85.39 9.8
-12 -5 1 79.79 12.7
-12 5 -1 100.69 12.4
-12 -5 -1 80.29 13
12 5 -1 67.89 12.7
-12 5 1 77.09 8.9
-12 -5 -1 89.29 13.3
12 -5 1 83.69 16.5
-12 6 -1 181.18 17.2
-12 -6 1 223.48 21.8
12 -6 -1 187.38 23.2
-12 -6 -1 197.68 21.9
-12 -6 -1 210.08 21.1
-12 6 1 170.88 16
12 6 -1 178.48 21
12 -6 1 196.48 23.9
12 -7 -1 8.2 7.3
-12 7 -1 21 3.2
-12 7 -1 18.4 3.8
-12 -7 1 18.9 6.4
12 -7 1 17.3 8.6
12 7 -1 21.2 7.3
-12 -7 -1 21.9 7
12 -8 -1 357.56 38.1
-12 -8 -1 386.76 34.5
12 8 -1 344.87 35.1
12 -8 1 362.36 38.6
12 -9 -1 -0.1 6.6
12 -9 1 9.2 7.8
-13 0 1 0 2
-13 0 -1 -0.5 2.2
13 0 -1 -1.8 2.7
-13 0 1 1.4 2.8
-13 0 -1 -0.8 2.6
13 -1 -1 149.19 18.2
-13 -1 1 131.09 15.4
13 1 1 124.39 16.8
-13 1 -1 132.49 17.2
-13 -1 1 136.79 17.2
-13 1 -1 143.39 15.3
-13 1 1 155.08 15.6
13 1 -1 142.19 17.9
13 1 -1 151.88 16.3
-13 -1 -1 146.59 17.7
-13 -1 -1 137.49 15.7
13 -1 1 145.39 17.9
-13 1 1 165.88 18.3
13 2 1 1.9 3.6
-13 2 -1 0.2 3
13 -2 -1 -1.2 2.6
-13 -2 1 -0.1 2.9
-13 2 -1 1.5 2.4
-13 -2 1 -0.1 2.7
-13 2 1 1 2.3
-13 2 1 4.7 4.5
13 2 -1 1.6 2.4
-13 -2 -1 2.5 3.2
13 2 -1 0.9 3.1
-13 -2 -1 2.5 2.6
13 -2 1 2.3 3.9
-13 3 -1 6.8 4.9
-13 -3 1 9.3 4.2
13 -3 -1 3.6 5
-13 -3 1 5.6 4.3
13 3 1 -1.9 2.5
-13 3 -1 3.4 2.7
-13 -3 -1 8.9 4.4
13 -3 1 5.3 4.2
-13 3 1 1.3 3
13 3 -1 -2.5 2.5
-13 -3 -1 1.1 3.7
13 3 -1 0.2 2.8
-13 3 1 0.7 2.3
13 3 -1 0.6 1.6
13 -4 -1 33.7 9.9
-13 -4 1 54.59 10.4
-13 4 -1 48.7 10.4
13 4 1 36.9 7.1
-13 4 -1 45.5 8.3
-13 -4 1 46.8 11.4
13 4 1 47.4 10.3
13 4 1 46.6 5.3
-13 -4 -1 36.9 9.7
13 4 -1 33.7 8.3
-13 4 1 43.5 9.7
13 4 -1 52.29 9.4
-13 -4 -1 46.7 9.7
13 -4 1 50.59 12.2
-13 4 1 42.3 7.4
13 4 -1 48.5 5.6
-13 -5 1 51.49 11.7
-13 5 -1 41.2 9.5
13 -5 -1 40.4 11.3
-13 -5 1 51.29 10.5
13 5 1 54.69 10.9
-13 5 -1 51.49 8.1
13 5 -1 45.4 4.8
13 -5 1 49.1 12.8
13 5 -1 39.6 4.5
13 5 -1 37.5 9.6
-13 -5 -1 41.4 10.2
-13 5 1 42.8 7
-13 -5 -1 67.59 12
-13 6 -1 31.6 6.3
-13 -6 1 40.1 8.9
13 -6 -1 41.8 11.4
-13 -6 -1 45.2 11.2
-13 6 1 33.1 5.4
-13 -6 -1 25.9 8.2
13 -6 1 30.2 10.7
13 6 -1 36.8 9.8
13 -7 -1 -5.5 4.6
-13 7 -1 -0.3 2.1
-13 -7 1 -5.1 3.2
-13 7 -1 0.2 1.2
13 -7 1 -0.9 3.6
13 7 -1 1.8 4.3
-13 -7 -1 8.5 4.9
-13 7 1 -1.9 0.8
-13 7 1 -0.7 0.6
13 -8 -1 6.5 6.7
13 -8 1 13.9 7.8
13 -9 -1 12.9 8.1
13 -9 1 -0.2 6.1
14 0 -1 1.2 4
-14 0 1 -3 2.2
-14 0 1 2.9 3
14 0 1 -4.8 2.3
-14 0 -1 -2.9 2.2
-14 1 -1 7.2 5
-14 -1 1 9.4 5.4
-14 -1 1 8.7 4.2
-14 1 -1 14.7 5.3
14 -1 -1 6.1 5.4
14 1 1 7.8 5.1
-14 -1 -1 12.6 6.3
-14 -1 -1 6 4.1
14 -1 1 4.7 5
14 1 -1 7.8 4.2
-14 1 1 8.4 4.8
-14 1 1 1.6 3
14 1 -1 5.5 4.6
-14 -2 1 210.88 23.1
-14 2 -1 245.58 24.5
-14 -2 1 197.28 20.8
14 -2 -1 216.18 24
14 2 1 190.88 23.7
-14 2 -1 180.48 19.7
14 -2 1 198.18 23.4
-14 2 1 185.78 22.2
-14 -2 -1 211.98 23
-14 -2 -1 184.78 20.6
-14 2 1 208.08 19.9
14 2 -1 206.68 21.4
14 2 -1 198.68 22.6
14 -3 -1 446.16 41.5
-14 -3 1 435.96 40.2
-14 -3 1 434.16 38.3
-14 3 -1 416.06 36.3
-14 3 -1 447.16 40.1
14 3 1 403.26 37.4
14 3 -1 424.86 38.4
14 3 -1 379.06 33.6
-14 3 1 461.45 40
-14 -3 -1 423.76 38.3
-14 3 1 406.86 35.7
-14 -3 -1 472.35 40.9
14 -3 1 439.46 41.4
14 3 -1 421.16 38.4
-14 -4 1 37.5 9.1
14 4 1 41.1 5.2
14 4 1 32.8 7
-14 4 -1 44 10.8
-14 4 -1 30.4 7
14 -4 -1 31.7 10.2
-14 -4 1 39.4 10.7
-14 4 1 55.69 11.5
14 -4 1 35.2 10.6
14 4 -1 45.6 10.7
14 4 -1 45.3 9.1
14 4 -1 40.6 5.4
-14 -4 -1 37.5 10.2
-14 4 1 32.9 9.7
-14 -4 -1 56.89 10.9
-14 -5 1 109.19 14
14 -5 -1 103.79 18.6
-14 -5 1 101.09 15.4
-14 5 -1 78.09 10.9
-14 5 -1 91.39 13.7
-14 -5 -1 101.59 15.1
-14 5 1 81.49 10.3
-14 -5 -1 99.69 18.3
14 5 -1 84.99 8.2
14 -5 1 85.79 17.8
14 5 -1 94.29 9.2
14 5 -1 72.79 14
14 -6 -1 33.2 11.7
-14 6 -1 29.1 6.1
-14 -6 1 39.4 8.8
14 -6 1 48.7 13.7
-14 6 1 35.5 5.9
-14 -6 -1 35.5 9
14 6 -1 32.4 9.2
-14 -6 -1 32.8 10.5
-14 7 -1 7.4 2.9
14 -7 -1 6.2 6.3
-14 7 -1 8.7 2.5
14 7 -1 4 5.1
14 -7 1 13.1 6.6
-14 7 1 6.7 2.1
-14 7 1 7.8 1.8
14 -8 -1 97.09 19.4
14 -8 1 84.29 18.3
-15 0 1 0.3 2.2
-15 0 -1 0.7 3.8
-15 0 1 3.5 4.2
-15 0 -1 7.1 4.3
15 0 -1 -2 3.2
15 0 1 -1.3 3.4
-15 1 -1 162.08 19.8
-15 -1 1 154.58 17.4
15 1 1 158.38 19.3
-15 1 -1 151.88 17.1
15 -1 -1 139.29 19.3
-15 -1 1 160.48 19.8
-15 -1 -1 163.08 17.9
-15 -1 -1 173.38 20.3
-15 1 1 127.39 16.3
15 1 -1 150.88 19.3
-15 1 1 153.38 19.4
15 -1 1 164.78 20.2
-15 -2 1 517.05 47.1
-15 -2 1 519.85 44.6
15 2 1 465.85 45.2
-15 2 -1 549.95 47.7
15 -2 -1 516.45 47.7
-15 2 -1 510.25 43.4
-15 2 1 571.74 47.7
15 -2 1 515.15 47.7
-15 -2 -1 540.35 47.4
15 2 -1 491.95 45.8
-15 -2 -1 519.85 44.8
-15 2 1 464.85 42.5
15 2 -1 476.95 44.2
15 -3 -1 135.29 19
-15 3 -1 132.59 15.2
15 3 1 127.99 16.6
-15 3 -1 157.38 19
-15 -3 1 138.09 18.6
-15 -3 1 127.69 16.3
15 3 -1 112.99 16.4
15 3 -1 145.99 17.2
-15 -3 -1 136.89 18.2
-15 3 1 149.69 18.7
15 -3 1 138.29 19.3
-15 3 1 135.69 15
-15 -3 -1 140.29 17.2
-15 4 -1 37.1 8.4
-15 -4 1 59.49 13.9
-15 4 -1 55.09 12
15 4 1 58.19 6.3
-15 -4 1 51.89 12.5
15 -4 -1 50.89 12.7
15 4 1 46.5 8.9
15 4 -1 58.49 10.5
-15 -4 -1 79.99 20.1
15 -4 1 36.8 11.8
15 4 -1 53.79 11
-15 4 1 56.19 11.9
-15 -4 -1 60.99 13.6
-15 4 1 44 8.4
15 4 -1 55.29 7.1
-15 5 -1 4.3 3.5
-15 -5 1 4.3 4.7
-15 5 -1 6.3 4.9
15 5 1 5.2 1.5
-15 -5 1 9.9 6.2
15 -5 -1 0 4.4
15 5 -1 5 2.1
-15 -5 -1 10.3 5.6
15 5 -1 9.3 4.9
15 5 -1 1.7 2.6
15 -5 1 0.6 5.2
-15 -5 -1 2.5 6.1
-15 6 -1 23.4 6.7
15 -6 -1 19.8 9.6
-15 6 1 23.6 5.2
-15 -6 -1 23.9 10.9
15 6 -1 24 8.4
15 -6 1 21.1 9.8
15 -7 -1 3.1 6.8
-15 7 -1 2 2.9
15 -7 1 12.1 7.3
-15 7 1 -0.2 1.2
-15 7 1 1.7 2
15 -8 -1 12.8 8.2
15 -8 1 1.5 6
16 0 1 0.8 3.8
-16 0 -1 0.3 3.6
16 0 -1 -2.6 3.1
-16 0 -1 5.7 5.1
-16 0 1 -5.5 3.5
-16 0 1 -1.9 3
16 -1 -1 733.33 69.49
16 1 1 800.92 69.39
-16 1 -1 825.02 70.39
-16 1 -1 813.12 66.49
-16 -1 1 881.31 67.59
-16 -1 1 782.82 69.79
-16 -1 -1 849.41 67.59
-16 1 1 784.22 65.99
-16 -1 -1 850.81 70.69
16 -1 1 811.82 70.49
-16 1 1 904.31 71.09
16 1 -1 786.72 69.49
-16 -2 1 292.77 30.2
16 2 1 316.27 32
-16 -2 1 364.96 34.6
16 -2 -1 307.47 33.4
-16 2 -1 336.37 33.5
-16 2 -1 333.97 29.7
16 2 -1 300.37 31.9
-16 -2 -1 321.07 33.3
-16 2 1 312.07 29.1
16 2 -1 292.87 30.3
16 -2 1 321.07 33.7
-16 -2 -1 308.87 30.6
-16 2 1 333.57 33.6
16 3 1 175.88 20
-16 3 -1 150.08 17.9
-16 3 -1 193.48 22.5
16 -3 -1 151.68 21.8
-16 -3 1 183.38 22.3
-16 -3 -1 179.48 22.6
16 3 -1 167.18 19.9
-16 -3 -1 176.58 22.7
16 3 -1 180.58 20.7
-16 3 1 188.48 21.8
-16 3 1 155.58 17.6
16 -3 1 168.38 22.6
16 -4 -1 153.08 22
-16 4 -1 191.98 22.3
-16 4 -1 150.08 17.5
16 4 1 160.78 17.9
-16 -4 1 178.78 20
16 4 -1 156.98 19.8
-16 -4 -1 176.38 22.7
-16 -4 -1 175.98 20.2
16 4 -1 190.28 15.6
-16 4 1 168.58 17.5
16 -4 1 137.19 21.5
-16 4 1 172.88 21
16 -5 -1 180.98 24.3
-16 5 -1 207.38 23.2
-16 -5 1 233.88 25.4
16 5 1 174.18 15.7
-16 5 -1 173.88 18.6
16 5 1 183.78 14.9
-16 -5 1 185.98 24.1
16 5 -1 179.78 21.6
-16 -5 -1 207.38 24.6
16 -5 1 135.39 22.7
16 5 -1 180.18 17.6
16 5 -1 180.88 15.7
-16 5 1 180.18 18.2
-16 -5 -1 210.38 22
-16 6 -1 130.29 14.3
16 -6 -1 140.59 22.3
16 6 -1 122.69 17.9
-16 6 1 118.99 13.5
-16 -6 -1 153.58 21
16 -6 1 145.29 21.7
-16 7 -1 93.09 11.3
16 -7 -1 98.79 20.8
16 -7 1 111.49 22
-16 7 1 113.29 10.3
-16 8 -1 120.09 10
16 -8 -1 112.69 25.7
-16 8 -1 118.99 9.8
-17 0 1 5.4 4.1
17 0 1 -0.1 4
-17 0 -1 4.2 4.8
-17 0 1 -3.4 4.2
17 0 -1 -0.6 3.7
-17 0 -1 -1 2.6
-17 1 -1 435.46 38.7
-17 -1 1 457.75 43.4
17 1 1 386.76 40.8
-17 1 -1 436.56 42.4
-17 -1 1 412.26 38.7
17 -1 -1 391.86 41.5
-17 -1 -1 429.96 39.2
17 -1 1 431.76 42.3
-17 1 1 482.05 43.1
-17 -1 -1 457.25 42.6
17 1 -1 435.86 41.7
-17 1 1 392.86 37.7
-17 2 -1 35.8 8.6
17 -2 -1 34.2 11.2
-17 2 -1 21.1 9.4
-17 -2 1 45.3 16.1
17 2 1 37.8 10.3
17 2 -1 35.8 10.2
-17 2 1 41.4 11.9
-17 -2 -1 28.9 12.8
-17 2 1 24.5 7.3
17 -2 1 28.5 10
-17 -3 1 8.7 6.1
-17 3 -1 3.1 5.3
17 -3 -1 1.4 5.3
-17 3 -1 6.8 4.2
-17 -3 1 10.3 4.5
17 3 1 -1 3.1
17 3 -1 3.3 4.5
17 -3 1 2.7 5.5
-17 -3 -1 10.7 5.5
17 3 -1 6.3 5.9
-17 3 1 0.4 3.6
-17 -3 -1 6.2 5.2
-17 3 1 2.9 6.3
17 4 1 20 4.5
-17 4 -1 32.6 9.5
-17 -4 1 33.8 8.7
-17 -4 1 33.9 11
17 -4 -1 28.5 10.2
-17 4 -1 23 6.4
17 4 -1 17.5 7
-17 4 1 22.2 6.4
-17 -4 -1 31.8 8.3
-17 4 1 25.6 8.5
17 4 -1 21.1 4.6
17 4 -1 15.4 6.5
-17 -4 -1 20.5 8.5
17 -4 1 27 10.3
-17 -5 1 22.5 9.5
-17 5 -1 24.9 8.8
17 5 1 16.4 4.4
17 -5 -1 19.3 8.7
17 5 1 23 3.9
-17 5 -1 20.4 5.6
17 -5 1 20.8 9.3
17 5 -1 15.8 4
17 5 -1 24.3 8.3
17 5 -1 24.9 6.2
-17 -5 -1 30.7 9.4
-17 5 1 26.6 6.3
17 -6 -1 8.9 8.3
-17 6 -1 13.7 5.5
17 -6 1 18.8 9.1
-17 6 1 16.5 5.2
17 -7 -1 13.5 10.1
-17 7 -1 5.7 5.1
-17 7 1 13.4 3.6
17 -7 1 25.8 9.8
-17 8 -1 40.7 5
-17 8 -1 34.9 4.3
17 -8 -1 31 12.6
17 -8 1 38 13.7
-18 0 1 -1.6 3.9
-18 0 -1 -3.5 3.7
-18 0 1 -3.6 4.9
18 0 -1 -1.7 3.9
18 0 1 -3.4 3.8
-18 0 -1 1.4 5.1
18 -1 -1 287.57 32.5
18 1 1 272.57 31.3
-18 1 -1 276.47 28.7
-18 -1 1 300.77 32.7
-18 1 -1 301.77 32.8
-18 -1 1 326.67 33.4
-18 1 1 311.77 29.2
18 1 -1 301.37 32.2
-18 1 1 300.77 32.5
-18 -1 -1 313.77 32.9
18 -1 1 267.47 32
-18 -1 -1 304.87 30.6
18 2 1 22.3 8.1
-18 2 -1 18.6 6
-18 2 -1 4.5 6.5
18 -2 -1 23 9.2
-18 -2 1 19.2 8.4
-18 2 1 21.8 10.6
-18 2 1 18.9 6.5
-18 -2 -1 16.9 8.1
18 -2 1 12.8 7.3
18 2 -1 13 7.1
-18 -3 1 761.02 63.69
-18 3 -1 659.83 57.19
-18 3 -1 760.32 68.29
18 -3 -1 675.93 63.09
18 3 1 641.54 58.89
18 -3 1 621.34 62.29
-18 3 1 771.72 63.39
18 3 -1 651.63 59.59
-18 -3 -1 636.64 58.99
-18 3 1 671.03 56.89
-18 -3 -1 763.52 63.59
18 4 1 245.18 21.4
18 -4 -1 239.48 30.3
18 4 1 227.28 24.9
-18 4 -1 263.07 29.5
-18 -4 1 301.77 35.2
-18 4 -1 226.38 24.5
18 4 -1 264.87 21.9
-18 4 1 287.67 29.8
-18 -4 -1 232.38 29.5
-18 4 1 250.77 24.6
18 -4 1 240.58 30
-18 5 -1 43.6 8.6
-18 5 -1 59.89 13.1
18 5 1 34.6 5.2
18 -5 -1 30.7 11.6
18 5 1 28.9 6.2
18 5 -1 37 5.8
18 -5 1 52.19 14.1
18 5 -1 40.6 8
-18 5 1 46.6 8.5
18 -6 -1 8.5 8.4
-18 6 -1 -3 3.8
-18 6 1 1.3 2.9
18 -6 1 7.8 6.8
18 -7 -1 4.7 8.7
-18 7 -1 3.8 4.4
-18 7 1 9.2 3.8
18 -7 1 -4.5 7.6
-19 0 -1 -1.1 4
19 0 -1 2.7 4.3
-19 0 1 -0.2 4.7
19 0 1 5.6 5.9
19 1 1 2.9 4.3
-19 1 -1 -8.9 6.2
-19 -1 1 -4.7 3.7
19 -1 -1 3.1 5.2
-19 1 -1 -0.1 5.6
-19 1 1 -2.7 3.3
-19 -1 -1 0.7 3.3
19 -1 1 5.4 5.2
-19 1 1 -8 4.1
19 1 -1 -0.5 4.1
-19 2 -1 44.1 13
19 2 1 49.5 12.7
-19 2 -1 50.39 10.9
-19 -2 1 65.59 15.3
19 -2 -1 51.39 14.1
19 2 -1 45.1 12.4
-19 -2 -1 51.09 13.5
-19 2 1 67.59 12.2
19 -2 1 66.29 16
-19 2 1 59.79 14.7
19 3 1 8.3 5.8
-19 3 -1 6.4 7
-19 3 -1 13.5 5.5
19 -3 -1 14.3 9.1
-19 3 1 6.8 6.7
19 -3 1 6 7.1
19 3 -1 2.2 5.3
-19 3 1 6.8 5.2
19 4 1 2.2 3
-19 4 -1 7.6 3.8
-19 4 -1 6.8 7.2
19 4 1 0.8 3.3
19 -4 -1 7.9 7.7
19 4 -1 3.4 4.9
19 4 -1 0.9 2.7
-19 4 1 11.9 7.7
19 -4 1 4.7 6
-19 4 1 3.3 4.1
19 -5 -1 7 6
19 5 1 8.1 3.3
-19 5 -1 20 6.1
19 5 1 13.5 4.9
19 -5 1 16.8 10.6
-19 5 1 14.3 5.8
-19 6 -1 15.6 5.3
19 -6 1 14.6 11.6
-19 6 1 3 4.2
-19 7 -1 17.1 6.3
19 -7 -1 36.6 12.9
19 -7 1 46.5 15.2
20 0 -1 -1 4.3
20 0 1 -7.1 3.1
-20 0 1 3.9 4.1
-20 0 -1 1.9 4.7
20 1 1 120.29 19
20 -1 -1 133.59 20.2
-20 1 -1 118.69 15.8
-20 1 1 138.39 16.9
20 -1 1 121.19 19.8
20 1 -1 122.19 19.7
20 2 1 41.8 12.8
20 -2 -1 41.5 12.6
-20 2 -1 21.6 7.2
20 2 -1 43 12.4
-20 2 1 33.6 10.2
-20 2 1 31.2 11.8
20 -2 1 41.8 12.9
20 -3 -1 32 11.1
-20 3 -1 39.1 11.7
20 3 1 21.1 8.4
-20 3 1 27.8 7.9
20 -3 1 36.6 12.5
-20 3 1 41.8 13.3
20 3 -1 28.8 10.3
-20 4 -1 47.5 13.5
20 -4 -1 35.7 13.2
20 4 1 31.3 9.5
-20 4 -1 44.6 10
20 4 1 30.8 6.3
20 -4 1 34 13.2
20 4 -1 25.3 8.1
20 4 -1 39.6 7.1
-20 4 1 43.4 9.1
-20 5 -1 54.19 14.1
-20 5 -1 53.59 10.1
20 5 1 54.39 7.1
20 5 1 49.9 9.2
20 5 -1 59.49 11.1
20 5 -1 49.6 7.5
-20 5 1 50.69 9.6
-20 6 -1 20.8 6.4
20 -6 -1 6.5 8.4
20 -6 1 19 9.7
-20 6 1 5.2 5
-20 7 -1 42.6 9.2
20 -7 -1 44.6 14.3
20 -7 1 46.1 16.8
-20 7 1 52.09 8.1
21 0 1 -5.8 3.6
21 0 -1 -5.1 4.1
21 1 1 15.8 8.5
21 -1 -1 12.3 8.1
21 -1 1 18.8 9.1
21 1 -1 6.3 6.6
-21 1 1 13.8 6.7
21 -2 -1 22 10.7
-21 2 -1 38.3 9.4
21 2 1 28.1 11
21 2 -1 35.1 12
-21 2 1 45.4 10.2
21 -2 1 36 12.7
21 3 1 82.99 16.4
21 -3 -1 78.49 19.6
-21 3 -1 93.19 15.8
-21 3 1 84.49 14.1
21 3 -1 85.79 17.2
21 -3 1 90.39 20.1
21 4 1 8.8 6.1
-21 4 -1 11.6 5.4
21 4 1 -0.4 3.5
21 4 -1 10 6.6
21 4 -1 2.5 3.4
-21 4 1 20 7.2
21 -5 -1 2.1 6.6
-21 5 -1 6.7 5.9
21 -5 1 4.3 6.7
21 5 -1 8.1 5
-21 5 1 2.7 5.9
21 5 -1 1.4 4
21 -6 -1 21.2 11.9
-21 6 -1 30.4 7.8
21 -6 1 7 8.8
-21 6 1 18 6.7
22 0 -1 -2.2 4.8
22 0 1 2.1 6.9
22 1 1 42.4 13
22 -1 -1 45.6 14.6
22 -1 1 23.9 11.2
22 1 -1 41.9 13
22 2 1 25.5 10.8
22 -2 -1 23.3 11
22 -2 1 33.9 12.6
22 2 -1 30.8 10.9
22 3 1 7.8 6.3
22 -3 -1 11 10.3
22 3 -1 13.1 7.3
22 -3 1 22.2 9.2
-22 3 1 21.3 8.4
-22 4 -1 85.09 14.5
22 4 1 72.39 14.3
22 4 1 73.79 10
22 -4 -1 68.79 19
22 -4 1 62.69 17.3
22 4 -1 70.69 14.4
22 4 -1 80.29 10.5
-22 4 1 77.29 13.3
22 5 1 4.8 4.5
22 -5 -1 0.2 6.3
-22 5 -1 7.1 6.6
22 -5 1 2.9 7
-22 5 1 -5 5.4
22 5 -1 -0.2 5
-22 6 -1 11.5 9.5
22 -6 -1 -2.5 8.1
-22 6 1 10 5.9
22 -6 1 6.6 9.3
23 0 -1 -6.9 4.4
23 0 1 -2.7 6
23 1 1 16.6 9.4
23 1 -1 42 13.3
23 2 1 5.5 6.8
23 -2 -1 4.1 6.4
23 2 -1 7.6 7
23 -2 1 7.8 7.2
23 3 1 3.3 6.6
23 -3 -1 17.9 10.4
23 3 -1 -0.2 6.5
23 -3 1 17.8 9.9
23 -4 -1 -5.5 5.9
23 4 1 -5.8 5.1
23 4 1 -1.3 3.7
23 4 -1 -5 4
23 4 -1 -2.8 5
23 -4 1 -7.6 5.8
23 5 1 8.5 5.4
23 -5 -1 13.1 8.7
23 5 -1 0.9 5.1
23 -5 1 9 8.6
24 0 1 1.5 5.6
24 0 -1 -1.5 5.7
24 1 1 7.9 9.3
24 -1 -1 0.5 6.3
24 -1 1 4.5 6.9
24 2 1 17.9 8.5
24 -2 -1 6.4 8.9
24 2 -1 11.8 9
24 -2 1 17 9.2
24 -3 -1 255.47 34.3
24 3 1 231.28 29.5
24 3 -1 270.37 31
24 -3 1 269.27 34.9
24 4 1 43.5 8.9
24 4 1 72.09 14.8
24 -4 -1 60.49 18.4
24 4 -1 54.29 9.6
24 4 -1 55.49 13.5
24 -4 1 47.2 15.4
24 5 1 33.7 8.7
24 -5 -1 27.6 12.5
24 5 -1 31.1 8.6
24 -5 1 26.4 11.1
24 5 -1 25.2 7.1
25 0 1 -2.5 6.2
25 0 -1 -4.5 5.6
25 1 1 3.6 6.5
25 -1 -1 4.5 7.7
25 -1 1 3.5 7.9
25 1 -1 7.6 7.4
25 -2 -1 10.2 9.4
25 2 1 18.6 11.1
25 2 -1 7.8 6.7
25 -2 1 6.2 6.9
25 3 1 10.9 8.1
25 -3 -1 5.5 8.3
25 3 -1 -4.7 5.2
25 -3 1 0.1 8.1
25 4 1 -1.3 5.7
25 -4 -1 10.1 9.8
25 4 1 11.4 8.2
25 -4 1 8.1 10
25 4 -1 15.4 8.3
26 0 -1 2 8.2
26 0 1 -2.9 6
26 1 1 9.5 9.3
26 -1 -1 11.2 9.6
26 1 -1 9.3 8.8
26 2 1 17.5 9
26 -2 -1 12.8 7.6
26 -2 1 -2.6 7.4
26 2 -1 3.2 6.9
26 -3 -1 396.76 47.4
26 3 1 414.46 44.3
26 3 -1 417.96 44.2
26 -3 1 460.95 49.9
27 0 1 2.8 7.9
27 0 -1 2.8 8
27 1 1 4.4 8.1
27 -1 -1 9.5 9.5
27 1 -1 7.5 9.4
27 -1 1 8 8.5
27 2 1 2.7 6.8
27 -2 -1 5.8 9.6
27 -2 1 -5.8 6.2
27 2 -1 -4.1 5.2
28 0 1 3.8 7.5
28 0 -1 5.4 7.4
28 -1 -1 173.38 27.5
28 1 1 118.59 25.1
28 -1 1 197.38 28.2
28 1 -1 172.48 25.8
0 1 -2 0.1 0.7
0 -1 2 0.3 0.7
0 -1 2 1.1 0.6
0 2 -2 76.69 7.2
0 -2 2 77.29 7.6
0 -2 -2 76.19 6.5
0 2 -2 88.79 7.2
0 -3 2 0.1 0.7
0 -3 2 -0.1 1.2
0 3 2 0.4 0.6
0 3 -2 -1.2 0.6
0 -3 -2 0 0.5
0 4 -2 651.03 50.89
0 -4 -2 767.02 49.99
0 -4 2 654.73 51.69
0 4 2 600.34 50.09
0 -5 -2 0.5 0.9
0 5 -2 -1.6 1.1
0 -5 2 -0.6 1.6
0 -5 -2 -0.6 0.8
0 5 2 -1.1 0.9
0 6 -2 655.33 51.69
0 -6 -2 682.13 50.99
0 -6 2 654.93 52.49
0 -7 2 1.8 2.4
0 -7 -2 -0.5 1.8
0 7 -2 -0.8 1.6
0 -8 -2 155.68 15
0 -8 2 168.58 16.5
0 8 -2 151.18 15.3
0 9 -2 1.7 2.7
0 -9 2 0.8 3
0 -9 -2 -1.7 2.3
0 -10 2 117.79 12.7
0 -10 -2 90.79 11
-1 -1 2 58.19 4.8
-1 1 -2 41.6 4.9
-1 -1 2 42.3 4.4
1 -1 -2 51.59 3.7
1 1 -2 46 4.5
1 1 -2 51.19 4.7
1 -1 2 41.6 4.9
-1 2 -2 613.24 50.49
-1 -2 2 750.72 50.39
-1 2 -2 775.32 50.09
-1 -2 2 756.52 50.89
1 2 -2 632.04 50.19
-1 -2 -2 610.54 49.99
1 2 -2 638.74 50.39
1 -2 2 607.24 50.89
1 3 2 8.2 1.8
1 -3 -2 10.5 1.2
-1 -3 2 7.6 2.3
-1 3 -2 9.5 2.1
-1 -3 2 13.2 2.5
-1 3 -2 7.5 1.6
1 3 -2 10.4 2.4
-1 -3 -2 7.7 1.8
-1 3 2 7 1.3
1 -3 2 10.7 2.9
-1 -4 2 225.78 15.9
-1 -4 2 186.58 16.3
-1 4 -2 185.78 15.5
1 4 2 170.38 15.3
1 -4 -2 187.88 14.4
-1 4 2 177.58 14.6
1 4 -2 164.38 15.8
1 -4 2 179.58 16.7
-1 -4 -2 191.58 15.1
1 5 2 146.29 13.3
1 -5 -2 153.18 13
-1 -5 2 158.08 14.3
-1 5 -2 145.89 13.3
1 -5 2 157.28 15
-1 -5 -2 146.99 12
1 5 -2 149.49 14
-1 5 2 148.29 12.4
-1 6 -2 171.08 17.1
-1 -6 2 219.38 18.5
1 6 2 186.58 17
1 -6 -2 202.18 17.6
1 -6 2 213.08 19.2
-1 -6 -2 239.48 16.6
1 6 -2 178.68 17.8
-1 -6 -2 181.68 16.5
-1 -7 2 101.59 10.6
-1 7 -2 79.69 9.3
1 -7 -2 83.29 9.7
-1 -7 -2 85.29 8.9
1 -7 2 84.39 10.7
1 7 -2 89.19 10.2
-1 8 -2 23.3 5
1 -8 -2 18.1 5.3
-1 -8 2 28.1 6
1 -8 2 25.5 6.5
1 8 -2 20.7 5.2
-1 -8 -2 19.6 4.2
1 -9 -2 2.5 2.6
-1 9 -2 -5 1.7
-1 -9 2 -0.8 3.1
1 9 -2 -2.3 2.8
-1 -9 -2 3.4 2.5
-1 -10 2 14.5 5.4
1 -10 -2 13 4.4
-1 -10 -2 8.7 3.6
1 -10 2 11.4 5.3
-2 0 -2 302.17 23.2
2 0 -2 287.17 22.4
-2 0 2 299.37 22.4
2 0 2 294.17 23
-2 1 -2 321.27 26.3
-2 -1 2 336.57 25.6
2 -1 -2 318.87 24.8
2 -1 2 330.47 26.4
-2 1 2 336.17 24.7
-2 -1 -2 367.46 25.3
2 1 -2 327.37 25.7
-2 -2 2 2671.53 186.38
-2 2 -2 2457.65 186.78
2 2 2 2452.05 186.18
2 2 -2 2626.24 186.28
-2 -2 -2 2491.95 186.18
2 -2 2 2548.74 187.28
-2 3 -2 342.27 27
2 -3 -2 355.46 26.6
-2 -3 2 377.76 27.4
-2 3 -2 399.66 26.7
2 3 2 335.37 27.2
-2 -3 -2 333.07 27.1
2 -3 2 315.67 28.2
2 3 -2 312.37 27.4
-2 -4 2 1703.63 111.09
2 4 2 1433.46 110.79
-2 4 -2 1534.55 110.19
-2 -4 2 1724.23 111.49
2 -4 -2 1414.76 110.19
-2 4 2 1371.76 108.99
2 -4 2 1445.86 112.19
-2 -4 -2 1461.15 110.49
2 4 -2 1355.16 111.09
2 5 2 73.89 8.2
-2 -5 2 81.49 8.6
-2 5 -2 81.69 7.9
-2 -5 2 87.39 8.4
2 -5 -2 71.49 8.1
-2 -5 -2 80.49 6.8
2 5 -2 77.89 8.8
2 -5 2 78.49 9.6
-2 -5 -2 82.99 7.8
-2 -5 -2 71.89 6.7
2 6 2 112.59 11.1
-2 -6 2 124.59 11.7
-2 -6 2 141.79 11.4
2 -6 -2 114.59 11.7
-2 6 -2 97.79 10.4
-2 -6 -2 104.69 10.2
-2 -6 -2 99.99 9.7
2 6 -2 98.99 11.4
2 -6 2 103.29 12.5
-2 -7 2 70.89 8.3
-2 7 -2 45.1 6.8
2 -7 -2 59.69 8.2
2 7 -2 53.79 8.9
-2 -7 -2 60.49 6.6
-2 -7 -2 65.09 6.6
2 -7 2 52.79 8.7
-2 8 -2 1.3 1.9
-2 -8 2 2.6 2.9
2 -8 -2 -1.6 2.6
2 8 -2 -1.5 2.5
-2 -8 -2 -0.8 1.6
2 -8 2 1.9 3
-2 -9 2 37.9 7
-2 9 -2 27.9 4.9
2 -9 -2 32.9 7.3
2 9 -2 26 8.6
2 -9 2 20.5 6.4
-2 -9 -2 33.9 5.1
2 -10 -2 36.9 7.6
-2 -10 2 40.7 7.7
-2 -10 -2 43.7 6.7
2 -10 2 42 8.7
3 0 -2 2696.63 211.08
-3 0 -2 2639.24 211.68
3 0 2 2788.42 211.98
-3 0 2 2875.31 211.48
3 -1 -2 672.33 48.6
-3 1 -2 593.04 48.9
3 1 2 652.13 47.8
3 -1 -2 608.64 47.4
-3 -1 2 659.33 48.2
3 1 -2 628.54 48.2
-3 -1 -2 632.54 48.2
3 1 -2 708.13 47.6
3 -1 2 615.04 49.1
3 1 -2 651.43 48.8
-3 1 2 594.14 47.3
-3 -1 -2 659.33 48.4
3 -2 -2 1316.17 96.59
-3 2 -2 1215.28 97.19
3 2 2 1291.17 96.69
-3 -2 2 1367.26 96.69
3 -2 2 1245.88 97.59
-3 -2 -2 1323.57 95.59
3 2 -2 1510.55 96.19
3 2 -2 1307.37 96.69
-3 -2 -2 1249.88 96.59
-3 2 2 1240.28 94.89
3 2 -2 1242.88 96.69
-3 3 -2 310.07 21.2
3 -3 -2 271.17 22.2
3 3 2 265.57 22.4
-3 -3 2 294.27 22.5
-3 3 -2 264.57 22.3
3 3 -2 249.18 20.8
3 3 -2 271.47 22.7
3 -3 2 260.97 23.4
-3 -3 -2 290.87 22.5
-3 -4 2 56.19 5.8
3 4 2 36.7 5.3
-3 -4 2 41.5 5.3
3 -4 -2 36.8 5.1
-3 4 -2 37.9 4.3
3 -4 2 42.6 6.4
3 4 -2 36.6 6
-3 -4 -2 38.7 3.7
-3 -4 -2 34.1 4.9
-3 -5 2 74.99 7.6
-3 5 -2 61.59 6.4
3 5 2 62.09 7.5
3 -5 -2 63.69 7.6
-3 -5 -2 62.29 6.1
-3 -5 -2 63.29 5.8
3 5 -2 58.29 7.7
3 -5 2 54.89 8.5
-3 -5 -2 65.59 7.2
-3 6 -2 3.6 2
3 6 2 2.3 2.3
3 -6 -2 2.6 2.8
-3 -6 2 8.1 3.1
-3 -6 -2 3.2 1.8
3 -6 2 1.5 3.3
-3 -6 -2 5.7 2.4
3 6 -2 1.9 2.1
-3 -7 2 34.1 6.2
-3 -7 2 43.4 6.3
-3 7 -2 36.9 5.3
3 -7 -2 30.3 7
-3 -7 -2 41.7 5.5
3 7 -2 40.6 7.7
-3 -7 -2 45.6 5.2
3 -7 2 46 9
-3 -8 2 5.6 3.3
3 -8 -2 -1.7 3.1
-3 8 -2 2.2 1.9
3 8 -2 3.5 3.9
-3 -8 -2 4.3 2.3
-3 -8 -2 1.1 2.1
3 -8 2 3.6 3.3
-3 9 -2 -1.7 1.7
-3 -9 2 -3.1 3.1
3 -9 -2 1.2 3.7
-3 -9 -2 -0.3 2.1
3 9 -2 -2.3 2.9
3 -9 2 1.2 3.8
-3 -10 2 142.09 13.4
3 -10 -2 103.39 13.2
-3 -10 -2 103.79 11
3 -10 2 111.39 14.1
-4 0 2 2089.09 158.98
-4 0 2 2416.56 160.48
4 0 -2 2111.69 159.08
4 0 -2 2212.98 160.28
4 0 2 2123.09 160.08
-4 0 -2 2051.69 160.18
-4 -1 2 70.69 7.1
4 1 2 68.59 7.1
-4 1 -2 71.09 8
4 -1 -2 73.29 7.8
-4 -1 2 79.19 8
4 1 -2 65.09 7
-4 -1 -2 68.79 7.4
-4 -1 -2 65.19 7.2
4 1 -2 70.79 7.7
-4 1 2 68.69 6.4
4 -1 2 75.99 8.3
-4 -2 2 829.12 62.99
-4 -2 2 908.91 63.89
-4 2 -2 819.72 63.79
4 2 2 798.52 62.99
4 -2 -2 854.21 63.39
-4 -2 2 902.21 62.09
-4 2 2 791.92 61.39
4 2 -2 771.12 62.99
-4 -2 -2 821.52 62.49
4 -2 2 801.02 64.09
-4 -2 -2 843.32 63.19
4 2 -2 851.51 63.19
-4 3 -2 270.77 22.2
4 -3 -2 269.47 22.1
4 3 2 278.87 22.1
-4 -3 2 282.07 22
4 -3 2 257.67 23.1
-4 -3 -2 266.77 19.8
4 3 -2 263.27 20.4
-4 3 2 245.28 19.5
-4 -3 -2 255.77 20.7
4 3 -2 260.17 20.7
4 3 -2 248.18 22
-4 -3 -2 257.77 21.8
-4 -4 2 66.29 7.6
-4 4 -2 72.99 6.3
-4 4 -2 67.29 6.7
4 -4 -2 68.79 8
4 4 2 62.69 7.8
4 -4 2 61.99 8.8
4 4 -2 50.99 7.6
-4 -4 -2 64.59 6.5
-4 -4 -2 76.09 7.8
4 5 2 241.38 22.3
-4 -5 2 294.07 22.5
4 -5 -2 255.37 22.8
-4 5 -2 251.27 20.6
-4 -5 -2 254.87 21
-4 -5 -2 271.87 22.1
4 -5 2 257.77 24.1
4 5 -2 247.58 22.8
4 6 2 16.6 4.9
4 -6 -2 6.1 3.8
-4 -6 2 17.6 4
-4 -6 2 9.3 3.7
-4 6 -2 13 3
-4 -6 -2 17.5 3
-4 -6 -2 9.4 3.3
4 6 -2 13.1 4.2
4 -6 2 10.8 4.9
-4 -7 2 90.39 9.8
-4 7 -2 67.89 8.2
-4 -7 2 100.99 10
4 -7 -2 64.49 10.4
-4 -7 -2 84.59 9.2
4 -7 2 66.79 12.6
-4 -7 -2 94.09 8.3
-4 -8 2 8.7 3.8
-4 8 -2 11.8 2.9
4 -8 -2 3.4 4.3
-4 -8 2 11.9 4.3
-4 -8 -2 11.3 3.1
4 -8 2 11.7 5.7
4 8 -2 5.7 4.4
-4 -9 2 24.3 5.7
4 -9 -2 31.9 7.9
4 9 -2 21.1 6.4
4 -9 2 25.7 7.6
-4 -9 -2 20 4.2
-4 -10 2 28.4 5.7
4 -10 -2 13.9 6.5
-4 -10 -2 15.7 4.1
4 -10 2 7.6 5.8
-5 0 -2 814.82 65.49
5 0 -2 834.22 64.29
5 0 2 852.91 65.49
-5 0 2 861.61 64.29
5 0 -2 873.51 65.69
-5 0 2 895.61 65.69
5 1 2 193.68 16.6
-5 1 -2 197.28 17.6
-5 -1 2 204.28 17.4
-5 -1 2 199.48 16.5
5 -1 -2 200.68 15.9
5 -1 -2 191.78 17.3
-5 -1 -2 181.78 16.5
5 1 -2 180.58 16.3
-5 1 2 184.38 15.6
5 -1 2 182.18 17.5
-5 1 2 200.18 17.2
-5 -1 -2 188.58 16.9
5 1 -2 193.58 17.2
5 2 2 87.39 9.3
-5 -2 2 86.59 9.1
-5 2 -2 79.69 9.7
5 -2 -2 92.69 9.8
5 2 2 85.89 7.9
-5 -2 2 101.39 10
5 2 2 93.79 7.2
5 -2 2 83.99 10.1
5 2 -2 85.39 9.2
5 2 -2 105.99 8.2
5 2 -2 99.29 9.6
-5 -2 -2 87.29 9.2
-5 -2 -2 81.69 9
-5 2 2 84.69 7.8
-5 -3 2 165.78 13.2
-5 3 -2 146.39 14.6
-5 -3 2 173.08 15.2
-5 -3 2 156.48 14.4
5 3 2 150.58 14.5
5 -3 -2 140.59 14.6
5 3 -2 164.38 13
-5 -3 -2 170.88 14.7
-5 3 2 153.38 12.3
5 3 -2 159.18 13.6
5 3 -2 135.09 14.2
5 -3 2 154.18 15.7
-5 -3 -2 145.29 13.7
-5 4 -2 945.61 68.29
5 4 2 885.81 69.09
-5 -4 2 938.91 68.99
5 -4 -2 882.51 69.49
-5 -4 -2 841.92 66.19
5 4 -2 834.52 69.09
-5 4 2 864.71 65.69
5 -4 2 888.11 70.69
-5 -4 -2 906.51 67.99
-5 4 2 963.3 65.59
-5 -4 -2 921.31 68.99
5 -5 -2 760.72 63.39
-5 -5 2 851.91 64.49
-5 5 -2 820.02 60.39
5 5 2 796.22 62.99
5 -5 2 747.33 64.49
5 5 -2 768.22 63.19
-5 -5 -2 809.02 62.39
-5 -5 -2 895.31 60.09
-5 -5 -2 795.32 61.59
-5 -6 2 55.89 8.5
5 -6 -2 46.1 8.9
5 6 2 51.29 8.7
-5 -6 2 71.49 7.5
-5 6 -2 49.8 6
5 6 -2 53.99 9.4
-5 -6 -2 63.59 5.9
-5 -6 -2 54.29 7.2
-5 -6 -2 61.99 7.6
5 -6 2 43.1 9.7
-5 -7 2 82.49 9.5
-5 7 -2 67.09 7.7
5 -7 -2 73.19 11
-5 -7 2 98.99 9.4
-5 -7 -2 61.49 8.6
5 -7 2 67.49 11.3
5 7 -2 67.89 11.2
-5 -7 -2 83.59 7.6
-5 -8 2 40.7 6.7
5 -8 -2 27.1 7.5
-5 8 -2 32.8 4.4
-5 -8 2 32.3 6.6
5 -8 2 26.6 8.4
-5 -8 -2 32.1 4.6
5 8 -2 33.2 8
-5 -8 -2 32.5 5.9
5 -9 -2 119.79 16.2
5 9 -2 119.99 15.1
5 -9 2 130.19 17
-5 -9 -2 127.39 11.8
-5 -9 -2 149.99 13.1
5 -10 -2 109.89 14.1
-5 -10 2 86.39 10.9
5 -10 2 106.09 14.1
-6 0 2 17 4.4
-6 0 -2 14.6 4.1
6 0 2 19.3 4.6
6 0 -2 15 4.2
-6 0 2 13.4 3.2
6 0 -2 15.2 3.5
-6 1 -2 -0.2 1.4
6 -1 -2 0.6 1.1
-6 -1 2 0.7 1.7
6 -1 -2 2 1.8
-6 -1 2 0.1 1.3
6 1 2 -0.7 1.3
-6 1 2 0.3 1.2
-6 1 2 0.6 1.1
-6 -1 -2 0.3 1
6 1 -2 2.6 1.7
6 -1 2 0 1.2
-6 -1 -2 -0.4 1.4
6 1 -2 0.1 1.4
-6 -2 2 568.24 46.1
6 2 2 589.24 45.2
6 -2 -2 603.24 47.3
-6 -2 2 652.03 47.5
-6 2 -2 566.74 47.2
6 2 -2 665.53 44.6
6 -2 2 562.14 47.6
-6 -2 -2 576.54 46.3
6 2 -2 585.24 46.6
-6 2 2 562.24 44.6
-6 -2 -2 580.44 46.5
6 2 -2 561.54 46.2
-6 3 -2 51.99 7.2
6 3 2 46.9 6.5
-6 -3 2 48.3 7
6 -3 -2 37.2 7.3
-6 -3 2 48 6.6
-6 3 2 47.3 4.8
6 3 -2 43.3 7.3
-6 -3 -2 50.59 6.6
6 3 -2 41.6 5.9
6 3 -2 58.29 5.4
-6 -3 -2 45.7 6.3
6 -3 2 45.3 8.5
6 -4 -2 468.55 40.5
6 4 2 498.15 40.1
-6 4 -2 514.35 39.6
-6 -4 2 530.95 40
-6 -4 2 540.75 38.1
-6 4 2 482.55 36.6
6 -4 2 448.56 41.2
6 4 -2 440.76 39.8
-6 -4 -2 513.95 39.9
-6 -4 -2 467.25 39
-6 -5 2 51.89 5.7
6 -5 -2 44.6 8.4
-6 -5 2 46.3 7.5
-6 5 -2 37.4 4.4
6 5 2 33.6 6.8
6 -5 2 36.2 8.4
6 5 -2 38.5 7.6
-6 -5 -2 38.8 5.9
-6 -5 -2 44.1 7.6
6 6 2 67.19 9.3
6 -6 -2 55.89 10.6
-6 6 -2 62.99 6.6
-6 -6 2 85.79 8.2
-6 -6 2 65.29 9
-6 -6 -2 61.49 8.5
6 6 -2 63.49 10.6
6 -6 2 65.69 10.7
-6 -6 -2 71.39 8.6
-6 -6 -2 58.79 6.2
6 -7 -2 2.5 3.8
-6 7 -2 2.2 1.8
-6 -7 2 5 2.7
-6 -7 2 -1.4 2.5
-6 -7 -2 -1.2 1.9
6 7 -2 6.7 3.6
-6 -7 -2 2.8 1.6
6 -7 2 8.8 5
6 -8 -2 4.1 4.3
-6 -8 2 11.8 4.3
-6 8 -2 8.8 2.3
-6 -8 2 8 3.2
6 8 -2 4.8 4.4
-6 -8 -2 6.1 3.3
6 -8 2 8.2 5.5
6 -9 -2 12.4 6.1
-6 -9 2 11.1 4.2
-6 -9 2 6.4 4.3
6 -9 2 16.5 7.1
6 9 -2 13.1 4.9
-6 -9 -2 10.7 3.9
-6 -10 2 12.1 4.1
6 -10 -2 29.8 6.6
6 -10 2 21.4 7.5
7 0 -2 66.19 8.7
-7 0 -2 67.19 8.8
-7 0 2 67.89 7.5
7 0 -2 71.69 7.8
-7 0 2 67.39 8.6
-7 0 -2 72.99 8
7 0 2 60.59 8.4
7 -1 -2 230.68 18.7
-7 -1 2 212.58 19
7 -1 -2 220.68 20.4
-7 -1 2 213.18 20.2
-7 1 -2 210.28 20.4
7 1 2 208.58 19.6
7 -1 2 215.98 20.6
-7 -1 -2 223.98 19.5
-7 -1 -2 223.78 20.2
7 1 -2 223.68 20.3
-7 1 2 232.38 20.4
-7 1 2 210.98 18.3
7 1 -2 215.68 19.2
7 -2 -2 1510.65 117.89
-7 -2 2 1554.84 116.69
-7 2 -2 1506.75 117.89
-7 -2 2 1628.74 117.99
7 2 2 1470.15 115.79
-7 -2 -2 1553.14 116.89
7 -2 2 1514.95 118.39
7 2 -2 1578.04 117.39
-7 2 2 1796.52 117.89
7 2 -2 1609.84 114.69
7 2 -2 1436.96 116.59
-7 2 2 1474.55 114.99
-7 -2 -2 1570.64 117.29
7 -3 -2 -0.1 1.9
-7 3 -2 1.7 2.6
-7 -3 2 1.4 2.1
7 3 2 3.2 2.4
-7 -3 2 1.7 2.2
7 3 2 1.4 0.7
-7 -3 -2 5.7 2.3
7 3 -2 1.8 1.8
7 3 -2 0 1.7
-7 -3 -2 -0.4 1.7
7 -3 2 0.9 2.7
7 3 -2 2.7 1.4
-7 3 2 0.8 1.1
-7 4 -2 409.26 32.3
7 4 2 382.46 32.4
7 -4 -2 354.06 33
-7 -4 2 442.26 33.6
-7 -4 2 411.26 32.3
-7 -4 -2 401.86 32.4
7 -4 2 396.66 34.4
-7 4 2 355.16 29
7 4 -2 354.86 28.7
-7 -4 -2 377.16 31.8
7 4 -2 363.76 32.3
7 4 -2 365.36 29
-7 -5 2 63.19 6.9
7 -5 -2 74.29 10.2
-7 5 -2 65.89 6.1
-7 -5 2 64.39 8.5
7 5 2 57.49 9.7
-7 -5 -2 55.99 8.3
-7 -5 -2 61.69 8.4
-7 5 2 60.89 5
7 -5 2 52.69 10.7
-7 5 2 63.49 4.9
7 -6 -2 5.3 3.1
-7 -6 2 0.8 1.8
-7 6 -2 1.7 1.4
-7 -6 2 -0.2 2.7
7 -6 2 -2.7 2.6
-7 -6 -2 -2.8 1.9
7 6 -2 1.6 3
-7 -6 -2 -0.2 2.3
-7 -7 2 117.79 12.6
-7 -7 2 120.99 11.3
7 -7 -2 119.89 15.1
-7 7 -2 103.89 10
7 7 -2 106.89 13.8
-7 -7 -2 101.99 12.1
7 -7 2 106.39 15.3
-7 -8 2 22.7 5.1
-7 8 -2 25.6 3.5
-7 -8 2 29.4 6.4
7 8 -2 27.2 7.5
-7 -8 -2 30.7 6.1
7 -8 2 21.1 8.3
7 -9 -2 22.9 6.8
-7 -9 2 10.7 4.6
-7 -9 -2 14.5 4.5
7 9 -2 22.5 7.1
7 -9 2 15.9 7.6
7 -10 -2 49.99 11.5
-7 -10 -2 59.69 9.1
7 -10 2 78.79 14.3
-8 0 2 4141.69 312.77
8 0 2 3998.6 314.47
8 0 -2 4185.88 314.87
-8 0 2 4645.54 315.37
-8 0 -2 4504.95 313.57
8 0 -2 4136.39 312.97
-8 0 -2 4215.18 314.97
8 -1 -2 268.37 24.9
8 1 2 262.17 24.1
8 -1 -2 286.47 23.1
-8 -1 2 268.07 23.4
-8 1 -2 288.57 25.3
-8 -1 2 288.67 25.1
-8 1 2 280.57 24.9
8 1 -2 249.88 23.3
8 -1 2 271.17 25.1
-8 1 2 265.37 22.7
-8 -1 -2 257.97 24.5
8 1 -2 273.17 24.8
-8 -1 -2 279.07 23.8
8 -2 -2 125.19 13.7
8 2 2 117.29 11.9
-8 -2 2 109.59 12
-8 -2 2 126.99 13.5
-8 2 -2 117.89 13.4
8 2 -2 111.39 12.2
-8 2 2 128.09 13.2
-8 -2 -2 108.69 12.1
-8 -2 -2 122.79 13
8 2 -2 117.59 12.9
-8 2 2 111.69 10.8
8 2 -2 104.09 10.1
8 -2 2 107.69 13.3
8 3 2 158.18 10.9
-8 -3 2 124.79 14.4
-8 -3 2 122.29 17.6
8 -3 -2 131.89 15
8 3 2 138.99 14.2
-8 3 -2 134.89 14.8
8 3 2 125.49 11.6
8 3 -2 153.98 11.8
8 -3 2 109.59 14.6
-8 3 2 117.79 11.7
-8 -3 -2 131.29 14
8 3 -2 121.29 13.4
-8 -3 -2 122.19 13.8
8 3 -2 135.59 14.1
-8 -4 2 278.57 24
-8 4 -2 281.87 24.3
-8 -4 2 293.47 25.3
8 4 2 237.58 23.6
8 -4 -2 243.88 24.8
8 4 -2 257.27 20.6
-8 -4 -2 260.77 23.8
-8 -4 -2 294.87 24.4
8 4 -2 250.07 24
-8 4 2 256.07 20.8
8 -4 2 240.58 25.3
8 4 -2 259.47 21.4
8 -5 -2 5.1 3.7
-8 5 -2 9.4 3.5
-8 -5 2 9.5 4.3
8 -5 2 6.5 4.2
8 5 -2 7.7 4.4
-8 5 2 9.8 1.8
-8 -5 -2 11.5 4.5
-8 5 2 11.4 1.4
-8 -5 -2 8 3.6
8 -6 -2 1032.3 87.19
-8 6 -2 1109.39 81.39
-8 -6 2 1169.78 85.39
-8 -6 -2 1101.39 85.09
-8 -6 -2 1166.48 85.69
8 6 -2 982.6 85.69
-8 -7 2 176.08 16.4
-8 7 -2 140.39 12.6
8 -7 -2 147.19 18.4
-8 -7 -2 152.48 15.4
8 -7 2 145.99 18.4
8 7 -2 126.59 16.6
8 -8 -2 134.89 17.7
-8 -8 2 139.39 14.7
-8 8 -2 121.69 10.5
8 -8 2 115.19 17.1
-8 -8 -2 144.69 14.7
8 8 -2 120.19 16.3
8 -9 -2 243.08 26.8
-8 -9 2 268.37 23.2
8 -9 2 244.48 27.5
-8 -9 -2 250.87 22.6
8 9 -2 211.58 24.7
-9 0 -2 194.18 20
9 0 -2 205.18 18.6
9 0 2 190.58 19.9
9 0 -2 199.08 20.2
-9 0 2 204.18 18.4
-9 0 2 219.48 20.5
-9 0 -2 206.08 18.9
9 -1 -2 45.6 6
9 -1 -2 32.1 7.6
9 1 2 31.7 6.9
-9 -1 2 30.9 6.2
-9 1 -2 37.5 8.1
-9 1 -2 42.3 7
-9 -1 2 36.6 7.6
-9 -1 -2 40.5 8
9 1 -2 30.9 6.1
-9 1 2 34.9 7.4
-9 -1 -2 33.5 6.4
-9 1 2 32 5.7
9 1 -2 32.6 7.3
9 -1 2 30.9 7.4
9 2 2 302.67 26.9
-9 2 -2 325.47 28.8
-9 -2 2 297.37 26.9
-9 -2 2 331.17 28.7
9 -2 -2 296.47 28.4
-9 2 2 356.66 28.7
9 2 -2 298.57 27.1
9 -2 2 298.17 28.8
-9 -2 -2 319.27 28.3
9 2 -2 305.47 27.9
-9 2 2 309.57 25.6
-9 -2 -2 288.17 27
9 3 2 19.5 5.6
-9 -3 2 14.4 4.5
9 3 2 10.5 2.9
9 3 2 12.3 2.2
-9 3 -2 13.4 4.2
9 -3 -2 3.5 3.6
-9 -3 2 15 5
-9 -3 -2 13.3 4.6
-9 3 2 9.3 2.7
-9 -3 -2 8.5 4
9 3 -2 14.2 3
9 3 -2 12.3 4.7
9 3 -2 10.5 4
9 -3 2 11.7 5.1
9 4 2 105.69 12.4
-9 -4 2 86.99 11.1
-9 4 -2 104.49 12.1
9 -4 -2 104.29 13.1
-9 -4 2 94.59 12.3
-9 -4 -2 99.39 11.6
9 4 -2 78.59 9.3
9 -4 2 81.69 12.4
-9 4 2 94.09 8.9
-9 -4 -2 92.79 11.4
9 4 -2 89.59 8.5
9 4 -2 88.69 11.4
-9 5 -2 0.9 2.5
-9 -5 2 -0.2 2.5
9 -5 -2 0.8 3.2
9 5 -2 0.1 3
9 -5 2 0.4 3
-9 -5 -2 2.1 3.1
-9 -5 -2 1 2.6
-9 5 2 0.4 1.2
-9 6 -2 28.5 3.8
-9 -6 2 25.8 6.9
9 -6 -2 31 8.4
-9 -6 -2 30.9 7.4
9 -6 2 32.3 8.9
-9 -6 -2 29.7 7.2
9 6 -2 28.1 7.4
-9 -7 2 11.5 3.6
-9 7 -2 1.7 1.4
9 -7 -2 -3.9 3.5
9 -7 2 1.3 5.4
-9 -7 -2 9.2 4.3
9 7 -2 -0.1 3
-9 8 -2 -1.1 1.2
-9 -8 2 2.4 3.5
9 -8 -2 -3.6 4.9
-9 8 -2 -0.7 1
9 -8 2 -0.4 5
9 8 -2 6.8 3.9
-9 -8 -2 1.2 3.9
9 -9 -2 -6.5 5
-9 -9 2 8.4 5.1
9 9 -2 7 6.1
9 -9 2 11.6 7.7
-9 -9 -2 11.9 4.9
10 0 -2 40.4 8.7
-10 0 -2 51.99 9.8
10 0 2 45 8.9
-10 0 -2 44.9 7.9
10 0 -2 41.1 7.3
-10 0 2 46.7 9.3
-10 0 2 37.2 6.7
-10 1 -2 34.8 9.6
10 -1 -2 29.6 7.6
10 1 2 28.2 6.9
-10 1 -2 31.3 6.1
-10 -1 2 37 6.9
-10 -1 -2 25.2 6
-10 1 2 31.2 7.8
10 1 -2 21.2 6.3
10 -1 2 27 7
10 1 -2 31.4 6.3
-10 1 2 30.4 5.7
-10 -1 -2 27.4 7.2
-10 -2 2 84.89 10
10 -2 -2 77.39 11.3
-10 -2 2 95.59 11.8
10 2 2 72.89 9.9
-10 2 -2 77.99 12.5
-10 -2 -2 62.79 10
-10 -2 -2 81.39 10.2
-10 2 2 76.89 8.8
10 -2 2 66.79 11
10 2 -2 85.49 10.4
-10 2 2 93.09 11.7
10 2 -2 75.89 10.5
10 -3 -2 54.89 10.4
-10 -3 2 61.09 11.2
10 3 2 51.19 5.3
-10 -3 2 59.69 9.6
10 3 2 47.1 6.8
-10 3 -2 51.79 9.9
-10 -3 -2 46.5 9.7
-10 3 2 61.09 8.7
10 3 -2 55.29 5.9
-10 3 2 44.1 6.1
10 3 -2 42 9
10 3 -2 41.2 8.3
-10 -3 -2 53.29 9.3
10 -3 2 53.09 11
-10 -4 2 250.67 22.6
10 -4 -2 198.08 21.8
10 4 2 185.48 19.9
-10 -4 2 207.78 20.3
-10 4 -2 208.18 20.7
10 4 -2 177.98 20
-10 4 2 180.88 17.1
-10 -4 -2 182.38 19.8
10 4 -2 204.78 18.5
10 4 -2 219.08 16.8
10 -4 2 193.88 22
10 -5 -2 106.69 15.2
-10 5 -2 133.49 14.2
-10 -5 2 124.79 14.4
-10 5 2 126.09 11
10 -5 2 123.09 17
10 5 -2 119.29 15
-10 -5 -2 122.69 14.8
-10 -5 -2 122.69 14.4
-10 -6 2 207.48 20.1
10 -6 -2 163.28 20.9
-10 6 -2 196.78 15.7
10 6 -2 170.18 20.1
10 -6 2 183.98 22.7
-10 -6 -2 201.98 20.6
-10 -6 -2 191.68 19.7
10 -7 -2 25 8.4
-10 -7 2 23.5 6
-10 7 -2 18.9 3.3
-10 -7 -2 22.4 5.7
10 7 -2 9 5
-10 -7 -2 17.6 6.7
10 -7 2 11.2 7.6
-10 8 -2 16.9 2.4
-10 8 -2 11.4 2.1
10 -8 -2 11.7 6.4
10 -8 2 7.4 7.4
10 8 -2 6.4 5.7
-10 -8 -2 9.3 5.4
10 -9 -2 19.5 7.7
10 -9 2 0.9 6.1
10 9 -2 0.7 4.9
11 0 2 9.4 4.9
11 0 -2 13.4 5.1
-11 0 2 11.4 3.8
-11 0 2 4.6 4.1
-11 0 -2 16.5 5.9
11 0 -2 8 3.1
-11 1 -2 169.68 17
-11 -1 2 181.18 17.4
-11 1 -2 169.98 19.1
11 1 2 163.38 18.2
-11 -1 2 188.38 19.4
11 -1 -2 149.29 18.5
-11 1 2 186.48 19.2
-11 1 2 176.48 16.6
-11 -1 -2 182.48 19.2
11 -1 2 171.58 19.1
11 1 -2 159.98 17
-11 -1 -2 174.88 17.5
11 1 -2 159.08 18.4
-11 -2 2 447.86 38.9
-11 2 -2 438.26 39
-11 2 -2 445.96 36.3
11 2 2 391.26 36.8
11 -2 -2 412.76 38.9
-11 -2 2 432.46 37
11 -2 2 440.16 39.5
-11 -2 -2 422.66 38.4
-11 -2 -2 458.65 37.7
11 2 -2 451.35 38.4
-11 2 2 420.76 35.4
-11 2 2 459.55 39.1
-11 -3 2 20.3 5.6
11 -3 -2 16.6 6.1
-11 -3 2 12.6 5.8
11 3 2 14.2 4.4
-11 3 -2 20.7 6.3
11 3 -2 18.6 3.6
11 3 -2 11 4.4
11 -3 2 13.9 6.5
-11 3 2 11.4 5.2
-11 -3 -2 16.9 5.3
11 3 -2 14.5 5
-11 -3 -2 17.1 6.2
-11 3 2 14.4 3.8
11 4 2 310.77 20.9
-11 -4 2 266.67 25.7
-11 -4 2 293.77 27.5
11 4 2 248.78 21.2
11 -4 -2 252.47 29.8
11 4 -2 257.37 24.1
-11 -4 -2 259.27 26.4
11 -4 2 254.17 27.7
-11 -4 -2 271.07 25.9
11 4 -2 296.17 22.1
-11 4 2 253.47 22.7
11 4 -2 262.97 26
-11 -5 2 36 8.4
11 -5 -2 21.1 8.1
-11 5 -2 29.4 7.4
11 -5 2 30 8.9
-11 5 2 28.2 4.7
-11 -5 -2 31.9 7.6
-11 -5 -2 19.6 7.2
11 5 -2 26.9 7.5
-11 -6 2 40.5 9.1
11 -6 -2 47.3 11.4
-11 -6 -2 53.29 10.8
11 -6 2 37.6 10.8
-11 -6 -2 46.9 9.6
-11 6 2 47.5 4.6
11 6 -2 31.2 8.9
-11 6 2 47.1 4.2
-11 7 -2 10.2 3.2
-11 7 -2 8.3 2.3
-11 -7 2 1.2 4.3
11 -7 -2 17.4 7.2
11 7 -2 7.2 4.4
11 -7 2 15.4 7.7
-11 -7 -2 24.7 6
-11 -7 -2 14.1 6.3
-11 8 -2 7 1.8
-11 8 -2 5.7 1.7
-11 -8 2 15.4 4.4
11 -8 -2 7.8 5.4
-11 -8 -2 2.5 4
11 -8 2 10.5 6.9
11 8 -2 7 4.7
11 -9 -2 65.59 14.7
11 -9 2 56.19 13.3
12 0 -2 1307.27 105.69
-12 0 -2 1319.07 105.79
-12 0 -2 1346.47 103.39
12 0 -2 1390.36 103.49
12 0 2 1292.67 105.49
-12 0 2 1436.16 106.29
-12 0 2 1320.57 102.79
12 1 2 1.8 3
-12 -1 2 6 3.7
-12 1 -2 -1.8 1.8
-12 1 -2 7 4
-12 -1 2 3.1 2.8
12 -1 -2 1.3 3.5
-12 -1 -2 -0.8 2.6
12 -1 2 3.7 3.5
-12 1 2 1.9 3
12 1 -2 1.8 2.7
-12 -1 -2 1.6 2.5
-12 1 2 0.3 2.2
12 -2 -2 303.67 33.2
-12 2 -2 305.47 33.2
-12 2 -2 312.57 30.3
12 2 2 310.77 28.8
-12 -2 2 312.77 30
-12 -2 2 291.47 27.9
-12 -2 -2 305.77 29.9
12 2 -2 317.07 28.6
-12 2 2 332.87 30.3
-12 -2 -2 325.57 28.8
12 2 -2 291.77 29.1
12 -2 2 304.97 30.9
-12 2 2 317.17 26.9
-12 3 -2 22.8 5.7
-12 -3 2 20.6 6.9
12 3 2 19.6 5.6
-12 3 -2 17.6 6.7
-12 -3 2 20.6 5.6
12 -3 -2 23.4 7.7
-12 -3 -2 27 7.5
12 3 -2 21.5 4
-12 -3 -2 23.8 6.4
12 -3 2 29.2 8.6
12 3 -2 32 7.8
-12 3 2 30.5 7.8
12 3 -2 22.6 6.1
-12 3 2 23.8 5.4
12 4 2 185.18 16.4
12 4 2 213.48 15.4
-12 4 -2 191.48 20.9
12 -4 -2 177.48 22
-12 4 -2 173.98 18.1
-12 -4 2 190.38 21.4
-12 -4 2 173.08 19.5
12 4 -2 186.88 18.9
12 4 -2 204.38 16.3
12 4 -2 164.78 19.7
-12 -4 -2 190.28 20.8
-12 -4 -2 176.08 19.6
12 -4 2 199.58 22.7
-12 4 2 178.48 17.1
-12 5 -2 62.19 8.5
-12 -5 2 69.19 13.2
12 -5 -2 60.89 13.2
-12 -5 2 66.19 11.5
12 5 -2 52.99 10.9
12 -5 2 56.19 13.4
-12 5 2 63.99 7.3
12 5 -2 57.29 5.8
12 5 -2 61.49 6.4
-12 -5 -2 68.89 11.7
-12 -5 -2 70.69 12.9
12 -6 -2 142.09 19.3
-12 6 -2 142.69 14.7
12 6 -2 151.08 18.4
12 -6 2 135.69 19.8
-12 -6 -2 159.18 18.8
-12 6 2 147.39 12.7
-12 -6 -2 171.18 18.2
12 -7 -2 10.6 7.2
-12 -7 2 -5.6 3.8
-12 7 -2 4.7 2.6
-12 7 -2 4.7 1.8
-12 -7 -2 -1.5 4.6
-12 -7 -2 6.1 4.1
12 7 -2 1.2 4.7
12 -7 2 5.4 6.1
12 -8 -2 2.6 5.5
12 8 -2 -1.4 3.4
12 -8 2 7.7 5.8
-12 -8 -2 6.3 4.8
12 -9 -2 21 9
12 -9 2 2.7 7.8
-13 0 -2 291.17 27
-13 0 2 291.67 29.1
-13 0 2 275.97 26.2
13 0 -2 331.67 34.5
-13 0 -2 293.47 29.3
13 0 -2 288.67 29.6
-13 1 -2 341.97 31.9
13 1 2 307.97 30.5
-13 1 -2 328.17 28.8
13 -1 -2 306.37 31.2
-13 -1 2 321.07 28.9
-13 -1 2 348.27 31.7
-13 1 2 340.77 31.6
-13 -1 -2 341.87 31.7
13 1 -2 294.07 28.7
-13 1 2 269.17 27.4
13 -1 2 314.47 31.4
-13 -1 -2 312.17 29.1
-13 2 -2 35.4 7.2
13 2 2 18.8 6.4
-13 -2 2 32 7.8
-13 2 -2 21.6 7.4
-13 -2 2 24.2 7.8
13 -2 -2 17.7 6.7
-13 -2 -2 19.2 6.2
13 2 -2 26.6 6.9
13 -2 2 21.5 7.7
13 2 -2 18.8 6.2
-13 2 2 27.2 7.8
-13 2 2 24.1 6.3
-13 -2 -2 28.7 8.4
-13 -3 2 610.14 49.5
13 -3 -2 525.25 49
-13 -3 2 554.44 46.7
-13 3 -2 564.64 48.7
-13 3 -2 580.74 45.5
-13 3 2 610.14 48.6
13 -3 2 551.74 49.7
13 3 -2 511.65 46.5
13 3 -2 521.75 46.8
-13 3 2 527.05 44.1
-13 -3 -2 581.64 47.4
-13 -3 -2 538.15 48.3
13 3 -2 485.75 43.4
-13 4 -2 3.4 2.5
13 -4 -2 -0.2 4.5
-13 -4 2 6.6 5.7
13 4 2 0.8 2.3
-13 -4 2 2.2 4.5
-13 4 -2 7.8 4.5
13 4 2 4.7 1.8
-13 4 2 1.5 2
13 4 -2 5.4 3.7
13 -4 2 2.2 4.8
-13 -4 -2 -1.6 2.7
13 4 -2 6 2.6
13 4 -2 2.1 3.6
-13 -4 -2 -2.2 3.5
-13 -5 2 12.6 6.1
-13 -5 2 5.3 4.7
-13 5 -2 3.1 4.6
13 -5 -2 5.3 5.2
-13 5 2 9.9 3
13 5 -2 5.5 2.9
13 5 -2 5.8 4.7
-13 -5 -2 11 6
13 5 -2 6.8 2.2
13 -5 2 7.3 6.1
-13 -5 -2 11.7 5.2
-13 6 -2 14.1 4.7
-13 -6 2 21.1 6.6
13 -6 -2 15.3 7.1
13 6 -2 10.5 6.1
-13 6 2 13.9 3.1
-13 -6 -2 17.5 6.3
13 -6 2 11.3 8
-13 -6 -2 17.5 6.8
-13 7 -2 90.39 8.6
13 -7 -2 80.19 16.8
-13 7 -2 88.29 10
-13 -7 -2 77.39 13.5
13 7 -2 88.49 16.1
13 -7 2 115.29 21.1
-13 -7 -2 94.89 15.3
13 -8 -2 90.89 17.7
-13 8 -2 92.89 8.4
-13 8 -2 86.19 8
13 -8 2 81.69 18.6
13 8 -2 91.79 16.2
13 -9 -2 13.3 7.8
13 -9 2 -3.5 8.3
14 0 -2 1043.1 86.99
-14 0 2 1039.7 83.59
-14 0 2 1124.29 87.39
-14 0 -2 1034.6 84.19
14 0 2 1064.49 86.99
-14 0 -2 1105.39 87.69
-14 -1 2 10 4.8
-14 -1 2 13.2 6.9
14 1 2 17 6.6
-14 1 -2 12.3 4.8
14 -1 -2 8.3 5.5
-14 1 -2 9.8 5.4
-14 1 2 18.9 7.4
-14 -1 -2 14.6 5.3
14 1 -2 11.6 5.7
14 -1 2 21.4 8.3
-14 1 2 10 4.6
-14 -1 -2 22.6 7.2
14 1 -2 13.5 5.2
-14 -2 2 260.27 26
14 2 2 223.48 23.7
-14 -2 2 223.68 22.9
-14 2 -2 232.28 22.3
14 -2 -2 210.18 24.9
-14 2 -2 222.48 24.8
-14 2 2 250.97 25.4
14 2 -2 215.88 23.9
-14 -2 -2 245.68 23.7
-14 2 2 213.98 21.2
14 2 -2 200.58 22.4
-14 -2 -2 227.08 24.8
14 -2 2 222.18 25.2
-14 -3 2 0.8 3.5
-14 3 -2 4.9 5.4
-14 3 -2 9.7 4.5
-14 -3 2 10.3 4.9
14 -3 -2 0.7 3.6
14 3 2 3.5 3.6
-14 3 2 0.7 2.5
-14 3 2 2.8 4.2
14 3 -2 0.5 3.8
-14 -3 -2 5.4 3.7
14 3 -2 7.1 2.9
14 -3 2 3.8 5.6
-14 -3 -2 2.7 3.7
14 3 -2 7.1 5.5
-14 -4 2 120.99 16.2
-14 4 -2 96.99 15
-14 4 -2 98.89 12.2
14 -4 -2 93.99 15.7
14 4 2 106.09 11.7
14 4 2 104.89 9.5
-14 -4 2 114.59 14.5
-14 4 2 89.89 11
14 -4 2 92.99 17.8
-14 -4 -2 102.79 16
14 4 -2 96.79 13.9
14 4 -2 91.39 12.9
-14 -4 -2 95.49 15.1
14 4 -2 106.89 10.2
14 -5 -2 37.5 11.1
-14 -5 2 34.1 8.7
-14 5 -2 50.39 10.9
-14 -5 2 44.9 11.1
-14 5 -2 40.6 7.7
14 5 -2 35.3 4.9
-14 -5 -2 44.7 10.5
14 5 -2 26.3 8.6
14 -5 2 42.8 11.9
-14 5 2 45.5 7.2
14 5 -2 27.6 5.9
14 -6 -2 267.07 33.1
-14 6 -2 324.37 30.8
-14 -6 2 367.76 32.1
14 6 -2 315.67 31.9
14 -6 2 303.47 34.5
-14 -6 -2 325.67 32.6
-14 -6 -2 323.37 31
-14 6 2 313.67 25.9
-14 7 -2 41.2 7.4
-14 7 -2 56.89 6
14 -7 -2 51.09 13.9
14 -7 2 32.9 12
14 7 -2 70.39 13.8
14 -8 -2 44 13.8
-14 8 -2 54.59 6.2
-14 8 -2 50.49 5.4
14 -8 2 56.49 14.1
14 8 -2 46.6 12.4
-15 0 -2 229.08 26.8
-15 0 -2 255.57 24.8
15 0 -2 249.28 27.1
15 0 2 254.27 27.3
-15 0 2 265.17 27.5
-15 0 2 240.48 24.1
-15 1 -2 57.59 10.7
-15 -1 2 52.79 12.3
15 -1 -2 45.4 11.6
-15 1 -2 59.79 12.6
15 1 2 53.49 11.9
-15 -1 2 53.79 10.6
15 1 -2 58.39 10.7
-15 1 2 58.79 13
15 1 -2 57.69 12.5
-15 -1 -2 59.19 12.6
15 -1 2 45.2 11.8
-15 -1 -2 57.69 11.2
-15 1 2 48.2 9.2
15 2 2 224.58 25.1
-15 -2 2 241.18 27
15 -2 -2 240.18 27.3
-15 2 -2 240.38 23.8
-15 2 -2 278.27 28
-15 -2 2 227.38 24.2
-15 -2 -2 287.67 26.2
-15 2 2 306.47 28.4
15 2 -2 250.47 26.4
-15 -2 -2 232.28 26.7
15 2 -2 217.48 24.2
-15 2 2 227.08 22.9
15 -2 2 234.28 27.4
-15 -3 2 25.1 6.9
15 3 2 15.2 5.9
-15 3 -2 13.9 7
-15 3 -2 9.3 4.1
-15 -3 2 7.3 5.2
15 -3 -2 16 7.7
15 3 -2 14.5 6
-15 -3 -2 11 5.5
-15 3 2 20.8 8.4
-15 -3 -2 22.8 8.3
-15 3 2 13.7 4.8
15 3 -2 10 6.1
15 -3 2 5.3 4.9
15 3 -2 11.3 3.4
-15 -4 2 256.77 25.5
15 4 2 216.18 21.5
-15 4 -2 242.38 26.2
15 -4 -2 211.98 26.3
15 4 2 232.28 19
-15 4 -2 242.18 22.7
-15 -4 2 244.48 26.7
15 4 -2 190.18 22.6
-15 4 2 204.08 20.9
-15 -4 -2 238.48 26.5
15 4 -2 200.48 23.8
15 4 -2 279.67 21.3
15 -4 2 227.18 27.3
-15 5 -2 43.4 8.7
-15 5 -2 61.19 12.8
15 -5 -2 55.89 13.8
-15 -5 2 55.69 11
15 5 -2 42.6 11.1
15 -5 2 55.29 13.8
-15 5 2 46.7 7.6
-15 -5 -2 59.79 13.1
15 5 -2 46.6 7.4
-15 -5 -2 44.5 9.5
15 5 -2 50.49 6.1
-15 6 -2 34.6 7.3
15 -6 -2 44.3 12.4
-15 6 2 38.1 6.2
-15 -6 -2 34.7 10.4
15 6 -2 44.5 10.7
15 -6 2 29 11.3
15 -7 -2 101.19 20
-15 7 -2 107.69 13.8
15 7 -2 82.79 16
-15 7 2 103.99 8
15 -7 2 80.59 18.6
-15 -7 -2 113.19 17.7
-15 7 2 94.99 8.1
-15 8 -2 23.9 4.1
-15 8 -2 18.1 3.2
15 -8 -2 13.6 9.7
15 -8 2 15.4 8.9
-16 0 2 426.86 40.4
16 0 2 388.96 39.5
-16 0 -2 447.46 41
16 0 -2 403.86 40
-16 0 2 398.76 36.4
-16 0 -2 402.46 37.1
-16 1 -2 780.02 65.59
-16 1 -2 802.82 69.39
16 1 2 801.52 68.49
16 -1 -2 751.32 68.89
-16 -1 2 806.12 65.89
-16 -1 2 891.21 70.19
-16 -1 -2 783.32 69.09
-16 1 2 882.71 69.89
16 -1 2 754.62 68.99
16 1 -2 718.53 67.69
-16 -1 -2 834.22 66.69
16 1 -2 807.82 66.29
-16 1 2 836.02 65.19
16 2 2 30.4 8.9
16 -2 -2 38.1 11
-16 2 -2 23.4 7.2
-16 2 -2 39.4 10.6
-16 -2 2 24.5 7.6
-16 -2 2 44.1 11.3
16 2 -2 35.4 8.7
16 -2 2 31.7 10.6
-16 2 2 43.7 11.2
16 2 -2 25.6 8.8
-16 -2 -2 32.6 10.2
-16 2 2 31.7 7.1
-16 -2 -2 32.5 8.9
16 -3 -2 526.25 50.09
-16 -3 2 591.34 50.39
-16 3 -2 516.85 45.1
-16 -3 2 565.24 57.29
-16 3 -2 487.15 48.3
-16 3 2 515.15 44.2
16 3 -2 499.05 47
-16 -3 -2 549.15 49.6
-16 3 2 655.53 50.59
16 3 -2 512.75 46.7
16 3 -2 488.85 41.9
16 -3 2 522.95 50.19
-16 -4 2 144.79 20
16 -4 -2 126.29 19.8
-16 -4 2 150.68 18.1
16 4 2 154.88 13.1
-16 4 -2 168.78 20.7
-16 4 -2 120.19 15.6
16 4 2 144.99 16
16 4 -2 143.29 17.2
-16 -4 -2 157.38 20.3
16 4 -2 153.08 13.7
-16 4 2 143.49 15.4
16 4 -2 104.99 16.5
16 -4 2 127.09 20
-16 -4 -2 138.39 18
16 5 2 22 2.7
-16 -5 2 32 9.9
-16 5 -2 20.7 6.7
16 -5 -2 22.5 9.5
-16 5 -2 21.7 8.5
16 -5 2 22.5 9.2
-16 -5 -2 22.7 9.1
16 5 -2 17.1 5.5
16 5 -2 14.4 6.9
-16 5 2 20.3 5.5
16 5 -2 23.4 4.3
-16 -5 -2 30.7 8.5
16 -6 -2 81.79 17.1
-16 6 -2 57.29 9.7
16 6 -2 76.59 14.6
16 -6 2 62.49 15.1
-16 6 2 56.29 7.9
-16 -6 -2 65.19 15
-16 7 -2 94.29 12.1
16 -7 -2 85.79 20
16 7 -2 83.29 19.7
16 -7 2 95.99 20.9
-16 7 2 98.69 9.1
-16 7 2 109.59 8.7
16 -8 -2 -6.4 6.3
-16 8 -2 -1.4 2.8
16 -8 2 -3.4 6.2
17 0 2 715.83 63.79
-17 0 -2 778.12 65.19
-17 0 -2 721.93 60.79
17 0 -2 664.83 63.19
-17 0 2 725.53 64.09
-17 0 2 743.13 60.39
-17 -1 2 24.1 7.8
-17 1 -2 25.2 8.6
-17 1 -2 16.3 6.5
17 -1 -2 21.5 8.5
-17 -1 2 17.1 9.3
17 1 2 33.1 10
-17 -1 -2 22.6 9.4
-17 1 2 20.3 6.4
17 1 -2 15.9 7.8
-17 1 2 27.1 8.6
-17 -1 -2 20.5 7.1
17 -1 2 16.5 7.8
-17 -2 2 74.69 15.9
-17 -2 2 63.99 18.6
-17 2 -2 60.39 11.4
-17 2 -2 87.49 16.9
17 2 2 69.19 14.1
17 -2 -2 57.49 13.8
17 -2 2 43.5 13
17 2 -2 60.49 13.6
-17 2 2 79.69 15.9
17 2 -2 79.39 13.6
-17 2 2 60.19 10.9
-17 -3 2 76.89 13.3
-17 3 -2 78.09 13.1
17 -3 -2 79.99 17.2
17 3 2 64.59 12.9
-17 -3 2 86.69 16.9
-17 3 -2 80.59 16.1
17 3 -2 80.59 13
-17 -3 -2 88.19 17.4
17 -3 2 63.19 15.4
-17 3 2 76.19 10.8
-17 -3 -2 92.59 15
17 3 -2 89.69 15.6
-17 3 2 83.79 15.9
17 4 2 40.8 8.9
-17 4 -2 54.59 10.7
-17 -4 2 55.29 10.9
17 -4 -2 65.99 16.1
-17 -4 2 49.1 13.1
-17 4 -2 39.9 10.6
-17 -4 -2 40.5 10.4
-17 4 2 47.1 8.5
17 4 -2 49.9 6.8
17 4 -2 45.1 10.7
17 -4 2 36.7 12.3
17 4 -2 55.19 12.1
-17 -4 -2 63.79 14.1
17 5 2 6.5 2
-17 5 -2 13.1 7.3
17 -5 -2 5.4 6
-17 -5 2 11 8.4
17 5 2 6.8 2.4
-17 5 -2 2.1 4.4
-17 5 2 12.4 4.5
17 5 -2 2.3 2.7
17 5 -2 9.6 5.7
17 5 -2 1.1 3.4
-17 -5 -2 5.7 6.2
17 -5 2 8.5 6.9
-17 6 -2 -2 3.6
17 -6 -2 6.6 7.9
17 -6 2 -2.7 4.6
17 6 -2 -2 4.6
17 -7 -2 140.89 25.8
-17 7 -2 139.99 15.3
17 -7 2 141.79 29
-17 7 2 138.09 12.5
-17 8 -2 7 3.2
-17 8 -2 1.4 1.8
17 -8 -2 -7.6 5.9
17 -8 2 7.3 7.9
-18 0 -2 69.89 13.5
-18 0 -2 81.69 19.5
18 0 -2 81.89 16.5
-18 0 2 102.69 13.5
-18 0 2 84.49 17.1
18 0 2 95.39 18.1
-18 1 -2 21.2 8.7
-18 -1 2 13 8.6
18 1 2 7.5 5.3
-18 1 -2 17.6 7
18 -1 -2 15.6 7.7
-18 -1 2 9.6 6
-18 -1 -2 23.8 8.4
-18 -1 -2 17.3 6.5
18 -1 2 18.7 8.8
-18 1 2 14.2 8
18 1 -2 11.3 7.1
-18 1 2 24.1 6.7
-18 2 -2 85.39 17.6
18 -2 -2 53.39 14.4
-18 -2 2 81.49 16.7
-18 2 -2 87.49 14
18 2 2 67.59 14.6
18 2 -2 68.59 14.8
-18 -2 -2 90.19 17.6
-18 2 2 70.29 12.4
18 -2 2 72.19 16.4
18 3 2 26.7 9.1
-18 -3 2 42.7 12.4
-18 3 -2 37.4 10.8
-18 3 -2 39.7 9.1
18 -3 -2 31.4 11.2
18 -3 2 42.9 12.6
18 3 -2 43.3 11
-18 3 2 36.1 8.4
18 3 -2 31.6 9.9
-18 -3 -2 28.8 9.5
-18 3 2 49.3 13
-18 -3 -2 31.9 11.3
18 4 2 101.69 10.6
18 4 2 93.29 13.6
18 -4 -2 90.29 19.6
-18 4 -2 116.19 14.8
18 4 -2 106.29 15.4
18 -4 2 104.69 21.6
-18 -4 -2 99.49 20
-18 4 2 97.19 13
18 4 -2 121.99 16.3
18 5 2 194.98 18.7
18 -5 -2 240.28 29.4
-18 5 -2 255.67 27.3
-18 5 -2 191.38 21.9
18 5 2 232.98 18
18 5 -2 218.88 25.4
18 -5 2 219.48 28.9
-18 5 2 215.48 21.3
18 -6 -2 92.69 20.3
-18 6 -2 85.59 12.1
18 -6 2 103.49 21.4
18 6 -2 84.69 16.2
-18 6 2 78.29 10.8
-18 7 -2 -1 4.2
18 -7 2 -2.8 6.1
-18 7 2 2.2 2.8
19 0 2 186.58 24.4
19 0 -2 163.98 23.5
-19 0 2 185.28 21
-19 0 -2 203.18 22.1
19 -1 -2 260.87 31.4
19 1 2 265.37 30.8
-19 -1 2 264.77 28
-19 1 -2 267.77 31.7
-19 1 -2 284.97 32.1
-19 -1 -2 280.37 28.9
19 -1 2 246.08 31
-19 1 2 270.27 27.4
19 1 -2 301.27 32.1
-19 1 2 326.87 33.1
-19 2 -2 47.3 10
19 2 2 52.29 12.3
-19 2 -2 46.4 12.7
19 -2 -2 41.7 12.9
-19 -2 -2 41.8 13
-19 2 2 48.7 9.8
-19 2 2 69.39 15
19 2 -2 55.99 13.4
19 -2 2 44.8 13.5
-19 3 -2 23.9 10.3
19 -3 -2 21.8 10.8
-19 3 -2 43 9.6
19 3 2 26.6 8.8
19 3 -2 34.8 10.2
19 -3 2 30.5 12.1
-19 3 2 44.6 9.3
-19 3 2 56.59 13.3
19 -4 -2 22.6 9.8
-19 4 -2 17.5 7
19 4 2 15.7 4.3
19 4 2 21.5 7.7
-19 4 -2 25 9.8
19 -4 2 28.1 11.4
19 4 -2 18.9 7.7
-19 4 2 6.7 5.1
19 4 -2 20.6 4.9
19 4 -2 13.7 6.7
19 5 2 -3.7 1.9
19 -5 -2 -0.5 5.9
19 5 2 -3.5 2.5
-19 5 -2 -0.3 7.3
-19 5 -2 -2 4.4
-19 5 2 1 3.5
19 5 -2 3.1 4
19 -5 2 1.7 6.4
19 5 -2 -5 2.7
-19 6 -2 37.5 8.8
19 -6 2 37.7 12.6
-19 6 2 30 7.4
19 -7 -2 3.4 7.9
-19 7 -2 -4.2 4.6
19 -7 2 0.2 7.6
20 0 2 7.2 5.5
20 0 -2 5.9 5.7
-20 0 -2 0.9 4.8
-20 0 2 -1.9 4.4
20 -1 -2 120.29 19.1
20 1 2 112.69 18.1
-20 1 -2 102.19 17.1
20 1 -2 108.59 20.7
20 -1 2 131.69 20.3
-20 1 2 100.99 16.3
20 -2 -2 -5.3 5.4
-20 2 -2 14.5 6.5
20 2 2 -5.8 3.6
20 -2 2 9.4 7.6
-20 2 2 -5.4 7.1
20 2 -2 -3.2 5
20 3 2 40 11.6
-20 3 -2 41.3 9.7
20 -3 -2 39.3 13.8
20 -3 2 30.1 11.9
-20 3 2 41.7 13.7
20 3 -2 42 12.2
-20 3 2 31.1 8.6
20 4 2 22.9 5.2
20 4 2 18 7.2
20 -4 -2 22 9.6
-20 4 -2 34 12.2
20 4 -2 23.3 5.8
20 4 -2 27.9 8.6
20 -4 2 31 12.3
-20 4 2 8.1 6.5
20 5 2 12.4 4.5
20 5 2 5.1 3.2
-20 5 -2 31 10.8
-20 5 -2 18.8 5.5
20 5 -2 2.5 3.4
20 5 -2 13.5 5.7
20 -5 2 0.3 6.4
-20 5 2 10.5 5.8
20 -6 -2 110.49 24.7
-20 6 -2 153.48 17.5
20 -6 2 150.88 24.5
-20 6 2 147.19 16.1
20 -7 -2 8.9 9.9
20 -7 2 -1.7 6.2
21 0 2 240.88 30.1
21 0 -2 249.18 30.9
21 1 2 17.3 8.9
21 -1 -2 7.8 7.5
21 1 -2 19.7 9.1
-21 1 2 20.9 9
21 -1 2 26.9 10
21 2 2 8.7 7.2
21 -2 -2 14.2 7.8
-21 2 -2 21.8 7.5
21 2 -2 21.2 9
21 -2 2 14.1 8.9
-21 2 2 4.4 6.1
-21 3 -2 67.49 12.9
21 3 2 54.59 13
21 -3 -2 50.79 14.6
21 3 -2 48.6 13.2
-21 3 2 51.89 10.6
21 -3 2 75.69 18.2
21 4 2 26.3 5.8
-21 4 -2 46.9 9.9
21 4 2 23.9 8.6
-21 4 2 27.3 8.9
21 4 -2 27.4 9.2
21 4 -2 23.5 6.1
21 -4 2 20.1 12.5
21 5 2 53.79 12.5
-21 5 -2 68.39 11.4
21 -5 -2 65.99 18.4
21 5 2 60.89 8.2
-21 5 2 58.79 11
21 -5 2 58.99 17
21 5 -2 55.99 8.7
21 5 -2 52.19 10.7
21 -6 -2 24.9 12.2
-21 6 2 68.29 14.3
21 -6 2 55.79 16.4
21 6 -2 39.7 4.8
22 0 -2 72.19 16.5
22 0 2 59.69 16.4
22 -1 -2 36.9 12.7
22 1 2 43.6 13
22 1 -2 42.7 13.6
22 -2 -2 18.6 9.5
22 2 2 6.2 7.2
22 2 -2 15.2 8.5
22 -2 2 14.6 9.6
22 -3 -2 33.1 13.3
22 3 2 20.6 9.2
22 -3 2 18.5 10
22 3 -2 24.7 9.4
-22 3 2 30.6 7.9
22 4 2 1.6 5
22 -4 -2 6 8.9
22 4 2 -1.2 3.3
-22 4 2 3.1 4.1
22 4 -2 2.2 5.1
22 -4 2 -5.1 5.8
22 -5 -2 2.3 7.9
-22 5 -2 19.5 7.1
-22 5 2 3.6 6.4
22 5 -2 9.9 5.4
22 5 -2 -5.9 4.1
22 -5 2 2.1 8.5
-22 6 -2 31.6 9
22 -6 -2 14.2 9.7
22 -6 2 -2.2 6.3
-22 6 2 26.9 6.8
22 6 -2 16.7 3.6
23 0 2 38.6 13.4
23 0 -2 27.6 10.8
23 1 2 8.9 7.7
23 1 -2 1.8 5.4
23 -2 -2 68.79 18.2
23 2 2 65.49 15.6
23 -2 2 87.09 19.7
23 2 -2 68.19 16.6
23 -3 -2 3.7 7.1
23 3 2 -1.4 4.8
23 3 -2 4.6 6.7
23 -3 2 1.8 6.4
23 4 2 109.39 16.8
23 -4 -2 101.59 23.4
23 4 -2 114.79 18.1
23 -4 2 101.09 23.4
23 4 -2 116.29 13.8
23 5 2 2.2 4.3
23 -5 -2 -1.1 7.1
23 5 -2 9.6 5.5
-23 5 2 5.8 6.1
23 5 -2 -4.1 4.8
23 -5 2 13.4 8.6
24 0 2 4.9 6.3
24 0 -2 23.6 11.3
24 1 2 115.09 21.9
24 -1 -2 107.09 22.7
24 -1 2 109.19 22.1
24 1 -2 113.29 26.2
24 2 2 89.69 18.9
24 -2 -2 92.89 21.3
24 -2 2 91.69 21.3
24 2 -2 105.39 20.5
24 3 2 54.59 13.3
24 -3 -2 31.1 13.3
24 -3 2 30.9 13.9
24 3 -2 54.99 14.3
24 4 2 105.89 16
24 -4 -2 100.29 22
24 -4 2 78.89 20.9
24 4 -2 82.69 17.2
24 4 -2 80.29 12.4
24 -5 -2 39.2 14.5
24 5 2 9.7 6.2
24 5 2 27.7 7.4
24 5 -2 26.4 7.8
24 -5 2 22.5 12.1
24 5 -2 26.1 7.7
25 0 2 24.1 11
25 0 -2 17.6 10.2
25 1 2 39.9 13.2
25 -1 -2 30.7 12.9
25 -1 2 25.3 11.7
25 1 -2 23.2 11.7
25 -2 -2 15.2 10.4
25 -2 2 27 12
25 2 -2 18.8 9.5
25 3 2 20.9 9.8
25 -3 -2 12.7 9.8
25 -3 2 18.4 10.8
25 -4 -2 20.9 11
25 4 2 -2.5 5.7
25 4 2 7.7 7.5
25 -4 2 20.4 12.6
25 4 -2 6 6.9
26 0 -2 291.67 37.2
26 1 2 58.59 16.5
26 -1 -2 86.69 20.3
26 -1 2 85.49 20.1
26 1 -2 63.29 17.3
26 2 2 50.59 14.3
26 -2 -2 49.1 16.5
26 2 -2 65.89 17.7
26 -2 2 49.5 16.2
26 3 2 -0.1 8.2
26 -3 -2 3.6 7.9
26 3 -2 -2.3 7.4
26 -3 2 12 9.7
27 0 2 21.3 10.5
27 0 -2 22 11.7
27 -1 -2 92.99 22
27 1 2 50.49 15.8
27 1 -2 71.99 18.7
27 -1 2 65.49 17.3
27 2 2 14.6 8.2
27 -2 -2 -3 7.2
27 2 -2 4.2 8.9
27 -2 2 16.6 9.3
28 0 -2 25.7 11.3
28 0 2 19.7 10.7
0 0 -3 0.5 0.5
0 0 3 0.9 0.6
0 -1 3 -0.7 0.8
0 1 -3 0.2 0.6
0 2 -3 156.38 11.1
0 -2 -3 114.59 10.1
0 -2 3 126.29 11.6
0 2 -3 120.69 11.3
0 -3 -3 5.7 1.3
0 -3 3 -1.1 0.9
0 3 -3 -1.2 0.8
0 -3 3 -0.3 0.8
0 3 -3 0.9 1.1
0 -4 -3 467.15 33.6
0 4 -3 433.66 34.9
0 -4 3 436.76 36
0 -5 -3 0.5 0.9
0 -5 3 -1.5 1.5
0 5 -3 1.7 1.7
0 6 -3 16.6 4.2
0 -6 3 20.1 5.3
0 -6 -3 21.7 3.4
0 -7 3 -0.2 2.5
0 -7 -3 -1.2 1.6
0 7 -3 0.4 1.8
0 8 -3 272.17 24.5
0 -8 3 305.07 25.7
0 -8 -3 259.87 23.2
0 -9 -3 2.3 2.3
0 9 -3 1.6 2.8
0 -9 3 -0.2 3.8
0 -10 3 17.2 6
0 -10 -3 16.8 4.2
-1 0 -3 -0.3 0.5
-1 0 3 0.5 0.5
1 0 3 -0.5 0.5
1 0 -3 0.1 0.3
1 0 -3 -0.1 0.4
-1 0 3 0.4 0.4
-1 1 -3 3071.89 225.88
1 -1 -3 2692.33 220.48
-1 -1 3 3180.58 224.98
1 -1 3 3394.06 225.98
1 1 -3 2941.01 223.98
-1 -1 -3 2644.34 219.38
-1 1 3 2850.91 220.18
-1 2 -3 3772.62 278.17
-1 -2 -3 3820.92 277.07
-1 3 -3 218.38 20.2
1 -3 -3 276.37 18.7
-1 -3 3 274.27 21.2
-1 3 -3 259.97 20.1
-1 -3 3 305.17 20.6
1 3 -3 216.58 19.8
1 3 -3 247.38 20
1 -3 3 250.97 21.5
1 3 -3 258.57 20.6
-1 -3 -3 220.68 19.6
1 -4 -3 3.1 0.8
-1 4 -3 3.9 1.9
-1 -4 3 2.4 1.9
-1 -4 3 0.7 1.3
1 4 -3 0.9 1.5
1 -4 3 1.1 1.7
-1 -4 -3 2.5 1
-1 -5 3 9 3.2
1 -5 -3 8.8 1.9
-1 -5 3 13.1 3.1
-1 5 -3 9.8 3
1 -5 3 10.3 3.9
-1 -5 -3 10.6 2.3
1 5 -3 8.4 3
-1 -6 3 5.5 3.1
1 -6 -3 3 2
-1 6 -3 6.3 2.6
1 -6 3 2.4 3.2
-1 -6 -3 2.2 1.5
1 6 -3 5.8 2.9
-1 -6 -3 4.3 1.7
1 -7 -3 -0.4 1.9
-1 7 -3 -1.2 2.1
-1 -7 3 3.2 2.7
1 -7 3 3.8 3.3
1 7 -3 -0.7 2.1
-1 -7 -3 0.6 1.7
-1 8 -3 5.3 2.6
1 -8 -3 1.4 2.3
-1 -8 3 6.3 3.5
1 8 -3 2.6 2.8
1 -8 3 5.4 3.2
-1 -8 -3 3.5 2.4
1 -9 -3 10.3 3.6
-1 -9 3 11.6 4.5
-1 9 -3 6.4 3.4
1 -9 3 10.9 5
-1 -9 -3 9.5 3.4
1 -10 -3 13.3 4.6
-1 -10 3 21 6.3
-1 -10 -3 26.3 4.9
1 -10 3 10.2 5.4
1 10 -3 23.3 5.8
2 0 -3 0.5 0.6
-2 0 3 1.3 0.6
-2 0 -3 0.1 1
2 0 3 -0.3 0.7
2 2 3 4658.83 328.97
2 -2 -3 4082.19 333.27
-2 2 3 4064.29 331.77
2 2 -3 4785.82 337.17
2 -2 3 5074.19 338.77
-2 -2 -3 4147.49 329.17
-2 3 -3 757.32 50.59
-2 3 -3 629.54 51.39
-2 -3 3 746.83 51.29
2 3 -3 627.14 50.59
2 3 -3 657.63 51.39
2 3 -3 666.83 50.69
-2 -3 -3 640.74 50.79
2 -3 3 662.53 52.49
-2 4 -3 235.28 19
-2 4 -3 228.98 18.3
-2 -4 3 283.07 19.9
2 -4 3 222.08 21
2 4 -3 215.08 19.8
-2 -4 -3 222.98 19
-2 5 -3 379.66 30.5
-2 -5 3 426.76 31.9
2 -5 -3 366.96 30.3
-2 -5 3 424.36 31.1
-2 -5 -3 390.76 30.3
2 5 -3 326.47 31.2
2 -5 3 393.26 33
2 -6 -3 611.34 47.3
-2 -6 3 732.83 48.7
-2 6 -3 562.34 46.8
-2 -6 -3 545.55 45.2
-2 -6 -3 657.43 46.4
2 6 -3 564.54 48
2 -6 3 575.54 49.3
2 -7 -3 44 6.6
-2 -7 3 48.2 7
-2 7 -3 32.5 6.1
2 7 -3 40.1 7.6
2 -7 3 42.5 8.8
-2 -7 -3 43.5 5.1
-2 -7 -3 47.4 5.3
-2 8 -3 1.2 3
2 -8 -3 1.7 3.2
-2 -8 3 3.4 2.7
-2 -8 -3 2.1 1.8
2 -8 3 7.4 4.2
-2 9 -3 19.3 4.6
2 -9 -3 14.8 4.7
-2 -9 3 34.5 7.7
2 -9 3 23.8 6.8
-2 -9 -3 28.1 4.4
2 9 -3 26.6 6.4
-2 -10 3 129.39 14.1
2 -10 -3 109.29 13
2 10 -3 127.09 13.5
2 -10 3 114.89 14.4
-2 -10 -3 122.69 11.6
3 0 3 0.4 1.2
3 0 -3 1.9 1
-3 0 3 1.2 0.9
-3 0 -3 -0.3 1.1
3 1 3 269.87 19.3
-3 -1 3 249.08 19.6
3 -1 -3 212.08 18.7
-3 -1 3 255.17 19.2
-3 1 -3 227.28 20.6
-3 -1 -3 241.78 19.7
3 -1 3 239.08 20.7
3 1 -3 280.27 19.2
-3 1 3 238.28 18.7
3 1 -3 232.98 19.6
-3 2 -3 170.88 16.2
-3 -2 3 176.18 15.3
3 -2 3 167.78 16.5
3 2 -3 171.18 15.5
3 2 -3 168.78 15.7
-3 2 3 202.38 13.6
-3 -2 -3 166.38 15.3
3 2 -3 204.48 15.3
-3 -2 -3 194.48 14.4
-3 -3 3 37.2 4.6
-3 3 -3 31.4 4.8
3 -3 3 25.3 5.2
-3 -3 -3 29.3 4.2
3 3 -3 27.8 5
3 3 -3 30.6 4
3 3 -3 25.5 3.7
3 -4 -3 244.88 20.1
-3 4 -3 231.08 19.7
-3 4 -3 251.97 19.5
-3 -4 3 265.57 20.6
3 4 -3 220.88 20.7
3 -4 3 247.58 22.2
-3 -4 -3 236.28 20.2
3 -5 -3 150.28 14.2
-3 5 -3 150.08 13.4
-3 -5 3 196.78 14.9
3 5 -3 138.19 14.7
-3 -5 -3 153.88 13.9
3 -5 3 147.99 16.2
-3 -6 3 47 6.6
-3 6 -3 31.9 5.4
3 -6 -3 37.2 6.8
-3 -6 3 44.3 7
-3 -6 -3 38.3 4.2
-3 -6 -3 40.4 4.7
3 -6 3 36.9 8.1
3 6 -3 30.4 6.7
-3 -6 -3 41.8 5.6
-3 -7 3 49.4 6.7
-3 7 -3 34.7 6.1
3 -7 -3 42.7 8
-3 -7 3 54.69 7.3
3 -7 3 35.5 8.8
-3 -7 -3 47.1 5
3 7 -3 38 8.4
-3 -7 -3 43.3 5.7
-3 -8 3 241.88 19.7
-3 8 -3 179.38 17.9
3 -8 -3 175.98 19.5
3 8 -3 164.28 19.4
-3 -8 -3 219.78 17.3
-3 -8 -3 219.78 17
-3 9 -3 29.3 5.6
3 -9 -3 38 8
-3 -9 3 42.1 7.6
-3 -9 -3 43.5 5.3
3 -9 3 38.9 8.8
3 9 -3 32.9 7.6
-3 -10 3 13.7 5.3
3 -10 -3 14.8 4.8
3 -10 3 19.9 6.5
-3 -10 -3 10.9 3.5
-4 0 -3 -1.4 1.6
4 0 3 1.9 1.9
4 0 -3 -0.7 0.8
-4 0 3 1.5 1.3
4 0 -3 0.9 1.7
4 1 3 91.99 8.5
-4 -1 3 83.19 8.3
-4 1 -3 94.19 9.8
4 -1 -3 98.09 9.2
4 1 -3 88.39 7.7
-4 -1 -3 75.89 8.5
-4 1 3 86.19 7.6
4 1 -3 92.29 9.3
4 -1 3 87.19 9.6
-4 -2 3 314.57 25.2
4 -2 -3 318.47 25.5
-4 2 -3 279.07 26
-4 -2 3 355.16 24.7
4 2 -3 309.57 25.6
4 2 -3 368.86 24.6
-4 2 3 298.07 23.4
4 2 -3 267.87 25
4 -2 3 288.27 26.3
-4 -2 -3 303.47 24.6
-4 -2 -3 315.77 25.4
-4 -3 3 11.6 3
4 -3 -3 10.9 3
-4 3 -3 11.5 3.6
4 3 -3 11.4 2.7
-4 -3 -3 11 2.1
4 3 -3 9.9 3
4 -3 3 9.3 3.8
4 3 -3 11.9 2.9
-4 -3 -3 14.1 3.2
-4 4 -3 446.56 35.8
4 -4 -3 449.76 36.1
-4 4 -3 493.45 34.6
-4 -4 3 509.65 36.4
-4 -4 -3 428.06 34.1
4 4 -3 408.06 36.3
4 -4 3 436.86 37.9
-4 -4 -3 446.86 36
4 -5 -3 42.4 6.6
-4 -5 3 65.39 7.2
-4 5 -3 47.5 5.5
-4 -5 3 50.29 6.7
4 5 -3 32.9 7.2
-4 -5 -3 47.4 6.4
-4 -5 -3 59.49 4.8
4 -5 3 41.1 8.5
-4 -5 -3 47.9 5.2
4 -6 -3 195.58 20.2
-4 6 -3 196.18 18.3
-4 -6 3 242.98 20
4 -6 3 204.98 21.9
-4 -6 -3 212.18 19.1
-4 -6 -3 258.17 17.5
-4 -6 -3 221.68 18.4
4 6 -3 205.68 20.5
-4 -7 3 0.5 2.7
-4 -7 3 1.1 2.9
-4 7 -3 -0.4 1.8
4 -7 -3 4.6 3.7
4 -7 3 3.4 3.6
-4 -7 -3 4.1 1.8
-4 -7 -3 -1.1 1.9
4 7 -3 1.1 2.9
-4 -8 3 118.79 12.4
-4 -8 3 143.49 12.9
4 -8 -3 101.19 13.3
-4 8 -3 99.89 10.8
4 -8 3 96.59 14.4
-4 -8 -3 110.79 10.9
4 8 -3 85.99 12.9
-4 -8 -3 112.69 10
4 -9 -3 2 4.4
-4 -9 3 -0.1 3.1
-4 9 -3 0.4 1.9
-4 -9 -3 0.3 1.8
4 -9 3 2.8 5
4 9 -3 -0.2 3.1
-4 -10 3 28.9 6.6
4 -10 -3 23.3 7.5
4 -10 3 24.7 7.8
-4 -10 -3 22.1 4.2
4 10 -3 25.3 7.1
-5 0 3 0.2 1.1
5 0 -3 -0.1 1.5
5 0 3 0.5 1.5
-5 0 -3 -0.2 1.6
5 0 -3 -0.4 1
5 1 3 40.6 5.1
5 -1 -3 35.5 5.4
5 -1 -3 42.6 4.6
-5 1 -3 32.4 5.5
-5 -1 3 34.8 4.8
-5 -1 -3 41 5.6
5 -1 3 25.5 5.7
5 1 -3 40.2 5
5 1 -3 41.9 5.8
-5 1 3 40.1 4.3
-5 -2 3 987.2 71.39
5 -2 -3 973 71.99
5 2 3 1024.5 69.49
-5 2 -3 933.81 72.59
5 2 -3 858.51 71.19
-5 -2 -3 922.51 71.49
5 -2 3 914.11 72.79
-5 -2 -3 932.11 71.19
-5 2 3 925.31 69.59
5 2 -3 924.51 71.79
-5 -3 3 512.55 38.4
5 -3 -3 487.05 38.8
-5 3 -3 473.95 39.1
5 -3 3 441.36 39.7
-5 -3 -3 473.95 38.4
5 3 -3 500.05 38.2
5 3 -3 534.65 37.3
-5 3 3 463.15 35.6
5 3 -3 454.15 38.5
-5 -3 -3 473.55 37.5
5 -4 -3 323.87 26.2
-5 4 -3 312.37 25.7
-5 -4 3 326.47 25.7
5 -4 3 301.17 27.4
-5 -4 -3 289.77 24.2
-5 -4 -3 317.17 25.6
5 4 -3 275.97 25.7
5 4 -3 281.57 22.9
-5 -5 3 326.87 26.7
-5 5 -3 334.67 24.8
5 -5 -3 301.27 27.2
-5 -5 -3 305.47 25.3
5 -5 3 304.27 28.8
-5 -5 -3 316.47 23.8
5 5 -3 295.77 27.2
-5 -5 -3 310.07 26.4
-5 6 -3 29.8 5.1
-5 -6 3 57.09 6.8
5 -6 -3 35.3 7.6
-5 -6 3 42.8 7.5
5 6 -3 45.2 10.1
-5 -6 -3 35.6 6.6
5 -6 3 43.2 9.8
-5 -6 -3 40 4.3
-5 -6 -3 39 5.5
5 -7 -3 1.7 2.7
-5 -7 3 5.1 3.1
-5 7 -3 1.7 1.8
-5 -7 3 5 2.6
5 -7 3 3 4
-5 -7 -3 2.2 3
-5 -7 -3 1.2 1.3
5 7 -3 -0.6 2.8
-5 8 -3 304.57 25.2
5 -8 -3 288.87 28.8
-5 -8 3 358.76 27.5
-5 -8 -3 331.77 26.1
-5 -8 -3 292.57 24.2
5 -8 3 313.37 30.6
5 8 -3 281.47 28.4
5 -9 -3 11.2 5.3
-5 9 -3 5.4 2.1
-5 -9 3 3.8 3.6
-5 -9 -3 6.4 2.3
5 9 -3 6.5 4.1
-5 -9 -3 3.4 3.3
5 -9 3 4.5 5.6
5 -10 -3 13.7 5.1
-5 -10 3 6.3 4.7
5 -10 3 16.2 7.1
5 10 -3 11.4 5
-6 0 3 -0.7 1.5
-6 0 -3 -0.2 1.2
6 0 3 -1.9 1.3
6 0 -3 0.6 1.4
-6 0 3 -0.7 1
6 0 -3 1.4 1.3
6 -1 -3 35.6 4.6
-6 -1 3 43.1 5.4
-6 -1 3 41.5 6.2
-6 1 -3 33.8 6.6
6 1 3 44.9 5.8
6 -1 -3 37.3 5.9
-6 -1 -3 37.3 5.7
6 -1 3 42.4 6.5
-6 1 3 34.6 4.5
6 1 -3 34.7 5.8
-6 -1 -3 47.2 5.8
-6 -2 3 -0.5 1
6 2 3 0.7 1.2
-6 2 -3 2.1 2.4
-6 -2 3 0.8 1.5
6 -2 -3 -0.1 1.5
6 2 -3 0.6 1.5
6 2 -3 -1.3 1.3
6 2 -3 -0.6 0.8
-6 -2 -3 -0.8 1.3
6 -2 3 -1.8 1.5
-6 -2 -3 -0.3 1.2
-6 2 3 0.7 0.9
-6 -3 3 194.68 16.9
6 -3 -3 166.28 17.1
-6 3 -3 171.68 17.4
6 -3 3 172.98 18.1
6 3 -3 210.08 15.5
-6 -3 -3 177.28 16.8
6 3 -3 196.48 16.9
6 3 -3 169.68 16.8
-6 3 3 167.08 14.3
-6 -3 -3 182.98 16.4
-6 -4 3 363.86 25.7
-6 -4 3 335.17 27.3
-6 4 -3 322.57 27.1
6 -4 -3 330.77 27.8
6 4 -3 298.67 24.7
-6 -4 -3 310.77 26.8
6 4 -3 295.57 27.1
6 -4 3 289.57 28.5
6 4 -3 281.87 24.2
-6 -4 -3 316.77 26.1
-6 -5 3 5.4 3.3
-6 5 -3 12 3.3
-6 5 -3 8.6 2.2
6 -5 -3 8.8 4.2
-6 -5 3 15.2 3.6
6 5 -3 8.2 3.8
6 -5 3 9.3 5
-6 -5 -3 13.3 3.6
-6 -5 -3 10 3.9
-6 -6 3 263.27 22.5
-6 6 -3 245.18 20.1
6 -6 -3 225.88 23.4
-6 -6 3 287.27 21.7
6 6 -3 219.18 23
-6 -6 -3 248.58 21.7
-6 -6 -3 228.98 21.9
6 -6 3 233.88 24.9
-6 7 -3 0.2 1.7
6 -7 -3 3.4 3.2
-6 -7 3 4.3 2.6
6 -7 3 2.2 3.9
6 7 -3 -1.2 2.4
-6 -7 -3 -2.3 2.2
-6 -8 3 13.1 4.2
-6 8 -3 4.9 2.4
6 -8 -3 10.2 4.9
-6 -8 3 12.6 4.5
6 -8 3 8.7 5.7
6 8 -3 8.2 4.6
-6 -8 -3 15.4 4.2
-6 9 -3 72.19 6.5
-6 -9 3 72.19 9.8
-6 -9 3 70.19 9.2
6 9 -3 55.39 11.3
-6 -9 -3 71.99 8.8
6 -9 3 66.29 13.7
6 -10 -3 22.2 7
-6 -10 3 11.8 4.4
6 -10 3 14.2 6.9
6 10 -3 7.3 5.1
7 0 -3 -2.6 1
7 0 3 0.2 1.5
-7 0 3 0.6 1.2
-7 0 3 -2.3 0.9
7 0 -3 0.7 2
-7 0 -3 1.1 1.9
-7 1 -3 721.73 60.39
-7 -1 3 742.33 58.59
7 -1 -3 762.02 60.19
-7 -1 3 817.82 60.59
7 -1 -3 771.52 58.19
7 1 3 778.92 59.49
-7 1 3 851.51 60.49
7 1 -3 763.42 60.19
-7 -1 -3 713.03 59.79
-7 -1 -3 767.22 59.19
7 -1 3 714.03 60.29
-7 1 3 743.63 57.89
-7 -2 3 1068.29 75.59
-7 -2 3 982.2 73.79
-7 2 -3 945.91 75.29
7 -2 -3 963.9 74.99
7 2 3 945.61 72.79
-7 2 3 929.01 71.99
7 2 -3 1041.3 71.99
-7 -2 -3 960.7 74.39
7 2 -3 974.9 74.69
-7 -2 -3 930.81 73.89
7 2 -3 892.81 73.69
7 -2 3 911.11 75.49
-7 3 -3 5 3.4
-7 -3 3 8.3 3.1
7 -3 -3 3.7 3
-7 -3 -3 6.1 3.1
7 3 -3 8.2 2.2
7 -3 3 6.7 3.6
-7 -3 -3 2.8 2.3
7 3 -3 9.2 3.4
-7 3 3 5.2 1.7
7 3 -3 5.4 3.4
7 -4 -3 89.19 11.3
-7 4 -3 87.59 10.9
-7 -4 3 101.09 11
7 -4 3 103.99 12.8
7 4 -3 86.99 8.5
7 4 -3 94.09 9.4
-7 4 3 91.89 7.7
-7 -4 -3 101.79 10.6
7 4 -3 89.29 11.1
-7 -4 -3 102.79 11.2
7 -5 -3 17.8 5.3
-7 5 -3 18.3 4.3
-7 -5 3 14.4 3.5
-7 -5 3 12.3 4.3
-7 5 -3 17.9 3.1
-7 -5 -3 21 5.1
7 -5 3 21.6 6.7
-7 -5 -3 19.2 4.9
7 5 -3 16.9 5.5
-7 6 -3 -0.2 1.3
-7 -6 3 -0.6 2.4
-7 -6 3 0.4 2.1
7 -6 -3 -1.3 2.7
7 -6 3 0.3 3.7
-7 -6 -3 -3.6 1.9
-7 -6 -3 0 2.7
7 6 -3 -0.8 2.1
-7 7 -3 12.7 3.2
-7 -7 3 13 4
-7 -7 3 20 5.7
7 -7 -3 17.5 5.8
-7 -7 -3 15.4 4.7
-7 -7 -3 20.3 5.3
7 7 -3 10.8 5.3
7 -7 3 20.9 7.6
-7 8 -3 86.69 9.2
7 -8 -3 106.99 14.9
-7 -8 3 110.89 12.4
-7 -8 -3 99.19 11
7 8 -3 86.39 14.2
7 -8 3 82.39 15.9
7 -9 -3 -3.3 4.4
-7 -9 3 0.1 2.9
7 9 -3 1.8 4.5
-7 -9 -3 -0.6 3.1
7 -9 3 0 5
-8 0 3 0.9 1.9
8 0 3 1.1 2.2
8 0 -3 -0.7 1.4
-8 0 3 -0.6 1.2
8 0 -3 0.5 1.6
-8 0 -3 1.2 1.9
8 -1 -3 598.74 45.1
8 -1 -3 593.74 47.4
8 1 3 562.74 46.3
-8 -1 3 586.54 45.6
-8 1 -3 554.24 47.3
-8 -1 3 630.84 47.7
-8 -1 -3 518.75 46.5
8 1 -3 546.35 46.8
-8 1 3 526.05 44.4
-8 -1 -3 558.14 45.9
-8 1 3 660.03 47.7
8 -1 3 571.34 47.5
8 -2 -3 1875.51 143.39
-8 -2 3 2089.89 143.99
-8 -2 3 1949.9 141.99
-8 2 -3 1783.42 143.39
8 2 -3 1907.11 142.99
-8 -2 -3 1918.41 142.89
8 2 -3 1837.22 141.99
8 2 -3 1867.01 139.69
-8 -2 -3 1901.41 142.29
8 -2 3 1838.82 143.89
-8 2 3 1875.41 140.19
-8 -3 3 564.94 45.8
8 -3 -3 572.54 47.3
-8 3 -3 512.35 46.6
-8 -3 3 627.94 47.6
8 3 3 653.43 42.1
8 3 3 551.14 42.6
-8 -3 -3 515.35 45.7
-8 -3 -3 552.04 46
-8 3 3 526.35 43.2
8 -3 3 544.25 47.8
8 3 -3 553.34 46
8 3 -3 516.85 45.5
8 3 -3 642.54 43.6
-8 -4 3 117.19 12.2
-8 4 -3 95.89 11.9
8 -4 -3 102.59 12.9
8 -4 3 96.69 13.4
-8 -4 -3 105.69 11.9
8 4 -3 93.29 13.2
-8 4 3 109.29 8.9
8 4 -3 92.59 10.4
-8 -4 -3 95.99 11.7
8 4 -3 101.39 9.4
-8 5 -3 79.09 9.7
-8 -5 3 76.29 9.9
8 -5 -3 86.19 11.7
-8 -5 -3 82.49 10.1
8 -5 3 67.49 13
8 5 -3 69.69 11.6
-8 -5 -3 72.99 9.8
-8 6 -3 42.5 4.8
8 -6 -3 39 9.5
-8 -6 3 45 8.6
-8 -6 -3 44.7 8.3
8 6 -3 19.7 6.4
-8 -6 -3 37 7.6
8 -6 3 27.2 9.1
8 -7 -3 96.89 14.3
-8 -7 3 131.49 13.5
-8 7 -3 100.99 9.9
8 7 -3 69.09 13.5
-8 -7 -3 120.49 12.6
8 -7 3 124.29 16.6
8 -8 -3 502.15 46.2
-8 8 -3 488.35 39.4
-8 -8 3 605.54 43.8
8 8 -3 451.65 44.2
8 -8 3 534.15 48.2
-8 -8 -3 505.45 42.2
-8 -9 3 2.1 3
8 -9 -3 0.2 4.5
-8 -9 -3 8 3.4
8 9 -3 -3.8 3.7
8 -9 3 3.2 4.2
-9 0 3 0.2 2.3
9 0 -3 1.9 1.7
-9 0 -3 1.6 2.6
-9 0 3 -0.3 1.3
9 0 3 0.1 1.5
9 0 -3 0.8 2
9 -1 -3 110.89 13.2
-9 1 -3 108.89 13.4
-9 -1 3 119.99 11.9
-9 -1 3 132.89 14
9 -1 -3 108.59 11.3
9 1 3 97.89 12.1
9 -1 3 109.39 13.4
-9 1 3 123.29 13.4
9 1 -3 99.69 12.7
-9 -1 -3 100.19 12.6
-9 1 3 103.99 10.9
-9 -1 -3 110.29 12.1
9 -2 -3 100.09 12.6
-9 -2 3 108.39 12.6
-9 -2 3 113.49 18.8
9 2 3 95.49 10.7
-9 2 -3 101.39 12.5
9 -2 3 85.69 12.1
9 2 -3 97.19 9.1
9 2 -3 88.49 10.9
9 2 -3 89.49 11.6
-9 -2 -3 88.99 11.6
-9 2 3 97.79 9.7
-9 -2 -3 85.89 11
9 3 3 238.98 18.4
-9 -3 3 254.97 22.2
9 3 3 233.68 19.6
-9 -3 3 273.97 26.1
9 -3 -3 257.97 23.9
-9 3 -3 230.88 23.1
9 -3 3 237.48 24.1
-9 3 3 216.68 19.5
9 3 -3 219.08 21.9
9 3 -3 221.08 21.9
-9 -3 -3 231.58 22.3
-9 -3 -3 244.08 22.3
9 -4 -3 173.48 19.5
-9 4 -3 187.78 18.9
-9 -4 3 224.48 19.2
9 4 -3 179.98 18.5
9 -4 3 160.08 19.6
-9 -4 -3 182.88 18.4
-9 4 3 179.78 15.1
9 4 -3 177.78 16.9
9 4 -3 177.48 15.3
-9 -4 -3 171.58 18
9 -5 -3 46.1 9.9
-9 -5 3 61.69 9.7
-9 5 -3 49.5 7.8
-9 5 3 42.5 4.2
9 5 -3 33.3 8.2
-9 -5 -3 43.3 8.7
-9 -5 -3 53.49 9.5
9 -6 -3 7.9 4.3
-9 6 -3 11.9 2.6
-9 -6 3 15 5.5
9 6 -3 1.9 4.1
9 -6 3 11.8 6.5
-9 -6 -3 3.5 3.9
9 -7 -3 63.29 12.9
-9 7 -3 72.59 7.2
-9 -7 3 78.99 10.6
-9 -7 -3 58.29 10.3
-9 -7 -3 61.69 10.2
9 7 -3 50.79 11
9 -7 3 68.79 14.2
-9 -8 3 -2.6 3.8
-9 8 -3 7.3 2.3
9 -8 -3 5.8 5.5
9 -8 3 5.1 6.4
-9 -8 -3 17.9 5.2
9 8 -3 9.5 5.2
9 -9 -3 3.8 5.7
-9 -9 3 -6.5 4
9 9 -3 6.3 5.5
9 -9 3 -4.7 5
-9 -9 -3 5.2 4.7
10 0 -3 -1.2 2.2
-10 0 3 0.7 2
-10 0 -3 0.3 1.9
10 0 3 -0.9 2.1
10 0 -3 0.5 1.9
10 -1 -3 893.61 70.29
-10 -1 3 994.2 73.99
-10 1 -3 942.61 76.59
10 1 3 888.11 71.99
10 -1 -3 871.81 72.89
-10 -1 3 927.81 71.29
-10 -1 -3 910.81 73.29
10 1 -3 854.91 72.49
-10 -1 -3 922.71 73.89
-10 1 3 853.21 69.69
-10 1 3 1028.4 73.59
10 1 -3 878.71 70.99
10 -1 3 895.01 73.19
-10 -2 3 340.67 29.5
10 2 3 314.17 27.4
-10 -2 3 337.17 27.7
10 -2 -3 293.07 28.9
-10 2 -3 307.77 29.6
-10 2 3 289.57 25.6
-10 -2 -3 283.27 28.2
10 2 -3 266.37 27
-10 2 3 375.36 29.6
10 -2 3 276.87 28.9
10 2 -3 328.47 29
-10 -2 -3 315.47 27.8
10 3 3 1662.13 132.99
-10 -3 3 2055.39 139.99
10 3 3 1762.32 134.89
-10 -3 3 1884.31 137.39
10 -3 -3 1763.92 139.19
-10 3 -3 1733.53 147.09
10 3 -3 1727.63 137.39
10 -3 3 1711.53 139.59
-10 3 3 1827.62 134.69
-10 -3 -3 1779.62 138.49
10 3 -3 1762.22 137.49
-10 -3 -3 1867.61 137.69
10 3 -3 2017.4 134.29
10 -4 -3 58.59 11.3
-10 4 -3 43.4 9
-10 -4 3 45.4 9
10 4 -3 56.09 5.9
10 4 -3 33.5 7.8
-10 -4 -3 47.4 9.1
-10 4 3 49.1 5.8
10 4 -3 46.4 7.2
10 -5 -3 58.09 11.9
-10 5 -3 62.99 9.4
-10 -5 3 69.79 10.8
-10 -5 -3 70.79 11.2
10 5 -3 61.19 10.9
10 5 -3 52.09 5.2
-10 -5 -3 61.99 9.8
-10 5 3 60.29 5.8
10 -5 3 45.8 11.2
-10 -6 3 111.99 14.1
-10 6 -3 121.49 10.6
10 -6 -3 103.39 15.4
10 -6 3 98.59 16.4
-10 -6 -3 114.09 14.5
-10 -6 -3 131.99 14.4
10 6 -3 118.09 15.2
-10 7 -3 45.3 5.2
-10 -7 3 51.49 12.9
10 -7 -3 37.5 10
10 7 -3 50.49 10.4
10 -7 3 39.1 11.1
-10 -7 -3 27.2 8
-10 -7 -3 39.9 8.7
-10 8 -3 43.1 6.1
-10 8 -3 46.5 5.6
-10 -8 3 54.49 9.7
10 -8 -3 57.89 13.5
10 8 -3 46.5 10.5
-10 -8 -3 47.7 9.4
10 -8 3 49.3 12.7
10 -9 -3 16.1 7.9
10 9 -3 10.8 5.9
10 -9 3 10.8 6.1
-11 0 -3 -0.5 1.7
-11 0 3 1.3 2.2
11 0 -3 0.4 2.7
11 0 3 2.7 2.7
-11 0 -3 0.7 2.3
-11 0 3 0.4 2.2
11 0 -3 0 1.7
-11 -1 3 513.25 43.9
-11 1 -3 565.24 44.8
11 -1 -3 518.05 46.2
-11 -1 3 576.94 46.7
11 1 3 531.75 45.5
-11 1 -3 540.15 46.6
11 -1 -3 545.85 43.7
-11 1 3 507.05 43
-11 1 3 583.04 46.6
11 1 -3 523.85 44.2
11 -1 3 508.75 46.3
-11 -1 -3 522.55 46.1
11 1 -3 546.85 46.2
-11 -1 -3 536.95 44.6
-11 -2 3 3 2.3
-11 -2 3 -1.9 1.9
-11 2 -3 0.6 3.4
11 -2 -3 4.6 3.9
11 2 3 -1.7 1.9
-11 -2 -3 5.4 3.5
-11 2 3 1.3 1.9
11 2 -3 0.3 2.1
11 -2 3 3.7 3.1
-11 2 3 2.2 3.5
-11 -2 -3 2.6 3.1
11 2 -3 -1.1 1.9
11 3 3 0.6 2
-11 3 -3 -1.7 3.2
11 -3 -3 0.9 2.8
-11 -3 3 3.1 2.5
-11 -3 3 -0.1 2.9
11 3 -3 1 1.5
11 3 -3 3.7 3.4
-11 -3 -3 -1.9 2.6
11 3 -3 3.2 3.3
-11 -3 -3 -2 2.6
-11 3 3 -0.8 1.4
11 -3 3 5.7 4.7
-11 4 -3 221.98 22.1
-11 -4 3 214.88 21.1
11 -4 -3 197.48 22.9
-11 -4 3 241.78 23.3
-11 -4 -3 197.08 21.4
-11 4 3 195.18 17.8
11 4 -3 183.68 19.6
11 4 -3 188.38 20.9
-11 -4 -3 200.68 20.9
11 4 -3 228.88 17.7
11 -4 3 196.58 23
-11 -5 3 35.1 7.8
-11 5 -3 27.4 7
11 -5 -3 22.9 8
-11 -5 -3 19.1 6.4
-11 -5 -3 26.9 7.1
-11 5 3 25.6 4
11 5 -3 20.4 3.9
11 -5 3 17.4 7.4
11 5 -3 21.2 6.8
11 5 -3 18.8 3.3
11 -6 -3 289.67 30.3
-11 -6 3 323.37 28.2
-11 -6 -3 300.57 27.6
11 6 -3 251.07 27.7
-11 -6 -3 281.67 28.1
11 -6 3 279.97 31
-11 -7 3 8.9 4.6
-11 7 -3 4.7 2
11 -7 -3 0.8 3.8
-11 -7 -3 -1.9 4.1
11 7 -3 -2.7 3.5
11 -7 3 -2.2 3.9
-11 -7 -3 -3.7 4.3
-11 8 -3 3.4 2.3
-11 8 -3 0.1 1.7
11 -8 -3 5.5 5.3
-11 -8 -3 -0.2 3.2
11 8 -3 10.6 5.6
11 -8 3 2.4 7.1
11 -9 -3 36.1 10.8
11 9 -3 25.3 8.3
11 -9 3 47.5 13.4
12 0 -3 1.3 2.9
-12 0 -3 -1.3 2.7
-12 0 3 1.8 2.4
-12 0 -3 1.2 2.7
12 0 -3 0.4 2.3
12 0 3 -2.7 1.8
-12 0 3 -0.8 3
12 -1 -3 6.5 3.1
12 -1 -3 2.9 4
-12 -1 3 1.6 2.2
12 1 3 2.5 3
-12 -1 3 5.4 3.2
-12 1 -3 5.1 2.7
-12 1 -3 8 4.4
-12 1 3 7.1 3.4
12 1 -3 7.6 5.1
-12 1 3 6.4 3.8
-12 -1 -3 6.3 4
12 -1 3 3.8 3.6
12 1 -3 4.7 3.8
-12 -1 -3 3.9 4
-12 -2 3 34.6 7.6
-12 -2 3 41.5 9.8
12 2 3 40.6 8.7
-12 2 -3 39.6 9.4
-12 2 -3 38.5 7.4
-12 -2 -3 44.1 10
12 -2 3 36.2 9.5
-12 2 3 48.4 10.4
12 2 -3 38.6 9.3
12 2 -3 34.8 8
-12 -2 -3 34.4 8
-12 2 3 33.7 6.6
-12 -3 3 288.47 28.3
-12 -3 3 273.27 26.1
-12 3 -3 275.17 28
12 -3 -3 292.47 29
12 3 3 266.77 24.9
12 3 -3 273.87 26.6
12 -3 3 258.97 28.4
12 3 -3 278.47 26.9
-12 -3 -3 275.57 26.6
-12 3 3 280.37 24.1
12 3 -3 299.27 23.4
-12 -3 -3 283.77 27.9
12 4 3 -1.8 1.3
12 4 3 1.2 1.2
-12 -4 3 -0.8 3.1
-12 -4 3 1.9 3.1
-12 4 -3 -2.3 3.1
12 -4 -3 -2.4 3.8
12 4 -3 0.1 1.9
-12 -4 -3 0 3
12 4 -3 -0.6 2.9
12 -4 3 4 4.2
-12 4 3 -3.5 1.3
12 4 -3 -0.9 2.5
-12 -4 -3 -2.6 2.5
-12 -5 3 30.8 7.8
12 -5 -3 22.6 7.9
-12 5 -3 35.4 8.3
12 5 -3 23 3.8
-12 -5 -3 21.5 7.3
-12 5 3 30.1 4.9
12 5 -3 26.3 5
-12 -5 -3 28.2 7.2
12 -5 3 23.5 8.8
12 5 -3 34.1 8.5
-12 -6 3 21.6 7.2
12 -6 -3 18.3 8.9
-12 -6 -3 20.1 6
-12 6 3 17.5 2.5
-12 -6 -3 22.3 6.6
12 6 -3 13.5 6.1
12 -6 3 27.9 9.8
-12 6 3 21 2.2
12 -7 -3 4.9 5.5
-12 7 -3 1.5 2.5
-12 7 -3 -2.3 1.4
-12 -7 3 -3.4 3.9
12 -7 3 2.5 4.8
-12 -7 -3 1.7 4.4
12 7 -3 -2.7 3
-12 -7 -3 -0.2 4.6
-12 8 -3 5.4 2.8
-12 8 -3 3 2
12 -8 -3 5.2 6.9
12 -8 3 11.4 7.4
-12 -8 -3 12.1 5.2
12 8 -3 0.4 5
12 -9 -3 8.2 5.6
12 -9 3 8.2 7.1
13 0 -3 -1.3 1.4
-13 0 -3 0.3 2.7
-13 0 3 0.4 2.3
-13 0 3 4.1 3.4
13 0 -3 -0.8 2.9
-13 0 -3 -2.9 1.9
13 0 3 1.3 4
-13 -1 3 354.56 31.3
-13 1 -3 334.17 33.9
13 1 3 338.77 33
-13 1 -3 371.26 31.7
13 -1 -3 333.87 33.8
-13 -1 3 379.06 34.4
13 1 -3 357.66 34.2
-13 -1 -3 342.37 31.8
13 1 -3 347.37 31.7
-13 1 3 382.46 34.4
-13 -1 -3 357.26 34.1
13 -1 3 337.97 33.9
-13 1 3 353.56 30.6
-13 -2 3 749.53 58.69
-13 2 -3 666.03 54.59
13 2 3 616.54 55.49
-13 -2 3 711.43 55.59
-13 2 -3 658.73 57.69
13 -2 -3 640.04 57.69
13 2 -3 641.44 55.29
-13 -2 -3 623.74 55.29
13 2 -3 682.43 60.39
-13 2 3 777.32 58.49
13 -2 3 665.93 58.29
-13 -2 -3 658.33 57.49
-13 3 -3 20 7
13 -3 -3 14.5 6.4
-13 -3 3 15.6 6.8
-13 3 -3 12.6 4.9
13 3 3 12.8 4.9
-13 -3 3 18.1 6
-13 -3 -3 9 6.5
13 3 -3 6.9 4.2
13 3 -3 14 3.6
13 3 -3 10.1 5.1
-13 3 3 13 4.2
13 -3 3 8.3 6.4
-13 -3 -3 19.9 6
13 4 3 -1 1.1
13 -4 -3 -4.8 2.1
13 4 3 -2.3 1.7
-13 4 -3 3.9 4.4
-13 -4 3 -1.8 3.2
-13 -4 3 -2.8 4.1
13 4 -3 1.8 2.8
-13 -4 -3 -0.8 3.2
13 4 -3 -1.1 3.2
-13 -4 -3 2.6 3.8
13 -4 3 -2.7 3.2
13 4 -3 -2.2 1.7
-13 4 3 0.8 2.2
-13 5 -3 9.1 5.4
13 -5 -3 6.1 5.8
-13 -5 3 3.6 5.2
13 5 -3 10.8 3
13 5 -3 11 3.9
13 5 -3 13.9 5.9
-13 -5 -3 21.5 6.9
-13 5 3 9.8 3.1
-13 -5 -3 8.5 5.4
13 -5 3 8.4 6.9
-13 6 -3 16.8 6.3
-13 -6 3 11.6 5.5
-13 6 -3 11.4 4.5
13 -6 -3 19.5 8.5
13 6 -3 15.5 6.8
-13 -6 -3 7.4 5.8
-13 -6 -3 22.4 7
13 -6 3 6.3 4.8
-13 6 3 15.5 2.9
13 -7 -3 71.19 15.9
-13 7 -3 61.59 6.9
-13 7 -3 72.89 8.9
-13 -7 -3 49.4 10.8
13 -7 3 55.99 14.4
-13 -7 -3 64.09 13.5
13 7 -3 61.29 13.2
-13 8 -3 68.39 8.6
13 -8 -3 79.09 17
-13 8 -3 83.19 7.8
13 -8 3 65.09 15.6
13 8 -3 83.19 15.5
13 -9 -3 8.5 9
13 9 -3 22 8.4
13 -9 3 27.2 11.4
-14 0 -3 -2.6 2.9
-14 0 -3 -4.7 3.1
14 0 3 -0.1 4.1
14 0 -3 1 3.9
-14 0 3 -2.8 2.6
-14 0 3 2.4 3.5
14 0 -3 2.8 2.5
-14 -1 3 315.87 28.7
-14 1 -3 333.47 32.1
-14 -1 3 342.97 32
14 -1 -3 295.17 31.1
-14 1 -3 317.97 28.9
14 1 3 286.67 30.1
14 1 -3 296.67 28.8
-14 -1 -3 309.47 29.2
-14 1 3 301.67 27.8
-14 1 3 347.27 31.9
14 1 -3 298.97 30.7
-14 -1 -3 307.27 31.3
14 -1 3 285.07 30.9
14 -2 -3 155.88 19.5
14 2 3 149.59 17.7
-14 2 -3 121.79 18
-14 -2 3 158.28 19.2
-14 2 -3 156.98 16.6
-14 -2 3 142.29 16.5
-14 2 3 136.89 15.3
-14 2 3 171.68 19.2
-14 -2 -3 171.78 19.8
14 -2 3 138.89 19
-14 -2 -3 163.18 17.8
14 2 -3 147.49 18.2
14 2 -3 129.69 16.4
-14 3 -3 867.31 66.89
14 -3 -3 809.52 70.79
-14 -3 3 884.71 68.19
-14 -3 3 905.41 71.19
14 3 3 816.12 66.79
-14 3 -3 855.11 70.49
14 3 -3 815.02 68.09
14 3 -3 798.72 63.69
-14 -3 -3 851.81 68.49
-14 -3 -3 880.11 70.69
14 3 -3 759.62 68.49
14 -3 3 827.12 71.29
-14 3 3 789.72 65.49
14 -4 -3 19.2 8.3
-14 4 -3 23.3 6.7
14 4 3 30.8 3.9
-14 4 -3 33.9 8.9
-14 -4 3 31.9 8.3
14 4 3 23 5.2
-14 -4 3 21 7.7
-14 -4 -3 29.5 8.6
-14 -4 -3 19.7 8.4
14 4 -3 22.1 7.3
14 -4 3 16.3 7.7
-14 4 3 20 4.7
14 4 -3 31.5 7.9
-14 -5 3 402.66 34.6
-14 5 -3 415.26 36.1
-14 5 -3 366.76 32.3
14 -5 -3 338.57 37
-14 -5 -3 350.36 43.1
14 5 -3 331.37 34.4
14 -5 3 409.36 39.2
-14 5 3 380.56 30.3
14 5 -3 334.57 31
-14 -5 -3 396.56 36.6
14 5 -3 341.77 29
-14 6 -3 257.17 24.7
-14 6 -3 290.27 27.3
14 -6 -3 253.97 30.4
-14 -6 3 308.57 28.3
14 6 -3 254.27 27.8
-14 6 3 261.87 21.8
-14 -6 -3 278.17 29.1
14 -6 3 251.27 30.8
-14 -6 -3 272.57 27.5
14 -7 -3 -1.7 6.4
-14 7 -3 6.1 2.4
14 -7 3 12.7 8.8
-14 -7 -3 -1.6 8.2
14 7 -3 -0.1 4.4
-14 8 -3 394.86 34.2
14 -8 -3 463.95 45.5
-14 8 -3 435.46 33.5
14 -8 3 452.25 45.6
-15 0 -3 2.3 3.3
15 0 -3 -1.4 3.1
-15 0 -3 1.1 3.4
15 0 -3 2.6 3.3
-15 0 3 -0.5 4.3
15 0 3 1.1 3.7
-15 0 3 3.1 3.8
-15 1 -3 442.76 42.6
-15 1 -3 469.65 39.7
15 1 3 448.66 41.5
-15 -1 3 472.95 42.8
-15 -1 3 421.06 38.9
15 -1 -3 419.46 42
-15 -1 -3 449.46 42.5
15 1 -3 415.56 41.4
-15 1 3 484.55 42.8
15 -1 3 423.76 42.1
-15 1 3 456.95 38.5
-15 -1 -3 459.95 40.2
15 1 -3 455.95 39.8
-15 2 -3 224.98 26.8
15 -2 -3 229.38 27.1
-15 2 -3 241.08 24
15 2 3 223.58 25.2
-15 -2 3 224.08 24.3
-15 -2 3 280.17 28.1
15 -2 3 245.68 27.8
15 2 -3 225.78 24.4
15 2 -3 252.47 26.5
-15 -2 -3 284.97 28
-15 -2 -3 258.87 25.5
-15 2 3 239.68 23
-15 2 3 286.47 27.6
-15 3 -3 112.99 12.9
-15 3 -3 87.99 14.4
-15 -3 3 99.49 15.1
15 -3 -3 82.89 16.8
-15 -3 3 92.69 14.5
15 3 3 73.99 12.1
15 -3 3 88.99 17.9
-15 -3 -3 94.29 15.5
15 3 -3 92.79 14
-15 3 3 103.49 11.8
15 3 -3 85.39 9.8
-15 -3 -3 98.19 15
15 3 -3 75.59 13.8
15 4 3 142.69 12.2
-15 4 -3 142.79 19
-15 -4 3 134.09 16.6
-15 4 -3 141.59 15.8
-15 -4 3 139.19 19.7
15 -4 -3 117.89 18.5
15 4 3 129.59 14.1
-15 -4 -3 131.39 27.8
15 4 -3 138.09 13.1
15 -4 3 143.69 20.2
-15 4 3 135.19 14.3
15 4 -3 114.89 16.8
-15 -4 -3 165.48 19.6
15 -5 -3 -1.6 3.4
-15 -5 3 -1.4 2.7
-15 5 -3 7.4 3.8
15 5 -3 0.1 3.6
-15 -5 -3 5.3 3.7
15 -5 3 -1.6 4.8
15 5 -3 -1.7 2.5
-15 5 3 -1.3 2.3
-15 -5 -3 4.8 5.1
15 5 -3 -0.8 2
-15 6 -3 0.7 3.5
-15 6 -3 -8.8 4.7
15 -6 -3 1.2 5.5
-15 -6 -3 -1.2 4.4
15 6 -3 1.9 3.9
15 -6 3 -1.3 5
-15 6 3 4.8 2.3
15 -7 -3 12.7 7.5
-15 7 -3 3.9 4.2
15 -7 3 5.8 7.4
15 7 -3 6.8 6.7
-15 -7 -3 9.4 7.2
15 -8 -3 74.19 16.9
-15 8 -3 56.89 8.5
-15 8 -3 63.39 7.1
15 8 -3 74.79 15.5
15 -8 3 98.79 19.5
-16 0 -3 -0.2 4.9
-16 0 3 -2.5 2.7
-16 0 -3 3.7 3.1
16 0 -3 -3.1 3.5
-16 0 3 -0.3 4.4
16 0 3 -2.7 3.5
16 1 3 0.3 3.7
16 -1 -3 0.2 4.4
-16 1 -3 3.1 4.2
-16 -1 3 4.5 5.1
-16 -1 3 6.1 4
-16 1 -3 -1.5 4.1
-16 1 3 -3.5 2.7
-16 -1 -3 0.9 3.9
-16 1 3 -0.5 4.7
16 -1 3 0.5 3.8
16 1 -3 -4.8 2.9
-16 -1 -3 4.6 4.6
16 1 -3 -1 2.1
-16 -2 3 219.28 23.3
16 2 3 241.18 25.1
-16 2 -3 236.48 23.4
16 -2 -3 184.98 25.1
-16 2 -3 258.27 27.5
-16 -2 3 241.88 26.5
-16 -2 -3 230.08 24.2
-16 2 3 219.58 21.8
16 2 -3 208.48 25.2
-16 -2 -3 221.78 26.1
16 2 -3 198.98 23
-16 2 3 242.78 26.4
16 -2 3 219.58 26.5
16 -3 -3 615.64 57.79
-16 -3 3 690.03 62.39
-16 3 -3 668.53 57.59
16 3 3 650.83 54.39
-16 3 -3 636.34 53.19
-16 -3 3 674.13 55.59
16 3 -3 642.54 55.69
16 3 -3 619.04 49.9
16 -3 3 577.94 57.19
-16 -3 -3 645.44 57.39
-16 3 3 657.33 51.99
16 3 -3 563.34 53.89
-16 -4 3 17.9 6.4
16 4 3 17.1 5.3
16 4 3 12.3 3.2
-16 4 -3 15.5 7.1
-16 -4 3 22.7 8.1
16 -4 -3 14 7.5
-16 4 -3 28.6 7.1
16 4 -3 14.1 4
16 4 -3 11.6 5.6
-16 -4 -3 16.4 7.7
-16 -4 -3 28.2 7.1
16 4 -3 6.3 5.1
-16 4 3 13.1 4.5
16 -4 3 11 8.3
-16 5 -3 2.1 3.7
16 -5 -3 -1.1 4.5
-16 5 -3 -3.4 5.1
-16 -5 -3 1.7 5.3
-16 -5 -3 1.8 4.7
16 5 -3 -0.8 4.1
16 5 -3 6.2 4
16 5 -3 0.1 2.3
16 -5 3 -5.3 3.3
-16 5 3 5.5 4.5
16 -6 -3 31.3 11.5
-16 6 -3 43.1 10.6
-16 6 -3 35.5 8.3
-16 -6 -3 67.79 15.1
-16 6 3 51.79 6.7
16 6 -3 38.3 11.2
16 -6 3 56.09 15.4
-16 7 -3 86.09 12.7
16 -7 -3 102.39 20.7
-16 -7 -3 134.79 30.8
16 -7 3 88.39 19.6
16 7 -3 98.39 17.6
-16 8 -3 -3.6 1.8
16 -8 -3 0.9 6.7
-16 8 -3 -0.7 3.4
16 8 -3 4.4 5.3
16 -8 3 11.9 8.3
-17 0 3 2.9 5
-17 0 3 -5.7 2.5
17 0 -3 -3.1 3.1
17 0 3 0.6 5.1
-17 0 -3 -1.4 3.5
-17 0 -3 -4.1 3.8
17 1 3 671.63 60.49
-17 1 -3 674.33 57.99
17 -1 -3 675.53 61.69
-17 -1 3 673.13 57.69
-17 1 -3 704.53 62.69
-17 -1 -3 751.02 67.19
-17 -1 -3 722.93 59.09
-17 1 3 698.33 57.19
17 1 -3 685.43 61.19
17 1 -3 629.34 57.79
17 -1 3 656.33 61.39
-17 1 3 758.92 62.39
-17 -2 3 67.89 14.7
-17 2 -3 67.19 14.8
17 -2 -3 72.19 15.6
17 2 3 73.09 14.6
-17 -2 3 68.19 14.7
-17 2 -3 70.19 12.6
17 2 -3 56.59 12.2
17 -2 3 72.29 15.5
-17 2 3 71.09 11.7
-17 2 3 66.99 14.7
17 2 -3 67.79 14.5
-17 -2 -3 77.49 16.1
-17 3 -3 10.8 5
-17 -3 3 13.8 7.7
17 -3 -3 9 6.8
-17 3 -3 4.5 6
17 3 3 10.7 5.7
-17 3 3 18.5 6.2
17 3 -3 20.5 4.7
-17 -3 -3 11.1 6.5
17 3 -3 6.7 4.2
-17 -3 -3 12.6 8.1
17 -3 3 11.9 7.2
17 3 -3 2.7 4.7
-17 -4 3 36.3 13.5
-17 4 -3 12.4 7.5
17 4 3 16.1 5.5
17 4 3 17.6 3.9
-17 -4 3 25.5 9.9
-17 4 -3 16.4 5.9
17 -4 -3 12.7 7.7
-17 -4 -3 24.6 7.4
17 -4 3 14.3 8.2
17 4 -3 23 5
-17 -4 -3 8 6.6
-17 4 3 17.6 5
17 4 -3 16.7 6.2
17 4 -3 19.6 7.2
17 5 3 69.09 5.8
-17 5 -3 59.09 11.2
17 -5 -3 62.39 16.1
-17 5 -3 72.69 14.9
-17 5 3 71.49 9.6
17 -5 3 61.49 16.6
17 5 -3 69.99 14.2
-17 -5 -3 84.69 16.5
17 5 -3 58.59 11.1
-17 6 -3 34.3 8.5
17 -6 -3 21.8 10.4
-17 6 -3 47.9 11.4
-17 6 3 37.2 6.4
17 6 -3 33.4 11.8
17 -6 3 27 11.6
17 -7 -3 78.19 18.7
-17 7 -3 70.19 11.2
-17 7 3 81.69 7.1
17 7 -3 67.59 15.3
17 -8 -3 1.2 7.4
-17 8 -3 1.3 2.1
17 -8 3 -8.9 7.8
-18 0 3 -1.7 4.1
-18 0 -3 7.1 4.1
-18 0 3 0.9 4.6
18 0 -3 1.2 4.5
18 0 3 -4.5 2.7
-18 1 -3 52.29 11.2
18 -1 -3 48.1 12.9
-18 1 -3 57.59 13.6
18 1 3 51.49 12.6
-18 -1 3 51.79 12
-18 1 3 60.09 14.2
18 1 -3 48.9 10.8
18 1 -3 47.7 12.2
-18 -1 -3 50.29 11.3
18 -1 3 49.9 13.6
-18 1 3 29.8 9
-18 -1 -3 48.4 12
-18 -2 3 9.9 7.2
-18 2 -3 5.9 5.4
-18 2 -3 5.9 4.4
18 2 3 3.4 4.2
18 -2 -3 7.9 6.4
18 -2 3 4.5 5.7
-18 2 3 -2.1 3.4
18 2 -3 7.4 5
-18 -2 -3 5.2 6
18 2 -3 -1.2 4.6
-18 -3 3 472.25 43.8
-18 3 -3 472.15 43.4
-18 3 -3 447.86 39
18 3 3 422.06 39.4
18 -3 -3 417.36 43.3
18 -3 3 408.96 43.4
-18 -3 -3 444.86 43.4
18 3 -3 389.06 40.2
18 3 -3 412.56 39.8
-18 -3 -3 445.66 40.4
-18 3 3 404.96 37
18 3 -3 389.36 34.9
-18 4 -3 378.56 38.6
18 -4 -3 376.76 40.4
-18 4 -3 386.46 35.3
18 4 -3 396.06 31.4
18 4 -3 336.97 36
18 -4 3 377.46 40.7
-18 4 3 354.06 33.1
-18 -4 -3 397.96 40.7
18 4 -3 376.16 36.5
18 -5 -3 103.79 21.6
18 5 3 122.99 11.2
-18 5 -3 136.09 20.3
18 5 3 132.29 10.6
-18 5 -3 122.69 15.7
-18 5 3 122.09 14.4
18 5 -3 122.89 12.4
18 5 -3 100.79 18.5
18 5 -3 118.49 15.4
18 -5 3 114.99 22.7
-18 6 -3 286.87 28.2
18 -6 -3 212.98 30.3
-18 6 -3 236.58 23.9
-18 6 3 252.07 22.5
18 6 -3 209.28 26.9
18 -6 3 233.98 31
-18 7 -3 25.6 7.6
18 7 -3 23.6 9.6
-18 7 3 34.3 4.6
18 -7 3 38.5 14.9
19 0 -3 -1.2 5.4
-19 0 3 0.8 5.8
-19 0 3 2.8 4.8
-19 0 -3 -2.5 4.3
19 0 3 0 4.5
19 1 3 162.18 21.2
-19 1 -3 152.98 21.8
-19 -1 3 138.99 18.3
-19 1 -3 141.19 18.1
19 -1 -3 149.29 21.5
-19 1 3 173.98 22.4
-19 1 3 148.69 17.7
-19 -1 -3 127.99 20.3
19 -1 3 130.69 20.8
19 1 -3 169.48 21.9
19 -2 -3 75.89 17
-19 2 -3 103.59 20.1
-19 2 -3 103.19 24.9
19 2 3 86.29 16.8
19 2 -3 73.39 16
-19 2 3 108.99 16.4
19 2 -3 100.39 16.6
-19 -2 -3 103.99 19.9
19 -2 3 81.59 18.2
-19 2 3 68.09 12.2
19 -3 -3 39.1 12.7
-19 3 -3 54.39 11.4
19 3 3 34.3 10
-19 3 -3 46.4 12.7
-19 3 3 39.6 8.9
19 3 -3 38.5 7.4
19 3 -3 40.5 10.7
19 -3 3 32.5 11.5
19 3 -3 39.4 10.6
19 4 3 12.5 5.6
-19 4 -3 9.3 5.9
19 -4 -3 6.6 7
-19 4 -3 -6.3 6
19 4 3 0.4 2.6
-19 4 3 14.2 5.5
19 4 -3 -1.7 4.7
19 4 -3 1.4 5.3
19 -4 3 10.4 7.6
19 4 -3 2 3.5
-19 5 -3 2.7 7.4
19 -5 -3 1.2 6.3
-19 5 -3 6.4 4.8
19 5 3 1.5 2.1
19 5 3 0.9 2.4
19 -5 3 4.4 6.8
19 5 -3 6.5 4.6
19 5 -3 1 3.2
19 5 -3 -2.4 4.7
-19 5 3 -1.9 3.5
-19 6 -3 16.9 6.3
19 -6 3 6.3 8.2
19 6 -3 28.7 4.4
19 6 -3 11 7.5
-19 6 3 24.4 6.2
-19 7 -3 57.69 10.6
19 -7 -3 59.09 16.1
-19 7 3 66.49 7.5
19 -7 3 62.79 18.7
20 0 -3 -2.2 5.5
-20 0 3 7.7 5
-20 0 -3 4.7 4.5
20 0 3 -4.7 3.9
-20 1 -3 365.56 35
20 -1 -3 371.76 39.2
20 1 3 401.36 39.1
20 1 -3 322.57 37.3
-20 1 3 326.17 33.3
20 -1 3 364.56 38.9
-20 2 -3 38.7 10.2
20 2 3 42.6 11.7
20 -2 -3 32.3 11.6
20 -2 3 35.1 12.8
-20 2 3 41 12.7
20 2 -3 42.2 12.2
20 -3 -3 23.8 10.5
20 3 3 22.5 8.5
-20 3 -3 35.7 8.9
20 3 -3 21.6 8.1
20 -3 3 18.7 9.8
-20 3 3 17.2 7
20 3 -3 28.8 10.6
-20 4 -3 -1.1 5.1
20 4 3 0.5 2.6
20 -4 -3 6.5 6.8
20 4 3 2.9 4.6
20 4 -3 -1.4 6.1
20 4 -3 0.3 5.6
-20 4 3 9.5 5.1
20 -4 3 1.8 6
20 4 -3 -0.2 3.3
-20 5 -3 102.19 18
20 5 3 119.99 11.6
20 5 3 110.89 10.2
20 -5 -3 116.59 26.5
-20 5 -3 100.19 19.4
20 5 -3 101.29 11.9
20 -5 3 90.89 20.4
-20 5 3 104.99 13.5
20 5 -3 95.89 14.5
20 5 -3 99.29 18.9
20 -6 -3 13.5 8.2
-20 6 -3 12.5 7
20 -6 3 15.1 9.6
-20 6 3 15.6 5.3
20 6 -3 12.6 3.2
20 6 -3 20.4 4.2
20 -7 -3 3.3 7.7
-20 7 -3 17.2 6.2
-20 7 3 2.1 3.6
20 -7 3 1.4 7.5
21 0 3 3.1 6.2
21 0 -3 -2.6 3.8
21 1 3 45 13.1
21 -1 -3 35.7 12.5
-21 1 3 46.2 11.3
21 -1 3 52.99 14.3
21 1 -3 46.6 14.4
21 2 3 112.49 20.8
21 -2 -3 136.19 24.6
-21 2 3 113.89 15.8
21 -2 3 91.49 20.8
21 2 -3 125.89 18.9
-21 3 -3 56.89 11.2
21 -3 -3 33.8 13
21 3 3 43.7 11.6
21 3 -3 27.1 10.1
21 -3 3 31.4 11.5
21 3 -3 33.4 6.9
-21 3 3 43.9 9.1
-21 4 -3 7.4 7
21 4 3 2.1 3
21 4 3 5 5.3
21 4 -3 -3.5 3.6
-21 4 3 11.4 4.5
21 -4 3 2 5.9
21 4 -3 5.8 5.7
21 5 3 -5.6 2.4
21 5 3 5.8 3.5
21 -5 -3 0.3 6.4
-21 5 -3 -11.5 4.2
21 5 -3 2.3 4.4
-21 5 3 9.1 4.5
21 -5 3 5.7 6.7
21 5 -3 -4.5 3.4
21 -6 -3 -2.2 8
-21 6 -3 20.4 5.9
21 6 -3 8.5 3.7
-21 6 3 13.7 5.3
21 6 -3 1.1 2.7
21 -6 3 6.4 7.7
22 0 -3 -9.5 4.5
22 0 3 3.8 6.1
22 -1 -3 104.39 21.6
22 1 3 96.39 19.3
22 -1 3 84.99 19.3
22 1 -3 91.99 19.6
22 2 3 56.49 13.7
22 -2 -3 51.39 15.7
22 -2 3 53.99 15.5
22 2 -3 57.69 15.5
22 -3 -3 -2.4 5.4
22 3 3 -4 4.8
-22 3 3 10.4 5.4
22 -3 3 -3.9 4.7
22 3 -3 2.7 4.9
22 3 -3 -1.8 3.4
22 4 3 22.4 5.5
22 -4 -3 32.2 13
22 4 3 30.3 8.8
22 4 -3 20.7 5.9
-22 4 3 12.8 6.9
22 -4 3 32.4 13.1
22 4 -3 26.7 9.4
22 5 3 12.8 5
22 -5 -3 24.8 11.8
22 5 -3 19.2 6.9
22 5 -3 16.4 5.9
22 -5 3 40.2 14.2
22 -6 -3 23.9 10.3
-22 6 -3 31.6 8.4
22 6 -3 20.9 5.4
-22 6 3 33.5 7.4
22 -6 3 17.4 10.8
23 0 -3 -0.6 5.7
23 0 3 1.9 5.9
23 1 3 -2 4.6
23 -1 -3 2.4 7.8
23 1 -3 9.8 9
23 2 3 19.9 9.3
23 -2 -3 4.9 6.7
23 -2 3 11.1 7.6
23 2 -3 0.5 5.3
23 -3 -3 191.78 27.6
23 3 3 174.48 23.3
23 3 -3 185.68 25
23 -3 3 181.88 27
23 4 3 16.6 7.6
23 -4 -3 13.3 10.3
23 4 3 27.2 6.5
23 4 -3 14 6.3
23 4 -3 22 9.6
23 -4 3 28.9 12.8
-23 4 3 40.2 11.1
23 5 3 -12.7 6
23 -5 -3 3.1 7.6
-23 5 3 11.7 6
23 -5 3 -0.7 7.4
23 5 -3 0.1 5.8
24 0 3 -7.1 5.5
24 0 -3 5.3 6.6
24 -1 -3 215.68 29.7
24 1 3 201.98 29.1
24 1 -3 249.28 30.7
24 -1 3 222.08 30
24 2 3 30.6 11
24 -2 -3 30.7 12.2
24 -2 3 15.3 10.9
24 2 -3 19.9 10.9
24 3 3 -5.3 6.2
24 -3 -3 0.5 8.6
24 3 -3 0.2 6.7
24 -3 3 1 7
24 4 3 55.09 12
24 -4 -3 53.19 17.2
24 4 3 57.39 12
24 4 -3 49.99 13.3
24 -4 3 45.2 14.6
24 5 3 -10.5 6.2
24 5 3 14.1 5.2
24 -5 -3 3.2 8.2
24 5 -3 8.2 6.6
24 5 -3 -0.5 6.5
24 -5 3 14.5 9.6
25 0 -3 2.9 6.5
25 0 3 -9.7 6.2
25 -1 -3 75.69 18.6
25 1 3 101.59 21.3
25 1 -3 92.79 21.1
25 -1 3 109.09 23.3
25 -2 -3 46 15.5
25 2 -3 22.3 10
25 -2 3 26.7 12.2
25 -3 -3 -4.6 7.1
25 3 3 -4 6.4
25 3 -3 4.6 7.7
25 -3 3 1.3 7.3
25 -4 -3 15.6 11.5
25 4 3 4.3 5.9
25 4 3 6.6 5.6
25 -4 3 -0.4 6.2
25 4 -3 5.3 7.2
26 0 -3 3.7 8
26 0 3 -8.4 7.4
26 -1 -3 24.6 10.2
26 1 3 12.7 9.6
26 -1 3 13.9 10.2
26 1 -3 11.6 8.3
26 -2 -3 58.29 17.4
26 2 3 85.89 18.9
26 2 -3 33.1 14.6
26 -2 3 98.69 22.6
26 -3 -3 109.99 25.6
26 -3 3 109.69 24.2
26 3 -3 109.29 21.6
27 0 3 -2.5 8.7
27 0 -3 3.5 8.1
27 1 3 -0.5 8.8
27 -1 -3 -6.8 8.2
27 -1 3 -7.6 6.7
27 1 -3 13.1 10.3
27 -2 -3 0.9 8.4
27 2 3 2.3 8
27 -2 3 5.2 9
27 2 -3 -3.5 8.1
28 0 -3 1.6 7.6
28 0 3 2.1 8.8
0 0 -4 2.8 1.1
0 0 4 0.9 0.8
0 1 -4 1.3 1.7
0 -1 4 0.9 1.6
0 1 -4 -0.9 0.6
0 -2 -4 5206.28 347.67
0 2 -4 4211.38 353.26
0 -3 4 -0.6 1.1
0 3 -4 -0.5 1.3
0 -3 -4 0.3 0.6
0 3 -4 1.3 1.2
0 4 -4 929.11 74.69
0 -4 -4 1018.9 73.99
0 -4 4 1068.79 77.19
0 4 -4 1010.3 75.69
0 5 -4 0.7 1.5
0 -5 -4 0.4 0.6
0 -5 4 -2.6 1.4
0 6 -4 82.29 9.7
0 -6 -4 88.99 7.6
0 -6 4 89.69 10.8
0 -7 -4 2 1.7
0 7 -4 0.7 2.1
0 -7 4 3.3 3.3
0 8 -4 0.1 2.6
0 -8 -4 -0.6 2.2
0 -8 4 2.2 3
0 -9 4 -1.7 3.4
0 -9 -4 6.2 2.8
0 -10 -4 -1.5 2.6
0 -10 4 -1 3.8
-1 0 4 11.5 1.9
1 0 4 11.4 2.3
1 0 -4 8.6 1.6
-1 0 -4 9.4 2.2
-1 0 4 7.4 1.6
1 0 -4 8.6 1.6
-1 1 -4 6.9 2.8
-1 -1 4 15.4 2.6
-1 -1 4 17 3.3
1 1 -4 15.8 3
-1 -1 -4 14.2 1.7
1 1 -4 9.7 2.1
1 -1 4 10.2 3
-1 2 -4 0 1.7
-1 -2 4 -2.7 1.2
-1 -2 4 -0.1 1
-1 2 -4 0.5 0.9
1 2 -4 -0.7 1
1 -2 4 0.3 1.6
1 2 -4 0.6 1.4
1 -3 -4 156.88 12.7
-1 -3 4 205.58 14.8
-1 3 -4 181.58 14.3
-1 3 -4 145.09 14.8
-1 -3 4 201.88 15.8
1 3 -4 178.08 14.8
1 -3 4 162.88 15.6
-1 -3 -4 151.38 13.7
1 3 -4 159.78 14.7
-1 -4 4 22.9 5.2
-1 -4 4 33.9 4.2
1 -4 -4 23.2 2
-1 4 -4 21.7 3.5
-1 4 -4 18 3.6
1 4 -4 17.2 3.1
1 -4 4 19.6 5
-1 -4 -4 18.1 3.1
1 4 -4 21.4 4.3
1 4 -4 16.7 2.8
-1 5 -4 549.15 45.6
-1 -5 4 650.23 47.3
1 -5 4 612.94 47.8
1 5 -4 533.25 46
-1 -5 -4 598.94 44.4
1 -6 -4 131.99 11.7
-1 6 -4 126.99 12.9
-1 -6 4 152.18 14.3
1 -6 4 139.99 14.7
-1 -6 -4 143.89 11.3
1 6 -4 101.29 12.7
-1 -7 4 177.68 15.9
1 -7 -4 134.69 13.4
-1 7 -4 138.69 14.2
1 7 -4 137.89 14.6
-1 -7 -4 135.99 12.3
1 -7 4 153.58 16.2
1 -8 -4 0 2.7
-1 8 -4 0.4 2.5
-1 -8 4 0.1 3
1 8 -4 0.5 3.2
-1 -8 -4 0.9 1.6
1 -9 -4 85.59 10
-1 9 -4 82.59 10.7
-1 -9 4 103.99 12.2
1 -9 4 114.49 12.8
-1 -9 -4 77.09 8.8
1 9 -4 97.19 11.6
1 -10 -4 15.9 4.5
-1 10 -4 11.7 4.5
-1 -10 4 16.1 5.7
1 10 -4 20.3 4.9
1 -10 4 17.5 6.7
-1 -10 -4 12.8 3.5
2 0 -4 5.4 1.4
-2 0 4 6.8 1.6
2 0 -4 10.2 1.9
-2 0 -4 6.2 2.4
2 0 4 7.3 2.2
2 -1 -4 1741.73 131.39
-2 1 -4 1625.34 133.29
-2 -1 4 1818.62 132.09
2 1 -4 1784.92 132.29
2 -1 4 1679.73 133.29
-2 -1 -4 1919.91 131.99
2 1 -4 2000.1 132.29
-2 -2 4 9760.02 671.73
2 -2 -4 8385.26 666.33
-2 2 4 8861.71 664.33
-2 -2 -4 8223.18 662.63
2 2 -4 9999 672.03
-2 3 -4 482.85 34.1
-2 -3 4 511.65 35
-2 3 -4 394.96 35.3
2 3 -4 424.46 34.7
2 3 -4 441.46 35
-2 -3 -4 423.56 34.3
2 3 -4 447.26 34.9
2 -3 4 432.76 36.2
-2 4 -4 388.06 31.3
-2 4 -4 419.66 31
2 4 -4 379.76 30.2
2 4 -4 410.06 32.1
2 -4 4 380.36 33.1
2 4 -4 392.96 30.2
-2 -4 -4 396.46 30.9
-2 5 -4 193.98 16.4
-2 -5 4 230.98 17.2
2 -5 -4 186.98 15.6
2 -5 4 181.98 18.5
-2 -5 -4 177.88 15.8
2 5 -4 162.88 17
-2 -6 4 7.1 3.3
-2 6 -4 1.9 2.3
-2 -6 4 11.6 3.8
2 -6 -4 3.8 2.4
2 6 -4 4.6 3.4
2 -6 4 3.8 3.7
-2 -6 -4 5.9 2.1
2 -7 -4 201.88 17.3
-2 7 -4 153.08 16.4
-2 -7 4 222.18 18.5
2 7 -4 171.48 19.2
-2 -7 -4 158.28 14.6
-2 -7 -4 204.78 15.4
2 -7 4 181.48 19.1
-2 -8 4 3.8 3.3
-2 8 -4 -0.6 1.9
2 -8 -4 6.3 3
-2 -8 -4 3.3 1.7
2 -8 4 -4.5 3.8
2 8 -4 2.5 3.6
-2 9 -4 267.17 25.8
2 -9 -4 275.37 26.3
-2 -9 4 364.66 28
2 9 -4 301.07 27.7
-2 -9 -4 297.37 24.1
2 -9 4 325.17 29.1
-2 -10 4 63.69 10.1
-2 10 -4 57.89 7.9
2 -10 -4 67.29 8.7
2 10 -4 74.79 9.8
-2 -10 -4 59.49 7.1
2 -10 4 73.79 11.4
3 0 -4 251.77 20.2
3 0 4 259.47 21.2
-3 0 -4 248.98 21.4
-3 0 4 263.97 20.1
-3 1 -4 80.69 9.9
-3 -1 4 103.39 9
-3 -1 4 105.19 8.8
3 1 4 108.19 8.7
3 -1 4 87.39 10
-3 1 4 98.19 8.1
3 1 -4 107.79 8.7
-3 -1 -4 88.99 9.1
-3 2 -4 1210.58 98.29
3 -2 -4 1177.58 95.39
-3 -2 4 1366.96 97.19
3 -2 4 1242.58 98.59
3 2 -4 1272.87 97.39
-3 -2 -4 1452.45 96.09
-3 -2 -4 1262.37 97.19
3 2 -4 1450.95 97.19
-3 -3 4 66.59 7
-3 3 -4 63.89 8
3 3 -4 64.79 7.2
3 3 -4 59.59 6.8
3 -3 4 63.19 8.5
3 3 -4 66.69 7.4
-3 -3 -4 60.79 6.9
-3 -4 4 2375.06 153.58
-3 4 -4 1965.8 153.18
-3 4 -4 2179.48 152.18
3 -4 4 2073.49 155.48
3 4 -4 1988.6 153.68
3 4 -4 2004 151.88
3 4 -4 1901.11 151.68
-3 -4 -4 2070.39 152.88
-3 5 -4 66.09 7.4
3 -5 -4 67.69 7.9
-3 -5 4 93.19 9.3
-3 -5 4 84.69 8.6
3 5 -4 65.19 8.6
-3 -5 -4 71.49 7.8
3 -5 4 67.39 10
3 -6 -4 29.9 5.6
-3 -6 4 38.5 6
-3 -6 4 39.8 6.8
-3 6 -4 26.2 4.6
3 6 -4 25 6
3 -6 4 18.4 6.3
-3 -6 -4 27 4.6
-3 -6 -4 24.5 2.9
3 -7 -4 100.49 11.8
-3 -7 4 138.19 12.3
-3 7 -4 101.09 11
3 -7 4 84.79 13
3 7 -4 101.79 12.6
-3 -7 -4 117.99 10.5
-3 -7 -4 110.89 9.3
-3 8 -4 1 2.1
3 -8 -4 -1 3
-3 -8 4 -0.4 2.9
3 -8 4 3.2 4.6
-3 -8 -4 1 1.5
-3 -8 -4 0.7 1.6
3 8 -4 -1.8 2.7
-3 -9 4 179.08 16.5
-3 9 -4 142.19 14.4
3 -9 -4 129.29 15.6
-3 -9 -4 160.18 12.9
3 9 -4 124.99 16
3 -9 4 144.69 17.5
-3 -10 4 69.09 10.2
-3 10 -4 62.79 7
3 -10 -4 59.89 9.2
3 -10 4 71.39 12.7
3 10 -4 55.79 10.2
-3 -10 -4 51.19 6.3
-4 0 4 205.48 15.9
-4 0 -4 194.38 17.4
4 0 4 199.28 17.2
4 0 -4 176.68 15.8
4 1 4 345.17 26
-4 1 -4 325.97 27.6
-4 -1 4 318.87 25.9
4 1 -4 333.27 25.4
-4 1 4 336.87 25.2
4 -1 4 317.77 27.5
-4 -1 -4 321.07 26.6
4 1 -4 321.17 26.2
-4 -2 4 242.78 19.8
-4 2 -4 230.48 21.1
4 -2 -4 218.88 18.2
4 2 -4 251.27 20.8
-4 -2 -4 239.98 20.1
-4 -2 -4 235.58 19.3
4 -2 4 212.48 21
-4 2 4 245.68 18
4 2 -4 231.48 20
4 2 -4 260.77 19.4
-4 3 -4 733.83 59.59
-4 -3 4 851.31 58.79
-4 -3 -4 775.22 56.99
-4 -3 -4 712.73 58.49
4 3 -4 739.83 58.89
4 3 -4 767.42 57.99
4 3 -4 776.82 58.89
4 -3 4 759.82 60.49
-4 4 -4 473.85 41.3
-4 4 -4 534.85 39.8
4 -4 -4 541.95 41.2
-4 -4 4 576.84 41.5
4 4 -4 525.45 41.9
-4 -4 -4 548.65 38.3
-4 -4 -4 538.55 41.3
4 4 -4 476.75 39.7
4 -4 4 521.55 43.5
-4 -4 -4 504.85 38.8
4 4 -4 508.45 40
-4 5 -4 183.38 15.2
4 -5 -4 174.88 16.5
-4 -5 4 204.58 17.1
-4 5 -4 184.28 15
-4 -5 -4 173.68 14.1
-4 -5 -4 182.78 16.2
4 5 -4 155.48 16.8
4 -5 4 168.38 18.5
-4 -6 4 11.5 4.1
-4 -6 4 7.8 3.5
4 -6 -4 12 3.7
-4 6 -4 8 2.7
4 6 -4 3.1 5.2
-4 -6 -4 10.7 3.1
4 -6 4 10.4 4.9
-4 -6 -4 9.5 2.3
-4 -6 -4 9.4 1.9
-4 7 -4 -0.5 1.8
4 -7 -4 0 2.9
-4 -7 4 -3.3 2.1
-4 -7 4 -3 2.4
-4 -7 -4 -2.4 1.8
4 -7 4 -0.6 2.9
-4 -7 -4 -0.1 1.1
4 7 -4 -2 2.4
-4 -8 4 -0.4 3
-4 8 -4 -0.7 1.9
4 -8 -4 -2.9 3.1
4 -8 4 2 5.1
-4 -8 -4 -0.3 2
4 8 -4 -1.1 3.2
-4 -8 -4 -0.3 1.3
-4 -9 4 41.4 7.6
-4 9 -4 27.8 5.3
4 -9 -4 28.3 7.4
4 -9 4 42.1 10
4 9 -4 30.8 7.3
-4 -9 -4 25.7 4
-4 -10 4 11.2 5.7
4 -10 -4 29 6.6
4 -10 4 22.7 7.7
4 10 -4 18.3 5.8
-5 0 -4 5603.64 446.56
5 0 4 6308.57 448.86
-5 0 4 6055.89 445.16
5 0 -4 5493.85 444.66
5 1 4 250.67 20.5
-5 1 -4 254.97 22.1
5 -1 -4 258.27 21.5
5 -1 -4 246.78 19.7
-5 -1 4 231.98 20.2
5 1 -4 231.58 19.4
5 -1 4 235.68 21.8
-5 -1 -4 252.57 21.2
-5 1 4 239.48 19.4
5 1 -4 254.97 21.7
5 -2 -4 427.46 34.2
-5 2 -4 438.36 37.3
-5 -2 4 471.45 35.9
-5 -2 4 463.85 34.9
5 -2 -4 492.05 36.7
-5 2 4 443.76 33.9
5 -2 4 458.15 37.7
5 2 -4 456.45 36.7
-5 -2 -4 447.26 36.1
-5 -2 -4 424.96 35.5
-5 -3 4 483.45 37
-5 3 -4 436.86 38
5 -3 -4 458.35 37.2
-5 -3 -4 450.05 37
-5 -3 -4 436.36 35.9
5 3 -4 447.46 37.3
5 -3 4 458.45 39
-5 3 4 502.15 34
5 3 -4 486.75 36.1
5 3 -4 444.26 37.1
5 -4 -4 278.87 23
-5 4 -4 256.67 23
-5 -4 4 267.77 22.5
5 4 -4 246.88 22.9
5 -4 4 273.37 25
5 4 -4 263.07 21.5
5 4 -4 254.07 20.9
-5 -4 -4 249.08 20.9
-5 -4 -4 249.28 22.3
-5 -5 4 31.2 5.4
5 -5 -4 25.1 5.6
-5 -5 4 22.4 5.1
-5 5 -4 16.4 3.1
-5 5 -4 18.5 4.1
-5 -5 -4 15.3 3.3
-5 -5 -4 23.4 4.9
5 5 -4 8.6 3.8
5 -5 4 16.7 5.8
5 -6 -4 565.34 45.3
-5 6 -4 536.55 42.3
-5 -6 4 650.73 44.8
-5 -6 -4 535.75 43.6
5 -6 4 540.05 47.2
-5 -6 -4 543.55 42.5
-5 -6 -4 512.15 40.7
5 6 -4 523.25 45.1
-5 7 -4 9.6 3.2
-5 -7 4 11.2 4.6
5 -7 -4 9.5 4.8
-5 -7 4 16.6 4.6
5 -7 4 11.1 6.4
-5 -7 -4 14.2 3.7
-5 -7 -4 10.9 2
5 7 -4 10.1 3.9
-5 -7 -4 9 3.8
5 -8 -4 -2.3 3.4
-5 -8 4 -1.1 3.2
-5 8 -4 -0.4 1.9
-5 -8 -4 1.2 1.3
5 8 -4 -0.6 3.1
5 -8 4 -3.8 3.2
-5 -8 -4 -0.2 1.9
-5 9 -4 1.5 2.4
-5 -9 4 7.2 4.3
5 -9 -4 3.1 4.7
5 -9 4 9.2 5.2
5 9 -4 8 4.7
-5 -9 -4 6.7 4.2
-5 -10 4 315.17 26.2
5 -10 -4 247.18 29.3
5 -10 4 303.17 29.6
5 10 -4 263.97 27.2
-6 0 -4 3304.77 249.97
6 0 4 3354.36 249.58
-6 0 4 3315.87 247.78
6 0 -4 3539.05 249.97
6 1 4 11.9 3.3
-6 1 -4 13.8 4.3
6 -1 -4 9.5 3.3
-6 -1 4 11.4 2.8
6 -1 -4 9.8 2.7
-6 -1 -4 11.4 3.9
-6 1 4 9.5 2.5
6 1 -4 10.5 3.7
6 1 -4 10.4 2.8
6 -1 4 10.6 3.8
6 -2 -4 78.19 9.3
6 2 4 83.99 7.7
-6 2 -4 76.39 9.9
-6 -2 4 88.79 9.1
6 -2 -4 82.19 7.7
6 2 -4 75.59 9.3
-6 -2 -4 74.49 8.9
6 2 -4 64.29 8.5
6 -2 4 69.69 9.9
6 2 -4 90.79 7.9
-6 -2 -4 91.09 9.4
-6 2 4 78.49 7.4
-6 3 -4 15.1 5
6 -3 -4 14.8 4.3
-6 -3 4 22.7 4.9
-6 -3 4 22 4.1
6 3 -4 21.9 3.4
-6 -3 -4 15.8 4
6 3 -4 14.2 4.2
6 -3 4 20 5.8
-6 -3 -4 15.9 4.2
-6 3 4 17.6 2.3
6 3 -4 19.4 5
6 -4 -4 3.1 2.2
-6 -4 4 -0.2 2.2
-6 -4 4 3.4 2.4
-6 4 -4 1.1 2.6
6 4 -4 2.6 1.7
6 4 -4 1.3 2.4
6 -4 4 -2.1 2.3
-6 -4 -4 4.5 2.1
-6 -4 -4 5.5 2.2
6 4 -4 5.7 2.4
-6 -5 4 124.99 12.3
-6 5 -4 95.79 11.1
-6 -5 4 128.09 11.6
6 -5 -4 99.29 12.2
-6 5 -4 111.19 9.9
6 -5 4 99.89 13.8
-6 -5 -4 111.99 12
-6 -5 -4 107.49 11
6 5 -4 111.79 20.6
6 -6 -4 295.57 28.2
-6 6 -4 300.97 25
-6 -6 4 359.86 27.9
-6 -6 -4 336.87 28.1
-6 -6 -4 305.37 26.1
6 6 -4 273.57 27.8
6 -6 4 327.67 30.8
-6 -7 4 2.9 2.8
6 -7 -4 3.4 3.3
-6 7 -4 0.8 1.8
-6 -7 4 3.3 3
6 -7 4 -3.5 3
-6 -7 -4 -1.3 2.4
6 7 -4 -2.9 2.4
-6 -7 -4 1 2.3
-6 8 -4 -1 1.9
6 -8 -4 1.9 4.1
-6 -8 4 1.8 3
-6 -8 4 -6.3 2.8
6 -8 4 5.7 5.6
6 8 -4 6.7 4.3
-6 -8 -4 -0.3 2.5
-6 9 -4 33.1 5.2
-6 -9 4 41.8 7.3
6 -9 -4 39.6 9.4
-6 -9 -4 32.4 6
6 -9 4 25.7 8.8
6 9 -4 27.2 8
6 -10 -4 26.8 7.5
6 10 -4 13.6 6.2
6 -10 4 33.2 9.8
7 0 -4 783.42 62.99
7 0 -4 769.92 61.19
-7 0 -4 781.72 63.29
-7 0 4 801.52 61.09
7 0 4 866.01 63.29
-7 -1 4 94.39 10.1
-7 1 -4 100.19 12
7 -1 -4 109.39 11.8
7 1 4 103.49 10.8
7 -1 -4 89.19 9.6
7 1 -4 103.89 11.6
7 -1 4 92.59 11.5
-7 -1 -4 91.29 11.1
-7 1 4 107.29 9.7
7 -2 -4 1075.89 82.59
7 2 4 1070.59 80.19
-7 -2 4 1100.89 81.39
-7 2 -4 1047.2 83.19
7 -2 -4 1035 79.79
7 2 -4 1179.98 79.79
-7 2 4 1058.19 79.49
7 2 -4 1059.79 82.39
-7 -2 -4 1066.59 81.79
-7 -2 -4 1056.39 81.99
7 -2 4 966.6 82.99
-7 -3 4 112.29 12.2
7 -3 -4 102.39 12.5
-7 3 -4 107.09 13
-7 -3 -4 110.49 11.9
7 3 -4 124.59 10.6
-7 -3 -4 116.49 12.3
7 3 -4 116.09 12.4
-7 3 4 110.79 9.7
7 -3 4 118.19 13.9
7 3 -4 117.69 12.5
7 -4 -4 5.8 3.4
-7 4 -4 4.8 3.6
-7 -4 4 7.2 2.6
-7 -4 4 4.2 3
-7 -4 -4 2 2.2
7 -4 4 1.5 2.9
7 4 -4 1.6 2.6
-7 -4 -4 5.9 2.9
-7 4 4 7.6 1.1
7 4 -4 7.4 2.3
7 4 -4 5.9 2.8
-7 5 -4 44.2 5
-7 5 -4 45.3 7.9
7 -5 -4 46.2 8.8
-7 -5 4 51.59 6.3
-7 -5 4 44.8 7.9
7 -5 4 25.8 8.2
-7 -5 -4 50.09 6.8
-7 -5 -4 46 7.7
7 5 -4 34.2 7.8
-7 6 -4 27.2 4.5
-7 -6 4 34.6 7.2
-7 -6 4 25.9 5.5
7 -6 -4 33.8 7.9
-7 -6 -4 28 6.3
7 6 -4 18 6
7 -6 4 24.8 9.9
-7 -6 -4 22.6 5.5
7 -7 -4 59.49 11.2
-7 -7 4 75.49 8.9
-7 -7 4 52.29 7.4
-7 7 -4 49.99 6.1
-7 -7 -4 55.59 8.9
7 -7 4 40.8 10.6
-7 -7 -4 47.8 7.9
7 7 -4 36.5 9.1
-7 8 -4 50.29 6.4
-7 -8 4 46.7 8.9
-7 -8 4 53.39 7.8
7 -8 -4 42.3 10.4
-7 -8 -4 58.69 7.8
7 -8 4 64.39 13.4
7 8 -4 41.1 9.5
-7 9 -4 -1.8 1.7
-7 -9 4 -1 2.6
7 -9 -4 3.1 4.2
-7 -9 -4 -1.4 3
7 -9 4 7.3 5.2
7 9 -4 1 4.1
-8 0 -4 633.74 52.19
8 0 -4 651.23 52.09
8 0 -4 609.84 49.9
8 0 4 634.34 51.79
-8 0 4 667.53 49.9
-8 1 -4 23.2 6.2
8 1 4 16.5 4.5
-8 -1 4 19.4 4.4
8 -1 -4 11.8 3.4
8 -1 -4 20.6 5.6
8 1 -4 15.1 4.1
8 -1 4 16.9 5.3
-8 -1 -4 10.8 3.8
-8 1 4 16.1 3.7
8 1 -4 14.9 4.8
-8 -1 -4 17.7 5.1
8 -2 -4 19.2 5.4
-8 -2 4 15.2 4.1
-8 2 -4 18 5.5
8 -2 -4 16.4 3.4
8 2 4 17.3 4.2
8 2 -4 19.8 3.1
8 2 -4 19.4 5.1
-8 -2 -4 28.3 6.3
8 2 -4 16.1 5
8 -2 4 18.4 5.6
-8 -2 -4 18.4 4.6
-8 2 4 16.4 3.4
8 3 4 0.3 0.8
8 3 4 1.8 0.7
8 -3 -4 -1.6 1.7
-8 3 -4 -0.5 2.4
-8 -3 4 0.2 1.9
-8 -3 -4 -1.1 1.9
-8 -3 -4 0.4 1.7
-8 3 4 0.5 0.9
8 3 -4 2 1.5
8 3 -4 -0.8 1.8
8 -3 4 -1.4 1.4
8 -4 -4 21.1 5.8
-8 -4 4 30 6.5
-8 4 -4 24.6 6.5
8 4 -4 18.7 4.8
8 4 -4 24.8 6.4
-8 -4 -4 29.7 6
8 -4 4 21.4 6.8
-8 -4 -4 25.4 6
8 4 -4 22.1 4.1
-8 4 4 29 3
-8 -5 4 64.69 10.3
8 -5 -4 64.49 10
-8 5 -4 76.99 9.6
-8 -5 -4 61.49 10
-8 -5 -4 56.99 8.6
8 5 -4 62.09 10.8
8 -5 4 60.19 12.7
-8 -6 4 351.06 28.8
-8 -6 4 307.57 26.4
-8 6 -4 311.67 25.1
8 -6 -4 328.17 30.3
8 6 -4 281.97 28.8
8 -6 4 307.77 31.6
-8 -6 -4 324.67 28
-8 -6 -4 306.77 28
-8 -7 4 27.9 6.7
-8 -7 4 33.2 7.1
8 -7 -4 40.6 9.4
-8 7 -4 30.3 5
-8 -7 -4 30 7.2
-8 -7 -4 44.6 7.9
8 -7 4 27.4 9.6
8 7 -4 37.8 8.8
-8 -8 4 16 6.3
8 -8 -4 8.8 5.1
-8 8 -4 18.9 3.9
8 8 -4 4.3 3.6
-8 -8 -4 16.3 4.4
8 -8 4 25.7 9.4
-8 -9 4 97.79 13
-8 9 -4 90.69 9.1
8 -9 -4 108.29 15.6
8 9 -4 117.39 15.2
8 -9 4 90.59 17.5
-8 -9 -4 106.89 11.6
9 0 -4 103.09 11.2
-9 0 4 98.99 12.6
-9 0 -4 104.59 13
9 0 -4 105.29 12.8
9 0 4 101.09 12.5
-9 0 4 112.19 11.1
-9 -1 4 50.49 7.3
-9 -1 4 58.59 8.9
9 -1 -4 49.6 6.9
-9 1 -4 53.89 10.2
9 1 4 54.89 8.3
9 -1 -4 64.29 9.2
9 1 -4 52.59 7.6
9 1 -4 60.79 8.9
-9 -1 -4 73.49 8.7
-9 -1 -4 48.2 9.5
-9 1 4 50.49 6.7
9 -1 4 49.99 9.8
-9 -2 4 245.38 20.9
9 -2 -4 207.78 19.1
-9 2 -4 201.38 22
9 -2 -4 238.28 22.5
9 2 4 228.98 20.2
9 2 -4 228.88 21.8
-9 -2 -4 221.88 21.7
-9 2 4 210.28 18.8
9 2 -4 209.78 18.4
-9 -2 -4 225.18 21.1
9 -2 4 239.58 23
9 3 4 201.68 16.2
9 3 4 215.88 17.3
-9 -3 4 222.08 20.1
-9 3 -4 197.28 21.1
9 -3 -4 205.78 21.3
-9 3 4 199.38 17.4
9 3 -4 200.18 21.9
-9 -3 -4 191.48 19.9
-9 -3 -4 202.48 20.3
9 3 -4 202.08 20.3
9 -3 4 208.48 22
9 3 -4 239.58 17.8
-9 -4 4 67.59 10
-9 4 -4 48 9.5
9 -4 -4 44.4 9.6
9 4 -4 34.9 8
-9 -4 -4 47.1 7.6
9 4 -4 49.4 7.4
-9 -4 -4 43.2 8.6
9 4 -4 49.99 5.9
9 -4 4 33.2 9.2
-9 4 4 52.49 5.2
-9 -5 4 201.48 18.5
-9 5 -4 186.88 18.3
9 -5 -4 174.88 19.6
-9 -5 -4 177.98 18
9 5 -4 183.88 18.7
9 5 -4 152.58 13.9
-9 -5 -4 186.58 17.9
9 -5 4 171.78 20.6
9 5 -4 161.18 14.4
-9 6 -4 -1 2.3
9 -6 -4 1.5 4.1
-9 6 -4 0.4 1.3
-9 -6 4 1.1 2.9
9 -6 4 0.1 3.7
9 6 -4 -3.5 2.9
-9 -6 -4 0.6 3
-9 -6 -4 0.3 3.2
-9 7 -4 434.36 36.1
-9 -7 4 494.15 40.3
9 -7 4 482.55 44.6
-9 -7 -4 503.95 40.3
9 7 -4 421.76 40.8
-9 -7 -4 458.25 39.4
-9 8 -4 7.5 2.9
9 -8 -4 6.8 6
-9 -8 4 11 5.5
9 8 -4 8.9 4.4
-9 -8 -4 14.6 4.6
9 -8 4 19.7 8.4
-9 9 -4 49.6 5.5
-9 9 -4 52.19 5.6
9 -9 -4 44.6 11.6
9 9 -4 43.9 10.4
9 -9 4 40.6 12.7
-9 -9 -4 63.89 8.2
10 0 -4 219.18 22.1
-10 0 4 196.08 19.4
-10 0 4 271.07 25.7
10 0 4 207.38 21.7
10 0 -4 216.48 20.1
-10 0 -4 216.18 22.7
10 1 4 180.68 19.8
10 -1 -4 200.78 18.8
10 -1 -4 190.38 20.8
-10 1 -4 198.08 21.3
-10 -1 4 219.68 21.5
10 1 -4 205.48 21
-10 -1 -4 222.58 22.3
10 1 -4 198.38 19.4
10 -1 4 227.38 22
-10 1 4 214.98 18.6
10 -2 -4 244.68 24.3
10 2 4 247.28 22.3
-10 -2 4 254.17 22.6
-10 2 -4 223.98 24.1
-10 -2 4 298.47 25.3
10 2 -4 253.37 22.8
10 2 -4 231.98 23.6
-10 2 4 239.78 20.8
-10 -2 -4 262.87 24.5
10 2 -4 215.18 20
10 -2 4 228.88 24.3
-10 -2 -4 238.18 22.8
10 -3 -4 187.58 20.1
-10 3 -4 175.78 19.8
10 3 4 176.18 16.2
-10 -3 4 213.78 19.1
10 3 -4 170.58 18.8
10 3 -4 199.08 16.1
10 -3 4 171.68 20.4
-10 -3 -4 206.48 19.4
-10 -3 -4 166.78 19
10 3 -4 176.68 18.6
-10 3 4 186.88 16.2
10 -4 -4 404.06 38.5
-10 4 -4 497.55 42.2
-10 -4 4 445.86 37
10 4 -4 410.26 37.1
-10 -4 -4 429.76 37.2
10 4 -4 447.36 33.9
10 4 -4 403.06 36.2
-10 4 4 423.56 33.3
10 -4 4 411.36 39.6
-10 -5 4 445.86 35.5
-10 5 -4 429.96 35.7
10 -5 -4 384.16 36.8
10 5 -4 394.36 35.7
-10 -5 -4 412.16 35.2
-10 5 4 406.76 29.8
10 5 -4 383.16 31.6
10 5 -4 345.27 30.5
10 -5 4 409.66 38.3
-10 -5 -4 392.06 35.4
-10 6 -4 10.6 4.2
-10 -6 4 15.9 5.6
-10 6 -4 11 2.8
10 -6 -4 9.2 6.6
10 6 -4 5.1 4
-10 -6 -4 9.7 4.4
10 -6 4 2.8 4.9
-10 -6 -4 9.3 5.2
-10 -7 4 340.07 29.1
10 -7 -4 282.77 31
-10 7 -4 283.37 24.4
-10 -7 -4 315.97 29.1
10 7 -4 301.47 29.8
-10 -7 -4 294.57 27.9
10 -7 4 319.97 33.2
10 -8 -4 18.1 7
-10 8 -4 14.1 3.4
-10 -8 4 26 5.1
10 -8 4 7.1 8
10 8 -4 7.5 4.8
-10 -8 -4 0 4.4
10 -9 -4 29.1 9.7
-10 9 -4 25.3 3.8
-10 9 -4 30.4 3.7
10 9 -4 23.4 8.1
10 -9 4 50.79 13.4
11 0 4 1475.75 116.39
11 0 -4 1497.15 116.79
11 0 -4 1447.56 113.99
-11 0 -4 1461.75 116.89
-11 0 -4 1534.95 114.89
-11 0 4 1663.83 117.49
-11 0 4 1428.06 115.49
-11 -1 4 482.05 39.7
-11 -1 4 426.16 36.5
-11 1 -4 444.36 39.5
11 -1 -4 416.66 38.8
11 -1 -4 434.96 36.3
11 1 4 381.86 37.5
-11 -1 -4 445.16 37.5
11 1 -4 429.76 37
-11 1 4 510.65 39.9
11 -1 4 414.16 38.9
-11 -1 -4 449.86 39.3
-11 1 4 423.36 35.7
11 1 -4 435.26 38.9
11 -2 -4 26.5 7.6
-11 2 -4 35.4 8.9
-11 -2 4 43.3 8.2
11 2 4 34.7 7.2
-11 -2 4 52.59 10.5
-11 -2 -4 34.1 7.7
-11 -2 -4 29.2 8.1
11 2 -4 34.8 8.5
-11 2 4 38.7 6.5
11 2 -4 33.9 7.4
11 -2 4 22.7 7.1
-11 -3 4 70.49 9.5
-11 3 -4 65.39 12.2
11 -3 -4 46.3 10.6
11 3 4 58.69 7.5
11 3 -4 60.09 6.8
-11 3 4 55.39 7
11 -3 4 50.29 11.1
-11 -3 -4 64.19 9.9
11 3 -4 53.19 9.7
11 3 -4 60.29 9.7
-11 -3 -4 54.79 10.1
11 -4 -4 389.56 37.7
-11 -4 4 426.36 35.7
-11 4 -4 384.46 36.4
11 4 -4 379.76 35.5
-11 -4 -4 379.46 35.3
11 4 -4 448.66 32.2
11 -4 4 379.26 37.8
-11 -4 -4 394.66 36.1
-11 4 4 403.26 31.9
11 4 -4 393.06 34.8
11 -5 -4 209.48 22.7
-11 -5 4 225.18 20.9
11 5 -4 172.18 16
-11 -5 -4 191.58 20.5
11 -5 4 163.68 22.3
11 5 -4 184.38 17.4
-11 -5 -4 178.28 19.8
11 5 -4 210.18 21.2
-11 5 4 204.08 15.6
-11 6 -4 14.5 5.4
11 -6 -4 17.5 6.6
-11 -6 4 5.7 5.3
-11 -6 -4 14.1 5.2
11 -6 4 6.5 5.8
11 6 -4 2.6 4.4
-11 -6 -4 8.2 5.8
-11 7 -4 -3.4 1.2
-11 -7 4 5.7 4.2
11 -7 -4 5.4 5.9
11 7 -4 -0.5 3.4
11 -7 4 0.7 4.4
-11 -7 -4 0.7 4.3
-11 -7 -4 10.5 5
11 -8 -4 10.8 6.8
-11 8 -4 12.4 3.1
-11 -8 -4 15.7 4.5
11 8 -4 15.9 6.2
11 -8 4 10.2 6.7
-11 9 -4 62.49 6.1
-11 9 -4 71.09 6.1
11 -9 -4 71.79 15.3
11 9 -4 48 12.1
11 -9 4 73.99 16.7
-11 -9 -4 97.39 10.7
-12 0 4 754.42 58.89
12 0 4 667.33 57.79
-12 0 -4 696.93 56.19
12 0 -4 647.84 55.39
-12 0 4 718.63 55.39
-12 0 -4 687.33 58.59
12 0 -4 662.13 57.99
12 -1 -4 16.1 5.1
12 1 4 12.6 5.3
-12 1 -4 10.3 4.2
-12 1 -4 26.3 7.5
12 -1 -4 11.7 5.5
-12 -1 4 19.9 6.7
-12 -1 4 20 5.5
-12 1 4 20 5.5
12 1 -4 16.6 5.9
-12 1 4 18.2 6.2
12 1 -4 11.2 4.5
-12 -1 -4 10.7 5.1
-12 -1 -4 20.6 5.5
-12 2 -4 -0.7 3.7
-12 -2 4 -1.8 2.8
12 2 4 -0.4 2.2
-12 -2 4 -1.3 2.2
-12 2 4 -1.1 1.6
-12 -2 -4 -3.3 2.2
12 2 -4 -2 1.9
12 -2 4 -2.5 1.8
12 2 -4 -0.1 3.2
-12 -2 -4 2.2 2.8
-12 -3 4 135.79 16.5
-12 -3 4 142.59 14.8
12 3 4 114.89 12.8
-12 3 -4 128.09 16.1
12 -3 -4 112.69 15.7
-12 -3 -4 126.99 14.9
12 3 -4 115.09 11.6
-12 3 4 114.79 12
12 3 -4 126.89 14.6
-12 -3 -4 111.99 14.8
12 3 -4 105.69 14.5
12 -3 4 128.69 16.9
-12 -4 4 17.7 6.1
12 4 4 13.6 2.4
12 4 4 17.1 2.2
12 -4 -4 13.7 5.9
-12 4 -4 10.3 5.8
12 4 -4 12.2 5.3
-12 -4 -4 14.5 5.7
12 4 -4 19.9 4.1
-12 -4 -4 5.8 4.2
12 4 -4 12.1 5
-12 4 4 9.2 3.3
12 -4 4 10.4 6.4
12 -5 -4 378.66 37.4
-12 -5 4 446.76 35.8
-12 5 -4 432.06 36.4
12 5 -4 334.17 30.2
12 5 -4 383.26 32.3
12 -5 4 412.06 38.9
-12 -5 -4 412.56 36.4
12 5 -4 339.97 35
-12 -5 -4 348.47 34.4
-12 5 4 401.46 30.3
-12 6 -4 15.4 5
12 -6 -4 12.2 7.2
-12 -6 4 11.2 5.2
12 -6 4 22.5 9
-12 -6 -4 15.7 6.5
-12 -6 -4 13.3 5.9
12 6 -4 8.2 4.8
-12 -7 4 5.3 5
12 -7 -4 -1.8 4.1
-12 -7 -4 4.3 5.3
12 -7 4 -1.5 5.4
-12 -7 -4 7.8 3.6
-12 8 -4 58.19 7.2
12 -8 -4 80.69 16.2
-12 8 -4 68.69 8.4
-12 -8 -4 83.99 13.1
-12 -8 -4 70.79 12.1
12 -8 4 63.09 16.4
12 8 -4 53.09 12.3
12 -9 -4 1.5 6.3
12 -9 4 6.1 7
12 9 -4 1.1 4.9
-13 0 4 1869.01 130.49
13 0 4 1580.44 128.89
13 0 -4 1560.44 126.19
-13 0 -4 1621.54 126.89
-13 0 -4 1754.72 130.49
13 0 -4 1560.94 128.99
-13 0 4 1666.73 126.09
-13 1 -4 132.99 17.8
-13 1 -4 148.79 16
-13 -1 4 173.68 19
13 1 4 140.69 17
13 -1 -4 131.09 15.1
-13 -1 4 136.49 15.4
13 -1 -4 137.79 17.9
-13 1 4 165.18 15.6
-13 -1 -4 158.18 18.4
13 1 -4 131.69 17.4
13 -1 4 133.99 17.7
-13 1 4 175.78 19
13 1 -4 127.39 15.6
-13 -1 -4 135.09 16
13 2 4 23.4 7.3
-13 -2 4 32.2 9.1
-13 -2 4 31.1 7.4
-13 2 -4 22.4 7.9
13 -2 -4 20.1 7.4
13 2 -4 31.4 8.4
-13 -2 -4 30.5 7.5
13 -2 4 19.3 7.6
-13 -2 -4 22.8 7.9
13 2 -4 20.4 6.1
13 3 4 76.19 10.1
13 -3 -4 67.19 13.7
-13 -3 4 94.39 16.3
-13 3 -4 79.59 12.6
-13 -3 4 71.89 12
13 3 -4 76.99 12.1
13 3 -4 70.89 12.2
13 -3 4 80.49 15.6
-13 -3 -4 69.39 13.7
13 3 -4 85.09 8.8
-13 3 4 75.99 9.4
-13 -3 -4 70.09 12.6
13 -4 -4 202.08 23.7
-13 -4 4 227.78 21.9
-13 4 -4 191.78 22.3
13 4 4 195.08 16.7
13 4 -4 178.28 21.1
-13 -4 -4 214.08 22
-13 -4 -4 189.38 21.8
13 -4 4 183.48 23.4
13 4 -4 209.38 21.2
-13 4 4 201.48 18
-13 -5 4 667.23 57.29
13 -5 -4 619.94 56.49
-13 5 -4 688.23 54.89
13 5 -4 592.94 48.4
13 5 -4 624.04 54.19
-13 -5 -4 687.03 55.59
-13 -5 -4 576.44 53.09
-13 5 4 667.13 48.7
13 5 -4 613.54 50.79
13 -5 4 590.74 56.59
-13 -6 4 122.19 15.8
13 -6 -4 121.69 17.9
-13 6 4 121.59 9.6
-13 -6 -4 128.29 17.9
13 -6 4 120.99 18.3
-13 -6 -4 122.39 16.7
13 6 -4 87.79 16.3
-13 7 -4 19 4.9
-13 7 -4 15.1 3.5
13 -7 -4 11.7 8.1
-13 -7 -4 14 7.5
-13 -7 -4 17.8 6.8
13 7 -4 18.3 8.1
13 -7 4 7.8 8.2
13 -8 -4 -2.2 5
-13 8 -4 1.8 2.1
-13 8 -4 -2.2 3.3
-13 -8 -4 5.8 7
13 8 -4 4.4 5.5
13 -8 4 -0.8 6.6
13 -9 -4 12.8 8.8
13 9 -4 -0.9 5.5
14 0 4 1779.22 145.19
14 0 -4 1806.02 142.49
14 0 -4 1802.32 145.59
-14 0 -4 1875.11 146.39
-14 0 4 2029.4 146.59
-14 0 -4 1891.11 143.19
-14 0 4 1930.91 142.29
-14 -1 4 2.9 3.8
14 -1 -4 4.4 3.4
-14 1 -4 -0.4 3.3
-14 -1 4 0.4 2.9
-14 1 -4 -1.7 2
14 1 4 6 4
14 -1 -4 1.1 2.9
14 1 -4 2 3
-14 -1 -4 1.2 3
-14 -1 -4 1.1 3.3
-14 1 4 1.3 2.7
14 1 -4 1.4 3.3
-14 1 4 -0.8 3.7
14 -1 4 1.1 3.6
-14 2 -4 307.17 28
14 2 4 298.97 28.8
-14 2 -4 284.47 30.6
-14 -2 4 304.97 28.3
-14 -2 4 302.47 30.7
14 -2 -4 288.77 30.8
14 -2 4 286.37 30.7
-14 2 4 283.07 26.3
14 2 -4 299.67 30.1
-14 -2 -4 322.07 29.3
14 2 -4 318.77 28.9
-14 -2 -4 282.57 30.2
-14 3 -4 71.19 11.3
14 3 4 62.89 9.9
-14 -3 4 55.59 10.8
14 -3 -4 71.79 14.8
-14 -3 4 76.79 14.6
-14 3 -4 80.29 15.1
-14 3 4 68.79 12
14 -3 4 70.49 15.4
14 3 -4 57.79 11.5
-14 -3 -4 64.49 13.2
14 3 -4 63.19 7.8
-14 -3 -4 73.69 12.8
14 3 -4 53.99 11.8
-14 -4 4 272.67 26.7
14 4 4 267.87 20.9
14 -4 -4 275.07 29.6
14 4 4 263.57 22.4
-14 4 -4 294.97 28.8
14 4 -4 250.57 26.4
14 -4 4 245.18 29.1
-14 4 4 265.07 23.2
-14 -4 -4 252.57 27.7
14 4 -4 296.77 22.7
14 4 -4 227.08 26.1
-14 -4 -4 233.88 26.3
14 -5 -4 143.19 20
-14 -5 4 156.78 18
-14 5 -4 156.88 19.4
14 5 -4 128.29 15.7
-14 5 4 156.98 14.2
14 5 -4 142.29 13.7
14 -5 4 177.08 22.4
-14 -5 -4 167.88 20.2
14 5 -4 160.28 19.1
14 -6 -4 12.8 7.6
-14 6 -4 13.4 5.6
-14 6 -4 27.6 8.2
-14 -6 -4 23.1 6.6
-14 -6 -4 36.9 10.1
14 6 -4 16.6 6.7
-14 6 4 21.3 3.4
14 -6 4 10.5 8.1
-14 7 -4 113.39 13
-14 7 -4 116.99 14
14 -7 -4 129.09 19.8
14 -7 4 143.79 21
-14 -7 -4 148.09 19.1
14 7 -4 114.89 18.8
-14 8 -4 69.09 7.1
14 -8 -4 69.09 15.4
-14 8 -4 41 11
14 -8 4 53.59 15.6
-14 -8 -4 89.49 16.3
14 8 -4 41.8 12.4
15 0 -4 2.1 2.7
15 0 4 3.4 4.6
15 0 -4 2.2 3.3
-15 0 -4 5.9 4.5
-15 0 4 5 5.4
-15 0 -4 -0.9 3.4
-15 0 4 1 2.3
-15 -1 4 24.6 6.5
-15 1 -4 22.7 8.6
-15 1 -4 11.9 4.9
15 1 4 18.4 7
15 -1 -4 9.5 5.9
-15 -1 4 27 8.6
15 -1 4 14 6.9
15 1 -4 11.6 5.8
-15 -1 -4 17.3 6.3
-15 1 4 26.9 6.6
-15 -1 -4 20.2 7.8
15 1 -4 18.9 7.8
-15 1 4 23.5 8.5
-15 2 -4 458.35 43.9
15 -2 -4 430.06 43.5
-15 -2 4 468.15 40.9
15 2 4 490.95 42.3
-15 2 -4 463.95 40.5
-15 -2 4 538.75 45.3
-15 -2 -4 484.65 44.2
15 2 -4 447.56 41.1
-15 2 4 451.25 39
15 2 -4 392.86 41.8
-15 -2 -4 521.25 42.4
15 -2 4 449.95 44
-15 3 -4 -1.7 4.5
-15 -3 4 -1.7 4.7
15 3 4 -4 2.7
15 -3 -4 -2.6 2.2
-15 3 -4 -0.3 2.7
-15 -3 4 4 4
15 3 -4 -0.5 2.6
15 -3 4 -1.9 3.5
15 3 -4 -0.6 2.9
-15 -3 -4 1.2 3.9
-15 -3 -4 3.4 3.9
-15 3 4 1.8 2.4
15 3 -4 -1.9 1.8
-15 -4 4 360.26 33.4
15 4 4 350.76 29.7
-15 4 -4 339.77 35.3
15 -4 -4 346.07 36.5
-15 4 -4 341.47 32
15 4 4 357.56 27.7
15 4 -4 372.36 29.2
15 -4 4 346.87 37
15 4 -4 359.06 33.7
-15 -4 -4 369.76 36.1
15 4 -4 322.17 33.5
15 -5 -4 7.3 5.9
-15 5 -4 -2.1 3.5
-15 5 -4 -0.3 4.9
-15 -5 4 8.3 4.5
-15 -5 -4 -8 4
-15 -5 -4 0.4 4
15 5 -4 -0.5 3
15 5 -4 2.7 2.3
-15 5 4 2.2 2.4
15 5 -4 -1 3.1
15 -5 4 -0.9 5.5
-15 6 -4 0.4 4.1
-15 6 -4 5.4 6.3
15 -6 -4 3.3 5.8
-15 -6 -4 15.5 8.8
15 6 -4 13.5 7.1
-15 -6 -4 16.2 8.3
15 -6 4 5.5 7.2
-15 6 4 6.9 2.3
-15 7 -4 8.2 4.5
15 -7 -4 0.3 5.5
-15 -7 -4 -2.7 6.9
15 -7 4 6.5 6.6
15 7 -4 0.9 3.8
-15 8 -4 8.2 3
15 -8 -4 -8 5.9
15 8 -4 1.9 4.9
-15 -8 -4 19.7 10.4
16 0 -4 2 2.9
16 0 -4 -2.6 3
16 0 4 -5.3 3.1
-16 0 4 10.7 6.3
-16 0 4 3.6 3.5
-16 0 -4 -2.2 3.6
-16 0 -4 3.2 3.7
16 1 4 70.39 14.2
-16 -1 4 66.49 14.3
-16 1 -4 68.09 12.5
16 -1 -4 84.89 16.8
-16 -1 4 68.89 11.8
-16 1 -4 63.39 14.1
-16 -1 -4 70.39 13.1
16 1 -4 62.69 11.9
16 -1 4 55.49 13.4
-16 -1 -4 61.79 14.4
-16 1 4 72.89 15.2
-16 1 4 71.79 10.2
16 1 -4 80.69 15.8
-16 2 -4 23 7.1
-16 -2 4 13.8 7
-16 -2 4 15 5.8
16 -2 -4 10.4 6.3
16 2 4 15.3 6.3
-16 2 -4 10.6 7.1
16 2 -4 14.2 7.2
16 2 -4 12.6 5.7
-16 2 4 11.7 4.5
16 -2 4 14.9 7.5
-16 -2 -4 14.4 7.4
-16 -2 -4 23.3 7.4
-16 3 -4 87.09 13.9
-16 -3 4 90.69 12.6
16 -3 -4 91.99 17.5
-16 3 -4 101.09 16
-16 -3 4 77.49 19.2
-16 -3 -4 96.69 17.7
16 -3 4 71.79 16.4
16 3 -4 69.59 14.4
-16 3 4 98.29 11.5
16 3 -4 80.09 14.1
16 3 -4 79.59 9.7
-16 -4 4 177.18 20.1
16 -4 -4 188.28 23.9
-16 4 -4 183.78 22.4
-16 4 -4 172.18 19.2
16 4 4 159.88 14.5
16 4 4 167.28 16.9
-16 -4 -4 212.18 21.6
16 4 -4 181.38 16.1
-16 4 4 157.98 16.7
16 4 -4 169.88 20.1
16 4 -4 142.09 19
-16 -4 -4 156.38 21.8
16 -4 4 168.58 23.1
-16 5 -4 158.18 21.5
-16 5 -4 170.68 18.8
16 -5 -4 183.58 24.2
-16 -5 -4 156.88 24.4
16 5 -4 163.18 18.5
16 5 -4 175.98 21.1
16 -5 4 150.68 22.6
-16 5 4 186.68 17.2
-16 -5 -4 133.39 19.8
16 -6 -4 107.89 21.6
-16 6 -4 140.69 15.3
-16 6 -4 137.09 17.6
16 6 -4 99.89 9.4
16 6 -4 126.89 17.5
-16 -6 -4 148.99 19.4
16 -6 4 133.59 21
-16 6 4 117.89 11.3
-16 7 -4 3.1 4.7
16 -7 -4 9.8 7.3
-16 -7 -4 8.4 10.3
16 -7 4 5.1 7
-16 8 -4 12.2 3.6
16 -8 -4 7.8 9.2
-16 8 -4 11.4 5.3
16 8 -4 25.5 9.9
16 -8 4 29.1 11
17 0 -4 -1.8 2.9
-17 0 -4 0.9 6.1
17 0 4 3.2 5.2
-17 0 4 2.6 4.8
-17 0 4 -2.1 3.3
-17 0 -4 0 3.4
17 0 -4 -1.8 2
-17 -1 4 196.78 20.5
17 -1 -4 147.89 21.8
17 1 4 170.38 21.7
-17 1 -4 197.08 21
17 -1 4 159.38 22.5
17 1 -4 169.38 22.3
-17 1 4 186.58 19.5
-17 1 4 205.48 24
17 1 -4 206.78 21.4
-17 -1 -4 185.18 21
-17 2 -4 -4.5 3.1
17 2 4 2 4.7
-17 -2 4 -1.5 4.9
17 -2 -4 1.6 5.3
-17 -2 4 6.5 4.3
17 -2 4 1.8 5.1
-17 -2 -4 5.3 4.2
-17 2 4 5.3 3.2
17 2 -4 0 3.4
17 2 -4 2.4 3.9
-17 -3 4 169.48 22.2
17 -3 -4 128.39 20.2
-17 3 -4 130.69 17.4
17 3 4 162.78 18.4
-17 3 -4 143.39 23.2
17 3 -4 128.39 18.7
-17 -3 -4 152.68 21.8
-17 -3 -4 175.68 19.5
17 3 -4 150.18 14.9
-17 3 4 170.78 16.8
17 3 -4 136.29 18.1
17 -3 4 142.19 21.2
17 -4 -4 9.2 6.2
17 4 4 -1.8 1.6
-17 4 -4 -3.4 3.8
-17 4 -4 0.4 6
17 4 4 -3 2.4
17 4 -4 5.2 4.3
17 4 -4 0.5 4.3
17 4 -4 -0.2 2.5
-17 4 4 -0.6 2.9
-17 -4 -4 7.8 5.4
-17 -4 -4 12.4 5.8
17 -4 4 -3.7 3.3
-17 5 -4 11.5 6.4
-17 5 -4 15.6 8.7
17 -5 -4 11 7.6
17 -5 4 14.8 7.8
-17 -5 -4 16.1 8.1
17 5 -4 13.2 4.3
17 5 -4 13.9 6.7
17 5 -4 6.5 5.5
-17 5 4 13.6 4.7
-17 6 -4 -0.3 7.2
-17 6 -4 1 4.5
17 -6 -4 0.4 4.9
-17 6 4 -3.9 2.4
17 6 -4 3.7 2.5
17 6 -4 0.9 1.7
17 -6 4 -0.7 5.4
-17 -6 -4 -12.4 6.4
17 -7 -4 -2 6
-17 7 -4 -0.8 4.6
17 7 -4 -4 4.5
17 -7 4 -2.2 5.9
-17 8 -4 0 4.8
17 -8 -4 5.7 7.8
17 8 -4 -0.4 6
17 -8 4 7.7 8.4
18 0 4 78.79 16.1
18 0 -4 78.19 16.6
-18 0 4 66.39 12.6
-18 0 4 90.19 17.1
-18 1 -4 262.07 30.1
18 1 4 271.37 29.1
-18 -1 4 273.27 26.5
18 -1 -4 224.68 28.6
-18 1 -4 259.27 26.7
-18 1 4 251.57 29.2
18 -1 4 232.98 28.9
-18 -1 -4 259.57 30.1
-18 1 4 276.47 25.7
18 1 -4 218.88 25.7
18 1 -4 240.48 28.7
-18 -1 -4 286.27 30.1
18 2 4 263.37 28.5
18 -2 -4 245.38 30
-18 -2 4 313.07 32
-18 2 -4 305.37 31.9
-18 2 -4 246.78 26.7
-18 -2 -4 300.77 32.4
18 -2 4 258.47 30.6
18 2 -4 238.38 26.8
-18 2 4 263.77 25.6
18 2 -4 218.88 28.3
-18 3 -4 3 5.2
18 -3 -4 9.7 6.2
18 3 4 3.5 4.5
-18 3 -4 21.8 9.1
-18 -3 4 10.7 8.3
-18 3 4 2.4 4
-18 -3 -4 5.7 6.8
-18 -3 -4 7.6 5.6
18 -3 4 0.5 4.8
18 3 -4 3.2 3.4
18 3 -4 4.5 3.1
18 3 -4 8.8 5.8
18 4 4 83.79 13
18 -4 -4 84.69 18.6
-18 4 -4 62.89 14.8
-18 4 -4 87.49 14.4
18 4 -4 77.69 15.3
-18 4 4 73.89 12.1
18 4 -4 79.09 9.8
-18 -4 -4 100.59 18.7
18 -4 4 96.49 20.2
18 4 -4 81.19 15.2
-18 5 -4 204.78 21.5
18 -5 -4 215.08 27.6
18 5 -4 180.08 21.1
18 5 -4 160.58 22.1
18 5 -4 197.68 17.7
18 -5 4 180.78 26
-18 5 4 208.08 19.3
-18 6 -4 10 4.7
18 -6 -4 1.8 7.4
-18 6 -4 5.1 7.6
18 6 -4 3.3 2.3
18 6 -4 1 4.7
18 6 -4 3.4 3.1
-18 7 -4 21.3 6.2
-18 7 4 2.6 1.4
18 -7 4 5.4 4.7
18 7 -4 -1.9 5.2
19 0 4 275.07 33.4
19 0 -4 277.07 33.7
-19 0 4 325.17 30.8
-19 0 -4 324.27 31.8
-19 0 4 396.16 37.1
-19 1 -4 246.38 29.6
-19 1 -4 266.27 26.6
-19 -1 4 256.87 26.1
19 1 4 269.07 29.1
19 -1 -4 213.28 28.4
19 1 -4 209.48 27.9
-19 1 4 240.58 24.9
-19 1 4 291.27 30.8
19 1 -4 252.67 26.7
19 -1 4 224.88 28.6
-19 -1 -4 254.47 30.4
-19 2 -4 316.77 32.4
19 -2 -4 315.67 35.9
19 2 4 307.97 33.4
-19 2 -4 333.17 36.3
19 2 -4 333.57 35.1
19 2 -4 326.47 32.9
-19 -2 -4 336.17 40.1
-19 2 4 348.47 31.2
19 -2 4 320.37 36.1
19 -3 -4 1.5 6.4
-19 3 -4 2.1 6.4
19 3 4 1.2 4.7
19 3 -4 -1 3.4
-19 3 4 -0.2 4
19 -3 4 6.8 6.6
19 3 -4 -0.1 4
19 3 -4 1.1 3
-19 4 -4 107.89 21
-19 4 -4 108.29 19.3
19 4 4 106.49 13.9
19 -4 -4 100.39 21.3
19 4 4 100.39 10.9
19 4 -4 109.39 16.6
19 4 -4 116.19 12.3
19 -4 4 109.59 22.4
19 4 -4 98.99 18.2
-19 4 4 110.09 13.4
19 5 4 594.64 40.9
19 5 4 512.95 41.3
-19 5 -4 560.64 52.19
-19 5 -4 574.74 48.1
19 -5 -4 474.65 53.19
-19 5 4 538.05 44.9
19 5 -4 519.55 50.19
19 -5 4 518.45 54.29
-19 6 -4 31.1 8.5
19 6 -4 9 2.9
19 6 -4 14.3 4.3
19 -6 4 16.9 8.7
-19 6 4 10.5 4.7
19 6 -4 16.7 7.9
19 -7 -4 74.89 18.3
-19 7 -4 37.2 8.9
19 7 -4 27.6 11
19 -7 4 50.59 16.1
-19 7 4 48 5.3
20 0 -4 22.3 9.6
20 0 4 28.8 10.5
-20 0 4 25.8 8.2
20 -1 -4 1.9 5.8
20 1 4 -3.3 5.2
-20 1 -4 9.7 4.5
20 -1 4 1.4 5
-20 1 4 -1.4 3.8
20 1 -4 4.1 4.9
20 2 4 27.3 9.9
20 -2 -4 20.7 9.4
-20 2 -4 30.6 9.6
20 -2 4 41.8 12.6
20 2 -4 28.5 9.9
-20 2 4 31.5 14.5
20 2 -4 25.7 9.1
-20 3 -4 67.99 13.1
20 -3 -4 41.2 13.1
20 3 4 53.09 12.8
20 3 -4 49.6 8.9
-20 3 4 49.1 10.4
20 3 -4 28.7 10.9
20 -3 4 63.29 16.3
20 3 -4 68.99 14
20 4 4 -1.1 2.5
20 -4 -4 6.2 7.2
-20 4 -4 8 5.6
20 4 4 -0.2 3.7
-20 4 4 5.7 3.7
20 4 -4 -5.6 2.8
20 -4 4 -4.9 5
20 4 -4 -5.7 4
20 4 -4 -2.5 2.9
-20 5 -4 40.3 9.7
20 5 4 40.3 5.1
20 5 4 42.5 5.8
20 5 -4 30.2 8.8
20 -5 4 24.2 11.2
20 5 -4 33.6 6.9
20 5 -4 31.2 10.3
-20 5 4 46.8 8
-20 6 -4 32.8 13.5
-20 6 -4 49.3 9.7
20 -6 -4 20.4 11.1
-20 6 4 9.3 5.5
20 6 -4 35.6 6.4
20 -6 4 20.4 10.6
20 6 -4 32.2 9.9
20 6 -4 15.8 4.4
-20 7 -4 80.09 13.1
20 -7 -4 71.29 19.6
20 -7 4 71.49 19.2
-20 7 4 104.29 9.4
21 0 4 79.09 17.4
21 0 -4 90.59 19.4
21 1 4 131.59 19.6
21 -1 -4 128.09 20.8
21 -1 4 147.09 22
-21 1 4 113.89 17.9
21 1 -4 103.59 21.5
21 -2 -4 1.2 6.7
21 2 4 10.6 8
-21 2 4 1.6 5.3
21 -2 4 7.1 6.7
21 2 -4 -2.1 5.7
21 -3 -4 13.9 8.9
21 3 4 15.7 8
-21 3 4 18 6.8
21 3 -4 9.3 6.4
21 -3 4 25.7 12
21 3 -4 10.9 5.1
21 3 -4 11.2 8.1
21 4 4 102.49 11.8
-21 4 -4 129.09 17.8
21 4 4 132.39 16
21 4 -4 122.09 20.5
-21 4 4 113.19 14.7
21 -4 4 108.49 23.4
21 4 -4 108.99 17
21 5 4 14.9 3.7
21 5 4 18.3 4.5
21 -5 -4 23.4 11.5
-21 5 -4 19.5 7.4
21 -5 4 11.7 9.7
-21 5 4 25.4 6.5
21 5 -4 12.3 5.1
21 5 -4 23.8 8.5
-21 6 -4 -12.7 5.3
21 -6 -4 9.7 9
-21 6 4 3.6 4.7
21 -6 4 5.8 8.4
21 6 -4 -1.7 5.3
21 6 -4 -1.2 3.1
22 0 4 39 12.5
22 0 -4 18.4 9.6
22 1 4 14.1 8.3
22 -1 -4 22.6 10.3
22 -1 4 12.8 8
22 1 -4 9 7.7
22 2 4 6.9 5.7
22 -2 -4 -2.5 5.7
22 2 -4 0.3 3
22 -2 4 0.4 7
22 3 4 6.6 6
22 -3 -4 -2.3 5.2
-22 3 4 4.5 5.4
22 3 -4 -5 5.1
22 -3 4 -0.6 5.4
22 4 4 28.8 8.9
22 4 4 23.3 5.6
22 -4 -4 28.8 12.1
22 4 -4 27.8 9.9
22 -4 4 32.9 12.3
22 4 -4 27.4 6.7
-22 4 4 44.3 8.3
22 5 4 35.1 6.1
22 -5 -4 33.1 13
22 5 4 20.3 5
22 5 -4 29.9 7.4
22 5 -4 22.1 8
-22 5 4 34 7.9
22 -5 4 48.9 15.6
22 -6 -4 17.2 9.5
22 -6 4 26.6 11.9
-22 6 4 34.4 7.1
22 6 -4 12.2 6
23 0 4 76.19 17.9
23 -1 -4 25.4 11.5
23 1 4 27 10.9
23 1 -4 32.9 12
23 -2 -4 39.6 13.4
23 2 4 35.8 11.7
23 2 -4 33.1 12.1
23 -2 4 23.2 11.3
23 3 4 7.8 6.4
23 -3 -4 11.4 9.9
23 3 -4 -1.8 5.6
23 -3 4 12.1 8.1
23 -4 -4 64.09 18.4
23 4 4 92.89 14.1
23 4 -4 66.79 15.6
-23 4 4 88.29 14.2
23 -4 4 75.79 20.3
23 -5 -4 2.6 7.6
23 -5 4 10.9 7.4
23 5 -4 -2 4.7
23 5 -4 -7.3 5
-23 5 4 10 6.2
24 0 4 -6.2 5.2
24 0 -4 -2.2 5.7
24 1 4 8.8 6.5
24 -1 -4 0.5 6.7
24 1 -4 9.2 7.2
24 -1 4 -2.7 6.3
24 2 4 109.79 20.9
24 -2 -4 90.39 21.6
24 -2 4 81.69 20
24 -3 -4 23.1 12.7
24 3 4 21.7 9.5
24 -3 4 42.1 15.1
24 3 -4 38.6 12.6
24 -4 -4 113.59 24.5
24 4 -4 85.19 17.6
24 -4 4 128.59 26.4
24 -5 -4 -0.5 7.8
24 -5 4 10.3 9
24 5 -4 2.3 6.3
25 0 -4 91.19 20.6
25 0 4 102.69 21.6
25 1 4 0 6.6
25 -1 -4 0.7 6.8
25 1 -4 6.2 7.3
25 -1 4 5.8 7.3
25 2 4 20.6 15.6
25 -2 -4 35.2 12.6
25 -2 4 16.6 11
25 2 -4 21.7 11.5
25 -3 -4 10.6 10.2
25 3 4 8.8 8.7
25 -3 4 8.7 9.1
25 3 -4 12.7 8.5
25 -4 -4 27.8 12.9
25 4 4 36.3 9.6
25 4 -4 34.5 10.9
25 -4 4 29.3 14.3
26 0 4 189.38 27.7
26 0 -4 191.28 29
26 1 4 72.19 18
26 -1 -4 72.39 18.5
26 1 -4 70.69 17.7
26 -1 4 61.89 16.8
26 -2 -4 74.09 20
26 2 4 89.89 19.6
26 2 -4 83.19 19
26 -2 4 107.19 23.2
26 3 4 2.1 8.7
26 -3 -4 10.1 8
26 -3 4 5.6 8.3
26 3 -4 4.6 7.5
27 0 -4 10.3 10.6
27 0 4 -3.2 7.2
27 -1 -4 25.1 13.4
27 1 4 46.4 13.7
27 -1 4 47.3 15.3
27 1 -4 15.4 10.9
27 2 4 7.8 7.7
27 -2 -4 17.8 11.4
27 -2 4 12.5 10.7
27 2 -4 15 10.5
0 0 5 2.4 1.3
0 0 -5 1.3 1.3
0 1 -5 7.7 2.4
0 1 -5 0.7 0.7
0 -1 -5 -0.3 0.6
0 -1 5 6.4 2.5
0 2 -5 3744.03 275.17
0 3 -5 -0.7 0.7
0 3 -5 -1.6 1.2
0 -3 -5 1.1 0.8
0 -3 5 -1.5 1.4
0 4 -5 41.6 5.7
0 4 -5 42.2 5.7
0 -4 5 43.1 6.8
0 -4 -5 42.4 4.2
0 -5 -5 -0.1 0.7
0 5 -5 -1.6 1.3
0 -5 5 -1.2 2.1
0 -6 5 94.49 11.5
0 6 -5 83.69 9.9
0 7 -5 1.1 2.3
0 -7 -5 -0.8 1.2
0 -7 5 -0.5 2.8
0 8 -5 152.88 16.9
0 -8 5 199.78 18.9
0 -8 -5 165.18 15.1
0 9 -5 0.3 3.1
0 -9 5 -2.9 3.6
0 -9 -5 -1.7 1.9
0 10 -5 70.39 8.9
0 -10 -5 45.1 6.3
1 0 -5 1.1 0.9
1 0 -5 1 1
1 0 5 0.3 1.4
-1 0 -5 2.6 1.6
-1 0 5 0 0.9
1 1 5 254.07 22.1
-1 1 -5 254.17 24.1
-1 -1 5 354.16 23.4
1 -1 5 307.57 24.4
1 1 -5 302.17 23.6
-1 -1 -5 312.67 22.5
1 -2 -5 4060.19 318.27
-1 -2 -5 4103.99 315.87
-1 -2 -5 4372.16 315.47
1 2 -5 4561.64 325.77
-1 3 -5 149.59 12.3
-1 -3 5 170.88 14.1
-1 3 -5 131.59 13.4
1 -3 -5 131.19 10.9
1 3 -5 132.59 13.1
-1 -3 -5 132.29 11.8
1 3 -5 140.39 12.7
1 -3 5 141.99 14.1
-1 4 -5 14.3 3.6
-1 -4 5 21.3 5
1 -4 -5 15.3 1.6
-1 4 -5 14.3 3.4
-1 -4 5 21.9 4
1 4 -5 13.4 3.6
-1 -4 -5 15.3 2.9
1 4 -5 14.7 3.6
1 -4 5 10.7 4
-1 5 -5 42.4 6
-1 5 -5 48.6 4.3
-1 -5 5 55.59 7.6
1 5 -5 45.2 7.3
1 -5 5 47.1 8.6
-1 -5 -5 40.7 4.8
1 -6 -5 101.59 8.9
-1 6 -5 88.09 10.4
-1 -6 5 109.09 12
1 -6 5 98.29 12.4
1 6 -5 81.59 10.6
-1 -6 -5 110.19 8.8
-1 -7 5 39.2 7.8
1 -7 -5 38.4 5.1
-1 7 -5 33.4 6.5
1 -7 5 39.5 8.3
-1 -7 -5 33.2 4
1 -8 -5 212.38 18.4
-1 8 -5 184.18 23.8
1 8 -5 199.98 20.1
1 -8 5 231.28 21.6
-1 -8 -5 192.78 16.8
-1 9 -5 -3.5 2.9
-1 -9 5 2.3 4.1
1 -9 -5 2 2.6
1 -9 5 0 3.8
-1 -9 -5 1.6 1.9
1 9 -5 -2.3 2.8
1 -10 -5 2 2.5
-1 -10 5 -1.4 4.4
-1 -10 -5 3.3 2.3
1 10 -5 11.3 4.3
1 -10 5 2.5 4.4
-2 0 -5 -0.8 1.6
-2 0 5 -0.3 0.8
2 0 -5 -0.5 0.8
2 0 -5 -0.6 0.8
2 0 5 -0.4 1.6
-2 -1 5 18.8 3.1
-2 -1 5 23.6 3.4
-2 1 -5 17.6 4.3
2 1 5 19.2 2.4
2 -1 -5 17.5 2.3
2 1 -5 11.4 2.7
-2 -1 -5 18.4 2.8
2 1 -5 17.7 3.3
2 -1 5 10.3 3.4
-2 2 -5 656.03 57.09
-2 -2 5 801.42 55.99
2 -2 -5 788.72 54.39
2 -2 5 684.63 57.29
-2 -2 -5 786.52 54.29
2 2 -5 697.93 56.29
-2 3 -5 359.36 32.4
-2 -3 5 475.05 31.9
-2 3 -5 408.26 30.8
2 3 -5 370.26 31.8
2 3 -5 405.36 31.9
2 -3 5 393.46 33.3
-2 -3 -5 379.36 31
-2 4 -5 7.3 3.1
-2 -4 5 12.1 3.9
-2 -4 5 14.1 3.4
-2 4 -5 13.1 3.2
2 4 -5 9.9 2.9
2 4 -5 8.9 3
2 -4 5 11.1 4.7
2 4 -5 10.4 3
-2 -4 -5 10.6 2.8
-2 -5 5 79.59 8
-2 5 -5 57.89 6.3
-2 -5 5 73.89 8.8
-2 5 -5 56.59 6.9
-2 -5 -5 62.49 6.6
2 -5 5 52.59 8.8
2 5 -5 58.99 7.9
-2 -6 5 193.78 16.8
-2 6 -5 156.98 14.8
2 -6 -5 152.18 14
2 6 -5 142.59 15.5
-2 -6 -5 159.18 13.6
2 -6 5 151.98 17.1
-2 7 -5 54.49 7.4
2 -7 -5 52.99 7.1
-2 -7 -5 57.29 5.8
-2 -7 -5 52.49 5.1
2 -7 5 65.19 9.9
2 7 -5 53.29 9
-2 -8 5 -2.7 3.2
2 -8 -5 -4.2 2.4
-2 8 -5 -0.7 2.2
2 8 -5 -4.1 2.7
2 -8 5 -5.4 3.1
-2 -8 -5 1.3 1.4
-2 9 -5 22.4 5.9
2 -9 -5 22.5 5.6
-2 -9 5 35.9 7.7
-2 -9 -5 24 3.7
2 9 -5 25.1 6.6
2 -9 5 32.4 8.4
-2 10 -5 12.2 4.1
-2 -10 5 9.4 5.6
2 -10 -5 10.9 3.7
-2 -10 -5 6.6 2.7
2 -10 5 9 6
2 10 -5 14.8 6
-3 0 -5 -1.9 1.4
3 0 -5 -0.5 0.9
3 0 5 0.6 1.9
-3 0 5 0.7 1.1
-3 -1 5 2818.42 196.68
3 -1 -5 2638.84 195.88
-3 1 -5 2500.65 198.28
-3 -1 -5 2763.92 197.08
3 -1 5 2673.63 198.28
3 -2 -5 1272.07 102.09
-3 -2 5 1521.05 103.99
-3 2 -5 1287.47 105.29
3 -2 5 1358.66 105.59
3 2 -5 1435.86 103.79
-3 -2 -5 1537.55 102.89
3 2 -5 1349.77 103.99
-3 3 -5 138.39 14.8
-3 -3 5 159.28 13.8
-3 -3 -5 159.78 13.8
3 3 -5 146.89 14.1
3 -3 5 148.49 15.6
3 3 -5 151.68 14
3 3 -5 165.08 14.7
-3 4 -5 1084.09 86.49
-3 4 -5 1251.87 84.99
-3 -4 -5 1138.19 85.59
3 4 -5 1133.69 86.59
3 4 -5 1038.9 85.19
3 -4 5 1160.98 88.39
3 4 -5 1164.28 85.69
3 -5 -5 289.17 23
-3 5 -5 268.67 22.8
-3 -5 5 343.57 24.6
-3 5 -5 265.07 22.7
3 -5 5 259.57 25.8
-3 -5 -5 279.77 23
3 5 -5 250.07 24.1
-3 6 -5 390.66 32.3
3 -6 -5 411.36 32.7
-3 -6 -5 416.96 32
3 -6 5 423.16 36.1
3 6 -5 339.97 38.2
3 -7 -5 49.6 7.3
-3 7 -5 52.69 7
-3 -7 5 70.49 8.9
3 -7 5 55.89 12.1
-3 -7 -5 44.4 4.6
-3 -7 -5 54.19 5.2
-3 -7 -5 49.6 6
3 7 -5 51.99 9.3
3 -8 -5 151.88 16.4
-3 8 -5 128.99 15
-3 -8 5 205.18 17.8
-3 -8 -5 168.78 13.7
-3 -8 -5 168.88 13.1
3 8 -5 152.58 17.1
3 -8 5 141.19 18.1
-3 9 -5 34.2 6.5
-3 -9 5 40.1 8.1
3 -9 -5 25.2 6.2
3 9 -5 25.1 6.9
3 -9 5 21.6 7.3
-3 -9 -5 28.1 3.7
-3 -10 5 13.8 5.9
3 -10 -5 14.6 4.4
-3 10 -5 12.3 3.7
3 -10 5 12.4 5.6
3 10 -5 10.7 4.9
-3 -10 -5 6.6 2.3
4 0 -5 -0.2 0.9
-4 0 -5 -0.8 1.4
4 0 5 -1.1 1.2
-4 0 5 0.6 0.9
-4 1 -5 210.98 21.2
4 -1 -5 219.58 19
4 1 5 277.57 20
-4 -1 5 235.38 19.7
4 1 -5 257.37 19.4
-4 -1 -5 246.28 20.6
-4 1 5 253.07 19
4 -1 5 225.98 21.2
-4 2 -5 29.1 6.1
-4 -2 5 37.6 4.7
4 -2 -5 27.8 3.3
-4 -2 5 23.8 4.3
4 2 -5 35.6 4.3
-4 -2 -5 26.9 4.1
-4 2 5 32.5 3.1
4 2 -5 30.4 5.3
4 -2 5 22.7 5.8
-4 -3 5 1573.14 106.89
-4 3 -5 1305.87 107.89
-4 -3 -5 1389.26 106.69
4 -3 5 1388.66 108.79
4 3 -5 1411.56 107.19
4 3 -5 1435.96 107.39
4 3 -5 1384.26 106.29
-4 -3 -5 1505.15 105.09
-4 4 -5 143.99 12.2
-4 4 -5 138.09 14.3
-4 -4 5 144.99 13.6
-4 -4 -5 150.18 11.1
4 4 -5 135.39 12.8
-4 -4 -5 141.19 13.4
4 4 -5 139.29 13.2
4 4 -5 125.09 13.7
4 -4 5 134.29 15.5
4 -5 -5 736.23 56.29
-4 5 -5 687.53 55.79
-4 5 -5 736.33 55.09
-4 -5 5 853.11 56.89
4 5 -5 656.13 56.89
-4 -5 -5 698.13 55.89
4 -5 5 730.13 59.29
-4 -5 -5 707.33 53.19
-4 6 -5 4.8 2
-4 -6 5 3.5 3.3
-4 -6 5 -1.5 2.4
4 -6 -5 2.6 2.6
4 6 -5 3.8 3
-4 -6 -5 2.8 1.3
-4 -6 -5 3.5 2.1
4 -6 5 2.3 3.9
-4 -6 -5 3.7 1
4 -7 -5 -0.1 3
-4 -7 5 -0.8 2.7
-4 7 -5 -1.1 1.9
-4 -7 5 1.3 2.9
-4 -7 -5 0.2 1.4
4 -7 5 -1.8 3
-4 -7 -5 0.5 1
4 7 -5 0.4 2.3
-4 -7 -5 -2 1.3
4 -8 -5 -1.8 2.9
-4 -8 5 -1.6 3.3
-4 8 -5 2.4 2.4
4 -8 5 -2.1 3.5
-4 -8 -5 0.5 1.9
4 8 -5 2.7 3.8
-4 -8 -5 2.8 1.4
-4 9 -5 -3.1 2.5
-4 -9 5 -2 3.2
4 -9 -5 1 3.4
4 9 -5 2.5 4.2
-4 -9 -5 0.5 1.5
4 -9 5 0.3 4.8
-4 -10 5 3 4.6
-4 10 -5 6 2.8
4 -10 -5 4.5 3.6
4 -10 5 1.4 5.3
4 10 -5 4.5 5
-5 0 -5 0.5 1.8
5 0 5 -2.1 0.9
5 0 -5 -0.1 1
-5 0 5 1.1 1.3
-5 1 -5 140.69 14.2
-5 -1 5 147.19 12.5
5 -1 -5 130.99 11.7
5 1 5 142.29 12.6
5 -1 5 130.09 13.8
-5 1 5 130.49 11.4
-5 -1 -5 142.39 13.4
5 1 -5 127.69 12.4
5 1 -5 132.79 11.6
-5 -2 5 1014.6 73.19
-5 2 -5 897.31 74.89
5 -2 -5 857.21 71.49
-5 -2 5 987.9 72.59
5 -2 5 922.31 75.09
-5 -2 -5 937.61 73.09
5 2 -5 1120.89 72.59
5 2 -5 954.8 74.39
-5 2 5 986.2 71.29
-5 -3 5 1.2 1.8
5 -3 -5 0.2 1.4
-5 -3 5 1.3 1.9
-5 3 -5 -0.9 2
-5 -3 -5 1.9 1.9
5 3 -5 2.9 2.2
5 3 -5 2.5 1.8
5 -3 5 2.2 2.6
5 3 -5 0.2 2.1
-5 -3 -5 -0.4 1.2
-5 4 -5 235.48 22.5
-5 -4 5 282.57 23.8
5 -4 -5 260.77 22
5 4 -5 230.48 20.6
-5 -4 -5 254.07 21.7
5 4 -5 228.48 22
5 4 -5 259.97 21.6
-5 -4 -5 235.98 19.9
5 -4 5 260.97 24.4
-5 5 -5 12 3.9
-5 5 -5 19.2 3.5
-5 -5 5 18.6 4.6
-5 -5 5 25.2 5.4
5 -5 -5 15 4.4
-5 -5 -5 13.3 2.9
5 -5 5 19.2 6.6
5 5 -5 16 5.7
-5 -5 -5 16.9 4.5
-5 -6 5 55.29 8.5
-5 -6 5 66.99 8.2
-5 6 -5 43.8 5.9
5 -6 -5 43.1 8.3
-5 -6 -5 39.6 7.1
5 6 -5 46.1 8.8
-5 -6 -5 48.8 5.8
5 -6 5 55.09 11.3
-5 7 -5 4.8 2.4
-5 -7 5 5.4 2.9
5 -7 -5 2.3 3.2
-5 -7 5 4.7 3.5
5 7 -5 -2.9 2.5
-5 -7 -5 2 1.9
-5 -7 -5 1.2 2.1
5 -7 5 1 3.9
-5 8 -5 240.48 23.5
-5 -8 5 352.86 26.2
5 -8 -5 257.37 26.2
5 8 -5 285.27 27
5 -8 5 281.77 28.6
-5 9 -5 2.9 3.1
-5 -9 5 -1.2 3.2
5 -9 -5 6.4 4.5
5 9 -5 0.6 3.9
-5 -9 -5 1.8 2.9
-5 -10 5 14.4 5.5
-5 10 -5 15 3.5
5 -10 -5 26.1 6.6
5 -10 5 33.6 8.2
5 10 -5 16.3 5.4
-6 0 5 0.5 1.2
6 0 -5 1 1.3
6 0 5 2.7 2.4
6 0 -5 -0.7 1.5
-6 0 -5 -1.9 1.3
6 -1 -5 693.33 55.99
6 1 5 751.02 57.19
-6 1 -5 716.23 58.89
-6 -1 5 767.42 56.89
6 -1 -5 807.92 58.69
6 -1 5 753.12 58.89
-6 1 5 742.83 55.89
6 1 -5 785.72 58.79
6 1 -5 683.93 56.79
6 1 -5 708.73 55.69
-6 -1 -5 745.63 58.19
-6 2 -5 120.49 13.8
6 2 5 127.29 10.7
6 -2 -5 136.19 13.2
6 -2 -5 117.29 10.8
-6 -2 5 120.29 12
6 2 -5 143.99 11.3
-6 -2 -5 115.39 12.2
6 -2 5 104.89 13.2
6 2 -5 128.69 13.2
-6 -2 -5 115.49 12.4
-6 2 5 111.19 10.3
-6 3 -5 6 3.4
-6 -3 5 5.7 2.3
6 -3 -5 5.7 3
-6 -3 5 5.9 3
6 -3 5 5.7 3.9
-6 -3 -5 3.5 2.8
6 3 -5 6.2 2.7
-6 -3 -5 8.1 2.8
-6 3 5 6.5 1.3
6 3 -5 7.3 2.5
6 3 -5 6.5 3.2
-6 -4 5 308.07 24.8
-6 4 -5 271.07 25.4
6 -4 -5 297.07 25.3
6 -4 5 290.67 27.2
6 4 -5 271.17 25
-6 -4 -5 269.87 24.5
6 4 -5 291.07 24.4
6 4 -5 261.27 23.1
-6 -4 -5 282.67 23.5
-6 5 -5 163.78 13.5
6 -5 -5 152.28 15.9
-6 5 -5 155.88 15.7
-6 -5 5 200.28 16.3
6 5 -5 149.39 12.5
6 -5 5 147.39 17.9
6 5 -5 128.49 15.6
-6 -5 -5 158.88 15.4
-6 -5 -5 149.59 14.1
-6 -6 5 11.8 4.2
-6 -6 5 18 4.8
6 -6 -5 8.8 4.3
-6 6 -5 13.9 3.3
-6 -6 -5 11 5.7
6 6 -5 3.9 3
-6 -6 -5 13 3.4
6 -7 -5 18.8 6.1
-6 7 -5 26.7 4.8
-6 -7 5 33.5 6.4
-6 -7 5 22.3 6.7
6 7 -5 24.2 7
6 -7 5 21.1 7.4
-6 -7 -5 28.6 5.8
-6 -7 -5 28.6 5.6
6 -8 -5 87.19 12.5
-6 -8 5 96.09 11.1
-6 -8 5 96.99 11.8
-6 8 -5 80.79 9.4
6 8 -5 68.99 12.7
-6 -8 -5 81.89 9.8
6 -8 5 76.09 15.1
6 -9 -5 21.8 6.8
-6 9 -5 12.6 3.6
-6 -9 5 13.3 5.3
6 -9 5 12.6 7
-6 -9 -5 5.8 3.2
6 9 -5 4.8 5.1
7 0 -5 1.7 1.8
7 0 -5 -0.4 1.4
7 0 5 -0.7 1.5
-7 0 -5 -0.1 2.1
-7 -1 5 126.29 12.1
7 -1 -5 134.09 13.8
7 1 5 134.19 12.9
7 -1 -5 112.29 11.4
-7 1 -5 122.29 14
-7 -1 -5 126.19 13.5
-7 1 5 119.19 11.3
7 1 -5 125.89 12.4
7 -1 5 122.69 13.8
7 1 -5 112.89 13.3
7 2 5 316.07 24.5
-7 2 -5 287.17 27.5
-7 -2 5 310.37 25.7
7 -2 -5 278.77 24.1
7 -2 -5 309.17 26.9
-7 -2 -5 290.87 26.1
-7 -2 -5 285.77 26.1
-7 2 5 295.97 23.8
7 2 -5 339.07 24.4
7 2 -5 307.07 26
7 2 -5 297.17 26.8
7 -2 5 286.67 27.5
-7 -3 5 63.69 8.5
-7 3 -5 64.89 9.5
7 -3 -5 68.89 9.3
7 -3 5 69.49 10.4
7 3 -5 61.59 8.7
-7 -3 -5 64.49 8.5
-7 3 5 71.59 6.3
7 3 -5 60.69 8.7
-7 -3 -5 70.99 8.7
7 3 -5 71.79 7.4
7 -4 -5 53.49 8.3
-7 -4 5 60.59 7.1
-7 4 -5 52.79 8.6
-7 -4 5 83.39 8.9
7 4 -5 58.19 7.9
7 4 -5 52.09 13.6
7 -4 5 63.09 10.1
-7 -4 -5 55.39 7.5
-7 -4 -5 57.39 8
7 4 -5 49.2 6.5
-7 -5 5 2.5 2.5
-7 5 -5 6.9 3.7
-7 -5 5 5.3 2.6
7 -5 -5 5 3.3
-7 -5 -5 4.5 2.8
7 5 -5 2.4 1.6
7 5 -5 1 2.8
-7 -5 -5 3.1 2.4
7 5 -5 3.3 1.8
7 -5 5 1 4.1
-7 6 -5 20.8 4.2
-7 -6 5 11.2 4.9
-7 6 -5 16.4 3.5
7 -6 -5 13.7 5.6
-7 -6 5 19.7 4.9
-7 -6 -5 19.8 5
-7 -6 -5 23.9 5.9
7 6 -5 14.1 5.6
7 -6 5 16.8 7.7
7 -7 -5 16.4 6.2
-7 7 -5 15.8 3.8
-7 -7 5 30.5 6.8
-7 -7 5 24.7 5.6
7 -7 5 13.2 6.9
-7 -7 -5 16.9 4.7
-7 -7 -5 21.6 5.2
7 7 -5 15.8 6.1
7 -8 -5 374.16 34.7
-7 -8 5 407.66 31.9
-7 -8 5 430.86 35.6
-7 8 -5 321.47 29.8
7 -8 5 387.56 37.3
-7 -8 -5 347.67 30.9
7 8 -5 342.87 33.6
-7 9 -5 2.6 2.5
-7 -9 5 3.9 3.4
7 -9 -5 13.8 6
-7 -9 5 1.6 4.2
7 -9 5 -2 5.6
-7 -9 -5 2.4 2.8
7 9 -5 3.4 3.9
8 0 -5 -1.3 1.3
-8 0 5 -0.4 1.2
-8 0 -5 0.6 1.8
8 0 -5 0.1 1.6
8 0 5 -0.5 2
8 -1 -5 343.67 29.3
8 1 5 338.27 28.3
-8 1 -5 332.57 29.8
8 -1 -5 294.67 26.5
-8 -1 5 330.27 27.2
-8 1 5 328.87 26.4
-8 -1 -5 309.07 28.8
8 -1 5 308.07 29.2
8 1 -5 335.27 29.2
-8 -2 5 40.2 7
-8 2 -5 48.2 9.4
8 2 5 41.6 5.9
8 -2 -5 31.4 7
8 -2 -5 47.7 5.7
-8 -2 -5 37.8 7.7
8 2 -5 41.3 7.3
8 -2 5 39.5 8.6
8 2 -5 38.7 7.6
8 2 -5 45.7 5.2
-8 -2 -5 47.5 8.3
-8 2 5 43 5.2
8 3 5 40.4 3.2
-8 3 -5 39.7 8.9
8 -3 -5 31.9 6.9
-8 -3 5 39.2 7.3
8 -3 5 23.7 7.1
-8 3 5 33.3 4.2
8 3 -5 32.2 4.7
-8 -3 -5 34.5 7.1
-8 -3 -5 39.1 7.5
8 3 -5 39.5 7.8
8 3 -5 35 7.5
8 -4 -5 414.96 35.7
-8 -4 5 458.15 34.8
-8 4 -5 400.36 35.6
8 -4 5 381.46 36.7
-8 -4 -5 425.36 34.7
-8 -4 -5 388.56 33.9
8 4 -5 378.86 32
-8 4 5 424.36 30.2
8 4 -5 365.56 34.5
8 4 -5 402.16 34.1
-8 -5 5 21.9 5.9
-8 5 -5 11.1 5.1
8 -5 -5 11.8 5.3
-8 -5 -5 13.8 4.4
8 5 -5 15.3 3.6
-8 -5 -5 11.1 4.7
8 -5 5 10.1 5.7
8 5 -5 10.4 4.5
8 5 -5 8.1 2.6
8 -6 -5 52.59 10.3
-8 6 -5 51.29 5.7
-8 -6 5 42.7 8.4
-8 -6 5 39.6 7.2
-8 6 -5 46.1 7
-8 -6 -5 39.7 7.8
8 -6 5 49.7 12
8 6 -5 36 8.7
-8 -6 -5 35.4 7.8
-8 -7 5 28.6 6
8 -7 -5 29.3 8.7
-8 -7 5 47.5 8.7
-8 7 -5 25.9 4.9
8 -7 5 22.8 8.3
-8 -7 -5 24.3 6.3
-8 -7 -5 38.8 7.5
8 7 -5 39.4 9.4
-8 -8 5 12.7 5.2
-8 8 -5 2.4 2.5
-8 -8 5 0 2.7
-8 -8 -5 2.2 3.1
8 -8 5 3.1 6.7
8 8 -5 4 4.1
-8 9 -5 -0.3 2.3
-8 -9 5 -4 5.3
8 -9 -5 5 5.1
-8 -9 -5 5.5 3.4
8 -9 5 1.2 5.7
8 9 -5 4.1 4.7
-9 0 5 -0.1 1.7
9 0 -5 1.2 2.3
9 0 5 0.5 2.1
-9 0 -5 2.7 2.4
9 1 5 2085.09 156.98
9 -1 -5 1985.8 155.18
-9 -1 5 2161.58 155.98
-9 1 -5 2142.69 162.18
9 -1 -5 2088.89 158.18
-9 -1 -5 2042.4 158.08
9 1 -5 2086.29 158.18
-9 1 5 2080.39 154.98
9 -1 5 2121.79 158.68
9 -2 -5 163.28 17.3
9 2 5 163.38 15.3
9 -2 -5 148.09 14.4
-9 -2 5 170.78 15.9
-9 2 -5 169.68 20.3
9 2 -5 147.79 15.7
9 2 -5 154.28 17
9 -2 5 157.58 17.8
-9 2 5 148.29 14
9 2 -5 159.48 13.9
-9 -2 -5 152.38 16.6
9 -3 -5 441.96 40.2
-9 3 -5 437.36 40.8
-9 -3 5 494.15 39
9 3 5 472.25 35.5
9 3 -5 452.15 39.5
-9 -3 -5 460.65 39.4
9 3 -5 402.76 39
-9 3 5 467.55 36
9 -3 5 431.36 40.9
-9 -3 -5 465.85 39.2
9 3 -5 540.35 36.8
9 -4 -5 295.17 28.6
-9 -4 5 323.27 27.4
-9 4 5 308.57 23.4
9 4 -5 315.87 27.3
9 4 -5 315.17 24.9
9 4 -5 287.77 27.6
-9 -4 -5 274.67 27
-9 -4 -5 285.17 27.2
-9 -5 5 166.68 16.8
-9 5 -5 159.58 17.3
9 -5 -5 159.88 18.1
9 5 -5 142.39 13.4
9 -5 5 150.58 18.9
9 5 -5 151.28 17.3
-9 -5 -5 167.98 16.9
9 5 -5 150.28 14.5
-9 -5 -5 160.08 16.6
-9 6 -5 9.8 2.8
-9 -6 5 18.2 5.5
9 -6 -5 6.2 5.1
-9 6 -5 7.3 4
9 -6 5 3.8 4.8
-9 -6 -5 7.4 4
9 6 -5 6.3 4.7
-9 -6 -5 9.4 4.4
-9 7 -5 364.46 31.8
-9 -7 5 506.45 44.5
9 -7 5 394.36 39.8
9 7 -5 375.26 36.6
-9 -7 -5 414.46 35.2
-9 -7 -5 427.86 35.9
-9 -8 5 38.5 8.8
9 -8 -5 39.2 10.1
-9 8 -5 42.6 5.7
-9 -8 -5 46 9.1
-9 -8 -5 31.8 7.1
9 8 -5 20.9 7.8
9 -8 5 37.5 11.4
9 -9 -5 23.2 8.2
-9 9 -5 22.2 4.1
9 9 -5 11.6 5.8
-9 -9 -5 24.7 5.6
9 -9 5 25.2 9.9
10 0 5 0 2
10 0 -5 -1.8 1.5
10 0 -5 1.7 2.4
-10 0 -5 -0.7 2.9
-10 0 5 -1.6 1.5
10 -1 -5 69.79 8.5
-10 1 -5 62.19 12.1
10 1 5 68.49 9.9
10 -1 -5 67.19 10.1
-10 -1 5 71.29 8.8
-10 1 5 67.99 8.1
-10 -1 -5 63.49 10.1
-10 -1 -5 77.19 9.8
10 1 -5 69.69 10.3
10 1 -5 60.59 8.7
10 -1 5 54.49 10.6
-10 -2 5 14 4.5
10 2 5 11.1 4.2
10 -2 -5 14.9 4
-10 2 -5 13.8 6.1
10 -2 -5 15.6 5.9
10 -2 5 21.8 6.8
10 2 -5 10.3 4.1
10 2 -5 12.5 3.9
-10 2 5 13.1 3.6
-10 -2 -5 19.2 5.4
10 2 -5 16.6 5.5
10 3 5 216.78 19
-10 -3 5 234.08 21.7
-10 3 -5 213.58 23.3
10 -3 -5 200.68 22.7
10 3 -5 219.08 22.3
10 3 -5 255.47 19.5
10 3 -5 225.28 22
-10 3 5 230.68 19.2
-10 -3 -5 242.58 22.5
-10 4 -5 224.08 23.4
-10 -4 5 223.58 21.6
10 -4 -5 235.78 23.9
10 4 -5 202.48 21.3
-10 4 5 230.48 18.3
-10 -4 -5 229.88 22.3
10 4 -5 210.08 22.1
10 4 -5 232.18 19.2
10 -4 5 223.38 24.6
10 -5 -5 15.4 5.8
-10 -5 5 24.9 6.7
10 5 -5 17.9 4.7
10 -5 5 13.5 6.3
10 5 -5 19.6 3.9
-10 5 5 22.2 2.1
-10 -5 -5 30.2 7
-10 -5 -5 29.8 8.3
10 5 -5 27.7 8.1
-10 -6 5 419.76 35.2
-10 6 -5 381.46 33.8
-10 -6 -5 378.76 34.4
10 6 -5 374.36 35.5
-10 -6 -5 382.46 34.7
10 -6 5 405.56 39.2
10 -7 -5 39.3 10.9
-10 -7 5 57.69 10.7
-10 7 -5 40.5 5.8
10 -7 5 37.2 11.4
-10 -7 -5 47.4 9.4
-10 -7 -5 47.6 9.5
10 7 -5 44.8 9.9
-10 8 -5 10.2 3.4
10 -8 -5 17.2 7
-10 -8 -5 13.8 5.4
-10 -8 -5 12.3 6.4
10 8 -5 15.6 6.9
10 -8 5 20.4 9.1
-10 9 -5 -0.8 2.1
10 -9 -5 5.6 5.6
10 -9 5 -3.5 5.9
10 9 -5 5.3 4.8
11 0 -5 0.8 2.6
11 0 -5 -1.3 1.3
-11 0 -5 1.4 3.3
-11 0 5 -0.5 2.2
11 0 5 -0.8 1.9
11 1 5 338.57 30.7
11 -1 -5 350.96 32
-11 -1 5 338.47 29.3
-11 1 -5 322.47 32
11 -1 -5 324.27 28.9
-11 1 5 357.96 28.8
11 1 -5 338.17 31.7
-11 -1 -5 345.37 31.9
11 1 -5 314.17 29.4
11 -1 5 317.57 31.6
-11 -1 -5 359.16 30.5
11 -2 -5 1126.99 85.89
-11 -2 5 1129.79 86.99
11 -2 -5 1099.09 89.49
11 2 5 1143.19 87.09
-11 2 -5 1170.18 90.49
-11 -2 -5 1156.28 88.09
11 2 -5 1087.99 84.59
-11 -2 -5 1105.39 89.09
11 2 -5 1125.59 89.19
11 2 -5 1075.69 87.29
-11 2 5 1132.89 85.29
11 3 5 84.49 9.6
-11 3 -5 96.59 13.8
11 -3 -5 83.99 13.2
-11 -3 5 94.79 11.8
-11 3 5 106.79 9.8
-11 -3 -5 93.89 12.5
11 3 -5 74.29 11.2
11 -3 5 92.99 13.8
-11 -3 -5 82.49 11.6
11 3 -5 97.19 12.9
-11 -4 5 126.49 14
-11 4 -5 91.89 14
11 -4 -5 91.39 17.9
-11 -4 -5 96.79 13.1
11 4 -5 96.19 13.1
-11 -4 -5 98.49 13.5
11 4 -5 108.19 13.3
11 4 -5 121.99 10.9
11 -4 5 100.49 15.1
-11 4 5 112.19 10.3
11 -5 -5 83.99 13.2
-11 -5 5 83.09 11.6
-11 5 -5 81.49 12.1
11 5 -5 80.29 9.8
11 -5 5 71.59 14.7
-11 5 5 83.79 6.9
-11 -5 -5 73.79 11.4
-11 -5 -5 74.59 12.2
11 5 -5 60.69 7.8
11 5 -5 71.89 12.5
-11 6 -5 101.39 13
-11 -6 5 96.09 16.9
11 -6 -5 77.49 15.1
-11 -6 -5 101.79 12.8
11 -6 5 103.49 16.4
11 6 -5 77.59 13.9
-11 -6 -5 95.99 13.5
-11 -7 5 36.6 8.5
11 -7 -5 43.5 11.5
-11 7 -5 37.2 5.7
11 -7 5 44.4 12.4
11 7 -5 30.5 8.3
-11 -7 -5 40.3 9.6
-11 -7 -5 38.7 7.9
-11 8 -5 73.69 8.4
11 -8 -5 71.99 15.3
-11 -8 -5 67.69 12.4
11 -8 5 87.19 18.6
-11 -8 -5 98.89 11.4
11 8 -5 54.39 12.3
-11 9 -5 31.7 5.5
11 -9 -5 32 10.8
-11 9 -5 35.1 5
11 -9 5 40.4 13
-11 -9 -5 32.4 7.3
11 9 -5 40.7 12
-12 0 -5 -2 2
12 0 -5 -0.9 1.9
-12 0 5 -1.1 1.6
12 0 5 -2.8 1.8
-12 0 -5 -0.8 3.1
-12 1 -5 111.99 16.1
-12 -1 5 136.19 14.5
12 -1 -5 148.39 14.8
12 1 5 126.59 15.7
-12 -1 -5 127.59 16.6
12 -1 5 146.59 17.7
-12 -1 -5 145.79 15.7
12 1 -5 131.59 14.8
-12 1 5 139.69 22.7
12 1 -5 151.08 19.7
12 -2 -5 -0.9 1.9
12 2 5 -0.7 2.7
12 -2 -5 1.7 4
-12 -2 5 -3.5 1.7
-12 2 -5 4.4 4
-12 2 5 0.8 2.2
-12 -2 -5 0.9 3.1
12 2 -5 0.3 3.2
-12 -2 -5 0.5 2.3
12 2 -5 2.1 2.8
12 -2 5 6 4.5
12 -3 -5 26 7.9
-12 3 -5 12.3 6.1
-12 -3 5 22.1 6.2
12 3 5 19.3 4.9
12 3 -5 13.1 5.4
12 3 -5 18.2 4.1
12 -3 5 24.6 8.1
-12 -3 -5 20.6 6.6
-12 3 5 17.2 4.2
12 3 -5 15.7 6.6
-12 -3 -5 19 7.2
12 -4 -5 1.8 3.4
-12 4 -5 11.6 5.6
-12 -4 5 2.6 3.6
12 -4 5 1.8 4.8
-12 -4 -5 1.6 3.8
12 4 -5 7 3
12 4 -5 6.9 4.6
-12 -4 -5 10 5.4
12 4 -5 5.7 4.2
-12 4 5 9.6 3
12 -5 -5 122.99 17.7
-12 -5 5 125.79 15.8
-12 5 -5 131.19 16.7
12 5 -5 140.59 14.6
-12 -5 -5 136.59 16.8
12 -5 5 155.98 20
12 5 -5 119.39 12.2
-12 -5 -5 132.59 15.7
12 5 -5 114.99 15.7
-12 5 5 133.89 11.3
12 -6 -5 21.8 8.4
-12 -6 5 28.2 8.1
12 -6 5 18.5 8.3
-12 -6 -5 23 6.6
12 6 -5 26.9 8
-12 -6 -5 39.9 9.2
-12 7 -5 89.69 9.3
12 -7 -5 84.19 17.1
-12 -7 -5 107.09 14.8
12 7 -5 68.39 13.9
12 -7 5 90.19 18.3
-12 -7 -5 102.79 13.3
12 -8 -5 10.6 6.6
-12 -8 -5 16.9 7.3
12 8 -5 4.5 5.1
12 -8 5 9.3 8.8
-12 9 -5 9.6 3.5
-12 9 -5 12.2 2.9
12 -9 -5 10.7 8.8
12 9 -5 5.1 5.9
12 -9 5 18.2 11.2
-13 0 5 2.3 2.1
-13 0 -5 -0.8 3.3
-13 0 -5 1.4 2.2
13 0 5 -1.1 2.5
13 0 -5 -1.8 2.2
13 0 -5 2.1 2
-13 -1 5 76.09 10.1
13 -1 -5 71.99 13.9
-13 1 -5 81.19 12.8
13 -1 -5 65.19 10.9
13 1 5 77.19 11.5
13 1 -5 69.39 11.7
-13 -1 -5 88.79 12.8
-13 -1 -5 77.39 12.3
13 1 -5 74.59 12.1
-13 1 5 65.39 9.2
13 -1 5 68.59 14
13 -2 -5 1208.58 96.89
-13 2 -5 1196.98 97.09
13 2 5 1174.48 93.89
-13 -2 5 1277.07 94.09
-13 -2 -5 1163.48 94.39
-13 2 5 1234.48 98.29
-13 -2 -5 1206.38 96.59
13 2 -5 1185.88 95.99
13 2 -5 1187.48 94.19
13 -2 5 1182.58 97.09
-13 -3 5 806.62 63.59
13 3 5 752.42 61.39
13 -3 -5 761.22 66.09
-13 3 -5 733.83 65.59
-13 3 5 785.22 60.69
13 3 -5 744.33 64.89
13 3 -5 852.81 60.19
13 -3 5 783.12 66.89
-13 -3 -5 780.42 65.49
-13 -3 -5 800.42 64.29
13 3 -5 736.63 63.59
13 4 5 60.89 6.4
-13 -4 5 74.29 12.4
-13 4 -5 61.79 13.2
13 4 5 70.69 5.9
13 -4 -5 59.49 12.9
-13 4 5 60.79 7.7
-13 -4 -5 81.89 13.2
13 4 -5 55.49 11.6
-13 -4 -5 61.99 12.5
13 4 -5 61.69 11.9
13 4 -5 67.29 7.8
13 -4 5 51.29 13.1
-13 5 -5 -1.8 4.2
13 -5 -5 -5 2.5
-13 -5 5 -3.3 2.9
13 5 -5 -0.1 4
-13 5 5 1.8 1.8
13 5 -5 2.4 2.4
-13 -5 -5 0 4.8
-13 -5 -5 -1.4 3.5
13 -5 5 -1.7 3.6
13 5 -5 0.7 3.1
-13 -6 5 -3 3.7
13 -6 -5 2.8 4.7
-13 6 -5 4 4.9
13 -6 5 -1.7 3.4
13 6 -5 0 3.8
-13 -6 -5 2.2 4.8
-13 -6 -5 4.4 5.6
-13 7 -5 117.89 13.2
13 -7 -5 94.39 18.6
-13 -7 -5 70.69 13.1
13 -7 5 103.99 20.3
-13 -7 -5 110.89 15.6
13 7 -5 95.39 16.3
-13 8 -5 262.37 24.6
-13 8 -5 251.57 22.7
13 -8 -5 281.47 32.2
13 8 -5 280.87 35.4
13 -8 5 323.97 34.9
-13 -8 -5 287.87 29.6
-13 9 -5 14.5 3.4
13 -9 -5 24.6 9.6
-13 9 -5 15.7 4.3
13 -9 5 30.3 11.2
13 9 -5 2.5 5.8
14 0 -5 0.1 2.7
-14 0 5 2.7 2.8
-14 0 -5 -1.9 3.1
14 0 -5 1.6 3.6
-14 0 -5 -0.8 3.3
14 0 5 -0.2 3
14 1 5 120.19 15.3
-14 1 -5 126.69 17.3
-14 -1 5 124.49 14.1
14 -1 -5 102.99 15.8
14 -1 -5 99.69 13
-14 1 -5 116.89 14.4
-14 1 5 101.09 12.6
14 -1 5 108.39 15.9
-14 -1 -5 112.49 16.3
14 1 -5 125.49 16.5
14 1 -5 111.99 14.1
-14 -1 -5 127.19 14.9
-14 -2 5 93.79 12.7
-14 2 -5 103.79 15.5
14 -2 -5 110.19 15.9
14 2 5 98.69 13.6
-14 -2 -5 101.79 13.7
-14 2 5 101.69 11.9
14 -2 5 115.29 16.2
-14 -2 -5 94.09 14.1
14 2 -5 87.59 12.7
14 2 -5 100.89 14.8
-14 -3 5 55.89 10.6
14 -3 -5 56.89 13.5
14 3 5 56.29 8.9
-14 3 -5 66.29 13.4
-14 -3 -5 59.09 12.6
-14 3 5 71.59 14.5
-14 -3 -5 73.49 13.1
14 3 -5 59.19 12.1
14 3 -5 42 10
14 -3 5 57.79 13.5
14 3 -5 60.79 7.5
14 4 5 56.59 6.4
-14 4 -5 59.89 13.1
14 4 5 53.09 5.3
14 -4 -5 50.19 12.4
14 4 -5 44.6 10
14 -4 5 58.59 14
14 4 -5 29.2 9
14 4 -5 54.39 7
-14 -4 -5 48.9 11.8
-14 4 5 51.49 7.2
-14 -4 -5 48.4 10.9
14 -5 -5 51.29 12.5
-14 -5 5 35.1 9.3
-14 5 -5 58.09 12.3
14 5 -5 50.79 6.8
14 -5 5 60.99 14.2
-14 -5 -5 83.09 16.4
14 5 -5 49.6 11.2
-14 5 5 56.39 6.7
-14 -5 -5 58.99 12.9
14 5 -5 50.89 9.9
-14 6 -5 42.9 9.9
14 -6 -5 38.4 12.2
-14 -6 -5 38.6 9.3
14 6 -5 39.5 10.3
-14 -6 -5 49.5 11.4
-14 6 5 39.6 4.1
14 6 -5 40.1 4.4
14 -6 5 55.99 14.7
14 -7 -5 2.9 6.2
-14 7 -5 -1.5 3.9
-14 7 -5 -2.2 1.8
-14 -7 -5 -7 5.3
14 -7 5 6.8 6.7
14 7 -5 -0.7 4.1
-14 8 -5 83.99 11.5
-14 8 -5 74.29 10.9
14 -8 -5 78.39 17.5
14 -8 5 67.89 16.7
-14 -8 -5 117.19 15.2
14 8 -5 82.29 16
15 0 5 1.9 4.5
-15 0 -5 -3.1 3
15 0 -5 -3.1 2.1
-15 0 -5 -2.2 2.8
15 0 -5 -0.5 3.2
-15 0 5 -1.9 2.5
15 -1 -5 94.09 12.6
15 1 5 94.19 14.4
-15 -1 5 109.99 13.5
-15 1 -5 111.69 16.4
-15 1 -5 103.99 13.7
15 -1 -5 90.19 15.2
-15 -1 5 113.99 16.1
15 1 -5 98.59 13.6
-15 -1 -5 109.39 16
15 -1 5 107.99 16
-15 1 5 110.59 12.7
15 1 -5 93.29 14.9
-15 -1 -5 108.29 14.2
15 2 5 16.6 7.2
-15 2 -5 19 6.5
-15 -2 5 18.6 6.1
15 -2 -5 15.1 7.4
-15 2 -5 13.2 7.3
15 -2 5 15 7.6
15 2 -5 18 7.5
-15 2 5 15.8 5.2
-15 -2 -5 25 8.6
15 2 -5 15.4 5.9
-15 -2 -5 20 6.3
-15 -3 5 -4.2 3.5
15 3 5 -3.3 2.9
15 -3 -5 -0.8 4.1
-15 3 -5 -1.4 4.4
-15 -3 -5 2.8 3.5
15 3 -5 -0.8 2.1
15 -3 5 0.7 4.4
15 3 -5 1.3 3.7
-15 -3 -5 -1.4 4.1
-15 3 5 0.7 2.6
-15 4 -5 193.18 22.1
15 4 5 158.68 13.3
15 4 5 155.08 14.7
15 -4 -5 176.88 22.1
-15 -4 5 141.59 18
15 -4 5 163.18 22
15 4 -5 151.48 18.7
-15 -4 -5 144.19 24.2
-15 -4 -5 149.49 20.3
15 4 -5 158.38 14.8
15 4 -5 137.19 18.1
-15 5 -5 9.4 6.9
15 -5 -5 19.5 8.8
-15 -5 5 32.7 8.9
15 5 -5 20 6.2
-15 -5 -5 17 7.3
15 5 -5 25.6 8.6
-15 5 5 27.7 5.3
-15 -5 -5 38.7 10.5
15 -5 5 23.8 8.9
15 -6 -5 198.98 24.7
-15 6 -5 191.78 22.2
-15 6 -5 191.58 19.6
15 6 -5 145.39 14.4
15 -6 5 181.98 24.8
15 6 -5 164.48 21.3
-15 -6 -5 174.38 23.7
15 6 -5 173.38 15.4
-15 6 5 197.48 14.7
-15 -6 -5 196.48 25.2
-15 7 -5 31.4 7.1
15 -7 -5 16.9 10.3
15 -7 5 20.8 9.8
-15 -7 -5 36.8 11.2
15 -8 -5 -3.4 6.4
-15 8 -5 -0.8 4
-15 8 -5 6.9 5.5
15 8 -5 1.6 5.2
15 -8 5 5.3 7.8
-15 -8 -5 22 8.7
-16 0 -5 -3.5 2.5
-16 0 5 1.7 3.3
16 0 -5 -2.9 2.9
16 0 -5 -0.6 3.9
-16 0 -5 -2.7 3.8
16 0 5 -1.4 3.4
16 1 5 358.06 35.2
16 -1 -5 393.06 33.5
-16 1 -5 335.77 33.1
16 -1 -5 351.96 36.5
-16 -1 5 420.66 38
-16 1 -5 341.47 36.6
-16 -1 5 359.56 32.9
16 1 -5 350.86 33.4
-16 -1 -5 358.36 36.6
16 1 -5 337.57 35.6
-16 -1 -5 354.56 34
-16 1 5 354.16 32
16 -1 5 342.07 36
16 -2 -5 31.9 9.9
-16 2 -5 35.3 8.8
16 2 5 22.4 7.7
-16 -2 5 53.39 10.3
-16 2 -5 29.6 10.6
-16 -2 -5 21.8 9.2
16 2 -5 43.6 11
16 -2 5 31.8 10.5
16 2 -5 31.7 8.6
-16 2 5 33.1 7.5
-16 -2 -5 38.9 9.3
16 -3 -5 3.9 5.6
-16 3 -5 -6.7 2.8
-16 3 -5 3.7 6.4
-16 -3 5 7.7 4.4
16 3 -5 0.9 4
-16 -3 -5 -1.2 4.3
16 -3 5 5.2 6.3
16 3 -5 2.4 4.3
-16 3 5 6.5 3.3
16 3 -5 -0.1 2.5
-16 -3 -5 9.9 6.4
16 4 5 96.09 10.7
16 -4 -5 73.69 16.5
-16 4 -5 102.29 13.9
-16 4 -5 102.39 15.8
-16 -4 5 97.59 15.7
16 4 5 82.49 8.5
-16 4 5 82.59 10.4
16 -4 5 91.29 18.5
16 4 -5 82.09 13.5
16 4 -5 89.29 16.1
-16 -4 -5 98.99 17.8
16 4 -5 82.99 9.9
-16 -4 -5 96.79 15.9
-16 5 -5 27.8 7.4
-16 5 -5 26 9.2
16 -5 -5 26.3 9.9
16 5 -5 26.3 5.3
16 -5 5 16.9 8.5
16 5 -5 19 7.4
16 5 -5 25.6 8.4
-16 5 5 23.9 5.1
-16 -5 -5 33.2 9
-16 -5 -5 16.2 8.9
-16 6 -5 3.4 6.1
16 -6 -5 9.7 7.6
-16 6 -5 0.7 4.6
16 6 -5 3.1 2.3
16 6 -5 4.2 2.6
16 6 -5 3.5 5.3
16 -6 5 -5.3 4.6
-16 6 5 6.6 2.4
-16 -6 -5 3.8 6.5
16 -7 -5 43.8 14.6
-16 7 -5 66.29 10.8
16 7 -5 62.89 14.1
16 -7 5 62.49 16.9
-16 -7 -5 72.39 15.9
16 -8 -5 44.9 14.3
-16 8 -5 22.3 6.6
-16 8 -5 36.5 5.5
16 -8 5 22 10.1
16 8 -5 15.3 9.3
-17 0 5 0.7 3.3
-17 0 -5 2.4 4.6
17 0 -5 7.2 5.8
17 0 5 0.6 4.1
-17 0 -5 -0.5 4.6
17 0 -5 7.3 4.2
-17 1 -5 28.6 12.4
17 -1 -5 26.3 9.4
-17 -1 5 29.4 7.7
-17 1 -5 19.4 7.6
17 1 5 27.5 9.1
-17 1 5 42.2 8.7
-17 -1 -5 31.4 9.3
17 1 -5 12.2 5.9
17 1 -5 22 8.4
17 -1 5 27.4 9.8
-17 2 -5 -1.1 4.6
17 -2 -5 4.3 4.4
17 2 5 -0.9 3.1
-17 2 -5 -3.1 3.2
-17 -2 5 1.5 3.2
17 2 -5 2.4 3.5
17 -2 5 -0.3 4.3
-17 2 5 -0.6 3
-17 -2 -5 0.3 4.9
17 2 -5 -2.8 2.4
-17 -2 -5 3.6 3.6
-17 3 -5 21 7.2
17 3 5 21.3 7.2
-17 3 -5 14.2 6.9
17 -3 -5 30.3 10.6
-17 -3 -5 22.7 8.2
17 3 -5 17.7 6.9
17 -3 5 12.9 7.5
-17 3 5 22.8 5.7
17 3 -5 19.4 5.2
17 3 -5 16.3 8.3
-17 -3 -5 27.3 8.3
17 -4 -5 7.9 5
17 4 5 9.7 4.3
-17 4 -5 16.1 6.6
17 4 5 9.9 2.9
17 4 -5 8 3.6
-17 4 5 10.3 4.3
17 -4 5 19.2 8.7
-17 -4 -5 7.3 5.7
17 4 -5 5 5
17 4 -5 6.9 5.5
-17 -4 -5 11.4 7.5
17 -5 -5 40.5 13.3
-17 5 -5 44 12.9
-17 5 -5 40.6 9.5
-17 -5 -5 32.8 11.3
17 5 -5 34.5 9
17 -5 5 37.1 11.8
17 5 -5 40.4 11.1
17 5 -5 25.3 5.7
-17 5 5 47.3 7.4
17 -6 -5 16.4 8.9
-17 6 -5 13.7 5.6
-17 6 -5 4.4 6.7
17 6 -5 13 7.7
-17 6 5 10.4 3.1
17 -6 5 -0.2 6.5
-17 -6 -5 19.4 7.9
17 6 -5 5.7 3.2
-17 7 -5 16.8 6.4
17 -7 -5 11.7 9.3
17 -7 5 15.8 9.3
17 7 -5 19.4 8
-17 8 -5 11.2 6.4
-17 8 -5 7.7 2.8
17 -8 -5 6 8.6
17 8 -5 -0.5 4.9
17 -8 5 0 8.1
-18 0 5 2 3.4
18 0 -5 -5.5 2.7
18 0 -5 -3.2 3.5
18 0 5 -2.4 3.6
-18 0 -5 0.5 3.4
-18 -1 5 7.4 4.8
18 -1 -5 -2.2 4.2
18 1 5 0.5 4
-18 1 -5 0.7 4.8
18 1 -5 -2.4 3.5
-18 1 5 3.8 3.6
18 1 -5 -3.3 2.4
18 -1 5 -3.6 4.2
-18 -1 -5 -1.5 5.3
-18 2 -5 -5.2 3.4
18 -2 -5 -4.1 3
18 2 5 1.9 4.2
-18 2 -5 1.2 5.7
18 2 -5 -1.1 3.8
-18 -2 -5 1.9 5.5
18 2 -5 -1.1 3.8
-18 2 5 7.2 3.9
18 -2 5 -5.4 4.1
-18 3 -5 264.17 26.2
-18 3 -5 238.28 29.3
18 -3 -5 238.08 29.2
-18 3 5 252.97 23.9
-18 -3 -5 252.17 29.4
18 3 -5 259.17 22.4
18 3 -5 213.38 25.4
18 -3 5 221.28 28.9
-18 -3 -5 232.18 29.4
18 3 -5 230.68 27.1
18 4 5 9.6 3.7
-18 4 -5 17.5 6.8
18 4 5 16.7 5.6
-18 4 -5 26.7 10.4
18 -4 -5 18.9 7.9
18 -4 5 18.6 9
18 4 -5 11.5 6.3
-18 4 5 24.8 6.3
18 4 -5 8.4 6.3
-18 -4 -5 11.6 8.2
18 4 -5 12.7 4.5
-18 5 -5 147.09 21.3
18 -5 -5 163.78 23.1
-18 5 -5 132.09 17.9
18 5 -5 134.89 17.5
-18 5 5 153.48 15.3
18 -5 5 155.68 23.1
18 5 -5 126.89 23.9
18 5 -5 140.79 14.4
-18 6 -5 95.29 17.6
-18 6 -5 108.09 15
18 -6 -5 138.89 24.2
18 6 -5 105.79 19
18 6 -5 96.89 10.4
-18 6 5 129.19 11.6
18 6 -5 93.09 11.6
-18 7 -5 12.8 6.6
18 -7 5 6.4 7.4
18 7 -5 -3.7 6.1
19 0 5 -5.1 4.4
-19 0 -5 3.9 5.1
-19 0 5 0.2 3.1
19 0 -5 4.2 4.6
-19 1 -5 276.37 28.5
-19 -1 5 281.87 28
19 -1 -5 291.07 32.6
-19 1 -5 288.27 33.4
19 1 5 247.78 29.9
-19 1 5 282.07 27.3
-19 -1 -5 331.67 38
19 1 -5 233.28 30.1
19 1 -5 260.07 28.3
19 -1 5 298.27 32.3
-19 2 -5 13.9 5.8
19 -2 -5 3.1 4.2
19 2 5 8.2 5.5
-19 2 -5 10.2 8.1
19 -2 5 12.6 8.3
-19 2 5 16.9 5.8
19 2 -5 15.2 6.5
19 2 -5 11.7 8.2
-19 3 -5 304.17 33.7
-19 3 -5 262.97 28.3
19 -3 -5 286.97 33.3
19 3 5 315.47 29.9
-19 3 5 278.37 26.8
19 3 -5 283.17 27.1
19 3 -5 253.17 30
19 3 -5 255.07 29.1
19 -3 5 263.17 32.4
-19 4 -5 36.2 11.9
-19 4 -5 32.6 8.7
19 -4 -5 22.9 10
19 4 5 26.5 5.1
19 4 5 17.4 8.9
-19 4 5 25.9 6.2
19 4 -5 18 7.6
19 4 -5 20.9 7.6
19 4 -5 23.3 5.8
19 -4 5 9.6 9
19 -5 -5 6.1 7.6
-19 5 -5 6.7 5.4
-19 5 -5 -4 8.7
19 5 -5 3.8 5
19 5 -5 0.5 4.4
19 -5 5 -0.2 4.9
19 5 -5 -1.4 3.3
-19 6 -5 221.78 26
19 -6 5 166.48 25.7
19 6 -5 156.48 15
-19 6 5 160.18 16.6
19 6 -5 156.88 16.7
19 6 -5 153.88 21.9
-19 7 -5 25.9 8
19 -7 -5 38.4 11.9
-19 7 5 24.9 3.2
19 -7 5 24.3 11.9
19 7 -5 19.3 9.6
20 0 5 0 4.9
-20 0 5 1.8 3.8
20 0 -5 5.4 6
20 1 5 28.3 10.8
-20 1 -5 16.6 8.2
20 -1 -5 18.3 8.6
20 1 -5 18.2 7.7
20 1 -5 21.6 9.7
-20 1 5 21.2 7.2
20 -1 5 21.2 10
20 2 5 -4.7 4.3
-20 2 -5 -9.9 4.1
20 -2 -5 2.1 6
20 2 -5 -4.3 2.7
20 2 -5 -4.3 3.5
20 -2 5 4 5.4
20 -3 -5 16.4 8.9
-20 3 -5 22.5 8.7
20 3 5 6.9 6.2
20 -3 5 15.3 9.1
20 3 -5 13.3 4.7
20 3 -5 22 8.8
20 3 -5 8 7.5
-20 3 5 21.1 6.7
20 4 5 7.3 4.8
20 4 5 7.2 3.1
20 -4 -5 10.1 8.7
-20 4 -5 24.7 8.1
20 -4 5 8.9 8.2
20 4 -5 8.9 4.5
-20 4 5 16.3 5.2
20 4 -5 2.2 6
20 4 -5 4.9 5.6
20 5 5 8.4 2.5
-20 5 -5 12.4 6.8
20 5 5 8.6 2.5
20 5 -5 10.7 6.6
20 -5 5 11.4 8.8
-20 5 5 15.8 4.8
20 5 -5 7.4 4.9
20 5 -5 7 6.1
-20 6 -5 12.3 6.9
20 -6 -5 4.2 7.1
-20 6 -5 -4.5 10.2
20 6 -5 -2.7 3.5
20 -6 5 5.5 9
-20 6 5 -0.8 3.8
20 6 -5 3 5.1
20 -7 -5 0.4 8.9
-20 7 5 5.1 1.9
20 7 -5 2.2 6.9
20 -7 5 12.6 10.6
21 0 -5 0 5.8
21 0 5 0.6 6.1
21 1 5 468.25 47.4
21 -1 -5 474.75 49.5
21 1 -5 465.45 48.7
-21 1 5 535.15 45
21 2 5 17.6 9.2
21 -2 -5 15.7 8.3
-21 2 5 20.6 7
21 2 -5 10.1 7.7
21 2 -5 19.8 7.8
21 -2 5 25.9 10.9
21 -3 -5 48.5 15.2
21 3 5 52.09 12
21 3 -5 47.7 13
21 -3 5 39.8 13.3
21 3 -5 33.8 11.4
21 3 -5 36.1 7.7
-21 3 5 54.69 11.1
21 4 5 120.89 15.5
21 -4 -5 103.39 26.8
21 4 -5 117.69 17.7
21 4 -5 91.89 18.1
-21 4 5 124.29 15.1
21 4 -5 116.79 13.5
21 -4 5 135.59 25.2
21 5 5 98.59 9.5
21 5 5 94.79 8.8
21 -5 -5 84.39 20.8
21 -5 5 94.59 22.1
-21 5 5 92.49 12.6
21 5 -5 71.29 14.6
21 5 -5 87.99 11.5
21 5 -5 112.69 19.4
21 -6 -5 27.1 12.1
-21 6 5 13.9 4.7
21 6 -5 17.8 9.6
21 -6 5 23.6 11.9
22 0 5 9.7 6.6
22 0 -5 4.4 6
22 -1 -5 129.89 24.7
22 1 5 107.39 21
22 -1 5 139.39 21.3
22 1 -5 128.39 20.4
22 2 5 195.78 24.5
22 2 -5 193.68 26.5
22 3 5 150.28 19.9
22 -3 -5 161.58 25.1
22 3 -5 161.58 21.8
22 3 -5 138.99 20.1
-22 3 5 148.79 18.3
22 -3 5 123.39 25.3
22 4 5 30.4 5.9
22 4 5 28.7 8.9
22 -4 -5 18.9 11
-22 4 5 54.49 9.5
22 4 -5 36 8.5
22 4 -5 41.5 11.7
22 4 -5 39 11.9
22 -4 5 34.7 13.7
22 5 5 -0.3 2.8
22 5 5 -4.8 2.5
22 -5 -5 4.5 8.3
22 5 -5 -7.2 4.5
22 5 -5 3.7 6.2
22 5 -5 5.2 5.8
22 -5 5 3.3 7.2
-22 5 5 1.5 5.1
22 -6 -5 34.5 13.4
22 6 -5 20.1 6.5
-22 6 5 22.2 6.4
22 -6 5 14.1 10
23 0 5 -1.4 5.4
23 -1 -5 293.77 36.8
23 1 5 335.77 37
23 -1 5 310.67 42.2
23 1 -5 337.57 38.6
23 -2 -5 32.1 13.1
23 2 5 19 8.9
23 2 -5 14.8 8.9
23 -2 5 25 12.2
23 -3 -5 -0.4 6.6
23 3 5 18.8 7.4
23 -3 5 4.7 7.2
23 3 -5 4.7 6.6
23 4 5 63.29 12.5
23 -4 -5 79.09 21
23 4 -5 51.19 14.4
23 -4 5 64.99 18.3
-23 4 5 69.29 12.6
23 5 5 51.79 7.3
23 -5 -5 55.69 17.5
23 5 5 61.69 8.4
-23 5 5 52.59 10.9
23 5 -5 61.39 12.7
23 -5 5 51.29 16.2
24 0 -5 -0.6 6.4
24 0 5 8.8 8.3
24 -1 -5 28.1 11.9
24 1 5 38.5 12.2
24 -1 5 34.1 13.1
24 1 -5 33.9 12.6
24 2 5 10.4 7.3
24 -2 -5 16.4 9.7
24 -2 5 17.8 9.8
24 2 -5 1.2 7
24 3 5 81.39 15.9
24 -3 -5 66.89 19.1
24 -3 5 113.99 23.5
24 4 5 5.2 5.6
24 4 5 1.7 5.2
24 -4 -5 20.3 10.1
24 -4 5 7.8 8.7
24 4 -5 2 7.4
24 -5 -5 6.9 7
24 -5 5 2.6 7.8
-24 5 5 2.1 7.7
24 5 -5 -9.5 5.8
24 5 -5 9.1 5.7
25 0 5 -0.3 6.1
25 0 -5 -1 6
25 -1 -5 17.9 11
25 1 5 28 11.2
25 -1 5 32.3 13.3
25 1 -5 21.4 10.8
25 2 5 59.19 26.1
25 -2 -5 49.8 16.8
25 -2 5 57.49 17.7
25 2 -5 38.4 14.1
25 3 5 6.1 6.5
25 -3 -5 0.1 7.9
25 3 -5 12.3 9.3
25 -3 5 0 7.1
25 4 5 3.6 6.1
25 -4 -5 14.6 11.3
25 -4 5 11.8 10
26 0 5 7.6 7.1
26 0 -5 5.8 7.5
26 1 5 8.7 10
26 -1 -5 15.9 8.4
26 1 -5 16.5 10.5
26 -1 5 0 7.9
26 -2 -5 13.4 8.9
26 2 5 18 10.2
26 -2 5 18.6 10
26 2 -5 20.4 11
26 3 5 4.6 6.6
26 -3 -5 5.9 9.1
26 -3 5 12.2 8.8
26 3 -5 5 8.3
27 0 -5 5.3 6.7
27 0 5 -0.8 6.2
27 -1 -5 39.1 14.4
27 1 5 28.9 12.7
27 1 -5 40.9 14.4
27 -1 5 21.8 11.3
27 2 5 -3.5 7.2
27 -2 -5 6.2 8.6
27 -2 5 0.7 8
27 2 -5 0.4 7.6
0 0 6 2837.02 226.08
0 0 -6 3025.7 224.48
0 -1 -6 -0.1 0.5
0 1 -6 0.9 1.5
0 1 -6 -0.1 0.7
0 -1 6 -0.4 1.6
0 2 -6 187.48 16.1
0 -2 6 225.38 18.1
0 2 -6 179.08 17.5
0 3 -6 1.1 1.2
0 3 -6 -1 1.6
0 -3 6 -1.3 1.8
0 -4 -6 306.07 24.3
0 -4 6 378.06 28.5
0 4 -6 323.67 26.1
0 4 -6 277.17 26.3
0 5 -6 -1.9 1.1
0 -5 6 1.4 3
0 -5 -6 1.6 0.9
0 5 -6 0.6 1.9
0 5 -6 1 1.4
0 -6 6 103.69 12.5
0 6 -6 95.69 10.9
0 -7 -6 0 1.1
0 -7 6 -2.1 2.6
0 -8 -6 9.5 2.9
0 8 -6 10.9 3.9
0 -8 6 17.3 5.9
0 -9 -6 0.7 1.8
0 -9 6 -2.7 3.6
0 9 -6 0.8 3.2
0 -10 6 30.2 7.8
0 -10 -6 16.9 3.7
0 10 -6 8.6 5.2
-1 0 -6 74.79 7.9
1 0 -6 73.19 7
1 0 -6 81.29 7.3
-1 0 6 84.29 7.4
1 1 6 418.36 32.5
-1 1 -6 393.36 34.6
1 1 -6 403.06 33.8
1 -1 6 496.25 35.2
-1 -1 -6 466.25 33
-1 2 -6 602.14 51.59
-1 2 -6 672.93 49.8
1 2 -6 628.44 51.19
1 2 -6 679.03 50.39
1 -2 6 720.03 52.19
-1 -3 6 39.4 5.8
-1 3 -6 29.5 4.4
-1 -3 6 29.9 4.7
-1 3 -6 24.3 5.5
1 3 -6 19.5 4.9
1 3 -6 20.9 4.3
1 -3 6 21.8 5.3
1 -4 -6 580.64 42.5
-1 4 -6 542.95 45.6
-1 4 -6 600.94 44.8
1 4 -6 525.75 45.2
1 -4 6 639.34 47.5
1 4 -6 576.34 45.3
-1 -4 -6 579.04 43.8
-1 5 -6 105.89 10.9
-1 -5 6 138.69 13.5
-1 5 -6 112.79 11.3
1 -5 6 131.89 13.8
1 5 -6 110.49 11.9
1 5 -6 107.59 10.4
1 5 -6 112.89 10.3
-1 -5 -6 107.89 9.9
-1 6 -6 295.87 26.4
-1 -6 6 360.06 28.7
1 -6 6 324.67 28.8
1 6 -6 268.27 26.6
-1 -6 -6 318.27 24.1
1 -7 -6 5.8 2.4
-1 -7 6 8.6 5
1 7 -6 1.1 2.7
-1 -8 6 92.19 11.4
1 -8 -6 71.79 8.6
-1 8 -6 65.29 9.5
1 8 -6 73.59 10.5
1 -8 6 81.19 11.6
-1 -8 -6 72.49 7.1
-1 -9 6 6.6 4.4
-1 9 -6 0.2 3.1
1 -9 -6 1.4 2.8
1 -9 6 -1.3 3.9
1 9 -6 -2.8 2.5
-1 -9 -6 2.2 1.4
-1 10 -6 78.89 10
-1 -10 6 76.89 11.9
1 -10 -6 62.69 7.9
1 -10 6 85.89 12.3
1 10 -6 69.49 11.4
-1 -10 -6 68.19 6.9
-2 0 6 804.52 53.59
-2 0 -6 640.64 54.49
2 0 -6 711.53 53.49
2 0 -6 621.24 53.09
2 0 6 797.32 54.69
2 -1 -6 200.88 16.9
-2 -1 6 229.48 17.8
-2 1 -6 184.28 18.9
2 1 6 241.28 17.2
-2 -1 6 260.17 18.5
2 1 -6 223.68 17.9
2 1 -6 205.48 17.8
-2 -1 -6 202.78 17.5
2 -1 6 196.28 18.8
-2 -2 6 244.68 18.7
2 -2 -6 240.38 17.2
-2 2 -6 197.48 19.9
-2 -2 -6 241.58 17.2
2 2 -6 209.08 18.9
2 2 -6 207.68 18.6
2 -2 6 197.68 19.8
-2 -3 6 145.19 11.5
-2 3 -6 117.29 10.3
2 -3 -6 119.59 8.9
-2 3 -6 95.49 11.9
2 -3 6 124.59 12.9
2 3 -6 108.29 11.5
-2 -3 -6 96.99 10.4
2 3 -6 114.69 11.3
-2 4 -6 436.36 37.6
-2 4 -6 487.45 36.3
2 4 -6 488.35 37.4
-2 -4 -6 467.75 36.1
2 4 -6 410.06 36.7
2 -4 6 493.95 39.3
-2 5 -6 78.09 9.4
-2 -5 6 121.49 10.8
-2 -5 6 128.49 12.4
-2 5 -6 100.29 10.3
2 5 -6 80.69 8.9
2 5 -6 98.09 9.1
2 -5 6 101.09 12.3
2 5 -6 98.39 10.9
-2 -5 -6 100.99 9.3
-2 -6 6 106.79 11.4
-2 6 -6 71.39 8.9
2 -6 -6 78.69 8.2
-2 -6 -6 75.79 7.7
2 -6 6 80.99 11.5
2 -7 -6 0.4 2
-2 -7 6 -1.1 3.2
-2 7 -6 1.2 2.2
2 7 -6 2.1 2.9
-2 -7 -6 -0.3 1.4
2 -7 6 -3.8 2.6
-2 8 -6 -3.2 2.2
2 -8 -6 2.2 2.6
-2 -8 6 3.8 4.5
2 -8 6 5.1 4.8
2 8 -6 -0.8 2.7
-2 -8 -6 2.4 1.3
2 -9 -6 22.8 5.1
-2 9 -6 18.1 5.2
-2 -9 6 23.3 6.7
2 -9 6 18.4 7
2 9 -6 28.3 6.7
-2 -9 -6 18.8 2.9
-2 -10 6 -5.3 4.3
-2 10 -6 1 3
2 -10 6 -1.6 4.6
2 10 -6 2 4
3 0 6 1265.17 90.49
3 0 -6 1163.78 89.29
-3 0 -6 1128.29 90.69
-3 0 6 1248.18 89.09
3 -1 -6 456.85 35.6
-3 -1 6 482.75 36.3
-3 -1 6 503.35 36.5
-3 1 -6 426.16 37.9
-3 -1 -6 441.06 36.6
3 1 -6 466.25 36
3 -1 6 448.76 37.8
3 1 -6 437.86 36.4
-3 1 6 547.05 35.6
3 -2 -6 1258.77 96.59
-3 2 -6 1216.78 99.89
-3 -2 6 1458.85 98.29
3 2 -6 1309.67 98.59
-3 -2 -6 1355.66 97.29
3 -2 6 1312.07 100.19
3 2 -6 1295.47 98.19
-3 3 -6 1174.68 98.29
-3 -3 6 1507.75 97.19
3 -3 -6 1168.68 94.19
3 3 -6 1264.87 97.29
-3 -3 -6 1214.78 96.59
-3 -3 -6 1483.75 94.59
3 -3 6 1303.97 99.09
3 3 -6 1208.08 96.99
-3 4 -6 4939.11 348.17
-3 4 -6 4441.66 350.16
3 -4 6 5049.09 352.16
-3 -4 -6 4781.12 348.77
3 4 -6 4812.62 349.87
3 4 -6 5032.1 349.67
3 4 -6 4283.67 348.87
-3 5 -6 193.68 17.5
-3 5 -6 193.88 16.6
3 5 -6 172.78 15.8
-3 -5 -6 204.08 16.9
3 5 -6 190.88 16
3 5 -6 180.88 17.9
3 -5 6 206.58 20.1
3 -6 -6 398.46 30.9
-3 6 -6 358.06 30.6
3 -6 6 368.26 34.1
3 6 -6 365.96 32.3
-3 -6 -6 388.26 30.2
-3 -7 6 68.79 9.2
3 -7 -6 41 6.4
-3 7 -6 42.7 7.2
-3 -7 -6 41.7 5.4
3 7 -6 32.3 7.4
3 -7 6 35.4 8.8
-3 -8 6 54.19 9.6
3 -8 -6 37.1 7.3
3 8 -6 37.2 8.6
-3 -8 -6 45.3 4.3
3 -8 6 50.09 10.4
-3 -8 -6 42.5 5
-3 9 -6 3.4 3.2
-3 -9 6 7.3 4.3
3 -9 -6 4 3.7
-3 -9 -6 3.4 1.4
3 9 -6 3.9 3.9
3 -9 6 9.4 5.1
-3 -10 6 27.7 7.9
3 -10 -6 17.4 5.3
3 10 -6 15.3 6
3 -10 6 27.9 7.4
-4 0 -6 607.94 51.49
-4 0 6 693.63 49.8
4 0 -6 640.84 49.9
4 0 6 681.33 51.29
-4 1 -6 542.85 45.9
4 1 6 663.23 44
-4 -1 6 577.74 43.8
4 -1 -6 498.65 43
-4 1 6 606.64 43
4 1 -6 531.75 44
4 -1 6 551.24 45.5
4 1 -6 578.24 43.3
-4 -1 -6 568.24 44.7
4 -2 -6 47.8 5.4
-4 2 -6 49.99 7.8
-4 -2 6 70.89 7.2
-4 -2 6 59.69 6.7
4 2 -6 59.59 7.1
4 2 -6 61.99 6.6
-4 2 6 66.69 5.4
-4 -2 -6 63.49 6.8
4 -2 6 53.19 8.2
4 -3 -6 3.1 0.9
-4 -3 6 6.9 2.6
-4 3 -6 4.3 3.2
-4 -3 6 3.2 2.2
4 3 -6 4.2 2.4
4 -3 6 6.1 3.8
4 3 -6 6.2 2.3
-4 -3 -6 5.7 2.5
4 3 -6 5.8 2.5
-4 -3 -6 2.5 1.5
-4 4 -6 12.8 3
-4 -4 6 24.3 5.1
-4 -4 6 16.1 7.1
-4 4 -6 23.2 5.6
4 4 -6 13.6 4
4 4 -6 10.5 3.5
-4 -4 -6 13.9 2.3
4 -4 6 16.1 5.5
4 4 -6 13.4 3.7
-4 -4 -6 16.6 4.1
-4 5 -6 227.68 19.4
4 -5 -6 247.98 20.6
-4 -5 6 292.57 21.5
-4 5 -6 222.38 20.8
4 5 -6 198.78 18.8
4 -5 6 249.18 23.6
-4 -5 -6 238.88 17.4
-4 -5 -6 238.38 20.3
4 5 -6 212.28 19
4 5 -6 226.88 21.9
-4 6 -6 28.1 5.1
4 -6 -6 26.3 5.4
-4 -6 6 35.5 7
-4 -6 6 27.9 6
4 -6 6 33.1 8.2
4 6 -6 17.3 5.3
-4 -6 -6 21.8 2.6
-4 -6 -6 31.5 5.4
4 -7 -6 -2.7 2.1
-4 -7 6 2.7 2.7
-4 7 -6 -3.8 1.5
4 7 -6 -0.7 2.6
-4 -7 -6 -1 1.1
-4 -7 -6 -0.9 0.7
-4 -7 -6 0 1.6
4 -7 6 -1.4 3.4
4 -8 -6 15.1 5.1
-4 8 -6 17.1 4.9
-4 -8 6 21.4 6.2
4 8 -6 14 5.5
4 -8 6 20 8
-4 -8 -6 16.5 2.2
-4 -8 -6 16.4 3.4
4 -9 -6 19.6 6.7
-4 -9 6 25.7 6.7
4 9 -6 26.8 7
4 -9 6 13.2 6.5
4 -10 -6 12.4 4.9
-4 -10 6 13.8 6.6
-4 10 -6 20.1 4.2
4 10 -6 16.9 5.8
4 -10 6 19.6 7.1
5 0 6 4343.37 312.87
-5 0 -6 4157.48 313.37
-5 1 -6 18.7 5.2
5 1 6 27.2 5
5 -1 -6 29.1 3.7
-5 -1 6 21.3 4
5 1 -6 28.1 3.7
5 -1 6 26.3 5.8
-5 -1 -6 24.8 5.4
-5 1 6 23.7 3.3
5 1 -6 24.2 4.5
-5 -2 6 302.17 23.5
5 -2 -6 253.27 22.2
-5 -2 6 287.47 23.7
-5 2 -6 242.08 25.2
5 -2 6 278.57 25.8
5 2 -6 321.67 23.3
-5 2 6 308.07 22
-5 -2 -6 282.87 23.9
5 2 -6 269.07 24
-5 -3 6 64.09 7.1
-5 3 -6 54.49 8.2
-5 -3 6 47.8 6.6
5 -3 -6 46.9 4.7
5 -3 6 51.79 9.8
5 3 -6 52.09 7.4
-5 -3 -6 49.2 6.8
-5 -3 -6 49.9 6.1
5 3 -6 44.6 7.7
5 3 -6 50.89 6.3
-5 -4 6 195.88 15.8
5 -4 -6 169.18 15.5
-5 4 -6 135.09 15.9
5 -4 6 166.78 17.9
5 4 -6 132.39 14.2
5 4 -6 163.78 15.5
-5 -4 -6 160.48 13.6
5 4 -6 153.18 15.8
-5 -4 -6 163.18 15.2
-5 5 -6 44.3 5.5
-5 -5 6 55.39 7.2
-5 5 -6 46.8 7.4
5 -5 -6 46.3 6.9
-5 -5 -6 48.3 5.2
5 5 -6 44.1 8
5 5 -6 47 5.9
5 -5 6 52.69 10.4
5 5 -6 39 5.3
-5 -5 -6 39.7 6.9
5 -6 -6 528.15 41.7
-5 6 -6 468.05 39.2
-5 6 -6 519.95 38.9
5 6 -6 477.05 42
5 -6 6 578.74 54.69
-5 -6 -6 497.25 40.3
-5 -6 -6 482.25 38.5
5 -7 -6 11.7 4.4
-5 7 -6 4.5 2.6
-5 -7 6 6 3.5
-5 -7 6 16.4 5.4
-5 -7 -6 12.4 3.9
-5 -7 -6 14.6 3.3
5 -7 6 9.6 4.9
5 7 -6 7.4 4.7
-5 -8 6 176.78 16.7
-5 8 -6 141.39 14.7
5 -8 -6 139.09 16.6
5 8 -6 165.78 18
5 -8 6 159.38 19.5
-5 -8 -6 147.59 14.2
5 -9 -6 6.6 4.4
-5 9 -6 5.6 3.1
-5 -9 6 3.2 4.4
5 9 -6 3.3 4.1
5 -9 6 2.4 4.3
-5 -9 -6 -2 2
-5 -10 6 138.89 15.3
-5 10 -6 114.89 12.8
5 -10 6 148.69 18.7
5 10 -6 116.29 16.7
6 0 6 1.6 2
6 0 -6 -1.3 1.1
-6 0 6 3.6 1.9
-6 0 -6 0 1.4
6 -1 -6 560.14 45.1
-6 -1 6 592.14 45.8
6 1 6 603.74 46.3
-6 1 -6 578.74 48.3
-6 1 6 584.54 44.8
6 1 -6 582.74 46.2
-6 -1 -6 598.64 47.4
6 1 -6 557.84 44.8
6 -1 6 595.34 48
6 1 -6 643.54 48.3
-6 -2 6 60.99 7.6
6 -2 -6 60.09 6.6
6 2 6 72.89 6.7
-6 2 -6 55.79 9.2
6 2 -6 47 7.5
6 2 -6 74.79 7.2
6 -2 6 60.69 9.3
-6 2 6 70.89 6.4
-6 -2 -6 63.99 8.2
6 2 -6 73.19 9.3
-6 -3 6 673.63 47.3
-6 3 -6 550.34 49.3
6 -3 -6 615.04 48.5
6 -3 -6 573.94 45.1
-6 -3 -6 571.64 47
-6 3 6 687.83 44.7
6 3 -6 572.24 48.5
6 -3 6 572.34 50.09
-6 -3 -6 597.14 48
6 3 -6 596.94 46.6
6 3 -6 579.74 48.2
-6 -4 6 6.6 3
-6 -4 6 15.5 4.2
-6 4 -6 7.9 4.2
6 -4 -6 5.3 3.2
-6 -4 -6 10.6 3.2
6 4 -6 8.7 3.6
6 4 -6 11.7 4.1
6 -4 6 9.4 5.3
-6 -4 -6 13.8 4
6 4 -6 10.8 3.3
6 -5 -6 67.09 8.9
-6 5 -6 64.19 9
-6 -5 6 69.59 8.5
-6 5 -6 60.09 6.6
6 5 -6 52.19 6.6
-6 -5 -6 62.69 7.2
6 -5 6 64.79 12
6 5 -6 65.19 7.5
-6 -5 -6 60.39 9.4
6 5 -6 50.59 9.3
-6 6 -6 12.8 3.4
-6 6 -6 10.3 3.3
6 -6 -6 13.4 4.7
-6 -6 6 6.5 3.5
-6 -6 6 14.2 4.9
-6 -6 -6 10.7 3.3
6 -6 6 9.4 5.3
6 6 -6 15.5 5.5
-6 7 -6 196.28 18.6
-6 -7 6 267.17 21.4
6 -7 -6 208.08 21.6
6 7 -6 167.98 20.9
-6 -7 -6 221.48 19.7
6 -7 6 262.67 25.4
-6 -7 -6 204.48 18.7
-6 8 -6 -0.2 2.4
-6 -8 6 3.5 3.6
6 -8 -6 1.1 4.1
-6 -8 6 -4.7 3.6
-6 -8 -6 2.1 2.7
6 8 -6 4.3 4
6 -8 6 2.7 4.6
6 -9 -6 113.49 15.5
-6 9 -6 106.49 12.4
-6 -9 6 149.09 14.7
6 -9 6 120.09 17.3
6 9 -6 127.29 16.1
-6 -9 -6 117.99 11.8
-7 0 -6 718.53 60.99
7 0 -6 719.53 58.59
7 0 6 791.92 60.69
7 0 -6 817.12 61.39
-7 0 6 775.32 58.49
7 1 6 36.5 5.7
7 -1 -6 46.5 7.1
-7 1 -6 41.3 8.4
7 -1 -6 35.7 5.1
-7 -1 6 28.1 5.3
7 -1 6 32.2 7.2
7 1 -6 37.8 7.4
-7 -1 -6 36.7 7.3
7 1 -6 31.7 4.4
7 1 -6 31.7 6
-7 1 6 37.6 4.8
7 2 6 117.39 10
-7 2 -6 84.39 12
7 -2 -6 83.69 9.4
7 -2 -6 105.89 12.1
-7 -2 6 120.19 11.3
7 2 -6 113.09 9.9
-7 -2 -6 93.79 11.2
7 2 -6 101.09 12
7 -2 6 104.99 12.7
7 2 -6 91.89 11
-7 2 6 92.79 9.1
-7 -3 6 33 6.3
7 -3 -6 26.9 3.7
-7 3 -6 22.8 6.8
7 -3 -6 27.6 6.6
7 -3 6 25.5 7.4
-7 3 6 31.6 3.4
-7 -3 -6 22.7 5.7
-7 -3 -6 28.5 5.8
7 3 -6 29.2 6.6
7 3 -6 25.2 6.1
7 3 -6 33.1 4.6
-7 -4 6 61.99 7.5
-7 -4 6 62.79 9.4
7 -4 -6 55.99 8.4
-7 4 -6 60.99 9.1
7 4 -6 53.49 6.7
7 4 -6 48.2 9
-7 -4 -6 60.19 8.2
7 -4 6 47.7 10.7
-7 -4 -6 56.39 7.4
7 4 -6 48 7.7
7 -5 -6 2 2.4
-7 -5 6 2.2 2.4
-7 5 -6 -4.9 2.2
-7 -5 6 3.8 2.8
-7 -5 -6 2.1 2.2
7 5 -6 -2 1.4
-7 -5 -6 -2.1 1.7
7 5 -6 -1.4 1.8
7 5 -6 -3.5 2
-7 6 -6 491.55 41.2
-7 -6 6 604.14 43.2
7 -6 -6 493.55 43.6
-7 6 -6 513.45 39.9
-7 -6 -6 496.65 41.1
-7 -6 -6 507.45 42.1
7 -6 6 515.55 46.5
7 6 -6 481.05 43.4
-7 -7 6 175.68 15.8
-7 -7 6 166.58 16.1
7 -7 -6 139.99 16.7
-7 7 -6 131.19 13.3
-7 -7 -6 135.69 14.7
7 7 -6 127.09 16.5
-7 -7 -6 130.99 14.4
7 -7 6 145.59 19.2
-7 8 -6 1.8 2.4
-7 -8 6 -2 3.3
-7 -8 6 3.1 2.7
7 -8 -6 -1.2 3.6
-7 -8 -6 2.9 2.7
-7 -8 -6 -1 2.6
7 -8 6 -1.9 4.9
7 8 -6 6.9 4.2
-7 -9 6 3.2 3.9
-7 -9 6 4 4.8
-7 9 -6 3.4 2.3
7 -9 6 -4.8 4.5
-7 -9 -6 5.6 3.1
7 9 -6 5.5 4.6
8 0 6 1854.11 135.89
-8 0 6 1730.83 133.29
-8 0 -6 1774.62 136.59
8 0 -6 1711.93 133.59
8 0 -6 1882.61 136.49
8 -1 -6 4.1 2.9
-8 1 -6 1.6 2.7
8 1 6 5.3 2.9
8 -1 -6 5.9 2.4
-8 -1 6 3 1.9
-8 -1 -6 3.2 2.9
8 1 -6 2.1 2.7
8 1 -6 1.2 2.3
-8 1 6 4.3 2.1
8 -1 6 1.6 2.3
8 2 6 29.6 4.6
8 -2 -6 24.3 4.3
-8 -2 6 17.3 4.5
8 -2 -6 19.3 5.6
-8 2 -6 28.6 9
-8 -2 -6 19.7 5.4
8 -2 6 18.4 6.4
8 2 -6 23 5.4
-8 2 6 21.8 3.8
-8 -2 -6 25.3 6.2
8 2 -6 22.9 3.7
8 2 -6 24.5 6.1
8 -3 -6 38.2 8
-8 -3 6 48.8 8
-8 3 6 40.7 4.5
-8 -3 -6 34 11
8 3 -6 30.1 7.6
-8 -3 -6 42.1 6.6
8 3 -6 35.9 7.5
8 -3 6 39.4 9
8 3 -6 43.1 5.5
8 -4 -6 45 8.6
-8 4 -6 36 8.4
-8 -4 6 22.3 5.6
-8 -4 -6 30.3 6.8
-8 -4 -6 26.8 6.2
8 -4 6 24.1 7.6
-8 4 6 32.2 3
8 4 -6 30 7
8 4 -6 35.2 7.1
8 4 -6 25.3 5.1
-8 5 -6 4.5 4
-8 -5 6 1.5 3.5
-8 -5 6 8.4 3.4
8 -5 -6 3.7 3.7
-8 -5 -6 6.5 3.4
8 5 -6 2.9 3.6
8 -5 6 2.7 3.4
8 5 -6 5.4 2.4
-8 -5 -6 2.7 2.8
8 5 -6 1.3 2.4
8 -6 -6 11.9 5.8
-8 6 -6 14.4 3.5
-8 -6 6 18.5 5
-8 6 -6 13.1 4.5
-8 -6 6 4.8 4.2
-8 -6 -6 10.9 4.1
8 -6 6 6.4 6.3
8 6 -6 12.2 5.7
-8 -6 -6 13.7 4.6
-8 -7 6 8.9 4.3
-8 -7 6 2.7 2.9
8 -7 -6 4.7 4.5
-8 7 -6 4.2 2.4
8 -7 6 1.6 5.4
-8 -7 -6 1.6 3
-8 -7 -6 6.7 3.4
8 7 -6 -2.8 2.6
-8 -8 6 -2.8 3.5
-8 -8 6 -3.9 2.2
-8 8 -6 1 2
-8 -8 -6 1.5 3.2
8 8 -6 5.6 3.8
8 -8 6 -3.7 4.3
-8 9 -6 1.2 2.2
8 -9 -6 1.6 4.6
8 -9 6 4.3 6.1
8 9 -6 -1.5 3.9
9 0 -6 1595.74 131.19
9 0 -6 1841.92 134.49
9 0 6 1756.32 133.69
-9 0 6 1825.32 131.39
9 -1 -6 58.29 9.2
9 1 6 66.59 9
-9 -1 6 68.49 8.4
-9 1 -6 71.09 10.5
9 -1 -6 57.59 7.5
-9 1 6 59.59 7.3
9 1 -6 38.5 7.7
-9 -1 -6 60.09 9.5
9 -1 6 66.39 9.6
9 1 -6 67.99 9.7
9 -2 -6 121.89 14.6
9 -2 -6 114.09 11.9
-9 -2 6 133.49 13.3
-9 2 -6 126.29 15.4
9 2 6 124.69 12.6
-9 2 6 132.99 11.8
-9 -2 -6 117.79 14.2
9 2 -6 125.19 11.6
-9 -2 -6 125.29 13.8
9 2 -6 114.29 14.3
9 -2 6 114.99 14.9
9 2 -6 129.19 13.7
9 -3 -6 157.98 17.4
-9 -3 6 154.18 15.9
-9 3 -6 133.19 17.3
9 3 6 169.28 13
9 3 -6 165.18 14.3
-9 -3 -6 156.38 16.6
-9 3 6 158.48 13.6
-9 -3 -6 165.08 16.9
9 3 -6 148.49 16.3
9 -3 6 157.38 18.5
9 3 -6 144.89 16.8
-9 4 -6 13.4 5.4
9 -4 -6 17.9 5.8
-9 -4 6 18.3 5.5
-9 4 6 15.6 2.5
-9 -4 -6 14.5 4.4
9 -4 6 9.7 5.5
-9 -4 -6 12.6 4.7
9 4 -6 9.1 4.4
9 4 -6 15.8 5.4
9 4 -6 20.1 4.2
-9 -5 6 63.29 10.3
9 -5 -6 69.69 10.8
9 5 -6 47.9 6.8
9 5 -6 66.39 8.7
-9 -5 -6 56.19 10.1
9 5 -6 63.19 11.7
-9 -5 -6 73.39 9.6
9 -5 6 61.09 12.8
-9 -6 6 0.4 3.1
9 -6 -6 0.1 3.3
-9 6 -6 -0.7 3.6
-9 6 -6 1 1.6
-9 -6 -6 1.5 3
-9 -6 -6 2.7 3.5
9 -6 6 -2.5 3.4
9 6 -6 2.2 3.8
-9 7 -6 43.1 6.1
-9 -7 6 56.19 10
9 -7 6 59.79 13.4
9 7 -6 29.3 8.5
-9 -7 -6 45.7 8.8
9 -8 -6 3 4.2
-9 -8 6 7.9 4.7
-9 8 -6 3.1 2.5
-9 -8 -6 3.7 4
9 8 -6 0.7 3.7
-9 -8 -6 4.6 4.6
9 -8 6 4.3 5.8
-9 9 -6 4.7 3
9 -9 -6 12.2 6.3
9 -9 6 11.3 7.6
9 9 -6 -2.2 4.5
-10 0 6 59.29 7.8
10 0 -6 45.3 8.1
10 0 -6 66.19 9.9
10 0 6 56.89 9.2
-10 0 -6 63.09 9.9
10 1 6 174.58 17.7
-10 -1 6 166.28 16.5
10 -1 -6 179.08 18.9
10 -1 -6 160.18 16
-10 1 -6 184.28 19.7
10 1 -6 169.98 16.9
10 1 -6 176.68 18.8
-10 -1 -6 158.38 18.3
-10 1 6 167.78 15.7
10 -1 6 152.78 18.2
-10 -2 6 803.12 61.39
10 -2 -6 743.93 63.29
10 2 6 771.32 60.79
10 -2 -6 758.52 59.99
-10 2 -6 799.82 64.69
-10 -2 -6 810.42 63.89
10 2 -6 710.83 61.79
10 2 -6 751.52 63.19
-10 2 6 781.82 59.49
10 2 -6 783.02 59.29
10 -2 6 765.42 64.19
-10 -2 -6 808.32 62.39
-10 3 -6 45.9 10.1
10 3 6 48.3 5.6
10 -3 -6 47.1 9.8
-10 -3 6 50.89 8.8
10 -3 6 47.6 10.5
-10 -3 -6 44.9 9.2
-10 3 6 43.9 5.6
10 3 -6 43.9 9.1
10 3 -6 44.1 8.8
-10 -4 6 183.28 18.6
10 -4 -6 177.68 20.4
-10 4 -6 190.18 20.8
10 -4 6 166.78 20.9
-10 4 6 203.08 15.2
10 4 -6 199.18 19.9
10 4 -6 187.38 16.5
-10 -4 -6 173.88 18.7
10 4 -6 156.88 18.5
-10 -5 6 90.79 11.5
-10 5 -6 77.39 11.9
10 -5 -6 97.99 13.5
10 5 -6 82.19 10.5
10 -5 6 98.49 15.2
10 5 -6 66.29 8.5
-10 -5 -6 95.39 11.9
10 5 -6 86.89 12.1
-10 -5 -6 68.89 11.6
10 -6 -6 28 12.5
-10 -6 6 23.2 6.9
-10 6 -6 19.8 6.4
10 6 -6 20.1 7
10 -6 6 29.3 9.9
-10 -6 -6 26.3 6.9
-10 -6 -6 30.8 6.9
10 -7 -6 10.9 6.2
-10 7 -6 1.6 2.3
-10 -7 6 7.5 5
10 -7 6 6.9 5.8
-10 -7 -6 -2 3.4
10 7 -6 5.8 4.8
-10 -7 -6 -2.7 3.2
10 -8 -6 13 6.5
-10 8 -6 9.6 3.4
-10 -8 -6 23.7 6.3
10 -8 6 18.3 8.5
-10 -8 -6 14.3 6.1
10 8 -6 6.1 5.8
-10 9 -6 52.69 7
10 -9 -6 40.5 11
10 9 -6 61.29 12.7
10 -9 6 60.99 14.9
11 0 -6 427.06 37.4
11 0 6 442.46 39.7
-11 0 6 458.55 37.2
-11 0 -6 457.75 40.8
11 0 -6 461.45 40.4
-11 1 -6 97.09 13.7
11 -1 -6 89.99 12.7
-11 -1 6 87.89 10.6
11 -1 -6 72.09 9.8
11 1 6 70.39 10.8
-11 1 6 98.99 10.4
11 1 -6 72.89 13.1
11 1 -6 97.69 12.9
11 -1 6 92.79 12.9
-11 -1 -6 96.09 12.9
-11 -1 -6 97.99 11.9
11 -2 -6 137.29 13.4
11 -2 -6 114.19 15.5
11 2 6 133.99 14.1
-11 2 -6 141.29 17.2
-11 -2 6 123.49 13.9
11 -2 6 132.09 16.6
-11 2 6 125.09 12.6
11 2 -6 120.59 14.3
-11 -2 -6 127.69 15.7
11 2 -6 130.39 16
11 2 -6 115.89 12
-11 -2 -6 131.79 15.1
11 3 6 51.89 6.6
-11 -3 6 58.79 9.8
11 -3 -6 52.79 11.2
-11 3 -6 58.19 12.1
11 -3 6 51.69 11.5
-11 -3 -6 58.79 10.5
-11 3 6 52.69 6.5
11 3 -6 36.2 8.3
11 3 -6 54.89 6.8
11 3 -6 51.79 10.4
-11 -3 -6 57.39 11.2
-11 -4 6 895.21 68.09
-11 4 -6 839.12 69.99
11 4 -6 876.61 64.69
-11 4 6 885.11 63.69
11 -4 6 820.32 71.29
-11 -4 -6 831.12 68.79
-11 -4 -6 814.12 68.09
11 4 -6 838.42 68.19
11 4 -6 776.92 68.09
11 -5 -6 623.74 54.59
-11 5 -6 645.24 53.79
-11 -5 6 699.93 52.89
11 5 -6 612.34 52.99
11 -5 6 612.24 55.99
-11 5 6 686.83 46.4
11 5 -6 554.94 48.3
-11 -5 -6 615.84 52.69
-11 -5 -6 648.54 52.69
11 5 -6 565.24 50.49
-11 -6 6 4.7 4.1
11 -6 -6 -2.4 4.1
-11 -6 -6 2.1 4
-11 -6 -6 2.2 3.8
11 6 -6 -6.1 2.5
-11 -7 6 82.49 12.8
-11 7 -6 48.3 8.1
11 -7 -6 50.09 12.1
11 7 -6 53.49 11.2
11 -7 6 61.79 14.5
-11 -7 -6 61.39 11.5
-11 -7 -6 46.6 10.1
11 -8 -6 45.5 11.8
-11 -8 -6 56.99 9.3
11 -8 6 52.49 13
-11 -8 -6 53.59 11
11 8 -6 43.3 10.5
11 -9 -6 -6.9 5.2
-11 9 -6 2.1 2.8
11 -9 6 4.8 7.4
11 9 -6 11.9 6
-11 -9 -6 11.5 4.2
12 0 -6 226.78 22.2
12 0 -6 233.68 24.7
-12 0 6 227.28 21.6
-12 0 -6 257.07 25.7
12 0 6 232.68 24.7
12 -1 -6 101.49 14
-12 1 -6 106.69 14.9
12 1 6 97.89 13.2
12 -1 -6 103.79 12.1
-12 -1 6 115.19 12.6
-12 1 6 103.99 11.6
-12 -1 -6 109.59 13
-12 -1 -6 104.69 14.5
12 -1 6 106.69 14.6
12 1 -6 102.49 14.2
12 1 -6 86.79 12
-12 -2 6 1124.59 85.39
12 -2 -6 1113.69 84.19
12 -2 -6 1053.89 87.89
-12 2 -6 1090.99 88.89
12 2 6 1074.89 85.19
12 2 -6 991.8 85.29
-12 -2 -6 1129.29 86.59
12 2 -6 1143.69 88.59
-12 2 6 1114.99 83.49
-12 -2 -6 1083.29 87.79
12 -2 6 1138.49 89.09
12 2 -6 1052.39 82.69
-12 -3 6 29.1 7.4
12 -3 -6 29.7 8.9
-12 3 -6 37.4 10
12 3 6 33.1 6.3
12 3 -6 37.5 5.5
-12 3 6 35.9 6.2
-12 -3 -6 41.1 9.5
-12 -3 -6 42.9 8.9
12 3 -6 27.3 7.3
12 -3 6 32.9 9.7
-12 -4 6 326.17 28.1
12 -4 -6 260.27 29.2
-12 4 -6 257.37 28.8
12 4 -6 298.47 24.4
-12 -4 -6 301.77 28.9
-12 4 6 309.47 23.9
12 4 -6 284.97 27.9
12 -4 6 265.17 30.2
-12 -4 -6 291.47 28.3
12 4 -6 280.37 28
12 -5 -6 5.4 4.7
-12 5 -6 0.8 4.2
-12 -5 6 4.6 4.3
-12 5 6 2.8 1.5
12 5 -6 3.1 3.3
-12 -5 -6 2.5 4.6
12 5 -6 4.8 4
-12 -5 -6 7 3.6
12 5 -6 2 2.4
12 -5 6 3.4 4.7
-12 -6 6 38.5 9.3
12 -6 -6 42.2 11.1
-12 6 -6 39.9 9.3
-12 -6 -6 50.69 10.2
12 6 -6 40 4.9
12 6 -6 52.29 11
-12 -6 -6 48.8 10.5
12 -6 6 55.19 14.1
12 -7 -6 196.08 25.8
-12 7 -6 223.88 19.1
-12 -7 -6 228.28 24
12 -7 6 225.88 27.6
-12 -7 -6 243.58 23.3
12 7 -6 200.98 24.3
12 -8 -6 20.7 8.2
12 8 -6 19.5 7.6
-12 -8 -6 19.3 7.9
-12 -8 -6 19.5 5.7
12 -8 6 28.7 10.7
-12 9 -6 22.7 4.4
12 -9 -6 34.4 9.7
12 9 -6 22.8 8.3
12 -9 6 20.1 14.5
-13 0 6 832.22 63.29
-13 0 -6 830.72 67.59
13 0 -6 781.12 63.59
13 0 6 784.32 65.99
13 0 -6 734.63 66.09
-13 0 -6 786.42 64.19
13 1 6 163.98 19.3
13 -1 -6 187.58 17.9
13 -1 -6 178.88 20.5
-13 -1 6 177.48 17.7
-13 1 -6 159.98 20.2
13 -1 6 161.48 19.9
-13 -1 -6 153.88 19.9
-13 -1 -6 178.98 18.8
-13 1 6 164.58 16.7
13 1 -6 167.18 20.1
13 1 -6 152.48 17.7
-13 -2 6 42.8 8.8
13 -2 -6 40.2 10.4
13 -2 -6 37 7.3
13 2 6 46.8 9.1
-13 2 -6 35.4 9.7
13 2 -6 41.8 6.2
-13 2 6 43.2 7.6
-13 -2 -6 49.8 10.3
13 -2 6 49.5 11.6
-13 -2 -6 49.5 11.4
13 2 -6 30.1 8.9
13 2 -6 50.59 10
-13 -3 6 3.4 3.7
13 -3 -6 4 4.4
13 3 6 3.2 3.1
-13 3 -6 5.4 4.7
-13 3 6 2.6 2.8
13 3 -6 2.2 3.5
13 -3 6 -0.4 4
-13 -3 -6 7 4.6
-13 -3 -6 3.3 3.4
13 3 -6 2.2 2.1
13 3 -6 4.8 4.2
13 4 6 372.86 25.8
-13 4 -6 303.57 32.1
13 4 6 334.47 24.7
-13 -4 6 343.67 30.9
13 -4 -6 273.77 32
13 -4 6 312.37 33.9
13 4 -6 266.37 30.2
13 4 -6 337.17 27.2
-13 4 6 327.97 26.9
-13 -4 -6 353.76 31.8
-13 -4 -6 288.07 31.1
13 -5 -6 208.58 24.4
-13 -5 6 232.78 22.5
-13 5 -6 191.18 22.8
-13 -5 -6 208.68 22.8
-13 -5 -6 221.18 22.7
13 5 -6 178.88 17.8
13 5 -6 189.68 20.6
-13 5 6 217.78 17
13 -5 6 207.38 25.2
13 5 -6 214.78 22.9
13 -6 -6 745.93 65.99
-13 6 -6 740.73 62.49
-13 -6 6 842.62 64.09
13 -6 6 833.32 68.49
13 6 -6 680.93 62.89
13 6 -6 670.53 56.69
-13 -6 -6 737.63 62.29
-13 -6 -6 798.62 64.29
13 -7 -6 164.08 22.6
-13 7 -6 170.38 15.3
13 7 -6 155.48 20.2
13 -7 6 176.78 24.5
-13 -7 -6 158.18 18.6
-13 -7 -6 163.28 20.4
-13 8 -6 0.8 1.9
13 -8 -6 2.3 6.9
13 8 -6 -1.9 4.7
-13 -8 -6 -1.3 6.2
13 -8 6 5.9 6.6
14 0 -6 9.2 4.8
-14 0 -6 8 5.7
14 0 -6 11.2 4.3
-14 0 6 3.3 3.2
14 0 6 9.3 5.4
-14 0 -6 9.8 4.9
14 -1 -6 0.2 3.8
-14 -1 6 -0.2 2.6
-14 1 -6 6.4 5.1
14 1 6 -2.1 2.9
14 -1 -6 -2.7 1.2
14 1 -6 0.8 3
-14 1 6 -2.6 2.3
-14 -1 -6 -0.2 3.2
14 1 -6 -1.6 3.1
-14 -1 -6 -0.9 3
14 -1 6 -2.1 2.6
-14 -2 6 44.3 8.9
14 -2 -6 20.2 8.1
-14 2 -6 28.9 10
14 -2 -6 30.3 6.8
14 2 6 29.6 7.6
-14 2 6 25.4 6
-14 -2 -6 30.9 9
14 2 -6 25.3 7.3
14 -2 6 23.6 8.7
14 2 -6 43 10.2
-14 -2 -6 35.2 8.9
-14 3 -6 -6.1 3.4
14 3 6 -2 2.6
-14 -3 6 -1.2 3
14 -3 -6 -3.4 2.9
-14 -3 -6 2.5 4.7
14 3 -6 4.1 4.4
14 3 -6 6.3 3.5
14 -3 6 1.7 4.5
-14 -3 -6 0.4 3.5
14 3 -6 -0.4 2.2
-14 4 -6 26.6 8.9
14 4 6 43.3 4.5
14 -4 -6 49 12.2
-14 -4 6 49.1 10.1
14 4 6 44.4 5.3
-14 -4 -6 54.39 11.2
14 4 -6 43.6 6.5
-14 4 6 42.4 6.9
14 -4 6 49.6 12.5
-14 -4 -6 42.5 11.2
14 4 -6 42.9 9.9
14 4 -6 34.8 8.9
-14 5 -6 36.5 10.3
-14 -5 6 16.6 6.3
14 -5 -6 23.5 8.9
14 5 -6 22.7 6.7
-14 5 6 27.7 4.5
-14 -5 -6 36.2 9.5
-14 -5 -6 27 7.7
14 5 -6 24.4 8
14 -5 6 30.4 10.3
14 -6 -6 54.09 13.7
-14 6 -6 67.69 13
14 6 -6 50.79 7
14 -6 6 57.09 14.6
14 6 -6 71.79 14.3
-14 -6 -6 64.99 12.9
14 6 -6 46.3 6.1
-14 -6 -6 60.69 11.6
-14 7 -6 -1.6 2.1
14 7 -6 0 3.8
-14 -7 -6 -1.2 5.3
-14 8 -6 3.3 2.6
14 -8 -6 -5.3 5.4
-14 8 -6 4.3 5.3
-14 -8 -6 4.2 6.6
14 8 -6 4.5 6.1
15 0 -6 -2.4 2.1
15 0 6 -1.2 3.3
-15 0 -6 -6.4 2.1
15 0 -6 0.4 3.9
-15 0 6 0 2.5
-15 0 -6 7.1 5.2
15 -1 -6 36.1 7.8
-15 1 -6 31.1 8.4
-15 -1 6 39.1 8.4
-15 1 -6 50.39 12.5
15 -1 -6 42.2 11.4
15 1 6 44.6 10.3
15 -1 6 31.8 9.7
-15 -1 -6 43.2 9.8
-15 1 6 29.7 7.2
-15 -1 -6 45.3 11.4
15 1 -6 24.7 8.9
15 1 -6 34.3 8.3
15 -2 -6 1169.48 97.39
-15 2 -6 1223.98 98.19
-15 -2 6 1198.48 93.69
15 2 6 1236.58 94.59
15 -2 6 1200.48 97.79
15 2 -6 1159.78 96.39
-15 -2 -6 1169.58 97.19
-15 -2 -6 1231.18 95.09
15 2 -6 1081.79 93.69
-15 2 6 1198.78 91.69
-15 3 -6 4.9 5.3
15 3 6 0.1 3.3
15 -3 -6 5.1 5.4
15 3 -6 7.9 3.1
-15 -3 -6 9 5.8
15 3 -6 5.4 4.4
-15 3 6 7.7 3.8
15 3 -6 7.9 5.8
15 -3 6 9.1 6.2
-15 -3 -6 11.4 5.9
15 4 6 476.75 35.9
-15 -4 6 471.65 41.9
15 4 6 475.65 37.2
-15 4 -6 451.85 44.5
15 -4 -6 475.35 45.6
-15 -4 -6 458.65 42.6
-15 4 6 487.95 40.1
15 4 -6 430.16 42.4
-15 -4 -6 459.85 44.1
15 -4 6 455.75 45.8
15 4 -6 509.05 38.2
15 4 -6 445.16 42.4
15 -5 -6 3.5 4.6
-15 5 -6 -1 5.1
-15 -5 -6 13.8 6.1
15 -5 6 16.6 8.5
-15 -5 -6 9.9 6.1
15 5 -6 0.7 4
15 5 -6 5.6 3.3
-15 5 6 5.3 2.5
15 5 -6 6.3 5.1
15 -6 -6 88.19 18.3
-15 6 -6 91.49 16.2
15 6 -6 87.19 10.5
15 6 -6 67.39 14.7
-15 -6 -6 97.79 20.3
15 -6 6 103.19 20.3
-15 6 6 106.29 8
15 6 -6 80.59 9.2
15 -7 -6 149.39 22.8
-15 7 -6 161.08 19
15 7 -6 135.09 19.8
15 -7 6 141.89 22.9
-15 -7 -6 177.08 21.7
-15 8 -6 9.1 6
15 -8 -6 8.5 8.3
-15 8 -6 9.6 2.8
15 8 -6 7.5 6.4
15 -8 6 11.3 8.4
-15 -8 -6 2.9 8.3
-16 0 6 -0.8 2.8
16 0 6 -0.5 3.2
-16 0 -6 -0.8 3.2
16 0 -6 1.8 4.4
16 0 -6 -3.7 2
-16 0 -6 5 5.2
-16 1 -6 3.4 5.8
16 1 6 12.6 7.2
16 -1 -6 9.8 3.9
-16 -1 6 4.3 3.8
-16 1 -6 10.9 5.2
16 -1 -6 2.9 5.4
16 -1 6 14 7.5
16 1 -6 7.4 6
-16 -1 -6 16.2 7.8
-16 -1 -6 16 6.7
16 1 -6 12.5 5.5
-16 1 6 11.7 5
-16 2 -6 -5.3 4.3
-16 -2 6 2.5 3.4
16 -2 -6 -2.7 4.1
16 2 6 -2.8 3.7
-16 2 -6 -3.5 3.6
-16 -2 -6 -0.6 5
16 2 -6 2.2 3.2
-16 -2 -6 -1.5 2.8
16 2 -6 0.5 3.3
16 -2 6 -1.7 3.6
-16 2 6 0.5 2.7
-16 3 -6 115.29 18.7
16 -3 -6 113.39 18
-16 -3 -6 127.59 16.6
-16 3 6 128.99 13.8
16 3 -6 120.99 17.5
16 3 -6 137.99 13.2
-16 -3 -6 114.39 18
16 -3 6 106.59 17.7
16 3 -6 102.29 15.2
-16 -4 6 5.3 5.3
16 4 6 6.4 2.3
16 4 6 8 3.4
16 -4 -6 8.3 6
-16 4 -6 1.9 5.8
16 -4 6 10.6 6.7
-16 4 6 10 2.8
-16 -4 -6 6.3 5.7
16 4 -6 1.4 5
-16 -4 -6 13.4 5
16 4 -6 9.2 6.1
16 4 -6 5.3 3.6
16 -5 -6 387.56 41
-16 5 -6 399.16 39.5
-16 -5 -6 414.66 40.5
16 5 -6 344.47 37.5
-16 -5 -6 396.06 41.6
16 -5 6 378.36 41.3
16 5 -6 378.26 36.2
-16 5 6 437.56 32.6
-16 6 -6 10 5.6
-16 6 -6 -4 6
16 -6 6 -4.9 5
-16 -6 -6 3.1 7
16 6 -6 -2.8 2.2
16 6 -6 -4.4 4.6
16 6 -6 -2.3 2.7
-16 6 6 -1.2 1.5
-16 7 -6 50.99 11.8
16 -7 -6 75.19 18.1
-16 7 -6 68.99 11.9
16 7 -6 61.49 14.4
-16 -7 -6 76.09 15.8
16 -8 -6 3.7 7.5
-16 8 -6 -0.1 2.5
-16 8 -6 -0.6 5.7
16 -8 6 -0.4 8.4
16 8 -6 12.9 7.1
-17 0 -6 1046.8 82.69
17 0 -6 975 81.39
17 0 -6 985.3 85.29
17 0 6 1016.5 84.89
-17 0 -6 1020.4 86.39
-17 0 6 1022.8 80.79
17 1 6 1.6 4.3
17 -1 -6 3.7 5.4
-17 1 -6 -1.2 4
-17 1 -6 -3.5 4.2
-17 -1 6 5.2 3.6
17 -1 -6 2.4 3.2
17 1 -6 1.1 4
17 -1 6 -2.1 3.1
17 1 -6 1.1 2.7
-17 1 6 1.1 3.2
-17 -1 -6 -2.9 4.3
17 -2 -6 10.7 6.4
-17 2 -6 4.3 5
-17 -2 6 8.6 4.8
17 2 6 7.8 4.7
-17 2 -6 7.5 7.1
-17 -2 -6 13.9 5.9
-17 -2 -6 6.1 6.1
-17 2 6 10.5 4.9
17 -2 6 6.1 6.1
17 2 -6 2.6 4.1
17 2 -6 9.3 5.8
-17 3 -6 39.9 9.2
17 3 6 34.6 8.5
17 -3 -6 28.5 10.7
-17 3 -6 36.3 10.5
-17 -3 -6 25 10.1
-17 -3 -6 42.3 10.2
17 3 -6 31.1 6.3
17 3 -6 21.8 8.3
-17 3 6 31.3 6.6
17 3 -6 23.3 8.3
17 -3 6 24.6 9.3
-17 4 -6 12.8 7.7
17 -4 -6 4.1 6.5
-17 4 -6 0.1 5
17 4 6 2.2 1.9
17 4 6 3.3 3.1
-17 -4 -6 14 9.8
17 4 -6 8.2 6.1
-17 -4 -6 7.9 6.3
17 -4 6 6.5 6.6
17 4 -6 3 3.3
-17 4 6 5.5 3.6
17 4 -6 2.3 4.1
-17 5 -6 14.8 6.1
17 -5 -6 12.9 8.2
17 5 -6 6.3 5.5
17 5 -6 10.1 6.1
-17 5 6 10.1 3.8
-17 -5 -6 0.5 8.2
17 5 -6 6.9 4
17 -5 6 2.2 6.3
-17 6 -6 47.5 12.1
-17 6 -6 82.69 12.7
17 -6 -6 81.89 18.2
-17 6 6 60.89 6.6
17 6 -6 44.9 6.8
17 6 -6 54.99 8.7
17 6 -6 44.6 11.7
17 -6 6 55.69 15.3
17 -7 -6 11 9.1
-17 7 -6 -9.3 7.5
-17 7 -6 13.2 6.5
17 7 -6 11.2 8.2
17 -7 6 11.2 9.6
17 -8 -6 3.5 6.1
-17 8 -6 18.2 7.2
17 8 -6 -9.5 4.1
17 -8 6 8.2 8.3
-18 0 6 27.5 7.3
18 0 6 36.4 11.2
18 0 -6 26.6 9.4
18 0 -6 23.5 7.3
-18 0 -6 23.4 7.6
-18 -1 6 98.89 13.2
18 1 6 86.99 16.6
18 -1 -6 70.69 16.3
-18 1 -6 77.49 14.7
-18 1 -6 89.29 18.3
18 1 -6 63.59 13.4
-18 1 6 91.59 14.3
18 1 -6 75.99 16.4
18 -1 6 86.39 17.2
-18 -1 -6 104.59 20
18 -2 -6 42.4 12.1
18 2 6 30.6 9.9
-18 2 -6 51.99 13.7
18 -2 6 38.8 11.9
18 2 -6 33.7 9.8
-18 -2 -6 52.99 13.4
-18 2 6 45.4 9.3
18 2 -6 36.3 11.2
18 -3 -6 1.9 6.2
-18 3 -6 1.5 7.1
18 3 6 -1.9 3.1
-18 3 -6 -5.4 5.5
18 3 -6 3.7 3.9
18 -3 6 -3.5 4.8
-18 -3 -6 12.5 7
-18 3 6 2 3.1
18 3 -6 -4.5 3.6
18 3 -6 -0.5 3.1
18 4 6 50.29 6.4
18 4 6 43.7 8.3
18 -4 -6 52.89 15.2
-18 4 -6 60.09 13.3
-18 4 -6 45.9 13.3
18 -4 6 67.89 16.5
18 4 -6 47.4 11.7
-18 -4 -6 51.09 13.7
18 4 -6 51.79 12.3
-18 4 6 53.49 8.9
18 4 -6 54.49 8
18 -5 -6 56.79 15.8
-18 5 -6 68.99 14.6
-18 5 -6 56.49 15.2
18 5 -6 56.09 12.3
18 -5 6 63.19 16
-18 5 6 68.09 8.7
18 5 -6 55.59 8.3
-18 6 -6 8.6 6.1
18 -6 -6 7.2 8
18 6 -6 -0.4 2.6
18 6 -6 -8.3 3.9
18 -6 6 -0.6 7.3
18 6 -6 3.4 4.1
-18 6 6 -1.7 2.1
-18 7 -6 10.4 5.6
18 7 -6 4.8 6.3
18 -7 6 30.5 12.7
-19 0 6 122.79 16.4
19 0 -6 142.29 20.9
-19 0 -6 162.78 19.4
19 0 -6 136.29 17.6
19 0 6 132.69 20
19 -1 -6 4.1 5.9
-19 1 -6 6.4 5.4
-19 -1 6 3.8 3.7
19 1 6 0.5 4.5
-19 1 6 2.5 4.2
19 1 -6 -5.8 2.6
19 -1 6 1 4.8
19 1 -6 3 4.3
-19 2 -6 18.6 7.6
19 -2 -6 46.7 13
19 2 6 35.8 11
19 2 -6 42.6 11.9
-19 2 6 34.2 8
19 2 -6 25.6 8.5
19 -2 6 17.9 8.6
-19 3 -6 7.4 5.3
19 -3 -6 -2.7 4
19 3 6 -0.9 4.2
19 -3 6 -3 5
19 3 -6 -3 2.7
-19 3 6 3.7 4
19 3 -6 0.7 4.3
19 3 -6 -3.4 3.9
-19 4 -6 154.38 18.5
19 -4 -6 133.69 21.4
19 -4 6 129.19 24.4
-19 4 6 142.39 15.5
19 4 -6 119.59 18
19 4 -6 105.69 19.3
19 4 -6 138.59 14.4
19 -5 -6 364.16 40.6
-19 5 -6 356.96 34.8
-19 5 -6 360.36 39.4
19 5 -6 329.07 34.5
-19 5 6 360.76 30.9
19 5 -6 362.06 37
19 5 -6 366.96 30.5
-19 6 -6 8.5 9.4
-19 6 -6 28.6 8.7
19 6 -6 23.6 9.7
19 -6 6 38.6 14
-19 7 -6 22.8 12.8
19 -7 -6 -1.3 6.8
19 7 -6 -3.7 5.1
19 -7 6 -1.7 7.7
-20 0 6 12.7 5.6
20 0 -6 5.2 5.5
20 0 -6 17 6.9
20 0 6 10.2 7.4
20 1 6 -3 4.9
20 -1 -6 -4.2 4.5
-20 1 6 -7.6 3.2
20 1 -6 0 4
20 -1 6 -6.8 4.4
20 1 -6 0 4.8
20 -2 -6 -1 5.5
20 2 6 11.3 6.1
20 2 -6 3 4.7
20 2 -6 1.9 6.4
20 -2 6 1.2 5.1
20 -3 -6 -0.9 4.8
-20 3 -6 5.1 6.3
20 3 6 12.3 6.3
20 3 -6 0.6 4.1
20 -3 6 4.4 6.7
20 3 -6 4.8 6
20 3 -6 5 5.7
-20 3 6 9.9 4.8
20 4 6 0.5 3.1
20 -4 -6 4.2 6.2
-20 4 -6 8.9 5.9
20 4 6 -1.3 2.3
-20 4 6 4.9 4.1
20 4 -6 1.5 5.9
20 4 -6 6.1 6.1
-20 5 -6 125.19 17.6
20 5 -6 86.39 17.8
-20 5 6 136.69 14.8
20 5 -6 126.69 17.5
20 -5 6 123.19 24.7
20 5 -6 131.29 13.9
20 -6 -6 48.8 15.1
-20 6 -6 31.6 9.6
-20 6 6 42.3 7.1
20 -6 6 40.6 15.2
20 6 -6 34.2 12.7
20 6 -6 33.3 8
20 -7 -6 16.1 9.7
-20 7 -6 27.1 9.3
20 -7 6 20.2 10.8
20 7 -6 0.9 5.8
21 0 6 61.49 15.8
21 0 -6 84.19 18.3
21 1 6 333.97 35.7
21 -1 -6 327.67 37.4
21 1 -6 298.07 36
21 1 -6 316.67 33.1
-21 1 6 344.47 35.1
21 -1 6 334.17 37.1
21 2 6 15.9 9
21 -2 -6 12.6 8.1
21 -2 6 5.5 6.7
-21 2 6 13 6.3
21 2 -6 12.8 8.2
21 2 -6 7 6.1
21 -3 -6 -4.3 4.3
21 3 6 1.9 5.7
21 3 -6 0.2 6.2
-21 3 6 12.7 4.9
21 3 -6 1.7 4.2
21 3 -6 17.7 7.9
21 4 6 13 5.4
21 4 6 7.9 3.6
21 -4 -6 11.9 10.7
21 4 -6 10.5 7.6
21 -4 6 5.3 9.2
21 4 -6 8.4 7
-21 4 6 10 5.4
21 4 -6 9.9 4.9
21 -5 -6 74.59 18.2
21 5 6 60.19 5.8
-21 5 6 77.19 10.4
21 -5 6 74.19 19.2
21 5 -6 59.69 14.5
21 5 -6 41.7 11.4
21 5 -6 57.89 10
21 -6 -6 19.7 11
21 -6 6 28.1 12.2
-21 6 6 13.7 4.7
21 6 -6 14.6 5.5
21 6 -6 9.2 7.1
21 6 -6 8.4 5.3
22 0 6 420.96 43.3
22 0 -6 392.96 43.5
22 1 6 6.6 7
22 -1 -6 1 6
22 1 -6 -2.3 6
22 -1 6 1.4 7.2
22 2 6 108.29 20
22 2 -6 94.19 17.4
22 2 -6 94.79 20.1
22 -3 -6 39.1 13.9
22 3 6 34.5 9.8
22 3 -6 36.5 10.2
-22 3 6 33.1 9.1
22 -3 6 57.49 16.2
22 3 -6 29.2 11.7
22 -4 -6 57.09 16.5
22 4 6 34.9 8.5
22 4 6 36.1 6.3
-22 4 6 41.8 9.2
22 4 -6 31.8 10.8
22 -4 6 46 15
22 4 -6 37.2 8.1
22 4 -6 26.9 10.1
22 5 6 23 3.8
22 5 6 29.8 4.7
22 -5 -6 27 12
22 5 -6 27.2 9.7
-22 5 6 41.5 9
22 -5 6 36.9 14.7
22 5 -6 19.6 9.1
22 -6 -6 2.6 7.7
22 6 -6 5.5 5.1
22 -6 6 4.8 7
22 6 -6 8.4 5.9
-22 6 6 15.9 5.3
22 6 -6 7.5 8.3
23 0 -6 0.6 5.3
23 0 6 8 7.8
23 1 6 67.49 16.2
23 -1 -6 48.8 14.8
23 -1 6 37.9 13.8
23 -2 -6 81.39 19.3
23 2 6 101.59 19.8
23 -2 6 88.09 20.8
23 2 -6 101.49 20.6
23 3 6 14.8 7.2
23 -3 -6 4.2 8.8
23 3 -6 1.8 6
23 -3 6 -0.7 6.3
23 3 -6 3.2 6.2
23 4 6 75.59 10.1
23 4 6 85.59 13.1
23 -4 -6 70.99 19.1
-23 4 6 83.39 13.4
23 4 -6 59.59 15
23 4 -6 71.49 16.4
23 -4 6 89.49 20.2
23 -5 -6 41.2 16.2
23 5 6 52.19 6.3
23 5 6 32.2 5.1
23 -5 6 36.5 13.3
23 5 -6 29.5 8.8
-23 5 6 53.49 10
23 5 -6 16.6 8.4
23 5 -6 38.4 12.3
24 0 6 -4.9 5.8
24 0 -6 7.2 7.8
24 -1 -6 6.4 7.6
24 1 6 5.8 7.4
24 1 -6 10.8 8.8
24 -1 6 7.7 8.3
24 2 6 8.1 7.7
24 -2 -6 10.2 9.8
24 -2 6 6.5 8.2
24 2 -6 7.4 8
24 -3 -6 25.7 13
24 3 6 31.8 9.4
24 3 -6 15.1 9.9
24 -3 6 39.9 14.9
24 4 6 131.79 16.5
24 -4 -6 99.19 23.7
24 4 6 100.79 12.7
24 4 -6 123.39 19.9
24 -4 6 125.79 25.3
24 -5 -6 82.79 17.9
24 5 6 39.7 6.3
24 -5 6 55.29 16.4
24 5 -6 24.2 9.5
-24 5 6 73.69 12.4
24 5 -6 50.99 13
25 0 -6 116.49 24.3
25 0 6 108.29 22.1
25 1 6 4.3 6.4
25 -1 -6 4.5 7.4
25 1 -6 -7.6 5.8
25 -1 6 9.7 8.2
25 -2 -6 36.1 15.4
25 2 -6 45.7 14.8
25 -2 6 48.2 15.9
25 -3 -6 -2.4 8.3
25 3 6 21.9 7.8
25 -3 6 -4.9 7.6
25 3 -6 10.7 9.5
25 4 6 23.1 7.1
25 -4 -6 21.3 10.8
25 4 6 25.8 8.6
25 -4 6 17.9 10.8
25 4 -6 30.9 12
26 0 -6 29.7 13.8
26 0 6 25.7 11.9
26 -1 -6 -0.8 6.7
26 1 6 -1.4 7.1
26 1 -6 -8.3 5
26 -1 6 6.2 7.9
26 -2 -6 26.9 11.9
26 2 6 10.7 8.2
26 -2 6 7.9 9.5
26 2 -6 25.3 10.6
26 3 6 67.69 14.6
26 -3 -6 68.39 20.3
26 3 -6 48.5 14.1
26 -3 6 67.09 17.3
27 0 6 22.8 12.4
27 0 -6 38.2 14.1
27 -1 -6 18.8 12.7
27 1 6 30.9 13.7
27 1 -6 34.3 13.6
27 -1 6 20.3 11.8
27 -2 -6 8.7 9.3
27 2 6 2.9 7.9
27 -2 6 10.5 7.8
27 2 -6 -5.9 7.4
0 0 -7 0.7 1.3
0 0 7 3.4 1.6
0 1 -7 0.8 0.9
0 -1 -7 0.1 0.7
0 -1 7 0.9 1.1
0 1 -7 0.6 1.4
0 2 -7 664.13 52.69
0 2 -7 673.83 50.79
0 3 -7 -0.2 1
0 3 -7 -2.7 1.4
0 -3 7 0.7 1.7
0 4 -7 620.14 46.8
0 -4 7 692.13 49.3
0 -4 -7 563.74 44.9
0 4 -7 532.95 47.4
0 5 -7 0.9 1.9
0 -5 7 -2.6 2.4
0 5 -7 0.3 1.6
0 -5 -7 0.1 0.8
0 -6 7 436.96 37.5
0 -6 -7 431.46 31.8
0 -7 7 2.9 3.5
0 7 -7 -2.7 2.2
0 -8 -7 300.77 24.4
0 -8 7 355.96 29.6
0 8 -7 265.77 27
0 9 -7 -3.4 2.9
0 -9 -7 2.5 1.7
0 -9 7 -3.2 3.6
0 10 -7 153.48 16.1
0 -10 -7 139.19 12.2
1 0 7 1.6 1.5
1 0 -7 1.4 0.8
-1 0 7 -0.9 0.8
1 0 -7 -0.4 0.8
-1 0 -7 5.7 2.4
1 -1 -7 51.79 5.2
1 1 7 55.49 5.3
-1 1 -7 46.9 6.7
1 1 -7 56.69 6.5
1 1 -7 57.59 5.9
1 -1 7 63.89 7.2
-1 -1 -7 59.19 5.6
-1 2 -7 927.81 69.09
-1 2 -7 926.91 71.59
1 2 -7 960 69.69
-1 -2 -7 913.41 67.99
1 2 -7 892.61 70.69
-1 3 -7 124.29 11.3
-1 3 -7 115.19 13
1 3 -7 130.19 12
1 -3 7 150.38 14.1
1 3 -7 108.49 12.5
1 -4 -7 727.63 54.49
-1 4 -7 777.42 56.59
-1 4 -7 692.93 57.89
1 4 -7 675.73 57.39
1 4 -7 768.52 57.19
1 -4 7 822.82 59.49
-1 -4 -7 705.93 55.49
-1 5 -7 16.3 4
-1 5 -7 8.6 3.2
-1 -5 7 25.9 5.8
1 5 -7 11.3 3.2
-1 -5 -7 15.8 2.8
1 5 -7 13.2 3.9
1 -5 7 8.5 4.2
1 5 -7 9.7 3.3
-1 -6 7 7 4
-1 6 -7 3.6 2.6
1 -6 7 6.7 3.8
1 6 -7 2 2.3
-1 -6 -7 0.8 1.1
-1 7 -7 4 3
1 -7 -7 3.5 1.8
-1 -7 7 7.1 3.7
1 -7 7 -0.4 2.7
1 7 -7 -1.9 2.5
-1 8 -7 237.68 23.4
1 -8 -7 268.07 21.9
-1 -8 -7 250.17 20.2
1 -8 7 292.27 26.2
1 8 -7 240.28 24.1
1 -9 -7 12.8 3.7
-1 -9 7 8 5.4
-1 9 -7 11 4
1 9 -7 4.6 3.3
-1 -9 -7 7.9 2.1
1 -9 7 5.5 4.9
-1 10 -7 46 9.1
1 -10 -7 66.79 7
-1 -10 7 76.29 11.6
1 -10 7 77.39 11.7
-1 -10 -7 56.19 5.9
1 10 -7 67.69 11.2
2 0 -7 1.9 1.2
-2 0 -7 1.5 1.8
-2 0 7 -0.2 0.9
2 0 -7 0 1
-2 0 7 0.4 0.9
2 0 7 0 1.4
-2 1 -7 23.6 5.4
2 1 7 24.2 3.1
2 -1 -7 22.1 2.8
-2 -1 7 24.5 3.9
-2 -1 7 19.5 3.5
2 1 -7 20.7 4
2 -1 7 21.5 4.8
2 1 -7 24.1 4.2
-2 -1 -7 18.9 3.2
2 -2 -7 7.8 1.7
-2 2 -7 7 3.4
-2 -2 7 7.8 2.4
2 2 -7 7.8 2.5
2 -2 7 4.8 3.1
-2 -2 -7 9.8 1.9
2 2 -7 8.5 2.9
2 -3 -7 27 2.5
-2 -3 7 27.4 4.6
-2 3 -7 25.7 6.1
-2 3 -7 28 3.8
-2 -3 7 38.4 6.8
2 3 -7 18.4 4.8
2 -3 7 17 5.6
-2 -3 -7 19.3 2.2
2 3 -7 26.3 4.9
-2 4 -7 54.99 8.7
-2 -4 7 99.09 9.2
-2 4 -7 66.79 7.7
2 4 -7 69.89 8.8
2 4 -7 66.29 8.5
-2 -4 -7 76.19 7.7
2 -4 7 82.79 10.6
-2 5 -7 52.59 6.6
-2 5 -7 45.7 7.2
-2 -5 7 66.49 7.6
2 5 -7 48.9 6.5
2 5 -7 47.3 6.5
2 -5 7 70.49 9.8
2 5 -7 51.99 7.4
-2 -5 -7 54.49 6.1
-2 6 -7 0.2 1.1
-2 -6 7 -0.4 3.1
-2 6 -7 0.3 1.9
2 6 -7 1.4 2.9
-2 -6 -7 -1.2 1.3
2 -6 7 1.1 3.7
-2 -7 7 3.1 3
-2 7 -7 1.2 2.3
2 -7 -7 1.2 1.9
-2 -7 -7 2.1 1.1
2 -7 7 -1.6 3.1
2 7 -7 -2 1.9
2 -8 -7 55.69 7.7
-2 8 -7 48.8 8.9
-2 -8 7 85.09 11
2 -8 7 71.89 11.2
2 8 -7 44.8 9.3
-2 -9 7 -0.5 4.5
-2 9 -7 3.6 3.2
2 -9 -7 4.6 2.7
2 9 -7 -2.4 3
2 -9 7 2.2 4.5
2 -10 -7 15.5 4
-2 10 -7 18.5 5.3
-2 -10 7 21.2 6.6
2 -10 7 19.3 6.8
-2 -10 -7 8.7 1.9
2 10 -7 9.4 4.7
3 0 -7 -0.9 0.6
3 0 -7 -0.1 0.9
-3 0 -7 -2.5 1.1
3 0 7 0.3 1.7
-3 0 7 -0.1 0.6
3 1 7 1.7 1.3
3 -1 -7 0.9 1
-3 -1 7 0.7 1.3
-3 1 -7 -1.5 1.3
-3 -1 7 0 0.9
3 -1 7 2.7 2.2
3 1 -7 1.9 1.3
-3 1 7 1.2 1
3 1 -7 2.7 1.5
-3 -1 -7 1.4 1.4
-3 2 -7 1633.14 132.39
3 -2 -7 1832.32 128.89
3 2 -7 1720.73 130.39
3 -2 7 1795.72 132.59
-3 -2 -7 1793.92 129.49
3 2 -7 1744.53 130.69
-3 -3 7 91.69 8.6
3 -3 -7 70.29 6
-3 3 -7 65.19 9.4
3 3 -7 63.29 8.2
-3 -3 -7 74.99 6.4
3 -3 7 66.69 9.8
3 3 -7 67.99 8.5
-3 4 -7 1388.66 102.69
-3 4 -7 1338.87 105.39
3 -4 7 1412.56 106.69
-3 -4 -7 1482.95 100.59
3 4 -7 1359.86 104.49
3 4 -7 1263.67 103.89
-3 -4 -7 1396.66 103.49
-3 -5 7 66.99 7.7
-3 -5 7 77.39 9.2
-3 5 -7 47.3 7.5
-3 5 -7 51.59 6.5
3 5 -7 50.29 6.5
3 -5 7 58.59 10.9
-3 -5 -7 42.7 6.2
3 5 -7 49.8 6.5
-3 6 -7 148.69 14.6
3 -6 -7 163.98 14.7
-3 -6 7 194.98 16.3
-3 6 -7 151.08 13.6
3 6 -7 128.49 15.4
-3 -6 -7 153.98 14
-3 7 -7 24.7 5.5
-3 -7 7 44.4 8.5
3 -7 -7 32.9 6.3
-3 -7 -7 27.6 4.5
3 -7 7 29.8 8
3 7 -7 19.7 5.9
-3 8 -7 225.28 23.8
3 -8 -7 251.07 24.2
-3 -8 -7 297.87 20.7
-3 -8 -7 291.27 21.5
3 -8 7 293.17 28
3 8 -7 243.58 25.6
-3 9 -7 43.4 7.7
3 -9 -7 35.5 7.6
-3 -9 7 52.39 9.9
3 9 -7 49.6 9.9
3 -9 7 55.19 11.1
-3 -10 7 3.5 4.8
3 -10 7 -1.3 5.2
3 10 -7 6.1 4.4
4 0 -7 -0.4 1.1
4 0 -7 -0.7 0.7
-4 0 7 -0.4 0.9
4 0 7 -2.5 1.3
-4 -1 7 77.99 8.6
-4 1 -7 88.99 10.9
-4 -1 7 89.69 8.8
4 -1 -7 83.99 8.3
4 1 7 111.49 9.3
-4 -1 -7 81.19 9.6
-4 1 7 96.59 8.2
4 1 -7 92.49 9.3
4 1 -7 85.59 8.5
4 -1 7 95.49 10.6
4 -2 -7 379.26 31.4
-4 -2 7 446.06 33.1
-4 2 -7 372.16 34.9
4 2 7 410.86 30.6
4 2 -7 445.36 33
4 -2 7 392.56 35
-4 -2 -7 425.26 32.9
4 2 -7 433.36 33.7
-4 3 -7 1892.61 151.88
4 -3 -7 1842.82 147.29
-4 -3 7 2314.37 150.18
-4 -3 -7 2134.99 148.49
4 -3 7 2026.4 152.48
4 3 -7 1921.71 149.79
4 3 -7 1986.1 150.38
-4 4 -7 27.6 6.8
-4 -4 7 39 6.3
-4 4 -7 35.3 4.5
4 4 -7 26.7 5.5
4 4 -7 31.9 6.6
4 -4 7 30.3 7.9
4 4 -7 29.5 6.1
-4 -4 -7 30.3 3.6
-4 -4 -7 30.6 5.6
-4 -5 7 33.1 6.5
-4 5 -7 12.5 3.3
-4 5 -7 13.7 4.7
-4 -5 7 16 4.2
4 5 -7 15.3 3.8
4 5 -7 18.7 5.2
4 -5 7 17.4 6.4
4 5 -7 13.6 3.5
-4 -5 -7 15.1 2.1
-4 -5 -7 13.6 3.8
-4 6 -7 89.29 9.3
4 -6 -7 94.19 10.3
-4 6 -7 78.69 9.1
-4 -6 -7 79.19 6.8
4 6 -7 93.09 11.1
4 -6 7 97.19 13.6
-4 -6 -7 80.09 9.2
4 -7 -7 5.4 3.6
-4 -7 7 -1.4 2.7
-4 7 -7 2.1 2.7
-4 -7 7 5.5 4.3
4 -7 7 -3.4 3.2
-4 -7 -7 4.6 1.5
-4 -7 -7 5.6 2.5
4 7 -7 -0.4 3.4
4 -8 -7 160.48 16.7
-4 8 -7 150.08 15.4
-4 -8 -7 159.48 13.6
4 8 -7 135.69 17.1
4 -8 7 168.88 19.6
4 -9 -7 170.08 17.7
-4 -9 7 208.48 18.9
-4 9 -7 121.79 15.8
4 -9 7 182.18 20.5
4 9 -7 150.28 18.5
-5 0 7 1 1.4
5 0 -7 -0.3 1.4
5 0 7 2.1 2.2
-5 0 -7 -0.7 1.4
-5 1 -7 1256.47 104.49
-5 -1 7 1390.16 102.09
5 1 7 1517.55 102.59
5 -1 -7 1252.47 101.39
-5 -1 -7 1361.26 103.69
-5 1 7 1498.05 101.29
5 1 -7 1312.57 102.49
5 -1 7 1337.47 104.29
5 1 -7 1359.76 101.49
-5 -2 7 2249.97 151.88
-5 -2 7 2069.19 151.58
-5 2 -7 1956.8 154.28
5 -2 -7 1742.73 149.99
5 -2 7 2002 154.18
5 2 -7 2153.88 151.18
-5 2 7 2352.76 149.88
5 2 -7 1856.41 151.98
-5 -2 -7 1985.1 151.88
-5 -3 7 2178.68 159.48
5 -3 -7 1986.3 151.98
-5 3 -7 2037.8 156.98
5 -3 7 2073.89 157.38
-5 -3 -7 2063.49 153.58
5 3 -7 2081.49 155.18
-5 -3 -7 2093.19 154.78
5 3 -7 1995.6 153.98
5 3 -7 2200.78 156.38
-5 -4 7 453.85 31.7
-5 4 -7 344.27 32.5
5 4 -7 366.16 31.8
5 -4 7 373.06 33.9
-5 -4 -7 376.06 29.4
-5 -4 -7 351.36 30.9
5 4 -7 335.77 30.4
5 4 -7 397.76 32.1
-5 -5 7 252.47 19.9
-5 5 -7 206.68 17.7
5 -5 -7 255.07 20.2
-5 5 -7 201.28 20
5 5 -7 205.18 18.7
-5 -5 -7 199.58 19
-5 -5 -7 188.28 16.9
5 5 -7 201.88 20.3
5 5 -7 183.88 18
5 -5 7 228.48 22.8
-5 6 -7 455.25 35.7
-5 6 -7 440.46 36.3
5 -6 -7 477.95 37.8
5 6 -7 424.36 38.2
-5 -6 -7 440.26 36.4
-5 -6 -7 424.46 34.3
5 -6 7 478.05 41.2
-5 -7 7 43.7 8.1
5 -7 -7 27.6 6.5
-5 -7 7 41.6 7.7
-5 -7 -7 27.8 5.4
-5 -7 -7 25.1 4.1
5 -7 7 21.9 8
5 7 -7 24.7 7.2
-5 8 -7 47.9 7.8
5 -8 -7 39.1 8.8
-5 -8 7 67.39 9.1
5 8 -7 39.4 9
5 -8 7 53.99 12
-5 -8 -7 38.5 6.3
-5 -8 -7 46.7 5.9
-5 -9 7 28 7.6
5 -9 -7 18.6 6.7
-5 9 -7 23.2 5.3
5 -9 7 18.9 8.2
5 9 -7 20.3 6.5
-5 -9 -7 16.9 3.6
6 0 -7 0.1 1.4
-6 0 -7 -1.9 1.5
-6 0 7 -1.8 0.9
6 0 7 -1.5 1.1
-6 -1 7 1036.5 73.79
6 -1 -7 876.41 72.89
6 1 7 1053.09 74.29
-6 1 -7 931.41 76.39
6 -1 7 980.6 76.09
-6 1 7 1013.6 72.79
6 1 -7 906.21 73.89
6 1 -7 956.1 72.79
-6 -1 -7 977.8 75.49
6 -2 -7 -0.5 0.9
-6 2 -7 -2.8 2.1
6 2 7 0.4 1.3
-6 -2 7 0.5 1.6
-6 2 7 2.2 1.3
6 2 -7 2.8 2.6
6 2 -7 -0.7 1
-6 -2 -7 1 2
6 -2 7 0.7 2
6 2 -7 -1.4 1.8
-6 -3 7 472.25 35.5
6 -3 -7 396.86 32.9
-6 3 -7 424.36 37.7
-6 -3 7 521.15 35.6
6 3 -7 406.66 35.8
6 3 -7 450.45 36.9
-6 -3 -7 395.36 34.7
6 3 -7 408.46 34.3
6 -3 7 430.66 38.1
-6 -3 -7 424.86 35.6
6 -4 -7 139.99 13.4
-6 -4 7 119.49 12.3
-6 4 -7 116.09 13.9
-6 -4 -7 110.09 12.2
6 4 -7 107.89 12.8
6 4 -7 119.59 13.1
-6 -4 -7 102.09 11
6 -4 7 122.89 15.1
6 4 -7 101.79 11.3
-6 5 -7 6.8 3.8
-6 -5 7 2.8 3.2
-6 5 -7 2.7 1.5
-6 -5 7 -2.3 2
6 -5 -7 -1.1 1.8
6 5 -7 -0.4 2.2
-6 -5 -7 1 1.9
6 5 -7 -0.8 2.7
-6 -5 -7 2.3 2.7
6 5 -7 0.1 2
6 -5 7 -3.1 4
-6 -6 7 63.89 11.4
-6 -6 7 53.09 8.9
6 -6 -7 55.59 8.7
-6 6 -7 46.9 7.5
-6 6 -7 50.39 6.3
-6 -6 -7 46.8 6.3
6 -6 7 44.6 11.4
-6 -6 -7 22.9 8.3
6 6 -7 51.79 9.8
-6 -7 7 20.5 5.8
6 -7 -7 8.8 4.5
-6 -7 7 4.9 3.9
6 -7 7 11 6.2
-6 -7 -7 12.2 3.8
-6 -7 -7 10.8 3
6 7 -7 5.8 4.6
-6 -8 7 -3.1 3.1
-6 -8 7 0 3.6
-6 8 -7 -3 2.3
6 -8 -7 5.7 4.3
6 -8 7 -3 4.4
-6 -8 -7 3.3 2.5
6 8 -7 3.4 3.6
-6 -8 -7 -0.9 2.3
-6 9 -7 62.99 9.1
-6 -9 7 77.09 10.8
6 -9 -7 82.89 11.9
6 -9 7 94.49 14.8
6 9 -7 71.19 12.7
-6 -9 -7 72.79 9.1
7 0 -7 -0.3 1.4
-7 0 7 0.1 1.2
-7 0 -7 -1.2 2.1
7 0 7 -0.7 1.6
7 1 7 535.85 42
-7 1 -7 510.85 44.2
-7 -1 7 544.85 41.3
7 -1 -7 503.15 40.6
7 1 -7 573.54 44.2
7 1 -7 461.05 41.3
-7 -1 -7 527.95 43.3
7 -1 7 512.35 43.6
-7 1 7 541.55 40.3
7 1 -7 491.45 40.2
7 2 7 1.5 1.8
-7 2 -7 4.2 4.1
-7 -2 7 1.7 3.4
7 -2 -7 0.2 1.1
7 2 -7 0.6 1.8
7 2 -7 1.4 2.3
-7 -2 -7 0.6 2
-7 2 7 2.9 1.4
7 -2 7 -0.7 2.9
7 2 -7 2.6 1.8
7 -3 -7 347.87 31
-7 3 -7 322.07 34
7 -3 -7 337.77 27.6
-7 -3 7 382.56 30.2
-7 -3 -7 335.97 30.2
-7 3 7 396.86 27.1
7 3 -7 328.77 30.3
-7 -3 -7 321.17 29.6
7 -3 7 365.06 33.1
7 3 -7 361.56 31.5
7 3 -7 368.16 28.9
7 -4 -7 543.25 43.5
-7 -4 7 573.94 42.6
-7 -4 7 602.94 42.3
-7 4 -7 485.55 44.3
-7 -4 -7 467.85 41.2
7 4 -7 460.45 42.6
-7 -4 -7 536.35 45
7 4 -7 462.35 40.7
7 4 -7 513.55 43
7 -4 7 552.14 45.9
7 -5 -7 84.19 11
-7 -5 7 85.39 10.4
-7 5 -7 78.69 11.1
-7 -5 7 103.29 10.8
-7 -5 -7 83.59 10.2
-7 -5 -7 83.29 9.5
7 -5 7 73.99 14
7 5 -7 78.49 9.7
7 5 -7 63.79 8.5
7 5 -7 72.49 10.6
7 -6 -7 209.58 21.8
-7 6 -7 209.98 18.5
-7 -6 7 262.17 21.7
-7 6 -7 207.88 20.5
-7 -6 -7 196.58 19.2
7 6 -7 228.18 22.4
7 -6 7 218.78 24.4
-7 -6 -7 208.48 20.4
-7 -7 7 108.29 11.9
-7 -7 7 98.89 11.3
7 -7 -7 75.79 11.5
-7 7 -7 72.09 13
-7 -7 -7 82.39 10.1
7 7 -7 60.59 11.9
-7 -7 -7 69.39 9.5
7 -7 7 59.89 13.9
-7 -8 7 90.19 12.3
-7 -8 7 100.09 12
-7 8 -7 87.89 10.2
7 -8 -7 76.29 12.6
7 -8 7 100.79 16
-7 -8 -7 75.39 10
7 8 -7 90.09 12.8
-7 -8 -7 95.59 10.6
-7 -9 7 0.2 3.4
-7 9 -7 2.6 3.2
-7 -9 -7 2.6 2.9
7 -9 7 3.4 5.4
7 9 -7 -1.6 3.8
8 0 7 -0.8 2.3
8 0 -7 -1.1 1.1
-8 0 -7 -0.9 2.5
-8 0 7 -3 1.4
8 0 -7 -0.6 1.9
8 1 7 375.46 31.8
8 -1 -7 372.26 33.3
8 -1 -7 354.76 30.4
-8 -1 7 385.76 31
8 -1 7 363.66 33.3
8 1 -7 370.26 31.5
-8 -1 -7 384.86 33.4
-8 1 7 384.26 30.1
8 1 -7 351.46 29.8
8 1 -7 415.46 34.1
8 2 7 12.5 3.5
-8 2 -7 5.8 3.9
-8 -2 7 14.7 3.9
8 -2 -7 13.8 3.5
8 -2 -7 6.5 3.3
-8 -2 -7 5.4 3.7
8 2 -7 11.2 3
-8 2 7 9.1 2.4
8 2 -7 6 3.8
8 2 -7 7.4 3.4
8 -2 7 6.9 4.4
8 -3 -7 3.2 1.9
-8 3 -7 5.4 3.3
-8 -3 7 1.3 2.2
8 3 -7 3.4 2.7
-8 -3 -7 6 3.2
-8 3 7 3.9 1.6
8 3 -7 3.8 2.4
8 -3 7 1.1 3.2
8 3 -7 8.2 4
-8 -3 -7 5.3 3.1
-8 -4 7 28.6 6.3
8 -4 -7 20.5 6.1
-8 4 -7 22.6 6.4
-8 -4 -7 22.5 5.3
8 4 -7 13.6 4.6
8 -4 7 19.8 6.7
8 4 -7 21.3 5.9
8 4 -7 21.6 4.9
-8 -4 -7 23.5 6
-8 -5 7 169.28 16.7
-8 5 -7 137.79 18.1
8 -5 -7 130.69 15.9
-8 -5 7 176.38 16
-8 -5 -7 127.39 14.3
-8 -5 -7 135.59 15.1
8 -5 7 156.78 18.9
8 5 -7 126.89 13.2
8 5 -7 120.69 15.7
8 5 -7 142.79 14.8
-8 6 -7 69.19 10.2
8 -6 -7 71.79 11.1
-8 -6 7 71.49 9.6
-8 -6 7 91.19 10.9
-8 6 -7 70.89 8.3
8 -6 7 68.39 14.2
-8 -6 -7 69.29 9.7
-8 -6 -7 63.49 9.1
8 6 -7 69.59 12.4
-8 -7 7 87.99 10.8
-8 7 -7 76.89 9.1
-8 -7 7 97.89 15.1
8 -7 -7 87.59 13.2
8 7 -7 69.89 13
8 -7 7 92.69 17.2
-8 -7 -7 84.69 10.6
-8 -7 -7 79.19 10.7
-8 -8 7 46.6 9.1
-8 -8 7 47 8.7
-8 8 -7 44.3 7.3
-8 -8 -7 50.29 7.8
8 8 -7 48.5 10.3
8 -8 7 47.1 12.4
-8 -8 -7 41.2 8
8 -9 -7 49.5 11.3
-8 -9 -7 67.39 7.7
8 -9 7 50.69 12.8
8 9 -7 42.6 10.4
9 0 -7 0.7 2.5
-9 0 7 -2.8 1.3
9 0 -7 -1.2 1.8
-9 0 -7 -1.5 2
9 0 7 2.6 3.6
9 1 7 541.85 43.3
-9 1 -7 506.55 45.3
-9 -1 7 545.15 42.7
9 -1 -7 533.15 44.9
9 -1 -7 499.55 41.6
-9 1 7 525.85 41.2
9 1 -7 475.25 42.3
9 -1 7 532.25 44.9
9 1 -7 541.65 45
-9 -2 7 876.41 64.49
9 -2 -7 737.03 62.69
-9 2 -7 766.32 67.09
9 -2 -7 842.42 66.69
9 2 7 837.32 63.39
-9 -2 -7 799.22 64.99
9 -2 7 779.32 66.89
-9 -2 -7 814.72 65.89
-9 2 7 870.61 62.39
9 2 -7 867.11 62.69
9 2 -7 824.22 66.49
9 2 -7 800.32 65.19
9 -3 -7 7.9 2.7
9 3 7 11.1 2.1
-9 3 -7 8.2 4.6
-9 -3 7 5 2.9
9 -3 -7 10.2 4.6
-9 -3 -7 5.3 3.3
9 3 -7 9.1 4.4
9 3 -7 4.7 3.3
-9 3 7 7 2.1
-9 -3 -7 9.1 4.4
9 -4 -7 146.39 16.8
-9 4 -7 113.09 16.3
-9 -4 7 130.09 14.7
-9 -4 -7 145.59 15.5
9 -4 7 133.79 17.9
-9 -4 -7 160.78 16.2
9 4 -7 134.19 15.8
-9 4 7 162.88 11.5
9 4 -7 134.59 13.4
9 4 -7 126.59 15.4
9 -5 -7 18.3 6.4
-9 -5 7 21.9 5.8
-9 5 -7 13 6.2
9 5 -7 15.9 6.5
9 -5 7 15.5 8
-9 -5 -7 16.4 5.2
9 5 -7 15.1 4.1
9 5 -7 15.8 4.9
-9 -5 -7 26 6.6
-9 6 -7 29.3 5.9
9 -6 -7 32.4 8.7
-9 -6 7 40.6 8.4
-9 6 -7 28.5 7.3
-9 -6 -7 27.9 6.7
9 6 -7 11.2 5.7
9 6 -7 27.5 3.5
9 -6 7 31.5 10.9
-9 -6 -7 40.3 8
-9 7 -7 187.68 15.9
-9 -7 7 189.78 19.4
-9 7 -7 157.08 15.5
-9 -7 -7 171.28 17.9
9 7 -7 162.78 19.7
9 -7 7 168.48 22.2
9 -8 -7 73.39 14.6
-9 8 -7 79.69 9.4
9 -8 7 78.29 16.1
9 8 -7 76.49 14.2
-9 -8 -7 89.69 11.5
-9 -8 -7 83.19 11.2
9 -9 -7 37.9 10.4
9 -9 7 41.3 12.6
9 9 -7 26.7 9.2
-10 0 -7 0.1 2.5
10 0 7 0.1 2.1
10 0 -7 -1 1.8
-10 0 7 -3.6 1.6
10 0 -7 -1.8 2.5
-10 1 -7 12.8 5.7
10 -1 -7 16.2 4.5
-10 -1 7 22.9 5.2
10 1 7 18.7 5.4
10 -1 -7 19.9 6.4
-10 -1 -7 22 6.7
-10 1 7 21.6 4.6
10 -1 7 15.7 5.6
10 1 -7 14.9 4.8
10 1 -7 18 6.3
10 2 7 295.57 25.8
-10 -2 7 320.27 26.7
-10 2 -7 277.87 29.1
10 -2 -7 296.47 28.6
10 -2 -7 298.47 25.4
10 2 -7 302.77 24.7
10 2 -7 290.57 27
-10 -2 -7 302.27 27.3
-10 2 7 296.67 24.7
10 2 -7 307.27 28.8
-10 -2 -7 273.37 27.7
10 -3 -7 15.2 3.4
10 -3 -7 8.6 4.6
10 3 7 11.8 2.7
-10 -3 7 11.8 4.4
-10 3 -7 10.7 6.2
-10 -3 -7 6.4 4.1
10 -3 7 15.4 6.4
-10 3 7 10.1 2.6
10 3 -7 12.5 3.5
10 3 -7 13.1 5.2
-10 -3 -7 15.7 5.2
10 3 -7 5.9 3.7
-10 4 -7 6.7 4.2
-10 -4 7 -2.1 2.9
10 -4 -7 0.1 3.6
-10 -4 -7 2.6 2.8
-10 -4 -7 3 2.6
10 4 -7 0.9 3.1
10 4 -7 -1.5 2.9
10 -4 7 3.8 4.5
10 4 -7 1.5 2.5
-10 4 7 -0.1 0.9
-10 -5 7 92.89 11.2
-10 5 -7 51.39 11.1
10 -5 -7 72.79 13.2
10 5 -7 57.39 7.5
-10 -5 -7 57.49 11
10 5 -7 54.99 11.2
10 5 -7 57.89 9.3
-10 -5 -7 60.49 10.9
10 -5 7 59.99 13.7
-10 -6 7 3.1 3.8
10 -6 -7 10.7 5.5
-10 -6 -7 0.1 3.8
-10 -6 -7 6.5 4.8
10 6 -7 7.5 2.5
10 6 -7 4.4 1.8
10 -6 7 10.9 6.8
10 6 -7 -0.4 3.3
10 -7 -7 -5.7 3.6
-10 7 -7 -1.9 1.7
-10 -7 7 -3.2 3.8
-10 7 -7 -1.5 3
10 -7 7 -3.4 4.1
-10 -7 -7 -3.6 3.4
10 7 -7 -1.7 3.4
-10 -7 -7 -0.6 3.6
10 -8 -7 85.19 16.7
-10 8 -7 85.09 10.2
-10 -8 -7 93.69 12.1
10 -8 7 104.49 20.2
10 8 -7 97.99 16.2
-10 -8 -7 111.69 12.9
10 -9 -7 97.79 17.5
10 -9 7 97.19 19.2
-10 -9 -7 76.69 13.5
11 0 7 1.6 2.9
-11 0 7 -1 1.8
11 0 -7 -1.1 2
-11 0 -7 -0.9 3.2
11 0 -7 -1.9 1.7
11 1 7 11.6 4.7
11 -1 -7 11.8 5.7
-11 1 -7 15 6.1
-11 -1 7 15.7 4.5
11 -1 -7 17.8 4.9
-11 1 7 18.9 4.7
11 1 -7 14.2 6.4
11 1 -7 8.4 3.6
-11 -1 -7 22.9 7.2
-11 2 -7 261.27 26.9
11 -2 -7 244.08 22.5
-11 -2 7 243.88 23.4
11 2 7 254.27 23.4
11 -2 -7 229.48 25.3
11 2 -7 241.98 24.1
-11 2 7 277.07 22.2
-11 -2 -7 247.68 24.3
-11 -2 -7 265.17 25.8
11 2 -7 276.67 22
11 -2 7 234.68 25.9
11 3 7 219.98 18.7
-11 3 -7 188.98 23.1
-11 -3 7 220.48 21.3
11 -3 -7 231.08 26.5
-11 -3 -7 220.78 22.2
11 3 -7 211.08 23.1
11 -3 7 212.88 24.1
-11 3 7 225.38 18.8
-11 -3 -7 212.08 22.6
11 3 -7 195.98 21.5
11 3 -7 237.98 19.3
-11 4 -7 722.33 62.19
-11 -4 7 835.22 60.49
11 -4 -7 743.13 65.79
11 4 -7 693.03 60.19
-11 -4 -7 720.83 60.29
-11 4 7 750.32 55.49
11 -4 7 758.12 63.89
-11 -4 -7 723.23 60.69
11 4 -7 715.23 56.69
11 4 -7 692.33 60.39
-11 5 -7 7 5.6
11 -5 -7 11.6 6.3
-11 -5 7 12.7 5.2
11 -5 7 7.6 5.9
-11 -5 -7 7.4 5.1
-11 -5 -7 14 5.8
11 5 -7 9.4 4.9
11 5 -7 14.2 4.7
11 5 -7 11.5 3.6
-11 5 7 10.7 1.6
-11 6 -7 395.66 38.2
11 -6 -7 456.35 41.3
-11 -6 7 522.95 39.4
11 6 -7 420.26 34.2
11 -6 7 477.15 43.5
-11 -6 -7 416.46 37.9
11 6 -7 441.26 39.8
-11 -6 -7 487.55 39.6
11 6 -7 355.66 33.2
-11 7 -7 21.6 4.6
-11 7 -7 14.3 5.4
11 -7 -7 20 8.8
-11 -7 -7 29.6 8.2
11 -7 7 23.8 9.1
-11 -7 -7 17.3 6.8
11 7 -7 22.8 8
-11 8 -7 2 2.8
11 -8 -7 2.2 5.9
11 -8 7 5.1 6.3
11 8 -7 7.2 4.4
-11 -8 -7 14.8 5.4
-11 -8 -7 7.2 5.7
11 -9 -7 8.6 7
-11 -9 -7 3.3 4.3
11 9 -7 6.8 5
-12 0 7 -0.5 1.8
12 0 -7 -1.4 1.8
-12 0 -7 0 3.7
12 -1 -7 187.78 18.6
12 1 7 197.48 20.3
-12 1 -7 169.58 21.4
-12 -1 7 215.08 19.3
12 -1 -7 203.18 21.9
-12 -1 -7 200.38 21.8
12 -1 7 161.28 20.5
12 1 -7 196.38 21.6
-12 -1 -7 175.48 19.4
12 1 -7 183.58 19.2
-12 1 7 196.08 18.1
12 2 7 25.9 6.6
-12 -2 7 33.5 6.9
-12 2 -7 20.9 7.8
12 -2 -7 26.2 8
12 -2 -7 18.7 5
-12 -2 -7 31.5 8.4
-12 -2 -7 35.8 7.8
-12 2 7 18.4 4.8
12 2 -7 25.1 7
12 2 -7 25.4 5.2
12 2 -7 27.4 8
12 -2 7 33.3 9.3
12 3 7 1.9 2.1
12 -3 -7 5.8 4.6
-12 3 -7 -1 3.6
-12 -3 7 -1.7 2.5
12 -3 7 -2.7 2.9
-12 3 7 3.3 2.4
-12 -3 -7 3.5 3.6
12 3 -7 4.3 3.4
12 3 -7 2.8 2.3
-12 -3 -7 2.5 3.6
12 3 -7 3.5 3.2
-12 -4 7 345.47 30.4
12 -4 -7 321.27 32.6
-12 4 -7 303.57 31.9
12 -4 7 313.77 33.4
-12 -4 -7 318.57 31.3
-12 -4 -7 287.97 30.1
12 4 -7 293.77 30.4
12 4 -7 355.96 27.4
-12 4 7 339.97 26.2
-12 5 -7 31.5 8.7
-12 -5 7 40.5 9.2
12 -5 -7 14.5 7.4
-12 5 7 30.6 3.5
12 5 -7 38.1 8.4
12 5 -7 27.2 5.4
12 5 -7 22.7 7.5
12 -5 7 29.3 10.5
-12 -5 -7 34 8.4
-12 -5 -7 32.3 8.3
12 -6 -7 401.96 37.9
-12 -6 7 449.26 35.4
-12 6 -7 380.66 35.1
-12 -6 -7 349.07 33.9
12 6 -7 343.57 30.2
-12 -6 -7 395.46 35.2
12 6 -7 315.97 29
12 6 -7 372.56 35.3
12 -6 7 399.26 39.3
12 -7 -7 11.9 7
-12 7 -7 2.9 2.5
-12 7 -7 4.4 5.2
12 7 -7 12.9 6.1
12 -7 7 8.9 7
-12 -7 -7 10.6 5.6
-12 -7 -7 14 5.5
12 -8 -7 172.08 22.4
-12 8 -7 151.78 14.8
12 -8 7 164.18 23.1
-12 -8 -7 159.88 19.1
-12 -8 -7 137.19 16.8
12 -9 -7 15.3 7.3
12 -9 7 23.3 10.1
12 9 -7 -3.2 5.5
-13 0 7 1.2 2.6
13 0 -7 -1.4 2.7
13 0 -7 -1 2.2
-13 0 -7 0.2 4.1
13 0 7 1.9 4.3
-13 1 -7 191.38 22.7
13 -1 -7 179.28 20.8
13 -1 -7 163.58 21.1
-13 -1 7 199.38 19.4
13 1 -7 168.78 19.2
-13 -1 -7 197.88 22.5
13 1 -7 190.88 22.1
-13 -1 -7 199.48 20.4
-13 1 7 211.08 18.9
13 -1 7 206.08 22.5
13 2 7 1239.88 99.49
-13 2 -7 1255.27 103.69
13 -2 -7 1240.38 102.79
-13 -2 7 1345.57 99.79
13 -2 -7 1314.77 98.69
13 2 -7 1298.17 102.59
-13 2 7 1330.67 97.79
13 2 -7 1216.98 99.89
-13 -2 -7 1331.17 101.09
-13 -2 -7 1215.78 102.29
13 2 -7 1308.07 97.19
13 -2 7 1280.47 103.39
13 -3 -7 28.9 8.8
-13 3 -7 38 10.6
13 3 7 39.9 7.2
-13 -3 7 44.2 9
-13 -3 -7 45.9 9.5
-13 3 7 37.8 6.5
13 3 -7 40.9 6
13 3 -7 25.7 7.7
13 -3 7 39.7 11
13 3 -7 33.6 9.3
-13 -3 -7 31.8 8.6
-13 -4 7 -4.2 2.7
-13 4 -7 -0.5 4.2
13 -4 -7 -3.7 3.2
-13 -4 -7 3.9 5
13 4 -7 0 2.4
-13 4 7 0.7 1.7
-13 -4 -7 -3.2 2.9
13 4 -7 -2.7 2.3
13 -4 7 -2.3 3.9
13 4 -7 -1.6 3
13 -5 -7 41.1 10.6
-13 -5 7 28.1 8.5
-13 5 -7 28.2 10.2
-13 5 7 39.3 4.5
13 -5 7 25.8 9.5
13 5 -7 35.8 9.9
-13 -5 -7 34.8 8.7
13 5 -7 34.9 8.4
-13 -5 -7 34.8 9.3
13 -6 -7 8.3 6.5
-13 6 -7 10.6 6.2
13 6 -7 11.2 5.7
-13 -6 -7 1.5 5.7
13 6 -7 -0.5 2.9
13 -6 7 -0.3 4.8
13 6 -7 6.1 2.6
-13 7 -7 117.19 11.7
13 -7 -7 97.39 19
13 -7 7 128.99 19.9
-13 -7 -7 126.29 15.6
13 7 -7 93.59 17.2
-13 -7 -7 117.49 16.4
13 -8 -7 206.78 27.6
-13 8 -7 226.88 20
13 -8 7 252.87 30
-13 -8 -7 215.28 25
13 8 -7 237.88 26.3
-14 0 7 2.4 2.8
14 0 -7 1.9 4
14 0 7 1.2 3.4
14 0 -7 0.4 2.9
-14 0 -7 0.5 3.7
-14 0 -7 2.2 4.5
14 1 7 -1.3 3.3
-14 1 -7 -0.5 3.3
14 -1 -7 1.4 3.9
14 -1 -7 -1.9 1.9
-14 -1 7 0.9 2.8
-14 1 7 1.3 2.7
14 -1 7 -1 3.3
-14 -1 -7 -0.7 2.6
14 1 -7 -1.7 3.6
14 1 -7 -1.1 2.2
-14 -1 -7 0.6 4.6
-14 -2 7 14.7 5.9
14 -2 -7 6.9 5.6
-14 2 -7 18.5 7.3
14 2 7 18.6 6.3
14 -2 -7 14.6 4.7
-14 -2 -7 23.2 7.3
14 -2 7 15.7 7.4
14 2 -7 23.7 8.5
14 2 -7 17.5 6.2
14 2 -7 20.4 4.7
-14 -2 -7 20.2 7.3
-14 2 7 17.3 5
-14 -3 7 490.95 40.4
-14 3 -7 437.56 43.1
14 -3 -7 456.75 43.3
14 3 7 450.65 37.9
-14 -3 -7 476.25 41.3
14 3 -7 424.66 41.3
14 -3 7 414.56 42.9
-14 3 7 485.25 39.3
-14 -3 -7 463.65 42.6
14 3 -7 477.15 36.9
14 3 -7 382.96 39.5
-14 -4 7 193.48 21.3
14 4 7 210.48 15.6
14 -4 -7 185.58 23.7
-14 4 -7 188.28 23.7
14 4 7 218.58 16.2
14 -4 7 168.08 23.6
14 4 -7 201.78 22.3
-14 -4 -7 195.88 23.1
14 4 -7 206.78 18.2
-14 4 7 194.98 17.8
-14 -4 -7 185.58 21.7
14 4 -7 161.38 21.1
-14 5 -7 0.2 5.8
14 -5 -7 -5.1 3.3
-14 -5 7 -7.2 2.5
-14 -5 -7 1.9 4.6
14 -5 7 -3.6 4.3
14 5 -7 3.3 4.5
14 5 -7 -1.5 3.3
-14 5 7 0.2 1.4
-14 -5 -7 -5.6 3.3
14 5 -7 0.1 2.5
-14 6 -7 63.69 12.5
14 -6 -7 41.3 12.3
-14 -6 -7 34.2 8.9
14 6 -7 51.39 11.9
-14 -6 -7 42.2 10.9
14 -6 7 63.09 14.9
14 6 -7 42.5 6.3
14 6 -7 41.4 7.7
14 -7 -7 -3.1 5.3
-14 7 -7 3.5 2.9
-14 7 -7 -0.8 5.9
14 7 -7 -2.8 3.6
-14 -7 -7 7 6.1
14 -7 7 19.8 9.3
14 -8 -7 5.9 6.7
-14 8 -7 8.5 3.5
-14 -8 -7 1.2 6.5
14 8 -7 2.5 5.6
14 -8 7 34.2 11.4
15 0 -7 -1.2 2.3
-15 0 -7 -2.1 3.3
15 0 -7 4.4 5.4
15 0 7 -1.6 3.6
-15 0 7 1.3 2.9
-15 0 -7 3.8 5.8
15 -1 -7 540.35 49.9
-15 -1 7 553.94 46.1
15 1 7 545.45 48.2
15 -1 -7 568.24 46.2
-15 1 -7 550.84 50.79
15 -1 7 504.15 49
-15 -1 -7 516.65 46.9
-15 -1 -7 552.04 50.29
15 1 -7 532.15 49.4
-15 1 7 557.84 45.2
15 1 -7 521.15 46.5
-15 -2 7 155.98 16.7
-15 2 -7 128.09 19.2
15 2 7 125.79 16.3
15 -2 -7 129.89 15.1
15 -2 -7 141.69 19.1
-15 -2 -7 134.49 18.7
15 2 -7 123.39 16
15 2 -7 123.99 18
15 -2 7 113.29 18
-15 2 7 154.58 15.1
-15 -2 -7 145.19 17.4
15 2 -7 135.69 14
15 3 7 3.1 3.7
-15 -3 7 3.3 3.9
15 -3 -7 3.9 5.6
-15 3 -7 3.2 6.3
15 -3 7 0.5 5.3
-15 -3 -7 0.5 4.2
-15 -3 -7 -1.5 4
-15 3 7 4.6 3
15 3 -7 3.1 4.6
15 3 -7 0.9 2.3
15 3 -7 2.8 2.7
15 -4 -7 10.2 7
15 4 7 11.7 3
-15 4 -7 24.3 8.3
15 4 7 9.7 2.3
-15 -4 7 9.9 6
-15 4 7 11.9 3.9
-15 -4 -7 6.8 6.5
15 4 -7 4.9 3.6
15 4 -7 13.4 6.7
15 4 -7 13.6 6.2
-15 -4 -7 7.1 5.1
15 -4 7 13.4 8.5
15 -5 -7 11.1 7.1
-15 5 -7 13.5 7
-15 5 7 10.8 2.9
-15 -5 -7 13.1 6.8
-15 -5 -7 7 6.1
15 -5 7 12.1 7.3
15 5 -7 5.6 5.1
15 5 -7 11.5 6.7
15 5 -7 10.6 4
-15 6 -7 19.7 8.7
15 -6 -7 8.2 7
15 6 -7 8.1 3
15 6 -7 13.9 5.2
15 6 -7 9.4 6.4
15 -6 7 8.2 7.6
-15 6 7 13.9 1.8
-15 7 -7 50.69 11.6
15 -7 -7 53.89 14.9
15 -7 7 60.09 15.9
-15 -7 -7 65.09 14.3
15 7 -7 60.79 13.5
-15 8 -7 101.89 11
15 -8 -7 95.89 20.4
-15 8 -7 110.39 14.5
-15 -8 -7 123.49 20.6
15 8 -7 73.49 16.1
15 -8 7 104.59 21
-16 0 -7 6.9 5.6
-16 0 7 -1.8 2.9
16 0 7 -3.4 3.7
-16 0 -7 -5.9 3
16 0 -7 -0.4 3.3
16 0 -7 -3.9 3.1
-16 1 -7 653.13 57.09
16 -1 -7 648.04 60.29
-16 -1 7 695.13 56.49
16 -1 -7 695.33 56.59
-16 1 -7 695.63 62.19
16 1 7 702.93 59.19
-16 -1 -7 672.33 60.99
-16 -1 -7 654.13 57.59
16 -1 7 682.43 60.39
16 1 -7 642.24 56.79
-16 1 7 726.73 55.89
16 1 -7 660.73 60.09
16 2 7 56.69 11.9
16 -2 -7 64.09 14.6
16 -2 -7 61.39 10.5
-16 2 7 75.49 9.9
16 2 -7 63.89 12.5
16 -2 7 42.5 12.3
-16 -2 -7 36.4 15.6
16 2 -7 65.69 13.9
-16 -2 -7 72.79 14.9
16 -3 -7 366.56 39.7
16 3 7 373.96 36.8
16 3 -7 386.06 37.7
16 3 -7 365.76 38.4
16 3 -7 412.16 33.8
-16 3 7 455.85 34.9
16 -3 7 397.46 41
-16 -3 -7 472.05 39.3
-16 -3 -7 392.56 40.4
16 -4 -7 22.8 9.2
16 4 7 29.4 5.3
16 4 7 25.2 3.7
16 4 -7 18.8 7.9
16 4 -7 15 7.8
16 -4 7 21 9.4
16 4 -7 24.9 6
-16 4 7 25.7 5.6
-16 -4 -7 37.5 8.9
-16 5 -7 51.39 12.8
16 -5 -7 59.99 15.3
16 5 -7 49.1 10.9
16 5 -7 60.99 13.1
16 5 -7 59.39 8.3
-16 5 7 73.69 8.1
16 -5 7 56.29 15.4
-16 -5 -7 83.29 12.5
-16 6 -7 7.9 7.2
16 -6 -7 8.6 7.4
16 -6 7 10.2 8
16 6 -7 12.5 5.1
16 6 -7 10 3.5
-16 -6 -7 1.2 7.1
-16 6 7 12.6 2.4
16 -7 -7 1.2 7.8
-16 7 -7 -2.1 7.5
-16 -7 -7 16.5 7.9
16 -7 7 -0.2 6
16 7 -7 4 5.5
16 -8 -7 1.5 7.5
-16 8 -7 8.2 5.8
-16 8 -7 1.1 3.2
16 -8 7 25.2 10.3
16 8 -7 0.4 5.2
17 0 -7 -2.1 3.2
17 0 7 -0.1 3.6
17 0 -7 -0.9 2.4
-17 0 7 -1.2 3.2
-17 0 -7 -5.5 5.1
-17 0 -7 -2 5
17 -1 -7 700.13 64.59
-17 1 -7 741.33 61.79
-17 -1 7 760.12 63.79
17 -1 -7 758.92 60.69
-17 1 -7 744.23 65.99
17 1 7 722.33 62.99
-17 1 7 745.93 59.59
17 -1 7 740.03 64.79
-17 -1 -7 723.33 65.39
17 1 -7 674.23 60.69
17 1 -7 684.33 63.89
17 2 7 54.39 11.5
-17 -2 7 31.9 8.9
17 -2 -7 31.4 10.4
-17 2 -7 33.7 10.8
-17 2 -7 22.2 8
17 -2 7 32 10.9
-17 -2 -7 42 9.6
-17 -2 -7 33.3 10.7
17 2 -7 34.1 9.1
-17 2 7 31.4 7.7
17 2 -7 24 8.7
17 -3 -7 368.76 38.8
17 3 7 372.36 33.6
-17 3 -7 355.76 37.7
17 -3 7 397.96 39.5
17 3 -7 386.36 31.3
17 3 -7 330.47 36.1
-17 -3 -7 378.06 35.9
-17 -3 -7 359.16 37.6
17 3 -7 314.57 34.5
-17 3 7 366.86 32
17 -4 -7 1.9 5.1
17 4 7 0.6 1.8
17 4 7 -1.6 2.3
-17 4 -7 -0.5 6.6
17 4 -7 0.5 3.2
-17 4 7 4.8 3.7
-17 -4 -7 -2.7 6.4
17 4 -7 -1.2 4.7
17 4 -7 10.8 5
17 -4 7 -5 4
17 -5 -7 67.29 16.1
-17 5 -7 75.29 15.9
17 5 -7 57.09 12.2
-17 -5 -7 63.89 13.8
17 5 -7 57.89 13.3
17 5 -7 51.99 8.3
17 -5 7 71.99 17
-17 6 -7 53.49 14.5
17 -6 -7 50.09 14.5
-17 6 -7 72.59 12
17 6 -7 62.69 14.1
17 6 -7 38.9 7.8
-17 6 7 57.59 6
17 -6 7 71.69 19.8
17 6 -7 38.9 11.3
17 -7 -7 44 14.3
-17 7 -7 52.29 10.4
-17 7 -7 45.2 11.5
17 7 -7 39.9 11.7
17 -7 7 58.79 16.1
18 0 -7 1.7 3.5
18 0 7 -1 4.2
18 0 -7 -3.7 3.5
-18 0 7 -3.4 3.8
-18 0 -7 -4 3.5
-18 1 -7 87.29 15.3
18 1 7 77.99 16.3
18 -1 -7 80.39 13.6
-18 -1 7 96.39 13
-18 1 -7 89.09 28
18 -1 -7 81.09 17.7
-18 1 7 92.19 12.2
18 -1 7 77.59 16.9
-18 -1 -7 68.39 16.4
18 1 -7 83.79 14.8
18 1 -7 73.19 16.2
18 2 7 11.6 6.8
-18 2 -7 7 5.2
18 -2 -7 7.4 6.2
-18 2 -7 15.7 9.6
18 2 -7 2.9 3.3
-18 2 7 9.1 4.6
18 -2 7 7.1 6.1
18 2 -7 9.3 6.2
-18 -2 -7 10.4 8
18 -3 -7 2.5 5.1
-18 3 -7 -3.1 7.5
-18 3 -7 -4.7 3.4
18 3 7 -0.9 3.8
18 3 -7 1.7 5.6
18 3 -7 1.8 3.8
-18 -3 -7 -5 5.3
18 3 -7 -2.6 3.4
-18 3 7 5.9 3.7
18 -3 7 -7 3.7
-18 4 -7 141.99 18.7
18 4 7 132.09 13
-18 4 -7 173.38 23.5
18 -4 -7 135.29 21.7
18 4 7 158.18 15.5
-18 4 7 150.98 15.9
18 -4 7 146.69 22.3
18 4 -7 122.39 18.4
18 4 -7 168.28 15.8
18 4 -7 147.79 19.8
18 -5 -7 11.5 8.9
-18 5 -7 28.3 11.2
-18 5 -7 25.1 7.7
18 5 -7 16 7.4
18 -5 7 26 10.5
18 5 -7 24.2 7.8
18 5 -7 17.1 5.2
-18 5 7 17.6 5
18 -6 -7 143.59 23.9
-18 6 -7 171.98 20.2
-18 6 -7 142.79 22.6
18 6 -7 157.38 21.9
18 -6 7 161.68 24.9
-18 6 7 184.98 14.9
-18 7 -7 0.1 9
-18 7 -7 -2.3 7.3
18 -7 -7 4.9 6.4
18 -7 7 -4.4 7.1
18 7 -7 8.5 7
-19 0 7 -7.4 2.8
19 0 -7 1.3 5.6
-19 0 -7 5.9 6.4
19 0 7 0.7 4.9
19 0 -7 4.2 4.2
19 1 7 1 5
19 -1 -7 3.4 4.1
19 -1 -7 12.9 7.6
-19 -1 7 12.5 6.5
-19 1 -7 10.7 6.4
19 1 -7 9.1 6.4
19 -1 7 3.5 6.3
19 1 -7 8.2 5.7
19 2 7 270.87 28.8
-19 2 -7 271.37 28.3
19 -2 -7 276.87 32.4
-19 2 7 296.57 26.6
19 2 -7 255.07 28.4
19 -2 7 249.68 30.9
19 2 -7 244.58 30
19 3 7 77.09 14.1
-19 3 -7 65.29 13.8
19 -3 -7 68.49 17.2
19 3 -7 80.89 15.3
19 -3 7 74.39 17.9
19 3 -7 74.59 10.7
-19 3 7 87.49 11.6
19 3 -7 90.39 17.4
-19 4 -7 5.3 5.9
19 -4 -7 18.7 9.7
19 4 7 3.1 4.1
19 4 -7 3.1 5.2
-19 4 7 2 3.6
19 4 -7 2.4 4.3
19 -4 7 -0.9 5.9
-19 5 -7 35.8 9.7
19 -5 -7 55.99 15.5
19 5 -7 37.8 9.9
19 5 -7 34.3 7.3
19 -5 7 42.9 13.8
-19 5 7 50.39 7.8
19 5 -7 31.8 10.1
-19 6 -7 -15.7 8.5
-19 6 -7 -1.9 6.7
19 6 -7 4.7 4.7
19 -6 7 9.7 8.1
19 6 -7 8 4.9
-19 6 7 -1.1 2.5
19 6 -7 5.2 5.4
-19 7 -7 45.6 11.2
19 -7 -7 20.3 11.2
19 -7 7 14.6 9.8
19 7 -7 27.9 9.7
20 0 -7 -0.4 3.9
20 0 7 1.7 4.6
-20 0 7 0.2 4.4
20 0 -7 -3.5 4
20 1 7 15.1 8
20 -1 -7 10.1 8.2
20 1 -7 14.1 8.8
20 -1 7 11.2 7.9
20 1 -7 8.4 5.9
-20 1 7 20.9 6.9
20 2 7 93.39 15.9
20 -2 -7 133.99 20.3
-20 2 7 117.39 19.2
20 2 -7 119.49 18.9
20 -2 7 113.29 22
20 2 -7 94.29 17.2
20 -3 -7 97.29 19.8
20 3 7 75.59 13.8
20 3 -7 83.49 16.7
20 3 -7 86.29 11.6
-20 3 7 102.79 13.3
20 -3 7 75.39 18
20 3 -7 87.89 18.2
20 -4 -7 55.49 15.7
20 4 7 63.09 9.6
20 4 -7 53.09 9.4
-20 4 7 53.99 10
20 4 -7 61.59 14.2
20 -4 7 60.69 16.4
20 4 -7 47.6 12.8
20 -5 -7 20.2 13
20 5 -7 1.8 5.6
20 5 -7 11.2 6.8
-20 5 7 12.1 4.3
20 -5 7 9.1 10.1
20 5 -7 4.8 4.9
20 -6 -7 64.29 17.8
20 -6 7 62.29 16.4
20 6 -7 25.5 6.4
20 6 -7 32.1 10.3
-20 6 7 33.9 6.5
20 6 -7 39.9 9
21 0 -7 5.8 4.4
21 0 7 0.2 6
21 0 -7 -10.4 3.7
21 -1 -7 28 11.4
21 1 7 9.5 7
21 -1 7 24.8 8.9
21 1 -7 6.8 7.1
21 1 -7 18.9 7.8
21 -2 -7 63.69 16.6
21 2 7 79.59 16.2
21 -2 7 67.49 17.3
21 2 -7 59.39 13.6
-21 2 7 100.19 13.3
21 2 -7 66.89 16.3
21 -3 -7 281.57 38.6
21 3 7 303.27 30.2
-21 3 7 327.67 28.7
21 3 -7 246.78 31.3
21 3 -7 278.17 31.2
21 -3 7 257.07 38.6
21 -4 -7 6.5 7.2
21 4 7 3.6 4
21 4 -7 1.3 5.5
21 -4 7 -2 5.1
-21 4 7 -1.5 4.8
21 4 -7 0.9 4.5
21 4 -7 2.4 7.2
21 -5 -7 27.7 13.1
21 5 -7 20.5 7.6
-21 5 7 28.6 6.3
21 -5 7 23.6 12.4
21 5 -7 21.6 8.6
21 5 -7 14.4 9.4
21 -6 -7 7.3 9.5
-21 6 7 26.8 5.9
21 6 -7 15.2 6
21 6 -7 21.8 6.6
21 -6 7 20.4 9.4
21 6 -7 21.7 9
22 0 7 0.9 5.5
22 0 -7 2 5.3
22 1 7 4.8 6.1
22 -1 -7 5.6 6.6
22 1 -7 -0.8 5
22 1 -7 5.7 7.4
22 -1 7 -4.8 4.1
22 -2 -7 11.7 8
22 2 7 20 8.2
22 -2 7 23 10
22 2 -7 22.6 10.1
22 2 -7 8.1 6.7
22 -3 -7 36.2 15.1
22 3 7 59.99 13.4
-22 3 7 79.89 13.4
22 3 -7 78.99 16
22 -3 7 68.49 17.3
22 3 -7 52.99 14.4
22 -4 -7 18.8 11.5
22 4 7 28.9 7.4
22 4 -7 19.2 7.9
22 -4 7 26.5 12.2
22 4 -7 29.9 9.5
-22 4 7 28 7.4
22 -5 -7 5 8.6
-22 5 7 2.6 5
22 5 -7 12.9 7.3
22 5 -7 -8.9 4.8
22 5 -7 -0.5 6
22 -5 7 9.9 10
22 -6 -7 40.1 14.8
22 -6 7 49 15.6
22 6 -7 36 8.3
22 6 -7 42.8 9.4
-22 6 7 45.4 8.9
22 6 -7 42.1 13
23 0 7 -0.8 6.9
23 0 -7 -8.7 4.4
23 1 7 22.2 10.9
23 -1 -7 31.5 13.9
23 -1 7 35.5 13
23 1 -7 29.2 11.1
23 -2 -7 4 6.9
23 2 7 -3.4 5.2
23 2 -7 9.2 6.5
23 -2 7 -3.9 4.6
23 3 7 182.68 21.2
23 -3 -7 114.69 24.9
23 3 -7 140.59 23.2
23 -3 7 159.38 24.7
23 3 -7 125.39 20.8
23 4 7 96.19 12.9
23 -4 -7 79.49 20.3
23 4 -7 50.69 14
-23 4 7 83.89 13
23 4 -7 73.69 15.5
23 -4 7 53.79 16.3
23 5 7 17.4 3
23 -5 -7 24.3 11.9
-23 5 7 19.1 9.8
23 5 -7 15 8.7
23 -5 7 4.9 8.1
23 5 -7 8.9 8
23 5 -7 -0.9 7.2
24 0 -7 3.9 6.6
24 0 7 -6.1 6
24 -1 -7 83.29 20.4
24 -1 7 64.09 18.1
24 1 -7 102.89 22.1
24 -2 -7 1.3 7.3
24 2 7 12.9 7.8
24 2 -7 9 7.7
24 -2 7 13.2 9.3
24 3 7 18 7.6
24 -3 -7 32.2 13.3
24 -3 7 10.2 10.4
24 3 -7 31.1 12.1
24 3 -7 33 10.8
24 -4 -7 5.1 7.8
24 4 7 1.5 4.2
24 4 7 12.9 5.7
24 4 -7 -4.5 4.4
24 -4 7 5.9 8.4
25 0 7 4.8 7.4
25 0 -7 -0.4 7.2
25 -1 -7 -0.1 7
25 1 7 -7.6 6
25 -1 7 -11.4 4.7
25 1 -7 -2.4 6.6
25 -2 -7 -2.2 6.7
25 -2 7 5.5 7.6
25 2 -7 -9.8 5.6
25 3 7 33.2 11.3
25 -3 -7 36.8 16.7
25 3 -7 18.2 10.1
25 -3 7 39.5 15
25 -4 -7 25.6 12.3
25 4 7 14.1 6.6
25 4 7 7.6 6.4
25 4 -7 16.6 9.6
25 -4 7 19.7 11.6
26 0 -7 4.5 7
26 0 7 -0.6 6.2
26 -1 -7 15.6 10.6
26 1 7 12.9 10.4
26 1 -7 7.7 9.9
26 -1 7 22.5 12.7
26 2 7 13.4 8.7
26 -2 -7 9.4 9.6
26 -2 7 -11.7 6.9
26 2 -7 2.8 7.9
26 3 7 0.1 7
26 -3 -7 8.4 8.7
26 -3 7 24.9 10.8
26 3 -7 10.7 8.8
27 0 -7 -1.4 8.4
27 0 7 -6.6 7.4
27 -1 -7 45.8 14.9
27 1 7 38.1 13.2
27 -1 7 48.7 14.5
27 1 -7 58.49 16.5
0 0 -8 633.24 48.5
0 1 -8 -0.5 1.1
0 -1 -8 0.8 0.8
0 1 -8 1.1 1
0 -1 8 7.4 2.8
0 -2 -8 11.3 1.9
0 -2 8 20.8 5.1
0 2 -8 13.2 4.2
0 2 -8 13 2.9
0 3 -8 -0.4 1.9
0 -3 8 -0.5 2.1
0 3 -8 0.9 1.1
0 4 -8 1885.31 138.09
0 -4 -8 1869.91 136.49
0 4 -8 1801.02 139.49
0 -5 -8 0.3 0.9
0 5 -8 0.8 1.8
0 -5 8 -2.9 2.7
0 5 -8 -1.3 1.9
0 6 -8 26.9 4.1
0 6 -8 27.6 6
0 -6 -8 29.8 2.5
0 6 -8 21.3 4.2
0 7 -8 -2.6 1.5
0 -7 8 -0.7 3.2
0 8 -8 0.8 2.8
0 -8 -8 10.3 2.7
0 -8 8 22.2 6.8
0 -9 8 8.3 5
0 -9 -8 2.1 2.1
0 9 -8 -1.5 3.1
0 10 -8 3.1 4.1
0 -10 -8 -0.2 1.6
0 -10 8 -2.3 4.9
1 0 -8 7175.78 553.94
-1 0 -8 7685.83 556.14
-1 0 8 7392.46 558.34
-1 -1 8 71.79 7.3
1 -1 -8 43.1 5
1 1 8 54.29 5.3
-1 1 -8 51.39 6.9
1 1 -8 63.69 6.7
-1 -1 -8 47.1 5.4
1 1 -8 50.19 5.6
-1 2 -8 239.38 23.7
-1 2 -8 256.27 21.6
1 2 -8 269.47 22.2
1 -2 8 331.57 24.9
-1 -2 -8 274.67 20.8
1 2 -8 254.37 23.2
-1 3 -8 5.8 3.6
-1 -3 8 5.2 3.4
-1 3 -8 3.4 1.7
1 3 -8 4.3 3
1 3 -8 6 2.4
1 -3 8 2.7 3.5
-1 4 -8 142.59 15.4
1 -4 -8 144.89 12.1
-1 4 -8 140.49 13.6
1 4 -8 138.59 15
1 -4 8 195.48 17.3
-1 -4 -8 140.99 13
1 4 -8 159.78 14.6
-1 5 -8 24 5
-1 5 -8 23.8 5.8
-1 -5 8 34.4 7.5
1 -5 -8 28.2 2.6
1 5 -8 24.2 6
1 -5 8 21.9 6.5
-1 -5 -8 26.6 4.2
1 5 -8 23.4 5.5
-1 6 -8 449.16 36.3
-1 6 -8 435.56 34.9
1 6 -8 420.46 34
-1 -6 -8 458.95 33.5
1 6 -8 434.76 36.8
1 6 -8 444.46 34
-1 -7 8 136.49 14.4
-1 7 -8 93.99 11.6
1 7 -8 87.59 11.9
-1 8 -8 14.5 5.2
1 -8 -8 23 4.4
-1 -8 8 21.7 6.9
1 -8 8 38.3 9.3
1 8 -8 14.9 5
1 -9 -8 6.8 3
-1 9 -8 13.9 4.7
-1 -9 8 10.7 5.4
1 -9 8 23.8 7.1
1 9 -8 10.4 5.1
-1 -9 -8 7.8 1.9
-1 -10 8 -1 5.3
-1 10 -8 1.5 4.1
1 -10 8 3.8 5.3
1 10 -8 5.5 4.1
-1 -10 -8 0.1 1.1
-2 0 -8 16.8 4.4
2 0 -8 29.5 3.7
-2 0 8 20.1 3.8
2 0 8 26.5 5.1
2 0 -8 21.9 3.3
2 -1 -8 56.09 5.6
-2 -1 8 64.39 6.4
2 -1 -8 45.5 5.2
-2 -1 8 72.39 7.2
-2 1 -8 43.8 7.1
2 1 -8 60.49 6.5
2 1 -8 51.49 6.1
2 -1 8 65.39 7.9
-2 -1 -8 52.99 6.1
-2 2 -8 419.26 38.4
2 -2 -8 462.95 35.1
-2 -2 -8 494.35 35.4
2 -2 8 524.95 39.1
2 2 -8 462.95 36.8
2 2 -8 419.96 37
2 -3 -8 308.57 21.5
-2 3 -8 263.37 25.3
-2 3 -8 271.27 22.6
2 3 -8 289.77 23.9
-2 -3 -8 283.57 21.3
2 3 -8 239.68 24
2 -3 8 290.37 25.8
2 -4 -8 342.87 25.8
-2 4 -8 320.77 30
2 -4 -8 377.16 25.6
-2 4 -8 348.77 27.8
2 4 -8 307.07 29
2 4 -8 320.57 28.7
2 -4 8 373.16 31.4
-2 -4 -8 337.97 27.7
-2 -5 8 18.5 5.7
-2 5 -8 7.4 3.5
-2 5 -8 11.4 3.5
2 -5 8 14.8 5.6
-2 -5 -8 8.9 2.6
2 5 -8 5.2 3.1
2 5 -8 6.7 3.7
2 5 -8 8.9 3.3
-2 6 -8 6.6 2.8
-2 6 -8 14.6 4
2 6 -8 9.8 4.4
-2 -6 -8 7.4 2.4
2 -6 8 13.2 5.8
2 6 -8 8.7 2.5
2 6 -8 14.1 2.8
-2 7 -8 63.89 9.5
2 -7 -8 84.99 8.9
-2 -7 8 109.19 12.5
2 7 -8 65.09 11.3
-2 -7 -8 79.59 7.4
2 -7 8 91.49 12.9
2 -8 -8 3.8 3
-2 -8 8 2.4 4.6
-2 8 -8 7.9 3.7
2 -8 8 11.8 5.5
2 8 -8 9.6 4.4
-2 9 -8 16.2 5.1
-2 -9 8 15.9 6.3
2 -9 -8 18.6 4.5
2 -9 8 15.7 6.1
2 9 -8 5.4 4.8
-2 10 -8 11.8 5.2
2 10 -8 10.2 4.9
3 0 -8 1808.02 146.99
3 0 8 2274.37 149.19
3 0 -8 1878.61 147.49
-3 0 -8 1747.43 148.99
-3 0 8 2298.87 147.69
-3 1 -8 49.9 7.5
3 1 8 65.89 6.1
3 -1 -8 47.6 5.4
-3 -1 8 53.59 6.3
-3 -1 8 48 5.9
-3 -1 -8 46.9 6.3
3 1 -8 46 6
3 1 -8 54.99 6.1
3 -1 8 51.99 7.4
3 -2 -8 235.58 18.2
-3 2 -8 204.38 21.3
-3 -2 8 258.17 19.7
3 -2 8 224.58 21.4
-3 -2 -8 221.38 18.8
3 2 -8 217.58 19.6
3 2 -8 231.38 19.9
-3 3 -8 -0.1 2.2
-3 -3 8 5.3 3.5
-3 -3 8 1.8 1.9
3 -3 -8 2.5 1.1
3 3 -8 3.1 2.5
-3 -3 -8 3.3 1.4
3 -3 8 4.2 3.4
3 3 -8 1.4 2.1
-3 4 -8 425.26 40
-3 4 -8 481.45 37.6
-3 -4 -8 441.36 38
3 4 -8 489.65 39.4
3 4 -8 423.96 38.8
-3 -4 -8 565.54 35.9
3 -4 8 508.75 41.6
-3 5 -8 8.7 4.2
-3 5 -8 11.7 3.2
-3 -5 8 22 6.2
-3 -5 8 24.6 5.2
3 5 -8 12 4.1
3 5 -8 8.2 3.8
3 -5 8 10.3 4.9
-3 -5 -8 19 4.1
-3 -5 -8 12.2 1.3
3 5 -8 9.2 3.9
-3 6 -8 111.09 11.7
-3 6 -8 116.49 12
3 6 -8 104.89 9.6
-3 -6 -8 111.09 10.8
3 6 -8 113.49 13
3 -6 8 121.49 15
-3 -7 8 159.68 15.5
-3 7 -8 107.39 12.4
3 -7 -8 123.29 12.4
3 7 -8 102.19 13.8
-3 -7 -8 121.89 10.9
3 -7 8 99.89 15
3 -8 -8 26.9 6.1
-3 -8 8 44.8 8.9
-3 8 -8 26.1 6.1
3 -8 8 31.3 9
3 8 -8 12.4 5.1
-3 -8 -8 23.3 3.4
-3 -9 8 -1.8 4.1
3 -9 -8 1.1 3.1
3 -9 8 2.2 5.3
3 9 -8 -5.2 3.5
-4 0 8 66.89 6.5
4 0 -8 49 5.8
4 0 8 73.99 8
4 0 -8 50.59 6.3
-4 0 -8 55.19 7.9
4 -1 -8 158.88 14.2
-4 -1 8 171.48 14.7
-4 1 -8 149.69 16.7
-4 -1 8 151.98 14.6
4 -1 8 167.98 16.6
-4 1 8 182.48 14
4 1 -8 169.68 14.5
4 1 -8 172.38 15.3
-4 -1 -8 172.08 15.9
4 2 8 347.27 25.6
-4 -2 8 357.46 27.9
4 -2 -8 326.27 26.4
-4 2 -8 329.87 30.3
4 2 -8 319.77 28.2
-4 -2 -8 326.37 27.7
4 -2 8 354.66 30.3
4 2 -8 358.46 27.9
4 -3 -8 599.54 47.8
-4 -3 8 783.02 56.19
-4 3 -8 607.64 52.59
4 3 -8 591.24 50.09
4 -3 8 640.44 52.89
4 3 -8 663.83 51.09
-4 -3 -8 672.43 49
-4 4 -8 333.07 29.6
-4 -4 8 386.86 28
-4 4 -8 310.57 26
4 4 -8 322.07 28.7
-4 -4 -8 316.97 27.2
4 -4 8 330.87 30.4
4 4 -8 277.37 27.2
-4 -4 -8 335.47 25.3
-4 5 -8 303.87 27.4
-4 5 -8 292.97 24.7
-4 -5 -8 300.07 25.4
4 -5 8 346.67 32.9
4 5 -8 249.97 25.1
-4 -5 -8 321.87 23
4 5 -8 290.97 26.8
4 5 -8 308.87 26.1
-4 6 -8 91.79 11
-4 6 -8 91.69 11.2
4 -6 -8 105.69 10.9
-4 -6 8 127.29 12.3
4 6 -8 90.49 9.6
-4 -6 -8 91.69 7.9
-4 -6 -8 95.29 10.3
4 -6 8 114.79 15
4 6 -8 92.39 8.7
4 6 -8 87.89 12
-4 7 -8 -1.8 2
4 -7 -8 1.9 2.3
-4 -7 8 3 3.7
-4 -7 -8 1.2 1.1
4 7 -8 0.6 3.3
4 -7 8 0.2 4.5
-4 -7 -8 0.4 1.8
-4 -8 8 16.7 5.8
-4 8 -8 8.3 4
4 -8 -8 7.6 4.4
-4 -8 -8 8.1 2.4
4 -8 8 7.6 5.8
4 8 -8 10.6 5.4
-4 -8 -8 7.1 2.2
-4 -9 8 3.5 4.4
4 -9 -8 1.6 3.9
-4 9 -8 -1.2 2.8
4 -9 8 -3.8 4.4
4 9 -8 -0.9 3.4
5 0 8 10.2 3.6
5 0 -8 9.2 2.8
5 0 -8 9 2.3
-5 0 8 10.7 2.7
-5 0 -8 3.7 2.8
-5 -1 8 181.48 16.6
-5 1 -8 183.88 19.4
5 -1 -8 183.68 16.4
5 1 8 216.88 17.4
5 1 -8 185.38 17.3
5 1 -8 193.18 16.4
5 -1 8 190.28 18.7
-5 -1 -8 178.98 18.1
-5 1 8 212.98 16.2
5 -2 -8 254.87 22.3
-5 2 -8 258.57 26.1
-5 -2 8 328.57 24.3
-5 -2 8 272.37 23.5
-5 2 8 339.57 22.2
5 2 -8 272.97 23.2
5 2 -8 276.47 24.3
5 -2 8 258.97 25.7
-5 -2 -8 253.37 23.9
-5 -3 8 2.5 2.6
5 -3 -8 1.3 1
-5 3 -8 1.1 2.7
-5 -3 8 6.4 2.6
-5 -3 -8 3.4 2.2
5 3 -8 4.4 2.6
5 3 -8 1.1 2.5
5 -3 8 -0.5 2.6
-5 4 -8 839.02 72.19
-5 -4 -8 938.31 68.69
5 4 -8 982.1 71.89
5 -4 8 976.8 73.99
-5 -4 -8 857.51 70.09
5 4 -8 839.92 69.89
5 4 -8 940.21 71.49
-5 5 -8 402.26 36.8
-5 5 -8 435.96 34
5 5 -8 374.66 34.6
-5 -5 -8 437.86 35.4
-5 -5 -8 428.46 33.3
5 -5 8 466.75 39.5
5 5 -8 454.65 35.9
5 5 -8 446.66 36.9
-5 6 -8 596.34 46.1
-5 6 -8 594.54 47.4
5 -6 -8 638.24 47.9
5 6 -8 501.45 44.2
5 6 -8 570.24 48.5
-5 -6 -8 582.84 46.4
5 6 -8 589.84 44.3
5 -6 8 671.73 52.19
-5 -6 -8 553.04 44.2
-5 -7 8 341.27 26
5 -7 -8 266.57 25.1
-5 7 -8 241.48 23.2
5 7 -8 251.87 25.9
5 -7 8 307.37 29.4
-5 -7 -8 258.77 21.8
-5 -7 -8 268.27 23.3
-5 8 -8 7.7 3.5
-5 -8 8 17.3 5.9
5 -8 -8 15.1 5.6
-5 -8 -8 12.6 3.4
5 -8 8 15.1 7.1
5 8 -8 13.3 5.7
-5 -8 -8 7.3 2.9
5 -9 -8 10.6 6.6
-5 9 -8 10.5 4.6
-5 -9 8 21.1 6.8
5 9 -8 20.4 6.3
-5 -9 -8 13.1 3
5 -9 8 18.9 8.4
6 0 8 279.97 24.8
-6 0 8 289.27 22.9
6 0 -8 264.27 23.2
-6 0 -8 270.87 25.6
-6 1 -8 -0.9 2.3
-6 -1 8 4.4 2.3
6 1 8 15 4.1
6 -1 -8 0.8 1.5
6 1 -8 -0.1 1.9
-6 1 8 0.8 1
-6 -1 -8 -1.3 1.5
6 -1 8 0.4 2.6
6 1 -8 3.3 1.8
-6 2 -8 8.5 4.4
-6 -2 8 7.2 3.5
6 -2 -8 7.3 2.4
6 2 8 13.4 2.7
6 2 -8 17.4 3.7
6 2 -8 10.2 3.4
-6 2 8 12.3 2.5
-6 -2 -8 10.3 3.6
6 -2 8 8.6 4.3
6 -3 -8 177.58 15.8
-6 -3 8 221.58 18.4
-6 -3 8 240.58 18.7
6 3 -8 182.68 19.3
-6 -3 -8 188.08 17.7
6 3 -8 179.88 17.2
6 3 -8 173.48 18.2
6 -3 8 206.58 21
-6 -4 8 114.09 11.3
-6 -4 -8 86.39 9.6
6 4 -8 75.39 9.7
-6 -4 -8 110.09 11.3
6 4 -8 91.89 11.5
6 -4 8 96.69 13.4
6 4 -8 92.59 11.3
-6 5 -8 597.44 46.2
-6 5 -8 565.84 49.6
6 -5 -8 666.43 49.4
6 5 -8 610.24 49.6
6 5 -8 540.45 47
-6 -5 -8 581.94 48.1
6 5 -8 616.94 48.4
6 -5 8 656.23 52.69
-6 -5 -8 570.64 46.3
6 -6 -8 165.68 16
-6 6 -8 133.29 12.8
-6 6 -8 115.09 14.2
-6 -6 8 174.78 15.6
-6 -6 -8 125.99 12.4
6 -6 8 157.18 18.9
6 6 -8 124.29 11.8
6 6 -8 126.29 11.6
6 6 -8 121.49 15.4
-6 -6 -8 135.89 14.3
6 -7 -8 -0.2 3.1
-6 -7 8 -0.5 3.3
-6 7 -8 5 3
-6 -7 8 -2.6 3.3
-6 -7 -8 0.2 1.9
-6 -7 -8 2.6 3
6 7 -8 4.9 3.4
6 -7 8 -2.6 2.5
-6 8 -8 35.1 6.5
-6 -8 8 49 9.4
-6 -8 8 45 9.2
6 -8 -8 36.4 8.5
-6 -8 -8 33 5.8
-6 -8 -8 32.3 5.8
6 8 -8 37 9
6 -8 8 29.9 9.6
-6 -9 8 -4.6 3.4
-6 9 -8 -1.6 2.8
6 -9 -8 7.9 4.4
6 -9 8 1.1 4.2
6 9 -8 -0.3 3.7
-7 0 8 284.17 22.5
-7 0 -8 256.37 25.3
7 0 -8 236.08 22.5
7 0 8 289.17 24.8
-7 -1 8 164.18 14.7
-7 1 -8 142.49 19
7 -1 -8 136.89 13.9
7 1 8 160.88 15.3
7 -1 8 156.38 16.9
7 1 -8 133.89 14.8
7 1 -8 150.38 13.8
-7 -1 -8 182.48 17.2
-7 1 8 166.58 13.9
-7 2 -8 1293.57 108.69
7 2 8 1620.14 104.59
-7 -2 8 1486.35 105.99
7 -2 -8 1245.88 104.19
-7 -2 -8 1282.57 106.59
7 2 -8 1499.65 104.89
-7 2 8 1456.95 103.79
7 2 -8 1413.06 108.39
7 -2 8 1349.56 108.59
7 2 -8 1321.27 106.39
-7 -3 8 265.67 22.5
-7 3 -8 247.98 25
7 -3 -8 228.78 20.1
7 3 -8 241.48 23.4
7 3 -8 264.27 24.3
-7 -3 -8 253.77 22.6
7 -3 8 240.18 24.9
7 3 -8 266.57 21.6
-7 -3 -8 237.68 22.7
-7 -4 8 264.17 21.2
-7 -4 8 259.97 20.9
-7 4 -8 207.68 22.4
7 -4 -8 231.78 21.7
-7 -4 -8 199.28 19.6
7 -4 8 205.68 23.4
-7 -4 -8 216.38 21.1
7 4 -8 216.28 21.4
7 4 -8 182.88 19.1
7 4 -8 227.28 21.6
7 -5 -8 259.07 23.3
-7 5 -8 227.58 19.6
-7 -5 8 272.67 22.5
7 5 -8 233.08 23.2
7 5 -8 224.48 21.8
-7 -5 -8 218.58 20.6
7 5 -8 218.18 20.6
7 -5 8 214.48 24.8
-7 -5 -8 253.97 22.3
7 -6 -8 13.9 5.5
-7 6 -8 11.3 3.2
-7 6 -8 17 5.7
-7 -6 8 18.5 5.9
-7 -6 8 14.9 5.4
7 6 -8 15 3.4
7 6 -8 13.8 3.2
7 6 -8 10.2 5.2
7 -6 8 3.9 5.9
-7 -6 -8 14.6 4.9
-7 -6 -8 12.7 4.2
-7 -7 8 269.57 22.2
7 -7 -8 221.18 22.3
-7 7 -8 227.78 18.2
-7 7 -8 204.28 19
7 -7 8 202.98 24.8
-7 -7 -8 199.38 19.9
7 7 -8 178.68 21.5
-7 -7 -8 196.18 19.3
-7 8 -8 3.1 2.9
-7 -8 8 0.9 4.2
-7 -8 8 -0.2 3.8
7 -8 -8 5.6 4.8
7 -8 8 -4.6 4.9
7 8 -8 0.9 3.6
-7 -8 -8 4.2 3.2
-7 -8 -8 5.2 3.3
-7 -9 8 79.29 11.1
-7 9 -8 71.09 9.4
7 -9 8 79.89 16.3
7 9 -8 62.49 12.2
-7 -9 -8 76.49 8.8
8 0 -8 365.26 30.6
8 0 -8 284.97 26.8
-8 0 -8 351.16 33.1
8 0 8 302.57 28.6
-8 0 8 317.17 26.5
-8 1 -8 233.58 23.8
8 1 8 259.97 21.8
8 -1 -8 208.58 20
-8 -1 -8 211.98 22.4
8 1 -8 242.18 23.5
8 1 -8 207.18 20.8
8 -1 8 243.88 23.2
-8 1 8 235.28 19.7
8 1 -8 240.58 19.8
-8 2 -8 17.4 6.6
8 2 8 30 5.2
8 -2 -8 25.8 4.8
-8 -2 8 32.3 6
8 -2 -8 27.5 7.2
8 2 -8 24.2 5.7
8 2 -8 36 8.2
8 2 -8 25.1 4.7
8 -2 8 25.9 7
-8 2 8 25.4 4.3
-8 -2 -8 21.6 6.3
-8 -3 8 57.19 8.2
8 -3 -8 71.59 10
-8 3 -8 61.59 12.3
8 -3 -8 51.89 6.6
-8 -3 -8 65.39 8.9
-8 3 8 76.19 6.5
-8 -3 -8 63.99 8.9
8 3 -8 60.79 10
8 3 -8 59.19 9.7
-8 -4 8 32.8 6.6
8 -4 -8 30.6 7.6
-8 4 -8 40 9.3
8 4 -8 26.4 6.8
-8 -4 -8 29.1 6.4
-8 -4 -8 33.6 7.5
8 -4 8 32.9 9.4
8 4 -8 29.6 5.9
8 4 -8 30.3 7.2
-8 -5 8 482.25 34.9
-8 5 -8 371.56 35.3
8 -5 -8 380.26 35
-8 -5 8 457.55 34
8 5 -8 324.37 31.6
-8 -5 -8 368.86 32.8
8 5 -8 372.66 33.6
-8 -5 -8 380.76 33.9
8 -5 8 427.16 38.3
8 5 -8 389.76 35
-8 -6 8 67.69 10.8
-8 -6 8 63.29 8.9
-8 6 -8 54.79 7
8 -6 -8 63.19 11.6
-8 6 -8 50.69 10
-8 -6 -8 54.99 9.6
8 6 -8 51.59 6.5
-8 -6 -8 63.39 8.4
8 -6 8 77.59 15.3
8 6 -8 53.29 6.8
8 6 -8 54.29 10.9
-8 7 -8 78.19 9.1
-8 -7 8 74.19 10.2
8 -7 -8 71.59 11.2
-8 7 -8 63.09 8.3
-8 -7 8 81.59 12.1
-8 -7 -8 59.09 10.1
8 -7 8 75.49 15.6
-8 -7 -8 79.29 9.8
8 7 -8 62.49 11.9
-8 8 -8 43.1 7.3
-8 -8 8 58.09 8.9
-8 -8 -8 44.1 8.6
8 8 -8 39 10.1
-8 -8 -8 42 7.9
8 -8 8 39.4 12
8 -9 -8 7 5.2
-8 -9 8 -2.7 3.7
-8 9 -8 6 2.9
8 -9 8 -2.8 5
-8 -9 -8 3.7 2.7
8 9 -8 0.1 4.5
-9 0 -8 2354.46 179.08
-9 0 8 2422.06 174.98
9 0 -8 2226.88 175.38
9 0 8 2358.46 177.68
9 0 -8 2417.96 178.88
-9 1 -8 -0.2 2.6
9 -1 -8 -2.5 1.2
9 -1 -8 0.3 2.1
-9 -1 8 -3.2 1.3
9 1 8 -0.9 2.4
9 1 -8 0.3 1.6
-9 -1 -8 -0.4 2.7
9 -1 8 0.1 2.8
9 1 -8 -2.5 2
-9 1 8 -0.8 1.3
-9 2 -8 24.3 7.6
9 -2 -8 25.5 4.9
9 2 8 25.8 5.2
-9 -2 8 35.5 6.4
9 -2 -8 22.4 6.7
9 2 -8 23.4 4.5
-9 2 8 20.9 4.1
9 2 -8 25 6.3
9 2 -8 26.4 7.3
9 -2 8 20.3 6.8
-9 -3 8 74.59 9.8
-9 3 -8 64.89 13.1
9 -3 -8 72.99 8.2
9 -3 -8 76.19 11.4
9 -3 8 85.69 12.7
-9 3 8 82.49 7.7
9 3 -8 76.49 10.7
9 3 -8 90.39 9
9 3 -8 79.49 11.1
-9 -3 -8 76.79 10.7
-9 -3 -8 80.99 10.6
-9 4 -8 0.6 3.5
-9 -4 8 1.8 2.9
9 -4 -8 1.9 3.1
9 -4 8 -1.5 2.3
9 4 -8 7.4 4.1
-9 -4 -8 2.7 3
9 4 -8 1.6 3.5
-9 -4 -8 0.7 2.8
-9 4 8 3.1 1.2
9 -5 -8 0.6 3.4
-9 5 -8 4.8 4.2
-9 -5 8 -3.9 2.7
9 5 -8 -0.9 2.3
9 5 -8 -1.6 2.7
-9 -5 -8 0.5 3.4
9 5 -8 1.9 2.2
9 -5 8 -5.3 3.1
-9 -5 -8 3.1 3
-9 -6 8 59.59 15.1
-9 6 -8 36.3 6.1
9 -6 -8 54.69 11.1
9 -6 8 50.09 13.2
9 6 -8 44 6.4
-9 -6 -8 43.1 9.2
9 6 -8 48.7 10.3
-9 -6 -8 44.6 8.8
9 6 -8 40.7 5.8
-9 7 -8 8.8 3.5
-9 -7 8 8.4 5.4
-9 7 -8 8.7 4.1
-9 -7 -8 8 4.2
9 7 -8 5.9 4.7
9 -7 8 8.6 7.7
9 -8 -8 3.4 6.5
-9 8 -8 5.6 3.3
-9 -8 -8 13.3 4.3
9 8 -8 7.5 4.8
9 -8 8 8.6 7.6
-9 -8 -8 8.9 4.6
9 -9 -8 -5.5 5.2
-9 9 -8 -1.2 1.8
9 -9 8 -5.1 4.9
-9 -9 -8 7.6 3.2
9 9 -8 8.1 5.2
10 0 -8 671.03 56.69
-10 0 -8 704.33 60.29
10 0 -8 735.33 60.19
10 0 8 741.43 59.29
-10 0 8 738.83 56.49
10 -1 -8 6.6 3.1
10 -1 -8 3.9 3.3
-10 1 -8 6.5 3.9
10 1 8 2.1 3
-10 -1 8 2.6 2.4
10 1 -8 4 3.5
10 1 -8 0.1 1.4
-10 -1 -8 4.5 4.2
-10 1 8 5.9 2.6
10 -1 8 0.4 2.9
-10 2 -8 103.19 14.8
10 -2 -8 91.69 10.8
-10 -2 8 110.79 12
10 -2 -8 105.19 13.8
10 2 8 104.29 11.6
10 -2 8 101.09 14.3
10 2 -8 111.79 10.8
10 2 -8 102.49 12.4
-10 -2 -8 112.49 13.9
10 2 -8 101.89 13.9
-10 2 8 96.89 10.4
10 -3 -8 1.1 3.7
-10 3 -8 1 3.2
10 -3 -8 0.6 1.6
-10 -3 8 2.8 3
10 3 8 0.3 1.4
-10 -3 -8 -0.2 3
10 3 -8 0.6 1.6
10 3 -8 -0.5 1.8
10 -3 8 -0.1 3.3
-10 3 8 1 1.7
10 3 -8 1.8 3.9
-10 -3 -8 -0.3 2.3
-10 4 -8 27.4 8.3
10 -4 -8 17.2 6.6
-10 -4 8 27 7.2
10 4 -8 24.8 7.1
-10 -4 -8 27.1 7.3
10 4 -8 20.3 4.8
10 -4 8 20.9 8
-10 -4 -8 30.7 7.5
10 4 -8 18.3 6.2
-10 4 8 27.3 3.4
-10 5 -8 272.97 27.1
10 -5 -8 274.37 29.5
-10 -5 8 306.67 25.8
-10 -5 -8 261.87 25.2
10 5 -8 262.77 26.1
10 5 -8 217.48 22
10 -5 8 272.37 29
-10 -5 -8 270.87 25.1
10 5 -8 232.48 24.3
-10 6 -8 93.59 13.6
10 -6 -8 106.99 15.3
-10 6 -8 105.39 10.2
-10 -6 8 101.99 13.1
-10 -6 -8 86.89 13
10 6 -8 106.99 11.1
10 6 -8 102.79 14.1
10 6 -8 79.69 9.5
-10 -6 -8 87.19 12.3
10 -6 8 108.39 16.4
-10 -7 8 -9.9 4.2
-10 7 -8 -1.3 3.4
10 -7 -8 -0.1 3.7
-10 -7 -8 1.1 2.6
10 -7 8 -3.5 5.3
-10 -7 -8 -5.9 2.5
10 7 -8 -1.4 3.7
10 -8 -8 -8.9 3.6
-10 8 -8 -2 2
10 8 -8 11.2 4.9
10 -8 8 -1.2 5.2
-10 -8 -8 13.6 4.5
-10 -8 -8 2.9 4.3
-10 9 -8 0.9 2.8
10 -9 -8 4.7 5.9
10 9 -8 -5.2 4.1
10 -9 8 -15 6.7
-10 -9 -8 -7.8 3
-10 -9 -8 -2.4 4.5
-11 0 -8 37.8 9.5
-11 0 8 33.7 6.4
11 0 -8 28.8 6.6
11 0 -8 35.7 8.9
11 0 8 18.8 6.5
-11 1 -8 -0.1 3.1
11 -1 -8 2.7 4.8
-11 -1 8 3.7 2.7
11 -1 -8 0.2 2
11 1 8 6.9 4
11 -1 8 2 3.6
-11 1 8 4.6 5.1
11 1 -8 6.4 3.6
-11 -1 -8 7.8 4.3
11 1 -8 3.2 3
-11 -2 8 1304.87 96.89
-11 2 -8 1179.58 100.39
11 -2 -8 1253.37 95.59
11 2 8 1260.97 96.19
11 2 -8 1141.09 96.99
-11 2 8 1287.87 94.79
11 2 -8 1326.77 94.89
11 -2 8 1260.57 100.39
-11 -2 -8 1274.47 99.49
-11 -2 -8 1253.17 97.89
11 2 -8 1227.68 99.49
11 -3 -8 2.9 3.6
11 -3 -8 0.5 1.9
-11 3 -8 1.1 4.4
-11 -3 8 1.9 2.9
11 3 8 1.8 2
11 3 -8 1.6 3.6
-11 3 8 3.5 2.2
11 -3 8 -1 3.4
11 3 -8 0.7 2.8
-11 -3 -8 1.3 2.9
11 3 -8 -1.2 2.3
-11 -3 -8 -0.1 3.3
-11 -4 8 2054.79 147.59
11 -4 -8 1969.6 150.28
-11 4 -8 1799.72 149.99
-11 -4 -8 1879.21 147.99
11 4 -8 2006.4 144.69
-11 -4 -8 1824.72 148.09
11 -4 8 1952.4 151.78
-11 4 8 2082.79 142.89
11 4 -8 1838.12 148.19
-11 5 -8 102.99 15.4
11 -5 -8 131.09 16.6
11 5 -8 112.39 12.9
11 -5 8 105.09 16.5
-11 -5 -8 90.09 13.7
11 5 -8 110.69 14.7
11 5 -8 105.99 13.8
-11 -5 -8 127.69 15.2
11 -6 -8 2.3 4.1
-11 6 -8 -5.9 4.4
-11 -6 8 -2.7 4
11 -6 8 -0.2 4.5
-11 -6 -8 13.1 3.8
11 6 -8 0.3 2.8
11 6 -8 5.6 3.7
11 6 -8 2.9 2.5
-11 -6 -8 6 4.9
-11 7 -8 7.5 5.2
11 -7 -8 10.5 6.3
-11 7 -8 5.7 2.8
-11 -7 -8 8.6 5.4
-11 -7 -8 3.2 4.3
11 7 -8 -1.5 4.2
11 -7 8 0.1 4.3
-11 8 -8 -4.9 2.2
11 -8 -8 2.4 5.7
11 8 -8 -0.5 3.8
11 -8 8 3.2 6.3
-11 -8 -8 -8.9 4.9
-11 -8 -8 -2.3 4
-11 9 -8 13.6 3.3
11 -9 -8 8 7.1
-11 -9 -8 10.4 6.6
-11 -9 -8 2 4.3
11 -9 8 -2.5 7
11 9 -8 1.7 6.1
12 0 -8 149.49 16.8
12 0 8 174.58 19.4
-12 0 -8 153.48 19.4
12 0 -8 164.28 19.5
-12 0 8 177.08 16.8
12 1 8 59.39 9.8
12 -1 -8 68.39 9.3
-12 1 -8 80.89 14.6
-12 -1 8 76.59 9.7
12 -1 -8 71.49 13.4
12 1 -8 59.79 12.7
-12 1 8 61.99 8.7
12 -1 8 68.29 13
-12 -1 -8 71.39 13.5
12 1 -8 56.59 10.3
-12 -2 8 121.29 14.6
12 2 8 144.49 15.3
12 -2 -8 120.19 16.6
12 -2 -8 132.59 14.2
-12 2 -8 130.29 17.9
12 2 -8 138.09 15.9
12 -2 8 123.19 17.3
12 2 -8 146.19 13.6
-12 2 8 140.89 13.7
-12 -2 -8 130.79 17
-12 -2 -8 128.29 15.6
12 2 -8 141.19 17.7
12 3 8 -0.1 2
-12 -3 8 -2 2.7
-12 3 -8 7.7 5.4
12 -3 -8 1.3 3.5
12 -3 -8 0.6 2.4
-12 -3 -8 3.7 4.2
12 3 -8 1.6 2.2
12 3 -8 -0.9 3.5
12 -3 8 1.8 4.9
-12 3 8 2.8 2
12 3 -8 2.2 3.4
-12 -3 -8 5.8 3.2
-12 4 -8 43.7 10.9
-12 -4 8 40.3 8.9
12 -4 -8 42.3 10.7
12 4 -8 48.8 6.9
-12 -4 -8 37.5 8.8
-12 4 8 39.6 5.3
12 4 -8 29.5 8.1
12 4 -8 38.2 9.5
12 -4 8 47.8 12.4
-12 -4 -8 49.2 10.8
-12 -5 8 2.7 3.9
12 -5 -8 4.3 5.5
-12 5 -8 0.4 4.5
12 5 -8 -0.1 3.8
12 5 -8 3.4 4.3
-12 -5 -8 7.5 4.3
12 -5 8 5.7 6.3
-12 5 8 4.4 1.4
12 5 -8 6.7 3.3
-12 -5 -8 7.1 5.5
-12 6 -8 3.4 5.9
12 -6 -8 7.7 5.9
-12 -6 8 14.1 6.6
-12 -6 -8 0.5 4.4
-12 -6 -8 16.6 6.3
12 6 -8 8.3 4
12 6 -8 3.4 4.4
12 6 -8 1.3 2.6
12 -6 8 6.5 7.1
-12 7 -8 -2 1.8
12 -7 -8 -5.5 4
-12 -7 -8 0.7 4.8
-12 -7 -8 0.9 4.4
12 7 -8 -1.5 4
12 -7 8 -1.4 5.3
-12 8 -8 9.8 3.8
12 -8 -8 6.3 6.2
-12 -8 -8 8.9 6.8
-12 -8 -8 7.9 5.7
12 -8 8 9.8 9.6
12 8 -8 8.9 7.2
12 -9 -8 11.6 7.4
-12 9 -8 21.1 4.2
12 9 -8 2.2 7.2
12 -9 8 16.5 9.9
13 0 -8 1047.8 84.09
-13 0 -8 1065.49 88.39
13 0 -8 1082.19 87.89
-13 0 8 1111.09 83.59
13 0 8 1055.79 86.69
-13 -1 8 202.48 19.7
13 -1 -8 179.68 21
13 1 8 216.58 22.2
-13 1 -8 208.48 23.8
13 -1 -8 182.28 22.3
-13 1 8 201.18 19
13 1 -8 174.88 19.8
-13 -1 -8 199.18 22.9
-13 -1 -8 201.28 20.9
13 -1 8 219.68 23.3
13 1 -8 183.38 22.2
-13 2 -8 11.5 7.2
-13 -2 8 18.1 5.8
13 -2 -8 10.7 5.8
13 2 8 18 5.8
13 -2 -8 12.5 5.2
-13 -2 -8 24.1 7.8
13 2 -8 14.3 5.7
13 2 -8 13.2 3.9
13 2 -8 20.9 7.3
13 -2 8 10.8 6.3
-13 2 8 9.1 4
-13 -2 -8 20.8 6.8
-13 -3 8 62.19 10.6
-13 3 -8 62.79 12.8
13 3 8 42.8 7.1
13 -3 -8 48.5 8.3
13 -3 -8 52.69 11.7
-13 -3 -8 37.4 10.2
13 3 -8 52.79 7.3
13 3 -8 45.6 10.7
-13 3 8 51.79 7.7
13 3 -8 40.9 9.5
13 -3 8 41.9 11.2
-13 -3 -8 59.59 11.4
-13 4 -8 15.6 8
13 -4 -8 27 8.8
-13 -4 8 21.3 7.2
13 4 -8 18.6 7.4
13 4 -8 18.1 6.5
-13 -4 -8 24.8 6.8
13 -4 8 23.2 9.8
13 4 -8 20.6 5.1
-13 -4 -8 22.3 6.9
-13 4 8 28.9 4.9
13 -5 -8 138.59 18.6
-13 5 -8 146.99 18.8
-13 -5 8 148.89 16.4
13 -5 8 122.79 19.2
-13 -5 -8 134.99 16.8
13 5 -8 109.19 12.8
13 5 -8 118.49 15.6
-13 -5 -8 122.29 16.4
13 5 -8 128.49 17.1
-13 5 8 140.99 11.1
-13 6 -8 88.49 14.3
13 -6 -8 93.49 17.9
-13 -6 -8 73.59 13.7
-13 -6 -8 111.49 15.1
13 -6 8 116.59 21.1
13 6 -8 97.19 16.3
13 6 -8 96.69 11.8
13 6 -8 91.99 10.1
-13 7 -8 1.9 5.6
-13 7 -8 7.4 3.3
13 -7 -8 3.9 5.8
-13 -7 -8 17.7 7.1
13 7 -8 15.2 6.5
-13 -7 -8 9.8 5.9
13 -7 8 15.3 8.5
13 -8 -8 22.4 9.1
-13 8 -8 26 5.4
13 8 -8 29.3 8.8
-13 -8 -8 37.2 9.6
14 0 8 85.59 15.6
-14 0 -8 65.69 14.7
-14 0 8 91.79 11.4
14 0 -8 79.69 11.3
14 0 -8 87.19 14.1
14 -1 -8 109.39 13.5
-14 1 -8 115.49 17
14 -1 -8 88.09 15
-14 -1 8 115.99 13.7
14 1 8 112.29 15.3
-14 1 8 124.39 13.2
-14 -1 -8 109.89 14.3
14 -1 8 124.49 16.8
-14 -1 -8 120.39 17.1
14 1 -8 108.49 15.9
14 1 -8 97.69 13.6
14 2 8 78.29 14.4
14 -2 -8 61.99 13.6
-14 2 -8 53.19 13.3
-14 -2 8 73.79 11.9
14 2 -8 59.89 11.4
14 2 -8 62.49 8.4
14 2 -8 66.09 13.7
-14 2 8 82.49 9.5
-14 -2 -8 58.19 13.6
14 -2 8 57.49 13.1
-14 -2 -8 77.79 13.2
14 3 8 6.4 3.8
14 -3 -8 4.2 4.6
-14 -3 8 5.9 3.9
-14 3 -8 4.5 6.2
14 3 -8 4 4.3
14 -3 8 12.2 7.9
14 3 -8 3.1 2.6
-14 -3 -8 5.7 4.7
-14 -3 -8 3.4 4.7
14 3 -8 3 3.9
-14 3 8 6.3 3.1
14 4 8 17.2 2.4
-14 4 -8 10.8 7.4
14 -4 -8 13.6 7.4
-14 -4 8 10.4 5.4
14 4 8 13.4 2.2
-14 -4 -8 7.4 5.7
14 4 -8 12.9 6.4
-14 -4 -8 11.2 6.2
14 4 -8 12.8 4.1
-14 4 8 15.8 3.9
14 4 -8 8.6 5.4
14 -4 8 12.9 7.4
14 -5 -8 22.4 8.3
-14 5 -8 14.4 7.5
-14 -5 -8 19.7 7.3
14 5 -8 19.8 4.9
14 -5 8 12.1 8.3
14 5 -8 21.6 7
-14 5 8 15.9 3.2
14 5 -8 27.4 8.4
-14 -5 -8 8.1 5.5
-14 6 -8 138.69 19.3
14 -6 -8 172.88 21.8
14 6 -8 137.49 15.7
14 -6 8 154.28 21.8
14 6 -8 143.09 19.2
-14 -6 -8 148.99 18.9
14 6 -8 126.19 13.6
-14 -6 -8 163.78 18.6
14 -7 -8 166.78 24.5
-14 7 -8 208.78 18.2
-14 7 -8 194.98 22.9
14 -7 8 210.18 27.7
14 7 -8 191.98 24
-14 -7 -8 198.38 24.1
14 -8 -8 1.8 6.7
-14 8 -8 5.2 2.9
14 8 -8 -3.2 4.9
-14 -8 -8 8.5 6.7
14 -8 8 9.8 8.9
-15 0 8 205.28 20
-15 0 -8 188.78 23.6
15 0 -8 175.08 19.9
15 0 -8 194.28 23.4
-15 0 -8 174.18 20.4
15 0 8 200.38 22.8
-15 -1 8 373.06 33.9
15 1 8 391.06 36.3
15 -1 -8 351.76 33.5
-15 1 -8 427.16 39.8
15 -1 -8 361.86 37.5
15 1 -8 352.46 37.1
-15 -1 -8 394.56 38.6
15 1 -8 369.26 34.7
-15 1 8 365.86 32.8
-15 -1 -8 380.96 35.3
15 -1 8 396.06 38
15 -2 -8 2 5.1
-15 -2 8 9.9 4.8
15 -2 -8 1 2.7
15 2 8 4.2 4.4
-15 2 -8 13 6.8
15 2 -8 -0.1 3.3
-15 2 8 8.7 4.4
15 2 -8 5.1 5.2
15 -2 8 0.5 4.5
15 2 -8 5.7 2.9
-15 -2 -8 6.7 4.6
-15 -2 -8 4.1 5.4
15 -3 -8 21.9 8.6
-15 3 -8 24.9 9.8
15 3 8 21.7 5.8
15 3 -8 26.4 6.1
-15 3 8 27.9 6
-15 -3 -8 39 15.3
15 -3 8 20.2 8.2
-15 -3 -8 30.4 9.4
15 3 -8 22.1 7.5
15 3 -8 23.8 7.7
-15 4 -8 52.39 13.4
15 -4 -8 32.7 10.5
15 4 8 41.9 4.6
-15 -4 8 28.8 8.2
15 4 8 49.8 5.5
-15 4 8 44.3 8.4
15 4 -8 30.8 9.7
15 4 -8 56.09 7.6
15 -4 8 48.5 13.7
15 4 -8 42.3 10.3
-15 -4 -8 51.49 12.5
-15 -4 -8 57.79 11.9
-15 5 -8 18.5 8.6
15 -5 -8 20.2 9.1
-15 -5 -8 19.8 6.4
-15 5 8 26.3 4.4
15 5 -8 32.4 9.6
15 5 -8 23.4 5.5
15 5 -8 21.7 7.4
-15 -5 -8 11.7 7.9
15 -5 8 22.5 10.1
15 -6 -8 43.6 13.3
-15 6 -8 39.8 10.7
15 6 -8 35.5 10.8
15 6 -8 35.9 7.8
15 -6 8 40.9 13.5
15 6 -8 34.6 6.5
-15 7 -8 167.78 21.4
15 -7 -8 151.18 23.8
-15 -7 -8 210.98 23
15 7 -8 169.38 21.9
-15 8 -8 0.8 2.9
15 -8 -8 5.7 8.2
-15 -8 -8 -0.1 8.8
15 8 -8 1.9 5.6
15 -8 8 5 7
-16 0 8 73.29 12
16 0 8 75.89 14.9
16 0 -8 72.39 12.5
-16 0 -8 64.09 12.9
16 0 -8 64.79 14.7
16 1 8 78.89 14.9
-16 1 -8 70.19 18.6
16 -1 -8 84.19 17
-16 -1 8 70.09 12
16 -1 -8 76.89 12.6
-16 1 8 90.59 11.3
16 1 -8 79.69 13.5
16 1 -8 61.89 14.1
-16 -1 -8 66.19 13.4
-16 -1 -8 59.09 16.5
16 -1 8 63.79 14.2
16 -2 -8 118.09 13.7
-16 -2 8 116.29 14.2
16 2 8 94.09 13.9
-16 2 -8 96.39 19
16 -2 -8 106.99 16.6
16 2 -8 92.49 15.4
16 2 -8 93.49 15.3
16 -2 8 109.39 16.9
-16 -2 -8 114.69 23
16 2 -8 91.19 11.6
-16 2 8 105.79 12.6
-16 -2 -8 98.69 16.6
16 3 8 64.79 10.2
16 -3 -8 105.59 19.3
-16 3 -8 68.29 15.3
16 3 -8 70.09 9.4
-16 3 8 63.79 9.4
16 3 -8 81.99 15.6
16 -3 8 76.89 16.7
-16 -3 -8 69.49 13.5
16 3 -8 61.09 12.9
16 4 8 -1.1 1.3
16 4 8 0.6 2.2
16 -4 -8 -0.9 4.4
-16 4 -8 8.9 8.1
-16 4 8 1.4 2.4
16 4 -8 2 3.4
16 4 -8 -4.4 3.6
-16 -4 -8 -1.5 6.3
16 -4 8 0.6 5.1
-16 -4 -8 -2.2 3.8
16 4 -8 4.8 4.5
-16 5 -8 175.18 24
16 -5 -8 188.48 24.9
-16 5 8 202.18 16.2
16 5 -8 154.78 16.6
-16 -5 -8 186.78 22.3
16 5 -8 170.08 21.7
16 5 -8 182.28 21.2
16 -5 8 150.98 23.5
16 -6 -8 185.98 25.3
-16 6 -8 178.98 23.3
16 -6 8 142.59 23.6
-16 -6 -8 162.58 22
16 6 -8 150.78 21.7
-16 6 8 195.58 14.1
-16 7 -8 2 8.4
16 -7 -8 6.8 7.9
16 -7 8 11.2 7.5
16 7 -8 6.6 6.7
-16 -7 -8 14.6 9.2
-16 8 -8 14.3 7.2
16 -8 -8 -7.7 7.3
-16 8 -8 1.4 2.7
16 -8 8 16.3 9.4
16 8 -8 -0.9 6.1
17 0 8 62.59 14
-17 0 8 77.69 12.7
17 0 -8 49.5 10.8
17 0 -8 58.79 14
-17 0 -8 62.89 17.5
-17 0 -8 64.69 12.8
-17 -1 8 33.1 9.9
17 1 8 32.6 9.5
-17 1 -8 29 9.7
17 -1 -8 33.8 10.9
17 -1 -8 20.8 7.6
17 1 -8 25.4 9.4
17 1 -8 32.2 8.8
17 -1 8 21.4 9.1
-17 -1 -8 21.5 8.9
-17 1 8 39.4 8.4
-17 -2 8 17.4 6.5
17 -2 -8 11.4 4.6
17 2 8 12.4 6.6
-17 2 -8 29.4 10.8
17 -2 -8 15.9 7.9
-17 -2 -8 20.6 7.1
17 2 -8 11.2 6.7
-17 -2 -8 13.8 7
17 -2 8 9.1 7.2
-17 2 8 18.2 5.3
17 2 -8 17.4 6.3
-17 3 -8 5.7 6.9
17 -3 -8 -0.5 4.4
17 3 8 0 3.5
-17 -3 -8 7.5 5.9
17 3 -8 -1.2 3.4
-17 -3 -8 3.8 5
17 3 -8 3.4 4.3
-17 3 8 4 3.3
17 -3 8 7.9 5.9
17 3 -8 1.4 3.6
-17 4 -8 22.1 10
17 -4 -8 22.4 9.3
17 4 8 28.5 5.5
17 -4 8 20.6 9.9
-17 -4 -8 41.9 11.8
17 4 -8 16.9 8
-17 4 8 29.3 6.3
17 4 -8 30.5 10.2
17 4 -8 31.4 7
-17 5 -8 77.39 16.5
17 -5 -8 82.69 18.3
17 5 -8 76.29 10
17 5 -8 71.69 14
-17 -5 -8 77.29 15.5
17 -5 8 84.69 18.8
17 -6 -8 1.8 5
-17 6 -8 1 7
17 6 -8 0.4 5.4
17 6 -8 5 4.5
17 -6 8 -1.1 5.6
17 6 -8 0.2 5.4
-17 6 8 -1.3 1.5
17 -7 -8 300.37 36.1
-17 7 -8 293.27 30
17 -7 8 336.67 38.4
17 7 -8 270.57 31.8
-18 0 8 840.92 78.99
18 0 8 943.51 76.39
18 0 -8 876.51 76.69
-18 0 -8 847.42 72.79
18 0 -8 858.51 72.09
18 -1 -8 28.1 11.2
18 1 8 33.7 10.4
-18 -1 8 24.2 7.4
-18 1 -8 41.2 9.6
18 -1 -8 26.3 7.7
18 1 -8 24.7 10.4
18 1 -8 33.4 8.9
-18 1 8 22.4 7.2
18 -1 8 37.7 12
-18 -1 -8 15.1 8.4
18 -2 -8 8.5 7
-18 2 -8 11.2 4.9
-18 2 -8 3.1 7.2
18 2 8 1.9 5.1
-18 -2 -8 5.3 7.2
-18 2 8 14.2 5.3
18 2 -8 3.4 3.6
18 2 -8 11.9 6.7
18 2 -8 14.1 7.7
18 -2 8 14.1 7.4
18 -3 -8 48.2 13.6
18 3 8 59.99 11
-18 3 -8 45.2 10.3
18 -3 8 34.9 11.7
-18 3 8 54.19 9.3
18 3 -8 42.8 12.1
-18 -3 -8 45.1 13.8
18 3 -8 55.89 9.4
18 3 -8 28.6 8.9
18 4 8 2.1 3.1
18 -4 -8 -4.4 5.2
18 4 -8 0.8 5.1
-18 4 8 4.6 3.8
18 -4 8 -1.4 5.1
18 4 -8 -3.6 4.1
18 4 -8 0.3 3.7
-18 5 -8 18.6 10.2
18 -5 -8 1.2 4
18 5 -8 9.1 5
18 -5 8 0.2 6.4
18 5 -8 2.4 4
18 5 -8 5.1 4.9
-18 5 8 1 2.8
-18 6 -8 18.1 7.8
18 -6 -8 30.4 12.6
-18 6 -8 12.7 9.5
18 6 -8 5.4 6.1
18 -6 8 12.7 10.4
18 6 -8 9.6 5.4
-18 6 8 15.3 3.4
18 6 -8 8.8 4.4
18 -7 -8 8.3 10
-18 7 -8 21.9 8.9
18 -7 8 18.7 10.8
18 7 -8 7.1 6.2
19 0 -8 308.97 32.2
19 0 -8 310.47 36.1
19 0 8 348.07 36.2
-19 0 8 357.46 32
19 1 8 62.09 13.9
19 -1 -8 66.69 15.9
-19 1 -8 69.39 19.9
19 -1 -8 53.29 11.1
19 -1 8 53.19 13.9
19 1 -8 62.49 13
-19 1 8 72.29 14.4
19 1 -8 51.49 14.4
19 -2 -8 11.4 7.9
-19 2 -8 19.6 8
19 2 8 12.8 7
19 2 -8 16.6 7.2
19 2 -8 10.1 5
19 -2 8 23.9 10.8
19 2 -8 17.4 8.4
-19 2 8 13.9 6.1
19 3 8 21.6 7.3
-19 3 -8 12.7 7.4
19 -3 -8 22.2 9.8
19 3 -8 23 9.6
19 3 -8 17.7 7.7
-19 3 8 31.1 6.6
19 3 -8 18.4 5.4
19 -3 8 20.5 10.4
-19 4 -8 -3.1 3.9
19 4 8 -4.3 2.9
19 -4 -8 5.9 7.8
-19 4 8 0.6 3.5
19 4 -8 -3.5 4.9
19 4 -8 -1.6 3.9
19 4 -8 9.1 6.3
19 -4 8 -3.3 6.2
19 -5 -8 68.39 17.6
-19 5 -8 92.49 22.4
-19 5 8 68.19 9.3
19 5 -8 59.69 9.7
19 5 -8 57.99 13.8
19 5 -8 53.89 12.5
19 -5 8 74.29 17.7
19 -6 -8 115.09 23.7
19 -6 8 114.59 23.9
19 6 -8 93.69 11.7
19 6 -8 99.09 14.4
19 6 -8 85.49 17.8
-19 7 -8 -1.6 10.4
19 -7 -8 -3.3 6.8
19 7 -8 8.3 7.5
19 -7 8 9.3 9
20 0 -8 160.78 22.7
20 0 -8 143.09 18.3
20 0 8 137.19 20.9
20 -1 -8 98.59 20.6
20 -1 -8 104.69 14.6
20 1 8 102.29 19.1
20 -1 8 96.79 19.5
20 1 -8 91.49 19.3
20 1 -8 94.99 16.7
-20 1 8 106.69 14.3
20 2 8 13.2 6.8
20 -2 -8 20.4 9.3
-20 2 8 24.8 7.3
20 2 -8 35 9.7
20 2 -8 25.1 10.5
20 -2 8 21 10.5
20 -3 -8 6.4 7.8
20 3 8 8.2 5.7
-20 3 8 13.6 5.7
20 3 -8 7.1 4.5
20 -3 8 -1.8 6
20 3 -8 8.9 6.1
20 -4 -8 36.7 12.8
20 4 -8 26.3 9.1
-20 4 8 36.6 7.8
20 4 -8 47.4 8.3
20 -4 8 23 10.5
20 4 -8 30.9 9.8
20 -5 -8 1.4 6.9
20 5 -8 0.5 4.5
20 5 -8 -1.8 5.3
-20 5 8 2.3 3.6
20 5 -8 1.1 4.4
20 -5 8 -2.7 6
20 -6 -8 33.5 13.5
20 -6 8 27.9 14.5
20 6 -8 20.2 5.9
20 6 -8 33.2 11.2
20 6 -8 35.3 8.6
21 0 8 1444.26 121.49
21 0 -8 1456.35 123.09
21 0 -8 1541.35 118.59
21 -1 -8 24.4 10.9
21 1 8 21.3 9.6
21 1 -8 14.2 8.9
21 1 -8 3.5 5.1
21 -1 8 10.9 8.2
21 -2 -8 361.56 39.5
21 2 8 362.46 35.6
21 2 -8 318.97 37.1
21 -2 8 354.26 39.4
-21 2 8 334.47 32.1
21 2 -8 298.77 37.7
21 3 8 11.3 6.5
21 -3 8 2.7 6.8
21 3 -8 10.5 7
21 3 -8 14.3 7.8
-21 3 8 8.3 4.7
21 4 8 45.6 9
21 -4 -8 41.6 14.4
21 4 -8 60.69 11.6
-21 4 8 57.39 10.2
21 -4 8 52.19 16.3
21 4 -8 49.99 13.2
21 4 -8 41.7 12.1
21 -5 -8 136.79 26.9
21 -5 8 145.89 27.2
21 5 -8 113.29 18
21 5 -8 131.29 15.7
-21 5 8 151.48 15.5
21 5 -8 114.79 20.5
21 -6 -8 153.18 28.9
21 6 -8 140.79 24.2
21 -6 8 142.89 28.9
-21 6 8 181.48 16
22 0 -8 29.3 9.8
22 0 8 24.4 10.7
22 0 -8 23.5 12
22 1 8 7 7.2
22 1 -8 27.7 11.7
22 1 -8 9.5 7.3
22 -1 8 19.1 9.3
22 -2 -8 17.3 10
22 2 8 31.2 9.3
22 2 -8 19.3 9.7
22 2 -8 15.9 7.9
22 -2 8 12.9 9.7
22 3 8 12.8 6.5
22 -3 -8 -8.8 5.2
22 -3 8 6.5 8.7
22 3 -8 1.8 5.3
-22 3 8 14.2 6.2
22 3 -8 0.1 5.6
22 4 8 -0.1 3.9
22 -4 -8 -1.2 6.4
-22 4 8 0.4 4.9
22 4 -8 -1.8 5.5
22 -4 8 -1.1 6.6
22 4 -8 -7.7 4
22 -5 -8 48.3 16
22 5 -8 45.5 9.7
22 5 -8 43.2 12.9
22 5 -8 43.7 12.3
-22 5 8 47.1 9.3
22 -5 8 48 16.2
23 0 -8 52.19 16.2
23 1 8 70.69 17
23 -1 -8 73.49 18.5
23 -1 8 96.59 20.4
23 1 -8 70.19 15.3
23 1 -8 60.09 16.4
23 2 8 70.69 14.9
23 -2 -8 73.89 18.9
23 2 -8 60.39 16.2
23 2 -8 58.99 14.9
23 -2 8 67.09 17.7
23 3 8 35.9 10.3
23 -3 -8 37.9 14
23 -3 8 39 14.4
23 3 -8 14.5 8.6
23 -4 -8 34.6 13.5
23 4 8 22.8 7
23 4 -8 7.7 8.4
23 4 -8 21.4 9
-23 4 8 18.1 7.4
23 -4 8 28.3 13.3
23 -5 -8 281.87 37.2
23 -5 8 293.37 37.4
23 5 -8 271.17 32.9
24 0 -8 44.6 15.1
24 0 8 36.5 12.9
24 -1 -8 2.8 6
24 1 -8 19.6 10.4
24 -1 8 9.5 9.7
24 -2 -8 26.5 12.8
24 2 8 41.8 12.4
24 2 -8 40.7 13.6
24 2 -8 34.6 11.2
24 -2 8 25.6 12.2
24 3 8 0.4 5.1
24 -3 -8 6.5 8
24 -3 8 7.2 6.5
24 3 -8 -6 3.9
24 3 -8 -8.2 7.1
24 -4 -8 13.5 10
24 4 8 26.5 7
24 4 -8 6.1 7.3
24 -4 8 25.7 13.1
24 4 -8 15.6 8.9
25 0 -8 5 7.4
25 0 8 -1.3 5.9
25 1 8 4.8 8.1
25 -1 -8 5 8.2
25 1 -8 13.3 9.6
25 -1 8 6.6 8.4
25 -2 -8 6.2 9
25 2 8 9.4 10.3
25 -2 8 7.9 7.7
25 2 -8 -11.4 5.8
25 -3 -8 27.7 12.2
25 3 8 28.4 9.8
25 3 -8 23.5 11.9
25 -3 8 18.8 10.1
25 3 -8 38.2 11.8
25 -4 -8 3.9 6.6
25 4 8 3.2 5.2
25 4 8 1.2 4.7
25 4 -8 2.6 7.8
25 4 -8 5.4 6.6
25 -4 8 -2.3 6.3
26 0 -8 11.6 8.9
26 0 8 7.5 9.1
26 1 8 3.7 6.6
26 -1 -8 2.8 9
26 1 -8 -4.3 6.2
26 -1 8 1.8 7.7
26 -2 -8 19.3 11.1
26 2 8 13.6 8.4
26 -2 8 14.1 8.8
26 2 -8 5 7.4
26 -3 -8 2.3 8.5
26 3 8 14 8.7
26 -3 8 8 9.6
26 3 -8 17.9 9.4
27 0 8 9.1 9.2
27 0 -8 8.3 9.2
27 -1 -8 -4.5 7
27 1 8 12.6 9.6
27 -1 8 19.7 11.4
27 1 -8 13.1 8.6
0 0 9 0.9 1.5
0 0 -9 1.8 1.5
0 1 -9 0.3 0.9
0 -1 -9 0.7 1
0 -1 9 -1.4 1.4
0 1 -9 0 1.6
0 2 -9 2.3 1.4
0 -2 9 2.2 2.2
0 -2 -9 1.3 1.1
0 2 -9 -1.1 1.7
0 -3 9 0.7 2.6
0 3 -9 0.2 2.1
0 3 -9 -1 1
0 4 -9 927.01 68.59
0 4 -9 857.41 70.19
0 5 -9 1 2.3
0 -5 -9 1 1
0 -5 9 -0.7 2.8
0 5 -9 1.3 2.7
0 6 -9 129.59 14.3
0 -6 -9 144.69 10.5
0 -6 9 171.68 17.3
0 6 -9 114.59 13.3
0 -7 9 -6.4 3.1
0 7 -9 1.2 3
0 -8 9 280.57 24.4
0 -8 -9 213.08 17.9
0 8 -9 182.98 21
0 9 -9 -4.1 2.9
0 -9 -9 3.3 1.9
0 -9 9 -1.3 4.3
1 0 -9 1.7 1.3
1 0 -9 1.5 1.2
1 0 9 1.2 1.7
-1 0 9 2.7 1.7
-1 0 -9 1.4 1.6
-1 1 -9 25 5.7
1 -1 -9 24.7 3.4
1 1 9 30.9 3.8
1 -1 9 40.7 5.9
1 1 -9 24.6 4.9
1 1 -9 21.4 4.2
-1 -1 -9 32.5 4.1
-1 2 -9 881.21 69.59
-1 2 -9 880.11 66.59
1 -2 -9 787.12 65.69
-1 -2 -9 962.8 66.09
1 2 -9 951.1 67.39
1 2 -9 861.21 68.59
-1 3 -9 57.09 8.9
-1 3 -9 71.99 7.3
1 -3 9 89.79 10.4
1 3 -9 60.49 7.4
-1 -3 -9 61.09 5.7
1 3 -9 58.29 8.7
-1 4 -9 321.47 29.2
-1 4 -9 327.57 27
1 4 -9 331.77 29
1 4 -9 334.87 27.7
-1 -4 -9 321.87 26.3
-1 5 -9 111.29 13.6
-1 5 -9 115.19 12.7
1 -5 -9 121.29 9.8
1 -5 -9 139.49 9.6
1 5 -9 98.39 12.8
-1 -5 -9 122.39 11.2
1 -5 9 141.49 15.4
1 5 -9 128.89 13.2
-1 6 -9 140.59 15
-1 6 -9 140.59 14.9
1 6 -9 137.59 14.2
1 -6 9 189.98 18.5
-1 -6 -9 157.68 12.7
1 6 -9 155.28 15.8
1 6 -9 154.88 14.5
-1 7 -9 356.26 31.9
1 -7 9 440.26 35.5
1 7 -9 330.77 32.2
-1 -8 9 130.49 15
-1 8 -9 91.29 12.1
1 -8 -9 93.89 10
1 8 -9 81.79 12.3
1 -8 9 126.59 15.2
-1 -9 9 2.9 5.4
1 -9 -9 8.2 3.1
-1 9 -9 0.2 3.2
1 -9 9 7.1 5.8
1 9 -9 1.6 3.3
-2 0 -9 1.6 2
2 0 -9 1.3 1.1
-2 0 9 0.2 1.1
2 0 9 -0.8 1.5
2 0 -9 0.8 1.4
-2 1 -9 1.6 1.8
2 1 9 0.3 1.2
2 -1 -9 1 0.9
-2 -1 9 -0.8 1.3
2 -1 -9 0.2 1
-2 -1 -9 2.7 1.8
2 -1 9 1.7 2.1
2 1 -9 0.5 0.9
2 1 -9 1.6 1.4
-2 2 -9 854.31 71.19
2 -2 -9 913.01 67.39
2 2 -9 782.12 69.29
-2 -2 -9 936.11 67.79
2 -2 9 1043.7 71.79
2 2 -9 917.41 69.09
-2 -3 9 17 5.3
-2 3 -9 10.7 4.4
-2 3 -9 11.9 3
2 -3 -9 15.3 2.4
-2 -3 -9 15.1 2.3
2 3 -9 13.3 3.8
2 -3 9 13 4.9
2 3 -9 9.1 4
-2 -4 9 33.2 7.2
2 -4 -9 29 2.9
-2 4 -9 37.1 4.8
-2 4 -9 25.6 6.7
-2 -4 -9 28.2 4.9
2 4 -9 19.2 5.5
-2 -4 -9 22.8 2.7
2 4 -9 31.5 6
2 -4 9 27.6 7.3
-2 5 -9 120.99 16.2
-2 5 -9 118.79 14.1
2 5 -9 136.49 13.8
2 5 -9 122.89 13.5
-2 -5 -9 132.49 12
-2 6 -9 146.59 15.6
-2 6 -9 163.58 15.6
2 6 -9 142.59 16.3
2 6 -9 147.09 14.8
-2 -6 -9 156.48 13.9
2 6 -9 170.88 15.1
2 -6 9 210.98 20.1
-2 7 -9 36.9 6.9
-2 -7 9 57.69 10.2
-2 -7 -9 32.8 4.1
2 -7 9 40.5 10.1
2 7 -9 28 7.2
-2 8 -9 96.89 12.2
2 -8 -9 98.59 11.1
-2 -8 9 132.89 15.1
2 8 -9 91.39 12.9
2 -8 9 121.89 15.5
2 -9 -9 18.5 5
-2 -9 9 27.5 8
-2 9 -9 13.3 4.8
2 -9 9 23 7.4
2 9 -9 23.2 6.8
3 0 -9 0.9 1.1
3 0 -9 0.2 1.1
3 0 9 0.3 1.8
-3 0 9 0.4 1.2
-3 0 -9 -0.3 1.9
-3 -1 9 167.08 13.5
-3 1 -9 132.89 15.3
3 -1 -9 130.89 12.5
-3 -1 9 168.78 14.1
3 1 -9 147.89 13.3
3 -1 9 156.38 15.2
-3 -1 -9 127.49 13.6
3 -2 -9 100.49 9.1
-3 -2 9 124.29 10.8
-3 2 -9 84.69 11.8
3 2 -9 90.99 10.4
3 -2 9 107.69 12.3
3 2 -9 85.99 10.2
-3 -2 -9 112.89 10
-3 -3 9 21.4 5.4
-3 3 -9 16.7 5.4
3 -3 -9 13.1 2.4
-3 -3 9 17.6 3.9
3 3 -9 6.2 3.2
3 3 -9 8.8 3.4
-3 -3 -9 13.6 2.6
3 -3 9 11.3 4.7
-3 4 -9 239.68 25.7
-3 4 -9 301.67 23.4
3 -4 -9 267.57 21.1
-3 -4 -9 320.67 21.8
3 -4 9 310.77 27.5
-3 -4 -9 263.97 23.7
3 4 -9 248.18 24.6
-3 -5 9 10.1 5
-3 5 -9 9.6 4.6
-3 -5 9 10 3.7
-3 -5 -9 10.6 1.6
3 -5 9 7.2 4.4
3 5 -9 6.1 3.2
3 5 -9 11.8 4.4
3 5 -9 9.7 4.3
-3 -5 -9 9.9 3.2
-3 6 -9 110.99 11.8
-3 6 -9 94.99 12.3
3 -6 9 137.19 16.2
-3 -6 -9 119.39 8.6
-3 -6 -9 111.89 11
3 6 -9 118.39 11.5
3 6 -9 99.69 11.1
3 6 -9 92.69 12.6
3 -7 -9 32.4 6
-3 7 -9 26.6 5.9
-3 -7 9 46.4 9
3 7 -9 20.8 6.8
-3 -7 -9 31 4.2
3 -7 9 33.3 9.4
-3 8 -9 89.29 11.6
3 -8 -9 102.39 11.7
-3 -8 -9 108.19 8.9
3 8 -9 102.19 13.1
3 -8 9 112.89 15.6
-3 -9 9 -0.7 4.6
3 -9 -9 0.9 3.1
-3 9 -9 2.2 3.2
3 -9 9 4.5 5.9
3 9 -9 7.7 4.8
4 0 9 -0.3 2
4 0 -9 0 1.2
-4 0 9 1.1 1.1
4 0 -9 0.1 1
-4 0 -9 -0.9 1.5
-4 -1 9 105.69 10.1
-4 1 -9 86.89 11.7
4 1 9 116.79 10.4
-4 -1 9 102.69 10.3
4 -1 -9 87.09 9.5
-4 1 9 112.39 9.4
4 -1 9 103.09 11.9
4 1 -9 94.99 9.7
-4 -1 -9 95.49 11
-4 -2 9 4.1 2.2
-4 -2 9 1.3 2.3
4 2 9 3.2 1.2
4 -2 -9 4.3 1.7
-4 2 -9 5.9 3.5
4 2 -9 0 1.9
-4 -2 -9 -0.4 1.4
4 -2 9 3.5 3.3
4 2 -9 2.6 2
4 -3 -9 775.52 58.69
-4 3 -9 764.92 63.79
4 3 -9 727.23 61.09
4 -3 9 809.32 63.99
4 3 -9 840.22 62.09
-4 -3 -9 815.62 59.89
-4 -4 9 119.09 11.7
-4 4 -9 96.09 9.9
4 -4 -9 98.49 8.1
-4 4 -9 101.59 12.8
-4 -4 -9 102.69 11.1
4 4 -9 97.69 11.7
4 -4 9 123.69 14.4
4 4 -9 104.09 11.7
-4 -4 -9 100.59 9.4
-4 -5 9 19.3 5.1
-4 -5 9 22.1 10.1
-4 5 -9 18.2 6.5
-4 5 -9 27.4 6.8
4 5 -9 15.7 5.1
4 -5 9 18.5 7.2
-4 -5 -9 17.2 3
-4 -5 -9 17.9 4.6
4 5 -9 22.7 5.8
4 5 -9 13.4 4.7
-4 6 -9 0.2 1.8
-4 -6 9 -4 2.4
-4 6 -9 -1.3 2.9
-4 -6 9 -2.1 3.7
-4 -6 -9 -0.4 1.8
4 -6 9 -8.2 3.3
4 6 -9 -2.5 2.7
4 6 -9 -0.7 2.1
-4 -6 -9 -1.3 1.1
4 6 -9 -0.1 2.1
-4 -7 9 14.2 5.4
4 -7 -9 12.2 4.1
-4 7 -9 9.8 4
-4 -7 -9 13.5 2.3
4 -7 9 2.1 5.2
-4 -7 -9 12.3 3.4
4 7 -9 7.7 4.7
4 -8 -9 4.2 3.4
-4 8 -9 1.4 3
-4 -8 9 4.8 4.8
4 8 -9 1.6 3.6
-4 -8 -9 3.4 1.7
-4 -8 -9 1.9 2
4 -8 9 2.5 4.6
-4 -9 9 92.29 12.5
4 -9 -9 68.09 10.2
4 9 -9 61.89 12.1
4 -9 9 72.19 14.3
5 0 9 -1.8 1.9
5 0 -9 -1 1
-5 0 9 -0.9 0.9
-5 0 -9 -3.6 2
5 0 -9 1 1.5
5 -1 -9 512.45 41.8
-5 -1 9 576.04 42.4
-5 1 -9 484.25 45
5 1 -9 494.85 42.7
-5 -1 -9 522.95 44.1
-5 1 9 611.34 41.6
5 -1 9 534.35 44.6
5 1 -9 562.24 42
5 -2 -9 1039.1 85.09
-5 -2 9 1356.56 87.69
-5 -2 9 1169.18 91.39
-5 2 -9 1040 92.09
5 2 -9 1091.89 87.19
5 -2 9 1124.49 89.29
5 2 -9 1244.98 86.49
-5 -2 -9 1066.99 86.99
5 -3 -9 1823.22 143.59
-5 -3 9 2273.47 146.49
-5 3 -9 1880.81 152.18
5 3 -9 1822.02 145.69
-5 -3 -9 1927.61 145.49
5 -3 9 2104.19 149.79
5 3 -9 1881.81 146.79
-5 4 -9 1117.09 91.29
5 -4 -9 1084.19 81.59
5 4 -9 1171.08 87.29
-5 -4 -9 1128.49 85.59
-5 -4 -9 1117.29 83.89
5 -4 9 1159.28 92.49
5 4 -9 1003.3 85.09
5 4 -9 1172.38 86.69
-5 5 -9 301.47 24.8
-5 5 -9 298.67 28
-5 -5 9 372.16 26.9
-5 -5 -9 271.87 23.6
-5 -5 -9 294.07 25.7
5 5 -9 250.07 25.3
5 -5 9 327.37 30.2
5 5 -9 289.87 27
5 5 -9 294.27 26.5
5 -6 -9 247.08 21.1
-5 6 -9 202.28 18.9
-5 6 -9 219.58 21.1
-5 -6 -9 220.38 19.8
5 -6 9 252.97 25.1
5 6 -9 222.98 19.3
5 6 -9 201.78 21.5
-5 -6 -9 191.68 17.5
5 6 -9 204.08 18.7
-5 -7 9 18.6 6.2
-5 -7 9 22.3 6.1
5 -7 -9 11.5 4.7
-5 7 -9 15.9 4.3
-5 7 -9 17.2 3.6
5 -7 9 11.6 6.8
-5 -7 -9 20 4.3
-5 -7 -9 16.4 3.3
5 7 -9 9.3 4.6
-5 8 -9 279.27 27.9
5 -8 -9 371.66 30.6
5 8 -9 307.57 30.7
-5 -8 -9 327.87 26.3
5 -8 9 392.26 34.7
-5 -8 -9 311.67 26.6
-5 -9 9 -0.3 4.3
-5 9 -9 1.3 3.3
5 -9 -9 2.4 4.6
5 9 -9 5.3 4.3
5 -9 9 9.1 6.4
-5 -9 -9 0.9 1.6
6 0 9 -1.1 2.3
-6 0 -9 -1.9 2.4
-6 0 9 -1.3 1.2
6 0 -9 -0.5 1.2
6 0 -9 1.1 1.6
-6 1 -9 156.48 19.9
6 -1 -9 133.09 14.3
-6 -1 9 173.88 15.1
6 1 9 175.18 15.7
6 -1 9 164.38 17.3
-6 1 9 186.68 14.4
6 1 -9 152.58 15.6
-6 -1 -9 147.39 16.5
6 1 -9 168.98 14.6
-6 -2 9 7 2.6
6 2 9 7.6 2.3
6 -2 -9 3 1.6
-6 2 -9 4.6 3.8
-6 -2 -9 2.1 2.4
6 2 -9 7.3 3.5
6 2 -9 4.8 2.8
-6 2 9 9.5 2.1
6 -2 9 6.5 4.1
-6 -3 9 392.26 31
-6 -3 9 434.56 31.8
6 -3 -9 334.37 28.5
-6 3 -9 357.86 33.8
6 3 -9 378.26 32.3
6 -3 9 360.86 33.7
-6 -3 -9 355.46 30.7
6 3 -9 341.27 30.3
-6 -4 9 21.4 5.7
6 -4 -9 13.8 1.9
-6 4 -9 18.5 5.7
-6 -4 9 22.5 5.4
-6 -4 -9 14.9 4.1
-6 -4 -9 18.7 4.9
6 4 -9 13 4.3
6 4 -9 14.5 4.9
6 4 -9 10 4.4
6 -4 9 8 5.8
-6 5 -9 -0.1 2.8
-6 -5 9 -3.2 2.3
-6 5 -9 1 1.6
-6 -5 9 0.1 3.5
6 5 -9 -0.8 2.6
6 5 -9 1.5 2.3
6 5 -9 1.9 3.3
-6 -5 -9 -2.5 1.7
6 -5 9 -1.2 3.8
-6 -6 9 14.9 5.2
-6 6 -9 11.3 5.2
-6 -6 9 15.3 5.7
6 -6 -9 8.4 4
-6 6 -9 15.9 3.9
6 -6 9 6.2 6.2
6 6 -9 4.4 4.3
-6 -6 -9 12 3.4
-6 -6 -9 5.1 3.3
6 6 -9 11.1 3.7
6 6 -9 9.7 3.5
-6 7 -9 96.39 11.2
-6 7 -9 101.39 10.8
6 -7 -9 110.99 13.4
6 7 -9 97.29 13.6
6 -7 9 119.09 16.6
-6 -7 -9 114.29 11.8
-6 -7 -9 103.79 10.6
-6 -8 9 55.59 10.1
-6 8 -9 45.9 8.2
6 -8 -9 60.69 11.2
-6 -8 -9 51.49 7.2
-6 -8 -9 53.69 7.2
6 -8 9 52.19 12.6
6 8 -9 45.9 10.1
6 -9 -9 2.8 3.1
-6 9 -9 -4.8 3.2
-6 -9 9 -6.3 3.9
-6 -9 -9 -0.5 3.1
6 9 -9 -1 3.4
6 -9 9 0.9 6
7 0 -9 -0.5 1.8
-7 0 9 0.2 1
-7 -1 9 1418.36 105.79
7 -1 -9 1294.27 104.99
7 1 9 1549.94 106.59
-7 1 -9 1394.16 109.49
7 1 -9 1324.07 106.19
-7 1 9 1499.85 104.69
7 -1 9 1394.86 108.29
-7 -1 -9 1370.56 108.09
7 1 -9 1366.96 104.69
-7 -2 9 93.79 10
-7 2 -9 75.09 11.8
7 -2 -9 93.99 9.3
-7 2 9 95.29 8.6
-7 -2 -9 80.09 10.6
7 2 -9 80.49 10.4
7 2 -9 101.59 9.7
7 -2 9 76.59 11.7
-7 -3 9 34.4 6.4
-7 3 -9 29.8 8.4
7 -3 -9 26.4 4.5
-7 -3 9 28.1 5.9
7 3 -9 36.7 6.3
-7 -3 -9 27.3 6.3
-7 3 9 36.2 3.8
7 3 -9 30.8 7.4
7 3 -9 31.7 7.1
-7 -4 9 228.98 20.7
-7 4 -9 152.18 19.2
-7 -4 9 198.38 17.9
7 4 -9 184.18 18.8
-7 -4 -9 180.88 17.2
-7 -4 -9 172.88 17.9
7 4 -9 184.58 19.1
7 -4 9 164.38 20.2
7 4 -9 166.18 18
-7 -5 9 102.19 11.7
-7 5 -9 96.19 9.4
7 -5 -9 96.79 12.1
-7 5 -9 75.29 12.4
-7 -5 -9 96.09 11.6
7 5 -9 77.29 10.1
7 5 -9 88.29 11.6
-7 -5 -9 87.79 10
7 5 -9 104.49 12.8
7 -5 9 92.79 14.4
-7 -6 9 39.8 7.9
-7 6 -9 26.4 5.1
-7 -6 9 33.5 7.7
-7 6 -9 29.3 7.7
7 -6 -9 28.9 7.4
-7 -6 -9 27 5.4
7 6 -9 23.8 5.3
-7 -6 -9 24.7 6.3
7 6 -9 31.6 8.2
7 -6 9 17.6 8.7
7 6 -9 21.9 4.9
-7 7 -9 155.28 16.1
-7 -7 9 221.08 19.5
-7 7 -9 169.98 16.9
-7 -7 9 211.78 19.5
7 -7 -9 178.78 19.7
7 -7 9 192.88 22.7
-7 -7 -9 153.28 16.3
-7 -7 -9 174.98 17.4
7 7 -9 160.58 19.1
-7 8 -9 0.8 2.6
7 -8 -9 3.5 4.1
-7 -8 9 -0.2 4
-7 -8 9 -0.6 5.7
-7 -8 -9 3.5 3.1
-7 -8 -9 4.5 3
7 8 -9 -2.2 4.3
7 -8 9 -6.6 5.7
-7 9 -9 6.7 3.8
-7 -9 9 8 4.5
-7 -9 -9 11.5 3.6
7 9 -9 9.6 5.7
7 -9 9 7.8 6.1
-7 -9 -9 8.4 3.1
-8 0 -9 -0.1 2.1
8 0 -9 -0.4 1.8
-8 0 9 1 2
8 0 9 2.6 3.2
8 1 9 75.49 9.2
8 -1 -9 61.89 7.9
-8 1 -9 68.79 10.8
-8 -1 9 68.09 8.4
8 -1 9 65.09 10.3
8 1 -9 62.69 8.6
8 1 -9 66.19 7.7
-8 1 9 68.69 7.7
-8 -1 -9 81.69 12.5
8 2 9 25.9 4.6
-8 2 -9 29.8 8.2
8 -2 -9 16.4 3.7
-8 -2 9 17 4.8
8 2 -9 17.4 6
-8 -2 -9 20.6 6.1
8 -2 9 19.5 6.8
8 2 -9 21.4 6.6
8 2 -9 23 4.5
-8 2 9 18.7 3.6
8 -3 -9 254.07 22.4
-8 3 -9 247.88 27.2
-8 -3 9 285.77 24.6
8 3 -9 264.87 26.4
-8 3 9 324.17 22
-8 -3 -9 272.17 25.3
8 -3 9 273.07 27.7
8 3 -9 260.67 25.5
8 3 -9 281.47 23.5
-8 -3 -9 256.77 25
-8 -4 9 438.36 33
-8 4 -9 357.06 34.8
8 -4 -9 420.16 34.4
8 4 -9 378.16 33.5
-8 -4 -9 378.06 32.8
8 4 -9 350.16 33.3
-8 -4 -9 314.17 31.4
8 -4 9 402.16 36.4
8 4 -9 357.66 31.1
8 -5 -9 5.1 4
-8 5 -9 2.1 4.4
-8 -5 9 3.6 3.6
-8 -5 9 -0.9 2.6
-8 -5 -9 -0.1 3.2
8 5 -9 -1.2 2.1
8 5 -9 -0.2 3.2
8 5 -9 4.3 3.6
-8 -5 -9 -1.4 2.8
8 -5 9 -2.2 3.6
-8 6 -9 27.3 8.8
-8 6 -9 22.1 4.8
-8 -6 9 46.5 9.5
8 -6 -9 25 7.4
-8 -6 9 26.9 7.1
-8 -6 -9 34.7 6.9
-8 -6 -9 29.8 6.3
8 6 -9 23.6 5.6
8 -6 9 29.7 9.6
8 6 -9 21.8 5.1
8 6 -9 24.6 7.4
-8 -7 9 -2.8 4.1
8 -7 -9 8.6 4.7
-8 7 -9 2.8 3.5
-8 -7 9 0.5 3.1
-8 7 -9 1.1 2.1
-8 -7 -9 0.8 3.5
-8 -7 -9 7.6 3.9
8 7 -9 0.3 3.1
8 -7 9 0.5 4.9
-8 8 -9 3.1 3.3
-8 -8 9 7.4 4.4
8 8 -9 4.2 4.5
-8 -8 -9 7.1 3.6
8 -8 9 4.9 6.5
-8 -8 -9 8.4 4.3
8 -9 -9 5.5 5.4
-8 9 -9 2.8 3.3
-8 -9 9 1.8 3.9
-8 -9 -9 3.5 3.1
8 -9 9 5.8 6.4
8 9 -9 10.6 5.3
-9 0 -9 -1.1 3.2
9 0 -9 0.6 1.5
9 0 9 -3.3 2
9 0 -9 0.6 2.2
9 1 9 10.7 4.6
9 -1 -9 13.4 3.8
-9 -1 9 9.2 3.5
9 -1 -9 16.7 5.4
-9 1 -9 19.1 6.7
9 1 -9 7.3 3.3
-9 -1 -9 13.2 5.3
9 1 -9 13.1 5.3
9 -1 9 18.2 6.2
9 1 -9 15 3.7
-9 1 9 16.5 3.9
-9 2 -9 238.38 25.6
9 2 9 279.07 21.8
9 -2 -9 207.58 20.8
-9 -2 9 260.97 22.4
9 -2 -9 257.47 24.9
9 2 -9 219.88 22.6
9 -2 9 229.98 24.9
9 2 -9 268.07 21.2
9 2 -9 232.68 24.5
-9 -2 -9 231.78 23.8
-9 2 9 241.28 20.4
-9 3 -9 4.2 4.1
9 -3 -9 0.6 2.4
9 -3 -9 -2.1 1
9 3 9 2.2 1.2
-9 -3 9 -1.1 1.9
-9 3 9 0.8 1.3
9 3 -9 0.5 2.1
-9 -3 -9 -3.5 1.2
9 -3 9 1 3.6
9 3 -9 -2.5 2.3
9 3 -9 -2.2 2.1
-9 -3 -9 -0.9 2.9
-9 -4 9 2.5 3.2
-9 4 -9 5.1 4.8
9 -4 -9 10 4.7
9 4 -9 7 4.3
9 4 -9 1.8 2.5
-9 -4 -9 1.8 2.9
9 -4 9 -0.7 3.8
9 4 -9 5.5 4.1
9 -5 -9 17.2 6.3
-9 -5 9 18.9 6.4
-9 5 -9 15.7 6.6
9 5 -9 19.2 4.7
9 5 -9 23.4 6.7
9 -5 9 18.6 7.9
-9 -5 -9 16.9 5.4
9 5 -9 21.3 6.6
9 -6 -9 24.5 7.5
-9 6 -9 36.8 5.8
-9 6 -9 31 8.8
-9 -6 9 48.1 8.9
9 6 -9 38.1 8.6
-9 -6 -9 27.9 8
9 6 -9 28.2 6.3
9 -6 9 34.5 11.4
9 6 -9 28.1 5.6
9 -7 -9 21.1 8
-9 7 -9 27.7 6.5
-9 -7 9 18 5.9
-9 7 -9 18.2 4.7
9 -7 9 22.4 10.2
-9 -7 -9 16 6.1
-9 -7 -9 24.5 6.6
9 7 -9 15.4 6.7
-9 8 -9 91.69 11.2
9 -8 -9 100.79 15.4
-9 -8 -9 114.69 13.7
9 -8 9 109.89 20.3
-9 -8 -9 110.09 12.7
9 8 -9 94.49 16.5
-9 9 -9 -5.1 2.6
9 -9 -9 -9.8 4.9
-9 -9 -9 3.7 3.4
-9 -9 -9 -8.3 4.4
9 9 -9 2.1 4.7
-10 0 -9 -3.7 2.6
-10 0 9 -1.4 1.8
10 0 9 -3.7 2
10 0 -9 -0.4 2.2
10 0 -9 -2.6 1.9
-10 1 -9 617.24 52.99
10 -1 -9 618.94 52.19
10 1 9 595.34 49.6
10 -1 -9 531.55 47.8
-10 -1 9 641.04 48.8
10 -1 9 631.64 55.19
10 1 -9 652.03 56.09
10 1 -9 551.64 48.9
-10 1 9 609.74 47.6
10 1 -9 591.34 47.4
-10 -1 -9 634.54 52.29
10 -2 -9 214.28 20.1
-10 -2 9 241.98 21.5
10 2 9 240.48 20.7
10 -2 -9 235.98 23.9
-10 2 -9 210.48 24.3
10 2 -9 226.58 23.8
-10 -2 -9 190.88 22.3
10 2 -9 238.38 22.4
10 2 -9 235.18 19.9
10 -2 9 213.48 23.9
-10 2 9 222.08 19.4
10 -3 -9 246.88 21.3
-10 -3 9 278.47 23.8
10 -3 -9 214.38 24.5
-10 3 -9 234.68 26.1
-10 3 9 264.27 20.5
10 3 -9 215.98 23.5
10 3 -9 276.07 21.9
10 -3 9 230.98 26.1
10 3 -9 250.57 25.3
-10 -3 -9 234.98 23.8
-10 -3 -9 237.08 24.2
-10 -4 9 262.67 23.2
10 -4 -9 257.07 25.4
-10 4 -9 232.88 25.4
-10 -4 -9 211.98 22.6
10 4 -9 226.88 26.2
10 4 -9 216.58 20.5
-10 -4 -9 232.58 23.1
10 4 -9 236.78 23.8
10 -4 9 228.08 25.8
-10 5 -9 37.2 9.2
-10 -5 9 54.39 10.3
10 5 -9 36.9 8.3
10 5 -9 35.8 8.8
10 -5 9 51.39 13.1
-10 -5 -9 45 9.1
-10 -5 -9 49.5 9.4
10 -6 -9 499.75 42.3
-10 6 -9 410.36 39.7
-10 6 -9 488.75 35.9
-10 -6 -9 435.46 38.7
10 6 -9 443.26 37.3
10 -6 9 507.45 44.8
-10 -6 -9 450.55 38.8
10 6 -9 420.56 40
10 6 -9 371.76 35.3
-10 7 -9 120.59 15
-10 7 -9 128.29 12.4
10 -7 -9 141.19 17.7
-10 -7 -9 128.09 15
-10 -7 -9 84.79 13.3
10 7 -9 111.99 16.2
10 -7 9 128.89 19.2
-10 8 -9 1.8 3
10 -8 -9 9.7 6.3
-10 -8 -9 10 4.1
10 -8 9 10.4 8.4
-10 -8 -9 6.3 5.2
10 8 -9 9.1 6.7
-10 9 -9 8.7 4.1
10 -9 -9 12.7 7.9
10 9 -9 5.9 5.4
-10 -9 -9 -3.7 3.8
-10 -9 -9 16.2 6.2
10 -9 9 -0.6 5.6
11 0 -9 2.1 3
-11 0 9 -3.1 1.5
-11 0 -9 1 3.3
11 -1 -9 -0.7 2.9
11 -1 -9 1.7 2.1
-11 -1 9 -1.8 1.5
-11 1 -9 7.4 4.9
11 1 9 -2.6 2
-11 1 9 -1.6 1.6
11 1 -9 0.6 1.8
11 1 -9 0.8 3
11 -1 9 -1.6 3
-11 -1 -9 0.3 3.3
11 1 -9 1.6 3.4
-11 2 -9 226.68 24.8
11 -2 -9 206.88 20.1
11 -2 -9 202.08 23.3
11 2 9 221.38 20.7
-11 -2 9 206.88 20.8
11 2 -9 204.68 21.7
11 -2 9 246.18 25
-11 2 9 232.68 19.5
-11 -2 -9 194.78 22.7
11 2 -9 247.68 20.1
11 2 -9 210.68 23.5
-11 -3 9 77.79 10.6
-11 3 -9 80.99 15.5
11 -3 -9 79.19 12.4
11 3 9 87.69 8.4
11 -3 -9 64.69 8.7
-11 -3 -9 66.69 11.2
11 3 -9 67.29 11.7
-11 3 9 83.09 8.5
11 3 -9 61.39 12.8
11 3 -9 83.19 9.3
11 -3 9 81.19 15.3
-11 -3 -9 81.99 11.2
-11 4 -9 517.45 50.79
11 -4 -9 551.04 50.69
-11 -4 9 628.04 48.9
11 -4 9 602.14 52.99
-11 -4 -9 530.75 49
11 4 -9 576.54 46
-11 -4 -9 557.54 49
11 4 -9 575.64 49.7
-11 4 9 662.23 44.2
11 4 -9 551.34 49.7
-11 -5 9 448.16 34.5
-11 5 -9 353.36 35.3
11 -5 -9 384.66 36.1
-11 -5 -9 416.56 34.6
-11 -5 -9 371.96 33.9
11 5 -9 315.87 30.3
11 5 -9 338.27 34.2
11 -5 9 359.66 37.4
-11 -6 9 506.95 39.9
-11 6 -9 395.66 39.6
11 -6 -9 456.75 41.9
11 6 -9 413.26 40.1
-11 -6 -9 465.65 38.8
11 6 -9 396.56 36.7
-11 -6 -9 445.66 39.4
11 -6 9 432.16 43.4
-11 7 -9 17.6 4.1
11 -7 -9 12.4 5
-11 -7 -9 14.2 6.2
11 7 -9 17.5 7.5
-11 -7 -9 6.8 5.7
11 -7 9 17.4 8.1
11 -8 -9 21.6 8.2
-11 8 -9 28.8 6.1
-11 -8 -9 40.7 7.4
11 -8 9 26.3 11.5
-11 -8 -9 42.5 8.9
-11 9 -9 2.3 2.9
11 -9 -9 5.9 7.6
11 9 -9 -3.4 4.9
11 -9 9 -2.3 5.3
-11 -9 -9 -0.8 7.5
-11 -9 -9 4 4.2
12 0 9 -2.6 2.1
-12 0 9 0.2 2.4
-12 0 -9 -1.1 3.2
12 0 -9 -0.2 3.2
12 0 -9 -0.8 2.6
12 -1 -9 59.89 12.9
-12 1 -9 83.19 15.6
-12 -1 9 62.19 10.3
12 -1 -9 59.29 10.4
12 1 9 69.99 12.4
12 1 -9 71.49 11.4
12 -1 9 67.99 13.3
-12 1 9 84.19 9.3
-12 -1 -9 64.79 13.3
12 1 -9 71.09 13.8
12 -2 -9 39.1 7.7
12 -2 -9 45.1 10.6
-12 -2 9 50.79 9.2
12 2 9 49.4 8
-12 2 -9 49.9 12
-12 -2 -9 64.09 11.2
12 2 -9 46 11.5
12 2 -9 49.4 10
12 2 -9 48.7 6.8
-12 -2 -9 41.9 10.6
12 -2 9 44.4 11.4
12 -3 -9 333.47 29
-12 3 -9 313.07 34.2
-12 -3 9 375.16 31.4
12 3 9 359.76 28.1
12 -3 -9 319.57 33.1
-12 3 9 355.06 28
12 3 -9 306.17 31.3
-12 -3 -9 321.87 31.6
-12 -3 -9 298.27 32
12 3 -9 337.17 33.1
12 3 -9 377.36 28.9
12 -3 9 338.27 34.5
-12 -4 9 220.78 21.1
12 -4 -9 173.98 21.9
-12 4 -9 166.58 21.7
-12 -4 -9 161.78 19.8
12 4 -9 190.98 21.3
12 -4 9 208.28 24.1
12 4 -9 186.28 17.5
-12 4 9 210.98 16.1
12 4 -9 154.68 20
-12 -4 -9 178.78 20.8
-12 5 -9 3.2 4.7
-12 -5 9 9.4 4.8
12 -5 -9 -0.8 3.8
-12 -5 -9 16.8 5.7
12 5 -9 3.3 4.1
12 5 -9 4.6 4.5
-12 -5 -9 2.5 4
12 5 -9 3.8 2.9
12 -5 9 2.7 5.1
12 -6 -9 35.6 9.6
-12 6 -9 19.3 8.1
12 6 -9 30.1 8.7
12 6 -9 22.5 6.5
-12 -6 -9 23.9 7.5
12 6 -9 21.3 5.1
-12 -6 -9 29.5 7.5
12 -6 9 45.4 12.8
12 -7 -9 45.9 11.9
-12 7 -9 35.2 6.6
-12 7 -9 49.1 10
12 -7 9 41.9 12.8
-12 -7 -9 45 9.9
-12 -7 -9 50.39 10.2
12 7 -9 29.6 9.2
-12 8 -9 23.4 5.4
12 -8 -9 37.1 10.5
12 8 -9 19.5 7.8
-12 -8 -9 20 8.4
-12 -8 -9 24 6.7
13 0 -9 3.5 4.1
13 0 9 4.1 3.8
13 0 -9 0.3 2.8
-13 0 -9 0.5 3.9
-13 0 9 -1.3 2.4
-13 1 -9 4.3 4.1
13 -1 -9 6 5.3
13 -1 -9 9.2 4.1
13 1 9 5.5 4.6
-13 -1 9 4.3 3.6
13 -1 9 7.4 5.3
-13 -1 -9 6 4.9
-13 1 9 8.9 3.7
13 1 -9 12.8 6
13 1 -9 8.2 3.7
-13 -2 9 392.16 33.4
13 -2 -9 361.46 32.2
13 2 9 366.06 33
13 -2 -9 374.06 36.6
-13 2 -9 401.06 38.2
13 2 -9 375.76 31.3
13 -2 9 356.26 36.5
-13 -2 -9 385.56 34.6
13 2 -9 363.26 34.1
-13 2 9 377.36 31.3
13 2 -9 366.76 36.2
-13 -2 -9 353.16 35.7
13 3 9 305.37 26.2
-13 -3 9 295.77 28.6
13 -3 -9 311.07 27.1
-13 3 -9 322.37 33
13 -3 -9 297.17 31.4
13 -3 9 316.97 32.7
-13 -3 -9 308.47 30.9
13 3 -9 262.37 29
13 3 -9 346.57 26.8
13 3 -9 276.27 30.4
-13 -3 -9 296.47 29.6
-13 3 9 322.57 26.1
-13 -4 9 15 4.8
-13 4 -9 1.1 4.6
13 -4 -9 6.9 5.4
13 4 -9 8.4 5.5
-13 -4 -9 11.1 6.1
13 4 -9 7.6 3.7
-13 4 9 8.7 2.7
13 -4 9 9.6 6.7
-13 -4 -9 6 4.7
13 4 -9 -2.2 3.6
-13 -5 9 16.8 4.9
13 -5 -9 0.1 4.8
-13 5 -9 1 5.4
-13 -5 -9 -2.3 3.8
13 -5 9 7.8 6.8
13 5 -9 0.1 2.8
13 5 -9 0.5 4
13 5 -9 1.2 3.7
-13 -5 -9 -0.1 4.7
-13 5 9 0 1.2
13 -6 -9 76.49 15.5
-13 6 -9 57.99 13.1
13 6 -9 57.59 9.6
-13 -6 -9 72.89 12.5
-13 -6 -9 77.59 12.1
13 6 -9 54.39 8.1
13 6 -9 55.69 12.9
13 -6 9 77.79 17.3
13 -7 -9 63.99 14.7
-13 7 -9 59.69 7.9
-13 7 -9 50.39 11.3
-13 -7 -9 55.59 12.5
13 -7 9 65.79 16.8
-13 -7 -9 63.89 11.1
-13 8 -9 64.79 8.5
13 -8 -9 77.89 16.9
13 -8 9 81.19 18.4
13 8 -9 56.49 13.5
-13 -8 -9 53.79 13
-14 0 -9 1.4 5
14 0 9 3.5 5.1
-14 0 9 2.1 2.7
14 0 -9 5.2 3.8
14 0 -9 -1 3.4
-14 1 -9 203.38 25
-14 -1 9 219.48 21.1
14 -1 -9 213.28 24.6
14 1 9 198.28 22.4
14 -1 -9 190.98 20.5
-14 1 9 241.08 20.6
-14 -1 -9 184.88 21.4
-14 -1 -9 174.18 23.4
14 -1 9 235.68 25
14 1 -9 214.48 24.5
14 1 -9 191.18 21.3
14 -2 -9 142.19 15
-14 2 -9 148.19 20.1
14 -2 -9 123.89 17.9
-14 -2 9 120.29 15.1
14 2 -9 143.39 16.6
-14 -2 -9 137.99 16.8
14 2 -9 116.29 17.2
-14 2 9 138.59 14.1
-14 -2 -9 102.19 16.8
14 -2 9 116.69 17.6
14 2 -9 129.59 13.6
-14 -3 9 210.08 24.5
14 -3 -9 216.58 25.1
-14 3 -9 192.28 25.5
14 3 9 225.18 20.1
14 -3 -9 214.08 20.3
14 -3 9 205.28 25.4
-14 3 9 233.68 19.8
-14 -3 -9 199.58 22.9
-14 -3 -9 206.78 24.5
14 3 -9 169.28 21.9
14 3 -9 215.88 24.5
14 3 -9 226.68 19.9
14 4 9 74.29 5.6
-14 -4 9 57.09 11.6
-14 4 -9 49.7 13.2
14 -4 -9 65.19 14.4
14 -4 9 56.49 14.3
-14 4 9 76.69 8.2
14 4 -9 60.59 8.7
14 4 -9 58.29 12.6
14 4 -9 62.19 13.2
-14 -4 -9 68.39 13.5
-14 5 -9 13.4 8.1
14 -5 -9 9.6 7.3
14 5 -9 8.8 5.6
-14 -5 -9 9.5 5.6
14 5 -9 9.8 5.7
14 -5 9 12.1 8.6
14 5 -9 7.2 3.9
-14 -5 -9 10.3 5.6
-14 5 9 7.2 2.4
14 -6 -9 41.3 11.9
-14 6 -9 69.29 13.4
-14 -6 -9 48.4 12.6
14 6 -9 48.7 12.3
14 -6 9 55.09 14.7
-14 -6 -9 54.79 11.3
-14 7 -9 102.69 15.4
14 -7 -9 107.09 17
-14 7 -9 91.99 10.7
14 -7 9 89.19 20.3
14 7 -9 69.89 15.3
-14 -7 -9 86.69 18.2
14 -8 -9 -3.3 6.6
-14 8 -9 5.3 2.8
14 -8 9 5.3 6.9
14 8 -9 16.4 7.8
-14 -8 -9 0.1 7.1
15 0 -9 -3.1 2.2
15 0 -9 -1.6 3.1
15 0 9 5.5 4.9
-15 0 -9 -3.2 4.2
-15 0 9 -0.7 3.3
15 -1 -9 520.45 49.7
15 -1 -9 527.15 45.6
-15 -1 9 562.24 45.9
-15 1 -9 580.34 51.79
15 1 9 506.65 47.2
-15 1 9 562.84 44.8
-15 -1 -9 562.04 50.69
15 1 -9 529.65 49.7
15 1 -9 486.65 45.9
-15 -1 -9 498.45 46.6
15 -1 9 565.44 49.99
15 -2 -9 24.8 9
15 -2 -9 14.1 5.2
-15 2 -9 26.7 10.6
15 2 9 20 6.2
-15 -2 9 17 6.5
-15 2 9 20.2 5.6
15 -2 9 9.1 6.7
-15 -2 -9 20 7.3
-15 -2 -9 20.9 8.9
15 2 -9 11.6 6.6
15 2 -9 18.9 5.1
15 2 -9 22 7.2
15 3 9 18.9 5.6
15 -3 -9 21 8.4
-15 3 9 18.1 5.3
15 3 -9 20.8 5.3
15 3 -9 16.1 7.6
-15 -3 -9 17.2 8.6
-15 -3 -9 20.8 7.6
15 -3 9 14.4 7.9
15 3 -9 8.8 5.5
15 4 9 159.08 13.4
15 4 9 194.58 14.1
15 -4 -9 149.88 21.7
-15 -4 9 174.98 19.9
-15 4 -9 153.18 24.7
-15 -4 -9 197.68 20.6
15 4 -9 171.98 16.8
-15 -4 -9 163.98 21.2
15 4 -9 173.88 20.8
15 -4 9 156.08 22.5
15 4 -9 137.59 19.8
15 -5 -9 2.7 4.1
-15 -5 -9 3 4.5
-15 5 9 1.5 1.9
15 5 -9 1.5 3
15 -5 9 9.4 7.2
15 5 -9 -3.3 3.6
15 5 -9 -5.1 3.7
-15 -5 -9 -5.2 4.5
15 -6 -9 4.9 4.7
-15 6 -9 17.7 8.2
-15 -6 -9 1.6 6.8
15 6 -9 1.3 4.5
15 -6 9 -0.7 4.9
15 6 -9 3.8 5.3
15 6 -9 5.2 9
-15 7 -9 22.7 10.2
15 -7 -9 16.3 8.7
15 -7 9 34.2 12.2
15 7 -9 26.8 9.1
-15 -7 -9 33.3 8.7
15 -8 -9 4.7 7.5
-15 8 -9 5.7 3.5
-15 -8 -9 24.9 9.8
15 -8 9 9.6 8.3
15 8 -9 2.5 6.5
16 0 -9 -1.6 3.2
-16 0 9 1.5 3.2
16 0 -9 0.5 3.4
-16 0 -9 3.5 4.8
16 0 9 -0.6 3.6
-16 0 -9 -0.6 3.2
-16 -1 9 8.3 4.6
-16 1 -9 11.6 7.2
16 -1 -9 6 4.5
16 1 9 5.7 4.7
16 -1 -9 8.5 5.8
-16 1 9 2.2 3.6
16 1 -9 5 3.8
16 1 -9 6.1 6.2
-16 -1 -9 2.9 4.9
-16 -1 -9 12.7 9.7
16 -1 9 4.2 5.2
16 -2 -9 209.28 26.3
-16 2 -9 219.68 27.2
16 2 9 247.58 24.2
-16 -2 9 213.48 22.8
16 -2 -9 213.68 22.2
16 2 -9 202.48 25.7
16 2 -9 219.28 24.1
-16 -2 -9 230.38 30.7
-16 -2 -9 192.88 23.5
16 -2 9 220.58 26.7
-16 2 9 227.28 21.5
16 2 -9 238.18 21.4
16 3 9 138.99 15.4
16 -3 -9 143.09 20.1
-16 3 -9 125.09 19.5
-16 -3 -9 132.09 21.4
16 -3 9 133.19 19.9
16 3 -9 116.69 17.9
16 3 -9 138.19 14.3
16 3 -9 149.88 18.2
-16 3 9 122.89 13.9
-16 -3 -9 127.09 17.5
16 4 9 16.7 2.9
16 -4 -9 11.5 7.2
-16 4 -9 25.6 10.5
16 4 9 16.1 3.6
-16 -4 -9 25 7.3
16 4 -9 14.5 7
16 4 -9 16.7 7.6
16 -4 9 24.2 10
16 4 -9 21.7 5.3
-16 -4 -9 32.5 9.2
-16 4 9 16.5 5
-16 5 -9 6.8 7.8
16 -5 -9 2.6 4.7
16 -5 9 -2.9 4.6
16 5 -9 -3.9 2.6
-16 5 9 0.9 2
16 5 -9 8.9 5.8
16 5 -9 -5.2 3.7
-16 -5 -9 1.5 5.2
16 -6 -9 7.6 7.3
-16 6 -9 34 12.8
-16 -6 -9 18.7 8
16 6 -9 9.5 4.4
16 -6 9 22.2 11.6
16 6 -9 10.9 5.8
16 6 -9 19.4 7.2
-16 7 -9 -6.6 7.1
16 -7 -9 -6.2 4.8
16 -7 9 8.3 8.3
-16 8 -9 -1.2 2.4
16 -8 -9 -9.6 6.2
16 8 -9 -0.3 6.2
16 -8 9 -2 7.2
17 0 -9 1.3 4.2
17 0 -9 -1.2 2.7
17 0 9 -3.1 4.7
-17 0 9 -3.6 2.7
-17 0 -9 0.8 3.8
-17 -1 9 132.39 17
17 -1 -9 148.19 17.7
17 -1 -9 150.48 21.3
17 1 9 161.38 19.8
-17 1 9 167.88 17.2
17 1 -9 152.88 20.9
-17 -1 -9 145.79 21.2
17 -1 9 145.29 20.4
17 1 -9 128.09 17.6
17 2 9 -3.7 2.1
-17 2 -9 -2.2 4.8
-17 -2 9 -5.4 3.2
17 -2 -9 1.9 3.6
17 -2 -9 2.5 4.8
-17 -2 -9 5.3 4.8
-17 2 9 1.3 3.1
17 2 -9 -0.3 3.2
-17 -2 -9 3.7 5.3
17 2 -9 -0.4 2.9
17 -2 9 4 5.1
17 2 -9 -5.6 3.3
17 -3 -9 395.26 43.4
-17 3 -9 429.06 44.6
17 3 9 436.26 38
17 3 -9 426.26 42.4
-17 -3 -9 432.96 41.8
-17 3 9 485.15 37.4
17 -3 9 447.36 44.6
-17 -3 -9 435.86 43.4
17 3 -9 391.86 40.3
17 -4 -9 8.8 6.7
17 4 9 15.1 3.8
-17 4 -9 27.7 11.5
17 4 -9 18.8 7.9
17 -4 9 22.5 9.7
17 4 -9 12.6 7
-17 -4 -9 0.7 6
17 4 -9 9.1 5
-17 4 9 16 4.7
-17 5 -9 66.49 16.2
17 -5 -9 66.99 16.3
17 5 -9 33.3 12.3
17 5 -9 41 11.3
-17 5 9 60.59 10.4
-17 -5 -9 51.19 13.5
17 -5 9 57.39 16.3
17 5 -9 50.59 8.8
17 -6 -9 2.2 6.6
-17 6 -9 7.9 8.9
17 6 -9 0.7 4.7
17 -6 9 4.8 6.1
-17 6 9 0 1.4
17 6 -9 4.5 4.1
17 6 -9 2.5 4.9
-17 7 -9 0.9 9.1
17 -7 -9 -3.9 6.6
17 7 -9 -5.8 4.3
17 -7 9 12.4 8.2
-18 0 -9 -0.7 4.3
18 0 -9 -3.8 2.7
18 0 -9 -1.9 4.1
18 0 9 5.3 5.5
-18 0 9 0.8 3.9
-18 1 -9 -1.7 4.1
18 1 9 0.5 3.5
-18 -1 9 1.9 3.6
18 -1 -9 -1.4 3.4
18 -1 -9 4.6 5.8
18 1 -9 2.6 4.2
18 -1 9 -1.9 3.7
18 1 -9 0.7 4
-18 -1 -9 3.5 6.1
-18 1 9 -0.5 3.6
18 -2 -9 114.39 14.9
18 -2 -9 125.99 19.8
18 2 9 115.89 16.2
18 2 -9 112.59 18
18 2 -9 127.39 13.8
-18 2 9 133.29 14.6
18 -2 9 106.09 20.6
18 2 -9 76.49 15.6
-18 -2 -9 99.79 22.6
18 3 9 156.68 18
18 -3 -9 157.68 22.4
18 3 -9 126.89 20.3
18 -3 9 169.38 23.7
-18 3 9 171.58 17.2
18 3 -9 147.59 19.9
18 3 -9 165.78 16.9
18 -4 -9 12.1 7.6
18 4 9 7.6 3.8
-18 4 9 15.8 4.8
18 4 -9 12.8 6.8
18 -4 9 19.9 10.4
18 4 -9 5.7 5
18 -5 -9 14.5 10.1
18 5 -9 31.1 10.7
-18 5 9 30.1 5.9
18 -5 9 30.6 12.1
18 5 -9 27.4 9.1
18 5 -9 17.4 5.6
-18 6 -9 7.4 9.6
18 -6 -9 7.1 7.7
-18 6 9 0.2 2
18 6 -9 6.2 5.2
18 6 -9 8.3 6.5
18 -6 9 -8.1 5.5
18 6 -9 7 4.2
-18 7 -9 33.2 15.6
18 -7 -9 23.8 13
18 7 -9 36.5 11.6
18 -7 9 47.8 14
19 0 9 -0.1 5
19 0 -9 -0.2 4.1
19 0 -9 -1.7 4.9
-19 0 9 1.7 4.1
19 1 9 3.7 5.3
19 -1 -9 -0.5 3.1
19 -1 -9 3.3 4.5
19 -1 9 -7.3 3.7
19 1 -9 2.1 6.2
19 1 -9 -1.1 3.1
-19 1 9 1.8 3.6
19 2 9 136.79 19
19 -2 -9 145.49 22.3
-19 2 9 135.69 16.5
19 2 -9 123.39 18
19 -2 9 151.78 22
19 2 -9 144.49 17.8
19 2 -9 136.29 21.2
19 -3 -9 403.06 43.5
19 3 9 425.66 37.9
19 3 -9 448.26 36.3
19 3 -9 361.36 41.1
-19 3 9 477.65 37.1
19 3 -9 367.56 39.7
19 -3 9 367.46 42.8
19 -4 -9 62.39 16.9
19 4 9 70.99 9.3
19 4 -9 67.79 9.9
19 4 -9 65.79 15.1
-19 4 9 75.89 10.5
19 4 -9 50.49 13.1
19 -5 -9 27.3 11.2
19 -5 9 18.6 10.6
19 5 -9 8.9 5.8
-19 5 9 16.8 5.1
19 5 -9 19 5.8
19 5 -9 22.6 8.1
19 -6 -9 0 5.6
-19 6 9 -4 1.9
19 6 -9 1 4.4
19 6 -9 -0.7 5.1
19 6 -9 -4 5.1
19 -6 9 9.2 7.6
19 -7 -9 1.5 7.8
-19 7 -9 5 13.9
19 -7 9 9.8 8
19 7 -9 0.5 6
20 0 9 5.6 6.6
20 0 -9 -2.2 4.8
20 0 -9 -2.3 3.7
20 -1 -9 216.48 28.9
20 1 9 238.58 27.3
20 -1 -9 249.08 25.2
-20 1 9 228.08 23.6
20 -1 9 203.68 27.6
20 1 -9 202.58 27.8
20 1 -9 224.38 25.4
20 2 9 227.08 25.6
20 -2 -9 211.88 28.6
20 2 -9 193.48 24.7
-20 2 9 233.08 22.8
20 2 -9 178.88 26.5
20 -2 9 240.58 29.5
20 3 9 29.6 8.8
20 -3 -9 26.6 11.8
-20 3 9 33.4 7.8
20 3 -9 26.3 10.4
20 -3 9 11.6 10.1
20 3 -9 21.6 8.5
20 -4 -9 7.2 9
-20 4 9 11.4 4.6
20 4 -9 -0.7 5
20 4 -9 10.9 5.7
20 4 -9 6.9 6
20 -4 9 6.1 8.8
20 -5 -9 11.8 7.4
20 5 -9 -4.1 3.9
20 5 -9 0.3 5
-20 5 9 0.2 3.6
20 5 -9 3.3 5
20 -5 9 5.6 8.9
20 -6 -9 15.7 8.7
20 6 -9 8.5 6.9
20 6 -9 6.6 5.8
20 -6 9 19.6 11.4
20 6 -9 3.7 5.1
21 0 -9 3.7 4.1
21 0 -9 -4.6 4.1
21 0 9 2.3 5.9
21 1 9 43.2 12.1
21 -1 -9 38.7 13.6
21 -1 -9 22.6 8
21 1 -9 34.8 10.3
21 -1 9 38.9 12.6
21 1 -9 27.2 11.1
21 2 9 129.29 18.4
21 -2 -9 130.69 27.7
21 -2 9 102.09 24.8
21 2 -9 77.29 20
21 2 -9 144.49 21.6
-21 2 9 125.59 15.6
21 -3 -9 33 12.6
21 3 9 35.4 9.6
-21 3 9 28.9 7.6
21 3 -9 13.9 9.3
21 3 -9 34.2 10.4
21 -3 9 42.3 13.9
21 4 9 12.8 5.3
21 -4 -9 13.8 8.9
-21 4 9 9.1 4.6
21 4 -9 9.6 6.5
21 4 -9 8.4 6.1
21 -4 9 5.3 8.5
21 -5 -9 1.3 6.7
21 5 -9 0.1 5.6
21 5 -9 3.6 4.9
21 5 -9 -3 5.3
21 -5 9 -0.9 8.3
-21 5 9 14.8 4.2
21 -6 -9 -10.7 7.9
21 -6 9 10.1 7.4
21 6 -9 3.3 7.4
-21 6 9 -1 3.6
21 6 -9 1.6 5.5
21 6 -9 1.5 4.9
22 0 -9 -2.8 5.5
22 0 -9 2.3 4.4
22 0 9 5.8 7.9
22 -1 -9 27.9 11.6
22 1 9 23.1 9.6
22 1 -9 26.6 10.6
22 -2 -9 0.7 6.9
22 2 9 -1.6 4.1
22 2 -9 4.1 7.4
22 -2 9 -8.7 5.2
22 2 -9 1.5 5.1
22 -3 -9 86.19 19.9
22 3 9 83.89 15
22 -3 9 75.89 19
-22 3 9 104.99 13.7
22 3 -9 74.39 17.5
22 3 -9 83.09 17.1
22 4 9 130.49 14.9
22 -4 -9 127.59 25.6
22 -4 9 106.39 22.8
-22 4 9 114.89 15.1
22 4 -9 102.09 20.1
22 4 -9 111.19 21.2
22 -5 -9 45.8 15.2
22 -5 9 34.6 14.4
22 5 -9 38.2 13.3
22 5 -9 40.4 11.8
-22 5 9 48.5 8.7
22 5 -9 39.7 11.2
23 0 -9 -5.9 4.6
23 0 -9 -6.3 3.9
23 -1 -9 26 11.1
23 1 9 23.2 9.6
23 -1 9 21.4 11.5
23 1 -9 24.3 8.8
23 1 -9 9.7 8.3
23 -2 -9 0.8 8.3
23 2 9 4 6.5
23 -2 9 2.4 6.8
23 2 -9 -3.9 5.4
23 2 -9 5.7 6.2
23 -3 -9 61.69 17.3
23 3 9 78.89 15
23 3 -9 73.49 16.1
23 3 -9 86.59 18.9
23 -3 9 75.29 19.3
23 4 9 28.6 7.5
23 -4 -9 35.9 13.1
23 4 -9 9.7 7.8
-23 4 9 28.6 8.9
23 -4 9 32.4 13.4
23 -5 -9 1.1 6.9
23 -5 9 -1.1 6.9
23 5 -9 0.7 7.2
23 5 -9 9.8 7.4
24 0 -9 1.7 7.2
24 0 9 7 7.9
24 1 9 -2.3 7.2
24 -1 -9 -1.4 6.1
24 1 -9 1.6 6.1
24 1 -9 -0.6 6.7
24 -1 9 2.8 7.8
24 -2 -9 106.29 24.1
24 2 9 131.79 20.2
24 2 -9 117.49 21.1
24 2 -9 96.59 23.3
24 -2 9 127.89 24.6
24 -3 -9 142.69 28.6
24 3 -9 168.08 22.9
24 3 -9 134.49 25.8
24 -3 9 173.38 26.3
24 4 9 81.59 12.5
24 -4 -9 70.69 19.5
24 4 -9 104.89 19.6
24 4 -9 55.19 16.2
24 -4 9 81.49 20
25 0 -9 -10.3 7.2
25 0 9 -3.5 5.7
25 1 9 21.5 10.2
25 -1 -9 -4.7 7.5
25 1 -9 11.7 10
25 -1 9 6.9 9
25 -2 -9 19.2 10.6
25 2 -9 18.8 10.4
25 -2 9 34.6 12.8
25 2 -9 17.2 9.7
25 3 9 30.7 10.4
25 -3 -9 27.1 12.9
25 3 -9 44.7 13
25 3 -9 18.1 10.8
25 -3 9 32.3 14.4
26 0 9 -12.2 5.6
26 0 -9 -5.8 5.9
26 1 9 15.5 8.7
26 -1 -9 2.4 7.5
26 -1 9 -1 6.9
26 1 -9 3.9 9
26 2 9 5.6 6.8
26 -2 -9 19 11.6
26 2 -9 1.8 10.9
26 -2 9 8.3 9.7
27 0 9 -0.5 9.6
27 0 -9 6.9 7.5
0 0 -10 4730.03 346.67
0 -1 10 10.9 4
0 1 -10 2.6 2.4
0 1 -10 1 1.3
0 -1 -10 2.4 1.5
0 -2 10 10.4 4.1
0 2 -10 3.9 1.8
0 2 -10 6.3 3.6
0 -2 -10 4.1 1.6
0 -3 10 0.5 2.6
0 3 -10 3.5 2
0 3 -10 2.1 2.8
0 -3 -10 0.3 0.8
0 -4 10 176.58 17
0 4 -10 118.79 15.1
0 -5 10 -1.3 3.7
0 -5 -10 1.4 1.1
0 5 -10 -2.3 2.4
0 5 -10 -0.9 1.8
0 6 -10 319.77 30.1
0 -6 -10 374.96 26.5
0 6 -10 352.56 30.6
0 7 -10 0.8 3.1
0 -7 10 1.2 4.2
0 8 -10 82.29 11.7
0 -9 -10 0.2 2
0 -9 10 0.6 5.2
0 9 -10 2.6 4
-1 0 -10 194.28 19.7
-1 0 10 262.87 20
1 0 -10 235.08 19.4
1 1 10 407.96 28.9
-1 1 -10 322.87 30.5
1 -1 -10 376.66 28.6
1 1 -10 340.47 29.8
1 1 -10 342.17 28.8
-1 -1 -10 382.36 29.2
1 -2 -10 295.37 24.5
-1 2 -10 315.67 28.3
-1 2 -10 318.57 25.4
1 2 -10 292.37 27.2
-1 -2 -10 354.66 25
-1 -3 10 19.5 5.8
-1 3 -10 8.3 3.8
-1 3 -10 10.8 3.1
-1 -3 -10 9.8 2
1 3 -10 6.8 2.7
1 -3 10 20.4 6
1 3 -10 4.9 3.3
-1 -4 10 16.8 5.6
-1 4 -10 12.1 3.7
-1 4 -10 12.4 4.7
1 -4 10 12.9 5.5
1 4 -10 15.6 4.3
-1 -4 -10 12.6 2
1 4 -10 14.1 4.6
-1 -5 10 87.79 11.5
-1 5 -10 60.19 10
1 -5 -10 69.59 6.7
1 -5 -10 82.29 6.3
-1 5 -10 73.49 9
1 5 -10 76.89 9.6
1 5 -10 65.29 9.8
-1 -5 -10 72.09 7.8
1 -5 10 105.89 13
-1 6 -10 488.25 41.8
-1 6 -10 492.45 41.4
1 6 -10 493.25 41.5
1 6 -10 518.25 42.2
-1 -6 -10 540.85 38.8
-1 -7 10 115.19 13.8
-1 7 -10 72.09 10.4
1 -7 10 88.09 12.9
1 7 -10 58.39 10.7
1 -8 -10 5.1 2.3
-1 8 -10 3.5 3.2
-1 -8 10 -4.4 3.2
1 -8 10 10.7 6
1 8 -10 -0.9 3.1
1 -9 -10 76.19 8.8
-1 -9 10 100.19 14.1
-1 9 -10 54.39 10.7
1 9 -10 66.29 12
1 -9 10 96.29 13.5
2 0 -10 546.95 40.8
-2 0 -10 467.25 42.1
2 0 -10 545.85 40.9
-2 0 10 545.05 41.3
-2 1 -10 529.35 45.2
2 -1 -10 570.14 42.3
2 -1 -10 520.65 42.1
2 1 -10 558.84 43.1
-2 -1 -10 587.54 43.6
2 1 -10 554.74 43.5
2 -2 -10 41 4.6
2 -2 -10 33.4 4.4
-2 -2 10 64.19 8
-2 2 -10 38 8.2
2 -2 10 62.39 8.6
-2 -2 -10 41.3 5
2 2 -10 46.1 6.1
2 2 -10 39.3 6.3
-2 3 -10 169.08 19.7
2 -3 -10 167.98 13.1
-2 3 -10 143.79 14
2 3 -10 151.78 15.1
2 -3 10 200.68 18.3
-2 -3 -10 161.48 13.2
2 3 -10 137.09 15.8
-2 4 -10 52.09 6.7
2 -4 -10 51.39 4.9
2 4 -10 48.7 7.8
-2 -4 -10 55.19 5
2 -4 10 52.59 10
2 4 -10 46.6 8
-2 5 -10 112.09 13.4
-2 5 -10 97.79 11
2 5 -10 103.89 12.1
2 -5 10 126.09 15
-2 -5 -10 106.09 10.5
2 5 -10 92.89 12
-2 -5 -10 104.49 8.5
-2 6 -10 463.75 38.9
-2 6 -10 443.56 39.7
2 6 -10 503.25 39.3
2 6 -10 489.65 40.4
-2 -6 -10 476.85 37.2
2 6 -10 425.66 38.8
2 -6 10 572.94 43.9
-2 7 -10 551.44 41.8
-2 7 -10 498.65 44.7
-2 -7 -10 551.04 41.6
2 -7 10 665.23 49.7
2 7 -10 507.45 45.8
-2 -8 10 -1.1 4.3
2 -8 -10 7.2 3
-2 8 -10 2.2 3
2 -8 10 13.3 5.9
2 8 -10 2.7 3.1
-2 9 -10 109.29 14.6
2 -9 -10 117.19 13.1
-2 -9 10 167.48 17.9
2 9 -10 120.49 15.7
2 -9 10 159.68 18.4
-3 0 -10 161.48 17
3 0 -10 183.68 15.5
3 0 -10 178.48 15.1
-3 -1 10 140.79 12.4
3 -1 -10 98.99 10.2
-3 1 -10 104.69 13.2
3 -1 -10 127.59 10.9
-3 -1 10 145.29 11.8
3 1 -10 124.19 11.4
3 1 -10 100.09 11.1
3 -1 10 123.89 13.2
-3 -1 -10 94.99 11.5
3 -2 -10 933.21 68.49
-3 2 -10 898.81 73.29
3 2 -10 915.81 70.29
-3 -2 -10 871.81 69.29
3 2 -10 831.92 70.09
3 -2 10 1062.29 73.29
-3 -3 10 143.79 12.6
-3 3 -10 101.49 15.4
3 -3 -10 112.99 10
3 3 -10 104.49 12
3 3 -10 103.19 12.3
-3 -3 -10 118.59 10.6
3 -3 10 147.09 15.4
-3 4 -10 357.06 35.6
3 -4 -10 395.76 30.4
-3 4 -10 419.66 32.6
3 -4 10 437.26 39.5
3 4 -10 356.06 33.9
-3 -4 -10 438.56 31
3 4 -10 407.86 34
-3 5 -10 273.27 26.4
-3 5 -10 259.37 23.2
3 5 -10 278.97 25.2
3 5 -10 227.18 24.2
3 -5 10 324.27 28.3
-3 -5 -10 299.17 21.2
-3 -5 -10 260.77 23.2
-3 -6 10 60.09 10.3
-3 6 -10 34 7.8
-3 6 -10 32.7 6.6
-3 -6 -10 35.1 5.9
3 6 -10 38.3 8.1
3 6 -10 37.9 7.1
3 6 -10 32.5 6.7
-3 -6 -10 40.9 3.9
3 -6 10 46.9 10.4
-3 7 -10 19 4.9
-3 -7 10 40.4 9.1
-3 7 -10 20.7 4.1
-3 -7 -10 25.2 4.1
3 7 -10 8.9 5.2
3 -7 10 38.3 9.9
-3 -7 -10 22.1 2.6
-3 8 -10 -2.5 3.1
3 -8 -10 -1.5 3
-3 -8 10 -1.6 4
3 -8 10 -1.9 4.7
3 8 -10 2.6 3.3
-3 -8 -10 -2 1.1
-3 9 -10 0 3.1
3 -9 -10 9.1 3.5
-3 -9 10 6.9 5.9
3 -9 10 2.2 5.2
3 9 -10 12.5 4.9
-4 0 10 933.41 61.99
4 0 10 943.71 63.89
4 0 -10 715.03 61.09
-4 0 -10 729.83 63.99
4 0 -10 749.33 61.79
4 -1 -10 122.09 12.3
-4 1 -10 151.28 16.3
-4 -1 10 151.08 13.4
4 -1 -10 153.98 13.2
-4 -1 10 146.99 13.8
4 1 -10 150.08 13.3
4 -1 10 159.18 15.8
-4 -1 -10 123.79 14.2
-4 2 -10 68.59 13.9
-4 -2 10 94.29 9.6
4 -2 -10 75.29 7.9
-4 -2 10 106.59 10.6
4 2 10 83.79 7.3
4 2 -10 75.19 9.1
4 2 -10 79.09 9.4
-4 -2 -10 62.99 8.6
4 -2 10 91.49 11.5
4 -3 -10 253.87 20.9
-4 3 -10 239.48 25.5
4 3 -10 263.87 25.4
-4 -3 -10 276.67 22.2
4 -3 10 288.87 26.2
4 -4 -10 123.29 10.4
-4 4 -10 126.49 15.4
-4 -4 10 166.48 14.1
-4 4 -10 126.09 15.1
-4 -4 -10 121.29 12.9
4 4 -10 111.59 13.6
-4 -4 -10 129.59 11.6
4 4 -10 123.69 13.8
4 -4 10 138.69 18.4
-4 5 -10 14.7 3.7
-4 -5 10 18.2 5.5
-4 -5 10 15.4 4.8
4 5 -10 10.4 4.6
4 -5 10 14.4 6.4
4 5 -10 10.9 4.2
4 5 -10 8.9 4.7
-4 -5 -10 13.1 2.8
-4 -5 -10 11.9 3.9
-4 6 -10 114.09 13.9
-4 6 -10 119.99 12.1
4 6 -10 117.09 14
4 6 -10 111.29 12.3
-4 -6 -10 110.29 11.7
4 -6 10 128.09 16.3
4 6 -10 111.19 12.5
-4 -6 -10 115.09 10
-4 7 -10 8.7 3.2
-4 -7 10 15.6 6.3
4 -7 -10 4.9 3.5
-4 7 -10 1 3.1
-4 -7 -10 7.7 3
-4 -7 -10 7 2.1
4 -7 10 8.9 5.8
4 7 -10 10.9 4.7
-4 -8 10 87.19 12
-4 8 -10 57.89 9.8
4 -8 -10 77.29 10
-4 -8 -10 64.99 6.8
4 -8 10 74.09 14.5
4 8 -10 52.09 10.6
-4 -8 -10 56.29 6.1
-4 -9 10 45.9 10.1
-4 9 -10 28.7 6.8
4 -9 -10 34.9 7.5
4 -9 10 55.39 12.2
4 9 -10 33.8 8.9
-5 0 10 803.72 54.79
5 0 -10 651.43 54.79
5 0 -10 660.33 53.99
5 0 10 798.92 56.89
-5 0 -10 641.54 57.19
-5 -1 10 41.7 6.3
5 1 10 43.7 6.2
5 -1 -10 36.4 5.7
5 1 -10 28.4 6.2
-5 1 10 47.9 5.2
-5 -1 -10 31.3 7.1
5 -1 10 28.1 7.4
-5 -2 10 80.49 9.2
-5 2 -10 74.49 11
5 2 10 89.49 7.2
-5 -2 10 67.49 8.1
5 -2 -10 55.09 7.1
5 2 -10 65.09 8.8
-5 -2 -10 59.69 8.6
5 -2 10 69.49 10.4
5 2 -10 74.19 8.4
-5 -3 10 4.7 3
-5 -3 10 6.5 2.9
5 -3 -10 3.9 1.7
-5 3 -10 3.9 3.7
5 3 -10 0.9 1.9
-5 -3 -10 4.4 2.6
5 -3 10 1.5 3.2
5 3 -10 1.9 2.3
-5 -4 10 32.1 6
-5 4 -10 17 6.3
5 -4 -10 20.4 2.6
5 4 -10 9 4
-5 -4 -10 22.1 4.4
5 -4 10 16.6 6.3
-5 -4 -10 15.6 4.7
-5 5 -10 448.46 42.2
-5 5 -10 514.85 39
5 -5 10 578.14 45.5
5 5 -10 525.25 41.8
-5 -5 -10 464.95 38.2
5 5 -10 514.25 42.1
5 5 -10 418.16 39.9
-5 -5 -10 499.15 40.2
-5 6 -10 558.44 43.1
-5 6 -10 546.55 45.8
-5 -6 -10 519.15 41.5
5 6 -10 480.55 43
5 6 -10 566.84 46.2
5 6 -10 552.24 43.9
5 -6 10 628.54 49.7
-5 -6 -10 510.05 43.2
-5 7 -10 81.69 9.7
-5 7 -10 70.19 9.2
5 -7 -10 74.19 10.4
-5 -7 -10 67.19 7.4
5 7 -10 79.69 13
5 -7 10 82.29 15.3
-5 -7 -10 68.99 8.7
-5 -8 10 6 4.8
-5 8 -10 2.7 2.9
5 -8 -10 5.3 4
-5 -8 -10 7.6 2.5
-5 -8 -10 6.4 2.6
5 8 -10 5.9 3.5
5 -8 10 4.2 6
-5 9 -10 13.6 4.8
5 -9 -10 17.6 5.2
-5 -9 10 22.5 7.5
-5 -9 -10 9.9 2.1
5 -9 10 16.2 7.7
5 9 -10 19.2 6.6
6 0 -10 622.74 51.29
6 0 10 732.53 53.39
-6 0 10 690.33 50.79
6 0 -10 589.04 51.29
6 -1 -10 81.79 10
-6 1 -10 114.49 13.8
6 1 10 115.99 11.5
-6 -1 10 97.49 11.6
6 1 -10 92.89 11
-6 1 10 121.49 10.2
6 -1 10 95.89 12.6
-6 -1 -10 91.89 12.2
6 1 -10 103.39 10.2
6 -2 -10 213.28 19.5
-6 -2 10 267.07 21.2
-6 2 -10 207.68 23.4
6 2 -10 211.78 21.3
-6 -2 -10 208.98 21.5
6 2 -10 233.48 20.3
-6 2 10 277.67 19.4
6 -2 10 246.38 23.6
-6 3 -10 127.79 17.2
6 -3 -10 140.79 12.9
-6 -3 10 179.08 15.3
6 3 -10 152.18 15.9
6 3 -10 153.28 14.6
-6 -3 -10 145.09 14.9
-6 4 -10 29.4 8.1
-6 -4 10 22.2 5.9
6 -4 -10 16.5 2.8
-6 -4 10 23.6 5.4
6 4 -10 14.7 5.1
-6 -4 -10 23 5.1
6 -4 10 22.9 7.4
6 4 -10 20.8 6.3
6 4 -10 25.1 5.7
-6 5 -10 555.94 47.4
-6 5 -10 543.85 42.9
-6 -5 -10 535.25 44.7
6 -5 10 645.64 50.19
-6 -5 -10 520.65 43.1
6 5 -10 482.85 44.1
6 5 -10 553.84 45.9
6 5 -10 589.74 46.7
-6 -6 10 3 3.2
-6 6 -10 5.1 2.9
-6 -6 10 -0.5 3.1
6 -6 -10 0.7 3.2
6 6 -10 4.3 3.1
-6 -6 -10 -1.9 2.6
6 -6 10 -2.3 4.6
6 6 -10 2.4 2.9
-6 -6 -10 1.9 2.1
6 6 -10 4.3 3.9
-6 7 -10 24.4 6.2
-6 7 -10 25.2 5.5
-6 -7 10 34 8
-6 -7 10 19.1 5.6
6 -7 -10 35.7 7.8
-6 -7 -10 21 5.2
6 7 -10 33.5 7.9
-6 -7 -10 13.6 3.9
6 -7 10 30.4 9.2
6 -8 -10 3.6 4.1
-6 8 -10 8.7 3.6
-6 -8 10 8.7 5.6
6 8 -10 1.7 4.3
6 -8 10 10.4 7.9
-6 -8 -10 8.9 3.3
-6 -8 -10 7.5 2.9
6 -9 -10 77.49 12.1
-6 9 -10 67.89 9.8
-6 -9 10 101.99 13
6 -9 10 74.29 15.6
-6 -9 -10 76.19 8.4
-6 -9 -10 70.39 7.7
6 9 -10 49.2 11.7
7 0 10 1331.57 97.69
7 0 -10 1168.48 94.59
7 0 -10 1210.88 95.79
-7 0 10 1359.36 95.19
-7 0 -10 1252.17 99.19
7 -1 -10 949.6 79.79
-7 -1 10 1062.29 80.19
7 1 10 1164.08 81.29
-7 1 -10 981.9 83.99
7 -1 10 1096.99 83.39
7 1 -10 993.9 80.99
7 1 -10 1053.09 79.59
-7 1 10 1110.09 79.39
7 -2 -10 353.56 32
-7 2 -10 362.66 36.6
-7 -2 10 438.06 33.6
-7 2 10 462.45 31.8
7 2 -10 409.56 32.7
-7 -2 -10 379.76 34.8
7 -2 10 405.56 36.4
7 -3 -10 380.66 31.8
-7 3 -10 403.56 37.5
-7 -3 10 448.96 34.2
7 -3 10 415.76 37.4
7 3 -10 410.56 35.1
-7 -3 -10 373.26 34.1
7 3 -10 425.76 36.8
7 3 -10 394.86 33.1
7 -4 -10 14.9 2.6
-7 -4 10 15.4 5.1
-7 -4 10 11 4.3
-7 4 -10 11.1 5.7
7 4 -10 9.8 3.7
-7 -4 -10 13 4.8
7 -4 10 3.8 5.3
-7 -4 -10 13.2 4.3
7 4 -10 10.4 4.3
7 4 -10 7.2 3.7
-7 5 -10 61.69 12.7
-7 5 -10 80.99 8.9
7 -5 -10 102.09 12.3
-7 -5 10 111.49 11.8
7 -5 10 87.99 14
-7 -5 -10 91.59 11.1
7 5 -10 90.89 14.1
7 5 -10 67.59 10.5
7 5 -10 80.69 11.4
-7 -5 -10 70.29 9.4
7 -6 -10 73.29 10.7
-7 -6 10 92.29 11.7
-7 6 -10 64.89 10.7
-7 -6 10 87.79 11
-7 6 -10 67.29 8.2
7 6 -10 58.49 9.3
7 6 -10 60.69 8.7
7 6 -10 68.19 12.2
-7 -6 -10 57.69 8
7 -6 10 68.49 14.3
-7 7 -10 2.2 4.1
-7 -7 10 2 3.6
7 -7 -10 2.8 3.9
-7 -7 10 -1.6 4.1
-7 7 -10 0.9 2.3
-7 -7 -10 4.3 3.1
-7 -7 -10 -1.9 2.9
7 -7 10 0.4 4.3
7 7 -10 2.5 2.3
7 -8 -10 15.4 6.9
-7 8 -10 19.2 5.4
-7 -8 10 24.2 7.8
-7 -8 -10 26.4 5.7
-7 -8 -10 33.6 6.4
7 -8 10 30 9.9
7 8 -10 27.3 7.5
-7 -9 10 29.1 7.8
-7 9 -10 22.1 5.5
7 9 -10 28.7 7.8
-7 -9 -10 20.1 5.3
-7 -9 -10 21.4 4.6
7 -9 10 43.4 12.3
8 0 10 3.4 2.8
-8 0 10 -1.3 1.1
-8 0 -10 1.7 3.5
8 0 -10 0.4 1.5
8 1 10 63.39 8.5
-8 1 -10 62.39 12.1
8 -1 -10 47.8 6.9
-8 -1 10 62.99 7.5
8 1 -10 57.39 9.1
8 1 -10 53.09 6.8
-8 1 10 50.89 6.5
-8 -1 -10 57.09 10.8
8 -1 10 49.7 10
-8 2 -10 37.6 9.5
-8 -2 10 37.4 6.7
8 -2 -10 29.8 5.6
8 2 10 56.39 6.3
-8 -2 -10 43.8 8.9
8 -2 10 27.6 9.8
-8 2 10 44.7 5.4
8 2 -10 32.8 7.2
8 2 -10 40.7 5.9
8 3 10 60.49 4.7
-8 -3 10 58.29 8.3
8 -3 -10 50.09 6.7
-8 3 -10 61.19 12.8
8 3 -10 64.59 13.4
-8 3 10 76.49 6.5
8 3 -10 55.89 7.5
-8 -3 -10 55.99 8.9
8 -3 10 47.9 10.9
8 3 -10 44.9 9.3
-8 -4 10 557.94 40.4
8 -4 -10 448.16 36.3
-8 -4 10 517.15 40.1
8 -4 -10 484.85 41.6
-8 4 -10 442.46 42.5
8 4 -10 434.66 38.4
-8 -4 -10 464.75 40.2
8 4 -10 519.85 41.7
8 4 -10 489.55 44.7
-8 -4 -10 409.06 39
8 -4 10 495.05 43.9
-8 5 -10 355.76 36.1
8 -5 -10 430.16 36.3
8 -5 10 416.56 38.8
-8 -5 -10 364.76 34.1
8 5 -10 438.26 36.4
-8 -5 -10 363.46 33.2
8 5 -10 401.06 35.2
-8 6 -10 206.88 19.7
-8 -6 10 284.77 23.5
-8 6 -10 244.58 24.3
8 -6 -10 242.58 24
8 6 -10 241.88 24.2
-8 -6 -10 203.68 20.9
8 6 -10 196.58 20.2
-8 -6 -10 235.18 22.2
8 -6 10 272.27 27.9
8 6 -10 222.28 21.6
-8 -7 10 72.79 11.5
-8 7 -10 51.79 10
-8 7 -10 64.09 8.2
-8 -7 10 80.29 10.9
8 -7 -10 62.39 12
-8 -7 -10 48.3 9.6
8 -7 10 70.89 15.3
8 7 -10 60.59 11.9
-8 -7 -10 51.59 9.4
8 -8 -10 59.19 17
-8 -8 10 90.39 11.8
-8 8 -10 53.89 9.4
-8 -8 -10 73.29 9.4
8 -8 10 55.09 14.2
8 8 -10 62.99 13.2
-8 -8 -10 76.39 9.9
-8 9 -10 11.8 4.9
8 -9 -10 20.5 8
-8 -9 10 7.9 5.3
8 -9 10 21.2 10.7
-8 -9 -10 5.8 3.2
8 9 -10 9.9 5.9
9 0 -10 989.2 82.49
9 0 10 1105.69 84.89
-9 0 10 1110.79 81.99
-9 0 -10 1089.89 86.79
9 -1 -10 9.6 3.3
9 1 10 6.3 3.8
-9 1 -10 11.1 6.2
-9 -1 10 5.9 3
9 1 -10 6.3 2.8
-9 -1 -10 4.2 4.2
9 -1 10 4.4 4.4
-9 1 10 7.5 2.9
9 1 -10 5.2 3.9
-9 2 -10 340.27 34.7
-9 -2 10 394.66 31.4
9 2 10 402.06 30.4
9 -2 -10 306.87 29.6
9 2 -10 372.16 34.5
9 2 -10 393.46 30.2
9 2 -10 339.57 32
9 -2 10 345.77 34.1
-9 -2 -10 314.77 32.5
-9 2 10 404.06 29.5
9 -3 -10 324.17 30
-9 -3 10 330.67 27.6
-9 3 -10 277.67 30.4
9 -3 -10 270.87 25.2
9 -3 10 289.47 30.4
9 3 -10 305.77 29.8
9 3 -10 306.47 26.1
-9 3 10 361.26 24.7
-9 -3 -10 279.07 28.1
9 3 -10 310.17 28.6
-9 4 -10 46.6 10.7
9 -4 -10 33.7 8.4
-9 -4 10 39.5 7.9
9 -4 -10 30.2 4.7
-9 -4 -10 35 8.1
9 -4 10 38 10.2
9 4 -10 28.8 6.2
9 4 -10 47 9.7
9 4 -10 27.3 7.9
-9 -4 -10 31.4 7.6
-9 -5 10 388.26 29.6
-9 5 -10 286.57 30.5
9 -5 -10 334.57 30.7
9 -5 10 342.37 33.2
-9 -5 -10 305.87 28.8
9 5 -10 326.47 30.2
-9 -5 -10 308.37 28.4
9 5 -10 245.48 26.2
9 5 -10 322.47 31.9
-9 -6 10 157.28 16.3
-9 6 -10 146.69 13.4
-9 6 -10 125.39 16.8
9 -6 -10 119.49 25.3
9 6 -10 138.69 16.9
-9 -6 -10 125.89 14.7
9 -6 10 133.89 19.1
9 6 -10 127.49 14.6
9 6 -10 116.49 13.4
-9 -6 -10 130.89 15.1
9 -7 -10 51.09 11.2
-9 7 -10 36.6 6.4
-9 7 -10 30.9 8.9
-9 -7 -10 36.1 7.9
9 7 -10 22 7.8
9 -7 10 56.49 14
-9 -7 -10 34.7 8
-9 8 -10 17.1 4.8
9 -8 -10 37.6 9.6
9 8 -10 23.7 8.7
-9 -8 -10 34.2 6.9
9 -8 10 21.3 9.6
-9 -8 -10 14.2 6.8
-9 9 -10 12.3 4.4
9 -9 -10 16.8 7.3
9 -9 10 30.7 9.9
-9 -9 -10 2.3 4.2
9 9 -10 23.1 7.6
-9 -9 -10 13.2 5.8
-10 0 -10 345.47 33.6
10 0 10 347.07 31.9
10 0 -10 311.47 29.7
10 0 -10 354.46 33.6
-10 0 10 368.56 29.4
10 -1 -10 91.49 17.7
10 1 10 82.79 11.3
-10 1 -10 83.99 15.7
10 -1 -10 72.79 9.7
-10 -1 10 84.29 10.1
-10 -1 -10 76.39 12.3
10 1 -10 86.29 9.5
10 -1 10 80.49 12.3
10 1 -10 81.39 11
-10 1 10 105.59 14.3
10 1 -10 88.09 13
-10 -2 10 1105.29 85.19
10 -2 -10 979.6 83.79
-10 2 -10 1032.7 89.39
10 2 10 1226.48 84.69
10 2 -10 1220.48 84.19
-10 -2 -10 964.6 86.99
10 2 -10 1031.5 86.09
10 2 -10 1096.69 88.79
-10 2 10 1228.38 83.49
10 -2 10 1074.89 88.79
10 3 10 113.09 9
10 -3 -10 73.49 9.6
-10 -3 10 102.49 12
-10 3 -10 88.29 14.2
-10 3 10 102.39 9.4
10 3 -10 95.89 10.5
10 -3 10 79.69 15.3
-10 -3 -10 82.09 12
10 3 -10 95.99 12.7
10 3 -10 95.39 13.6
-10 -3 -10 73.89 11.8
-10 -4 10 76.19 10.2
-10 4 -10 63.09 13.2
10 4 -10 48 11.2
10 4 -10 59.09 8.3
-10 4 10 71.59 6.3
-10 -4 -10 47.4 10.2
10 -4 10 66.49 14.1
-10 -4 -10 62.99 9.9
10 4 -10 50.49 10.9
-10 5 -10 33.9 10.2
-10 -5 10 48.7 9.2
10 -5 -10 28.2 8.3
-10 -5 -10 49.99 9.6
10 5 -10 24.6 8.1
10 -5 10 52.89 12.9
10 5 -10 30.7 6.5
-10 -5 -10 44.9 8.9
10 5 -10 40.8 10.2
-10 6 -10 343.37 26.7
10 -6 -10 351.36 32.4
-10 -6 10 390.96 30.9
-10 6 -10 272.57 30.4
-10 -6 -10 308.17 29.1
10 -6 10 357.66 35.1
10 6 -10 292.37 28.2
10 6 -10 341.27 31.7
10 6 -10 253.27 26.3
-10 -6 -10 302.27 29.1
10 -7 -10 89.39 14.7
-10 7 -10 113.19 11.6
-10 7 -10 117.69 20.4
10 7 -10 94.69 16.6
-10 -7 -10 101.79 12.7
-10 -7 -10 111.59 14.1
10 -7 10 107.99 20.2
10 -8 -10 60.49 13.2
-10 8 -10 50.69 8.8
-10 -8 -10 70.49 9.8
10 -8 10 56.99 15.6
-10 -8 -10 68.49 10.6
10 8 -10 49.5 16.8
10 -9 -10 9.9 7.9
-10 9 -10 20.3 5.2
-10 -9 -10 29.2 7.3
-10 -9 -10 11.7 5.2
10 9 -10 6.8 6.2
10 -9 10 12.2 9.7
11 0 -10 1266.57 96.59
-11 0 10 1272.57 91.49
11 0 -10 1085.89 91.69
-11 0 -10 1135.99 95.99
11 0 10 1195.88 94.29
11 -1 -10 13.3 4.4
11 -1 -10 20 7.4
-11 1 -10 19.8 7.7
11 1 10 12.6 5.2
-11 -1 10 10.2 4.4
11 -1 10 18.9 7
11 1 -10 14.3 6.8
-11 -1 -10 19.1 7.4
11 1 -10 9.2 4.6
11 1 -10 17.9 4.5
-11 1 10 11.7 4
11 2 10 1.1 2.6
11 -2 -10 -1.7 3.1
-11 -2 10 -1 2.9
11 -2 -10 -2.1 1.6
-11 2 -10 3.9 4
-11 2 10 -1.1 1.7
11 2 -10 5.3 4.1
11 2 -10 -0.3 2.1
-11 -2 -10 0.7 3.7
11 -2 10 -0.9 3.4
11 2 -10 -0.7 1.8
-11 -3 10 51.19 9.8
11 3 10 63.49 6.7
-11 3 -10 46.7 12.3
11 -3 -10 42.5 10.8
11 -3 -10 53.59 8.4
-11 3 10 55.89 6.7
-11 -3 -10 36.1 9.4
11 3 -10 40.2 10.3
-11 -3 -10 53.69 10.8
11 3 -10 54.39 10.4
11 3 -10 67.69 8.3
11 -3 10 54.69 12.8
11 -4 -10 266.57 28.3
-11 4 -10 276.87 29.3
-11 -4 10 333.77 26.9
-11 -4 -10 234.28 25.9
11 4 -10 248.08 23.6
-11 4 10 312.77 21.9
11 4 -10 266.67 27.6
11 4 -10 265.67 27.1
-11 -4 -10 235.78 26.2
11 -4 10 264.17 29.5
-11 5 -10 9.7 6.3
11 -5 -10 9.5 5.5
-11 -5 10 7.4 3.4
-11 -5 -10 -0.2 3.2
11 5 -10 1 3.9
11 -5 10 2.9 4.5
11 5 -10 10.9 6
-11 -5 -10 9.9 4.5
11 5 -10 2.8 3.1
-11 6 -10 61.59 12.5
11 -6 -10 59.29 12.8
11 6 -10 53.69 11.8
11 6 -10 37.5 7.9
11 -6 10 54.59 14.1
11 6 -10 61.19 9.8
-11 -6 -10 64.99 10.8
-11 -6 -10 55.09 11
11 -7 -10 7.4 6.3
-11 7 -10 12.5 6.8
-11 7 -10 12.4 4.3
-11 -7 -10 17.4 6
11 7 -10 -0.4 4.9
-11 -7 -10 11.7 4.7
11 -7 10 23.9 10.5
-11 8 -10 -2.5 2.7
11 -8 -10 2.2 5.3
11 8 -10 1.6 3.9
-11 -8 -10 3.3 5.5
11 -8 10 -0.7 7.8
12 0 -10 229.98 24.3
-12 0 -10 249.08 28.2
12 0 10 281.67 27.4
12 0 -10 277.47 28.5
-12 0 10 286.87 24.4
-12 1 -10 34.2 10.4
12 -1 -10 35.7 9.8
-12 -1 10 38.2 7.6
-12 -1 -10 40.4 10.7
12 -1 10 29.8 9.1
12 1 -10 41.6 10.5
12 1 -10 35.3 8.1
-12 1 10 43.5 7.4
12 1 -10 39.6 6.4
12 2 10 79.19 10.5
-12 2 -10 90.09 16.7
12 -2 -10 65.19 13.8
12 -2 -10 63.79 9.5
-12 -2 10 84.99 10.8
12 2 -10 80.99 13.1
-12 2 10 72.69 9
12 -2 10 65.19 14
12 2 -10 78.99 9.4
-12 -2 -10 82.29 12.8
12 2 -10 90.99 12.1
-12 -3 10 40.9 8.2
-12 3 -10 31.6 10.6
12 3 10 37.4 5.8
12 -3 -10 40.2 10.4
12 -3 -10 31 6.2
12 3 -10 47.6 7
-12 -3 -10 51.69 9.7
-12 3 10 34.8 6
12 3 -10 25.4 7
12 -3 10 26.2 9.7
-12 -3 -10 39.8 9.7
12 3 -10 38.7 10.6
-12 4 -10 105.39 16.3
12 -4 -10 115.09 16.2
-12 -4 10 107.99 13.6
12 4 -10 104.29 15
12 -4 10 102.99 16.1
-12 -4 -10 82.99 13.7
12 4 -10 103.79 14.4
12 4 -10 96.49 11.5
-12 -4 -10 94.99 15.3
-12 4 10 117.19 10
-12 -5 10 108.69 13.6
-12 5 -10 126.09 16.8
12 -5 -10 121.59 16.2
-12 -5 -10 89.39 13.9
12 5 -10 91.09 16.2
-12 -5 -10 95.59 15.4
12 5 -10 89.19 11.1
12 5 -10 107.79 14.4
12 -5 10 98.89 18.7
12 -6 -10 140.29 18.9
-12 6 -10 125.99 17.9
12 6 -10 120.69 16
12 -6 10 136.79 20.2
12 6 -10 108.89 18.4
-12 -6 -10 121.99 16.3
-12 -6 -10 126.69 22.3
12 -7 -10 -1.7 4.7
-12 7 -10 -2.7 5.6
-12 7 -10 1.9 2.6
12 -7 10 12.4 8.1
12 7 -10 -2.8 3.2
-12 -7 -10 0.4 5.5
-12 -7 -10 22.4 6.1
-12 8 -10 9.8 3.6
12 -8 -10 8 7.8
-12 -8 -10 27.1 7.4
12 8 -10 12.8 6.5
12 -8 10 24.3 10.9
13 0 -10 1366.06 112.79
13 0 10 1522.25 115.99
13 0 -10 1459.15 117.29
-13 0 10 1582.84 112.59
-13 0 -10 1405.96 117.59
-13 -1 10 115.99 14.6
-13 1 -10 152.28 19.5
13 -1 -10 124.99 14.9
13 1 10 160.28 17.3
13 -1 -10 138.99 18.4
13 -1 10 125.19 17.3
-13 -1 -10 136.99 18.4
13 1 -10 135.19 18.4
-13 1 10 150.08 14.6
13 1 -10 132.39 14.1
13 1 -10 115.49 15.2
13 2 10 284.27 26.7
-13 2 -10 291.67 31.6
13 -2 -10 290.27 30.3
-13 -2 10 304.67 27.4
13 -2 -10 273.27 26.1
-13 2 10 333.67 25.8
13 2 -10 275.47 28
13 2 -10 297.77 25.5
-13 -2 -10 262.97 27.8
13 2 -10 265.27 29.6
13 -2 10 306.87 31.1
-13 -2 -10 265.47 29.7
13 -3 -10 21.4 5.7
-13 -3 10 27 7.4
13 -3 -10 34.3 9.6
-13 3 -10 19.8 9.8
13 3 10 30.9 5.8
13 3 -10 26.6 9
13 3 -10 15.3 6
13 -3 10 43 11
-13 -3 -10 34.9 9.7
-13 -3 -10 22.9 7.3
-13 3 10 16.9 6.9
13 3 -10 34.7 6.5
-13 -4 10 238.48 23
-13 4 -10 227.88 26.5
13 -4 -10 208.18 25.1
-13 4 10 240.18 18.7
-13 -4 -10 227.08 24.4
13 -4 10 189.58 25.2
13 4 -10 190.18 23.4
-13 -4 -10 220.38 23.6
13 4 -10 207.58 20
13 4 -10 217.48 24
13 -5 -10 416.46 41.8
-13 5 -10 463.65 42.6
13 5 -10 423.56 39.4
13 5 -10 376.66 35.2
13 -5 10 504.45 45.1
13 5 -10 422.46 40.2
-13 -5 -10 444.56 40.3
13 -6 -10 128.29 18.3
-13 6 -10 127.89 17.8
13 -6 10 144.99 20.4
13 6 -10 91.09 13
-13 -6 -10 124.79 16.2
13 6 -10 123.19 17.4
-13 -6 -10 140.09 16.7
-13 7 -10 7.3 7.8
13 -7 -10 35 11.3
-13 7 -10 24.6 5.1
13 -7 10 16.8 9.8
-13 -7 -10 25.1 7.7
13 7 -10 19.7 2.7
-13 -7 -10 17.3 7.8
13 7 -10 16.2 8
13 -8 -10 65.99 14.3
-13 8 -10 62.59 8.6
-13 8 -10 53.99 9.8
13 8 -10 49.6 12
13 -8 10 73.49 17.5
-13 -8 -10 61.59 13.6
14 0 -10 145.79 19.2
14 0 -10 128.59 16
14 0 10 124.19 17.6
-14 0 -10 148.69 19.7
-14 0 10 148.29 15.6
-14 1 -10 247.18 29.2
14 -1 -10 231.48 24.3
14 1 10 264.77 26.5
14 -1 -10 238.68 28
-14 -1 10 279.07 25.2
14 -1 10 251.57 27.9
14 1 -10 251.07 28.4
-14 -1 -10 255.17 28.8
14 1 -10 254.07 25.6
-14 1 10 298.97 24.4
14 2 10 375.56 32.5
-14 -2 10 317.37 28.9
14 -2 -10 293.97 27.8
14 -2 -10 312.17 32.6
-14 2 -10 322.67 33.8
14 2 -10 303.67 29.9
14 2 -10 303.97 26.9
-14 -2 -10 310.37 30
-14 2 10 313.37 27.1
14 2 -10 272.67 31.2
-14 -2 -10 239.08 30.6
14 -2 10 339.27 33.3
-14 3 -10 198.58 24.9
14 -3 -10 161.28 22.3
14 -3 -10 185.38 18.8
14 3 10 208.38 18.5
14 3 -10 148.49 20.4
14 3 -10 229.48 19
-14 -3 -10 209.78 23.9
14 3 -10 196.38 23.1
-14 3 10 195.18 18
14 -3 10 172.88 23.3
-14 -3 -10 175.08 21.2
14 -4 -10 236.88 28.5
-14 -4 10 276.77 26.3
-14 4 -10 251.17 32.5
-14 4 10 285.67 22
14 4 -10 251.87 27.3
14 4 -10 264.17 23.3
14 4 -10 243.88 26.8
14 -4 10 247.38 29.4
-14 -4 -10 265.97 26.9
-14 -4 -10 214.88 26.4
-14 5 -10 26.2 8.8
14 -5 -10 28.3 10.4
14 5 -10 27.5 9.3
14 5 -10 21.2 5.7
-14 -5 -10 31.1 8.7
14 -5 10 33.4 10.9
-14 5 10 40.6 4.4
-14 -5 -10 39.2 10.1
14 5 -10 22.9 8
-14 6 -10 3.7 7
14 -6 -10 4.7 5.9
-14 -6 -10 9.7 6
14 6 -10 1.7 4.2
14 -6 10 -2.8 5.2
-14 -6 -10 16.4 4.7
14 6 -10 4.9 3.3
14 6 -10 -1.8 3.5
-14 7 -10 176.38 21.3
14 -7 -10 165.58 22.8
-14 7 -10 160.68 15.7
14 7 -10 148.99 13.5
14 -7 10 184.98 29.3
14 7 -10 153.98 20.5
14 -8 -10 5.6 7
-14 8 -10 2.6 2.7
-14 8 -10 -2.3 6.9
14 -8 10 5.8 7.2
14 8 -10 6.5 6.1
-14 -8 -10 -2.7 6.7
15 0 -10 31.4 9.9
-15 0 -10 23.9 9.2
-15 0 10 25 6.5
15 0 -10 30.4 7.7
15 0 10 36.3 10.3
15 -1 -10 240.98 24.3
-15 -1 10 237.48 24.1
15 -1 -10 234.08 28
15 1 10 253.07 26.2
-15 -1 -10 246.48 25.6
15 1 -10 259.77 28.6
15 -1 10 254.67 28.1
-15 -1 -10 218.08 27.8
15 1 -10 256.07 25.5
-15 1 10 278.47 24.1
-15 2 -10 33.4 11.5
-15 -2 10 24.6 8.6
15 2 10 22.3 6.7
15 -2 -10 28.3 7.2
15 -2 -10 30.3 10.6
-15 -2 -10 28.3 9.3
-15 -2 -10 11.3 10
15 2 -10 21.9 8.7
15 -2 10 11 7.1
15 2 -10 23.2 5.9
-15 2 10 31.2 6.4
15 2 -10 22.6 7.2
15 -3 -10 118.99 18.2
15 -3 -10 125.09 14.4
15 3 10 130.89 13.8
-15 3 -10 120.19 19
15 -3 10 107.49 18
-15 -3 -10 128.19 18.2
-15 3 10 118.99 12.9
15 3 -10 106.59 18.3
-15 -3 -10 117.49 15.9
15 3 -10 137.99 13.8
15 3 -10 111.49 17.3
15 4 10 533.25 40.6
-15 4 -10 512.45 51.39
15 -4 -10 566.44 52.09
15 -4 10 551.14 52.69
-15 -4 -10 529.25 48.5
15 4 -10 585.94 44.8
15 4 -10 480.85 48.3
-15 4 10 656.83 48.5
-15 -4 -10 540.55 50.69
15 4 -10 511.75 49.3
15 -5 -10 18.7 9.5
-15 5 -10 29.1 9.3
-15 -5 -10 14.2 6.6
15 5 -10 18.7 7.3
15 5 -10 9.8 6.5
-15 5 10 17 3.4
15 5 -10 8.5 4.3
15 -5 10 25.3 10.1
15 -6 -10 19.7 9.3
15 6 -10 28.6 9.1
15 6 -10 12.1 4.4
15 6 -10 14.1 6
15 -6 10 31.3 11.8
-15 -6 -10 10.9 7.7
-15 7 -10 25.3 10.7
15 -7 -10 26.8 10.1
15 -7 10 24.5 11.2
15 7 -10 42.6 5.7
-15 -7 -10 62.49 11.4
15 7 -10 32.2 9.8
-15 8 -10 7.2 3.2
15 -8 -10 17.5 9.6
15 -8 10 16.4 9.5
15 8 -10 0.4 5.4
16 0 10 89.19 14.1
-16 0 -10 99.19 19.1
16 0 -10 63.69 12.5
16 0 -10 68.69 15.5
-16 0 10 85.39 11.9
16 -1 -10 281.27 28.8
16 1 10 295.37 30.6
16 -1 -10 300.07 33.2
-16 1 10 352.36 28.7
-16 -1 -10 287.57 32.8
16 1 -10 308.97 33.3
16 1 -10 304.37 30.1
16 -1 10 311.67 32.8
16 2 10 16.9 6.6
16 -2 -10 9 4.7
-16 -2 10 22.2 7.1
-16 2 -10 20.3 9.6
16 -2 -10 10.4 7.4
16 -2 10 20.5 8.6
-16 -2 -10 12.7 5.9
-16 -2 -10 12.6 6.9
16 2 -10 14.5 7.4
-16 2 10 17.5 5.3
16 2 -10 22.5 7
16 2 -10 19.5 7
16 -3 -10 300.47 28.2
-16 3 -10 292.37 33.9
16 3 10 354.86 30.6
16 -3 -10 310.87 34
-16 3 10 338.37 27.6
-16 -3 -10 301.87 31.1
16 3 -10 247.38 31.6
16 3 -10 334.77 28.1
-16 -3 -10 281.57 32.5
16 -3 10 302.47 34
16 3 -10 292.87 31
16 -4 -10 36.7 12
16 4 10 43.5 5
-16 4 -10 34.1 11.6
-16 -4 -10 44 9.7
16 4 -10 40 7.6
16 4 -10 20.9 7.8
-16 -4 -10 21.8 8.5
-16 4 10 36.3 6.5
16 -4 10 32.5 11.1
16 4 -10 44.1 11.6
16 -5 -10 -3.9 5.5
-16 5 -10 17 9.1
-16 5 10 -1.1 2
-16 -5 -10 -0.8 5.2
16 5 -10 -5 3.5
16 -5 10 -2.7 5.2
16 5 -10 -3.8 2.8
16 5 -10 -1.6 4.7
-16 6 -10 18.5 9.3
16 -6 -10 15.3 9.2
16 6 -10 25.6 8.7
16 6 -10 8.9 5.6
16 6 -10 11.8 4.9
16 -6 10 21 9.2
-16 -6 -10 9.9 8.7
16 -7 -10 30.6 11.5
-16 7 -10 -4.8 9.2
16 7 -10 28.6 9.9
16 7 -10 16.6 3.6
16 -7 10 18.4 10.3
16 7 -10 21 4.5
17 0 10 0.6 4.9
-17 0 10 2.1 4.2
17 0 -10 1 4.9
17 0 -10 -2.4 2.8
17 -1 -10 26.5 7.6
17 1 10 39 10.5
17 -1 -10 26.3 10.8
-17 -1 10 35.4 7.5
17 1 -10 25.3 8
-17 -1 -10 26.9 10.3
-17 1 10 25.4 7.3
17 1 -10 22.1 9.4
17 -1 10 13.5 7.5
17 2 10 2 4.8
-17 2 -10 9 7.4
17 -2 -10 3.1 4.4
17 -2 -10 3.2 4.7
-17 -2 10 2.1 5.7
-17 -2 -10 12.8 6.6
17 2 -10 12.3 5.4
17 2 -10 13.2 4.6
-17 -2 -10 -2 4.5
-17 2 10 7.6 4.1
17 2 -10 11.2 6.9
17 -2 10 4.7 6.5
17 -3 -10 13 9.1
17 3 10 6.6 4.6
17 3 -10 0.5 3.7
-17 3 10 7.9 4
-17 -3 -10 8.1 7.2
17 3 -10 2.3 4.3
17 3 -10 7.9 6
17 -3 10 4.8 5
17 4 10 74.19 7.7
17 -4 -10 55.89 15
-17 4 10 79.89 9.3
17 4 -10 61.89 13.6
17 4 -10 45.1 11.6
17 -4 10 65.89 17.1
-17 -4 -10 41.2 12.2
17 -5 -10 -3 5.7
17 5 -10 2.8 4.4
17 -5 10 -2.8 5.8
-17 5 10 4.3 4.6
17 5 -10 2.5 5.1
17 5 -10 -4.2 3.2
17 -6 -10 31.4 12.1
-17 6 -10 29.6 11.7
17 6 -10 21.5 9
17 6 -10 25.1 6.4
17 -6 10 44.3 13.6
17 6 -10 20.8 7.5
17 -7 -10 -1.9 6.9
-17 7 -10 -13.2 10.5
17 7 -10 3.7 3.3
17 -7 10 -0.2 6.2
17 7 -10 3.8 2.9
17 7 -10 8.2 7.2
18 0 -10 659.03 60.89
18 0 -10 721.33 66.19
18 0 10 758.82 64.99
-18 0 10 767.22 60.59
18 -1 -10 3.7 4.3
18 1 10 -4.5 4
-18 1 -10 2 5.3
18 -1 -10 -3.1 3.2
-18 -1 10 3.3 4.3
18 -1 10 1.4 4.6
18 1 -10 2.9 5.3
18 1 -10 0.7 3.1
-18 1 10 -4.3 3.4
18 -2 -10 22.4 10.5
18 2 10 26.4 8.7
18 -2 -10 33.4 8
18 2 -10 24.7 8.2
-18 2 10 35.5 7.6
18 2 -10 34 10.8
18 2 -10 25.3 6.7
18 -2 10 26.6 10.2
18 3 10 74.69 11.2
18 -3 -10 59.89 15.5
18 -3 10 72.39 17.8
18 3 -10 74.69 14.6
18 3 -10 92.79 11.2
-18 3 10 79.19 10.7
18 3 -10 63.29 15
18 4 10 6 3.4
18 -4 -10 10.1 7.2
-18 4 10 10.7 4.6
18 -4 10 8 8.1
18 4 -10 11.3 4.8
18 4 -10 10.6 6.4
18 -5 -10 21.4 8.7
18 5 -10 22 6.5
18 -5 10 20.6 10.6
18 5 -10 25.2 9.3
18 5 -10 18.6 8.4
-18 5 10 16.5 4.7
18 -6 -10 66.69 16.8
-18 6 10 95.99 8
18 -6 10 70.99 18.4
18 6 -10 87.59 17.7
18 6 -10 64.09 10.8
18 6 -10 84.69 13.5
18 -7 -10 -2.5 8
-18 7 -10 -17.9 10.8
18 7 -10 0.4 3.6
18 7 -10 0.7 5.6
18 -7 10 7.6 6.5
-19 0 10 1 3.8
19 0 -10 -2.1 6
19 0 -10 6.9 3.7
19 0 10 3.4 5
19 -1 -10 21 7.3
19 1 10 6.2 6.3
19 -1 -10 6.5 7.7
19 1 -10 16.4 8.8
19 -1 10 13.4 8
-19 1 10 11.2 5.2
19 1 -10 15.2 7.6
19 2 10 468.05 42.3
19 -2 -10 462.25 41
19 -2 -10 424.96 46.2
-19 2 10 474.75 39.8
19 2 -10 458.65 45.9
19 -2 10 412.66 45.3
19 2 -10 426.66 42.6
19 3 10 76.69 11.6
19 -3 -10 57.99 15.7
-19 3 10 73.69 11.5
19 -3 10 66.59 17.9
19 3 -10 59.49 14.9
19 3 -10 94.49 17.3
19 3 -10 64.69 12.4
19 -4 -10 96.49 21.9
19 4 10 134.19 13.4
19 4 -10 107.19 20
19 4 -10 128.49 15.2
19 4 -10 98.49 19.6
-19 4 10 156.78 15.2
19 -4 10 148.09 22.8
19 -5 -10 38.8 17.1
19 -5 10 44.8 15
19 5 -10 52.79 9.7
19 5 -10 59.29 14.1
19 5 -10 46.5 12.2
-19 5 10 62.09 8.5
19 -6 -10 43.9 14.6
19 -6 10 23.9 11.3
19 6 -10 17.1 9.3
-19 6 10 22.6 4.1
19 6 -10 32.7 9.4
19 6 -10 33.6 10.6
20 0 10 15 8
20 0 -10 24.9 9.2
20 0 -10 32.6 12.6
20 -1 -10 -3.1 4.9
20 -1 -10 3.1 5.2
20 1 10 -0.8 4.5
20 1 -10 5.6 7.2
20 -1 10 -5.5 4.9
-20 1 10 13.4 6.4
20 1 -10 -0.7 3.9
20 -2 -10 25.9 11.2
20 2 10 45.9 11.9
20 2 -10 40.7 10.8
-20 2 10 38.5 8.7
20 2 -10 36.2 12.7
20 -2 10 37.4 13.2
20 -3 -10 5.5 7.7
20 3 10 3.5 4.4
20 -3 10 -2.3 7.6
20 3 -10 -3.8 3.6
20 3 -10 -2.9 5.5
-20 3 10 2.2 4.3
20 4 -10 1.3 3.6
20 4 -10 -2 5
20 -4 10 3.7 7.6
-20 4 10 0.7 3.3
20 -5 -10 143.19 26.7
20 5 -10 148.69 23.8
20 5 -10 123.59 15.6
20 5 -10 116.79 19.3
-20 5 10 158.88 15.1
20 -5 10 160.18 24.7
20 -6 -10 64.69 18.3
20 6 -10 60.39 14.1
20 -6 10 78.79 18.8
20 6 -10 48.2 11.2
-20 6 10 64.19 7.4
20 6 -10 48.9 9.5
21 0 10 61.69 15.4
21 0 -10 58.99 15.8
21 0 -10 35.4 10.1
21 1 10 14.8 7.7
21 -1 -10 19.5 7.5
21 -1 -10 19.1 10.2
21 -1 10 25.4 11.1
21 1 -10 17.5 10.2
21 1 -10 30.3 8.7
21 2 10 0.5 4.7
-21 2 10 -2.1 4.1
21 2 -10 -1.9 4.9
21 2 -10 -5.6 3
21 -2 10 -4.6 5.8
21 -3 -10 94.49 20.8
21 3 10 84.79 13.7
21 3 -10 75.89 16.6
21 -3 10 109.79 22.5
-21 3 10 92.09 13.7
21 3 -10 75.29 17.8
21 4 10 21.7 6.7
21 -4 -10 5.4 7.1
21 4 -10 9.8 6.8
21 -4 10 27.8 12
-21 4 10 18.9 6
21 4 -10 17.3 9.1
21 -5 -10 3.3 7.5
21 5 -10 -2.1 5.3
-21 5 10 7.8 4.6
21 5 -10 -7.4 5.3
21 -5 10 11.7 9.5
21 -6 -10 14.1 10.9
21 6 -10 -0.9 6.6
21 6 -10 9.9 7.2
21 -6 10 32.1 12.8
21 6 -10 9.2 6.3
22 0 -10 72.59 14.9
22 0 10 94.79 18.5
22 0 -10 50.19 16
22 -1 -10 80.19 19.2
22 1 10 73.69 15.5
22 -1 -10 68.09 14
22 1 -10 49.99 14.6
22 1 -10 58.39 13.3
22 -1 10 64.99 20
22 -2 -10 75.19 19.1
22 2 10 81.39 15.7
22 -2 10 87.69 19.3
22 2 -10 61.99 20.2
22 2 -10 80.19 16.3
22 -3 -10 9.1 8.4
22 3 10 1.4 4.7
22 -3 10 4.8 6.7
-22 3 10 2 5.2
22 3 -10 -2.2 5.1
22 4 10 78.39 11.5
22 -4 -10 77.19 19.9
-22 4 10 101.89 13.1
22 -4 10 106.89 22.6
22 4 -10 81.19 17.1
22 4 -10 90.09 18.5
22 -5 -10 70.59 18.8
22 5 -10 115.59 20.4
22 5 -10 73.09 15.9
22 -5 10 120.29 24.7
23 0 10 55.19 14.3
23 0 -10 47.9 12
23 0 -10 36.9 12.6
23 -1 -10 72.39 19.2
23 1 10 67.89 15.7
23 1 -10 51.39 16.3
23 -1 10 66.09 16.8
23 1 -10 53.69 12.8
23 2 10 10.5 8
23 -2 -10 7.5 8.9
23 2 -10 7.7 7.7
23 -2 10 5.5 7.7
23 2 -10 19.5 8.4
23 3 10 11.4 6.7
23 -3 -10 21 10.7
23 3 -10 6.8 8.9
23 -3 10 2.4 7.7
23 3 -10 8.5 6.8
23 4 10 7.2 5.1
23 -4 -10 13.3 9.9
23 4 -10 -3.1 8
-23 4 10 22.9 6.6
23 -4 10 6.9 8.2
23 4 -10 2.1 5.8
23 -5 -10 5.3 7.4
23 -5 10 25.5 11.7
23 5 -10 11.5 7.9
23 5 -10 8.4 7.6
24 0 -10 -4.1 5.9
24 0 10 12.1 8.7
24 -1 -10 35.3 13.3
24 1 10 42.2 12.9
24 1 -10 61.39 12.9
24 -1 10 33.4 14
24 1 -10 40.7 14.3
24 -2 -10 18 11.1
24 2 10 11.8 8.6
24 -2 10 6.5 9.7
24 2 -10 22.6 9.3
24 2 -10 0 5.3
24 -3 -10 -1 5.5
24 3 10 11 6.9
24 3 -10 1.9 6.6
24 -3 10 -3.5 7.9
24 3 -10 2.9 7.7
24 4 10 11.2 6.1
24 -4 -10 3.1 6.7
24 4 -10 5.7 6.7
24 4 -10 12 9.7
24 -4 10 12.6 10.1
25 0 10 110.29 22.5
25 0 -10 126.99 25.2
25 1 10 4 7
25 -1 -10 3.5 8.5
25 1 -10 0.4 6.7
25 -1 10 -0.1 6.4
25 1 -10 -9.4 5.1
25 -2 -10 226.68 32.3
25 2 -10 212.78 30.1
25 -2 10 211.78 30.1
25 2 -10 212.58 27.8
25 -3 -10 16.7 11.7
25 3 10 18.8 8.4
25 3 -10 20.3 11.5
25 -3 10 31.7 13.8
25 3 -10 26 9.5
26 0 -10 -3 7
26 0 10 8.4 8.1
26 1 10 76.69 17.6
26 -1 -10 58.09 18.1
26 -1 10 74.29 19.1
26 1 -10 119.09 23.9
26 -2 -10 176.98 29.1
26 2 10 173.88 24.5
26 -2 10 199.08 29.7
26 2 -10 172.28 24.3
26 2 -10 182.68 27.8
0 0 11 2.6 2.3
0 0 -11 1.8 2
0 -1 -11 0.3 1.4
0 1 -11 -0.8 1
0 1 11 -0.4 1.2
0 1 -11 3.4 2.5
0 -1 11 1.6 2.4
0 2 -11 606.44 53.89
0 2 -11 638.84 49.7
0 -2 -11 674.73 48.9
0 3 -11 -0.5 1.9
0 -3 11 -1.9 2.5
0 3 -11 0.2 1.6
0 -3 -11 0 0.8
0 4 -11 486.15 41.9
0 -4 -11 462.35 36.8
0 4 -11 531.75 39.7
0 -5 -11 -0.6 1.2
0 5 -11 -2 1.6
0 -5 11 -2.4 3.8
0 -6 -11 150.88 12.3
0 6 -11 145.79 15.7
0 -6 -11 165.48 11.9
0 6 -11 137.59 16.1
0 7 -11 1 2
0 -7 11 0.1 3.8
0 7 -11 1 2.1
0 7 -11 -2.7 2.4
0 8 -11 104.19 13.4
0 9 -11 -4.3 3.1
0 -9 11 0.1 4.4
1 0 -11 0 1.2
1 0 -11 1.1 1.6
-1 0 11 1.2 1.9
1 0 11 1.7 2.2
1 -1 -11 1883.61 137.49
-1 1 -11 1721.23 140.19
1 -1 -11 1987.9 137.99
-1 -1 -11 1912.21 138.49
1 1 -11 1833.62 139.39
1 1 -11 1843.02 138.19
-1 2 -11 1.4 2.5
1 -2 -11 2.7 1.5
-1 2 -11 0.6 1.2
-1 -2 11 5.9 3.9
-1 -2 -11 2.4 1.5
1 2 -11 1.3 2.6
1 2 -11 0.2 1.1
1 -2 11 2.7 3
-1 3 -11 45.6 5.8
1 -3 -11 38.1 4.5
-1 3 -11 37.7 8.5
1 3 -11 44.1 6.3
1 3 -11 46 7.5
-1 -3 -11 45.5 4.8
1 -3 11 61.29 9.1
-1 4 -11 43.2 6
-1 4 -11 47.2 9.4
1 -4 11 63.79 12.7
1 4 -11 39.6 7
1 4 -11 46.9 9.1
-1 -4 -11 35.6 4.1
-1 5 -11 44.9 10.2
1 -5 -11 54.29 5.6
-1 5 -11 55.89 7.6
1 -5 -11 61.39 5.1
1 5 -11 64.69 8.6
1 -5 11 59.49 11.2
-1 -5 -11 47.7 4.9
-1 -5 -11 47.5 6.2
-1 6 -11 169.48 18.5
-1 6 -11 189.38 17.9
1 6 -11 182.68 18.4
1 6 -11 175.28 18.3
-1 -6 -11 192.88 15.4
-1 7 -11 185.88 16.4
-1 7 -11 174.18 16.5
-1 7 -11 173.18 18.2
1 7 -11 170.98 15.7
1 7 -11 163.98 18.4
1 -7 11 241.48 22.3
1 7 -11 188.48 15.9
-1 8 -11 32.1 7.5
-1 -8 11 49.7 10.7
1 -8 11 71.99 12.8
1 8 -11 30.6 7.7
-1 9 -11 6.4 4
1 -9 -11 15.6 4.1
-1 -9 11 14.8 7
1 -9 11 20.6 7.4
1 9 -11 22 7.2
2 0 -11 0.5 1.3
2 0 -11 -0.4 1.2
-2 0 -11 2.5 2.5
2 0 11 2.1 2.2
-2 0 11 -1.3 1.6
2 -1 -11 534.05 39.5
-2 1 -11 476.45 42.6
2 -1 -11 508.75 39.4
2 1 -11 514.15 41
2 1 -11 549.45 40.4
-2 -1 -11 482.05 40.4
2 -2 -11 1320.47 92.59
2 -2 -11 1141.59 92.39
-2 2 -11 1177.28 96.79
2 2 -11 1234.78 95.29
-2 -2 -11 1306.87 93.29
2 2 -11 1295.77 94.29
2 -3 -11 59.59 5.8
-2 3 -11 53.79 6.6
-2 3 -11 63.49 9.8
2 3 -11 48.2 7.9
-2 -3 -11 57.59 6
2 -3 11 72.69 10.4
-2 -4 11 87.19 12.9
-2 4 -11 44.2 6.5
2 -4 -11 61.69 5.7
-2 4 -11 44.9 10.2
2 -4 11 69.39 10.6
-2 -4 -11 61.29 5.8
2 4 -11 61.69 8.3
2 4 -11 57.49 8.8
-2 5 -11 102.79 10.9
2 -5 -11 95.79 8.2
-2 5 -11 75.49 12
2 -5 -11 105.19 8
-2 -5 -11 106.99 8.5
-2 -5 -11 91.19 10.1
2 5 -11 91.39 11.5
2 -5 11 112.89 14.3
2 5 -11 84.69 18.6
-2 6 -11 129.79 15.4
-2 6 -11 136.89 14.2
2 6 -11 149.88 15.1
-2 -6 -11 122.29 12.2
2 6 -11 118.69 14.3
2 -6 11 190.38 19.1
-2 -6 -11 137.69 10.9
2 6 -11 129.59 15.1
-2 7 -11 108.99 13.1
-2 7 -11 120.39 12.7
2 -7 11 171.28 18.2
-2 -7 -11 127.19 9.8
2 7 -11 120.09 11.2
-2 -7 -11 117.19 10.5
2 7 -11 117.69 11.2
2 7 -11 129.49 14.7
2 -8 -11 70.39 8.7
-2 -8 11 92.79 12.9
-2 8 -11 54.69 10.2
2 8 -11 55.29 10.1
-2 -8 -11 62.09 5.5
2 -8 11 82.19 14.7
-2 -9 11 -7.5 4.1
2 -9 -11 -2.3 2.8
-2 9 -11 1.5 3.3
2 9 -11 -3.9 3.7
2 -9 11 3 5.2
3 0 -11 1.3 1.6
3 0 -11 1.1 1.6
-3 0 -11 0 1.9
3 0 11 2.8 2.7
3 -1 -11 2188.88 162.08
3 -1 -11 2379.76 162.48
3 1 -11 2194.08 163.18
-3 -1 -11 2032.7 163.68
3 -2 -11 25 3.9
-3 -2 11 41.3 7.3
-3 -2 11 46.6 6
-3 2 -11 34 8.3
3 -2 -11 29 4.1
-3 -2 -11 25.4 5.1
3 2 -11 30.2 6.1
3 2 -11 23.6 5.2
3 -2 11 39.5 8.4
3 -3 -11 901.11 63.09
-3 3 -11 837.62 68.49
-3 3 -11 817.12 63.79
-3 -3 -11 877.21 63.79
3 3 -11 856.21 65.69
3 3 -11 750.92 65.69
3 -4 -11 584.54 41.1
-3 4 -11 480.15 42.4
-3 4 -11 517.05 46.6
-3 -4 -11 567.84 41.6
3 4 -11 457.65 44.3
3 -4 11 649.83 48.2
3 4 -11 566.24 44.8
-3 5 -11 32.7 6.4
-3 5 -11 42.8 9.5
-3 -5 11 59.79 10.7
3 -5 11 52.09 11.5
-3 -5 -11 40.8 6.8
-3 -5 -11 42.9 4.8
3 5 -11 44.1 8.5
-3 6 -11 346.27 32.9
-3 6 -11 350.16 30.9
3 6 -11 381.56 32.2
3 -6 11 452.75 36.8
-3 -6 -11 344.77 29.9
3 6 -11 346.57 31.6
-3 -6 -11 396.26 28.3
3 6 -11 342.97 32.5
-3 7 -11 3.5 3.2
-3 -7 11 5.6 4.8
-3 7 -11 1.2 3
-3 -7 -11 2.7 1.6
3 -7 11 1.9 4.9
3 7 -11 -0.9 2.9
-3 -7 -11 -0.6 1.3
3 7 -11 1.8 2.1
-3 -8 11 4.6 5.1
3 -8 -11 7.4 3.6
-3 8 -11 1.6 3.1
3 -8 11 -1.6 5.4
3 8 -11 -3.6 3
-3 -8 -11 4.6 1.4
-3 -8 -11 5.3 1.6
3 -9 -11 14 5.1
-3 -9 11 19.4 7.4
-3 9 -11 17 5.5
3 -9 11 11.6 8.1
3 9 -11 6.1 4.5
-4 0 -11 -1.6 2.1
4 0 -11 0.7 1.2
-4 0 11 0.3 1.4
4 0 -11 -0.5 1.1
4 0 11 -1.9 2
4 -1 -11 95.69 10
-4 -1 11 137.19 11.4
-4 1 -11 103.49 13
4 -1 -11 87.19 9.6
-4 -1 11 112.39 11.3
4 1 -11 106.49 10.5
4 -1 11 120.29 13.1
-4 -1 -11 88.79 11.4
4 1 -11 98.39 11
4 -2 -11 6.8 2.2
-4 -2 11 10 3.9
-4 -2 11 9.6 3.1
-4 2 -11 1.4 3
4 2 11 6.1 1.9
-4 -2 -11 5.5 2.8
4 -2 11 6.7 4
4 2 -11 7.8 3.1
4 2 -11 7.9 3.2
-4 -3 11 20.5 5.8
-4 3 -11 14.1 5.9
4 -3 -11 8.1 2.2
-4 -3 11 10.4 3.6
4 3 -11 4.7 3.1
-4 -3 -11 8.9 2.8
4 3 -11 6.9 3.3
4 -3 11 13.3 6.8
4 -4 -11 118.59 9.8
-4 4 -11 112.89 11.1
-4 4 -11 105.99 14.5
4 -4 11 154.18 16.4
-4 -4 -11 108.79 10.8
4 4 -11 95.19 12.5
4 4 -11 121.09 13.3
-4 5 -11 50.99 10.3
-4 -5 11 59.19 8.8
-4 5 -11 43 6.1
4 -5 11 44.3 10.6
-4 -5 -11 42 5.3
-4 -5 -11 37.9 7
4 5 -11 40.3 8.4
-4 6 -11 35.4 6.3
-4 -6 -11 34.9 6.3
4 6 -11 37.3 8.7
4 6 -11 35.2 7.1
4 6 -11 39.7 7.7
4 -6 11 45.9 11.4
-4 -6 -11 29.8 4.5
-4 -7 11 50.99 10
4 -7 -11 33.2 6.5
-4 7 -11 30.1 6.6
-4 7 -11 21.3 5.9
4 7 -11 26.1 7.3
-4 -7 -11 34.3 5.6
-4 -7 -11 22.7 3.8
4 7 -11 27 3.9
4 -7 11 35.8 10.1
-4 8 -11 16.8 5.1
-4 -8 11 23.4 7.4
4 -8 -11 14 5
4 -8 11 31.1 9.8
-4 -8 -11 14.6 2.9
-4 -8 -11 12.3 2.5
4 8 -11 8.7 4.8
-4 9 -11 11.4 4.7
-4 -9 11 1.6 5.6
4 -9 -11 7.9 4.2
4 9 -11 4.2 4.6
4 -9 11 5.2 5.5
-5 0 11 -1.5 1.2
5 0 11 -2.9 2.5
5 0 -11 -0.7 1.2
5 0 -11 1.1 2.1
-5 0 -11 1.3 3.4
5 -1 -11 521.65 45.2
5 1 11 681.73 46.5
-5 -1 11 653.73 47.9
-5 1 -11 499.45 48.6
5 -1 11 601.14 48.4
-5 1 11 664.03 45.3
5 1 -11 572.44 45.4
5 1 -11 527.25 46.2
-5 -1 -11 516.65 47.4
-5 -2 11 467.25 35.6
5 2 11 484.15 32.7
-5 2 -11 368.56 37.3
-5 -2 11 462.15 34.7
5 -2 -11 380.56 33.1
5 -2 11 466.65 37.8
5 2 -11 414.46 34.2
5 2 -11 390.66 35.3
-5 -2 -11 346.27 34.5
-5 3 -11 -2.9 2.5
5 -3 -11 -0.2 1.3
-5 -3 11 0.7 2.1
5 3 -11 2.4 2.3
5 3 -11 2.2 2.5
-5 -3 -11 -0.8 1.6
5 -3 11 -1.8 2.8
-5 4 -11 236.98 24.5
-5 -4 11 292.57 22.2
5 -4 -11 225.68 18.4
5 -4 11 238.18 24.6
-5 -4 -11 212.68 20
5 4 -11 199.08 21.2
5 4 -11 258.77 22.9
-5 5 -11 10.8 3.3
-5 5 -11 14.3 5.8
-5 -5 11 20.3 5.4
-5 -5 11 37.5 8
-5 -5 -11 11.2 4.3
5 -5 11 9.9 6.2
5 5 -11 14.9 6
-5 -5 -11 13.5 3.6
5 5 -11 6.6 4
5 5 -11 11.2 5
-5 -6 11 76.39 9.8
-5 6 -11 52.39 10.4
-5 6 -11 62.39 7.6
-5 -6 -11 59.69 8
5 -6 11 71.89 13.7
5 6 -11 53.39 8.4
5 6 -11 45.2 9.4
-5 -6 -11 36.3 6
5 6 -11 53.39 8.4
-5 7 -11 -1.5 2.3
-5 -7 11 2.1 4.6
-5 7 -11 2.9 4
5 7 -11 0.2 1.6
5 7 -11 -0.4 3.4
5 -7 11 -1.6 4.3
-5 -7 -11 1.2 2.3
-5 -7 -11 1.2 1.8
5 -8 -11 99.99 12.3
-5 8 -11 80.99 10.7
5 8 -11 61.99 12.5
-5 -8 -11 78.09 8.7
-5 -8 -11 87.79 9
5 -8 11 101.99 15.3
5 -9 -11 12.8 5.7
-5 9 -11 14 4.5
-5 -9 11 6.6 6.4
5 9 -11 12.6 6.6
5 -9 11 13.4 7.3
-5 -9 -11 9.9 2.2
-5 -9 -11 7.8 2.8
6 0 11 0.4 2.6
6 0 -11 -1 1.1
6 0 -11 0.8 2.2
-6 0 -11 -0.5 2.9
-6 0 11 -2.1 1.1
-6 -1 11 16.1 4.1
6 1 11 19.5 4.6
6 -1 -11 17.7 4.3
-6 1 -11 14.1 5.4
6 -1 11 20.8 6.1
6 1 -11 13.2 4.2
-6 1 11 23 4.3
6 1 -11 14.5 3.8
-6 -2 11 196.28 17
-6 -2 11 209.38 16.7
-6 2 -11 154.08 19
6 -2 -11 149.29 14.7
6 2 -11 159.08 15.4
-6 -2 -11 154.48 17
6 -2 11 152.18 18.1
-6 -3 11 225.78 18
-6 3 -11 177.78 20.4
6 -3 -11 162.28 15.2
6 3 -11 182.88 17.1
-6 -3 -11 162.18 17.2
6 3 -11 173.48 18.2
6 -3 11 189.68 20.4
-6 -4 11 -3 2.6
-6 4 -11 2.5 4.6
-6 -4 11 0.6 2.5
6 -4 -11 0.1 1
6 -4 11 -4.4 2.9
-6 -4 -11 2.7 2
6 4 -11 5.4 3.3
6 4 -11 1.7 2.5
-6 -4 -11 -2.5 1.6
-6 5 -11 24.8 5.1
-6 5 -11 23.6 7.9
-6 -5 11 40.1 8.5
-6 -5 11 45.9 8.1
6 5 -11 22.4 6.6
6 5 -11 26.6 7.3
-6 -5 -11 24.1 6
6 -5 11 35.1 9.7
-6 -5 -11 33.7 6.1
6 5 -11 22.4 6
-6 6 -11 71.39 8.6
6 -6 -11 84.69 11
-6 -6 11 104.09 12.6
-6 6 -11 70.09 11.4
-6 -6 11 89.19 14.1
6 6 -11 76.79 10.3
6 6 -11 62.29 9.3
6 -6 11 82.39 15.2
-6 -6 -11 57.99 8
6 6 -11 51.09 10.8
-6 -6 -11 68.79 9.4
-6 -7 11 97.39 12.3
6 -7 -11 72.79 10.8
-6 7 -11 62.09 8.8
-6 7 -11 72.09 10.9
-6 -7 -11 59.29 9.4
-6 -7 -11 62.29 7.9
6 7 -11 54.69 11.3
6 7 -11 79.09 7.1
6 -7 11 102.59 15.8
-6 8 -11 24.3 5.9
6 -8 -11 23.8 7.7
-6 -8 11 34.5 9
6 8 -11 24.5 6.9
6 -8 11 33.5 10.7
-6 -8 -11 30.6 5.4
-6 -8 -11 29 5.4
6 -9 -11 5.7 4.1
-6 9 -11 2.8 3.7
-6 -9 11 -3.1 4.2
6 -9 11 -5.9 5.2
-6 -9 -11 0.4 2.8
-6 -9 -11 1.9 2.1
6 9 -11 -1.6 3.9
-7 0 11 -2.5 1.1
7 0 -11 -1.4 1.3
-7 0 -11 -2.4 2.4
7 0 -11 1.3 1.8
7 -1 -11 1389.96 115.39
-7 1 -11 1384.46 119.69
7 1 11 1772.72 117.09
-7 -1 11 1646.74 116.09
7 -1 11 1535.05 118.79
7 1 -11 1541.85 115.29
7 1 -11 1385.56 116.39
-7 -1 -11 1444.06 118.69
-7 1 11 1736.93 115.19
-7 -2 11 110.19 11.6
7 -2 -11 97.69 10.6
-7 2 -11 74.69 13
7 2 11 132.99 10.9
-7 2 11 120.09 10.3
7 2 -11 85.19 11.7
7 2 -11 105.99 11.1
7 -2 11 107.99 14.5
-7 3 -11 1.9 4.3
-7 -3 11 7.2 3.5
7 -3 -11 7.8 2.4
-7 -3 11 6.1 3.4
7 3 -11 3.2 2.4
7 -3 11 7.2 4.8
7 3 -11 5.8 3.9
-7 -3 -11 3.2 2.8
-7 -4 11 251.07 21.7
7 -4 -11 213.98 18.2
-7 -4 11 273.07 22.8
-7 4 -11 201.58 23.6
-7 -4 -11 201.48 21.2
7 4 -11 222.98 22.6
7 -4 11 253.37 25.5
7 4 -11 235.38 23.9
-7 -4 -11 197.88 20.7
-7 5 -11 148.29 13.5
-7 5 -11 144.29 17.7
7 5 -11 130.29 14.7
-7 -5 -11 141.79 15.3
-7 -5 -11 124.69 14
7 5 -11 141.79 16.4
7 -5 11 164.38 19.8
-7 6 -11 515.85 46.8
-7 6 -11 558.84 43.1
7 -6 -11 645.94 47.7
7 -6 11 631.54 51.19
7 6 -11 547.75 45.1
-7 -6 -11 543.35 44.7
7 6 -11 540.85 46.9
7 6 -11 457.55 43.4
-7 -6 -11 487.25 43.1
7 -7 -11 382.76 32
-7 7 -11 337.67 30
-7 7 -11 315.07 27.7
7 7 -11 306.47 25.4
-7 -7 -11 296.37 28.1
7 -7 11 424.66 37
-7 -7 -11 292.07 27.3
7 7 -11 320.97 31.4
7 -8 -11 201.78 22.8
-7 -8 11 274.77 24.3
-7 8 -11 206.48 20.2
7 -8 11 271.07 28.3
-7 -8 -11 208.48 19.4
7 8 -11 202.78 23.1
-7 -8 -11 188.38 19.6
-7 9 -11 7.6 3.5
-7 -9 11 5.2 4.7
-7 -9 -11 2.4 2.9
-7 -9 -11 -3.5 2.9
7 9 -11 -1.9 4.1
8 0 -11 2.2 2.1
-8 0 11 1.2 2.1
8 0 11 -0.1 2.7
8 0 -11 1.1 2.3
-8 0 -11 -3.1 1.9
8 -1 -11 -0.1 1.6
-8 1 -11 0.8 2.8
-8 -1 11 -0.3 1.8
8 1 11 -1.8 2.2
-8 1 11 1.8 2.1
8 1 -11 0.5 2.8
8 -1 11 -0.6 3.1
8 1 -11 0.3 1.7
-8 -1 -11 2.1 3.3
8 -2 -11 1242.98 106.09
-8 -2 11 1561.44 107.99
-8 2 -11 1292.57 111.69
8 2 -11 1391.16 108.79
-8 2 11 1572.24 105.79
8 -2 11 1399.86 111.09
-8 -2 -11 1329.27 109.49
8 2 -11 1517.45 106.89
8 -3 -11 180.88 17
8 3 11 191.88 14.8
-8 -3 11 219.08 19.3
-8 3 -11 192.88 22.5
8 3 -11 201.88 18.2
8 3 -11 204.18 20.3
8 -3 11 193.08 22
8 3 -11 212.88 21.9
-8 -3 -11 173.68 19.3
8 -4 -11 14.3 3
-8 -4 11 7.4 4.2
-8 -4 11 5.9 3.9
-8 4 -11 12.6 5.5
8 4 -11 3.6 4.4
8 -4 11 10.7 6.2
-8 -4 -11 7.8 3.8
8 4 -11 6.7 3.6
8 4 -11 11 5.6
8 -5 -11 114.19 14.2
-8 5 -11 110.49 15.7
-8 -5 11 111.49 12.9
-8 -5 11 133.69 14.1
8 5 -11 114.89 14.2
8 5 -11 82.79 11.5
8 5 -11 89.29 14.1
-8 -5 -11 92.09 12.1
8 -5 11 120.39 16.5
-8 -5 -11 81.79 12.6
-8 6 -11 2.9 2.6
8 -6 -11 10.3 5.2
-8 6 -11 6.3 5.3
-8 -6 11 1 4.1
-8 -6 11 4.8 5
8 6 -11 7.7 3.4
8 6 -11 10.1 5
8 -6 11 4.8 5.2
-8 -6 -11 0 3.4
-8 -6 -11 4.7 4
8 6 -11 1.3 3
-8 -7 11 42.7 9.2
-8 7 -11 35.3 6.4
8 -7 -11 35.1 8.8
8 7 -11 28.5 8.4
8 -7 11 38.7 11.7
-8 -7 -11 24.4 6.3
8 7 -11 23.3 4.3
-8 8 -11 188.38 19.9
8 -8 -11 254.67 24.8
-8 -8 11 255.17 23.6
-8 -8 -11 184.58 19.7
8 -8 11 255.77 28.3
8 8 -11 185.58 23.2
-8 9 -11 27.8 6.5
8 -9 -11 35 8.3
-8 -9 11 41.2 9.5
8 9 -11 31 9
-8 -9 -11 30.3 6
8 -9 11 53.79 13.7
9 0 -11 -1.4 1.8
9 0 -11 -1 1.8
-9 0 11 -2.3 1.1
9 0 11 -1.6 2.6
9 -1 -11 20 5.1
-9 -1 11 17.6 4.5
9 1 11 30.8 6.9
-9 1 -11 12.4 5.7
-9 1 11 21.3 5.6
9 1 -11 19.2 5.6
9 1 -11 30.3 5.6
9 -1 11 18.5 6.7
-9 -1 -11 19.7 6.7
-9 2 -11 54.49 12.2
-9 -2 11 54.29 8.8
9 -2 -11 51.29 7.2
9 2 11 65.99 7.9
9 2 -11 59.79 7.6
-9 -2 -11 58.19 11.6
-9 2 11 56.39 6.8
9 2 -11 62.09 12.5
9 2 -11 43.6 9.3
9 -2 11 51.99 11.2
-9 -3 11 1690.23 120.59
-9 3 -11 1503.15 124.69
9 -3 -11 1442.86 117.99
9 -3 11 1580.94 124.49
9 3 -11 1571.94 118.99
9 3 -11 1546.85 123.49
-9 -3 -11 1466.55 121.39
-9 3 11 1879.41 117.49
9 3 -11 1511.55 121.59
-9 -4 11 -3.2 2.6
9 -4 -11 -1.3 1.9
-9 4 -11 -2.6 4.1
9 -4 -11 1 1.5
9 4 -11 -0.4 3.2
9 4 -11 -5 2.4
-9 -4 -11 -0.5 2.9
9 4 -11 -4 2.3
-9 -4 -11 0.1 2.5
-9 -5 11 236.48 23.5
9 -5 -11 220.88 24.6
-9 5 -11 183.78 22.5
9 -5 11 230.98 25
9 5 -11 204.68 21.9
9 5 -11 213.08 21.6
-9 -5 -11 179.08 19.6
-9 -5 -11 197.28 20.5
9 5 -11 152.38 18
9 -6 -11 31.4 10.1
-9 -6 11 35.3 8.6
-9 6 -11 33.3 6.2
-9 6 -11 46.6 10.4
9 6 -11 26.9 6.8
-9 -6 -11 27.8 7.1
9 6 -11 28.1 8
9 6 -11 25.3 8.4
9 -6 11 31.4 10.7
-9 -6 -11 36.3 7.4
9 -7 -11 33.7 9.2
-9 7 -11 24.8 5.7
-9 7 -11 31.9 8
9 7 -11 22.6 4.1
9 7 -11 44.1 10
-9 -7 -11 34.8 7.4
9 7 -11 24.6 4.6
-9 -7 -11 30.6 7.4
9 -7 11 20.3 8.6
9 -8 -11 6.1 5.1
-9 8 -11 9.8 5.6
-9 8 -11 2.1 3.4
-9 -8 -11 11 5.2
9 8 -11 3.2 5.1
9 -8 11 0.8 7.1
-9 -8 -11 15.1 4.3
9 -9 -11 16.7 7.8
-9 9 -11 9 4.1
9 9 -11 9.3 6.6
-9 -9 -11 7.3 4.3
9 -9 11 3.8 8.1
-9 -9 -11 10.2 4.8
-10 0 -11 -1.1 3.5
-10 0 11 -4.2 1.7
10 0 -11 1 2.6
10 0 -11 2 3.3
10 -1 -11 5.4 3
-10 1 -11 6.7 5.3
10 1 11 2.9 3.7
10 -1 -11 14.1 6
-10 -1 11 4.6 3.1
10 1 -11 9 3.5
-10 1 11 8.6 3.5
10 -1 11 13.2 6.1
-10 -1 -11 9.4 5
10 1 -11 11.9 4.9
10 1 -11 8.1 4.5
10 -2 -11 190.58 21.3
10 2 11 200.08 17.5
-10 -2 11 188.28 18.1
-10 2 -11 163.38 21.5
10 -2 -11 166.58 17
-10 -2 -11 152.38 19.6
-10 2 11 201.98 16.5
10 2 -11 149.29 18.5
10 -2 11 180.48 21.1
10 2 -11 187.58 17
10 2 -11 183.98 21.1
10 -3 -11 20.3 7.4
10 -3 -11 21.3 4.9
10 3 11 38 4.4
-10 -3 11 27.1 6.7
-10 3 -11 27.6 9.5
10 -3 11 21.2 8
10 3 -11 24.8 8.2
10 3 -11 28.8 6.1
-10 3 11 32.7 5
-10 -3 -11 20.9 6.9
10 3 -11 28.1 7.5
-10 -4 11 95.19 11.6
10 -4 -11 70.69 8.2
-10 4 -11 96.39 17.2
10 -4 -11 86.69 13.1
10 4 -11 82.99 13.9
10 -4 11 84.59 16.5
-10 -4 -11 67.79 11.2
10 4 -11 71.49 9.4
10 4 -11 79.39 12.5
-10 -4 -11 90.49 12
10 -5 -11 20.9 7.1
-10 -5 11 31.2 7.1
-10 5 -11 17.8 7.6
-10 -5 -11 29.7 7.3
10 5 -11 29.4 8.1
10 -5 11 26.5 10.1
10 5 -11 15.7 5
10 5 -11 23.2 7.6
-10 -5 -11 19.5 6.3
-10 6 -11 98.49 14.3
-10 -6 11 87.79 15.3
10 -6 -11 73.59 14.2
-10 6 -11 67.09 8.7
-10 -6 -11 67.39 12.2
10 -6 11 84.59 17.2
-10 -6 -11 74.69 11.2
10 6 -11 61.09 12.9
-10 7 -11 70.39 12.3
-10 7 -11 59.89 8.1
10 -7 -11 52.79 12.2
-10 -7 -11 53.19 10.2
10 7 -11 48.8 11.4
10 -7 11 65.39 15.3
10 7 -11 58.29 6.8
-10 -7 -11 65.69 11.5
10 7 -11 54.89 7.1
-10 8 -11 81.09 11
10 -8 -11 100.39 15.7
-10 8 -11 93.59 11.4
-10 -8 -11 127.89 14.5
10 -8 11 104.09 20.2
10 8 -11 83.09 15.6
-10 -8 -11 127.09 13.6
10 -9 -11 8.5 6.5
-10 9 -11 2.7 3
10 9 -11 -2.3 5.1
-10 -9 -11 12.8 5.5
10 -9 11 0.2 7.3
-11 0 11 -3.8 1.9
11 0 11 -1 2.8
11 0 -11 0 3.2
11 0 -11 -2.4 2.2
-11 0 -11 -0.5 3.2
11 -1 -11 8.5 5.2
11 -1 -11 2 2.8
-11 -1 11 8.7 4.4
11 1 11 2 3.6
-11 1 -11 7 6.2
-11 1 11 -2.4 1.3
11 1 -11 1.2 2.2
11 1 -11 2.3 3.9
11 -1 11 -3 2.3
11 1 -11 2.4 3.2
-11 -1 -11 5.2 4.5
-11 -2 11 117.79 13.5
11 -2 -11 127.19 16.6
11 -2 -11 100.39 12.4
11 2 11 129.69 13.2
-11 2 -11 115.89 17.3
11 2 -11 125.19 12.8
11 2 -11 135.59 17.3
-11 2 11 120.49 15.8
11 2 -11 100.29 14
-11 -2 -11 110.59 15.5
11 -2 11 117.39 16.6
-11 -3 11 49.8 9
11 -3 -11 32.7 9.7
11 3 11 56.19 6.1
-11 3 -11 46.2 12.1
11 -3 -11 34.2 6.5
-11 3 11 51.49 6.1
11 3 -11 35.9 8.5
-11 -3 -11 32.6 8.2
11 3 -11 39.8 7.3
11 3 -11 47.3 11.1
11 -3 11 29.7 10
-11 -3 -11 57.69 11.7
11 -4 -11 25.8 4.9
-11 4 -11 27.2 9.2
11 -4 -11 20.7 7.5
11 4 -11 22 7.8
11 4 -11 18.9 6.7
11 -4 11 16.2 7.5
11 4 -11 32 6.4
-11 -4 -11 21.9 7.7
-11 -4 -11 17.4 7.1
-11 4 11 26.8 4.1
11 -5 -11 60.39 12.9
-11 5 -11 64.39 14.4
-11 -5 11 74.79 11.9
-11 -5 -11 68.39 12.5
-11 -5 -11 73.89 11.4
11 5 -11 71.59 11.5
11 -5 11 78.79 16.1
11 5 -11 75.69 14.3
11 5 -11 56.89 8.6
-11 6 -11 66.59 13.6
11 -6 -11 71.49 14.7
11 6 -11 56.49 9.2
-11 -6 -11 68.09 10.8
-11 -6 -11 58.89 11.4
11 6 -11 47.6 12.1
11 -6 11 65.79 15.5
-11 7 -11 -1.1 6.1
-11 7 -11 0.9 2.7
11 -7 -11 0.1 3.9
11 7 -11 2.3 2.2
11 7 -11 -1 2.4
-11 -7 -11 -8.7 3.7
11 -7 11 6.1 8
-11 -7 -11 -0.5 5
11 7 -11 -0.5 4.4
-11 8 -11 1 4.6
-11 8 -11 4 3.3
11 -8 -11 10.1 6.5
11 -8 11 -0.4 7.9
-11 -8 -11 2.3 5
11 8 -11 5.4 5.7
-12 0 -11 -1.4 3
12 0 -11 0 2.5
12 0 11 0 2.8
12 0 -11 -4.4 3.2
-12 0 11 0.4 2.2
12 1 11 16.9 6.2
-12 1 -11 19.5 9.2
-12 -1 11 20.8 5.8
12 -1 -11 27.6 9
12 -1 -11 12 4.8
12 1 -11 23 6.9
12 -1 11 19.8 7.6
12 1 -11 20.5 5.3
-12 1 11 27.2 5.8
-12 -1 -11 26.8 8.8
12 1 -11 23.3 8.3
12 -2 -11 81.09 15.3
12 -2 -11 64.69 10.6
-12 2 -11 73.69 15.8
12 2 11 77.29 10.3
-12 -2 11 78.29 10.7
12 2 -11 74.89 9.5
12 2 -11 92.39 16.8
-12 2 11 82.59 9.2
12 2 -11 71.69 12.6
12 -2 11 71.29 14.3
-12 -2 -11 63.49 13.5
-12 -3 11 212.08 20
-12 3 -11 168.58 22.7
12 3 11 216.98 16.8
12 -3 -11 160.78 21.1
12 -3 -11 176.38 17.7
12 3 -11 175.58 17.5
12 3 -11 169.78 20.2
-12 -3 -11 170.68 19.8
12 -3 11 184.38 22.6
-12 3 11 200.68 16.8
-12 -3 -11 165.98 20.9
12 3 -11 173.78 21.6
-12 -4 11 184.18 18.6
12 -4 -11 168.88 15.8
-12 4 -11 165.98 21.9
12 -4 -11 171.18 21
12 4 -11 159.98 20.1
-12 4 11 206.28 15
-12 -4 -11 149.19 18.9
12 4 -11 154.58 19.6
-12 -4 -11 172.18 19.9
12 4 -11 154.88 16.5
12 -4 11 146.79 21.3
-12 -5 11 37.5 8.6
12 -5 -11 34.9 10
-12 5 -11 31.2 10.8
12 5 -11 25.8 8.4
-12 -5 -11 45 10.4
12 -5 11 25.5 9.7
12 5 -11 32.9 9.1
-12 -5 -11 21.4 7.2
12 5 -11 19.9 5.6
-12 6 -11 16.5 7.7
12 -6 -11 23.5 8.9
12 6 -11 24.7 7.2
12 6 -11 23.5 5.7
12 6 -11 32.2 9.9
12 -6 11 25 9.5
-12 -6 -11 27.1 7.8
-12 -6 -11 32.9 8.8
-12 7 -11 11.2 7.6
-12 7 -11 7.1 3.4
12 -7 -11 6.5 6.7
12 7 -11 11.5 3.5
12 7 -11 21.3 9.3
-12 -7 -11 -2.6 4.3
12 -7 11 14.2 9.1
-12 -7 -11 14.4 7.2
12 7 -11 13.3 4
12 -8 -11 5.7 7.3
-12 8 -11 -1.7 2.5
-12 8 -11 -1.6 5.6
12 8 -11 0.7 5.1
12 -8 11 14.1 8.5
-13 0 11 -2.7 2.3
13 0 -11 1.5 4.3
13 0 11 -3.6 3.4
-13 0 -11 -7.3 3.4
13 0 -11 4 4
-13 1 -11 77.29 15.9
13 -1 -11 56.79 13.5
13 -1 -11 72.49 11.6
-13 -1 11 61.49 10.6
13 1 11 72.39 11.6
13 1 -11 82.89 9.7
-13 -1 -11 53.49 13.1
13 -1 11 84.29 15.4
13 1 -11 68.89 11.7
13 1 -11 74.29 15
-13 1 11 65.09 9.1
13 2 11 534.05 42.8
13 -2 -11 530.15 47.5
-13 2 -11 506.25 48.5
-13 -2 11 514.55 42.9
13 -2 -11 487.85 44.3
13 -2 11 471.45 46.4
-13 -2 -11 465.65 45.9
13 2 -11 450.15 43.6
-13 2 11 531.65 41.1
13 2 -11 517.55 41.3
13 2 -11 496.65 46.6
-13 3 -11 577.04 56.69
-13 -3 11 654.33 55.09
13 -3 -11 605.84 50.19
13 -3 -11 626.34 55.99
13 3 11 698.23 49.2
13 3 -11 572.84 54.69
13 3 -11 673.23 50.19
-13 -3 -11 569.24 54.09
13 3 -11 577.84 53.19
13 -3 11 621.34 56.39
-13 -3 -11 567.54 52.79
-13 3 11 659.53 49
13 -4 -11 25.7 8.9
-13 -4 11 16.8 6.7
-13 4 -11 19.7 9
13 4 -11 15 4.7
-13 -4 -11 17.1 6.8
13 4 -11 21.7 8.1
-13 -4 -11 22.1 7
-13 4 11 24 4.3
13 4 -11 13.4 6.7
13 -4 11 13.9 8.4
-13 5 -11 124.39 19.5
13 -5 -11 146.49 18.9
13 5 -11 120.59 16.7
13 -5 11 142.89 20.1
-13 -5 -11 143.49 17.5
13 5 -11 121.19 17.3
-13 -5 -11 127.89 15.8
13 5 -11 103.49 13.1
13 -6 -11 12.3 7.2
-13 6 -11 23.6 9
13 -6 11 9.9 7.9
-13 -6 -11 2.9 6.7
13 6 -11 9 5.9
13 6 -11 11.9 6.1
-13 -6 -11 26.7 7.6
13 6 -11 6.7 3.9
-13 7 -11 4.8 3.2
13 -7 -11 7.5 5.4
-13 7 -11 20.5 8.5
-13 -7 -11 12.5 6.1
13 7 -11 4.6 3.2
13 7 -11 2 3.1
13 -7 11 2.1 10.3
-13 -7 -11 1.3 5.3
13 7 -11 -1.5 4.1
-13 8 -11 92.29 10.8
13 -8 -11 88.89 17.3
13 -8 11 85.09 18
13 8 -11 67.89 15.4
-13 -8 -11 92.69 22.1
-14 0 11 -1.4 2.2
14 0 11 -1.3 3
14 0 -11 8.2 4.4
14 0 -11 1.1 2.8
-14 0 -11 -2.5 4.2
-14 -1 11 -0.8 3.1
14 -1 -11 3.6 3.1
-14 1 -11 8.2 6.7
14 1 11 6.6 5.4
14 -1 -11 5.1 5.5
-14 -1 -11 4.1 6.3
14 1 -11 6.2 4.9
14 1 -11 9.1 6.2
14 1 -11 11.5 4.3
14 -1 11 2.7 5.2
-14 1 11 10.5 4
14 2 11 38.8 8.6
14 -2 -11 19.7 5.9
-14 -2 11 24.5 7.4
14 -2 -11 29.8 9.2
14 2 -11 31.8 6.7
14 -2 11 26.9 9.5
14 2 -11 30 9.8
-14 -2 -11 40.7 11
14 2 -11 31.9 8.6
-14 -2 -11 42.1 9.5
-14 2 11 38.3 7.2
14 -3 -11 50.99 13.2
-14 3 -11 59.69 14.1
14 3 11 76.29 9.1
14 -3 -11 67.39 9.3
14 3 -11 43.8 12
-14 3 11 73.99 8.7
-14 -3 -11 59.59 13
14 -3 11 87.99 16.7
14 3 -11 55.19 12.3
14 3 -11 70.19 9.4
-14 4 -11 10.4 7.7
14 -4 -11 -2 3.2
-14 -4 11 -0.1 4.2
-14 -4 -11 4.6 5.3
-14 4 11 -1.6 1.6
14 4 -11 -6 2.6
14 4 -11 -2.9 3.8
-14 -4 -11 -2.2 4
14 4 -11 5.4 3.9
14 -4 11 1.4 4.4
-14 5 -11 71.89 16.1
14 -5 -11 53.89 13.4
-14 -5 -11 79.99 15.2
-14 -5 -11 77.59 14.2
14 5 -11 54.49 8.9
14 5 -11 74.89 14.7
14 -5 11 66.29 16.1
14 5 -11 82.09 12.9
14 -6 -11 2.4 6
14 6 -11 0 4
14 6 -11 0.3 3.1
14 -6 11 -4.3 4.9
-14 -6 -11 4.8 4.5
-14 -6 -11 0.9 5.6
14 -7 -11 56.59 13.8
-14 7 -11 47.2 8.4
-14 7 -11 68.19 14.1
-14 -7 -11 58.09 13.6
14 7 -11 45 11.9
14 -7 11 44.1 13.2
14 7 -11 61.79 8.7
14 7 -11 61.19 7.6
-14 8 -11 9.9 12.3
-14 8 -11 20.5 5.3
14 -8 -11 29.6 11
-14 -8 -11 22.1 10.5
14 8 -11 19.2 8.6
14 -8 11 36.8 12.6
15 0 11 -0.4 3.9
-15 0 11 -3 2.9
15 0 -11 -3.5 3.5
-15 0 -11 6.7 6
15 0 -11 1.3 3.3
-15 1 -11 287.47 33.2
15 -1 -11 287.67 28.2
15 -1 -11 271.57 31.9
-15 -1 11 310.67 28.4
15 1 11 321.47 30.5
15 1 -11 311.57 32.9
15 1 -11 268.77 28.7
15 -1 11 301.07 31.8
-15 1 11 319.37 27.5
15 -2 -11 5.9 5.6
-15 2 -11 7.8 7.5
15 -2 -11 7.1 3.7
-15 -2 11 7.1 4.7
15 2 11 9.5 5.5
-15 2 11 5.5 3.7
15 2 -11 1.2 3.8
-15 -2 -11 7.5 3.7
15 -2 11 17 7.8
15 2 -11 5.6 5.7
-15 3 -11 2.4 6.4
15 3 11 -2.2 2.3
15 -3 -11 2 4.1
15 -3 -11 -2.1 2.5
-15 3 11 -0.5 2.2
15 3 -11 1.8 3.5
15 -3 11 4.6 5.9
15 3 -11 -0.3 2.5
15 3 -11 0.2 4.9
-15 -3 -11 0.7 3
15 -4 -11 6.3 6.2
-15 4 -11 4.3 7.4
15 4 11 4.7 1.4
15 -4 11 9.4 7.2
-15 4 11 1.9 2.7
15 4 -11 3 3.9
-15 -4 -11 11.7 5.3
15 4 -11 4.2 4.3
15 4 -11 2.7 3.3
-15 5 -11 45.9 13.6
15 -5 -11 35.1 11.4
15 5 -11 29.1 7
15 5 -11 38.7 11.3
-15 5 11 43.5 5
15 -5 11 33.9 12.2
-15 -5 -11 34.2 10
15 5 -11 21.2 8.7
15 -6 -11 95.09 19.3
-15 6 -11 88.39 16.5
-15 -6 -11 112.59 16.3
15 6 -11 74.49 15.1
15 6 -11 74.69 10.7
15 6 -11 94.29 13.6
15 -7 -11 30 11.3
-15 7 -11 48.2 12.1
15 7 -11 46.2 11.8
15 7 -11 15.1 5.2
15 -7 11 37.4 13.6
-15 -7 -11 28.6 11.2
15 7 -11 25.7 5.1
15 -8 -11 231.98 31.5
-15 8 -11 254.17 27.8
-15 8 -11 260.67 24
15 8 -11 290.37 31.5
15 -8 11 333.07 37.1
16 0 11 -2.2 3.8
16 0 -11 -2.3 2.9
16 0 -11 -0.4 3.7
-16 0 -11 -1 4.8
-16 0 11 -5.3 2.8
16 -1 -11 27.1 9.9
16 1 11 25.4 8.2
16 -1 -11 12.9 6.1
-16 -1 11 22.6 7
-16 1 11 24.7 6.1
-16 -1 -11 25.3 10
16 1 -11 21 6.2
16 -1 11 25.5 9.4
16 1 -11 23.6 9.3
16 1 -11 22.4 7.4
-16 2 -11 155.98 24.1
16 -2 -11 174.88 23
16 -2 -11 152.48 18
16 2 11 184.88 19.5
-16 -2 11 161.08 18.5
-16 2 11 183.58 17.6
16 2 -11 147.59 21.4
-16 -2 -11 151.48 21.1
-16 -2 -11 132.49 19
16 2 -11 181.58 17.6
16 2 -11 168.18 20.5
16 -2 11 188.68 23.3
16 -3 -11 197.18 26
16 -3 -11 222.48 21.3
-16 3 -11 198.58 26.8
16 -3 11 212.68 26.4
16 3 -11 201.58 25.1
16 3 -11 229.88 20.6
-16 3 11 220.98 20.1
16 3 -11 196.48 23.8
-16 -3 -11 204.38 23.3
-16 -3 -11 182.88 25
-16 4 -11 102.79 20.3
16 -4 -11 80.89 18.1
16 4 11 134.19 10.1
16 -4 11 97.39 20.5
16 4 -11 114.29 14.8
-16 -4 -11 99.09 19.3
16 4 -11 93.69 17.5
16 4 -11 83.39 17.5
-16 4 11 115.29 12
-16 5 -11 62.29 15.8
16 -5 -11 37.6 13.8
16 5 -11 66.09 14.2
16 -5 11 88.99 19.2
16 5 -11 64.19 9.6
-16 -5 -11 70.09 15
-16 5 11 92.09 8.2
16 5 -11 68.19 16.9
-16 6 -11 72.39 17.4
16 -6 -11 91.69 19.5
16 6 -11 78.49 16.3
16 6 -11 65.09 13
16 -6 11 99.69 20.8
-16 -6 -11 87.59 18.2
-16 7 -11 43.1 16
16 -7 -11 72.79 18.2
16 7 -11 75.69 8.9
16 7 -11 59.09 9.7
16 -7 11 86.59 19.4
16 7 -11 77.59 15.6
-17 0 11 -1 3.6
17 0 11 -1.8 4.2
17 0 -11 4.6 5.9
17 0 -11 -0.8 3.1
-17 -1 11 79.39 13.6
17 -1 -11 73.19 16.7
17 -1 -11 68.69 13.1
17 1 11 88.79 14.4
17 1 -11 91.39 18.5
17 1 -11 68.79 13.6
17 -1 11 104.09 16.2
-17 1 11 95.79 12.3
-17 -1 -11 93.39 19.2
17 -2 -11 60.39 12.4
17 -2 -11 117.99 18
17 2 11 114.99 14.3
17 2 -11 86.99 18.2
-17 -2 -11 89.89 18.2
-17 -2 -11 102.79 19.7
17 -2 11 90.89 18.1
17 2 -11 79.79 11.2
17 2 -11 71.19 14.2
-17 2 11 90.49 11.6
17 -3 -11 29.1 10.6
17 3 11 36.9 8
17 -3 -11 28.9 7.4
17 3 -11 28.9 9.6
17 -3 11 54.59 14.7
-17 -3 -11 30 10.6
17 3 -11 25.4 9.4
17 3 -11 33.4 7.4
-17 3 11 31.5 6.9
17 -4 -11 55.19 15.1
17 4 11 65.69 6.9
-17 4 11 60.09 8.4
17 4 -11 51.79 13.5
17 -4 11 52.49 15.2
17 4 -11 53.69 9.7
17 4 -11 64.19 14
17 -5 -11 7.2 6
17 5 -11 -3.7 3.7
17 5 -11 2.7 4.9
17 -5 11 6.2 7.3
17 5 -11 5.6 5.9
17 -6 -11 3.8 8.2
17 -6 11 5 7.2
17 6 -11 -4.9 5
17 6 -11 5.6 5.1
17 6 -11 6.7 4.6
-17 7 -11 38.4 15.2
17 7 -11 62.09 8.4
17 -7 11 66.19 17.1
17 7 -11 64.79 15.1
17 7 -11 43.4 11.2
-18 0 11 -5.9 3.1
18 0 -11 0.4 5.4
18 0 -11 -4 3.2
18 0 11 5.5 5.6
18 -1 -11 89.29 18.2
18 1 11 66.89 14.5
18 -1 -11 59.19 12
18 1 -11 70.79 17
-18 1 11 93.19 20
18 -1 11 72.19 16
18 1 -11 63.49 13.4
18 -2 -11 19.4 6.7
18 -2 -11 22.4 9.5
18 2 11 26.9 8.3
18 -2 11 23.2 9.7
18 2 -11 22.1 9.5
18 2 -11 12.4 7.1
-18 2 11 14 5.9
18 3 11 33.8 8.1
18 -3 -11 37.2 12
-18 3 11 44.7 8
18 -3 11 36.7 13.4
18 3 -11 39.6 8.8
18 3 -11 39.2 11.6
18 3 -11 33.3 10.2
18 4 11 84.99 8.9
18 -4 -11 74.89 18.1
-18 4 11 91.99 10.6
18 4 -11 60.19 14.7
18 4 -11 63.09 14.6
18 -4 11 61.89 18.9
18 4 -11 81.69 11.4
18 -5 -11 5.4 7.4
18 5 -11 3.7 5.6
18 -5 11 12.1 7.7
18 5 -11 0.2 5.2
-18 5 11 -0.3 3.1
18 5 -11 0.2 3.8
18 6 -11 34.2 7.8
18 -6 11 60.49 15.9
18 6 -11 29.8 10.1
18 6 -11 39.1 10.5
18 -7 -11 29.2 12.1
18 7 -11 30.6 10.7
18 7 -11 28.4 6.1
18 -7 11 40.1 13.6
19 0 -11 -5.1 3.2
19 0 11 -0.5 5.1
19 0 -11 -2 5.8
19 -1 -11 613.04 57.89
19 -1 -11 626.64 52.29
19 -1 11 604.14 56.39
19 1 -11 518.95 51.79
-19 1 11 662.63 51.19
19 1 -11 525.35 55.79
19 2 11 3.3 5.5
19 -2 -11 6.3 4.5
19 -2 -11 4.3 6.3
19 2 -11 -4.3 3
19 2 -11 10.3 7.2
19 -2 11 7 6.6
19 3 11 243.38 24.2
19 -3 -11 221.88 29.8
-19 3 11 251.67 23.2
19 -3 11 247.78 30.9
19 3 -11 200.48 27.5
19 3 -11 255.47 44
19 4 11 79.19 8.9
19 -4 -11 82.29 18.2
-19 4 11 61.29 10.1
19 4 -11 53.59 13.3
19 4 -11 76.09 13.6
19 4 -11 46.1 13.5
19 -4 11 72.69 17.6
19 5 -11 159.78 23.1
-19 5 11 205.28 18
19 -5 11 201.38 27.8
19 5 -11 182.28 24.5
19 -6 -11 113.69 22.9
19 6 -11 84.29 18.2
19 6 -11 97.09 15.4
19 6 -11 91.19 13.1
19 -6 11 119.39 23.9
20 0 -11 -3.6 4.2
20 0 -11 0.9 4.5
20 0 11 6.1 6.7
20 1 11 17 8.3
20 -1 -11 26.7 11.7
20 -1 -11 21.2 7.3
20 -1 11 21 9.7
20 1 -11 34.9 10
20 1 -11 11.7 8.4
-20 1 11 9.9 6.8
20 -2 -11 64.19 12.6
20 2 11 46.7 11.6
20 -2 -11 65.29 16.6
-20 2 11 60.79 10.7
20 2 -11 58.79 14.9
20 2 -11 45.7 15.2
20 -2 11 52.49 14.8
20 3 11 0.6 4.5
20 -3 -11 1.4 5.9
20 3 -11 -1.6 6.3
20 -3 11 1.6 5.4
20 3 -11 5.5 5.9
-20 3 11 2.8 5.4
20 -4 -11 0.5 5.5
20 4 11 3 3.4
20 -4 11 -5.5 5.4
20 4 -11 -9.9 3.6
20 4 -11 -1.4 5
-20 4 11 7.2 3.8
20 -5 -11 37.9 13.7
20 -5 11 38 13.6
-20 5 11 50.59 8
20 5 -11 29.5 8.8
20 5 -11 16.3 7.2
20 5 -11 38.8 11.3
20 -6 -11 10 9.2
-20 6 11 4.3 3.2
20 -6 11 -0.7 6.3
20 6 -11 7.3 8.5
20 6 -11 -2 6.4
20 6 -11 2.4 6.3
21 0 11 -3 5.6
21 0 -11 -7.9 2.9
21 -1 -11 167.88 21.8
21 1 11 190.28 24.9
21 -1 -11 181.78 35.6
21 1 -11 196.68 24.5
21 -1 11 201.18 26.9
21 1 -11 213.58 32.2
21 -2 -11 14.9 9.1
21 2 11 9.9 7.2
21 2 -11 9.2 7.6
21 -2 11 17.1 9.9
21 2 -11 13.3 7.4
21 -3 -11 6.2 7.1
21 3 11 -4.6 4
21 -3 11 -7 4.5
21 3 -11 0.7 4.5
21 3 -11 0.2 5.2
-21 3 11 -4 3.3
21 -4 -11 19.4 11
21 4 -11 20.2 10.4
-21 4 11 37.2 7.8
21 -4 11 23.1 12
21 4 -11 23.6 9.3
21 -5 -11 45.7 14.4
21 -5 11 48.2 15.7
21 5 -11 39.7 12
-21 5 11 61.89 10.5
21 5 -11 23.7 11.1
22 0 11 0.7 6.6
22 0 -11 -4.6 3.7
22 0 -11 -0.9 5.7
22 -1 -11 5.9 6.9
22 1 11 4.1 7.3
22 -1 -11 17.4 7.6
22 -1 11 13 7
22 1 -11 14 6.6
22 1 -11 13.6 8.8
22 -2 -11 11.8 10.7
22 2 11 7.6 7.5
22 2 -11 4.9 8
22 2 -11 15.4 6.8
22 -2 11 10.2 7.6
22 3 11 70.39 13.1
22 -3 -11 50.59 16.8
22 3 -11 54.19 14.1
22 -3 11 58.29 16.2
22 3 -11 58.59 15.5
22 -4 -11 2.3 7.2
22 4 11 8.7 4.8
22 -4 11 11.2 10.1
-22 4 11 16.1 5.6
22 4 -11 3.2 5.5
22 4 -11 3.8 9.1
22 -5 -11 18.6 10.3
22 5 -11 -9 6.1
22 -5 11 0.7 9.5
22 5 -11 -1.2 6.1
23 0 11 6.7 7.4
23 0 -11 -5.7 5
23 0 -11 -4.4 4.4
23 -1 -11 59.09 16.7
23 1 11 71.99 16.9
23 -1 11 46.6 14.6
23 1 -11 65.99 16.8
23 1 -11 53.49 13.7
23 -2 -11 0.4 6.5
23 2 11 -4.3 4.8
23 2 -11 10.7 6.6
23 -2 11 3.9 7.1
23 2 -11 15.2 8.3
23 -3 -11 -0.4 7.2
23 3 11 -6 4.1
23 3 -11 -1.2 5.6
23 -3 11 -2.4 6.7
23 3 -11 -8.5 5.2
23 -4 -11 8.8 9.2
23 4 11 7 4.2
23 -4 11 -2.3 7.3
-23 4 11 11.6 6.9
23 4 -11 -5.4 6.2
23 4 -11 -9.7 6.3
24 0 -11 0.5 7.3
24 0 11 9.6 7.7
24 0 -11 -1.4 5.4
24 1 11 78.19 17.8
24 -1 -11 91.29 21.6
24 -1 11 114.69 22.7
24 1 -11 104.39 19
24 1 -11 71.99 17.8
24 -2 -11 1.9 7.3
24 2 11 6.2 7.6
24 2 -11 1 7
24 -2 11 -7.5 5.9
24 2 -11 -0.2 4.8
24 3 11 87.59 15.6
24 -3 -11 46.6 16.1
24 3 -11 63.09 16.2
24 -3 11 75.09 18.5
24 3 -11 68.39 18
24 4 11 -4.8 4.4
24 -4 -11 -2.8 6
24 -4 11 4.7 6.9
24 4 -11 -2.8 5.5
24 4 -11 4 8.4
25 0 11 -0.5 6.5
25 0 -11 -1.6 6.6
25 -1 -11 28.1 13.1
25 1 11 21.8 10
25 -1 11 23.2 10.7
25 1 -11 14.3 9.1
25 1 -11 21.2 8.4
25 2 11 -1.9 8.9
25 -2 -11 0.2 8.4
25 2 -11 16.7 9.2
25 -2 11 4.7 9.1
25 2 -11 -1.9 4.6
25 -3 -11 10.3 11
25 3 11 11.1 7.4
25 3 -11 20.7 10.4
25 -3 11 8.7 10.1
25 3 -11 0.8 6.3
26 0 11 -6.4 6.4
26 0 -11 10 8.7
26 -1 -11 19.8 10.3
26 1 11 16 9.3
26 1 -11 20.3 8.8
26 -1 11 31.8 12.3
0 0 -12 5468.15 402.56
0 1 12 0.3 1.5
0 1 -12 0.8 1.2
0 1 -12 -0.8 1.7
0 -1 12 11.4 4.8
0 -1 -12 -0.2 1.4
0 -2 -12 163.98 13.8
0 2 -12 159.08 14.4
0 2 -12 147.09 16.2
0 3 -12 0.7 1.8
0 -3 -12 0.5 1.2
0 3 -12 1.9 2.7
0 -3 12 1.5 3.5
0 4 -12 865.01 65.19
0 4 -12 816.42 67.79
0 -4 -12 835.92 62.59
0 5 -12 -3.7 3
0 -5 -12 -2.6 1.1
0 -5 12 -1.2 4.4
0 -5 -12 -0.2 1
0 5 -12 1.3 2.5
0 -6 -12 8.3 2
0 6 -12 11.7 4.2
0 -6 -12 11.1 1.8
0 -6 12 20.2 6.8
0 7 -12 2.3 3.3
0 -7 12 -0.1 3.8
0 7 -12 2.4 3
0 8 -12 42.8 9.7
0 -8 12 78.09 13.7
0 -9 12 -4.4 4.7
0 9 -12 -4.1 4
0 -9 -12 1.6 2.3
0 -9 -12 -1.7 1
-1 0 -12 156.58 17.6
1 0 -12 186.28 15.1
-1 1 -12 228.68 21.9
1 1 12 266.47 20.1
1 -1 -12 241.88 19.7
1 -1 -12 231.98 19.2
-1 -1 -12 225.28 20.1
1 1 -12 225.58 21
1 1 -12 222.18 19.7
1 -2 -12 609.64 46.9
-1 2 -12 583.44 47.4
-1 2 -12 607.24 50.89
1 2 -12 585.44 49.8
-1 -2 -12 660.83 47.5
1 2 -12 647.54 48.2
-1 -3 12 18.2 6.5
1 -3 -12 12.5 2.6
-1 3 -12 12.6 3.4
-1 3 -12 10 4.7
1 3 -12 8.3 3.4
-1 -3 -12 12.7 2.7
1 3 -12 14 4.9
-1 4 -12 32 5.8
-1 -4 12 52.99 10
-1 4 -12 14.5 6
-1 -4 -12 21.3 3.3
1 4 -12 24.3 5.3
1 4 -12 23.1 6.3
1 -4 12 45.8 9.4
-1 -5 12 80.19 12
-1 5 -12 50.29 8.4
1 -5 -12 51.79 5.9
1 -5 -12 64.49 5.5
-1 5 -12 51.29 10.8
1 -5 12 63.39 12
-1 -5 -12 52.69 6.8
1 5 -12 55.69 10.6
1 5 -12 55.29 9.1
-1 -5 -12 53.99 5.5
-1 6 -12 73.09 9.4
-1 -6 -12 70.19 7.2
1 6 -12 55.09 11.4
1 6 -12 77.19 10.2
-1 -6 -12 68.59 6.3
-1 7 -12 86.09 11.1
-1 7 -12 94.69 11.7
1 7 -12 93.29 10.5
1 7 -12 81.29 11.4
-1 -7 -12 85.79 7.6
-1 -7 -12 94.99 7.2
1 7 -12 92.09 10.7
-1 8 -12 197.98 19.8
1 8 -12 175.18 19.5
-1 -8 -12 184.48 14.5
-1 9 -12 164.18 18.1
1 -9 -12 156.28 14.7
1 9 -12 142.99 17.7
-1 -9 -12 153.68 12.3
-1 -9 -12 164.18 13.3
-2 0 12 279.77 22.8
2 0 -12 248.28 21.7
2 -1 -12 49.3 5.7
-2 -1 12 66.19 8
-2 1 -12 42.2 8.5
2 -1 -12 48.4 5.7
2 1 -12 42.1 6
2 1 -12 42.6 6.4
-2 -1 -12 44.9 6.6
-2 2 -12 1 2.2
-2 -2 12 6.2 3.5
2 -2 -12 0 1.3
2 -2 -12 -0.2 0.9
-2 -2 -12 -0.5 1.5
2 2 -12 1.6 2.1
2 -2 12 -0.8 2.6
2 2 -12 2.3 2.1
-2 3 -12 6.4 2.3
-2 3 -12 4.6 3.8
2 -3 -12 5.3 1.7
2 -3 -12 4.1 1.6
-2 -3 -12 4.5 2
2 3 -12 7.8 4
2 3 -12 6.2 3.3
2 -4 -12 284.37 21.3
-2 4 -12 282.37 23.2
-2 4 -12 257.67 26.5
2 4 -12 266.37 24.1
2 4 -12 226.68 24.8
-2 -4 -12 284.27 21.6
2 -5 -12 10.5 1.9
-2 -5 12 8.7 5.6
2 -5 -12 10.7 2.2
-2 5 -12 4.8 2.7
-2 5 -12 7.3 4.8
2 5 -12 10.7 4.5
2 5 -12 11.4 5.3
-2 -5 -12 8.3 2.1
-2 -5 -12 11.2 3.6
2 -5 12 12.6 6
-2 6 -12 343.97 30.8
-2 6 -12 350.06 33.1
2 6 -12 353.76 32.1
-2 -6 -12 398.76 27.9
-2 -6 -12 364.06 29.3
2 6 -12 341.77 32.2
-2 7 -12 35.7 7.3
-2 7 -12 40.9 8
-2 -7 12 72.49 12.2
-2 -7 -12 41.6 4.3
2 7 -12 43.9 6.6
2 -7 12 55.69 11.6
2 7 -12 35.5 6.5
-2 -7 -12 36.3 4.6
2 7 -12 37.9 8.6
-2 8 -12 1.7 2.5
-2 -8 12 1.9 5.1
2 -8 12 -0.3 4.6
2 8 -12 2.8 3.1
-2 -9 12 27.5 8.9
2 -9 -12 27.5 5.5
-2 9 -12 13.6 5.7
2 9 -12 16.6 6.6
2 -9 12 29.4 9.2
3 0 -12 94.69 10.1
3 0 -12 105.49 10.2
-3 0 -12 96.29 12.1
-3 1 -12 68.69 11.1
3 -1 -12 84.79 9.7
-3 -1 12 119.09 11.4
3 -1 -12 83.69 9.1
3 -1 12 122.49 12.6
-3 -1 -12 92.39 10.6
3 1 -12 88.09 9.8
3 1 -12 93.29 10
3 -2 -12 284.07 24.2
-3 2 -12 302.87 28.9
3 -2 -12 313.47 24.4
-3 -2 -12 310.87 25.6
3 2 -12 294.57 26.2
3 2 -12 316.57 26.6
-3 3 -12 175.18 15.2
3 -3 -12 175.38 14.4
-3 3 -12 151.38 18.7
3 3 -12 172.68 16.7
3 3 -12 151.58 16.8
-3 -3 -12 161.98 15
3 -3 12 210.08 19.8
-3 4 -12 100.39 10.4
3 -4 -12 99.99 8.9
-3 4 -12 107.89 14.2
-3 -4 -12 103.39 9.6
3 4 -12 73.59 11.6
3 -4 12 125.49 15
3 4 -12 103.39 12
-3 5 -12 886.51 68.79
3 -5 -12 922.11 65.79
-3 5 -12 879.31 72.59
3 -5 -12 877.01 65.89
-3 -5 -12 885.61 68.89
-3 -5 -12 982.5 67.09
3 5 -12 782.52 70.49
3 5 -12 914.41 70.89
-3 6 -12 116.89 13.1
-3 6 -12 113.79 15.1
3 6 -12 115.39 15.3
-3 -6 -12 136.19 12.8
3 6 -12 120.29 14.7
3 -6 12 157.48 18.4
-3 -6 -12 130.29 11.1
3 6 -12 143.69 15.2
-3 7 -12 -2.1 3.4
-3 -7 12 -4.4 3.3
-3 7 -12 -2.6 2.2
3 -7 12 1.4 5.3
-3 -7 -12 -1.3 1.4
3 7 -12 2.2 2.6
-3 -7 -12 4.8 2.2
3 7 -12 -3.3 2
3 7 -12 -1.4 2.9
3 -8 -12 22.5 5.7
-3 8 -12 16 5.4
-3 -8 12 22 8.8
-3 -8 -12 15.9 2.9
3 8 -12 9.9 5.1
3 -8 12 24.3 8.7
-3 -8 -12 14.7 2.3
3 -9 -12 10.8 4.8
-3 -9 12 19.6 7.6
3 9 -12 7.8 5.5
3 -9 12 20.9 8.6
-4 0 -12 1710.03 138.89
4 0 -12 1891.91 135.89
4 0 -12 1877.31 136.59
-4 -1 12 0.2 1.6
4 -1 -12 -1.5 0.8
-4 -1 12 0.8 1.3
4 1 12 1.4 2.2
-4 1 -12 0.5 3.2
4 -1 -12 0.5 1.4
4 1 -12 -0.1 1.6
4 -1 12 2.4 3
-4 -1 -12 -1.9 1.5
4 1 -12 -1.1 1.3
4 -2 -12 260.57 26
4 -2 -12 335.57 25.8
4 2 12 343.77 25
-4 2 -12 297.47 30
-4 -2 -12 289.27 26.9
4 2 -12 300.87 26.9
4 2 -12 338.67 29.7
4 -2 12 393.26 30.7
4 -3 -12 7.6 2.4
-4 3 -12 10.8 5.6
-4 -3 12 18.6 6
-4 -3 12 10.8 3.7
4 3 -12 9.8 4.1
4 -3 12 11.3 5.4
-4 -3 -12 8.2 3.2
4 3 -12 14.1 4.9
-4 4 -12 53.29 6.7
-4 4 -12 52.89 11.5
-4 -4 12 72.99 8.7
4 -4 -12 54.09 5.7
4 4 -12 44.9 8.7
-4 -4 -12 45.9 6.5
4 4 -12 57.29 8.7
4 -4 12 71.79 13.3
-4 5 -12 144.89 13.3
-4 5 -12 131.39 16.8
4 -5 12 163.08 18.5
-4 -5 -12 125.99 11.9
-4 -5 -12 136.69 13.7
4 5 -12 119.89 14.7
4 5 -12 100.89 14.1
-4 6 -12 -0.6 3.9
-4 6 -12 3.2 2.6
-4 -6 12 6.3 5.3
4 6 -12 1.7 3.4
4 -6 12 0.2 4.2
-4 -6 -12 1.2 2
-4 -6 -12 -2.9 1.9
4 6 -12 -4.3 3.2
4 6 -12 0.6 3.4
-4 7 -12 4.9 3.4
-4 -7 12 5.9 5.4
-4 7 -12 3.4 4.3
-4 -7 -12 3.8 2.1
4 -7 12 6.6 6
4 7 -12 4.3 3.1
4 7 -12 -2.8 3
-4 -7 -12 8.4 2.9
4 7 -12 4.4 3.1
4 -8 -12 5.1 3.3
-4 -8 12 4 5.2
-4 8 -12 9.1 4
-4 -8 -12 6.2 2.2
4 8 -12 2.9 4.5
4 -8 12 0.5 5.6
-4 -8 -12 8 2.1
4 -9 -12 15.3 6.3
-4 9 -12 27.4 7.4
-4 -9 12 37.1 9.3
4 -9 12 30.1 10
4 9 -12 32.7 8.3
-5 0 12 686.53 47
5 0 -12 512.95 46.7
5 0 12 683.73 49.1
5 0 -12 579.34 46.2
-5 0 -12 518.65 49.3
-5 -1 12 268.87 19.6
5 -1 -12 192.58 17.8
5 -1 -12 200.78 18.4
-5 1 -12 185.68 21.5
5 -1 12 238.18 21.6
-5 -1 -12 194.38 20.6
5 1 -12 205.68 18.5
5 1 -12 212.38 19.5
-5 2 -12 22.8 7.5
5 -2 -12 36 4.9
-5 -2 12 39.7 8.9
-5 -2 12 28 5.7
5 2 12 38.9 4.5
5 2 -12 26.6 5.9
5 2 -12 23 5.9
-5 -2 -12 19.4 5.6
5 -3 -12 80.19 8.2
-5 3 -12 78.59 14.6
-5 -3 12 109.39 10.6
5 3 -12 85.89 10.7
5 -3 12 94.89 12.9
5 3 -12 70.99 9.7
-5 -3 -12 66.49 9.1
-5 4 -12 289.57 24.7
5 -4 -12 300.87 23.6
-5 4 -12 290.27 29.6
5 4 -12 253.67 26.1
-5 -4 -12 288.97 25.3
5 4 -12 336.07 28.1
5 -4 12 363.96 31.1
-5 5 -12 113.19 11.9
-5 -5 12 150.38 14.5
-5 5 -12 119.29 15.7
-5 -5 -12 110.19 11.7
5 5 -12 114.49 14.2
5 -5 12 148.09 17.8
-5 -5 -12 109.39 14.4
5 5 -12 103.89 13.4
5 5 -12 138.59 17.2
-5 -6 12 11.9 5.7
-5 6 -12 5.5 2.9
-5 6 -12 7.3 4.9
5 6 -12 1.8 3.4
-5 -6 -12 5.7 3.6
5 -6 12 5 5.8
-5 -6 -12 4.2 2.6
5 6 -12 9.5 4.7
-5 -7 12 5.9 5.4
-5 7 -12 9.1 4.8
5 -7 -12 6.5 4.3
-5 7 -12 4.1 3.5
5 7 -12 0.4 3.6
-5 -7 -12 -3.3 4.9
5 7 -12 4.8 3.2
-5 -7 -12 2.8 2.2
5 -7 12 3.3 6.6
5 7 -12 1.5 2.8
-5 8 -12 58.69 9.7
-5 -8 12 105.99 14
5 -8 -12 83.79 11.2
5 8 -12 66.29 12.5
-5 -8 -12 70.69 7.9
5 -8 12 103.29 15.6
-5 -8 -12 55.69 7.4
-5 -9 12 10.2 6.3
5 -9 -12 13.1 5.7
-5 9 -12 3.9 4.3
5 9 -12 15.7 8.5
-5 -9 -12 12.5 3
-5 -9 -12 7 1.9
6 0 12 278.57 24.4
-6 0 12 308.07 24.1
6 0 -12 236.28 21.5
-6 0 -12 247.48 25.5
6 0 -12 230.58 22.4
-6 -1 12 133.29 12.1
-6 1 -12 84.99 13.8
6 -1 -12 100.09 11.3
6 -1 -12 95.59 10.6
6 1 12 140.99 12.8
-6 1 12 129.79 11.2
6 1 -12 108.19 11.3
6 -1 12 124.19 14.4
6 1 -12 105.49 12.1
-6 -1 -12 100.49 13.4
-6 -2 12 170.18 17.1
-6 -2 12 194.38 16.5
6 -2 -12 160.48 15.2
-6 2 -12 151.28 19.1
6 -2 12 180.38 19.2
-6 -2 -12 166.38 19.2
6 2 -12 152.68 16.7
6 2 -12 166.18 15.9
-6 -3 12 0.9 2.1
-6 -3 12 6.2 3.9
-6 3 -12 -3.3 3.7
6 -3 -12 6.1 2.3
-6 -3 -12 2.3 2.7
6 3 -12 -1.5 1.7
6 -3 12 2.3 3.9
6 3 -12 4.6 3
6 -4 -12 450.95 35.4
-6 4 -12 485.85 42.6
6 4 -12 482.75 40
6 -4 12 527.75 43.2
6 4 -12 390.76 37.9
-6 -4 -12 458.35 38
-6 5 -12 22.2 7.9
-6 5 -12 19.3 4.5
-6 -5 12 32.2 7.3
-6 -5 12 37.5 8.7
6 5 -12 22.7 6.7
6 5 -12 11.9 4.9
-6 -5 -12 17.4 5
6 -5 12 22.2 8.2
-6 -5 -12 16.9 5.3
6 5 -12 18.7 6.7
-6 6 -12 32.8 8.8
-6 -6 12 37 8.7
-6 6 -12 27.9 5.5
-6 -6 12 22.8 6.1
-6 -6 -12 27.5 6.3
-6 -6 -12 24.5 5.3
6 -6 12 28.9 9.8
6 6 -12 16.7 5.9
6 6 -12 27.4 7.1
-6 7 -12 2.3 2.8
-6 -7 12 13.2 5.8
6 -7 -12 0.6 4.2
6 7 -12 3.5 3.2
-6 -7 -12 7.1 3.1
-6 -7 -12 9 3.1
6 -7 12 10.9 6.5
6 7 -12 6 3.2
6 7 -12 10.6 5.3
6 -8 -12 27.5 7.8
-6 -8 12 52.89 10.7
-6 8 -12 30.5 6.9
6 -8 12 47.7 12.2
6 8 -12 44.4 9.6
-6 -8 -12 34.9 6
-6 -8 -12 40.9 6.6
6 -9 -12 18.5 6.2
-6 9 -12 9.1 5
-6 -9 12 12.7 6.2
6 -9 12 10.4 8.4
-6 -9 -12 6 2.6
6 9 -12 5.9 5.7
-6 -9 -12 8.1 3.7
-7 0 -12 31.3 8.3
-7 0 12 36 6
7 0 -12 32.3 6.7
7 0 12 30.7 7.6
7 0 -12 30.7 5.6
-7 -1 12 640.74 46.1
-7 1 -12 554.84 50.19
7 -1 -12 497.05 45.3
-7 1 12 657.63 45.2
-7 -1 -12 519.05 48.4
7 -1 12 562.34 51.29
7 1 -12 589.94 45.4
7 1 -12 559.54 47.4
-7 -2 12 900.71 62.89
7 -2 -12 724.03 61.19
-7 2 -12 729.83 66.59
7 2 -12 854.61 62.19
-7 -2 -12 698.43 63.89
7 2 -12 850.41 64.19
7 -2 12 836.22 66.19
-7 -3 12 204.18 18.8
-7 3 -12 163.48 20.8
-7 -3 12 198.48 17.8
7 -3 -12 157.78 15.6
7 3 -12 165.78 16.9
7 3 -12 199.18 19.3
-7 -3 -12 168.68 18.1
7 -3 12 186.78 20.9
-7 -4 12 48.2 8.2
-7 -4 12 47 9.2
-7 4 -12 23.3 8.1
7 -4 -12 31.5 4.3
7 4 -12 39.6 8.5
7 -4 12 28 9.5
7 4 -12 21.5 6
-7 -4 -12 29.6 6.7
7 4 -12 36.2 9.1
-7 5 -12 218.78 19.1
-7 5 -12 223.88 24.2
7 5 -12 218.88 22.5
-7 -5 -12 218.78 21.2
7 5 -12 210.58 22.3
7 5 -12 187.68 20.2
7 -5 12 244.78 25.6
-7 -5 -12 205.08 19.9
-7 -6 12 105.39 13.3
-7 6 -12 82.79 13.7
7 -6 -12 117.09 14.3
-7 6 -12 84.19 10.4
-7 -6 12 134.69 14.8
7 6 -12 94.99 13.8
-7 -6 -12 104.49 12.1
7 6 -12 78.89 13.9
-7 -6 -12 87.19 10.8
7 -6 12 114.09 17
7 -7 -12 116.19 15
-7 7 -12 105.49 14
-7 7 -12 120.09 12.5
7 7 -12 93.69 11.2
7 7 -12 107.99 11.7
7 7 -12 109.79 14.9
-7 -7 -12 109.19 12.1
-7 -7 -12 107.99 12.1
7 -7 12 144.09 19.3
-7 -8 12 14.9 6.9
-7 8 -12 7.7 4.2
7 -8 -12 15.4 6.7
-7 -8 -12 10.4 4.7
7 8 -12 8 5.9
7 -8 12 17.6 9
-7 -8 -12 13.8 4.3
-7 9 -12 148.89 16.4
-7 -9 12 201.38 20.5
7 -9 -12 170.18 19.2
-7 -9 -12 151.18 15
7 9 -12 103.09 18.5
-7 -9 -12 124.39 13.7
8 0 -12 1527.25 123.49
-8 0 12 1798.62 124.09
8 0 12 1810.22 127.09
8 0 -12 1499.75 124.59
-8 0 -12 1636.14 128.99
8 -1 -12 32 6.4
-8 1 -12 51.69 11.3
8 1 12 54.09 7.9
-8 -1 12 36.6 6.8
8 1 -12 39.7 8
8 1 -12 46.6 6.4
8 -1 12 40.3 9.7
-8 -1 -12 34.3 8.5
-8 1 12 41.1 9.8
-8 -2 12 11.7 3.8
8 2 12 24.8 4.7
-8 2 -12 13 6.2
8 -2 -12 12.5 3.4
-8 -2 -12 3.9 3.8
-8 2 12 15.8 3.5
8 -2 12 6 5.1
8 2 -12 12.7 4.1
8 2 -12 13.2 4.9
-8 3 -12 7.9 6.1
-8 -3 12 12.8 4.6
8 3 12 12 1.9
8 -3 -12 10.1 3.1
8 3 -12 13.5 5.2
8 -3 12 11.7 6.1
-8 -3 -12 7.6 5
8 3 -12 12 4.2
-8 4 -12 81.99 14.8
-8 -4 12 78.99 10.4
8 -4 -12 68.79 7.5
-8 -4 12 76.89 10.8
-8 -4 -12 73.89 10.4
-8 -4 -12 70.59 10.1
8 4 -12 85.49 11.7
8 -4 12 79.29 14.8
8 4 -12 74.89 13.7
8 4 -12 50.59 8.7
-8 -5 12 22.6 6.8
-8 5 -12 19.3 7.6
-8 -5 12 21.1 7.4
8 -5 -12 22.7 6.8
8 5 -12 13.4 6.6
8 -5 12 15.8 8.4
8 5 -12 18.3 6.4
-8 -5 -12 11.7 5.4
-8 -5 -12 14.4 5
8 5 -12 11.6 4.4
8 -6 -12 185.28 20.6
-8 -6 12 226.98 20.7
-8 6 -12 173.78 21.2
-8 6 -12 185.88 16.8
8 6 -12 157.88 17.4
-8 -6 -12 162.28 17.3
-8 -6 -12 156.28 17.8
8 -6 12 191.28 23.5
8 6 -12 159.18 19.7
-8 7 -12 148.69 15.5
-8 7 -12 172.08 19.1
-8 -7 -12 137.89 16.4
8 7 -12 159.08 15.6
8 7 -12 152.08 15.1
-8 -7 -12 158.98 16.4
8 7 -12 165.58 19.4
8 -7 12 224.18 24.5
-8 8 -12 13.9 4.5
-8 8 -12 13.6 4
8 -8 -12 12.9 6.3
-8 -8 12 17.8 6.8
8 8 -12 7.8 6
8 -8 12 16.2 9.4
-8 -8 -12 10.9 4.6
-8 -8 -12 11.9 5.2
8 -9 -12 99.89 14.9
-8 9 -12 94.59 11.9
-8 -9 -12 87.29 10.2
8 9 -12 71.89 14.3
-8 -9 -12 85.69 11.1
8 -9 12 104.89 20
9 0 -12 391.56 35.5
-9 0 12 429.16 32.2
9 0 -12 374.06 31.6
-9 0 -12 331.57 35.6
-9 1 -12 228.98 26.9
9 -1 -12 235.28 22.9
9 1 12 270.47 24.1
-9 -1 12 272.07 23.2
-9 -1 -12 226.88 25.7
-9 1 12 282.37 22.5
9 -1 12 272.27 26.4
9 1 -12 258.37 24.4
9 1 -12 254.37 22.5
9 -2 -12 127.99 13.9
-9 2 -12 133.39 18.6
-9 -2 12 147.19 14.9
9 2 12 168.38 14.4
9 2 -12 141.39 14.2
9 2 -12 115.39 15.5
-9 -2 -12 118.59 16.4
9 -2 12 141.59 17.8
-9 2 12 159.98 13.5
-9 3 -12 259.67 30.2
-9 -3 12 308.37 26.4
9 3 12 325.87 22.5
9 -3 -12 246.08 24.1
9 3 -12 268.47 28.9
-9 3 12 344.87 23.8
9 3 -12 292.47 27.9
9 -3 12 273.77 29.7
9 3 -12 273.67 25.1
-9 -3 -12 248.38 27.1
9 -4 -12 81.19 9.3
-9 4 -12 98.29 17.8
-9 -4 12 125.59 13.1
-9 -4 -12 96.99 12.6
9 4 -12 103.89 13.7
9 4 -12 84.99 13.3
-9 -4 -12 92.19 12.2
9 4 -12 96.49 11.4
9 -4 12 105.49 16.1
-9 5 -12 646.74 61.09
9 -5 -12 810.02 62.09
9 5 -12 716.93 60.19
9 5 -12 729.43 60.09
-9 -5 -12 694.43 58.59
9 -5 12 787.62 64.09
-9 -5 -12 644.04 57.49
-9 6 -12 28.1 8.1
9 -6 -12 31.4 8.7
-9 6 -12 24.6 5.3
-9 -6 12 36.4 8.2
9 -6 12 28 10.6
9 6 -12 22 6.2
9 6 -12 22.1 7.8
-9 -6 -12 28.5 7
9 6 -12 21.5 7.5
-9 -6 -12 31.8 7.7
-9 7 -12 71.79 13.1
-9 7 -12 76.59 9.7
-9 -7 12 87.29 12.4
9 -7 -12 91.19 13.8
9 7 -12 89.09 10.2
-9 -7 -12 61.09 11.6
9 7 -12 88.99 15.4
9 7 -12 70.99 9.1
-9 -7 -12 72.49 10.9
9 -7 12 96.89 19.2
9 -8 -12 17.9 7.7
-9 8 -12 9.9 4.7
-9 8 -12 9 3.9
-9 -8 -12 9.5 5.2
9 -8 12 3.3 6.4
9 8 -12 7.1 5.7
9 -9 -12 83.99 12.7
-9 9 -12 54.59 9.9
-9 -9 -12 67.69 9.3
9 -9 12 73.79 16.9
9 9 -12 68.89 14
10 0 12 524.65 44.8
10 0 -12 503.35 41.7
-10 0 -12 502.75 46.9
-10 0 12 554.94 42.1
10 0 -12 493.85 43
10 1 12 17.6 5.9
-10 -1 12 22.3 5.9
-10 1 -12 27.8 9
10 -1 -12 27.4 6.4
10 1 -12 28.8 6.8
10 -1 12 28.8 8.7
10 1 -12 25.6 5.4
10 1 -12 46.1 10.7
-10 -1 -12 31 9.1
-10 1 12 26.8 5.6
-10 2 -12 50.19 12.4
10 -2 -12 42.4 7.6
-10 -2 12 36.7 7.6
10 2 12 45 6.9
10 2 -12 54.19 7.2
10 -2 12 31 9.7
-10 -2 -12 25.1 7.9
10 2 -12 38.4 10.5
10 2 -12 32.3 8.3
-10 2 12 52.29 8.3
10 -3 -12 58.89 12.4
-10 -3 12 63.69 10
10 3 12 64.19 6.2
-10 3 -12 57.69 13.2
10 -3 -12 47.7 7.8
-10 -3 -12 48.8 10.6
-10 3 12 62.19 6.7
10 3 -12 37.5 9.2
10 3 -12 63.19 12.8
10 3 -12 49.5 7.7
10 -3 12 41.6 11.3
10 -4 -12 120.49 11.7
-10 -4 12 158.38 25
-10 4 -12 101.09 16.4
10 -4 -12 131.69 16.6
-10 -4 -12 110.89 14.8
10 -4 12 150.38 19.4
10 4 -12 119.89 13.1
10 4 -12 113.29 15.2
10 4 -12 115.89 16
-10 -4 -12 111.19 14.6
10 -5 -12 23.3 8.2
-10 -5 12 16.5 5.6
-10 5 -12 30.8 9.6
10 5 -12 21.5 7.7
-10 -5 -12 27.1 7.6
-10 -5 -12 17.6 5.8
10 -5 12 13.7 8.2
10 5 -12 18.4 5.4
10 5 -12 19.9 7.2
-10 6 -12 68.39 8.4
-10 6 -12 72.89 13.9
10 -6 -12 87.89 13.1
10 6 -12 41.2 8.6
-10 -6 -12 58.79 11.4
10 -6 12 75.19 15.9
10 6 -12 67.79 13
-10 -6 -12 56.39 10.6
10 6 -12 61.59 11.5
-10 7 -12 21.5 5.3
10 -7 -12 21.1 8.2
-10 7 -12 3.7 6.1
10 -7 12 22.6 10.3
-10 -7 -12 25.4 6.5
10 7 -12 16.6 4.9
10 7 -12 15.4 4.4
-10 -7 -12 26.7 7.1
10 7 -12 26.3 8.3
-10 8 -12 1.1 4.7
-10 8 -12 5.2 3.4
10 -8 -12 18.3 6.5
-10 -8 -12 10.9 6
10 8 -12 6.1 5.3
10 -8 12 6.3 7.4
-10 -8 -12 17.6 5.5
11 0 -12 81.89 11.1
11 0 -12 84.69 16.2
11 0 12 77.89 12.4
-11 0 12 90.19 10.4
-11 0 -12 89.09 16.4
-11 1 -12 24.1 8.7
-11 -1 12 29.3 6.5
11 -1 -12 18.1 5.2
11 -1 -12 21.3 8.2
-11 -1 -12 24.7 8.7
11 1 -12 25.9 6.9
-11 1 12 31.6 6
11 -1 12 31.1 9.2
11 1 -12 18.6 7.6
11 1 -12 27.7 6
11 2 12 281.07 23.3
11 -2 -12 200.88 22.1
-11 -2 12 269.57 23.7
-11 2 -12 231.88 27.7
11 -2 -12 274.77 27.8
11 -2 12 246.88 27
11 2 -12 228.88 26.6
11 2 -12 226.78 24.5
-11 2 12 269.17 21.8
11 2 -12 273.97 22.7
-11 -2 -12 209.88 25.5
11 -3 -12 15 6.7
-11 3 -12 6.8 6.8
11 -3 -12 9.5 3.6
-11 -3 12 4.2 4.1
11 3 12 3.7 2.4
-11 -3 -12 5 3.5
11 3 -12 11.7 5.6
11 -3 12 4.9 4.3
11 3 -12 11.6 5.7
-11 3 12 10.6 3
11 3 -12 5.1 3.7
11 -4 -12 49.8 6.7
11 -4 -12 48.2 11.7
-11 4 -12 60.29 13.7
-11 -4 12 61.49 10.4
-11 -4 -12 56.09 11
-11 -4 -12 50.29 10.7
11 4 -12 51.89 10.9
11 4 -12 49.6 11.4
11 4 -12 47.2 7.9
11 -4 12 46.8 11.9
11 -5 -12 149.59 18.6
-11 5 -12 124.69 18.3
-11 -5 12 154.78 16
11 5 -12 137.49 17.1
11 -5 12 139.79 19.4
-11 -5 -12 97.89 14.8
11 5 -12 100.49 13.2
-11 -5 -12 133.29 16.2
11 5 -12 143.69 17.5
11 -6 -12 6.7 4.6
-11 -6 -12 5.6 5.1
11 6 -12 -1.9 3.1
-11 -6 -12 8.1 4.7
11 6 -12 -1.9 3.4
11 6 -12 1.8 3.8
11 -6 12 -3.4 5.7
-11 7 -12 43.8 9.7
11 -7 -12 59.39 13.6
-11 7 -12 41.9 7.4
-11 -7 -12 49.9 9.9
-11 -7 -12 37.9 9.7
11 7 -12 34.3 6.3
11 7 -12 38.8 7.7
11 -7 12 58.89 15.1
-11 8 -12 7.2 8.1
-11 8 -12 1 2.8
11 -8 -12 3.6 5.9
11 -8 12 -3.8 5.9
-11 -8 -12 1.3 5.1
-12 0 -12 -4.5 3.3
12 0 -12 1.3 3.4
12 0 12 -1.8 2.9
12 0 -12 0.7 2.6
-12 0 12 -3.5 1.8
12 1 12 22.9 7
12 -1 -12 24.1 8.6
-12 1 -12 31.6 10.1
12 -1 -12 19.3 6.1
-12 -1 12 25.8 6.2
12 1 -12 22.6 6.3
-12 -1 -12 32.3 10.2
-12 1 12 26.8 6
12 1 -12 23.5 5.8
12 -1 12 21.7 7.9
12 1 -12 15.2 6.9
12 2 12 2.8 3.8
-12 2 -12 9.1 7
-12 -2 12 -0.4 3.2
12 -2 -12 3.8 3.4
12 -2 -12 -4.4 3.3
12 2 -12 7.1 5.4
12 2 -12 2.2 2.9
-12 2 12 1.4 2.7
-12 -2 -12 8 4.8
12 -2 12 -1.8 3.9
12 2 -12 6.1 3.5
-12 3 -12 272.37 30.5
12 -3 -12 231.68 23.7
12 3 12 326.97 23.1
12 -3 -12 268.87 29.2
-12 3 12 296.97 25.6
-12 -3 -12 226.98 26
-12 -3 -12 251.37 27.9
12 3 -12 289.27 24.5
12 -3 12 259.37 29.5
12 3 -12 248.28 27
12 3 -12 253.27 28.6
-12 4 -12 114.99 17.8
12 -4 -12 112.39 16.3
12 -4 -12 94.49 11.2
-12 -4 12 123.69 14.7
-12 4 12 136.69 10.8
12 4 -12 118.89 16.5
12 4 -12 97.29 12.2
-12 -4 -12 83.69 16.2
-12 -4 -12 96.69 15.7
12 -4 12 119.09 18
12 4 -12 121.39 15.9
-12 5 -12 8.8 6.7
12 -5 -12 9.6 6
12 -5 12 6 6.6
-12 -5 -12 13.1 6.9
12 5 -12 9.1 5.6
-12 -5 -12 16.9 6.8
12 5 -12 5 5.1
12 5 -12 6 4
12 -6 -12 1.4 4.9
-12 6 -12 3 7.2
-12 -6 -12 3.3 3.8
-12 -6 -12 12.8 4.8
12 6 -12 -1.4 3.6
12 6 -12 -0.1 3.3
12 -6 12 7.1 6.7
12 6 -12 -3 4.9
-12 7 -12 2.2 7.5
12 -7 -12 2.7 6.2
-12 7 -12 -3.2 2.6
12 7 -12 4.9 3.1
-12 -7 -12 1.8 4.5
12 7 -12 -0.9 3.5
-12 -7 -12 6.7 6.2
12 7 -12 2.3 3.7
-12 8 -12 6.9 4.3
12 -8 -12 16.1 8.9
-12 -8 -12 22.1 8.9
12 -8 12 14.2 10.2
12 8 -12 28.8 8.8
-13 0 12 1180.08 85.09
-13 0 -12 1011.8 90.39
13 0 -12 1001.5 85.59
13 0 -12 1102.39 90.89
13 0 12 1146.99 88.69
13 1 12 13.9 5.7
-13 -1 12 15.4 5.2
13 -1 -12 15 5.8
13 -1 -12 22.1 8.8
-13 1 -12 14 8.7
-13 -1 -12 32.2 9.8
13 1 -12 36.9 10.7
-13 1 12 15.1 5.1
13 1 -12 20.2 6.7
13 -1 12 16.3 7.3
13 1 -12 14.5 4.8
13 2 12 376.36 37.3
13 -2 -12 380.46 35.1
-13 2 -12 403.56 41.9
-13 -2 12 419.46 36.2
13 -2 -12 418.66 40.6
13 2 -12 410.66 40.6
13 -2 12 410.16 40.1
-13 2 12 462.45 34.6
13 2 -12 364.76 37
13 2 -12 441.26 35
-13 -2 -12 405.36 39.9
13 3 12 60.09 7.4
13 -3 -12 45.5 8.2
13 -3 -12 52.89 12.7
13 -3 12 49.6 13.2
-13 3 12 48.1 6.9
13 3 -12 46.6 10.7
13 3 -12 51.29 12.1
-13 -3 -12 36.3 9.7
-13 -3 -12 52.99 12.5
13 3 -12 55.39 8.2
-13 -4 12 65.09 11.8
13 -4 -12 56.39 13.1
-13 4 -12 56.69 14
13 -4 -12 45.1 7.8
13 4 -12 51.49 9
13 -4 12 57.79 14.6
-13 4 12 67.69 6.9
-13 -4 -12 41.4 11.7
13 4 -12 46.3 11.5
13 4 -12 49.7 11.4
13 -5 -12 4.3 5.6
-13 5 -12 11 7.1
13 5 -12 1.3 3.4
13 5 -12 0.7 3.7
13 -5 12 2.9 6.3
13 5 -12 -0.7 4.3
-13 -5 -12 -2.5 3.5
-13 -5 -12 12.8 6.1
13 -6 -12 141.79 20
13 -6 12 187.78 24.1
-13 -6 -12 164.38 18.5
13 6 -12 113.39 16.2
13 6 -12 161.98 20.2
-13 -6 -12 124.19 17.8
13 6 -12 114.09 14
13 -7 -12 29.5 10.2
-13 7 -12 32.5 11.2
-13 7 -12 48.6 8.1
13 7 -12 29.7 7.1
13 -7 12 38.9 13.3
13 7 -12 33.7 6.2
13 7 -12 16.2 7.5
-13 -7 -12 39 9.4
-13 8 -12 9.1 3.7
-13 8 -12 -0.8 7.7
13 -8 -12 14.7 8.1
13 -8 12 8.7 9.4
13 8 -12 10 6.3
-14 0 12 316.57 27.5
14 0 -12 276.67 31.8
14 0 12 297.37 30.4
14 0 -12 293.37 28.5
-14 1 -12 30.6 10.2
14 -1 -12 49.99 12.9
14 -1 -12 36.7 8.6
-14 -1 12 50.59 9.7
14 1 12 33.9 9
14 -1 12 36.1 10.7
-14 -1 -12 36.6 11.1
14 1 -12 49 10.3
14 1 -12 52.39 13.3
14 1 -12 43.4 9.2
-14 1 12 45.4 8.1
14 -2 -12 111.59 18.1
-14 -2 12 143.79 15.9
14 2 12 138.59 15.4
-14 2 -12 119.49 19.4
14 -2 -12 111.79 14.5
14 2 -12 119.99 16.5
-14 -2 -12 121.69 18.1
-14 2 12 137.39 14.1
14 2 -12 142.59 14.7
14 2 -12 138.79 19.5
14 -2 12 132.39 18.8
14 3 12 20 5.1
-14 3 -12 9 7.4
14 -3 -12 13.8 6.9
14 3 -12 11.9 7
-14 -3 -12 24.6 7.7
-14 3 12 20.3 4.6
14 -3 12 21.4 9.1
14 3 -12 25.2 8.7
14 3 -12 18.8 5.4
-14 -3 -12 16.2 7.8
-14 4 -12 131.39 20.9
14 -4 -12 145.99 19.8
14 4 -12 142.59 15.3
-14 -4 -12 137.69 18.6
14 -4 12 143.29 21.3
-14 -4 -12 124.69 17.6
-14 4 12 168.98 14.3
14 4 -12 126.49 18
14 4 -12 159.08 19.4
14 -5 -12 86.89 17.5
-14 5 -12 72.89 16.7
14 -5 12 88.09 18.5
14 5 -12 81.99 15.2
-14 -5 -12 101.49 15.7
14 5 -12 69.09 14.2
14 5 -12 67.19 10.1
-14 -5 -12 68.69 14.9
-14 6 -12 18.8 8.5
14 -6 -12 15.9 8.6
14 6 -12 15.7 6.9
14 6 -12 9 5.7
14 6 -12 6.5 3.9
14 -6 12 1.3 5.5
-14 7 -12 2.5 8.8
14 -7 -12 1.3 5.2
-14 7 -12 -0.9 2.3
14 7 -12 5.8 6.3
14 7 -12 9.9 3.9
14 -7 12 5.2 7.6
14 7 -12 4.5 6
-14 -7 -12 10.1 6.7
-14 8 -12 6.6 3.3
-14 8 -12 10.9 8.5
14 -8 -12 4.3 7
14 -8 12 10.3 9
-14 -8 -12 15.4 9.6
14 8 -12 14.7 7.9
-15 0 -12 5.5 5.3
15 0 -12 12 6.2
15 0 -12 8.1 4.9
-15 0 12 6.4 3.9
15 0 12 13.3 6.2
15 1 12 136.89 16.7
15 -1 -12 84.69 14.7
15 -1 -12 126.89 18.4
15 1 -12 111.09 15.1
15 -1 12 105.59 16.5
-15 -1 -12 105.19 19.8
15 1 -12 79.29 17.5
-15 1 12 132.89 14.1
15 1 -12 106.99 13
15 -2 -12 -3.1 2.9
-15 -2 12 -2.1 3.1
15 -2 -12 2.6 5.3
15 2 12 -0.3 3.4
-15 2 -12 6.4 6.9
-15 -2 -12 -0.6 3.7
15 2 -12 -1 2.6
15 -2 12 -1.4 4.4
-15 -2 -12 7.6 5.6
15 2 -12 0.6 3.8
-15 2 12 -2.4 2.1
15 2 -12 0.1 5.4
15 -3 -12 112.39 17.8
15 -3 -12 101.19 13.1
-15 3 -12 109.39 22.1
15 3 12 137.49 13.3
-15 3 12 135.79 12.9
15 -3 12 107.09 20.4
15 3 -12 107.49 17.6
-15 -3 -12 106.49 15.6
-15 -3 -12 105.79 19
15 3 -12 109.39 13.2
15 3 -12 108.19 17.1
-15 4 -12 29.4 10
15 -4 -12 13 7.1
15 4 -12 3.9 6
15 -4 12 4.6 7.3
-15 -4 -12 10.9 6.5
-15 4 12 6.8 3.3
15 4 -12 12.1 5.6
15 4 -12 19.4 7.5
-15 -4 -12 4.6 5.7
15 -5 -12 19.8 9.4
-15 5 -12 42.1 14.1
15 5 -12 53.69 9.2
15 5 -12 47.4 12.4
15 -5 12 65.29 16
-15 -5 -12 54.69 11.8
15 5 -12 40.4 10.6
-15 6 -12 91.59 17.1
15 -6 -12 67.99 16.5
15 6 -12 84.69 13.1
-15 -6 -12 77.79 15.8
15 6 -12 44.7 13
15 -6 12 116.09 22
15 6 -12 57.59 9.7
-15 7 -12 19.5 13.2
15 -7 -12 6.5 7.8
15 7 -12 18.5 7
-15 -7 -12 25.1 8.9
15 7 -12 15.3 4.8
15 -7 12 11.8 7.5
15 7 -12 2.7 4.5
16 0 12 12.8 7.3
-16 0 12 10.3 5.3
16 0 -12 16.3 6.3
16 0 -12 13.1 7.7
-16 0 -12 7.2 8
16 1 12 88.09 14.4
-16 -1 12 85.69 12.3
16 -1 -12 67.79 13.1
16 -1 -12 81.39 17.4
16 1 -12 80.39 17.5
-16 -1 -12 115.59 18.2
16 1 -12 79.39 14.5
16 1 -12 102.99 12.3
-16 1 12 95.29 12.2
16 -1 12 99.89 16.1
-16 2 -12 176.78 28.6
16 2 12 179.98 20.6
-16 -2 12 200.58 21.4
16 -2 -12 175.28 24.3
16 -2 -12 174.78 19.9
-16 -2 -12 194.88 24.7
-16 -2 -12 171.58 21.1
-16 2 12 211.08 19.6
16 2 -12 191.18 19.2
16 2 -12 186.98 22.2
16 -2 12 201.58 25.1
16 2 -12 207.18 25.3
16 -3 -12 -0.5 2.8
16 -3 -12 -4.1 3.8
-16 -3 -12 -6 5.5
-16 3 12 -1.6 2.5
16 -3 12 -6.5 3.6
16 3 -12 0.6 3.6
16 3 -12 11.1 6.7
16 3 -12 5.2 5.5
16 -4 -12 10.7 7.4
16 4 12 7.5 2.1
16 4 -12 7.7 6.1
16 -4 12 16.3 8.5
-16 -4 -12 15.2 8.6
-16 4 12 7.1 3.3
16 4 -12 1.8 5.1
16 4 -12 5.6 4.8
16 -5 -12 183.78 24.6
-16 5 12 207.38 15.4
16 5 -12 180.98 22.5
16 5 -12 136.19 16.9
16 -5 12 179.08 29
-16 -5 -12 168.78 23
16 5 -12 140.89 20.2
16 -6 -12 16.6 9.7
16 6 -12 18.4 5.6
16 -6 12 28.1 12.1
16 6 -12 15.2 7.8
16 6 -12 22.5 8.9
16 -7 -12 15.1 8.9
-16 7 -12 7.3 10.3
16 7 -12 15.2 7
16 -7 12 1.6 6.1
16 7 -12 23.2 8.7
-17 0 12 11.4 5.3
17 0 -12 5.7 6.9
17 0 12 17.1 7.9
17 0 -12 12.5 5.7
17 -1 -12 62.99 15.3
17 1 12 79.09 15.1
-17 -1 12 79.29 12.6
17 -1 -12 57.39 11.4
17 1 -12 63.79 13.3
17 -1 12 60.89 14.8
-17 1 12 70.19 11.7
17 1 -12 67.69 15.7
17 -2 -12 176.78 26.1
17 -2 -12 212.18 22.5
17 2 12 217.68 23.5
17 2 -12 211.68 24.5
17 2 -12 243.78 22.1
17 2 -12 206.98 27.2
17 -2 12 216.08 27.1
-17 2 12 234.98 21.9
17 -3 -12 58.79 15.5
17 3 12 45.2 8.7
17 -3 -12 52.49 10
17 3 -12 50.79 13.1
17 3 -12 44.2 11.1
17 3 -12 51.09 9.5
-17 3 12 55.09 9
17 -3 12 30.7 12
17 4 12 152.58 12.2
17 -4 -12 96.09 21.3
17 -4 12 132.99 20.8
17 4 -12 137.79 15.7
17 4 -12 133.09 19.7
-17 4 12 130.09 14.2
17 -5 -12 86.69 19.6
17 5 -12 106.59 13.4
17 5 -12 109.09 16.5
17 5 -12 133.29 18.3
17 -5 12 140.79 21.4
17 -6 -12 0.7 6.5
17 6 -12 2.3 6.5
17 6 -12 3.1 4.4
17 6 -12 0.7 5.6
17 -6 12 6.2 7.5
17 -7 -12 12.3 10.1
17 7 -12 0.4 6.5
17 -7 12 6.7 10
17 7 -12 -0.3 6.7
18 0 -12 -1.5 3.1
18 0 12 -6.6 2.8
-18 0 12 -5.9 2.8
18 0 -12 0.9 4.3
18 1 12 25.3 9.2
18 -1 -12 22.9 10.8
18 -1 -12 24.3 7.9
18 -1 12 25.9 9.7
18 1 -12 23.7 8.6
-18 1 12 24.8 7.4
18 1 -12 27.8 10.8
18 -2 -12 32.4 12
18 2 12 43.8 10.6
18 -2 -12 33.9 9.2
-18 2 12 64.89 10.3
18 2 -12 30.6 11.6
18 2 -12 39 9.8
18 -2 12 31.6 11.4
18 3 12 1.9 4.2
18 -3 -12 3.2 3.6
18 -3 -12 10.2 7.3
-18 3 12 4.6 3.6
18 3 -12 -0.9 4.5
18 -3 12 -2.2 5.4
18 3 -12 3.3 5.2
18 -4 -12 180.68 26.3
18 4 12 230.08 17.4
18 4 -12 175.18 23.9
18 4 -12 191.18 20.6
18 4 -12 173.98 24.3
18 -4 12 190.18 27.1
-18 4 12 201.58 19.1
18 -5 -12 208.88 29.1
18 5 -12 224.08 27.2
18 5 -12 209.68 26.1
18 5 -12 199.58 21.5
-18 5 12 272.17 20.4
18 -5 12 230.28 30.3
18 -6 -12 10.7 10.2
18 6 -12 13.4 6.7
18 6 -12 4.1 5.7
18 -6 12 8.5 7.9
18 6 -12 28.1 10
19 0 -12 5.5 4.5
19 0 12 0.4 5.7
19 0 -12 14.5 8.8
19 1 12 68.39 14.5
19 -1 -12 53.89 15.5
19 -1 -12 57.29 12.2
19 1 -12 54.49 14.7
19 1 -12 59.49 12.7
19 -1 12 58.99 15.4
-19 1 12 61.99 11.5
19 2 12 173.38 19.5
19 -2 -12 142.29 22.5
19 -2 -12 143.79 18
19 2 -12 149.19 22.7
19 -2 12 129.89 21.2
19 2 -12 112.19 20.1
-19 2 12 141.49 16.3
19 -3 -12 27.2 11.7
19 3 12 42.3 9.3
19 3 -12 31.7 10.6
19 3 -12 25.2 10
-19 3 12 37 7.9
19 4 12 227.98 18.4
19 -4 -12 164.48 26.9
19 4 -12 165.48 24.6
-19 4 12 224.88 20.4
19 4 -12 205.08 25.6
19 -4 12 216.98 29
19 -5 -12 4.4 6.8
19 5 -12 -9.1 4.5
19 5 -12 0.1 5.7
19 -5 12 4.7 7.3
-19 5 12 -2 3
19 5 -12 -3.5 4.9
19 -6 -12 8.8 9.5
19 6 -12 8.6 6.7
19 -6 12 3 9.2
19 6 -12 4.2 5.8
20 0 -12 66.49 16.5
20 0 12 78.49 16.9
20 0 -12 66.39 13.8
20 -1 -12 63.29 13.5
20 1 12 94.39 17
20 -1 -12 54.39 16
20 1 -12 62.69 13.7
20 -1 12 55.99 15.3
20 1 -12 88.09 20
20 -2 -12 3.7 9.4
20 -2 -12 -0.5 3.1
20 2 12 -5.3 3.3
-20 2 12 0.3 4.3
20 2 -12 -3.1 3.4
20 2 -12 -2.1 4.8
20 -3 -12 3 8.9
20 3 12 20.6 7
20 -3 12 23.3 11.2
-20 3 12 24.2 8.6
20 3 -12 1.4 5.6
20 3 -12 6.2 7.5
20 4 12 1.6 3.1
20 -4 -12 -2.7 5.1
-20 4 12 -2 3.2
20 4 -12 2.8 6.4
20 -4 12 19.1 9.3
20 4 -12 5.9 7.4
20 -5 -12 9.2 7.8
-20 5 12 6.9 4.3
20 -5 12 16.7 9.7
20 5 -12 0.8 6.7
20 5 -12 3.9 6.2
20 -6 -12 56.39 16.9
20 -6 12 38.4 12.9
20 6 -12 10.9 8.2
20 6 -12 14.8 7.5
20 6 -12 35.1 11.5
21 0 -12 2 5.4
21 0 12 -6 4.3
21 0 -12 0.4 4.1
21 -1 -12 67.99 17
21 -1 -12 48.6 12.2
21 1 12 49.8 13.9
21 -1 12 48.4 15.8
21 1 -12 34.9 12.8
21 -2 -12 7.2 8.5
21 2 12 11.9 7.2
21 -2 -12 12.4 6.9
21 -2 12 14.2 8
21 2 -12 17.1 10.9
21 2 -12 17.3 8.5
21 3 12 -0.6 4.5
21 -3 -12 9.1 8
21 -3 12 1.3 6.4
21 3 -12 5.1 5.1
-21 3 12 -4.2 4.3
21 -4 -12 29 12
21 4 -12 25.4 12.4
21 -4 12 36.3 13.4
21 4 -12 21.1 9.5
-21 4 12 40.4 9.3
21 -5 -12 1.6 6.6
-21 5 12 3.9 4.2
21 5 -12 -9.1 4.4
21 -5 12 -3 11.3
21 5 -12 16.7 8.3
22 0 -12 2.1 6.5
22 0 -12 -1.7 6.7
22 0 12 -6.8 5.8
22 1 12 18.6 8.7
22 -1 -12 16.4 6.6
22 -1 -12 14.7 10.2
22 -1 12 9.2 8.6
22 1 -12 10.6 6.5
22 1 -12 20.2 10.7
22 2 12 1.2 4.9
22 -2 -12 9.5 9.5
22 2 -12 -1.1 6.4
22 2 -12 0.6 4.2
22 -2 12 3.6 6.7
22 3 12 1.5 5.1
22 -3 -12 -4 5.6
22 3 -12 2 6.5
22 -3 12 -4.2 6.8
22 3 -12 -8.8 4.3
22 -4 -12 -4 6.9
22 4 12 1.8 4.6
-22 4 12 5.1 4.4
22 4 -12 -7.6 6.5
22 4 -12 5.2 6.2
22 -4 12 12.4 8.3
22 -5 -12 59.59 16.8
22 5 -12 48.6 13.8
22 5 -12 50.99 16.1
-22 5 12 80.69 10.5
22 -5 12 46.1 16.4
23 0 12 183.18 24.3
23 0 -12 150.78 28.5
23 0 -12 138.89 20.6
23 -1 -12 15.1 7.2
23 1 12 4 6.3
23 -1 -12 8.4 9
23 1 -12 7.9 8.5
23 1 -12 15.2 8.4
23 -1 12 4.3 6.9
23 -2 -12 13.3 9.2
23 2 12 23.2 9.4
23 2 -12 24.6 9.2
23 2 -12 15.8 9.6
23 -2 12 42 14.2
23 -3 -12 61.69 18.1
23 3 12 75.19 13.6
23 3 -12 56.79 14.6
23 3 -12 67.89 17.8
23 -3 12 51.39 16.2
23 4 12 2.3 4.5
23 -4 -12 -4.4 5.5
23 4 -12 -0.5 6.4
23 -4 12 18.2 8.6
23 4 -12 3 6.3
24 0 12 -3.5 6.1
24 0 -12 -2.5 6.1
24 0 -12 3.4 5.6
24 -1 -12 52.59 16.6
24 1 12 92.19 18
24 -1 12 72.89 18.5
24 1 -12 55.99 16.9
24 1 -12 71.99 15.7
24 2 12 1 5.7
24 -2 -12 2.2 6.7
24 2 -12 0.4 6
24 -2 12 3.5 7.3
24 2 -12 -0.5 8.1
24 3 12 21.1 7.9
24 -3 -12 31 12.7
24 3 -12 8.6 8.9
24 3 -12 9.4 9.1
24 -3 12 19.3 10.1
25 0 -12 102.19 24
25 0 -12 132.49 21.4
25 0 12 110.29 22.2
25 -1 -12 13.6 10.2
25 1 12 6.6 8
25 -1 12 4.8 7.7
25 1 -12 4.8 8.5
25 1 -12 4.5 7.6
25 -2 -12 64.59 19.6
25 2 12 78.39 16.4
25 -2 12 55.59 16.7
25 2 -12 61.69 15.5
25 2 -12 39.4 15.6
26 0 12 27.4 11.7
26 0 -12 55.19 16.2
26 1 -12 18.5 9.5
0 0 -13 4.8 2.3
0 0 13 1.8 2.3
0 -1 13 0.5 2.4
0 1 -13 2.6 2.3
0 1 -13 0.2 1.1
0 1 13 0.5 1.3
0 2 -13 496.25 43.6
0 2 -13 507.05 41.3
0 -2 -13 554.04 40.6
0 3 -13 -0.6 1.6
0 3 -13 -0.6 2.2
0 -3 -13 -1.7 1.2
0 -3 13 2.4 3.4
0 -4 -13 687.73 51.39
0 4 -13 701.13 53.89
0 4 -13 650.53 56.49
0 -5 13 1.3 4.2
0 -5 -13 0.3 1.2
0 5 -13 3.1 4.1
0 5 -13 -4 2.1
0 -6 -13 980.5 75.39
0 -6 -13 1163.28 74.89
0 6 -13 943.81 80.09
0 6 -13 1010.5 79.19
0 -6 -13 952.2 75.09
0 -7 13 5.2 5.9
0 7 -13 2.1 3.6
0 7 -13 4.5 3.5
0 -8 -13 58.39 5.8
0 8 -13 71.89 12
0 -9 -13 1.5 2.8
0 -9 13 -2.3 5.6
0 9 -13 6.8 4.5
1 0 -13 2.7 1.8
1 0 13 5.3 2.8
-1 0 13 0.1 1.9
-1 0 -13 1.7 2.4
1 0 -13 0.7 1.4
-1 -1 13 35.2 7
-1 1 -13 15.7 4.7
1 1 13 27 4.8
1 -1 -13 16.8 3.5
1 -1 -13 17.4 4.4
1 -1 13 33.5 6.9
1 1 -13 15.6 3.8
1 1 -13 17 4.8
-1 2 -13 138.79 12.8
1 -2 -13 148.29 12.3
-1 2 -13 109.69 14.6
1 -2 -13 138.39 11.8
1 2 -13 131.69 12.9
1 2 -13 115.79 14.1
-1 -2 -13 138.89 12.5
-1 3 -13 547.85 48.2
1 -3 -13 578.34 43.3
-1 3 -13 547.25 44.4
-1 -3 -13 621.04 43.7
1 3 -13 487.05 46.7
1 3 -13 597.64 45.4
-1 4 -13 48.6 7.6
1 -4 -13 42.5 5.2
-1 4 -13 41.2 10.3
1 -4 -13 52.99 5.2
-1 -4 -13 49.2 5.4
1 4 -13 41.3 9.1
1 -4 13 67.79 12.2
1 4 -13 37.7 7.4
-1 5 -13 45 8
-1 5 -13 44.2 10.3
1 -5 -13 53.99 5.2
-1 -5 -13 45.4 5.2
1 5 -13 44.6 9.7
-1 -5 -13 49.6 6.7
1 5 -13 57.59 9.4
1 -5 13 76.49 11.8
1 -6 -13 110.09 9.1
-1 6 -13 118.79 13
1 -6 -13 127.69 9
-1 6 -13 118.29 14.6
-1 -6 -13 94.39 10.3
1 6 -13 124.29 13.8
-1 -6 -13 112.69 9.9
1 6 -13 98.89 13.5
-1 7 -13 165.68 17
-1 7 -13 162.98 17
1 7 -13 149.29 16.9
-1 -7 -13 152.78 12.1
-1 -7 -13 159.88 12.8
1 7 -13 132.19 15.9
-1 -7 -13 166.48 12
1 7 -13 147.79 15.9
-1 -8 13 82.09 14
-1 8 -13 46.2 9.4
-1 -8 -13 53.69 5.5
1 8 -13 42.5 9.5
1 -8 13 96.39 13.9
-1 -9 13 51.89 12
1 -9 -13 46.4 6.6
-1 9 -13 33 8.6
1 9 -13 25.1 7.5
-1 -9 -13 38.6 4.3
1 -9 13 66.99 12.7
-2 0 13 -1.9 1.9
2 0 -13 -0.5 1.5
2 0 13 1.2 2.6
-2 0 -13 -0.3 2.2
2 0 -13 -2.1 1.2
-2 1 -13 408.66 37.9
2 -1 -13 477.05 35.4
2 -1 -13 451.65 35
2 1 -13 446.66 36.5
2 1 -13 455.15 35.8
-2 -1 -13 425.46 36.5
2 -2 -13 571.84 42
2 -2 -13 551.24 43.1
-2 2 -13 521.35 46.4
-2 -2 -13 562.74 43
2 2 -13 546.95 43.5
2 2 -13 505.35 44.3
-2 3 -13 154.88 14.1
-2 3 -13 139.39 17.3
2 -3 -13 138.99 13
2 -3 -13 162.58 13.1
-2 -3 -13 159.48 13.7
2 3 -13 159.68 15.3
2 3 -13 141.89 16.2
-2 4 -13 157.48 15.2
-2 4 -13 146.09 18.2
2 -4 -13 182.18 13.8
2 4 -13 144.79 16
2 -4 13 213.88 20.4
-2 -4 -13 161.08 14
2 4 -13 135.29 17.2
2 -5 -13 380.76 26.7
-2 5 -13 312.47 28.9
-2 5 -13 316.67 32.1
2 5 -13 347.47 31.9
-2 -5 -13 338.97 28.8
2 5 -13 307.87 30
-2 -5 -13 374.86 27.2
-2 6 -13 195.78 22.4
-2 6 -13 230.18 20.8
2 6 -13 221.98 21.7
2 6 -13 188.88 21.4
-2 -6 -13 213.38 18.9
-2 -6 -13 243.38 17.8
-2 7 -13 7.1 4.5
-2 7 -13 4.8 3.3
-2 -7 13 22.6 8.3
2 -7 13 6.5 6.6
-2 -7 -13 7.3 2.3
2 7 -13 8.1 3.7
2 7 -13 5.4 3.5
2 7 -13 8.6 4.2
-2 8 -13 18.1 6.5
-2 -8 13 67.49 12.7
2 -8 13 58.09 12.3
2 8 -13 25.2 7.1
-2 -8 -13 32.8 4.1
2 -9 -13 24 5.6
-2 -9 13 19.1 9.3
-2 9 -13 14.7 5.9
2 9 -13 13.1 5.8
-2 -9 -13 12 2.4
2 -9 13 25.3 10.3
3 0 13 -2 2.4
-3 0 -13 -0.1 2
3 0 -13 -2.2 1.1
3 0 -13 1.3 1.8
-3 1 -13 122.49 15
3 -1 -13 112.19 11.8
-3 -1 13 159.78 14.5
3 -1 -13 131.69 12
3 1 -13 131.69 12.9
3 1 -13 123.99 12.9
-3 -1 -13 123.89 13.4
-3 2 -13 2.9 3.1
3 -2 -13 0 1.3
3 -2 -13 -0.3 1.4
-3 -2 -13 -2.8 1.4
3 2 -13 0.1 2.1
3 2 -13 1.3 2.1
3 -3 -13 263.17 24.7
3 -3 -13 342.57 24.2
-3 3 -13 297.77 24.7
-3 3 -13 306.27 29.6
3 3 -13 321.97 26.7
3 3 -13 270.37 26.7
-3 -3 -13 294.37 24.8
3 -4 -13 68.59 7.1
-3 4 -13 77.69 8.6
-3 4 -13 74.89 13.7
3 4 -13 59.79 11
3 -4 13 104.69 13.9
3 4 -13 75.89 9.8
-3 -4 -13 67.19 7.7
-3 5 -13 27.3 7.8
3 -5 -13 30.2 3.7
-3 5 -13 31.3 6.1
3 -5 13 52.39 11.2
3 5 -13 32.8 7.6
-3 -5 -13 35.6 6.5
3 5 -13 40.9 8.4
-3 -5 -13 37 4.9
-3 6 -13 51.09 11
-3 6 -13 51.09 8.8
-3 -6 13 88.69 12.7
-3 -6 -13 51.79 7
3 -6 13 86.09 13.3
3 6 -13 48.8 9.5
-3 -6 -13 55.99 6.4
3 6 -13 63.19 10.8
-3 -7 13 36.3 9.4
-3 7 -13 23.9 6
-3 -7 -13 16.7 3.6
3 7 -13 23.2 5.7
3 7 -13 28.5 7.3
-3 -7 -13 23.6 4.5
3 -7 13 30.4 9.7
3 7 -13 24.4 5.7
-3 -8 13 6.8 6.1
3 -8 -13 1.4 3
-3 8 -13 -2.4 3.3
-3 -8 -13 -1.3 1.6
3 8 -13 9.4 5.1
-3 -8 -13 1.8 1.1
3 -8 13 -4.7 4.2
3 -9 -13 16.8 5.4
-3 9 -13 11.9 5.2
-3 -9 13 14.5 8.2
-3 -9 -13 17.5 2.9
3 9 -13 11.9 4.9
4 0 -13 -1.5 1.4
4 0 13 -3.8 2.3
-4 0 -13 -0.7 2.6
4 0 -13 -1.3 1.6
-4 -1 13 2.8 2.9
4 1 13 4.2 2.7
4 -1 -13 2.9 1.8
-4 1 -13 0 2.7
4 -1 -13 5.9 2.4
4 1 -13 0.2 2
4 1 -13 4.6 2.5
4 -1 13 2.1 3.7
-4 -1 -13 -2.2 2
-4 -2 13 84.79 10.3
-4 2 -13 61.09 12.2
4 -2 -13 60.49 7.1
4 2 13 60.19 6.5
4 -2 -13 58.59 6.9
-4 -2 13 80.49 8.7
4 2 -13 60.59 8.3
4 -2 13 72.79 10.6
4 2 -13 42.5 8.1
4 -3 -13 15.3 3.3
-4 3 -13 15.4 6.9
-4 -3 13 34.1 7.8
-4 -3 13 19.9 5
4 3 -13 17.4 5
4 -3 13 12.2 5.9
-4 -3 -13 13.7 4.1
4 3 -13 13.2 4.9
-4 -4 13 49.99 9.5
-4 4 -13 25.7 4.7
4 -4 -13 20.7 3.6
-4 4 -13 24.6 7.5
4 -4 13 30.1 8.8
4 4 -13 13.6 5
4 4 -13 21 6.1
-4 -4 -13 15.9 4.3
-4 5 -13 -1.4 4.6
-4 -5 13 9.8 5.6
4 -5 -13 2.4 1.2
-4 5 -13 1.3 2.4
4 5 -13 4.7 4.3
-4 -5 -13 1.9 2.5
-4 -5 -13 5.6 3.1
4 -5 13 -0.2 3.9
4 5 -13 -0.7 3.1
-4 6 -13 179.18 21
-4 6 -13 199.28 18.5
4 6 -13 174.08 19.5
4 6 -13 252.17 23.9
4 6 -13 204.48 20.7
-4 -6 -13 194.38 18.2
-4 -6 -13 186.08 16.8
-4 -7 13 38.1 9.7
-4 7 -13 21.6 5.6
4 7 -13 22 7.1
4 7 -13 13.2 4.5
4 -7 13 34.3 9.4
4 7 -13 15.6 5
-4 -7 -13 18.6 4.3
-4 -7 -13 15.4 3.4
4 -8 -13 264.87 23.3
-4 8 -13 237.08 18.4
-4 8 -13 243.28 22.6
-4 -8 -13 204.68 19
4 8 -13 236.28 24.6
-4 -8 -13 230.18 19
-4 -9 13 -4.9 4.7
-4 9 -13 1.5 4.1
4 -9 -13 2.2 4
4 -9 13 -2.7 8.5
4 9 -13 8.7 5
5 0 13 -3.3 3
-5 0 -13 -2.2 2.4
5 0 -13 -2 1.2
5 0 -13 -2.4 1.6
5 -1 -13 161.88 15.7
-5 1 -13 133.89 18.3
-5 -1 13 195.68 16.5
5 -1 -13 171.48 15.3
5 1 -13 134.49 19.7
-5 -1 -13 150.98 17.5
5 1 -13 195.18 16.3
5 -1 13 196.78 18.8
-5 2 -13 46.6 10.9
5 2 13 66.39 6.5
-5 -2 13 55.89 7.5
-5 -2 13 62.29 8.7
5 -2 -13 47.1 6.5
5 -2 -13 43.8 6.1
5 -2 13 63.69 9.8
5 2 -13 60.69 8.3
-5 -2 -13 43.9 8.7
5 2 -13 52.39 7.6
-5 3 -13 470.65 44.5
5 -3 -13 492.55 38.6
5 3 -13 443.76 40.4
5 3 -13 488.75 41.4
5 -3 13 596.14 45.2
-5 4 -13 29.5 8.7
5 -4 -13 22.5 4.1
-5 4 -13 28.4 5.3
-5 -4 13 47 9.2
-5 -4 13 37.1 7.4
5 4 -13 29 6.9
5 4 -13 20.8 5.9
-5 -4 -13 25.7 5.7
5 -4 13 32 9.1
-5 5 -13 338.97 32.5
-5 5 -13 363.56 28
5 -5 -13 323.97 24.6
5 5 -13 293.97 29.4
5 5 -13 365.56 30.9
-5 -5 -13 332.17 28.8
-5 -5 -13 302.67 27.3
-5 6 -13 1.5 4.3
-5 -6 13 0.3 3.7
-5 6 -13 7.8 3.4
5 6 -13 0 3.1
5 -6 13 -5.3 3.9
5 6 -13 -0.7 2.6
-5 -6 -13 -0.5 2.4
-5 -6 -13 -1.1 2.2
5 6 -13 -3.1 2.9
-5 -7 13 4.3 5.3
-5 7 -13 15.8 5.8
-5 7 -13 8.6 4
5 7 -13 5.9 3.3
-5 -7 -13 2.9 3.6
5 7 -13 4.6 4.3
5 -7 13 9.2 6.9
5 7 -13 5.8 4.1
-5 -7 -13 6.7 3.1
-5 8 -13 -1.2 2.6
-5 -8 13 0.3 5
5 -8 -13 0.1 3.9
-5 8 -13 2.6 3.2
-5 -8 -13 0.8 2.2
-5 -8 -13 6.4 2.9
5 -8 13 4 5.7
5 8 -13 10.3 4.3
-5 9 -13 -0.4 4.1
5 -9 -13 6.8 4.7
-5 -9 13 0 6.8
5 -9 13 -3.1 6.3
-5 -9 -13 8.8 3
5 9 -13 2.1 3.9
-5 -9 -13 3.1 1.5
-6 0 13 0.1 1.9
-6 0 -13 -0.7 2.7
6 0 -13 1.5 1.7
6 0 -13 -0.8 1.7
6 0 13 -0.5 3.4
-6 1 -13 152.48 19
6 -1 -13 153.88 14.9
6 -1 -13 148.99 15.4
-6 -1 13 212.08 16.6
6 1 -13 158.38 16.5
6 1 -13 171.78 15.6
-6 -1 -13 156.98 18
-6 -2 13 70.89 9.2
6 -2 -13 52.09 7
-6 2 -13 50.49 11.7
-6 -2 13 51.19 8.2
6 2 -13 50.89 9.2
6 2 -13 54.79 7.6
6 -2 13 69.79 11
-6 -2 -13 53.29 10.3
-6 -3 13 4.2 3.3
6 -3 -13 0.2 1.6
-6 3 -13 4.5 4.7
-6 -3 13 4.2 3.7
-6 -3 -13 0.7 2.5
6 3 -13 1 2.7
6 3 -13 5.6 3.4
6 -3 13 4.4 4.8
6 -4 -13 483.15 37.7
-6 4 -13 481.85 44.7
6 4 -13 483.25 41.9
6 4 -13 430.56 40.3
6 -4 13 584.14 45.9
-6 -5 13 49.7 9.4
-6 5 -13 46.3 10.6
-6 5 -13 54.09 7
-6 -5 13 62.09 11.4
6 -5 13 47.3 11.9
-6 -5 -13 42 8.2
-6 -5 -13 34.1 7.2
6 5 -13 44.7 9
6 5 -13 56.69 11.2
6 5 -13 37.4 8.7
-6 -6 13 65.59 11.2
-6 6 -13 45 7.7
-6 -6 13 79.69 11.8
-6 6 -13 45.1 10.8
-6 -6 -13 49 7.3
6 6 -13 58.19 11
-6 -6 -13 45.4 8.7
6 6 -13 50.89 10.2
6 6 -13 62.39 9.5
6 -6 13 65.99 14
-6 -7 13 45.2 10.3
6 -7 -13 19.3 6.2
-6 7 -13 26.6 7.9
-6 7 -13 19.8 5.1
6 7 -13 25 6.1
6 7 -13 18.5 7.2
6 7 -13 27.6 5.7
6 -7 13 22.3 9.2
-6 -7 -13 18 4.8
-6 -7 -13 18 4.9
-6 -8 13 86.79 13.2
6 -8 -13 60.79 11.4
-6 8 -13 60.19 8.5
-6 8 -13 61.49 10.1
-6 -8 -13 42.5 7.7
6 -8 13 83.79 16.7
6 8 -13 46.9 11.4
-6 -8 -13 59.99 7.8
6 -9 -13 33 8.6
-6 9 -13 35.6 6.7
-6 -9 -13 26.1 4.4
6 9 -13 28.6 8.7
6 -9 13 75.39 15.5
7 0 13 -2.2 2.5
7 0 -13 -1.3 1.5
-7 0 -13 -1.5 2.8
7 0 -13 -3.8 1.3
-7 -1 13 854.31 58.89
-7 1 -13 664.23 62.49
7 -1 -13 687.93 58.09
7 -1 -13 669.73 57.39
7 1 -13 660.93 58.99
7 -1 13 819.12 61.99
-7 1 13 886.71 59.69
7 1 -13 767.32 57.99
-7 -1 -13 712.83 61.59
-7 -2 13 120.79 11.7
7 -2 -13 96.29 10.5
-7 2 -13 83.09 13.7
7 -2 13 114.89 14.7
-7 -2 -13 76.69 11.6
7 2 -13 78.19 11.5
7 2 -13 106.49 11.1
-7 -3 13 0.3 2.6
-7 3 -13 0.6 3.9
7 -3 -13 1.3 1.8
-7 -3 13 -0.6 2.9
7 -3 13 -3.4 3.1
7 3 -13 3.7 3
7 3 -13 1.4 2.6
-7 -3 -13 -1.3 2.2
-7 -4 13 13.1 5.7
7 -4 -13 6.5 2.3
-7 -4 13 -0.9 3
-7 4 -13 9.3 6.5
7 -4 13 20.6 8.1
-7 -4 -13 4.2 3.4
7 4 -13 5 4
7 4 -13 11 5
-7 5 -13 331.97 25.8
-7 5 -13 278.87 30.6
7 -5 13 335.97 32.3
7 5 -13 303.27 29.1
-7 -5 -13 309.17 27.7
-7 -5 -13 303.67 26.8
7 5 -13 305.47 29.3
7 5 -13 244.48 26.5
-7 -6 13 100.29 12.2
-7 6 -13 69.79 8.6
-7 6 -13 64.49 13.3
-7 -6 13 99.79 12.8
-7 -6 -13 55.49 9.6
7 6 -13 55.59 9.5
7 6 -13 52.69 10.9
7 6 -13 60.09 12
-7 -6 -13 58.59 12.9
7 -6 13 80.59 16.1
7 -7 -13 265.47 25.3
-7 7 -13 229.98 24.5
-7 7 -13 234.08 21.4
7 -7 13 302.87 29.8
7 7 -13 244.98 25.2
7 7 -13 228.88 21.9
7 7 -13 199.28 20.9
-7 -7 -13 209.68 21.5
-7 8 -13 -0.2 3
-7 -8 13 -4.8 3.7
-7 8 -13 0.1 3.8
7 -8 13 5.5 6.7
7 8 -13 7.3 7.7
-7 -8 -13 4.1 3.1
7 -9 -13 25.6 7.8
-7 9 -13 18.3 5.6
-7 -9 13 9.8 6.7
-7 -9 -13 21.3 5.4
7 -9 13 23.9 10.6
7 9 -13 28.4 7.5
-7 -9 -13 19.7 4.4
-8 0 13 -1.7 2.1
-8 0 -13 -3.9 2.7
8 0 -13 2.2 1.8
8 0 -13 1.8 2.5
-8 1 -13 1127.49 97.99
8 1 13 1423.46 94.49
8 -1 -13 1078.09 92.09
8 -1 -13 1044.9 92.59
-8 -1 13 1350.96 93.49
-8 -1 -13 1126.29 96.49
-8 1 13 1392.26 92.49
8 1 -13 1166.68 94.19
8 -1 13 1253.67 96.49
8 1 -13 1221.58 92.59
-8 2 -13 1119.29 92.59
-8 -2 13 1255.57 87.29
8 -2 -13 1063.89 85.89
8 2 -13 1127.49 88.49
8 2 -13 1129.99 86.29
-8 -2 -13 1053.69 89.29
8 -2 13 1156.38 90.89
8 -3 -13 122.69 11.9
8 3 13 108.39 9.4
-8 3 -13 100.39 16.6
-8 -3 13 155.88 14.3
8 -3 13 133.19 17.3
8 3 -13 114.89 14.4
-8 -3 -13 115.19 14.1
8 3 -13 106.89 12.4
-8 -4 13 42.3 8.8
-8 -4 13 50.69 8.8
-8 4 -13 36.1 10.9
8 -4 -13 36.9 5.1
8 4 -13 43.3 10.1
-8 -4 -13 36.7 8.1
8 4 -13 26.4 7.3
8 -4 13 41.1 11.1
8 4 -13 26.2 6.8
-8 -5 13 0.4 3.5
-8 5 -13 1.9 5.1
-8 -5 13 -4.5 2.3
8 5 -13 0.9 2.9
8 -5 13 -2.7 5.1
8 5 -13 -1.8 2.7
8 5 -13 5.6 4.4
-8 -5 -13 -3.3 3.3
-8 -5 -13 -2.6 2.9
-8 -6 13 -1.4 4.6
-8 -6 13 3.9 3.9
-8 6 -13 1.7 2.5
-8 6 -13 8.8 6
-8 -6 -13 1.6 3.3
8 6 -13 1.4 4.1
8 6 -13 -2.1 3.4
-8 -6 -13 0.2 3.9
8 6 -13 7.6 4.1
8 -6 13 2.3 4.6
-8 7 -13 4.7 2.9
-8 -7 13 5.5 5.2
8 -7 -13 1.4 3.5
-8 7 -13 9.3 5.8
-8 -7 -13 1.3 3.3
8 7 -13 3.1 3.5
8 -7 13 10.4 7.2
-8 -7 -13 5.3 3.7
8 7 -13 -0.1 3.3
8 7 -13 1.6 3.9
-8 8 -13 499.95 44.8
8 -8 -13 619.24 50.29
-8 8 -13 577.34 45.6
-8 -8 -13 549.45 45.5
8 8 -13 540.75 49.2
-8 -8 -13 524.65 44.6
-8 -9 13 54.89 11.8
-8 9 -13 39.7 8.6
8 -9 -13 56.29 12
8 -9 13 59.39 15.8
-8 -9 -13 60.99 7.9
8 9 -13 37.5 11
9 0 13 0.9 3.6
-9 0 -13 -1 3.5
9 0 -13 -0.9 2.1
9 0 -13 1.6 3.1
9 -1 -13 227.78 23.5
9 1 13 303.17 25.4
-9 1 -13 258.07 28.6
-9 -1 13 270.57 23.9
9 1 -13 272.67 23.4
9 -1 13 258.17 26.7
-9 1 13 308.97 23.4
9 1 -13 233.68 24.6
-9 -1 -13 237.08 26.9
9 2 13 217.98 17.1
-9 2 -13 145.99 20.9
9 -2 -13 146.69 16.4
-9 -2 13 180.28 17.5
-9 2 13 199.58 17.5
9 -2 13 174.18 20.7
-9 -2 -13 156.78 19.5
9 2 -13 171.98 16.8
9 2 -13 159.18 18.5
9 3 13 1024 66.39
-9 3 -13 822.12 75.19
-9 -3 13 1064.79 71.39
9 -3 -13 756.22 68.09
9 3 -13 817.92 71.69
-9 -3 -13 803.82 71.69
9 3 -13 924.81 74.89
9 3 -13 867.51 69.39
9 -3 13 920.11 74.89
-9 4 -13 1.6 5.2
9 -4 -13 0.4 1.7
-9 -4 13 0.8 5.8
9 4 -13 1 2.3
9 4 -13 -5.6 2.5
9 -4 13 -3.5 4
-9 -4 -13 -1.8 2.9
-9 -4 -13 -4 3.4
9 4 -13 -0.5 3.6
-9 5 -13 3.4 4.5
9 -5 -13 6.3 4
-9 -5 13 6.2 3.9
9 5 -13 10.3 5.8
9 5 -13 6.6 3.4
9 5 -13 4.6 4.9
9 -5 13 3.1 6.1
-9 -5 -13 16 5
-9 -5 -13 5.1 3.9
-9 6 -13 17.7 7.3
-9 6 -13 9.4 3.9
9 -6 -13 15.7 7.1
-9 -6 -13 10.5 5.3
-9 -6 -13 10.5 5.3
9 6 -13 14.1 6.7
9 6 -13 14.7 4.9
9 6 -13 16.3 5.9
9 -6 13 14.9 8.2
-9 7 -13 134.39 13.7
-9 -7 13 162.68 17.5
-9 7 -13 106.79 16.7
9 -7 -13 133.29 17.6
9 7 -13 125.19 16.8
-9 -7 -13 137.49 15
9 7 -13 108.89 13.1
-9 -7 -13 107.79 14.5
9 -7 13 177.58 21.9
9 7 -13 127.59 14.4
9 -8 -13 22.8 8.5
-9 8 -13 34.5 7
-9 8 -13 21.6 7.5
9 -8 13 28.7 11
9 8 -13 25.7 8.8
-9 -8 -13 14.4 7.2
-10 0 -13 -5.1 3.4
10 0 -13 -2.3 2
-10 0 13 -2.4 2
10 0 13 -0.9 3.1
10 0 -13 0.9 2.7
-10 1 -13 413.76 41.5
10 -1 -13 378.56 36.6
-10 -1 13 452.55 36.7
10 1 13 482.75 38.6
-10 -1 -13 407.66 40.3
10 1 -13 393.16 37.4
10 -1 13 465.75 40.4
-10 1 13 471.25 35.8
10 1 -13 437.36 36
10 -2 -13 613.04 56.99
-10 -2 13 799.42 58.79
-10 2 -13 645.14 63.19
10 2 13 867.21 57.89
10 2 -13 756.12 63.49
10 2 -13 725.23 57.39
-10 -2 -13 616.14 60.49
10 -2 13 745.93 62.59
-10 2 13 826.42 56.69
10 2 -13 647.34 59.39
-10 3 -13 147.89 21.1
-10 -3 13 199.38 18.2
10 -3 -13 147.59 15.5
-10 3 13 191.78 15
10 3 -13 165.48 16.4
10 3 -13 159.78 18.7
-10 -3 -13 132.29 17.9
10 3 -13 180.38 21
10 -3 13 136.89 19.4
10 -4 -13 19.5 4.2
10 -4 -13 16.6 6.6
-10 4 -13 14 6.8
-10 -4 13 15.7 5.4
-10 -4 -13 12.1 4.7
10 4 -13 9.6 6
10 4 -13 14.3 5.3
-10 -4 -13 15 6
10 4 -13 9.1 5.6
10 -4 13 17 8.3
-10 5 -13 15 6.8
-10 -5 13 15.9 5.4
10 -5 -13 4.7 5
-10 -5 -13 6.2 4.1
10 -5 13 5.8 6.5
10 5 -13 3 3.4
10 5 -13 12.8 5.7
-10 -5 -13 12.1 4.9
10 5 -13 8.4 5.8
-10 6 -13 6 6.2
-10 6 -13 -3.6 1.7
10 -6 -13 3.1 5.1
-10 -6 -13 2.6 4.1
10 6 -13 1.2 3.7
10 6 -13 3.6 4.5
10 6 -13 2.1 4.4
10 -6 13 -0.2 5.9
-10 -6 -13 1.4 3.8
-10 7 -13 6.5 6.3
-10 7 -13 -0.8 2.7
10 -7 -13 3.2 4.8
10 7 -13 6.5 4.3
-10 -7 -13 13 5.3
10 -7 13 -0.7 6.8
10 7 -13 7 4.3
-10 8 -13 47.3 8.7
10 -8 -13 62.39 14.1
10 8 -13 54.89 12.3
-10 -8 -13 49.1 10.3
10 -8 13 57.89 15.8
-11 0 -13 2.9 4.1
11 0 -13 -3 2.6
-11 0 13 -3.4 1.7
11 0 13 -4 2.3
11 0 -13 -0.1 2.4
11 0 -13 -1.1 1.8
11 -1 -13 9.2 5.2
11 -1 -13 3.5 3.4
11 1 13 5.8 4.3
-11 -1 13 10.8 4.2
-11 1 -13 2.1 5.3
11 1 -13 6 4
-11 -1 -13 17.1 7.3
11 1 -13 8.9 3.7
11 -1 13 4 4.5
-11 1 13 5 3.3
11 1 -13 7.4 6
-11 -2 13 12.1 4.7
11 -2 -13 8.3 3.3
11 2 13 11.8 4.6
-11 2 -13 9.5 6.7
11 -2 -13 13.3 7.5
11 2 -13 11.5 4.4
-11 2 13 10 3.6
11 2 -13 10.7 4.6
-11 -2 -13 7.5 6.2
11 -2 13 8.8 6.1
11 2 -13 17.5 7.9
11 -3 -13 -2.4 4.3
11 -3 -13 -1.9 1.5
-11 -3 13 0.6 4
-11 3 -13 1.4 5.2
11 3 13 0.5 1.9
11 3 -13 -3 3.3
11 -3 13 -2.9 3.8
11 3 -13 4.8 4.2
-11 -3 -13 4 4.4
-11 3 13 0.4 2
11 3 -13 2.9 3.3
-11 4 -13 74.79 14.8
11 -4 -13 61.59 7.6
11 -4 -13 58.59 13.1
-11 -4 13 60.39 10.6
11 4 -13 48.5 10.8
11 4 -13 60.09 12.9
-11 -4 -13 49.6 11.4
-11 -4 -13 52.49 11
11 -4 13 64.49 15.1
11 4 -13 55.09 8.2
11 -5 -13 30.3 9.6
-11 5 -13 36.1 9.5
11 5 -13 29.7 8.6
-11 -5 -13 33.9 8.9
11 -5 13 34.5 11.8
11 5 -13 25 6.6
11 5 -13 33.1 9.1
-11 -5 -13 25.5 7.3
-11 6 -13 162.98 23.3
11 -6 -13 229.88 24.8
11 6 -13 185.98 21.5
11 -6 13 238.38 27.5
-11 -6 -13 191.38 21.3
11 6 -13 163.48 18.8
11 6 -13 227.58 24
-11 -6 -13 235.48 24.5
-11 7 -13 52.29 8.3
-11 7 -13 47.4 11.8
11 -7 -13 36 11.3
11 7 -13 34.5 7.2
-11 -7 -13 52.79 10.8
11 7 -13 51.19 12
-11 -7 -13 56.19 9
11 7 -13 39.8 11.4
11 -7 13 43.3 16.2
-11 8 -13 30 11.6
11 -8 -13 31.3 10
-11 8 -13 18.4 5.6
11 -8 13 33.4 12.2
11 8 -13 26.9 7.8
-11 -8 -13 24.1 8.2
-12 0 13 -2 2.5
12 0 -13 -0.5 2.6
12 0 -13 -2.6 3
12 0 -13 -1.1 3
-12 0 -13 2.2 5.2
12 0 13 -1.9 3.4
12 -1 -13 592.14 52.09
-12 1 -13 526.75 51.89
-12 -1 13 557.04 46.1
12 1 13 580.14 47.8
12 -1 -13 500.95 46
12 1 -13 632.84 52.89
-12 -1 -13 507.55 50.39
12 1 -13 593.24 45.8
12 -1 13 530.15 49.5
-12 1 13 600.64 45.4
12 1 -13 508.65 47.3
12 -2 -13 145.59 20.2
12 2 13 164.58 16.6
-12 -2 13 152.18 16.9
12 -2 -13 151.38 16.3
-12 2 -13 146.69 21.3
-12 -2 -13 135.49 19.4
12 -2 13 146.89 19.9
12 2 -13 157.98 20.7
12 2 -13 151.38 18.3
-12 2 13 170.18 15.5
12 2 -13 167.78 16.2
12 -3 -13 878.31 71.59
12 -3 -13 731.43 64.39
12 -3 13 808.22 71.09
-12 -3 -13 725.83 68.49
12 3 -13 893.51 65.29
12 3 -13 776.22 68.19
-12 3 13 977.4 63.79
12 3 -13 772.72 70.19
-12 4 -13 19 9.9
12 -4 -13 14.2 4
-12 -4 13 18.6 6.6
12 -4 -13 21.1 7.7
12 4 -13 26 8.1
12 4 -13 17.2 5.3
-12 -4 -13 20.4 6.9
12 4 -13 25.1 7.4
-12 -4 -13 23 8.2
12 -4 13 10.4 7.4
12 -5 -13 62.19 13.8
-12 5 -13 61.69 14
12 5 -13 45.2 11.1
-12 -5 -13 51.49 11.4
12 5 -13 38.1 8.2
12 5 -13 56.89 11.9
-12 -5 -13 63.79 14.2
12 -5 13 52.19 14.1
12 -6 -13 16.2 8.5
12 6 -13 26.3 8
-12 -6 -13 32.8 7.6
-12 -6 -13 30.4 8.8
12 -6 13 16.7 9.3
12 6 -13 25.1 7.9
12 6 -13 17.9 5.4
-12 7 -13 5 7.5
-12 7 -13 0.4 2.4
12 -7 -13 8.3 6.1
-12 -7 -13 19 6.3
12 7 -13 -2.6 5.1
-12 -7 -13 10.4 5.4
12 7 -13 14.3 6.6
-12 8 -13 -3.1 3.1
-12 8 -13 9.8 8.2
12 -8 -13 10.4 7.5
-12 -8 -13 7.7 6.8
12 8 -13 4.4 5.5
12 -8 13 -2.1 7.8
13 0 -13 -3.4 1.9
-13 0 13 3.8 3.4
13 0 -13 1.7 4.8
13 0 13 1.6 4.2
13 0 -13 -1.3 1.9
-13 0 -13 -2.6 4.2
13 1 13 6 4.9
13 -1 -13 2 5
13 -1 -13 2.7 3.8
-13 -1 13 1.6 3.8
13 1 -13 0.1 3.3
13 1 -13 13.6 7.4
13 -1 13 7.8 6
-13 -1 -13 7.6 5.8
13 1 -13 3.7 3.7
-13 1 13 1 2.3
-13 2 -13 69.09 15.8
13 2 13 64.59 12.3
13 -2 -13 51.79 13.5
13 -2 -13 37.8 8.2
13 2 -13 61.99 8.5
13 2 -13 54.99 13.4
-13 -2 -13 64.19 14.7
13 2 -13 39.6 9.9
13 -2 13 52.79 13.3
-13 2 13 55.19 7.5
13 -3 -13 0.8 5.8
-13 3 -13 2.5 6.5
13 3 13 9.6 3.4
13 -3 -13 6.9 3.1
13 -3 13 15.5 8.1
13 3 -13 6.6 6.2
-13 3 13 12 3.9
13 3 -13 9.7 4.3
-13 -3 -13 12.3 7.1
13 3 -13 3.7 5
-13 4 -13 20.2 9.2
13 -4 -13 17.2 4.3
13 -4 -13 10.4 5.5
-13 -4 -13 16.9 7.2
13 4 -13 19.4 5.8
-13 -4 -13 21.2 7.9
13 -4 13 27.6 10.9
13 4 -13 11.7 5.6
-13 4 13 19.6 4
13 4 -13 11.7 6.3
-13 5 -13 2.7 6.5
13 -5 -13 0.6 4.4
13 5 -13 2.7 3.7
13 5 -13 3.4 4.5
13 -5 13 -0.7 5.4
-13 -5 -13 -2.2 4.8
13 5 -13 3 4.5
-13 -5 -13 4.2 5.3
13 -6 -13 45.5 12.9
-13 6 -13 34.5 12.3
-13 -6 -13 59.09 12.4
13 6 -13 60.89 14.2
13 6 -13 43.7 10.5
13 -6 13 67.99 16.1
-13 -6 -13 48.4 9.7
13 6 -13 37.5 7.9
13 -7 -13 20.7 9.3
-13 7 -13 28.6 6.2
-13 7 -13 26.7 11.2
13 7 -13 9.6 7.1
13 -7 13 33.3 11.4
13 -8 -13 0.3 6.6
-13 8 -13 -1.3 2.7
-13 8 -13 20.3 9.1
13 8 -13 9.8 7.9
13 -8 13 -6.8 6.9
-13 -8 -13 2.4 7.1
-14 0 -13 1.9 4.9
-14 0 13 3.2 3.6
14 0 -13 -2.4 2.6
14 0 13 -4.7 3.1
14 0 -13 3.8 5.2
14 -1 -13 79.19 13.3
14 1 13 79.99 12.7
14 -1 -13 97.29 18.3
-14 -1 13 79.79 12.9
14 1 -13 77.39 10.7
14 1 -13 67.79 13
-14 1 13 99.89 11.5
-14 -1 -13 92.39 20.4
14 -1 13 79.09 15.5
14 1 -13 76.09 16.4
14 -2 -13 32.2 8
-14 -2 13 45.7 9.1
14 -2 -13 37.1 11.6
-14 2 -13 33.7 12.2
14 2 13 49.1 9.5
14 2 -13 28.6 10
14 -2 13 43.6 11.8
14 2 -13 40.6 8.4
14 2 -13 38.2 10.2
-14 2 13 46.3 8
14 -3 -13 19.1 5.7
-14 3 -13 24.2 9.3
14 3 13 20.1 4.9
14 -3 -13 14.9 7.7
-14 -3 -13 26.2 6.5
14 3 -13 19.2 8.7
14 -3 13 16.7 8.5
14 3 -13 24.1 6.5
14 3 -13 16.2 6.8
-14 3 13 30.5 5.7
-14 4 -13 12 9.1
14 -4 -13 5.9 3.1
14 -4 -13 8.3 5.6
14 4 -13 3.6 6.1
-14 -4 -13 9.4 5.9
14 -4 13 12.9 7.4
-14 4 13 6.5 3.6
14 4 -13 5.7 5.1
-14 5 -13 19.7 9.3
-14 -5 -13 11.3 7.3
14 5 -13 7.6 5.8
-14 -5 -13 2.2 5.5
14 5 -13 9.1 4.2
14 -5 13 4.4 7.3
14 5 -13 -0.4 5
14 -6 -13 46.5 12.4
-14 6 -13 35.8 12
14 6 -13 35.9 9.7
14 6 -13 29.1 7.1
14 -6 13 25.4 10.5
-14 -6 -13 49.99 11.6
14 6 -13 56.69 12.9
14 -7 -13 4.7 6.2
-14 7 -13 -10.8 9
-14 7 -13 -4 3
14 7 -13 -2 4.8
14 -7 13 -4 5.8
14 7 -13 6.9 6.4
14 7 -13 1.2 4.7
-14 -7 -13 -3.3 6.1
15 0 13 2.9 5.2
15 0 -13 -0.2 4.4
-15 0 -13 -3.7 5.1
-15 0 13 2.3 3.4
15 0 -13 1.3 3.3
15 1 13 451.75 42.5
-15 -1 13 517.55 41.8
15 -1 -13 476.55 47
15 -1 -13 405.56 40.9
-15 1 13 544.75 40.9
15 1 -13 442.66 42.4
-15 -1 -13 421.06 45.5
15 1 -13 462.75 46.6
15 -1 13 490.65 45.4
15 1 -13 513.95 40.9
15 -2 -13 163.88 18.3
-15 -2 13 206.98 19.9
15 2 13 192.18 19.2
15 -2 -13 161.88 22.5
-15 2 -13 171.48 24.9
15 -2 13 184.58 23.2
15 2 -13 157.48 22.3
-15 -2 -13 162.28 19.6
15 2 -13 133.89 19.4
-15 -2 -13 137.99 20.7
15 2 -13 185.48 18.3
-15 2 13 175.38 17.4
-15 3 -13 31 15.2
15 -3 -13 27.9 9.8
15 3 13 33.5 6.5
15 -3 -13 16.7 4.6
-15 3 13 34.6 6.3
-15 -3 -13 27.7 8.6
15 3 -13 7.7 6.1
15 -3 13 22.6 10.1
15 3 -13 26.4 9.9
15 3 -13 28 7.3
-15 -3 -13 31.4 9.6
15 -4 -13 2.7 5.5
15 4 -13 14.4 7.3
15 4 -13 13.5 5.3
15 -4 13 12.6 8.3
-15 -4 -13 23.6 7.4
15 4 -13 3.9 5.4
-15 4 13 15.6 4
15 -5 -13 82.29 17.6
-15 -5 -13 100.29 17.6
15 5 -13 81.49 16.7
15 -5 13 106.99 20.3
15 5 -13 88.59 16.5
15 5 -13 87.79 17.6
15 -6 -13 7.8 7.4
-15 -6 -13 6.8 8
15 -6 13 0.2 6.7
15 6 -13 1 4.9
15 6 -13 4.4 4.3
15 6 -13 0.2 5.1
-15 7 -13 30.5 7.2
-15 7 -13 45.7 12.9
15 -7 -13 17 10.1
15 7 -13 34.4 9.5
15 7 -13 25.9 7.5
15 7 -13 38.4 11.2
15 -7 13 45.8 14.7
-16 0 13 -6.8 4
16 0 -13 5.4 5.9
16 0 -13 -4.3 2.9
-16 0 -13 -0.4 5.5
16 0 13 -0.7 4.8
-16 -1 13 31.9 7.9
16 -1 -13 17.9 6.5
16 -1 -13 32.7 11
16 1 13 20.7 8
16 1 -13 20.6 8
-16 1 13 27 7
-16 -1 -13 15.9 8.9
16 1 -13 30 7.2
16 -1 13 25 8.8
16 1 -13 32.7 10.5
16 -2 -13 37.5 8.5
16 -2 -13 27.9 10.5
16 2 13 37.3 8.7
16 2 -13 31.5 9.2
16 -2 13 40.6 12
-16 -2 -13 39.1 11.7
-16 2 13 35.2 7.7
16 2 -13 21.5 10.1
-16 -2 -13 33.6 13.3
16 2 -13 39.3 8.5
16 -3 -13 112.19 18.2
16 -3 -13 113.29 14.1
-16 3 13 131.59 13.5
16 3 -13 84.69 16.8
16 -3 13 101.39 20.3
-16 -3 -13 109.29 18
16 3 -13 133.79 14.2
16 3 -13 115.39 18.4
16 4 13 88.39 6.6
16 -4 -13 72.89 17.3
-16 -4 -13 68.39 15.3
16 4 -13 69.99 10.7
16 4 -13 70.89 15.2
16 4 -13 55.89 13.7
-16 4 13 69.79 9.2
16 -4 13 64.39 16.2
16 -5 -13 5.6 6.3
16 5 -13 -5.6 3.3
16 -5 13 8.4 6.5
16 5 -13 -0.7 4.8
16 5 -13 2.1 4.1
16 -6 -13 141.29 22.5
16 6 -13 137.79 15.8
16 -6 13 185.28 25.3
16 6 -13 109.39 20.7
16 6 -13 141.69 18.6
16 -7 -13 75.99 18.1
16 7 -13 81.29 11.3
16 7 -13 53.89 13.8
16 -7 13 68.49 16.4
16 7 -13 48.1 9.6
17 0 13 -5.6 3.2
17 0 -13 0.1 4.9
17 0 -13 0.1 3.5
17 -1 -13 1.2 3.8
17 1 13 3.6 4.5
17 -1 -13 7 6.6
17 1 -13 3.9 4.7
17 1 -13 -5.5 3.4
17 -1 13 0.4 4.6
17 -2 -13 44.1 14.1
17 -2 -13 73.69 13
17 2 13 83.59 12.8
17 2 -13 73.39 14.5
17 2 -13 98.09 19
-17 2 13 86.69 11.3
17 -2 13 70.79 16.8
17 -3 -13 403.06 36.5
17 -3 -13 425.66 43.7
17 -3 13 430.46 43.6
-17 3 13 448.56 35.5
17 3 -13 361.06 39.2
17 3 -13 382.86 41.8
17 4 13 206.38 14.5
17 -4 -13 145.29 23
17 4 -13 142.99 21.8
17 4 -13 144.29 17.9
17 4 -13 128.99 22.5
-17 4 13 187.78 16.9
17 -5 -13 129.79 20.6
17 5 -13 100.59 13.6
17 5 -13 98.99 18.9
-17 5 13 155.48 16.5
17 5 -13 118.19 20.7
17 -5 13 113.39 22.9
17 -6 -13 7.7 7.3
17 6 -13 7.1 6.2
17 6 -13 18.1 8
17 6 -13 16.1 5.8
17 -6 13 14.9 9.6
17 -7 -13 32.7 12.3
17 7 -13 18.8 6.9
17 7 -13 16 8.9
17 -7 13 20.4 10.1
17 7 -13 23.8 6.7
18 0 -13 -0.2 3.9
18 0 13 1.7 5.5
18 0 -13 -3.7 4.2
18 1 13 126.29 17
18 -1 -13 79.29 15.4
18 -1 -13 98.49 20.7
18 1 -13 98.19 17.3
18 -1 13 120.59 21.3
-18 1 13 113.19 14.1
18 1 -13 106.19 21.5
18 -2 -13 -1.2 3.4
18 -2 -13 -0.2 6.3
18 2 13 -4.6 3.9
18 2 -13 -1.2 4.1
18 2 -13 -5.8 3.4
-18 2 13 8.5 4.4
18 -2 13 -7.1 3.2
18 3 13 150.38 16.1
18 -3 -13 136.89 21.9
18 -3 -13 133.49 16.3
18 -3 13 155.98 22.9
-18 3 13 142.59 15.5
18 3 -13 129.99 31.9
18 3 -13 119.09 19.9
18 -4 -13 301.77 36.7
18 4 13 366.76 26.1
-18 4 13 365.76 28.7
18 4 -13 297.47 34.2
18 4 -13 253.37 33.4
18 -4 13 280.57 36
18 -5 -13 5.2 5.7
18 5 -13 -0.5 4.6
18 5 -13 -1.2 4.1
-18 5 13 -1.7 2.9
18 -5 13 0.4 6.8
18 5 -13 -3.6 5.1
18 -6 -13 50.29 13.9
18 6 -13 23.7 10.2
18 6 -13 32.1 9.7
18 -6 13 41.1 14
19 0 -13 0.7 3.8
19 0 -13 -4.9 4.3
19 0 13 -3.2 4.7
19 -1 -13 113.39 16.2
19 -1 -13 130.19 20.8
19 1 13 115.39 17.1
19 1 -13 113.09 18.8
19 1 -13 88.09 20.1
19 -1 13 126.39 19.4
-19 1 13 114.99 14.8
19 2 13 6.8 5.7
19 -2 -13 -2.8 4.1
19 -2 -13 8.6 8.1
19 2 -13 -2.3 4.9
19 2 -13 -2.3 4.3
-19 2 13 6.3 4.1
19 -2 13 4.9 6.8
19 -3 -13 4.7 4.2
19 -3 -13 0.4 7.5
19 3 13 1.2 4.2
19 3 -13 -9.3 4.9
19 -3 13 0.5 6.9
19 3 -13 4.4 5.2
-19 3 13 5.1 4
19 4 13 14.6 3.8
-19 4 13 17.9 4.7
19 4 -13 6 7.3
19 4 -13 10.1 7.5
19 -4 13 8.2 7.8
19 -5 -13 103.09 22.7
-19 5 13 127.39 12.1
19 -5 13 114.29 23.7
19 5 -13 77.49 17.1
19 5 -13 89.99 18.7
19 -6 -13 44.3 13.7
19 -6 13 46.3 14.9
19 6 -13 31.3 8.2
19 6 -13 24.1 8.7
19 6 -13 19.8 9.5
20 0 13 -2.6 5.5
20 0 -13 0.4 7.5
20 0 -13 0.8 4.7
20 -1 -13 234.68 26.1
20 1 13 240.38 27.6
20 1 -13 224.08 26.6
20 1 -13 239.18 31.5
20 -1 13 245.18 29.6
20 -2 -13 10.5 6.2
20 -2 -13 14 9.3
20 2 13 17.5 7.6
20 2 -13 10.7 6.8
-20 2 13 32.1 7.8
20 2 -13 22.7 12.6
20 -2 13 17.5 10.2
20 3 13 104.89 14.1
20 -3 -13 62.99 18
20 -3 13 120.29 23
20 3 -13 87.09 19.5
-20 3 13 106.49 13.5
20 3 -13 110.49 19.5
20 -4 -13 25.7 10.5
20 4 13 17.1 4.5
-20 4 13 21.2 6.2
20 4 -13 25.8 8.6
20 -4 13 9.6 8.3
20 4 -13 5.2 7.7
20 -5 -13 13.6 11
20 -5 13 14.1 9.9
20 5 -13 14.2 10.3
20 5 -13 5.5 6.6
-20 5 13 3 4
21 0 13 -3.2 5.1
21 0 -13 -5.9 3.5
21 0 -13 -2.6 5.9
21 -1 -13 10.7 6.5
21 1 13 7.7 7.1
21 -1 -13 8.8 8.7
21 1 -13 21.8 10.2
21 -1 13 8.7 7.1
21 1 -13 18.7 7.6
21 -2 -13 -4.9 5.4
21 2 13 0.6 5.5
21 -2 -13 0 4.7
21 2 -13 -6.2 4.5
21 2 -13 8.3 6.7
21 -2 13 2.9 6.8
21 -3 -13 15.1 9.5
21 3 13 10 6
-21 3 13 26.8 6.9
21 3 -13 -0.7 5.1
21 -3 13 21.8 11.4
21 3 -13 7.5 7.3
21 4 13 -4 3.6
21 -4 -13 -4.1 6.8
21 4 -13 3.3 6.6
21 4 -13 -5 4.8
21 -4 13 -4 7.3
21 -5 -13 26.6 13.4
21 5 -13 28.8 12.3
-21 5 13 32.9 6.8
21 -5 13 34.6 13.1
22 0 13 6.9 9.2
22 0 -13 -6.1 4.9
22 0 -13 -0.4 4.7
22 -1 -13 -0.6 6.6
22 1 13 -4.9 4.9
22 -1 -13 -2.2 3.2
22 1 -13 2 4.9
22 -1 13 -4 6
22 1 -13 -2.7 4.1
22 -2 -13 4.4 9
22 -2 -13 19.6 7.6
22 2 13 2.1 6.5
22 2 -13 5.8 8.8
22 2 -13 8.8 6.4
22 -2 13 20.2 10.9
22 -3 -13 3.6 6.9
22 3 13 -2 4.7
22 3 -13 -2.5 5.5
22 3 -13 -3 7.1
22 -3 13 2.4 8
22 -4 -13 2 8.6
22 -4 13 7 8.2
-22 4 13 12.2 6.1
22 4 -13 9.3 6.9
22 4 -13 -3.3 6.3
23 0 13 3.9 7.7
23 0 -13 3.5 7.8
23 0 -13 3.4 5.2
23 -1 -13 -2.9 5.1
23 -1 -13 -4.4 6.7
23 1 -13 -12.4 4.1
23 -1 13 -0.3 7
23 1 -13 -1.4 6.9
23 -2 -13 48.7 15.7
23 2 13 66.79 15
23 2 -13 33.3 14
23 2 -13 54.89 14.4
23 -2 13 75.79 19.6
23 -3 -13 37.5 13.7
23 3 13 58.69 11.4
23 3 -13 37.9 14
23 -3 13 59.29 17.2
23 3 -13 35.8 11.8
23 4 13 4.4 4.3
23 -4 -13 5.8 9.1
23 4 -13 -4 5.1
23 -4 13 -4.7 7
23 4 -13 0.1 7.6
24 0 -13 6 6.7
24 0 -13 -9.7 3.3
24 0 13 -2.8 7.1
24 1 13 362.76 37.2
24 -1 -13 307.97 33.8
24 -1 -13 296.57 39.2
24 1 -13 301.77 34.5
24 1 -13 335.47 40.3
24 -1 13 306.57 37
24 2 13 -4.5 5
24 -2 -13 0.4 7.4
24 -2 13 4.5 8.6
24 2 -13 -4.4 7.8
24 2 -13 0.4 6.4
24 -3 -13 5.6 8.1
24 3 13 8.1 6.2
24 -3 13 -1 7.6
24 3 -13 1.8 7
24 3 -13 9.9 9.2
25 0 13 3.2 6.7
25 0 -13 7.2 10
25 0 -13 3.2 5.9
25 1 13 -1.4 6.6
25 -1 -13 0.4 6.4
25 1 -13 5.6 5.4
25 -1 13 9.8 8.7
25 1 -13 1.5 5.9
25 2 13 74.29 15.7
25 -2 -13 49.9 15.7
25 2 -13 79.89 16.9
25 -2 13 68.39 18.1
25 2 -13 56.49 17.2
0 0 -14 457.65 38.2
0 0 -14 478.35 36.7
0 1 -14 -0.3 2
0 1 -14 -0.4 1.3
0 -1 -14 2 2.1
0 -1 14 -0.4 2.5
0 2 -14 1.9 1.8
0 -2 14 9.2 4.6
0 -2 -14 2.5 2.2
0 2 -14 0.7 2.5
0 -3 -14 0.4 2.1
0 3 -14 -2.7 2.9
0 -3 14 -1.8 3.6
0 3 -14 -2.4 1.4
0 -4 -14 416.86 31.5
0 4 -14 386.36 33.5
0 4 -14 397.46 36.6
0 5 -14 -0.9 4.4
0 -5 14 -0.4 3.7
0 5 -14 -1.9 2
0 -5 -14 -1.9 1.5
0 -6 -14 7.6 2.1
0 -6 -14 6.9 2.3
0 -6 14 23.2 8
0 6 -14 7.9 4.1
0 -6 -14 10.9 2.1
0 6 -14 9.4 5
0 -7 14 0.7 4.7
0 -7 -14 -1.4 1.5
0 7 -14 5.9 3.7
0 -8 14 40.3 10.1
0 8 -14 33.4 7.7
0 -8 -14 26.8 4
0 9 -14 -2.5 4.2
0 -9 14 -2.6 7
-1 0 -14 3481.25 264.77
1 0 -14 3670.23 264.07
1 0 -14 3585.94 262.77
1 -1 -14 168.08 14.8
1 -1 -14 174.48 15.6
-1 1 -14 154.68 17.3
-1 -1 -14 175.28 16.2
1 1 -14 188.88 17.1
1 1 -14 161.18 16.6
-1 2 -14 482.75 40
1 -2 -14 520.75 39.8
-1 2 -14 476.05 43.4
1 -2 -14 546.35 39.5
-1 -2 -14 546.35 40.4
1 2 -14 469.75 42.4
-1 3 -14 48 6.6
-1 3 -14 50.79 10.8
1 -3 -14 52.59 5.7
1 -3 14 73.99 12.7
1 3 -14 45.4 9.6
1 3 -14 49.4 7.9
-1 -3 -14 49.7 6.8
-1 4 -14 282.37 25.3
1 -4 -14 316.57 23.4
-1 4 -14 283.07 28.6
1 -4 -14 289.77 23.5
-1 -4 -14 316.17 23.9
1 4 -14 282.17 28
1 4 -14 271.87 25.7
1 -5 -14 694.73 54.79
1 -5 -14 828.02 54.69
-1 5 -14 639.64 60.09
-1 5 -14 671.23 57.19
-1 -5 -14 817.82 55.09
1 5 -14 707.73 58.09
1 5 -14 674.53 59.99
-1 6 -14 9.5 4.8
1 -6 -14 2.7 1.2
1 -6 -14 -0.3 1.6
-1 -6 14 2.2 6
1 -6 -14 1.4 1.3
-1 6 -14 1.3 2.5
1 6 -14 6.1 3.6
1 -6 14 1.4 4.4
1 6 -14 1.1 4.1
-1 -6 -14 0.4 1.6
-1 -6 -14 4.6 2.2
-1 -7 14 32.3 9
-1 7 -14 7.6 3.7
1 -7 -14 10.3 2.7
-1 -7 -14 10.2 1.9
-1 -7 -14 12.3 1.7
1 7 -14 5.9 4
-1 -7 -14 5.5 2.4
1 7 -14 10.4 8.4
1 -7 14 24.1 8.2
-1 -8 14 66.99 13.1
-1 8 -14 46.3 5.2
-1 8 -14 27.6 7.5
1 -8 -14 33.6 4.7
-1 -8 -14 37 4.8
1 -8 14 76.09 13.9
1 8 -14 35.7 8.6
1 -9 -14 2 3
-1 -9 14 -0.6 6.2
-1 9 -14 -3.7 4.4
1 9 -14 7 4.7
-1 -9 -14 -2.2 1.7
1 -9 14 -6.2 6.3
2 0 -14 258.47 22.1
-2 0 -14 229.88 23.8
-2 0 14 298.67 23.7
2 0 -14 264.57 22.7
-2 1 -14 177.98 20.1
2 -1 -14 207.38 17.5
2 -1 -14 223.48 18
2 1 -14 197.58 18.3
2 1 -14 198.08 18.8
-2 -1 -14 206.78 19
-2 2 -14 207.08 18.2
-2 2 -14 206.48 21.8
2 -2 -14 221.68 17.9
2 -2 -14 216.98 18
-2 -2 -14 199.08 18.7
2 2 -14 210.28 20.4
2 2 -14 213.38 19.2
-2 3 -14 0.4 1.8
2 -3 -14 1.1 1.6
-2 3 -14 4.2 4
-2 -3 14 2.8 4.5
2 -3 -14 1 1.4
-2 -3 -14 1.5 2.2
2 -3 14 5 4.3
2 3 -14 1.3 2.3
2 3 -14 -0.5 2.6
-2 4 -14 554.94 44.7
-2 4 -14 538.95 48.9
2 -4 -14 617.94 43.1
-2 -4 -14 578.14 43.6
2 4 -14 467.15 46.8
2 4 -14 604.24 46.3
-2 5 -14 112.59 15.4
-2 5 -14 101.79 12.2
2 -5 -14 118.99 10.2
2 5 -14 110.09 14.4
-2 -5 -14 115.39 10.8
2 5 -14 120.19 13.8
2 -5 14 158.88 18.2
-2 6 -14 -1.4 3.7
-2 6 -14 2.6 2.7
-2 -6 14 -3.2 3.9
-2 -6 -14 -0.6 1.6
2 -6 14 2.8 5.5
2 6 -14 0.5 3.1
2 6 -14 1.2 4
-2 -6 -14 -0.1 2
-2 -7 14 1.7 5.3
-2 7 -14 -5.7 2
-2 7 -14 0.1 3.7
2 7 -14 -2.9 2.9
2 -7 14 -6.3 4
-2 -7 -14 -0.9 1.6
2 7 -14 4.3 5.9
2 7 -14 -5.9 2.8
-2 -7 -14 -2.1 1.7
-2 8 -14 19 4.2
-2 -8 14 38.1 9.9
-2 8 -14 23.4 7
-2 8 -14 17.3 4.2
2 -8 14 27.2 9.9
2 8 -14 23.6 7.2
-2 -8 -14 18.9 3.5
2 -9 -14 -4.3 1.9
-2 9 -14 6 5.2
-2 -9 14 -9.1 3.8
2 -9 -14 8 3.4
2 -9 14 -6.3 5.1
2 9 -14 -2.6 4.8
-2 -9 -14 -0.8 1.6
-3 0 -14 33.5 7.6
3 0 -14 32.9 6
3 0 -14 44.8 6.1
3 -1 -14 252.77 20.5
-3 1 -14 229.18 23.7
3 -1 -14 251.37 20.5
3 1 -14 225.48 21.2
-3 -1 -14 219.08 21.8
3 1 -14 250.37 21.3
3 -2 -14 405.66 30.9
3 -2 -14 382.86 30.8
-3 2 -14 388.96 35.8
3 2 -14 365.96 32.7
3 2 -14 390.56 32.5
-3 -2 -14 381.46 32.1
-3 -3 14 6.3 4.5
3 -3 -14 5 2
-3 3 -14 5.1 2.4
3 -3 -14 2 1.5
-3 3 -14 5.9 3.8
3 3 -14 -0.2 2
3 -3 14 10.5 5.5
3 3 -14 1.2 2.9
3 -4 -14 5.3 2.4
-3 -4 14 29.8 8.3
-3 4 -14 9.1 4.9
3 -4 -14 9 2.5
-3 4 -14 10.8 3.4
-3 -4 -14 6.9 3
3 -4 14 12.5 6.7
3 4 -14 10.9 4.1
3 4 -14 13.8 5.3
3 -5 -14 -1.6 1
-3 -5 14 6.1 4.9
-3 5 -14 -0.7 2
-3 5 -14 -2.7 3.9
3 -5 14 -4 4.5
3 5 -14 4.1 3.7
-3 -5 -14 -0.8 2.1
-3 -5 -14 2 2.7
3 5 -14 0.8 3
-3 -6 14 60.29 11.6
-3 6 -14 27.1 8.9
-3 6 -14 22.3 5.9
3 6 -14 17.6 5.4
3 -6 14 40.4 10.3
-3 -6 -14 26.1 4.6
-3 -6 -14 20.9 4.9
3 6 -14 32.7 7.8
-3 -7 14 15.4 6.9
-3 7 -14 4.1 3.5
-3 7 -14 -1.1 3.7
3 7 -14 3.3 4.7
-3 -7 -14 2.8 2.2
3 7 -14 8.9 6.1
3 7 -14 1.6 3.5
-3 -7 -14 4.9 2.6
3 -7 14 3.9 6.2
-3 8 -14 43.1 7.1
-3 8 -14 43.7 6.8
-3 8 -14 40.1 8.9
-3 -8 14 72.19 13.3
3 8 -14 41.3 9.3
-3 -8 -14 44.5 5.5
-3 -8 -14 42.7 4.4
3 -8 14 63.29 13.6
-3 9 -14 1 4.3
3 -9 -14 -1.6 4
-3 -9 14 -2 4.6
-3 -9 -14 7.7 2.3
3 -9 14 -1.9 6.2
3 9 -14 7.2 4.6
4 0 -14 1296.17 97.19
4 0 -14 1341.77 96.99
-4 0 -14 1205.78 99.89
-4 -1 14 51.39 7.7
-4 1 -14 43.9 9.6
4 -1 -14 42.7 5.7
4 1 14 48 6.9
4 -1 -14 41.2 5.9
4 1 -14 32 6.5
4 1 -14 37 6.1
-4 -1 -14 33.4 7.6
-4 2 -14 120.79 16.3
4 -2 -14 123.99 12.2
4 -2 -14 123.19 12.4
4 2 14 146.29 12.1
4 -2 14 172.88 17.4
-4 -2 -14 116.89 13.6
4 2 -14 129.49 13.9
4 2 -14 138.39 14.2
4 -3 -14 40.3 5.3
4 -3 -14 35.8 5.1
-4 3 -14 49 11.2
4 3 -14 25.8 6.9
4 3 -14 42.9 7.9
-4 -3 -14 43.6 6.4
4 -3 14 49 10.7
-4 4 -14 6.9 5.5
-4 -4 14 5 4.8
4 -4 -14 2.7 1.7
-4 4 -14 -0.4 1.6
4 4 -14 5.4 3.8
4 4 -14 0.3 2.8
4 -4 14 0.7 3.8
-4 5 -14 50.49 11.4
4 -5 -14 51.79 5.2
-4 5 -14 50.99 7.2
4 -5 14 72.19 13.7
-4 -5 -14 47.8 8.3
-4 -5 -14 40.3 6.5
4 5 -14 45.4 9.5
4 5 -14 58.99 10.2
-4 -6 14 95.29 12.9
-4 6 -14 66.59 8.6
-4 6 -14 44.2 10.6
4 6 -14 46.9 10.1
4 6 -14 50.69 10
4 -6 14 70.79 14.1
4 6 -14 60.99 11.1
-4 -6 -14 54.59 7
-4 -7 14 52.39 11.2
-4 7 -14 19.1 5.4
-4 7 -14 18 6
-4 -7 -14 24.6 4.5
4 7 -14 15.2 5.9
4 -7 14 23.2 9.4
4 7 -14 14.7 5.7
4 7 -14 13.9 5.9
-4 -7 -14 21.4 4.7
-4 8 -14 31.3 6.6
4 -8 -14 47.7 9.2
-4 -8 14 69.79 13.6
-4 8 -14 39 8
-4 -8 -14 42.2 6
4 -8 14 72.39 14.3
4 8 -14 40.1 9.6
-4 -8 -14 46.4 5.6
4 -9 -14 -1.4 3.7
-4 9 -14 4.3 4.1
-4 -9 14 4.2 5.2
4 9 -14 5.9 4.9
4 -9 14 0.8 6.2
-4 -9 -14 4.3 2.6
5 0 -14 27.1 5.8
5 0 14 30.2 6.8
5 0 -14 24.6 5.3
-5 0 -14 27.7 7.8
5 1 14 2.9 2.5
5 -1 -14 2.5 1.9
-5 1 -14 2.1 3.7
5 -1 -14 0.4 1.8
-5 -1 -14 0.1 2.3
5 1 -14 2.1 2.3
5 -1 14 0.8 3.7
5 1 -14 -1 1.9
-5 2 -14 2.2 4.3
-5 -2 14 2.1 3
5 2 14 0.1 1.5
5 -2 -14 0.1 1.5
5 -2 -14 2.5 1.9
-5 -2 14 0.7 2.2
-5 -2 -14 1.3 2.8
5 2 -14 2.4 2.7
5 2 -14 3.8 2.5
5 -2 14 3.1 4.2
5 -3 -14 541.85 40
-5 3 -14 509.85 46.2
-5 -3 -14 487.75 41.6
5 3 -14 454.65 41.6
5 3 -14 546.25 43
5 -4 -14 26.1 4.5
-5 4 -14 24.6 9.3
-5 -4 14 45 9.3
-5 -4 14 23.4 6.3
-5 4 -14 25.1 5
5 4 -14 21.7 6.1
-5 -4 -14 31.3 6.3
5 4 -14 24.5 6.7
5 -4 14 38.1 9.9
5 -5 -14 389.16 29
-5 5 -14 394.76 31.6
-5 5 -14 364.26 36.3
5 5 -14 341.97 33.4
-5 -5 -14 385.66 32.9
5 5 -14 391.46 34.4
-5 6 -14 10.6 5.9
-5 6 -14 11.5 4
-5 -6 14 24.7 8.3
5 6 -14 7.2 4.7
-5 -6 -14 3.4 2.8
5 6 -14 5.4 3.9
5 6 -14 6.8 4.3
5 -6 14 10.6 7.5
-5 -6 -14 -0.1 2.2
-5 7 -14 195.58 19.4
-5 7 -14 198.18 22
5 7 -14 198.18 22
5 7 -14 243.38 25.7
5 -7 14 245.18 26.3
-5 -7 -14 205.98 18.6
5 7 -14 197.18 23.4
-5 -7 -14 175.18 17.8
-5 8 -14 12.4 4.6
5 -8 -14 14.2 5.4
-5 8 -14 14 5.7
-5 -8 14 21.7 8.6
5 -8 14 8.9 7.5
5 8 -14 13.7 6.3
-5 -8 -14 17.3 4.1
-5 -8 -14 17.9 4.2
-5 -9 14 156.98 17.7
5 -9 -14 106.39 13.9
-5 9 -14 94.69 13.4
5 9 -14 130.69 16.5
-5 -9 -14 114.59 11.2
-5 -9 -14 95.69 8.8
5 -9 14 152.18 20.5
-6 0 -14 385.96 41
-6 0 14 540.55 38.6
6 0 -14 438.46 37.7
6 0 -14 433.66 43.8
6 0 14 558.84 41.1
-6 1 -14 40.8 9.9
6 -1 -14 34.5 5.3
-6 -1 14 43 7.1
6 1 14 41 7.4
6 -1 -14 29.2 6
-6 -1 -14 36.1 9.2
6 1 -14 34.3 6.4
6 1 -14 31.9 6.9
6 -1 14 44.2 9.3
6 -2 -14 148.19 14.5
-6 2 -14 130.89 18.5
-6 -2 14 196.38 16.5
6 -2 -14 157.28 15
6 -2 14 180.98 19.2
6 2 -14 158.28 15.7
6 2 -14 166.38 17
-6 -2 -14 137.29 16.8
-6 -3 14 73.69 9.4
6 -3 -14 48.6 7.1
-6 -3 14 82.59 11.3
-6 3 -14 69.79 14.6
-6 -3 -14 53.19 8.9
6 -3 14 69.79 13.1
6 3 -14 66.89 11.1
6 3 -14 51.69 9.5
6 -4 -14 659.23 48
-6 4 -14 650.83 55.59
6 4 -14 551.44 50.39
-6 -4 -14 593.74 50.19
6 4 -14 668.43 52.59
6 -5 -14 14.3 2.5
-6 -5 14 19.1 5.9
-6 -5 14 30.6 8.4
-6 5 -14 8.9 3.6
-6 5 -14 14 7.7
6 -5 14 26.8 9.8
-6 -5 -14 18.5 5.6
6 5 -14 8.1 4.2
6 5 -14 10.1 5.2
-6 -5 -14 10.4 4.3
-6 6 -14 110.49 15.2
-6 6 -14 98.69 11.3
6 6 -14 92.99 12.8
6 6 -14 104.89 14.1
6 6 -14 93.19 13.7
-6 -6 -14 101.09 12.6
6 -6 14 145.99 18.9
-6 -6 -14 107.69 12.7
-6 -7 14 29.8 8.4
6 -7 -14 7.5 5.2
-6 7 -14 21.4 7.8
-6 7 -14 25.7 6.1
6 7 -14 16.6 8.8
-6 -7 -14 21.4 5.3
6 7 -14 15.3 6.2
6 7 -14 15.2 6.1
6 -7 14 34.4 10.5
6 -8 -14 11.6 4.8
-6 8 -14 2.3 3
-6 -8 14 -0.5 4.7
-6 8 -14 2.4 4.6
-6 -8 -14 -0.9 2.8
6 8 -14 4.1 8
6 -8 14 7.6 6.9
-6 -8 -14 -3.5 5.4
-6 9 -14 3.7 3.6
-6 -9 14 -1.2 5
-6 -9 -14 3.3 2.2
6 9 -14 7.3 5.8
6 -9 14 4.9 7.1
7 0 -14 651.63 55.69
7 0 -14 686.53 54.69
-7 0 14 826.72 55.49
-7 0 -14 631.94 58.99
-7 1 -14 522.85 50.19
-7 -1 14 686.93 46.4
7 -1 -14 518.15 44.7
7 -1 -14 507.55 45.4
-7 -1 -14 526.05 48.7
-7 1 14 655.73 45.2
7 1 -14 511.45 46.4
7 1 -14 558.84 45.3
7 -1 14 634.24 49.4
-7 -2 14 46.7 8.1
-7 2 -14 53.59 13
7 -2 -14 35.6 6.6
7 2 14 54.09 6.6
7 2 -14 42 6.9
7 -2 14 44.7 10.2
-7 -2 -14 36.7 8.9
7 2 -14 38.3 8.1
-7 3 -14 411.66 42.3
7 -3 -14 412.46 35.9
-7 -3 14 549.65 40.6
7 3 -14 439.66 37.6
-7 -3 -14 427.66 38.8
7 -3 14 514.85 42.7
7 3 -14 412.76 38.8
-7 -4 14 24 7.3
-7 -4 14 23.4 6.3
-7 4 -14 27.2 8.6
7 -4 -14 19.2 4
7 -4 14 22 8.7
7 4 -14 22.4 6.8
7 4 -14 20.8 5.5
-7 -4 -14 19 5.6
7 -5 -14 3.6 1.3
-7 5 -14 15.2 7
-7 -5 14 6.5 4.9
-7 5 -14 2.7 2.7
-7 -5 14 9.1 4.4
7 -5 14 3.2 5.6
-7 -5 -14 7.1 3.6
7 5 -14 -0.7 3
7 5 -14 5.3 4.8
-7 -5 -14 4.7 3.6
7 5 -14 10.1 4.9
-7 -6 14 82.59 12.1
-7 6 -14 57.79 8
-7 6 -14 69.29 14.3
7 -6 14 72.89 15.6
-7 -6 -14 47.7 9.3
-7 -6 -14 52.09 8.3
7 6 -14 52.59 11.8
7 6 -14 56.79 11.1
7 6 -14 47.6 10
-7 7 -14 102.79 11.8
-7 7 -14 111.79 15.2
-7 -7 -14 89.59 11.8
7 7 -14 102.89 16.5
-7 -7 -14 93.59 11.7
7 -7 14 108.29 17
-7 8 -14 15.5 5.1
-7 -8 14 3.5 5.6
7 -8 -14 14.5 6.6
-7 8 -14 14.9 6.3
7 8 -14 12.4 5.2
7 -8 14 26.1 16.7
-7 -8 -14 6.7 4.1
-8 0 -14 1133.89 100.59
8 0 -14 1240.18 95.69
8 0 -14 1101.39 96.59
8 0 14 1408.16 99.09
-8 0 14 1419.36 96.29
8 -1 -14 33.1 7.1
8 -1 -14 34.5 6.4
8 1 14 47.8 8.4
-8 -1 14 55.69 8.4
-8 1 -14 36.8 11.3
-8 1 14 40 6.5
-8 -1 -14 28.9 8.7
8 -1 14 37.6 9.6
8 1 -14 40.6 6.1
8 1 -14 33.3 7.9
8 -2 -14 128.69 14.3
-8 -2 14 148.89 15.3
-8 2 -14 146.59 19.9
8 2 14 176.88 14.5
8 -2 14 152.48 18.5
8 2 -14 126.69 15.9
-8 -2 -14 121.19 16.4
8 2 -14 152.88 15.1
8 -3 -14 7.6 3
-8 -3 14 10.8 4.4
-8 3 -14 12.5 7.9
8 -3 14 14.2 7
-8 -3 -14 8.5 5.2
8 3 -14 7.2 3.9
8 3 -14 13.1 5.5
8 -4 -14 20.7 4.4
-8 -4 14 28.8 8
-8 4 -14 28.5 9
-8 -4 -14 15 5.4
8 -4 14 29.2 9.5
8 4 -14 24.1 7.2
8 4 -14 19.8 7.3
8 4 -14 17.7 5.4
-8 5 -14 -2.5 4.5
8 -5 -14 -0.3 1
-8 -5 14 2.6 3.6
-8 -5 14 0.3 3.2
-8 5 -14 1 2.1
-8 -5 -14 4.6 3.9
-8 -5 -14 -2.1 3.5
8 5 -14 1.5 3.4
8 5 -14 0.4 3.6
8 5 -14 3 4
8 -5 14 -1.7 4.5
-8 6 -14 72.39 9.2
8 -6 -14 77.59 14.2
-8 6 -14 78.59 14.9
-8 -6 14 114.19 13.9
8 6 -14 87.69 15
8 -6 14 82.99 17.2
8 6 -14 55.09 10.4
-8 -6 -14 75.69 10.5
8 6 -14 72.79 11.6
-8 -6 -14 90.69 11.5
-8 7 -14 112.19 15.7
-8 7 -14 96.19 11.6
8 -7 -14 106.39 15
8 7 -14 96.79 16.3
8 -7 14 126.79 18.6
-8 -7 -14 89.49 12.2
-8 -7 -14 91.39 12
-8 -8 14 4.3 5.5
-8 8 -14 9.9 4.3
8 -8 -14 4.7 6.5
-8 -8 -14 19.5 5.3
8 -8 14 8.3 8.5
8 8 -14 11.4 5.5
-9 0 14 474.65 34.7
9 0 -14 407.46 34.1
-9 0 -14 377.26 38.9
9 0 -14 339.17 34.6
9 0 14 450.75 37.3
-9 1 -14 279.57 29.5
9 -1 -14 250.97 23.7
9 -1 -14 232.18 24.1
-9 -1 14 286.27 24.5
9 1 14 297.97 25.7
-9 -1 -14 237.68 27.6
-9 1 14 310.67 23.8
9 -1 14 269.17 27.6
9 1 -14 271.77 23.9
9 1 -14 261.77 25.6
-9 -2 14 57.19 9
9 2 14 61.69 7.7
9 -2 -14 45.7 8.3
-9 2 -14 42.2 12.2
-9 -2 -14 36.1 9.6
9 2 -14 43.2 7.9
-9 2 14 48.9 6.4
9 -2 14 42.6 10.4
9 2 -14 28.7 8.6
-9 -3 14 154.98 16.3
9 3 14 162.78 12.5
9 -3 -14 147.39 14.7
-9 3 -14 118.59 19.5
-9 -3 -14 124.59 16.8
9 -3 14 155.28 20
9 3 -14 171.08 18.5
9 3 -14 143.49 15.5
-9 -4 14 10.3 4.2
9 -4 -14 5.2 2.4
-9 4 -14 6.9 5.7
9 4 -14 2 4.4
-9 -4 -14 4.6 4.4
9 4 -14 1.6 3.9
9 -4 14 -2.2 4.3
9 4 -14 -2.5 2.6
-9 -5 14 13.5 5
-9 5 -14 7.1 5.4
9 -5 -14 12 6.6
9 5 -14 7 5.2
9 5 -14 17.7 5.6
9 5 -14 14.9 6.5
-9 -5 -14 9.6 4.5
-9 -5 -14 19.8 5.9
9 -5 14 5.9 6.6
9 -6 -14 40 10.3
-9 6 -14 38.5 9.9
-9 6 -14 44 7.5
-9 -6 -14 26.2 6.9
9 -6 14 51.99 13.8
9 6 -14 29.4 8.6
9 6 -14 34.8 9.9
-9 -6 -14 36.8 8.8
9 6 -14 31.3 7.5
9 -7 -14 310.77 30.5
-9 7 -14 273.97 29.5
-9 7 -14 276.47 25.4
-9 -7 -14 303.37 27.1
9 -7 14 361.16 35.5
-9 -7 -14 247.18 25.9
9 -8 -14 27.7 9.5
-9 8 -14 33.7 7.2
9 8 -14 32.4 9
9 -8 14 60.79 15.1
-10 0 -14 117.79 17
10 0 14 120.69 15.3
-10 0 14 117.49 12.7
10 0 -14 113.39 13.7
10 0 -14 109.79 12.4
10 -1 -14 40.2 8.5
10 -1 -14 47.7 7.5
-10 -1 14 66.49 8.7
-10 1 -14 57.09 13.5
10 1 14 52.79 9.7
-10 -1 -14 55.49 12.2
10 1 -14 44.9 9.8
10 1 -14 51.89 7.5
-10 1 14 48.1 7.8
10 -1 14 41.7 10.2
-10 -2 14 6.8 4.2
10 -2 -14 9.3 3.4
10 2 14 10.7 4.2
-10 2 -14 4.4 5.9
10 -2 14 7 6.4
10 2 -14 8.3 4.2
-10 2 14 17.1 4.3
-10 -2 -14 5.7 5.9
10 2 -14 8.4 4.1
10 -3 -14 26.7 6.2
10 3 14 53.99 5.5
-10 -3 14 36.6 9.3
-10 3 -14 36.9 11.7
10 -3 14 44.7 11.5
-10 -3 -14 41.1 10.6
10 3 -14 52.79 12.6
10 3 -14 48.4 7.7
10 3 -14 43.2 9.4
10 -4 -14 483.65 39.8
-10 4 -14 484.75 47.7
10 -4 -14 547.85 46.8
10 4 -14 504.25 44.9
10 4 -14 547.65 46.9
10 -4 14 598.94 49.2
-10 -4 -14 468.65 43.2
10 4 -14 469.25 41.4
-10 -4 -14 442.36 43.2
10 -5 -14 1.3 3.9
-10 5 -14 12.5 6.8
10 5 -14 5.7 5.1
10 5 -14 1.4 4.6
10 -5 14 4.2 6.4
-10 -5 -14 1.5 4
10 5 -14 3.1 4
-10 -5 -14 2.9 4.6
10 -6 -14 1.7 4.7
-10 6 -14 -1.1 2.5
-10 6 -14 9.6 7.4
10 6 -14 -1 3.7
-10 -6 -14 0.8 4
-10 -6 -14 4.1 5.4
10 6 -14 -1.8 3.9
10 6 -14 1.5 3.6
10 -6 14 -2.1 5.5
10 -7 -14 24.9 8.7
-10 7 -14 27.4 9.8
-10 7 -14 21.1 5.8
10 7 -14 15.9 7
-10 -7 -14 37.4 8
-10 -7 -14 40.4 8.1
10 7 -14 25.9 8.2
-10 8 -14 -5.2 7.5
10 -8 -14 9.2 7.1
-10 8 -14 -2.5 2.7
10 -8 14 4.7 7.8
10 8 -14 1.9 4.7
-10 -8 -14 20.7 6.9
-11 0 14 203.38 19.1
-11 0 -14 221.08 25.1
11 0 -14 177.78 19.9
11 0 14 187.68 21.2
11 0 -14 200.28 19.1
11 -1 -14 468.55 42.8
-11 1 -14 512.95 49.1
-11 -1 14 527.05 42.8
11 1 14 578.94 44.6
11 1 -14 511.25 42.2
-11 -1 -14 455.65 46.8
-11 1 14 554.84 42
11 1 -14 498.95 44.3
11 -1 14 506.85 46.2
11 1 -14 518.85 48.6
-11 2 -14 686.23 64.09
-11 -2 14 805.22 58.69
11 -2 -14 609.24 57.19
11 2 14 856.81 57.79
11 2 -14 642.34 59.29
-11 -2 -14 594.04 60.39
-11 2 14 808.92 56.39
11 -2 14 683.23 61.79
11 2 -14 756.52 57.39
11 2 -14 678.63 62.79
11 -3 -14 66.89 14.7
11 -3 -14 72.49 9.6
11 3 14 96.69 8.7
11 3 -14 75.99 10.3
11 3 -14 70.69 13.3
11 3 -14 94.39 14.4
-11 3 14 85.69 9
11 -3 14 86.09 17
-11 -3 -14 54.99 12.9
11 -4 -14 346.97 29.9
11 -4 -14 402.66 37.4
-11 -4 14 430.46 33.9
-11 4 -14 358.06 37.5
-11 -4 -14 346.97 34.1
11 4 -14 328.47 31.1
11 4 -14 357.06 35.9
11 4 -14 384.36 35.4
-11 -4 -14 331.27 33.2
11 -4 14 357.06 37.5
-11 5 -14 19.4 8.3
11 -5 -14 0 5.1
11 -5 14 20.7 8.5
-11 -5 -14 13 5.2
11 5 -14 4.3 4.3
11 5 -14 6.6 5.6
11 5 -14 8.9 4.1
-11 -5 -14 10.9 4.9
-11 6 -14 85.49 10.2
11 -6 -14 81.29 16.1
11 6 -14 70.49 10.7
-11 -6 -14 74.09 13.8
11 6 -14 89.39 13.6
-11 -6 -14 108.59 13.6
11 6 -14 67.19 13.4
11 -6 14 88.09 18.7
11 -7 -14 59.79 13.2
-11 7 -14 60.69 14
-11 7 -14 65.69 8.8
-11 -7 -14 75.09 11.9
11 7 -14 60.59 13.3
-11 -7 -14 87.29 11.2
11 -7 14 56.49 16.4
11 7 -14 48.5 9.7
11 7 -14 51.29 10.4
-11 8 -14 -10.1 7.7
11 -8 -14 11.2 7.2
-11 8 -14 -0.9 3.8
-11 -8 -14 8.2 6.9
11 -8 14 -2.9 7.2
11 8 -14 1.6 6.1
12 0 -14 70.49 11.9
-12 0 14 65.19 9.3
12 0 -14 83.19 16.4
12 0 14 68.79 11.2
12 0 -14 61.59 9.2
-12 0 -14 65.09 15.3
-12 1 -14 36.5 13.1
12 -1 -14 32 10.1
12 1 14 63.69 11.7
-12 -1 14 33.1 7.5
12 -1 -14 22.7 7
12 1 -14 37.6 7.4
12 -1 14 34 10.1
12 1 -14 32.4 8.5
12 1 -14 31.2 10.1
-12 -1 -14 25.8 9.6
-12 1 14 36.9 7
12 -2 -14 40.2 8.2
-12 2 -14 34.3 11.6
-12 -2 14 48.3 12.7
12 2 14 42.7 9.3
12 -2 -14 39.1 11.5
12 2 -14 27.5 8.5
-12 -2 -14 40.9 10.6
-12 2 14 45.7 7.2
12 2 -14 46.2 8.5
12 -2 14 35.5 10.3
12 2 -14 28.2 10
12 -3 -14 43.7 11.5
12 -3 -14 39.8 7.9
-12 3 -14 39 12
12 3 14 61.69 6.8
12 3 -14 41.1 10.4
-12 3 14 53.49 6.9
12 3 -14 33.9 10.8
-12 -3 -14 52.29 12.2
12 -3 14 56.29 13.7
12 3 -14 49.2 8
-12 4 -14 15.4 8.5
12 -4 -14 6.2 3.2
12 -4 -14 -0.9 3.8
-12 -4 -14 3.4 4.3
12 4 -14 3.9 3.6
12 4 -14 -1.6 2.9
12 4 -14 10.4 6.5
12 -4 14 -1.7 5.7
12 -5 -14 22.3 9
-12 5 -14 40.7 12.3
12 5 -14 23.5 6.4
-12 -5 -14 22.9 7.3
12 5 -14 33.2 9.2
12 -5 14 22.3 10.1
-12 -5 -14 39 9.7
12 5 -14 30.3 9.1
-12 6 -14 12.8 9
12 -6 -14 9.8 7.5
12 6 -14 8.3 5.1
12 6 -14 22.1 8.9
12 6 -14 8.3 6.6
-12 -6 -14 22.7 8.3
12 -6 14 14.3 8.9
-12 -6 -14 11.8 6.1
12 -7 -14 16.5 8.2
-12 7 -14 10.7 4.3
12 7 -14 8.8 5.4
-12 -7 -14 23 6.3
12 -7 14 13.5 9.7
-12 -7 -14 13.5 7.4
12 7 -14 1 5.2
12 7 -14 21.4 5.5
12 -8 -14 11.5 8
-12 8 -14 10.9 4.9
-12 8 -14 8 8.8
12 -8 14 16.8 9.8
12 8 -14 14.6 7.7
-13 0 -14 0.4 5.8
13 0 -14 -3.9 2.6
13 0 -14 -0.7 2.5
13 0 -14 -0.1 3.9
-13 0 14 1.3 3.5
13 0 14 -2.5 4.5
13 1 14 -0.6 4.5
13 -1 -14 -0.4 3.5
-13 1 -14 7.7 7.9
-13 -1 14 4.2 4.3
13 -1 -14 8.1 5.2
13 1 -14 -2.9 4.8
13 1 -14 3.3 3.6
-13 1 14 -2.1 2.5
13 1 -14 3.9 5.2
13 -1 14 5.4 6
13 -2 -14 300.77 32.2
13 -2 -14 270.27 26.4
13 2 14 332.67 26.9
-13 -2 14 290.87 27
-13 2 -14 255.77 31.8
-13 2 14 299.37 25.3
13 2 -14 307.87 26.2
-13 -2 -14 249.38 30
13 2 -14 265.47 30.9
13 -2 14 278.07 30.7
13 2 -14 241.38 27.7
13 3 14 18.8 4.3
13 -3 -14 21 8.7
-13 3 -14 20.8 9.4
13 -3 -14 13.2 4.7
13 3 -14 12.8 5.3
-13 -3 -14 16.1 7.7
13 3 -14 20.8 7.4
13 -3 14 14.8 7.7
13 3 -14 14 7.6
-13 3 14 14.2 3.7
-13 -3 -14 16 5.9
13 -4 -14 42 11.5
-13 4 -14 39.7 12.7
13 -4 -14 55.59 7.6
13 -4 14 58.49 14.3
-13 -4 -14 56.09 12.3
13 4 -14 59.09 12.6
13 4 -14 51.49 12.9
-13 -4 -14 43 10.9
-13 5 -14 12.5 9.2
13 -5 -14 21.5 8.1
13 5 -14 7.4 5.7
-13 -5 -14 20.6 6.9
13 5 -14 10.3 6.8
13 5 -14 14.1 5.4
-13 -5 -14 16.9 8
13 -5 14 23.5 10.3
-13 6 -14 3.6 8.3
13 -6 -14 -3.3 4.9
-13 -6 -14 11.1 7.4
13 6 -14 -0.9 5.8
13 6 -14 4.5 4.1
13 -6 14 -2.2 6.8
-13 7 -14 28.6 7
13 -7 -14 43.4 12.7
-13 7 -14 40.7 12.2
13 7 -14 35.6 8.5
13 7 -14 34 10.8
13 -7 14 27.3 10.1
13 7 -14 28.2 6.8
-13 -7 -14 51.69 9.9
13 -8 -14 -6 6.4
-13 8 -14 -0.9 9.8
-13 8 -14 -0.5 3.4
13 8 -14 14.2 7.3
-13 -8 -14 7.5 9
13 -8 14 10.4 9.7
14 0 -14 291.57 31.8
14 0 -14 227.68 25.7
-14 0 14 304.77 25.7
-14 0 -14 253.27 30.8
14 0 14 257.87 27.9
14 -1 -14 3.1 5.5
14 -1 -14 1 3.5
-14 -1 14 6.7 5.7
14 1 14 -1.8 3.6
14 -1 14 3.2 5.2
-14 1 14 9 4.5
14 1 -14 3.8 3.5
-14 -1 -14 -2.6 4.8
14 1 -14 6.8 6.7
14 1 -14 0.9 4.4
-14 2 -14 39.6 12
14 -2 -14 18.9 8.1
14 2 14 30.7 7.4
-14 -2 14 22.1 6.9
14 -2 -14 20.2 6.1
14 2 -14 26.5 10.2
14 -2 14 28.8 9.9
14 2 -14 22.2 6.3
14 2 -14 15.7 6.9
-14 -2 -14 26 8.5
-14 2 14 28.3 6.6
-14 3 -14 1 7.9
14 -3 -14 7.7 3.9
14 3 14 13.1 4
14 -3 -14 1.2 5
14 3 -14 9.8 4.9
-14 3 14 7.1 3.2
-14 -3 -14 6.5 6.1
14 3 -14 2.2 4.8
-14 -3 -14 5.9 4.9
14 -3 14 1.6 5.2
14 3 -14 5.2 5.3
14 -4 -14 1.1 4.7
14 -4 -14 3 2.9
14 4 -14 0.5 4.1
-14 -4 -14 -1.3 5.3
14 4 -14 -5.6 3.5
-14 -4 -14 -5.9 4.1
14 -4 14 7.9 7.2
-14 4 14 0.5 2.4
14 -5 -14 1 4.8
-14 -5 -14 9 5.5
14 5 -14 -0.1 4.1
14 -5 14 -3.8 5.2
14 5 -14 -1.6 4.6
14 -6 -14 34.2 11.9
14 6 -14 30.2 10.2
14 -6 14 46.2 14
-14 -6 -14 35.4 10
14 6 -14 36.3 7.7
14 6 -14 42.2 10.7
14 -7 -14 11.3 9.1
-14 7 -14 19 10.8
-14 7 -14 12.2 4.9
14 7 -14 22.8 7.4
14 7 -14 31.7 7.4
14 -7 14 34.9 12.9
-14 -7 -14 38.7 10
14 7 -14 18 8.5
15 0 -14 80.99 17.3
15 0 -14 52.49 11.2
-15 0 14 61.09 10.8
-15 0 -14 70.99 16.6
15 0 14 46.6 12
15 1 14 114.99 15.7
15 -1 -14 95.19 14.2
15 -1 -14 138.49 19.9
-15 -1 14 122.39 14.6
15 1 -14 96.89 16.5
15 1 -14 120.89 19.4
-15 1 14 132.09 14.2
15 1 -14 112.69 14.3
15 -1 14 123.39 17.8
-15 -1 -14 114.09 22
15 -2 -14 -1.2 2.6
15 -2 -14 9.5 7.2
15 2 14 2.3 3.8
15 2 -14 3.3 4.9
-15 2 14 -0.3 3.1
-15 -2 -14 -3.7 6.2
15 2 -14 4.9 4.9
15 -2 14 0.6 5
15 2 -14 2.9 3.9
15 -3 -14 133.69 17.4
15 -3 -14 171.38 23.7
15 3 14 200.68 17.4
-15 -3 -14 136.79 23.7
15 3 -14 187.18 22.3
15 3 -14 176.58 18.3
-15 -3 -14 180.28 23.3
15 -3 14 147.09 22.6
15 3 -14 203.38 24.9
-15 3 14 196.78 17.3
15 -4 -14 124.79 20.3
-15 -4 -14 141.09 19.6
15 4 -14 123.19 19.9
15 4 -14 167.88 20.6
15 -4 14 147.39 21.6
-15 4 14 169.38 14.5
15 4 -14 146.89 16.4
15 -5 -14 -0.9 5
-15 -5 -14 8.3 6.9
15 5 -14 0.2 4.9
15 5 -14 -2.5 4.4
15 5 -14 6.5 4.5
15 -5 14 -8.9 4.1
15 -6 -14 105.79 21.4
15 6 -14 117.69 14.3
15 6 -14 112.89 20.1
15 -6 14 121.99 23.5
15 6 -14 113.89 16.6
-15 7 -14 22.6 6
15 -7 -14 20.4 11.1
15 7 -14 25.7 7.4
15 -7 14 19.1 10.1
15 7 -14 30.4 6.8
15 7 -14 9.5 8
-16 0 14 86.69 12
16 0 -14 75.19 17.4
16 0 -14 64.79 13.7
16 0 14 105.39 16.1
16 1 14 103.39 14.4
16 -1 -14 99.79 20.4
16 -1 -14 70.49 13.2
-16 -1 14 111.29 13.7
-16 1 14 104.79 12.5
16 1 -14 96.09 19.6
16 1 -14 70.49 14
16 -1 14 97.19 18.4
16 -2 -14 94.69 19.2
16 2 14 100.09 13.7
16 -2 -14 93.29 13.2
16 -2 14 109.39 17.3
16 2 -14 83.59 15.8
16 2 -14 84.69 18.7
-16 2 14 111.39 12.7
16 -3 -14 56.09 10.7
16 -3 -14 51.79 14.7
16 3 -14 68.19 15.5
16 3 -14 90.39 16.3
16 -3 14 71.29 16.5
-16 3 14 76.19 9.8
16 -4 -14 58.39 15.1
16 -4 -14 51.59 9.3
16 4 -14 53.39 13.7
-16 4 14 81.89 9
16 4 -14 45.8 12.1
16 -4 14 90.29 18.8
16 4 -14 66.89 10.3
16 -5 -14 8.6 6.6
16 -5 14 4.5 7.1
16 5 -14 10.4 5.5
16 5 -14 -0.4 5.3
16 5 -14 4.6 6.3
16 -6 -14 45.5 14
16 6 -14 37.1 11.6
16 -6 14 47.3 14.7
16 6 -14 44.2 11.5
16 7 -14 10 5.8
16 -7 14 25.4 11.4
16 7 -14 15.4 6.9
16 7 -14 16.7 8
17 0 -14 49 14.9
17 0 14 61.69 14
17 0 -14 55.49 12.6
-17 0 14 70.79 12
17 -1 -14 36.3 9.9
17 -1 -14 65.09 15.7
17 1 14 55.79 13.2
17 -1 14 59.39 14
-17 1 14 59.39 11.1
17 1 -14 49.2 12
17 1 -14 57.59 14.4
17 -2 -14 96.19 14.6
17 2 14 132.69 16.4
17 -2 -14 133.79 21.2
17 -2 14 127.59 19.8
17 2 -14 113.69 22
-17 2 14 140.49 14.8
17 2 -14 121.29 17.4
17 -3 -14 12.6 8.4
17 3 14 20.4 6.3
17 -3 -14 7.5 4.8
-17 3 14 12.5 4.7
17 3 -14 8.4 5.3
17 3 -14 13.6 8.5
17 -3 14 5.9 6.4
17 -4 -14 31.3 10.4
17 4 14 38.6 4.1
17 -4 14 34.6 12.1
-17 4 14 25 6.1
17 4 -14 29.8 11
17 4 -14 28.8 11.5
17 -5 -14 332.67 38.2
17 5 -14 356.76 36.4
17 5 -14 307.27 29.6
17 -5 14 402.36 41.3
17 5 -14 303.07 34.2
17 6 -14 14.2 7.4
17 -6 14 34.3 12.1
17 6 -14 26.2 9.3
17 6 -14 18.7 8.9
18 0 14 -3 3.6
18 0 -14 -6.3 4.1
18 0 -14 0.3 3.7
18 -1 -14 73.29 13.8
18 -1 -14 90.39 19.2
18 1 14 92.29 16.6
18 1 -14 73.59 14.7
18 1 -14 66.09 17.2
-18 1 14 92.29 12.4
18 -1 14 76.49 16.8
18 2 14 25.7 8.3
18 -2 -14 37.5 12.5
18 -2 -14 23.5 7.3
18 -2 14 25.8 10
18 2 -14 35.9 10.7
-18 2 14 51.09 10.2
18 2 -14 14.5 8.7
18 -3 -14 2.4 3.9
18 3 14 -2.1 2.9
18 -3 -14 2.4 5.3
18 3 -14 7.8 7.5
-18 3 14 5.9 3.5
18 3 -14 1.3 4.3
18 4 14 33.4 4.6
18 -4 -14 26.9 10.9
18 4 -14 26 9.9
18 4 -14 30.4 10.6
-18 4 14 37.4 7
18 -4 14 24.9 11
18 5 -14 307.47 37.6
18 -5 14 367.76 41.7
18 5 -14 311.17 36.6
-18 5 14 419.36 30.2
18 -6 -14 18.1 9.8
18 -6 14 14.7 10.4
18 6 -14 2.3 5.8
18 6 -14 4.6 7.1
18 6 -14 1.4 5.3
19 0 -14 83.59 15.7
19 0 14 89.19 17.9
19 0 -14 107.09 21.8
19 -1 -14 118.69 23.6
19 1 14 140.69 18.5
19 -1 -14 112.49 18.6
19 1 -14 132.19 21.6
19 -1 14 135.59 20.1
19 1 -14 134.39 18.4
19 -2 -14 39 9.3
19 -2 -14 32.6 11.8
19 2 14 30.1 9
-19 2 14 42.6 8.3
19 2 -14 28.5 10.6
19 -2 14 30 12.6
19 2 -14 21.7 10.2
19 3 14 35.8 8
19 -3 -14 29.1 8.2
-19 3 14 44 9.5
19 -3 14 34.2 12.2
19 3 -14 24.9 10.3
19 3 -14 15.3 10.4
19 -4 -14 2.3 6.9
19 4 14 2.1 2.3
19 4 -14 5.1 7.5
19 4 -14 -1.5 6.3
-19 4 14 2.4 3.9
19 -4 14 2.9 7.3
19 -5 -14 5.2 8
19 -5 14 21.3 11.1
19 5 -14 1.8 7.1
19 5 -14 17.5 8.8
-19 5 14 22.6 5.3
19 -6 -14 66.99 17.5
19 6 -14 43.8 10.9
19 6 -14 60.99 13.2
19 -6 14 87.89 19.3
19 6 -14 58.69 13.7
20 0 14 0.6 5.8
20 0 -14 -2.2 4.2
20 0 -14 -6.9 5
20 1 14 49.9 12.2
20 -1 -14 43.9 11.3
20 -1 -14 39.8 13.5
20 -1 14 41.7 13.5
20 1 -14 38.4 13.9
20 2 14 1.8 4.2
20 -2 -14 5.8 7.5
20 -2 -14 -4.7 3.4
20 2 -14 4.3 5.5
20 -2 14 -5.1 4.4
20 2 -14 -4.4 6.7
20 -3 -14 10.9 7.9
20 -3 -14 13.6 6.3
20 3 14 20.1 6.6
20 3 -14 14.1 8.4
20 3 -14 14.8 10.1
20 -3 14 7.4 9.2
-20 3 14 19.3 6.3
20 -4 -14 -6.8 5.1
20 4 14 -0.2 2.7
20 -4 14 9.5 8.1
-20 4 14 0.7 4.3
20 4 -14 -1.9 6.7
20 4 -14 1.6 5.5
20 -5 -14 4.3 7.6
20 5 -14 -2.7 5.4
-20 5 14 -0.8 3.9
20 -5 14 10 8.8
21 0 14 132.69 20.9
21 0 -14 112.79 23.6
21 -1 -14 9.9 6.4
21 -1 -14 14.3 9
21 1 14 14.9 7.6
21 1 -14 26.2 12.2
21 1 -14 4.4 6.6
21 -1 14 24.8 10.4
21 -2 -14 131.19 26.5
21 -2 -14 126.39 17.9
21 2 14 150.68 19.3
21 2 -14 125.49 25
21 2 -14 117.29 21.3
21 -2 14 154.68 22.9
21 -3 -14 18.2 10.5
21 3 14 28.2 7.6
21 -3 14 24.6 11.8
-21 3 14 27.1 7.3
21 3 -14 13.8 8.2
21 3 -14 9 7
21 4 14 115.69 11.1
21 -4 -14 98.09 22.6
-21 4 14 99.89 13.6
21 4 -14 76.99 18.1
21 4 -14 58.19 16.8
21 -4 14 91.59 22.3
21 -5 -14 4.8 8.2
-21 5 14 -2.6 3.5
21 5 -14 5.3 7.4
21 5 -14 1.5 7
21 -5 14 -6.8 7.6
22 0 -14 56.79 13.2
22 0 14 50.89 15.2
22 0 -14 46.1 15.8
22 -1 -14 21.5 12.4
22 1 14 8.1 6
22 -1 -14 -0.2 8.5
22 1 -14 4.8 5.3
22 -1 14 3.8 6.5
22 1 -14 -2.3 6.4
22 -2 -14 27.4 13.3
22 2 14 37.1 10.9
22 -2 -14 36.3 10.1
22 2 -14 41.9 14.4
22 -2 14 39.2 13.2
22 2 -14 20.4 9.2
22 -3 -14 7 8.4
22 3 14 5 5.8
22 3 -14 -12.8 6
22 3 -14 -0.9 4.9
22 -3 14 5.3 8
22 -4 -14 6.9 10.5
22 4 -14 6.7 6.1
-22 4 14 4.8 5.6
22 4 -14 13.9 8.7
22 -4 14 0.8 8.5
23 0 14 373.96 42.6
23 0 -14 417.56 40.6
23 0 -14 405.06 46.6
23 -1 -14 -0.9 5.6
23 1 14 5.1 7.1
23 -1 -14 14.8 10.4
23 -1 14 8.2 7.8
23 1 -14 12.1 6.8
23 1 -14 8.7 11.3
23 -2 -14 44 15
23 2 14 59.99 14.1
23 2 -14 29.9 9.6
23 -2 14 37.4 13.5
23 2 -14 37.3 14.4
23 -3 -14 28.6 14
23 3 14 49.8 10.8
23 -3 14 58.09 16.1
23 3 -14 40.8 13.3
23 3 -14 24 12.2
24 0 -14 29.8 10.6
24 0 -14 41.8 15.8
24 0 14 46.9 15.1
24 1 14 38.6 12.3
24 -1 -14 22.7 8.2
24 -1 -14 4.4 10.2
24 1 -14 30.2 11.8
24 1 -14 14.5 9.7
24 -1 14 19.2 11.3
24 2 14 33.5 11
24 -2 -14 25.1 12.3
24 2 -14 17.2 11.6
24 -2 14 24.2 10.4
24 2 -14 29.3 10.7
24 3 14 4.5 6.7
24 -3 -14 -1.4 8.7
24 3 -14 5.9 7.8
24 -3 14 20.8 9.5
25 0 -14 33.3 14.5
25 0 -14 33.8 11.3
25 0 14 22.3 12.1
25 -1 -14 10.1 9.6
25 1 14 2.3 7.9
25 -1 -14 10.7 7.2
25 -1 14 14.9 10.2
25 1 -14 0.2 6
25 1 -14 9.7 9.4
0 0 -15 3.1 2.5
0 0 15 2.5 2.5
0 -1 15 1.8 3.3
0 -1 -15 0.9 1.9
0 1 -15 2 1.6
0 1 -15 0.4 2
0 2 -15 731.13 56.59
0 -2 -15 804.32 56.59
0 2 -15 642.94 58.99
0 3 -15 0.4 2.1
0 -3 -15 -1.5 1.1
0 -3 15 -3.7 3.5
0 3 -15 -3.3 2.5
0 -4 -15 75.29 7.8
0 4 -15 74.69 9.5
0 4 -15 70.69 11.4
0 -5 15 1.8 4.8
0 5 -15 0.3 4.4
0 5 -15 0.2 2
0 -6 15 0 4.8
0 6 -15 1.9 4.3
0 -6 -15 3.1 1.7
0 -6 -15 0.5 1.2
0 6 -15 -0.5 2.6
0 -7 15 2.6 5.5
0 7 -15 7.8 4.9
0 7 -15 -1.6 2.1
0 8 -15 328.77 31.6
0 8 -15 343.57 28.8
0 8 -15 347.87 28.6
0 9 -15 -4.4 3.9
0 -9 15 -2.2 6.7
0 -9 -15 -3.1 2.2
1 0 -15 3.2 2.3
1 0 15 2.4 2.4
-1 0 -15 4.1 2.5
-1 0 15 3.6 2.8
1 -1 -15 525.45 40
1 -1 -15 537.45 40.9
-1 1 -15 473.65 42.9
-1 1 -15 516.95 40.3
1 1 -15 504.35 42.2
-1 -1 -15 489.75 41.3
1 1 -15 534.45 40.8
1 -2 -15 40.2 5.8
1 -2 -15 51.09 5.6
-1 -2 15 68.69 10
-1 2 -15 35.5 8.7
-1 2 -15 45 6.1
1 -2 15 72.89 10
1 2 -15 33.3 7.8
-1 -2 -15 37.6 6
1 2 -15 40.4 6.9
-1 3 -15 72.29 11.5
1 -3 -15 65.39 7.5
1 -3 -15 72.89 7.3
-1 3 -15 63.79 8.3
1 3 -15 73.09 9
-1 -3 -15 80.49 8.1
1 3 -15 66.59 10.6
1 -4 -15 84.99 8.6
-1 4 -15 77.89 14.4
-1 4 -15 89.89 10.2
1 -4 -15 90.79 8.4
-1 -4 -15 89.99 8.9
1 4 -15 80.09 10.3
1 4 -15 81.59 12.5
-1 5 -15 162.28 20
-1 5 -15 153.18 16.8
1 -5 -15 196.18 14.6
1 -5 -15 172.58 14.7
1 5 -15 168.28 17.6
1 5 -15 157.48 19.3
1 -6 -15 94.29 9
1 -6 -15 91.59 8.6
-1 6 -15 89.59 13.9
-1 6 -15 93.49 11.6
1 -6 -15 100.89 8.2
-1 -6 -15 85.39 9.6
-1 -6 -15 97.39 9.8
1 6 -15 83.29 12.9
1 6 -15 91.29 11.9
-1 7 -15 170.78 18.6
1 -7 -15 175.68 15.2
-1 7 -15 187.18 20.2
-1 -7 -15 167.38 14.5
1 7 -15 190.48 19.5
1 7 -15 174.48 19.5
-1 -7 -15 196.38 15.5
-1 -7 -15 182.98 14.1
-1 8 -15 109.59 12.3
-1 -8 15 161.58 19.2
-1 8 -15 101.19 13.7
-1 8 -15 124.59 12.8
1 -8 -15 92.39 10
1 8 -15 124.69 11.9
1 8 -15 109.19 11.6
1 -8 15 167.88 20
1 8 -15 114.49 14.6
-1 -8 -15 108.99 10.4
-1 -9 15 115.29 17
-1 9 -15 65.29 14.4
1 -9 -15 66.59 7.5
1 -9 -15 84.79 10.2
-1 -9 -15 74.39 7.5
1 9 -15 85.39 13.8
2 0 15 -0.9 2.3
2 0 -15 -0.1 1.8
-2 0 15 1 2.2
-2 0 -15 1.4 2.5
2 1 15 46.9 6.3
2 -1 -15 31.6 5.4
-2 1 -15 29.3 7.8
-2 -1 15 53.19 8.2
2 -1 -15 30.2 5.1
2 -1 15 56.69 9.7
2 1 -15 37.9 6.2
-2 -1 -15 34.8 7.1
2 1 -15 29.5 5.8
2 -2 -15 603.54 45.5
2 -2 -15 640.14 45.9
-2 2 -15 599.04 46
-2 2 -15 546.55 49.99
-2 -2 -15 584.64 46.7
2 2 -15 580.34 46.8
2 2 -15 544.95 48.1
-2 3 -15 520.25 45.2
-2 3 -15 502.55 40.1
2 -3 -15 528.05 39.1
2 -3 -15 520.25 39.3
2 3 -15 509.75 41.2
2 3 -15 433.36 42.3
-2 -3 -15 497.85 39.8
-2 4 -15 16 4.4
-2 -4 15 12.8 6.8
2 -4 -15 15.8 3.3
2 -4 -15 16.1 3.2
-2 4 -15 9.4 6.5
2 -4 15 24.1 7.9
2 4 -15 14.4 4.8
2 4 -15 10.1 5.7
-2 -4 -15 15.5 3.7
-2 5 -15 89.39 13.5
2 -5 -15 75.39 8.2
2 -5 -15 88.19 8
-2 5 -15 77.49 10.1
2 5 -15 82.59 12.2
2 5 -15 79.39 11
2 -6 -15 10.6 2
2 -6 -15 9.3 1.7
-2 -6 15 25.7 8.2
-2 6 -15 9.8 3.9
2 -6 -15 13.8 3.1
-2 6 -15 4.5 5.5
2 6 -15 16.3 5.9
2 6 -15 15.4 5.5
-2 -6 -15 12.7 3.5
2 -6 15 19.4 8.3
-2 -6 -15 17.7 4.2
2 -7 -15 -2.7 1.5
-2 7 -15 -3 4.2
-2 -7 15 -1.9 4.3
-2 7 -15 -3.3 2.5
2 7 -15 -1.1 3.4
2 7 -15 -1.8 2.9
-2 -7 -15 -2.7 1.8
2 7 -15 -0.4 4.3
2 -7 15 -1 5.2
-2 -7 -15 -1.5 1.6
-2 8 -15 3.6 4.2
-2 -8 15 -4.4 5.3
2 -8 -15 -2.6 1.9
-2 8 -15 6.8 4.6
-2 -8 -15 0.6 2.1
2 8 -15 3.1 4.2
2 -8 15 1.4 5.9
2 8 -15 -2.1 2.8
2 8 -15 3.6 2.8
2 -9 -15 16.7 5.4
2 -9 -15 11.7 3.1
-2 -9 15 23.7 9.7
-2 -9 -15 14 3.1
2 -9 15 11.5 8.6
2 9 -15 16.1 7.3
3 0 -15 -0.7 1.7
-3 0 -15 -0.8 2
3 0 -15 -0.6 1.8
3 0 15 0.1 2.7
-3 -1 15 39.3 7.8
3 -1 -15 26.9 5.2
3 -1 -15 24.5 5
-3 1 -15 29.1 8.3
3 1 -15 32.4 6.1
-3 -1 -15 27.5 6.5
3 1 -15 31.3 6.3
3 -1 15 39.9 8.8
3 -2 -15 17.8 3.9
3 -2 -15 10.6 3.4
-3 -2 15 29.9 7.3
-3 2 -15 11.7 5.5
3 2 -15 15.9 4.9
3 -2 15 26.5 7.6
3 2 -15 25.9 6.1
-3 -2 -15 17.9 5
3 -3 -15 126.69 11.3
3 -3 -15 127.29 11.4
-3 3 -15 96.79 15.1
-3 3 -15 123.19 11.9
3 3 -15 132.39 13.6
-3 -3 -15 118.09 12.2
3 3 -15 89.39 13
-3 4 -15 49.2 7.1
3 -4 -15 55.89 6.2
-3 4 -15 62.99 12.6
3 -4 -15 53.09 6.3
-3 -4 15 83.39 12.2
3 4 -15 32.1 7.6
3 -4 15 81.59 12.4
3 4 -15 42.1 9.3
-3 -4 -15 50.79 6.9
-3 5 -15 13.5 6
3 -5 -15 4.5 2
-3 5 -15 4.6 3
3 -5 -15 5.7 2.3
-3 -5 15 11 5.6
3 5 -15 8.9 5.3
3 5 -15 0.3 2.4
3 -5 15 10.4 6.3
-3 -5 -15 7.3 4.4
-3 6 -15 21.8 7.8
-3 6 -15 12.9 4.4
-3 -6 15 35.1 9.5
-3 -6 -15 7.8 3.8
3 6 -15 23.6 7.2
3 6 -15 19.2 6.4
3 -6 15 36.7 10.6
-3 7 -15 35.3 8.8
-3 -7 15 61.49 12.6
-3 7 -15 33.1 7.3
-3 -7 -15 32.5 5.6
3 -7 15 50.09 12.6
3 7 -15 31.7 7.7
-3 -7 -15 32.4 5.4
3 7 -15 37.9 8.8
3 7 -15 31.1 7.7
-3 8 -15 149.19 15.2
-3 8 -15 115.09 14.7
3 8 -15 132.39 12.1
-3 -8 -15 109.79 11.7
3 8 -15 114.39 15.7
-3 -8 -15 126.79 10.5
-3 -8 -15 136.59 10.2
-3 -9 15 11.7 7.8
-3 9 -15 14.6 5.7
3 -9 -15 13.3 5.3
3 9 -15 11.8 6
3 -9 15 11.8 7.3
4 0 -15 0.9 1.7
4 0 -15 2.1 2.3
-4 0 -15 -1.1 2.6
4 0 15 -0.8 2.9
-4 -1 15 112.09 12.1
-4 1 -15 90.69 12.7
4 -1 -15 90.59 9.7
4 -1 -15 76.39 9
4 1 -15 92.09 10.3
4 1 -15 79.39 9.8
-4 -1 -15 69.59 10.7
4 -2 -15 1.2 1.8
-4 -2 15 2.3 3.7
4 -2 -15 -1.4 1.5
4 2 15 -2.1 1.2
-4 2 -15 -1.7 3
4 2 -15 1.7 2.6
-4 -2 -15 0.8 1.9
4 -2 15 -3.6 2.8
4 2 -15 -2.1 1.8
4 -3 -15 996 69.99
-4 3 -15 956.7 76.89
4 -3 -15 947.81 69.89
4 3 -15 790.92 71.99
4 3 -15 981.5 72.69
-4 -3 -15 850.81 71.09
-4 4 -15 0.2 4
-4 4 -15 2.5 2.3
-4 -4 15 8.7 5.7
4 -4 -15 3.7 2.4
4 -4 -15 5.1 2.3
4 4 -15 5.2 3.9
4 -4 15 10.7 5.7
-4 -4 -15 0.2 2.7
4 4 -15 3.2 3.5
-4 5 -15 87.49 15.7
-4 5 -15 87.09 9.8
4 -5 -15 74.29 7.4
4 5 -15 66.69 11.2
4 5 -15 69.89 11.9
-4 -5 -15 78.59 9.1
-4 6 -15 6.3 5.7
-4 -6 15 -1.8 4.1
-4 6 -15 -0.7 1.9
4 6 -15 0.4 2.9
4 -6 15 -5.4 3.8
-4 -6 -15 -3 2.5
4 6 -15 0.5 4.2
-4 -7 15 19.4 7.8
-4 7 -15 10.4 4.3
-4 7 -15 13.3 6.7
4 7 -15 18.5 5.6
-4 -7 -15 10.1 4.1
4 -7 15 9.5 7
4 7 -15 8.6 4.5
4 7 -15 3.1 4
-4 -8 15 0.4 6
4 -8 -15 0.6 4.5
-4 8 -15 -2.6 3.3
-4 8 -15 9.7 5.1
4 -8 15 7.1 8.3
4 8 -15 2 2.4
-4 -8 -15 4.5 2.8
-4 -8 -15 1.6 2.1
4 -9 -15 6.3 4.8
-4 9 -15 -3.3 3.7
-4 -9 15 2.3 6.1
4 9 -15 6 5.8
4 -9 15 2.8 7.8
5 0 -15 -0.7 1.9
-5 0 -15 2.7 3.7
5 0 -15 -0.4 2
5 -1 -15 403.16 32.8
-5 1 -15 366.26 36.7
5 -1 -15 417.46 32.4
-5 -1 -15 373.56 35.1
5 1 -15 420.66 33.3
5 1 -15 376.46 33.4
-5 -2 15 193.78 17.8
5 2 15 176.58 13.9
5 -2 -15 134.89 13.6
-5 2 -15 129.79 18.2
5 -2 -15 146.79 14.2
5 2 -15 132.79 14.9
5 2 -15 142.99 15.5
-5 -2 -15 108.49 15
5 -2 15 192.78 19.2
5 -3 -15 437.96 35.5
5 -3 -15 496.25 35.8
-5 3 -15 458.55 42.3
-5 -3 -15 403.36 37.1
5 3 -15 403.66 37.4
5 3 -15 474.25 38.6
-5 -4 15 87.59 11.7
5 -4 -15 52.79 6.4
-5 4 -15 45.3 6.8
-5 4 -15 57.49 12.6
5 4 -15 43.1 9.1
5 -4 15 71.79 13.7
-5 -4 -15 48.8 7.8
5 4 -15 57.89 10.7
-5 5 -15 98.79 10.5
5 -5 -15 85.99 8.2
-5 5 -15 94.19 15.1
5 5 -15 92.29 12.5
-5 -5 -15 82.99 11.1
5 -5 15 128.69 16.6
-5 -5 -15 70.09 10
5 5 -15 74.99 11.6
-5 6 -15 8.7 6.1
-5 -6 15 3.1 5.1
-5 6 -15 1.5 2.5
-5 -6 -15 -0.5 2.3
-5 -6 -15 -0.9 2.8
5 -6 15 1.8 4.3
5 6 -15 0.8 4.1
5 6 -15 4.4 4.4
5 6 -15 -0.1 3.5
-5 7 -15 11.4 3.9
-5 -7 15 9.8 7.2
-5 7 -15 5.1 5.2
5 7 -15 1.8 4.4
5 -7 15 4.2 6.1
-5 -7 -15 4.4 3
-5 -7 -15 10.1 3.7
5 7 -15 -0.9 3.5
5 7 -15 7 4.3
-5 8 -15 7.6 7.8
5 -8 -15 -0.8 4
-5 8 -15 -0.7 3.2
-5 -8 15 1.5 5.7
-5 -8 -15 5.7 3.3
5 8 -15 -0.5 4.9
5 8 -15 5.5 2
6 0 -15 2.3 2.5
-6 0 -15 0.8 3.9
6 0 -15 -1.9 1.8
6 0 15 -2 2.7
6 -1 -15 830.12 62.49
-6 1 -15 732.23 67.59
6 -1 -15 811.42 63.29
-6 -1 -15 752.42 65.99
6 1 -15 856.61 63.29
6 1 -15 847.02 64.39
-6 2 -15 127.79 17.8
-6 -2 15 173.38 14.9
6 -2 -15 110.19 12.5
6 -2 -15 122.69 12.5
6 -2 15 155.78 17.4
-6 -2 -15 106.39 14.3
6 2 -15 127.89 14.5
6 2 -15 124.79 13.6
6 -3 -15 326.27 27.1
-6 3 -15 334.77 33.9
6 3 -15 346.67 30.1
-6 -3 -15 298.07 29.1
6 3 -15 323.37 29
-6 -4 15 10.5 5.4
-6 4 -15 8.9 6
6 -4 -15 5.9 2.4
-6 -4 15 10.9 5.2
-6 -4 -15 0.7 2.8
6 4 -15 1.6 4.1
6 -4 15 5.5 5.9
6 4 -15 5.8 3.9
6 -5 -15 23.6 3.8
-6 -5 15 48.8 10.9
-6 5 -15 31.2 9.2
-6 5 -15 25 5.6
6 5 -15 27.3 6.9
6 -5 15 35.2 10.5
-6 -5 -15 26.5 6.8
-6 -5 -15 26.4 6.5
6 5 -15 19.8 6.7
-6 6 -15 23.5 5.6
-6 6 -15 27 8.7
-6 -6 15 47 10.7
6 6 -15 33.4 8.9
6 6 -15 27.6 7.8
-6 -6 -15 27 6.8
6 -6 15 22.9 9.5
6 6 -15 25.3 6.7
-6 -6 -15 23.3 5.7
-6 7 -15 15.9 7
-6 7 -15 12.6 4.1
-6 -7 15 20.4 7.9
-6 -7 -15 9.6 4.5
6 7 -15 22 7.2
-6 -7 -15 11.9 4.4
6 7 -15 14.7 5.4
6 7 -15 14.4 5.6
6 -7 15 19.9 8.4
-6 8 -15 48.7 9.5
-6 -8 15 104.89 18.7
-6 8 -15 62.99 13.4
6 8 -15 66.99 12.9
6 -8 15 110.09 19.7
-6 -8 -15 64.19 8.6
-6 -8 -15 56.29 8.2
-7 0 15 -2 2.1
7 0 -15 2.1 2.5
7 0 -15 0.9 3
-7 0 -15 -2.9 2.8
7 0 15 2.5 3.9
-7 -1 15 572.54 41.6
-7 1 -15 461.55 45.6
7 -1 -15 474.25 40.1
7 1 -15 496.15 40.7
7 -1 15 612.04 45.3
7 1 -15 450.05 41.7
-7 -1 -15 453.65 44
7 -2 -15 347.47 30.8
7 -2 -15 372.56 31.3
-7 2 -15 394.26 37.8
7 2 -15 397.56 32.1
7 2 -15 370.86 33.3
7 -2 15 410.36 36
-7 -2 -15 329.87 33.6
-7 3 -15 34 11.2
7 -3 -15 28.8 5.7
-7 -3 15 35 7.5
-7 -3 15 50.59 10
7 -3 15 46 11.2
7 3 -15 37.7 7.7
-7 -3 -15 30.6 7.9
7 3 -15 24.7 7.4
7 -4 -15 -0.9 1.4
-7 -4 15 0.3 3.1
-7 4 -15 0.9 4.9
-7 -4 15 3.7 4.8
7 4 -15 -2 2.1
7 -4 15 -3.8 2.7
7 4 -15 1.9 3.5
-7 -4 -15 0 3
-7 5 -15 75.29 9
-7 -5 15 108.19 12.4
-7 -5 15 106.39 13.7
7 -5 -15 56.79 6.7
-7 5 -15 88.89 16
7 5 -15 78.49 14.1
7 5 -15 71.09 12.8
-7 -5 -15 66.09 9.9
7 5 -15 59.19 10
7 -5 15 81.29 16.2
-7 -5 -15 83.39 12.6
-7 6 -15 24.7 5.8
-7 -6 15 32.1 8.7
-7 6 -15 19.3 7.9
-7 -6 -15 24 5.7
-7 -6 -15 15.6 6.3
7 6 -15 23.4 7.2
7 -6 15 31.5 10.7
7 6 -15 20.5 6.4
7 6 -15 25 7.8
7 -7 -15 71.29 12.6
-7 7 -15 39.9 8.1
-7 -7 15 84.69 13
-7 7 -15 44 11.6
7 7 -15 60.39 9.7
7 7 -15 47.5 9.6
7 -7 15 70.59 15.6
7 7 -15 55.39 11.6
-7 -7 -15 52.99 8.9
-7 -7 -15 57.19 8.5
-7 8 -15 68.59 16.2
-7 8 -15 84.89 11.2
7 -8 -15 84.99 13.6
7 8 -15 88.49 14.9
-7 -8 -15 76.89 9.9
7 -8 15 125.49 18.8
-7 -8 -15 76.39 9.9
8 0 -15 -1.2 2.6
-8 0 15 2.7 2.5
-8 0 -15 -1.8 3.4
8 0 -15 2.2 2.2
8 0 15 0.5 3.7
8 -1 -15 0.1 2.4
8 -1 -15 5.4 3.7
-8 1 -15 2.8 5.8
8 1 15 -0.1 3.5
-8 -1 15 1.7 3
-8 1 15 12 3.7
8 1 -15 7.2 3.9
8 -1 15 6.2 5.4
-8 -1 -15 6.1 4
8 1 -15 7.1 3.5
-8 2 -15 603.74 56.79
8 -2 -15 599.24 50.29
8 -2 -15 628.54 50.29
8 2 -15 603.24 52.49
8 -2 15 764.42 56.49
8 2 -15 657.93 50.99
-8 -2 -15 577.64 53.49
-8 -3 15 12 4.5
-8 3 -15 8.6 7.3
8 -3 -15 15.5 4.3
8 3 -15 10.8 4.6
8 -3 15 9.8 6.8
-8 -3 -15 14.4 6.2
8 3 -15 10.8 4.8
8 -4 -15 -0.5 1.7
-8 4 -15 0.5 5.2
-8 -4 15 -4.6 2.2
-8 -4 -15 3.9 3.3
8 -4 15 -1.3 3.8
8 4 -15 3.1 3.3
8 4 -15 -2 3.8
-8 -5 15 3.7 4
8 -5 -15 2.8 1.7
-8 5 -15 4 2.9
-8 -5 15 8 5.7
8 -5 15 7.8 7.3
-8 -5 -15 -2 3.5
8 5 -15 13.9 5.9
-8 -5 -15 7.2 4.1
8 5 -15 -2.6 3.8
8 5 -15 5.4 4.2
-8 6 -15 27.7 6.1
-8 -6 15 46.6 10.4
-8 6 -15 44 11
8 -6 15 48.8 13.4
8 6 -15 25 8.3
-8 -6 -15 24 6.4
8 6 -15 29.2 8.3
-8 -6 -15 28.2 5.8
8 6 -15 22.3 6.5
8 -7 -15 61.09 12.7
-8 -7 15 70.49 13.8
-8 7 -15 52.49 11.2
-8 7 -15 58.19 9.3
8 7 -15 55.29 18.1
8 7 -15 50.59 9.2
8 7 -15 43.3 9.6
-8 -7 -15 47.4 9.2
8 -7 15 77.09 16.8
-8 -7 -15 49.7 9.3
-8 -8 15 235.18 23.1
8 -8 -15 183.58 21.6
-8 8 -15 166.88 21
-8 8 -15 164.68 18.3
-8 -8 -15 185.58 17.5
-8 -8 -15 174.08 17.9
8 8 -15 130.99 20.2
8 -8 15 252.67 28.3
9 0 -15 0.1 2.2
9 0 15 -3.7 2.6
-9 0 -15 -4.2 4.3
9 0 -15 1.6 3.1
-9 -1 15 4.6 3
-9 1 -15 -4.9 3.5
9 1 15 0.3 3.4
9 -1 -15 -0.6 2.5
9 -1 -15 2 2.9
9 -1 15 1.2 3.6
9 1 -15 2.5 2.8
9 1 -15 3.5 3.5
-9 -1 -15 2.4 4.1
-9 1 15 6.8 3.2
-9 2 -15 260.47 30.5
9 -2 -15 241.88 24.3
-9 -2 15 311.97 25.8
-9 -2 -15 252.07 27.6
9 2 -15 275.17 26.8
9 2 -15 276.87 24.8
9 -2 15 318.47 29.9
-9 -3 15 344.97 34.2
-9 3 -15 272.07 31.1
9 3 15 298.77 21.8
9 -3 -15 246.18 23.9
-9 -3 -15 228.48 26.8
9 3 -15 259.87 24.9
9 -3 15 331.27 31.1
9 3 -15 276.77 27.6
-9 -4 15 21.2 6
9 -4 -15 17.2 4.2
-9 4 -15 22.5 9.9
9 4 -15 26.7 8.6
9 -4 15 21 9
-9 -4 -15 13.8 6.4
9 4 -15 25.5 6.7
9 4 -15 21.5 7
9 -5 -15 0.4 1.4
9 5 -15 1.8 3.4
-9 -5 -15 5 3.6
9 5 -15 1.7 4.7
9 -5 15 -0.2 5.3
9 5 -15 4.9 4.2
-9 -5 -15 3.6 4.1
-9 6 -15 25.9 6
9 -6 -15 24.3 8.5
-9 6 -15 32.8 9.4
9 -6 15 28 9.9
9 6 -15 31.3 8.3
-9 -6 -15 19.9 6.5
-9 -6 -15 27.4 7.1
9 6 -15 30.2 7.2
9 6 -15 17.9 7.3
9 -7 -15 63.79 12.9
-9 7 -15 41.7 8
-9 7 -15 53.79 12.4
-9 -7 -15 58.19 8.8
9 7 -15 35.5 9
9 7 -15 38.4 10
9 7 -15 50.19 9.4
-9 -7 -15 51.89 9.3
-9 8 -15 135.09 16
-9 8 -15 135.29 19.2
9 -8 -15 159.18 20.4
9 -8 15 204.28 25.5
9 8 -15 161.88 20.3
-9 -8 -15 161.78 17.2
-9 -8 -15 147.19 16.1
-10 0 -15 -2.1 3.9
10 0 15 -0.9 3.9
10 0 -15 -1.8 2.1
-10 0 15 4 3.3
10 0 -15 0 2.5
-10 -1 15 7.5 3.9
-10 1 -15 19.3 8.6
10 -1 -15 14.8 5.4
10 1 15 13.2 5.6
10 -1 -15 13.4 4.5
-10 -1 -15 20.3 7.8
10 -1 15 17.7 7.3
10 1 -15 24 5.7
-10 1 15 18.8 4.7
10 1 -15 8.7 4.6
10 2 15 9.7 4.1
-10 -2 15 -0.3 3.3
10 -2 -15 0.2 3
-10 2 -15 -3.6 3.8
10 -2 15 3.3 5.4
10 2 -15 1.1 2.8
-10 2 15 -0.4 2.4
10 2 -15 5.5 4.4
-10 -2 -15 -2.1 3.8
10 -3 -15 34.6 7.3
10 3 15 66.09 6.3
10 3 -15 44.6 10.3
-10 -3 -15 42.3 11
10 -3 15 60.09 13.6
10 3 -15 65.99 14
10 3 -15 54.19 9.8
10 -4 -15 247.78 21.1
-10 4 -15 258.17 28.9
10 4 -15 230.88 25.2
-10 -4 -15 239.58 24.9
10 4 -15 196.88 21.8
10 4 -15 234.58 26.4
10 -4 15 282.97 29.3
-10 5 -15 29.4 10.3
10 -5 -15 41.7 10.7
10 -5 -15 24.1 4.1
-10 -5 -15 34 8.6
10 5 -15 32.1 8.7
10 5 -15 25.4 9.1
10 5 -15 26 7.3
10 -5 15 26 10.1
-10 -5 -15 29.2 8.4
10 -6 -15 82.99 15.7
-10 6 -15 85.79 16
-10 6 -15 68.89 9.3
10 6 -15 62.69 10.2
10 6 -15 78.19 14.2
-10 -6 -15 74.69 13.2
-10 -6 -15 54.19 11
10 -6 15 95.59 18.7
10 6 -15 83.49 13.3
-10 7 -15 29.5 10.8
-10 7 -15 29.8 6.6
10 -7 -15 47.3 11.7
10 7 -15 23.6 8.3
10 7 -15 26.3 7.6
10 -7 15 32.8 10.9
-10 -7 -15 35.2 8.3
10 7 -15 22.5 6.5
-10 8 -15 -2.6 3.6
10 -8 -15 7.1 6
-10 8 -15 3.7 8.6
-10 -8 -15 -5.3 6.1
-10 -8 -15 9.6 4.6
10 -8 15 -0.6 7.7
10 8 -15 2.7 5.6
11 0 -15 -0.5 2.8
-11 0 -15 -1.4 4.3
-11 0 15 -1.6 2.6
11 0 -15 -4.8 1.8
11 0 15 2.4 4
11 1 15 518.35 41.1
-11 -1 15 493.85 39.7
11 -1 -15 435.76 39.8
11 -1 -15 457.85 39.3
-11 1 -15 434.86 49.1
11 -1 15 449.76 42.7
-11 1 15 531.05 39
-11 -1 -15 410.66 43.8
11 1 -15 441.46 41.2
11 1 -15 474.45 39.2
-11 2 -15 21.4 8.7
11 -2 -15 18.5 5.5
-11 -2 15 15.8 6.4
11 2 15 28 6.3
-11 2 15 22.5 5.1
11 2 -15 28.5 6.7
11 2 -15 8.9 5.5
-11 -2 -15 26.9 7.9
11 -2 15 16.6 7.7
11 2 -15 15 7.4
11 -3 -15 151.78 16.9
-11 3 -15 163.68 23.7
11 3 -15 178.08 22.4
11 3 -15 167.68 20.5
11 -3 15 216.78 24.2
-11 -3 -15 165.88 21.1
11 3 -15 191.28 18.5
11 -4 -15 13.9 4.3
11 -4 -15 13.4 6.8
-11 4 -15 10.3 9.3
11 4 -15 2.6 4.1
11 4 -15 15.6 7.2
11 4 -15 8.1 4.4
-11 -4 -15 14.5 6.1
-11 -4 -15 19.4 7.1
11 -4 15 15 8.8
11 -5 -15 9.1 7.2
-11 5 -15 15 9
-11 -5 -15 20.6 6.2
11 5 -15 6.4 6.1
11 5 -15 13.7 5.2
-11 -5 -15 6.8 5.1
11 -5 15 5.6 7.3
11 5 -15 3 5.3
-11 6 -15 75.59 9.9
-11 6 -15 75.59 16.5
11 -6 -15 80.69 16.1
11 6 -15 56.29 10
11 6 -15 68.89 13.3
-11 -6 -15 95.59 12.4
11 6 -15 104.59 17.8
-11 -6 -15 98.29 12.5
11 -6 15 83.59 18.3
11 -7 -15 118.19 18.3
-11 7 -15 114.59 13.4
11 -7 15 122.79 23
-11 -7 -15 144.09 15.3
11 7 -15 101.99 13.7
11 7 -15 125.19 15.8
11 7 -15 103.09 18.7
-11 -7 -15 126.69 16.2
-11 8 -15 77.79 10.9
-11 8 -15 79.29 15.4
11 -8 -15 91.19 18.1
-11 -8 -15 100.89 16.2
11 -8 15 133.69 20.6
11 8 -15 73.59 15.6
12 0 15 -1.7 3.5
12 0 -15 0 4.8
12 0 -15 -2.7 2.7
-12 0 15 -0.9 2.9
12 0 -15 -1.2 2.5
-12 1 -15 214.48 29.3
12 1 15 295.47 26.5
-12 -1 15 273.77 24.8
12 -1 -15 276.17 25.1
12 -1 -15 280.57 30.7
12 -1 -15 222.28 24.3
-12 -1 -15 270.27 29.9
12 -1 15 242.48 27.6
-12 1 15 278.47 23.8
12 1 -15 222.28 25.4
12 1 -15 276.97 30.4
12 1 -15 254.47 24
-12 2 -15 6.5 6.6
12 -2 -15 2.3 5.3
12 -2 -15 -3.1 2.2
-12 -2 15 -1.4 3.1
12 2 15 1.4 4.6
-12 2 15 0 2.5
12 2 -15 -2.7 3
-12 -2 -15 -2.5 4.1
12 -2 15 -2.7 4.2
12 2 -15 -4.7 2.1
12 2 -15 -0.4 4.1
12 -3 -15 139.19 19.6
-12 3 -15 116.09 22.2
12 3 -15 125.79 14.5
12 3 -15 130.09 18.8
-12 -3 -15 121.79 17.9
12 -3 15 125.49 18.8
12 3 -15 111.59 16.7
-12 3 15 165.68 13.6
-12 4 -15 119.29 18.2
12 -4 -15 114.49 17.3
12 -4 -15 90.59 10.6
12 4 -15 91.09 16
-12 -4 -15 78.79 15.3
12 -4 15 104.79 19.2
12 4 -15 72.79 16.1
12 4 -15 91.69 11.9
-12 -4 -15 87.09 14.8
-12 5 -15 -3.3 6.6
12 -5 -15 -2 3.3
-12 -5 -15 9.8 5.7
12 5 -15 -3.7 3.4
12 5 -15 2.4 4.6
12 -5 15 -4.4 4
12 5 -15 -2.3 4.5
-12 -5 -15 -0.3 4.1
12 -6 -15 42.6 11.7
-12 6 -15 47.9 13.1
-12 -6 -15 47.1 10.5
12 6 -15 43.5 10.7
12 6 -15 24.6 7.2
12 6 -15 50.19 12.5
-12 -6 -15 50.89 9.5
12 -7 -15 -0.9 5.2
-12 7 -15 3.3 8.4
-12 7 -15 3.6 3.8
12 -7 15 -8.8 4.7
12 7 -15 2.1 4.9
12 7 -15 6.2 5.1
12 7 -15 -2.6 4.3
-12 8 -15 -0.8 4.5
12 -8 -15 12.1 7.9
-12 8 -15 24.3 10.8
12 -8 15 4.2 6.6
12 8 -15 1.9 5.9
13 0 15 -1.7 3.6
13 0 -15 -6.6 3.2
-13 0 15 -0.9 3
-13 0 -15 -2 5.2
13 1 15 33.7 9
13 -1 -15 33.4 8.1
13 -1 -15 27.4 10.2
13 1 -15 28.4 7.2
13 -1 15 23.8 8.2
13 1 -15 23 9.4
-13 1 15 34.4 7.5
13 1 -15 26.8 8.3
-13 -1 -15 40.8 11.8
13 2 15 396.66 31.6
-13 2 -15 327.57 37.5
13 -2 -15 303.27 30.8
13 -2 -15 322.47 36.3
-13 -2 15 364.26 32.1
-13 -2 -15 302.57 35.2
13 2 -15 343.37 37
-13 2 15 408.66 30.5
13 2 -15 276.47 32.5
13 -2 15 353.66 36.1
13 2 -15 396.56 31.7
13 -3 -15 -1.9 2
-13 3 -15 7.5 7.7
13 -3 -15 -6.3 3.9
13 3 15 -0.7 2.1
-13 3 15 -2.9 1.8
13 3 -15 2.7 4.8
13 3 -15 -1.6 3.2
13 -3 15 -3.3 4
13 -4 -15 85.99 9.9
13 -4 -15 74.99 16.1
13 4 -15 64.79 10.5
-13 -4 -15 76.59 13.9
13 -4 15 80.69 17.6
13 4 -15 74.59 15
13 4 -15 76.19 15.9
13 -5 -15 5.2 6.5
-13 -5 -15 10.1 6.2
13 5 -15 3.5 5.6
-13 -5 -15 11.7 6.3
13 5 -15 8.7 4.7
13 -5 15 5.1 6.9
13 -6 -15 100.99 19.5
-13 -6 -15 94.19 16.7
13 6 -15 110.49 18.7
13 -6 15 133.39 20.2
13 6 -15 79.09 12
13 6 -15 110.69 15.9
-13 7 -15 1.3 9.2
-13 7 -15 2.7 3.2
13 -7 -15 7.7 6.6
13 7 -15 6.3 5.5
13 7 -15 -5.7 4.4
13 -7 15 -7.4 6
13 7 -15 -1.8 5
-13 -7 -15 15.9 7.6
14 0 -15 -0.5 2.9
14 0 15 0.3 4
14 0 -15 -0.1 5.3
-14 0 -15 5.8 7.8
14 -1 -15 38.7 11.8
14 1 15 51.79 10.9
14 -1 -15 34 8.8
-14 -1 15 45.1 9.2
14 1 -15 61.69 15
14 1 -15 56.69 9.9
14 -1 15 36.2 11.2
-14 -1 -15 44.4 12.8
-14 1 15 45.2 8.7
14 1 -15 53.49 11.6
14 2 15 9.3 4.6
14 -2 -15 3.5 5.6
-14 -2 15 5 4.6
14 -2 -15 2.3 3.2
-14 2 15 0.9 3.2
14 2 -15 4.5 3.9
14 2 -15 0.7 5.5
14 2 -15 6.8 4.1
-14 -2 -15 9 6.9
14 -2 15 1.4 4.1
14 3 15 -0.3 2.6
14 -3 -15 3.6 5.3
14 -3 -15 -4.9 2
-14 -3 -15 6.3 3.9
14 -3 15 -2.3 4.4
-14 -3 -15 4 4.7
14 3 -15 4.6 4.7
14 3 -15 -2.2 4.5
14 3 -15 -0.4 4.4
-14 3 15 -1 2.5
14 -4 -15 102.69 20.3
14 -4 -15 106.59 11.9
14 -4 15 112.49 20.8
14 4 -15 82.29 17.2
-14 -4 -15 90.39 15.1
14 4 -15 96.39 12.7
14 4 -15 131.29 17.2
14 -5 -15 -5.6 4.6
14 5 -15 2.4 3.4
-14 -5 -15 -2.3 5.2
14 5 -15 -4.3 3.4
14 5 -15 1.6 4.9
14 -6 -15 19.5 9.8
-14 -6 -15 13.6 7.2
14 6 -15 21 7.1
14 6 -15 18.1 7.4
14 6 -15 12.8 7.7
14 -6 15 16.3 9
-14 7 -15 6.9 4.6
14 -7 -15 12.1 8.7
14 7 -15 12.9 6.2
14 7 -15 1.5 5.6
14 7 -15 13.1 6.3
15 0 -15 10.8 6.6
15 0 15 -3 4.3
-15 0 15 1.6 4.1
15 1 15 130.29 16.6
-15 -1 15 143.09 15.7
15 -1 -15 95.69 14.3
15 -1 -15 103.79 21
-15 -1 -15 141.99 26.9
15 1 -15 103.29 17.5
15 -1 15 129.39 18.7
15 1 -15 109.49 21.2
-15 1 15 117.99 13.9
15 -2 -15 37.7 12.3
15 2 15 52.19 10
15 -2 -15 39.7 8.5
-15 -2 -15 36.4 10.5
15 -2 15 37.8 12.1
-15 2 15 54.69 8.9
15 2 -15 59.09 12.8
15 2 -15 45.5 13
15 3 15 16.6 4.8
15 -3 -15 -0.4 5.3
15 -3 -15 6.6 4.5
-15 3 15 15.9 4.7
-15 -3 -15 19.9 9.1
15 3 -15 12.5 8.2
15 -3 15 10.7 7.4
15 3 -15 4.6 4.5
15 -4 -15 17.6 5.3
15 -4 -15 16.8 9.1
-15 4 15 29.2 5.8
15 -4 15 24.6 10.7
15 4 -15 13.6 7.9
-15 -4 -15 31.9 8.9
15 4 -15 22 6.9
15 -5 -15 0.4 6.8
15 -5 15 3.7 7.6
15 5 -15 16.6 6.4
15 5 -15 15.3 8.1
15 5 -15 7.6 6.4
15 -6 -15 8.6 8.5
15 6 -15 8.3 8.2
15 -6 15 6.6 8.1
15 6 -15 8.3 6.5
15 6 -15 4.2 5.4
15 -7 -15 16.6 9.3
-15 7 -15 12.2 5.2
15 7 -15 7.2 6.3
15 7 -15 18.9 8.7
15 7 -15 15 6.5
15 -7 15 -3.9 5.9
16 0 15 -7.4 5.1
-16 0 15 -5 3.5
16 0 -15 -1.7 3.2
16 0 -15 3.6 6
16 -1 -15 378.36 41
16 1 15 518.45 44
16 -1 -15 517.35 49.4
16 1 -15 481.55 48.4
16 -1 15 509.55 46.6
16 1 -15 451.55 43.3
16 -2 -15 57.39 11.3
16 -2 -15 81.19 18.1
16 2 15 79.49 11.9
16 -2 15 53.19 14.1
16 2 -15 52.99 12.2
-16 2 15 69.39 11.1
16 2 -15 65.89 16.4
16 -3 -15 5.3 4.1
16 -3 -15 9.1 7.3
16 3 -15 4.6 6
16 3 -15 17.8 10
16 -3 15 15.1 9
-16 3 15 14.3 5
16 -4 -15 4.2 3.1
16 -4 -15 -3.7 5.9
16 4 -15 4 6.5
16 4 -15 3.2 5.5
-16 4 15 8 3.2
16 -4 15 -4.5 6.5
16 -5 -15 5.3 6.4
16 5 -15 5.3 6.5
16 5 -15 5.9 6
16 5 -15 2.7 4.9
16 -5 15 12.1 8
16 -6 -15 44.6 13.7
16 6 -15 23.5 9.6
16 6 -15 43.9 11.5
16 -6 15 32.6 11.8
16 6 -15 24.6 7.1
-16 7 -15 142.09 15.7
16 -7 -15 144.59 22
16 7 -15 134.59 16.6
16 -7 15 147.19 27
16 7 -15 113.89 21.9
16 7 -15 127.79 17.2
-17 0 15 -2.4 4
17 0 -15 4.1 5.5
17 0 15 -3.4 4.7
17 0 -15 3 3.4
17 -1 -15 4.1 4.3
17 -1 -15 13.3 8.2
17 1 15 0.6 4.5
17 1 -15 7.7 5.8
17 1 -15 10.3 7.8
-17 1 15 3.2 4.7
17 -1 15 -0.4 5.2
17 2 15 109.29 14.6
17 -2 -15 85.29 19.4
17 -2 -15 63.49 13.3
17 2 -15 93.29 20.2
-17 2 15 129.59 13.6
17 2 -15 76.79 15.4
17 -2 15 84.59 18.2
17 3 15 706.13 49.3
17 -3 -15 536.75 49.8
17 -3 -15 605.14 58.39
17 -3 15 552.24 57.49
17 3 -15 526.15 56.89
-17 3 15 663.23 49
17 3 -15 496.15 55.19
17 -4 -15 21.3 10
17 -4 -15 22.4 5.9
-17 4 15 25.3 5.8
17 4 -15 18.5 8.8
17 4 -15 15.1 7.8
17 -4 15 27.1 11.8
17 -5 -15 76.49 18
17 5 -15 65.79 14.9
17 5 -15 35.5 12.6
17 -5 15 74.19 18.1
17 -6 -15 141.79 21.8
17 6 -15 85.09 18.9
17 6 -15 108.69 17.3
17 -6 15 99.19 20.9
18 0 15 -4.6 3.3
18 0 -15 6.4 5.5
18 0 -15 -5.7 4.8
18 -1 -15 12.7 8.3
18 1 15 12.7 6.9
18 -1 -15 0.5 4.3
18 -1 15 5.5 5.9
-18 1 15 13.5 5.8
18 1 -15 6.7 6.3
18 1 -15 1 7.1
18 -2 -15 55.89 11.5
18 2 15 69.89 12.7
18 -2 -15 60.59 16.4
18 2 -15 42.7 13.7
18 -2 15 55.79 15.1
-18 2 15 88.39 11
18 2 -15 46.8 14.6
18 -3 -15 209.98 28.7
18 -3 -15 192.58 22
18 3 -15 216.48 26.3
18 3 -15 195.68 27.4
-18 3 15 242.68 21.3
18 -3 15 199.08 27.3
18 4 15 17.8 2.9
18 4 -15 5.4 6.6
-18 4 15 16.6 5.2
18 4 -15 9.8 6.7
18 -4 15 21.7 11.6
18 -5 -15 15.6 9.4
18 -5 15 2.3 7.1
18 5 -15 9.2 5.3
18 5 -15 17.7 9
18 -6 -15 -2.8 7.7
18 6 -15 1.8 5.7
18 6 -15 -0.6 6.1
18 -6 15 4.7 9.4
19 0 15 -1.5 4.8
19 0 -15 -6.5 3
19 -1 -15 41.1 11.5
19 1 15 54.79 12.8
19 -1 15 73.49 16.7
19 1 -15 56.39 13.6
19 2 15 23.4 7.8
19 -2 -15 18.6 11.7
19 -2 -15 15.6 7
19 -2 15 16.7 8.7
19 2 -15 23.3 8.8
-19 2 15 21.5 6.5
19 3 15 8.4 5
19 -3 -15 -4.8 3.3
19 -3 -15 3.7 6.9
19 3 -15 4.4 6.7
19 -3 15 2.1 7.1
-19 3 15 7.6 4.6
19 4 15 81.39 8
19 -4 -15 71.99 19.7
19 -4 15 72.89 18.5
19 4 -15 70.09 16.2
-19 4 15 96.59 11.1
19 -5 -15 -3.4 6.8
19 5 -15 -1.3 7.1
19 5 -15 -4.8 6.6
19 -5 15 5.1 7.1
20 0 -15 -4.6 4.4
20 0 15 3 6.4
20 0 -15 9.3 8.5
20 1 15 15.6 7.5
20 -1 -15 13.9 7.1
20 -1 -15 1 5.9
20 -1 15 15.7 9.7
20 1 -15 16.2 6.6
20 1 -15 7.8 7.5
20 -2 -15 2.3 4.5
20 -2 -15 19.4 9.8
20 2 15 3.4 5.6
20 2 -15 12 7.3
20 2 -15 3.4 7.5
20 -2 15 9.5 7.9
20 -3 -15 75.69 19.6
20 3 15 80.89 11.9
20 -3 -15 62.99 12.1
-20 3 15 96.19 12.3
20 -3 15 71.89 18.9
20 3 -15 72.69 18.6
20 3 -15 71.69 15.9
20 -4 -15 76.59 19.7
20 4 15 91.09 8.8
20 4 -15 49.6 14.5
20 -4 15 107.49 22.7
-20 4 15 84.99 11.3
20 4 -15 79.79 17.5
20 -5 -15 -6.7 7.2
20 5 -15 -8.3 5.6
20 5 -15 8.9 7.1
20 -5 15 2.3 9
-20 5 15 -10 3.7
21 0 -15 -3.3 4.9
21 0 -15 1.7 6.3
21 0 15 5.2 9.6
21 1 15 18.2 8.1
21 -1 -15 32.9 11.2
21 -1 -15 6.7 5.4
21 -1 15 11.6 9.6
21 1 -15 8 6.6
21 1 -15 7.3 8.9
21 -2 -15 10.7 6
21 2 15 6.5 6.2
21 -2 -15 24.7 11.9
21 2 -15 15.5 8.3
21 2 -15 8.1 8.8
21 -2 15 11 9.1
21 3 15 193.58 20
21 -3 -15 124.19 26.9
21 3 -15 154.98 25.1
21 -3 15 192.28 26.6
21 3 -15 182.58 24.6
21 -4 -15 61.99 17.9
21 4 15 74.09 8.1
21 -4 15 77.59 18.8
-21 4 15 41 9.6
21 4 -15 62.39 16.1
21 4 -15 57.19 16
22 0 -15 5.6 5.1
22 0 -15 2.6 8.4
22 0 15 2.4 5.9
22 -1 -15 1.2 5.8
22 1 15 3.2 6.7
22 -1 -15 3.7 6.1
22 1 -15 0.5 5.7
22 1 -15 -3.2 7.1
22 -1 15 -4.4 6.2
22 -2 -15 92.19 15.9
22 2 15 111.19 15.7
22 -2 -15 65.89 18.7
22 2 -15 72.49 16.3
22 -2 15 67.59 17.5
22 2 -15 73.19 19.2
22 -3 -15 4 8
22 3 15 2.6 5.1
22 -3 15 4 6.8
22 3 -15 -12 6.2
22 3 -15 -13.5 5.4
22 4 15 0.7 5.2
22 -4 -15 14 7.5
-22 4 15 14 7.4
22 4 -15 6.2 7.6
22 -4 15 24.8 12.5
22 4 -15 6.3 8.1
23 0 -15 -1.9 6
23 0 -15 5.1 10
23 0 15 1.1 6.7
23 -1 -15 39.5 10.4
23 -1 -15 35.5 14.5
23 1 15 22.1 10.8
23 1 -15 26.8 10.4
23 1 -15 20.1 10.9
23 -1 15 15.4 11.2
23 -2 -15 97.99 24
23 -2 -15 105.19 18
23 2 15 118.69 17.3
23 -2 15 92.59 20.6
23 2 -15 57.39 17.7
23 2 -15 111.39 20.1
23 -3 -15 35.8 14.9
23 3 15 26.4 8.6
23 -3 15 18.6 11.6
23 3 -15 15.4 9.7
23 3 -15 16.1 9.4
24 0 -15 3.3 5.3
24 0 -15 -9.4 8.7
24 0 15 -1.3 7
24 -1 -15 10.2 9.4
24 1 15 13 9.6
24 -1 -15 22.5 9
24 -1 15 22.1 13.3
24 1 -15 16.2 8.2
24 1 -15 17.9 11.7
24 -2 -15 -10.4 6.3
24 2 15 16.6 12.7
24 2 -15 13.8 8.4
24 2 -15 -4.7 5.4
24 -2 15 4.1 8.2
0 0 -16 1226.08 94.89
0 0 -16 1249.28 92.99
0 1 -16 -0.8 1.4
0 1 -16 1.3 2.5
0 -1 16 4.7 3.9
0 -1 -16 5.4 2.4
0 2 -16 315.07 30.6
0 -2 -16 341.67 27.8
0 2 -16 341.07 28
0 -3 16 0.8 4.4
0 3 -16 -2.9 3.1
0 3 -16 -0.5 1.8
0 -3 -16 -0.5 1.6
0 4 -16 0.4 2.3
0 4 -16 -2.5 3.1
0 -4 16 -2.6 3.4
0 -4 -16 -1.1 1.6
0 5 -16 -3.7 1.9
0 -5 16 -2.4 4.3
0 5 -16 -0.5 4
0 -5 -16 -3.9 1.7
0 -5 -16 0.5 1.3
0 6 -16 170.48 17.6
0 -6 -16 149.09 14.4
0 -6 -16 167.28 13.6
0 6 -16 174.18 19.9
0 -6 -16 163.48 14.3
0 -7 16 -0.1 4.5
0 7 -16 -1.3 2.8
0 7 -16 5.8 5.2
0 -8 -16 1.6 2.4
0 8 -16 3.2 3.8
0 8 -16 3.3 3.8
1 0 -16 59.69 6.9
1 0 -16 54.09 7.7
-1 0 -16 47.1 7.9
-1 1 -16 430.16 34.6
1 -1 -16 441.66 35.3
-1 1 -16 396.86 37.3
1 1 16 510.85 35.9
-1 -1 -16 412.96 35.7
1 1 -16 421.66 34.8
1 1 -16 407.06 36.5
-1 2 -16 41.8 9.3
1 -2 -16 37.5 5.2
1 -2 -16 33.2 4.6
-1 2 -16 22.7 5
-1 -2 16 63.59 10.9
1 2 -16 28.9 5.8
1 2 -16 31.6 7.7
-1 -2 -16 30.5 5.9
-1 3 -16 53.69 7.3
1 -3 -16 55.19 6.3
-1 3 -16 51.39 11.4
1 -3 -16 48.5 6.5
1 -3 16 86.99 12.5
1 3 -16 56.39 11.3
-1 -3 -16 54.89 6.9
1 3 -16 57.59 7.9
-1 4 -16 82.59 15.3
1 -4 -16 96.89 9
1 -4 -16 95.29 9.4
-1 4 -16 92.29 10.9
1 4 -16 85.69 10.9
-1 -4 -16 99.69 9.7
1 4 -16 92.19 13.3
-1 5 -16 180.88 23.1
-1 5 -16 219.08 20.6
1 -5 -16 216.28 18.1
1 -5 -16 228.88 17.7
-1 -5 -16 224.58 18.4
1 5 -16 191.88 22.7
1 5 -16 215.18 21
1 -6 -16 -1.9 1.8
1 -6 -16 1.5 1.3
-1 6 -16 6.5 5.5
-1 6 -16 2.8 2.9
-1 -6 16 -6.2 4.3
1 -6 -16 -2.3 1.4
-1 -6 -16 0.5 2
-1 -6 -16 -2 2.1
1 6 -16 1.4 4.6
1 6 -16 1.9 3
1 -6 16 -0.8 5.4
-1 7 -16 123.49 16.1
-1 7 -16 116.59 14.1
1 -7 -16 120.89 10.9
-1 -7 -16 128.49 9.8
1 7 -16 96.59 14.7
1 7 -16 116.99 14.5
-1 -7 -16 117.29 11
-1 -7 -16 105.69 10.1
-1 8 -16 -6.9 3.1
-1 8 -16 3.5 5.6
-1 8 -16 3.6 5.1
1 8 -16 -2.5 2.5
-1 -8 -16 -2.1 2.2
1 8 -16 2.3 3.9
1 8 -16 0.2 3.5
-2 0 -16 -2.7 2.2
-2 0 16 2.5 3
2 0 -16 -2.7 1.6
2 0 -16 -2.2 1.3
-2 1 -16 158.28 19.6
2 -1 -16 212.78 17.9
-2 -1 -16 181.08 18.6
2 1 -16 203.18 19
2 1 -16 204.98 17.9
2 -2 -16 440.76 33
-2 2 -16 410.16 33
-2 2 -16 419.36 37.6
2 -2 -16 414.96 32.4
2 2 -16 356.26 34.8
2 2 -16 412.96 33.8
-2 -2 -16 388.76 33.6
-2 3 -16 -1.8 1.5
-2 -3 16 -0.8 3.9
-2 3 -16 -0.3 4
2 -3 -16 -0.6 1.3
2 -3 -16 -0.4 1.6
2 3 -16 -0.9 2.9
2 3 -16 -1 2.1
-2 -3 -16 1.4 2
2 -3 16 -0.9 4.1
2 -4 -16 192.18 15.6
-2 4 -16 172.78 20.9
-2 4 -16 177.88 17.1
2 -4 -16 182.88 15.8
-2 -4 -16 183.48 16.3
2 4 -16 150.48 19.1
2 4 -16 186.08 18.3
-2 5 -16 236.38 26.8
2 -5 -16 280.17 20.8
-2 5 -16 245.68 23.1
2 -5 -16 257.57 21.1
2 5 -16 217.78 25.2
2 5 -16 252.77 24.2
-2 -5 -16 264.27 21.6
2 -6 -16 0.1 1.3
2 -6 -16 0.8 2.1
2 -6 -16 -0.2 1
-2 -6 16 11.3 7.4
-2 6 -16 -3.9 2.2
-2 6 -16 9.2 5.7
-2 -6 -16 -0.1 1.9
2 6 -16 3.5 5
2 6 -16 1 3
2 -6 16 -4.3 3.6
-2 -6 -16 3.7 2.6
-2 7 -16 19.5 5.4
-2 7 -16 24.9 7.8
-2 -7 16 38.8 10.8
2 -7 -16 23.5 4.2
-2 -7 -16 15.3 3.5
-2 -7 -16 21.5 4.4
2 7 -16 20.6 6.3
2 -7 16 47.9 11.7
2 7 -16 20.9 6.2
-2 8 -16 14.9 5.8
-2 8 -16 11.4 8.8
2 -8 -16 21.2 4
2 8 -16 8.4 6.5
2 8 -16 13.8 4.6
-2 -8 -16 13.6 3.5
2 8 -16 16.6 5.5
3 0 -16 1259.17 92.59
-3 0 -16 1120.89 94.89
3 0 -16 1273.47 92.99
3 1 16 -3.6 2.5
-3 -1 16 -1.1 2.6
3 -1 -16 0.5 2
-3 1 -16 -2 2.6
3 -1 16 -4.7 3.2
3 1 -16 -2 2
-3 -1 -16 -3.4 1.7
3 1 -16 -1.9 1.3
3 -2 -16 271.77 22.1
-3 2 -16 263.77 27.1
3 -2 -16 293.17 22.5
-3 -2 -16 223.48 23
3 2 -16 244.88 24
3 2 -16 259.27 23.4
3 -3 -16 90.79 9.4
-3 3 -16 84.99 13.5
3 -3 -16 90.39 9.2
-3 3 -16 94.09 9.9
3 3 -16 90.19 12.1
3 3 -16 98.59 11.3
-3 -3 -16 76.09 9.9
3 -4 -16 -1.2 1.9
-3 4 -16 1.4 4.1
-3 -4 16 5.8 5.2
3 -4 -16 1.6 1.8
-3 4 -16 1 1.9
3 4 -16 -3.9 2.8
3 4 -16 2.4 3
3 -4 16 2.6 4.8
-3 -4 -16 -0.1 2
3 -5 -16 17.1 3.5
-3 5 -16 22.6 7.6
3 -5 -16 19.3 4.1
-3 -5 16 44.8 10.3
-3 5 -16 21.9 5.6
3 5 -16 27.2 6.6
3 5 -16 22.6 7.1
-3 -5 -16 25 5
3 -5 16 41.4 10.8
3 -6 -16 123.99 9.7
3 -6 -16 131.49 11.9
-3 6 -16 153.78 18.4
3 -6 -16 115.29 9.7
-3 6 -16 114.79 13.6
-3 -6 -16 131.79 12.3
3 6 -16 107.89 15.3
3 6 -16 132.39 15.5
3 -7 -16 3.3 2.5
-3 7 -16 6.1 5.3
-3 7 -16 11.9 5
-3 -7 16 21 8
3 7 -16 5.4 4.8
3 7 -16 11.8 5.7
3 7 -16 4.4 4.7
3 -7 16 11.9 7.3
-3 -7 -16 3.6 3.1
-3 -7 -16 2.6 2.6
3 -8 -16 -2.1 2.4
-3 8 -16 3.1 3.6
-3 -8 -16 -1.2 0.9
3 8 -16 2.8 3.9
-3 -8 -16 1.8 2.4
3 8 -16 0.9 3.4
-3 -8 -16 1.6 1.5
3 8 -16 4.1 4.2
3 -8 16 4.6 6.5
4 0 -16 100.49 10.8
4 0 -16 105.09 11.1
-4 0 -16 83.39 12.5
-4 1 -16 181.58 21.6
-4 -1 16 255.17 21.2
4 -1 -16 197.38 19.5
4 -1 -16 199.98 17.9
4 1 -16 193.68 18.7
-4 -1 -16 158.68 19.4
4 1 -16 205.58 19
4 -2 -16 -0.1 1.8
-4 -2 16 -4.3 2.3
-4 2 -16 1.2 4.2
4 2 16 0.1 1.8
4 -2 -16 0.2 1.9
4 2 -16 2.3 2.9
-4 -2 -16 0.3 2.7
4 2 -16 0.1 1.9
4 -2 16 3.5 3.8
-4 3 -16 24.1 5.1
-4 -3 16 34.9 8.7
4 -3 -16 21.5 4.6
4 -3 -16 20.5 4.5
-4 3 -16 21.7 8.5
4 3 -16 25.3 6
4 3 -16 18.4 5.9
4 -3 16 29.5 9.1
4 -4 -16 154.18 13.7
4 -4 -16 164.18 13.6
-4 4 -16 146.89 14.4
-4 4 -16 127.09 18.5
4 4 -16 108.99 15.5
-4 -4 -16 141.69 14.7
4 4 -16 165.88 16.6
4 -5 -16 565.14 40.9
-4 5 -16 528.05 42
-4 5 -16 500.45 47
4 -5 -16 539.65 39.8
4 5 -16 438.46 43.8
-4 -5 -16 504.15 41.5
4 5 -16 509.35 44.2
-4 6 -16 156.28 19
-4 6 -16 126.39 14
4 6 -16 125.09 15.8
4 6 -16 134.69 16.6
4 -6 16 190.98 21.6
-4 -6 -16 117.99 13
-4 -6 -16 120.49 13.7
-4 7 -16 17.2 5.9
-4 -7 16 34.2 9.9
-4 7 -16 12 7
4 7 -16 11.9 6.4
-4 -7 -16 14 4.6
4 7 -16 16.1 6.2
4 -7 16 21.4 9.1
4 7 -16 13.8 6
-4 8 -16 5.5 4.1
-4 -8 -16 1.1 2.6
4 -8 16 5.2 7.4
4 8 -16 10.9 5.1
4 8 -16 0.4 3.5
-4 -8 -16 3.7 2.3
4 8 -16 -2.3 3.5
5 0 -16 737.13 60.99
5 0 -16 835.62 60.89
-5 0 -16 751.72 64.49
5 -1 -16 -1.8 1.4
5 1 16 4.6 3.4
-5 1 -16 0.2 3.5
5 -1 -16 0.7 1.8
5 -1 16 -2 3.1
-5 -1 -16 -0.6 2.7
5 1 -16 0 2.6
5 1 -16 -1.3 2.1
5 -2 -16 14.1 4.2
-5 2 -16 8.8 5.8
5 -2 -16 9.1 3.3
5 2 16 14.5 3.7
-5 -2 16 20.1 6.4
5 2 -16 14.7 5
-5 -2 -16 8.7 4.4
5 2 -16 13.6 5
5 -2 16 13.1 6.3
-5 3 -16 19.7 8.4
-5 -3 16 38.2 9.3
5 -3 -16 29.2 5.3
5 -3 -16 27.1 5.1
5 3 -16 17.8 5.7
5 3 -16 20.2 6.2
-5 -3 -16 29.7 6.7
5 -3 16 43.5 10.7
5 -4 -16 17 3.9
-5 4 -16 14 3.9
-5 4 -16 19.8 6.9
-5 -4 16 31.2 8.6
5 -4 -16 17.3 4.3
5 4 -16 10.1 5.1
5 4 -16 10.4 4.7
5 -4 16 22 7.5
-5 -4 -16 14.2 4.7
-5 5 -16 -0.2 2.1
-5 -5 16 1.3 4.2
5 -5 -16 -3 1.1
-5 5 -16 -0.1 4.4
5 5 -16 3.1 3.5
5 5 -16 0.2 3.5
-5 -5 -16 -3.5 2.4
5 -5 16 -1.5 5.1
-5 -6 16 26.6 8.8
-5 6 -16 26.6 6.1
-5 6 -16 28.2 9.2
5 6 -16 30 8.4
5 6 -16 24.7 7.1
5 -6 16 38.5 11.5
-5 -6 -16 18.8 5.1
5 6 -16 39.4 9.5
-5 -6 -16 15 5.6
-5 7 -16 -2.4 2.7
-5 -7 16 5.7 6
-5 7 -16 2.1 6.6
5 7 -16 -7.2 4
-5 -7 -16 2.9 2.8
-5 -7 -16 1.2 2.4
5 7 -16 7.5 5.1
5 7 -16 -7.3 3.4
5 -7 16 -8.7 5.3
-5 8 -16 2.1 3
-5 8 -16 2 6.5
-5 -8 16 3.3 5.4
5 8 -16 0.5 4.1
5 8 -16 6.5 3.8
5 8 -16 -4.5 4.6
-5 -8 -16 8.8 3.6
5 -8 16 5.7 6.7
6 0 -16 292.47 24.3
-6 0 -16 255.47 27.9
6 0 -16 269.57 24.9
6 -1 -16 235.48 20.6
6 -1 -16 210.18 19.5
-6 1 -16 188.58 23.6
6 -1 16 286.27 24.3
6 1 -16 214.48 20.9
6 1 -16 228.38 20.3
-6 -1 -16 168.08 21.6
6 2 16 111.29 10.2
6 -2 -16 93.49 10.4
6 -2 -16 87.19 9.8
-6 2 -16 84.69 16.7
-6 -2 -16 73.89 11.6
6 -2 16 119.99 15.3
6 2 -16 69.79 10.2
6 2 -16 87.69 11.7
-6 3 -16 64.59 14.8
-6 -3 16 91.89 12.5
6 -3 -16 72.29 8.6
6 -3 -16 66.39 8.3
6 3 -16 53.99 9.3
-6 -3 -16 59.09 11.1
6 3 -16 71.59 12.3
6 -3 16 108.49 14.6
-6 4 -16 10.4 3.6
-6 4 -16 16.6 7.7
-6 -4 16 12.7 6.1
6 -4 -16 8.9 3.2
-6 -4 -16 14.5 4.5
6 4 -16 8.9 5.2
6 -4 16 10.8 6.4
6 4 -16 9.5 5.2
6 -5 -16 52.89 6
-6 5 -16 53.79 7.5
-6 5 -16 50.39 13
-6 -5 -16 53.19 8.4
6 5 -16 44.7 10.2
6 5 -16 60.29 11.9
-6 -5 -16 53.29 9.5
6 -5 16 51.39 12.5
-6 6 -16 15.2 7.6
-6 -6 16 15.3 7.6
-6 6 -16 12.9 4.5
6 6 -16 8.2 5
-6 -6 -16 6.6 5
6 6 -16 6.8 5.5
6 6 -16 11.2 5.4
-6 -6 -16 9.1 4.3
6 -6 16 15.8 7.8
-6 7 -16 303.37 30
-6 7 -16 284.97 26.1
6 7 -16 335.47 28.9
-6 -7 -16 253.17 25.1
6 7 -16 273.77 27.3
-6 -7 -16 295.07 25.8
-6 -8 16 17.8 7.6
-6 8 -16 14 8.4
-6 8 -16 19 5.1
6 -8 -16 3.7 5.9
-6 -8 -16 13.7 3.4
-6 -8 -16 14.4 4.5
6 8 -16 16.1 4.5
6 8 -16 8.1 5.5
6 8 -16 5.6 4
6 -8 16 19.9 10
7 0 -16 197.38 17.8
7 0 -16 180.28 18.6
-7 0 -16 172.98 21.5
7 -1 -16 100.89 12.4
7 -1 -16 111.49 12
-7 -1 16 130.99 13.2
-7 1 -16 107.39 16.2
-7 -1 -16 89.59 14.4
7 1 -16 118.39 12.6
7 -1 16 144.69 16.2
7 1 -16 110.19 13.4
7 -2 -16 129.59 13.3
-7 2 -16 116.29 17.9
-7 -2 16 166.28 15.2
7 -2 -16 123.49 13.4
-7 -2 -16 110.29 15.6
7 2 -16 116.19 14.8
7 2 -16 117.99 13.8
7 -2 16 154.98 18
7 -3 -16 23.6 5.5
-7 -3 16 34 7.4
7 -3 -16 22.2 5.4
-7 -3 16 31.9 8.4
-7 3 -16 23.2 9.9
7 -3 16 25.7 9.2
-7 -3 -16 22.6 7.2
7 3 -16 27.5 7.5
7 3 -16 24 6.7
7 -4 -16 186.68 16.4
-7 4 -16 197.78 23.6
-7 -4 -16 175.98 19.1
7 4 -16 189.18 20.4
7 4 -16 160.98 18.3
-7 5 -16 6.4 6.9
7 -5 -16 0.4 1.3
-7 5 -16 -1.7 1.9
-7 -5 16 -3.1 3.8
7 5 -16 0.2 3.1
7 5 -16 0.2 3.4
-7 -5 -16 2 3.3
7 -5 16 0.3 5.8
-7 -5 -16 -1.8 2.5
-7 6 -16 22.2 9.2
-7 6 -16 12.7 4.3
-7 -6 16 41.6 10.6
-7 -6 -16 21.4 6.3
7 6 -16 32.1 8.7
7 6 -16 19.2 7.4
7 -6 16 32 10.7
-7 -6 -16 28.8 6
7 6 -16 24.1 6.9
7 -7 -16 114.89 15.4
-7 7 -16 96.09 15.5
-7 -7 16 157.58 18.7
-7 7 -16 109.39 12.5
7 7 -16 87.79 13.3
7 -7 16 153.98 27.7
-7 -7 -16 93.19 11.8
7 7 -16 100.99 14.1
7 7 -16 98.29 16.9
-7 -7 -16 90.09 12
-7 8 -16 3.7 7.9
-7 -8 16 -4.4 5.6
-7 8 -16 5.8 3.3
7 -8 -16 -0.3 5.5
-7 -8 -16 3.8 3.5
7 8 -16 1.7 4.9
7 8 -16 2 3.6
7 8 -16 4.2 3.9
7 -8 16 12.2 9.1
8 0 16 13 5.8
-8 0 -16 15 7
8 0 -16 16 5.7
-8 0 16 15.1 4.5
8 0 -16 15.9 4.6
8 -1 -16 18.2 4.8
8 -1 -16 17.6 5.8
-8 -1 16 10.9 4.3
-8 1 -16 12.7 7.7
8 1 16 23.8 6.7
8 1 -16 13.1 4.5
-8 -1 -16 13.4 6.1
8 -1 16 15.2 6.9
8 1 -16 13.4 5.4
8 -2 -16 97.69 11.6
-8 2 -16 101.09 16.7
-8 -2 16 110.19 12.8
8 -2 -16 85.49 17.3
8 2 16 136.49 12
8 -2 16 120.69 16.2
8 2 -16 94.49 13.2
8 2 -16 111.59 12.6
-8 -2 -16 84.29 13.9
-8 -3 16 88.39 14.7
8 -3 -16 63.99 8.8
-8 3 -16 85.29 17.7
-8 -3 -16 65.79 12.6
8 3 -16 64.59 12
8 -3 16 94.79 14.8
8 3 -16 63.59 9.7
-8 -4 16 79.69 11.9
-8 4 -16 68.49 17.8
8 -4 -16 64.19 7.8
8 -4 16 70.29 15
-8 -4 -16 51.99 10.9
8 4 -16 50.19 10.7
8 4 -16 61.29 9.9
-8 -5 16 4.7 5.1
-8 5 -16 5 6.2
8 -5 -16 3.2 1.8
-8 5 -16 -0.8 2.3
8 5 -16 0.5 3.6
8 5 -16 8 4.5
-8 -5 -16 9.6 4.2
-8 -5 -16 -0.4 3.8
8 5 -16 5.1 4.4
8 -5 16 5 6.3
-8 -6 16 95.49 13.8
-8 6 -16 81.19 9.5
-8 -6 -16 52.19 10.2
8 6 -16 63.19 12.8
-8 -6 -16 58.79 9.9
8 -6 16 104.89 18.8
8 6 -16 50.59 9.8
8 6 -16 68.79 13.1
-8 7 -16 30.9 10.6
-8 7 -16 44.1 8.3
8 -7 -16 27.7 8.8
-8 -7 16 43.1 11
-8 -7 -16 30.2 6.8
8 -7 16 48.5 15.7
8 7 -16 24.6 7.6
8 7 -16 24 8.4
-8 -7 -16 35.5 7.1
8 7 -16 31.3 7.5
8 -8 -16 5.2 5.4
-8 -8 16 6 5.8
-8 8 -16 9.4 4.2
-8 8 -16 3.9 8.3
8 8 -16 12.3 4.5
8 8 -16 8.9 5.2
8 8 -16 6.7 4
-8 -8 -16 17.8 4.6
8 -8 16 9.6 9.3
9 0 -16 685.23 53.59
9 0 -16 591.94 54.49
9 0 16 828.22 57.49
-9 0 -16 569.54 58.49
9 -1 -16 162.08 18.3
-9 1 -16 141.59 22.1
-9 -1 16 192.08 18.6
9 1 16 225.98 20.1
9 -1 -16 194.48 18.3
9 -1 16 213.78 22.2
-9 1 16 219.08 18.3
9 1 -16 187.08 18.2
-9 -1 -16 149.88 21.1
9 1 -16 169.58 19.5
9 -2 -16 6.4 3.7
-9 2 -16 6.9 6.8
9 2 16 0.8 2.9
-9 -2 16 -0.1 3.2
9 -2 -16 1 1.8
9 2 -16 1.8 3
9 -2 16 -1.3 4
9 2 -16 1.2 3.6
-9 -2 -16 0.4 4.2
9 3 16 93.89 8.3
9 -3 -16 92.19 10.6
-9 3 -16 73.69 17.4
9 -3 16 96.69 17.6
-9 -3 -16 79.79 13.4
9 3 -16 90.89 14.6
9 3 -16 81.09 11
-9 -4 16 -3.4 3.5
9 -4 -16 -0.3 2
-9 4 -16 9.5 6.4
9 4 -16 2 3.1
-9 -4 -16 -0.6 4.2
9 4 -16 -1.6 3.5
9 4 -16 2.4 5.2
9 -4 16 -2.5 5.3
9 -5 -16 213.08 18.1
-9 5 -16 189.98 26.2
9 5 -16 204.18 23.7
-9 -5 -16 218.08 22.7
9 5 -16 191.18 21.4
9 -5 16 277.57 28.6
-9 -5 -16 237.48 23
9 5 -16 240.98 25.4
-9 6 -16 15.2 7.3
-9 6 -16 10.7 3.8
9 -6 -16 3.5 5
9 6 -16 6.8 4.1
-9 -6 -16 12.6 5.1
9 6 -16 16.3 6.8
-9 -6 -16 6.2 4.7
9 6 -16 14.8 5.3
9 -6 16 1.7 5.9
-9 7 -16 11.4 4
9 -7 -16 6.8 6.1
-9 -7 -16 21.7 5.5
9 7 -16 14.8 5.7
9 7 -16 8 4.9
9 7 -16 18.3 7.3
-9 -7 -16 16.9 5.6
9 -7 16 -1.7 5.4
-9 8 -16 4.8 4.3
9 -8 -16 5 6
-9 8 -16 1 9
9 8 -16 10.1 4.5
-9 -8 -16 16.1 6
-9 -8 -16 18.7 5.2
9 -8 16 21.2 10.6
9 8 -16 15.2 6.7
9 8 -16 8.2 4.1
10 0 16 811.42 61.69
-10 0 -16 637.44 63.49
10 0 -16 714.43 58.19
10 0 -16 636.44 59.19
-10 0 16 855.61 58.89
10 -1 -16 486.75 48.6
-10 -1 16 683.53 49.7
10 -1 -16 581.74 48.7
10 1 -16 616.14 49.1
10 -1 16 664.83 53.29
10 1 -16 554.64 50.49
-10 -1 -16 500.65 52.79
-10 1 16 708.93 48.7
10 -2 -16 691.03 60.89
10 -2 -16 807.12 61.59
-10 2 -16 766.02 68.79
10 2 -16 820.02 64.59
10 -2 16 875.21 67.19
-10 -2 -16 674.13 64.69
10 3 16 203.48 15.5
10 -3 -16 170.48 17.5
-10 3 -16 146.09 23.4
10 3 -16 195.68 21.6
10 -3 16 194.28 23.4
-10 -3 -16 157.88 20.5
-10 4 -16 278.67 34.2
10 -4 -16 301.07 27
10 4 -16 354.66 32.6
-10 -4 -16 283.27 30.4
10 -4 16 392.76 36
10 4 -16 336.67 33.9
10 -5 -16 90.59 14.6
-10 5 -16 94.59 18.7
10 -5 -16 83.89 8.6
10 -5 16 118.99 18
-10 -5 -16 86.49 12.7
10 5 -16 105.09 15.1
-10 -5 -16 95.89 13.4
10 5 -16 64.29 10.9
10 5 -16 83.69 15.5
10 -6 -16 2.1 5
-10 6 -16 19.3 9.5
-10 6 -16 6 3.4
10 -6 16 6 7.3
10 6 -16 6.8 6.1
10 6 -16 6.8 4.3
-10 -6 -16 23.5 6
-10 -6 -16 5.5 4.2
10 6 -16 6.8 5.3
-10 7 -16 0.3 3
-10 7 -16 18.5 9.5
10 -7 -16 0.1 6
-10 -7 -16 12.8 5.9
10 7 -16 5.4 5.5
10 -7 16 6.7 7.8
10 7 -16 2.7 5.2
-10 -7 -16 12.7 5.4
10 7 -16 9.2 5.3
-10 8 -16 4.2 4
10 -8 -16 -0.4 6.8
10 -8 16 9.9 9.1
10 8 -16 9.7 6.5
10 8 -16 6.6 3.6
10 8 -16 0.1 3.8
-10 -8 -16 18.6 7
11 0 16 689.43 55.39
11 0 -16 623.44 52.39
11 0 -16 547.85 52.89
-11 0 -16 606.24 63.09
-11 0 16 744.23 52.69
-11 -1 16 372.36 30.4
11 1 16 387.96 31.6
11 -1 -16 258.37 29.2
-11 1 -16 268.97 34.3
11 -1 -16 311.97 29.7
11 1 -16 362.26 29.9
11 -1 16 342.47 33.5
-11 1 16 419.36 29.8
11 1 -16 296.47 31.1
-11 -1 -16 292.17 34.3
-11 2 -16 142.79 21.2
-11 -2 16 168.38 16.6
11 -2 -16 114.09 14.9
11 -2 16 145.79 19.3
-11 2 16 162.48 14.6
-11 -2 -16 103.89 17.5
11 2 -16 122.59 16.8
11 2 -16 149.69 15.6
11 2 -16 158.48 21
11 -3 -16 3 2.8
-11 3 -16 10.8 8.3
11 3 16 0.9 1.9
-11 -3 -16 -0.1 4.6
11 3 -16 1.4 3.6
11 3 -16 -0.2 3
11 3 -16 0.2 4.4
11 -3 16 -8.2 3.8
11 -4 -16 27.1 5.6
-11 4 -16 32.5 10.9
11 -4 -16 49.9 12
11 4 -16 20.9 7.7
11 4 -16 30.2 9.6
11 4 -16 30.6 7.3
-11 -4 -16 32.9 8.5
11 -4 16 49.9 13.7
-11 5 -16 71.49 16.6
11 -5 -16 96.49 17.5
11 -5 -16 65.29 7.5
-11 -5 -16 57.59 12.1
11 5 -16 69.59 14.3
11 5 -16 72.79 14.8
11 -5 16 106.99 19.8
-11 -5 -16 58.19 12.3
11 5 -16 68.89 13
-11 6 -16 10.6 9.4
-11 6 -16 2.5 3.3
11 -6 -16 5.9 5
11 6 -16 5.9 5.9
-11 -6 -16 15.9 5.4
11 -6 16 -2.5 6.4
11 6 -16 2.3 5
11 6 -16 4.5 4.7
-11 7 -16 20.2 11.5
11 -7 -16 56.49 13
-11 7 -16 34.3 7.3
-11 -7 -16 44.1 10.3
11 -7 16 30.9 11.2
11 7 -16 26.6 9.1
11 7 -16 22.2 6.7
-11 -7 -16 25.9 8.3
11 7 -16 30.2 8.4
11 -8 -16 24.4 9.5
-11 8 -16 14.7 4.6
-11 8 -16 23.6 11.8
11 -8 16 25.9 10.7
-11 -8 -16 23.1 6.8
11 8 -16 22 8.4
12 0 -16 377.26 36.5
-12 0 -16 363.26 40.5
-12 0 16 420.66 35.2
12 0 16 461.65 38.9
12 0 -16 412.86 42
12 -1 -16 3.3 3.8
12 1 16 8.6 4.9
-12 -1 16 4.4 7.8
12 -1 -16 7.3 3.5
12 1 -16 -1.7 3.2
12 1 -16 2.7 5.1
12 1 -16 5.4 3.9
12 -1 16 3.4 5.4
-12 1 16 3.9 3.8
-12 -1 -16 10.8 7
12 -2 -16 119.59 15.9
12 2 16 190.78 17.2
-12 -2 16 153.38 17
12 -2 -16 147.29 21.1
-12 2 -16 126.39 21.4
12 2 -16 155.08 21.5
12 -2 16 179.28 21.5
12 2 -16 138.29 18.5
-12 2 16 193.28 16.1
-12 -2 -16 121.89 21.1
12 2 -16 146.59 16.2
12 -3 -16 1.9 2.6
12 -3 -16 5.2 5.4
-12 3 -16 14.4 8.4
12 3 16 3.1 2.6
12 -3 16 1.1 5.4
12 3 -16 3.1 4.3
12 3 -16 6.5 6
12 3 -16 3.7 4
12 -4 -16 42 12.2
12 -4 -16 29.8 6.3
12 4 -16 53.19 12.4
12 4 -16 38.6 10.6
-12 -4 -16 44.3 9.7
12 4 -16 29.6 7.6
12 -4 16 58.89 14.5
12 -5 -16 56.49 6.7
12 -5 -16 65.89 15
12 5 -16 63.39 20.9
12 -5 16 60.59 15.8
-12 -5 -16 61.59 11.4
12 5 -16 59.89 13.7
12 5 -16 43.6 9.3
12 -6 -16 0.9 5.6
12 6 -16 -4 3.4
12 -6 16 -2.4 5.2
-12 -6 -16 11.6 7
12 6 -16 -0.3 4.4
12 6 -16 6 5.3
-12 7 -16 38.1 13.5
-12 7 -16 51.49 9.1
12 7 -16 28.7 9.1
-12 -7 -16 44 10.8
12 7 -16 30.1 10.3
12 7 -16 26.8 8.3
12 -7 16 54.29 16.5
13 0 16 -2.3 5
-13 0 16 -0.4 3.3
-13 0 -16 8.2 6.9
13 0 -16 -1.4 4.1
13 0 -16 -1.7 2.5
13 -1 -16 0.8 3.6
13 1 16 6.6 4.8
13 -1 -16 10.1 8.7
13 -1 -16 6.2 4.2
-13 -1 16 5.5 4
-13 1 16 -4.6 2.7
13 1 -16 -3.4 3
-13 -1 -16 12.3 7.7
13 1 -16 8.2 6.1
13 1 -16 5.6 5.2
13 -1 16 5.2 5.5
13 2 16 77.29 10
13 -2 -16 60.79 10.9
-13 2 -16 50.89 16.4
-13 -2 16 69.79 11.7
13 -2 -16 44.4 13.2
13 2 -16 45.7 11.4
13 2 -16 71.59 10.1
-13 2 16 71.49 9
-13 -2 -16 50.69 12
13 2 -16 47.3 13.6
13 -2 16 53.99 13.2
13 -3 -16 10.9 4.7
13 -3 -16 7.5 6.3
13 3 16 7.3 3.3
13 3 -16 1.7 5
-13 -3 -16 14.7 6.6
13 -3 16 1 5.6
-13 3 16 9.9 3.8
13 3 -16 9.8 5.5
13 3 -16 9.4 6.9
13 -4 -16 71.69 9.5
13 -4 -16 81.99 17.6
13 4 -16 93.09 17
-13 -4 -16 80.59 15
13 4 -16 89.59 17.8
13 -4 16 87.49 18.2
13 4 -16 79.09 11.3
-13 -4 -16 56.59 12.1
13 -5 -16 4.2 6.4
13 5 -16 2.5 5.2
13 5 -16 -3.2 3.9
13 5 -16 1.8 5.8
-13 -5 -16 1.8 5.9
13 -6 -16 47.5 12.2
13 -6 16 23.6 11.5
13 6 -16 26.9 9.3
13 6 -16 45.3 12
-13 -6 -16 21.3 9.2
13 -7 -16 7 7.8
13 -7 16 5.4 7.8
13 7 -16 15.1 6.4
-13 -7 -16 15.5 8.3
13 7 -16 12.7 7.7
13 7 -16 11.7 5.9
14 0 -16 108.69 20.5
-14 0 16 111.79 15.2
14 0 -16 98.59 14
14 0 16 106.89 15.9
14 1 16 37.3 8.9
14 -1 -16 20.8 7.5
14 -1 -16 30 11.8
-14 -1 16 29.3 7.6
-14 -1 -16 46.2 12.9
-14 1 16 26.3 7
14 -1 16 35.8 11.3
14 1 -16 28.3 11
14 1 -16 27.1 8.6
14 -2 -16 213.78 23.7
14 -2 -16 215.68 28.8
14 2 16 295.47 24.7
14 -2 16 271.37 29.5
-14 2 16 279.87 23.4
14 2 -16 232.38 29.4
-14 -2 -16 222.48 27.9
14 2 -16 234.28 26.7
14 -3 -16 56.69 14.7
14 3 16 88.59 9.2
14 -3 -16 57.49 10.6
-14 3 16 77.79 9.4
14 3 -16 44.9 11.3
-14 -3 -16 59.49 14.5
14 -3 16 54.29 14.7
14 3 -16 70.19 17
14 -4 -16 114.19 14.6
14 -4 -16 126.99 19.4
-14 -4 -16 105.19 17.4
14 4 -16 96.49 19.1
14 -4 16 121.19 19.4
14 4 -16 117.49 16.1
14 4 -16 91.09 19.8
14 -5 -16 18.6 9.6
-14 -5 -16 24.9 6.6
14 5 -16 15.3 7.6
14 -5 16 7 7.7
14 5 -16 8.6 6.5
14 5 -16 11.8 5.8
14 -6 -16 11.5 6.8
14 6 -16 6.6 7.2
14 6 -16 14.7 5.9
14 -6 16 12 8.9
14 6 -16 7.5 5.7
14 -7 -16 40.3 12.1
-14 7 -16 25.1 6.5
14 7 -16 27.1 7.8
14 7 -16 20.3 7.4
14 7 -16 8.3 7.4
14 -7 16 45.2 15
15 0 16 879.11 71.79
15 0 -16 733.43 68.89
-15 0 16 892.91 67.99
15 0 -16 858.21 75.99
15 -1 -16 48.7 10.8
15 -1 -16 48.4 13.5
15 1 16 58.29 12.1
-15 1 16 46.6 9.5
15 1 -16 58.09 15.1
15 -1 16 41.4 12.2
15 1 -16 39 10.4
15 -2 -16 11.4 7.2
15 -2 -16 9.9 5.8
15 2 16 19.2 6.9
15 2 -16 9.7 8.3
15 -2 16 1.7 5.2
15 2 -16 9.2 6.4
-15 2 16 16.5 5.2
15 3 16 0.5 3.2
15 -3 -16 -2.4 4.7
15 -3 -16 -1.3 2.3
-15 3 16 -3.3 2.8
15 -3 16 -5.9 4
15 3 -16 -4.5 5.6
15 3 -16 -1.3 4.7
15 -4 -16 11.5 8.4
15 -4 -16 3.6 3.4
15 4 -16 7.2 6.1
15 4 -16 5 6.3
15 -5 -16 22.9 8.9
15 -5 16 13.3 10.6
15 5 -16 14.2 8
15 5 -16 11.8 7.5
15 -6 -16 138.69 21.8
15 6 -16 106.49 20.3
15 6 -16 135.49 18.8
15 6 -16 116.49 15.3
15 -6 16 144.99 22.6
-15 7 -16 3.9 4.2
15 7 -16 11.6 6.5
15 7 -16 16 7.7
15 -7 16 7.5 9
-16 0 16 23.3 7.5
16 0 -16 33.2 12.3
16 0 16 12.8 7.1
16 0 -16 13.2 7.4
16 -1 -16 102.99 15.7
16 -1 -16 143.29 22.9
16 1 16 151.98 18
16 1 -16 123.09 17.9
16 -1 16 130.19 19.4
16 1 -16 133.09 21.5
-16 1 16 132.09 15.7
16 -2 -16 30 11.1
16 -2 -16 32.4 8.2
16 2 16 34.8 8.3
-16 2 16 17.8 6.8
16 -2 16 33.7 10.9
16 2 -16 22.6 10.8
16 2 -16 29.9 9.7
16 -3 -16 146.99 19.3
16 3 16 243.18 24.1
16 -3 -16 209.38 27.9
16 -3 16 183.98 25.2
16 3 -16 180.88 25.6
-16 3 16 206.88 19.1
16 -4 -16 93.59 12.4
16 -4 -16 110.29 21
16 4 -16 112.19 20.2
-16 4 16 119.99 12.1
16 -4 16 98.29 20.8
16 4 -16 95.89 19.8
16 -5 -16 56.99 15.7
16 5 -16 54.49 13.3
16 -5 16 75.99 18.8
16 5 -16 58.39 14.1
16 -6 16 80.49 18.9
16 6 -16 42 11.5
16 6 -16 41.9 8.9
16 6 -16 34.5 10.4
17 0 -16 111.89 22.7
17 0 16 104.59 16.8
17 0 -16 107.39 17.9
17 -1 -16 5.6 6.8
17 1 16 5 5.5
17 -1 -16 2.4 4.8
17 1 -16 1.2 5.4
17 1 -16 -0.9 4
-17 1 16 -4.3 3.9
17 -1 16 -3.8 5.1
17 -2 -16 29.4 12.2
17 2 16 26.9 8.1
17 -2 -16 15.5 6.3
-17 2 16 27.5 6.6
17 -2 16 28.2 10.6
17 2 -16 25 9.1
17 2 -16 42.8 13.1
17 -3 -16 7.2 8.4
17 -3 -16 8.2 5.1
17 3 16 7.7 4.2
17 3 -16 7.1 7.7
-17 3 16 7.1 4.4
17 -3 16 8.3 7.7
17 3 -16 17.7 8.2
17 -4 -16 2.8 6.2
17 -4 -16 13.4 4.5
17 4 -16 3.9 6.2
-17 4 16 0.8 3.5
17 -4 16 1.5 6.5
17 4 -16 0.5 5.1
17 -5 16 211.48 28.3
17 5 -16 178.28 24.5
17 5 -16 183.98 24.8
17 -6 -16 27.1 11.1
17 -6 16 15.4 11.1
17 6 -16 17.9 9.1
17 6 -16 17.4 9
18 0 -16 73.09 15
18 0 -16 92.99 21
18 0 16 111.89 17.3
18 1 16 55.69 12.9
18 -1 -16 50.19 11.1
18 -1 -16 79.59 18.9
18 1 -16 54.69 15.7
18 1 -16 68.89 14.5
18 -1 16 56.19 14.5
18 -2 -16 25 11.7
18 -2 -16 5.5 5.5
18 2 16 16.6 6.8
-18 2 16 28.5 7.4
18 2 -16 11 10
18 2 -16 32.4 10.9
18 3 16 2.8 4.1
18 -3 -16 2.6 3.9
18 3 -16 -0.3 5
18 -3 16 -0.1 6.6
-18 3 16 0.6 4
18 -4 -16 10.7 8
-18 4 16 16.8 5.7
18 4 -16 18 8.2
18 -4 16 6.2 8.5
18 -5 -16 123.29 23.5
18 -5 16 118.99 24.7
18 5 -16 107.69 20.5
18 5 -16 92.29 22.1
18 -6 -16 -11.9 7.3
18 -6 16 7.6 9
18 6 -16 -9.6 5.3
18 6 -16 3.5 6.2
19 0 -16 139.89 18.8
19 0 16 161.78 21.4
19 0 -16 115.69 24.5
19 1 16 180.68 21.4
19 -1 -16 141.09 19.3
19 -1 -16 156.28 24.8
19 1 -16 154.98 28.3
19 -1 16 174.78 24
19 -2 -16 16.6 6.8
19 -2 -16 21.8 10.5
19 2 16 8.6 6.5
19 2 -16 24.7 10
19 2 -16 14.3 7.5
19 -2 16 14.2 9.2
19 3 16 81.39 10.9
19 -3 -16 50.19 10.8
19 -3 -16 57.79 15.2
19 3 -16 49.2 14.1
19 3 -16 56.99 15.3
-19 3 16 74.49 11.2
19 -3 16 69.69 17.9
19 4 16 27.8 3.5
19 -4 -16 16.1 9.1
19 4 -16 22 10
19 -4 16 15.5 11.7
19 4 -16 24.5 10.6
-19 4 16 21.6 6.5
19 -5 -16 19.3 9.9
19 -5 16 21.2 10.7
19 5 -16 1.8 8.1
19 5 -16 17.9 9.8
20 0 16 -1.6 6
20 0 -16 20.1 10.2
20 1 16 28.7 9.6
20 -1 -16 31 13.2
20 -1 -16 27.1 9.3
20 -1 16 31.7 11.7
20 1 -16 38.4 13.2
20 1 -16 26.3 9
20 2 16 10.2 6.9
20 -2 -16 12.2 5.8
20 -2 -16 6.8 8.3
20 2 -16 18.7 8.6
20 2 -16 11.9 8.9
20 -2 16 5.1 8
20 -3 -16 0.1 7.4
20 -3 -16 -1 4.5
20 3 16 14 5.7
20 -3 16 -4.2 5.4
-20 3 16 -0.4 4.9
20 3 -16 -5 5.3
20 3 -16 -12 4.3
20 -4 -16 31 13
20 4 -16 33 10.7
20 4 -16 24.9 10.9
20 -4 16 35.2 14.3
20 -5 -16 63.49 16.6
20 5 -16 53.49 14.4
20 -5 16 68.29 18.9
20 5 -16 58.39 14.4
21 0 -16 4.1 5.5
21 0 16 18.9 9.5
21 0 -16 16.8 11.1
21 -1 -16 16.8 11.5
21 1 16 46 11.8
21 -1 -16 44 13.5
21 1 -16 33.6 14
21 -1 16 40.4 12.9
21 1 -16 13.6 7.6
21 -2 -16 41.2 15.7
21 2 16 65.69 12.9
21 -2 -16 49.99 11.6
21 2 -16 60.79 17.8
21 -2 16 78.79 18.9
21 2 -16 59.59 15.1
21 -3 -16 7.3 5.6
21 3 16 6.4 5.3
21 -3 -16 8.6 8.3
21 3 -16 -8 6.6
21 3 -16 3.9 6.6
21 -3 16 0.7 6.4
21 -4 -16 20.5 12
21 4 16 41 5.8
21 4 -16 26.1 12.5
21 4 -16 30.6 12.5
21 -4 16 36.5 13.8
-21 4 16 38.3 9.3
22 0 16 610.84 56.09
22 0 -16 609.64 61.39
22 0 -16 506.85 52.09
22 -1 -16 7.6 11.5
22 -1 -16 -1.3 5
22 1 -16 -9.3 4.7
22 -1 16 0 5.6
22 1 -16 -12.7 6.5
22 -2 -16 76.79 20.4
22 -2 -16 73.79 18.3
22 2 16 139.19 17.8
22 2 -16 101.59 20.2
22 2 -16 81.19 20.6
22 -2 16 109.09 22.7
22 -3 -16 2.8 8.7
22 3 16 -0.8 4.9
22 -3 16 -2.3 7.2
22 3 -16 -13.6 4.6
22 3 -16 0.5 7.2
23 0 -16 227.48 32.5
23 0 -16 186.58 25.5
23 0 16 218.18 28.8
23 1 16 9.4 6.7
23 -1 -16 7.5 6.7
23 -1 -16 3.1 8
23 1 -16 5.2 7.2
23 -1 16 -2.9 6.8
23 1 -16 3.4 7
23 -2 -16 8.9 6.6
23 -2 -16 6.9 9.7
23 2 16 6.2 7.2
23 2 -16 0 8.2
23 -2 16 4.8 9.2
23 2 -16 -3.9 6.1
23 3 16 8.7 6.4
23 -3 -16 8.7 9.8
23 -3 16 13.5 9
23 3 -16 20 12
23 3 -16 4.2 7.8
24 0 -16 24.1 9.6
24 0 -16 27.9 14.3
24 0 16 55.99 15.3
24 1 16 10.2 8.9
24 -1 -16 -3.2 5.3
24 -1 -16 4.8 7.7
24 -1 16 16.2 8.4
24 1 -16 9.9 9.6
0 0 17 1.9 3.1
0 0 -17 4.2 2.4
0 0 -17 0.5 2.4
0 1 -17 0.2 2.8
0 -1 -17 1.4 2
0 -1 17 7.2 4.6
0 -1 -17 6.1 2.3
0 1 -17 -0.7 1.4
0 2 -17 444.76 34.8
0 2 -17 374.36 37.1
0 -2 -17 443.96 34.7
0 -3 17 0.6 4.9
0 3 -17 -1.4 3.7
0 -3 -17 -2.9 1.6
0 3 -17 -0.3 1.6
0 4 -17 -1.1 1.8
0 4 -17 -1.5 3.3
0 -4 -17 -3 1.8
0 -4 17 5.6 4.6
0 5 -17 -1.9 2
0 -5 -17 -3.6 1.6
0 5 -17 -1 4.2
0 -5 -17 -0.2 1.3
0 -5 17 0.1 5.2
0 -6 -17 8.7 2.2
0 -6 17 6.9 6.8
0 6 -17 14.8 6.1
0 -6 -17 5.5 2.7
0 -6 -17 4.8 1.9
0 6 -17 1.6 2.9
0 7 -17 16.2 6.7
0 7 -17 2.6 3.4
0 -7 17 -6.7 5
0 -7 -17 1.5 0.8
0 -7 -17 -2 2.2
0 -7 -17 -1.3 0.9
0 -8 -17 43.3 6.1
0 8 -17 41 9.4
0 8 -17 40.9 9.3
1 0 -17 4.5 2.3
1 0 17 -0.7 3
-1 0 -17 -0.3 2.3
-1 0 17 -0.4 2.8
1 0 -17 -1 2.3
1 -1 -17 743.63 56.79
1 -1 -17 723.93 55.49
-1 1 -17 760.02 55.99
-1 1 -17 665.83 58.69
1 1 -17 761.82 56.39
-1 -1 -17 685.83 57.09
1 1 -17 707.93 58.19
1 -2 -17 212.88 18
-1 2 -17 156.78 20.1
1 -2 -17 217.28 18.5
-1 2 -17 191.98 17.8
1 2 -17 209.88 18.5
-1 -2 -17 208.88 18.5
1 2 -17 172.68 19.9
-1 -3 17 4 5.3
-1 3 -17 3 2.4
-1 3 -17 3.9 5
1 -3 -17 0 1.5
1 -3 -17 -0.4 1.7
1 3 -17 6.9 5
-1 -3 -17 -0.4 2.1
1 3 -17 3.9 2.3
1 -3 17 -0.9 4.9
-1 4 -17 0.4 2.1
-1 4 -17 -0.2 3.7
1 -4 -17 -2 1.6
1 -4 -17 1 1.5
-1 -4 17 -2.1 3.2
1 -4 17 3.5 3.8
-1 -4 -17 -1.5 1.8
1 4 -17 -0.4 3.4
1 4 -17 -3.8 1.3
-1 5 -17 25.6 6.1
-1 5 -17 23.2 8
1 -5 -17 18.1 4.2
1 -5 -17 24.3 4
-1 -5 17 34.9 9.9
-1 -5 -17 22 4.8
1 5 -17 29.4 8.6
1 5 -17 13.2 5.2
1 -5 17 31.8 9.6
-1 6 -17 14 5.5
1 -6 -17 20.4 3.4
1 -6 -17 18.6 4.1
1 -6 -17 24.9 4.3
-1 6 -17 23.8 7.6
-1 -6 17 42.9 10.8
1 -6 17 37.8 10.8
1 6 -17 22.5 7.7
1 6 -17 14.8 5.1
-1 -6 -17 14.7 3.1
-1 -6 -17 22.9 4.9
-1 -6 -17 21.7 4.5
-1 -7 17 26 9.2
-1 7 -17 11.9 4.7
-1 7 -17 15.2 7.4
1 -7 -17 5.7 3
1 -7 17 29.9 9.4
-1 -7 -17 6 2.8
1 7 -17 12.3 5.4
1 7 -17 35.1 8.2
-1 -7 -17 8.8 2.1
-1 -7 -17 7.7 2.2
1 -8 -17 3 3
-1 8 -17 7.3 4.7
-1 8 -17 1.8 4
-1 -8 17 12.5 9.1
1 8 -17 19.8 7.5
1 8 -17 10.4 4.4
1 -8 17 11.6 8.6
1 8 -17 11.9 9.6
-1 -8 -17 7.3 3.2
-2 0 -17 2.3 2.9
2 0 -17 -0.2 1.8
-2 0 17 -0.5 2.5
2 0 17 -0.7 2.8
2 0 -17 -1.6 1.8
2 -1 -17 4.6 2.7
-2 -1 17 9.5 4.7
-2 1 -17 7.7 4.7
2 -1 -17 6.8 2.9
2 1 17 5.3 3
2 1 -17 5.2 3.3
2 -1 17 9.9 5.5
2 1 -17 4.8 2.6
-2 -1 -17 4 3.5
2 -2 -17 -1.3 1.7
-2 -2 17 1.3 4
-2 2 -17 1.1 3.3
-2 2 -17 0.8 1.4
2 2 -17 1 1.7
2 2 -17 2.1 3.1
-2 -2 -17 2.4 2.9
2 -2 17 2.7 4.9
2 -3 -17 126.79 11.7
-2 3 -17 86.09 14.9
2 -3 -17 109.29 10.9
-2 3 -17 123.99 12.2
-2 -3 -17 110.39 12
2 3 -17 111.89 14.8
2 3 -17 128.99 13.4
2 -4 -17 22.9 4.2
-2 4 -17 16.7 4.7
2 -4 -17 22.9 4.4
-2 4 -17 24.6 7.9
-2 -4 17 45.9 10.3
2 -4 17 50.19 11
2 4 -17 18.7 5.4
2 4 -17 15.5 6.4
-2 -4 -17 16.8 4.3
2 -5 -17 28.3 4.7
-2 5 -17 41.9 11.1
-2 5 -17 33.5 7
2 -5 -17 37.4 5.3
2 -5 17 54.89 12.5
-2 -5 -17 31.2 5.6
2 5 -17 50.69 9.2
2 5 -17 25.6 7.4
-2 6 -17 53.89 11.9
2 -6 -17 53.09 5.4
-2 6 -17 52.19 9.2
2 -6 -17 55.39 6.6
2 -6 -17 40.7 5.6
-2 -6 -17 49.1 8.5
2 6 -17 45.4 10.3
-2 -6 -17 56.09 6.8
2 6 -17 54.19 10.5
-2 7 -17 91.89 14.4
2 -7 -17 93.49 9.5
-2 7 -17 91.69 12.1
-2 -7 -17 95.19 9.5
-2 -7 -17 98.29 8.6
2 7 -17 104.29 13.9
-2 -7 -17 85.49 9.8
2 7 -17 89.69 14.5
-2 8 -17 -0.3 4.2
-2 -8 17 4.3 7.3
-2 8 -17 6.8 6.4
2 -8 17 -4.2 4.9
2 8 -17 -4.1 4
-2 -8 -17 -3 2.5
3 0 -17 1.1 1.9
3 0 17 2.4 3.3
-3 0 -17 2.6 3.5
3 0 -17 0.3 2.1
-3 -1 17 13.7 5.7
3 -1 -17 14.7 4.2
-3 1 -17 11.4 5.4
3 1 17 11.4 4
3 -1 -17 12.4 3.5
-3 -1 -17 7.6 4
3 -1 17 16.6 6.2
3 1 -17 11 3.8
3 1 -17 16 4.9
3 -2 -17 272.37 27.3
-3 2 -17 283.37 29
3 -2 -17 307.97 24.3
-3 -2 -17 262.07 25.2
3 2 -17 265.77 26
3 2 -17 304.17 25.6
3 -3 -17 502.95 38.2
-3 3 -17 430.36 43.7
-3 3 -17 498.05 39
3 -3 -17 519.25 38.5
3 3 -17 470.65 40.2
-3 -3 -17 475.05 39.5
3 3 -17 444.86 41.4
-3 4 -17 104.59 11.3
-3 4 -17 90.09 14.8
3 -4 -17 108.49 10.5
3 -4 -17 123.79 10.5
-3 -4 -17 86.39 10.7
3 4 -17 78.59 12.7
3 4 -17 107.59 12.8
-3 5 -17 25.6 5.9
-3 5 -17 19.3 7.7
3 -5 -17 21.8 4
-3 -5 17 46.5 10.8
3 -5 -17 19.6 4.2
3 5 -17 12.5 5.9
-3 -5 -17 20.1 4.6
3 -5 17 50.49 11.7
3 5 -17 18 6.1
-3 -6 17 69.29 13.5
-3 6 -17 50.29 11.3
3 -6 -17 30.9 3.6
3 -6 -17 31.9 5.4
3 -6 -17 28.1 3.7
-3 6 -17 25.2 6.3
3 -6 17 51.69 11.8
-3 -6 -17 31.1 6
-3 -6 -17 26 6.2
3 6 -17 19.9 6.4
3 6 -17 30.1 8.2
-3 7 -17 22.5 7.8
3 -7 -17 20.3 4.3
-3 -7 17 25.2 9.3
-3 7 -17 4.8 4.4
-3 -7 -17 20.2 4.5
-3 -7 -17 11.9 3.9
3 7 -17 9.5 4.9
3 7 -17 15.2 6.6
3 -7 17 19.4 9.1
3 7 -17 20.2 6.7
-3 8 -17 181.68 22.6
3 -8 -17 199.88 16.9
-3 8 -17 188.38 21.6
-3 -8 -17 198.08 14.9
-3 -8 -17 185.98 15.2
3 8 -17 208.98 22.3
-3 -8 -17 172.98 17
3 8 -17 177.88 23.2
4 0 -17 -1.2 1.4
-4 0 -17 0 3.3
4 0 -17 -0.1 1.8
4 0 17 -1.3 3.6
4 -1 -17 23.8 5.4
4 1 17 48.2 7
-4 1 -17 27.4 8.3
-4 -1 17 30.4 7.6
4 -1 -17 23.5 5.3
4 1 -17 22.3 5.7
4 1 -17 26.9 6.5
-4 -1 -17 28.2 7.4
4 -1 17 32.8 8.8
4 2 17 0.2 2.2
-4 -2 17 1.4 3.9
4 -2 -17 0.8 2.2
-4 2 -17 0.2 4.1
4 2 -17 2.1 2.8
-4 -2 -17 2.1 2.7
4 2 -17 -0.8 2.6
4 -2 17 -1 4.5
-4 3 -17 1601.34 116.79
4 -3 -17 1742.73 116.59
4 -3 -17 1657.23 116.49
-4 3 -17 1467.95 123.09
-4 -3 -17 1401.56 117.69
4 3 -17 1388.66 118.99
4 3 -17 1591.04 118.89
4 -4 -17 33.8 5.4
-4 4 -17 43 11.1
-4 4 -17 29.5 6
4 -4 -17 39.4 5.5
-4 -4 -17 32.9 7
4 -4 17 62.99 12.9
4 4 -17 37.4 7.9
4 4 -17 32.6 8.2
4 -5 -17 53.39 7
4 -5 -17 50.69 6.3
-4 5 -17 61.49 8.4
-4 5 -17 58.09 12.9
4 5 -17 84.49 11
-4 -5 -17 54.09 7.7
4 5 -17 52.69 10.9
4 -5 17 81.89 15.8
4 -6 -17 5.2 0.9
4 -6 -17 3.2 1
-4 6 -17 2.6 2.8
4 -6 -17 -1 1.8
-4 6 -17 6.7 6.9
-4 -6 17 8 6.6
4 6 -17 7.5 4.6
4 6 -17 9.7 5.5
-4 -6 -17 3.6 3.2
-4 -6 -17 2.2 3.2
4 -6 17 7.4 6.6
-4 -7 17 27.8 9.7
-4 7 -17 4.2 4
4 -7 -17 19 4.6
-4 7 -17 21.3 7.4
4 7 -17 14.4 6.3
4 -7 17 27.8 10.4
-4 -7 -17 11.4 3.8
4 7 -17 20.3 11.6
4 7 -17 10.7 5.8
-4 -7 -17 13.7 4.1
-4 -8 17 -1 4.8
-4 8 -17 -6 5.8
-4 8 -17 -5 7.3
4 -8 17 4.4 7.3
-4 -8 -17 -3 3.1
4 8 -17 -1.2 4.5
4 8 -17 7.6 7.2
5 0 17 2 4.3
-5 0 -17 0 3.4
5 0 -17 -0.9 1.8
5 0 -17 -0.6 2.2
5 -1 -17 96.39 11
5 -1 -17 106.09 10.9
-5 1 -17 87.69 13.8
5 1 -17 86.69 11.4
5 1 -17 111.09 11.9
-5 -1 -17 77.79 12.5
5 -2 -17 210.18 22.9
5 -2 -17 207.28 18.4
-5 2 -17 168.78 22.4
5 2 17 227.38 18
5 2 -17 191.58 19.6
5 2 -17 175.38 19.4
5 -3 -17 69.89 8.7
-5 3 -17 76.79 15.9
-5 -3 17 110.39 13.8
5 -3 -17 71.79 8.7
5 -3 17 89.29 14.1
5 3 -17 56.99 11.1
5 3 -17 79.59 10.9
-5 -3 -17 71.39 10.1
5 -4 -17 187.08 16.9
5 -4 -17 191.18 17.4
-5 4 -17 209.08 24.3
-5 4 -17 198.78 18
5 -4 17 260.57 25.3
-5 -4 -17 159.48 18.2
5 4 -17 188.78 20.1
5 4 -17 165.28 19.5
-5 5 -17 13.6 4.5
-5 -5 17 21.8 8.3
5 -5 -17 16.1 4.4
5 -5 -17 14 3.3
5 -5 17 39.1 11.2
5 5 -17 15.3 6.4
-5 -5 -17 19.6 5.3
5 5 -17 23.5 6.9
-5 6 -17 130.29 19
5 -6 -17 130.79 12.8
-5 6 -17 130.09 13.9
5 6 -17 133.59 16.5
5 6 -17 102.79 15.2
-5 -6 -17 135.19 14.5
-5 -6 -17 124.19 13.4
-5 7 -17 9.7 3.6
-5 -7 17 16.1 7.9
-5 7 -17 12.3 6.8
-5 -7 -17 9.9 3.9
5 -7 17 15 10.1
5 7 -17 8.6 5.8
5 7 -17 11.2 6.1
5 7 -17 13.4 6.1
-5 -7 -17 1.6 3.2
5 -8 -17 29.7 8.2
-5 -8 17 45.9 11.4
5 -8 -17 32.4 6.3
-5 8 -17 20.8 7.3
-5 8 -17 20.9 8.7
5 8 -17 30.3 7.8
-5 -8 -17 43.1 6.7
5 8 -17 35.5 9.9
5 -8 17 53.79 13.6
6 0 17 5.6 3.9
-6 0 -17 3.7 3.7
6 0 -17 4.5 3.3
6 0 -17 2.3 2.7
6 -1 -17 1022.8 81.69
-6 1 -17 1016.5 86.99
6 -1 -17 1119.49 81.49
6 1 -17 1101.39 83.09
6 1 -17 1100.09 82.19
-6 -1 -17 983.6 84.89
6 -2 -17 9.4 3.5
6 -2 -17 4.8 3.1
6 2 17 10.6 3.4
-6 2 -17 11.5 6.9
6 2 -17 4.9 3.6
6 -2 17 10.1 5.7
-6 -2 -17 15.4 5.3
6 2 -17 9.2 4.2
-6 3 -17 26.7 10.3
6 -3 -17 26.9 6
-6 -3 17 45.7 9.9
6 -3 -17 34.5 6.2
6 -3 17 52.59 11.7
-6 -3 -17 30.4 7.9
6 3 -17 31.4 7.7
6 3 -17 22.9 7.2
6 -4 -17 108.79 11.3
6 -4 -17 93.59 10.4
-6 -4 17 143.29 16.8
-6 4 -17 109.59 11.4
-6 4 -17 110.19 22.7
-6 -4 -17 75.59 11.6
6 4 -17 90.89 12.7
6 -4 17 136.59 17.6
6 4 -17 90.19 13.1
6 -5 -17 -0.2 1.7
-6 -5 17 2.8 5.2
-6 5 -17 2.9 3
-6 5 -17 5.5 6.5
6 5 -17 7.5 4.9
6 5 -17 -3 2.6
-6 -5 -17 3.1 3.2
6 -5 17 -0.3 4.7
-6 6 -17 32 6.8
-6 -6 17 58.79 12.6
6 6 -17 23.6 8
6 6 -17 22.2 7.7
6 -6 17 38.2 11.7
-6 -6 -17 20.1 6.3
6 6 -17 17.9 6.6
-6 -6 -17 31.4 5.7
-6 7 -17 26.2 9.3
-6 -7 17 48.8 12
-6 7 -17 19.3 6
-6 -7 -17 25.6 5.6
6 7 -17 29.5 7.9
-6 -7 -17 20.2 4.3
6 -7 17 26.2 11.9
6 7 -17 22.7 7.2
6 7 -17 23.4 8
6 -8 -17 42.4 10.5
-6 8 -17 31.5 8.1
-6 8 -17 20.4 9.3
-6 -8 17 57.59 12.9
6 8 -17 41.6 10.7
6 8 -17 31.6 7
-6 -8 -17 32.3 6.4
6 -8 17 55.09 14.3
-6 -8 -17 49.8 8.1
7 0 -17 -3.4 2.3
-7 0 -17 -6.4 3
7 0 17 1.3 3.9
7 0 -17 -0.8 2.2
7 1 17 14.2 5.6
7 -1 -17 12.5 4.8
7 -1 -17 6.6 3.9
-7 1 -17 10.3 6.7
7 1 -17 12.9 4.8
-7 -1 -17 6.8 4.8
7 -1 17 10.8 6.1
7 1 -17 16.5 5.6
-7 -2 17 1.2 3.2
-7 2 -17 11.1 6.7
7 -2 -17 2.8 2.2
7 -2 -17 4.4 3
7 2 17 5.9 3.2
-7 -2 -17 4.8 4.5
7 2 -17 2.9 3.8
7 -2 17 8.8 6.1
7 2 -17 0 3
7 -3 -17 3.6 2.9
-7 3 -17 6.6 6.7
7 -3 -17 1.8 2.8
7 3 -17 0.1 3.5
7 -3 17 0.1 5.3
7 3 -17 4.8 3.9
-7 -3 -17 6.7 4.7
7 -4 -17 295.87 24.5
-7 4 -17 235.28 29.5
7 -4 -17 283.07 23.5
-7 -4 -17 244.88 25.8
7 4 -17 294.07 27.7
7 4 -17 266.97 26.4
7 -5 -17 14.5 3
-7 5 -17 9.2 3.8
-7 5 -17 10 7
-7 -5 17 11.4 6.7
7 5 -17 8.8 5.3
-7 -5 -17 9.9 4.8
7 5 -17 5.3 4.6
-7 -5 -17 8 4.6
7 -5 17 15.6 8.4
-7 6 -17 114.79 13
-7 6 -17 117.49 17.6
7 6 -17 145.59 17.9
-7 -6 -17 122.79 14.2
7 -6 17 162.48 20.4
7 6 -17 111.19 16.1
-7 -6 -17 102.09 13.3
7 6 -17 103.09 14.4
-7 7 -17 60.79 14.6
-7 7 -17 43.6 8.4
7 -7 17 55.49 14.2
7 7 -17 56.19 11.1
-7 -7 -17 53.19 9.8
-7 -7 -17 65.09 9.2
7 7 -17 33.6 9.2
7 7 -17 42.7 9.9
-7 8 -17 13.6 5.6
-7 -8 17 28.7 9.3
-7 8 -17 11.2 10
7 -8 -17 29 8.8
7 8 -17 24.1 6.3
-7 -8 -17 30.5 6.1
7 -8 17 29 11.1
7 8 -17 8.6 6.7
-7 -8 -17 21.4 4.8
8 0 17 0.1 3.4
-8 0 -17 1.9 4.3
8 0 -17 2.1 3
8 0 -17 1.2 2.3
-8 1 -17 555.94 54.49
8 -1 -17 572.04 49.1
8 -1 -17 628.84 48.7
8 1 -17 580.84 50.19
-8 -1 -17 517.35 52.29
8 -1 17 739.43 53.69
8 1 -17 617.34 49
-8 -2 17 35.3 7.5
8 2 17 41.3 6.4
8 -2 -17 24.2 6
8 -2 -17 22 5.9
-8 -2 -17 30.9 9
8 2 -17 26.5 6.8
8 -2 17 46.9 11.1
8 2 -17 23 7.4
-8 3 -17 40.6 11.5
8 -3 -17 29.4 6.3
8 -3 -17 33.8 6.7
-8 -3 -17 35.4 8.8
8 3 -17 31.2 8.3
8 -3 17 32.3 10.3
-8 4 -17 48.3 13.5
-8 -4 17 47 9.5
8 -4 -17 44.8 7.2
-8 -4 -17 44.7 10.3
8 -4 17 67.29 14.8
8 4 -17 30.9 9.1
-8 -5 17 88.09 13.1
8 -5 -17 58.59 6.8
-8 5 -17 66.59 8.7
-8 5 -17 68.59 16
-8 -5 -17 50.39 10.5
8 5 -17 47.1 11.3
8 5 -17 57.49 13.5
8 -5 17 75.49 16.1
-8 -5 -17 65.09 11.2
-8 6 -17 2.4 2.5
-8 -6 17 5.8 4.9
-8 6 -17 12.1 8
8 -6 17 -3.3 5.5
-8 -6 -17 14.5 6
-8 -6 -17 2.2 3.4
8 6 -17 -4.3 3.8
8 6 -17 5 4.4
-8 7 -17 59.29 16
-8 7 -17 60.99 10.3
8 -7 -17 56.39 13.3
-8 -7 17 82.69 15.1
8 -7 17 55.49 14.7
-8 -7 -17 66.29 10.2
8 7 -17 40.5 9.7
8 7 -17 56.09 11.4
-8 -7 -17 75.69 10.2
8 7 -17 66.79 13.4
-8 8 -17 -10.8 8.1
-8 -8 17 7.9 6.8
-8 8 -17 3 3.3
8 -8 -17 5.7 6.7
-8 -8 -17 12.5 4.1
8 8 -17 7.1 5
8 8 -17 1.9 5.1
8 -8 17 0.9 8.4
9 0 -17 4.6 3.5
-9 0 -17 5.1 5.3
-9 0 17 -1.4 2.3
9 0 17 2.6 5.2
9 0 -17 -2.4 2.8
9 -1 -17 88.09 11.2
9 -1 -17 74.69 11.5
-9 -1 17 96.39 12
9 1 17 130.19 13.7
-9 1 -17 94.59 22.2
9 -1 17 121.39 15.6
9 1 -17 91.99 13
-9 -1 -17 86.69 16.9
-9 2 -17 78.19 16.6
-9 -2 17 81.49 14.3
9 2 17 98.39 10.6
9 -2 -17 83.39 10.6
9 -2 -17 73.19 10.6
9 2 -17 86.29 11.2
9 2 -17 80.59 14.1
-9 -2 -17 77.69 15.4
9 -2 17 77.69 15.3
-9 3 -17 728.03 68.19
9 -3 -17 748.83 62.59
9 3 17 815.62 57.59
9 -3 -17 770.72 60.99
9 3 -17 707.53 61.19
9 -3 17 907.41 68.19
-9 -3 -17 719.63 64.19
9 3 -17 724.73 63.69
9 -4 -17 12.7 3.7
-9 4 -17 5.1 6.6
-9 -4 -17 12 5.2
9 -4 17 23.1 10
9 4 -17 15.5 6.5
9 4 -17 8.9 4.4
-9 5 -17 89.29 10.5
9 -5 -17 85.19 8.5
-9 5 -17 68.89 15.7
-9 -5 -17 72.19 13.3
9 5 -17 69.89 11.7
-9 -5 -17 73.79 12.6
9 5 -17 100.69 15.2
9 5 -17 97.19 16.1
9 -5 17 109.89 20.4
9 -6 -17 -0.9 4.4
-9 6 -17 -0.8 2.8
-9 6 -17 9.7 9.2
9 6 -17 0.3 4.4
-9 -6 -17 7.5 4.7
9 6 -17 -3.8 4.3
9 6 -17 2.7 5.1
-9 7 -17 -3.4 7.6
-9 7 -17 4 2.9
9 -7 -17 -2 4.7
9 7 -17 5.3 5.5
-9 -7 -17 -2.6 4.7
9 7 -17 2 5.1
9 7 -17 -2.8 4.7
-9 -7 -17 -1.9 5
9 -7 17 -4.4 5.8
-9 8 -17 19.1 10.5
-9 8 -17 17.2 5.5
9 -8 -17 21.9 8.9
9 -8 17 21.2 10
9 8 -17 13.6 5.9
-9 -8 -17 24.5 7.1
9 8 -17 22.4 7.8
-9 -8 -17 15.9 6.8
10 0 -17 -2.3 2.7
10 0 17 -4.2 3
-10 0 17 -3.9 2.6
-10 0 -17 0.1 5.7
10 0 -17 0.5 3.1
10 1 17 227.08 21.1
-10 -1 17 208.58 19.8
10 -1 -17 181.78 18.9
-10 1 -17 189.48 25.6
10 -1 -17 170.38 19.5
10 1 -17 192.08 19.3
10 1 -17 167.78 20.3
10 -1 17 201.58 22.8
-10 -1 -17 154.18 22.8
-10 1 17 246.58 19.6
10 -2 -17 30.5 7.4
-10 2 -17 36.3 12.3
10 -2 -17 29.6 7.1
-10 -2 17 45 8.5
10 2 -17 32.1 7.4
10 -2 17 37.6 11
-10 -2 -17 31 9.8
10 2 -17 33.5 8.5
10 3 17 51.59 5.7
10 -3 -17 38 7.8
-10 3 -17 45.7 12.9
10 3 -17 44.6 11.1
10 3 -17 44.8 8.6
10 -3 17 44.7 12.5
-10 -3 -17 49.6 11.5
10 -4 -17 103.49 11.3
-10 4 -17 117.49 21.5
10 4 -17 84.59 15.3
10 4 -17 103.89 16.7
10 -4 17 138.09 19
-10 -4 -17 89.79 14.2
10 4 -17 83.59 12.2
-10 5 -17 31.5 11.8
10 -5 -17 18.1 3.8
10 5 -17 22.5 6.7
-10 -5 -17 17.7 6.5
-10 -5 -17 19.8 7.5
10 5 -17 27.7 8.4
10 5 -17 15.9 7.7
10 -5 17 28.4 10.8
-10 6 -17 154.08 23.9
10 -6 -17 152.58 20.7
-10 6 -17 159.38 16.4
10 6 -17 163.38 20.5
-10 -6 -17 159.48 18.3
10 -6 17 213.28 25.2
-10 -6 -17 138.19 17.6
10 6 -17 149.79 20.3
-10 7 -17 136.09 17.4
-10 7 -17 149.99 22.4
10 -7 -17 163.58 21.1
-10 -7 -17 151.88 18.2
-10 -7 -17 144.39 17
10 -7 17 191.58 25
10 7 -17 126.09 21.7
10 7 -17 139.99 18.3
-10 8 -17 35.7 8.4
-11 0 -17 4.1 5.7
11 0 -17 -1 3.3
11 0 17 1.8 5
-11 0 17 1.7 3.1
11 -1 -17 205.78 23.2
11 1 17 303.47 25.3
11 -1 -17 232.78 23
11 1 -17 252.07 23.2
11 1 -17 207.88 24.5
-11 -1 -17 197.48 26.3
11 -1 17 273.87 27.3
-11 1 17 258.47 22.7
11 2 17 0.1 3
-11 2 -17 2.5 5.7
11 -2 -17 2.5 2.8
-11 -2 17 -0.2 3.3
11 -2 -17 2.8 3.1
-11 -2 -17 4.3 4.4
11 2 -17 -0.4 3.8
11 -2 17 -1.8 4.2
11 2 -17 -0.5 3.4
11 3 17 51.89 6.2
11 -3 -17 45.9 8.2
-11 3 -17 51.09 14.3
11 3 -17 48.2 13.8
11 3 -17 60.99 12.4
11 -3 17 61.09 14.2
11 3 -17 41.2 8.6
11 -4 -17 46.3 7.7
-11 -4 -17 52.09 12.9
11 4 -17 49.7 12.5
11 4 -17 38.7 10.6
11 4 -17 42.6 9.3
11 -4 17 45.4 12.8
11 -5 -17 -1.8 1.4
11 -5 -17 3.9 3.9
-11 -5 -17 2.5 4.9
-11 -5 -17 8.4 9.3
11 5 -17 2.2 5.5
11 -5 17 2.7 6.2
11 5 -17 1.2 4.4
11 -6 -17 174.88 21.7
-11 6 -17 144.89 15.5
11 6 -17 112.89 18
-11 -6 -17 174.28 18.9
11 6 -17 150.88 19.9
11 6 -17 110.29 17
11 -6 17 171.58 23.5
-11 7 -17 20.3 12.3
-11 7 -17 14.3 5.2
11 -7 -17 15.7 8.7
-11 -7 -17 23.2 7.1
11 7 -17 31.9 9.8
-11 -7 -17 33.2 8
11 -7 17 16.6 10.5
11 7 -17 17.1 7.2
11 7 -17 11.1 6.3
-12 0 -17 8.9 7.5
-12 0 17 -2.6 2.7
12 0 -17 3 3.8
12 0 17 -0.4 4.4
-12 -1 17 64.79 10.4
12 -1 -17 49.8 10.3
12 -1 -17 43.1 9.3
12 1 17 71.89 12.3
-12 -1 -17 56.89 14.1
12 1 -17 35.1 9.8
12 1 -17 51.39 10.1
12 1 -17 56.19 14.6
12 -1 17 58.69 12.9
-12 1 17 63.69 9.6
12 2 17 0.5 2.8
12 -2 -17 1.3 2.8
12 -2 -17 2.1 4
-12 -2 17 -0.1 3.8
-12 2 17 -5.5 1.9
-12 -2 -17 9 5.8
12 2 -17 -5.7 3.8
12 2 -17 1.8 4.4
12 -2 17 -2.3 4
12 2 -17 2.5 3.8
12 -3 -17 111.49 17.5
12 -3 -17 80.99 11.6
-12 -3 -17 94.89 15.3
12 3 -17 108.19 17.7
12 3 -17 111.99 18
12 -3 17 119.39 17.5
12 3 -17 100.09 12.9
12 -4 -17 70.39 16.1
12 -4 -17 61.79 8
-12 -4 -17 43.4 10.2
12 -4 17 49.8 14.1
12 4 -17 57.89 14
12 4 -17 54.09 10.2
-12 -4 -17 63.19 13.4
12 4 -17 46.4 11.7
12 -5 -17 1.5 2.4
12 -5 -17 -2.6 4.4
-12 -5 -17 0.8 4.6
12 5 -17 4 5.8
-12 -5 -17 12.4 5.3
12 5 -17 2.3 4.5
12 5 -17 5.4 6.2
12 -6 -17 12.1 6.8
-12 6 -17 11.1 5.3
12 6 -17 9.5 5.4
-12 -6 -17 18.3 5.6
12 6 -17 12.8 7
12 -6 17 18.3 9.5
12 6 -17 4.5 5.8
12 -7 -17 48.3 12.6
-12 7 -17 50.39 8.9
12 7 -17 37.1 8.6
12 7 -17 24.7 8.5
-12 -7 -17 43.8 10.5
12 -7 17 58.39 16.4
12 7 -17 35.1 10.5
13 0 -17 -4.4 3.9
-13 0 -17 13.6 6.8
13 0 -17 -0.1 2.6
-13 0 17 -3.4 3.7
13 0 17 0 3.7
-13 -1 17 251.67 24.1
13 -1 -17 190.68 23.7
13 -1 -17 284.07 31.2
13 1 17 293.37 26.2
-13 -1 -17 208.88 27.5
13 -1 17 232.08 27.5
13 1 -17 221.08 25.5
-13 1 17 286.07 23.8
13 1 -17 263.77 30.8
13 -2 -17 27.8 7.4
13 2 17 74.39 9.6
13 -2 -17 42.6 12.7
-13 2 17 49 8.4
13 -2 17 57.99 13.8
-13 -2 -17 49.4 12.7
13 2 -17 44.9 12.9
13 2 -17 42.3 10.7
13 3 17 40.9 5.9
13 -3 -17 32.4 7.3
13 -3 -17 14.3 8.2
-13 -3 -17 15.4 7.6
13 3 -17 25.1 10.2
13 -3 17 35.3 11.3
13 3 -17 32.4 9.9
13 -4 -17 177.98 24.3
13 -4 -17 170.88 22.9
13 -4 17 215.98 26.2
-13 -4 -17 168.88 21.4
13 4 -17 146.89 22.3
13 4 -17 180.88 23.1
13 -5 -17 56.19 14.7
13 -5 -17 44.3 6.1
13 5 -17 37.7 11.2
13 5 -17 36.5 11.1
13 5 -17 31.1 8.3
13 -5 17 51.19 13.8
-13 -5 -17 33.7 9.3
13 -6 -17 131.99 21
13 6 -17 108.39 15.6
-13 -6 -17 170.78 19
13 6 -17 138.19 19.6
13 -6 17 182.68 24.7
13 6 -17 145.39 19.8
-13 7 -17 12.8 4.8
13 -7 -17 10.3 8.8
13 7 -17 11.9 6.3
13 -7 17 23.5 12.3
13 7 -17 3.6 6
13 7 -17 25.8 7.6
14 0 -17 -1.2 4.9
-14 0 17 -6.7 2.5
14 0 -17 9.1 5.8
14 0 17 2.1 4.8
-14 -1 17 -1.7 3.9
14 1 17 -1.6 4.8
14 -1 -17 3.4 6.1
14 -1 -17 10.8 5.8
14 1 -17 4.1 4.5
-14 1 17 11.2 5.3
14 1 -17 2.7 5.5
14 -1 17 6 6.3
14 2 17 120.89 13.2
14 -2 -17 61.89 12.2
14 -2 -17 86.69 18.6
-14 2 17 96.59 11.5
14 2 -17 71.19 14.7
14 2 -17 77.79 18.2
14 -2 17 97.39 18.3
14 3 17 104.69 10.4
14 -3 -17 56.89 11.1
14 -3 -17 90.29 19
14 3 -17 73.39 16.1
14 -3 17 82.69 17.9
14 3 -17 78.19 17.3
-14 3 17 96.79 11
14 -4 -17 37.9 11.3
14 -4 -17 19.6 5.3
14 4 -17 19.9 8.3
14 4 -17 24.5 9.5
14 -5 -17 47.3 14.3
14 -5 17 39.1 14.2
14 5 -17 40.2 12
14 -6 -17 6.8 8
14 -6 17 34.6 12
14 6 -17 21.4 8.7
14 6 -17 15.9 6.8
14 6 -17 16.1 8.8
14 -7 -17 29.3 11.5
-14 7 -17 18.1 6.6
14 7 -17 28.5 8
14 7 -17 25.7 10.3
14 -7 17 49.8 15.4
14 7 -17 21.8 8.4
15 0 -17 0.9 6.8
15 0 -17 8.3 5.1
-15 0 17 -8.2 3.5
15 0 17 2.5 5.4
15 1 17 -2.6 3.3
15 -1 -17 -1.7 3.9
15 -1 -17 8.5 6.7
15 1 -17 4.2 6.3
15 1 -17 -5.9 3.1
-15 1 17 -7.7 3.2
15 -1 17 1.3 6
15 -2 -17 98.19 14.6
15 2 17 163.58 16.5
15 -2 -17 144.49 21.9
-15 2 17 118.49 14.2
15 2 -17 127.29 23.5
15 2 -17 100.49 19.2
15 -2 17 134.39 19.6
15 -3 -17 18.9 9.6
15 -3 -17 1.5 3.8
-15 3 17 8.6 4.6
15 -3 17 6.6 6.7
15 3 -17 4 6.7
15 3 -17 15.1 8.4
15 -4 -17 4.5 7
15 -4 -17 2.8 3.1
15 4 -17 -2.4 5.7
15 4 -17 -4.5 5.6
15 -5 -17 7.8 7.6
15 5 -17 3.1 5.5
15 -5 17 0.6 8.1
15 5 -17 0.5 6.2
15 -6 -17 55.19 15.1
15 6 -17 37.3 10.5
15 -6 17 35.5 13.6
15 6 -17 47.7 13.4
16 0 17 -0.7 4
16 0 -17 -1.1 4.2
16 0 -17 3.1 5.9
16 1 17 327.77 30.8
16 -1 -17 253.87 28.8
16 -1 -17 297.67 35.7
16 1 -17 272.67 34.8
16 -1 17 309.27 32.8
16 1 -17 305.87 31.5
-16 1 17 299.17 28
16 2 17 56.59 10.9
16 -2 -17 52.89 15.5
16 -2 -17 54.79 11.2
16 2 -17 57.39 15.8
16 2 -17 53.79 13.3
16 -2 17 56.29 14.8
16 -3 -17 16.8 6.4
16 -3 -17 10.4 8
16 3 17 31.4 7.1
16 3 -17 36.4 10.5
16 3 -17 27.9 11.5
-16 3 17 24.6 6.5
16 -3 17 29 14
16 -4 -17 57.19 15.3
16 -4 -17 37.4 8.2
16 4 -17 30.5 11.1
16 4 -17 52.19 13.6
16 -4 17 46.2 14.6
16 -5 -17 1.2 8.7
16 -5 17 -5 5.5
16 5 -17 9.7 7
16 5 -17 -0.7 4.9
16 -6 -17 -2.6 7.9
16 6 -17 -3.6 6
16 6 -17 -2.9 5.8
16 -6 17 1.4 8.1
17 0 -17 4.1 7.3
17 0 17 0.8 4.7
17 0 -17 0.9 4.7
17 -1 -17 41.9 10.4
17 -1 -17 32.1 13
17 1 17 50.89 11.5
17 1 -17 33.6 12.5
-17 1 17 34.4 9.7
17 1 -17 31.5 10.3
17 -1 17 27.6 10.1
17 2 17 52.89 10.5
17 -2 -17 40.4 9.4
17 -2 -17 54.09 15.6
-17 2 17 52.09 9.6
17 -2 17 36.9 12.9
17 2 -17 44.9 14.5
17 3 17 33.3 6.9
17 -3 -17 23.4 6.9
17 -3 -17 18.8 10.1
17 3 -17 13.9 8.5
17 3 -17 13.6 10.4
17 -3 17 17.9 8.9
-17 3 17 25.6 7.2
17 -4 -17 -0.4 3.5
17 4 -17 4.4 5.6
17 -4 17 0.5 6.6
17 -5 -17 -1.7 6.1
17 5 -17 17.8 9.1
17 -5 17 6.5 8.8
17 -6 -17 17.2 11.1
17 6 -17 6.3 7.2
17 6 -17 9.8 6.6
17 -6 17 11.4 8.9
18 0 17 1.2 5.5
18 0 -17 -2 7
18 0 -17 -3.3 3.3
18 1 17 66.99 14.2
18 -1 -17 46.9 11.3
18 -1 -17 46.3 14.9
18 1 -17 18.8 9.1
18 1 -17 53.49 17
18 -1 17 59.19 14.7
18 -2 -17 6.6 5.6
18 -2 -17 18.6 9.7
18 2 17 4.3 5.2
-18 2 17 0.2 4.2
18 2 -17 -1 4.4
18 2 -17 3.5 5.9
18 -2 17 7.6 8.1
18 -3 -17 262.87 34.3
18 3 17 323.07 25.7
18 -3 -17 219.38 25.8
18 -3 17 286.97 33.6
-18 3 17 312.67 25.8
18 3 -17 199.88 30.5
18 3 -17 258.77 31.1
18 -4 -17 8.8 4.6
18 -4 -17 -10.2 6.8
-18 4 17 2.9 4.7
18 4 -17 12.3 7.6
18 -4 17 -0.6 6.8
18 4 -17 4 6.5
18 -5 -17 55.79 16.8
18 5 -17 31.4 12.3
18 5 -17 60.39 16.2
18 -5 17 79.39 19.1
19 0 -17 -5.4 3.1
19 0 -17 2.9 8
19 0 17 -1.1 5.5
19 -1 -17 127.59 18.8
19 1 17 176.68 21.4
19 -1 -17 121.79 25.8
19 1 -17 167.58 25.7
19 -1 17 173.18 24
19 1 -17 133.59 22.2
19 2 17 2.9 4.6
19 -2 -17 -2.2 4.2
19 -2 -17 0.5 5.6
19 2 -17 3.8 6.6
19 2 -17 -3.6 6
19 -2 17 1.6 6.8
19 -3 -17 13.1 9
19 3 17 7.2 4.4
19 -3 -17 3.5 4.2
19 -3 17 -1.4 5.5
-19 3 17 11.5 5.9
19 3 -17 13.5 8.1
19 3 -17 9.6 6.8
19 -4 -17 68.19 18.3
19 -4 17 86.49 19.6
19 4 -17 50.59 15.5
19 4 -17 75.49 16.5
-19 4 17 95.59 11.6
19 -5 -17 8.4 9.6
19 5 -17 10.4 7.9
19 5 -17 2.4 6.9
19 -5 17 8.8 8.9
20 0 -17 0.4 4.3
20 0 -17 2.8 6.9
20 -1 -17 12.8 9.5
20 1 17 17.3 7.7
20 -1 -17 9.9 6.3
20 1 -17 17.9 8.4
20 -1 17 35.7 11.7
20 1 -17 22.6 11.6
20 2 17 29.6 8.6
20 -2 -17 19.6 7.9
20 -2 -17 24.7 11.3
20 2 -17 27.7 11.4
20 -2 17 29.1 11
20 2 -17 31.6 10.5
20 -3 -17 87.29 14.7
20 -3 -17 110.79 23.4
20 3 -17 69.39 16.3
20 -3 17 96.89 20.4
20 3 -17 67.99 17.8
20 -4 -17 68.39 18
20 4 -17 52.79 14.1
-20 4 17 53.39 10.5
20 -4 17 79.49 19.3
20 4 -17 62.49 15.4
21 0 -17 3.1 5.6
21 0 17 2.3 6.2
21 0 -17 36.8 14.9
21 -1 -17 9.2 7.3
21 1 17 14.5 8.5
21 -1 -17 6.4 9
21 -1 17 6.2 8.9
21 1 -17 6.1 8.7
21 1 -17 19.2 8
21 2 17 79.99 15.2
21 -2 -17 101.99 23.8
21 -2 -17 98.99 16.4
21 2 -17 74.69 19.5
21 -2 17 98.49 20.4
21 2 -17 68.99 16.9
21 -3 -17 192.58 23.1
21 -3 -17 239.58 32.5
21 3 -17 223.08 29.4
21 3 -17 211.28 29.8
21 -3 17 223.08 30
21 -4 -17 4.4 8.1
21 -4 17 8.7 7.1
21 4 -17 4.2 7.5
21 4 -17 -3.6 7.1
22 0 -17 10.3 9.6
22 0 -17 2.5 5.6
22 0 17 5.9 6.9
22 -1 -17 18.1 9.5
22 -1 -17 20.2 7.9
22 1 17 29.4 8.8
22 -1 17 36.2 12.6
22 1 -17 23.9 11.6
22 1 -17 4.6 7.4
22 -2 -17 182.28 30.1
22 -2 -17 215.68 23.6
22 2 17 247.08 25.7
22 2 -17 180.28 25.9
22 -2 17 222.98 29.6
22 2 -17 197.18 30.4
22 -3 -17 15.5 9
22 -3 -17 20.5 10.3
22 3 17 20.3 6.9
22 3 -17 17.9 8.9
22 3 -17 12 11.7
22 -3 17 19.6 10.3
23 0 17 -0.2 6.1
23 0 -17 7.7 7.3
23 0 -17 2.1 7.5
23 -1 -17 2.5 5.6
23 1 17 1.8 6.4
23 -1 -17 0.3 7.5
23 1 -17 -8 7.9
23 1 -17 -2 5.3
23 -1 17 -9.7 6.5
23 -2 -17 0.6 9.3
23 2 17 6.1 7.3
23 -2 -17 -1 6.4
23 2 -17 12.5 7.5
23 -2 17 6.9 7
23 2 -17 15.2 10.3
0 0 -18 63.59 9.3
0 0 -18 57.49 7.6
0 0 18 91.89 10.9
0 1 -18 -1.3 1.1
0 -1 -18 -2.2 1.9
0 1 -18 0.3 3
0 -1 -18 1.2 1.6
0 -1 18 -2 2.9
0 2 -18 118.59 12.4
0 -2 -18 124.09 12.5
0 -2 -18 122.49 11.5
0 2 -18 106.99 14.7
0 3 -18 3.7 3.8
0 -3 18 -4.9 4.3
0 -3 -18 -2.3 2.1
0 3 -18 0.5 2
0 -3 -18 -1 1.3
0 4 -18 96.39 14.9
0 -4 -18 99.69 10.8
0 4 -18 106.59 12.2
0 -4 -18 111.89 10.2
0 -5 -18 0.9 1.4
0 5 -18 5.4 5.1
0 -5 -18 -2.2 1.8
0 -5 18 -4.2 5.8
0 6 -18 0.1 3.2
0 -6 -18 -0.2 1.5
0 -6 -18 3.3 2.4
0 6 -18 3.8 5.1
0 -6 18 4.8 5.9
0 -6 -18 -1 2.6
0 -7 -18 -2 0.9
0 7 -18 0.4 3.6
0 -7 -18 1.2 1.3
0 -7 -18 2 2
0 7 -18 16 6.6
0 -7 18 1.2 6.9
0 8 -18 7.4 7.2
0 -8 -18 -1.9 2.4
0 -8 18 -7.1 5
0 8 -18 -4 4.6
0 8 -18 3.8 4.2
-1 0 -18 34.6 7.8
-1 0 18 44.4 8.5
1 0 -18 28 6.5
1 0 -18 34.4 5.7
1 0 18 52.59 9.1
-1 0 -18 22.3 4.7
1 -1 -18 139.29 13
-1 1 -18 149.99 13.5
-1 1 -18 130.99 15.7
1 -1 -18 146.39 14.3
1 1 -18 123.49 15
-1 -1 -18 122.89 14.2
1 1 -18 137.59 13.5
-1 2 -18 148.99 13.9
-1 2 -18 101.29 15.5
1 -2 -18 142.29 13.7
1 -2 -18 146.09 13
1 2 -18 153.28 14.3
-1 -2 -18 134.49 14
1 2 -18 126.89 15.9
-1 3 -18 37.3 6.8
1 -3 -18 44.5 5.9
-1 3 -18 40.5 10.2
1 -3 -18 33.8 6.3
-1 -3 18 78.69 13.6
1 3 -18 32.1 7.2
1 -3 18 75.79 13.4
1 3 -18 39.2 9.6
-1 -3 -18 38.5 6.1
-1 4 -18 -0.9 4.9
1 -4 -18 1.2 1.7
-1 -4 18 6.6 5.9
1 -4 -18 1.4 2.5
-1 4 -18 2.7 3.3
1 -4 18 7.1 6.4
-1 -4 -18 2.6 2.5
1 4 -18 3.7 2.8
1 4 -18 7.8 4.6
1 -5 -18 -0.1 2.3
-1 -5 18 0.2 5.7
-1 5 -18 2.3 2.7
1 -5 -18 6.3 2.2
1 -5 18 16 8.1
1 5 -18 24.9 8.2
-1 -5 -18 9 3.1
1 5 -18 5.8 3.9
1 -6 -18 -3.3 1.9
1 -6 -18 -1.8 1.9
1 -6 -18 1.6 1.8
-1 6 -18 8.4 5.6
-1 6 -18 -0.2 2.9
-1 -6 18 10.6 7.2
-1 -6 -18 0.6 1.4
-1 -6 -18 0.4 2.5
-1 -6 -18 0.5 2.9
1 6 -18 9.6 5.9
1 -6 18 1.3 5.1
1 6 -18 -2.7 3.3
-1 7 -18 14.4 7.1
-1 -7 18 11.9 9.5
-1 7 -18 7.1 4.1
1 7 -18 22.7 7.4
-1 -7 -18 16.6 3.1
1 -7 18 22.3 14.2
-1 8 -18 21.5 5.9
1 -8 -18 11.7 4.4
-1 8 -18 12.7 7.6
-1 -8 18 31 10.9
1 8 -18 14.5 6
1 -8 18 36.2 11.8
1 8 -18 23.9 7.9
1 8 -18 25.6 7.9
-1 -8 -18 24.2 4.5
2 0 -18 204.58 19.7
2 0 -18 220.28 19
-2 0 -18 195.58 20.9
-2 1 -18 256.57 26.7
2 -1 -18 278.77 23.4
-2 1 -18 304.97 23.8
2 -1 -18 284.17 24.4
2 1 -18 271.07 25.5
2 1 -18 284.07 24.2
-2 -1 -18 246.38 24.9
2 -2 -18 200.38 17.5
-2 2 -18 186.38 17.2
-2 2 -18 165.18 20.6
2 -2 -18 183.58 16.6
2 2 -18 205.28 18.3
-2 -2 -18 176.18 18
2 2 -18 178.88 19.5
-2 3 -18 172.08 22
2 -3 -18 203.78 17.6
-2 3 -18 216.38 18.4
-2 -3 -18 187.68 18.1
2 3 -18 209.68 19.2
2 3 -18 154.18 19.8
-2 4 -18 273.37 25.9
2 -4 -18 318.37 24.7
-2 4 -18 305.37 34.8
2 -4 -18 321.67 25.2
2 4 -18 292.87 27.2
-2 -4 -18 298.47 25.7
2 4 -18 267.87 28.8
2 -5 -18 2.6 1.8
-2 5 -18 0.9 2.4
2 -5 -18 2 2.3
-2 -5 18 6.5 5.8
2 5 -18 10.3 6
2 -5 18 8.8 6.6
-2 -5 -18 3.5 2.8
2 5 -18 -1.6 1.9
2 -6 -18 56.29 6.5
2 -6 -18 60.09 6.1
-2 -6 18 96.69 14.7
2 -6 -18 44.3 6.8
-2 6 -18 46.4 9.1
-2 -6 -18 54.99 7
2 -6 18 98.89 14.8
-2 -6 -18 58.59 7.8
2 6 -18 57.39 10.7
2 6 -18 43.4 10.6
-2 7 -18 104.49 12.7
-2 7 -18 77.19 15
2 -7 -18 96.89 9.7
-2 -7 -18 81.99 9.3
-2 -7 -18 79.99 9.5
2 7 -18 109.59 14.9
2 7 -18 67.29 18.7
-2 -7 -18 89.39 8.3
-2 8 -18 -1.7 3.6
-2 -8 18 8.9 7.6
2 -8 -18 -2.3 3
-2 8 -18 0.7 6.6
2 -8 18 12.5 9.2
2 8 -18 5.8 6.6
-2 -8 -18 2.2 2.8
2 8 -18 4.7 4.7
2 8 -18 2.8 4.3
3 0 -18 778.12 58.09
-3 0 -18 650.03 60.19
3 0 -18 782.52 58.79
3 -1 -18 -0.7 1.9
-3 1 -18 0.2 3.3
-3 -1 18 -3.5 2.7
3 -1 -18 -1.6 1.9
3 1 18 3.6 3.9
3 -1 18 -0.1 3.4
3 1 -18 -0.6 3.2
3 1 -18 2.5 2.6
-3 -1 -18 1.6 2.6
-3 2 -18 86.19 14.3
3 -2 -18 108.09 10.9
3 -2 -18 112.09 11.4
-3 2 -18 106.59 11
-3 -2 -18 92.29 11.8
3 2 -18 93.19 12.6
3 2 -18 104.29 11.9
-3 3 -18 -0.3 5.1
-3 3 -18 2.4 2.2
3 -3 -18 -0.3 2.1
-3 -3 18 9.8 5.8
3 -3 -18 0.8 2.7
-3 -3 -18 4.5 3.3
3 -3 18 11.4 7
3 3 -18 3 3.3
3 3 -18 1.4 3.1
3 -4 -18 41.6 6
-3 4 -18 38.3 7.2
3 -4 -18 32.4 5.6
-3 -4 -18 38.2 7
3 -4 18 85.39 15
3 4 -18 29.5 7.9
3 4 -18 39.6 8.6
-3 5 -18 63.19 13.6
3 -5 -18 92.89 8.6
-3 5 -18 86.59 10.4
3 -5 -18 84.99 9.1
-3 -5 -18 66.39 9.1
3 5 -18 74.69 12.3
3 5 -18 70.99 14.6
3 -6 -18 67.59 6.8
3 -6 -18 63.69 7
3 -6 -18 75.89 8.5
-3 6 -18 81.39 10.4
-3 -6 -18 65.59 8.4
3 6 -18 51.69 11.7
-3 -6 -18 86.59 9.9
3 6 -18 78.49 12.9
-3 7 -18 5.2 3.9
-3 7 -18 14.8 8
3 -7 -18 1.9 3
-3 -7 -18 5 3.2
3 7 -18 -0.4 3.1
3 7 -18 19.1 7.2
-3 8 -18 36 11.2
-3 8 -18 50.39 10.2
3 -8 -18 53.09 7.6
3 8 -18 45.3 9.7
-3 -8 -18 55.99 5.3
3 -8 18 107.79 18.7
-3 -8 -18 56.59 5.8
3 8 -18 79.69 10.9
3 8 -18 50.49 11.1
-3 -8 -18 52.69 7.5
4 0 -18 302.57 25.4
4 0 -18 299.57 25.6
-4 0 -18 253.37 27.5
4 -1 -18 653.93 48.5
4 -1 -18 625.54 48.3
-4 1 -18 542.05 52.09
4 1 -18 606.14 49.3
-4 -1 -18 586.34 50.89
4 1 -18 602.14 48.9
4 -2 -18 482.75 36.3
-4 2 -18 389.86 40.9
4 -2 -18 476.85 36.3
4 2 -18 464.95 37.8
-4 -2 -18 412.06 38
4 2 -18 414.76 37.9
4 -3 -18 152.48 14.6
4 -3 -18 151.48 14.3
-4 3 -18 155.88 14.7
4 3 -18 137.59 16.6
4 3 -18 155.28 16.3
-4 -3 -18 132.79 15.5
4 -4 -18 324.57 26.6
4 -4 -18 323.07 26.9
-4 4 -18 332.87 33.9
-4 4 -18 342.47 28.1
4 4 -18 322.57 29.7
-4 -4 -18 297.17 28
4 4 -18 314.87 33.1
4 -5 -18 310.87 25
4 -5 -18 334.37 26
-4 5 -18 302.97 27
-4 5 -18 285.07 31.7
-4 -5 -18 276.27 26.6
4 5 -18 320.47 29.4
-4 6 -18 13.8 7.3
-4 -6 18 -1.7 5.5
4 -6 -18 1.5 2.9
4 -6 -18 -1.5 1
4 -6 -18 -0.5 1.1
-4 6 -18 -3.2 1.8
4 6 -18 -0.3 4
-4 -6 -18 0.3 2.7
4 -6 18 -1.7 4.4
4 6 -18 4.6 5.2
-4 -6 -18 -2.5 2
-4 7 -18 17 8.5
-4 -7 -18 21.8 4.7
4 7 -18 7.6 5.8
4 7 -18 15.7 6.2
-4 -7 -18 5.5 3.8
4 7 -18 28.8 7.2
4 -7 18 19.4 9
-4 -8 18 18.1 8.6
-4 8 -18 12.7 8.8
4 -8 -18 2.5 3.3
-4 8 -18 5.8 4.2
4 8 -18 4.3 5.8
4 8 -18 11 4.9
4 -8 18 27.8 10.7
4 8 -18 5.7 7
-4 -8 -18 9.6 2.8
-4 -8 -18 6.2 3.9
5 0 18 48.2 9.6
-5 0 -18 35.6 9.7
5 0 -18 37.1 7.5
5 0 -18 36.5 7.3
5 -1 -18 25.2 5.7
-5 1 -18 14.1 7.7
5 -1 -18 21 5.3
5 1 18 33.6 7
-5 -1 -18 23.4 7.4
5 1 -18 15.4 5.2
5 1 -18 26.1 6.6
5 -1 18 34.9 9.2
5 2 18 60.09 7.5
5 -2 -18 59.59 7.7
5 -2 -18 37.8 7.2
-5 -2 18 72.99 11.3
-5 2 -18 64.89 14.1
5 2 -18 45.4 9.2
5 2 -18 46.6 9.2
-5 -2 -18 51.29 10.2
5 -2 18 96.69 13.1
-5 3 -18 45.3 12.1
5 -3 -18 31.5 6.2
5 -3 -18 43.6 6.2
-5 -3 18 43.9 10.4
5 -3 18 54.19 12
5 3 -18 28.1 7.3
5 3 -18 28.6 8.9
-5 -3 -18 29.9 7.3
5 -4 -18 133.09 12.9
-5 4 -18 119.69 17.9
-5 4 -18 119.19 13.1
5 -4 -18 122.69 12.2
-5 -4 -18 116.89 13.9
5 4 -18 133.29 15.3
-5 5 -18 0.7 2.6
5 -5 -18 -0.5 2.6
-5 5 -18 -0.1 5.9
-5 -5 18 0.2 5
5 -5 -18 3.1 2.3
5 -5 18 1.5 5.2
5 5 -18 7 4.5
-5 -5 -18 4.4 3.5
5 -6 -18 75.99 6.2
-5 6 -18 99.19 15.6
-5 6 -18 67.39 9.9
5 -6 -18 75.49 6.1
5 -6 -18 73.39 9.4
5 6 -18 69.99 12.9
-5 -6 -18 65.19 9.5
5 6 -18 76.09 13.5
-5 -6 -18 90.79 10.9
-5 -7 18 1.1 5.2
5 -7 -18 -4.4 2.5
-5 7 -18 0.1 2.5
5 7 -18 15.1 6.2
-5 -7 -18 -0.2 3.8
5 -7 18 2.5 6.4
5 7 -18 -3.4 4.5
5 7 -18 -0.2 3.4
-5 -7 -18 -7.7 2.8
-5 -8 18 -3.7 5.4
-5 8 -18 0.7 3.8
-5 8 -18 16.4 9.2
-5 -8 -18 -4.5 2.7
5 8 -18 8.2 6.2
5 8 -18 4.6 4.4
5 8 -18 14.4 6
5 -8 18 3.7 5.5
6 0 -18 6.9 3.6
-6 0 -18 7.6 5.2
6 0 -18 2.8 3.2
6 0 18 11.6 5
-6 1 -18 452.65 43.8
6 -1 -18 518.75 38.6
6 -1 -18 471.95 38.8
-6 -1 -18 415.46 41.3
6 1 -18 454.75 38.9
6 1 -18 458.95 39.5
6 -2 -18 188.98 16.6
6 -2 -18 158.78 16
-6 -2 -18 158.08 18.7
6 2 -18 135.59 16.9
6 2 -18 164.58 19.1
6 -3 -18 223.18 19
6 -3 -18 196.78 20.1
-6 3 -18 178.88 24.5
6 3 -18 188.88 21.9
6 3 -18 202.48 21
-6 -3 -18 188.68 20.9
6 -4 -18 -2 2.3
6 -4 -18 -0.6 2.1
-6 -4 18 6.7 6
-6 4 -18 12.1 6.4
-6 4 -18 1.7 2.6
6 -4 18 -0.6 4.5
6 4 -18 -0.6 3.6
6 4 -18 8.1 5
-6 -4 -18 -3.5 3.1
6 -5 -18 0.2 1.9
-6 -5 18 4.1 5.7
6 -5 -18 -0.1 2.4
-6 5 -18 3.8 6.5
-6 5 -18 7.9 3.4
6 5 -18 3.9 4.2
6 -5 18 1.4 4.4
6 5 -18 1.4 4.2
-6 -5 -18 8.8 4.5
-6 -6 18 10.8 7.1
-6 6 -18 9.4 7.4
6 -6 -18 6.5 3.7
-6 6 -18 4.9 3.5
6 6 -18 7.4 5.4
-6 -6 -18 7.7 4.8
6 6 -18 12.4 6.8
6 -6 18 8.9 8.4
-6 -6 -18 10.2 4.4
6 6 -18 12.9 6.7
-6 7 -18 110.19 13.7
-6 7 -18 131.19 18.6
6 -7 18 169.98 21.6
6 7 -18 120.49 15.9
-6 -7 -18 95.79 13.1
6 7 -18 114.19 16
6 7 -18 114.69 16
-6 -7 -18 101.59 12.9
6 -8 -18 2 3.9
6 -8 -18 -6.7 4.4
-6 8 -18 0.7 3.2
-6 -8 18 3 6.7
6 8 -18 8.8 5.2
6 8 -18 7.7 7.2
6 -8 18 7.7 8.5
-6 -8 -18 -3.5 3.1
6 8 -18 -1.2 4
7 0 -18 68.49 9.2
7 0 -18 68.99 11
-7 0 -18 71.49 14.2
7 -1 -18 56.39 9.7
7 -1 -18 62.29 8.8
7 1 18 95.39 11.4
7 1 -18 68.49 11.3
-7 -1 -18 51.89 12.1
7 -1 18 83.49 12.6
7 1 -18 61.29 11.6
7 -2 -18 72.89 9.6
7 2 18 92.29 9.7
7 -2 -18 83.69 10.5
-7 2 -18 53.59 14
7 -2 18 118.29 15.2
7 2 -18 80.49 12.2
-7 -2 -18 61.19 12.5
7 2 -18 69.39 12.2
7 -3 -18 0.5 4.2
-7 3 -18 5.5 5.9
7 -3 -18 -1 2.2
7 3 -18 -1.2 2.8
-7 -3 -18 0.2 2.8
7 -3 18 -3.7 4.9
7 3 -18 3.1 3.4
7 -4 -18 126.69 12.5
-7 4 -18 96.39 18.5
7 -4 -18 103.09 11.2
7 4 -18 78.59 12.6
-7 -4 -18 90.29 13
7 4 -18 123.89 14.9
-7 5 -18 30.3 6.5
-7 -5 18 53.39 11.8
7 -5 -18 29.8 6.5
-7 5 -18 40 12.1
7 -5 -18 25.3 4.9
7 5 -18 37.3 8.7
7 -5 18 28.8 10.8
7 5 -18 27.5 7.9
-7 -5 -18 29.5 7.7
-7 6 -18 -1.9 2.9
-7 -6 18 2.9 5.5
-7 6 -18 8.3 8.8
7 -6 18 -2.3 5.1
-7 -6 -18 0 3.5
7 6 -18 10.3 5.7
-7 -6 -18 3 4.2
7 6 -18 5.7 4.2
-7 7 -18 18 10.2
-7 -7 18 19.3 8.5
-7 7 -18 29 9.3
7 7 -18 11.8 6.5
7 -7 18 9.2 7.7
7 7 -18 20.6 7.3
7 7 -18 12.3 6.7
-7 -7 -18 13.4 4.5
-7 -7 -18 30 6.5
7 -8 -18 8 7.5
-7 8 -18 15.6 9.5
-7 -8 18 14.9 8
-7 8 -18 13.9 6
7 -8 18 14.2 10
7 8 -18 14 5.8
-7 -8 -18 4.3 3.8
7 8 -18 8 7
-8 0 -18 183.48 25.2
8 0 -18 175.58 18.7
-8 1 -18 5.1 6.4
8 1 18 5 4.8
8 -1 -18 9.1 4.1
-8 -1 -18 -5.9 3.8
8 -1 18 6.9 5.8
8 1 -18 5.6 3.6
8 1 -18 6.8 4
8 -2 -18 613.64 52.29
-8 2 -18 631.14 59.39
8 -2 -18 686.73 52.69
8 2 -18 712.53 55.49
8 2 -18 680.33 53.29
-8 -2 -18 571.84 55.49
-8 3 -18 20.7 9.6
8 -3 -18 15.1 4.8
8 -3 -18 10.8 5
8 3 -18 12.2 5.3
-8 -3 -18 10.7 5.8
8 -3 18 16.1 7.5
8 3 -18 16.9 6.3
8 -4 -18 57.49 8.3
-8 4 -18 76.99 17.5
8 -4 18 105.59 18.5
8 4 -18 69.99 13.4
8 4 -18 61.39 10.3
-8 -4 -18 74.79 10.8
-8 -5 18 28.6 8.4
8 -5 -18 14 3.7
-8 5 -18 26.4 10.2
-8 5 -18 24.8 5.9
8 5 -18 21.3 6.4
8 5 -18 25.9 8.5
-8 -5 -18 17.2 6.1
-8 -5 -18 31.8 7.7
8 5 -18 19 7.2
8 -5 18 32.5 11.9
-8 6 -18 98.39 18.6
-8 6 -18 114.39 12.9
8 6 -18 104.79 15.8
-8 -6 -18 89.09 13.1
8 6 -18 125.19 16.5
-8 -6 -18 123.39 15
8 6 -18 124.89 16.6
-8 7 -18 3.6 4.3
-8 7 -18 17.2 9.6
-8 -7 18 19.9 7.8
8 -7 -18 8.3 6.8
8 -7 18 19.2 10.2
8 7 -18 14.3 6.9
8 7 -18 4.1 5.6
8 7 -18 3.6 5.4
-8 -7 -18 19.7 5.9
-8 -7 -18 17.2 6.2
8 -8 -18 6.7 5.6
-8 -8 18 1.3 5.3
-8 8 -18 -2.4 3.4
-8 8 -18 3.9 9.8
-8 -8 -18 -2.1 4.1
-8 -8 -18 2.1 5.4
8 -8 18 6.9 7.5
8 8 -18 1.8 5.6
8 8 -18 -2 4.8
9 0 -18 12.6 5
9 0 -18 8.3 4.5
-9 0 -18 13.7 6.1
9 0 18 17.9 6.6
9 1 18 199.58 18.2
9 -1 -18 138.19 15.5
-9 -1 18 180.18 17.2
9 -1 -18 109.09 15.4
9 1 -18 111.39 16.4
9 -1 18 177.98 20.3
9 1 -18 162.08 16.5
9 -2 -18 -1.7 2.8
-9 -2 18 0.5 2.9
9 2 18 5.5 4
9 -2 -18 5 3.4
-9 2 -18 3.9 7.1
9 2 -18 5.9 4.6
9 -2 18 7.1 6.3
-9 -2 -18 -1.5 3.8
9 2 -18 3.2 3.9
-9 3 -18 1.8 6.9
9 -3 -18 1.4 2.6
-9 -3 -18 -2 4
9 3 -18 0.9 3.7
9 -3 18 -3.3 3.7
9 3 -18 -0.7 3
-9 4 -18 73.49 18.4
9 -4 -18 73.79 9.2
9 4 -18 66.99 11.8
9 -4 18 104.89 18.7
-9 -4 -18 71.49 13.6
9 4 -18 76.59 14.4
9 -5 -18 120.89 12.4
-9 5 -18 162.38 15.3
9 5 -18 144.09 19.1
9 5 -18 148.19 18.3
9 5 -18 115.39 15.3
9 -5 18 184.58 22.8
-9 -5 -18 115.49 16.3
-9 6 -18 22.7 6.2
9 6 -18 30.1 9.5
-9 -6 -18 31.1 8.3
9 -6 18 37.8 13.7
9 6 -18 30.6 7.4
-9 -6 -18 34.9 7.9
9 6 -18 40 10.7
9 -7 -18 28.9 10.5
-9 7 -18 46.9 12.8
-9 7 -18 36.4 7.8
9 7 -18 41.9 10.6
9 7 -18 30.6 9.4
9 -7 18 54.69 15.2
9 7 -18 30.3 8.4
10 0 -18 305.07 33.4
-10 0 18 418.76 33.3
-10 0 -18 290.77 37.1
10 0 18 467.95 37
10 0 -18 420.06 40.1
10 -1 -18 112.19 12.9
10 -1 -18 102.69 13.4
-10 -1 18 99.09 14.4
-10 -1 -18 90.99 18.4
10 1 -18 99.19 14.5
10 -1 18 135.19 17.1
-10 2 -18 33.1 11.3
-10 -2 18 58.09 10.3
10 -2 -18 42.6 8.8
10 2 18 69.49 8.8
10 -2 -18 44.9 9.1
-10 -2 -18 38.3 13.3
10 -2 18 56.09 13.6
10 2 -18 42.6 10.6
10 2 -18 63.59 9.2
10 3 18 6.2 2.3
10 -3 -18 5.7 3.2
10 -3 -18 7.5 4.1
10 3 -18 -2.7 2.8
10 -3 18 9.4 7.7
10 3 -18 -0.5 4.1
10 -4 -18 3.3 2.9
10 -4 18 8.3 7.6
10 4 -18 4 4.3
10 4 -18 7.4 5.2
10 4 -18 0.8 4.2
-10 -4 -18 5.4 7.3
10 -5 -18 223.68 19.8
-10 -5 -18 283.67 25.1
10 5 -18 197.58 22.6
10 5 -18 204.48 28.5
10 5 -18 270.97 27.9
-10 6 -18 34.3 7.5
10 -6 -18 31.5 10.4
-10 -6 -18 31.9 8.6
10 -6 18 59.29 14.8
10 6 -18 31.8 7.3
10 6 -18 28.2 9.5
10 6 -18 38.5 10.5
10 -7 -18 14 8.1
-10 7 -18 -3 2.8
10 -7 18 -0.7 7.7
10 7 -18 -0.3 5.8
-10 -7 -18 19.1 6.2
10 7 -18 1.6 5.4
10 7 -18 1.1 4.7
11 0 18 290.27 27.2
11 0 -18 214.68 24.2
-11 0 -18 188.48 27.4
-11 0 18 276.97 23.7
11 -1 -18 36.8 8.2
11 1 18 32.4 8.8
11 -1 -18 28.1 8
-11 -1 18 35.9 7.9
11 -1 18 46.7 11.9
-11 1 18 38.1 7.4
11 1 -18 30.7 9.2
-11 -1 -18 20.9 9.3
11 -2 -18 40.7 9
-11 -2 18 63.29 10.9
11 -2 -18 42.1 8.5
11 2 18 69.49 9
11 2 -18 37.9 10.1
11 -2 18 55.89 13.1
11 2 -18 49.8 10.1
-11 -2 -18 71.29 14.1
11 3 18 -0.9 1.7
11 -3 -18 3.2 3
11 -3 -18 1.6 3.7
-11 -3 -18 -0.4 5.5
11 3 -18 -5.2 3.1
11 3 -18 5.8 5.1
11 -3 18 4.2 5.2
11 3 -18 1.8 5.1
11 -4 -18 42.4 8.2
11 -4 18 65.89 15.4
11 4 -18 44.3 9.8
11 4 -18 57.89 12.2
-11 -4 -18 78.99 11.5
11 4 -18 59.99 14.3
11 -5 -18 5.8 2.5
11 -5 -18 5.5 6.3
11 5 -18 6.2 5.5
-11 -5 -18 14.2 6.1
11 5 -18 5.4 4.4
11 5 -18 12.1 6.5
-11 -5 -18 3.3 4.7
11 -6 -18 33.2 11.1
11 -6 18 45.5 14.3
11 6 -18 18.7 6.8
11 6 -18 10.1 7.2
11 6 -18 29.6 9.8
-11 -6 -18 37.1 10.1
-11 7 -18 26.8 7.1
11 -7 -18 18.9 8.9
11 -7 18 33.3 13.3
-11 -7 -18 46.3 9.5
11 7 -18 14 7.6
11 7 -18 24 7.8
11 7 -18 19.4 8
12 0 18 343.57 30.6
-12 0 18 316.47 29.1
-12 0 -18 256.37 35.6
12 0 -18 227.08 27
12 1 18 82.39 12.3
12 -1 -18 75.39 13
-12 -1 18 80.79 11.2
12 1 -18 55.59 12.6
12 -1 18 84.39 16.1
-12 1 18 82.99 10.8
-12 -1 -18 83.19 17.4
12 -2 -18 154.68 16.9
-12 -2 -18 133.09 19.6
12 -2 18 157.28 21.1
12 2 -18 168.78 23.2
12 2 -18 151.28 19.2
12 3 18 19.6 4.1
12 -3 -18 16.6 5.6
12 3 -18 13.1 6.3
12 3 -18 12.9 8.4
12 -3 18 7.7 7.3
-12 -3 -18 17.2 7.3
12 -4 -18 108.29 20.5
12 -4 -18 95.29 13
12 4 -18 92.39 18.5
12 -4 18 104.89 19.7
12 4 -18 98.59 20.5
-12 -4 -18 100.09 15.3
12 -5 -18 475.05 40.9
12 -5 -18 602.04 52.29
12 5 -18 511.05 48.5
-12 -5 -18 462.95 46.5
12 5 -18 492.45 49.1
12 -5 18 659.63 54.29
-12 6 -18 -4.6 2.9
12 -6 -18 5 6.7
12 6 -18 -2.8 4.8
12 6 -18 5 5.8
12 6 -18 -2.5 3.8
-12 -6 -18 18.1 6.4
12 -6 18 0.1 6.5
-12 7 -18 16.5 5.6
12 -7 -18 16.6 8.4
12 -7 18 8.8 8.4
12 7 -18 3.4 5.9
12 7 -18 -3.5 6.1
13 0 -18 76.89 14.1
-13 0 18 81.59 12.6
13 0 -18 104.09 21.2
13 0 18 83.99 15.1
13 1 18 216.48 21.6
13 -1 -18 155.68 19.8
-13 -1 18 202.98 22.3
13 -1 -18 202.88 26.4
-13 1 18 198.58 19.2
13 1 -18 170.48 20.9
13 1 -18 166.78 24.5
13 -1 18 188.88 23.3
13 -2 -18 15.1 5.8
13 2 18 19.6 6.3
13 -2 -18 14 8.1
13 2 -18 11.4 7.8
-13 2 18 27.8 6.5
13 2 -18 6.7 5.4
13 -2 18 16.3 8.4
13 3 18 38.8 5.9
13 -3 -18 21.3 6.3
13 -3 -18 32.3 11.3
13 3 -18 48.3 13.5
13 -3 18 30.9 10.9
13 3 -18 46.4 12.2
13 -4 -18 37.2 13
13 -4 -18 38.8 7.2
13 4 -18 35.6 10.7
13 4 -18 38.4 12.1
13 -5 -18 -7.4 5.4
13 -5 -18 -1.2 2.3
13 -5 18 -0.3 6.5
13 5 -18 1.3 6.3
13 5 -18 -9.2 3.4
13 -6 -18 2.3 7.1
13 6 -18 7.6 6
13 -6 18 13.8 8.8
13 6 -18 15.1 8
-13 7 -18 39.8 8.7
13 -7 -18 37.5 13.1
13 7 -18 24.5 9
13 -7 18 53.39 16.2
13 7 -18 45.8 11.9
14 0 -18 472.15 51.39
14 0 18 566.24 48.4
14 0 -18 455.55 45.9
-14 0 18 589.94 45.2
14 -1 -18 93.29 13.3
14 -1 -18 72.29 17.9
14 1 18 96.29 13.9
14 -1 18 105.49 16.5
14 1 -18 106.99 22.3
-14 1 18 110.59 13
14 1 -18 77.39 14.7
14 -2 -18 84.29 15.2
14 -2 -18 126.89 20.5
14 2 18 145.09 15.3
14 2 -18 119.89 23
14 2 -18 98.89 17.8
-14 2 18 120.99 13.9
14 -2 18 113.29 18.3
14 -3 -18 21 6.3
14 -3 -18 27.1 11.5
14 3 18 39.3 6.5
14 3 -18 23.8 8.7
14 3 -18 38.7 11.8
14 -3 18 23.9 10.8
14 -4 -18 13.5 5
14 -4 -18 21.2 11.3
14 4 -18 16.1 9.2
14 4 -18 9.5 7.9
14 -4 18 39 12.1
14 -5 -18 6.7 3.2
14 -5 -18 11.2 8
14 5 -18 17 8.2
14 5 -18 14 7
14 -5 18 14.4 9.5
14 -6 -18 127.39 20.4
14 6 -18 107.49 17.8
14 6 -18 102.99 20
14 -6 18 158.78 23
15 0 -18 624.44 60.09
15 0 18 798.52 62.89
15 0 -18 712.63 67.49
15 -1 -18 1.6 5
15 -1 -18 3.9 4.8
15 1 18 -1.6 4
15 1 -18 6.4 7
15 1 -18 0.2 4.3
15 -1 18 6.6 6.4
-15 1 18 -3.1 4.1
15 -2 -18 60.39 16.2
15 -2 -18 50.49 11.3
15 2 18 73.19 11.2
15 2 -18 62.49 14.2
15 2 -18 63.39 16.3
-15 2 18 64.19 11.9
15 -2 18 66.09 15.2
15 -3 -18 2.2 4.9
15 -3 -18 3.9 4.6
15 3 -18 -0.5 3.7
15 3 -18 -3.3 5.4
15 -4 -18 5.1 8
15 -4 -18 9.1 4.2
15 4 -18 0.3 4
15 -4 18 9.4 7.6
15 4 -18 3.1 6.4
15 -5 -18 -0.3 6.8
15 5 -18 1.6 7
15 5 -18 5.2 5.6
15 -5 18 -5 6.9
15 6 -18 34.2 11.4
15 -6 18 48.1 15.5
15 6 -18 42.1 13.1
16 0 18 28.7 9.6
16 0 -18 15.8 7.4
16 0 -18 34.4 12.8
16 1 18 3.9 5.6
16 -1 -18 17.7 9.2
16 -1 -18 6.6 5.1
-16 1 18 9.2 5.4
16 1 -18 7.8 8.5
16 -1 18 13.3 8.4
16 1 -18 5.3 5.6
16 -2 -18 87.89 20.5
16 -2 -18 87.49 15.4
16 -2 18 112.39 21.2
-16 2 18 131.89 14.1
16 2 -18 93.69 20.7
16 -3 -18 -0.9 4
16 3 18 2.2 3.5
16 -3 -18 5.5 7.4
16 3 -18 7.4 7.1
-16 3 18 2.6 3.6
16 -3 18 3.4 6.2
16 3 -18 4.3 8.7
16 -4 -18 83.79 11.9
16 -4 -18 100.29 21.7
16 4 -18 98.09 18.4
16 -4 18 113.29 21.7
16 -5 -18 22.3 9.6
16 -5 18 6.6 7.8
16 5 -18 1.8 6.3
16 -6 -18 -9.3 5.7
16 6 -18 -4.8 4.2
16 6 -18 -8.2 6.4
16 -6 18 8.2 8.1
17 0 18 13.3 7.5
17 0 -18 13.4 7.3
17 -1 -18 16.9 7.2
17 1 18 37.2 10.2
17 -1 18 26.7 9.8
17 1 -18 23.2 8.8
17 1 -18 18.2 11.8
17 2 18 9.7 5.4
17 -2 -18 6.4 5.5
17 2 -18 10.9 8.2
17 -2 18 7.5 6.6
17 2 -18 -4.5 4.3
-17 2 18 0.7 4.5
17 -3 -18 -1.1 3.8
17 3 18 14.2 5
17 -3 -18 14.4 8.9
17 -3 18 3.4 6.2
17 3 -18 11.2 8.8
17 3 -18 9.4 7.5
17 -4 -18 1.5 4
17 -4 -18 -6.5 5.5
17 -4 18 -2.2 5.4
17 4 -18 -7.1 4.6
17 4 -18 -3.9 5.3
17 -5 -18 -2.6 7.1
17 5 -18 -2.7 6.1
17 -5 18 -4 7.2
17 5 -18 3.2 6
18 0 18 225.68 24.9
18 0 -18 157.58 21.7
18 0 -18 171.38 26.8
18 -1 -18 57.59 17.4
18 -1 -18 60.79 13
18 1 18 73.79 14.6
18 -1 18 73.39 27.7
18 1 -18 63.09 18
18 1 -18 62.99 14.9
18 -2 -18 32.1 13.3
18 2 18 50.79 10.6
18 -2 -18 31.9 9.3
18 2 -18 26.7 12.6
18 2 -18 44.6 13
18 -2 18 42.2 13.8
18 -3 -18 6.1 7.7
18 -3 -18 1.2 3.7
18 3 18 -0.2 3.9
18 3 -18 0.3 4.8
18 -3 18 -1.4 5.3
-18 3 18 -5.5 3.6
18 -4 -18 8.7 3.8
18 -4 -18 8.1 9.1
18 4 -18 -5.5 5.6
18 -4 18 5.6 8.2
18 4 -18 -1.5 6.1
18 -5 -18 89.19 20.4
18 5 -18 75.69 16.6
18 -5 18 93.79 20.9
18 5 -18 73.39 17.7
19 0 -18 90.19 21.1
19 0 -18 96.49 19.6
19 0 18 79.79 16.1
19 -1 -18 57.89 12.8
19 1 18 64.69 13.8
19 -1 -18 34.8 15
19 1 -18 64.29 14.3
19 -1 18 49.6 14
19 1 -18 60.99 16.6
19 -2 -18 11.8 6.3
19 -2 -18 20.7 11.9
19 2 18 26.8 8.1
19 2 -18 18.9 11.3
19 -2 18 44.3 13.6
19 2 -18 21 9.1
19 -3 -18 42.8 9.8
19 -3 -18 48.7 15.3
19 3 18 67.29 10.1
19 3 -18 49.6 16
-19 3 18 51.49 10.1
19 -3 18 49.1 14.9
19 3 -18 38.3 12.9
19 -4 -18 5.1 4.1
19 -4 -18 16.3 8.1
19 4 -18 3.6 7.1
19 -4 18 8.4 8.3
19 4 -18 5 9.3
19 -5 -18 2.4 9.9
19 5 -18 -4.4 7.5
19 -5 18 -8.1 7.7
19 5 -18 -2.4 6.1
20 0 -18 -4.6 6.1
20 0 18 10.2 7.4
20 0 -18 -6 4.9
20 -1 -18 40.4 15.8
20 1 18 58.29 13.6
20 1 -18 26.2 11.7
20 1 -18 43.3 12.1
20 -1 18 56.39 14
20 2 18 82.19 12.7
20 -2 -18 49.8 16.9
20 -2 -18 54.59 12.5
20 -2 18 63.79 16.8
20 2 -18 45.9 13.2
20 2 -18 36.4 13.3
20 -3 -18 73.29 18.8
20 -3 -18 53.09 11.5
20 3 -18 78.79 17.1
20 3 -18 52.59 16.6
20 -3 18 74.49 18.4
20 -4 -18 140.09 27.3
20 -4 18 117.09 24.1
20 4 -18 104.49 23.1
-20 4 18 172.38 16.8
20 4 -18 120.19 23.1
21 0 -18 99.39 18.3
21 0 -18 95.29 22
21 0 18 108.49 20.2
21 -1 -18 -0.3 8.1
21 1 18 1.3 5.4
21 -1 -18 1.3 5.7
21 -1 18 8.1 6.5
21 1 -18 9.2 9.7
21 1 -18 -3.6 4.4
21 2 18 54.39 12
21 -2 -18 72.59 20.2
21 -2 -18 46 16.3
21 2 -18 69.69 20
21 2 -18 54.19 15.4
21 -2 18 64.19 18.2
21 3 18 4.5 5.2
21 -3 -18 -0.4 9.9
21 -3 -18 1.4 5.4
21 3 -18 5.1 7.1
21 -3 18 5 8.5
21 3 -18 8.8 8.4
22 0 -18 138.49 24.2
22 0 18 214.78 25.8
22 0 -18 161.08 31.7
22 1 18 27.6 10.8
22 -1 -18 23.3 11.9
22 -1 -18 13.6 6.3
22 -1 18 35.8 12.4
22 1 -18 32.1 10.3
22 1 -18 15.8 10.9
22 -2 -18 25.4 8.4
22 2 18 21.1 8.7
22 -2 -18 20.7 11.7
22 2 -18 25 9.6
22 -2 18 32.4 13.2
22 2 -18 16.1 11.7
23 0 18 63.49 16.4
23 0 -18 45.1 11.8
23 0 -18 47.9 16.4
23 -1 -18 29.7 13.5
23 1 18 16.7 8.8
23 -1 -18 9.1 7
23 1 -18 -5 5.8
23 1 -18 11.5 9.9
23 -1 18 23 10.1
0 0 -19 1.7 3.1
0 0 -19 -1.3 1.7
0 0 19 0 3.4
0 -1 -19 -0.5 2.4
0 1 -19 4.6 4.1
0 -1 19 -5.1 2.8
0 -1 -19 -0.1 1.7
0 1 -19 -0.2 1.8
0 -2 -19 65.89 8.9
0 2 -19 69.39 8.7
0 -2 -19 70.79 7.8
0 2 -19 62.09 12.1
0 3 -19 -2.5 3.7
0 -3 -19 -2.4 2.2
0 -3 19 1.5 5.3
0 3 -19 3.9 2.8
0 -3 -19 3 1.9
0 4 -19 10.8 5.7
0 4 -19 14.5 5
0 -4 19 32.6 10.3
0 -4 -19 12.7 4.1
0 -4 -19 22.2 4
0 -5 19 0.2 5.5
0 -5 -19 -2.7 2.4
0 5 -19 -4 4.6
0 -5 -19 -0.4 1.3
0 5 -19 -0.3 2.5
0 6 -19 5.4 5.2
0 -6 -19 -1.8 1.4
0 6 -19 -2.6 2.8
0 -7 -19 0.8 2.8
0 -7 19 -1.6 5.3
0 7 -19 -5.8 2.7
0 -7 -19 2.1 1.7
0 7 -19 16.4 7.9
0 8 -19 -4.7 3.1
0 8 -19 7.6 8.3
0 -8 -19 -0.3 3.1
0 -8 19 -7.8 6.5
-1 0 19 -0.7 3.1
-1 0 -19 -0.8 2.8
1 0 -19 -1.4 2.4
-1 0 -19 1.1 1.8
1 0 -19 2.5 2.1
1 1 19 101.29 11.1
1 -1 -19 80.39 10.3
-1 1 -19 77.19 11.8
-1 1 -19 91.99 9.8
1 -1 -19 79.39 9.1
-1 -1 -19 80.19 10.6
1 1 -19 82.09 11.6
1 1 -19 86.49 9.9
1 -2 -19 -3.7 1.6
-1 2 -19 0.2 2.3
-1 -2 19 -1.7 4.8
1 -2 -19 2 2.1
-1 2 -19 -0.1 3.4
1 2 -19 2.5 2.1
1 2 -19 -1.9 2.7
-1 -2 -19 -2.5 2.2
1 -2 19 3.5 5.1
1 -3 -19 139.79 13
-1 3 -19 122.69 13
1 -3 -19 116.59 11.6
-1 3 -19 132.39 16.9
1 3 -19 102.09 12.9
-1 -3 -19 131.09 13.1
1 3 -19 95.59 14.9
-1 4 -19 1.3 3.9
1 -4 -19 4.8 2.4
-1 -4 19 1.2 5.6
-1 4 -19 1.9 2.8
1 -4 -19 3.2 2.6
1 4 -19 3.8 3.6
-1 -4 -19 -1.1 2.2
1 -4 19 9.7 7.4
1 4 -19 4.4 3.3
-1 5 -19 29.3 6.9
-1 5 -19 15.8 7.9
1 -5 -19 27.1 4.5
-1 -5 19 47.5 11.6
1 -5 -19 27.1 5.6
1 5 -19 30.9 8.3
-1 -5 -19 21.3 5
1 5 -19 17.3 5.9
-1 -5 -19 23 4.5
1 -5 19 45 11.9
-1 6 -19 38.6 8.5
-1 6 -19 35.7 8.6
1 -6 -19 35.9 4.9
-1 -6 19 82.09 15.1
1 -6 -19 41.8 6.7
-1 -6 -19 37.2 6.1
-1 -6 -19 34.7 7.3
1 -6 19 84.59 15.7
1 6 -19 49.1 10.4
1 6 -19 34.5 8.6
-1 -6 -19 33.9 4.9
-1 -7 19 -9.7 4.4
1 -7 -19 -5.6 2.6
-1 7 -19 0.9 2.6
1 7 -19 -2.4 3.1
1 -7 19 -1.4 5.9
-1 -7 -19 -0.9 2
1 7 -19 20.8 7.8
-1 -7 -19 -2.1 1.2
-1 -7 -19 1.1 2.8
-1 8 -19 23 6.7
-1 -8 19 39.2 10.9
-1 8 -19 15.6 8.8
1 -8 -19 12.9 4.7
1 8 -19 18.8 8.5
1 8 -19 16.6 6
1 8 -19 14.8 7
1 -8 19 19.4 9.2
-1 -8 -19 12.3 4.7
2 0 -19 4.3 2.4
-2 0 -19 -1 2.8
2 0 19 -1.1 2.8
2 -1 -19 741.13 55.79
-2 1 -19 646.94 58.39
-2 1 -19 739.63 54.79
2 -1 -19 711.13 54.59
-2 -1 -19 691.93 56.89
2 1 -19 709.23 55.29
2 1 -19 651.43 56.69
2 -2 -19 6.2 3.3
-2 2 -19 5.1 2.8
-2 -2 19 23.3 7.9
2 -2 -19 9 3.2
-2 -2 -19 9.6 3.7
2 -2 19 18.1 7.1
2 2 -19 4 4.9
2 2 -19 10 4
-2 3 -19 45.5 11.6
2 -3 -19 73.39 8.7
-2 3 -19 80.79 9.1
2 -3 -19 75.39 8
2 3 -19 57.89 11.7
-2 -3 -19 59.49 8.6
2 3 -19 54.99 9.7
-2 4 -19 2.6 2.4
2 -4 -19 4.1 2.5
-2 -4 19 1.5 5.5
2 -4 -19 -1.2 2
-2 4 -19 4.2 4.9
2 4 -19 -1.2 2.4
2 4 -19 -1.8 3.2
2 -4 19 -3.3 4.3
-2 5 -19 34 7.5
2 -5 -19 51.69 6
-2 5 -19 33.1 11.1
2 -5 -19 48.9 6.7
2 5 -19 43.1 8.8
-2 -5 -19 48 7.2
2 5 -19 42.4 10.9
2 -5 19 69.89 14.1
-2 6 -19 140.69 17.4
-2 6 -19 86.09 11.9
2 -6 -19 103.29 9.1
2 -6 -19 102.29 10.4
-2 -6 -19 83.39 10.7
2 6 -19 65.39 13.2
-2 -6 -19 85.49 10.3
2 6 -19 81.29 13.5
2 -7 -19 156.48 13.8
-2 7 -19 135.59 16.1
2 7 -19 121.09 16.3
-2 -7 -19 121.39 13.5
-2 -7 -19 129.09 13.1
-2 -7 -19 143.99 12
2 7 -19 148.89 18.6
-2 -8 19 90.79 16.7
2 -8 -19 49.6 8.1
-2 8 -19 58.29 10.8
-2 8 -19 52.39 11.9
2 8 -19 52.29 11.5
2 -8 19 98.89 18
-2 -8 -19 63.49 8.3
2 8 -19 37.2 10.4
2 8 -19 38.1 10.1
3 0 -19 2.7 2.2
-3 0 -19 6.5 4.3
3 0 -19 1.2 2.4
3 0 19 3.6 3.9
3 -1 -19 99.29 11.3
-3 -1 19 138.79 14.9
-3 1 -19 89.19 13.7
3 -1 -19 98.29 10.6
3 1 -19 89.99 11.9
-3 -1 -19 80.59 11.8
3 1 -19 99.59 11.3
3 -2 -19 58.59 7.6
3 -2 -19 58.39 8
-3 2 -19 52.49 14.5
-3 2 -19 80.19 8.5
3 2 -19 62.79 8.7
-3 -2 -19 54.39 8.8
-3 3 -19 325.37 26.1
-3 3 -19 301.77 31.1
3 -3 -19 288.37 24.7
3 -3 -19 331.27 25.6
-3 -3 -19 260.87 26.1
3 3 -19 271.57 28.1
3 3 -19 279.77 26.6
3 -4 -19 90.19 9.4
3 -4 -19 87.59 9
-3 4 -19 87.19 16.3
-3 4 -19 82.79 10
-3 -4 -19 62.19 9.5
3 4 -19 75.29 12.3
3 4 -19 69.19 11.7
-3 5 -19 81.99 10.8
3 -5 -19 82.19 8.9
-3 5 -19 88.49 17
3 -5 -19 101.29 10.1
3 5 -19 98.39 12.6
3 5 -19 76.09 12.8
-3 -5 -19 78.59 10.4
3 -6 -19 66.69 7.5
-3 6 -19 66.69 11.3
3 -6 -19 86.99 9.4
-3 6 -19 92.59 16.8
-3 -6 -19 77.79 9.7
-3 -6 -19 97.49 10.8
3 6 -19 68.49 12.6
3 6 -19 85.19 13.6
-3 -7 19 4 5.9
-3 7 -19 -5.2 2.6
3 -7 -19 2.4 3.3
3 -7 19 0.5 6.6
3 7 -19 -1.2 4.1
-3 -7 -19 0.2 2.9
3 7 -19 21.5 7
-3 -7 -19 0.6 2.8
-3 8 -19 4 4.5
-3 8 -19 14.6 8.4
-3 -8 19 32.8 10.1
3 -8 -19 15.3 5
3 -8 19 12.2 9.9
3 8 -19 10.2 7.7
-3 -8 -19 22.6 5.5
-3 -8 -19 14.1 2.3
3 8 -19 16.6 7.3
3 8 -19 7 6.2
-3 -8 -19 15.2 2.9
4 0 -19 -1.9 2.4
4 0 19 5.7 4.1
-4 0 -19 -0.2 3.3
4 0 -19 1.8 2.2
4 -1 -19 3.3 2.6
-4 1 -19 6.2 5.6
4 1 19 -0.2 3.3
4 -1 -19 1.4 2.8
4 1 -19 5.3 3
-4 -1 -19 7.5 3.8
4 1 -19 2.9 2.7
4 -1 19 22.6 7.6
4 -2 -19 27.4 5.7
-4 -2 19 43.7 9.8
-4 2 -19 32.1 9.3
4 -2 -19 38.2 7.2
4 2 -19 30.1 7.5
-4 -2 -19 30.7 7.6
4 -2 19 53.99 11
4 2 -19 30.1 8.3
-4 3 -19 520.75 50.39
4 -3 -19 626.94 44.7
4 -3 -19 621.94 44.9
-4 3 -19 607.04 45.3
4 3 -19 493.75 47.1
4 3 -19 523.15 46.3
-4 -3 -19 493.85 45.9
4 -4 -19 93.99 9.6
-4 4 -19 92.29 17.3
4 -4 -19 86.99 9.9
-4 4 -19 87.19 10.3
4 4 -19 89.39 12.9
4 4 -19 82.99 11.8
-4 -4 -19 70.59 10.4
4 -5 -19 9.8 2.9
-4 5 -19 8.5 3.8
4 -5 -19 13.5 3.9
-4 -5 19 29.9 9.5
-4 5 -19 15.1 7.3
-4 -5 -19 11.4 4.7
4 5 -19 6 4
4 5 -19 17.1 7.2
4 -5 19 23.6 9.3
4 -6 -19 59.29 8.6
-4 6 -19 74.99 10.3
4 -6 -19 61.39 6.7
-4 6 -19 54.49 13.3
4 -6 19 94.89 18
-4 -6 -19 89.09 10.6
-4 -6 -19 70.89 9.3
4 6 -19 75.19 12.1
-4 7 -19 70.79 14.4
-4 7 -19 69.89 11.4
4 -7 -19 54.89 8.2
4 7 -19 61.29 11.5
4 7 -19 63.09 12.8
4 -7 19 122.79 20.5
-4 -7 -19 52.99 9.3
-4 -7 -19 62.19 8.9
4 7 -19 62.89 12.5
-4 8 -19 26.2 10.3
-4 -8 19 35.3 10.8
-4 8 -19 37.2 8.4
-4 -8 -19 23.1 3.8
4 8 -19 37.2 9.8
-4 -8 -19 20.2 4.3
4 -8 19 41.4 13.1
-4 -8 -19 38.2 7.1
4 8 -19 28 7.8
4 8 -19 20.8 8.1
-5 0 -19 2.9 4.1
5 0 -19 -0.4 2.7
5 0 -19 -2.6 2
5 0 19 6.5 4.5
5 -1 -19 0.5 3
5 -1 -19 0.8 2.6
5 1 19 -1.7 3.3
-5 -1 -19 0.2 3.1
5 -1 19 -0.2 3.9
5 1 -19 4.4 3.4
5 -2 -19 577.24 44.2
5 -2 -19 615.54 44.4
-5 2 -19 505.45 49.5
-5 -2 -19 498.95 46.3
5 2 -19 502.45 45.4
5 2 -19 555.54 45.8
5 -3 -19 6.7 3
-5 3 -19 13.3 7
5 -3 -19 10.7 3.9
-5 3 -19 4.7 3.1
-5 -3 19 12.4 6.8
5 3 -19 5.4 4.3
5 3 -19 6.1 3.8
5 -3 19 6.9 6
-5 -3 -19 9.6 4.6
-5 4 -19 22.6 8.2
-5 4 -19 18.7 5
5 -4 -19 16.3 4.5
-5 -4 19 36.1 10
5 -4 -19 21.2 4.7
5 -4 19 47.1 11.9
5 4 -19 12.7 5.8
5 4 -19 19.2 6.2
-5 -4 -19 19.7 5.9
5 -5 -19 1.9 2.1
5 -5 -19 -3.7 2.5
-5 5 -19 1.3 2.5
-5 5 -19 9.5 7.1
-5 -5 19 1.2 5.2
5 5 -19 10.3 5.5
5 5 -19 4.3 5
5 -5 19 -4.9 4.4
-5 -5 -19 7.1 4.1
-5 6 -19 173.38 22.7
5 -6 -19 137.99 11.7
-5 6 -19 136.29 15.3
5 -6 -19 148.89 14.5
-5 -6 -19 126.69 15
5 6 -19 146.09 18.4
5 -6 19 203.58 27
5 6 -19 125.99 17.3
-5 -6 -19 137.99 15.9
-5 7 -19 11.3 9
-5 -7 19 9.3 6.3
-5 7 -19 -3.7 2.7
5 7 -19 10.9 7.2
5 -7 19 14 8.5
-5 -7 -19 9.4 4.1
5 7 -19 -5.2 3.9
5 7 -19 3.4 5
-5 -7 -19 -3 3.1
-5 8 -19 2.9 4.3
-5 -8 19 -5 5.9
-5 8 -19 -2.8 9.4
-5 -8 -19 -6.3 3
-5 -8 -19 4.4 4.4
5 8 -19 5.7 5.7
5 8 -19 11.7 7
5 -8 19 -5.2 7
5 8 -19 -2.2 3.6
6 0 19 4.6 4.5
-6 1 -19 635.04 61.39
6 -1 -19 796.72 57.29
6 -1 -19 747.43 57.09
6 1 -19 726.63 57.79
-6 -1 -19 593.74 59.09
6 1 -19 740.63 57.39
6 2 19 27.4 5.4
6 -2 -19 28.5 6.2
-6 2 -19 19.4 7.7
6 -2 -19 23.7 5.8
-6 -2 -19 28.8 7.8
6 2 -19 22 6.4
6 -2 19 29.9 8.9
6 2 -19 13.8 5.5
6 -3 -19 185.38 18
-6 3 -19 186.78 24.3
6 -3 -19 222.58 18.7
-6 -3 -19 177.48 20.4
6 3 -19 213.98 21
6 3 -19 164.48 19.5
6 -4 -19 68.39 8.5
6 -4 -19 62.89 8.6
-6 4 -19 74.09 15.7
-6 4 -19 78.49 9.4
6 4 -19 46.9 10.1
6 4 -19 53.89 11
6 -4 19 119.79 16.7
-6 -4 -19 66.19 10.1
-6 -5 19 16.3 7.8
6 -5 -19 6.1 4.1
-6 5 -19 16.7 7.6
-6 5 -19 5.8 3.5
6 -5 -19 10.9 3.1
6 5 -19 4.9 5.2
-6 -5 -19 4.3 4.2
6 5 -19 4.5 4.5
6 -5 19 6.8 7.3
-6 6 -19 39.5 7.8
-6 6 -19 54.29 12.8
6 -6 -19 23.9 6.9
-6 -6 19 40.5 13.3
6 -6 -19 32.5 3.3
6 6 -19 32.6 8.3
-6 -6 -19 29.1 6.9
-6 -6 -19 37.2 8.3
6 6 -19 33.3 8.4
-6 7 -19 63.39 10.8
6 -7 -19 69.89 9.8
-6 7 -19 78.59 15.5
6 7 -19 52.29 12.2
-6 -7 -19 90.89 10.4
6 7 -19 59.99 13.2
6 7 -19 50.59 12.3
-6 -7 -19 72.09 9.9
6 -7 19 120.19 18.3
-6 -8 19 31.8 10.4
6 -8 -19 23.3 9.3
-6 8 -19 36.7 12.5
-6 8 -19 19.1 6.9
6 -8 -19 14.3 6.4
-6 -8 -19 31.5 5.6
6 8 -19 24.9 9.1
6 -8 19 39.5 12.9
6 8 -19 37.2 10.4
6 8 -19 21.9 7.8
7 0 19 8.5 5.2
7 0 -19 -0.7 2.5
7 0 -19 -0.5 2.7
-7 0 -19 -3.2 3.7
7 -1 -19 58.49 10.8
7 -1 -19 52.19 9.6
7 1 19 77.59 10.3
-7 1 -19 44.4 15.5
7 1 -19 53.39 10
-7 -1 -19 36.6 11.4
7 -1 19 78.99 13.9
7 1 -19 59.99 11.6
7 -2 -19 -1.5 1.8
-7 2 -19 -1.5 5.2
7 2 19 -1.1 2.5
-7 -2 -19 3.6 4.5
7 2 -19 -2.7 2.7
7 -2 19 -2.4 4.3
7 2 -19 4.2 3.9
-7 3 -19 3.1 6.6
7 -3 -19 1.1 2.3
7 3 -19 9.8 4.9
7 -3 19 7.6 6.5
7 3 -19 5.7 4.4
-7 -3 -19 2.1 4.2
-7 -4 19 79.89 14.5
7 -4 -19 41.9 7.1
-7 4 -19 37.7 7.2
-7 4 -19 30.7 10.3
7 4 -19 39.7 9.6
-7 -4 -19 36.8 8.4
7 4 -19 49.99 10.5
7 -4 19 70.49 14.9
-7 -5 19 55.79 12.7
7 -5 -19 36.5 5.8
7 -5 -19 32.9 7.2
-7 5 -19 32.5 7.2
7 5 -19 31.3 8.7
7 -5 19 43.2 13.1
-7 -5 -19 33.4 7.7
7 5 -19 37.6 10
-7 6 -19 -0.9 2.3
7 -6 -19 -2.6 3.4
7 -6 19 5.7 8.1
7 6 -19 5.1 4.8
-7 -6 -19 -0.2 4.1
7 6 -19 1.8 3.1
7 6 -19 10 5.5
-7 -6 -19 9.3 5
7 -7 -19 8.1 4.4
-7 7 -19 17.6 9.6
-7 -7 19 7.3 6.4
7 -7 19 11.6 9.3
-7 -7 -19 13.1 5.2
7 7 -19 10.6 6.1
7 7 -19 9.8 6.4
-7 -7 -19 15.1 4.9
8 0 19 1.1 4.2
-8 0 -19 0.7 5.3
8 0 -19 0.4 2.4
8 0 -19 -0.2 2.2
8 -1 -19 294.67 24.4
8 -1 -19 245.78 24.5
8 1 -19 252.37 25.4
-8 -1 -19 229.38 28.1
8 -2 -19 55.39 9.6
-8 2 -19 35.6 13.1
8 -2 -19 50.69 7.8
8 -2 19 70.59 13.9
8 2 -19 40.5 8.8
8 2 -19 47.6 10
-8 3 -19 150.28 21.6
8 -3 -19 128.29 14.3
8 -3 -19 151.28 15
8 3 -19 108.69 14.9
8 -3 19 200.18 22
-8 -3 -19 132.29 17.6
8 3 -19 145.59 17.6
8 -4 -19 34.6 6.4
8 -4 -19 27.2 7
8 4 -19 31.7 9.2
8 -4 19 36.4 11.6
-8 -4 -19 27.5 8.4
8 4 -19 37 8.1
-8 -5 19 64.99 13.7
8 -5 -19 46.9 6.4
8 -5 -19 52.49 8.4
-8 5 -19 42.5 8.3
8 -5 19 64.89 15.7
8 5 -19 57.29 11.2
-8 -5 -19 34.7 9.1
8 5 -19 42.2 13.8
-8 6 -19 60.29 11.2
8 -6 -19 97.39 11.3
-8 -6 -19 60.89 16.6
8 6 -19 69.79 14.2
8 6 -19 46.5 10.2
-8 -6 -19 68.99 11.1
8 6 -19 78.99 14.6
8 -7 -19 16 7.3
-8 7 -19 4.5 4.2
-8 -7 19 13 8.5
8 7 -19 10.4 6.7
8 7 -19 13.2 7.3
8 -7 19 10.8 9.1
-8 -7 -19 15.6 7.8
-8 -7 -19 22.2 6.5
9 0 19 -2.3 4.8
-9 0 -19 -7.5 4
9 0 -19 -1.7 2.9
9 0 -19 -6.5 2.6
9 -1 -19 371.76 31.3
9 -1 -19 327.67 31.7
-9 -1 -19 277.27 34.2
9 1 -19 343.57 32.9
9 -1 19 454.35 36.3
-9 -2 19 156.98 16
9 -2 -19 119.39 14.5
9 -2 -19 140.99 14.8
9 2 -19 125.19 16.6
9 2 -19 121.79 14.9
9 -2 19 180.68 20.5
-9 -2 -19 106.79 16.9
9 -3 -19 181.58 17.7
9 -3 -19 160.28 16.7
9 -3 19 222.88 23.8
9 3 -19 140.39 17.5
-9 -3 -19 157.78 22.9
9 3 -19 160.98 19.7
9 -4 -19 -2.9 2.3
9 -4 -19 -0.8 3.2
9 4 -19 4.6 4.6
9 4 -19 -1.4 3.4
9 -4 19 2.4 5.2
9 -5 -19 4.5 4.3
9 -5 -19 2.5 2.1
-9 5 -19 -5 2.2
9 5 -19 1 4.9
9 5 -19 8.2 5.3
-9 -5 -19 4.4 4.2
9 -5 19 0.8 7.7
9 5 -19 -3.2 3.1
-9 6 -19 5.5 3.9
9 6 -19 7.1 5.9
-9 -6 -19 16.3 5.5
9 6 -19 9.9 6
9 6 -19 11.6 6
9 -6 19 9 7.6
9 -7 -19 -1.2 5.5
-9 7 -19 5.5 4
9 7 -19 2.6 5.3
9 7 -19 12.2 5.5
9 -7 19 3.6 8.2
10 0 19 -4.5 3.8
-10 0 -19 -2 5.4
10 0 -19 -3.1 2.4
10 1 19 116.69 13.8
10 -1 -19 84.29 13.6
10 -1 -19 72.59 10.9
-10 -1 19 103.49 12.3
-10 -1 -19 74.09 16
10 1 -19 73.79 14
10 -1 19 89.89 14.7
10 -2 -19 129.59 14.8
10 -2 -19 105.29 14.4
10 2 19 166.68 14.8
-10 -2 -19 116.89 17.7
10 2 -19 114.69 16.4
10 -2 19 143.29 19.3
10 3 19 263.97 20.9
10 -3 -19 240.58 23.6
10 -3 -19 271.47 24.7
10 3 -19 230.78 26.5
-10 -3 -19 214.18 26.9
10 -3 19 306.37 30.7
10 4 -19 5.7 7
10 -4 19 8.7 7.7
10 4 -19 7.6 5.4
-10 -4 -19 13.7 5.6
10 -5 -19 4.7 2.4
-10 -5 -19 1.2 5.8
10 5 -19 -1.4 2.9
-10 -5 -19 2.3 4.5
10 5 -19 2.3 5.5
10 -5 19 -1.2 6.3
10 -6 -19 24.4 9.4
-10 6 -19 20.5 6.1
10 -6 19 37.3 13
10 6 -19 17.3 8.1
10 6 -19 22.3 7
-10 -6 -19 26.5 8
10 6 -19 12.4 7.4
10 -7 -19 34.3 10.5
-10 7 -19 30.7 7.2
10 -7 19 70.79 16.8
10 7 -19 23.1 8.9
10 7 -19 19.2 11.6
10 7 -19 26.6 9.6
-11 0 19 1.8 3.6
11 0 19 1.5 4.8
11 0 -19 -1.8 3.2
11 -1 -19 -1.8 3.3
-11 -1 19 -1 3.8
11 1 19 -3.1 3.5
11 1 -19 0.5 4.3
-11 -1 -19 2 4.8
11 -1 19 1.7 5.2
11 2 19 14.7 5.2
11 -2 -19 7 3.6
11 2 -19 11.9 5.8
-11 -2 -19 16.1 7.8
11 -2 19 9.2 7.2
11 3 19 58.69 6.6
11 -3 -19 31.5 7.8
-11 -3 -19 41.9 12
11 3 -19 48.3 11
11 -3 19 69.59 16.1
11 -4 -19 -1.7 2.4
-11 -4 -19 8.8 5.1
11 4 -19 -2.6 4.2
11 -4 19 0.3 5.4
11 -5 -19 11.8 9.1
11 -5 -19 4.1 2.6
-11 -5 -19 23.9 6.7
11 5 -19 12.5 6.9
11 5 -19 17.4 8.2
11 -5 19 -1.6 6.2
11 -6 -19 7.1 5.8
-11 6 -19 -0.3 3.3
11 -6 19 -4.1 6.6
-11 -6 -19 -6 5.2
11 6 -19 -4.1 5.4
11 -7 -19 3.4 6.3
-11 7 -19 -3.7 2.8
11 7 -19 4.4 5.2
11 -7 19 2.3 6.8
11 7 -19 -2.9 5.7
11 7 -19 12.3 7.4
12 0 -19 3.3 4.8
12 0 19 -2.6 4.4
-12 0 19 -8.5 3.3
12 -1 -19 -4.8 3.1
12 1 19 -3 2.7
12 -1 19 4 6
12 1 -19 1.8 4.1
-12 1 19 -6 3
12 -2 -19 65.19 12.1
12 -2 19 108.79 17
12 2 -19 71.89 13.8
12 2 -19 104.09 20.7
12 -3 -19 395.66 39.2
12 -3 19 609.04 48.8
12 3 -19 526.15 48.5
-12 -3 -19 427.56 54.79
12 3 -19 417.46 43.1
12 -4 -19 9.7 4.1
12 -4 -19 11.6 8
12 4 -19 10.9 6.7
12 4 -19 5.5 6.3
12 -5 -19 1.4 2.2
12 -5 -19 9.6 7.5
12 -5 19 7.1 8.4
12 5 -19 3.3 6.5
12 5 -19 -0.3 4.1
-12 6 -19 -1.5 3
12 -6 -19 3.6 6.1
12 6 -19 0.1 5.7
12 6 -19 -0.2 4.5
12 -6 19 1.8 6.8
12 -7 -19 86.59 17.3
-12 7 -19 85.39 12.2
12 7 -19 73.99 15.9
12 -7 19 95.29 21.3
12 7 -19 103.39 15.1
13 0 19 -2.3 3.8
13 0 -19 0.1 4.1
13 0 -19 0.7 6.1
13 1 19 0.6 3.6
13 -1 -19 -0.3 3.6
13 -1 19 -5.6 4.5
13 1 -19 5.5 6
13 1 -19 6 5.1
-13 1 19 -4.7 3.7
13 -2 -19 121.19 16.9
13 -2 -19 172.78 24.1
13 2 -19 179.18 21
13 -2 19 199.58 23.2
13 2 -19 149.88 22.9
13 -3 -19 1.9 5.1
13 3 19 4.1 2.9
13 -3 -19 -2.3 3.1
13 3 -19 2.8 5.5
13 -3 19 -3.8 5.7
13 3 -19 3.9 5.3
13 -4 -19 3.9 3.3
13 -4 -19 -0.4 7.9
13 4 -19 9.7 7.7
13 4 -19 5.1 7
13 -4 19 6.6 7.2
13 -5 -19 9.9 8
13 -5 -19 -1.8 2.6
13 5 -19 0.3 6
13 -5 19 0.7 7.3
13 5 -19 5 5.8
13 -6 -19 26.4 11.3
-13 6 -19 20.2 6.4
13 -6 19 33.1 13.3
13 6 -19 16.3 9.9
13 6 -19 28.9 8.9
14 0 -19 1.7 4.3
14 0 19 0.5 5.1
14 0 -19 -0.4 5.5
14 -1 -19 249.88 27.9
14 -1 -19 284.97 34.6
14 1 19 367.76 30.4
14 1 -19 236.68 28.9
-14 1 19 306.47 27.3
14 1 -19 264.47 33.8
14 -1 19 292.87 31.7
14 -2 -19 318.17 36.6
14 -2 19 309.67 33.7
14 2 -19 294.77 36.1
14 2 -19 258.97 31.3
-14 2 19 368.16 31.2
14 3 19 5.4 3.3
14 -3 -19 -1.9 3.7
14 -3 -19 -5.7 5.5
14 3 -19 7.7 5.9
14 3 -19 -8.7 2.9
14 -4 -19 6.7 3.8
14 -4 -19 3 7.7
14 4 -19 8.3 8.4
14 -4 19 2.2 5.9
14 4 -19 5 4.9
14 -5 -19 106.89 21
14 -5 -19 78.29 10.1
14 -5 19 139.79 21.3
14 5 -19 95.09 18.3
14 5 -19 84.19 16.3
14 -6 -19 29.9 12.9
14 -6 19 34.4 13.7
14 6 -19 24.7 9.8
14 6 -19 14.9 8.1
15 0 -19 -2.7 5.8
15 0 -19 2 3.5
15 0 19 -2.3 4.8
15 1 19 -1.3 4.7
15 -1 -19 7.6 5.9
15 -1 -19 11.6 8.7
-15 1 19 1.6 4.2
15 -1 19 0.1 5.5
15 1 -19 -1.5 4.9
15 1 -19 5.8 4.9
15 -2 -19 23.4 11
15 -2 -19 10.9 6.7
15 2 19 24.9 7.2
15 -2 19 17.5 9.6
-15 2 19 14.3 5.9
15 2 -19 25.6 10.9
15 2 -19 12.8 8
15 -3 -19 64.29 17
15 -3 -19 57.49 11.3
15 -3 19 55.89 14.9
15 3 -19 62.29 13.8
15 -4 -19 -3.7 3
15 -4 -19 10.9 8.4
15 4 -19 6.9 7
15 4 -19 -1.1 4.5
15 -4 19 -4.7 6.3
15 -5 -19 5.3 5
15 5 -19 -5.3 6.6
15 5 -19 1.4 5.9
15 -5 19 5.4 7.7
15 -6 -19 8.3 9.1
15 -6 19 6.2 8.6
15 6 -19 18 7.3
16 0 -19 14 10.7
16 1 19 24.8 8.2
16 -1 -19 13.8 6.3
16 -1 -19 18.3 12.1
16 1 -19 12 6.8
16 -1 19 12.6 8.5
16 2 19 -1.3 4.1
16 -2 -19 -7.4 3
16 -2 19 1.4 6
16 2 -19 -8.5 3.4
16 2 -19 5.3 7.5
16 -3 -19 -2.1 3.2
16 3 -19 2 6.1
16 -3 19 1.7 5.5
16 3 -19 3.8 6.8
16 -4 -19 22.4 10.3
16 -4 -19 26.9 7.1
16 -4 19 22.7 11.3
16 4 -19 38.1 11.9
16 4 -19 28.6 11.3
16 -5 -19 24.3 10.4
16 5 -19 4.6 6.9
16 -5 19 6.7 9.3
16 5 -19 5.6 7.6
17 0 19 -5.1 5.5
17 0 -19 -3.3 6.2
17 -1 -19 8 7.4
17 -1 -19 3.2 3.3
17 1 19 5.5 5.5
17 -1 19 8.7 7.6
17 1 -19 0.9 5.2
17 1 -19 -1.2 5.3
17 -2 -19 10.1 9.8
17 -2 -19 7.6 5.7
17 2 19 9.3 5.5
17 2 -19 9.8 6.5
17 2 -19 19.8 9.9
17 -2 19 12.6 8.1
17 -3 -19 -1.2 3.8
17 -3 -19 0 7.3
17 3 19 1.2 3.8
17 3 -19 1.3 5.3
17 3 -19 15.4 9.5
17 -3 19 -5.5 5.6
-17 3 19 -2.2 3.5
17 -4 -19 11.9 5
17 -4 -19 14.7 9.9
17 4 -19 -7.3 6.6
17 -4 19 8.8 8.2
17 4 -19 3.7 6.7
17 -5 -19 -5.2 8.3
17 5 -19 -2.3 5.1
17 -5 19 8.3 8.2
17 5 -19 -12.7 5.4
18 0 19 -3.6 5.1
18 0 -19 1 6.4
18 -1 -19 79.19 21
18 1 19 92.49 14.2
18 -1 -19 61.19 13.3
18 -1 19 78.99 17.5
18 1 -19 61.19 14.1
18 1 -19 58.79 17.6
18 -2 -19 186.88 29
18 2 19 240.48 23.7
18 -2 -19 184.58 23.4
18 -2 19 245.28 29.4
18 2 -19 223.68 30.6
18 -3 -19 170.18 21.4
18 -3 -19 187.98 28.4
18 -3 19 233.48 28.7
-18 3 19 248.68 21.8
18 3 -19 196.18 26.2
18 3 -19 190.68 29.3
18 -4 -19 13.7 5.4
18 -4 -19 14.7 9.9
18 4 -19 -3.2 7.1
18 -4 19 18.5 10.1
18 4 -19 16.5 9.9
18 -5 -19 32.9 13
18 5 -19 25.3 11
18 -5 19 37.4 12.1
18 5 -19 24.4 11.5
19 0 -19 -0.4 5.1
19 0 -19 0.3 7.4
19 1 19 16.7 7.5
19 -1 -19 13 6.5
19 -1 -19 17.7 11.4
19 1 -19 11.9 8.1
19 1 -19 -2.2 5.6
19 -1 19 24 8.9
19 2 19 39 9.5
19 -2 -19 20.5 7.2
19 -2 -19 25.7 13.6
19 2 -19 21.5 8.9
19 -2 19 28.4 11.8
19 2 -19 17 10.4
19 3 19 32.2 7.7
19 -3 -19 19.2 11.1
19 -3 -19 29.1 8.7
19 -3 19 40.1 13.6
19 3 -19 37.9 11.9
19 3 -19 23.4 11.7
19 -4 -19 6.2 4.4
19 -4 -19 -2.7 6.9
19 4 -19 -0.9 5.7
19 -4 19 13.9 9.2
19 4 -19 1.3 6.4
20 0 -19 7.8 5.7
20 0 -19 3.7 8.3
20 0 19 -3.5 5.1
20 -1 -19 343.27 43.2
20 -1 -19 329.87 35.1
20 -1 19 404.76 39.7
20 1 -19 374.56 43.9
20 1 -19 307.77 36.6
20 -2 -19 38.9 10
20 2 19 47.4 10.9
20 -2 -19 38 15.6
20 2 -19 61.89 14.8
20 2 -19 36.6 14
20 -2 19 27.6 11.5
20 -3 -19 9 9.6
20 3 19 12.1 5.8
20 -3 -19 18 7.3
20 -3 19 10.3 8.2
20 3 -19 10.9 9.5
20 3 -19 11.5 9
20 4 -19 15.6 9.9
21 0 -19 -9.9 5.3
21 0 -19 -4.3 3.4
21 0 19 9.9 7.6
21 -1 -19 47.2 17.7
21 1 19 53.09 13
21 -1 -19 30.9 10.2
21 -1 19 32.7 11.3
21 1 -19 48.6 15.7
21 1 -19 30.2 10.1
21 -2 -19 6.3 4.4
21 -2 -19 6.2 8.9
21 2 19 3.8 6.1
21 -2 19 -3.8 6.7
21 2 -19 2 4.9
21 2 -19 6.3 10.6
21 -3 -19 46.9 11
21 3 19 53.99 9.8
21 -3 -19 37 15.3
21 3 -19 59.59 16.5
21 -3 19 74.19 18.2
21 3 -19 49.8 13.5
22 0 -19 3.5 9.3
22 0 -19 -3.6 5.7
22 0 19 4.4 6.3
22 -1 -19 22 12.1
22 1 19 22.5 9.6
22 -1 -19 21.4 9.1
22 -1 19 33.9 13.2
22 1 -19 28.8 10.1
22 1 -19 0.5 8
22 2 19 277.97 27.4
22 -2 -19 175.08 25.1
22 -2 -19 258.57 36
22 2 -19 220.78 28.9
22 2 -19 220.78 32.6
22 -2 19 263.17 32.6
0 0 20 1.5 4.1
0 0 -20 0.2 3
0 0 -20 -0.9 1.4
0 1 -20 -0.4 2
0 -1 -20 -1.6 1.7
0 1 -20 0.6 3.8
0 -1 20 1 3.6
0 -1 -20 -1.9 2.2
0 2 -20 66.19 8.7
0 -2 -20 60.49 8.8
0 -2 -20 73.49 8
0 2 -20 71.49 11.5
0 3 -20 0.4 2.4
0 3 -20 2.6 4.6
0 -3 20 2.2 5.4
0 -3 -20 -3.2 1.9
0 -3 -20 -0.7 1.5
0 4 -20 33.6 7.3
0 4 -20 30.2 9.1
0 -4 -20 40.3 5.3
0 -4 -20 35.8 6.4
0 -4 20 85.09 15.4
0 -5 -20 -1.7 1.4
0 5 -20 -0.6 5.5
0 5 -20 -3 2.5
0 -5 -20 -4 2.3
0 -5 20 -9.8 5.3
0 6 -20 6.3 6.5
0 -6 -20 -5.2 2.2
0 -6 20 -6.4 5.8
0 -6 -20 -0.6 1.6
0 7 -20 7.6 7.6
0 -7 20 1.5 6.3
0 -7 -20 1.7 1.5
0 -7 -20 -2.7 3.1
0 -7 -20 -2.1 1.8
0 7 -20 -6.3 2.5
0 8 -20 117.79 18.8
0 8 -20 110.89 15.7
0 -8 -20 133.29 13.2
-1 0 -20 20.4 4.5
1 0 20 22.6 6.8
-1 0 20 24.2 6.7
-1 0 -20 13.1 5.4
1 0 -20 20.1 6.1
1 0 -20 16 4.2
1 -1 -20 5 3.7
-1 1 -20 3.9 3
-1 -1 20 16.3 6.7
1 -1 -20 4.9 2.5
-1 1 -20 11.9 5.6
1 1 -20 8.9 3.7
1 1 -20 8.7 4.8
-1 -1 -20 7.1 2.8
1 -1 20 11.7 5.5
-1 -1 -20 9.9 4.2
1 -2 -20 83.09 10.6
1 -2 -20 101.19 9.9
-1 2 -20 75.69 12.7
-1 2 -20 95.39 10.5
-1 -2 -20 86.69 11
1 2 -20 85.79 10.6
1 2 -20 101.39 13.3
-1 -3 20 14.6 7.5
-1 3 -20 11.9 5.9
1 -3 -20 6.6 2.8
1 -3 -20 9.2 3.7
-1 3 -20 8.6 3.7
-1 -3 -20 5 3.4
1 3 -20 2.1 3.8
1 3 -20 4.5 3.5
1 -3 20 12 7.3
1 -4 -20 92.39 9
-1 4 -20 64.19 13.9
1 -4 -20 92.89 9.7
-1 4 -20 75.99 10.1
1 4 -20 77.59 14.7
-1 -4 -20 75.89 9.4
1 4 -20 61.29 10.9
-1 5 -20 0.9 6.1
-1 5 -20 0 2.8
1 -5 -20 1.7 2.7
-1 -5 20 8.2 6.8
1 -5 20 -4.7 5.2
-1 -5 -20 1.3 2
1 5 -20 -5.6 5.1
1 5 -20 -1 2.4
-1 -5 -20 -3.2 2.4
1 -6 -20 -2.8 2.4
1 -6 -20 -3.1 1.2
-1 -6 20 1.8 10.2
-1 6 -20 4.9 6.7
1 6 -20 4.3 6.5
1 6 -20 -4.1 3.1
1 -6 20 -10.9 6.6
-1 -6 -20 -1.3 2.5
-1 -6 -20 2.5 2
-1 7 -20 62.29 13.4
1 -7 -20 43.8 4.3
1 -7 -20 47.2 7
1 -7 -20 31.6 3.9
-1 7 -20 21.1 6.9
-1 -7 20 87.29 15.9
-1 -7 -20 39.9 5.7
-1 -7 -20 39.8 7.2
1 7 -20 33.8 8.6
1 -7 20 88.99 16.4
1 7 -20 35.2 10.5
-1 -7 -20 39.9 4.9
-1 8 -20 13.7 4.7
1 -8 -20 7 4.5
-1 8 -20 1.5 9
-1 -8 20 29.5 10.8
1 8 -20 9 6.3
1 8 -20 33.6 9.8
-1 -8 -20 13.9 4.8
1 -8 20 19.7 10.5
1 8 -20 15.3 6.4
2 0 -20 75.09 9.1
-2 0 -20 72.29 14.6
2 0 -20 73.79 11.6
2 -1 -20 185.38 18.1
-2 1 -20 202.28 17.4
2 -1 -20 201.88 17.4
-2 1 -20 170.38 20.4
2 1 -20 181.28 17.6
-2 -1 -20 164.98 18.8
2 1 -20 180.98 19.2
2 -2 -20 100.19 10.8
-2 2 -20 85.09 10.3
2 -2 -20 93.89 9.9
-2 2 -20 107.59 14.7
2 2 -20 92.49 10.9
-2 -2 -20 77.99 11
2 2 -20 77.59 11.9
2 -3 -20 104.39 10.7
-2 3 -20 100.89 11.1
-2 3 -20 75.29 15.3
2 -3 -20 86.49 9.6
2 3 -20 84.99 13.2
-2 -3 -20 89.39 11.1
2 3 -20 81.59 11.1
-2 4 -20 91.79 15.6
2 -4 -20 116.89 11.1
2 -4 -20 126.29 11.9
-2 4 -20 114.29 12.6
-2 -4 -20 90.99 11.4
2 4 -20 95.99 14.8
2 4 -20 112.29 13.3
-2 -5 20 21.2 8.4
-2 5 -20 19.7 7.8
-2 5 -20 8.1 3.9
2 -5 -20 7.3 2.5
2 -5 -20 13.6 4.4
-2 -5 -20 6 3.6
2 5 -20 20.4 7.7
2 5 -20 2.8 3.9
2 -5 20 2.5 6.7
-2 6 -20 32.8 10.1
2 -6 -20 13.8 4.2
-2 -6 20 16 8.6
2 -6 -20 10.6 2.8
-2 -6 -20 9.8 3.1
-2 -6 -20 12.1 4.4
2 6 -20 5.3 7
2 6 -20 7.2 4.9
2 -7 -20 140.29 14
-2 7 -20 119.99 15.8
-2 7 -20 139.39 21.1
-2 -7 -20 154.88 12.4
-2 -7 -20 126.39 14
2 7 -20 152.78 19.5
2 7 -20 123.79 16.6
-2 8 -20 10.5 8.8
-2 8 -20 -0.3 4.4
-2 -8 20 -6.5 6
-2 -8 -20 0.5 3.9
2 -8 20 6.1 7.5
2 8 -20 -1.1 4.1
2 8 -20 -3 5.1
3 0 -20 100.39 11.4
3 1 20 -2.2 2.6
-3 -1 20 -1.8 2.9
3 -1 -20 -4.1 1.9
3 -1 -20 1.4 2.3
-3 1 -20 0.5 3.7
3 1 -20 -0.4 2.5
-3 -1 -20 -1.9 3.5
3 1 -20 1 1.8
3 -1 20 2.4 4.1
3 -2 -20 58.59 7.9
3 -2 -20 65.19 8.5
-3 2 -20 74.49 14.6
-3 2 -20 75.09 8.7
3 2 -20 71.49 9.4
3 2 -20 64.49 9.9
-3 -2 -20 44.2 9.6
-3 3 -20 37.3 6.7
3 -3 -20 45.2 7
-3 -3 20 64.69 12.6
-3 3 -20 37.4 10.8
3 -3 -20 32.5 6.1
3 3 -20 36.4 8.9
3 3 -20 48.7 8.8
-3 -3 -20 41.1 8.1
3 -3 20 65.69 12.9
3 -4 -20 74.89 8.9
-3 4 -20 74.59 9.6
3 -4 -20 81.89 8.7
-3 4 -20 76.59 15.5
3 4 -20 58.99 10.6
-3 -4 -20 64.29 9.1
3 4 -20 63.59 12.8
-3 5 -20 7.3 3.8
3 -5 -20 2.8 3.3
-3 -5 20 14.6 7.2
-3 5 -20 2.1 5.7
3 -5 -20 4.7 2.3
3 5 -20 9.6 4.8
-3 -5 -20 1.8 3.1
3 5 -20 11 5.8
3 -5 20 14.4 8.2
3 -6 -20 24.5 5.6
3 -6 -20 22.3 4.1
-3 6 -20 30.2 11
-3 6 -20 31.7 9.2
-3 -6 -20 13.1 4.6
-3 -6 -20 23.5 6.4
3 6 -20 25.1 7.4
3 -6 20 38.7 13.8
3 6 -20 25.9 8.8
-3 7 -20 15 6
-3 -7 20 61.19 13.6
-3 7 -20 37.8 11.6
-3 -7 -20 27.7 5.6
3 -7 20 57.49 14.4
3 7 -20 22.6 7.5
3 7 -20 31.1 8.9
-3 -7 -20 19.3 5.2
3 -8 -20 48.2 8.1
-3 8 -20 64.89 14.9
-3 -8 20 59.09 13.8
-3 8 -20 29.3 8.6
-3 -8 -20 42.2 5.5
3 -8 20 104.59 18.5
3 8 -20 36.3 8.9
3 8 -20 37.5 9.9
-3 -8 -20 52.59 11.6
-3 -8 -20 46.6 4.9
-4 0 -20 279.37 33
4 0 -20 336.87 29
4 0 -20 328.87 28
4 -1 -20 547.65 42.1
-4 1 -20 478.75 46.2
4 1 -20 576.94 43.2
4 1 -20 506.35 45.6
-4 -1 -20 461.05 44.2
-4 2 -20 142.19 20.2
4 -2 -20 178.58 16.2
-4 2 -20 169.18 16
4 -2 -20 163.78 16.3
4 2 -20 166.28 18
4 2 -20 171.58 17.5
-4 -2 -20 151.48 17.7
-4 -3 20 4 5.3
4 -3 -20 0.3 1.9
4 -3 -20 4.1 3.3
-4 3 -20 1.4 2.1
-4 3 -20 1.9 5.5
4 3 -20 7.6 4.3
-4 -3 -20 3.4 3.3
4 -3 20 -0.3 4.6
4 3 -20 -0.4 3
-4 4 -20 102.89 11.9
4 -4 -20 114.29 11.8
-4 4 -20 121.19 17.5
4 -4 -20 102.49 11
4 4 -20 109.79 13.4
-4 -4 -20 99.89 12.1
4 4 -20 90.79 14.1
4 -5 -20 678.93 47.1
-4 5 -20 587.44 47.7
4 -5 -20 600.04 45.5
4 5 -20 471.95 49.7
-4 -5 -20 542.15 47.4
4 5 -20 583.14 49.7
4 -6 -20 10.8 2.8
-4 -6 20 14.1 9.1
-4 -6 -20 6.9 4
4 -6 20 25.7 10.4
4 6 -20 1.8 5.8
4 6 -20 15.6 6.6
-4 -6 -20 16.9 5.3
4 -7 -20 0 3.3
-4 7 -20 6.9 8.5
-4 -7 20 4.6 6.2
-4 7 -20 2.7 3.8
-4 -7 -20 2.2 2.9
4 7 -20 17 7.3
4 7 -20 -5.9 4.2
4 7 -20 6.4 4.9
4 -7 20 -2.8 7.3
-4 -7 -20 9.3 4
5 0 -20 48.1 8.5
-5 0 -20 30.5 9.3
5 0 -20 43.4 8.4
5 0 20 63.29 11
5 -1 -20 52.49 8.5
5 -1 -20 70.99 9.3
5 1 -20 77.79 10.2
5 -2 -20 32.4 6.3
-5 2 -20 21 9.2
-5 -2 20 63.19 11.9
5 -2 20 69.99 13.1
5 2 -20 35.7 7.9
-5 -2 -20 28 7.6
5 2 -20 44.5 9
5 -3 -20 19.7 4.8
-5 3 -20 34.9 11.3
-5 3 -20 24.4 5.5
-5 -3 20 47.5 11
-5 -3 -20 19.7 6.8
5 -3 20 55.99 13
5 3 -20 20.7 6.7
5 3 -20 30.7 7.8
5 -4 -20 36.3 6.4
-5 4 -20 49.3 8
-5 -4 20 63.39 13.7
5 4 -20 31.8 8.5
5 -4 20 64.69 14
5 4 -20 42.8 9.7
-5 -4 -20 36.8 8.4
5 -5 -20 12 3.5
-5 5 -20 16.9 5.1
-5 -5 20 20 8.1
-5 -5 -20 9.9 4.5
5 -5 20 16.9 9.2
5 5 -20 7.6 5.1
5 5 -20 5.4 4.6
-5 6 -20 76.19 15.5
5 -6 -20 80.39 8
5 -6 -20 83.19 10.4
5 -6 20 140.19 19.2
5 6 -20 75.89 14.7
-5 -6 -20 80.29 11.2
-5 -6 -20 80.19 12.9
5 6 -20 99.29 15.9
-5 7 -20 24.6 6.5
-5 -7 20 57.49 13.5
5 -7 -20 21.4 6.1
5 -7 20 62.09 15.6
5 7 -20 24.8 8.7
5 7 -20 28.1 8.5
-5 -7 -20 36.1 6.9
5 7 -20 21.6 7.9
6 0 -20 97.59 11.8
6 0 -20 91.99 11.8
-6 0 -20 104.99 15.3
6 1 20 109.59 12.2
6 -1 -20 78.09 10.3
6 -1 -20 65.49 10
6 -1 20 99.69 14.1
6 1 -20 78.79 11
-6 -1 -20 58.79 13
6 -2 -20 23.6 5.7
-6 2 -20 24.9 11
6 -2 -20 21.3 5.7
6 2 -20 16.7 5.6
6 2 -20 17.6 6.3
6 -2 20 37.7 10.5
-6 -3 20 4.7 5.9
6 -3 -20 2.8 3.1
-6 3 -20 6.7 7.2
6 -3 -20 2.3 2.4
6 3 -20 5.2 4.4
6 -3 20 1.8 5.6
-6 -3 -20 6.7 4.3
6 3 -20 2.8 3.9
-6 4 -20 1.3 2.4
6 -4 -20 0.5 3.2
-6 -4 20 2.9 5.4
6 -4 -20 0.5 2.6
6 4 -20 2.3 4.7
6 -4 20 14.2 8.1
6 4 -20 0.6 4
-6 -4 -20 1.1 4.2
6 -5 -20 93.99 10.6
-6 5 -20 116.69 12.9
6 -5 -20 115.79 12.2
6 5 -20 86.79 14
6 -5 20 156.48 20.6
6 5 -20 116.79 19.1
-6 -5 -20 91.09 13.2
6 -6 -20 24.7 3.4
-6 -6 20 50.49 12.5
6 -6 -20 29.4 6.6
-6 6 -20 25.8 6.7
6 6 -20 17.4 7.2
-6 -6 -20 18.6 6.3
6 6 -20 31.8 7.7
-6 -6 -20 22.5 6.8
6 -6 20 58.69 14.9
-6 -7 20 113.99 16.8
-6 7 -20 63.29 11.2
6 -7 -20 81.69 10.3
6 7 -20 64.99 13.5
6 -7 20 112.29 20.2
6 7 -20 57.79 11.5
-6 -7 -20 84.79 11.3
6 7 -20 66.19 13.8
7 0 -20 585.94 47.4
-7 0 -20 486.75 50.49
7 0 -20 611.54 47
7 -1 -20 0.8 2.9
7 -1 -20 0.7 3.2
7 1 20 6.5 4.3
-7 -1 -20 7.2 4.3
7 1 -20 -1.1 2.9
7 -1 20 1.7 4.9
7 -2 -20 -3 1.6
7 -2 -20 2.7 3.2
7 2 -20 -2.3 3.2
-7 -2 -20 1.1 3.7
7 -2 20 2.7 5.5
7 2 -20 -0.7 2.8
7 -3 -20 -4.8 2.8
7 -3 -20 -1.9 2
7 3 -20 1.8 3.7
7 3 -20 0 3.7
7 -3 20 -0.2 4.8
-7 4 -20 30.7 6.6
7 -4 -20 26.7 6.4
7 -4 -20 18.5 5.1
-7 -4 20 39.6 10.8
7 4 -20 15.9 7
7 -4 20 39.8 11.9
7 -5 -20 -2.4 1.7
-7 5 -20 0.3 2.7
7 -5 -20 -2.2 3.6
-7 -5 20 -5.9 4.1
7 5 -20 4 4.3
-7 -5 -20 -5.3 6
7 -5 20 -8.6 7
-7 6 -20 13.3 5.4
7 -6 -20 14.6 2.2
-7 -6 20 21.3 8.9
7 -6 -20 9.9 5.7
7 6 -20 22.7 6.7
7 6 -20 29.5 9.4
-7 -6 -20 9.9 5.7
7 6 -20 15.3 7.5
7 -6 20 23 10.4
-7 -7 20 -2 5.2
-7 7 -20 2.6 3.7
7 7 -20 5.4 5
7 7 -20 4 6.8
7 7 -20 9.6 6.7
7 -7 20 -0.5 7.3
8 0 -20 398.16 34.1
-8 0 -20 349.27 38.1
8 0 -20 398.96 34.7
8 -1 -20 59.99 10.9
8 1 20 78.59 11.4
8 -1 -20 58.59 9.3
8 1 -20 66.09 11.9
-8 -1 -20 61.49 14
8 -1 20 91.09 13.8
8 -2 -20 177.18 17
8 -2 -20 142.19 16.5
-8 -2 -20 144.49 19.2
8 -2 20 222.18 22.8
8 2 -20 138.69 17.9
8 2 -20 155.48 19.2
8 -3 -20 0.8 2.7
8 3 -20 2 4.2
-8 -3 -20 6.2 5
8 -3 20 4.5 6.4
8 -4 -20 32.5 7.6
8 -4 -20 24.3 5.7
8 4 -20 39 10.2
-8 -4 -20 29.5 8.1
8 -4 20 58.69 14.1
8 -5 -20 96.29 10.7
8 -5 -20 108.19 13.1
-8 5 -20 119.29 12.9
8 -5 20 116.69 24.4
-8 -5 -20 89.89 14
8 5 -20 92.59 16.4
-8 -6 20 24.4 9
-8 6 -20 17.7 5.6
8 6 -20 5.9 6.4
-8 -6 -20 24.5 6.7
8 6 -20 5.3 5.5
-8 -6 -20 2.5 5.9
8 -6 20 16.9 9.7
-8 7 -20 95.99 12.7
-8 -7 20 151.08 19.1
8 7 -20 94.59 17.4
8 7 -20 101.89 16.3
-8 -7 -20 108.89 14.2
8 7 -20 67.79 13.7
-9 0 -20 466.45 48.1
9 0 -20 543.75 44.3
9 1 20 1.7 4.3
9 -1 -20 4.9 3.8
9 -1 -20 2.3 3.5
9 1 -20 -4.2 3.3
-9 -1 -20 4.3 5.1
9 -1 20 11.3 6.7
9 -2 -20 -2.1 3.2
9 2 20 0.2 2.9
9 -2 -20 2 3.3
9 -2 20 3.8 5.7
9 2 -20 4.5 5
-9 -2 -20 3 4.9
9 -3 -20 10.4 5.3
9 -3 -20 7.7 4.4
9 3 -20 4.1 4.9
9 -3 20 0.7 6.2
-9 -3 -20 4.6 5
9 -4 -20 2.2 3.2
-9 -4 -20 6.4 4.4
9 4 -20 6.8 5.5
9 -4 20 2.7 7.2
-9 5 -20 35.9 9
9 -5 -20 37.1 6.7
9 5 -20 57.09 12.5
9 -5 20 89.19 17.9
9 5 -20 57.19 12.9
-9 -5 -20 56.29 11.2
-9 6 -20 5.5 3.8
9 6 -20 0.5 4
9 6 -20 6.1 5.8
9 -6 20 9.7 8.8
-9 -6 -20 12.2 5.4
9 -7 -20 -7 4.9
-9 7 -20 2.1 3.5
-9 -7 -20 8.2 5.5
9 7 -20 -2.2 4.6
9 7 -20 8.1 7.1
9 7 -20 8.9 7.8
9 -7 20 -12.5 6.2
10 0 -20 753.12 62.59
10 -1 -20 -3.2 2.6
10 1 20 -1.2 4.5
10 1 -20 -6.3 2.5
-10 -1 -20 9.8 6
10 -1 20 2.8 5.6
10 -2 -20 87.39 12.2
10 -2 20 119.29 17.2
-10 -2 -20 87.69 17.3
10 2 -20 97.59 16
10 -3 -20 5.4 3.8
10 -3 20 13 9.6
-10 -3 -20 18.5 7
10 3 -20 16.5 6.5
10 -4 20 2.4 6.2
-10 -4 -20 7.8 5.3
10 4 -20 8 5.7
-10 5 -20 135.09 15.2
10 -5 -20 109.09 12.5
10 5 -20 114.09 19.3
10 5 -20 137.29 19.4
-10 -5 -20 117.69 16.5
-10 -5 -20 146.09 18.7
10 -5 20 182.08 23.3
10 -6 -20 41.2 11.6
-10 6 -20 30.3 7.1
10 6 -20 32.1 9.9
-10 -6 -20 27.7 8.7
10 6 -20 28.1 10.3
10 -6 20 50.39 15.5
10 -7 -20 -0.6 7
-10 7 -20 -0.2 3.6
10 7 -20 1.8 6.3
10 7 -20 -0.6 7.8
10 7 -20 -2.7 4.2
10 -7 20 6.1 7.9
11 0 -20 315.07 30.7
11 -1 -20 5.3 4.7
11 1 20 11.6 6.5
11 -1 20 13.3 8.8
11 1 -20 9.9 5.1
11 -2 -20 146.89 17.2
11 2 -20 157.88 19.2
11 -3 -20 -5.9 2.4
11 3 20 2.1 2.3
11 3 -20 -5 3.7
11 -3 20 0.8 5.9
11 -4 -20 -1.5 2.6
11 4 -20 1.2 5.2
11 4 -20 -5.1 4.3
11 -4 20 2.9 7.8
11 -5 -20 18.5 4.6
11 5 -20 14.5 7.6
11 5 -20 30.2 11.2
11 -5 20 32.7 12.6
-11 6 -20 76.89 11.8
11 -6 -20 66.99 15.4
11 -6 20 111.29 21
11 6 -20 59.59 14.5
11 6 -20 50.69 12
-11 7 -20 -1.8 3.7
11 -7 -20 9.2 7.3
11 7 -20 8.9 12.9
11 -7 20 -0.6 7
11 7 -20 2.7 4.6
11 7 -20 0.6 6.4
12 0 -20 266.47 30.5
12 0 20 348.37 32.5
-12 0 20 355.96 30.2
12 -1 -20 201.28 23.7
12 1 -20 231.98 25.6
12 -1 20 286.67 28.2
12 -2 -20 29.7 7.8
12 2 20 36.9 7.6
12 -2 20 22.6 10.4
12 2 -20 14.8 7.6
12 3 20 39.5 5.8
12 -3 -20 37.2 8.1
12 -3 20 38.5 13
12 3 -20 42.1 13.1
12 -4 -20 123.59 15.1
12 4 -20 143.99 20
12 4 -20 159.08 22.3
12 -4 20 202.88 24.5
12 -5 -20 435.86 43.1
12 -5 -20 322.47 32
12 -5 20 495.75 45.3
12 5 -20 382.36 39.6
12 5 -20 434.06 42.3
12 -6 -20 41.9 13
-12 6 -20 14.9 5.2
12 6 -20 16.4 8.1
12 6 -20 33.7 10.3
12 -6 20 30.3 12.4
13 0 20 15.5 7.7
13 0 -20 8 5.9
13 1 20 11.6 5.9
13 -1 -20 5.1 4.7
-13 1 20 6.1 5
13 1 -20 7.7 7.3
13 -1 20 8.6 7.5
13 1 -20 9.3 5.9
13 -2 -20 23.5 7.7
13 2 20 46.4 8.8
13 -2 20 41.2 12.3
13 2 -20 24.5 10
13 2 -20 23.4 9.3
13 -3 -20 29.8 11.1
13 3 20 28.7 5.2
13 -3 -20 14.4 6.2
13 3 -20 20.2 9.6
13 3 -20 13.3 6.8
13 -4 -20 30 12
13 -4 -20 23.4 6.4
13 -4 20 29.3 12.3
13 4 -20 23.2 8.5
13 4 -20 27.2 11.4
13 -5 -20 133.29 21.1
13 -5 -20 105.89 12.2
13 5 -20 121.89 20.5
13 -5 20 150.48 23.3
13 -6 -20 6.6 7.6
-13 6 -20 1.9 3.4
13 6 -20 8.5 7.1
13 -6 20 -3.5 6.9
14 0 20 375.66 34.5
14 0 -20 343.47 39
14 0 -20 272.97 31.5
14 1 20 116.69 14.8
14 -1 -20 84.09 15.1
14 -1 -20 79.89 18.9
14 1 -20 80.09 15.6
14 1 -20 72.39 18.1
14 -1 20 96.39 18.1
-14 1 20 108.79 13.1
14 -2 -20 117.19 16.4
14 -2 -20 161.78 23.7
14 -2 20 155.58 21.9
14 2 -20 141.39 22.2
14 2 -20 141.99 32.7
14 3 20 51.29 10.9
14 -3 -20 38.4 13.4
14 -3 -20 30.1 8.2
14 -3 20 43.6 13.9
14 3 -20 53.39 12.6
14 -4 -20 4.4 4.5
14 -4 -20 4.2 6.6
14 4 -20 25.7 9.3
14 -4 20 9.1 9
14 4 -20 8.9 9.4
14 -5 -20 96.89 22.7
14 -5 -20 52.39 11.8
14 5 -20 75.39 16.3
14 5 -20 76.69 15.9
14 -5 20 109.29 21.7
-14 6 -20 91.49 12.5
14 -6 -20 83.19 18.9
14 -6 20 121.19 23
14 6 -20 68.39 15.6
14 6 -20 86.79 17
15 0 20 139.29 18
15 0 -20 110.19 25.7
15 0 -20 95.29 16.9
15 -1 -20 64.19 16.9
15 -1 -20 32 8.7
15 1 20 54.19 11.3
15 -1 20 34.8 11.7
15 1 -20 43.1 11
15 -2 -20 56.89 12.2
15 -2 -20 80.39 18.2
15 2 20 97.09 12.4
15 -2 20 73.79 24.8
15 2 -20 70.69 18.5
15 2 -20 51.59 13.4
15 -3 -20 8.6 5.7
15 -3 -20 3.8 7
15 -3 20 12.1 8.8
15 3 -20 17.3 8.8
15 3 -20 13.9 8.6
15 -4 -20 32.9 7.8
15 4 -20 40.6 13
15 -4 20 56.29 15.7
15 4 -20 42 11.9
15 -5 -20 103.49 12.8
15 -5 -20 113.59 22.2
15 5 -20 120.49 21.4
15 5 -20 92.09 19.6
15 -5 20 164.08 24
16 0 -20 16 7.6
16 0 20 20 8.1
16 0 -20 20.7 10.3
16 -1 -20 14.8 5.9
16 1 20 26.1 8.1
16 -1 -20 33.4 13.3
16 1 -20 36.2 14.1
16 -1 20 22.1 10.1
16 1 -20 23.8 11
16 -2 -20 89.59 16.7
16 2 20 154.48 16.4
16 -2 -20 129.69 25.3
16 2 -20 110.89 23.2
-16 2 20 145.49 18.2
16 2 -20 110.89 20
16 -2 20 104.89 20.9
16 -3 -20 10.5 6.6
16 3 20 1.7 3.6
16 -3 -20 -6.1 3.3
16 3 -20 0.5 6.9
16 3 -20 2.4 5.5
16 -3 20 -5.2 6
16 -4 -20 9.7 4.3
16 -4 -20 8.8 7.9
16 4 -20 10.5 8.5
16 4 -20 16.8 9.3
16 -4 20 10.4 9.9
16 -5 -20 0.7 2.7
16 -5 -20 14.7 9
16 5 -20 -1.7 6.8
16 5 -20 1.2 5.4
16 -5 20 7.4 8.6
17 0 -20 123.99 25.1
17 0 20 163.68 20.2
17 0 -20 98.49 20.8
17 -1 -20 2.5 5.1
17 -1 -20 -5.9 6.5
17 1 20 6.3 6.3
17 -1 20 4.5 6.4
17 1 -20 10.3 5.9
17 1 -20 -4.7 6
17 -2 -20 137.89 18.4
17 -2 -20 143.59 27
17 2 -20 122.89 21.8
17 -2 20 153.98 23.2
17 2 -20 133.39 26
17 -3 -20 29.8 13.7
17 -3 -20 38.4 8.9
17 3 20 54.79 8.2
17 3 -20 22.1 11.9
17 -3 20 39.2 13.3
17 3 -20 39.3 12.2
17 -4 -20 20.5 11
17 -4 -20 14.3 5.8
17 -4 20 3.5 7
17 4 -20 4.2 7.7
17 4 -20 16 10.5
17 -5 -20 29.9 12.5
17 5 -20 12.9 9.1
17 5 -20 18.1 11
17 -5 20 38.9 13.7
18 0 -20 77.59 20.2
18 0 -20 92.79 16.7
18 -1 -20 14.5 10.7
18 -1 -20 5.4 5.4
18 1 20 13.9 8.2
18 1 -20 2.6 6.6
18 -1 20 4 6.4
18 1 -20 -0.6 7.8
18 -2 -20 11.9 9.6
18 -2 -20 3.9 5.1
18 2 20 10 6
18 2 -20 7.2 6.4
18 -2 20 10.7 8.5
18 2 -20 7.9 7.7
18 -3 -20 -6.7 3.9
18 3 20 -8.5 3.4
18 -3 -20 1 7.8
18 -3 20 14.7 8.2
18 3 -20 -0.3 6.3
18 3 -20 -4.4 8.3
18 -4 -20 2.6 9
18 -4 -20 16 5
18 4 -20 6.1 8.4
18 -4 20 2.6 8.4
18 4 -20 -6 5.1
19 0 20 8 8
19 0 -20 4.3 7.1
19 0 -20 13.3 6.1
19 -1 -20 7.4 6.3
19 -1 -20 4 8.1
19 1 20 16.3 8.4
19 -1 20 11.1 8.1
19 1 -20 12 8.1
19 1 -20 15.1 9.2
19 -2 -20 16.6 11.2
19 -2 -20 7.9 5.3
19 2 20 31 8.6
19 -2 20 25.5 10.6
19 2 -20 20.4 7.3
19 2 -20 13.8 10
19 3 20 15.7 5.4
19 -3 -20 -1.9 4.4
19 -3 -20 0.8 8
19 -3 20 16.4 9.2
19 3 -20 -0.6 5.7
19 3 -20 -13.8 5.6
19 -4 -20 6.4 8.9
19 -4 20 21.7 10.5
19 4 -20 18.9 10.6
19 4 -20 19.5 9.3
20 0 20 218.98 26.5
20 0 -20 161.88 23
20 0 -20 187.58 29.6
20 1 20 91.19 18.9
20 -1 -20 48 12.6
20 -1 -20 59.99 18.2
20 1 -20 51.59 13.3
20 -1 20 41.8 14.2
20 1 -20 55.29 17.3
20 -2 -20 79.59 18.9
20 -2 -20 105.79 23.8
20 2 -20 80.89 20.5
20 2 -20 92.79 18.7
20 -3 -20 25.5 11.6
20 -3 -20 26.7 8.6
20 3 20 27.3 7.3
20 3 -20 29.8 13
20 3 -20 18 9.7
20 -3 20 24.2 12
21 0 -20 -1.4 5.9
21 0 20 1.9 6.5
21 0 -20 2.6 8.8
21 1 20 27.3 9.9
21 -1 -20 31.7 12.4
21 -1 -20 7.8 6.8
21 -1 20 31.2 11.4
21 1 -20 26.2 12.9
21 1 -20 3.3 7
21 -2 -20 20.3 12
21 2 20 7.2 6.2
21 -2 -20 0.6 6
21 2 -20 -6.6 8.4
21 2 -20 2 6.7
21 -2 20 11 8.9
22 0 -20 109.29 25.9
22 0 20 144.59 21.7
22 0 -20 108.69 20.2
0 0 21 -1.1 3.5
0 0 -21 0 2.5
0 0 -21 1.4 1.9
0 -1 21 -2.8 2.5
0 1 -21 3 2.6
0 -1 -21 -1.4 2.7
0 -2 -21 27.5 5.3
0 2 -21 27.7 7.9
0 2 -21 23.5 5.5
0 -2 21 43.7 10.2
0 3 -21 -2.4 1.8
0 -3 -21 0.2 1.9
0 -3 -21 -1.3 2.2
0 3 -21 5.2 4.8
0 -3 21 -2.5 5
0 4 -21 262.37 24.7
0 -4 -21 279.17 22.5
0 -4 -21 251.47 23.4
0 5 -21 -1.3 3
0 -5 21 -0.1 5.8
0 -5 -21 -2.6 2.5
0 -5 -21 -0.6 1.6
0 -6 -21 8.5 4.2
0 -6 -21 5.3 3.2
0 -6 21 21.1 9.8
0 6 -21 8.6 5.3
0 -7 -21 -1.8 1.8
0 -7 21 0.9 7.8
0 -7 -21 0.7 1.6
0 7 -21 -5.8 2.7
0 7 -21 18.7 9.3
-1 0 -21 -3.1 2.7
-1 0 -21 -0.1 1.7
1 0 -21 -3.3 2.3
-1 0 21 -3.5 2.6
1 0 -21 -0.6 2.1
1 0 21 -2 3.5
1 -1 -21 184.68 20
-1 1 -21 225.98 19.3
1 -1 -21 222.08 18.9
-1 -1 -21 216.68 18.7
1 1 -21 211.58 19.4
-1 -1 -21 178.88 20.4
-1 2 -21 2 4.2
-1 -2 21 3.6 4.7
1 -2 -21 0.3 1.9
-1 2 -21 -1.6 1.7
1 -2 21 -0.5 4.3
1 2 -21 -0.6 3.3
1 2 -21 1.4 2.4
-1 -2 -21 2 2.1
1 -3 -21 11.5 3.3
-1 3 -21 4.5 3.3
1 -3 -21 7.1 4.4
-1 3 -21 3.9 5.7
-1 -3 21 12.8 7.2
1 -3 21 14.4 7.6
1 3 -21 8 5.7
-1 -3 -21 11.1 4.3
-1 -3 -21 10.8 3.2
1 3 -21 6.2 3.1
-1 4 -21 2.9 3.2
1 -4 -21 -1.4 1.8
-1 -4 21 -2.5 3.6
1 4 -21 2.6 3.1
-1 -4 -21 2.2 2.3
1 -4 21 -2.2 4.6
-1 -4 -21 -1.5 2.6
1 -5 -21 43.7 6.3
-1 5 -21 45.1 8.9
1 -5 -21 61.29 8.2
-1 -5 -21 45.9 8.1
-1 -5 -21 59.49 6.8
1 5 -21 53.29 10.1
1 -6 -21 21.7 4.2
-1 6 -21 20.7 6.9
-1 -6 21 50.79 12.8
-1 -6 -21 25.4 4.4
-1 -6 -21 19.8 5.7
1 -6 21 44.8 12.6
1 6 -21 20 6.8
-1 7 -21 40.5 9.2
1 -7 -21 42.2 4.8
-1 -7 21 107.59 19.1
1 -7 -21 50.89 5.2
-1 -7 -21 46.1 5.4
1 -7 21 76.49 16.3
-1 -7 -21 45.1 8.9
1 7 -21 40.3 11.9
-1 -7 -21 37.3 6.5
1 7 -21 38.4 9.8
2 0 -21 -4 2
2 0 21 -3 3.4
-2 0 -21 0.9 3.3
2 0 -21 2.3 2.6
-2 0 -21 2.1 2
2 1 21 178.58 16.4
2 -1 -21 134.19 15.2
2 -1 -21 146.19 14.3
-2 1 -21 149.59 14.4
-2 -1 -21 119.49 15.6
2 1 -21 142.39 14.9
2 -2 -21 4.7 3.4
2 -2 -21 6.8 2.9
-2 2 -21 2.4 5
-2 -2 21 13 6.9
-2 2 -21 5.6 2.9
2 -2 21 4.3 5.3
2 2 -21 1.9 2.5
2 2 -21 1.3 3.5
2 -3 -21 449.56 33.8
-2 3 -21 375.76 39.7
-2 3 -21 424.46 34.8
2 3 -21 399.26 38.2
2 3 -21 427.16 35.6
-2 -3 -21 383.76 35.2
2 -4 -21 22.1 4.7
-2 4 -21 31.6 6.8
-2 -4 21 36.7 11.1
2 4 -21 16 5.7
-2 -4 -21 24.8 6.2
2 -4 21 40.2 11.4
-2 -5 21 65.49 14.2
2 -5 -21 17 4.2
-2 5 -21 34.4 7
2 -5 21 50.49 13.4
-2 -5 -21 17.5 5.2
2 5 -21 18.9 6.1
2 -6 -21 17.2 3.8
-2 6 -21 14.2 5.4
-2 -6 21 34.4 10.5
2 -6 21 33 11.1
2 6 -21 13.9 6.3
-2 -6 -21 13.4 3.5
-2 -6 -21 13.9 4.7
2 -7 -21 93.19 10.8
-2 7 -21 100.69 13
-2 -7 -21 80.89 11.9
-2 -7 -21 86.79 8.8
-2 -7 -21 94.49 9.7
2 7 -21 84.39 14.4
3 0 -21 -0.6 2.7
3 0 -21 -3.1 1.6
-3 0 -21 7.5 4.8
3 0 21 -1 3.8
-3 -1 21 -4.8 2.6
3 -1 -21 -1.8 2.8
-3 1 -21 3.8 2.4
3 1 21 -4.9 2.8
3 1 -21 -0.1 2.6
3 -1 21 0.4 4.4
-3 -1 -21 0.2 3.4
-3 2 -21 15.5 4.4
3 -2 -21 8 3.7
-3 2 -21 17.9 9.5
-3 -2 21 27.7 9.1
3 -2 -21 14.5 4.2
3 -2 21 25.3 8.6
3 2 -21 12.9 4.3
3 2 -21 7 4.4
3 -3 -21 22.6 5
-3 -3 21 57.19 12.1
3 -3 -21 17.1 6.2
-3 3 -21 21.6 5.3
3 3 -21 19.9 5.9
3 -3 21 41.8 10.8
3 3 -21 18 6.3
-3 -3 -21 15.5 5.9
3 -4 -21 184.28 18.7
3 -4 -21 183.28 16.7
-3 4 -21 191.48 18.2
3 4 -21 176.88 18.9
-3 -4 -21 162.78 17.8
-3 5 -21 -2.5 2.4
-3 -5 21 12.3 7.6
3 -5 -21 0.4 3.3
-3 -5 -21 0.2 3.2
3 -5 21 7.4 8
3 5 -21 -2.4 3.6
3 -6 -21 99.19 9.7
3 -6 -21 106.89 11.4
-3 6 -21 103.59 12.8
-3 -6 -21 82.69 11.7
3 6 -21 94.39 15.3
-3 7 -21 2.8 4.7
-3 -7 21 3.3 7.3
3 -7 -21 -0.9 3.8
-3 -7 -21 8 6.8
3 7 -21 -0.9 4.6
-3 -7 -21 4.2 3.5
3 -7 21 -6.2 6.4
-3 -7 -21 3.9 2.3
4 0 21 4.7 4.7
4 0 -21 2 2.2
-4 0 -21 1.8 3.6
4 0 -21 1.2 2.8
4 -1 -21 0 2.9
4 1 21 0.2 3.2
4 -1 -21 1.5 2.7
4 -1 21 9.3 6.2
-4 -1 -21 7 4
4 1 -21 8.7 3.6
4 -2 -21 3 2.1
4 -2 -21 -2.2 2.9
-4 -2 21 3.1 4.5
-4 2 -21 8.6 3.3
4 2 -21 -0.6 3.5
-4 -2 -21 6.2 4.8
4 2 -21 1.9 2.5
4 -2 21 10.5 6.9
-4 3 -21 316.07 27.1
4 -3 -21 289.97 26.1
4 -3 -21 330.57 27.1
4 3 -21 283.87 28
4 -4 -21 33.1 6.2
-4 -4 21 55.39 12.8
4 -4 -21 36 6.9
-4 4 -21 34.5 7.1
4 -4 21 66.59 14.2
4 4 -21 41.5 8.4
-4 -4 -21 26.5 8.6
4 -5 -21 -3 3
-4 5 -21 7.1 3.3
-4 -5 21 13.5 8
4 -5 -21 4.7 2.5
4 5 -21 3.4 4.9
-4 -5 -21 10.4 5.1
4 -5 21 11.8 8.1
-4 6 -21 2.4 3.6
4 -6 -21 4.6 2.2
4 -6 -21 4.2 3.7
-4 -6 21 1.4 5.1
-4 -6 -21 9.3 4.8
-4 -6 -21 9 4.7
4 -6 21 12.9 8.6
4 6 -21 -4.7 3.5
-4 7 -21 72.69 13.5
4 -7 -21 103.59 11.9
4 7 -21 132.29 16.3
4 -7 21 155.18 21.4
4 7 -21 78.59 14.6
-4 -7 -21 95.79 11.5
5 0 -21 -0.2 3
5 0 -21 1.5 2.4
-5 0 -21 -1.7 4.4
5 0 21 3.8 3.9
5 -1 -21 183.88 18
5 -1 -21 172.88 17.6
5 1 -21 190.98 18.7
-5 -1 -21 157.68 19.8
5 -2 -21 20.9 5.2
5 -2 -21 16.5 5
5 -2 21 30.4 9.8
5 2 -21 17.3 5.5
-5 -2 -21 9.8 5.2
5 2 -21 14.7 6
-5 -3 21 -1.3 4.6
-5 3 -21 1.2 2.4
5 -3 -21 -1.2 2.4
5 -3 -21 -2.6 2.2
-5 -3 -21 -0.2 3.3
5 3 -21 0.2 2.8
5 -3 21 -1.3 4.2
5 -4 -21 5.6 2.9
-5 -4 21 8.5 6.4
5 -4 -21 13.5 4.5
-5 4 -21 9.2 3.8
5 4 -21 -0.1 3.5
5 -4 21 13.3 8
-5 5 -21 10.5 4.5
5 -5 -21 6.4 3.1
5 -5 -21 14.8 4.9
-5 -5 21 15.9 8.3
5 5 -21 12.7 6
5 -6 -21 12.2 5.1
-5 -6 21 40.6 12
-5 6 -21 17.5 5.6
5 -6 -21 16.5 3.4
5 6 -21 18.9 6.9
-5 -6 -21 20.1 5.5
5 -6 21 32.1 12.8
-5 7 -21 24.7 6.6
5 -7 -21 18.5 6.4
-5 -7 21 32.4 10.5
5 7 -21 36.1 9.1
-5 -7 -21 23.2 7.6
5 -7 21 20.2 10.5
5 7 -21 19.1 7.9
5 7 -21 31.9 8.9
6 0 -21 6.3 3.5
6 0 21 5.9 5
-6 0 -21 11.6 5.8
6 0 -21 4.7 3.8
6 -1 -21 1601.14 117.79
6 -1 -21 1664.93 117.79
6 1 -21 1533.65 118.39
-6 -1 -21 1349.16 120.59
6 2 21 112.99 11.5
6 -2 -21 95.09 11.7
6 -2 -21 93.29 11.7
6 -2 21 151.68 17.9
6 2 -21 90.09 12.9
-6 -2 -21 83.49 12.9
6 -3 -21 112.39 12.6
-6 -3 21 164.28 19.2
-6 3 -21 99.99 12.4
6 -3 -21 125.89 13.4
-6 -3 -21 92.49 14
6 -3 21 162.08 19.5
6 3 -21 94.29 13.9
-6 -4 21 2.5 5.3
-6 4 -21 2.5 2.6
6 -4 -21 -0.3 2.5
6 -4 -21 -0.7 2.7
6 -4 21 0.1 5.8
6 4 -21 -2.1 3.6
-6 -4 -21 2.6 4
-6 5 -21 226.58 26.6
6 -5 -21 236.28 20.7
6 -5 -21 198.78 19
6 5 -21 210.38 23.2
-6 -5 -21 199.38 22
6 -6 -21 1.6 1.7
-6 -6 21 13.8 7.9
-6 6 -21 4.7 3.8
6 -6 -21 5.3 5.5
-6 -6 -21 6 5.1
-6 -6 -21 3.5 5.1
6 6 -21 4 5.2
6 -6 21 16.8 9.5
-6 7 -21 192.68 19.2
6 7 -21 156.68 20.7
6 7 -21 147.39 22.6
-6 -7 -21 181.68 18.3
-6 -7 -21 172.58 18.6
6 7 -21 179.08 22
-7 0 -21 6 6
7 0 21 3.9 4.8
7 0 -21 0.5 3.4
7 0 -21 0.7 3.1
7 -1 -21 4.3 3.9
7 -1 -21 11.1 4.6
7 1 21 8.5 4.7
7 -1 21 11.6 6.5
7 1 -21 7.3 3.6
-7 -1 -21 10.9 5.1
7 2 21 1.2 2.8
7 -2 -21 0.7 3
7 -2 -21 -1.4 3.4
-7 -2 -21 3.6 3.9
7 -2 21 9.6 5.6
7 2 -21 2.5 3.6
7 -3 -21 103.69 11.5
7 -3 -21 72.89 10.3
-7 -3 -21 79.19 12.4
7 3 -21 86.99 14.5
-7 4 -21 1.1 2.3
-7 -4 21 5.3 6.1
7 -4 -21 -1.6 2.4
7 -4 -21 -1.5 3.4
7 4 -21 -2.8 2.8
7 -4 21 1.1 6.4
-7 5 -21 23.4 7.7
7 -5 -21 16.8 4.4
-7 -5 21 40.9 11.2
-7 -5 -21 22.5 6.6
7 -5 21 25.1 10.7
7 5 -21 10.6 6.4
-7 6 -21 1.6 3.6
7 -6 -21 1.9 1.3
-7 -6 21 -0.2 5.5
-7 -6 -21 -5.8 4
7 -6 21 0.9 6.2
7 6 -21 -8.2 4
-7 7 -21 6.1 4.5
-7 -7 21 23.1 8.5
-7 -7 -21 12.3 6.4
7 -7 21 24.5 9.5
7 7 -21 20.6 8.9
7 7 -21 15.2 7
8 0 21 6.7 4.8
8 0 -21 5.6 3.8
8 -1 -21 84.89 11.8
8 -1 21 123.69 16.1
-8 -1 -21 74.69 15.8
8 1 -21 94.59 13.3
8 2 21 8.3 4.1
8 -2 -21 8.9 4.4
-8 -2 -21 11.5 6.3
8 -2 21 12.8 7.6
8 2 -21 11.8 5
8 -3 -21 163.78 16.6
-8 -3 -21 127.39 17.8
8 3 -21 165.88 18.9
8 -4 -21 3.1 2.4
-8 4 -21 0.6 2.9
8 4 -21 -3 8.3
8 -4 21 1.8 5.8
-8 -4 -21 1.8 4.6
-8 5 -21 8.7 4.4
8 -5 -21 10.4 3.7
-8 -5 -21 17 6.2
8 -5 21 20 10.7
8 5 -21 19.1 6.6
-8 6 -21 11.2 4.5
8 -6 -21 6.1 1.8
8 6 -21 6.5 6.5
-8 -6 -21 12.1 5.9
8 -6 21 5.6 8.3
-8 -6 -21 14.3 6.4
8 6 -21 -0.6 5.3
-8 -7 21 -9.1 4.6
8 7 -21 -1 5.1
8 7 -21 0 5.5
8 -7 21 3.9 6.4
9 0 21 4.4 5.2
9 0 -21 2.7 3.6
9 1 21 10.4 5.7
9 -1 -21 8.6 5.1
9 1 -21 4.9 4.9
9 -1 21 5.2 6.5
9 2 21 10.5 4.5
9 -2 -21 2.7 3.1
9 -2 21 13.7 7.7
-9 -2 -21 7.6 6.1
9 2 -21 16.2 6.7
9 -3 -21 217.08 20.3
9 3 -21 199.08 22.5
-9 -3 -21 184.58 22.9
9 -4 -21 17 4.8
9 4 -21 18.3 7.7
-9 -4 -21 18.4 7.9
9 -5 -21 4.6 2.9
-9 5 -21 0.6 2.9
9 -5 21 -8.7 5.5
9 5 -21 -7.6 3.5
-9 -5 -21 -5.2 5
9 5 -21 5.6 5.6
-9 6 -21 1.8 4.3
9 -6 -21 0.2 1.1
-9 -6 -21 19.9 7.7
9 -6 21 -8.3 6.4
9 6 -21 -0.4 6.1
9 6 -21 1.1 4.3
-9 -6 -21 2.3 6.4
-9 7 -21 8.3 5.1
9 -7 -21 15.5 8.2
9 7 -21 9.6 7.3
9 -7 21 8 9.3
9 7 -21 2.6 6
10 0 -21 4.7 4.1
10 0 21 1.5 5.2
10 -1 -21 70.49 12.5
10 1 -21 74.49 13.3
10 2 21 420.26 32.6
10 -2 -21 301.97 32.7
10 -2 21 398.76 38.2
10 -3 -21 72.89 12
10 -3 21 107.49 19.9
10 3 -21 79.19 15.2
10 -4 -21 7.2 3.8
10 -4 21 5.4 6.7
10 4 -21 1.3 5.5
10 -5 -21 4.9 2.7
-10 5 -21 1.6 3.5
10 5 -21 6.4 6
10 5 -21 -5.9 3.4
10 -5 21 -2 8.2
-10 6 -21 -0.2 2.9
10 -6 21 1.5 7.2
10 6 -21 2.7 6
10 6 -21 10 7.8
11 0 21 3.6 5.2
11 0 -21 -5.2 2.3
11 1 21 34.8 8.6
11 -1 -21 16.2 5.9
11 1 -21 13.9 7
11 -1 21 34.8 10.4
11 -2 -21 215.38 24.3
11 2 -21 248.28 27.2
11 -2 21 322.57 31
11 -3 -21 -0.1 2.6
11 3 21 1.3 2.1
11 3 -21 -2.2 4.9
11 -3 21 -2.6 5.4
11 -4 -21 11.5 4.1
11 4 -21 4.8 7.4
11 -4 21 13.4 8.9
11 4 -21 2.7 5
-11 5 -21 9.9 5.1
11 -5 -21 3.9 3.2
11 5 -21 12.2 7.5
11 5 -21 -1.5 3.7
11 -5 21 5.6 8.5
11 -6 -21 0.2 6.1
-11 6 -21 -4.8 2.9
11 -6 21 1.8 6.5
11 6 -21 4.9 4.9
12 0 21 -2.8 4.6
12 0 -21 7.9 5.6
12 -1 -21 109.09 15.8
12 1 21 144.89 16.6
12 -1 21 138.89 19.3
12 1 -21 113.49 16.6
12 2 21 0.5 3.8
12 -2 -21 0.6 3.9
12 2 -21 2.1 4.6
12 -2 21 -0.3 6.3
12 -3 -21 59.69 11.7
12 3 21 81.79 8.6
12 -3 21 82.59 21
12 3 -21 83.09 18.2
12 3 -21 75.89 15
12 -4 -21 228.38 24.3
12 4 -21 270.87 29.8
12 -4 21 345.97 34.4
12 -5 -21 7.4 3.9
12 -5 -21 12.4 7.7
12 5 -21 12.6 6.4
12 5 -21 16.7 9.1
12 -5 21 21.7 10
12 -6 -21 196.78 25.2
-12 6 -21 165.18 17.8
12 6 -21 137.99 21.4
12 6 -21 112.09 21.5
13 0 -21 -2.4 4
13 0 21 4.3 6.1
13 1 21 270.17 24.9
13 -1 -21 166.88 22.8
13 1 -21 219.88 25.3
13 -1 21 247.18 27.2
13 -2 -21 24.4 7.1
13 2 21 28.3 7.4
13 -2 21 25.5 10.2
13 2 -21 24.5 11.7
13 3 21 307.47 23.6
13 -3 -21 229.78 25.8
13 -3 -21 307.87 34.5
13 3 -21 219.88 28.8
13 3 -21 231.48 35.5
13 -3 21 329.67 33.8
13 -4 -21 4.4 6.6
13 -4 -21 2 4.1
13 4 -21 0.6 6.2
13 -4 21 0.3 6.8
13 4 -21 5.7 5.4
13 -5 -21 18.5 8.6
13 5 -21 1.3 5.7
13 -5 21 14.8 9.3
13 5 -21 7.3 7.1
-13 6 -21 10.9 5.5
13 -6 -21 8.9 8.9
13 6 -21 14.6 6
13 6 -21 18.2 7.9
13 -6 21 19.5 11.2
14 0 21 -2.5 4.6
14 0 -21 -3.3 5.1
14 -1 -21 10.2 6.1
14 1 21 50.49 10.9
14 -1 -21 33.6 13.2
14 -1 21 47.2 12.7
14 1 -21 24.1 8.8
14 -2 -21 159.58 23.7
14 -2 -21 127.29 17.1
14 2 -21 150.88 23.2
14 2 -21 131.79 19.1
14 -3 -21 180.18 20.6
14 -3 -21 188.98 30.3
14 -3 21 252.17 28.6
14 3 -21 193.18 24.9
14 3 -21 200.68 27.8
14 -4 -21 67.69 10.8
14 -4 21 61.19 17.1
14 4 -21 53.99 13.4
14 4 -21 51.99 14.6
14 -5 -21 11.8 4.5
14 -5 -21 16.8 10.1
14 5 -21 28.9 9.2
14 5 -21 6.2 7
14 -5 21 31.2 12.2
15 0 -21 0.7 4.2
15 0 21 -3 5.2
15 0 -21 3.2 7.3
15 -1 -21 8.9 4.2
15 1 21 7 5.5
15 -1 -21 2.7 6.8
15 1 -21 -0.6 6
15 1 -21 4 6.1
15 -1 21 8.6 6.9
15 -2 -21 25.5 11.8
15 -2 -21 28.1 9.1
15 2 21 40.8 8.8
15 -2 21 22.7 9.8
15 2 -21 37.7 13.6
15 2 -21 15.3 7.8
15 3 21 54.69 10.4
15 -3 -21 41.9 9.1
15 -3 -21 54.29 16.2
15 -3 21 72.19 16.9
15 3 -21 65.79 16.2
15 3 -21 38.2 11.9
15 -4 -21 27.7 7.2
15 -4 -21 53.59 15.7
15 -4 21 50.79 16.2
15 4 -21 47.8 13.9
15 4 -21 36.5 12.3
15 -5 -21 10.2 3.9
15 -5 -21 26 10.1
15 5 -21 18.6 8.1
15 -5 21 28.7 11.3
15 5 -21 6.8 8.2
16 0 21 -2.9 5.5
16 0 -21 4 5.5
16 0 -21 5.7 7.4
16 -1 -21 136.89 19.2
16 -1 -21 209.88 28.9
16 1 -21 164.58 26
16 -1 21 184.18 26.2
16 1 -21 148.09 20.5
16 -2 -21 19.2 10.9
16 2 21 27.8 7.7
16 -2 -21 19.1 8.1
16 2 -21 32.4 12.5
16 -2 21 11.9 9.3
16 2 -21 23 8.4
16 -3 -21 171.88 26.5
16 -3 -21 159.28 19.5
16 -3 21 227.28 27.5
16 3 -21 198.38 28.8
16 3 -21 163.78 23.3
16 -4 -21 -2.2 6.5
16 -4 -21 1.2 4.1
16 4 -21 -7.9 4.6
16 -4 21 -5 5.5
16 4 -21 6 8.6
16 -5 -21 34.6 6.5
16 -5 -21 33.5 12.1
16 -5 21 45.7 14.6
16 5 -21 32.8 12.2
16 5 -21 36.4 13
17 0 21 5.6 6.4
17 0 -21 -6.7 4.1
17 0 -21 5 8.3
17 1 21 168.88 19.8
17 -1 -21 167.98 26.1
17 -1 -21 106.59 19.2
17 1 -21 108.99 20.1
17 1 -21 111.59 25.1
17 -1 21 154.98 21.4
17 -2 -21 29.2 13.5
17 2 21 48.2 10.1
17 -2 -21 11 7.7
17 2 -21 21.2 8.9
17 -2 21 31.1 11.6
17 2 -21 27 12.2
17 -3 -21 0 4.3
17 -3 -21 2.6 8.3
17 3 21 0.2 3.7
17 3 -21 1 6.2
17 3 -21 8.2 8.5
17 -3 21 -16.3 7
17 -4 -21 1 7.8
17 -4 -21 7.3 4.1
17 4 -21 -4.3 4.9
17 -4 21 6.4 8
17 4 -21 10.9 8.7
18 0 21 -5.7 5.3
18 0 -21 0.9 6.9
18 0 -21 2 5.1
18 -1 -21 94.89 21
18 1 21 176.58 20.1
18 -1 -21 119.59 26.1
18 1 -21 110.59 20.3
18 1 -21 140.89 27.6
18 -1 21 159.98 22.2
18 2 21 24.1 7.8
18 -2 -21 25.6 11.5
18 -2 -21 14.6 6.4
18 2 -21 21.1 8.8
18 -2 21 25.2 10.5
18 2 -21 10.2 10.1
18 -3 -21 69.39 12.9
18 -3 -21 98.79 23.2
18 -3 21 102.69 20.6
18 3 -21 99.29 18.9
18 3 -21 79.49 20.9
18 -4 -21 15.5 10.9
18 -4 -21 14.2 5.9
18 4 -21 8.2 8.9
18 4 -21 31.3 11.6
18 -4 21 28.4 11.6
19 0 -21 -4.4 4.1
19 0 21 -3 6.6
19 0 -21 -8.1 8.4
19 -1 -21 44.3 16.4
19 1 21 66.29 14.1
19 -1 -21 46.8 12.2
19 1 -21 45.7 15.8
19 1 -21 49.7 11.3
19 -1 21 49 14.5
19 2 21 6.5 5.9
19 -2 -21 3.8 6
19 2 -21 4.7 6.1
19 -2 21 6.9 8.9
19 2 -21 0.6 7.9
19 -3 -21 20.1 7.4
19 3 21 30.4 7.3
19 -3 -21 27.3 14.4
19 3 -21 15.6 8.5
19 3 -21 18.9 11.1
19 -3 21 31 13
20 0 -21 -2.1 7.5
20 0 -21 -9.5 5
20 0 21 0.7 6
20 -1 -21 36.5 15.2
20 1 21 68.99 15.4
20 -1 -21 47.6 12.1
20 -1 21 57.89 15.1
20 1 -21 37.1 12.2
20 1 -21 40.8 14.4
20 -2 -21 41.9 11.3
20 -2 -21 36.8 16
20 -2 21 71.29 16.9
20 2 -21 19.3 10.9
20 2 -21 69.39 16.1
21 0 -21 6.6 8.9
21 0 21 -1.3 7.1
21 0 -21 5.4 6.7
21 1 21 27.8 10.4
21 -1 -21 36.6 13.1
21 -1 -21 33.9 10
21 -1 21 31.4 12.3
21 1 -21 45.7 15.6
21 1 -21 14.3 8.1
0 0 -22 462.35 35
0 0 -22 375.56 36.6
0 -1 22 -4.1 3.6
0 1 -22 -1.6 1.6
0 -1 -22 -4 2.3
0 -1 -22 -0.2 2
0 -2 -22 548.65 41.7
0 -2 -22 479.45 42.9
0 2 -22 533.75 42.7
0 -3 -22 2 3.4
0 3 -22 -0.4 2.6
0 -3 22 3.4 4.5
0 4 -22 198.98 19.1
0 -4 -22 171.98 17.5
0 -4 -22 183.48 16.5
0 -5 -22 -3.4 1.7
0 5 -22 -1 2.7
0 -5 -22 -6.7 2.6
0 6 -22 4.6 3.9
0 -6 -22 7.4 2.8
0 -6 22 23 9.8
0 -6 -22 10.4 3.7
0 -7 22 10.3 8.4
0 -7 -22 0.2 1.7
0 -7 -22 1.2 2.5
0 -7 -22 3 3.6
-1 0 -22 -0.7 3.1
1 0 22 -3.7 3.5
-1 0 -22 -1.7 1.9
1 0 -22 -1.6 2.8
1 0 -22 -0.5 2
-1 1 -22 132.09 13.6
1 -1 -22 115.59 14.1
1 -1 -22 141.99 13.5
-1 -1 -22 148.09 13.3
1 1 -22 122.99 13.6
-1 -1 -22 115.29 14.6
-1 2 -22 1.7 1.9
1 -2 -22 -2.7 1.4
1 -2 -22 -2.3 2.5
-1 -2 22 2.5 4.7
1 -2 22 -2.2 4.2
-1 -2 -22 3.1 3.2
-1 -2 -22 -2.4 1.7
1 2 -22 -1.9 2.5
-1 3 -22 4.5 3.6
1 -3 -22 2.8 2.9
1 -3 -22 3.6 2.3
-1 -3 22 17.2 7.5
-1 -3 -22 6.8 2.7
1 3 -22 11.7 4.5
-1 -3 -22 10.8 4.1
1 -3 22 20.6 7.9
-1 4 -22 17 5.2
1 -4 -22 21.6 4.7
1 -4 -22 16.2 5
-1 -4 22 47.3 12.3
1 -4 22 42.9 11.8
-1 -4 -22 22.9 4.8
1 4 -22 21.3 6.1
-1 -4 -22 13.5 3.7
1 -5 -22 48 6.5
1 -5 -22 45.7 7.5
-1 5 -22 42.6 8.6
-1 -5 -22 42.4 8.4
1 5 -22 70.69 11.3
-1 -5 -22 56.79 6.8
1 -6 -22 26.8 6.2
-1 6 -22 38.1 8.6
-1 -6 22 59.89 14
-1 -6 -22 29.4 6.1
1 -6 22 75.59 15.9
-1 -6 -22 30.8 5
1 6 -22 36.8 8.3
1 -7 -22 1.2 2.3
1 -7 -22 2.7 1.7
-1 -7 22 5.2 7.6
-1 7 -22 11.4 5.3
1 -7 22 1.9 7.7
1 7 -22 -2.6 3.7
-1 -7 -22 2.7 2.1
-1 -7 -22 5.9 3.6
-2 0 -22 -0.8 1.9
2 0 -22 2.5 2.9
-2 0 -22 3 3.5
2 0 -22 0.4 2.2
2 0 22 -5.1 3.2
2 -1 -22 35.6 6.4
2 -1 -22 25.5 6.6
2 1 22 41.4 8.4
-2 1 -22 34.8 6.5
-2 -1 22 49.9 10.7
-2 -1 -22 29.4 5.6
2 1 -22 25.1 5.9
-2 -1 -22 21.5 6.9
2 -2 -22 2.6 3.4
-2 2 -22 0.8 2.4
2 -2 -22 -0.4 2.2
-2 -2 22 6.7 5.5
-2 -2 -22 3.1 3.3
2 -2 22 9.3 6.2
2 2 -22 0.3 2.7
-2 3 -22 10.3 4
-2 -3 22 22.6 8.1
2 -3 -22 5 3.5
2 -3 -22 12.1 3.7
2 -3 22 18.6 8.1
2 3 -22 9.1 3.7
-2 -3 -22 6.4 3.7
2 -4 -22 13.3 3.6
-2 4 -22 8.6 3.9
2 -4 -22 1.7 2.9
-2 -4 22 25.6 9.2
2 4 -22 11.9 5.2
-2 -4 -22 7.6 3
2 -4 22 19.8 9.1
-2 5 -22 152.38 16.1
2 -5 -22 146.89 13.7
2 -5 -22 142.29 14.9
2 5 -22 131.29 16.2
-2 -5 -22 115.49 14.7
-2 -5 -22 168.98 13.9
2 -6 -22 51.99 8.7
-2 -6 22 107.69 18.1
-2 6 -22 39.5 8.9
2 -6 -22 54.39 6.7
-2 -6 -22 51.99 9
-2 -6 -22 56.19 6.9
2 -6 22 91.89 17.7
2 6 -22 49 10.7
2 -7 -22 8.2 1.7
-2 -7 22 23.1 10.2
2 -7 -22 6.3 1.5
2 -7 -22 11.7 4.7
-2 7 -22 11.9 5.1
-2 -7 -22 17.8 5.1
2 7 -22 7.6 5.3
2 -7 22 7.2 8.3
-2 -7 -22 11.5 3.7
3 0 22 25.2 7.4
3 0 -22 16.2 5.1
-3 0 -22 22.1 7
3 0 -22 18.1 5.2
3 1 22 -2.6 3.5
-3 1 -22 1 2.3
3 -1 -22 1.9 3
3 -1 -22 0.7 2.4
3 -1 22 -1.7 3.9
3 1 -22 1.7 2.7
-3 -1 -22 4 2.7
-3 -2 22 1.2 3.8
-3 2 -22 0 2.5
3 -2 -22 -1.1 2.4
-3 -2 -22 -0.2 3.2
3 -2 22 -0.9 4.4
3 2 -22 1.6 2.7
-3 3 -22 8.3 3.9
3 -3 -22 8.4 3.4
3 -3 -22 8 3.9
-3 -3 22 16.5 7.4
3 3 -22 7.1 4
-3 -3 -22 3.9 3.5
3 -3 22 12.9 7.8
3 -4 -22 22.4 4.9
-3 4 -22 26.2 6.3
3 -4 -22 21.7 5.8
-3 -4 22 48.1 11.7
3 4 -22 19.3 6.6
3 -4 22 55.09 13.3
-3 -4 -22 25 6.2
3 -5 -22 22.4 4.8
-3 -5 22 52.99 13.6
-3 5 -22 18.2 5.9
3 -5 -22 20.5 5.7
3 -5 22 33.2 11.5
3 5 -22 28.5 7.5
-3 -5 -22 27.3 6.8
3 -6 -22 3.9 2.7
-3 -6 22 5.9 7.1
3 -6 -22 0.9 3.7
-3 6 -22 3.1 3.4
3 -6 22 7.8 8
-3 -6 -22 0.9 2.2
3 6 -22 1.6 4.3
-3 -6 -22 5.8 3.4
-3 -7 22 39.4 13.6
-3 7 -22 28.4 7.7
3 -7 -22 12.6 7
-3 -7 -22 21.7 6
3 7 -22 24.7 8.2
-3 -7 -22 30.3 6.2
-3 -7 -22 26.3 4.5
3 -7 22 31.4 12.2
4 0 -22 1.1 3.6
-4 0 -22 1.4 4.1
4 0 22 -1.9 4.1
4 0 -22 -1 2
4 -1 -22 296.17 25
4 -1 -22 293.47 25.7
-4 -1 -22 241.48 26.8
4 1 -22 271.37 25.4
-4 2 -22 101.79 11.6
4 -2 -22 100.39 11.5
4 -2 -22 110.19 12.1
-4 -2 -22 88.29 12.7
4 2 -22 92.59 12.3
4 -3 -22 -4 1.8
-4 3 -22 -3.7 1.9
-4 -3 22 5.6 6.4
4 -3 -22 -2.1 3.1
-4 -3 -22 1.9 3.2
4 3 -22 -1.2 2.7
4 -3 22 -3.5 4.5
-4 4 -22 73.49 9.8
4 -4 -22 63.99 8.8
-4 -4 22 123.59 16.8
4 -4 -22 71.59 9.7
4 4 -22 55.89 10.9
-4 -4 -22 71.39 9.7
4 -5 -22 526.95 39.6
4 -5 -22 492.15 38.4
-4 5 -22 489.05 40.7
-4 -5 -22 411.26 40.1
4 5 -22 455.75 42
-4 -6 22 13 8.8
4 -6 -22 7.9 2.9
4 -6 -22 3.7 4.5
-4 6 -22 9.4 5.2
4 -6 22 9.9 9.1
4 6 -22 14.3 6
-4 7 -22 4.4 5.3
-4 -7 22 52.79 14
4 -7 22 37.5 12.3
-4 -7 -22 31.8 5.8
-4 -7 -22 23 6.1
-4 -7 -22 17.9 4
4 7 -22 8.1 5.2
5 0 22 35.7 8.5
-5 0 -22 18.5 8.8
5 0 -22 17.1 5.7
5 -1 -22 9.2 4.2
5 -1 -22 12.5 4.9
5 1 22 17.6 5.8
5 1 -22 8.4 4.5
-5 -1 -22 3.6 4.6
5 -1 22 25.1 8
5 -2 -22 15.1 5
5 -2 -22 17.2 5.3
5 2 -22 14 5.1
5 -2 22 37.6 10.5
-5 -2 -22 6.1 5.3
5 -3 -22 0.3 3
-5 3 -22 1.5 3
-5 -3 22 2.2 5.8
5 -3 -22 1 2.4
-5 -3 -22 1.1 3.8
5 -3 22 -3.1 5.3
5 3 -22 3.9 3.5
-5 -4 22 8.9 6.7
5 -4 -22 4.9 3
-5 4 -22 8 3.7
5 -4 -22 5.9 3.8
-5 -4 -22 7.3 3.8
5 4 -22 -1.8 3.4
5 -4 22 4.6 6.3
-5 5 -22 46.6 9.1
5 -5 -22 66.79 10
-5 -5 22 92.39 17.2
5 -5 -22 36.5 9
5 5 -22 58.99 11.7
5 -5 22 89.19 18.6
-5 -5 -22 49.1 9.7
-5 6 -22 24.2 7.3
-5 -6 22 52.19 13.4
5 -6 -22 33 5.2
5 6 -22 27.6 8.9
-5 -6 -22 39.5 7.9
5 -6 22 64.19 15.9
-5 -7 22 16.2 9.2
-5 7 -22 8.8 4.8
5 7 -22 5 5.9
5 -7 22 -2.7 7.3
5 7 -22 3.2 6.1
-5 -7 -22 9.7 5.7
6 0 -22 31.2 7.5
6 -1 -22 175.78 17.5
6 1 -22 167.68 17.9
-6 -1 -22 153.58 20.3
6 -2 -22 4.9 2.9
6 2 22 5.3 3.2
6 -2 22 5.9 6.3
-6 -2 -22 7 4.8
6 2 -22 10.6 5
6 -3 -22 188.58 17.7
-6 3 -22 180.58 17.6
-6 -3 -22 149.99 19.3
6 3 -22 181.78 19.7
-6 4 -22 0.1 2.3
6 -4 -22 0.9 2.8
-6 -4 22 3.6 5.4
6 4 -22 7.4 6
-6 -4 -22 3.5 4.8
6 -4 22 3.9 6.5
-6 -5 22 -0.3 6
-6 5 -22 0.9 3
-6 -5 -22 11.4 5.3
6 5 -22 -0.3 3.9
6 -5 22 -0.7 6.3
-6 6 -22 28.7 7.7
6 -6 -22 35.2 5.1
-6 -6 22 77.69 15.5
6 6 -22 37.1 10
6 -6 22 60.89 15.5
-6 -6 -22 46.4 9.1
-6 -6 -22 37.6 8.3
-6 -7 22 183.18 21.6
-6 7 -22 107.19 14.5
6 7 -22 122.19 18.3
-6 -7 -22 117.49 15.6
-6 -7 -22 138.49 16
6 7 -22 98.79 17.9
7 0 -22 14.4 5.4
7 0 22 15.6 6.7
7 -1 -22 519.55 43.9
7 1 -22 525.95 44.9
7 2 22 145.69 13.9
7 -2 -22 110.09 13.8
-7 -2 -22 94.19 19.1
7 2 -22 107.19 15.1
7 -2 22 170.68 20.3
7 -3 -22 253.17 21.9
7 3 -22 214.38 23.4
-7 -3 -22 201.28 24
7 -4 -22 2.9 3.3
7 -4 22 5.9 13.2
7 4 -22 12 5.7
-7 -4 -22 12 5.8
-7 -5 22 127.29 18.5
-7 5 -22 103.19 12.7
-7 -5 -22 82.59 13.7
7 5 -22 75.79 14.9
7 -5 22 142.69 20.4
7 -6 -22 0.9 1.6
-7 -6 22 -0.8 6.2
-7 6 -22 -1.6 3.1
7 6 -22 2 5
-7 -6 -22 2.8 5.3
-7 -6 -22 5.4 6.3
7 -6 22 0.4 8.2
-7 -7 22 23.2 9.3
-7 7 -22 16 6.3
7 7 -22 20.7 8
7 -7 22 13.5 9.9
7 7 -22 26 9.1
8 0 -22 126.79 15.2
8 1 22 14 5.8
8 -1 -22 8.9 4.9
8 1 -22 16.4 6.1
8 -1 22 10.4 7.1
8 2 22 -0.5 2.8
8 -2 -22 -1.1 2.6
8 -2 22 5.2 6.8
8 2 -22 1.3 2.9
8 -3 -22 2 3.9
8 -3 22 18.2 9.3
8 3 -22 4.9 5.1
8 -4 -22 43.9 8
-8 4 -22 36.2 7.8
8 4 -22 47.5 10.6
8 -4 22 82.69 16.7
-8 5 -22 59.19 10.5
8 5 -22 67.79 13.3
8 -5 22 114.29 21
-8 6 -22 -4.1 3
8 -6 -22 -0.4 1.5
8 -6 22 -3 7
8 6 -22 -4.8 5.6
8 6 -22 -1.4 4.4
-8 -6 -22 -8.9 5.2
9 0 -22 6.5 4.9
9 0 22 16.5 6.8
9 1 22 83.29 12.2
9 -1 -22 50.99 10.7
9 1 -22 55.29 11.5
9 -1 22 98.39 14.9
9 2 22 3.4 3.5
9 -2 -22 1.6 3
9 -2 22 2 5.7
9 2 -22 4.2 4.3
9 -3 -22 7.1 3.9
9 -3 22 9.3 8.3
9 -4 -22 4.4 3.4
9 -4 22 8.2 8.6
9 4 -22 5.2 4.5
-9 5 -22 20.8 6.2
9 5 -22 19.8 8.1
9 -5 22 25.1 12.2
9 -6 -22 -1.2 1.4
-9 6 -22 3.1 4
9 6 -22 5.6 7.7
9 -6 22 2.2 7
10 0 -22 468.05 41.8
10 -1 -22 0.5 3.8
10 1 22 1 4.7
10 1 -22 15.8 6.2
10 -1 22 1.7 5.5
10 2 22 -1.2 3
10 -2 -22 -3.9 2.9
10 -2 22 -1 5.5
10 2 -22 2 4.4
10 -3 -22 1.1 3.5
10 -3 22 1.5 7.3
10 3 -22 0.9 4.7
10 -4 -22 23.6 6
10 -4 22 49.5 13.6
10 4 -22 16.7 7.3
-10 5 -22 0.5 3.1
10 -5 22 -7.1 7.2
10 5 -22 -7.6 4.1
10 5 -22 -3.9 5.5
10 -6 -22 42.6 4.6
-10 6 -22 39.7 8.5
10 -6 22 64.99 16.2
10 6 -22 38.2 11.7
10 6 -22 46.4 12.7
11 0 -22 29.6 9.2
11 0 22 30.2 9.5
11 -1 -22 4.9 4.1
11 1 22 0.5 4.7
11 -1 22 -4.5 4.9
11 1 -22 0.2 4
11 2 22 5.8 4.6
11 -2 -22 5.5 4.6
11 2 -22 7.7 6.2
11 -2 22 19.7 9.2
11 -3 -22 15 5.5
11 -3 22 12.8 9.3
11 3 -22 13.8 7.3
11 -4 -22 37.4 7.9
11 4 -22 53.89 14.5
11 -4 22 80.79 17.7
11 4 -22 51.19 12.4
-11 5 -22 3.8 3.9
11 -5 22 -5.7 5.5
11 5 -22 1.4 6.3
11 5 -22 2.6 3.8
11 -6 -22 4 7.2
-11 6 -22 1.6 3.4
11 6 -22 6.9 6.7
11 6 -22 5.8 7.6
11 -6 22 12 8.5
12 0 -22 9.9 6.1
12 0 22 -0.9 6
12 1 22 252.67 23.3
12 -1 -22 172.38 21.5
12 1 -22 155.08 22
12 -1 22 249.38 26.6
12 -2 -22 137.99 17
12 2 -22 149.29 23.7
12 -3 -22 12.7 4.8
12 3 22 10 3.3
12 3 -22 4.1 6.1
12 3 -22 11 6.6
12 -3 22 14.2 9.2
12 -4 -22 424.86 39
12 4 -22 515.15 48.8
12 4 -22 467.35 44.7
12 -5 -22 12.5 4.4
12 -5 -22 21 8.4
12 -5 22 42 12.7
12 5 -22 16.9 9.9
12 5 -22 20.2 8.5
12 -6 -22 -4.9 6.2
-12 6 -22 -1 4
12 6 -22 -0.7 5.8
12 -6 22 2 7.1
12 6 -22 -3.5 5.6
13 0 22 247.78 24.8
13 0 -22 159.08 21.7
13 -1 -22 -0.2 4.7
13 1 22 7.1 5.9
13 -1 22 9.7 7.7
13 1 -22 5.8 5.1
13 -2 -22 -5.3 3.2
13 2 22 -3.3 3.8
13 2 -22 6.6 8.3
13 -2 22 -2.4 6.6
13 2 -22 -3.3 4.3
13 -3 -22 10.3 5
13 3 22 24.9 5.6
13 -3 22 22.5 10.2
13 3 -22 32 11.5
13 3 -22 35.1 10.8
13 -4 -22 1.4 4
13 4 -22 3 7.3
13 4 -22 4.2 6.2
13 -4 22 4.7 8
13 -5 -22 15.7 4.6
13 -5 -22 20.9 9.5
13 5 -22 19.8 10.4
13 5 -22 12.3 7.3
13 -5 22 22 10.8
14 0 22 36.3 10.9
14 0 -22 20.8 10.9
14 0 -22 20.3 7.6
14 -1 -22 92.09 15.5
14 -1 -22 82.59 19.4
14 1 -22 94.99 22.1
14 1 -22 99.09 18.1
14 -1 22 136.69 18.7
14 -2 -22 -2.8 3.8
14 2 22 0.2 4.4
14 -2 -22 8.8 7.1
14 -2 22 1.4 6.3
14 2 -22 5.6 5.6
14 2 -22 5.7 6.3
14 -3 -22 24.3 11.2
14 -3 -22 24.8 7.4
14 -3 22 14.7 10.1
14 3 -22 20.9 9.7
14 3 -22 23.5 11.2
14 -4 -22 20.2 9.4
14 -4 -22 8.7 4.2
14 -4 22 15.9 9.3
14 4 -22 2.1 8
14 4 -22 8.8 7.9
14 -5 -22 109.49 21.1
14 -5 -22 66.79 9.5
14 5 -22 105.49 18.1
14 5 -22 75.59 17.2
15 0 -22 7 7.6
15 0 22 19.2 7.5
15 0 -22 4.7 6.2
15 -1 -22 53.19 12
15 1 22 63.09 12.7
15 -1 -22 46.9 15.2
15 1 -22 44.5 11.9
15 1 -22 49.6 15.5
15 2 22 35.7 8.1
15 -2 -22 19.9 11.2
15 -2 -22 29 8.9
15 2 -22 46.1 14.5
15 2 -22 29.3 9.9
15 -2 22 24 10.8
15 -3 -22 6.8 5
15 -3 -22 1 7.5
15 3 -22 27.5 11.4
15 3 -22 4.7 5.6
15 -3 22 22.2 11.2
15 -4 -22 -2.2 3.5
15 -4 -22 -2.7 6.3
15 4 -22 0.2 6.6
15 -4 22 -4.5 6.7
15 4 -22 4.7 7
15 -5 -22 14.1 4.5
15 -5 -22 34.2 13.3
15 5 -22 28.6 11
15 5 -22 20.6 9.6
15 -5 22 32.4 13.4
16 0 22 -3.2 4.7
16 0 -22 7.7 6.7
16 0 -22 5 5.7
16 -1 -22 4.5 8.8
16 -1 -22 -7 3.8
16 1 22 1.2 4.9
16 1 -22 5.6 5.5
16 -1 22 -4.4 6.2
16 1 -22 -6.6 5.7
16 -2 -22 9.5 8.5
16 2 22 8.2 5.8
16 -2 -22 9.5 6.3
16 -2 22 14.4 9.2
16 2 -22 1.5 5.1
16 2 -22 22.5 12
16 3 22 41.7 7
16 -3 -22 36.9 9
16 -3 -22 31.9 12.5
16 3 -22 28.6 10.4
16 3 -22 32.7 12.9
16 -3 22 36.7 13.7
16 -4 -22 4.7 8.6
16 -4 -22 -1.2 3.2
16 4 -22 1.4 5.8
16 -4 22 -2.1 7
16 4 -22 1.7 7.6
17 0 -22 100.29 22.5
17 0 22 166.18 24
17 0 -22 117.39 19.9
17 1 22 70.89 13.7
17 -1 -22 47.8 16.5
17 -1 22 72.89 16.9
17 1 -22 55.59 17.4
17 1 -22 65.19 14.8
17 2 22 15.8 6.5
17 -2 -22 15.5 6.7
17 -2 -22 19.2 10.8
17 -2 22 20.1 10.2
17 2 -22 20.8 10.4
17 2 -22 17.3 7.9
17 3 22 -3.3 3.2
17 -3 -22 6.8 4.9
17 -3 -22 -1.8 7
17 -3 22 -5.1 6.3
17 3 -22 -2.2 7.6
17 3 -22 -2.9 5.7
17 -4 -22 14.1 5.6
17 -4 -22 7 9.9
17 4 -22 9.1 7.7
17 4 -22 18 9.7
17 -4 22 31.6 12.6
18 0 -22 -8.1 4.2
18 0 -22 10.2 10.2
18 0 22 -2.5 5.6
18 -1 -22 1.8 4.5
18 1 22 12.5 7.1
18 -1 -22 0 8.2
18 1 -22 -6.7 3.3
18 1 -22 -1.6 8.8
18 -1 22 -0.6 7
18 -2 -22 76.79 21
18 2 22 81.19 13.2
18 -2 -22 76.19 16.2
18 2 -22 61.69 15.4
18 -2 22 86.49 19.5
18 2 -22 89.89 21.9
18 3 22 -1.1 3.8
18 -3 -22 -2.3 7.4
18 -3 -22 12.7 5.3
18 3 -22 4.6 8.9
18 3 -22 4.3 7.8
18 -3 22 14.5 8.6
19 0 22 42.4 11.9
19 0 -22 37.4 14.9
19 0 -22 28.3 10.8
19 -1 -22 -0.1 4.9
19 -1 -22 5.7 9
19 -1 22 -3.7 5.7
19 1 -22 -1.9 8.8
19 1 -22 -1.8 5.6
19 -2 -22 3.5 4.4
19 -2 -22 9.4 10.3
19 2 22 13.5 7.9
19 -2 22 17.2 10.2
19 2 -22 2.5 7.9
19 2 -22 26.6 12.5
20 0 -22 29.7 9.8
20 0 22 35.9 12.4
20 0 -22 10 11.3
20 1 22 45.1 10.9
20 -1 -22 23.5 8.4
20 -1 -22 50.79 18.1
20 1 -22 5.7 11.5
20 -1 22 34.7 11.5
20 1 -22 20.4 8.2
0 0 23 6.1 4.8
0 0 -23 4 2.6
0 -1 -23 -3 1.7
0 -1 -23 1.5 3.2
0 1 -23 -2.4 1.6
0 -1 23 -7.5 3.6
0 -2 -23 20.5 4.9
0 -2 23 59.79 12.3
0 2 -23 22 5.4
0 -2 -23 19.4 6.2
0 -3 -23 0.4 2
0 -3 23 3.3 5.2
0 -3 -23 -1.2 2.8
0 3 -23 -1.9 2.4
0 -4 -23 187.28 16.9
0 -4 -23 181.38 18
0 -5 -23 -3.2 3.4
0 -5 -23 -2.9 2
0 -5 23 -2.9 6.5
0 5 -23 -0.3 3.6
0 -6 -23 138.59 12.5
0 6 -23 130.49 15.7
0 -6 -23 117.09 14.2
0 7 -23 -6.2 4.2
0 -7 -23 -4.3 4.2
0 -7 23 -7.6 5.3
0 -7 -23 1 2
-1 0 -23 -2.3 1.5
1 0 -23 -0.1 2
1 0 23 -4.7 2.9
1 -1 -23 4.2 2.2
-1 1 -23 2.2 2.5
-1 -1 23 -5.2 4
1 -1 -23 4.1 4.3
-1 -1 -23 4.2 3.5
-1 -1 -23 1.8 2
1 -1 23 6.2 6.2
1 1 -23 5.6 3.2
1 -2 -23 60.79 7.9
-1 2 -23 61.19 8.7
1 -2 -23 52.09 8.7
-1 -2 -23 48.5 9.9
1 2 -23 74.29 9.5
-1 -2 -23 66.29 8.1
1 -3 -23 393.76 35.7
-1 3 -23 450.65 36.5
1 -3 -23 454.65 34.9
-1 -3 -23 470.05 34.8
-1 -3 -23 372.26 36
1 3 -23 408.46 36.4
1 -4 -23 -3.9 2.5
-1 -4 23 5 5.7
1 -4 -23 0.1 2.4
-1 -4 -23 -2.7 2
-1 -4 -23 3 2.9
1 -4 23 3.6 6.2
1 -5 -23 20 4.3
-1 5 -23 7.3 4.6
1 -5 -23 13.9 4.5
-1 -5 23 37.3 12.1
-1 -5 -23 16 4.9
1 -5 23 32.8 11.6
1 5 -23 7.5 4.7
-1 -5 -23 15.6 3.9
-1 6 -23 15.3 5.6
1 -6 -23 12.4 6.3
-1 -6 23 20.8 9.7
1 -6 -23 13.1 3.8
1 -6 23 35.7 11.8
1 6 -23 8.5 5.4
-1 -6 -23 7.1 5.1
-1 -6 -23 15.9 4
1 -7 -23 22.4 4.1
-1 -7 23 24.4 9.8
-1 7 -23 26.6 7.4
-1 -7 -23 16.7 5.3
1 -7 23 47 14.5
1 7 -23 30.2 8
-2 0 -23 -1.4 2
2 0 -23 2.6 2.6
2 0 23 -6 3.4
2 -1 -23 4.6 2.7
-2 -1 23 -5.4 3.7
-2 1 -23 1 2.7
-2 -1 -23 -1.7 1.9
2 1 -23 -4.6 1.7
-2 -1 -23 6.1 5
2 -1 23 -2.5 4
-2 2 -23 14.9 4.7
2 -2 -23 16.3 4.6
-2 -2 23 30.6 9.6
2 -2 -23 16.6 5.1
2 -2 23 26.3 9.1
-2 -2 -23 13 5.5
2 2 -23 12.2 4.3
-2 -2 -23 19.9 4.7
-2 3 -23 67.39 9.7
2 -3 -23 78.79 10
2 -3 -23 84.29 9.6
-2 -3 -23 100.49 9.7
-2 -3 -23 62.49 9.9
2 3 -23 76.39 10.8
-2 -4 23 13.2 7.7
2 -4 -23 4.1 2.7
2 -4 23 4.8 6.6
-2 -4 -23 7.3 3.9
2 4 -23 -2 3.3
-2 -4 -23 5.7 2.9
2 -5 -23 -0.1 2.3
2 -5 -23 -7.2 3.3
-2 5 -23 -1.9 2.8
-2 -5 23 0.2 7.7
-2 -5 -23 2.3 2.2
2 5 -23 0.5 3.3
2 -5 23 3.4 7
-2 -5 -23 1.9 3.7
-2 -6 23 7.1 7.7
-2 6 -23 1.3 3.6
2 -6 23 3.5 8.3
-2 -6 -23 -1.4 2
2 6 -23 -2.6 2.6
-2 -6 -23 6.8 4.8
-2 7 -23 117.09 15.1
2 -7 -23 106.39 9.6
2 -7 -23 119.39 10.1
-2 -7 -23 110.89 12.4
-2 -7 -23 118.99 11
2 7 -23 105.39 15.2
3 0 23 -0.3 4
3 0 -23 -3.9 1.8
-3 1 -23 5.2 3
3 -1 -23 2.3 2.7
3 1 23 4.7 4.3
3 1 -23 2.3 3.2
3 -1 23 5.3 5.6
3 -2 -23 5.9 2.9
-3 -2 23 -1.9 4
-3 2 -23 0.8 2.8
3 2 -23 2 2.9
3 -2 23 3.1 5.2
-3 -2 -23 4.4 3.7
-3 3 -23 130.69 13.4
3 -3 -23 108.69 14.1
3 -3 -23 120.49 12.4
3 3 -23 94.99 13.2
-3 -3 -23 102.99 13.5
3 -4 -23 16.8 4.9
-3 -4 23 21.6 9.5
3 -4 -23 11.6 4.1
3 4 -23 3.5 4.5
3 -4 23 34.8 12.3
-3 -4 -23 11.5 4.7
-3 -5 23 0.4 6.1
3 -5 -23 0.6 1.7
-3 5 -23 0.4 3.5
3 5 -23 1 3.5
3 -5 23 -6.8 5.3
-3 -5 -23 5.7 4.2
-3 -6 23 17.2 8.6
-3 6 -23 2.6 3.2
3 -6 -23 2.2 2.3
3 -6 23 13.3 9.3
3 6 -23 1.4 3.9
-3 -6 -23 1.1 2.2
-3 -6 -23 5.1 4.3
-3 -7 23 30.2 12.1
-3 7 -23 22.6 6.6
-3 -7 -23 8.8 4.7
-3 -7 -23 12 3.4
3 -7 23 38.8 12.6
3 7 -23 21.5 7.6
4 0 23 -1.9 4
4 0 -23 0.9 2.3
4 1 23 28.9 7.1
-4 1 -23 17 4.9
4 -1 -23 26.1 6.1
4 1 -23 22.4 6.2
4 -1 23 43.7 10.3
-4 2 -23 12.1 4.6
4 -2 -23 12.2 4.2
-4 -2 23 30.3 9.4
4 -2 23 41.4 11.1
4 2 -23 19.9 5.5
-4 -2 -23 19.7 6.9
-4 3 -23 461.85 35.4
4 -3 -23 432.96 34.3
-4 -3 -23 346.47 35.8
4 3 -23 389.96 36
-4 4 -23 4 3.4
4 -4 -23 3.3 2.7
-4 -4 -23 15.9 5.5
4 4 -23 0.7 4.1
-4 5 -23 1.6 3.3
-4 -5 23 -1.4 7.3
4 -5 -23 4.7 2.6
4 -5 23 6.4 7.8
-4 -5 -23 8.1 5
4 5 -23 -0.2 4
-4 -6 23 14.7 8.1
-4 6 -23 1 3.9
4 -6 -23 -0.8 1.9
4 -6 23 4.9 8.7
-4 -6 -23 9.2 5.9
4 6 -23 -4.3 3.2
-4 7 -23 27 8
-4 -7 23 82.59 16
4 7 -23 21.8 8.6
4 -7 23 48.2 14.6
-4 -7 -23 39.4 5.9
5 0 23 1.7 4.7
5 0 -23 -0.8 2.5
5 -1 -23 12.1 4.6
5 1 23 17.6 6.4
5 -1 23 24.7 9
5 1 -23 5.1 3.5
-5 2 -23 4.8 2.7
5 -2 -23 -0.1 2.3
5 -2 23 -2.5 4.8
5 2 -23 6.2 4
5 -3 -23 177.68 17.6
-5 3 -23 203.28 18.6
5 3 -23 189.88 20.1
-5 -3 -23 151.58 21.2
5 -4 -23 4.9 3.3
-5 4 -23 9.8 4.4
-5 -4 23 23.1 11
-5 -4 -23 1.3 4.9
5 -4 23 10.5 9.2
5 4 -23 1.9 4
-5 -5 23 110.89 19.4
5 -5 -23 72.29 8.8
-5 5 -23 49.5 10.3
5 -5 23 107.59 20.2
5 5 -23 53.59 12.1
-5 6 -23 0 3.1
-5 -6 23 0.5 6.8
5 -6 -23 9.2 2.7
5 -6 23 5.9 9.3
5 6 -23 7.5 5.9
-5 7 -23 4.8 5.6
-5 -7 23 0.4 6.2
5 7 -23 6.4 4.8
5 7 -23 2.2 7.4
5 -7 23 4.2 8.7
6 0 -23 0.4 1.9
6 0 23 -2.9 4.2
6 -1 -23 806.92 64.99
6 1 -23 822.12 65.89
6 -2 -23 14.1 5
6 2 -23 20.6 6.6
6 -2 23 27.7 10.2
6 -3 -23 1.9 3
-6 3 -23 1.5 2.7
6 -3 23 4.2 7.1
6 3 -23 1.5 3.7
-6 -4 23 -1.6 4.7
-6 4 -23 -3.1 2.5
6 -4 -23 -5.8 2.4
6 -4 23 -6.2 5
6 4 -23 3.4 4.3
6 -5 -23 35.8 6.8
-6 -5 23 84.69 16.6
-6 5 -23 42 8.6
6 5 -23 35.3 10
6 -6 -23 20.6 3.7
-6 -6 23 29.9 11.3
-6 6 -23 8.5 4.5
6 -6 23 25 11.9
6 6 -23 16.8 6.7
7 0 23 3 5.3
7 0 -23 -1.9 2.5
7 -1 -23 230.18 23
7 1 -23 245.28 24
7 2 23 6.4 3.5
7 -2 -23 9.3 4.5
7 2 -23 7.9 4.5
7 -2 23 17.7 9.2
-7 3 -23 65.29 15.3
7 -3 -23 69.79 10.9
7 3 -23 50.69 16.7
-7 4 -23 10.4 4.8
7 -4 -23 6.4 3.8
7 4 -23 8.5 5.8
7 -4 23 20.1 9.7
-7 -5 23 14.1 8.3
-7 5 -23 17.8 5.9
7 -5 -23 12.1 3.8
7 5 -23 -2.1 5.2
7 -5 23 9.5 10.1
-7 -6 23 -10.8 4.5
7 -6 -23 1.9 2
-7 6 -23 -1.4 3.5
7 6 -23 -12 4.5
7 -6 23 2.9 6.7
8 0 23 7.1 6.2
8 0 -23 -1.3 2.7
8 1 23 107.09 13.2
8 -1 -23 63.89 11.8
8 -1 23 102.99 15.6
8 2 23 99.89 11.4
8 -2 -23 78.19 11.6
8 2 -23 67.99 13.3
8 -2 23 139.29 18.7
8 -3 -23 40.5 8.6
8 3 -23 59.39 12.2
8 -3 23 71.59 15.9
8 -4 -23 -4.1 2.6
-8 4 -23 2.3 3.8
8 4 -23 -2.3 4.3
8 -4 23 4 7.6
8 -5 -23 12.8 4
-8 5 -23 10.9 4.6
8 -5 23 14.4 10.6
8 5 -23 3.5 4.6
-8 6 -23 10.8 4.9
8 -6 -23 11.4 2.7
8 6 -23 5.7 7.7
8 -6 23 16.1 10
8 6 -23 11 5.6
9 0 -23 3.7 3.8
9 0 23 4.2 5.8
9 -1 -23 322.47 29.6
9 1 -23 295.37 30
9 -2 -23 3.1 4.3
9 2 23 0.4 3.6
9 -2 23 10 7.1
9 2 -23 -0.6 3.3
9 -3 -23 39.8 8.6
9 3 -23 65.89 13.2
9 -3 23 90.39 20.7
9 -4 -23 -5 2.6
-9 4 -23 2.8 3.9
9 -4 23 3.1 6.3
9 4 -23 4.4 5.7
-9 5 -23 4.3 3.5
9 -5 -23 6.5 3.5
9 5 -23 -1 4.3
9 -5 23 -4 6.2
-9 6 -23 6.9 3.8
9 -6 -23 1 1.7
9 6 -23 3.6 5.6
9 -6 23 8.1 6.9
9 6 -23 8.9 7.3
10 0 -23 5.6 3.9
10 0 23 0.7 5.6
10 1 23 27.6 8
10 -1 -23 27.7 7.6
10 -1 23 38.1 11.3
10 1 -23 28.2 8.2
10 2 23 59.99 9.1
10 -2 -23 34.7 8.9
10 -2 23 62.69 14.5
10 -3 -23 14.1 5.5
10 -3 23 28 11.2
10 3 -23 11.5 6.6
10 -4 -23 30.2 6.9
10 4 -23 31.5 10.3
10 -4 23 52.89 14.8
10 -5 -23 -0.6 2.9
-10 5 -23 1 3.5
10 -5 23 2.6 7.7
10 5 -23 -1.6 4.8
10 5 -23 -5.3 3.9
-10 6 -23 15 5.5
10 -6 -23 18.5 3
10 -6 23 21.9 11.5
10 6 -23 17 9.2
10 6 -23 13.5 8.1
11 0 -23 -2.6 3.1
11 0 23 -0.9 5.4
11 -1 -23 8.2 5.3
11 1 23 4 5.8
11 1 -23 0.2 4.5
11 -1 23 12.2 7.6
11 2 23 64.69 9.1
11 -2 -23 39.3 9.6
11 -2 23 49.5 15.4
11 2 -23 36.7 10
11 -3 -23 41.6 9.3
11 -3 23 104.09 19.9
11 3 -23 45.4 12.2
11 -4 -23 94.89 12.9
11 4 -23 102.59 20.2
11 -4 23 159.08 22.2
11 4 -23 97.89 18.1
-11 5 -23 8.5 4.8
11 -5 -23 8.1 3.7
11 -5 23 16.6 10.2
11 5 -23 1.1 6.3
11 5 -23 5.5 7.2
-11 6 -23 71.49 12.2
11 -6 -23 65.79 19.3
11 -6 -23 65.89 6.6
11 6 -23 66.29 15.2
11 6 -23 66.39 15.1
11 -6 23 129.09 23.9
12 0 23 -0.1 5.1
12 0 -23 -4.9 3.5
12 1 23 16.2 6.8
12 -1 -23 8.1 5.7
12 -1 23 15.2 8
12 1 -23 10.7 7.3
12 -2 -23 10.2 5.9
12 2 23 18.7 6.2
12 -2 23 38.7 12.5
12 2 -23 17 7.7
12 -3 -23 23.2 6.5
12 3 -23 27 9
12 -3 23 32.1 12.1
12 3 -23 13.2 8.5
12 -4 -23 74.39 12.5
12 -4 23 136.19 21
12 4 -23 105.29 20.8
12 4 -23 88.89 17.2
-12 5 -23 15.3 6.5
12 -5 -23 13 4.6
12 -5 -23 27.7 10.8
12 -5 23 51.19 14.5
12 5 -23 27.7 9.3
12 5 -23 33.4 11.9
13 0 23 0.3 5.1
13 0 -23 -1.6 4.7
13 1 23 288.37 27
13 1 -23 192.78 26.3
13 -1 23 289.37 30
13 -2 -23 1.8 4.2
13 2 23 -3.5 3.8
13 2 -23 5.3 7.2
13 2 -23 0.7 5.3
13 -2 23 -2.2 6.3
13 -3 -23 13.7 5.1
13 -3 23 9.6 9.4
13 3 -23 4.1 5.1
13 3 -23 -3.4 6.5
13 -4 -23 2.3 7.7
13 -4 -23 -3.3 2.8
13 4 -23 3.7 5.2
13 -4 23 3.1 8.5
13 4 -23 7 8.3
13 -5 -23 15.7 8.9
13 -5 -23 7.5 3.9
13 5 -23 24.7 9.7
13 -5 23 17.5 10.6
13 5 -23 9.4 6.7
14 0 -23 7.7 8.3
14 0 23 4.5 5.6
14 -1 -23 8.2 7.2
14 1 23 5.4 6.3
14 -1 -23 7.9 6
14 1 -23 10.2 8.7
14 -1 23 17.9 9.3
14 1 -23 2.5 4.7
14 -2 -23 15.1 6.8
14 2 23 10.5 5.4
14 -2 -23 6.5 8.5
14 2 -23 9.5 6.4
14 2 -23 28.8 12.5
14 -2 23 6.6 8.5
14 -3 -23 21.5 8
14 -3 -23 37.6 13.8
14 3 -23 48.5 15.9
14 -3 23 59.09 16.4
14 3 -23 53.49 13.4
14 -4 -23 11.7 5.8
14 -4 -23 18.3 11.2
14 -4 23 29.7 11.3
14 4 -23 23.1 10
14 4 -23 30.2 11.9
14 -5 -23 -6.7 7.3
14 -5 -23 3.8 3.8
14 5 -23 14.4 8.5
14 -5 23 8.9 7.6
14 5 -23 10.1 7.2
15 0 -23 0.5 7.4
15 0 -23 -4.7 3.5
15 0 23 5.3 6.2
15 -1 -23 143.49 19.4
15 -1 -23 165.48 26.3
15 1 -23 181.68 26.8
15 1 -23 141.59 20.6
15 -1 23 220.48 24.7
15 -2 -23 -5.1 3.3
15 -2 -23 3.5 7.2
15 2 23 1.5 4.5
15 -2 23 -1.6 5.7
15 2 -23 6.9 5.8
15 2 -23 5.2 8.3
15 -3 -23 7 5.4
15 3 23 2.9 4.6
15 -3 -23 19.7 11.3
15 3 -23 8.2 7.3
15 -3 23 -2.1 6.3
15 3 -23 17.7 9.6
15 -4 -23 29.8 6.8
15 -4 -23 21.7 11.3
15 4 -23 28.8 9.8
15 4 -23 22.7 11.4
15 -4 23 35.9 12.8
16 0 -23 -2.7 4.4
16 0 -23 1.1 8
16 0 23 -4 10.8
16 -1 -23 70.29 19.4
16 -1 -23 107.49 23.1
16 1 23 123.89 16.9
16 1 -23 88.89 17.4
16 1 -23 104.59 23.5
16 -1 23 126.49 18.8
16 -2 -23 -4.3 7.8
16 2 23 0.9 5
16 -2 -23 3.4 4.9
16 -2 23 12.2 7.8
16 2 -23 -0.5 7.9
16 2 -23 11.8 6.5
16 -3 -23 274.77 34.5
16 -3 -23 196.08 24.9
16 3 23 291.87 22.8
16 -3 23 318.57 33.8
16 3 -23 240.98 29.7
16 3 -23 193.98 31.3
16 -4 -23 29.7 7.2
16 -4 -23 67.39 17.6
16 4 -23 33.1 12.5
16 4 -23 23.6 9.5
16 -4 23 54.69 15.8
17 0 -23 1.6 8.2
17 0 23 -6.1 4.7
17 0 -23 1.7 5.1
17 -1 -23 -4.9 4
17 1 23 -3.4 6.1
17 -1 -23 9.7 8.5
17 1 -23 6.6 7.4
17 1 -23 4.7 3.4
17 -1 23 10.8 8.4
17 2 23 14 6.6
17 -2 -23 8.7 8.9
17 -2 -23 4.9 6.4
17 2 -23 18.4 12
17 2 -23 21.4 8.8
17 -2 23 11.9 9.8
17 -3 -23 205.68 24.1
17 -3 -23 255.87 33.4
17 3 -23 201.28 28.1
17 3 -23 235.98 32.9
17 -3 23 301.67 32.9
18 0 -23 -1 7.5
18 0 23 -3.5 6.1
18 0 -23 -5.3 5.5
18 -1 -23 11 15.3
18 1 23 24.5 10.7
18 -1 -23 8.8 6
18 -1 23 26.5 11
18 1 -23 21.1 12.2
18 1 -23 8.8 6.3
18 -2 -23 34.6 8.7
18 -2 -23 27.6 11.8
18 2 23 35 9.5
18 -2 23 36.1 12.8
18 2 -23 29.5 11.4
18 2 -23 51.29 15.4
18 -3 -23 67.39 18.3
18 -3 -23 39.7 10.6
18 3 23 79.59 10
18 3 -23 69.99 18.1
18 -3 23 96.69 19.3
18 3 -23 61.39 15.7
19 0 23 -7.9 5.5
19 0 -23 -10.5 4.4
19 0 -23 -3 7.7
19 -1 -23 10 5.9
19 -1 -23 18.3 12.3
19 1 23 14 7.4
19 1 -23 -3.7 5.5
19 1 -23 5.2 10
19 -1 23 8.8 8.1
19 -2 -23 40.3 15.1
19 -2 -23 23.9 7.9
19 2 23 63.09 12.1
19 2 -23 44.9 15.5
19 2 -23 18.5 9.1
19 -2 23 51.19 14
0 0 -24 272.87 24.3
0 1 -24 -1.1 2.5
0 -1 -24 0.2 2.2
0 -1 24 -8.9 3.7
0 -2 24 58.29 12.6
0 2 -24 25.5 6.2
0 -2 -24 33.7 6.4
0 3 -24 -4.1 2.3
0 -3 24 -8 4.8
0 -3 -24 0.1 2.2
0 -4 -24 92.49 10.1
0 4 -24 86.89 12
0 5 -24 0.1 3.7
0 -5 -24 0.7 2.6
0 -5 24 15.9 9.1
0 6 -24 99.89 13.8
0 -6 -24 105.79 10.8
1 0 -24 145.69 14.3
-1 0 -24 118.69 13.3
1 -1 -24 205.68 18.8
-1 1 -24 198.48 19
1 1 -24 184.88 18.9
-1 -1 -24 200.48 18.5
-1 2 -24 81.59 10.5
1 -2 -24 94.19 10.3
1 2 -24 79.79 10.5
-1 -2 -24 79.69 9.7
-1 3 -24 0.7 2.4
-1 -3 24 11 7.6
1 -3 -24 1.3 2.7
1 3 -24 4.1 3.9
-1 -3 -24 -1.2 1.8
1 -3 24 -4.7 5.1
1 -4 -24 45.1 7.5
-1 4 -24 45.5 9
-1 -4 24 98.79 17.3
-1 -4 -24 40.4 6.7
1 4 -24 42.6 9.2
1 -4 24 101.99 17.8
-1 5 -24 379.66 35.2
1 -5 -24 411.96 32.6
-1 -5 -24 406.96 32.5
1 5 -24 380.66 35.8
-1 6 -24 12.2 6.1
-1 -6 24 34.3 12
1 -6 -24 8.7 3.3
1 -6 24 28.1 11.8
-1 -6 -24 18.2 4.2
1 6 -24 4.9 4.7
-2 0 -24 83.69 9.8
2 0 -24 72.59 9.8
2 -1 -24 35.8 7.1
-2 -1 24 73.99 13.2
-2 1 -24 29.9 6.4
-2 -1 -24 37.1 6.8
2 -1 24 66.29 12.7
2 1 -24 37.1 7.7
-2 2 -24 5.4 2.9
-2 -2 24 2.8 5.4
2 -2 -24 2.1 2.8
-2 -2 -24 5.5 2.9
2 -2 24 -2.4 5.5
2 2 -24 -2.6 2.4
-2 -3 24 17.8 8.3
-2 3 -24 9 5.6
2 -3 -24 10.5 3.9
2 -3 24 22.5 9.3
-2 -3 -24 8.7 3.5
2 3 -24 5.6 5
-2 4 -24 2.6 3.6
-2 -4 24 -0.1 6
2 -4 -24 1.5 2.7
2 -4 24 3.4 6.4
2 4 -24 -3.5 2.9
-2 -4 -24 -0.9 2.4
-2 -5 24 8.1 8
-2 5 -24 2.9 3.6
2 -5 -24 0.4 2.6
-2 -5 -24 4.6 3
2 -5 24 7.4 8.8
2 5 -24 3.4 3.3
2 -6 -24 43.9 6.5
-2 6 -24 54.19 10.6
-2 -6 -24 53.59 7
2 -6 24 106.49 19.5
2 6 -24 45.9 10.2
-3 0 -24 25.2 6
3 0 24 50.59 10.1
3 0 -24 32.1 7.1
-3 1 -24 -3.8 2.5
3 -1 -24 1.3 2.5
-3 -1 -24 -4.1 1.7
3 1 -24 2 2.9
3 -1 24 2.7 6
-3 2 -24 43.1 8
-3 -2 24 60.99 13
3 -2 -24 37.5 7.5
3 2 -24 32.1 7.7
3 -2 24 76.09 15
-3 3 -24 6.1 6.3
3 -3 -24 0 2.8
-3 -3 24 -1.1 5.6
3 -3 24 -1.3 6.5
-3 -4 24 24.1 9.8
-3 4 -24 8.5 4
3 -4 -24 5.5 3.3
3 -4 24 26.1 10.8
3 4 -24 5 4.1
-3 -5 24 53.49 13.8
-3 5 -24 27.8 7
3 -5 -24 23.6 5.1
3 5 -24 16.6 6.6
3 -5 24 48.8 14.5
-3 -5 -24 22.2 4.9
-3 6 -24 14.4 5.2
-3 -6 24 36.3 12.8
3 6 -24 24.2 7.9
-3 -6 -24 15.9 4.4
3 -6 24 32.8 12
4 0 -24 59.19 10.5
4 0 24 85.39 12.5
4 1 24 42.9 8.9
4 -1 -24 36.2 7.3
-4 1 -24 32.3 6.7
4 1 -24 34 7.6
4 -1 24 62.79 13.1
-4 2 -24 162.38 16.3
4 -2 -24 148.19 15.7
4 2 -24 151.58 17
4 -3 -24 -1.3 2.4
-4 -3 24 0.1 5.6
4 -3 24 1.1 5.8
4 3 -24 3.2 5.3
-4 4 -24 91.89 11.4
4 -4 -24 78.19 9.9
4 4 -24 73.99 13.1
4 -5 -24 166.28 15.8
-4 5 -24 164.28 17.9
4 5 -24 153.88 18.7
4 -6 -24 9.8 3.1
-4 -6 24 -1.7 6
-4 6 -24 0.1 3.6
-4 -6 -24 0 2.5
4 -6 24 5.8 8.7
4 6 -24 3.6 5
5 0 -24 0.6 2.9
5 0 24 -2.8 4.2
5 -1 -24 -4.1 2.1
5 1 24 -2.1 3.5
5 1 -24 -0.4 2.6
5 -1 24 0.3 4.7
-5 2 -24 55.29 9.8
5 -2 -24 52.09 9.1
5 -2 24 94.19 16.4
5 2 -24 51.49 10.4
-5 -3 24 25.9 11.6
-5 3 -24 24.2 6
5 -3 -24 21 5.1
5 -3 24 34.3 11.3
5 3 -24 11.2 5.6
5 -4 -24 12.3 4.5
-5 -4 24 26 10.6
-5 4 -24 15.5 5.3
5 -4 24 32.4 11.5
5 4 -24 8.9 5
-5 5 -24 248.68 22.9
5 -5 -24 225.78 20.6
5 5 -24 196.78 23.5
-5 6 -24 11.8 5.9
5 -6 -24 12.8 3.4
-5 -6 24 27.3 11.3
5 -6 24 29.1 11.8
5 6 -24 13.9 6.6
6 0 -24 31.2 7.9
6 0 24 48.1 10.8
6 -1 -24 156.28 16.6
6 1 -24 152.08 17.3
6 -2 -24 6.8 3.9
-6 2 -24 7.1 4.1
6 2 -24 7.5 4.2
6 -2 24 5.3 6.8
6 -3 -24 15.1 4.7
-6 3 -24 10.2 4.2
6 -3 24 15.5 16
6 3 -24 -0.1 3.3
6 -4 -24 25.9 6.5
-6 4 -24 49.6 8.8
6 -4 24 86.39 17.9
6 4 -24 39.3 9.5
-6 -5 24 67.79 16.3
-6 5 -24 30.4 7.6
6 -5 -24 35.4 6.9
6 -5 24 62.59 15.7
6 5 -24 26.8 9
-6 6 -24 9.9 5.5
-6 -6 24 23.7 11
6 -6 -24 12.8 3.3
6 6 -24 8 5.3
6 -6 24 28.2 11.6
7 0 -24 513.65 44
7 -1 -24 224.78 22.4
7 1 -24 229.08 23.4
7 -2 -24 26.4 6.7
7 2 24 25 6.1
7 2 -24 17.8 6.8
7 -2 24 56.39 13.6
7 -3 -24 30.4 7
-7 3 -24 19.8 6.1
7 3 -24 32.3 8.5
7 -3 24 62.59 15
-7 4 -24 13.8 5.7
7 -4 -24 20.9 5.8
7 4 -24 16.9 6.8
7 -4 24 39.1 12.5
-7 5 -24 126.09 14.4
7 -5 -24 110.59 12.7
7 5 -24 111.29 15.9
-7 6 -24 1.6 3.9
-7 -6 24 -12.1 5.3
7 -6 -24 3.6 2.2
7 -6 24 8.9 8.8
7 6 -24 -3 4.5
8 0 -24 124.09 15.4
8 1 24 28.6 7.6
8 -1 -24 13.9 6.2
8 1 -24 20 6.9
8 -1 24 42.3 10.8
8 -2 -24 220.78 25
8 2 24 306.97 25.2
8 2 -24 169.18 33.6
8 -2 24 370.26 33.2
8 -3 -24 17.9 5.7
8 3 -24 12.6 6.7
8 -3 24 34.4 12
-8 4 -24 152.88 16.3
8 -4 -24 123.69 15
8 4 -24 143.09 18.4
8 -5 -24 24.9 6
-8 5 -24 32.7 7.7
8 5 -24 26.5 8.5
8 -5 24 64.09 15.3
8 -6 -24 4.4 2
-8 6 -24 6.2 3.5
8 -6 24 7.2 10.1
8 6 -24 6.2 5.1
8 6 -24 2 5.8
9 0 -24 129.69 16.2
9 -1 -24 268.27 25
9 1 -24 213.68 24.5
9 2 24 88.69 10.9
9 -2 -24 76.49 12.6
9 2 -24 59.09 13
9 -2 24 102.09 18.3
9 -3 -24 40 8.6
9 3 -24 35.6 10.1
9 -3 24 85.09 16.8
9 -4 -24 27.3 7.2
-9 4 -24 52.69 9.8
9 4 -24 38.1 10.8
9 -4 24 88.09 18.1
9 -5 -24 96.79 11.3
-9 5 -24 104.99 13.2
9 5 -24 74.59 15.6
-9 6 -24 23.8 7.4
9 -6 -24 22 3.8
9 -6 24 31.8 12.3
9 6 -24 16.8 10.3
10 0 -24 5.8 5.1
10 0 24 4 5.7
10 -1 -24 -1.4 3.2
10 1 24 -0.2 4.4
10 -1 24 -2 6.2
10 1 -24 1.3 4.3
10 -2 -24 30.3 7.3
10 2 24 26.5 6.6
10 2 -24 12.4 6.3
10 -3 -24 13 4.6
10 3 -24 22 7.5
10 -3 24 33.6 11.8
-10 4 -24 -4 2.5
10 -4 -24 -5.2 2.6
10 4 -24 3.2 4.7
10 -4 24 3.4 6.2
-10 5 -24 29.7 7.7
10 -5 -24 22.6 5.8
10 5 -24 26.4 8.9
10 5 -24 44.6 13.2
10 -5 24 56.09 14.8
11 0 -24 131.59 17.1
11 1 24 0.4 4.5
11 -1 -24 -2.2 3.6
11 -1 24 -3.5 6.4
11 1 -24 -4.3 3.8
11 -2 -24 258.07 26.5
11 2 -24 272.87 28.5
11 -3 -24 1.6 3.8
11 3 -24 -2.4 4.7
11 -3 24 -0.3 5.1
11 -4 -24 16.6 5.6
11 4 -24 31.2 12.1
11 -4 24 43 14.6
11 4 -24 29.5 10.1
-11 5 -24 42.6 9.5
11 -5 -24 37.3 6.7
11 5 -24 29.9 10.5
11 5 -24 38 12.5
11 -5 24 63.29 17
12 0 24 -2.6 4.9
12 0 -24 4.9 4.2
12 1 24 7.6 5.9
12 -1 -24 11.9 6.4
12 -1 24 8.2 7.4
12 1 -24 -0.4 4.3
12 -2 -24 45.8 10.5
12 2 24 84.99 10.7
12 2 -24 45.4 12.6
12 -2 24 81.79 16.7
12 -3 -24 7.5 4.9
12 -3 24 -7.5 6.7
12 3 -24 2.8 6
12 -4 -24 35.7 7.8
12 -4 24 85.19 18.1
12 4 -24 29.2 10.4
12 4 -24 58.89 15.4
-12 5 -24 117.29 14.5
12 -5 -24 75.99 10.2
12 -5 -24 102.69 21
12 5 -24 71.89 17.1
12 -5 24 146.89 21.7
12 5 -24 83.79 17.2
13 0 -24 41.8 11.9
13 0 24 71.39 14
13 1 24 41.5 9.7
13 -1 -24 27.5 8.9
13 1 -24 20.7 7.8
13 -1 24 36.5 12.2
13 -2 -24 -3.4 3.7
13 2 24 -5 3.3
13 -2 24 -11 4.5
13 2 -24 0.7 5.7
13 2 -24 0.8 5.4
13 -3 -24 161.38 17.9
13 3 -24 113.19 21
13 3 -24 161.08 24.3
13 -4 -24 50.29 15.8
13 -4 -24 45.9 9.2
13 4 -24 35.5 11.2
13 -4 24 82.49 18.3
13 4 -24 55.19 15.4
-13 5 -24 9.2 6
13 -5 -24 10.7 9.8
13 -5 -24 11.9 3.8
13 5 -24 17.8 8.8
13 5 -24 16.9 8.3
13 -5 24 6.7 9.7
14 0 -24 77.39 16.3
14 0 -24 96.99 22.3
14 0 24 120.79 17
14 -1 -24 9.1 6.7
14 1 24 20.8 8.2
14 1 -24 22.2 7.7
14 -1 24 25.4 9.6
14 1 -24 29.8 11.9
14 -2 -24 -4.1 5.9
14 2 24 0.3 4.5
14 -2 -24 2.6 4.1
14 2 -24 2.3 5.3
14 2 -24 0.2 6.9
14 -2 24 -2.6 6.2
14 -3 -24 0.5 4.6
14 -3 -24 0.4 6.9
14 3 -24 5.1 6.9
14 3 -24 -3.2 5.1
14 -4 -24 15.3 5.8
14 -4 -24 42.6 14.6
14 -4 24 29.2 11.7
14 4 -24 28.1 11.6
14 4 -24 13.5 8.3
15 0 -24 17.8 10.6
15 0 -24 2.3 5
15 -1 -24 90.29 22.3
15 -1 -24 85.69 16
15 1 -24 97.69 22
15 1 -24 89.69 17.4
15 -1 24 139.39 18.8
15 -2 -24 119.79 24
15 -2 -24 93.89 16.5
15 2 -24 109.79 23.1
15 2 -24 162.18 20.5
15 -3 -24 37.4 13.2
15 -3 -24 32 8.4
15 3 -24 34.4 12.2
15 3 -24 22.4 10.1
15 -3 24 21.8 11.1
15 -4 -24 58.19 11.1
15 -4 -24 79.49 19.5
15 4 -24 71.29 17.7
15 -4 24 92.29 18.8
15 4 -24 76.89 16.5
16 0 -24 77.59 16.1
16 0 -24 112.49 23.8
16 0 24 127.99 18.2
16 -1 -24 12.7 10.6
16 -1 -24 9 5.6
16 1 24 4.7 7.2
16 -1 24 12.5 8.2
16 1 -24 8.2 4.4
16 1 -24 6.9 8.9
16 -2 -24 43.4 14.7
16 -2 -24 34.9 12
16 2 -24 42.8 11.7
16 -2 24 66.29 17
16 2 -24 28.2 14.3
16 -3 -24 10.6 10
16 3 24 1.4 3.5
16 -3 -24 5.5 5.3
16 3 -24 1.8 6.4
16 -3 24 7.1 9
16 3 -24 0.5 9
17 0 24 2.4 7.5
17 0 -24 -7.2 5.7
17 0 -24 -7.3 7.5
17 -1 -24 22 11.8
17 -1 -24 26.8 8.6
17 1 24 58.29 12.3
17 1 -24 31 13.1
17 -1 24 65.59 14.8
17 1 -24 50.99 13
17 -2 -24 74.59 14.1
17 -2 -24 102.39 22.3
17 2 24 114.59 14.5
17 -2 24 102.29 20.8
17 2 -24 91.39 23
17 2 -24 79.59 17.3
18 0 -24 50.89 17.2
18 0 24 95.19 17.5
18 0 -24 58.49 14.3
18 -1 -24 -16.4 7.4
18 1 24 -6.1 5.4
18 -1 -24 3.7 5.7
18 -1 24 -5.5 6.6
18 1 -24 -4.3 5.8
18 1 -24 -7.6 4.8
18 -2 -24 3.7 8.6
18 -2 -24 -7.8 4.2
18 2 24 -8.9 4.3
18 2 -24 -1.5 5.5
18 -2 24 -0.5 6.6
18 2 -24 7.9 9.3
0 0 -25 6.5 3.4
0 -1 -25 -0.5 2.4
0 -1 25 0.4 5.2
0 1 -25 -1.8 2.1
0 2 -25 14.3 5.2
0 -2 -25 13.1 4.4
0 -2 25 25.1 8.5
0 -3 -25 -3.1 1.8
0 3 -25 0.7 3
0 -4 -25 4 3
0 -4 25 18.4 9.1
0 4 -25 9.4 4.5
0 -5 -25 1.9 2.5
0 5 -25 -0.5 3.2
0 -5 25 2.7 7.8
0 -6 25 30.9 10.9
0 6 -25 6.6 4.8
0 -6 -25 2.6 2.7
1 0 -25 1.5 2.4
1 0 25 -6.3 3.5
-1 0 -25 2.6 2.6
-1 -1 25 19.4 8.2
-1 1 -25 16.1 4.6
1 -1 -25 20.6 5.4
1 -1 25 14.8 7.7
-1 -1 -25 19.1 4.8
1 1 -25 12.1 4.8
-1 -2 25 2.1 5.4
1 -2 -25 5.7 3.4
-1 2 -25 5.3 3.3
1 -2 25 6.1 5.8
1 2 -25 1.2 2.7
-1 -2 -25 7.2 3.4
-1 3 -25 368.46 32.4
1 -3 -25 346.67 30.6
1 3 -25 371.66 32.8
-1 -3 -25 377.86 30.7
-1 -4 25 63.69 14.7
-1 4 -25 20.8 6.5
1 -4 -25 26.8 5.8
1 -4 25 48.3 12.7
-1 -4 -25 20.8 5.2
1 4 -25 24.1 6.9
1 -5 -25 3 3
-1 5 -25 -1.2 3
-1 -5 25 7.2 7.4
-1 -5 -25 1.1 2.4
1 5 -25 -4.6 3.1
1 -5 25 13.4 8.9
-1 6 -25 19.9 7
-1 -6 25 23.9 10.4
1 -6 -25 10.1 3.6
1 -6 25 31.5 11.7
-1 -6 -25 14.8 4.2
1 6 -25 3 4.5
2 0 -25 2.9 2.5
-2 0 -25 1.5 2.7
2 0 25 -4.7 3.8
-2 1 -25 125.99 13.3
2 -1 -25 115.19 12.9
-2 -1 -25 112.29 12.5
2 1 -25 113.29 13.3
-2 2 -25 45.2 9.3
2 -2 -25 39.9 7.5
-2 -2 25 67.89 14.1
2 -2 25 88.69 15.5
-2 -2 -25 33.8 6.7
2 2 -25 38.3 8.2
2 -3 -25 48.6 8.1
-2 3 -25 58.09 9.7
2 3 -25 48.1 9.5
-2 -3 -25 48 7.9
2 -4 -25 6.1 3.4
-2 -4 25 17.1 9.7
-2 4 -25 0.5 2.9
-2 -4 -25 2.8 2.8
2 -4 25 24.1 10.4
2 4 -25 6.7 4.5
-2 5 -25 -4.1 2.7
2 -5 -25 -1.6 2.4
-2 -5 25 5.4 7.6
2 5 -25 3.3 3.6
-2 -5 -25 -2.7 2
2 -5 25 1.8 6.9
-2 6 -25 -4 3
2 -6 -25 0.5 2.1
-2 -6 25 5 6.6
-2 -6 -25 -1.1 2.3
2 6 -25 -0.6 3.9
2 -6 25 9.3 8.8
3 0 25 -1.5 4
3 0 -25 -0.4 2.9
-3 0 -25 3.2 2.7
-3 1 -25 11.5 4.2
3 -1 -25 10.9 4.2
3 -1 25 12.8 8
3 1 -25 13.4 4.8
-3 -1 -25 5.6 3.6
-3 -2 25 4.6 5.7
3 -2 -25 1.2 2.7
3 -2 25 3.7 5.7
-3 -2 -25 4 3
3 2 -25 0.8 3.1
-3 3 -25 239.28 22.8
3 -3 -25 213.48 21.4
-3 -3 -25 235.48 21.3
3 3 -25 274.67 24.4
-3 4 -25 5 3.9
-3 -4 25 14.2 8.5
3 -4 -25 -0.1 2.5
3 -4 25 5.4 7.3
3 4 -25 2.2 4.1
-3 -4 -25 0.5 2.6
-3 5 -25 5 4
-3 -5 25 -3.1 6.5
3 -5 -25 -4.3 2.6
3 -5 25 1.7 7.7
-3 -5 -25 -0.1 2.7
-3 6 -25 -0.8 3.7
3 -6 -25 3.7 2.8
-3 -6 25 7.5 7.1
-3 -6 -25 2.1 2.4
3 -6 25 2.1 7.3
3 6 -25 -0.9 4.7
4 0 -25 -1 2.2
-4 0 -25 -2.1 2.1
4 0 25 -3.4 4.3
4 1 25 17.5 6.3
4 -1 -25 13.8 4.7
-4 1 -25 9.8 4.2
4 -1 25 31.6 9.8
4 1 -25 17.6 6.1
-4 2 -25 79.69 13.9
4 -2 -25 93.39 11.2
4 2 -25 97.89 20.1
4 -3 -25 178.48 17.2
-4 3 -25 175.28 17.9
4 3 -25 158.78 18.6
4 -4 -25 209.18 20.4
-4 4 -25 233.58 22.3
4 4 -25 229.58 23.6
4 -5 -25 15.1 4.5
-4 -5 25 22.9 10.5
-4 5 -25 9.9 5.2
4 5 -25 7.6 5
4 -5 25 30.3 11.9
-4 -6 25 136.29 19.6
4 -6 -25 81.79 9.5
-4 6 -25 81.89 13.4
-4 -6 -25 75.19 9.4
4 6 -25 73.89 14.3
5 0 -25 -3.3 2.5
5 0 25 -2.6 3.6
-5 1 -25 16.6 5.3
5 -1 -25 14 5.3
5 1 25 27.5 7.2
5 1 -25 13 5.9
5 -1 25 24.2 8.5
-5 2 -25 6.6 4.2
5 -2 -25 1.8 3.4
5 -2 25 11.2 8.1
5 -3 -25 184.98 17.3
-5 3 -25 155.18 17.1
5 3 -25 148.19 18.3
-5 -4 25 65.19 15.3
5 -4 -25 29.2 6.9
-5 4 -25 53.39 9.9
5 -4 25 58.39 14.5
5 4 -25 32.5 8.4
5 -5 -25 26.8 6.3
-5 -5 25 65.99 15.5
-5 5 -25 29.7 7.4
5 5 -25 36 9
5 -5 25 70.59 16.2
-5 6 -25 19.7 7.4
-5 -6 25 38.7 11.8
5 -6 25 53.49 14.9
5 6 -25 21.4 8.4
6 0 -25 -4.1 2.4
6 0 25 -4.4 3.9
6 1 25 40.5 9.2
6 -1 -25 21.4 6.4
6 1 -25 34.6 8.2
6 -1 25 52.89 12.1
-6 2 -25 -1.2 2.8
6 -2 -25 3.9 3.9
6 2 -25 5.3 4.6
6 -2 25 -0.6 5.5
6 -3 -25 0.3 3.2
-6 3 -25 3.4 4
6 -3 25 14.2 8.7
6 3 -25 0.8 3.9
-6 4 -25 7.5 4.6
6 -4 -25 2.7 3.4
6 -4 25 16.3 9.6
6 4 -25 3.1 4.6
6 -5 -25 16.5 5
-6 5 -25 19.8 6.4
-6 -5 25 41.1 13
6 -5 25 35.1 13.3
6 5 -25 8.5 5.6
6 -6 -25 3 2.2
-6 -6 25 11.6 8.6
-6 6 -25 4.3 5
6 -6 25 -7 8.3
6 6 -25 1.7 4.2
7 0 25 9.2 6.3
7 0 -25 0.2 3.3
7 1 25 155.28 17.1
7 -1 25 176.98 20.6
7 1 -25 106.99 15.7
7 -2 -25 -5.9 2.6
7 2 -25 -2.4 2.8
7 -2 25 -4.9 4.5
7 -3 -25 111.99 13.7
-7 3 -25 126.79 14.4
7 3 -25 116.59 15.6
-7 4 -25 3.2 4.1
7 -4 -25 1.8 3.1
7 4 -25 4.2 4.8
7 -4 25 24.7 11.3
-7 5 -25 11.3 5.5
7 -5 -25 -0.9 3.1
7 5 -25 2.8 3.9
7 -5 25 12 9.2
-7 6 -25 38.4 9.3
7 -6 -25 37.8 5.4
7 -6 25 61.29 16.2
7 6 -25 28.5 9.7
8 0 25 7.8 6.2
8 0 -25 -1.5 3.8
8 1 25 100.89 13
8 -1 -25 64.29 12.2
8 1 -25 49 13.1
8 -1 25 105.99 16
8 2 25 -0.2 3
8 -2 -25 6.4 4.2
8 2 -25 9.4 5
-8 3 -25 90.19 12.1
8 -3 -25 92.79 12.2
8 -4 -25 42.4 8.1
-8 4 -25 53.39 9.9
8 4 -25 38.2 10.4
8 -4 25 99.69 18.9
-8 5 -25 160.18 16.7
8 -5 -25 113.89 14
8 5 -25 137.19 18.1
9 0 25 4.3 5.9
9 0 -25 3.1 3.6
9 -1 -25 40.4 10
9 1 25 69.49 11.9
9 -1 25 73.39 14.8
9 1 -25 46.1 10.8
9 -2 -25 198.18 23.1
9 2 25 284.97 23.1
9 2 -25 209.78 24.6
9 -3 -25 254.37 25.2
9 3 -25 276.87 28.5
-9 4 -25 21.7 6.6
9 -4 -25 9.8 4.9
9 -4 25 18.3 10.3
9 4 -25 21.2 8.1
-9 5 -25 19.6 6.5
9 -5 -25 22.8 5.6
9 -5 25 41.6 13.7
9 5 -25 11.1 6.8
10 0 -25 -5 3.7
10 0 25 -2.2 4.9
10 1 25 -5.4 3.9
10 -1 -25 3.6 4.5
10 -1 25 4.2 7
10 1 -25 7.3 4.7
10 2 25 3.4 4.3
10 -2 -25 5.9 4.8
10 2 -25 11.3 6.4
10 -2 25 1 7
10 -3 -25 9.9 4.8
10 3 -25 14.7 7
10 -3 25 22.8 10.5
10 -4 -25 -2.9 3.5
-10 4 -25 1.7 3.7
10 -4 25 12.7 9.8
10 4 -25 0.9 5.5
-10 5 -25 26.8 7.5
10 -5 -25 20.8 5.7
10 -5 25 55.79 15.6
10 5 -25 35.8 11
10 5 -25 21.4 8.5
11 0 25 -6.8 3.9
11 -1 -25 19.7 7
11 1 25 33.1 8.6
11 1 -25 12.7 6.7
11 -2 -25 17.7 6.4
11 2 25 26.7 6.6
11 -2 25 29.3 10.9
11 2 -25 22 8.3
11 -3 -25 70.49 12.2
11 3 -25 64.59 14
11 -3 25 129.29 22
11 -4 -25 5.7 4.2
11 -4 25 11.4 10.1
11 4 -25 -0.9 5.8
-11 5 -25 -8.9 3.3
11 -5 -25 2.1 2.9
11 5 -25 6.1 8.1
11 5 -25 -0.3 4.7
11 -5 25 9.8 8.4
12 0 -25 -4.5 3.5
12 0 25 -7.1 5.8
12 -1 -25 0.3 3.4
12 1 25 -5.3 4.1
12 1 -25 1.4 5.5
12 -1 25 -4.3 5.7
12 -2 -25 0.6 4.7
12 2 25 5.1 4.4
12 2 -25 -1.8 4.2
12 -2 25 4.2 6.4
12 -3 -25 2.7 4.4
12 -3 25 1.1 7.9
12 3 -25 -0.9 4.5
12 -4 -25 17.3 5.9
12 -4 25 16.4 10.6
12 4 -25 34.3 12.4
12 4 -25 16.7 7.7
13 0 25 -5 5.2
13 0 -25 0.6 5.1
13 1 25 15.7 7.8
13 1 -25 23 7.9
13 -1 25 19.7 8.9
13 2 25 6.4 5.3
13 -2 -25 7.7 5.5
13 2 -25 7 6.8
13 -2 25 4.1 7.3
13 -3 -25 25.2 7.2
13 3 -25 24.4 10.2
13 3 -25 35.6 14.2
13 -3 25 33 12.1
13 -4 -25 7.1 4.6
13 -4 -25 11.2 9.5
13 4 -25 13.1 7.5
13 4 -25 -5.5 6.8
13 -4 25 16.6 9.2
14 0 25 -12.3 5.7
14 0 -25 0.1 4.3
14 1 25 70.29 12.9
14 1 -25 63.99 17.6
14 1 -25 52.99 13.8
14 -1 25 60.39 15.5
14 -2 -25 13.9 6.5
14 2 25 27.9 7.4
14 2 -25 25 11
14 2 -25 23.1 8.3
14 -2 25 41 13.1
14 -3 -25 36.3 8.7
14 -3 -25 22.8 11.8
14 -3 25 37.4 13.7
14 3 -25 15.5 7.9
14 3 -25 29.3 12.8
14 -4 -25 23.4 13
14 -4 -25 12.5 5.5
14 4 -25 -0.4 6.9
14 4 -25 17.3 9.8
14 -4 25 34 13.1
15 0 -25 -4.7 5.9
15 0 25 1 6
15 0 -25 7.2 6.1
15 -1 -25 182.78 28
15 -1 -25 127.99 19.9
15 1 -25 196.38 23.2
15 -1 25 238.68 26.5
15 1 -25 181.78 27.5
15 -2 -25 9.6 9.3
15 -2 -25 7.3 9
15 2 25 9.3 5.6
15 -2 25 7 7.7
15 2 -25 7.2 6.7
15 2 -25 -2.7 6.8
15 -3 -25 84.39 15
15 -3 -25 89.09 20
15 3 -25 93.09 18.1
15 3 -25 69.49 20
15 -3 25 143.39 20.8
16 0 25 -0.4 6
16 0 -25 9 7.6
16 0 -25 6.7 6.4
16 1 25 10.4 6.7
16 -1 -25 15.1 5.9
16 -1 -25 2.3 7.4
16 1 -25 4.3 6.2
16 -1 25 10.9 8.8
16 1 -25 7.5 9.5
16 -2 -25 -5.4 7.4
16 -2 -25 1.1 4.4
16 2 25 -0.4 5.1
16 -2 25 0.3 6.9
16 2 -25 1.9 6.2
16 2 -25 2.3 6.5
17 0 -25 -1.3 5
17 0 -25 -8.6 7
17 0 25 5 6.8
17 -1 -25 -8.7 6.9
17 -1 -25 2.8 5.2
17 1 25 -2.1 6.8
17 1 -25 8.6 8.1
17 1 -25 1.4 5.6
17 -1 25 4.9 7.3
0 0 -26 299.37 26.7
0 1 -26 4.7 3.1
0 -1 26 3.4 5
0 -1 -26 -0.1 2.6
0 -2 -26 62.89 8.4
0 2 -26 53.49 9.5
0 -3 26 0.1 6.2
0 3 -26 -2.8 2.6
0 -3 -26 2.5 2.6
0 -4 -26 6.5 2.5
0 4 -26 -0.4 2.6
0 -4 26 4.9 8.9
0 5 -26 1.5 4.3
0 -5 -26 -1.4 2.8
0 -5 26 8.3 7.6
0 -6 26 26.5 10.7
0 -6 -26 9.3 3.7
0 6 -26 19.4 5.9
1 0 26 -0.1 4.5
-1 0 -26 0.3 2.3
1 0 -26 2.8 2.2
-1 1 -26 211.08 21.7
1 -1 -26 205.38 19.6
-1 -1 -26 209.28 19.6
1 1 -26 195.98 20
-1 2 -26 5.1 3.2
-1 -2 26 4.5 5.4
1 -2 -26 2.9 2.7
-1 -2 -26 -1.8 2.3
1 -2 26 -8.9 4
1 2 -26 -4 2.2
1 -3 -26 18.9 4.9
-1 3 -26 26.7 6.7
-1 -3 26 41.5 12
1 -3 26 31.4 10.4
-1 -3 -26 18.8 5.1
1 3 -26 15.6 5.6
-1 -4 26 1.3 7.6
1 -4 -26 -3.4 2.1
-1 4 -26 -1.4 2.8
1 -4 26 -5.4 6.2
1 4 -26 -0.8 3.3
-1 -4 -26 -1.8 2.3
-1 5 -26 179.18 20.4
1 -5 -26 220.68 18.5
-1 -5 -26 191.48 17.9
1 5 -26 178.68 20.6
-1 6 -26 2.9 4.6
-1 -6 26 7.6 8.4
1 -6 -26 2.1 3.1
-1 -6 -26 2.6 3
1 -6 26 10.2 9.3
1 6 -26 0.3 4.5
2 0 -26 134.39 15.1
-2 0 -26 156.78 15.4
2 -1 -26 37.8 7.6
-2 -1 -26 43.7 7.7
2 1 -26 31.1 7.6
2 -1 26 63.09 13.1
-2 2 -26 104.79 12.7
2 -2 -26 117.99 12.5
-2 -2 -26 113.69 12.3
2 2 -26 93.89 12.9
-2 3 -26 38.7 8.2
-2 -3 26 64.99 14.2
2 -3 -26 40.6 7.5
2 -3 26 73.29 15.7
2 3 -26 42.3 9
-2 -3 -26 41.1 7.6
-2 -4 26 55.09 14.6
-2 4 -26 30.5 7.4
2 -4 -26 39.9 7.3
2 4 -26 30.3 8.3
2 -4 26 66.59 15.4
-2 -4 -26 41.8 7.4
-2 -5 26 29.7 11
-2 5 -26 22.3 7
2 -5 -26 19.9 4.9
-2 -5 -26 20.3 5
2 5 -26 24.4 7.4
2 -5 26 48.1 13.7
-2 -6 26 26.8 10.7
-2 6 -26 -3.2 4.5
2 -6 26 15.2 9.9
2 6 -26 4.4 5
-2 -6 -26 6.9 3.2
3 0 -26 28.5 6.9
3 0 26 63.29 12
-3 0 -26 40 7.5
3 -1 -26 5.5 3.9
-3 -1 -26 5 3.5
3 -1 26 6.2 6.6
3 1 -26 3.9 3.8
3 -2 -26 124.49 14
-3 2 -26 124.79 14.3
-3 -2 -26 138.49 13.9
3 2 -26 121.09 15
-3 3 -26 30.4 7.7
3 -3 -26 37.5 7.2
-3 -3 26 56.09 13.6
3 -3 26 70.19 15.5
3 3 -26 32.6 8.3
-3 -3 -26 43.6 7.4
-3 4 -26 114.79 14.1
3 -4 -26 105.59 12.3
3 4 -26 100.69 14.1
-3 -4 -26 125.89 12.6
3 -5 -26 10.7 4.1
-3 5 -26 8.5 5.5
-3 -5 26 18.5 9.2
-3 -5 -26 5.8 3.5
3 5 -26 19.3 7
3 -5 26 17.2 10.6
-3 6 -26 14 6.2
-3 -6 26 76.79 16.7
3 -6 -26 28.2 5.4
-3 -6 -26 35.9 6
3 -6 26 62.89 16.2
3 6 -26 13.8 7.1
-4 0 -26 169.08 17.2
4 0 -26 155.58 17.3
4 -1 -26 13.1 4.9
4 1 26 10.2 5.4
-4 1 -26 11.5 4.7
-4 -1 -26 12.6 4.4
4 -1 26 19.6 8.5
4 1 -26 2.6 5.4
4 -2 -26 41.4 8.1
-4 2 -26 43.8 8.4
4 2 -26 28.5 7.9
-4 -3 26 0.5 6.1
-4 3 -26 -1.1 3
4 -3 -26 6.6 4.4
4 3 -26 -0.6 3.1
4 -3 26 5 6.8
-4 4 -26 40.7 8.7
-4 -4 26 94.19 17.6
4 -4 -26 42.5 7.6
4 4 -26 43.5 9.8
4 -4 26 91.09 17.2
-4 -5 26 -6.4 6.4
4 -5 -26 -0.7 2.7
-4 5 -26 -7.3 3.3
4 5 -26 -6.1 3
-4 -5 -26 0.1 2.7
4 -5 26 -6.4 6.2
5 0 -26 1.7 3.7
5 0 26 12.8 6.6
-5 1 -26 17.5 5.7
5 -1 -26 20.4 6.3
5 1 26 19.7 7
5 -1 26 35.8 11
5 -2 -26 1.1 3.2
-5 2 -26 -0.3 2.8
5 2 -26 6 4.1
5 -3 -26 26.6 6.4
-5 3 -26 22.1 6.7
5 -3 26 62.59 14.7
5 3 -26 31.3 7.9
5 -4 -26 5.5 3.8
-5 4 -26 7.8 3.8
-5 -4 26 21.4 10.3
5 -4 26 12.3 7.8
5 4 -26 -0.1 4.2
-5 -5 26 67.29 15.9
5 -5 -26 36.1 7
-5 5 -26 29.5 8.1
5 -5 26 76.09 16.6
5 5 -26 29.4 8.9
6 0 26 0.7 5.1
6 0 -26 1.9 2.6
6 1 26 9.5 6.2
6 -1 -26 14.3 4.9
6 -1 26 18.3 9.1
6 1 -26 12.5 5.4
6 -2 -26 22.8 7
-6 2 -26 27.9 6.8
6 2 -26 25.1 7.7
6 -2 26 70.59 14.2
-6 3 -26 0.4 3.5
6 -3 -26 -3.1 2.9
6 -3 26 10.7 7.6
6 3 -26 6.3 4.1
6 -4 -26 18.2 5.1
-6 4 -26 9.3 5.1
6 4 -26 16.1 6.6
6 -4 26 38.2 12.9
-6 5 -26 7.5 4.6
-6 -5 26 14.6 9.3
6 -5 -26 -0.4 3
6 5 -26 6 5.7
6 -5 26 18 10.2
7 0 -26 3 3.6
7 0 26 1.2 6.2
7 -1 -26 141.99 16.7
7 1 -26 148.49 17.2
7 -2 -26 21.9 6.3
-7 2 -26 23.9 6.3
7 -2 26 47.7 12.1
7 2 -26 19 7
-7 3 -26 186.08 18.4
7 -3 -26 155.98 17.1
7 3 -26 141.69 18.7
-7 4 -26 128.59 14.8
7 -4 -26 115.19 13.6
7 4 -26 102.29 17.2
-7 5 -26 1.5 3.2
7 -5 -26 -3.9 3.2
7 -5 26 4.1 7.9
7 5 -26 -2 4.8
8 0 -26 34.8 8.5
8 0 26 64.59 12.6
8 1 26 1.5 4.8
8 -1 -26 -1 3.8
8 -1 26 -5.2 4.8
8 1 -26 3.8 3.3
8 -2 -26 113.69 14.5
8 2 -26 118.89 15.8
-8 3 -26 3.4 3.8
8 -3 -26 7.4 4
8 -3 26 8.3 8.4
8 3 -26 7.5 5.5
-8 4 -26 26 7.4
8 -4 -26 23 6.3
8 4 -26 22.9 8.1
8 -4 26 46.4 14.2
-8 5 -26 16.9 5.5
8 -5 -26 10.6 4.7
8 -5 26 32.4 12.2
8 5 -26 12.7 7.5
9 0 26 432.96 40.3
9 -1 -26 135.89 16.4
9 1 -26 131.09 16.7
9 -2 -26 1.4 3.8
9 2 26 1.4 3.7
9 2 -26 5.5 5.3
9 -2 26 3.4 7.1
-9 3 -26 -0.5 2.8
9 -3 -26 12.4 5
9 3 -26 5.9 5.9
9 -3 26 3.4 8.2
9 -4 -26 13.8 4.7
-9 4 -26 -0.4 3.4
9 4 -26 10.6 5.8
9 -4 26 10.5 9
9 -5 -26 250.37 23.4
-9 5 -26 286.97 26.2
9 5 -26 230.18 27.6
10 0 26 31.6 9.7
10 0 -26 12.3 5.9
10 1 26 3.5 5.4
10 -1 -26 -0.7 3.8
10 -1 26 -2.1 7.1
10 1 -26 2.2 4.9
10 -2 -26 15.1 6.2
10 2 26 20.4 5.9
10 -2 26 18.1 9.7
10 2 -26 21.3 8.5
10 -3 -26 17.7 6.2
10 3 -26 14 7.1
10 -3 26 29.2 11.9
-10 4 -26 29.3 7.9
10 -4 -26 12.9 5.2
10 -4 26 39.2 12.7
10 4 -26 28.4 9.2
11 0 -26 83.09 14.6
11 1 26 130.99 17
11 -1 26 151.58 20.4
11 2 26 8.9 4.7
11 -2 -26 2.9 4.6
11 -2 26 14.4 8.8
11 2 -26 -2.3 4.3
11 -3 -26 -3.6 3.8
11 -3 26 -5.7 6.7
-11 4 -26 19.4 6.8
11 -4 -26 19.3 6.2
11 -4 26 19 11.2
11 4 -26 22.2 9.8
12 0 -26 27.2 8.9
12 0 26 28.7 10.2
12 1 26 25.9 8.8
12 -1 -26 19.4 7.5
12 1 -26 23.1 8
12 -1 26 34.1 11.7
12 -2 -26 7.7 4.9
12 2 26 1.8 4.5
12 2 -26 3.9 6.2
12 -2 26 10.7 8.9
12 -3 -26 -3.4 4.1
12 3 -26 -8 4.4
12 -3 26 -3.4 6.6
12 -4 -26 8.9 4.2
12 4 -26 -1.2 6.4
12 4 -26 -3.3 5.4
12 -4 26 -10.7 6.6
13 0 26 35.9 10.2
13 0 -26 19 7.8
13 1 26 0.5 5.4
13 -1 -26 6.1 4.8
13 -1 26 5 7.1
13 1 -26 -1.5 5.1
13 -2 -26 46.8 13.4
13 2 26 83.29 11.3
13 2 -26 54.19 13.1
13 -2 26 96.59 17.8
13 -3 -26 9.4 5.4
13 3 -26 -4 5.6
13 -3 26 -4.7 7.2
13 3 -26 -9.7 5.9
14 0 26 111.19 17
14 0 -26 63.19 13.9
14 -1 -26 -0.8 4.5
14 1 26 -4.6 6
14 1 -26 -1 4.9
14 1 -26 8.1 9.7
14 -1 26 -12.8 5.6
14 2 26 56.59 10
14 -2 -26 32.9 7.5
14 2 -26 47.9 11.5
14 2 -26 63.79 18
14 -2 26 75.39 17.1
14 -3 -26 24.1 7.3
14 -3 -26 9.1 10
14 3 -26 9.9 7.3
14 -3 26 32.1 10.5
14 3 -26 30.3 12.6
15 0 -26 184.88 28.6
15 0 -26 185.58 23.1
15 -1 -26 90.09 21
15 -1 -26 75.99 15
15 1 -26 65.79 15.7
15 -1 26 139.19 20.2
15 1 -26 77.59 20.9
15 -2 -26 18.8 10.4
15 2 26 2.3 5.4
15 -2 -26 -2.1 4.8
15 -2 26 17.1 10.2
15 2 -26 -9.4 5.2
15 2 -26 -4.9 7.9
16 0 26 36.9 11.4
16 0 -26 6.2 8.9
16 0 -26 32.8 9.1
16 1 26 -1.8 6.7
16 -1 -26 11.8 5.6
16 -1 -26 -3.5 7.3
16 1 -26 7.3 5.8
16 1 -26 1.7 6.5
16 -1 26 2.6 8.2
0 0 -27 -0.6 2.9
0 1 -27 2.7 3
0 -1 27 -1.5 4.3
0 -1 -27 1.9 2.6
0 -2 27 11.5 7.3
0 2 -27 8.3 4.2
0 -2 -27 -1.3 2.7
0 -3 -27 -0.9 2.5
0 -3 27 -9.2 5
0 3 -27 -3.2 2.6
0 -4 27 -2 6.5
0 -4 -27 3.4 2.5
0 4 -27 1.8 3.5
0 -5 -27 1.3 2.3
0 5 -27 2 4.7
0 -5 27 -8.8 5.3
1 0 -27 -2 2.8
-1 1 -27 215.38 20.5
1 -1 -27 187.48 19.6
1 1 -27 210.88 20.6
-1 -1 -27 213.78 19.8
-1 -2 27 14.9 8
1 -2 -27 1.3 3.2
-1 2 -27 5.9 4
1 2 -27 -2.1 2.7
-1 -2 -27 0.8 3.4
1 -2 27 -0.8 4.9
1 -3 -27 29.5 6.3
-1 3 -27 29.3 7.3
-1 -3 27 55.99 13.8
1 3 -27 23.5 6.6
1 -3 27 76.59 15.4
-1 -3 -27 30.7 6.3
1 -4 -27 0.1 2.2
-1 4 -27 -5.9 3.3
-1 -4 27 0.7 8
1 -4 27 0.6 7.7
-1 -4 -27 -2.7 2.5
1 4 -27 -0.4 4.1
-1 5 -27 84.89 13.8
1 -5 -27 94.39 10.3
-1 -5 -27 82.09 9.7
1 5 -27 73.99 12.8
2 0 -27 0.4 2.9
-2 0 -27 1.4 2.6
2 0 27 -6.5 3.2
-2 1 -27 3.2 3.4
2 1 -27 1.5 3
2 -1 27 -1.9 5.3
-2 -1 -27 3.5 2.9
2 -2 -27 0.2 2.5
-2 2 -27 0.6 2.6
-2 -2 27 3.1 6
2 -2 27 0.2 4.9
-2 -2 -27 0.6 2.6
2 2 -27 1.6 3.5
2 -3 -27 7.1 4.2
-2 -3 27 26.1 9.9
-2 3 -27 5 4.2
2 -3 27 18 9.1
-2 -3 -27 8.6 3.6
2 3 -27 15.5 6.5
-2 4 -27 17.4 5.4
-2 -4 27 26.4 11.4
2 -4 -27 22.2 5.3
2 -4 27 54.59 14.8
-2 -4 -27 19 5.1
2 4 -27 17.9 6.2
2 -5 -27 8.9 4.2
-2 -5 27 26.3 9.8
-2 5 -27 4.3 4.4
2 5 -27 10.9 5.3
2 -5 27 18.7 10.6
-2 -5 -27 9.5 3.6
3 0 27 -1.5 4.5
-3 0 -27 -2.3 2.6
3 0 -27 1.1 4.5
3 -1 -27 18.3 5.3
-3 1 -27 25.4 6.6
3 1 -27 11.4 4.6
3 -1 27 40.2 11.3
-3 -1 -27 15.2 6.1
3 -2 -27 7.1 4.1
-3 2 -27 13.2 4.8
3 2 -27 14.8 5.6
-3 -2 -27 19.4 4.9
3 -2 27 17.5 8.6
3 -3 -27 148.39 15.4
-3 3 -27 140.79 16.1
3 3 -27 141.19 16.8
-3 -3 -27 152.98 15.2
-3 4 -27 97.39 12.6
3 -4 -27 91.39 11.2
-3 -4 -27 104.29 11.3
3 4 -27 80.79 14
-3 -5 27 34.3 12
-3 5 -27 13.7 6.3
3 -5 -27 22.6 5.1
3 -5 27 30.2 12
3 5 -27 26.2 7.6
-3 -5 -27 21.8 4.9
-4 0 -27 2.8 3
4 0 27 -3.1 4.7
4 -1 -27 13.2 5.3
-4 1 -27 9.6 4.4
4 1 -27 5.9 3.9
4 -1 27 31.8 10.5
4 -2 -27 -1.3 3.2
-4 2 -27 5.6 3.2
-4 -2 -27 0.8 3.4
4 2 -27 0.3 3.6
4 -2 27 -9 4.7
-4 3 -27 1.2 3.7
-4 -3 27 0.2 6.5
4 -3 -27 -4 2.2
4 -3 27 -3.9 6.2
4 3 -27 1 3.2
-4 -3 -27 -1.9 2.5
4 -4 -27 -1.3 2.7
-4 -4 27 5.5 7
-4 4 -27 1.5 4.1
4 -4 27 4.9 7.9
4 4 -27 8 4.8
-4 -4 -27 3.8 3.1
-4 5 -27 20.5 6.8
4 -5 -27 19.7 4.7
-4 -5 27 28.7 11.2
4 5 -27 19.5 7.2
4 -5 27 53.59 15.7
-4 -5 -27 18.3 5.3
5 0 -27 -6.6 3.9
5 0 27 -3.7 4.7
-5 0 -27 0.6 2.9
-5 1 -27 29.6 7.4
5 1 27 34.8 8.3
5 -1 -27 26.6 6.7
5 1 -27 28.4 7.4
5 -1 27 55.69 12.9
-5 2 -27 -0.5 2.8
5 -2 -27 3.2 3.8
5 -2 27 -4.4 6.2
5 2 -27 3.1 4.3
5 -3 -27 3.5 4.1
-5 3 -27 10.7 5
5 3 -27 7.8 5.1
5 -3 27 23.7 10.3
5 -4 -27 3.3 3.1
-5 4 -27 2.7 3.9
5 4 -27 5.2 4.5
5 -4 27 13.2 9.6
-5 -5 27 34.7 11.5
-5 5 -27 3.1 4.6
5 -5 -27 7.8 4.1
5 5 -27 4.8 5.8
-5 -5 -27 9.4 4.1
5 -5 27 28.8 11.3
6 0 -27 3.3 3
6 0 27 -3.6 5
6 1 27 26.4 7.1
-6 1 -27 19.7 6.1
6 -1 -27 13.5 5.2
6 -1 27 16 10.2
6 1 -27 9.3 5.1
6 -2 -27 7 4
-6 2 -27 12.6 5.3
6 2 -27 12.9 5.5
6 -2 27 29 10.2
-6 3 -27 152.38 17.1
6 -3 -27 149.29 16.4
6 3 -27 160.38 18.6
6 -4 -27 8.5 4
-6 4 -27 -1.4 3.1
6 4 -27 -1.5 3.1
6 -4 27 -3.3 6.8
6 -5 -27 5 3.6
-6 5 -27 2.3 4.4
6 -5 27 9.8 10.2
6 5 -27 -3.4 5.1
7 0 -27 -4.4 2.6
7 0 27 2.7 5.3
7 -1 -27 143.29 15.7
7 1 -27 112.19 15.4
7 -2 -27 -3.3 2.6
-7 2 -27 0.9 3.7
7 -2 27 -1.8 6.3
7 2 -27 8.2 4.9
7 -3 -27 108.29 13.7
-7 3 -27 137.79 15.1
7 3 -27 82.49 15.5
-7 4 -27 97.09 12.3
7 -4 -27 72.89 9.8
7 4 -27 60.19 13.1
7 -5 -27 2.4 3.2
-7 5 -27 -4.8 3.3
7 5 -27 -1 5
7 -5 27 7.7 8.6
8 0 27 -2.2 5.5
8 0 -27 2.9 3.9
8 -1 -27 22 5.5
8 1 27 21.5 7.3
8 1 -27 10.9 5.5
8 -1 27 24.4 10.4
8 -2 -27 7.1 4
-8 2 -27 -1 2.6
8 -2 27 0.5 6.5
8 2 -27 3.2 3.9
-8 3 -27 52.69 10.4
8 -3 -27 38.7 8.8
8 -3 27 86.19 17.8
8 3 -27 41.3 11
8 -4 -27 36 6.7
-8 4 -27 27.9 7.9
8 4 -27 35.6 9.8
8 -4 27 56.49 15.8
9 0 -27 1.2 4.7
9 0 27 4.9 6.3
9 1 27 150.48 17.2
9 -1 27 158.88 20.6
9 1 -27 98.89 17.3
9 -2 -27 134.79 16.4
9 2 -27 129.09 17.4
9 -3 -27 409.66 37.6
9 3 -27 448.96 40.9
-9 4 -27 -4.1 3.3
9 -4 -27 2.8 3.9
9 -4 27 1.1 7.7
9 4 -27 -4.4 4.5
10 0 -27 4.3 3.8
10 0 27 -0.8 5
10 -1 -27 16.3 6.7
10 1 27 19.6 7.4
10 1 -27 20 7.5
10 -1 27 25.8 10.9
10 -2 -27 5.3 5.1
10 2 27 -0.2 3.9
10 -2 27 2.8 7.3
10 2 -27 10.8 6.3
10 -3 -27 1.8 3.7
-10 3 -27 2.9 4.3
10 -3 27 3.7 7.8
10 3 -27 -5.9 5.1
-10 4 -27 15.3 6.5
10 -4 -27 18.4 5.7
10 -4 27 14.8 10.6
10 4 -27 21.5 8.4
11 0 -27 3.5 4.9
11 1 27 3.9 6
11 -1 -27 2 5
11 -1 27 3.5 7
11 1 -27 -7.4 3.6
11 2 27 162.88 16.4
11 -2 -27 113.59 20.8
11 2 -27 135.09 18.8
11 -3 -27 132.09 16
11 3 -27 128.19 18.2
12 0 27 1.8 7.2
12 0 -27 0.3 4.8
12 1 27 4.3 6
12 -1 -27 -0.4 4.3
12 1 -27 5.9 5.1
12 -1 27 4.1 8.4
12 -2 -27 14.2 5.4
12 2 27 8.5 5.1
12 2 -27 -1.2 5.3
12 -2 27 16.4 10.9
12 -3 -27 -8.4 3.9
12 3 -27 -5.3 4.5
12 -3 27 -3.3 4.8
13 0 27 -3.4 6
13 0 -27 2.2 4.9
13 -1 -27 62.59 13.5
13 -1 27 122.29 18.2
13 1 -27 69.39 14.1
13 2 27 -3 3.9
13 -2 -27 -4.6 3.9
13 2 -27 12.4 6.9
13 -3 -27 35.3 9
13 3 -27 30.3 12.9
13 -3 27 44.4 13.8
13 3 -27 43.4 12.2
14 0 -27 -7.1 4.8
14 0 27 -2.9 5.6
14 -1 -27 -7.8 4.8
14 1 27 12.2 6.9
14 1 -27 2.3 4.9
14 1 -27 9.7 8.2
14 -1 27 0.6 7
14 2 27 0.2 4.9
14 -2 -27 4.9 5.4
14 -2 27 9.8 9
14 2 -27 12.3 8.8
14 2 -27 7 6.8
15 0 27 -0.3 6.5
15 0 -27 1.9 6.1
15 0 -27 6.2 10.1
15 -1 -27 43.3 10.9
15 -1 -27 46.5 15.1
15 1 27 60.69 15.1
15 1 -27 32.9 13
15 -1 27 78.29 16.9
15 1 -27 33.8 9.9
0 0 -28 4 3.6
0 -1 -28 -2 3.1
0 1 -28 -0.9 2.9
0 2 -28 72.29 12
0 -2 -28 91.99 10.8
0 3 -28 -5.4 2.6
0 -3 -28 -5.8 2.4
0 -3 28 -0.8 7.1
0 -4 -28 30.4 6.2
0 4 -28 23.9 7.5
0 -4 28 48.7 13.9
0 -5 -28 0.8 3.1
0 5 -28 4.2 4.1
0 -5 28 0.1 6.8
1 0 -28 82.99 10.7
-1 0 -28 82.69 10.5
1 -1 -28 72.79 15.8
-1 1 -28 57.69 10.2
-1 -1 -28 72.49 9.6
1 1 -28 71.29 10
1 -2 -28 21 5.6
-1 -2 28 51.09 12.9
-1 2 -28 18.2 6.3
-1 -2 -28 24.3 6.3
1 -2 28 53.39 13.9
1 2 -28 27.7 7.5
1 -3 -28 -3 2.2
-1 3 -28 1.2 3.5
-1 -3 28 2.8 7.3
1 3 -28 -5.8 2.8
-1 -3 -28 8.1 3.7
1 -3 28 7.1 8
-1 -4 28 1.4 6.7
1 -4 -28 -0.9 3
-1 4 -28 1.7 3.7
1 4 -28 -5.2 3.1
-1 -4 -28 -3.6 2.3
1 -4 28 4.5 7.9
-1 5 -28 75.49 13.2
1 -5 -28 88.69 9.9
1 5 -28 50.49 11.5
-1 -5 -28 77.09 9.7
2 0 -28 2.8 2.8
-2 0 -28 2.3 3
2 -1 -28 2.6 5
-2 1 -28 16.1 4.9
-2 -1 -28 21 5.5
2 1 -28 21.1 6.1
2 -2 -28 24.2 6.2
-2 2 -28 32.2 7.5
-2 -2 -28 44.6 11.3
2 -2 28 51.19 13.5
2 2 -28 31.5 7.8
2 -3 -28 35.3 7.1
-2 3 -28 43.2 9.2
-2 -3 28 78.09 16.2
2 -3 28 74.69 16
2 3 -28 46.4 9.6
-2 -3 -28 33.6 7.3
-2 -4 28 47 14.5
-2 4 -28 17.8 6.6
2 -4 -28 27.2 5.7
2 -4 28 50.19 14
2 4 -28 25.6 6.8
-2 -4 -28 23.4 5.6
2 -5 -28 2.2 3.2
-2 -5 28 18.3 10
-2 5 -28 15.4 5.9
2 -5 28 11.3 8.4
-2 -5 -28 12.2 4.2
2 5 -28 11.3 5.6
-3 0 -28 11.6 4.7
3 0 -28 11.7 4.3
3 0 28 32.6 9.2
-3 1 -28 30.5 7
3 -1 -28 21.8 8.8
3 -1 28 51.79 14.5
-3 -1 -28 37.3 7.5
3 1 -28 32.6 7.7
-3 2 -28 63.19 10.4
3 -2 -28 53.59 9.5
3 2 -28 47 9.8
-3 -2 -28 53.59 9.3
3 -2 28 86.69 16.5
-3 -3 28 35.6 12.2
3 3 -28 25.5 7.7
3 -3 28 40.3 12.5
-3 -4 28 29.7 10.6
-3 4 -28 13.6 5.2
3 -4 -28 11 4.6
-3 -4 -28 10.5 3.5
3 -4 28 28.9 11
3 4 -28 8.8 4.6
-3 5 -28 49.8 10.7
-3 -5 28 99.29 19.7
3 -5 -28 68.09 8.9
-3 -5 -28 76.39 9.1
3 5 -28 38.3 10
-4 0 -28 24.9 6.6
4 0 28 41.8 10.3
4 0 -28 27.1 7.1
-4 1 -28 96.99 11.8
-4 -1 -28 84.69 11
4 1 -28 70.59 12.3
4 -2 -28 62.99 10.5
-4 2 -28 86.19 11.1
-4 -2 -28 77.09 9.9
4 2 -28 54.69 10.7
-4 3 -28 24.4 6.8
4 -3 -28 24.7 6.2
4 3 -28 22 7
-4 -3 -28 32 6.6
4 -3 28 62.39 14.8
-4 -4 28 10.3 7.9
4 -4 -28 11.8 4.3
-4 4 -28 10.5 5.2
4 -4 28 6.2 8.1
4 4 -28 7.1 4.5
-5 0 -28 0.1 3.2
5 0 -28 -4.1 2.7
5 0 28 -3.6 4.5
5 -1 -28 17.3 7.1
-5 1 -28 22.4 6.6
5 -1 28 34.6 10.8
5 1 -28 23.7 7.1
-5 -1 -28 19.2 5.7
-5 2 -28 2.7 3.4
5 -2 -28 1.7 3.7
5 2 -28 -2.6 2.8
5 -2 28 -7.7 6
-5 -2 -28 -5.1 2.2
-5 3 -28 2.9 3.7
5 -3 -28 4 3.6
5 3 -28 1.5 4
5 -3 28 2.3 8.3
5 -4 -28 11.2 4.2
-5 4 -28 4.4 4.4
-5 -4 -28 4 3.5
5 -4 28 19.7 10.6
5 4 -28 0.9 4.3
6 0 -28 36 8.7
-6 0 -28 53.09 9.2
6 1 28 -1.5 3.8
6 -1 -28 0.6 4
-6 1 -28 0.1 3
6 1 -28 -0.2 3.4
6 -1 28 -3.5 5.8
6 -2 -28 -6.7 3.2
-6 2 -28 5.7 3.7
6 -2 28 5.7 6.9
6 2 -28 6.6 4.5
6 -3 -28 145.89 16.4
-6 3 -28 157.98 17.6
6 3 -28 167.78 19.3
6 -4 -28 8.9 4.4
-6 4 -28 6.9 4.4
6 -4 28 23.8 11.3
6 4 -28 6.6 5.1
7 0 28 38.9 9.9
7 0 -28 23.5 7.3
7 -1 -28 96.59 13.6
-7 1 -28 114.29 13.6
7 1 -28 100.39 14.1
-7 2 -28 -2.4 3.1
7 -2 -28 -2.5 3.3
7 -2 28 6.6 7.7
7 2 -28 -7.5 2.8
7 -3 -28 49 9.1
-7 3 -28 58.49 11
7 3 -28 54.59 11.2
7 -4 -28 57.09 9.9
-7 4 -28 48.6 9.8
7 4 -28 51.09 11.4
8 0 28 13.2 6.7
8 0 -28 5.4 4.2
8 -1 -28 8.2 4.6
8 -1 28 3.6 7.6
8 1 -28 -1.2 4
-8 2 -28 20.1 6.8
8 -2 -28 21.3 7.9
8 -2 28 26.9 10.7
8 2 -28 5 5.5
-8 3 -28 2.5 4.8
8 -3 -28 5.2 4.4
8 3 -28 -0.8 4.2
8 -3 28 -4.3 6.8
8 -4 -28 0.7 3.9
-8 4 -28 1.3 3.6
8 4 -28 4.9 6
8 -4 28 4.6 8.5
9 0 -28 247.08 25.8
9 -1 -28 80.99 13.2
9 1 -28 72.59 13.4
9 -2 -28 10.2 8
9 2 -28 1.2 4.2
9 -2 28 7.2 7.8
9 -3 -28 12.9 5.9
-9 3 -28 8.3 5.6
9 3 -28 20.8 7.9
9 -3 28 48.9 13.5
10 0 -28 113.59 15.6
10 -1 -28 28.5 7.4
10 1 28 31.9 8.7
10 -1 28 34.9 11.8
10 1 -28 17.2 7.2
10 -2 -28 80.89 13.8
10 2 -28 71.79 13.8
10 -3 -28 3.6 4.4
-10 3 -28 0 4.4
10 3 -28 5.9 5.8
10 -3 28 -4.3 5.8
11 0 -28 24.9 8.2
11 0 28 31.9 10.3
11 -1 -28 40 9.7
11 1 -28 35 10.4
11 -1 28 70.19 14.8
11 2 28 115.29 13.5
11 -2 -28 76.89 14.8
11 -2 28 145.39 20.6
11 -3 -28 1.7 4.1
11 -3 28 -14.2 7.2
11 3 -28 -9.4 4.4
12 0 -28 19.6 8
12 0 28 45.4 11.5
12 1 28 5 5.9
12 -1 -28 -5.8 4.7
12 1 -28 7.8 5.4
12 -1 28 1 8.6
12 2 28 -2.6 4.2
12 -2 -28 3.6 4.9
12 -2 28 -13.7 6.8
12 2 -28 -3.9 4.2
13 0 -28 15.3 6.2
13 0 28 21.2 9
13 1 28 3 7.1
13 -1 -28 1.4 4.9
13 1 -28 -0.5 4.9
13 -1 28 -0.3 6.9
14 0 -28 -1 6
14 0 28 -2.8 7.1
0 0 -29 -0.3 3.1
0 -1 -29 -2 2.7
0 1 -29 2.8 3.4
0 -2 29 49.8 12.7
0 -2 -29 22.5 6
0 2 -29 17.1 6.2
0 3 -29 -4.1 2.6
0 -3 29 0.4 7.1
0 -4 29 1.7 6.8
0 -4 -29 -3.7 2.5
0 4 -29 0.3 4.2
-1 0 -29 -0.4 2.3
1 0 -29 1.1 3
-1 1 -29 43.8 8.5
1 -1 -29 18.7 5.7
1 1 -29 23.2 6.9
1 -1 29 52.59 12.2
-1 -1 -29 21.8 5.8
-1 -2 29 35.5 10.7
1 -2 -29 21.1 6
-1 2 -29 25.4 7
-1 -2 -29 15.8 4.9
1 2 -29 11.7 5.3
1 -2 29 32.2 10.9
1 -3 -29 69.69 13.5
-1 3 -29 91.89 12.4
1 3 -29 79.99 12.9
-1 -3 -29 87.09 11.1
-1 -4 29 -4.3 6.4
1 -4 -29 -4 2.9
-1 4 -29 1.6 3.8
-1 -4 -29 2.2 3.4
1 4 -29 -5.7 2.9
1 -4 29 -1.8 5.7
2 0 -29 -4.9 2.7
-2 0 -29 -3.2 2.2
-2 1 -29 212.88 20.6
2 -1 -29 199.48 20.1
2 1 -29 205.48 21
-2 -1 -29 194.78 19.7
2 -2 -29 0.7 3.3
-2 2 -29 15.9 5.7
-2 -2 -29 20.9 5.6
2 2 -29 11.6 4.6
2 -2 29 5.5 7.4
-2 3 -29 6.6 4
2 -3 -29 -0.9 3.1
-2 -3 29 5.8 7.5
-2 -3 -29 0.7 2.7
2 3 -29 -5 3.1
2 -3 29 8.1 7.8
2 -4 -29 3.7 3.8
-2 4 -29 9.8 5.6
-2 -4 29 9.3 8.3
-2 -4 -29 17.2 5.8
2 -4 29 19.5 9.2
2 4 -29 8.3 5.4
3 0 -29 -0.1 3.3
-3 0 -29 -1.1 2.5
3 0 29 1.2 5.4
-3 1 -29 0.9 2.9
3 -1 -29 1 3
3 -1 29 -2 5.4
3 1 -29 0.3 3.1
-3 -1 -29 -0.7 2.4
-3 2 -29 0.2 3.4
3 -2 -29 0.9 3
3 -2 29 -1.3 6.2
-3 -2 -29 -0.2 2.7
3 2 -29 1.8 3.9
-3 3 -29 18.7 6.6
3 -3 -29 14.7 5.1
3 3 -29 13.2 5.6
-3 -3 -29 12.6 4.2
3 -3 29 36.4 11.9
3 -4 -29 6.4 4.8
-3 4 -29 19.9 6.5
-3 -4 29 35.3 12.1
3 4 -29 11.3 5.8
3 -4 29 36.6 12.1
-3 -4 -29 21.5 5.2
-4 0 -29 -2.4 3.2
4 0 -29 -4.2 2.7
-4 1 -29 101.19 12.2
4 -1 -29 76.99 12.6
-4 -1 -29 94.99 11.6
4 1 -29 68.49 12.5
4 -2 -29 -1.3 2.9
-4 2 -29 3.4 3.3
4 -2 29 6.4 7.1
4 2 -29 1.6 3.5
-4 -2 -29 2.5 3.6
-4 3 -29 36.6 8.4
4 -3 -29 26.7 6.4
4 3 -29 36.6 8.9
4 -3 29 70.39 16.3
-4 -3 -29 27.5 6.6
-4 -4 29 -9.1 4.9
4 -4 -29 11.6 3.5
-4 4 -29 -5.9 3.5
4 -4 29 6.2 9.2
4 4 -29 5.7 4.7
-4 -4 -29 1.1 3.9
-5 0 -29 -3.3 1.9
5 0 29 -7 3.9
5 0 -29 -1.6 2.5
5 -1 -29 83.39 12.7
-5 1 -29 112.69 13.9
-5 -1 -29 142.69 14.5
5 1 -29 127.69 14.8
5 -2 -29 6.2 4.3
-5 2 -29 2.6 3.7
-5 -2 -29 -1.2 3.2
5 -2 29 -4.3 5.5
5 2 -29 -0.7 3.3
5 -3 -29 123.69 14.8
-5 3 -29 145.49 16.2
5 3 -29 105.69 15.7
-5 -3 -29 154.78 15.3
-5 4 -29 7.5 5.4
5 -4 -29 8.3 4.2
5 -4 29 -1.3 7.2
5 4 -29 5.6 4.6
6 0 -29 -0.8 3.4
-6 0 -29 -3.9 2.8
-6 1 -29 1.3 3.4
6 -1 -29 -0.9 3.7
6 -1 29 -3.1 5.3
-6 -1 -29 -1 3.4
6 1 -29 6 3.8
6 -2 -29 -1.9 2.7
-6 2 -29 2.6 3.8
6 2 -29 3 3.9
6 -2 29 -8.6 6.3
6 -3 -29 174.28 19.3
-6 3 -29 227.38 21.2
6 3 -29 165.98 20.8
7 0 -29 7.9 4.8
7 0 29 5.4 6
7 1 29 113.19 14.2
-7 1 -29 113.99 13.6
7 -1 -29 69.39 12.8
7 1 -29 64.89 13.1
-7 2 -29 22.1 6.7
7 -2 -29 24.6 6.4
7 2 -29 16.8 7.3
7 -2 29 64.89 14.5
7 -3 -29 35.6 8.3
-7 3 -29 31.4 8.2
7 -3 29 77.29 16
7 3 -29 26.8 7.8
8 0 -29 6.2 4.3
8 0 29 0.1 5.8
-8 1 -29 5.7 4.8
8 -1 -29 7.9 4.7
8 1 29 2.5 4.6
8 -1 29 8.6 9.3
8 1 -29 9 4.9
-8 2 -29 6.2 4.9
8 -2 -29 0.3 4.6
8 2 -29 -2.7 4.8
8 -2 29 16.2 9.3
-8 3 -29 4 5
8 3 -29 -0.7 4.7
8 -3 29 10.8 9
9 0 -29 1.6 3.8
9 0 29 2.3 6.2
9 1 29 75.99 12.8
9 -1 -29 55.69 11.4
9 1 -29 41.1 10.8
9 -1 29 106.79 18
-9 2 -29 114.19 14.3
9 -2 -29 93.09 13.2
9 2 -29 69.69 14
-9 3 -29 136.69 16.7
9 -3 -29 96.89 20.3
9 3 -29 128.09 17.5
10 0 29 -1.4 5.8
10 0 -29 8 5.3
10 -1 -29 10.3 5.3
10 1 29 14.3 6.4
10 -1 29 10 9.1
10 1 -29 13.5 6.3
10 -2 -29 8.4 4.5
10 2 -29 7.3 5.6
10 -2 29 0.8 7.1
11 0 29 -10.4 4.9
11 0 -29 -4.4 4.2
11 1 29 31.4 9
11 -1 29 34.9 11.3
11 1 -29 9.2 6.7
11 -2 -29 4.6 5.2
11 2 -29 10.1 6.3
11 -2 29 -3.3 7.1
12 0 -29 3.1 4.7
12 0 29 -10.4 5.6
12 -1 -29 4.8 4.8
12 1 -29 12.4 5.7
12 -1 29 -6.6 7.6
0 0 -30 -5.6 2.9
0 -1 -30 -0.9 2.8
0 1 -30 0.5 3.1
0 -2 30 16.9 8.9
0 -2 -30 -1.9 2.9
0 2 -30 7.7 5
0 -3 -30 -2 3
0 3 -30 -5.6 3
0 -3 30 -5.4 7.5
-1 0 -30 89.99 11.5
1 0 -30 77.29 12.4
-1 1 -30 12.2 5.4
1 -1 -30 10.7 4.6
1 -1 30 22.5 8.8
-1 -1 -30 17.2 5.4
1 1 -30 17.3 5.7
-1 2 -30 47.3 9.2
1 -2 -30 42 8.1
-1 -2 -30 43.5 8.1
1 2 -30 40 9
-1 3 -30 4 5.2
1 -3 -30 -0.1 3.4
-1 -3 30 -6.5 6.4
1 3 -30 0.3 3.7
-1 -3 -30 6 3.9
1 -3 30 -5.5 7
-2 0 -30 0.6 2.7
2 0 -30 -0.6 2.9
-2 1 -30 93.99 12.4
2 -1 -30 87.69 11.8
-2 -1 -30 91.59 11.5
2 1 -30 95.29 12.3
-2 2 -30 -0.9 3.8
2 -2 -30 -1 3
2 -2 30 -0.7 5.6
-2 -2 -30 2.8 3.4
2 2 -30 -6.8 2.3
2 -3 -30 -1 2.1
-2 3 -30 2.5 4.1
-2 -3 30 3.6 8
2 -3 30 5.8 6.4
2 3 -30 -1.7 4
-2 -3 -30 1.4 3.2
3 0 -30 -1.5 3.4
-3 0 -30 -0.6 2.6
3 -1 -30 6.6 4.5
-3 1 -30 8.8 4.7
3 1 -30 12.3 5.5
3 -1 30 11.6 7.5
-3 -1 -30 10.6 4.3
3 -2 -30 -1.5 2.8
-3 2 -30 7 4.7
-3 -2 -30 7.6 4.2
3 -2 30 5.3 7.4
3 2 -30 9.5 5.1
-3 3 -30 -1.5 3.7
3 -3 -30 -2.4 2.5
3 3 -30 1.1 3.7
3 -3 30 -2.3 4.8
-3 -3 -30 -6.2 2.8
4 0 -30 5.4 3.9
-4 0 -30 3.9 4.2
4 0 30 10.1 7.3
-4 1 -30 117.69 13.8
4 -1 -30 93.49 13.1
4 1 -30 100.59 13.8
-4 -1 -30 119.59 13.5
-4 2 -30 16.8 5.9
4 -2 -30 21.2 5.8
-4 -2 -30 21.1 5.8
4 -2 30 44.5 12.3
4 2 -30 14.9 5.3
-4 3 -30 103.39 13.1
4 -3 -30 76.99 10.8
4 3 -30 73.89 12.9
-5 0 -30 -3.3 3.3
5 0 30 -3.9 5
5 0 -30 0 3
5 -1 -30 7.1 4.1
-5 1 -30 0.9 3.7
5 -1 30 -11 6.1
-5 -1 -30 5.7 3.8
5 1 -30 5.8 4.8
5 -2 -30 6 3.5
-5 2 -30 5.2 4.5
-5 -2 -30 -0.1 3.1
5 -2 30 -2.3 5.7
5 2 -30 1.7 3.9
5 -3 -30 17.8 4.9
-5 3 -30 13.1 5.2
-5 -3 -30 18.4 5.8
5 3 -30 14.5 6.5
5 -3 30 8.3 7.8
-6 0 -30 15.2 5.9
6 0 30 12.1 7.5
6 0 -30 16.2 5.7
-6 1 -30 65.19 11.3
6 -1 -30 70.79 12.1
6 1 -30 50.69 10.4
-6 -1 -30 56.49 10.1
-6 2 -30 0.6 4.3
6 -2 -30 2.6 3.4
6 -2 30 1.9 6.6
-6 -2 -30 -0.5 3.8
6 2 -30 2.2 4.3
6 -3 -30 -1.6 3.6
-6 3 -30 0.5 2.5
6 -3 30 2.3 8.8
6 3 -30 -0.8 5.5
-6 -3 -30 -0.7 3.3
-7 0 -30 51.79 9.9
7 0 30 76.89 14.1
7 0 -30 46.7 10.4
7 -1 -30 55.79 10.7
-7 1 -30 67.49 11.9
7 1 -30 57.39 11.4
7 -2 -30 4.1 4.5
-7 2 -30 2 4.8
7 2 -30 0.9 4.8
7 -2 30 2.2 8.6
8 0 -30 16.2 5.9
8 0 30 5.1 6.3
8 1 30 3.5 5
8 -1 -30 9.1 5.2
-8 1 -30 -1.5 4.1
8 1 -30 -3.6 3.3
8 -1 30 5 7.7
-8 2 -30 33.1 9
8 -2 -30 24.2 7.4
8 2 -30 10.4 6.4
8 -2 30 46.7 13.3
9 0 -30 64.19 13.2
9 0 30 114.79 16.5
9 -1 -30 41.8 10.1
9 -1 30 92.19 16.8
9 1 -30 47.7 10.8
10 0 -30 9.2 6.2
10 0 30 19.1 8.8
10 -1 -30 18.5 6.7
10 1 -30 14.4 7.1
10 -1 30 22 10.3
0 0 -31 3 4.2
0 -1 -31 -5.4 2.6
0 1 -31 -4.7 3.2
0 -2 -31 1.7 3.7
0 2 -31 -4.7 3.6
0 -2 31 10.2 8
-1 0 -31 2 3.9
1 0 -31 5.1 3.7
-1 1 -31 9.1 4.8
1 -1 -31 5.2 4.3
1 1 -31 6.6 4.2
-1 -1 -31 17.2 5.4
-1 2 -31 -5.2 3
1 -2 31 -8.1 4.5
1 2 -31 -3.1 3.3
-1 -2 -31 1.6 3.6
-2 0 -31 -3.5 2.4
2 0 -31 2.9 3.5
-2 1 -31 -1.5 3.1
2 -1 -31 0.7 3.2
2 -1 31 -2.4 6.3
-2 -1 -31 -0.8 3.2
2 1 -31 0.9 3.5
2 -2 -31 1.5 3.6
-2 2 -31 -2.5 4
2 -2 31 -0.8 6
2 2 -31 -7.3 2.7
-2 -2 -31 3.1 3.5
3 0 -31 2.7 4.4
-3 0 -31 -1.5 3.2
-3 1 -31 14.9 5.6
3 -1 -31 18.4 5.9
3 1 -31 11.7 5.5
-3 -1 -31 17.1 5.8
3 -1 31 24.8 9.2
3 -2 -31 -0.5 3.3
-3 2 -31 3.4 4.7
3 -2 31 7.5 7.6
3 2 -31 5.4 4.7
-3 -2 -31 5.1 4
-4 0 -31 -3.3 3.1
-4 1 -31 55.79 9.8
4 -1 -31 40.3 8.6
-4 -1 -31 40.4 7.9
4 1 -31 28.4 7.9
4 -1 31 78.39 15.3
4 -2 -31 15.2 6.1
-4 2 -31 13.7 5.8
4 -2 31 28.5 10.7
4 2 -31 7.6 4.4
-4 -2 -31 10.7 5
-5 0 -31 -7.8 2.9
5 0 31 -3.1 4.4
5 0 -31 -1.5 3.1
-5 1 -31 20.1 6.7
5 -1 -31 28.8 6.9
5 -1 31 32.7 10.6
5 1 -31 26.6 6.9
-5 -1 -31 25.5 6.9
-5 2 -31 4.3 4.3
5 -2 -31 -1.7 4.1
-5 -2 -31 -3.2 3.6
5 -2 31 0.8 7.5
5 2 -31 1 3.9
-6 0 -31 -3.7 4
6 0 31 4.5 5.9
6 0 -31 0.3 3.4
6 -1 -31 175.38 19.8
-6 1 -31 213.88 21
-6 -1 -31 199.98 20
6 1 -31 164.28 20.2
-7 0 -31 5.7 4.4
7 0 -31 7 5.3
7 0 31 -3.3 5.9
7 -1 -31 196.68 22.9
-7 1 -31 262.07 24.3
7 1 -31 217.88 24.1
-7 -1 -31 232.68 23
0 0 -32 10.6 5.5
0 1 -32 -5.9 3.1
0 -1 -32 -5.2 2.9
1 0 -32 41.8 9.3
-1 0 -32 61.29 10.7
1 -1 -32 12.4 5.1
-1 1 -32 4.1 4
1 1 -32 8.5 5
-1 -1 -32 3.9 4.2
2 0 -32 5.8 4.1
2 -1 -32 52.09 10
-2 1 -32 73.09 11.9
2 1 -32 41.8 9.2
-2 -1 -32 59.29 10.2
-3 0 -32 32.7 8
