#------------------------------------------------------------------------------
#$Date: 2024-03-04 21:58:49 +0200 (Mon, 04 Mar 2024) $
#$Revision: 290113 $
#$URL: file:///home/coder/svn-repositories/cod/cif/1/57/05/1570599.cif $
#------------------------------------------------------------------------------
#
# This file is available in the Crystallography Open Database (COD),
# http://www.crystallography.net/
#
# All data on this site have been placed in the public domain by the
# contributors.
#
data_1570599
loop_
_publ_author_name
'Lee, Justin L.'
'Biswas, Saborni'
'Ziller, Joseph W.'
'Bominaar, Emile L.'
'Hendrich, Michael P.'
'Borovik, A. S.'
_publ_section_title
;
 Accessing a synthetic Fe<sup>III</sup>Mn<sup>IV</sup> core to model
 biological heterobimetallic active sites.
;
_journal_issue                   8
_journal_name_full               'Chemical science'
_journal_page_first              2817
_journal_page_last               2826
_journal_paper_doi               10.1039/d3sc04900k
_journal_volume                  15
_journal_year                    2024
_chemical_formula_sum            'C54 H65 Cl3 F6 Fe Mn N7 O10 P3 S2'
_chemical_formula_weight         1460.30
_chemical_name_systematic        '[(TMTACN)Fe(III)-(O)-Mn(III)poat](OTf)2'
_chemical_properties_physical    Air-sensitive,Moisture-sensitive
_space_group_crystal_system      monoclinic
_space_group_IT_number           14
_space_group_name_Hall           '-P 2ybc'
_space_group_name_H-M_alt        'P 1 21/c 1'
_atom_sites_solution_hydrogens   mixed
_atom_sites_solution_primary     direct
_atom_sites_solution_secondary   difmap
_audit_creation_method           SHELXL-2014/7
_audit_update_record
;
2023-08-10 deposited with the CCDC.	2023-12-26 downloaded from the CCDC.
;
_cell_angle_alpha                90
_cell_angle_beta                 92.1641(10)
_cell_angle_gamma                90
_cell_formula_units_Z            4
_cell_length_a                   16.7414(9)
_cell_length_b                   14.8414(8)
_cell_length_c                   26.8159(15)
_cell_measurement_reflns_used    9764
_cell_measurement_temperature    93(2)
_cell_measurement_theta_max      28.70
_cell_measurement_theta_min      2.35
_cell_volume                     6658.1(6)
_computing_cell_refinement       'Bruker SAINT 8.34a, 2013'
_computing_data_collection       'Bruker APEX2 2014.11-0, 2014'
_computing_data_reduction        'Bruker SAINT 8.34a, 2013'
_computing_molecular_graphics    'Bruker SHELXTL'
_computing_publication_material  'Bruker SHELXTL'
_computing_structure_refinement  'SHELXL-2014/7 (Sheldrick, 2014)'
_computing_structure_solution    'Bruker SHELXTL 2014/4'
_diffrn_ambient_temperature      93(2)
_diffrn_measured_fraction_theta_full 1.000
_diffrn_measured_fraction_theta_max 1.000
_diffrn_measurement_device_type  'Bruker SMART APEX II CCD'
_diffrn_measurement_method       '\f and \w scans'
_diffrn_radiation_type           MoK\a
_diffrn_radiation_wavelength     0.71073
_diffrn_reflns_av_R_equivalents  0.0398
_diffrn_reflns_av_unetI/netI     0.0303
_diffrn_reflns_Laue_measured_fraction_full 1.000
_diffrn_reflns_Laue_measured_fraction_max 1.000
_diffrn_reflns_limit_h_max       20
_diffrn_reflns_limit_h_min       -20
_diffrn_reflns_limit_k_max       18
_diffrn_reflns_limit_k_min       -18
_diffrn_reflns_limit_l_max       33
_diffrn_reflns_limit_l_min       -33
_diffrn_reflns_number            83071
_diffrn_reflns_point_group_measured_fraction_full 1.000
_diffrn_reflns_point_group_measured_fraction_max 1.000
_diffrn_reflns_theta_full        25.242
_diffrn_reflns_theta_max         26.022
_diffrn_reflns_theta_min         1.520
_diffrn_source                   'fine-focus sealed tube'
_exptl_absorpt_coefficient_mu    0.737
_exptl_absorpt_correction_T_max  0.7458
_exptl_absorpt_correction_T_min  0.5726
_exptl_absorpt_correction_type   multi-scan
_exptl_absorpt_process_details   'Bruker SADABS 2014/5'
_exptl_crystal_colour            green
_exptl_crystal_density_diffrn    1.457
_exptl_crystal_density_meas      ?
_exptl_crystal_density_method    not_measured
_exptl_crystal_description       prism
_exptl_crystal_F_000             3004
_exptl_crystal_recrystallization_method
'Re-crystallisation from solvent: Hexane, chloroform'
_exptl_crystal_size_max          0.280
_exptl_crystal_size_mid          0.279
_exptl_crystal_size_min          0.206
_refine_diff_density_max         0.675
_refine_diff_density_min         -0.458
_refine_diff_density_rms         0.065
_refine_ls_extinction_method     none
_refine_ls_goodness_of_fit_ref   1.034
_refine_ls_hydrogen_treatment    mixed
_refine_ls_matrix_type           full
_refine_ls_number_parameters     791
_refine_ls_number_reflns         13112
_refine_ls_number_restraints     0
_refine_ls_restrained_S_all      1.034
_refine_ls_R_factor_all          0.0459
_refine_ls_R_factor_gt           0.0344
_refine_ls_shift/su_max          0.001
_refine_ls_shift/su_mean         0.000
_refine_ls_structure_factor_coef Fsqd
_refine_ls_weighting_details
'w=1/[\s^2^(Fo^2^)+(0.0411P)^2^+6.3204P] where P=(Fo^2^+2Fc^2^)/3'
_refine_ls_weighting_scheme      calc
_refine_ls_wR_factor_gt          0.0851
_refine_ls_wR_factor_ref         0.0914
_reflns_Friedel_coverage         0.000
_reflns_number_gt                10852
_reflns_number_total             13112
_reflns_threshold_expression     'I > 2\s(I)'
_cod_data_source_file            d3sc04900k2.cif
_cod_data_source_block           asb655
_cod_depositor_comments
;
The following automatic conversions were performed:

data item '_exptl_crystal_density_meas' value 'not_measured' was
changed to '?' -- the value is perceived as not measured.

Automatic conversion script
Id: cif_fix_values 8170 2020-07-09 18:12:32Z antanas 

 Adding full bibliography for 1570597--1570599.cif.
;
_cod_original_sg_symbol_H-M      'P 21/c'
_cod_database_code               1570599
_shelx_shelxl_version_number     2014/7
_shelx_space_group_comment
; 
The symmetry employed for this shelxl refinement is uniquely defined 
by the following loop, which should always be used as a source of 
symmetry information in preference to the above space-group names. 
They are only intended as comments. 
;
_shelx_estimated_absorpt_t_min   0.820
_shelx_estimated_absorpt_t_max   0.863
_exptl_absorpt_special_details
; 
Reflections not merged 
100583 Corrected reflections written to file asb655s.hkl 
Estimated minimum and maximum transmission:  0.5726  0.7458 
The ratio (0.7678) of these values is more reliable than their absolute values 
Additional spherical absorption correction applied with mu*r =  0.2000 
Lambda/2 correction factor = 0.00150 
;
_shelx_res_file
; 
  
    asb655.res created by SHELXL-2014/7 
  
  
TITL asb655 in P2(1)/c 
CELL 0.71073  16.74140  14.84140  26.81590  90.0000  92.1641  90.0000 
ZERR    4.00   0.00090   0.00080   0.00150   0.0000   0.0010   0.0000 
LATT 1 
SYMM -X,0.5+Y,0.5-Z 
SFAC C H N O F P S CL MN FE 
UNIT 216 260 28 40 24 12 8 12 4 4 
SIZE 0.206 0.279 0.28 
TEMP -180.00 
  
SHEL 100 0.81 
  
OMIT  1  0  0 
OMIT -8 14 16 
OMIT -7 14 18 
  
L.S. 10 
FMAP 2 
PLAN 10 
  
BIND MN1 FE1 
HTAB N2 O6 
  
ABIN 
  
ACTA 
  
WGHT    0.041100    6.320400 
FVAR       0.05838 
MN1   9    0.349767    0.393380    0.249728    11.00000    0.01061    0.01541 = 
         0.01271   -0.00174   -0.00221    0.00036 
FE1  10    0.230471    0.259992    0.304377    11.00000    0.01285    0.01660 = 
         0.01678    0.00053   -0.00233    0.00010 
P1    6    0.456668    0.330019    0.165091    11.00000    0.01342    0.01862 = 
         0.01554    0.00021    0.00018   -0.00006 
P2    6    0.353377    0.387438    0.368881    11.00000    0.01354    0.01770 = 
         0.01288   -0.00042   -0.00073   -0.00171 
P3    6    0.165551    0.442000    0.244637    11.00000    0.01222    0.01564 = 
         0.01470    0.00159   -0.00217   -0.00045 
O1    4    0.313516    0.284010    0.266111    11.00000    0.01626    0.02210 = 
         0.01943   -0.00414   -0.00178    0.00149 
O2    4    0.449390    0.338669    0.220954    11.00000    0.01789    0.02098 = 
         0.01614    0.00056    0.00020    0.00042 
O3    4    0.281500    0.323919    0.365882    11.00000    0.01406    0.01976 = 
         0.01576    0.00058   -0.00079   -0.00147 
O4    4    0.161212    0.361121    0.279024    11.00000    0.01250    0.01764 = 
         0.01685    0.00269   -0.00187    0.00016 
N1    3    0.398660    0.530878    0.227205    11.00000    0.01636    0.01849 = 
         0.01430    0.00022   -0.00033   -0.00205 
N2    3    0.413131    0.411662    0.134327    11.00000    0.01482    0.01897 = 
         0.01822    0.00001   -0.00271   -0.00220 
H2    2    0.376167    0.399454    0.114445    11.00000    0.04588 
N3    3    0.366204    0.445110    0.318597    11.00000    0.01774    0.01598 = 
         0.01454   -0.00027   -0.00199   -0.00222 
N4    3    0.250787    0.449698    0.218794    11.00000    0.01382    0.02093 = 
         0.01571    0.00547   -0.00105   -0.00102 
N5    3    0.271678    0.124470    0.328144    11.00000    0.01265    0.01897 = 
         0.01765    0.00210   -0.00332   -0.00016 
N6    3    0.128877    0.215967    0.348769    11.00000    0.01171    0.02058 = 
         0.02376    0.00441   -0.00292    0.00025 
N7    3    0.165304    0.172900    0.248421    11.00000    0.01953    0.01844 = 
         0.02329    0.00145   -0.00703    0.00106 
C1    1    0.462610    0.536735    0.190310    11.00000    0.01290    0.01813 = 
         0.02142    0.00244    0.00195   -0.00365 
AFIX  23 
H1A   2    0.508675    0.500403    0.202917    11.00000   -1.20000 
H1B   2    0.480618    0.600174    0.188733    11.00000   -1.20000 
AFIX   0 
C2    1    0.440416    0.505596    0.137333    11.00000    0.01655    0.02063 = 
         0.01818    0.00243    0.00093   -0.00249 
AFIX  23 
H2A   2    0.397586    0.545126    0.123271    11.00000   -1.20000 
H2B   2    0.487568    0.512648    0.116481    11.00000   -1.20000 
AFIX   0 
C3    1    0.433669    0.565027    0.275640    11.00000    0.02415    0.01691 = 
         0.02001   -0.00229   -0.00455   -0.00576 
AFIX  23 
H3A   2    0.440404    0.631172    0.273526    11.00000   -1.20000 
H3B   2    0.487211    0.537978    0.281709    11.00000   -1.20000 
AFIX   0 
C4    1    0.381786    0.542968    0.318975    11.00000    0.03298    0.01708 = 
         0.01693   -0.00055    0.00016   -0.00403 
AFIX  23 
H4A   2    0.409352    0.560597    0.350803    11.00000   -1.20000 
H4B   2    0.330740    0.576513    0.315737    11.00000   -1.20000 
AFIX   0 
C5    1    0.328319    0.587557    0.211107    11.00000    0.01823    0.01678 = 
         0.02085    0.00306    0.00183    0.00167 
AFIX  23 
H5A   2    0.345248    0.634338    0.187401    11.00000   -1.20000 
H5B   2    0.306479    0.618091    0.240454    11.00000   -1.20000 
AFIX   0 
C6    1    0.264634    0.528611    0.186364    11.00000    0.01457    0.02096 = 
         0.01756    0.00572    0.00146    0.00260 
AFIX  23 
H6A   2    0.214452    0.563247    0.181258    11.00000   -1.20000 
H6B   2    0.282189    0.508201    0.153380    11.00000   -1.20000 
AFIX   0 
C7    1    0.412242    0.228685    0.140370    11.00000    0.01424    0.02011 = 
         0.02027   -0.00267   -0.00180    0.00134 
C8    1    0.397296    0.215658    0.089275    11.00000    0.04186    0.02568 = 
         0.02135    0.00167   -0.00174   -0.00438 
AFIX  43 
H8A   2    0.406713    0.262995    0.066385    11.00000   -1.20000 
AFIX   0 
C9    1    0.368629    0.133184    0.072201    11.00000    0.05358    0.03252 = 
         0.02143   -0.00598   -0.00547   -0.00552 
AFIX  43 
H9A   2    0.358288    0.124124    0.037485    11.00000   -1.20000 
AFIX   0 
C10   1    0.354969    0.063930    0.105402    11.00000    0.03077    0.02429 = 
         0.03333   -0.00686   -0.00231   -0.00418 
AFIX  43 
H10A  2    0.336314    0.007241    0.093333    11.00000   -1.20000 
AFIX   0 
C11   1    0.368382    0.077016    0.156008    11.00000    0.02066    0.02169 = 
         0.02984    0.00045    0.00274   -0.00006 
AFIX  43 
H11A  2    0.358311    0.029703    0.178790    11.00000   -1.20000 
AFIX   0 
C12   1    0.396708    0.159771    0.173519    11.00000    0.01758    0.02246 = 
         0.02193   -0.00060    0.00023   -0.00071 
AFIX  43 
H12A  2    0.405437    0.169070    0.208351    11.00000   -1.20000 
AFIX   0 
C13   1    0.561125    0.328134    0.152617    11.00000    0.01707    0.01984 = 
         0.02130    0.00240    0.00117    0.00205 
C14   1    0.618816    0.320441    0.191107    11.00000    0.02047    0.02803 = 
         0.01972   -0.00457   -0.00172    0.00044 
AFIX  43 
H14A  2    0.603367    0.320126    0.224833    11.00000   -1.20000 
AFIX   0 
C15   1    0.699068    0.313218    0.180183    11.00000    0.01827    0.03676 = 
         0.03327   -0.00645   -0.00666    0.00232 
AFIX  43 
H15A  2    0.738380    0.307724    0.206493    11.00000   -1.20000 
AFIX   0 
C16   1    0.721819    0.313996    0.131331    11.00000    0.01522    0.04520 = 
         0.04105    0.00479    0.00292    0.00560 
AFIX  43 
H16A  2    0.776713    0.308707    0.124041    11.00000   -1.20000 
AFIX   0 
C17   1    0.665092    0.322429    0.093048    11.00000    0.02378    0.09223 = 
         0.02755    0.01768    0.01005    0.01698 
AFIX  43 
H17A  2    0.681010    0.323695    0.059424    11.00000   -1.20000 
AFIX   0 
C18   1    0.584801    0.329076    0.103484    11.00000    0.01890    0.07574 = 
         0.02321    0.01263    0.00038    0.01162 
AFIX  43 
H18A  2    0.545834    0.334293    0.076958    11.00000   -1.20000 
AFIX   0 
C19   1    0.344779    0.462751    0.421454    11.00000    0.02385    0.02223 = 
         0.01368   -0.00012    0.00087   -0.00115 
C20   1    0.271246    0.479197    0.441861    11.00000    0.02384    0.03473 = 
         0.02282   -0.00387    0.00142   -0.00153 
AFIX  43 
H20A  2    0.225233    0.447262    0.429883    11.00000   -1.20000 
AFIX   0 
C21   1    0.264789    0.542176    0.479717    11.00000    0.03362    0.04262 = 
         0.02752   -0.00729    0.00454    0.00486 
AFIX  43 
H21A  2    0.214354    0.553065    0.493651    11.00000   -1.20000 
AFIX   0 
C22   1    0.331257    0.589095    0.497242    11.00000    0.04847    0.02825 = 
         0.02018   -0.00719    0.00083   -0.00195 
AFIX  43 
H22A  2    0.326123    0.633665    0.522346    11.00000   -1.20000 
AFIX   0 
C23   1    0.405090    0.571383    0.478372    11.00000    0.03529    0.02542 = 
         0.02228   -0.00090   -0.00481   -0.00424 
AFIX  43 
H23A  2    0.451061    0.602630    0.491009    11.00000   -1.20000 
AFIX   0 
C24   1    0.412022    0.508081    0.441045    11.00000    0.02753    0.02371 = 
         0.02057   -0.00113   -0.00365   -0.00166 
AFIX  43 
H24A  2    0.463125    0.495208    0.428542    11.00000   -1.20000 
AFIX   0 
C25   1    0.444359    0.325545    0.384484    11.00000    0.01648    0.01698 = 
         0.01758   -0.00215   -0.00342   -0.00387 
C26   1    0.449360    0.274172    0.428270    11.00000    0.02166    0.02225 = 
         0.01868   -0.00099   -0.00287   -0.00447 
AFIX  43 
H26A  2    0.404494    0.269381    0.448766    11.00000   -1.20000 
AFIX   0 
C27   1    0.520450    0.230112    0.441639    11.00000    0.02767    0.01959 = 
         0.02539    0.00219   -0.00959   -0.00093 
AFIX  43 
H27A  2    0.523762    0.194547    0.471100    11.00000   -1.20000 
AFIX   0 
C28   1    0.586254    0.237867    0.412246    11.00000    0.01995    0.01886 = 
         0.03674   -0.00429   -0.01037    0.00358 
AFIX  43 
H28A  2    0.634616    0.207959    0.421797    11.00000   -1.20000 
AFIX   0 
C29   1    0.582134    0.288852    0.369054    11.00000    0.01667    0.02226 = 
         0.03592   -0.00631   -0.00008   -0.00312 
AFIX  43 
H29A  2    0.627503    0.294031    0.349012    11.00000   -1.20000 
AFIX   0 
C30   1    0.510888    0.332727    0.355031    11.00000    0.01718    0.02044 = 
         0.02261    0.00096   -0.00027   -0.00317 
AFIX  43 
H30A  2    0.507811    0.367579    0.325305    11.00000   -1.20000 
AFIX   0 
C31   1    0.086701    0.434428    0.196706    11.00000    0.01573    0.01226 = 
         0.01940    0.00202   -0.00366   -0.00037 
C32   1    0.103966    0.429495    0.146304    11.00000    0.01956    0.02428 = 
         0.01965    0.00266   -0.00177   -0.00353 
AFIX  43 
H32A  2    0.157859    0.432327    0.136520    11.00000   -1.20000 
AFIX   0 
C33   1    0.042445    0.420440    0.110345    11.00000    0.03220    0.02793 = 
         0.01816    0.00056   -0.00418   -0.00554 
AFIX  43 
H33A  2    0.054184    0.418457    0.075978    11.00000   -1.20000 
AFIX   0 
C34   1   -0.036138    0.414304    0.124742    11.00000    0.02357    0.02186 = 
         0.02876    0.00345   -0.01392   -0.00433 
AFIX  43 
H34A  2   -0.078223    0.408594    0.100175    11.00000   -1.20000 
AFIX   0 
C35   1   -0.053309    0.416483    0.174784    11.00000    0.01430    0.01460 = 
         0.03208    0.00173   -0.00481   -0.00071 
AFIX  43 
H35A  2   -0.107028    0.410260    0.184475    11.00000   -1.20000 
AFIX   0 
C36   1    0.007398    0.427697    0.210916    11.00000    0.01742    0.01305 = 
         0.02095    0.00240   -0.00122    0.00213 
AFIX  43 
H36A  2   -0.004856    0.430792    0.245176    11.00000   -1.20000 
AFIX   0 
C37   1    0.141626    0.538787    0.282252    11.00000    0.01307    0.01862 = 
         0.01907   -0.00053   -0.00173   -0.00312 
C38   1    0.124170    0.623150    0.262342    11.00000    0.01494    0.02324 = 
         0.02206    0.00524    0.00017    0.00077 
AFIX  43 
H38A  2    0.125029    0.632022    0.227282    11.00000   -1.20000 
AFIX   0 
C39   1    0.105512    0.694527    0.293064    11.00000    0.01476    0.01802 = 
         0.03189    0.00378   -0.00234   -0.00002 
AFIX  43 
H39A  2    0.093886    0.752044    0.279039    11.00000   -1.20000 
AFIX   0 
PART   1 11.0 
C40   1    0.103796    0.682295    0.343707    11.00000    0.03736    0.02225 = 
         0.03094   -0.00724   -0.00121   -0.00018 
AFIX  43 
H40A  2    0.088083    0.730423    0.364537    11.00000   -1.20000 
AFIX   0 
C41   1    0.125052    0.599426    0.364638    11.00000    0.06015    0.03071 = 
         0.02226   -0.00041   -0.00004    0.00393 
AFIX  43 
H41A  2    0.126419    0.591774    0.399833    11.00000   -1.20000 
AFIX   0 
C42   1    0.144229    0.528070    0.333857    11.00000    0.04819    0.02260 = 
         0.02333    0.00242   -0.00196    0.00359 
AFIX  43 
H42A  2    0.159206    0.471636    0.348075    11.00000   -1.20000 
AFIX   0 
C43   1    0.353562    0.128183    0.350743    11.00000    0.01484    0.02243 = 
         0.02599    0.00177   -0.00487    0.00264 
AFIX 137 
H43A  2    0.375052    0.066955    0.353984    11.00000   -1.50000 
H43B  2    0.352177    0.156129    0.383811    11.00000   -1.50000 
H43C  2    0.387722    0.163927    0.329411    11.00000   -1.50000 
AFIX   0 
C44   1    0.216407    0.083687    0.364625    11.00000    0.01832    0.02203 = 
         0.02317    0.00665   -0.00279   -0.00033 
AFIX  23 
H44A  2    0.247991    0.051636    0.391061    11.00000   -1.20000 
H44B  2    0.181011    0.039329    0.347279    11.00000   -1.20000 
AFIX   0 
C45   1    0.166296    0.156117    0.387928    11.00000    0.01676    0.02568 = 
         0.02164    0.00845    0.00208    0.00085 
AFIX  23 
H45A  2    0.123932    0.127651    0.407332    11.00000   -1.20000 
H45B  2    0.200371    0.192609    0.411162    11.00000   -1.20000 
AFIX   0 
C46   1    0.089604    0.292281    0.373645    11.00000    0.01992    0.02511 = 
         0.03060    0.00535    0.00722    0.00328 
AFIX 137 
H46A  2    0.049213    0.269097    0.395843    11.00000   -1.50000 
H46B  2    0.063906    0.331474    0.348381    11.00000   -1.50000 
H46C  2    0.129706    0.326772    0.393172    11.00000   -1.50000 
AFIX   0 
C47   1    0.068423    0.166123    0.316380    11.00000    0.01413    0.02579 = 
         0.03860    0.00501   -0.00653   -0.00412 
AFIX  23 
H47A  2    0.014079    0.186172    0.324606    11.00000   -1.20000 
H47B  2    0.072472    0.100859    0.323679    11.00000   -1.20000 
AFIX   0 
C48   1    0.080272    0.181321    0.261150    11.00000    0.01580    0.02290 = 
         0.03571    0.00226   -0.00977   -0.00195 
AFIX  23 
H48A  2    0.048141    0.136781    0.241591    11.00000   -1.20000 
H48B  2    0.060762    0.242204    0.251779    11.00000   -1.20000 
AFIX   0 
C49   1    0.175637    0.204503    0.196621    11.00000    0.03256    0.02211 = 
         0.02303   -0.00055   -0.00894    0.00109 
AFIX 137 
H49A  2    0.142156    0.168225    0.173557    11.00000   -1.50000 
H49B  2    0.231815    0.198254    0.188185    11.00000   -1.50000 
H49C  2    0.159769    0.267921    0.193877    11.00000   -1.50000 
AFIX   0 
C50   1    0.193048    0.077572    0.252568    11.00000    0.02984    0.01593 = 
         0.02672   -0.00175   -0.00866    0.00065 
AFIX  23 
H50A  2    0.198377    0.051968    0.218766    11.00000   -1.20000 
H50B  2    0.152969    0.041433    0.270001    11.00000   -1.20000 
AFIX   0 
C51   1    0.272746    0.072397    0.281056    11.00000    0.02536    0.01778 = 
         0.02165   -0.00305   -0.00441    0.00334 
AFIX  23 
H51A  2    0.285432    0.008616    0.288722    11.00000   -1.20000 
H51B  2    0.315166    0.096335    0.259987    11.00000   -1.20000 
AFIX   0 
S1    7    0.280780    0.414071    0.012077    11.00000    0.02912    0.03267 = 
         0.02412   -0.00897   -0.00884    0.00922 
O5    4    0.298272    0.327871   -0.009072    11.00000    0.02867    0.03264 = 
         0.03419   -0.00892   -0.00242    0.00500 
O6    4    0.278035    0.416987    0.065890    11.00000    0.02313    0.05060 = 
         0.02416   -0.00919   -0.00487    0.00420 
O7    4    0.218534    0.464038   -0.014178    11.00000    0.05593    0.05650 = 
         0.03936   -0.02268   -0.02721    0.03397 
C52   1    0.371408    0.477879   -0.000009    11.00000    0.06460    0.03730 = 
         0.02085   -0.00166   -0.00679   -0.01123 
F1    5    0.385130    0.481803   -0.048748    11.00000    0.09081    0.06062 = 
         0.01926    0.00029   -0.00235   -0.03064 
F2    5    0.435614    0.439557    0.022695    11.00000    0.03440    0.07950 = 
         0.02956    0.00106   -0.00176   -0.01693 
F3    5    0.366872    0.562080    0.016905    11.00000    0.12463    0.03693 = 
         0.03948   -0.00842   -0.01352   -0.02499 
S2    7    0.202189    0.847762    0.188547    11.00000    0.02584    0.01887 = 
         0.01917    0.00151    0.00398    0.00254 
O8    4    0.212132    0.753081    0.178669    11.00000    0.03658    0.02039 = 
         0.02579   -0.00013    0.00201    0.00246 
O9    4    0.138805    0.870074    0.221255    11.00000    0.04210    0.03285 = 
         0.03309    0.00479    0.01934    0.00695 
O10   4    0.275607    0.896327    0.198393    11.00000    0.02989    0.02905 = 
         0.02968   -0.00457   -0.00503   -0.00241 
C53   1    0.166047    0.893989    0.128801    11.00000    0.02733    0.02669 = 
         0.02812    0.00200   -0.00192   -0.00266 
F4    5    0.216951    0.877484    0.092571    11.00000    0.04399    0.04385 = 
         0.02000    0.00189    0.00556   -0.00851 
F5    5    0.095513    0.859747    0.114056    11.00000    0.02726    0.05084 = 
         0.04998    0.00487   -0.01376   -0.00565 
F6    5    0.157669    0.983693    0.131387    11.00000    0.06031    0.02559 = 
         0.04113    0.00981   -0.00827    0.00710 
C54   1    0.128138    0.633837    0.023489    11.00000    0.03959    0.03315 = 
         0.02898   -0.00720   -0.00533    0.00853 
AFIX  13 
H54A  2    0.150949    0.575605    0.011804    11.00000   -1.20000 
AFIX   0 
CL1   8    0.022349    0.624860    0.023189    11.00000    0.03892    0.06304 = 
         0.03496   -0.00548   -0.00169   -0.00465 
CL2   8    0.165552    0.656086    0.084044    11.00000    0.05962    0.04014 = 
         0.02787   -0.00038   -0.01636   -0.00261 
CL3   8    0.155969    0.721143   -0.017331    11.00000    0.04491    0.06105 = 
         0.03017    0.00535    0.00488   -0.00037 
HKLF 4 
  
REM  asb655 in P2(1)/c 
REM R1 =  0.0344 for   10852 Fo > 4sig(Fo)  and  0.0459 for all   13112 data 
REM    791 parameters refined using      0 restraints 
  
END 
  
WGHT      0.0411      6.3146 
  
REM Highest difference peak  0.675,  deepest hole -0.458,  1-sigma level  0.065 
Q1    1   0.1540  0.6612 -0.0167  11.00000  0.05    0.68 
Q2    1   0.3531  0.4236  0.3419  11.00000  0.05    0.50 
Q3    1   0.1527  0.4892  0.2689  11.00000  0.05    0.49 
Q4    1   0.3486  0.4246  0.3997  11.00000  0.05    0.49 
Q5    1   0.0434  0.5893  0.3537  11.00000  0.05    0.41 
Q6    1   0.1852  0.8776  0.1580  11.00000  0.05    0.40 
Q7    1   0.2486  0.5207  0.4141  11.00000  0.05    0.39 
Q8    1   0.0749  0.5264  0.3259  11.00000  0.05    0.38 
Q9    1   0.2927  0.6173  0.4772  11.00000  0.05    0.38 
Q10   1   0.0582  0.5873  0.0138  11.00000  0.05    0.37 
;
_shelx_res_checksum              23427
_shelx_fab_file
; 
    1    0    0    156.69      0.00 
    2    0    0     65.89      0.00 
    3    0    0      4.20      0.00 
    4    0    0     -4.24      0.00 
    5    0    0      8.61      0.00 
    6    0    0      9.77      0.00 
    7    0    0     -4.76      0.00 
    8    0    0    -22.51      0.00 
    9    0    0    -31.26      0.00 
   10    0    0    -26.14      0.00 
   11    0    0    -13.64      0.00 
   12    0    0     -5.74      0.00 
   13    0    0     -6.03      0.00 
   14    0    0     -7.57      0.00 
   15    0    0     -4.93      0.00 
   16    0    0      0.03      0.00 
   17    0    0      3.75      0.00 
   18    0    0      4.78      0.00 
   19    0    0      2.68      0.00 
   20    0    0     -1.04      0.00 
   21    0    0     -2.73      0.00 
   22    0    0     -1.13      0.00 
    1    1    0    -71.39      0.00 
    2    1    0    -84.98      0.00 
    3    1    0    -47.97      0.00 
    4    1    0    -11.45      0.00 
    5    1    0     -5.36      0.00 
    6    1    0    -18.80      0.00 
    7    1    0    -29.18      0.00 
    8    1    0    -25.90      0.00 
    9    1    0    -11.64      0.00 
   10    1    0      2.87      0.00 
   11    1    0      7.45      0.00 
   12    1    0      2.85      0.00 
   13    1    0     -1.20      0.00 
   14    1    0      0.61      0.00 
   15    1    0      4.55      0.00 
   16    1    0      5.99      0.00 
   17    1    0      4.44      0.00 
   18    1    0      1.23      0.00 
   19    1    0     -1.77      0.00 
   20    1    0     -2.17      0.00 
   21    1    0     -0.03      0.00 
   22    1    0      1.48      0.00 
    0    2    0    -22.59      0.00 
    1    2    0     -3.66      0.00 
    2    2    0     30.13      0.00 
    3    2    0     40.22      0.00 
    4    2    0     19.00      0.00 
    5    2    0     -9.47      0.00 
    6    2    0    -22.67      0.00 
    7    2    0    -17.82      0.00 
    8    2    0     -5.07      0.00 
    9    2    0      3.65      0.00 
   10    2    0      2.55      0.00 
   11    2    0     -3.79      0.00 
   12    2    0     -6.07      0.00 
   13    2    0     -1.76      0.00 
   14    2    0      3.51      0.00 
   15    2    0      4.97      0.00 
   16    2    0      3.17      0.00 
   17    2    0      0.61      0.00 
   18    2    0     -0.93      0.00 
   19    2    0     -0.40      0.00 
   20    2    0      1.31      0.00 
   21    2    0      1.80      0.00 
   22    2    0      0.56      0.00 
    1    3    0      3.97      0.00 
    2    3    0     -8.43      0.00 
    3    3    0    -31.95      0.00 
    4    3    0    -47.32      0.00 
    5    3    0    -43.83      0.00 
    6    3    0    -27.00      0.00 
    7    3    0     -9.35      0.00 
    8    3    0     -0.05      0.00 
    9    3    0     -0.21      0.00 
   10    3    0     -3.26      0.00 
   11    3    0     -2.02      0.00 
   12    3    0      3.59      0.00 
   13    3    0      8.00      0.00 
   14    3    0      7.90      0.00 
   15    3    0      4.82      0.00 
   16    3    0      1.49      0.00 
   17    3    0     -0.54      0.00 
   18    3    0     -0.82      0.00 
   19    3    0     -0.32      0.00 
   20    3    0     -0.69      0.00 
   21    3    0     -1.85      0.00 
   22    3    0     -2.07      0.00 
    0    4    0    -21.70      0.00 
    1    4    0    -24.89      0.00 
    2    4    0    -29.22      0.00 
    3    4    0    -25.77      0.00 
    4    4    0    -12.98      0.00 
    5    4    0      2.13      0.00 
    6    4    0     11.19      0.00 
    7    4    0     11.02      0.00 
    8    4    0      5.12      0.00 
    9    4    0      0.60      0.00 
   10    4    0      1.87      0.00 
   11    4    0      6.68      0.00 
   12    4    0      9.53      0.00 
   13    4    0      8.05      0.00 
   14    4    0      4.21      0.00 
   15    4    0      0.79      0.00 
   16    4    0     -0.76      0.00 
   17    4    0     -0.32      0.00 
   18    4    0      0.83      0.00 
   19    4    0      0.94      0.00 
   20    4    0     -0.03      0.00 
   21    4    0     -0.46      0.00 
   22    4    0      0.24      0.00 
    1    5    0     -3.16      0.00 
    2    5    0     -2.17      0.00 
    3    5    0      2.62      0.00 
    4    5    0      7.12      0.00 
    5    5    0      8.00      0.00 
    6    5    0      5.51      0.00 
    7    5    0      2.81      0.00 
    8    5    0      3.22      0.00 
    9    5    0      7.10      0.00 
   10    5    0     11.10      0.00 
   11    5    0     11.44      0.00 
   12    5    0      7.67      0.00 
   13    5    0      2.50      0.00 
   14    5    0     -1.27      0.00 
   15    5    0     -2.73      0.00 
   16    5    0     -2.52      0.00 
   17    5    0     -2.12      0.00 
   18    5    0     -2.70      0.00 
   19    5    0     -3.89      0.00 
   20    5    0     -4.07      0.00 
   21    5    0     -2.66      0.00 
    0    6    0     -3.44      0.00 
    1    6    0     -2.23      0.00 
    2    6    0      0.69      0.00 
    3    6    0      3.75      0.00 
    4    6    0      5.66      0.00 
    5    6    0      6.17      0.00 
    6    6    0      5.91      0.00 
    7    6    0      5.67      0.00 
    8    6    0      5.66      0.00 
    9    6    0      5.13      0.00 
   10    6    0      3.07      0.00 
   11    6    0     -0.56      0.00 
   12    6    0     -4.32      0.00 
   13    6    0     -6.38      0.00 
   14    6    0     -6.16      0.00 
   15    6    0     -4.63      0.00 
   16    6    0     -3.28      0.00 
   17    6    0     -2.90      0.00 
   18    6    0     -3.08      0.00 
   19    6    0     -2.83      0.00 
   20    6    0     -1.74      0.00 
   21    6    0     -0.47      0.00 
    1    7    0     -0.63      0.00 
    2    7    0      0.58      0.00 
    3    7    0      2.70      0.00 
    4    7    0      3.22      0.00 
    5    7    0      1.25      0.00 
    6    7    0     -1.59      0.00 
    7    7    0     -2.83      0.00 
    8    7    0     -1.49      0.00 
    9    7    0      0.98      0.00 
   10    7    0      2.04      0.00 
   11    7    0      0.90      0.00 
   12    7    0     -0.58      0.00 
   13    7    0     -0.33      0.00 
   14    7    0      1.26      0.00 
   15    7    0      2.18      0.00 
   16    7    0      1.51      0.00 
   17    7    0      0.12      0.00 
   18    7    0     -0.75      0.00 
   19    7    0     -0.64      0.00 
   20    7    0      0.13      0.00 
   21    7    0      0.88      0.00 
    0    8    0     -3.67      0.00 
    1    8    0     -0.75      0.00 
    2    8    0      4.59      0.00 
    3    8    0      6.62      0.00 
    4    8    0      4.24      0.00 
    5    8    0      1.48      0.00 
    6    8    0      2.25      0.00 
    7    8    0      6.36      0.00 
    8    8    0      9.92      0.00 
    9    8    0      8.95      0.00 
   10    8    0      3.36      0.00 
   11    8    0     -2.54      0.00 
   12    8    0     -4.67      0.00 
   13    8    0     -3.63      0.00 
   14    8    0     -3.05      0.00 
   15    8    0     -4.54      0.00 
   16    8    0     -6.24      0.00 
   17    8    0     -6.06      0.00 
   18    8    0     -4.09      0.00 
   19    8    0     -1.76      0.00 
   20    8    0     -0.15      0.00 
    1    9    0      6.50      0.00 
    2    9    0      6.20      0.00 
    3    9    0      0.30      0.00 
    4    9    0     -4.28      0.00 
    5    9    0     -3.33      0.00 
    6    9    0      0.76      0.00 
    7    9    0      2.50      0.00 
    8    9    0     -1.01      0.00 
    9    9    0     -7.30      0.00 
   10    9    0    -10.80      0.00 
   11    9    0     -8.46      0.00 
   12    9    0     -3.15      0.00 
   13    9    0     -0.11      0.00 
   14    9    0     -0.71      0.00 
   15    9    0     -1.62      0.00 
   16    9    0     -0.01      0.00 
   17    9    0      2.98      0.00 
   18    9    0      4.55      0.00 
   19    9    0      3.74      0.00 
   20    9    0      1.82      0.00 
    0   10    0      1.32      0.00 
    1   10    0     -2.12      0.00 
    2   10    0     -8.18      0.00 
    3   10    0     -9.40      0.00 
    4   10    0     -3.83      0.00 
    5   10    0      3.28      0.00 
    6   10    0      5.75      0.00 
    7   10    0      2.62      0.00 
    8   10    0     -1.74      0.00 
    9   10    0     -2.35      0.00 
   10   10    0      1.37      0.00 
   11   10    0      5.22      0.00 
   12   10    0      4.85      0.00 
   13   10    0      0.84      0.00 
   14   10    0     -2.25      0.00 
   15   10    0     -1.67      0.00 
   16   10    0      0.58      0.00 
   17   10    0      1.14      0.00 
   18   10    0     -0.49      0.00 
   19   10    0     -2.12      0.00 
    1   11    0     -3.19      0.00 
    2   11    0     -0.94      0.00 
    3   11    0      5.82      0.00 
    4   11    0     10.92      0.00 
    5   11    0      9.79      0.00 
    6   11    0      3.92      0.00 
    7   11    0     -1.34      0.00 
    8   11    0     -2.27      0.00 
    9   11    0      0.03      0.00 
   10   11    0      1.29      0.00 
   11   11    0     -1.12      0.00 
   12   11    0     -5.16      0.00 
   13   11    0     -6.55      0.00 
   14   11    0     -3.90      0.00 
   15   11    0     -0.13      0.00 
   16   11    0      1.43      0.00 
   17   11    0      0.65      0.00 
   18   11    0     -0.33      0.00 
    0   12    0     -2.87      0.00 
    1   12    0     -0.35      0.00 
    2   12    0      4.39      0.00 
    3   12    0      6.05      0.00 
    4   12    0      2.54      0.00 
    5   12    0     -3.17      0.00 
    6   12    0     -6.38      0.00 
    7   12    0     -5.07      0.00 
    8   12    0     -1.55      0.00 
    9   12    0      0.00      0.00 
   10   12    0     -2.06      0.00 
   11   12    0     -4.89      0.00 
   12   12    0     -4.60      0.00 
   13   12    0     -0.99      0.00 
   14   12    0      2.54      0.00 
   15   12    0      3.45      0.00 
   16   12    0      2.41      0.00 
   17   12    0      1.32      0.00 
   18   12    0      0.81      0.00 
    1   13    0      4.71      0.00 
    2   13    0      5.31      0.00 
    3   13    0      1.93      0.00 
    4   13    0     -1.71      0.00 
    5   13    0     -2.25      0.00 
    6   13    0      0.55      0.00 
    7   13    0      3.79      0.00 
    8   13    0      3.91      0.00 
    9   13    0      0.45      0.00 
   10   13    0     -2.92      0.00 
   11   13    0     -2.66      0.00 
   12   13    0      0.26      0.00 
   13   13    0      2.07      0.00 
   14   13    0      1.32      0.00 
   15   13    0     -0.18      0.00 
   16   13    0     -0.77      0.00 
   17   13    0     -0.70      0.00 
    0   14    0      9.32      0.00 
    1   14    0      6.90      0.00 
    2   14    0      1.99      0.00 
    3   14    0     -1.19      0.00 
    4   14    0     -0.85      0.00 
    5   14    0      1.40      0.00 
    6   14    0      2.51      0.00 
    7   14    0      0.44      0.00 
    8   14    0     -3.79      0.00 
    9   14    0     -6.39      0.00 
   10   14    0     -5.01      0.00 
   11   14    0     -1.76      0.00 
   12   14    0     -0.31      0.00 
   13   14    0     -1.06      0.00 
   14   14    0     -1.57      0.00 
   15   14    0     -0.78      0.00 
   16   14    0      0.18      0.00 
    1   15    0     -3.95      0.00 
    2   15    0     -4.58      0.00 
    3   15    0     -2.30      0.00 
    4   15    0     -0.09      0.00 
    5   15    0     -0.15      0.00 
    6   15    0     -2.40      0.00 
    7   15    0     -4.86      0.00 
    8   15    0     -4.90      0.00 
    9   15    0     -1.88      0.00 
   10   15    0      1.53      0.00 
   11   15    0      2.41      0.00 
   12   15    0      1.06      0.00 
   13   15    0     -0.14      0.00 
   14   15    0     -0.21      0.00 
   15   15    0      0.01      0.00 
    0   16    0     -2.28      0.00 
    1   16    0     -1.03      0.00 
    2   16    0      1.14      0.00 
    3   16    0      1.75      0.00 
    4   16    0      0.32      0.00 
    5   16    0     -1.85      0.00 
    6   16    0     -3.24      0.00 
    7   16    0     -2.75      0.00 
    8   16    0     -0.47      0.00 
    9   16    0      1.63      0.00 
   10   16    0      1.60      0.00 
   11   16    0     -0.16      0.00 
   12   16    0     -1.63      0.00 
   13   16    0     -1.87      0.00 
    1   17    0      0.72      0.00 
    2   17    0      0.21      0.00 
    3   17    0     -1.02      0.00 
    4   17    0     -1.97      0.00 
    5   17    0     -2.35      0.00 
    6   17    0     -1.75      0.00 
    7   17    0      0.19      0.00 
    8   17    0      2.22      0.00 
    9   17    0      2.45      0.00 
   10   17    0      0.99      0.00 
   11   17    0     -0.31      0.00 
   12   17    0     -0.43      0.00 
    0   18    0      0.66      0.00 
    1   18    0      0.39      0.00 
    2   18    0      0.02      0.00 
    3   18    0     -0.24      0.00 
    4   18    0     -0.75      0.00 
    5   18    0     -1.05      0.00 
    6   18    0     -0.21      0.00 
    7   18    0      0.90      0.00 
    8   18    0      0.41      0.00 
    9   18    0     -1.38      0.00 
   10   18    0     -2.29      0.00 
    1   19    0     -0.59      0.00 
    2   19    0     -1.13      0.00 
    3   19    0     -1.84      0.00 
    4   19    0     -2.10      0.00 
    5   19    0     -1.04      0.00 
    6   19    0      0.47      0.00 
    7   19    0      0.66      0.00 
    0   20    0     -1.62      0.00 
    1   20    0     -1.61      0.00 
    2   20    0     -1.60      0.00 
  -22    1    1     -1.21      0.00 
  -21    1    1     -1.39      0.00 
  -20    1    1     -0.85      0.00 
  -19    1    1      0.22      0.00 
  -18    1    1      1.33      0.00 
  -17    1    1      1.76      0.00 
  -16    1    1      0.72      0.00 
  -15    1    1     -1.61      0.00 
  -14    1    1     -3.68      0.00 
  -13    1    1     -4.55      0.00 
  -12    1    1     -5.51      0.00 
  -11    1    1     -8.27      0.00 
  -10    1    1    -12.12      0.00 
   -9    1    1    -14.46      0.00 
   -8    1    1    -13.25      0.00 
   -7    1    1     -8.24      0.00 
   -6    1    1     -1.48      0.00 
   -5    1    1      4.12      0.00 
   -4    1    1     10.67      0.00 
   -3    1    1     27.85      0.00 
   -2    1    1     61.25      0.00 
   -1    1    1     97.05      0.00 
    0    1    1    109.16      0.00 
    1    1    1     87.06      0.00 
    2    1    1     48.32      0.00 
    3    1    1     18.21      0.00 
    4    1    1      4.68      0.00 
    5    1    1     -1.05      0.00 
    6    1    1     -7.54      0.00 
    7    1    1    -15.09      0.00 
    8    1    1    -20.26      0.00 
    9    1    1    -20.84      0.00 
   10    1    1    -17.19      0.00 
   11    1    1    -11.96      0.00 
   12    1    1     -8.05      0.00 
   13    1    1     -5.85      0.00 
   14    1    1     -3.57      0.00 
   15    1    1     -0.39      0.00 
   16    1    1      2.56      0.00 
   17    1    1      4.03      0.00 
   18    1    1      3.84      0.00 
   19    1    1      2.49      0.00 
   20    1    1      0.86      0.00 
   21    1    1     -0.06      0.00 
   22    1    1      0.02      0.00 
  -22    2    1      0.68      0.00 
  -21    2    1      1.43      0.00 
  -20    2    1      2.01      0.00 
  -19    2    1      1.82      0.00 
  -18    2    1      0.40      0.00 
  -17    2    1     -2.11      0.00 
  -16    2    1     -4.31      0.00 
  -15    2    1     -4.13      0.00 
  -14    2    1     -1.46      0.00 
  -13    2    1      0.74      0.00 
  -12    2    1      0.23      0.00 
  -11    2    1     -0.58      0.00 
  -10    2    1      2.86      0.00 
   -9    2    1     11.57      0.00 
   -8    2    1     21.82      0.00 
   -7    2    1     28.18      0.00 
   -6    2    1     27.73      0.00 
   -5    2    1     24.95      0.00 
   -4    2    1     30.70      0.00 
   -3    2    1     47.55      0.00 
   -2    2    1     56.68      0.00 
   -1    2    1     33.62      0.00 
    0    2    1    -18.16      0.00 
    1    2    1    -63.48      0.00 
    2    2    1    -73.34      0.00 
    3    2    1    -54.86      0.00 
    4    2    1    -35.63      0.00 
    5    2    1    -30.07      0.00 
    6    2    1    -31.69      0.00 
    7    2    1    -29.34      0.00 
    8    2    1    -19.70      0.00 
    9    2    1     -6.72      0.00 
   10    2    1      3.36      0.00 
   11    2    1      7.02      0.00 
   12    2    1      6.33      0.00 
   13    2    1      6.11      0.00 
   14    2    1      7.96      0.00 
   15    2    1      9.34      0.00 
   16    2    1      8.01      0.00 
   17    2    1      4.60      0.00 
   18    2    1      1.08      0.00 
   19    2    1     -1.12      0.00 
   20    2    1     -1.59      0.00 
   21    2    1     -0.95      0.00 
   22    2    1     -0.31      0.00 
  -22    3    1      1.07      0.00 
  -21    3    1      1.29      0.00 
  -20    3    1      1.19      0.00 
  -19    3    1      0.43      0.00 
  -18    3    1     -0.34      0.00 
  -17    3    1      0.43      0.00 
  -16    3    1      3.58      0.00 
  -15    3    1      7.38      0.00 
  -14    3    1      8.33      0.00 
  -13    3    1      5.25      0.00 
  -12    3    1      1.68      0.00 
  -11    3    1      1.94      0.00 
  -10    3    1      5.05      0.00 
   -9    3    1      5.23      0.00 
   -8    3    1     -1.48      0.00 
   -7    3    1    -12.51      0.00 
   -6    3    1    -19.60      0.00 
   -5    3    1    -15.18      0.00 
   -4    3    1     -2.49      0.00 
   -3    3    1      1.49      0.00 
   -2    3    1    -16.73      0.00 
   -1    3    1    -45.23      0.00 
    0    3    1    -54.02      0.00 
    1    3    1    -30.43      0.00 
    2    3    1      4.05      0.00 
    3    3    1     19.66      0.00 
    4    3    1     11.19      0.00 
    5    3    1     -3.26      0.00 
    6    3    1     -7.27      0.00 
    7    3    1     -0.02      0.00 
    8    3    1      9.37      0.00 
    9    3    1     12.77      0.00 
   10    3    1      9.10      0.00 
   11    3    1      3.78      0.00 
   12    3    1      2.38      0.00 
   13    3    1      4.60      0.00 
   14    3    1      5.83      0.00 
   15    3    1      3.49      0.00 
   16    3    1     -0.44      0.00 
   17    3    1     -2.70      0.00 
   18    3    1     -2.27      0.00 
   19    3    1     -0.52      0.00 
   20    3    1      0.77      0.00 
   21    3    1      1.00      0.00 
   22    3    1      0.76      0.00 
  -22    4    1      1.66      0.00 
  -21    4    1      2.37      0.00 
  -20    4    1      2.21      0.00 
  -19    4    1      1.81      0.00 
  -18    4    1      2.33      0.00 
  -17    4    1      3.45      0.00 
  -16    4    1      3.07      0.00 
  -15    4    1     -0.41      0.00 
  -14    4    1     -5.73      0.00 
  -13    4    1     -8.97      0.00 
  -12    4    1     -7.63      0.00 
  -11    4    1     -4.47      0.00 
  -10    4    1     -5.04      0.00 
   -9    4    1    -10.22      0.00 
   -8    4    1    -13.41      0.00 
   -7    4    1     -6.90      0.00 
   -6    4    1      9.28      0.00 
   -5    4    1     24.87      0.00 
   -4    4    1     26.60      0.00 
   -3    4    1     11.71      0.00 
   -2    4    1     -5.32      0.00 
   -1    4    1     -5.73      0.00 
    0    4    1     10.88      0.00 
    1    4    1     23.67      0.00 
    2    4    1     14.93      0.00 
    3    4    1     -8.96      0.00 
    4    4    1    -26.22      0.00 
    5    4    1    -24.09      0.00 
    6    4    1     -8.89      0.00 
    7    4    1      4.52      0.00 
    8    4    1      7.46      0.00 
    9    4    1      2.64      0.00 
   10    4    1     -1.44      0.00 
   11    4    1      0.09      0.00 
   12    4    1      4.52      0.00 
   13    4    1      6.21      0.00 
   14    4    1      3.38      0.00 
   15    4    1     -0.82      0.00 
   16    4    1     -2.71      0.00 
   17    4    1     -1.88      0.00 
   18    4    1     -0.64      0.00 
   19    4    1     -0.82      0.00 
   20    4    1     -1.85      0.00 
   21    4    1     -2.17      0.00 
   22    4    1     -1.50      0.00 
  -21    5    1     -1.01      0.00 
  -20    5    1     -1.15      0.00 
  -19    5    1     -0.06      0.00 
  -18    5    1      0.98      0.00 
  -17    5    1      0.10      0.00 
  -16    5    1     -2.55      0.00 
  -15    5    1     -4.36      0.00 
  -14    5    1     -2.72      0.00 
  -13    5    1      1.87      0.00 
  -12    5    1      5.15      0.00 
  -11    5    1      2.90      0.00 
  -10    5    1     -2.92      0.00 
   -9    5    1     -4.29      0.00 
   -8    5    1      3.86      0.00 
   -7    5    1     15.86      0.00 
   -6    5    1     19.42      0.00 
   -5    5    1      8.01      0.00 
   -4    5    1    -11.38      0.00 
   -3    5    1    -23.45      0.00 
   -2    5    1    -19.03      0.00 
   -1    5    1     -5.25      0.00 
    0    5    1      0.98      0.00 
    1    5    1     -8.25      0.00 
    2    5    1    -22.23      0.00 
    3    5    1    -23.68      0.00 
    4    5    1     -8.15      0.00 
    5    5    1     11.70      0.00 
    6    5    1     20.17      0.00 
    7    5    1     13.65      0.00 
    8    5    1      1.87      0.00 
    9    5    1     -3.59      0.00 
   10    5    1     -0.23      0.00 
   11    5    1      5.42      0.00 
   12    5    1      6.45      0.00 
   13    5    1      2.31      0.00 
   14    5    1     -2.40      0.00 
   15    5    1     -3.72      0.00 
   16    5    1     -1.88      0.00 
   17    5    1     -0.03      0.00 
   18    5    1     -0.22      0.00 
   19    5    1     -1.42      0.00 
   20    5    1     -1.70      0.00 
   21    5    1     -0.85      0.00 
  -21    6    1      1.79      0.00 
  -20    6    1      3.87      0.00 
  -19    6    1      4.81      0.00 
  -18    6    1      3.12      0.00 
  -17    6    1      0.03      0.00 
  -16    6    1     -1.45      0.00 
  -15    6    1     -0.06      0.00 
  -14    6    1      1.80      0.00 
  -13    6    1      0.04      0.00 
  -12    6    1     -6.63      0.00 
  -11    6    1    -13.56      0.00 
  -10    6    1    -13.34      0.00 
   -9    6    1     -4.44      0.00 
   -8    6    1      4.66      0.00 
   -7    6    1      3.53      0.00 
   -6    6    1     -7.92      0.00 
   -5    6    1    -18.00      0.00 
   -4    6    1    -15.01      0.00 
   -3    6    1      0.43      0.00 
   -2    6    1     15.34      0.00 
   -1    6    1     16.81      0.00 
    0    6    1      5.11      0.00 
    1    6    1     -6.08      0.00 
    2    6    1     -3.84      0.00 
    3    6    1     10.01      0.00 
    4    6    1     20.87      0.00 
    5    6    1     17.26      0.00 
    6    6    1      2.86      0.00 
    7    6    1     -8.34      0.00 
    8    6    1     -7.09      0.00 
    9    6    1      2.79      0.00 
   10    6    1     10.42      0.00 
   11    6    1      9.49      0.00 
   12    6    1      2.77      0.00 
   13    6    1     -2.78      0.00 
   14    6    1     -3.36      0.00 
   15    6    1     -0.89      0.00 
   16    6    1      0.34      0.00 
   17    6    1     -1.16      0.00 
   18    6    1     -3.18      0.00 
   19    6    1     -3.28      0.00 
   20    6    1     -1.70      0.00 
   21    6    1     -0.07      0.00 
  -21    7    1      0.33      0.00 
  -20    7    1     -0.68      0.00 
  -19    7    1     -3.57      0.00 
  -18    7    1     -6.85      0.00 
  -17    7    1     -7.67      0.00 
  -16    7    1     -5.69      0.00 
  -15    7    1     -4.14      0.00 
  -14    7    1     -5.89      0.00 
  -13    7    1     -9.54      0.00 
  -12    7    1     -9.85      0.00 
  -11    7    1     -2.83      0.00 
  -10    7    1      8.78      0.00 
   -9    7    1     16.09      0.00 
   -8    7    1     12.83      0.00 
   -7    7    1      3.47      0.00 
   -6    7    1     -0.26      0.00 
   -5    7    1      7.59      0.00 
   -4    7    1     19.94      0.00 
   -3    7    1     23.76      0.00 
   -2    7    1     13.66      0.00 
   -1    7    1     -2.38      0.00 
    0    7    1    -10.48      0.00 
    1    7    1     -4.27      0.00 
    2    7    1      8.59      0.00 
    3    7    1     13.90      0.00 
    4    7    1      5.77      0.00 
    5    7    1     -7.04      0.00 
    6    7    1    -11.05      0.00 
    7    7    1     -2.83      0.00 
    8    7    1      8.35      0.00 
    9    7    1     11.55      0.00 
   10    7    1      4.94      0.00 
   11    7    1     -4.49      0.00 
   12    7    1     -9.05      0.00 
   13    7    1     -7.08      0.00 
   14    7    1     -3.05      0.00 
   15    7    1     -1.91      0.00 
   16    7    1     -3.87      0.00 
   17    7    1     -5.21      0.00 
   18    7    1     -3.80      0.00 
   19    7    1     -1.29      0.00 
   20    7    1      0.18      0.00 
   21    7    1      0.56      0.00 
  -20    8    1     -2.16      0.00 
  -19    8    1     -3.80      0.00 
  -18    8    1     -3.09      0.00 
  -17    8    1     -0.31      0.00 
  -16    8    1      1.07      0.00 
  -15    8    1     -0.60      0.00 
  -14    8    1     -2.40      0.00 
  -13    8    1     -0.38      0.00 
  -12    8    1      5.70      0.00 
  -11    8    1     11.43      0.00 
  -10    8    1     11.36      0.00 
   -9    8    1      4.53      0.00 
   -8    8    1     -2.87      0.00 
   -7    8    1     -2.82      0.00 
   -6    8    1      4.98      0.00 
   -5    8    1     11.32      0.00 
   -4    8    1      7.43      0.00 
   -3    8    1     -4.80      0.00 
   -2    8    1    -14.64      0.00 
   -1    8    1    -13.49      0.00 
    0    8    1     -2.87      0.00 
    1    8    1      7.06      0.00 
    2    8    1      6.63      0.00 
    3    8    1     -3.88      0.00 
    4    8    1    -13.81      0.00 
    5    8    1    -13.04      0.00 
    6    8    1     -3.13      0.00 
    7    8    1      5.19      0.00 
    8    8    1      4.51      0.00 
    9    8    1     -2.33      0.00 
   10    8    1     -7.40      0.00 
   11    8    1     -6.13      0.00 
   12    8    1     -0.35      0.00 
   13    8    1      4.48      0.00 
   14    8    1      4.56      0.00 
   15    8    1      1.58      0.00 
   16    8    1      0.20      0.00 
   17    8    1      1.90      0.00 
   18    8    1      3.67      0.00 
   19    8    1      3.22      0.00 
   20    8    1      1.82      0.00 
  -20    9    1     -2.05      0.00 
  -19    9    1     -1.68      0.00 
  -18    9    1     -0.57      0.00 
  -17    9    1     -1.48      0.00 
  -16    9    1     -4.32      0.00 
  -15    9    1     -5.45      0.00 
  -14    9    1     -2.77      0.00 
  -13    9    1      1.37      0.00 
  -12    9    1      3.31      0.00 
  -11    9    1      1.76      0.00 
  -10    9    1     -1.34      0.00 
   -9    9    1     -2.00      0.00 
   -8    9    1      2.40      0.00 
   -7    9    1      8.91      0.00 
   -6    9    1     10.28      0.00 
   -5    9    1      3.29      0.00 
   -4    9    1     -6.33      0.00 
   -3    9    1     -9.97      0.00 
   -2    9    1     -5.49      0.00 
   -1    9    1      1.60      0.00 
    0    9    1      4.24      0.00 
    1    9    1     -0.30      0.00 
    2    9    1     -8.16      0.00 
    3    9    1    -11.31      0.00 
    4    9    1     -5.09      0.00 
    5    9    1      5.86      0.00 
    6    9    1     12.04      0.00 
    7    9    1      9.77      0.00 
    8    9    1      3.99      0.00 
    9    9    1      1.00      0.00 
   10    9    1      2.12      0.00 
   11    9    1      4.46      0.00 
   12    9    1      4.53      0.00 
   13    9    1      0.96      0.00 
   14    9    1     -3.80      0.00 
   15    9    1     -5.59      0.00 
   16    9    1     -3.67      0.00 
   17    9    1     -1.57      0.00 
   18    9    1     -1.68      0.00 
   19    9    1     -2.32      0.00 
   20    9    1     -1.63      0.00 
  -19   10    1     -0.79      0.00 
  -18   10    1     -2.22      0.00 
  -17   10    1     -3.41      0.00 
  -16   10    1     -1.63      0.00 
  -15   10    1      2.66      0.00 
  -14   10    1      5.80      0.00 
  -13   10    1      5.76      0.00 
  -12   10    1      4.12      0.00 
  -11   10    1      3.27      0.00 
  -10   10    1      4.17      0.00 
   -9   10    1      6.06      0.00 
   -8   10    1      6.39      0.00 
   -7   10    1      2.42      0.00 
   -6   10    1     -4.78      0.00 
   -5   10    1     -9.71      0.00 
   -4   10    1     -8.40      0.00 
   -3   10    1     -3.19      0.00 
   -2   10    1      0.54      0.00 
   -1   10    1      0.30      0.00 
    0   10    1     -2.48      0.00 
    1   10    1     -4.67      0.00 
    2   10    1     -3.10      0.00 
    3   10    1      2.92      0.00 
    4   10    1      9.30      0.00 
    5   10    1     10.29      0.00 
    6   10    1      5.19      0.00 
    7   10    1     -0.99      0.00 
    8   10    1     -3.80      0.00 
    9   10    1     -3.40      0.00 
   10   10    1     -2.24      0.00 
   11   10    1     -2.20      0.00 
   12   10    1     -3.79      0.00 
   13   10    1     -5.56      0.00 
   14   10    1     -4.77      0.00 
   15   10    1     -1.06      0.00 
   16   10    1      2.26      0.00 
   17   10    1      2.64      0.00 
   18   10    1      1.47      0.00 
   19   10    1      0.95      0.00 
  -18   11    1     -0.11      0.00 
  -17   11    1      2.06      0.00 
  -16   11    1      4.04      0.00 
  -15   11    1      3.32      0.00 
  -14   11    1      0.37      0.00 
  -13   11    1     -1.78      0.00 
  -12   11    1     -1.53      0.00 
  -11   11    1     -0.09      0.00 
  -10   11    1      0.49      0.00 
   -9   11    1     -0.87      0.00 
   -8   11    1     -3.75      0.00 
   -7   11    1     -5.99      0.00 
   -6   11    1     -5.17      0.00 
   -5   11    1     -1.71      0.00 
   -4   11    1      0.96      0.00 
   -3   11    1      0.45      0.00 
   -2   11    1     -2.05      0.00 
   -1   11    1     -4.02      0.00 
    0   11    1     -4.32      0.00 
    1   11    1     -2.79      0.00 
    2   11    1      0.28      0.00 
    3   11    1      3.11      0.00 
    4   11    1      3.09      0.00 
    5   11    1      0.14      0.00 
    6   11    1     -2.68      0.00 
    7   11    1     -2.81      0.00 
    8   11    1     -0.77      0.00 
    9   11    1      1.35      0.00 
   10   11    1      2.03      0.00 
   11   11    1      0.85      0.00 
   12   11    1     -1.05      0.00 
   13   11    1     -1.34      0.00 
   14   11    1      0.70      0.00 
   15   11    1      2.64      0.00 
   16   11    1      2.15      0.00 
   17   11    1      0.26      0.00 
   18   11    1     -0.75      0.00 
  -18   12    1      0.82      0.00 
  -17   12    1      0.71      0.00 
  -16   12    1     -0.76      0.00 
  -15   12    1     -2.18      0.00 
  -14   12    1     -1.48      0.00 
  -13   12    1      1.05      0.00 
  -12   12    1      2.98      0.00 
  -11   12    1      2.54      0.00 
  -10   12    1      0.20      0.00 
   -9   12    1     -2.07      0.00 
   -8   12    1     -2.52      0.00 
   -7   12    1     -1.21      0.00 
   -6   12    1     -0.15      0.00 
   -5   12    1     -1.07      0.00 
   -4   12    1     -3.24      0.00 
   -3   12    1     -4.38      0.00 
   -2   12    1     -3.47      0.00 
   -1   12    1     -1.40      0.00 
    0   12    1      0.84      0.00 
    1   12    1      3.20      0.00 
    2   12    1      5.33      0.00 
    3   12    1      6.03      0.00 
    4   12    1      4.80      0.00 
    5   12    1      2.97      0.00 
    6   12    1      2.22      0.00 
    7   12    1      2.68      0.00 
    8   12    1      3.05      0.00 
    9   12    1      1.99      0.00 
   10   12    1     -0.72      0.00 
   11   12    1     -3.70      0.00 
   12   12    1     -4.68      0.00 
   13   12    1     -3.01      0.00 
   14   12    1     -0.82      0.00 
   15   12    1     -0.36      0.00 
   16   12    1     -1.09      0.00 
   17   12    1     -1.11      0.00 
   18   12    1     -0.27      0.00 
  -17   13    1      0.86      0.00 
  -16   13    1      0.65      0.00 
  -15   13    1      1.37      0.00 
  -14   13    1      2.09      0.00 
  -13   13    1      1.06      0.00 
  -12   13    1     -1.81      0.00 
  -11   13    1     -4.53      0.00 
  -10   13    1     -5.11      0.00 
   -9   13    1     -3.45      0.00 
   -8   13    1     -1.37      0.00 
   -7   13    1     -0.78      0.00 
   -6   13    1     -1.54      0.00 
   -5   13    1     -1.66      0.00 
   -4   13    1      0.09      0.00 
   -3   13    1      2.74      0.00 
   -2   13    1      4.54      0.00 
   -1   13    1      5.11      0.00 
    0   13    1      5.21      0.00 
    1   13    1      5.22      0.00 
    2   13    1      4.53      0.00 
    3   13    1      2.60      0.00 
    4   13    1      0.03      0.00 
    5   13    1     -1.79      0.00 
    6   13    1     -2.13      0.00 
    7   13    1     -1.79      0.00 
    8   13    1     -2.31      0.00 
    9   13    1     -4.29      0.00 
   10   13    1     -6.35      0.00 
   11   13    1     -6.20      0.00 
   12   13    1     -3.34      0.00 
   13   13    1     -0.05      0.00 
   14   13    1      1.27      0.00 
   15   13    1      1.05      0.00 
   16   13    1      1.12      0.00 
   17   13    1      1.64      0.00 
  -16   14    1      0.31      0.00 
  -15   14    1      0.44      0.00 
  -14   14    1     -0.94      0.00 
  -13   14    1     -2.97      0.00 
  -12   14    1     -3.29      0.00 
  -11   14    1     -1.07      0.00 
  -10   14    1      1.82      0.00 
   -9   14    1      2.88      0.00 
   -8   14    1      1.65      0.00 
   -7   14    1      0.09      0.00 
   -6   14    1      0.28      0.00 
   -5   14    1      1.88      0.00 
   -4   14    1      2.74      0.00 
   -3   14    1      1.75      0.00 
   -2   14    1      0.07      0.00 
   -1   14    1     -0.63      0.00 
    0   14    1     -0.20      0.00 
    1   14    1      0.20      0.00 
    2   14    1     -0.43      0.00 
    3   14    1     -1.83      0.00 
    4   14    1     -2.57      0.00 
    5   14    1     -1.67      0.00 
    6   14    1      0.06      0.00 
    7   14    1      0.61      0.00 
    8   14    1     -0.83      0.00 
    9   14    1     -2.57      0.00 
   10   14    1     -2.17      0.00 
   11   14    1      0.50      0.00 
   12   14    1      2.64      0.00 
   13   14    1      1.98      0.00 
   14   14    1     -0.21      0.00 
   15   14    1     -1.21      0.00 
   16   14    1     -0.74      0.00 
  -15   15    1     -1.40      0.00 
  -14   15    1     -2.55      0.00 
  -13   15    1     -1.62      0.00 
  -12   15    1      1.06      0.00 
  -11   15    1      2.69      0.00 
  -10   15    1      1.38      0.00 
   -9   15    1     -1.47      0.00 
   -8   15    1     -2.74      0.00 
   -7   15    1     -1.19      0.00 
   -6   15    1      1.12      0.00 
   -5   15    1      1.43      0.00 
   -4   15    1     -0.22      0.00 
   -3   15    1     -1.26      0.00 
   -2   15    1      0.00      0.00 
   -1   15    1      2.41      0.00 
    0   15    1      3.55      0.00 
    1   15    1      2.40      0.00 
    2   15    1      0.21      0.00 
    3   15    1     -0.74      0.00 
    4   15    1      0.37      0.00 
    5   15    1      1.77      0.00 
    6   15    1      0.98      0.00 
    7   15    1     -2.02      0.00 
    8   15    1     -4.45      0.00 
    9   15    1     -3.89      0.00 
   10   15    1     -1.26      0.00 
   11   15    1      0.15      0.00 
   12   15    1     -1.20      0.00 
   13   15    1     -3.21      0.00 
   14   15    1     -3.16      0.00 
   15   15    1     -1.39      0.00 
  -13   16    1      2.06      0.00 
  -12   16    1      1.81      0.00 
  -11   16    1     -0.45      0.00 
  -10   16    1     -2.55      0.00 
   -9   16    1     -1.95      0.00 
   -8   16    1      1.11      0.00 
   -7   16    1      3.44      0.00 
   -6   16    1      2.56      0.00 
   -5   16    1     -0.11      0.00 
   -4   16    1     -1.08      0.00 
   -3   16    1      0.78      0.00 
   -2   16    1      3.00      0.00 
   -1   16    1      2.74      0.00 
    0   16    1      0.03      0.00 
    1   16    1     -2.49      0.00 
    2   16    1     -2.47      0.00 
    3   16    1     -0.41      0.00 
    4   16    1      0.60      0.00 
    5   16    1     -1.47      0.00 
    6   16    1     -4.80      0.00 
    7   16    1     -5.63      0.00 
    8   16    1     -2.83      0.00 
    9   16    1      0.85      0.00 
   10   16    1      2.14      0.00 
   11   16    1      0.76      0.00 
   12   16    1     -0.85      0.00 
   13   16    1     -0.78      0.00 
  -12   17    1     -1.24      0.00 
  -11   17    1     -1.76      0.00 
  -10   17    1     -0.88      0.00 
   -9   17    1      0.71      0.00 
   -8   17    1      0.88      0.00 
   -7   17    1     -1.29      0.00 
   -6   17    1     -3.65      0.00 
   -5   17    1     -3.26      0.00 
   -4   17    1     -0.25      0.00 
   -3   17    1      2.12      0.00 
   -2   17    1      1.57      0.00 
   -1   17    1     -0.71      0.00 
    0   17    1     -1.72      0.00 
    1   17    1     -0.11      0.00 
    2   17    1      2.26      0.00 
    3   17    1      2.21      0.00 
    4   17    1     -0.87      0.00 
    5   17    1     -3.87      0.00 
    6   17    1     -3.51      0.00 
    7   17    1     -0.48      0.00 
    8   17    1      1.76      0.00 
    9   17    1      1.36      0.00 
   10   17    1     -0.37      0.00 
   11   17    1     -1.39      0.00 
   12   17    1     -1.15      0.00 
  -10   18    1     -1.38      0.00 
   -9   18    1     -1.74      0.00 
   -8   18    1     -2.38      0.00 
   -7   18    1     -2.25      0.00 
   -6   18    1     -0.31      0.00 
   -5   18    1      2.46      0.00 
   -4   18    1      3.59      0.00 
   -3   18    1      2.13      0.00 
   -2   18    1     -0.10      0.00 
   -1   18    1     -0.69      0.00 
    0   18    1      0.61      0.00 
    1   18    1      1.59      0.00 
    2   18    1      0.23      0.00 
    3   18    1     -2.70      0.00 
    4   18    1     -4.20      0.00 
    5   18    1     -2.57      0.00 
    6   18    1      0.46      0.00 
    7   18    1      2.06      0.00 
    8   18    1      1.73      0.00 
    9   18    1      1.02      0.00 
   10   18    1      0.93      0.00 
   -7   19    1      1.15      0.00 
   -6   19    1      1.86      0.00 
   -5   19    1      1.45      0.00 
   -4   19    1     -0.11      0.00 
   -3   19    1     -1.51      0.00 
   -2   19    1     -1.45      0.00 
   -1   19    1     -0.33      0.00 
    0   19    1      0.07      0.00 
    1   19    1     -1.09      0.00 
    2   19    1     -2.50      0.00 
    3   19    1     -2.31      0.00 
    4   19    1     -0.50      0.00 
    5   19    1      1.18      0.00 
    6   19    1      1.43      0.00 
    7   19    1      0.61      0.00 
   -1   20    1      0.72      0.00 
    0   20    1     -0.49      0.00 
    1   20    1     -1.39      0.00 
  -22    0    2     -2.91      0.00 
  -21    0    2     -3.89      0.00 
  -20    0    2     -2.59      0.00 
  -19    0    2     -0.54      0.00 
  -18    0    2      0.88      0.00 
  -17    0    2      0.80      0.00 
  -16    0    2     -1.95      0.00 
  -15    0    2     -5.71      0.00 
  -14    0    2     -5.52      0.00 
  -13    0    2     -0.93      0.00 
  -12    0    2      0.60      0.00 
  -11    0    2     -6.06      0.00 
  -10    0    2    -15.10      0.00 
   -9    0    2    -16.73      0.00 
   -8    0    2     -7.44      0.00 
   -7    0    2      8.08      0.00 
   -6    0    2     18.04      0.00 
   -5    0    2     11.34      0.00 
   -4    0    2     -1.52      0.00 
   -3    0    2     15.57      0.00 
   -2    0    2     81.11      0.00 
   -1    0    2    153.58      0.00 
    0    0    2    165.16      0.00 
    1    0    2    101.99      0.00 
    2    0    2     20.91      0.00 
    3    0    2    -19.37      0.00 
    4    0    2    -15.18      0.00 
    5    0    2     -0.19      0.00 
    6    0    2      0.34      0.00 
    7    0    2    -14.55      0.00 
    8    0    2    -31.70      0.00 
    9    0    2    -37.08      0.00 
   10    0    2    -27.32      0.00 
   11    0    2    -12.71      0.00 
   12    0    2     -4.96      0.00 
   13    0    2     -4.47      0.00 
   14    0    2     -4.24      0.00 
   15    0    2     -0.75      0.00 
   16    0    2      4.28      0.00 
   17    0    2      7.98      0.00 
   18    0    2      8.02      0.00 
   19    0    2      4.28      0.00 
   20    0    2      0.29      0.00 
   21    0    2     -0.40      0.00 
   22    0    2      1.10      0.00 
  -22    1    2     -0.71      0.00 
  -21    1    2      1.06      0.00 
  -20    1    2      2.37      0.00 
  -19    1    2      2.00      0.00 
  -18    1    2      0.50      0.00 
  -17    1    2     -1.41      0.00 
  -16    1    2     -2.19      0.00 
  -15    1    2      0.57      0.00 
  -14    1    2      5.50      0.00 
  -13    1    2      6.40      0.00 
  -12    1    2      1.17      0.00 
  -11    1    2     -2.89      0.00 
  -10    1    2      1.85      0.00 
   -9    1    2     13.40      0.00 
   -8    1    2     22.76      0.00 
   -7    1    2     21.44      0.00 
   -6    1    2      7.76      0.00 
   -5    1    2     -5.36      0.00 
   -4    1    2      4.60      0.00 
   -3    1    2     39.22      0.00 
   -2    1    2     60.25      0.00 
   -1    1    2     27.77      0.00 
    0    1    2    -42.99      0.00 
    1    1    2    -91.27      0.00 
    2    1    2    -81.25      0.00 
    3    1    2    -37.58      0.00 
    4    1    2     -6.00      0.00 
    5    1    2     -3.83      0.00 
    6    1    2    -17.14      0.00 
    7    1    2    -25.62      0.00 
    8    1    2    -19.30      0.00 
    9    1    2     -2.48      0.00 
   10    1    2     11.29      0.00 
   11    1    2     13.03      0.00 
   12    1    2      7.19      0.00 
   13    1    2      3.47      0.00 
   14    1    2      4.70      0.00 
   15    1    2      7.11      0.00 
   16    1    2      7.27      0.00 
   17    1    2      4.47      0.00 
   18    1    2      0.20      0.00 
   19    1    2     -2.40      0.00 
   20    1    2     -1.52      0.00 
   21    1    2      0.61      0.00 
   22    1    2      0.93      0.00 
  -22    2    2      0.54      0.00 
  -21    2    2      0.78      0.00 
  -20    2    2     -0.22      0.00 
  -19    2    2     -1.08      0.00 
  -18    2    2     -0.60      0.00 
  -17    2    2      1.32      0.00 
  -16    2    2      4.30      0.00 
  -15    2    2      6.31      0.00 
  -14    2    2      4.06      0.00 
  -13    2    2     -1.87      0.00 
  -12    2    2     -5.32      0.00 
  -11    2    2     -2.40      0.00 
  -10    2    2      2.12      0.00 
   -9    2    2      0.36      0.00 
   -8    2    2     -9.71      0.00 
   -7    2    2    -22.14      0.00 
   -6    2    2    -25.63      0.00 
   -5    2    2    -10.89      0.00 
   -4    2    2     15.39      0.00 
   -3    2    2     28.40      0.00 
   -2    2    2     12.00      0.00 
   -1    2    2    -14.81      0.00 
    0    2    2    -16.50      0.00 
    1    2    2     13.45      0.00 
    2    2    2     43.94      0.00 
    3    2    2     45.53      0.00 
    4    2    2     21.06      0.00 
    5    2    2     -5.82      0.00 
    6    2    2    -17.27      0.00 
    7    2    2    -11.86      0.00 
    8    2    2     -0.12      0.00 
    9    2    2      5.31      0.00 
   10    2    2      0.68      0.00 
   11    2    2     -6.43      0.00 
   12    2    2     -7.60      0.00 
   13    2    2     -3.09      0.00 
   14    2    2      1.34      0.00 
   15    2    2      2.42      0.00 
   16    2    2      0.88      0.00 
   17    2    2     -0.98      0.00 
   18    2    2     -1.05      0.00 
   19    2    2      0.75      0.00 
   20    2    2      2.07      0.00 
   21    2    2      1.34      0.00 
   22    2    2      0.07      0.00 
  -22    3    2      1.74      0.00 
  -21    3    2      1.46      0.00 
  -20    3    2      1.44      0.00 
  -19    3    2      2.41      0.00 
  -18    3    2      3.33      0.00 
  -17    3    2      3.03      0.00 
  -16    3    2      1.11      0.00 
  -15    3    2     -2.27      0.00 
  -14    3    2     -5.34      0.00 
  -13    3    2     -4.92      0.00 
  -12    3    2     -0.64      0.00 
  -11    3    2      2.83      0.00 
  -10    3    2      1.24      0.00 
   -9    3    2     -3.14      0.00 
   -8    3    2     -3.32      0.00 
   -7    3    2      5.79      0.00 
   -6    3    2     22.54      0.00 
   -5    3    2     37.11      0.00 
   -4    3    2     36.84      0.00 
   -3    3    2     19.70      0.00 
   -2    3    2      0.74      0.00 
   -1    3    2     -3.64      0.00 
    0    3    2      3.52      0.00 
    1    3    2      3.83      0.00 
    2    3    2    -12.15      0.00 
    3    3    2    -34.04      0.00 
    4    3    2    -45.36      0.00 
    5    3    2    -39.72      0.00 
    6    3    2    -23.07      0.00 
    7    3    2     -6.98      0.00 
    8    3    2     -0.06      0.00 
    9    3    2     -1.59      0.00 
   10    3    2     -3.46      0.00 
   11    3    2     -0.04      0.00 
   12    3    2      6.26      0.00 
   13    3    2     10.08      0.00 
   14    3    2      9.55      0.00 
   15    3    2      6.46      0.00 
   16    3    2      3.31      0.00 
   17    3    2      1.68      0.00 
   18    3    2      1.32      0.00 
   19    3    2      0.58      0.00 
   20    3    2     -1.07      0.00 
   21    3    2     -2.08      0.00 
   22    3    2     -1.52      0.00 
  -22    4    2      0.28      0.00 
  -21    4    2      0.51      0.00 
  -20    4    2      1.77      0.00 
  -19    4    2      2.55      0.00 
  -18    4    2      1.87      0.00 
  -17    4    2      0.70      0.00 
  -16    4    2      0.41      0.00 
  -15    4    2      1.66      0.00 
  -14    4    2      4.32      0.00 
  -13    4    2      6.70      0.00 
  -12    4    2      5.70      0.00 
  -11    4    2      0.37      0.00 
  -10    4    2     -5.47      0.00 
   -9    4    2     -6.72      0.00 
   -8    4    2     -2.53      0.00 
   -7    4    2      2.46      0.00 
   -6    4    2      1.64      0.00 
   -5    4    2     -8.21      0.00 
   -4    4    2    -22.60      0.00 
   -3    4    2    -31.36      0.00 
   -2    4    2    -28.66      0.00 
   -1    4    2    -19.89      0.00 
    0    4    2    -14.85      0.00 
    1    4    2    -15.67      0.00 
    2    4    2    -15.80      0.00 
    3    4    2     -9.28      0.00 
    4    4    2      2.93      0.00 
    5    4    2     14.81      0.00 
    6    4    2     20.01      0.00 
    7    4    2     16.39      0.00 
    8    4    2      8.40      0.00 
    9    4    2      3.48      0.00 
   10    4    2      4.60      0.00 
   11    4    2      7.96      0.00 
   12    4    2      8.64      0.00 
   13    4    2      5.60      0.00 
   14    4    2      1.05      0.00 
   15    4    2     -2.50      0.00 
   16    4    2     -3.67      0.00 
   17    4    2     -2.87      0.00 
   18    4    2     -1.83      0.00 
   19    4    2     -1.57      0.00 
   20    4    2     -1.36      0.00 
   21    4    2     -0.44      0.00 
   22    4    2      0.53      0.00 
  -21    5    2      3.21      0.00 
  -20    5    2      3.79      0.00 
  -19    5    2      2.71      0.00 
  -18    5    2      1.33      0.00 
  -17    5    2      0.80      0.00 
  -16    5    2      0.75      0.00 
  -15    5    2      0.09      0.00 
  -14    5    2     -2.30      0.00 
  -13    5    2     -6.98      0.00 
  -12    5    2    -12.63      0.00 
  -11    5    2    -15.95      0.00 
  -10    5    2    -14.66      0.00 
   -9    5    2     -9.99      0.00 
   -8    5    2     -5.40      0.00 
   -7    5    2     -3.45      0.00 
   -6    5    2     -3.84      0.00 
   -5    5    2     -3.19      0.00 
   -4    5    2      2.20      0.00 
   -3    5    2     11.79      0.00 
   -2    5    2     19.88      0.00 
   -1    5    2     21.50      0.00 
    0    5    2     17.72      0.00 
    1    5    2     13.35      0.00 
    2    5    2     11.07      0.00 
    3    5    2      9.97      0.00 
    4    5    2      8.00      0.00 
    5    5    2      3.85      0.00 
    6    5    2     -1.94      0.00 
    7    5    2     -6.36      0.00 
    8    5    2     -6.11      0.00 
    9    5    2     -1.58      0.00 
   10    5    2      2.99      0.00 
   11    5    2      3.95      0.00 
   12    5    2      1.46      0.00 
   13    5    2     -1.86      0.00 
   14    5    2     -3.80      0.00 
   15    5    2     -3.71      0.00 
   16    5    2     -2.43      0.00 
   17    5    2     -1.47      0.00 
   18    5    2     -1.56      0.00 
   19    5    2     -1.98      0.00 
   20    5    2     -1.65      0.00 
   21    5    2     -0.67      0.00 
  -21    6    2     -1.21      0.00 
  -20    6    2     -2.55      0.00 
  -19    6    2     -3.25      0.00 
  -18    6    2     -3.15      0.00 
  -17    6    2     -3.15      0.00 
  -16    6    2     -4.05      0.00 
  -15    6    2     -5.71      0.00 
  -14    6    2     -7.05      0.00 
  -13    6    2     -6.53      0.00 
  -12    6    2     -3.36      0.00 
  -11    6    2      1.44      0.00 
  -10    6    2      5.89      0.00 
   -9    6    2      9.03      0.00 
   -8    6    2     11.11      0.00 
   -7    6    2     12.46      0.00 
   -6    6    2     13.22      0.00 
   -5    6    2     13.60      0.00 
   -4    6    2     12.96      0.00 
   -3    6    2      9.85      0.00 
   -2    6    2      4.25      0.00 
   -1    6    2     -1.62      0.00 
    0    6    2     -5.56      0.00 
    1    6    2     -7.37      0.00 
    2    6    2     -7.66      0.00 
    3    6    2     -6.74      0.00 
    4    6    2     -5.29      0.00 
    5    6    2     -4.26      0.00 
    6    6    2     -3.45      0.00 
    7    6    2     -1.68      0.00 
    8    6    2      1.05      0.00 
    9    6    2      3.01      0.00 
   10    6    2      2.66      0.00 
   11    6    2      0.43      0.00 
   12    6    2     -1.92      0.00 
   13    6    2     -2.96      0.00 
   14    6    2     -2.48      0.00 
   15    6    2     -1.34      0.00 
   16    6    2     -0.58      0.00 
   17    6    2     -0.65      0.00 
   18    6    2     -1.08      0.00 
   19    6    2     -1.14      0.00 
   20    6    2     -0.56      0.00 
   21    6    2      0.17      0.00 
  -21    7    2      0.29      0.00 
  -20    7    2      1.25      0.00 
  -19    7    2      1.91      0.00 
  -18    7    2      1.51      0.00 
  -17    7    2     -0.02      0.00 
  -16    7    2     -1.64      0.00 
  -15    7    2     -1.84      0.00 
  -14    7    2     -0.17      0.00 
  -13    7    2      1.75      0.00 
  -12    7    2      1.72      0.00 
  -11    7    2     -0.16      0.00 
  -10    7    2     -1.35      0.00 
   -9    7    2     -0.19      0.00 
   -8    7    2      1.75      0.00 
   -7    7    2      1.90      0.00 
   -6    7    2     -0.23      0.00 
   -5    7    2     -2.87      0.00 
   -4    7    2     -3.95      0.00 
   -3    7    2     -2.66      0.00 
   -2    7    2     -0.23      0.00 
   -1    7    2      0.95      0.00 
    0    7    2      0.06      0.00 
    1    7    2     -0.83      0.00 
    2    7    2      0.24      0.00 
    3    7    2      2.03      0.00 
    4    7    2      1.78      0.00 
    5    7    2     -0.74      0.00 
    6    7    2     -2.97      0.00 
    7    7    2     -2.72      0.00 
    8    7    2     -0.30      0.00 
    9    7    2      2.22      0.00 
   10    7    2      3.05      0.00 
   11    7    2      2.13      0.00 
   12    7    2      1.03      0.00 
   13    7    2      1.06      0.00 
   14    7    2      1.83      0.00 
   15    7    2      2.13      0.00 
   16    7    2      1.50      0.00 
   17    7    2      0.55      0.00 
   18    7    2      0.02      0.00 
   19    7    2      0.27      0.00 
   20    7    2      1.05      0.00 
   21    7    2      1.62      0.00 
  -20    8    2     -0.52      0.00 
  -19    8    2     -2.52      0.00 
  -18    8    2     -5.22      0.00 
  -17    8    2     -7.03      0.00 
  -16    8    2     -6.49      0.00 
  -15    8    2     -4.28      0.00 
  -14    8    2     -3.11      0.00 
  -13    8    2     -4.31      0.00 
  -12    8    2     -5.30      0.00 
  -11    8    2     -2.28      0.00 
  -10    8    2      4.48      0.00 
   -9    8    2     10.30      0.00 
   -8    8    2     11.32      0.00 
   -7    8    2      8.48      0.00 
   -6    8    2      5.98      0.00 
   -5    8    2      6.85      0.00 
   -4    8    2     10.04      0.00 
   -3    8    2     11.12      0.00 
   -2    8    2      6.77      0.00 
   -1    8    2     -0.69      0.00 
    0    8    2     -5.11      0.00 
    1    8    2     -3.75      0.00 
    2    8    2     -0.58      0.00 
    3    8    2     -0.65      0.00 
    4    8    2     -3.62      0.00 
    5    8    2     -4.99      0.00 
    6    8    2     -1.94      0.00 
    7    8    2      3.84      0.00 
    8    8    2      8.09      0.00 
    9    8    2      7.64      0.00 
   10    8    2      3.19      0.00 
   11    8    2     -1.27      0.00 
   12    8    2     -2.63      0.00 
   13    8    2     -1.74      0.00 
   14    8    2     -1.45      0.00 
   15    8    2     -2.66      0.00 
   16    8    2     -3.89      0.00 
   17    8    2     -3.85      0.00 
   18    8    2     -2.69      0.00 
   19    8    2     -1.27      0.00 
   20    8    2     -0.24      0.00 
  -20    9    2     -2.16      0.00 
  -19    9    2     -4.03      0.00 
  -18    9    2     -4.04      0.00 
  -17    9    2     -1.34      0.00 
  -16    9    2      2.12      0.00 
  -15    9    2      3.29      0.00 
  -14    9    2      2.14      0.00 
  -13    9    2      2.33      0.00 
  -12    9    2      6.47      0.00 
  -11    9    2     11.91      0.00 
  -10    9    2     13.27      0.00 
   -9    9    2      8.63      0.00 
   -8    9    2      1.70      0.00 
   -7    9    2     -2.11      0.00 
   -6    9    2     -1.04      0.00 
   -5    9    2      1.40      0.00 
   -4    9    2     -0.20      0.00 
   -3    9    2     -7.03      0.00 
   -2    9    2    -13.62      0.00 
   -1    9    2    -13.30      0.00 
    0    9    2     -6.41      0.00 
    1    9    2     -0.32      0.00 
    2    9    2     -0.55      0.00 
    3    9    2     -4.61      0.00 
    4    9    2     -5.99      0.00 
    5    9    2     -2.09      0.00 
    6    9    2      3.63      0.00 
    7    9    2      5.91      0.00 
    8    9    2      2.70      0.00 
    9    9    2     -2.89      0.00 
   10    9    2     -5.53      0.00 
   11    9    2     -3.06      0.00 
   12    9    2      1.20      0.00 
   13    9    2      2.73      0.00 
   14    9    2      1.22      0.00 
   15    9    2     -0.10      0.00 
   16    9    2      0.68      0.00 
   17    9    2      2.28      0.00 
   18    9    2      2.86      0.00 
   19    9    2      2.21      0.00 
   20    9    2      1.18      0.00 
  -19   10    2     -0.69      0.00 
  -18   10    2      1.58      0.00 
  -17   10    2      2.67      0.00 
  -16   10    2      0.79      0.00 
  -15   10    2     -2.23      0.00 
  -14   10    2     -2.68      0.00 
  -13   10    2      0.27      0.00 
  -12   10    2      2.96      0.00 
  -11   10    2      1.57      0.00 
  -10   10    2     -3.22      0.00 
   -9   10    2     -6.81      0.00 
   -8   10    2     -5.56      0.00 
   -7   10    2     -0.58      0.00 
   -6   10    2      2.92      0.00 
   -5   10    2      0.62      0.00 
   -4   10    2     -5.80      0.00 
   -3   10    2     -9.62      0.00 
   -2   10    2     -6.43      0.00 
   -1   10    2      0.28      0.00 
    0   10    2      2.97      0.00 
    1   10    2     -0.86      0.00 
    2   10    2     -5.92      0.00 
    3   10    2     -5.64      0.00 
    4   10    2      0.58      0.00 
    5   10    2      7.32      0.00 
    6   10    2      9.05      0.00 
    7   10    2      5.37      0.00 
    8   10    2      0.92      0.00 
    9   10    2      0.50      0.00 
   10   10    2      3.93      0.00 
   11   10    2      6.42      0.00 
   12   10    2      4.34      0.00 
   13   10    2     -0.48      0.00 
   14   10    2     -3.38      0.00 
   15   10    2     -2.70      0.00 
   16   10    2     -0.89      0.00 
   17   10    2     -0.46      0.00 
   18   10    2     -1.16      0.00 
   19   10    2     -1.48      0.00 
  -18   11    2     -0.10      0.00 
  -17   11    2     -2.24      0.00 
  -16   11    2     -3.33      0.00 
  -15   11    2     -1.29      0.00 
  -14   11    2      2.67      0.00 
  -13   11    2      4.81      0.00 
  -12   11    2      3.23      0.00 
  -11   11    2      0.18      0.00 
  -10   11    2     -0.72      0.00 
   -9   11    2      1.58      0.00 
   -8   11    2      4.38      0.00 
   -7   11    2      3.77      0.00 
   -6   11    2     -1.36      0.00 
   -5   11    2     -7.17      0.00 
   -4   11    2     -8.08      0.00 
   -3   11    2     -3.11      0.00 
   -2   11    2      2.31      0.00 
   -1   11    2      2.60      0.00 
    0   11    2     -1.43      0.00 
    1   11    2     -3.76      0.00 
    2   11    2     -0.32      0.00 
    3   11    2      6.80      0.00 
    4   11    2     11.63      0.00 
    5   11    2     10.18      0.00 
    6   11    2      4.01      0.00 
    7   11    2     -1.30      0.00 
    8   11    2     -1.84      0.00 
    9   11    2      0.65      0.00 
   10   11    2      1.18      0.00 
   11   11    2     -2.28      0.00 
   12   11    2     -6.45      0.00 
   13   11    2     -7.01      0.00 
   14   11    2     -3.78      0.00 
   15   11    2     -0.23      0.00 
   16   11    2      1.10      0.00 
   17   11    2      0.79      0.00 
   18   11    2      0.46      0.00 
  -18   12    2      0.53      0.00 
  -17   12    2      1.19      0.00 
  -16   12    2      2.87      0.00 
  -15   12    2      4.16      0.00 
  -14   12    2      2.91      0.00 
  -13   12    2     -0.75      0.00 
  -12   12    2     -3.71      0.00 
  -11   12    2     -3.50      0.00 
  -10   12    2     -1.24      0.00 
   -9   12    2     -0.16      0.00 
   -8   12    2     -2.01      0.00 
   -7   12    2     -5.34      0.00 
   -6   12    2     -6.67      0.00 
   -5   12    2     -3.63      0.00 
   -4   12    2      1.88      0.00 
   -3   12    2      4.81      0.00 
   -2   12    2      2.55      0.00 
   -1   12    2     -1.69      0.00 
    0   12    2     -2.60      0.00 
    1   12    2      1.16      0.00 
    2   12    2      5.97      0.00 
    3   12    2      7.22      0.00 
    4   12    2      3.43      0.00 
    5   12    2     -2.49      0.00 
    6   12    2     -5.58      0.00 
    7   12    2     -3.54      0.00 
    8   12    2      0.46      0.00 
    9   12    2      1.29      0.00 
   10   12    2     -1.97      0.00 
   11   12    2     -5.10      0.00 
   12   12    2     -4.36      0.00 
   13   12    2     -0.80      0.00 
   14   12    2      2.01      0.00 
   15   12    2      2.43      0.00 
   16   12    2      1.56      0.00 
   17   12    2      0.81      0.00 
   18   12    2      0.46      0.00 
  -17   13    2     -0.23      0.00 
  -16   13    2     -0.51      0.00 
  -15   13    2     -1.83      0.00 
  -14   13    2     -3.72      0.00 
  -13   13    2     -3.75      0.00 
  -12   13    2     -0.82      0.00 
  -11   13    2      2.42      0.00 
  -10   13    2      2.71      0.00 
   -9   13    2      0.27      0.00 
   -8   13    2     -1.80      0.00 
   -7   13    2     -1.17      0.00 
   -6   13    2      1.71      0.00 
   -5   13    2      4.10      0.00 
   -4   13    2      3.12      0.00 
   -3   13    2     -1.02      0.00 
   -2   13    2     -4.33      0.00 
   -1   13    2     -3.09      0.00 
    0   13    2      1.69      0.00 
    1   13    2      5.56      0.00 
    2   13    2      5.41      0.00 
    3   13    2      1.96      0.00 
    4   13    2     -1.48      0.00 
    5   13    2     -1.64      0.00 
    6   13    2      1.76      0.00 
    7   13    2      4.96      0.00 
    8   13    2      3.84      0.00 
    9   13    2     -0.85      0.00 
   10   13    2     -4.29      0.00 
   11   13    2     -3.64      0.00 
   12   13    2     -1.07      0.00 
   13   13    2      0.09      0.00 
   14   13    2     -0.60      0.00 
   15   13    2     -1.47      0.00 
   16   13    2     -1.59      0.00 
   17   13    2     -1.18      0.00 
  -16   14    2      0.24      0.00 
  -15   14    2     -0.49      0.00 
  -14   14    2     -0.08      0.00 
  -13   14    2      1.98      0.00 
  -12   14    2      3.13      0.00 
  -11   14    2      1.16      0.00 
  -10   14    2     -2.12      0.00 
   -9   14    2     -3.09      0.00 
   -8   14    2     -1.00      0.00 
   -7   14    2      1.72      0.00 
   -6   14    2      2.55      0.00 
   -5   14    2      0.86      0.00 
   -4   14    2     -1.67      0.00 
   -3   14    2     -1.91      0.00 
   -2   14    2      1.63      0.00 
   -1   14    2      6.30      0.00 
    0   14    2      7.74      0.00 
    1   14    2      4.80      0.00 
    2   14    2      0.39      0.00 
    3   14    2     -1.97      0.00 
    4   14    2     -1.10      0.00 
    5   14    2      1.26      0.00 
    6   14    2      1.73      0.00 
    7   14    2     -1.48      0.00 
    8   14    2     -6.03      0.00 
    9   14    2     -7.73      0.00 
   10   14    2     -5.58      0.00 
   11   14    2     -2.56      0.00 
   12   14    2     -1.25      0.00 
   13   14    2     -1.19      0.00 
   14   14    2     -0.92      0.00 
   15   14    2     -0.21      0.00 
   16   14    2      0.47      0.00 
  -15   15    2      0.24      0.00 
  -14   15    2      1.09      0.00 
  -13   15    2      0.86      0.00 
  -12   15    2     -1.16      0.00 
  -11   15    2     -2.63      0.00 
  -10   15    2     -1.19      0.00 
   -9   15    2      2.01      0.00 
   -8   15    2      3.76      0.00 
   -7   15    2      2.81      0.00 
   -6   15    2      0.44      0.00 
   -5   15    2     -1.28      0.00 
   -4   15    2     -0.77      0.00 
   -3   15    2      1.82      0.00 
   -2   15    2      3.83      0.00 
   -1   15    2      2.49      0.00 
    0   15    2     -1.48      0.00 
    1   15    2     -4.41      0.00 
    2   15    2     -4.03      0.00 
    3   15    2     -1.62      0.00 
    4   15    2     -0.07      0.00 
    5   15    2     -1.15      0.00 
    6   15    2     -4.05      0.00 
    7   15    2     -5.90      0.00 
    8   15    2     -4.57      0.00 
    9   15    2     -1.15      0.00 
   10   15    2      1.42      0.00 
   11   15    2      1.89      0.00 
   12   15    2      1.18      0.00 
   13   15    2      0.32      0.00 
   14   15    2     -0.40      0.00 
  -13   16    2     -0.64      0.00 
  -12   16    2      0.00      0.00 
  -11   16    2      2.17      0.00 
  -10   16    2      3.58      0.00 
   -9   16    2      2.21      0.00 
   -8   16    2     -0.89      0.00 
   -7   16    2     -3.09      0.00 
   -6   16    2     -3.25      0.00 
   -5   16    2     -1.82      0.00 
   -4   16    2      0.15      0.00 
   -3   16    2      1.17      0.00 
   -2   16    2      0.19      0.00 
   -1   16    2     -1.61      0.00 
    0   16    2     -1.73      0.00 
    1   16    2      0.33      0.00 
    2   16    2      2.39      0.00 
    3   16    2      2.39      0.00 
    4   16    2      0.44      0.00 
    5   16    2     -1.73      0.00 
    6   16    2     -2.39      0.00 
    7   16    2     -1.21      0.00 
    8   16    2      0.40      0.00 
    9   16    2      0.85      0.00 
   10   16    2      0.20      0.00 
   11   16    2     -0.65      0.00 
   12   16    2     -1.45      0.00 
   13   16    2     -2.06      0.00 
  -12   17    2      1.10      0.00 
  -11   17    2      0.29      0.00 
  -10   17    2     -2.30      0.00 
   -9   17    2     -4.31      0.00 
   -8   17    2     -3.59      0.00 
   -7   17    2     -1.05      0.00 
   -6   17    2      1.02      0.00 
   -5   17    2      1.84      0.00 
   -4   17    2      1.82      0.00 
   -3   17    2      1.19      0.00 
   -2   17    2      0.54      0.00 
   -1   17    2      0.81      0.00 
    0   17    2      1.74      0.00 
    1   17    2      1.86      0.00 
    2   17    2      0.66      0.00 
    3   17    2     -1.00      0.00 
    4   17    2     -2.26      0.00 
    5   17    2     -2.73      0.00 
    6   17    2     -2.20      0.00 
    7   17    2     -1.01      0.00 
    8   17    2      0.03      0.00 
    9   17    2      0.62      0.00 
   10   17    2      0.97      0.00 
   11   17    2      0.95      0.00 
  -10   18    2     -2.99      0.00 
   -9   18    2     -1.35      0.00 
   -8   18    2      0.84      0.00 
   -7   18    2      1.27      0.00 
   -6   18    2      0.24      0.00 
   -5   18    2     -0.45      0.00 
   -4   18    2     -0.35      0.00 
   -3   18    2      0.00      0.00 
   -2   18    2      0.38      0.00 
   -1   18    2      0.63      0.00 
    0   18    2      0.35      0.00 
    1   18    2     -0.19      0.00 
    2   18    2     -0.40      0.00 
    3   18    2     -0.64      0.00 
    4   18    2     -1.27      0.00 
    5   18    2     -1.44      0.00 
    6   18    2     -0.51      0.00 
    7   18    2      0.55      0.00 
    8   18    2      0.70      0.00 
    9   18    2      0.28      0.00 
   -7   19    2     -0.68      0.00 
   -6   19    2     -0.53      0.00 
   -5   19    2      0.66      0.00 
   -4   19    2      1.60      0.00 
   -3   19    2      1.70      0.00 
   -2   19    2      1.21      0.00 
   -1   19    2      0.40      0.00 
    0   19    2     -0.26      0.00 
    1   19    2     -0.54      0.00 
    2   19    2     -1.12      0.00 
    3   19    2     -2.27      0.00 
    4   19    2     -2.61      0.00 
    5   19    2     -1.27      0.00 
    6   19    2      0.34      0.00 
    7   19    2      0.63      0.00 
   -1   20    2     -1.39      0.00 
    0   20    2     -1.35      0.00 
    1   20    2     -1.53      0.00 
  -22    1    3     -1.44      0.00 
  -21    1    3     -1.99      0.00 
  -20    1    3     -2.29      0.00 
  -19    1    3     -1.81      0.00 
  -18    1    3     -0.51      0.00 
  -17    1    3      0.61      0.00 
  -16    1    3      0.46      0.00 
  -15    1    3     -0.54      0.00 
  -14    1    3     -0.70      0.00 
  -13    1    3      0.40      0.00 
  -12    1    3      0.97      0.00 
  -11    1    3     -0.62      0.00 
  -10    1    3     -3.59      0.00 
   -9    1    3     -5.64      0.00 
   -8    1    3     -5.18      0.00 
   -7    1    3     -2.35      0.00 
   -6    1    3      0.79      0.00 
   -5    1    3      2.54      0.00 
   -4    1    3      6.62      0.00 
   -3    1    3     21.52      0.00 
   -2    1    3     48.61      0.00 
   -1    1    3     72.85      0.00 
    0    1    3     74.53      0.00 
    1    1    3     51.28      0.00 
    2    1    3     21.25      0.00 
    3    1    3      2.65      0.00 
    4    1    3     -2.75      0.00 
    5    1    3     -4.38      0.00 
    6    1    3     -8.90      0.00 
    7    1    3    -15.54      0.00 
    8    1    3    -20.22      0.00 
    9    1    3    -20.09      0.00 
   10    1    3    -15.62      0.00 
   11    1    3    -10.01      0.00 
   12    1    3     -6.06      0.00 
   13    1    3     -3.63      0.00 
   14    1    3     -1.06      0.00 
   15    1    3      2.05      0.00 
   16    1    3      4.62      0.00 
   17    1    3      5.68      0.00 
   18    1    3      5.05      0.00 
   19    1    3      3.26      0.00 
   20    1    3      1.45      0.00 
   21    1    3      0.67      0.00 
   22    1    3      0.78      0.00 
  -22    2    3      1.10      0.00 
  -21    2    3      1.53      0.00 
  -20    2    3      2.45      0.00 
  -19    2    3      3.50      0.00 
  -18    2    3      3.47      0.00 
  -17    2    3      2.01      0.00 
  -16    2    3      0.84      0.00 
  -15    2    3      2.06      0.00 
  -14    2    3      4.96      0.00 
  -13    2    3      6.12      0.00 
  -12    2    3      3.89      0.00 
  -11    2    3      1.20      0.00 
  -10    2    3      2.11      0.00 
   -9    2    3      7.06      0.00 
   -8    2    3     12.52      0.00 
   -7    2    3     14.07      0.00 
   -6    2    3     10.53      0.00 
   -5    2    3      7.42      0.00 
   -4    2    3     13.26      0.00 
   -3    2    3     26.15      0.00 
   -2    2    3     27.93      0.00 
   -1    2    3      2.80      0.00 
    0    2    3    -38.51      0.00 
    1    2    3    -65.38      0.00 
    2    2    3    -60.79      0.00 
    3    2    3    -37.94      0.00 
    4    2    3    -20.69      0.00 
    5    2    3    -17.73      0.00 
    6    2    3    -20.74      0.00 
    7    2    3    -19.07      0.00 
    8    2    3     -9.81      0.00 
    9    2    3      2.33      0.00 
   10    2    3     10.61      0.00 
   11    2    3     12.27      0.00 
   12    2    3     10.46      0.00 
   13    2    3      9.61      0.00 
   14    2    3     10.30      0.00 
   15    2    3     10.08      0.00 
   16    2    3      7.48      0.00 
   17    2    3      3.48      0.00 
   18    2    3     -0.03      0.00 
   19    2    3     -1.77      0.00 
   20    2    3     -1.70      0.00 
   21    2    3     -0.91      0.00 
   22    2    3     -0.51      0.00 
  -22    3    3      0.43      0.00 
  -21    3    3      0.79      0.00 
  -20    3    3      1.22      0.00 
  -19    3    3      0.81      0.00 
  -18    3    3      0.11      0.00 
  -17    3    3      0.98      0.00 
  -16    3    3      4.03      0.00 
  -15    3    3      6.85      0.00 
  -14    3    3      5.97      0.00 
  -13    3    3      1.14      0.00 
  -12    3    3     -3.48      0.00 
  -11    3    3     -4.20      0.00 
  -10    3    3     -2.75      0.00 
   -9    3    3     -4.41      0.00 
   -8    3    3    -11.67      0.00 
   -7    3    3    -20.86      0.00 
   -6    3    3    -24.46      0.00 
   -5    3    3    -17.72      0.00 
   -4    3    3     -6.29      0.00 
   -3    3    3     -4.64      0.00 
   -2    3    3    -19.56      0.00 
   -1    3    3    -36.32      0.00 
    0    3    3    -31.54      0.00 
    1    3    3     -2.13      0.00 
    2    3    3     28.48      0.00 
    3    3    3     36.76      0.00 
    4    3    3     23.31      0.00 
    5    3    3      6.79      0.00 
    6    3    3      1.52      0.00 
    7    3    3      6.70      0.00 
    8    3    3     12.71      0.00 
    9    3    3     12.17      0.00 
   10    3    3      5.71      0.00 
   11    3    3     -0.48      0.00 
   12    3    3     -1.94      0.00 
   13    3    3     -0.26      0.00 
   14    3    3      0.15      0.00 
   15    3    3     -2.24      0.00 
   16    3    3     -5.03      0.00 
   17    3    3     -5.46      0.00 
   18    3    3     -3.48      0.00 
   19    3    3     -1.12      0.00 
   20    3    3      0.03      0.00 
   21    3    3      0.13      0.00 
   22    3    3      0.14      0.00 
  -22    4    3      1.15      0.00 
  -21    4    3      2.02      0.00 
  -20    4    3      1.87      0.00 
  -19    4    3      1.52      0.00 
  -18    4    3      2.16      0.00 
  -17    4    3      3.09      0.00 
  -16    4    3      2.10      0.00 
  -15    4    3     -2.02      0.00 
  -14    4    3     -7.40      0.00 
  -13    4    3    -10.08      0.00 
  -12    4    3     -8.38      0.00 
  -11    4    3     -5.86      0.00 
  -10    4    3     -7.53      0.00 
   -9    4    3    -12.57      0.00 
   -8    4    3    -13.68      0.00 
   -7    4    3     -4.81      0.00 
   -6    4    3     11.64      0.00 
   -5    4    3     25.28      0.00 
   -4    4    3     26.01      0.00 
   -3    4    3     14.60      0.00 
   -2    4    3      4.89      0.00 
   -1    4    3     10.28      0.00 
    0    4    3     26.28      0.00 
    1    4    3     32.83      0.00 
    2    4    3     17.42      0.00 
    3    4    3     -9.58      0.00 
    4    4    3    -26.77      0.00 
    5    4    3    -24.42      0.00 
    6    4    3    -11.19      0.00 
    7    4    3     -1.57      0.00 
    8    4    3     -1.60      0.00 
    9    4    3     -6.47      0.00 
   10    4    3     -8.20      0.00 
   11    4    3     -4.10      0.00 
   12    4    3      1.85      0.00 
   13    4    3      4.38      0.00 
   14    4    3      2.57      0.00 
   15    4    3     -0.08      0.00 
   16    4    3     -0.43      0.00 
   17    4    3      0.97      0.00 
   18    4    3      1.47      0.00 
   19    4    3      0.27      0.00 
   20    4    3     -0.99      0.00 
   21    4    3     -0.98      0.00 
   22    4    3     -0.31      0.00 
  -21    5    3     -0.26      0.00 
  -20    5    3     -0.15      0.00 
  -19    5    3      0.92      0.00 
  -18    5    3      1.43      0.00 
  -17    5    3     -0.08      0.00 
  -16    5    3     -2.92      0.00 
  -15    5    3     -4.54      0.00 
  -14    5    3     -2.75      0.00 
  -13    5    3      1.51      0.00 
  -12    5    3      3.63      0.00 
  -11    5    3      0.05      0.00 
  -10    5    3     -5.69      0.00 
   -9    5    3     -5.22      0.00 
   -8    5    3      4.38      0.00 
   -7    5    3     15.40      0.00 
   -6    5    3     16.72      0.00 
   -5    5    3      5.10      0.00 
   -4    5    3    -11.08      0.00 
   -3    5    3    -18.62      0.00 
   -2    5    3    -11.72      0.00 
   -1    5    3      0.85      0.00 
    0    5    3      3.56      0.00 
    1    5    3     -8.27      0.00 
    2    5    3    -21.72      0.00 
    3    5    3    -20.61      0.00 
    4    5    3     -4.12      0.00 
    5    5    3     12.99      0.00 
    6    5    3     17.11      0.00 
    7    5    3      8.72      0.00 
    8    5    3     -1.18      0.00 
    9    5    3     -3.51      0.00 
   10    5    3      1.48      0.00 
   11    5    3      6.95      0.00 
   12    5    3      7.21      0.00 
   13    5    3      2.62      0.00 
   14    5    3     -1.99      0.00 
   15    5    3     -3.00      0.00 
   16    5    3     -1.51      0.00 
   17    5    3     -0.69      0.00 
   18    5    3     -1.32      0.00 
   19    5    3     -1.68      0.00 
   20    5    3     -0.82      0.00 
   21    5    3      0.24      0.00 
  -21    6    3      1.81      0.00 
  -20    6    3      3.24      0.00 
  -19    6    3      3.14      0.00 
  -18    6    3      0.81      0.00 
  -17    6    3     -1.97      0.00 
  -16    6    3     -2.81      0.00 
  -15    6    3     -1.20      0.00 
  -14    6    3      0.43      0.00 
  -13    6    3     -1.78      0.00 
  -12    6    3     -8.60      0.00 
  -11    6    3    -14.46      0.00 
  -10    6    3    -12.02      0.00 
   -9    6    3     -1.86      0.00 
   -8    6    3      6.19      0.00 
   -7    6    3      3.77      0.00 
   -6    6    3     -6.08      0.00 
   -5    6    3    -11.79      0.00 
   -4    6    3     -4.80      0.00 
   -3    6    3     11.87      0.00 
   -2    6    3     25.30      0.00 
   -1    6    3     24.17      0.00 
    0    6    3     10.64      0.00 
    1    6    3     -0.63      0.00 
    2    6    3      1.76      0.00 
    3    6    3     12.93      0.00 
    4    6    3     17.68      0.00 
    5    6    3      8.36      0.00 
    6    6    3     -7.26      0.00 
    7    6    3    -15.74      0.00 
    8    6    3    -11.77      0.00 
    9    6    3     -1.37      0.00 
   10    6    3      5.74      0.00 
   11    6    3      4.92      0.00 
   12    6    3     -0.70      0.00 
   13    6    3     -4.57      0.00 
   14    6    3     -3.64      0.00 
   15    6    3     -0.65      0.00 
   16    6    3      0.51      0.00 
   17    6    3     -0.32      0.00 
   18    6    3     -0.80      0.00 
   19    6    3     -0.13      0.00 
   20    6    3      0.65      0.00 
   21    6    3      1.00      0.00 
  -21    7    3     -0.28      0.00 
  -20    7    3     -1.56      0.00 
  -19    7    3     -4.27      0.00 
  -18    7    3     -6.46      0.00 
  -17    7    3     -6.23      0.00 
  -16    7    3     -4.26      0.00 
  -15    7    3     -3.30      0.00 
  -14    7    3     -5.25      0.00 
  -13    7    3     -8.33      0.00 
  -12    7    3     -7.25      0.00 
  -11    7    3      1.46      0.00 
  -10    7    3     13.53      0.00 
   -9    7    3     19.48      0.00 
   -8    7    3     15.20      0.00 
   -7    7    3      7.47      0.00 
   -6    7    3      6.63      0.00 
   -5    7    3     15.15      0.00 
   -4    7    3     24.80      0.00 
   -3    7    3     24.48      0.00 
   -2    7    3     10.91      0.00 
   -1    7    3     -7.10      0.00 
    0    7    3    -15.92      0.00 
    1    7    3    -10.67      0.00 
    2    7    3     -0.83      0.00 
    3    7    3      0.13      0.00 
    4    7    3     -9.84      0.00 
    5    7    3    -19.54      0.00 
    6    7    3    -17.95      0.00 
    7    7    3     -5.86      0.00 
    8    7    3      6.45      0.00 
    9    7    3     10.17      0.00 
   10    7    3      5.07      0.00 
   11    7    3     -2.11      0.00 
   12    7    3     -4.51      0.00 
   13    7    3     -1.41      0.00 
   14    7    3      2.12      0.00 
   15    7    3      2.06      0.00 
   16    7    3     -0.20      0.00 
   17    7    3     -1.28      0.00 
   18    7    3     -0.86      0.00 
   19    7    3     -0.53      0.00 
   20    7    3     -0.42      0.00 
   21    7    3      0.05      0.00 
  -20    8    3     -1.62      0.00 
  -19    8    3     -2.23      0.00 
  -18    8    3     -0.60      0.00 
  -17    8    3      1.70      0.00 
  -16    8    3      2.02      0.00 
  -15    8    3      0.27      0.00 
  -14    8    3     -0.69      0.00 
  -13    8    3      2.14      0.00 
  -12    8    3      8.35      0.00 
  -11    8    3     12.98      0.00 
  -10    8    3     10.64      0.00 
   -9    8    3      2.11      0.00 
   -8    8    3     -4.92      0.00 
   -7    8    3     -3.92      0.00 
   -6    8    3      2.66      0.00 
   -5    8    3      5.82      0.00 
   -4    8    3     -0.30      0.00 
   -3    8    3    -12.23      0.00 
   -2    8    3    -20.31      0.00 
   -1    8    3    -17.51      0.00 
    0    8    3     -6.31      0.00 
    1    8    3      2.74      0.00 
    2    8    3      1.12      0.00 
    3    8    3     -8.32      0.00 
    4    8    3    -14.03      0.00 
    5    8    3     -8.73      0.00 
    6    8    3      2.80      0.00 
    7    8    3     10.17      0.00 
    8    8    3      8.58      0.00 
    9    8    3      2.04      0.00 
   10    8    3     -2.24      0.00 
   11    8    3     -0.62      0.00 
   12    8    3      4.35      0.00 
   13    8    3      6.91      0.00 
   14    8    3      4.66      0.00 
   15    8    3      1.01      0.00 
   16    8    3     -0.05      0.00 
   17    8    3      0.89      0.00 
   18    8    3      1.20      0.00 
   19    8    3      0.83      0.00 
   20    8    3      1.06      0.00 
  -20    9    3     -0.97      0.00 
  -19    9    3      0.13      0.00 
  -18    9    3      0.37      0.00 
  -17    9    3     -1.86      0.00 
  -16    9    3     -4.74      0.00 
  -15    9    3     -5.16      0.00 
  -14    9    3     -2.62      0.00 
  -13    9    3      0.41      0.00 
  -12    9    3      0.89      0.00 
  -11    9    3     -2.03      0.00 
  -10    9    3     -5.57      0.00 
   -9    9    3     -4.96      0.00 
   -8    9    3      1.23      0.00 
   -7    9    3      8.05      0.00 
   -6    9    3      8.72      0.00 
   -5    9    3      2.42      0.00 
   -4    9    3     -4.65      0.00 
   -3    9    3     -6.03      0.00 
   -2    9    3     -1.19      0.00 
   -1    9    3      4.70      0.00 
    0    9    3      5.50      0.00 
    1    9    3     -0.61      0.00 
    2    9    3     -8.54      0.00 
    3    9    3    -10.06      0.00 
    4    9    3     -2.49      0.00 
    5    9    3      7.71      0.00 
    6    9    3     12.00      0.00 
    7    9    3      8.91      0.00 
    8    9    3      3.81      0.00 
    9    9    3      1.77      0.00 
   10    9    3      3.27      0.00 
   11    9    3      5.13      0.00 
   12    9    3      3.90      0.00 
   13    9    3     -0.59      0.00 
   14    9    3     -4.55      0.00 
   15    9    3     -4.80      0.00 
   16    9    3     -2.80      0.00 
   17    9    3     -1.81      0.00 
   18    9    3     -1.93      0.00 
   19    9    3     -1.37      0.00 
   20    9    3     -0.37      0.00 
  -19   10    3     -1.13      0.00 
  -18   10    3     -3.30      0.00 
  -17   10    3     -3.84      0.00 
  -16   10    3     -1.15      0.00 
  -15   10    3      2.77      0.00 
  -14   10    3      4.88      0.00 
  -13   10    3      4.49      0.00 
  -12   10    3      3.25      0.00 
  -11   10    3      3.23      0.00 
  -10   10    3      5.44      0.00 
   -9   10    3      8.42      0.00 
   -8   10    3      8.48      0.00 
   -7   10    3      3.44      0.00 
   -6   10    3     -3.89      0.00 
   -5   10    3     -8.02      0.00 
   -4   10    3     -6.84      0.00 
   -3   10    3     -3.42      0.00 
   -2   10    3     -1.85      0.00 
   -1   10    3     -3.42      0.00 
    0   10    3     -6.55      0.00 
    1   10    3     -7.99      0.00 
    2   10    3     -4.66      0.00 
    3   10    3      2.92      0.00 
    4   10    3      9.54      0.00 
    5   10    3     10.16      0.00 
    6   10    3      5.52      0.00 
    7   10    3      0.62      0.00 
    8   10    3     -1.26      0.00 
    9   10    3     -0.69      0.00 
   10   10    3      0.13      0.00 
   11   10    3     -0.50      0.00 
   12   10    3     -2.54      0.00 
   13   10    3     -3.78      0.00 
   14   10    3     -2.28      0.00 
   15   10    3      0.60      0.00 
   16   10    3      1.94      0.00 
   17   10    3      1.42      0.00 
   18   10    3      0.93      0.00 
   19   10    3      0.95      0.00 
  -18   11    3      0.88      0.00 
  -17   11    3      3.17      0.00 
  -16   11    3      3.93      0.00 
  -15   11    3      1.91      0.00 
  -14   11    3     -1.18      0.00 
  -13   11    3     -2.84      0.00 
  -12   11    3     -2.37      0.00 
  -11   11    3     -0.98      0.00 
  -10   11    3     -0.69      0.00 
   -9   11    3     -2.80      0.00 
   -8   11    3     -6.27      0.00 
   -7   11    3     -7.98      0.00 
   -6   11    3     -5.96      0.00 
   -5   11    3     -2.01      0.00 
   -4   11    3      0.35      0.00 
   -3   11    3     -0.12      0.00 
   -2   11    3     -1.78      0.00 
   -1   11    3     -2.64      0.00 
    0   11    3     -1.90      0.00 
    1   11    3      0.62      0.00 
    2   11    3      4.16      0.00 
    3   11    3      6.45      0.00 
    4   11    3      5.46      0.00 
    5   11    3      2.17      0.00 
    6   11    3     -0.39      0.00 
    7   11    3     -0.52      0.00 
    8   11    3      1.04      0.00 
    9   11    3      2.60      0.00 
   10   11    3      2.69      0.00 
   11   11    3      0.88      0.00 
   12   11    3     -1.33      0.00 
   13   11    3     -1.73      0.00 
   14   11    3     -0.45      0.00 
   15   11    3      0.30      0.00 
   16   11    3     -0.29      0.00 
   17   11    3     -0.79      0.00 
   18   11    3     -0.43      0.00 
  -18   12    3      0.23      0.00 
  -17   12    3     -1.34      0.00 
  -16   12    3     -3.75      0.00 
  -15   12    3     -4.81      0.00 
  -14   12    3     -3.28      0.00 
  -13   12    3     -0.21      0.00 
  -12   12    3      2.22      0.00 
  -11   12    3      2.44      0.00 
  -10   12    3      0.73      0.00 
   -9   12    3     -0.72      0.00 
   -8   12    3      0.12      0.00 
   -7   12    3      2.55      0.00 
   -6   12    3      3.74      0.00 
   -5   12    3      2.22      0.00 
   -4   12    3     -0.44      0.00 
   -3   12    3     -1.89      0.00 
   -2   12    3     -1.58      0.00 
   -1   12    3     -0.34      0.00 
    0   12    3      1.30      0.00 
    1   12    3      3.19      0.00 
    2   12    3      4.69      0.00 
    3   12    3      4.88      0.00 
    4   12    3      3.76      0.00 
    5   12    3      2.36      0.00 
    6   12    3      1.66      0.00 
    7   12    3      1.81      0.00 
    8   12    3      2.07      0.00 
    9   12    3      1.10      0.00 
   10   12    3     -1.77      0.00 
   11   12    3     -4.98      0.00 
   12   12    3     -5.84      0.00 
   13   12    3     -3.97      0.00 
   14   12    3     -1.80      0.00 
   15   12    3     -1.04      0.00 
   16   12    3     -0.83      0.00 
   17   12    3     -0.10      0.00 
   18   12    3      0.56      0.00 
  -17   13    3      0.17      0.00 
  -16   13    3      0.96      0.00 
  -15   13    3      2.75      0.00 
  -14   13    3      4.06      0.00 
  -13   13    3      3.47      0.00 
  -12   13    3      1.06      0.00 
  -11   13    3     -1.56      0.00 
  -10   13    3     -2.35      0.00 
   -9   13    3     -0.87      0.00 
   -8   13    3      0.82      0.00 
   -7   13    3      0.45      0.00 
   -6   13    3     -1.46      0.00 
   -5   13    3     -2.38      0.00 
   -4   13    3     -1.15      0.00 
   -3   13    3      0.93      0.00 
   -2   13    3      2.31      0.00 
   -1   13    3      2.88      0.00 
    0   13    3      3.24      0.00 
    1   13    3      3.47      0.00 
    2   13    3      3.12      0.00 
    3   13    3      1.88      0.00 
    4   13    3     -0.04      0.00 
    5   13    3     -1.71      0.00 
    6   13    3     -2.12      0.00 
    7   13    3     -1.43      0.00 
    8   13    3     -1.44      0.00 
    9   13    3     -3.46      0.00 
   10   13    3     -5.96      0.00 
   11   13    3     -5.86      0.00 
   12   13    3     -2.65      0.00 
   13   13    3      0.62      0.00 
   14   13    3      1.55      0.00 
   15   13    3      1.16      0.00 
   16   13    3      1.22      0.00 
   17   13    3      1.45      0.00 
  -16   14    3      0.28      0.00 
  -15   14    3     -0.04      0.00 
  -14   14    3     -1.60      0.00 
  -13   14    3     -3.20      0.00 
  -12   14    3     -2.99      0.00 
  -11   14    3     -0.50      0.00 
  -10   14    3      2.56      0.00 
   -9   14    3      3.74      0.00 
   -8   14    3      2.33      0.00 
   -7   14    3      0.40      0.00 
   -6   14    3      0.30      0.00 
   -5   14    3      1.68      0.00 
   -4   14    3      2.28      0.00 
   -3   14    3      1.16      0.00 
   -2   14    3     -0.41      0.00 
   -1   14    3     -0.97      0.00 
    0   14    3     -0.50      0.00 
    1   14    3      0.04      0.00 
    2   14    3     -0.22      0.00 
    3   14    3     -1.32      0.00 
    4   14    3     -2.18      0.00 
    5   14    3     -1.54      0.00 
    6   14    3      0.23      0.00 
    7   14    3      0.89      0.00 
    8   14    3     -0.99      0.00 
    9   14    3     -3.49      0.00 
   10   14    3     -3.29      0.00 
   11   14    3     -0.26      0.00 
   12   14    3      1.97      0.00 
   13   14    3      0.99      0.00 
   14   14    3     -1.26      0.00 
   15   14    3     -1.95      0.00 
   16   14    3     -1.26      0.00 
  -15   15    3     -0.49      0.00 
  -14   15    3     -0.43      0.00 
  -13   15    3      1.60      0.00 
  -12   15    3      4.51      0.00 
  -11   15    3      5.69      0.00 
  -10   15    3      3.77      0.00 
   -9   15    3      0.29      0.00 
   -8   15    3     -1.71      0.00 
   -7   15    3     -1.01      0.00 
   -6   15    3      0.49      0.00 
   -5   15    3      0.29      0.00 
   -4   15    3     -1.42      0.00 
   -3   15    3     -2.23      0.00 
   -2   15    3     -0.86      0.00 
   -1   15    3      1.46      0.00 
    0   15    3      2.63      0.00 
    1   15    3      1.85      0.00 
    2   15    3      0.23      0.00 
    3   15    3     -0.38      0.00 
    4   15    3      0.72      0.00 
    5   15    3      1.92      0.00 
    6   15    3      0.89      0.00 
    7   15    3     -2.49      0.00 
    8   15    3     -5.26      0.00 
    9   15    3     -4.53      0.00 
   10   15    3     -1.23      0.00 
   11   15    3      0.80      0.00 
   12   15    3     -0.30      0.00 
   13   15    3     -2.18      0.00 
   14   15    3     -2.09      0.00 
  -13   16    3      2.56      0.00 
  -12   16    3      1.44      0.00 
  -11   16    3     -1.41      0.00 
  -10   16    3     -3.68      0.00 
   -9   16    3     -3.23      0.00 
   -8   16    3     -0.64      0.00 
   -7   16    3      1.19      0.00 
   -6   16    3      0.42      0.00 
   -5   16    3     -1.43      0.00 
   -4   16    3     -1.49      0.00 
   -3   16    3      0.73      0.00 
   -2   16    3      2.89      0.00 
   -1   16    3      2.71      0.00 
    0   16    3      0.47      0.00 
    1   16    3     -1.42      0.00 
    2   16    3     -1.12      0.00 
    3   16    3      0.46      0.00 
    4   16    3      0.45      0.00 
    5   16    3     -2.45      0.00 
    6   16    3     -5.95      0.00 
    7   16    3     -6.51      0.00 
    8   16    3     -3.27      0.00 
    9   16    3      0.99      0.00 
   10   16    3      2.87      0.00 
   11   16    3      1.78      0.00 
   12   16    3      0.00      0.00 
   13   16    3     -0.42      0.00 
  -12   17    3     -0.94      0.00 
  -11   17    3     -1.17      0.00 
  -10   17    3     -0.20      0.00 
   -9   17    3      1.03      0.00 
   -8   17    3      0.74      0.00 
   -7   17    3     -1.37      0.00 
   -6   17    3     -3.16      0.00 
   -5   17    3     -2.46      0.00 
   -4   17    3      0.10      0.00 
   -3   17    3      1.83      0.00 
   -2   17    3      1.15      0.00 
   -1   17    3     -0.69      0.00 
    0   17    3     -1.10      0.00 
    1   17    3      0.79      0.00 
    2   17    3      2.83      0.00 
    3   17    3      2.10      0.00 
    4   17    3     -1.21      0.00 
    5   17    3     -3.55      0.00 
    6   17    3     -2.26      0.00 
    7   17    3      1.20      0.00 
    8   17    3      3.42      0.00 
    9   17    3      2.96      0.00 
   10   17    3      1.11      0.00 
   11   17    3     -0.35      0.00 
   -9   18    3     -1.89      0.00 
   -8   18    3     -2.38      0.00 
   -7   18    3     -1.85      0.00 
   -6   18    3      0.22      0.00 
   -5   18    3      2.64      0.00 
   -4   18    3      3.51      0.00 
   -3   18    3      2.35      0.00 
   -2   18    3      0.74      0.00 
   -1   18    3      0.55      0.00 
    0   18    3      1.73      0.00 
    1   18    3      2.17      0.00 
    2   18    3      0.13      0.00 
    3   18    3     -3.08      0.00 
    4   18    3     -4.21      0.00 
    5   18    3     -2.12      0.00 
    6   18    3      0.78      0.00 
    7   18    3      1.75      0.00 
    8   18    3      0.97      0.00 
    9   18    3      0.24      0.00 
   -7   19    3      1.60      0.00 
   -6   19    3      2.14      0.00 
   -5   19    3      1.60      0.00 
   -4   19    3      0.23      0.00 
   -3   19    3     -0.83      0.00 
   -2   19    3     -0.76      0.00 
   -1   19    3     -0.08      0.00 
    0   19    3     -0.21      0.00 
    1   19    3     -1.60      0.00 
    2   19    3     -2.83      0.00 
    3   19    3     -2.21      0.00 
    4   19    3     -0.07      0.00 
    5   19    3      1.55      0.00 
    6   19    3      1.38      0.00 
    7   19    3      0.26      0.00 
    0   20    3     -0.76      0.00 
  -22    0    4     -1.99      0.00 
  -21    0    4     -2.95      0.00 
  -20    0    4     -3.31      0.00 
  -19    0    4     -2.29      0.00 
  -18    0    4      0.02      0.00 
  -17    0    4      1.03      0.00 
  -16    0    4     -1.07      0.00 
  -15    0    4     -2.70      0.00 
  -14    0    4      1.12      0.00 
  -13    0    4      8.08      0.00 
  -12    0    4     10.25      0.00 
  -11    0    4      4.82      0.00 
  -10    0    4     -2.46      0.00 
   -9    0    4     -4.25      0.00 
   -8    0    4      2.16      0.00 
   -7    0    4     12.10      0.00 
   -6    0    4     13.75      0.00 
   -5    0    4      0.33      0.00 
   -4    0    4    -12.11      0.00 
   -3    0    4      5.91      0.00 
   -2    0    4     56.72      0.00 
   -1    0    4     98.70      0.00 
    0    0    4     89.12      0.00 
    1    0    4     34.73      0.00 
    2    0    4    -17.53      0.00 
    3    0    4    -33.23      0.00 
    4    0    4    -18.03      0.00 
    5    0    4      0.56      0.00 
    6    0    4      2.43      0.00 
    7    0    4    -12.28      0.00 
    8    0    4    -28.07      0.00 
    9    0    4    -30.07      0.00 
   10    0    4    -18.33      0.00 
   11    0    4     -5.13      0.00 
   12    0    4      0.53      0.00 
   13    0    4      0.43      0.00 
   14    0    4      0.52      0.00 
   15    0    4      3.39      0.00 
   16    0    4      7.50      0.00 
   17    0    4      9.55      0.00 
   18    0    4      7.53      0.00 
   19    0    4      3.27      0.00 
   20    0    4      0.65      0.00 
   21    0    4      0.77      0.00 
   22    0    4      1.42      0.00 
  -22    1    4      0.07      0.00 
  -21    1    4      0.91      0.00 
  -20    1    4      2.01      0.00 
  -19    1    4      3.10      0.00 
  -18    1    4      2.93      0.00 
  -17    1    4      1.22      0.00 
  -16    1    4      0.99      0.00 
  -15    1    4      4.85      0.00 
  -14    1    4      9.24      0.00 
  -13    1    4      7.89      0.00 
  -12    1    4      1.18      0.00 
  -11    1    4     -3.48      0.00 
  -10    1    4     -0.90      0.00 
   -9    1    4      6.57      0.00 
   -8    1    4     11.54      0.00 
   -7    1    4      6.53      0.00 
   -6    1    4     -8.08      0.00 
   -5    1    4    -17.36      0.00 
   -4    1    4     -4.27      0.00 
   -3    1    4     23.11      0.00 
   -2    1    4     30.41      0.00 
   -1    1    4     -2.66      0.00 
    0    1    4    -51.48      0.00 
    1    1    4    -72.12      0.00 
    2    1    4    -50.56      0.00 
    3    1    4    -12.33      0.00 
    4    1    4     10.41      0.00 
    5    1    4      7.68      0.00 
    6    1    4     -7.77      0.00 
    7    1    4    -16.51      0.00 
    8    1    4     -9.25      0.00 
    9    1    4      6.54      0.00 
   10    1    4     16.30      0.00 
   11    1    4     14.51      0.00 
   12    1    4      7.77      0.00 
   13    1    4      3.99      0.00 
   14    1    4      4.45      0.00 
   15    1    4      5.79      0.00 
   16    1    4      4.88      0.00 
   17    1    4      1.34      0.00 
   18    1    4     -2.17      0.00 
   19    1    4     -2.79      0.00 
   20    1    4     -1.11      0.00 
   21    1    4      0.03      0.00 
   22    1    4     -0.18      0.00 
  -22    2    4     -0.10      0.00 
  -21    2    4     -0.43      0.00 
  -20    2    4     -0.95      0.00 
  -19    2    4     -1.39      0.00 
  -18    2    4     -1.36      0.00 
  -17    2    4      0.32      0.00 
  -16    2    4      3.69      0.00 
  -15    2    4      5.47      0.00 
  -14    2    4      2.39      0.00 
  -13    2    4     -3.13      0.00 
  -12    2    4     -5.07      0.00 
  -11    2    4     -1.90      0.00 
  -10    2    4      1.28      0.00 
   -9    2    4     -1.44      0.00 
   -8    2    4    -11.20      0.00 
   -7    2    4    -22.22      0.00 
   -6    2    4    -23.34      0.00 
   -5    2    4     -8.22      0.00 
   -4    2    4     12.29      0.00 
   -3    2    4     17.01      0.00 
   -2    2    4      1.02      0.00 
   -1    2    4    -13.85      0.00 
    0    2    4     -4.66      0.00 
    1    2    4     23.81      0.00 
    2    2    4     45.45      0.00 
    3    2    4     42.42      0.00 
    4    2    4     19.94      0.00 
    5    2    4     -3.38      0.00 
    6    2    4    -12.56      0.00 
    7    2    4     -6.61      0.00 
    8    2    4      2.87      0.00 
    9    2    4      4.15      0.00 
   10    2    4     -2.90      0.00 
   11    2    4     -9.46      0.00 
   12    2    4     -9.53      0.00 
   13    2    4     -5.05      0.00 
   14    2    4     -1.00      0.00 
   15    2    4      0.02      0.00 
   16    2    4     -1.07      0.00 
   17    2    4     -1.54      0.00 
   18    2    4     -0.09      0.00 
   19    2    4      1.51      0.00 
   20    2    4      1.28      0.00 
   21    2    4      0.11      0.00 
   22    2    4     -0.13      0.00 
  -22    3    4      1.07      0.00 
  -21    3    4      1.36      0.00 
  -20    3    4      2.23      0.00 
  -19    3    4      3.42      0.00 
  -18    3    4      4.38      0.00 
  -17    3    4      4.59      0.00 
  -16    3    4      3.12      0.00 
  -15    3    4     -0.19      0.00 
  -14    3    4     -2.86      0.00 
  -13    3    4     -1.96      0.00 
  -12    3    4      1.23      0.00 
  -11    3    4      1.90      0.00 
  -10    3    4     -2.33      0.00 
   -9    3    4     -8.32      0.00 
   -8    3    4     -9.78      0.00 
   -7    3    4     -1.98      0.00 
   -6    3    4     13.03      0.00 
   -5    3    4     24.49      0.00 
   -4    3    4     21.59      0.00 
   -3    3    4      7.20      0.00 
   -2    3    4     -3.24      0.00 
   -1    3    4     -0.24      0.00 
    0    3    4      8.07      0.00 
    1    3    4      7.13      0.00 
    2    3    4     -6.67      0.00 
    3    3    4    -23.84      0.00 
    4    3    4    -32.35      0.00 
    5    3    4    -27.19      0.00 
    6    3    4    -13.37      0.00 
    7    3    4     -1.79      0.00 
    8    3    4      0.71      0.00 
    9    3    4     -2.56      0.00 
   10    3    4     -3.53      0.00 
   11    3    4      0.81      0.00 
   12    3    4      6.86      0.00 
   13    3    4     10.09      0.00 
   14    3    4      9.27      0.00 
   15    3    4      6.25      0.00 
   16    3    4      3.68      0.00 
   17    3    4      2.52      0.00 
   18    3    4      1.44      0.00 
   19    3    4     -0.45      0.00 
   20    3    4     -1.78      0.00 
   21    3    4     -1.34      0.00 
   22    3    4     -0.32      0.00 
  -22    4    4      0.54      0.00 
  -21    4    4      1.31      0.00 
  -20    4    4      2.09      0.00 
  -19    4    4      1.77      0.00 
  -18    4    4      0.59      0.00 
  -17    4    4     -0.49      0.00 
  -16    4    4     -0.94      0.00 
  -15    4    4     -0.21      0.00 
  -14    4    4      1.69      0.00 
  -13    4    4      2.55      0.00 
  -12    4    4     -0.53      0.00 
  -11    4    4     -7.05      0.00 
  -10    4    4    -12.53      0.00 
   -9    4    4    -12.74      0.00 
   -8    4    4     -7.41      0.00 
   -7    4    4     -0.99      0.00 
   -6    4    4     -0.29      0.00 
   -5    4    4     -8.31      0.00 
   -4    4    4    -18.95      0.00 
   -3    4    4    -21.83      0.00 
   -2    4    4    -14.29      0.00 
   -1    4    4     -4.25      0.00 
    0    4    4      0.35      0.00 
    1    4    4      0.09      0.00 
    2    4    4      0.63      0.00 
    3    4    4      5.34      0.00 
    4    4    4     13.13      0.00 
    5    4    4     19.61      0.00 
    6    4    4     19.76      0.00 
    7    4    4     12.68      0.00 
    8    4    4      3.83      0.00 
    9    4    4     -0.26      0.00 
   10    4    4      1.24      0.00 
   11    4    4      3.96      0.00 
   12    4    4      3.93      0.00 
   13    4    4      0.77      0.00 
   14    4    4     -3.35      0.00 
   15    4    4     -5.94      0.00 
   16    4    4     -6.11      0.00 
   17    4    4     -4.99      0.00 
   18    4    4     -3.77      0.00 
   19    4    4     -2.42      0.00 
   20    4    4     -0.75      0.00 
   21    4    4      0.44      0.00 
  -21    5    4      1.51      0.00 
  -20    5    4      0.71      0.00 
  -19    5    4     -0.64      0.00 
  -18    5    4     -1.18      0.00 
  -17    5    4     -0.99      0.00 
  -16    5    4     -0.92      0.00 
  -15    5    4     -1.58      0.00 
  -14    5    4     -3.84      0.00 
  -13    5    4     -8.19      0.00 
  -12    5    4    -12.76      0.00 
  -11    5    4    -14.19      0.00 
  -10    5    4    -11.15      0.00 
   -9    5    4     -5.45      0.00 
   -8    5    4     -0.11      0.00 
   -7    5    4      2.55      0.00 
   -6    5    4      2.73      0.00 
   -5    5    4      4.32      0.00 
   -4    5    4     11.43      0.00 
   -3    5    4     22.20      0.00 
   -2    5    4     29.53      0.00 
   -1    5    4     29.20      0.00 
    0    5    4     23.76      0.00 
    1    5    4     17.44      0.00 
    2    5    4     11.56      0.00 
    3    5    4      5.68      0.00 
    4    5    4     -0.46      0.00 
    5    5    4     -7.27      0.00 
    6    5    4    -14.09      0.00 
    7    5    4    -17.91      0.00 
    8    5    4    -16.02      0.00 
    9    5    4     -9.87      0.00 
   10    5    4     -4.02      0.00 
   11    5    4     -1.49      0.00 
   12    5    4     -1.82      0.00 
   13    5    4     -2.82      0.00 
   14    5    4     -2.82      0.00 
   15    5    4     -1.54      0.00 
   16    5    4      0.19      0.00 
   17    5    4      1.41      0.00 
   18    5    4      1.80      0.00 
   19    5    4      1.60      0.00 
   20    5    4      1.17      0.00 
   21    5    4      0.79      0.00 
  -21    6    4     -1.43      0.00 
  -20    6    4     -1.97      0.00 
  -19    6    4     -1.40      0.00 
  -18    6    4     -0.65      0.00 
  -17    6    4     -0.98      0.00 
  -16    6    4     -2.45      0.00 
  -15    6    4     -4.27      0.00 
  -14    6    4     -5.39      0.00 
  -13    6    4     -4.41      0.00 
  -12    6    4     -0.77      0.00 
  -11    6    4      4.03      0.00 
  -10    6    4      7.91      0.00 
   -9    6    4     10.49      0.00 
   -8    6    4     12.33      0.00 
   -7    6    4     13.40      0.00 
   -6    6    4     13.84      0.00 
   -5    6    4     14.19      0.00 
   -4    6    4     13.49      0.00 
   -3    6    4      9.67      0.00 
   -2    6    4      2.83      0.00 
   -1    6    4     -4.27      0.00 
    0    6    4     -9.76      0.00 
    1    6    4    -13.68      0.00 
    2    6    4    -15.80      0.00 
    3    6    4    -15.39      0.00 
    4    6    4    -13.35      0.00 
    5    6    4    -11.22      0.00 
    6    6    4     -8.70      0.00 
    7    6    4     -4.49      0.00 
    8    6    4      0.69      0.00 
    9    6    4      4.37      0.00 
   10    6    4      5.29      0.00 
   11    6    4      4.33      0.00 
   12    6    4      2.99      0.00 
   13    6    4      2.10      0.00 
   14    6    4      1.86      0.00 
   15    6    4      2.06      0.00 
   16    6    4      2.22      0.00 
   17    6    4      1.78      0.00 
   18    6    4      0.70      0.00 
   19    6    4     -0.33      0.00 
   20    6    4     -0.53      0.00 
   21    6    4     -0.04      0.00 
  -21    7    4      0.69      0.00 
  -20    7    4      1.77      0.00 
  -19    7    4      2.23      0.00 
  -18    7    4      1.26      0.00 
  -17    7    4     -0.69      0.00 
  -16    7    4     -2.10      0.00 
  -15    7    4     -1.71      0.00 
  -14    7    4      0.35      0.00 
  -13    7    4      2.21      0.00 
  -12    7    4      1.85      0.00 
  -11    7    4     -0.34      0.00 
  -10    7    4     -1.63      0.00 
   -9    7    4     -0.55      0.00 
   -8    7    4      1.08      0.00 
   -7    7    4      0.81      0.00 
   -6    7    4     -1.33      0.00 
   -5    7    4     -3.39      0.00 
   -4    7    4     -3.65      0.00 
   -3    7    4     -1.86      0.00 
   -2    7    4      0.39      0.00 
   -1    7    4      0.79      0.00 
    0    7    4     -0.82      0.00 
    1    7    4     -1.76      0.00 
    2    7    4     -0.36      0.00 
    3    7    4      1.30      0.00 
    4    7    4      0.52      0.00 
    5    7    4     -1.89      0.00 
    6    7    4     -3.02      0.00 
    7    7    4     -1.70      0.00 
    8    7    4      0.83      0.00 
    9    7    4      2.91      0.00 
   10    7    4      3.58      0.00 
   11    7    4      2.81      0.00 
   12    7    4      1.52      0.00 
   13    7    4      0.90      0.00 
   14    7    4      1.20      0.00 
   15    7    4      1.59      0.00 
   16    7    4      1.23      0.00 
   17    7    4      0.15      0.00 
   18    7    4     -0.72      0.00 
   19    7    4     -0.57      0.00 
   20    7    4      0.37      0.00 
  -20    8    4     -0.30      0.00 
  -19    8    4     -1.97      0.00 
  -18    8    4     -4.27      0.00 
  -17    8    4     -5.46      0.00 
  -16    8    4     -4.46      0.00 
  -15    8    4     -2.48      0.00 
  -14    8    4     -2.06      0.00 
  -13    8    4     -3.75      0.00 
  -12    8    4     -4.66      0.00 
  -11    8    4     -1.52      0.00 
  -10    8    4      4.91      0.00 
   -9    8    4     10.11      0.00 
   -8    8    4     10.76      0.00 
   -7    8    4      8.21      0.00 
   -6    8    4      6.60      0.00 
   -5    8    4      8.35      0.00 
   -4    8    4     11.56      0.00 
   -3    8    4     11.43      0.00 
   -2    8    4      5.42      0.00 
   -1    8    4     -3.03      0.00 
    0    8    4     -7.74      0.00 
    1    8    4     -7.08      0.00 
    2    8    4     -5.49      0.00 
    3    8    4     -6.82      0.00 
    4    8    4     -9.34      0.00 
    5    8    4     -8.82      0.00 
    6    8    4     -4.00      0.00 
    7    8    4      2.58      0.00 
    8    8    4      7.17      0.00 
    9    8    4      7.46      0.00 
   10    8    4      4.22      0.00 
   11    8    4      0.83      0.00 
   12    8    4      0.02      0.00 
   13    8    4      1.10      0.00 
   14    8    4      1.53      0.00 
   15    8    4      0.28      0.00 
   16    8    4     -1.55      0.00 
   17    8    4     -2.59      0.00 
   18    8    4     -2.42      0.00 
   19    8    4     -1.49      0.00 
   20    8    4     -0.54      0.00 
  -20    9    4     -1.62      0.00 
  -19    9    4     -2.97      0.00 
  -18    9    4     -2.45      0.00 
  -17    9    4      0.20      0.00 
  -16    9    4      2.72      0.00 
  -15    9    4      2.78      0.00 
  -14    9    4      1.36      0.00 
  -13    9    4      2.00      0.00 
  -12    9    4      6.26      0.00 
  -11    9    4     10.98      0.00 
  -10    9    4     11.33      0.00 
   -9    9    4      6.16      0.00 
   -8    9    4     -0.62      0.00 
   -7    9    4     -3.93      0.00 
   -6    9    4     -2.57      0.00 
   -5    9    4     -0.66      0.00 
   -4    9    4     -3.47      0.00 
   -3    9    4    -11.04      0.00 
   -2    9    4    -17.12      0.00 
   -1    9    4    -15.81      0.00 
    0    9    4     -8.76      0.00 
    1    9    4     -3.15      0.00 
    2    9    4     -2.92      0.00 
    3    9    4     -4.80      0.00 
    4    9    4     -3.37      0.00 
    5    9    4      2.37      0.00 
    6    9    4      8.54      0.00 
    7    9    4     10.51      0.00 
    8    9    4      7.06      0.00 
    9    9    4      1.60      0.00 
   10    9    4     -0.88      0.00 
   11    9    4      1.17      0.00 
   12    9    4      4.27      0.00 
   13    9    4      4.43      0.00 
   14    9    4      1.79      0.00 
   15    9    4     -0.57      0.00 
   16    9    4     -0.96      0.00 
   17    9    4     -0.22      0.00 
   18    9    4      0.45      0.00 
   19    9    4      0.81      0.00 
   20    9    4      0.90      0.00 
  -19   10    4      1.04      0.00 
  -18   10    4      2.53      0.00 
  -17   10    4      1.96      0.00 
  -16   10    4     -1.23      0.00 
  -15   10    4     -4.38      0.00 
  -14   10    4     -4.38      0.00 
  -13   10    4     -1.66      0.00 
  -12   10    4      0.01      0.00 
  -11   10    4     -2.24      0.00 
  -10   10    4     -7.00      0.00 
   -9   10    4     -9.75      0.00 
   -8   10    4     -7.22      0.00 
   -7   10    4     -1.05      0.00 
   -6   10    4      3.06      0.00 
   -5   10    4      1.10      0.00 
   -4   10    4     -4.31      0.00 
   -3   10    4     -6.27      0.00 
   -2   10    4     -1.73      0.00 
   -1   10    4      4.74      0.00 
    0   10    4      6.44      0.00 
    1   10    4      2.36      0.00 
    2   10    4     -2.09      0.00 
    3   10    4     -1.44      0.00 
    4   10    4      4.15      0.00 
    5   10    4      9.43      0.00 
    6   10    4      9.52      0.00 
    7   10    4      4.71      0.00 
    8   10    4      0.13      0.00 
    9   10    4      0.11      0.00 
   10   10    4      3.48      0.00 
   11   10    4      5.09      0.00 
   12   10    4      2.16      0.00 
   13   10    4     -2.62      0.00 
   14   10    4     -4.91      0.00 
   15   10    4     -3.78      0.00 
   16   10    4     -1.69      0.00 
   17   10    4     -0.53      0.00 
   18   10    4     -0.10      0.00 
   19   10    4      0.25      0.00 
  -18   11    4     -2.28      0.00 
  -17   11    4     -4.91      0.00 
  -16   11    4     -5.39      0.00 
  -15   11    4     -2.55      0.00 
  -14   11    4      1.47      0.00 
  -13   11    4      3.30      0.00 
  -12   11    4      2.11      0.00 
  -11   11    4      0.31      0.00 
  -10   11    4      0.91      0.00 
   -9   11    4      4.44      0.00 
   -8   11    4      8.04      0.00 
   -7   11    4      7.52      0.00 
   -6   11    4      1.98      0.00 
   -5   11    4     -4.00      0.00 
   -4   11    4     -4.81      0.00 
   -3   11    4     -0.63      0.00 
   -2   11    4      2.69      0.00 
   -1   11    4      0.97      0.00 
    0   11    4     -3.60      0.00 
    1   11    4     -5.42      0.00 
    2   11    4     -1.56      0.00 
    3   11    4      5.55      0.00 
    4   11    4     10.12      0.00 
    5   11    4      8.27      0.00 
    6   11    4      2.07      0.00 
    7   11    4     -2.33      0.00 
    8   11    4     -1.54      0.00 
    9   11    4      1.41      0.00 
   10   11    4      1.35      0.00 
   11   11    4     -2.51      0.00 
   12   11    4     -6.04      0.00 
   13   11    4     -5.65      0.00 
   14   11    4     -2.25      0.00 
   15   11    4      0.75      0.00 
   16   11    4      1.59      0.00 
   17   11    4      1.12      0.00 
   18   11    4      0.62      0.00 
  -18   12    4      0.01      0.00 
  -17   12    4      1.20      0.00 
  -16   12    4      3.40      0.00 
  -15   12    4      4.65      0.00 
  -14   12    4      3.22      0.00 
  -13   12    4      0.07      0.00 
  -12   12    4     -1.92      0.00 
  -11   12    4     -1.32      0.00 
  -10   12    4      0.53      0.00 
   -9   12    4      1.04      0.00 
   -8   12    4     -1.28      0.00 
   -7   12    4     -5.19      0.00 
   -6   12    4     -6.89      0.00 
   -5   12    4     -3.87      0.00 
   -4   12    4      1.29      0.00 
   -3   12    4      3.28      0.00 
   -2   12    4      0.61      0.00 
   -1   12    4     -2.65      0.00 
    0   12    4     -2.12      0.00 
    1   12    4      2.36      0.00 
    2   12    4      7.18      0.00 
    3   12    4      8.18      0.00 
    4   12    4      3.97      0.00 
    5   12    4     -2.07      0.00 
    6   12    4     -4.34      0.00 
    7   12    4     -1.27      0.00 
    8   12    4      2.55      0.00 
    9   12    4      2.13      0.00 
   10   12    4     -1.83      0.00 
   11   12    4     -4.61      0.00 
   12   12    4     -3.62      0.00 
   13   12    4     -0.71      0.00 
   14   12    4      1.06      0.00 
   15   12    4      0.86      0.00 
   16   12    4     -0.05      0.00 
   17   12    4     -0.42      0.00 
  -17   13    4     -0.70      0.00 
  -16   13    4     -1.42      0.00 
  -15   13    4     -3.26      0.00 
  -14   13    4     -4.86      0.00 
  -13   13    4     -3.84      0.00 
  -12   13    4     -0.28      0.00 
  -11   13    4      2.92      0.00 
  -10   13    4      3.45      0.00 
   -9   13    4      1.85      0.00 
   -8   13    4      0.40      0.00 
   -7   13    4      1.05      0.00 
   -6   13    4      3.80      0.00 
   -5   13    4      5.82      0.00 
   -4   13    4      3.99      0.00 
   -3   13    4     -0.79      0.00 
   -2   13    4     -3.90      0.00 
   -1   13    4     -2.45      0.00 
    0   13    4      1.69      0.00 
    1   13    4      4.52      0.00 
    2   13    4      3.78      0.00 
    3   13    4      0.20      0.00 
    4   13    4     -2.92      0.00 
    5   13    4     -2.22      0.00 
    6   13    4      1.73      0.00 
    7   13    4      4.19      0.00 
    8   13    4      1.86      0.00 
    9   13    4     -2.87      0.00 
   10   13    4     -5.29      0.00 
   11   13    4     -4.06      0.00 
   12   13    4     -1.67      0.00 
   13   13    4     -0.57      0.00 
   14   13    4     -0.94      0.00 
   15   13    4     -1.58      0.00 
   16   13    4     -1.51      0.00 
  -16   14    4      0.56      0.00 
  -15   14    4      0.64      0.00 
  -14   14    4      2.54      0.00 
  -13   14    4      5.44      0.00 
  -12   14    4      6.29      0.00 
  -11   14    4      3.96      0.00 
  -10   14    4      0.79      0.00 
   -9   14    4     -0.54      0.00 
   -8   14    4      0.26      0.00 
   -7   14    4      1.60      0.00 
   -6   14    4      1.45      0.00 
   -5   14    4     -1.10      0.00 
   -4   14    4     -4.16      0.00 
   -3   14    4     -4.26      0.00 
   -2   14    4     -0.59      0.00 
   -1   14    4      3.52      0.00 
    0   14    4      4.43      0.00 
    1   14    4      1.95      0.00 
    2   14    4     -1.23      0.00 
    3   14    4     -2.32      0.00 
    4   14    4     -0.60      0.00 
    5   14    4      1.73      0.00 
    6   14    4      1.30      0.00 
    7   14    4     -2.35      0.00 
    8   14    4     -5.84      0.00 
    9   14    4     -6.06      0.00 
   10   14    4     -3.54      0.00 
   11   14    4     -0.80      0.00 
   12   14    4      0.64      0.00 
   13   14    4      0.78      0.00 
   14   14    4      0.28      0.00 
   15   14    4      0.06      0.00 
  -14   15    4      1.83      0.00 
  -13   15    4      0.92      0.00 
  -12   15    4     -1.49      0.00 
  -11   15    4     -2.69      0.00 
  -10   15    4     -1.32      0.00 
   -9   15    4      0.96      0.00 
   -8   15    4      1.91      0.00 
   -7   15    4      0.88      0.00 
   -6   15    4     -1.28      0.00 
   -5   15    4     -2.71      0.00 
   -4   15    4     -1.65      0.00 
   -3   15    4      1.32      0.00 
   -2   15    4      3.11      0.00 
   -1   15    4      1.70      0.00 
    0   15    4     -1.38      0.00 
    1   15    4     -2.99      0.00 
    2   15    4     -1.93      0.00 
    3   15    4      0.20      0.00 
    4   15    4      0.71      0.00 
    5   15    4     -1.48      0.00 
    6   15    4     -4.37      0.00 
    7   15    4     -5.02      0.00 
    8   15    4     -3.01      0.00 
    9   15    4     -0.48      0.00 
   10   15    4      1.06      0.00 
   11   15    4      1.63      0.00 
   12   15    4      1.16      0.00 
   13   15    4     -0.41      0.00 
   14   15    4     -1.76      0.00 
  -13   16    4      0.33      0.00 
  -12   16    4      1.47      0.00 
  -11   16    4      3.51      0.00 
  -10   16    4      4.09      0.00 
   -9   16    4      2.22      0.00 
   -8   16    4     -0.65      0.00 
   -7   16    4     -2.66      0.00 
   -6   16    4     -2.98      0.00 
   -5   16    4     -1.66      0.00 
   -4   16    4      0.22      0.00 
   -3   16    4      0.90      0.00 
   -2   16    4     -0.18      0.00 
   -1   16    4     -1.32      0.00 
    0   16    4     -0.62      0.00 
    1   16    4      1.64      0.00 
    2   16    4      3.35      0.00 
    3   16    4      2.88      0.00 
    4   16    4      0.74      0.00 
    5   16    4     -0.81      0.00 
    6   16    4     -0.36      0.00 
    7   16    4      0.90      0.00 
    8   16    4      1.12      0.00 
    9   16    4      0.68      0.00 
   10   16    4      0.87      0.00 
   11   16    4      1.09      0.00 
   12   16    4      0.03      0.00 
   13   16    4     -1.27      0.00 
  -11   17    4     -0.63      0.00 
  -10   17    4     -3.10      0.00 
   -9   17    4     -4.45      0.00 
   -8   17    4     -3.54      0.00 
   -7   17    4     -1.39      0.00 
   -6   17    4      0.55      0.00 
   -5   17    4      1.67      0.00 
   -4   17    4      1.85      0.00 
   -3   17    4      1.41      0.00 
   -2   17    4      1.27      0.00 
   -1   17    4      1.94      0.00 
    0   17    4      2.72      0.00 
    1   17    4      2.51      0.00 
    2   17    4      1.08      0.00 
    3   17    4     -0.84      0.00 
    4   17    4     -2.18      0.00 
    5   17    4     -2.42      0.00 
    6   17    4     -2.20      0.00 
    7   17    4     -2.19      0.00 
    8   17    4     -1.63      0.00 
    9   17    4      0.28      0.00 
   10   17    4      2.13      0.00 
   11   17    4      1.95      0.00 
   -9   18    4     -0.40      0.00 
   -8   18    4      1.09      0.00 
   -7   18    4      1.25      0.00 
   -6   18    4      0.47      0.00 
   -5   18    4     -0.19      0.00 
   -4   18    4     -0.29      0.00 
   -3   18    4      0.06      0.00 
   -2   18    4      0.48      0.00 
   -1   18    4      0.48      0.00 
    0   18    4      0.09      0.00 
    1   18    4     -0.19      0.00 
    2   18    4     -0.30      0.00 
    3   18    4     -0.60      0.00 
    4   18    4     -0.95      0.00 
    5   18    4     -0.86      0.00 
    6   18    4     -0.27      0.00 
    7   18    4      0.68      0.00 
    8   18    4      1.92      0.00 
    9   18    4      2.61      0.00 
   -7   19    4     -0.20      0.00 
   -6   19    4      0.01      0.00 
   -5   19    4      1.00      0.00 
   -4   19    4      1.99      0.00 
   -3   19    4      2.26      0.00 
   -2   19    4      1.68      0.00 
   -1   19    4      0.86      0.00 
    0   19    4      0.54      0.00 
    1   19    4      0.36      0.00 
    2   19    4     -0.55      0.00 
    3   19    4     -1.77      0.00 
    4   19    4     -1.93      0.00 
    5   19    4     -0.82      0.00 
    6   19    4      0.37      0.00 
  -22    1    5     -0.38      0.00 
  -21    1    5     -1.49      0.00 
  -20    1    5     -2.48      0.00 
  -19    1    5     -2.13      0.00 
  -18    1    5     -0.52      0.00 
  -17    1    5      0.94      0.00 
  -16    1    5      1.34      0.00 
  -15    1    5      1.60      0.00 
  -14    1    5      3.19      0.00 
  -13    1    5      5.88      0.00 
  -12    1    5      7.46      0.00 
  -11    1    5      6.26      0.00 
  -10    1    5      3.02      0.00 
   -9    1    5     -0.14      0.00 
   -8    1    5     -1.88      0.00 
   -7    1    5     -2.61      0.00 
   -6    1    5     -3.87      0.00 
   -5    1    5     -5.88      0.00 
   -4    1    5     -4.82      0.00 
   -3    1    5      4.80      0.00 
   -2    1    5     21.91      0.00 
   -1    1    5     35.30      0.00 
    0    1    5     33.47      0.00 
    1    1    5     17.89      0.00 
    2    1    5      1.86      0.00 
    3    1    5     -4.07      0.00 
    4    1    5     -1.49      0.00 
    5    1    5      1.14      0.00 
    6    1    5     -1.42      0.00 
    7    1    5     -7.64      0.00 
    8    1    5    -12.60      0.00 
    9    1    5    -12.97      0.00 
   10    1    5     -9.43      0.00 
   11    1    5     -5.26      0.00 
   12    1    5     -2.62      0.00 
   13    1    5     -0.98      0.00 
   14    1    5      1.00      0.00 
   15    1    5      3.34      0.00 
   16    1    5      5.07      0.00 
   17    1    5      5.43      0.00 
   18    1    5      4.32      0.00 
   19    1    5      2.37      0.00 
   20    1    5      0.80      0.00 
   21    1    5      0.38      0.00 
   22    1    5      0.62      0.00 
  -22    2    5      0.46      0.00 
  -21    2    5      0.59      0.00 
  -20    2    5      2.36      0.00 
  -19    2    5      4.61      0.00 
  -18    2    5      5.22      0.00 
  -17    2    5      4.12      0.00 
  -16    2    5      3.57      0.00 
  -15    2    5      5.19      0.00 
  -14    2    5      7.37      0.00 
  -13    2    5      6.68      0.00 
  -12    2    5      2.12      0.00 
  -11    2    5     -3.18      0.00 
  -10    2    5     -5.33      0.00 
   -9    2    5     -3.99      0.00 
   -8    2    5     -2.33      0.00 
   -7    2    5     -3.44      0.00 
   -6    2    5     -6.77      0.00 
   -5    2    5     -7.32      0.00 
   -4    2    5     -0.34      0.00 
   -3    2    5     10.22      0.00 
   -2    2    5     11.27      0.00 
   -1    2    5     -5.18      0.00 
    0    2    5    -28.74      0.00 
    1    2    5    -38.89      0.00 
    2    2    5    -27.63      0.00 
    3    2    5     -7.61      0.00 
    4    2    5      3.53      0.00 
    5    2    5      1.08      0.00 
    6    2    5     -6.18      0.00 
    7    2    5     -7.95      0.00 
    8    2    5     -1.78      0.00 
    9    2    5      7.02      0.00 
   10    2    5     11.91      0.00 
   11    2    5     11.29      0.00 
   12    2    5      8.67      0.00 
   13    2    5      7.45      0.00 
   14    2    5      7.41      0.00 
   15    2    5      6.41      0.00 
   16    2    5      3.62      0.00 
   17    2    5      0.21      0.00 
   18    2    5     -2.21      0.00 
   19    2    5     -2.84      0.00 
   20    2    5     -2.06      0.00 
   21    2    5     -1.05      0.00 
   22    2    5     -0.64      0.00 
  -22    3    5     -0.56      0.00 
  -21    3    5      0.36      0.00 
  -20    3    5      0.87      0.00 
  -19    3    5     -0.42      0.00 
  -18    3    5     -2.10      0.00 
  -17    3    5     -1.66      0.00 
  -16    3    5      0.97      0.00 
  -15    3    5      2.76      0.00 
  -14    3    5      0.65      0.00 
  -13    3    5     -4.72      0.00 
  -12    3    5     -9.10      0.00 
  -11    3    5     -9.32      0.00 
  -10    3    5     -7.45      0.00 
   -9    3    5     -8.33      0.00 
   -8    3    5    -13.38      0.00 
   -7    3    5    -18.38      0.00 
   -6    3    5    -17.36      0.00 
   -5    3    5     -8.73      0.00 
   -4    3    5      1.22      0.00 
   -3    3    5      2.49      0.00 
   -2    3    5     -6.96      0.00 
   -1    3    5    -14.74      0.00 
    0    3    5     -5.59      0.00 
    1    3    5     19.17      0.00 
    2    3    5     40.17      0.00 
    3    3    5     40.63      0.00 
    4    3    5     23.69      0.00 
    5    3    5      6.26      0.00 
    6    3    5      0.29      0.00 
    7    3    5      3.74      0.00 
    8    3    5      7.10      0.00 
    9    3    5      4.32      0.00 
   10    3    5     -2.62      0.00 
   11    3    5     -7.77      0.00 
   12    3    5     -8.07      0.00 
   13    3    5     -5.82      0.00 
   14    3    5     -4.89      0.00 
   15    3    5     -6.03      0.00 
   16    3    5     -6.84      0.00 
   17    3    5     -5.45      0.00 
   18    3    5     -2.71      0.00 
   19    3    5     -0.67      0.00 
   20    3    5     -0.06      0.00 
   21    3    5     -0.11      0.00 
   22    3    5     -0.05      0.00 
  -22    4    5      0.81      0.00 
  -21    4    5      1.21      0.00 
  -20    4    5      0.20      0.00 
  -19    4    5     -0.47      0.00 
  -18    4    5      0.63      0.00 
  -17    4    5      2.22      0.00 
  -16    4    5      1.66      0.00 
  -15    4    5     -1.95      0.00 
  -14    4    5     -6.34      0.00 
  -13    4    5     -7.73      0.00 
  -12    4    5     -5.18      0.00 
  -11    4    5     -2.80      0.00 
  -10    4    5     -5.09      0.00 
   -9    4    5    -10.16      0.00 
   -8    4    5    -10.60      0.00 
   -7    4    5     -1.83      0.00 
   -6    4    5     12.29      0.00 
   -5    4    5     22.45      0.00 
   -4    4    5     21.95      0.00 
   -3    4    5     13.56      0.00 
   -2    4    5      8.67      0.00 
   -1    4    5     15.82      0.00 
    0    4    5     28.67      0.00 
    1    4    5     30.34      0.00 
    2    4    5     12.67      0.00 
    3    4    5    -12.87      0.00 
    4    4    5    -27.39      0.00 
    5    4    5    -24.40      0.00 
    6    4    5    -13.49      0.00 
    7    4    5     -7.15      0.00 
    8    4    5     -8.72      0.00 
    9    4    5    -12.48      0.00 
   10    4    5    -11.83      0.00 
   11    4    5     -5.66      0.00 
   12    4    5      1.53      0.00 
   13    4    5      4.86      0.00 
   14    4    5      3.98      0.00 
   15    4    5      2.49      0.00 
   16    4    5      2.83      0.00 
   17    4    5      3.72      0.00 
   18    4    5      3.05      0.00 
   19    4    5      1.30      0.00 
   20    4    5      0.36      0.00 
   21    4    5      0.60      0.00 
  -21    5    5     -0.06      0.00 
  -20    5    5      0.06      0.00 
  -19    5    5      1.22      0.00 
  -18    5    5      1.73      0.00 
  -17    5    5      0.20      0.00 
  -16    5    5     -2.69      0.00 
  -15    5    5     -4.39      0.00 
  -14    5    5     -2.72      0.00 
  -13    5    5      1.10      0.00 
  -12    5    5      2.11      0.00 
  -11    5    5     -2.53      0.00 
  -10    5    5     -8.08      0.00 
   -9    5    5     -6.41      0.00 
   -8    5    5      3.69      0.00 
   -7    5    5     13.88      0.00 
   -6    5    5     14.71      0.00 
   -5    5    5      4.92      0.00 
   -4    5    5     -7.18      0.00 
   -3    5    5    -10.67      0.00 
   -2    5    5     -2.44      0.00 
   -1    5    5      7.90      0.00 
    0    5    5      6.91      0.00 
    1    5    5     -6.76      0.00 
    2    5    5    -19.09      0.00 
    3    5    5    -16.62      0.00 
    4    5    5     -1.88      0.00 
    5    5    5     10.62      0.00 
    6    5    5     11.06      0.00 
    7    5    5      2.73      0.00 
    8    5    5     -4.43      0.00 
    9    5    5     -4.12      0.00 
   10    5    5      2.03      0.00 
   11    5    5      7.47      0.00 
   12    5    5      7.21      0.00 
   13    5    5      2.33      0.00 
   14    5    5     -1.94      0.00 
   15    5    5     -2.58      0.00 
   16    5    5     -1.45      0.00 
   17    5    5     -1.17      0.00 
   18    5    5     -1.42      0.00 
   19    5    5     -0.80      0.00 
   20    5    5      0.29      0.00 
   21    5    5      0.69      0.00 
  -21    6    5      0.10      0.00 
  -20    6    5      0.83      0.00 
  -19    6    5      0.50      0.00 
  -18    6    5     -1.20      0.00 
  -17    6    5     -3.07      0.00 
  -16    6    5     -3.35      0.00 
  -15    6    5     -1.36      0.00 
  -14    6    5      0.68      0.00 
  -13    6    5     -1.25      0.00 
  -12    6    5     -7.48      0.00 
  -11    6    5    -11.61      0.00 
  -10    6    5     -7.16      0.00 
   -9    6    5      3.31      0.00 
   -8    6    5      9.98      0.00 
   -7    6    5      6.80      0.00 
   -6    6    5     -1.89      0.00 
   -5    6    5     -5.78      0.00 
   -4    6    5      1.79      0.00 
   -3    6    5     16.92      0.00 
   -2    6    5     26.92      0.00 
   -1    6    5     22.12      0.00 
    0    6    5      7.15      0.00 
    1    6    5     -3.00      0.00 
    2    6    5     -0.07      0.00 
    3    6    5      8.17      0.00 
    4    6    5      8.32      0.00 
    5    6    5     -2.78      0.00 
    6    6    5    -15.93      0.00 
    7    6    5    -20.66      0.00 
    8    6    5    -14.69      0.00 
    9    6    5     -4.08      0.00 
   10    6    5      2.81      0.00 
   11    6    5      2.22      0.00 
   12    6    5     -2.28      0.00 
   13    6    5     -4.29      0.00 
   14    6    5     -1.92      0.00 
   15    6    5      1.26      0.00 
   16    6    5      2.26      0.00 
   17    6    5      1.95      0.00 
   18    6    5      1.87      0.00 
   19    6    5      1.65      0.00 
   20    6    5      0.89      0.00 
   21    6    5      0.39      0.00 
  -21    7    5     -0.18      0.00 
  -20    7    5     -0.63      0.00 
  -19    7    5     -1.73      0.00 
  -18    7    5     -2.48      0.00 
  -17    7    5     -2.09      0.00 
  -16    7    5     -0.84      0.00 
  -15    7    5     -0.45      0.00 
  -14    7    5     -2.72      0.00 
  -13    7    5     -5.90      0.00 
  -12    7    5     -4.44      0.00 
  -11    7    5      4.29      0.00 
  -10    7    5     14.49      0.00 
   -9    7    5     17.46      0.00 
   -8    7    5     11.76      0.00 
   -7    7    5      4.88      0.00 
   -6    7    5      4.97      0.00 
   -5    7    5     12.77      0.00 
   -4    7    5     20.57      0.00 
   -3    7    5     18.42      0.00 
   -2    7    5      3.88      0.00 
   -1    7    5    -13.51      0.00 
    0    7    5    -20.64      0.00 
    1    7    5    -15.06      0.00 
    2    7    5     -7.58      0.00 
    3    7    5     -8.99      0.00 
    4    7    5    -17.60      0.00 
    5    7    5    -22.60      0.00 
    6    7    5    -16.83      0.00 
    7    7    5     -3.37      0.00 
    8    7    5      8.67      0.00 
    9    7    5     12.35      0.00 
   10    7    5      8.03      0.00 
   11    7    5      2.39      0.00 
   12    7    5      1.56      0.00 
   13    7    5      4.80      0.00 
   14    7    5      6.77      0.00 
   15    7    5      5.15      0.00 
   16    7    5      2.41      0.00 
   17    7    5      0.62      0.00 
   18    7    5     -0.82      0.00 
   19    7    5     -2.06      0.00 
   20    7    5     -1.83      0.00 
  -20    8    5     -0.39      0.00 
  -19    8    5     -0.18      0.00 
  -18    8    5      0.90      0.00 
  -17    8    5      1.70      0.00 
  -16    8    5      1.13      0.00 
  -15    8    5     -0.69      0.00 
  -14    8    5     -1.60      0.00 
  -13    8    5      1.22      0.00 
  -12    8    5      6.99      0.00 
  -11    8    5     10.02      0.00 
  -10    8    5      5.70      0.00 
   -9    8    5     -3.04      0.00 
   -8    8    5     -8.31      0.00 
   -7    8    5     -6.06      0.00 
   -6    8    5     -0.04      0.00 
   -5    8    5      2.27      0.00 
   -4    8    5     -3.36      0.00 
   -3    8    5    -13.73      0.00 
   -2    8    5    -20.07      0.00 
   -1    8    5    -15.99      0.00 
    0    8    5     -4.83      0.00 
    1    8    5      2.82      0.00 
    2    8    5      0.52      0.00 
    3    8    5     -6.78      0.00 
    4    8    5     -8.77      0.00 
    5    8    5     -1.52      0.00 
    6    8    5      9.01      0.00 
    7    8    5     14.27      0.00 
    8    8    5     11.35      0.00 
    9    8    5      4.49      0.00 
   10    8    5      0.41      0.00 
   11    8    5      1.95      0.00 
   12    8    5      5.49      0.00 
   13    8    5      5.69      0.00 
   14    8    5      2.14      0.00 
   15    8    5     -1.13      0.00 
   16    8    5     -2.04      0.00 
   17    8    5     -2.20      0.00 
   18    8    5     -2.37      0.00 
   19    8    5     -1.36      0.00 
   20    8    5      0.47      0.00 
  -20    9    5      0.74      0.00 
  -19    9    5      1.41      0.00 
  -18    9    5      0.15      0.00 
  -17    9    5     -2.75      0.00 
  -16    9    5     -5.23      0.00 
  -15    9    5     -5.44      0.00 
  -14    9    5     -3.27      0.00 
  -13    9    5     -0.79      0.00 
  -12    9    5     -1.18      0.00 
  -11    9    5     -4.98      0.00 
  -10    9    5     -8.06      0.00 
   -9    9    5     -5.62      0.00 
   -8    9    5      1.78      0.00 
   -7    9    5      8.24      0.00 
   -6    9    5      8.71      0.00 
   -5    9    5      3.82      0.00 
   -4    9    5     -1.27      0.00 
   -3    9    5     -1.74      0.00 
   -2    9    5      2.71      0.00 
   -1    9    5      7.46      0.00 
    0    9    5      6.77      0.00 
    1    9    5     -0.31      0.00 
    2    9    5     -7.78      0.00 
    3    9    5     -8.26      0.00 
    4    9    5     -1.03      0.00 
    5    9    5      7.07      0.00 
    6    9    5      9.33      0.00 
    7    9    5      5.73      0.00 
    8    9    5      1.35      0.00 
    9    9    5      0.34      0.00 
   10    9    5      2.48      0.00 
   11    9    5      4.15      0.00 
   12    9    5      2.46      0.00 
   13    9    5     -1.35      0.00 
   14    9    5     -3.55      0.00 
   15    9    5     -3.00      0.00 
   16    9    5     -1.96      0.00 
   17    9    5     -1.73      0.00 
   18    9    5     -1.09      0.00 
   19    9    5      0.21      0.00 
  -19   10    5     -2.53      0.00 
  -18   10    5     -4.84      0.00 
  -17   10    5     -4.62      0.00 
  -16   10    5     -1.88      0.00 
  -15   10    5      1.24      0.00 
  -14   10    5      2.84      0.00 
  -13   10    5      2.45      0.00 
  -12   10    5      1.40      0.00 
  -11   10    5      2.23      0.00 
  -10   10    5      5.88      0.00 
   -9   10    5      9.57      0.00 
   -8   10    5      9.12      0.00 
   -7   10    5      3.79      0.00 
   -6   10    5     -2.62      0.00 
   -5   10    5     -5.85      0.00 
   -4   10    5     -5.18      0.00 
   -3   10    5     -3.22      0.00 
   -2   10    5     -2.91      0.00 
   -1   10    5     -5.23      0.00 
    0   10    5     -8.54      0.00 
    1   10    5     -9.30      0.00 
    2   10    5     -4.82      0.00 
    3   10    5      3.27      0.00 
    4   10    5      9.45      0.00 
    5   10    5      9.80      0.00 
    6   10    5      5.90      0.00 
    7   10    5      2.20      0.00 
    8   10    5      1.09      0.00 
    9   10    5      1.79      0.00 
   10   10    5      2.25      0.00 
   11   10    5      1.23      0.00 
   12   10    5     -0.59      0.00 
   13   10    5     -1.29      0.00 
   14   10    5     -0.29      0.00 
   15   10    5      0.71      0.00 
   16   10    5      0.54      0.00 
   17   10    5      0.17      0.00 
   18   10    5      0.37      0.00 
   19   10    5      0.38      0.00 
  -18   11    5      1.18      0.00 
  -17   11    5      2.73      0.00 
  -16   11    5      2.27      0.00 
  -15   11    5     -0.04      0.00 
  -14   11    5     -2.47      0.00 
  -13   11    5     -3.49      0.00 
  -12   11    5     -2.56      0.00 
  -11   11    5     -0.82      0.00 
  -10   11    5     -0.72      0.00 
   -9   11    5     -3.47      0.00 
   -8   11    5     -6.89      0.00 
   -7   11    5     -7.56      0.00 
   -6   11    5     -4.70      0.00 
   -5   11    5     -0.85      0.00 
   -4   11    5      1.19      0.00 
   -3   11    5      0.99      0.00 
   -2   11    5     -0.03      0.00 
   -1   11    5     -0.34      0.00 
    0   11    5      0.91      0.00 
    1   11    5      3.77      0.00 
    2   11    5      6.94      0.00 
    3   11    5      8.10      0.00 
    4   11    5      6.08      0.00 
    5   11    5      2.47      0.00 
    6   11    5     -0.10      0.00 
    7   11    5     -0.48      0.00 
    8   11    5      0.68      0.00 
    9   11    5      1.95      0.00 
   10   11    5      1.83      0.00 
   11   11    5     -0.08      0.00 
   12   11    5     -2.26      0.00 
   13   11    5     -2.98      0.00 
   14   11    5     -2.51      0.00 
   15   11    5     -2.06      0.00 
   16   11    5     -1.68      0.00 
   17   11    5     -0.83      0.00 
   18   11    5      0.09      0.00 
  -18   12    5     -0.84      0.00 
  -17   12    5     -3.20      0.00 
  -16   12    5     -5.31      0.00 
  -15   12    5     -5.38      0.00 
  -14   12    5     -3.20      0.00 
  -13   12    5      0.12      0.00 
  -12   12    5      2.79      0.00 
  -11   12    5      3.26      0.00 
  -10   12    5      1.97      0.00 
   -9   12    5      1.57      0.00 
   -8   12    5      3.66      0.00 
   -7   12    5      6.49      0.00 
   -6   12    5      7.04      0.00 
   -5   12    5      4.68      0.00 
   -4   12    5      1.42      0.00 
   -3   12    5     -0.82      0.00 
   -2   12    5     -1.60      0.00 
   -1   12    5     -1.38      0.00 
    0   12    5     -0.53      0.00 
    1   12    5      0.58      0.00 
    2   12    5      1.41      0.00 
    3   12    5      1.52      0.00 
    4   12    5      0.93      0.00 
    5   12    5      0.13      0.00 
    6   12    5     -0.21      0.00 
    7   12    5      0.36      0.00 
    8   12    5      1.20      0.00 
    9   12    5      0.58      0.00 
   10   12    5     -2.21      0.00 
   11   12    5     -5.13      0.00 
   12   12    5     -5.42      0.00 
   13   12    5     -3.21      0.00 
   14   12    5     -0.99      0.00 
   15   12    5     -0.06      0.00 
   16   12    5      0.29      0.00 
   17   12    5      0.60      0.00 
  -17   13    5      0.20      0.00 
  -16   13    5      1.96      0.00 
  -15   13    5      4.33      0.00 
  -14   13    5      5.88      0.00 
  -13   13    5      5.64      0.00 
  -12   13    5      3.58      0.00 
  -11   13    5      1.17      0.00 
  -10   13    5      0.46      0.00 
   -9   13    5      1.62      0.00 
   -8   13    5      2.21      0.00 
   -7   13    5      0.34      0.00 
   -6   13    5     -2.73      0.00 
   -5   13    5     -4.32      0.00 
   -4   13    5     -3.68      0.00 
   -3   13    5     -2.12      0.00 
   -2   13    5     -0.84      0.00 
   -1   13    5      0.02      0.00 
    0   13    5      0.79      0.00 
    1   13    5      1.63      0.00 
    2   13    5      2.27      0.00 
    3   13    5      2.03      0.00 
    4   13    5      0.65      0.00 
    5   13    5     -0.87      0.00 
    6   13    5     -0.97      0.00 
    7   13    5      0.18      0.00 
    8   13    5      0.21      0.00 
    9   13    5     -2.19      0.00 
   10   13    5     -4.71      0.00 
   11   13    5     -4.05      0.00 
   12   13    5     -0.68      0.00 
   13   13    5      1.77      0.00 
   14   13    5      1.55      0.00 
   15   13    5      0.41      0.00 
   16   13    5      0.10      0.00 
  -16   14    5      0.51      0.00 
  -15   14    5     -0.19      0.00 
  -14   14    5     -1.73      0.00 
  -13   14    5     -2.94      0.00 
  -12   14    5     -2.50      0.00 
  -11   14    5     -0.16      0.00 
  -10   14    5      2.48      0.00 
   -9   14    5      3.14      0.00 
   -8   14    5      1.43      0.00 
   -7   14    5     -0.43      0.00 
   -6   14    5     -0.33      0.00 
   -5   14    5      1.10      0.00 
   -4   14    5      1.72      0.00 
   -3   14    5      0.78      0.00 
   -2   14    5     -0.57      0.00 
   -1   14    5     -1.02      0.00 
    0   14    5     -0.40      0.00 
    1   14    5      0.44      0.00 
    2   14    5      0.40      0.00 
    3   14    5     -0.81      0.00 
    4   14    5     -1.93      0.00 
    5   14    5     -1.33      0.00 
    6   14    5      0.50      0.00 
    7   14    5      0.81      0.00 
    8   14    5     -1.70      0.00 
    9   14    5     -4.30      0.00 
   10   14    5     -3.44      0.00 
   11   14    5      0.04      0.00 
   12   14    5      1.84      0.00 
   13   14    5      0.24      0.00 
   14   14    5     -2.00      0.00 
   15   14    5     -2.27      0.00 
  -14   15    5      1.10      0.00 
  -13   15    5      3.39      0.00 
  -12   15    5      5.76      0.00 
  -11   15    5      6.18      0.00 
  -10   15    5      3.90      0.00 
   -9   15    5      0.49      0.00 
   -8   15    5     -1.46      0.00 
   -7   15    5     -1.12      0.00 
   -6   15    5     -0.23      0.00 
   -5   15    5     -0.83      0.00 
   -4   15    5     -2.58      0.00 
   -3   15    5     -3.39      0.00 
   -2   15    5     -2.14      0.00 
   -1   15    5      0.13      0.00 
    0   15    5      1.56      0.00 
    1   15    5      1.36      0.00 
    2   15    5      0.38      0.00 
    3   15    5      0.25      0.00 
    4   15    5      1.53      0.00 
    5   15    5      2.67      0.00 
    6   15    5      1.42      0.00 
    7   15    5     -2.09      0.00 
    8   15    5     -4.50      0.00 
    9   15    5     -2.90      0.00 
   10   15    5      1.14      0.00 
   11   15    5      3.20      0.00 
   12   15    5      1.70      0.00 
   13   15    5     -0.56      0.00 
   14   15    5     -0.84      0.00 
  -13   16    5      1.61      0.00 
  -12   16    5      0.02      0.00 
  -11   16    5     -2.56      0.00 
  -10   16    5     -4.21      0.00 
   -9   16    5     -3.56      0.00 
   -8   16    5     -1.45      0.00 
   -7   16    5     -0.18      0.00 
   -6   16    5     -0.91      0.00 
   -5   16    5     -2.19      0.00 
   -4   16    5     -1.77      0.00 
   -3   16    5      0.59      0.00 
   -2   16    5      2.85      0.00 
   -1   16    5      3.05      0.00 
    0   16    5      1.49      0.00 
    1   16    5      0.23      0.00 
    2   16    5      0.63      0.00 
    3   16    5      1.61      0.00 
    4   16    5      0.81      0.00 
    5   16    5     -2.35      0.00 
    6   16    5     -5.57      0.00 
    7   16    5     -5.77      0.00 
    8   16    5     -2.34      0.00 
    9   16    5      1.96      0.00 
   10   16    5      3.66      0.00 
   11   16    5      2.06      0.00 
   12   16    5     -0.39      0.00 
   13   16    5     -1.25      0.00 
  -11   17    5     -0.16      0.00 
  -10   17    5      0.89      0.00 
   -9   17    5      1.73      0.00 
   -8   17    5      1.10      0.00 
   -7   17    5     -0.84      0.00 
   -6   17    5     -2.20      0.00 
   -5   17    5     -1.45      0.00 
   -4   17    5      0.71      0.00 
   -3   17    5      2.11      0.00 
   -2   17    5      1.48      0.00 
   -1   17    5     -0.05      0.00 
    0   17    5     -0.22      0.00 
    1   17    5      1.57      0.00 
    2   17    5      3.15      0.00 
    3   17    5      2.13      0.00 
    4   17    5     -0.73      0.00 
    5   17    5     -2.18      0.00 
    6   17    5     -0.48      0.00 
    7   17    5      2.70      0.00 
    8   17    5      4.59      0.00 
    9   17    5      4.08      0.00 
   10   17    5      2.12      0.00 
   11   17    5      0.32      0.00 
   -9   18    5     -1.31      0.00 
   -8   18    5     -1.66      0.00 
   -7   18    5     -0.98      0.00 
   -6   18    5      0.95      0.00 
   -5   18    5      3.01      0.00 
   -4   18    5      3.73      0.00 
   -3   18    5      2.80      0.00 
   -2   18    5      1.48      0.00 
   -1   18    5      1.38      0.00 
    0   18    5      2.46      0.00 
    1   18    5      2.67      0.00 
    2   18    5      0.54      0.00 
    3   18    5     -2.42      0.00 
    4   18    5     -3.18      0.00 
    5   18    5     -1.18      0.00 
    6   18    5      1.02      0.00 
    7   18    5      1.31      0.00 
    8   18    5      0.33      0.00 
    9   18    5     -0.28      0.00 
   -6   19    5      1.64      0.00 
   -5   19    5      1.09      0.00 
   -4   19    5      0.02      0.00 
   -3   19    5     -0.78      0.00 
   -2   19    5     -0.69      0.00 
   -1   19    5     -0.05      0.00 
    0   19    5     -0.04      0.00 
    1   19    5     -1.12      0.00 
    2   19    5     -2.04      0.00 
    3   19    5     -1.21      0.00 
    4   19    5      0.89      0.00 
    5   19    5      2.07      0.00 
    6   19    5      1.28      0.00 
  -22    0    6      0.22      0.00 
  -21    0    6     -1.57      0.00 
  -20    0    6     -2.74      0.00 
  -19    0    6     -1.03      0.00 
  -18    0    6      2.01      0.00 
  -17    0    6      2.48      0.00 
  -16    0    6      0.47      0.00 
  -15    0    6      1.09      0.00 
  -14    0    6      7.26      0.00 
  -13    0    6     14.73      0.00 
  -12    0    6     16.72      0.00 
  -11    0    6     11.34      0.00 
  -10    0    6      3.13      0.00 
   -9    0    6     -1.21      0.00 
   -8    0    6      1.28      0.00 
   -7    0    6      5.10      0.00 
   -6    0    6     -0.17      0.00 
   -5    0    6    -15.87      0.00 
   -4    0    6    -26.06      0.00 
   -3    0    6    -12.92      0.00 
   -2    0    6     18.48      0.00 
   -1    0    6     40.22      0.00 
    0    0    6     30.94      0.00 
    1    0    6     -0.92      0.00 
    2    0    6    -26.75      0.00 
    3    0    6    -26.37      0.00 
    4    0    6     -4.96      0.00 
    5    0    6     14.87      0.00 
    6    0    6     15.40      0.00 
    7    0    6     -0.53      0.00 
    8    0    6    -15.29      0.00 
    9    0    6    -16.19      0.00 
   10    0    6     -6.52      0.00 
   11    0    6      2.49      0.00 
   12    0    6      4.89      0.00 
   13    0    6      3.12      0.00 
   14    0    6      2.23      0.00 
   15    0    6      4.22      0.00 
   16    0    6      6.93      0.00 
   17    0    6      7.11      0.00 
   18    0    6      4.36      0.00 
   19    0    6      1.35      0.00 
   20    0    6      0.14      0.00 
   21    0    6      0.22      0.00 
   22    0    6      0.45      0.00 
  -22    1    6     -0.61      0.00 
  -21    1    6     -0.41      0.00 
  -20    1    6      1.56      0.00 
  -19    1    6      3.53      0.00 
  -18    1    6      2.91      0.00 
  -17    1    6      0.84      0.00 
  -16    1    6      1.52      0.00 
  -15    1    6      5.68      0.00 
  -14    1    6      8.32      0.00 
  -13    1    6      4.84      0.00 
  -12    1    6     -2.92      0.00 
  -11    1    6     -8.71      0.00 
  -10    1    6     -8.15      0.00 
   -9    1    6     -2.77      0.00 
   -8    1    6      0.39      0.00 
   -7    1    6     -5.34      0.00 
   -6    1    6    -16.83      0.00 
   -5    1    6    -20.14      0.00 
   -4    1    6     -6.16      0.00 
   -3    1    6     13.90      0.00 
   -2    1    6     17.44      0.00 
   -1    1    6     -2.89      0.00 
    0    1    6    -28.72      0.00 
    1    1    6    -35.08      0.00 
    2    1    6    -15.82      0.00 
    3    1    6     12.01      0.00 
    4    1    6     25.56      0.00 
    5    1    6     16.87      0.00 
    6    1    6     -1.47      0.00 
    7    1    6    -10.41      0.00 
    8    1    6     -3.65      0.00 
    9    1    6      8.69      0.00 
   10    1    6     14.04      0.00 
   11    1    6     10.20      0.00 
   12    1    6      3.65      0.00 
   13    1    6      0.42      0.00 
   14    1    6      1.03      0.00 
   15    1    6      2.11      0.00 
   16    1    6      0.86      0.00 
   17    1    6     -1.91      0.00 
   18    1    6     -3.31      0.00 
   19    1    6     -2.49      0.00 
   20    1    6     -1.23      0.00 
   21    1    6     -0.74      0.00 
   22    1    6     -0.44      0.00 
  -22    2    6     -0.56      0.00 
  -21    2    6     -0.51      0.00 
  -20    2    6     -0.81      0.00 
  -19    2    6     -2.14      0.00 
  -18    2    6     -3.03      0.00 
  -17    2    6     -1.26      0.00 
  -16    2    6      2.15      0.00 
  -15    2    6      3.11      0.00 
  -14    2    6     -0.13      0.00 
  -13    2    6     -4.14      0.00 
  -12    2    6     -4.41      0.00 
  -11    2    6     -0.71      0.00 
  -10    2    6      2.60      0.00 
   -9    2    6      0.25      0.00 
   -8    2    6     -8.88      0.00 
   -7    2    6    -18.20      0.00 
   -6    2    6    -17.23      0.00 
   -5    2    6     -3.76      0.00 
   -4    2    6     10.24      0.00 
   -3    2    6     10.81      0.00 
   -2    2    6     -0.54      0.00 
   -1    2    6     -7.63      0.00 
    0    2    6      1.74      0.00 
    1    2    6     22.46      0.00 
    2    2    6     37.64      0.00 
    3    2    6     34.58      0.00 
    4    2    6     15.83      0.00 
    5    2    6     -3.28      0.00 
    6    2    6     -9.20      0.00 
    7    2    6     -2.86      0.00 
    8    2    6      3.58      0.00 
    9    2    6      1.53      0.00 
   10    2    6     -6.18      0.00 
   11    2    6    -11.64      0.00 
   12    2    6    -10.98      0.00 
   13    2    6     -6.42      0.00 
   14    2    6     -2.46      0.00 
   15    2    6     -1.31      0.00 
   16    2    6     -1.41      0.00 
   17    2    6     -0.36      0.00 
   18    2    6      1.35      0.00 
   19    2    6      1.55      0.00 
   20    2    6      0.38      0.00 
   21    2    6     -0.15      0.00 
   22    2    6      0.24      0.00 
  -22    3    6      0.52      0.00 
  -21    3    6      1.03      0.00 
  -20    3    6      1.67      0.00 
  -19    3    6      2.54      0.00 
  -18    3    6      3.87      0.00 
  -17    3    6      4.79      0.00 
  -16    3    6      3.67      0.00 
  -15    3    6      0.80      0.00 
  -14    3    6     -0.93      0.00 
  -13    3    6      0.17      0.00 
  -12    3    6      1.88      0.00 
  -11    3    6      0.25      0.00 
  -10    3    6     -6.04      0.00 
   -9    3    6    -13.81      0.00 
   -8    3    6    -16.57      0.00 
   -7    3    6     -9.42      0.00 
   -6    3    6      4.31      0.00 
   -5    3    6     13.49      0.00 
   -4    3    6     10.75      0.00 
   -3    3    6      1.76      0.00 
   -2    3    6     -1.43      0.00 
   -1    3    6      5.10      0.00 
    0    3    6     13.67      0.00 
    1    3    6     14.46      0.00 
    2    3    6      4.83      0.00 
    3    3    6     -8.99      0.00 
    4    3    6    -16.94      0.00 
    5    3    6    -13.79      0.00 
    6    3    6     -4.49      0.00 
    7    3    6      1.12      0.00 
    8    3    6     -0.75      0.00 
    9    3    6     -5.08      0.00 
   10    3    6     -5.48      0.00 
   11    3    6     -0.94      0.00 
   12    3    6      4.87      0.00 
   13    3    6      7.93      0.00 
   14    3    6      7.14      0.00 
   15    3    6      4.71      0.00 
   16    3    6      3.09      0.00 
   17    3    6      1.99      0.00 
   18    3    6      0.10      0.00 
   19    3    6     -1.67      0.00 
   20    3    6     -1.47      0.00 
   21    3    6     -0.03      0.00 
  -21    4    6      0.92      0.00 
  -20    4    6      0.57      0.00 
  -19    4    6     -0.64      0.00 
  -18    4    6     -1.91      0.00 
  -17    4    6     -2.95      0.00 
  -16    4    6     -3.60      0.00 
  -15    4    6     -3.09      0.00 
  -14    4    6     -1.63      0.00 
  -13    4    6     -1.68      0.00 
  -12    4    6     -5.35      0.00 
  -11    4    6    -11.15      0.00 
  -10    4    6    -14.81      0.00 
   -9    4    6    -12.76      0.00 
   -8    4    6     -4.92      0.00 
   -7    4    6      3.81      0.00 
   -6    4    6      6.20      0.00 
   -5    4    6      0.31      0.00 
   -4    4    6     -6.55      0.00 
   -3    4    6     -5.65      0.00 
   -2    4    6      2.70      0.00 
   -1    4    6     10.70      0.00 
    0    4    6     12.95      0.00 
    1    4    6     10.80      0.00 
    2    4    6      8.36      0.00 
    3    4    6      8.56      0.00 
    4    4    6     11.32      0.00 
    5    4    6     13.09      0.00 
    6    4    6      9.72      0.00 
    7    4    6      1.73      0.00 
    8    4    6     -5.42      0.00 
    9    4    6     -7.24      0.00 
   10    4    6     -4.51      0.00 
   11    4    6     -1.30      0.00 
   12    4    6     -0.82      0.00 
   13    4    6     -3.17      0.00 
   14    4    6     -5.95      0.00 
   15    4    6     -6.94      0.00 
   16    4    6     -6.21      0.00 
   17    4    6     -4.90      0.00 
   18    4    6     -3.11      0.00 
   19    4    6     -0.69      0.00 
   20    4    6      1.12      0.00 
   21    4    6      1.12      0.00 
  -21    5    6     -1.14      0.00 
  -20    5    6     -2.67      0.00 
  -19    5    6     -3.18      0.00 
  -18    5    6     -2.21      0.00 
  -17    5    6     -0.98      0.00 
  -16    5    6     -0.28      0.00 
  -15    5    6     -0.26      0.00 
  -14    5    6     -1.74      0.00 
  -13    5    6     -4.97      0.00 
  -12    5    6     -7.70      0.00 
  -11    5    6     -7.16      0.00 
  -10    5    6     -3.14      0.00 
   -9    5    6      2.24      0.00 
   -8    5    6      6.39      0.00 
   -7    5    6      7.28      0.00 
   -6    5    6      5.60      0.00 
   -5    5    6      5.97      0.00 
   -4    5    6     12.14      0.00 
   -3    5    6     21.01      0.00 
   -2    5    6     25.62      0.00 
   -1    5    6     23.25      0.00 
    0    5    6     16.83      0.00 
    1    5    6      9.49      0.00 
    2    5    6      2.16      0.00 
    3    5    6     -4.69      0.00 
    4    5    6    -10.84      0.00 
    5    5    6    -16.79      0.00 
    6    5    6    -21.84      0.00 
    7    5    6    -23.23      0.00 
    8    5    6    -19.27      0.00 
    9    5    6    -12.05      0.00 
   10    5    6     -5.49      0.00 
   11    5    6     -1.79      0.00 
   12    5    6     -0.47      0.00 
   13    5    6      0.17      0.00 
   14    5    6      1.25      0.00 
   15    5    6      2.73      0.00 
   16    5    6      4.14      0.00 
   17    5    6      5.19      0.00 
   18    5    6      5.41      0.00 
   19    5    6      4.27      0.00 
   20    5    6      2.22      0.00 
   21    5    6      0.70      0.00 
  -21    6    6     -0.96      0.00 
  -20    6    6      0.08      0.00 
  -19    6    6      2.18      0.00 
  -18    6    6      3.32      0.00 
  -17    6    6      2.41      0.00 
  -16    6    6      0.27      0.00 
  -15    6    6     -2.00      0.00 
  -14    6    6     -3.41      0.00 
  -13    6    6     -2.61      0.00 
  -12    6    6      0.58      0.00 
  -11    6    6      4.02      0.00 
  -10    6    6      5.81      0.00 
   -9    6    6      6.49      0.00 
   -8    6    6      7.17      0.00 
   -7    6    6      7.78      0.00 
   -6    6    6      8.43      0.00 
   -5    6    6      9.53      0.00 
   -4    6    6      9.70      0.00 
   -3    6    6      6.69      0.00 
   -2    6    6      0.75      0.00 
   -1    6    6     -5.75      0.00 
    0    6    6    -11.44      0.00 
    1    6    6    -15.88      0.00 
    2    6    6    -17.82      0.00 
    3    6    6    -16.62      0.00 
    4    6    6    -13.85      0.00 
    5    6    6    -11.03      0.00 
    6    6    6     -7.43      0.00 
    7    6    6     -2.11      0.00 
    8    6    6      3.58      0.00 
    9    6    6      7.46      0.00 
   10    6    6      8.86      0.00 
   11    6    6      8.48      0.00 
   12    6    6      7.10      0.00 
   13    6    6      5.34      0.00 
   14    6    6      3.95      0.00 
   15    6    6      3.41      0.00 
   16    6    6      3.24      0.00 
   17    6    6      2.30      0.00 
   18    6    6      0.24      0.00 
   19    6    6     -1.66      0.00 
   20    6    6     -1.97      0.00 
   21    6    6     -0.98      0.00 
  -21    7    6      0.63      0.00 
  -20    7    6      1.80      0.00 
  -19    7    6      1.99      0.00 
  -18    7    6      0.49      0.00 
  -17    7    6     -1.71      0.00 
  -16    7    6     -2.93      0.00 
  -15    7    6     -2.24      0.00 
  -14    7    6      0.00      0.00 
  -13    7    6      1.88      0.00 
  -12    7    6      1.32      0.00 
  -11    7    6     -1.17      0.00 
  -10    7    6     -2.55      0.00 
   -9    7    6     -1.21      0.00 
   -8    7    6      0.73      0.00 
   -7    7    6      0.65      0.00 
   -6    7    6     -1.27      0.00 
   -5    7    6     -2.81      0.00 
   -4    7    6     -2.43      0.00 
   -3    7    6     -0.50      0.00 
   -2    7    6      0.96      0.00 
   -1    7    6      0.16      0.00 
    0    7    6     -1.87      0.00 
    1    7    6     -2.20      0.00 
    2    7    6     -0.30      0.00 
    3    7    6      1.05      0.00 
    4    7    6     -0.03      0.00 
    5    7    6     -1.91      0.00 
    6    7    6     -2.28      0.00 
    7    7    6     -0.95      0.00 
    8    7    6      1.02      0.00 
    9    7    6      2.66      0.00 
   10    7    6      3.04      0.00 
   11    7    6      1.71      0.00 
   12    7    6     -0.19      0.00 
   13    7    6     -0.81      0.00 
   14    7    6      0.14      0.00 
   15    7    6      1.12      0.00 
   16    7    6      0.58      0.00 
   17    7    6     -1.23      0.00 
   18    7    6     -2.58      0.00 
   19    7    6     -2.23      0.00 
   20    7    6     -0.83      0.00 
  -20    8    6      0.92      0.00 
  -19    8    6     -0.16      0.00 
  -18    8    6     -2.07      0.00 
  -17    8    6     -3.08      0.00 
  -16    8    6     -2.26      0.00 
  -15    8    6     -0.83      0.00 
  -14    8    6     -0.98      0.00 
  -13    8    6     -3.06      0.00 
  -12    8    6     -4.42      0.00 
  -11    8    6     -2.04      0.00 
  -10    8    6      3.40      0.00 
   -9    8    6      7.63      0.00 
   -8    8    6      7.56      0.00 
   -7    8    6      4.84      0.00 
   -6    8    6      3.81      0.00 
   -5    8    6      6.51      0.00 
   -4    8    6     10.09      0.00 
   -3    8    6      9.46      0.00 
   -2    8    6      3.07      0.00 
   -1    8    6     -4.73      0.00 
    0    8    6     -8.43      0.00 
    1    8    6     -7.82      0.00 
    2    8    6     -7.24      0.00 
    3    8    6     -8.93      0.00 
    4    8    6    -10.48      0.00 
    5    8    6     -8.74      0.00 
    6    8    6     -3.54      0.00 
    7    8    6      2.83      0.00 
    8    8    6      7.35      0.00 
    9    8    6      7.86      0.00 
   10    8    6      5.05      0.00 
   11    8    6      2.45      0.00 
   12    8    6      2.73      0.00 
   13    8    6      4.56      0.00 
   14    8    6      4.78      0.00 
   15    8    6      2.38      0.00 
   16    8    6     -0.83      0.00 
   17    8    6     -2.72      0.00 
   18    8    6     -2.71      0.00 
   19    8    6     -1.58      0.00 
   20    8    6     -0.41      0.00 
  -20    9    6     -0.92      0.00 
  -19    9    6     -2.33      0.00 
  -18    9    6     -2.34      0.00 
  -17    9    6     -0.72      0.00 
  -16    9    6      0.58      0.00 
  -15    9    6     -0.10      0.00 
  -14    9    6     -1.66      0.00 
  -13    9    6     -1.08      0.00 
  -12    9    6      2.72      0.00 
  -11    9    6      6.85      0.00 
  -10    9    6      6.99      0.00 
   -9    9    6      2.24      0.00 
   -8    9    6     -3.41      0.00 
   -7    9    6     -5.04      0.00 
   -6    9    6     -2.17      0.00 
   -5    9    6      0.30      0.00 
   -4    9    6     -2.63      0.00 
   -3    9    6     -9.92      0.00 
   -2    9    6    -14.93      0.00 
   -1    9    6    -12.86      0.00 
    0    9    6     -6.25      0.00 
    1    9    6     -1.51      0.00 
    2    9    6     -1.13      0.00 
    3    9    6     -1.72      0.00 
    4    9    6      0.87      0.00 
    5    9    6      6.75      0.00 
    6    9    6     12.18      0.00 
    7    9    6     13.15      0.00 
    8    9    6      8.91      0.00 
    9    9    6      3.12      0.00 
   10    9    6      0.73      0.00 
   11    9    6      2.71      0.00 
   12    9    6      5.06      0.00 
   13    9    6      3.93      0.00 
   14    9    6      0.15      0.00 
   15    9    6     -2.79      0.00 
   16    9    6     -3.24      0.00 
   17    9    6     -2.19      0.00 
   18    9    6     -0.93      0.00 
   19    9    6      0.11      0.00 
  -19   10    6      1.04      0.00 
  -18   10    6      1.22      0.00 
  -17   10    6     -0.44      0.00 
  -16   10    6     -3.72      0.00 
  -15   10    6     -6.14      0.00 
  -14   10    6     -5.52      0.00 
  -13   10    6     -2.73      0.00 
  -12   10    6     -1.18      0.00 
  -11   10    6     -3.26      0.00 
  -10   10    6     -7.40      0.00 
   -9   10    6     -9.05      0.00 
   -8   10    6     -5.17      0.00 
   -7   10    6      1.83      0.00 
   -6   10    6      5.79      0.00 
   -5   10    6      3.49      0.00 
   -4   10    6     -1.34      0.00 
   -3   10    6     -2.19      0.00 
   -2   10    6      2.63      0.00 
   -1   10    6      8.13      0.00 
    0   10    6      8.66      0.00 
    1   10    6      4.09      0.00 
    2   10    6     -0.43      0.00 
    3   10    6     -0.17      0.00 
    4   10    6      4.30      0.00 
    5   10    6      7.82      0.00 
    6   10    6      6.18      0.00 
    7   10    6      0.64      0.00 
    8   10    6     -3.41      0.00 
    9   10    6     -2.41      0.00 
   10   10    6      1.41      0.00 
   11   10    6      2.88      0.00 
   12   10    6     -0.01      0.00 
   13   10    6     -4.12      0.00 
   14   10    6     -5.40      0.00 
   15   10    6     -3.53      0.00 
   16   10    6     -1.08      0.00 
   17   10    6      0.27      0.00 
   18   10    6      0.84      0.00 
   19   10    6      1.06      0.00 
  -18   11    6     -4.39      0.00 
  -17   11    6     -6.29      0.00 
  -16   11    6     -5.67      0.00 
  -15   11    6     -2.33      0.00 
  -14   11    6      1.49      0.00 
  -13   11    6      3.15      0.00 
  -12   11    6      2.27      0.00 
  -11   11    6      1.16      0.00 
  -10   11    6      2.69      0.00 
   -9   11    6      7.22      0.00 
   -8   11    6     11.17      0.00 
   -7   11    6     10.01      0.00 
   -6   11    6      3.72      0.00 
   -5   11    6     -2.21      0.00 
   -4   11    6     -2.87      0.00 
   -3   11    6      0.28      0.00 
   -2   11    6      1.67      0.00 
   -1   11    6     -1.46      0.00 
    0   11    6     -6.38      0.00 
    1   11    6     -8.03      0.00 
    2   11    6     -3.91      0.00 
    3   11    6      3.27      0.00 
    4   11    6      7.45      0.00 
    5   11    6      5.26      0.00 
    6   11    6     -0.10      0.00 
    7   11    6     -2.52      0.00 
    8   11    6     -0.18      0.00 
    9   11    6      2.85      0.00 
   10   11    6      2.30      0.00 
   11   11    6     -1.38      0.00 
   12   11    6     -4.17      0.00 
   13   11    6     -3.42      0.00 
   14   11    6     -0.45      0.00 
   15   11    6      1.57      0.00 
   16   11    6      1.43      0.00 
   17   11    6      0.38      0.00 
   18   11    6     -0.26      0.00 
  -17   12    6      1.72      0.00 
  -16   12    6      3.94      0.00 
  -15   12    6      4.87      0.00 
  -14   12    6      3.50      0.00 
  -13   12    6      1.03      0.00 
  -12   12    6     -0.30      0.00 
  -11   12    6      0.54      0.00 
  -10   12    6      2.32      0.00 
   -9   12    6      2.41      0.00 
   -8   12    6     -0.85      0.00 
   -7   12    6     -5.58      0.00 
   -6   12    6     -7.27      0.00 
   -5   12    6     -3.96      0.00 
   -4   12    6      0.67      0.00 
   -3   12    6      1.72      0.00 
   -2   12    6     -1.01      0.00 
   -1   12    6     -3.39      0.00 
    0   12    6     -1.98      0.00 
    1   12    6      2.94      0.00 
    2   12    6      7.77      0.00 
    3   12    6      8.23      0.00 
    4   12    6      3.46      0.00 
    5   12    6     -2.03      0.00 
    6   12    6     -2.92      0.00 
    7   12    6      0.54      0.00 
    8   12    6      3.22      0.00 
    9   12    6      1.75      0.00 
   10   12    6     -1.96      0.00 
   11   12    6     -4.07      0.00 
   12   12    6     -3.17      0.00 
   13   12    6     -1.06      0.00 
   14   12    6     -0.15      0.00 
   15   12    6     -0.92      0.00 
   16   12    6     -1.80      0.00 
   17   12    6     -1.49      0.00 
  -17   13    6     -0.42      0.00 
  -16   13    6     -1.54      0.00 
  -15   13    6     -3.46      0.00 
  -14   13    6     -4.51      0.00 
  -13   13    6     -3.02      0.00 
  -12   13    6      0.36      0.00 
  -11   13    6      3.20      0.00 
  -10   13    6      3.72      0.00 
   -9   13    6      2.20      0.00 
   -8   13    6      0.77      0.00 
   -7   13    6      1.77      0.00 
   -6   13    6      4.88      0.00 
   -5   13    6      6.46      0.00 
   -4   13    6      3.68      0.00 
   -3   13    6     -1.47      0.00 
   -2   13    6     -4.36      0.00 
   -1   13    6     -3.04      0.00 
    0   13    6      0.38      0.00 
    1   13    6      2.45      0.00 
    2   13    6      1.18      0.00 
    3   13    6     -2.43      0.00 
    4   13    6     -4.63      0.00 
    5   13    6     -2.72      0.00 
    6   13    6      1.23      0.00 
    7   13    6      2.62      0.00 
    8   13    6      0.05      0.00 
    9   13    6     -3.49      0.00 
   10   13    6     -4.71      0.00 
   11   13    6     -3.20      0.00 
   12   13    6     -0.85      0.00 
   13   13    6      0.30      0.00 
   14   13    6     -0.26      0.00 
   15   13    6     -1.15      0.00 
   16   13    6     -0.90      0.00 
  -15   14    6      1.47      0.00 
  -14   14    6      4.07      0.00 
  -13   14    6      6.80      0.00 
  -12   14    6      7.16      0.00 
  -11   14    6      4.77      0.00 
  -10   14    6      1.60      0.00 
   -9   14    6     -0.20      0.00 
   -8   14    6      0.01      0.00 
   -7   14    6      0.88      0.00 
   -6   14    6     -0.06      0.00 
   -5   14    6     -3.57      0.00 
   -4   14    6     -6.90      0.00 
   -3   14    6     -6.64      0.00 
   -2   14    6     -2.93      0.00 
   -1   14    6      0.83      0.00 
    0   14    6      1.88      0.00 
    1   14    6      0.36      0.00 
    2   14    6     -1.44      0.00 
    3   14    6     -1.16      0.00 
    4   14    6      1.25      0.00 
    5   14    6      3.04      0.00 
    6   14    6      1.78      0.00 
    7   14    6     -1.45      0.00 
    8   14    6     -3.60      0.00 
    9   14    6     -3.20      0.00 
   10   14    6     -1.00      0.00 
   11   14    6      1.52      0.00 
   12   14    6      2.74      0.00 
   13   14    6      1.76      0.00 
   14   14    6     -0.12      0.00 
   15   14    6     -0.69      0.00 
  -14   15    6      1.55      0.00 
  -13   15    6      0.05      0.00 
  -12   15    6     -2.32      0.00 
  -11   15    6     -3.42      0.00 
  -10   15    6     -2.49      0.00 
   -9   15    6     -0.60      0.00 
   -8   15    6      0.50      0.00 
   -7   15    6     -0.34      0.00 
   -6   15    6     -2.47      0.00 
   -5   15    6     -3.45      0.00 
   -4   15    6     -1.59      0.00 
   -3   15    6      1.68      0.00 
   -2   15    6      3.36      0.00 
   -1   15    6      2.31      0.00 
    0   15    6      0.19      0.00 
    1   15    6     -0.65      0.00 
    2   15    6      0.54      0.00 
    3   15    6      2.10      0.00 
    4   15    6      1.61      0.00 
    5   15    6     -1.00      0.00 
    6   15    6     -3.11      0.00 
    7   15    6     -2.97      0.00 
    8   15    6     -1.62      0.00 
    9   15    6     -0.36      0.00 
   10   15    6      0.87      0.00 
   11   15    6      1.55      0.00 
   12   15    6      0.31      0.00 
   13   15    6     -2.11      0.00 
   14   15    6     -2.89      0.00 
  -13   16    6      0.09      0.00 
  -12   16    6      1.30      0.00 
  -11   16    6      3.00      0.00 
  -10   16    6      3.68      0.00 
   -9   16    6      2.67      0.00 
   -8   16    6      0.45      0.00 
   -7   16    6     -1.66      0.00 
   -6   16    6     -2.18      0.00 
   -5   16    6     -0.82      0.00 
   -4   16    6      0.84      0.00 
   -3   16    6      1.05      0.00 
   -2   16    6     -0.07      0.00 
   -1   16    6     -0.91      0.00 
    0   16    6     -0.15      0.00 
    1   16    6      1.89      0.00 
    2   16    6      3.43      0.00 
    3   16    6      2.90      0.00 
    4   16    6      1.12      0.00 
    5   16    6      0.46      0.00 
    6   16    6      1.27      0.00 
    7   16    6      1.53      0.00 
    8   16    6      0.70      0.00 
    9   16    6      0.79      0.00 
   10   16    6      2.20      0.00 
   11   16    6      2.44      0.00 
   12   16    6      0.75      0.00 
   13   16    6     -0.33      0.00 
  -11   17    6     -0.86      0.00 
  -10   17    6     -2.30      0.00 
   -9   17    6     -3.26      0.00 
   -8   17    6     -3.06      0.00 
   -7   17    6     -1.71      0.00 
   -6   17    6      0.09      0.00 
   -5   17    6      1.32      0.00 
   -4   17    6      1.53      0.00 
   -3   17    6      1.29      0.00 
   -2   17    6      1.40      0.00 
   -1   17    6      2.07      0.00 
    0   17    6      2.87      0.00 
    1   17    6      2.97      0.00 
    2   17    6      1.69      0.00 
    3   17    6     -0.33      0.00 
    4   17    6     -1.52      0.00 
    5   17    6     -1.68      0.00 
    6   17    6     -2.19      0.00 
    7   17    6     -2.96      0.00 
    8   17    6     -1.85      0.00 
    9   17    6      1.20      0.00 
   10   17    6      2.96      0.00 
   11   17    6      1.72      0.00 
   -9   18    6      0.11      0.00 
   -8   18    6      0.88      0.00 
   -7   18    6      1.15      0.00 
   -6   18    6      0.79      0.00 
   -5   18    6      0.29      0.00 
   -4   18    6      0.22      0.00 
   -3   18    6      0.54      0.00 
   -2   18    6      0.76      0.00 
   -1   18    6      0.77      0.00 
    0   18    6      0.75      0.00 
    1   18    6      0.64      0.00 
    2   18    6      0.27      0.00 
    3   18    6      0.03      0.00 
    4   18    6      0.13      0.00 
    5   18    6      0.06      0.00 
    6   18    6     -0.07      0.00 
    7   18    6      0.91      0.00 
    8   18    6      2.89      0.00 
    9   18    6      3.58      0.00 
   -6   19    6      0.77      0.00 
   -5   19    6      1.56      0.00 
   -4   19    6      2.36      0.00 
   -3   19    6      2.43      0.00 
   -2   19    6      1.92      0.00 
   -1   19    6      1.59      0.00 
    0   19    6      1.60      0.00 
    1   19    6      1.31      0.00 
    2   19    6      0.46      0.00 
    3   19    6     -0.37      0.00 
    4   19    6     -0.70      0.00 
    5   19    6     -0.50      0.00 
    6   19    6      0.22      0.00 
  -22    1    7      0.57      0.00 
  -21    1    7     -0.80      0.00 
  -20    1    7     -1.67      0.00 
  -19    1    7     -1.01      0.00 
  -18    1    7      0.50      0.00 
  -17    1    7      1.50      0.00 
  -16    1    7      1.80      0.00 
  -15    1    7      2.64      0.00 
  -14    1    7      5.14      0.00 
  -13    1    7      8.52      0.00 
  -12    1    7     10.32      0.00 
  -11    1    7      8.77      0.00 
  -10    1    7      4.60      0.00 
   -9    1    7     -0.04      0.00 
   -8    1    7     -3.94      0.00 
   -7    1    7     -7.41      0.00 
   -6    1    7    -11.04      0.00 
   -5    1    7    -14.28      0.00 
   -4    1    7    -14.64      0.00 
   -3    1    7     -9.22      0.00 
   -2    1    7      1.08      0.00 
   -1    1    7      9.77      0.00 
    0    1    7     10.35      0.00 
    1    1    7      4.08      0.00 
    2    1    7     -0.84      0.00 
    3    1    7      1.48      0.00 
    4    1    7      8.42      0.00 
    5    1    7     12.69      0.00 
    6    1    7     10.23      0.00 
    7    1    7      3.30      0.00 
    8    1    7     -2.85      0.00 
    9    1    7     -4.92      0.00 
   10    1    7     -3.66      0.00 
   11    1    7     -1.92      0.00 
   12    1    7     -1.15      0.00 
   13    1    7     -0.66      0.00 
   14    1    7      0.52      0.00 
   15    1    7      2.17      0.00 
   16    1    7      3.41      0.00 
   17    1    7      3.60      0.00 
   18    1    7      2.61      0.00 
   19    1    7      1.03      0.00 
   20    1    7      0.00      0.00 
   21    1    7      0.04      0.00 
   22    1    7      0.39      0.00 
  -22    2    7     -1.04      0.00 
  -21    2    7     -0.62      0.00 
  -20    2    7      1.79      0.00 
  -19    2    7      3.91      0.00 
  -18    2    7      3.87      0.00 
  -17    2    7      2.62      0.00 
  -16    2    7      2.48      0.00 
  -15    2    7      4.16      0.00 
  -14    2    7      5.48      0.00 
  -13    2    7      3.28      0.00 
  -12    2    7     -3.01      0.00 
  -11    2    7     -9.98      0.00 
  -10    2    7    -13.66      0.00 
   -9    2    7    -13.69      0.00 
   -8    2    7    -12.90      0.00 
   -7    2    7    -13.20      0.00 
   -6    2    7    -13.39      0.00 
   -5    2    7    -10.21      0.00 
   -4    2    7     -1.77      0.00 
   -3    2    7      8.73      0.00 
   -2    2    7     13.20      0.00 
   -1    2    7      6.72      0.00 
    0    2    7     -4.31      0.00 
    1    2    7     -6.99      0.00 
    2    2    7      3.23      0.00 
    3    2    7     16.58      0.00 
    4    2    7     20.16      0.00 
    5    2    7     11.75      0.00 
    6    2    7      0.23      0.00 
    7    2    7     -4.95      0.00 
    8    2    7     -2.14      0.00 
    9    2    7      3.33      0.00 
   10    2    7      5.77      0.00 
   11    2    7      4.33      0.00 
   12    2    7      2.14      0.00 
   13    2    7      1.60      0.00 
   14    2    7      2.00      0.00 
   15    2    7      1.54      0.00 
   16    2    7     -0.21      0.00 
   17    2    7     -2.22      0.00 
   18    2    7     -3.37      0.00 
   19    2    7     -3.11      0.00 
   20    2    7     -1.82      0.00 
   21    2    7     -0.66      0.00 
  -22    3    7     -0.80      0.00 
  -20    3    7     -0.30      0.00 
  -19    3    7     -3.13      0.00 
  -18    3    7     -5.47      0.00 
  -17    3    7     -4.93      0.00 
  -16    3    7     -2.41      0.00 
  -15    3    7     -1.12      0.00 
  -14    3    7     -3.38      0.00 
  -13    3    7     -7.99      0.00 
  -12    3    7    -10.70      0.00 
  -11    3    7     -8.76      0.00 
  -10    3    7     -4.74      0.00 
   -9    3    7     -3.56      0.00 
   -8    3    7     -6.02      0.00 
   -7    3    7     -7.81      0.00 
   -6    3    7     -4.55      0.00 
   -5    3    7      3.50      0.00 
   -4    3    7     11.17      0.00 
   -3    3    7     12.08      0.00 
   -2    3    7      5.45      0.00 
   -1    3    7      0.01      0.00 
    0    3    7      6.32      0.00 
    1    3    7     22.95      0.00 
    2    3    7     35.00      0.00 
    3    3    7     30.16      0.00 
    4    3    7     12.45      0.00 
    5    3    7     -3.33      0.00 
    6    3    7     -7.89      0.00 
    7    3    7     -4.35      0.00 
    8    3    7     -1.48      0.00 
    9    3    7     -3.93      0.00 
   10    3    7     -9.34      0.00 
   11    3    7    -12.49      0.00 
   12    3    7    -11.22      0.00 
   13    3    7     -7.97      0.00 
   14    3    7     -6.03      0.00 
   15    3    7     -5.68      0.00 
   16    3    7     -4.88      0.00 
   17    3    7     -2.70      0.00 
   18    3    7     -0.25      0.00 
   19    3    7      1.15      0.00 
   20    3    7      1.28      0.00 
   21    3    7      0.74      0.00 
  -21    4    7     -0.25      0.00 
  -20    4    7     -2.05      0.00 
  -19    4    7     -2.16      0.00 
  -18    4    7      0.32      0.00 
  -17    4    7      3.11      0.00 
  -16    4    7      3.35      0.00 
  -15    4    7      0.57      0.00 
  -14    4    7     -2.61      0.00 
  -13    4    7     -2.62      0.00 
  -12    4    7      0.74      0.00 
  -11    4    7      2.76      0.00 
  -10    4    7     -0.83      0.00 
   -9    4    7     -7.32      0.00 
   -8    4    7     -9.10      0.00 
   -7    4    7     -2.42      0.00 
   -6    4    7      8.38      0.00 
   -5    4    7     15.31      0.00 
   -4    4    7     13.90      0.00 
   -3    4    7      7.36      0.00 
   -2    4    7      4.77      0.00 
   -1    4    7     11.91      0.00 
    0    4    7     22.41      0.00 
    1    4    7     22.26      0.00 
    2    4    7      6.13      0.00 
    3    4    7    -14.88      0.00 
    4    4    7    -25.21      0.00 
    5    4    7    -21.25      0.00 
    6    4    7    -12.28      0.00 
    7    4    7     -8.16      0.00 
    8    4    7    -10.28      0.00 
    9    4    7    -13.14      0.00 
   10    4    7    -11.20      0.00 
   11    4    7     -4.13      0.00 
   12    4    7      3.37      0.00 
   13    4    7      6.71      0.00 
   14    4    7      6.13      0.00 
   15    4    7      5.12      0.00 
   16    4    7      5.35      0.00 
   17    4    7      5.37      0.00 
   18    4    7      4.04      0.00 
   19    4    7      2.28      0.00 
   20    4    7      1.30      0.00 
   21    4    7      1.05      0.00 
  -21    5    7     -0.57      0.00 
  -20    5    7      0.14      0.00 
  -19    5    7      1.94      0.00 
  -18    5    7      2.74      0.00 
  -17    5    7      1.03      0.00 
  -16    5    7     -2.36      0.00 
  -15    5    7     -4.48      0.00 
  -14    5    7     -2.92      0.00 
  -13    5    7      0.53      0.00 
  -12    5    7      0.56      0.00 
  -11    5    7     -4.89      0.00 
  -10    5    7    -10.18      0.00 
   -9    5    7     -7.63      0.00 
   -8    5    7      2.89      0.00 
   -7    5    7     13.01      0.00 
   -6    5    7     14.34      0.00 
   -5    5    7      6.50      0.00 
   -4    5    7     -2.45      0.00 
   -3    5    7     -3.16      0.00 
   -2    5    7      5.42      0.00 
   -1    5    7     13.27      0.00 
    0    5    7      9.34      0.00 
    1    5    7     -4.86      0.00 
    2    5    7    -15.76      0.00 
    3    5    7    -13.35      0.00 
    4    5    7     -1.99      0.00 
    5    5    7      6.15      0.00 
    6    5    7      4.77      0.00 
    7    5    7     -2.26      0.00 
    8    5    7     -6.95      0.00 
    9    5    7     -4.74      0.00 
   10    5    7      2.19      0.00 
   11    5    7      7.31      0.00 
   12    5    7      6.27      0.00 
   13    5    7      1.28      0.00 
   14    5    7     -2.25      0.00 
   15    5    7     -2.37      0.00 
   16    5    7     -1.37      0.00 
   17    5    7     -1.08      0.00 
   18    5    7     -0.91      0.00 
   19    5    7     -0.29      0.00 
   20    5    7      0.16      0.00 
   21    5    7      0.07      0.00 
  -21    6    7     -1.08      0.00 
  -20    6    7     -0.44      0.00 
  -19    6    7     -0.29      0.00 
  -18    6    7     -1.22      0.00 
  -17    6    7     -2.63      0.00 
  -16    6    7     -2.59      0.00 
  -15    6    7      0.12      0.00 
  -14    6    7      2.89      0.00 
  -13    6    7      1.27      0.00 
  -12    6    7     -4.32      0.00 
  -11    6    7     -7.03      0.00 
  -10    6    7     -1.74      0.00 
   -9    6    7      7.74      0.00 
   -8    6    7     12.40      0.00 
   -7    6    7      7.72      0.00 
   -6    6    7     -1.69      0.00 
   -5    6    7     -6.04      0.00 
   -4    6    7      0.68      0.00 
   -3    6    7     13.69      0.00 
   -2    6    7     20.33      0.00 
   -1    6    7     13.11      0.00 
    0    6    7     -1.11      0.00 
    1    6    7     -8.65      0.00 
    2    6    7     -4.96      0.00 
    3    6    7      1.36      0.00 
    4    6    7      0.22      0.00 
    5    6    7     -8.88      0.00 
    6    6    7    -18.10      0.00 
    7    6    7    -19.91      0.00 
    8    6    7    -13.03      0.00 
    9    6    7     -2.91      0.00 
   10    6    7      2.89      0.00 
   11    6    7      1.67      0.00 
   12    6    7     -1.98      0.00 
   13    6    7     -2.24      0.00 
   14    6    7      1.01      0.00 
   15    6    7      3.83      0.00 
   16    6    7      4.37      0.00 
   17    6    7      3.83      0.00 
   18    6    7      2.92      0.00 
   19    6    7      1.39      0.00 
   20    6    7     -0.06      0.00 
  -20    7    7      1.69      0.00 
  -19    7    7      2.10      0.00 
  -18    7    7      1.77      0.00 
  -17    7    7      1.53      0.00 
  -16    7    7      2.14      0.00 
  -15    7    7      1.99      0.00 
  -14    7    7     -1.24      0.00 
  -13    7    7     -5.34      0.00 
  -12    7    7     -4.48      0.00 
  -11    7    7      2.71      0.00 
  -10    7    7      9.78      0.00 
   -9    7    7      9.77      0.00 
   -8    7    7      3.09      0.00 
   -7    7    7     -3.26      0.00 
   -6    7    7     -2.45      0.00 
   -5    7    7      6.05      0.00 
   -4    7    7     14.53      0.00 
   -3    7    7     12.96      0.00 
   -2    7    7     -0.27      0.00 
   -1    7    7    -14.77      0.00 
    0    7    7    -18.93      0.00 
    1    7    7    -12.87      0.00 
    2    7    7     -6.97      0.00 
    3    7    7     -8.69      0.00 
    4    7    7    -14.83      0.00 
    5    7    7    -16.86      0.00 
    6    7    7    -10.26      0.00 
    7    7    7      1.96      0.00 
    8    7    7     12.17      0.00 
    9    7    7     14.50      0.00 
   10    7    7     10.02      0.00 
   11    7    7      5.53      0.00 
   12    7    7      5.71      0.00 
   13    7    7      8.19      0.00 
   14    7    7      8.24      0.00 
   15    7    7      5.34      0.00 
   16    7    7      2.10      0.00 
   17    7    7     -0.56      0.00 
   18    7    7     -2.95      0.00 
   19    7    7     -3.94      0.00 
   20    7    7     -2.60      0.00 
  -20    8    7      0.51      0.00 
  -19    8    7      0.42      0.00 
  -18    8    7      0.08      0.00 
  -17    8    7     -0.34      0.00 
  -16    8    7     -1.36      0.00 
  -15    8    7     -3.54      0.00 
  -14    8    7     -4.76      0.00 
  -13    8    7     -1.89      0.00 
  -12    8    7      3.58      0.00 
  -11    8    7      5.50      0.00 
  -10    8    7      0.76      0.00 
   -9    8    7     -6.39      0.00 
   -8    8    7     -9.25      0.00 
   -7    8    7     -5.49      0.00 
   -6    8    7      1.28      0.00 
   -5    8    7      4.54      0.00 
   -4    8    7      0.03      0.00 
   -3    8    7     -9.31      0.00 
   -2    8    7    -14.61      0.00 
   -1    8    7    -10.07      0.00 
    0    8    7      0.02      0.00 
    1    8    7      5.79      0.00 
    2    8    7      3.00      0.00 
    3    8    7     -2.85      0.00 
    4    8    7     -3.53      0.00 
    5    8    7      2.95      0.00 
    6    8    7     11.12      0.00 
    7    8    7     14.10      0.00 
    8    8    7      9.94      0.00 
    9    8    7      2.98      0.00 
   10    8    7     -0.64      0.00 
   11    8    7      0.72      0.00 
   12    8    7      2.92      0.00 
   13    8    7      1.95      0.00 
   14    8    7     -1.17      0.00 
   15    8    7     -3.30      0.00 
   16    8    7     -4.04      0.00 
   17    8    7     -4.52      0.00 
   18    8    7     -4.06      0.00 
   19    8    7     -1.86      0.00 
   20    8    7      0.27      0.00 
  -19    9    7      1.18      0.00 
  -18    9    7     -0.97      0.00 
  -17    9    7     -3.66      0.00 
  -16    9    7     -5.68      0.00 
  -15    9    7     -5.75      0.00 
  -14    9    7     -3.32      0.00 
  -13    9    7     -0.71      0.00 
  -12    9    7     -1.57      0.00 
  -11    9    7     -5.61      0.00 
  -10    9    7     -7.76      0.00 
   -9    9    7     -4.16      0.00 
   -8    9    7      3.22      0.00 
   -7    9    7      9.01      0.00 
   -6    9    7      9.53      0.00 
   -5    9    7      5.42      0.00 
   -4    9    7      0.90      0.00 
   -3    9    7      0.48      0.00 
   -2    9    7      4.63      0.00 
   -1    9    7      8.59      0.00 
    0    9    7      6.82      0.00 
    1    9    7     -0.66      0.00 
    2    9    7     -7.61      0.00 
    3    9    7     -7.81      0.00 
    4    9    7     -1.75      0.00 
    5    9    7      4.27      0.00 
    6    9    7      5.13      0.00 
    7    9    7      1.61      0.00 
    8    9    7     -1.71      0.00 
    9    9    7     -1.60      0.00 
   10    9    7      1.08      0.00 
   11    9    7      2.97      0.00 
   12    9    7      2.09      0.00 
   13    9    7     -0.05      0.00 
   14    9    7     -1.07      0.00 
   15    9    7     -1.01      0.00 
   16    9    7     -1.14      0.00 
   17    9    7     -1.10      0.00 
   18    9    7     -0.05      0.00 
   19    9    7      0.96      0.00 
  -19   10    7     -4.28      0.00 
  -18   10    7     -6.10      0.00 
  -17   10    7     -5.44      0.00 
  -16   10    7     -3.06      0.00 
  -15   10    7     -0.35      0.00 
  -14   10    7      1.11      0.00 
  -13   10    7      0.42      0.00 
  -12   10    7     -0.75      0.00 
  -11   10    7      0.75      0.00 
  -10   10    7      5.29      0.00 
   -9   10    7      9.13      0.00 
   -8   10    7      8.59      0.00 
   -7   10    7      3.98      0.00 
   -6   10    7     -1.21      0.00 
   -5   10    7     -3.85      0.00 
   -4   10    7     -3.41      0.00 
   -3   10    7     -1.91      0.00 
   -2   10    7     -2.06      0.00 
   -1   10    7     -4.89      0.00 
    0   10    7     -8.46      0.00 
    1   10    7     -8.98      0.00 
    2   10    7     -4.26      0.00 
    3   10    7      3.33      0.00 
    4   10    7      8.59      0.00 
    5   10    7      8.72      0.00 
    6   10    7      5.70      0.00 
    7   10    7      3.14      0.00 
    8   10    7      2.55      0.00 
    9   10    7      3.11      0.00 
   10   10    7      3.42      0.00 
   11   10    7      2.65      0.00 
   12   10    7      1.20      0.00 
   13   10    7      0.18      0.00 
   14   10    7     -0.15      0.00 
   15   10    7     -0.44      0.00 
   16   10    7     -0.74      0.00 
   17   10    7     -0.60      0.00 
   18   10    7     -0.33      0.00 
  -18   11    7      0.96      0.00 
  -17   11    7      1.82      0.00 
  -16   11    7      1.10      0.00 
  -15   11    7     -0.63      0.00 
  -14   11    7     -2.37      0.00 
  -13   11    7     -2.84      0.00 
  -12   11    7     -1.26      0.00 
  -11   11    7      0.89      0.00 
  -10   11    7      0.77      0.00 
   -9   11    7     -2.17      0.00 
   -8   11    7     -5.12      0.00 
   -7   11    7     -5.19      0.00 
   -6   11    7     -2.45      0.00 
   -5   11    7      0.81      0.00 
   -4   11    7      2.52      0.00 
   -3   11    7      2.30      0.00 
   -2   11    7      1.21      0.00 
   -1   11    7      0.74      0.00 
    0   11    7      1.87      0.00 
    1   11    7      4.41      0.00 
    2   11    7      6.75      0.00 
    3   11    7      6.84      0.00 
    4   11    7      4.24      0.00 
    5   11    7      0.70      0.00 
    6   11    7     -1.69      0.00 
    7   11    7     -2.17      0.00 
    8   11    7     -1.17      0.00 
    9   11    7      0.20      0.00 
   10   11    7      0.42      0.00 
   11   11    7     -1.17      0.00 
   12   11    7     -3.27      0.00 
   13   11    7     -4.17      0.00 
   14   11    7     -3.69      0.00 
   15   11    7     -2.70      0.00 
   16   11    7     -1.65      0.00 
   17   11    7     -0.66      0.00 
   18   11    7      0.02      0.00 
  -17   12    7     -3.20      0.00 
  -16   12    7     -4.39      0.00 
  -15   12    7     -3.83      0.00 
  -14   12    7     -1.59      0.00 
  -13   12    7      1.57      0.00 
  -12   12    7      3.94      0.00 
  -11   12    7      4.02      0.00 
  -10   12    7      2.88      0.00 
   -9   12    7      3.21      0.00 
   -8   12    7      5.76      0.00 
   -7   12    7      8.15      0.00 
   -6   12    7      7.92      0.00 
   -5   12    7      5.06      0.00 
   -4   12    7      1.34      0.00 
   -3   12    7     -1.60      0.00 
   -2   12    7     -3.17      0.00 
   -1   12    7     -3.65      0.00 
    0   12    7     -3.46      0.00 
    1   12    7     -2.92      0.00 
    2   12    7     -2.29      0.00 
    3   12    7     -1.87      0.00 
    4   12    7     -1.84      0.00 
    5   12    7     -1.94      0.00 
    6   12    7     -1.47      0.00 
    7   12    7      0.02      0.00 
    8   12    7      1.60      0.00 
    9   12    7      1.32      0.00 
   10   12    7     -1.22      0.00 
   11   12    7     -3.65      0.00 
   12   12    7     -3.47      0.00 
   13   12    7     -1.24      0.00 
   14   12    7      0.58      0.00 
   15   12    7      0.93      0.00 
   16   12    7      0.56      0.00 
   17   12    7      0.23      0.00 
  -16   13    7      2.56      0.00 
  -15   13    7      4.84      0.00 
  -14   13    7      6.31      0.00 
  -13   13    7      6.06      0.00 
  -12   13    7      4.02      0.00 
  -11   13    7      1.81      0.00 
  -10   13    7      1.31      0.00 
   -9   13    7      2.05      0.00 
   -8   13    7      1.55      0.00 
   -7   13    7     -1.29      0.00 
   -6   13    7     -4.74      0.00 
   -5   13    7     -6.45      0.00 
   -4   13    7     -5.95      0.00 
   -3   13    7     -4.42      0.00 
   -2   13    7     -3.02      0.00 
   -1   13    7     -1.93      0.00 
    0   13    7     -0.65      0.00 
    1   13    7      1.08      0.00 
    2   13    7      2.64      0.00 
    3   13    7      2.94      0.00 
    4   13    7      1.82      0.00 
    5   13    7      0.73      0.00 
    6   13    7      1.11      0.00 
    7   13    7      2.17      0.00 
    8   13    7      1.50      0.00 
    9   13    7     -1.33      0.00 
   10   13    7     -3.40      0.00 
   11   13    7     -2.24      0.00 
   12   13    7      0.57      0.00 
   13   13    7      1.61      0.00 
   14   13    7      0.22      0.00 
   15   13    7     -1.33      0.00 
   16   13    7     -1.46      0.00 
  -15   14    7     -0.35      0.00 
  -14   14    7     -1.95      0.00 
  -13   14    7     -3.22      0.00 
  -12   14    7     -2.98      0.00 
  -11   14    7     -1.07      0.00 
  -10   14    7      0.95      0.00 
   -9   14    7      1.17      0.00 
   -8   14    7     -0.36      0.00 
   -7   14    7     -1.52      0.00 
   -6   14    7     -0.76      0.00 
   -5   14    7      1.07      0.00 
   -4   14    7      1.91      0.00 
   -3   14    7      1.06      0.00 
   -2   14    7     -0.26      0.00 
   -1   14    7     -0.57      0.00 
    0   14    7      0.29      0.00 
    1   14    7      1.13      0.00 
    2   14    7      0.73      0.00 
    3   14    7     -0.76      0.00 
    4   14    7     -1.68      0.00 
    5   14    7     -0.72      0.00 
    6   14    7      0.88      0.00 
    7   14    7      0.46      0.00 
    8   14    7     -2.28      0.00 
    9   14    7     -4.07      0.00 
   10   14    7     -2.36      0.00 
   11   14    7      0.82      0.00 
   12   14    7      1.57      0.00 
   13   14    7     -0.50      0.00 
   14   14    7     -2.27      0.00 
   15   14    7     -1.85      0.00 
  -14   15    7      0.87      0.00 
  -13   15    7      2.82      0.00 
  -12   15    7      4.66      0.00 
  -11   15    7      4.84      0.00 
  -10   15    7      2.98      0.00 
   -9   15    7      0.45      0.00 
   -8   15    7     -0.86      0.00 
   -7   15    7     -0.53      0.00 
   -6   15    7     -0.10      0.00 
   -5   15    7     -1.15      0.00 
   -4   15    7     -3.25      0.00 
   -3   15    7     -4.31      0.00 
   -2   15    7     -3.15      0.00 
   -1   15    7     -0.83      0.00 
    0   15    7      0.67      0.00 
    1   15    7      0.69      0.00 
    2   15    7      0.31      0.00 
    3   15    7      0.95      0.00 
    4   15    7      2.62      0.00 
    5   15    7      3.52      0.00 
    6   15    7      1.85      0.00 
    7   15    7     -1.54      0.00 
    8   15    7     -3.17      0.00 
    9   15    7     -0.94      0.00 
   10   15    7      2.84      0.00 
   11   15    7      4.03      0.00 
   12   15    7      1.96      0.00 
   13   15    7     -0.31      0.00 
   14   15    7     -0.49      0.00 
  -13   16    7      0.47      0.00 
  -12   16    7     -0.89      0.00 
  -11   16    7     -2.77      0.00 
  -10   16    7     -3.75      0.00 
   -9   16    7     -3.06      0.00 
   -8   16    7     -1.55      0.00 
   -7   16    7     -0.88      0.00 
   -6   16    7     -1.67      0.00 
   -5   16    7     -2.59      0.00 
   -4   16    7     -1.78      0.00 
   -3   16    7      0.87      0.00 
   -2   16    7      3.34      0.00 
   -1   16    7      3.74      0.00 
    0   16    7      2.51      0.00 
    1   16    7      1.68      0.00 
    2   16    7      2.19      0.00 
    3   16    7      2.76      0.00 
    4   16    7      1.57      0.00 
    5   16    7     -1.48      0.00 
    6   16    7     -4.26      0.00 
    7   16    7     -4.26      0.00 
    8   16    7     -1.15      0.00 
    9   16    7      2.46      0.00 
   10   16    7      3.36      0.00 
   11   16    7      1.17      0.00 
   12   16    7     -1.38      0.00 
  -11   17    7      0.49      0.00 
  -10   17    7      1.62      0.00 
   -9   17    7      2.33      0.00 
   -8   17    7      1.69      0.00 
   -7   17    7      0.10      0.00 
   -6   17    7     -0.86      0.00 
   -5   17    7      0.00      0.00 
   -4   17    7      1.99      0.00 
   -3   17    7      3.11      0.00 
   -2   17    7      2.21      0.00 
   -1   17    7      0.49      0.00 
    0   17    7      0.19      0.00 
    1   17    7      1.73      0.00 
    2   17    7      2.98      0.00 
    3   17    7      2.05      0.00 
    4   17    7     -0.19      0.00 
    5   17    7     -1.22      0.00 
    6   17    7      0.04      0.00 
    7   17    7      2.38      0.00 
    8   17    7      3.84      0.00 
    9   17    7      3.41      0.00 
   10   17    7      1.63      0.00 
   11   17    7      0.06      0.00 
   -9   18    7     -0.79      0.00 
   -8   18    7     -1.24      0.00 
   -7   18    7     -0.75      0.00 
   -6   18    7      0.86      0.00 
   -5   18    7      2.63      0.00 
   -4   18    7      3.24      0.00 
   -3   18    7      2.28      0.00 
   -2   18    7      0.98      0.00 
   -1   18    7      1.04      0.00 
    0   18    7      2.42      0.00 
    1   18    7      2.98      0.00 
    2   18    7      1.25      0.00 
    3   18    7     -1.30      0.00 
    4   18    7     -2.06      0.00 
    5   18    7     -0.72      0.00 
    6   18    7      0.68      0.00 
    7   18    7      0.76      0.00 
    8   18    7      0.10      0.00 
   -6   19    7      1.04      0.00 
   -5   19    7      0.73      0.00 
   -4   19    7     -0.10      0.00 
   -3   19    7     -0.80      0.00 
   -2   19    7     -0.57      0.00 
   -1   19    7      0.43      0.00 
    0   19    7      0.87      0.00 
    1   19    7     -0.02      0.00 
    2   19    7     -1.01      0.00 
    3   19    7     -0.43      0.00 
    4   19    7      1.24      0.00 
    5   19    7      1.88      0.00 
  -22    0    8      0.82      0.00 
  -21    0    8     -1.11      0.00 
  -20    0    8     -1.10      0.00 
  -19    0    8      1.58      0.00 
  -18    0    8      3.50      0.00 
  -17    0    8      2.16      0.00 
  -16    0    8      0.16      0.00 
  -15    0    8      2.06      0.00 
  -14    0    8      8.58      0.00 
  -13    0    8     15.33      0.00 
  -12    0    8     16.47      0.00 
  -11    0    8      9.85      0.00 
  -10    0    8     -0.16      0.00 
   -9    0    8     -6.06      0.00 
   -8    0    8     -5.45      0.00 
   -7    0    8     -4.83      0.00 
   -6    0    8    -12.04      0.00 
   -5    0    8    -25.27      0.00 
   -4    0    8    -32.72      0.00 
   -3    0    8    -24.49      0.00 
   -2    0    8     -3.99      0.00 
   -1    0    8     13.08      0.00 
    0    0    8     12.62      0.00 
    1    0    8     -2.96      0.00 
    2    0    8    -14.98      0.00 
    3    0    8     -7.36      0.00 
    4    0    8     15.13      0.00 
    5    0    8     31.61      0.00 
    6    0    8     28.09      0.00 
    7    0    8     10.94      0.00 
    8    0    8     -3.18      0.00 
    9    0    8     -5.33      0.00 
   10    0    8      0.37      0.00 
   11    0    8      4.99      0.00 
   12    0    8      4.36      0.00 
   13    0    8      1.10      0.00 
   14    0    8     -0.27      0.00 
   15    0    8      1.24      0.00 
   16    0    8      2.99      0.00 
   17    0    8      2.83      0.00 
   18    0    8      1.33      0.00 
   19    0    8     -0.01      0.00 
   20    0    8     -0.62      0.00 
   21    0    8     -0.49      0.00 
  -21    1    8     -1.08      0.00 
  -20    1    8      1.24      0.00 
  -19    1    8      2.00      0.00 
  -18    1    8     -0.03      0.00 
  -17    1    8     -1.79      0.00 
  -16    1    8     -0.08      0.00 
  -15    1    8      3.67      0.00 
  -14    1    8      4.78      0.00 
  -13    1    8      0.34      0.00 
  -12    1    8     -7.81      0.00 
  -11    1    8    -13.93      0.00 
  -10    1    8    -13.18      0.00 
   -9    1    8     -7.18      0.00 
   -8    1    8     -3.74      0.00 
   -7    1    8     -8.06      0.00 
   -6    1    8    -15.13      0.00 
   -5    1    8    -14.18      0.00 
   -4    1    8     -1.28      0.00 
   -3    1    8     14.97      0.00 
   -2    1    8     21.01      0.00 
   -1    1    8     11.51      0.00 
    0    1    8     -4.00      0.00 
    1    1    8     -8.63      0.00 
    2    1    8      4.71      0.00 
    3    1    8     23.91      0.00 
    4    1    8     29.47      0.00 
    5    1    8     15.91      0.00 
    6    1    8     -2.97      0.00 
    7    1    8    -10.79      0.00 
    8    1    8     -5.17      0.00 
    9    1    8      3.81      0.00 
   10    1    8      6.74      0.00 
   11    1    8      2.83      0.00 
   12    1    8     -2.39      0.00 
   13    1    8     -4.09      0.00 
   14    1    8     -2.49      0.00 
   15    1    8     -1.08      0.00 
   16    1    8     -1.62      0.00 
   17    1    8     -2.65      0.00 
   18    1    8     -2.60      0.00 
   19    1    8     -1.86      0.00 
   20    1    8     -1.17      0.00 
   21    1    8     -0.46      0.00 
  -22    2    8     -0.24      0.00 
  -21    2    8      0.05      0.00 
  -20    2    8     -1.07      0.00 
  -19    2    8     -3.34      0.00 
  -18    2    8     -4.07      0.00 
  -17    2    8     -1.82      0.00 
  -16    2    8      1.07      0.00 
  -15    2    8      1.27      0.00 
  -14    2    8     -1.37      0.00 
  -13    2    8     -3.76      0.00 
  -12    2    8     -2.59      0.00 
  -11    2    8      2.29      0.00 
  -10    2    8      6.56      0.00 
   -9    2    8      4.35      0.00 
   -8    2    8     -4.83      0.00 
   -7    2    8    -13.08      0.00 
   -6    2    8    -11.57      0.00 
   -5    2    8     -1.02      0.00 
   -4    2    8      8.43      0.00 
   -3    2    8      8.16      0.00 
   -2    2    8     -0.11      0.00 
   -1    2    8     -6.11      0.00 
    0    2    8     -0.57      0.00 
    1    2    8     15.11      0.00 
    2    2    8     28.07      0.00 
    3    2    8     25.80      0.00 
    4    2    8     10.18      0.00 
    5    2    8     -4.21      0.00 
    6    2    8     -6.58      0.00 
    7    2    8     -0.51      0.00 
    8    2    8      3.31      0.00 
    9    2    8     -0.16      0.00 
   10    2    8     -7.29      0.00 
   11    2    8    -11.75      0.00 
   12    2    8    -10.63      0.00 
   13    2    8     -6.17      0.00 
   14    2    8     -2.55      0.00 
   15    2    8     -1.21      0.00 
   16    2    8     -0.28      0.00 
   17    2    8      1.33      0.00 
   18    2    8      2.22      0.00 
   19    2    8      1.63      0.00 
   20    2    8      0.93      0.00 
   21    2    8      0.97      0.00 
  -21    3    8      0.10      0.00 
  -20    3    8      0.20      0.00 
  -19    3    8      1.14      0.00 
  -18    3    8      2.96      0.00 
  -17    3    8      4.08      0.00 
  -16    3    8      3.12      0.00 
  -15    3    8      1.08      0.00 
  -14    3    8      0.29      0.00 
  -13    3    8      1.37      0.00 
  -12    3    8      2.14      0.00 
  -11    3    8     -0.72      0.00 
  -10    3    8     -8.44      0.00 
   -9    3    8    -17.43      0.00 
   -8    3    8    -20.32      0.00 
   -7    3    8    -12.81      0.00 
   -6    3    8      0.13      0.00 
   -5    3    8      8.22      0.00 
   -4    3    8      6.99      0.00 
   -3    3    8      2.11      0.00 
   -2    3    8      2.13      0.00 
   -1    3    8      9.57      0.00 
    0    3    8     19.02      0.00 
    1    3    8     21.99      0.00 
    2    3    8     14.42      0.00 
    3    3    8      1.50      0.00 
    4    3    8     -6.57      0.00 
    5    3    8     -5.47      0.00 
    6    3    8     -0.81      0.00 
    7    3    8     -0.21      0.00 
    8    3    8     -4.54      0.00 
    9    3    8     -8.81      0.00 
   10    3    8     -8.66      0.00 
   11    3    8     -3.97      0.00 
   12    3    8      1.79      0.00 
   13    3    8      4.80      0.00 
   14    3    8      4.43      0.00 
   15    3    8      3.12      0.00 
   16    3    8      2.32      0.00 
   17    3    8      1.10      0.00 
   18    3    8     -0.74      0.00 
   19    3    8     -1.40      0.00 
   20    3    8     -0.34      0.00 
   21    3    8      0.60      0.00 
  -21    4    8     -0.18      0.00 
  -20    4    8     -1.27      0.00 
  -19    4    8     -2.64      0.00 
  -18    4    8     -3.69      0.00 
  -17    4    8     -4.55      0.00 
  -16    4    8     -5.04      0.00 
  -15    4    8     -4.40      0.00 
  -14    4    8     -3.05      0.00 
  -13    4    8     -3.14      0.00 
  -12    4    8     -6.00      0.00 
  -11    4    8     -9.95      0.00 
  -10    4    8    -11.21      0.00 
   -9    4    8     -6.66      0.00 
   -8    4    8      3.14      0.00 
   -7    4    8     12.44      0.00 
   -6    4    8     14.41      0.00 
   -5    4    8      8.86      0.00 
   -4    4    8      3.33      0.00 
   -3    4    8      4.51      0.00 
   -2    4    8     10.99      0.00 
   -1    4    8     16.26      0.00 
    0    4    8     15.97      0.00 
    1    4    8     10.73      0.00 
    2    4    8      4.47      0.00 
    3    4    8      1.13      0.00 
    4    4    8      1.13      0.00 
    5    4    8      0.83      0.00 
    6    4    8     -2.95      0.00 
    7    4    8     -8.72      0.00 
    8    4    8    -12.21      0.00 
    9    4    8    -11.14      0.00 
   10    4    8     -6.96      0.00 
   11    4    8     -3.10      0.00 
   12    4    8     -2.10      0.00 
   13    4    8     -3.57      0.00 
   14    4    8     -4.98      0.00 
   15    4    8     -4.88      0.00 
   16    4    8     -3.92      0.00 
   17    4    8     -2.59      0.00 
   18    4    8     -0.43      0.00 
   19    4    8      1.88      0.00 
   20    4    8      2.50      0.00 
   21    4    8      1.21      0.00 
  -21    5    8     -2.63      0.00 
  -20    5    8     -3.64      0.00 
  -19    5    8     -2.62      0.00 
  -18    5    8     -0.22      0.00 
  -17    5    8      1.81      0.00 
  -16    5    8      3.03      0.00 
  -15    5    8      3.56      0.00 
  -14    5    8      2.70      0.00 
  -13    5    8      0.52      0.00 
  -12    5    8     -0.87      0.00 
  -11    5    8      0.32      0.00 
  -10    5    8      3.41      0.00 
   -9    5    8      6.35      0.00 
   -8    5    8      7.10      0.00 
   -7    5    8      4.38      0.00 
   -6    5    8     -0.07      0.00 
   -5    5    8     -1.35      0.00 
   -4    5    8      3.35      0.00 
   -3    5    8     10.38      0.00 
   -2    5    8     13.70      0.00 
   -1    5    8     11.32      0.00 
    0    5    8      5.50      0.00 
    1    5    8     -1.09      0.00 
    2    5    8     -6.81      0.00 
    3    5    8    -10.93      0.00 
    4    5    8    -14.03      0.00 
    5    5    8    -17.09      0.00 
    6    5    8    -19.31      0.00 
    7    5    8    -18.50      0.00 
    8    5    8    -13.92      0.00 
    9    5    8     -7.45      0.00 
   10    5    8     -1.79      0.00 
   11    5    8      1.60      0.00 
   12    5    8      3.11      0.00 
   13    5    8      3.98      0.00 
   14    5    8      4.93      0.00 
   15    5    8      5.86      0.00 
   16    5    8      6.74      0.00 
   17    5    8      7.44      0.00 
   18    5    8      6.96      0.00 
   19    5    8      4.57      0.00 
   20    5    8      1.49      0.00 
   21    5    8     -0.20      0.00 
  -21    6    8      0.12      0.00 
  -20    6    8      2.70      0.00 
  -19    6    8      5.68      0.00 
  -18    6    8      6.55      0.00 
  -17    6    8      4.81      0.00 
  -16    6    8      1.86      0.00 
  -15    6    8     -1.11      0.00 
  -14    6    8     -3.12      0.00 
  -13    6    8     -2.95      0.00 
  -12    6    8     -1.07      0.00 
  -11    6    8      0.08      0.00 
  -10    6    8     -0.58      0.00 
   -9    6    8     -1.48      0.00 
   -8    6    8     -1.19      0.00 
   -7    6    8      0.03      0.00 
   -6    6    8      2.07      0.00 
   -5    6    8      4.95      0.00 
   -4    6    8      7.08      0.00 
   -3    6    8      6.28      0.00 
   -2    6    8      2.49      0.00 
   -1    6    8     -2.66      0.00 
    0    6    8     -7.72      0.00 
    1    6    8    -11.27      0.00 
    2    6    8    -11.98      0.00 
    3    6    8    -10.23      0.00 
    4    6    8     -7.92      0.00 
    5    6    8     -5.79      0.00 
    6    6    8     -2.84      0.00 
    7    6    8      1.33      0.00 
    8    6    8      5.59      0.00 
    9    6    8      8.64      0.00 
   10    6    8      9.90      0.00 
   11    6    8      9.24      0.00 
   12    6    8      7.06      0.00 
   13    6    8      4.47      0.00 
   14    6    8      2.73      0.00 
   15    6    8      2.23      0.00 
   16    6    8      2.02      0.00 
   17    6    8      0.62      0.00 
   18    6    8     -1.95      0.00 
   19    6    8     -3.78      0.00 
   20    6    8     -3.32      0.00 
  -20    7    8      1.95      0.00 
  -19    7    8      1.71      0.00 
  -18    7    8     -0.34      0.00 
  -17    7    8     -2.79      0.00 
  -16    7    8     -3.94      0.00 
  -15    7    8     -3.02      0.00 
  -14    7    8     -0.54      0.00 
  -13    7    8      1.38      0.00 
  -12    7    8      0.64      0.00 
  -11    7    8     -1.83      0.00 
  -10    7    8     -2.60      0.00 
   -9    7    8     -0.47      0.00 
   -8    7    8      1.89      0.00 
   -7    7    8      1.76      0.00 
   -6    7    8     -0.20      0.00 
   -5    7    8     -1.46      0.00 
   -4    7    8     -0.72      0.00 
   -3    7    8      0.95      0.00 
   -2    7    8      1.36      0.00 
   -1    7    8     -0.26      0.00 
    0    7    8     -1.99      0.00 
    1    7    8     -1.58      0.00 
    2    7    8      0.20      0.00 
    3    7    8      0.77      0.00 
    4    7    8     -0.55      0.00 
    5    7    8     -2.08      0.00 
    6    7    8     -2.45      0.00 
    7    7    8     -1.56      0.00 
    8    7    8      0.19      0.00 
    9    7    8      1.63      0.00 
   10    7    8      1.21      0.00 
   11    7    8     -1.05      0.00 
   12    7    8     -2.81      0.00 
   13    7    8     -2.18      0.00 
   14    7    8     -0.03      0.00 
   15    7    8      1.14      0.00 
   16    7    8      0.03      0.00 
   17    7    8     -2.20      0.00 
   18    7    8     -3.34      0.00 
   19    7    8     -2.47      0.00 
   20    7    8     -0.79      0.00 
  -20    8    8      2.09      0.00 
  -19    8    8      1.18      0.00 
  -18    8    8     -0.77      0.00 
  -17    8    8     -1.87      0.00 
  -16    8    8     -1.22      0.00 
  -15    8    8     -0.08      0.00 
  -14    8    8     -0.66      0.00 
  -13    8    8     -3.35      0.00 
  -12    8    8     -5.48      0.00 
  -11    8    8     -3.98      0.00 
  -10    8    8      0.44      0.00 
   -9    8    8      3.51      0.00 
   -8    8    8      2.54      0.00 
   -7    8    8     -0.17      0.00 
   -6    8    8     -0.07      0.00 
   -5    8    8      4.09      0.00 
   -4    8    8      8.48      0.00 
   -3    8    8      8.13      0.00 
   -2    8    8      2.58      0.00 
   -1    8    8     -3.50      0.00 
    0    8    8     -5.84      0.00 
    1    8    8     -5.28      0.00 
    2    8    8     -5.34      0.00 
    3    8    8     -7.03      0.00 
    4    8    8     -8.14      0.00 
    5    8    8     -6.53      0.00 
    6    8    8     -2.03      0.00 
    7    8    8      3.68      0.00 
    8    8    8      7.52      0.00 
    9    8    8      7.21      0.00 
   10    8    8      4.31      0.00 
   11    8    8      3.06      0.00 
   12    8    8      5.08      0.00 
   13    8    8      7.32      0.00 
   14    8    8      6.33      0.00 
   15    8    8      2.43      0.00 
   16    8    8     -1.38      0.00 
   17    8    8     -3.04      0.00 
   18    8    8     -2.66      0.00 
   19    8    8     -1.40      0.00 
  -19    9    8     -3.07      0.00 
  -18    9    8     -3.86      0.00 
  -17    9    8     -3.03      0.00 
  -16    9    8     -2.31      0.00 
  -15    9    8     -3.32      0.00 
  -14    9    8     -5.08      0.00 
  -13    9    8     -4.72      0.00 
  -12    9    8     -1.04      0.00 
  -11    9    8      3.22      0.00 
  -10    9    8      3.84      0.00 
   -9    9    8      0.18      0.00 
   -8    9    8     -3.53      0.00 
   -7    9    8     -2.75      0.00 
   -6    9    8      1.91      0.00 
   -5    9    8      4.90      0.00 
   -4    9    8      1.90      0.00 
   -3    9    8     -4.96      0.00 
   -2    9    8     -9.15      0.00 
   -1    9    8     -7.05      0.00 
    0    9    8     -1.65      0.00 
    1    9    8      1.58      0.00 
    2    9    8      1.14      0.00 
    3    9    8      0.27      0.00 
    4    9    8      2.40      0.00 
    5    9    8      7.41      0.00 
    6    9    8     11.75      0.00 
    7    9    8     11.60      0.00 
    8    9    8      6.58      0.00 
    9    9    8      0.94      0.00 
   10    9    8     -0.47      0.00 
   11    9    8      2.14      0.00 
   12    9    8      3.90      0.00 
   13    9    8      1.62      0.00 
   14    9    8     -2.48      0.00 
   15    9    8     -4.54      0.00 
   16    9    8     -3.85      0.00 
   17    9    8     -2.31      0.00 
   18    9    8     -1.15      0.00 
   19    9    8     -0.30      0.00 
  -19   10    8     -0.10      0.00 
  -18   10    8     -0.38      0.00 
  -17   10    8     -1.80      0.00 
  -16   10    8     -4.19      0.00 
  -15   10    8     -5.65      0.00 
  -14   10    8     -4.36      0.00 
  -13   10    8     -1.07      0.00 
  -12   10    8      0.92      0.00 
  -11   10    8     -0.85      0.00 
  -10   10    8     -4.60      0.00 
   -9   10    8     -5.46      0.00 
   -8   10    8     -0.87      0.00 
   -7   10    8      5.76      0.00 
   -6   10    8      8.30      0.00 
   -5   10    8      4.89      0.00 
   -4   10    8      0.09      0.00 
   -3   10    8     -0.34      0.00 
   -2   10    8      4.10      0.00 
   -1   10    8      8.40      0.00 
    0   10    8      7.66      0.00 
    1   10    8      2.33      0.00 
    2   10    8     -2.41      0.00 
    3   10    8     -2.29      0.00 
    4   10    8      1.50      0.00 
    5   10    8      3.77      0.00 
    6   10    8      1.20      0.00 
    7   10    8     -4.02      0.00 
    8   10    8     -6.70      0.00 
    9   10    8     -4.31      0.00 
   10   10    8      0.23      0.00 
   11   10    8      1.91      0.00 
   12   10    8     -0.65      0.00 
   13   10    8     -3.87      0.00 
   14   10    8     -4.05      0.00 
   15   10    8     -1.69      0.00 
   16   10    8      0.24      0.00 
   17   10    8      0.63      0.00 
   18   10    8      0.61      0.00 
  -18   11    8     -4.44      0.00 
  -17   11    8     -5.22      0.00 
  -16   11    8     -4.00      0.00 
  -15   11    8     -0.84      0.00 
  -14   11    8      2.51      0.00 
  -13   11    8      3.73      0.00 
  -12   11    8      2.41      0.00 
  -11   11    8      1.12      0.00 
  -10   11    8      3.11      0.00 
   -9   11    8      8.24      0.00 
   -8   11    8     11.90      0.00 
   -7   11    8      9.72      0.00 
   -6   11    8      3.05      0.00 
   -5   11    8     -2.17      0.00 
   -4   11    8     -2.32      0.00 
   -3   11    8      0.21      0.00 
   -2   11    8      0.43      0.00 
   -1   11    8     -3.57      0.00 
    0   11    8     -8.82      0.00 
    1   11    8    -10.28      0.00 
    2   11    8     -5.76      0.00 
    3   11    8      1.22      0.00 
    4   11    8      4.61      0.00 
    5   11    8      2.43      0.00 
    6   11    8     -1.17      0.00 
    7   11    8     -1.35      0.00 
    8   11    8      1.95      0.00 
    9   11    8      4.79      0.00 
   10   11    8      4.09      0.00 
   11   11    8      0.64      0.00 
   12   11    8     -2.02      0.00 
   13   11    8     -1.50      0.00 
   14   11    8      0.79      0.00 
   15   11    8      1.71      0.00 
   16   11    8      0.56      0.00 
   17   11    8     -0.72      0.00 
   18   11    8     -0.94      0.00 
  -17   12    8      2.24      0.00 
  -16   12    8      3.97      0.00 
  -15   12    8      4.57      0.00 
  -14   12    8      3.34      0.00 
  -13   12    8      1.16      0.00 
  -12   12    8      0.10      0.00 
  -11   12    8      1.37      0.00 
  -10   12    8      3.49      0.00 
   -9   12    8      3.09      0.00 
   -8   12    8     -1.24      0.00 
   -7   12    8     -6.33      0.00 
   -6   12    8     -7.35      0.00 
   -5   12    8     -3.63      0.00 
   -4   12    8      0.41      0.00 
   -3   12    8      0.69      0.00 
   -2   12    8     -2.15      0.00 
   -1   12    8     -4.17      0.00 
    0   12    8     -2.28      0.00 
    1   12    8      3.00      0.00 
    2   12    8      7.52      0.00 
    3   12    8      7.07      0.00 
    4   12    8      2.24      0.00 
    5   12    8     -1.80      0.00 
    6   12    8     -1.45      0.00 
    7   12    8      1.46      0.00 
    8   12    8      2.84      0.00 
    9   12    8      1.12      0.00 
   10   12    8     -2.01      0.00 
   11   12    8     -3.86      0.00 
   12   12    8     -3.18      0.00 
   13   12    8     -1.36      0.00 
   14   12    8     -0.85      0.00 
   15   12    8     -1.96      0.00 
   16   12    8     -2.57      0.00 
   17   12    8     -1.55      0.00 
  -16   13    8     -1.24      0.00 
  -15   13    8     -2.88      0.00 
  -14   13    8     -3.64      0.00 
  -13   13    8     -2.30      0.00 
  -12   13    8      0.65      0.00 
  -11   13    8      3.04      0.00 
  -10   13    8      2.93      0.00 
   -9   13    8      0.77      0.00 
   -8   13    8     -0.51      0.00 
   -7   13    8      1.46      0.00 
   -6   13    8      5.14      0.00 
   -5   13    8      6.20      0.00 
   -4   13    8      2.75      0.00 
   -3   13    8     -2.39      0.00 
   -2   13    8     -5.01      0.00 
   -1   13    8     -3.71      0.00 
    0   13    8     -0.61      0.00 
    1   13    8      0.86      0.00 
    2   13    8     -1.08      0.00 
    3   13    8     -4.45      0.00 
    4   13    8     -5.31      0.00 
    5   13    8     -2.53      0.00 
    6   13    8      0.86      0.00 
    7   13    8      1.66      0.00 
    8   13    8     -0.13      0.00 
    9   13    8     -2.37      0.00 
   10   13    8     -3.07      0.00 
   11   13    8     -1.59      0.00 
   12   13    8      0.74      0.00 
   13   13    8      1.47      0.00 
   14   13    8      0.14      0.00 
   15   13    8     -0.98      0.00 
   16   13    8     -0.40      0.00 
  -15   14    8      1.39      0.00 
  -14   14    8      3.77      0.00 
  -13   14    8      5.86      0.00 
  -12   14    8      5.79      0.00 
  -11   14    8      3.26      0.00 
  -10   14    8      0.10      0.00 
   -9   14    8     -1.29      0.00 
   -8   14    8     -0.32      0.00 
   -7   14    8      0.72      0.00 
   -6   14    8     -1.00      0.00 
   -5   14    8     -5.20      0.00 
   -4   14    8     -8.35      0.00 
   -3   14    8     -7.66      0.00 
   -2   14    8     -3.94      0.00 
   -1   14    8     -0.27      0.00 
    0   14    8      1.00      0.00 
    1   14    8      0.04      0.00 
    2   14    8     -0.75      0.00 
    3   14    8      0.69      0.00 
    4   14    8      3.43      0.00 
    5   14    8      4.58      0.00 
    6   14    8      3.07      0.00 
    7   14    8      0.53      0.00 
    8   14    8     -1.25      0.00 
    9   14    8     -1.46      0.00 
   10   14    8      0.11      0.00 
   11   14    8      2.29      0.00 
   12   14    8      2.50      0.00 
   13   14    8      0.09      0.00 
   14   14    8     -2.13      0.00 
   15   14    8     -1.83      0.00 
  -14   15    8      0.55      0.00 
  -13   15    8     -1.14      0.00 
  -12   15    8     -3.32      0.00 
  -11   15    8     -4.34      0.00 
  -10   15    8     -3.22      0.00 
   -9   15    8     -0.83      0.00 
   -8   15    8      0.47      0.00 
   -7   15    8     -0.74      0.00 
   -6   15    8     -2.94      0.00 
   -5   15    8     -3.16      0.00 
   -4   15    8     -0.53      0.00 
   -3   15    8      2.85      0.00 
   -2   15    8      4.44      0.00 
   -1   15    8      3.60      0.00 
    0   15    8      1.71      0.00 
    1   15    8      0.93      0.00 
    2   15    8      1.98      0.00 
    3   15    8      3.07      0.00 
    4   15    8      2.15      0.00 
    5   15    8     -0.10      0.00 
    6   15    8     -1.55      0.00 
    7   15    8     -1.81      0.00 
    8   15    8     -1.70      0.00 
    9   15    8     -0.89      0.00 
   10   15    8      0.67      0.00 
   11   15    8      0.91      0.00 
   12   15    8     -1.29      0.00 
   13   15    8     -3.30      0.00 
   14   15    8     -2.46      0.00 
  -12   16    8      0.56      0.00 
  -11   16    8      2.43      0.00 
  -10   16    8      3.92      0.00 
   -9   16    8      3.63      0.00 
   -8   16    8      1.38      0.00 
   -7   16    8     -0.92      0.00 
   -6   16    8     -1.20      0.00 
   -5   16    8      0.30      0.00 
   -4   16    8      1.56      0.00 
   -3   16    8      1.28      0.00 
   -2   16    8     -0.12      0.00 
   -1   16    8     -1.33      0.00 
    0   16    8     -1.05      0.00 
    1   16    8      0.80      0.00 
    2   16    8      2.43      0.00 
    3   16    8      2.18      0.00 
    4   16    8      1.00      0.00 
    5   16    8      0.72      0.00 
    6   16    8      0.80      0.00 
    7   16    8     -0.05      0.00 
    8   16    8     -0.63      0.00 
    9   16    8      0.69      0.00 
   10   16    8      2.27      0.00 
   11   16    8      1.71      0.00 
   12   16    8      0.20      0.00 
  -11   17    8     -0.23      0.00 
  -10   17    8     -1.29      0.00 
   -9   17    8     -2.82      0.00 
   -8   17    8     -3.52      0.00 
   -7   17    8     -2.51      0.00 
   -6   17    8     -0.61      0.00 
   -5   17    8      0.66      0.00 
   -4   17    8      0.91      0.00 
   -3   17    8      0.78      0.00 
   -2   17    8      0.81      0.00 
   -1   17    8      1.47      0.00 
    0   17    8      2.73      0.00 
    1   17    8      3.42      0.00 
    2   17    8      2.36      0.00 
    3   17    8      0.46      0.00 
    4   17    8     -0.58      0.00 
    5   17    8     -1.07      0.00 
    6   17    8     -2.17      0.00 
    7   17    8     -2.67      0.00 
    8   17    8     -0.72      0.00 
    9   17    8      2.12      0.00 
   10   17    8      2.63      0.00 
   -8   18    8      0.74      0.00 
   -7   18    8      1.53      0.00 
   -6   18    8      1.60      0.00 
   -5   18    8      1.30      0.00 
   -4   18    8      1.22      0.00 
   -3   18    8      1.27      0.00 
   -2   18    8      1.32      0.00 
   -1   18    8      1.58      0.00 
    0   18    8      1.77      0.00 
    1   18    8      1.30      0.00 
    2   18    8      0.58      0.00 
    3   18    8      0.53      0.00 
    4   18    8      0.68      0.00 
    5   18    8      0.05      0.00 
    6   18    8     -0.50      0.00 
    7   18    8      0.62      0.00 
    8   18    8      2.44      0.00 
   -5   19    8      1.23      0.00 
   -4   19    8      1.58      0.00 
   -3   19    8      1.47      0.00 
   -2   19    8      1.29      0.00 
   -1   19    8      1.39      0.00 
    0   19    8      1.47      0.00 
    1   19    8      1.31      0.00 
    2   19    8      1.07      0.00 
    3   19    8      0.55      0.00 
    4   19    8     -0.39      0.00 
    5   19    8     -0.90      0.00 
  -22    1    9      0.46      0.00 
  -21    1    9     -0.52      0.00 
  -20    1    9     -0.70      0.00 
  -19    1    9      0.10      0.00 
  -18    1    9      0.88      0.00 
  -17    1    9      0.88      0.00 
  -16    1    9      0.62      0.00 
  -15    1    9      1.44      0.00 
  -14    1    9      4.11      0.00 
  -13    1    9      7.48      0.00 
  -12    1    9      8.93      0.00 
  -11    1    9      6.83      0.00 
  -10    1    9      2.18      0.00 
   -9    1    9     -2.90      0.00 
   -8    1    9     -7.33      0.00 
   -7    1    9    -11.20      0.00 
   -6    1    9    -14.63      0.00 
   -5    1    9    -17.21      0.00 
   -4    1    9    -17.54      0.00 
   -3    1    9    -13.64      0.00 
   -2    1    9     -5.67      0.00 
   -1    1    9      2.25      0.00 
    0    1    9      5.49      0.00 
    1    1    9      4.67      0.00 
    2    1    9      5.30      0.00 
    3    1    9     10.84      0.00 
    4    1    9     18.28      0.00 
    5    1    9     21.65      0.00 
    6    1    9     18.14      0.00 
    7    1    9     10.21      0.00 
    8    1    9      2.83      0.00 
    9    1    9     -0.87      0.00 
   10    1    9     -1.55      0.00 
   11    1    9     -1.69      0.00 
   12    1    9     -2.37      0.00 
   13    1    9     -2.73      0.00 
   14    1    9     -1.99      0.00 
   15    1    9     -0.57      0.00 
   16    1    9      0.73      0.00 
   17    1    9      1.29      0.00 
   18    1    9      0.92      0.00 
   19    1    9      0.13      0.00 
   20    1    9     -0.05      0.00 
   21    1    9      0.53      0.00 
  -22    2    9     -1.85      0.00 
  -21    2    9     -1.00      0.00 
  -19    2    9      1.46      0.00 
  -18    2    9      0.29      0.00 
  -17    2    9     -0.95      0.00 
  -16    2    9     -0.49      0.00 
  -15    2    9      1.53      0.00 
  -14    2    9      2.65      0.00 
  -13    2    9     -0.06      0.00 
  -12    2    9     -6.69      0.00 
  -11    2    9    -13.40      0.00 
  -10    2    9    -16.30      0.00 
   -9    2    9    -15.43      0.00 
   -8    2    9    -13.46      0.00 
   -7    2    9    -11.78      0.00 
   -6    2    9     -9.38      0.00 
   -5    2    9     -4.30      0.00 
   -4    2    9      4.58      0.00 
   -3    2    9     15.13      0.00 
   -2    2    9     21.33      0.00 
   -1    2    9     18.93      0.00 
    0    2    9     12.23      0.00 
    1    2    9     10.77      0.00 
    2    2    9     17.48      0.00 
    3    2    9     24.32      0.00 
    4    2    9     21.84      0.00 
    5    2    9      9.80      0.00 
    6    2    9     -3.52      0.00 
    7    2    9    -10.13      0.00 
    8    2    9     -8.87      0.00 
    9    2    9     -4.66      0.00 
   10    2    9     -2.63      0.00 
   11    2    9     -3.46      0.00 
   12    2    9     -4.31      0.00 
   13    2    9     -3.41      0.00 
   14    2    9     -1.81      0.00 
   15    2    9     -1.08      0.00 
   16    2    9     -1.43      0.00 
   17    2    9     -2.23      0.00 
   18    2    9     -2.64      0.00 
   19    2    9     -1.95      0.00 
   20    2    9     -0.51      0.00 
   21    2    9      0.32      0.00 
  -21    3    9     -0.06      0.00 
  -20    3    9     -2.16      0.00 
  -19    3    9     -5.50      0.00 
  -18    3    9     -7.04      0.00 
  -17    3    9     -5.50      0.00 
  -16    3    9     -2.59      0.00 
  -15    3    9     -1.26      0.00 
  -14    3    9     -3.16      0.00 
  -13    3    9     -6.51      0.00 
  -12    3    9     -6.96      0.00 
  -11    3    9     -2.45      0.00 
  -10    3    9      3.49      0.00 
   -9    3    9      5.71      0.00 
   -8    3    9      3.81      0.00 
   -7    3    9      2.10      0.00 
   -6    3    9      4.15      0.00 
   -5    3    9      9.53      0.00 
   -4    3    9     14.20      0.00 
   -3    3    9     13.17      0.00 
   -2    3    9      5.88      0.00 
   -1    3    9     -0.42      0.00 
    0    3    9      2.85      0.00 
    1    3    9     13.97      0.00 
    2    3    9     20.53      0.00 
    3    3    9     13.63      0.00 
    4    3    9     -1.83      0.00 
    5    3    9    -13.48      0.00 
    6    3    9    -14.78      0.00 
    7    3    9     -9.37      0.00 
    8    3    9     -5.02      0.00 
    9    3    9     -5.80      0.00 
   10    3    9     -9.44      0.00 
   11    3    9    -11.03      0.00 
   12    3    9     -8.79      0.00 
   13    3    9     -5.23      0.00 
   14    3    9     -3.08      0.00 
   15    3    9     -2.21      0.00 
   16    3    9     -1.13      0.00 
   17    3    9      0.60      0.00 
   18    3    9      2.39      0.00 
   19    3    9      3.41      0.00 
   20    3    9      3.08      0.00 
   21    3    9      1.69      0.00 
  -21    4    9     -1.57      0.00 
  -20    4    9     -2.77      0.00 
  -19    4    9     -1.25      0.00 
  -18    4    9      2.64      0.00 
  -17    4    9      6.01      0.00 
  -16    4    9      6.35      0.00 
  -15    4    9      3.81      0.00 
  -14    4    9      1.38      0.00 
  -13    4    9      2.36      0.00 
  -12    4    9      5.97      0.00 
  -11    4    9      6.79      0.00 
  -10    4    9      0.99      0.00 
   -9    4    9     -7.75      0.00 
   -8    4    9    -11.57      0.00 
   -7    4    9     -7.16      0.00 
   -6    4    9      1.10      0.00 
   -5    4    9      6.00      0.00 
   -4    4    9      4.02      0.00 
   -3    4    9     -1.34      0.00 
   -2    4    9     -2.03      0.00 
   -1    4    9      6.06      0.00 
    0    4    9     16.19      0.00 
    1    4    9     16.36      0.00 
    2    4    9      3.49      0.00 
    3    4    9    -12.10      0.00 
    4    4    9    -18.29      0.00 
    5    4    9    -13.63      0.00 
    6    4    9     -6.25      0.00 
    7    4    9     -3.76      0.00 
    8    4    9     -6.68      0.00 
    9    4    9     -9.79      0.00 
   10    4    9     -7.97      0.00 
   11    4    9     -1.40      0.00 
   12    4    9      4.95      0.00 
   13    4    9      7.23      0.00 
   14    4    9      6.40      0.00 
   15    4    9      5.51      0.00 
   16    4    9      5.51      0.00 
   17    4    9      5.32      0.00 
   18    4    9      4.21      0.00 
   19    4    9      2.50      0.00 
   20    4    9      0.90      0.00 
   21    4    9      0.09      0.00 
  -21    5    9     -0.43      0.00 
  -20    5    9      1.18      0.00 
  -19    5    9      3.38      0.00 
  -18    5    9      3.94      0.00 
  -17    5    9      1.53      0.00 
  -16    5    9     -2.53      0.00 
  -15    5    9     -4.75      0.00 
  -14    5    9     -2.98      0.00 
  -13    5    9      0.08      0.00 
  -12    5    9     -0.93      0.00 
  -11    5    9     -6.96      0.00 
  -10    5    9    -11.68      0.00 
   -9    5    9     -8.11      0.00 
   -8    5    9      2.97      0.00 
   -7    5    9     13.03      0.00 
   -6    5    9     14.28      0.00 
   -5    5    9      7.14      0.00 
   -4    5    9      0.01      0.00 
   -3    5    9      1.21      0.00 
   -2    5    9      9.92      0.00 
   -1    5    9     15.93      0.00 
    0    5    9     10.51      0.00 
    1    5    9     -3.04      0.00 
    2    5    9    -12.72      0.00 
    3    5    9    -11.26      0.00 
    4    5    9     -3.11      0.00 
    5    5    9      2.27      0.00 
    6    5    9      0.40      0.00 
    7    5    9     -5.35      0.00 
    8    5    9     -8.29      0.00 
    9    5    9     -4.79      0.00 
   10    5    9      2.25      0.00 
   11    5    9      6.31      0.00 
   12    5    9      4.39      0.00 
   13    5    9     -0.13      0.00 
   14    5    9     -2.53      0.00 
   15    5    9     -2.08      0.00 
   16    5    9     -1.02      0.00 
   17    5    9     -0.64      0.00 
   18    5    9     -0.68      0.00 
   19    5    9     -0.75      0.00 
   20    5    9     -0.61      0.00 
  -21    6    9     -0.61      0.00 
  -20    6    9      0.24      0.00 
  -19    6    9      0.74      0.00 
  -18    6    9     -0.03      0.00 
  -17    6    9     -1.42      0.00 
  -16    6    9     -0.86      0.00 
  -15    6    9      2.66      0.00 
  -14    6    9      5.59      0.00 
  -13    6    9      3.60      0.00 
  -12    6    9     -1.72      0.00 
  -11    6    9     -3.64      0.00 
  -10    6    9      1.43      0.00 
   -9    6    9      9.07      0.00 
   -8    6    9     11.10      0.00 
   -7    6    9      3.96      0.00 
   -6    6    9     -7.11      0.00 
   -5    6    9    -11.93      0.00 
   -4    6    9     -5.22      0.00 
   -3    6    9      6.80      0.00 
   -2    6    9     11.73      0.00 
   -1    6    9      4.44      0.00 
    0    6    9     -7.22      0.00 
    1    6    9    -11.93      0.00 
    2    6    9     -7.45      0.00 
    3    6    9     -1.36      0.00 
    4    6    9     -1.32      0.00 
    5    6    9     -7.55      0.00 
    6    6    9    -14.01      0.00 
    7    6    9    -14.38      0.00 
    8    6    9     -7.64      0.00 
    9    6    9      0.82      0.00 
   10    6    9      4.29      0.00 
   11    6    9      1.90      0.00 
   12    6    9     -1.03      0.00 
   13    6    9     -0.21      0.00 
   14    6    9      2.98      0.00 
   15    6    9      5.03      0.00 
   16    6    9      5.04      0.00 
   17    6    9      4.01      0.00 
   18    6    9      2.49      0.00 
   19    6    9      0.88      0.00 
   20    6    9     -0.05      0.00 
  -20    7    9      3.27      0.00 
  -19    7    9      4.06      0.00 
  -18    7    9      3.40      0.00 
  -17    7    9      2.84      0.00 
  -16    7    9      3.33      0.00 
  -15    7    9      2.35      0.00 
  -14    7    9     -2.31      0.00 
  -13    7    9     -7.43      0.00 
  -12    7    9     -7.42      0.00 
  -11    7    9     -2.16      0.00 
  -10    7    9      2.24      0.00 
   -9    7    9      0.53      0.00 
   -8    7    9     -6.20      0.00 
   -7    7    9    -11.37      0.00 
   -6    7    9     -8.33      0.00 
   -5    7    9      2.88      0.00 
   -4    7    9     13.42      0.00 
   -3    7    9     13.20      0.00 
   -2    7    9      2.16      0.00 
   -1    7    9     -9.00      0.00 
    0    7    9    -10.80      0.00 
    1    7    9     -4.77      0.00 
    2    7    9      0.18      0.00 
    3    7    9     -1.44      0.00 
    4    7    9     -6.81      0.00 
    5    7    9     -9.07      0.00 
    6    7    9     -4.23      0.00 
    7    7    9      5.24      0.00 
    8    7    9     12.50      0.00 
    9    7    9     12.72      0.00 
   10    7    9      8.04      0.00 
   11    7    9      4.76      0.00 
   12    7    9      5.58      0.00 
   13    7    9      7.22      0.00 
   14    7    9      6.16      0.00 
   15    7    9      3.02      0.00 
   16    7    9     -0.09      0.00 
   17    7    9     -2.65      0.00 
   18    7    9     -4.43      0.00 
   19    7    9     -4.34      0.00 
   20    7    9     -2.40      0.00 
  -20    8    9      0.49      0.00 
  -19    8    9     -0.40      0.00 
  -18    8    9     -1.62      0.00 
  -17    8    9     -2.38      0.00 
  -16    8    9     -3.78      0.00 
  -15    8    9     -6.50      0.00 
  -14    8    9     -7.67      0.00 
  -13    8    9     -4.26      0.00 
  -12    8    9      1.30      0.00 
  -11    8    9      3.21      0.00 
  -10    8    9     -0.36      0.00 
   -9    8    9     -5.25      0.00 
   -8    8    9     -5.98      0.00 
   -7    8    9     -0.65      0.00 
   -6    8    9      7.31      0.00 
   -5    8    9     11.00      0.00 
   -4    8    9      6.16      0.00 
   -3    8    9     -3.34      0.00 
   -2    8    9     -8.28      0.00 
   -1    8    9     -4.05      0.00 
    0    8    9      4.29      0.00 
    1    8    9      8.02      0.00 
    2    8    9      4.24      0.00 
    3    8    9     -1.81      0.00 
    4    8    9     -3.19      0.00 
    5    8    9      1.59      0.00 
    6    8    9      7.70      0.00 
    7    8    9      9.22      0.00 
    8    8    9      4.84      0.00 
    9    8    9     -1.21      0.00 
   10    8    9     -3.79      0.00 
   11    8    9     -2.26      0.00 
   12    8    9     -0.39      0.00 
   13    8    9     -0.96      0.00 
   14    8    9     -2.78      0.00 
   15    8    9     -3.80      0.00 
   16    8    9     -4.10      0.00 
   17    8    9     -4.15      0.00 
   18    8    9     -3.16      0.00 
   19    8    9     -1.10      0.00 
  -19    9    9      0.37      0.00 
  -18    9    9     -1.63      0.00 
  -17    9    9     -3.72      0.00 
  -16    9    9     -5.29      0.00 
  -15    9    9     -4.81      0.00 
  -14    9    9     -1.71      0.00 
  -13    9    9      0.99      0.00 
  -12    9    9     -0.26      0.00 
  -11    9    9     -4.28      0.00 
  -10    9    9     -6.04      0.00 
   -9    9    9     -2.61      0.00 
   -8    9    9      3.99      0.00 
   -7    9    9      9.08      0.00 
   -6    9    9      9.15      0.00 
   -5    9    9      4.64      0.00 
   -4    9    9      0.08      0.00 
   -3    9    9      0.11      0.00 
   -2    9    9      4.53      0.00 
   -1    9    9      8.03      0.00 
    0    9    9      5.60      0.00 
    1    9    9     -1.97      0.00 
    2    9    9     -8.46      0.00 
    3    9    9     -8.62      0.00 
    4    9    9     -3.51      0.00 
    5    9    9      1.18      0.00 
    6    9    9      1.56      0.00 
    7    9    9     -1.20      0.00 
    8    9    9     -3.37      0.00 
    9    9    9     -2.57      0.00 
   10    9    9      0.48      0.00 
   11    9    9      3.15      0.00 
   12    9    9      3.57      0.00 
   13    9    9      2.38      0.00 
   14    9    9      1.20      0.00 
   15    9    9      0.42      0.00 
   16    9    9     -0.25      0.00 
   17    9    9     -0.41      0.00 
   18    9    9      0.11      0.00 
   19    9    9      0.40      0.00 
  -19   10    9     -4.93      0.00 
  -18   10    9     -6.06      0.00 
  -17   10    9     -5.31      0.00 
  -16   10    9     -3.20      0.00 
  -15   10    9     -0.71      0.00 
  -14   10    9      0.29      0.00 
  -13   10    9     -1.09      0.00 
  -12   10    9     -2.49      0.00 
  -11   10    9     -0.66      0.00 
  -10   10    9      4.17      0.00 
   -9   10    9      8.23      0.00 
   -8   10    9      8.34      0.00 
   -7   10    9      4.74      0.00 
   -6   10    9      0.37      0.00 
   -5   10    9     -1.72      0.00 
   -4   10    9     -0.86      0.00 
   -3   10    9      0.77      0.00 
   -2   10    9      0.23      0.00 
   -1   10    9     -3.28      0.00 
    0   10    9     -7.40      0.00 
    1   10    9     -8.26      0.00 
    2   10    9     -4.15      0.00 
    3   10    9      2.24      0.00 
    4   10    9      6.31      0.00 
    5   10    9      6.32      0.00 
    6   10    9      4.30      0.00 
    7   10    9      2.68      0.00 
    8   10    9      2.30      0.00 
    9   10    9      2.96      0.00 
   10   10    9      3.84      0.00 
   11   10    9      3.63      0.00 
   12   10    9      1.94      0.00 
   13   10    9      0.04      0.00 
   14   10    9     -0.84      0.00 
   15   10    9     -0.87      0.00 
   16   10    9     -0.70      0.00 
   17   10    9     -0.64      0.00 
   18   10    9     -0.78      0.00 
  -18   11    9      1.03      0.00 
  -17   11    9      1.75      0.00 
  -16   11    9      1.47      0.00 
  -15   11    9      0.36      0.00 
  -14   11    9     -0.96      0.00 
  -13   11    9     -0.91      0.00 
  -12   11    9      1.25      0.00 
  -11   11    9      3.59      0.00 
  -10   11    9      3.38      0.00 
   -9   11    9      0.57      0.00 
   -8   11    9     -2.25      0.00 
   -7   11    9     -2.75      0.00 
   -6   11    9     -0.82      0.00 
   -5   11    9      1.76      0.00 
   -4   11    9      2.97      0.00 
   -3   11    9      2.22      0.00 
   -2   11    9      0.59      0.00 
   -1   11    9     -0.33      0.00 
    0   11    9      0.41      0.00 
    1   11    9      2.48      0.00 
    2   11    9      4.18      0.00 
    3   11    9      3.78      0.00 
    4   11    9      1.31      0.00 
    5   11    9     -1.54      0.00 
    6   11    9     -3.35      0.00 
    7   11    9     -3.64      0.00 
    8   11    9     -2.38      0.00 
    9   11    9     -0.40      0.00 
   10   11    9      0.33      0.00 
   11   11    9     -1.17      0.00 
   12   11    9     -3.26      0.00 
   13   11    9     -3.72      0.00 
   14   11    9     -2.57      0.00 
   15   11    9     -1.33      0.00 
   16   11    9     -0.79      0.00 
   17   11    9     -0.57      0.00 
  -17   12    9     -1.78      0.00 
  -16   12    9     -2.38      0.00 
  -15   12    9     -1.87      0.00 
  -14   12    9      0.02      0.00 
  -13   12    9      2.64      0.00 
  -12   12    9      4.10      0.00 
  -11   12    9      3.37      0.00 
  -10   12    9      2.06      0.00 
   -9   12    9      2.52      0.00 
   -8   12    9      4.82      0.00 
   -7   12    9      6.74      0.00 
   -6   12    9      6.36      0.00 
   -5   12    9      3.63      0.00 
   -4   12    9      0.02      0.00 
   -3   12    9     -2.92      0.00 
   -2   12    9     -4.59      0.00 
   -1   12    9     -5.29      0.00 
    0   12    9     -5.36      0.00 
    1   12    9     -4.95      0.00 
    2   12    9     -4.32      0.00 
    3   12    9     -3.79      0.00 
    4   12    9     -3.36      0.00 
    5   12    9     -2.70      0.00 
    6   12    9     -1.25      0.00 
    7   12    9      1.15      0.00 
    8   12    9      3.30      0.00 
    9   12    9      3.26      0.00 
   10   12    9      0.88      0.00 
   11   12    9     -1.32      0.00 
   12   12    9     -1.12      0.00 
   13   12    9      0.62      0.00 
   14   12    9      1.51      0.00 
   15   12    9      0.86      0.00 
   16   12    9     -0.11      0.00 
   17   12    9     -0.38      0.00 
  -16   13    9      2.09      0.00 
  -15   13    9      3.90      0.00 
  -14   13    9      4.94      0.00 
  -13   13    9      4.17      0.00 
  -12   13    9      1.88      0.00 
  -11   13    9      0.04      0.00 
  -10   13    9      0.07      0.00 
   -9   13    9      0.85      0.00 
   -8   13    9      0.14      0.00 
   -7   13    9     -2.63      0.00 
   -6   13    9     -5.73      0.00 
   -5   13    9     -7.11      0.00 
   -4   13    9     -6.40      0.00 
   -3   13    9     -4.86      0.00 
   -2   13    9     -3.61      0.00 
   -1   13    9     -2.47      0.00 
    0   13    9     -0.71      0.00 
    1   13    9      1.57      0.00 
    2   13    9      3.32      0.00 
    3   13    9      3.67      0.00 
    4   13    9      3.01      0.00 
    5   13    9      2.69      0.00 
    6   13    9      3.34      0.00 
    7   13    9      3.75      0.00 
    8   13    9      2.17      0.00 
    9   13    9     -0.89      0.00 
   10   13    9     -2.66      0.00 
   11   13    9     -1.69      0.00 
   12   13    9      0.05      0.00 
   13   13    9     -0.03      0.00 
   14   13    9     -1.72      0.00 
   15   13    9     -2.74      0.00 
   16   13    9     -2.06      0.00 
  -15   14    9     -0.71      0.00 
  -14   14    9     -2.46      0.00 
  -13   14    9     -3.79      0.00 
  -12   14    9     -3.43      0.00 
  -11   14    9     -1.52      0.00 
  -10   14    9      0.20      0.00 
   -9   14    9      0.21      0.00 
   -8   14    9     -1.07      0.00 
   -7   14    9     -1.67      0.00 
   -6   14    9     -0.37      0.00 
   -5   14    9      1.75      0.00 
   -4   14    9      2.57      0.00 
   -3   14    9      1.52      0.00 
   -2   14    9      0.22      0.00 
   -1   14    9      0.22      0.00 
    0   14    9      1.10      0.00 
    1   14    9      1.30      0.00 
    2   14    9      0.20      0.00 
    3   14    9     -1.22      0.00 
    4   14    9     -1.43      0.00 
    5   14    9     -0.20      0.00 
    6   14    9      0.80      0.00 
    7   14    9     -0.21      0.00 
    8   14    9     -2.50      0.00 
    9   14    9     -3.25      0.00 
   10   14    9     -1.30      0.00 
   11   14    9      0.95      0.00 
   12   14    9      0.83      0.00 
   13   14    9     -1.01      0.00 
   14   14    9     -1.88      0.00 
   15   14    9     -0.86      0.00 
  -14   15    9      0.05      0.00 
  -13   15    9      1.80      0.00 
  -12   15    9      3.49      0.00 
  -11   15    9      3.71      0.00 
  -10   15    9      2.32      0.00 
   -9   15    9      0.57      0.00 
   -8   15    9     -0.17      0.00 
   -7   15    9      0.25      0.00 
   -6   15    9      0.42      0.00 
   -5   15    9     -1.07      0.00 
   -4   15    9     -3.54      0.00 
   -3   15    9     -4.67      0.00 
   -2   15    9     -3.41      0.00 
   -1   15    9     -1.31      0.00 
    0   15    9     -0.36      0.00 
    1   15    9     -0.49      0.00 
    2   15    9     -0.15      0.00 
    3   15    9      1.46      0.00 
    4   15    9      3.43      0.00 
    5   15    9      3.89      0.00 
    6   15    9      1.91      0.00 
    7   15    9     -1.04      0.00 
    8   15    9     -2.06      0.00 
    9   15    9     -0.09      0.00 
   10   15    9      2.42      0.00 
   11   15    9      2.49      0.00 
   12   15    9      0.38      0.00 
   13   15    9     -1.19      0.00 
  -12   16    9     -0.78      0.00 
  -11   16    9     -2.27      0.00 
  -10   16    9     -2.98      0.00 
   -9   16    9     -2.48      0.00 
   -8   16    9     -1.52      0.00 
   -7   16    9     -1.29      0.00 
   -6   16    9     -2.09      0.00 
   -5   16    9     -2.66      0.00 
   -4   16    9     -1.31      0.00 
   -3   16    9      1.72      0.00 
   -2   16    9      4.10      0.00 
   -1   16    9      4.14      0.00 
    0   16    9      2.88      0.00 
    1   16    9      2.44      0.00 
    2   16    9      3.22      0.00 
    3   16    9      3.63      0.00 
    4   16    9      2.25      0.00 
    5   16    9     -0.59      0.00 
    6   16    9     -3.03      0.00 
    7   16    9     -3.14      0.00 
    8   16    9     -0.81      0.00 
    9   16    9      1.74      0.00 
   10   16    9      1.98      0.00 
   11   16    9     -0.04      0.00 
   12   16    9     -1.76      0.00 
  -10   17    9      1.57      0.00 
   -9   17    9      2.28      0.00 
   -8   17    9      1.77      0.00 
   -7   17    9      0.52      0.00 
   -6   17    9     -0.02      0.00 
   -5   17    9      1.10      0.00 
   -4   17    9      3.05      0.00 
   -3   17    9      3.70      0.00 
   -2   17    9      2.13      0.00 
   -1   17    9     -0.02      0.00 
    0   17    9     -0.43      0.00 
    1   17    9      0.97      0.00 
    2   17    9      2.03      0.00 
    3   17    9      1.22      0.00 
    4   17    9     -0.66      0.00 
    5   17    9     -1.77      0.00 
    6   17    9     -1.21      0.00 
    7   17    9      0.44      0.00 
    8   17    9      1.77      0.00 
    9   17    9      1.68      0.00 
   10   17    9      0.42      0.00 
   -8   18    9     -1.80      0.00 
   -7   18    9     -1.59      0.00 
   -6   18    9     -0.14      0.00 
   -5   18    9      1.52      0.00 
   -4   18    9      1.88      0.00 
   -3   18    9      0.62      0.00 
   -2   18    9     -0.67      0.00 
   -1   18    9     -0.14      0.00 
    0   18    9      1.84      0.00 
    1   18    9      2.88      0.00 
    2   18    9      1.60      0.00 
    3   18    9     -0.62      0.00 
    4   18    9     -1.56      0.00 
    5   18    9     -0.82      0.00 
    6   18    9      0.28      0.00 
    7   18    9      0.71      0.00 
    8   18    9      0.57      0.00 
   -4   19    9      0.13      0.00 
   -3   19    9     -0.57      0.00 
   -2   19    9      0.02      0.00 
   -1   19    9      1.42      0.00 
    0   19    9      1.91      0.00 
    1   19    9      0.75      0.00 
    2   19    9     -0.59      0.00 
    3   19    9     -0.43      0.00 
    4   19    9      0.77      0.00 
  -21    0   10     -0.78      0.00 
  -20    0   10      0.77      0.00 
  -19    0   10      2.69      0.00 
  -18    0   10      2.04      0.00 
  -17    0   10     -1.01      0.00 
  -16    0   10     -2.98      0.00 
  -15    0   10     -0.78      0.00 
  -14    0   10      5.37      0.00 
  -13    0   10     11.21      0.00 
  -12    0   10     10.95      0.00 
  -11    0   10      2.93      0.00 
  -10    0   10     -7.08      0.00 
   -9    0   10    -11.41      0.00 
   -8    0   10     -9.52      0.00 
   -7    0   10     -8.55      0.00 
   -6    0   10    -14.29      0.00 
   -5    0   10    -24.30      0.00 
   -4    0   10    -29.72      0.00 
   -3    0   10    -22.68      0.00 
   -2    0   10     -4.40      0.00 
   -1    0   10     12.65      0.00 
    0    0   10     15.14      0.00 
    1    0   10      4.75      0.00 
    2    0   10     -1.61      0.00 
    3    0   10      8.56      0.00 
    4    0   10     28.00      0.00 
    5    0   10     38.61      0.00 
    6    0   10     31.62      0.00 
    7    0   10     14.50      0.00 
    8    0   10      0.78      0.00 
    9    0   10     -2.80      0.00 
   10    0   10      0.22      0.00 
   11    0   10      2.19      0.00 
   12    0   10     -0.10      0.00 
   13    0   10     -3.59      0.00 
   14    0   10     -4.58      0.00 
   15    0   10     -3.17      0.00 
   16    0   10     -1.49      0.00 
   17    0   10     -0.56      0.00 
   18    0   10     -0.42      0.00 
   19    0   10     -0.85      0.00 
   20    0   10     -0.94      0.00 
   21    0   10     -0.02      0.00 
  -21    1   10     -0.48      0.00 
  -20    1   10      0.43      0.00 
  -19    1   10     -1.00      0.00 
  -18    1   10     -3.62      0.00 
  -17    1   10     -4.22      0.00 
  -16    1   10     -1.60      0.00 
  -15    1   10      1.98      0.00 
  -14    1   10      2.70      0.00 
  -13    1   10     -1.85      0.00 
  -12    1   10     -9.65      0.00 
  -11    1   10    -14.36      0.00 
  -10    1   10    -11.34      0.00 
   -9    1   10     -3.86      0.00 
   -8    1   10     -0.16      0.00 
   -7    1   10     -3.56      0.00 
   -6    1   10     -8.43      0.00 
   -5    1   10     -6.41      0.00 
   -4    1   10      5.05      0.00 
   -3    1   10     19.61      0.00 
   -2    1   10     26.03      0.00 
   -1    1   10     18.23      0.00 
    0    1   10      3.99      0.00 
    1    1   10     -0.81      0.00 
    2    1   10      9.59      0.00 
    3    1   10     22.74      0.00 
    4    1   10     22.46      0.00 
    5    1   10      7.46      0.00 
    6    1   10     -9.07      0.00 
    7    1   10    -15.03      0.00 
    8    1   10    -10.06      0.00 
    9    1   10     -2.48      0.00 
   10    1   10      0.11      0.00 
   11    1   10     -2.79      0.00 
   12    1   10     -6.12      0.00 
   13    1   10     -6.01      0.00 
   14    1   10     -3.56      0.00 
   15    1   10     -1.67      0.00 
   16    1   10     -1.08      0.00 
   17    1   10     -1.01      0.00 
   18    1   10     -1.04      0.00 
   19    1   10     -0.88      0.00 
   20    1   10     -0.12      0.00 
   21    1   10      0.71      0.00 
  -21    2   10     -0.13      0.00 
  -20    2   10     -2.11      0.00 
  -19    2   10     -4.00      0.00 
  -18    2   10     -3.58      0.00 
  -17    2   10     -1.01      0.00 
  -16    2   10      1.25      0.00 
  -15    2   10      1.18      0.00 
  -14    2   10     -0.92      0.00 
  -13    2   10     -2.37      0.00 
  -12    2   10      0.04      0.00 
  -11    2   10      6.26      0.00 
  -10    2   10     10.91      0.00 
   -9    2   10      7.90      0.00 
   -8    2   10     -1.76      0.00 
   -7    2   10     -9.56      0.00 
   -6    2   10     -8.53      0.00 
   -5    2   10     -0.49      0.00 
   -4    2   10      6.26      0.00 
   -3    2   10      4.80      0.00 
   -2    2   10     -4.01      0.00 
   -1    2   10    -10.94      0.00 
    0    2   10     -6.29      0.00 
    1    2   10      8.51      0.00 
    2    2   10     20.07      0.00 
    3    2   10     17.48      0.00 
    4    2   10      4.87      0.00 
    5    2   10     -4.62      0.00 
    6    2   10     -4.23      0.00 
    7    2   10      1.36      0.00 
    8    2   10      4.05      0.00 
    9    2   10      0.74      0.00 
   10    2   10     -5.44      0.00 
   11    2   10     -9.13      0.00 
   12    2   10     -7.94      0.00 
   13    2   10     -4.23      0.00 
   14    2   10     -1.46      0.00 
   15    2   10     -0.17      0.00 
   16    2   10      0.88      0.00 
   17    2   10      1.82      0.00 
   18    2   10      2.10      0.00 
   19    2   10      2.10      0.00 
   20    2   10      2.27      0.00 
   21    2   10      2.07      0.00 
  -21    3   10     -0.85      0.00 
  -20    3   10     -0.72      0.00 
  -19    3   10      0.53      0.00 
  -18    3   10      2.29      0.00 
  -17    3   10      3.13      0.00 
  -16    3   10      2.44      0.00 
  -15    3   10      1.20      0.00 
  -14    3   10      1.04      0.00 
  -13    3   10      2.38      0.00 
  -12    3   10      3.18      0.00 
  -11    3   10     -0.02      0.00 
  -10    3   10     -8.35      0.00 
   -9    3   10    -17.28      0.00 
   -8    3   10    -19.20      0.00 
   -7    3   10    -11.28      0.00 
   -6    3   10      0.53      0.00 
   -5    3   10      7.32      0.00 
   -4    3   10      6.17      0.00 
   -3    3   10      2.15      0.00 
   -2    3   10      2.85      0.00 
   -1    3   10     11.15      0.00 
    0    3   10     21.71      0.00 
    1    3   10     25.04      0.00 
    2    3   10     17.23      0.00 
    3    3   10      4.83      0.00 
    4    3   10     -2.53      0.00 
    5    3   10     -2.71      0.00 
    6    3   10     -1.27      0.00 
    7    3   10     -3.13      0.00 
    8    3   10     -7.67      0.00 
    9    3   10    -11.06      0.00 
   10    3   10    -10.36      0.00 
   11    3   10     -5.77      0.00 
   12    3   10     -0.53      0.00 
   13    3   10      2.21      0.00 
   14    3   10      2.42      0.00 
   15    3   10      2.02      0.00 
   16    3   10      1.62      0.00 
   17    3   10      0.71      0.00 
   18    3   10     -0.18      0.00 
   19    3   10     -0.12      0.00 
   20    3   10      0.37      0.00 
   21    3   10      0.25      0.00 
  -21    4   10     -0.77      0.00 
  -20    4   10     -1.85      0.00 
  -19    4   10     -2.82      0.00 
  -18    4   10     -3.33      0.00 
  -17    4   10     -3.65      0.00 
  -16    4   10     -3.70      0.00 
  -15    4   10     -2.83      0.00 
  -14    4   10     -1.40      0.00 
  -13    4   10     -1.10      0.00 
  -12    4   10     -2.95      0.00 
  -11    4   10     -5.42      0.00 
  -10    4   10     -5.05      0.00 
   -9    4   10      0.76      0.00 
   -8    4   10     10.34      0.00 
   -7    4   10     17.51      0.00 
   -6    4   10     16.78      0.00 
   -5    4   10      9.59      0.00 
   -4    4   10      3.29      0.00 
   -3    4   10      3.45      0.00 
   -2    4   10      8.64      0.00 
   -1    4   10     12.72      0.00 
    0    4   10     10.75      0.00 
    1    4   10      3.18      0.00 
    2    4   10     -4.87      0.00 
    3    4   10     -8.66      0.00 
    4    4   10     -8.45      0.00 
    5    4   10     -8.09      0.00 
    6    4   10     -9.70      0.00 
    7    4   10    -11.71      0.00 
    8    4   10    -11.61      0.00 
    9    4   10     -8.63      0.00 
   10    4   10     -4.12      0.00 
   11    4   10     -0.61      0.00 
   12    4   10      0.18      0.00 
   13    4   10     -0.93      0.00 
   14    4   10     -1.81      0.00 
   15    4   10     -1.69      0.00 
   16    4   10     -1.10      0.00 
   17    4   10     -0.04      0.00 
   18    4   10      1.67      0.00 
   19    4   10      2.95      0.00 
   20    4   10      2.59      0.00 
   21    4   10      1.18      0.00 
  -21    5   10     -2.16      0.00 
  -20    5   10     -1.91      0.00 
  -19    5   10      0.38      0.00 
  -18    5   10      3.37      0.00 
  -17    5   10      5.41      0.00 
  -16    5   10      6.49      0.00 
  -15    5   10      6.90      0.00 
  -14    5   10      6.08      0.00 
  -13    5   10      4.23      0.00 
  -12    5   10      2.98      0.00 
  -11    5   10      3.30      0.00 
  -10    5   10      4.21      0.00 
   -9    5   10      3.98      0.00 
   -8    5   10      1.07      0.00 
   -7    5   10     -4.82      0.00 
   -6    5   10    -10.97      0.00 
   -5    5   10    -12.60      0.00 
   -4    5   10     -7.85      0.00 
   -3    5   10     -0.50      0.00 
   -2    5   10      3.89      0.00 
   -1    5   10      3.10      0.00 
    0    5   10     -1.04      0.00 
    1    5   10     -5.25      0.00 
    2    5   10     -7.30      0.00 
    3    5   10     -7.34      0.00 
    4    5   10     -7.21      0.00 
    5    5   10     -7.94      0.00 
    6    5   10     -8.58      0.00 
    7    5   10     -7.63      0.00 
    8    5   10     -4.79      0.00 
    9    5   10     -0.98      0.00 
   10    5   10      2.34      0.00 
   11    5   10      4.08      0.00 
   12    5   10      4.43      0.00 
   13    5   10      4.43      0.00 
   14    5   10      4.66      0.00 
   15    5   10      5.11      0.00 
   16    5   10      5.84      0.00 
   17    5   10      6.49      0.00 
   18    5   10      5.86      0.00 
   19    5   10      3.42      0.00 
   20    5   10      0.68      0.00 
  -20    6   10      4.37      0.00 
  -19    6   10      7.03      0.00 
  -18    6   10      7.08      0.00 
  -17    6   10      4.64      0.00 
  -16    6   10      1.26      0.00 
  -15    6   10     -2.04      0.00 
  -14    6   10     -4.41      0.00 
  -13    6   10     -5.07      0.00 
  -12    6   10     -4.83      0.00 
  -11    6   10     -5.60      0.00 
  -10    6   10     -7.42      0.00 
   -9    6   10     -8.33      0.00 
   -8    6   10     -7.24      0.00 
   -7    6   10     -4.55      0.00 
   -6    6   10     -0.50      0.00 
   -5    6   10      4.58      0.00 
   -4    6   10      8.88      0.00 
   -3    6   10     10.21      0.00 
   -2    6   10      8.12      0.00 
   -1    6   10      4.01      0.00 
    0    6   10     -0.05      0.00 
    1    6   10     -2.30      0.00 
    2    6   10     -2.35      0.00 
    3    6   10     -1.52      0.00 
    4    6   10     -1.14      0.00 
    5    6   10     -1.09      0.00 
    6    6   10     -0.46      0.00 
    7    6   10      1.11      0.00 
    8    6   10      3.38      0.00 
    9    6   10      5.59      0.00 
   10    6   10      6.47      0.00 
   11    6   10      5.29      0.00 
   12    6   10      2.85      0.00 
   13    6   10      0.77      0.00 
   14    6   10     -0.03      0.00 
   15    6   10      0.17      0.00 
   16    6   10      0.24      0.00 
   17    6   10     -0.99      0.00 
   18    6   10     -3.15      0.00 
   19    6   10     -4.29      0.00 
   20    6   10     -3.13      0.00 
  -20    7   10      1.89      0.00 
  -19    7   10      1.20      0.00 
  -18    7   10     -1.13      0.00 
  -17    7   10     -3.54      0.00 
  -16    7   10     -4.42      0.00 
  -15    7   10     -3.23      0.00 
  -14    7   10     -0.77      0.00 
  -13    7   10      0.86      0.00 
  -12    7   10      0.16      0.00 
  -11    7   10     -1.40      0.00 
  -10    7   10     -0.89      0.00 
   -9    7   10      1.96      0.00 
   -8    7   10      4.14      0.00 
   -7    7   10      3.54      0.00 
   -6    7   10      1.33      0.00 
   -5    7   10      0.06      0.00 
   -4    7   10      0.60      0.00 
   -3    7   10      1.57      0.00 
   -2    7   10      1.16      0.00 
   -1    7   10     -0.53      0.00 
    0    7   10     -1.60      0.00 
    1    7   10     -0.98      0.00 
    2    7   10      0.05      0.00 
    3    7   10     -0.23      0.00 
    4    7   10     -1.82      0.00 
    5    7   10     -3.54      0.00 
    6    7   10     -4.23      0.00 
    7    7   10     -3.15      0.00 
    8    7   10     -0.84      0.00 
    9    7   10      0.43      0.00 
   10    7   10     -0.93      0.00 
   11    7   10     -3.34      0.00 
   12    7   10     -3.81      0.00 
   13    7   10     -1.71      0.00 
   14    7   10      0.77      0.00 
   15    7   10      1.45      0.00 
   16    7   10      0.13      0.00 
   17    7   10     -1.73      0.00 
   18    7   10     -2.37      0.00 
   19    7   10     -1.31      0.00 
   20    7   10      0.16      0.00 
  -20    8   10      2.22      0.00 
  -19    8   10      1.13      0.00 
  -18    8   10     -0.79      0.00 
  -17    8   10     -1.58      0.00 
  -16    8   10     -0.69      0.00 
  -15    8   10      0.24      0.00 
  -14    8   10     -0.93      0.00 
  -13    8   10     -4.22      0.00 
  -12    8   10     -6.72      0.00 
  -11    8   10     -5.74      0.00 
  -10    8   10     -2.40      0.00 
   -9    8   10     -0.64      0.00 
   -8    8   10     -2.18      0.00 
   -7    8   10     -4.15      0.00 
   -6    8   10     -2.46      0.00 
   -5    8   10      3.11      0.00 
   -4    8   10      8.26      0.00 
   -3    8   10      8.61      0.00 
   -2    8   10      4.49      0.00 
   -1    8   10      0.23      0.00 
    0    8   10     -1.13      0.00 
    1    8   10     -0.76      0.00 
    2    8   10     -1.34      0.00 
    3    8   10     -3.41      0.00 
    4    8   10     -5.18      0.00 
    5    8   10     -4.60      0.00 
    6    8   10     -0.94      0.00 
    7    8   10      3.91      0.00 
    8    8   10      6.23      0.00 
    9    8   10      4.51      0.00 
   10    8   10      1.94      0.00 
   11    8   10      2.62      0.00 
   12    8   10      5.93      0.00 
   13    8   10      7.57      0.00 
   14    8   10      5.31      0.00 
   15    8   10      1.18      0.00 
   16    8   10     -1.84      0.00 
   17    8   10     -2.84      0.00 
   18    8   10     -2.48      0.00 
   19    8   10     -1.57      0.00 
  -19    9   10     -3.89      0.00 
  -18    9   10     -4.71      0.00 
  -17    9   10     -3.91      0.00 
  -16    9   10     -3.41      0.00 
  -15    9   10     -4.75      0.00 
  -14    9   10     -6.70      0.00 
  -13    9   10     -6.18      0.00 
  -12    9   10     -2.14      0.00 
  -11    9   10      2.45      0.00 
  -10    9   10      3.61      0.00 
   -9    9   10      1.30      0.00 
   -8    9   10     -0.21      0.00 
   -7    9   10      2.66      0.00 
   -6    9   10      8.12      0.00 
   -5    9   10     10.63      0.00 
   -4    9   10      6.99      0.00 
   -3    9   10      0.18      0.00 
   -2    9   10     -3.77      0.00 
   -1    9   10     -2.26      0.00 
    0    9   10      1.43      0.00 
    1    9   10      2.61      0.00 
    2    9   10      0.48      0.00 
    3    9   10     -1.64      0.00 
    4    9   10     -0.45      0.00 
    5    9   10      3.79      0.00 
    6    9   10      7.33      0.00 
    7    9   10      6.37      0.00 
    8    9   10      1.32      0.00 
    9    9   10     -2.91      0.00 
   10    9   10     -2.30      0.00 
   11    9   10      1.22      0.00 
   12    9   10      2.40      0.00 
   13    9   10     -0.37      0.00 
   14    9   10     -3.50      0.00 
   15    9   10     -3.82      0.00 
   16    9   10     -2.27      0.00 
   17    9   10     -1.18      0.00 
   18    9   10     -0.85      0.00 
   19    9   10     -0.40      0.00 
  -18   10   10     -0.22      0.00 
  -17   10   10     -0.79      0.00 
  -16   10   10     -2.27      0.00 
  -15   10   10     -3.01      0.00 
  -14   10   10     -1.11      0.00 
  -13   10   10      2.61      0.00 
  -12   10   10      4.58      0.00 
  -11   10   10      2.46      0.00 
  -10   10   10     -1.34      0.00 
   -9   10   10     -1.82      0.00 
   -8   10   10      2.55      0.00 
   -7   10   10      7.57      0.00 
   -6   10   10      7.89      0.00 
   -5   10   10      3.18      0.00 
   -4   10   10     -1.59      0.00 
   -3   10   10     -1.66      0.00 
   -2   10   10      2.51      0.00 
   -1   10   10      5.81      0.00 
    0   10   10      3.99      0.00 
    1   10   10     -1.77      0.00 
    2   10   10     -6.09      0.00 
    3   10   10     -5.34      0.00 
    4   10   10     -1.58      0.00 
    5   10   10      0.24      0.00 
    6   10   10     -2.17      0.00 
    7   10   10     -6.14      0.00 
    8   10   10     -7.05      0.00 
    9   10   10     -3.27      0.00 
   10   10   10      1.81      0.00 
   11   10   10      3.35      0.00 
   12   10   10      0.70      0.00 
   13   10   10     -1.94      0.00 
   14   10   10     -1.33      0.00 
   15   10   10      0.82      0.00 
   16   10   10      1.37      0.00 
   17   10   10      0.44      0.00 
   18   10   10      0.04      0.00 
  -18   11   10     -2.67      0.00 
  -17   11   10     -2.95      0.00 
  -16   11   10     -1.98      0.00 
  -15   11   10      0.49      0.00 
  -14   11   10      3.01      0.00 
  -13   11   10      3.18      0.00 
  -12   11   10      0.78      0.00 
  -11   11   10     -0.90      0.00 
  -10   11   10      1.61      0.00 
   -9   11   10      7.09      0.00 
   -8   11   10     10.11      0.00 
   -7   11   10      7.19      0.00 
   -6   11   10      1.03      0.00 
   -5   11   10     -2.74      0.00 
   -4   11   10     -1.87      0.00 
   -3   11   10      0.65      0.00 
   -2   11   10      0.28      0.00 
   -1   11   10     -4.34      0.00 
    0   11   10     -9.74      0.00 
    1   11   10    -10.76      0.00 
    2   11   10     -6.04      0.00 
    3   11   10      0.09      0.00 
    4   11   10      2.44      0.00 
    5   11   10      0.74      0.00 
    6   11   10     -1.00      0.00 
    7   11   10      0.34      0.00 
    8   11   10      4.03      0.00 
    9   11   10      6.83      0.00 
   10   11   10      6.00      0.00 
   11   11   10      2.18      0.00 
   12   11   10     -0.79      0.00 
   13   11   10     -0.28      0.00 
   14   11   10      1.74      0.00 
   15   11   10      1.82      0.00 
   16   11   10      0.08      0.00 
   17   11   10     -0.86      0.00 
  -17   12   10      1.98      0.00 
  -16   12   10      3.17      0.00 
  -15   12   10      3.57      0.00 
  -14   12   10      2.29      0.00 
  -13   12   10      0.12      0.00 
  -12   12   10     -0.47      0.00 
  -11   12   10      1.74      0.00 
  -10   12   10      4.30      0.00 
   -9   12   10      3.28      0.00 
   -8   12   10     -1.76      0.00 
   -7   12   10     -6.47      0.00 
   -6   12   10     -6.54      0.00 
   -5   12   10     -2.64      0.00 
   -4   12   10      0.69      0.00 
   -3   12   10      0.17      0.00 
   -2   12   10     -3.08      0.00 
   -1   12   10     -5.05      0.00 
    0   12   10     -2.66      0.00 
    1   12   10      2.84      0.00 
    2   12   10      6.61      0.00 
    3   12   10      5.38      0.00 
    4   12   10      1.26      0.00 
    5   12   10     -1.13      0.00 
    6   12   10     -0.19      0.00 
    7   12   10      2.00      0.00 
    8   12   10      2.85      0.00 
    9   12   10      1.26      0.00 
   10   12   10     -1.84      0.00 
   11   12   10     -3.78      0.00 
   12   12   10     -2.80      0.00 
   13   12   10     -0.70      0.00 
   14   12   10     -0.48      0.00 
   15   12   10     -1.84      0.00 
   16   12   10     -2.07      0.00 
  -16   13   10     -0.87      0.00 
  -15   13   10     -2.18      0.00 
  -14   13   10     -2.87      0.00 
  -13   13   10     -1.65      0.00 
  -12   13   10      1.04      0.00 
  -11   13   10      2.65      0.00 
  -10   13   10      1.30      0.00 
   -9   13   10     -1.57      0.00 
   -8   13   10     -2.24      0.00 
   -7   13   10      0.83      0.00 
   -6   13   10      4.77      0.00 
   -5   13   10      5.38      0.00 
   -4   13   10      1.70      0.00 
   -3   13   10     -3.14      0.00 
   -2   13   10     -5.26      0.00 
   -1   13   10     -3.50      0.00 
    0   13   10     -0.37      0.00 
    1   13   10      0.31      0.00 
    2   13   10     -2.40      0.00 
    3   13   10     -5.31      0.00 
    4   13   10     -5.03      0.00 
    5   13   10     -1.97      0.00 
    6   13   10      0.96      0.00 
    7   13   10      1.96      0.00 
    8   13   10      1.02      0.00 
    9   13   10     -0.78      0.00 
   10   13   10     -1.52      0.00 
   11   13   10      0.01      0.00 
   12   13   10      2.02      0.00 
   13   13   10      1.71      0.00 
   14   13   10     -0.39      0.00 
   15   13   10     -1.27      0.00 
  -15   14   10      0.77      0.00 
  -14   14   10      2.51      0.00 
  -13   14   10      3.86      0.00 
  -12   14   10      3.15      0.00 
  -11   14   10      0.38      0.00 
  -10   14   10     -2.09      0.00 
   -9   14   10     -1.84      0.00 
   -8   14   10      0.52      0.00 
   -7   14   10      1.63      0.00 
   -6   14   10     -0.78      0.00 
   -5   14   10     -5.22      0.00 
   -4   14   10     -8.06      0.00 
   -3   14   10     -7.13      0.00 
   -2   14   10     -3.40      0.00 
   -1   14   10      0.11      0.00 
    0   14   10      1.01      0.00 
    1   14   10     -0.07      0.00 
    2   14   10     -0.20      0.00 
    3   14   10      2.13      0.00 
    4   14   10      5.00      0.00 
    5   14   10      5.93      0.00 
    6   14   10      4.66      0.00 
    7   14   10      2.31      0.00 
    8   14   10     -0.13      0.00 
    9   14   10     -1.23      0.00 
   10   14   10     -0.12      0.00 
   11   14   10      1.28      0.00 
   12   14   10      0.14      0.00 
   13   14   10     -2.74      0.00 
   14   14   10     -3.80      0.00 
  -13   15   10     -1.63      0.00 
  -12   15   10     -3.29      0.00 
  -11   15   10     -3.50      0.00 
  -10   15   10     -1.46      0.00 
   -9   15   10      1.12      0.00 
   -8   15   10      1.44      0.00 
   -7   15   10     -0.86      0.00 
   -6   15   10     -3.08      0.00 
   -5   15   10     -2.55      0.00 
   -4   15   10      0.58      0.00 
   -3   15   10      3.98      0.00 
   -2   15   10      5.40      0.00 
   -1   15   10      4.19      0.00 
    0   15   10      1.86      0.00 
    1   15   10      0.93      0.00 
    2   15   10      1.96      0.00 
    3   15   10      2.87      0.00 
    4   15   10      2.05      0.00 
    5   15   10      0.33      0.00 
    6   15   10     -1.16      0.00 
    7   15   10     -2.40      0.00 
    8   15   10     -2.85      0.00 
    9   15   10     -1.51      0.00 
   10   15   10      0.25      0.00 
   11   15   10     -0.23      0.00 
   12   15   10     -2.38      0.00 
   13   15   10     -2.79      0.00 
  -12   16   10      0.62      0.00 
  -11   16   10      2.63      0.00 
  -10   16   10      3.99      0.00 
   -9   16   10      3.02      0.00 
   -8   16   10      0.26      0.00 
   -7   16   10     -1.61      0.00 
   -6   16   10     -0.99      0.00 
   -5   16   10      0.88      0.00 
   -4   16   10      1.88      0.00 
   -3   16   10      1.13      0.00 
   -2   16   10     -0.89      0.00 
   -1   16   10     -2.76      0.00 
    0   16   10     -2.77      0.00 
    1   16   10     -0.83      0.00 
    2   16   10      0.96      0.00 
    3   16   10      1.13      0.00 
    4   16   10      0.50      0.00 
    5   16   10      0.01      0.00 
    6   16   10     -0.83      0.00 
    7   16   10     -1.73      0.00 
    8   16   10     -1.11      0.00 
    9   16   10      0.73      0.00 
   10   16   10      1.30      0.00 
   11   16   10      0.13      0.00 
   12   16   10     -0.38      0.00 
  -10   17   10     -1.63      0.00 
   -9   17   10     -3.69      0.00 
   -8   17   10     -4.35      0.00 
   -7   17   10     -2.93      0.00 
   -6   17   10     -0.88      0.00 
   -5   17   10      0.23      0.00 
   -4   17   10      0.30      0.00 
   -3   17   10     -0.04      0.00 
   -2   17   10     -0.10      0.00 
   -1   17   10      0.87      0.00 
    0   17   10      2.70      0.00 
    1   17   10      3.71      0.00 
    2   17   10      2.87      0.00 
    3   17   10      1.33      0.00 
    4   17   10      0.30      0.00 
    5   17   10     -0.67      0.00 
    6   17   10     -1.68      0.00 
    7   17   10     -1.32      0.00 
    8   17   10      0.64      0.00 
    9   17   10      1.99      0.00 
   10   17   10      1.45      0.00 
   -8   18   10      0.92      0.00 
   -7   18   10      1.92      0.00 
   -6   18   10      1.98      0.00 
   -5   18   10      1.64      0.00 
   -4   18   10      1.43      0.00 
   -3   18   10      1.37      0.00 
   -2   18   10      1.57      0.00 
   -1   18   10      1.98      0.00 
    0   18   10      1.87      0.00 
    1   18   10      0.98      0.00 
    2   18   10      0.24      0.00 
    3   18   10      0.23      0.00 
    4   18   10      0.03      0.00 
    5   18   10     -0.84      0.00 
    6   18   10     -1.10      0.00 
    7   18   10     -0.03      0.00 
   -4   19   10      0.23      0.00 
   -3   19   10      0.10      0.00 
   -2   19   10      0.07      0.00 
   -1   19   10      0.17      0.00 
    0   19   10      0.32      0.00 
    1   19   10      0.67      0.00 
    2   19   10      0.93      0.00 
    3   19   10      0.33      0.00 
  -21    1   11     -0.42      0.00 
  -20    1   11     -0.24      0.00 
  -19    1   11      0.01      0.00 
  -18    1   11     -0.39      0.00 
  -17    1   11     -1.47      0.00 
  -16    1   11     -2.23      0.00 
  -15    1   11     -1.38      0.00 
  -14    1   11      1.38      0.00 
  -13    1   11      4.46      0.00 
  -12    1   11      5.40      0.00 
  -11    1   11      3.24      0.00 
  -10    1   11     -0.65      0.00 
   -9    1   11     -4.41      0.00 
   -8    1   11     -7.32      0.00 
   -7    1   11     -9.67      0.00 
   -6    1   11    -11.85      0.00 
   -5    1   11    -13.64      0.00 
   -4    1   11    -13.68      0.00 
   -3    1   11    -10.14      0.00 
   -2    1   11     -3.36      0.00 
   -1    1   11      3.14      0.00 
    0    1   11      6.20      0.00 
    1    1   11      6.94      0.00 
    2    1   11      9.29      0.00 
    3    1   11     14.86      0.00 
    4    1   11     20.80      0.00 
    5    1   11     22.65      0.00 
    6    1   11     18.34      0.00 
    7    1   11     10.08      0.00 
    8    1   11      2.53      0.00 
    9    1   11     -1.29      0.00 
   10    1   11     -2.31      0.00 
   11    1   11     -3.13      0.00 
   12    1   11     -4.40      0.00 
   13    1   11     -4.95      0.00 
   14    1   11     -4.22      0.00 
   15    1   11     -2.83      0.00 
   16    1   11     -1.49      0.00 
   17    1   11     -0.63      0.00 
   18    1   11     -0.42      0.00 
   19    1   11     -0.28      0.00 
   20    1   11      0.52      0.00 
   21    1   11      1.50      0.00 
  -21    2   11     -0.85      0.00 
  -20    2   11     -0.54      0.00 
  -19    2   11     -1.53      0.00 
  -18    2   11     -3.19      0.00 
  -17    2   11     -3.73      0.00 
  -16    2   11     -2.05      0.00 
  -15    2   11      0.96      0.00 
  -14    2   11      2.51      0.00 
  -13    2   11      0.08      0.00 
  -12    2   11     -5.50      0.00 
  -11    2   11    -10.22      0.00 
  -10    2   11    -11.00      0.00 
   -9    2   11     -8.61      0.00 
   -8    2   11     -5.80      0.00 
   -7    2   11     -3.88      0.00 
   -6    2   11     -1.89      0.00 
   -5    2   11      2.23      0.00 
   -4    2   11      9.62      0.00 
   -3    2   11     17.97      0.00 
   -2    2   11     21.88      0.00 
   -1    2   11     18.70      0.00 
    0    2   11     12.98      0.00 
    1    2   11     11.86      0.00 
    2    2   11     16.02      0.00 
    3    2   11     18.68      0.00 
    4    2   11     13.50      0.00 
    5    2   11      1.29      0.00 
    6    2   11    -10.96      0.00 
    7    2   11    -16.44      0.00 
    8    2   11    -14.17      0.00 
    9    2   11     -9.19      0.00 
   10    2   11     -6.67      0.00 
   11    2   11     -6.74      0.00 
   12    2   11     -6.34      0.00 
   13    2   11     -4.24      0.00 
   14    2   11     -1.85      0.00 
   15    2   11     -0.45      0.00 
   16    2   11     -0.08      0.00 
   17    2   11     -0.38      0.00 
   18    2   11     -0.54      0.00 
   19    2   11      0.22      0.00 
   20    2   11      1.28      0.00 
   21    2   11      1.16      0.00 
  -21    3   11     -0.86      0.00 
  -20    3   11     -3.27      0.00 
  -19    3   11     -5.44      0.00 
  -18    3   11     -5.21      0.00 
  -17    3   11     -2.41      0.00 
  -16    3   11      0.88      0.00 
  -15    3   11      2.00      0.00 
  -14    3   11      0.05      0.00 
  -13    3   11     -2.40      0.00 
  -12    3   11     -1.15      0.00 
  -11    3   11      4.66      0.00 
  -10    3   11     10.66      0.00 
   -9    3   11     11.92      0.00 
   -8    3   11      8.52      0.00 
   -7    3   11      4.78      0.00 
   -6    3   11      4.33      0.00 
   -5    3   11      6.89      0.00 
   -4    3   11      8.45      0.00 
   -3    3   11      4.71      0.00 
   -2    3   11     -3.60      0.00 
   -1    3   11     -9.25      0.00 
    0    3   11     -5.94      0.00 
    1    3   11      2.96      0.00 
    2    3   11      7.12      0.00 
    3    3   11      1.04      0.00 
    4    3   11    -10.08      0.00 
    5    3   11    -16.63      0.00 
    6    3   11    -14.10      0.00 
    7    3   11     -6.22      0.00 
    8    3   11     -0.41      0.00 
    9    3   11     -0.53      0.00 
   10    3   11     -3.75      0.00 
   11    3   11     -4.97      0.00 
   12    3   11     -2.97      0.00 
   13    3   11     -0.38      0.00 
   14    3   11      0.80      0.00 
   15    3   11      0.99      0.00 
   16    3   11      1.23      0.00 
   17    3   11      2.01      0.00 
   18    3   11      3.30      0.00 
   19    3   11      4.13      0.00 
   20    3   11      3.37      0.00 
   21    3   11      1.54      0.00 
  -21    4   11     -1.52      0.00 
  -20    4   11     -1.24      0.00 
  -19    4   11      1.50      0.00 
  -18    4   11      5.59      0.00 
  -17    4   11      8.33      0.00 
  -16    4   11      7.82      0.00 
  -15    4   11      4.92      0.00 
  -14    4   11      2.96      0.00 
  -13    4   11      4.56      0.00 
  -12    4   11      7.76      0.00 
  -11    4   11      6.93      0.00 
  -10    4   11     -0.75      0.00 
   -9    4   11    -10.79      0.00 
   -8    4   11    -15.54      0.00 
   -7    4   11    -12.20      0.00 
   -6    4   11     -5.33      0.00 
   -5    4   11     -1.83      0.00 
   -4    4   11     -4.31      0.00 
   -3    4   11     -8.32      0.00 
   -2    4   11     -6.34      0.00 
   -1    4   11      3.77      0.00 
    0    4   11     14.42      0.00 
    1    4   11     15.54      0.00 
    2    4   11      6.02      0.00 
    3    4   11     -4.94      0.00 
    4    4   11     -8.20      0.00 
    5    4   11     -3.48      0.00 
    6    4   11      2.27      0.00 
    7    4   11      2.74      0.00 
    8    4   11     -1.96      0.00 
    9    4   11     -6.27      0.00 
   10    4   11     -5.41      0.00 
   11    4   11     -0.46      0.00 
   12    4   11      3.77      0.00 
   13    4   11      4.63      0.00 
   14    4   11      3.55      0.00 
   15    4   11      2.83      0.00 
   16    4   11      3.11      0.00 
   17    4   11      3.65      0.00 
   18    4   11      3.34      0.00 
   19    4   11      1.70      0.00 
   20    4   11     -0.21      0.00 
  -21    5   11      0.67      0.00 
  -20    5   11      2.47      0.00 
  -19    5   11      4.23      0.00 
  -18    5   11      4.04      0.00 
  -17    5   11      0.99      0.00 
  -16    5   11     -3.03      0.00 
  -15    5   11     -4.48      0.00 
  -14    5   11     -2.27      0.00 
  -13    5   11      0.05      0.00 
  -12    5   11     -2.13      0.00 
  -11    5   11     -8.32      0.00 
  -10    5   11    -12.06      0.00 
   -9    5   11     -7.48      0.00 
   -8    5   11      3.61      0.00 
   -7    5   11     12.62      0.00 
   -6    5   11     12.53      0.00 
   -5    5   11      5.15      0.00 
   -4    5   11     -0.56      0.00 
   -3    5   11      2.44      0.00 
   -2    5   11     11.55      0.00 
   -1    5   11     16.63      0.00 
    0    5   11     10.84      0.00 
    1    5   11     -1.73      0.00 
    2    5   11    -10.50      0.00 
    3    5   11     -9.74      0.00 
    4    5   11     -3.38      0.00 
    5    5   11      0.56      0.00 
    6    5   11     -1.69      0.00 
    7    5   11     -6.85      0.00 
    8    5   11     -8.66      0.00 
    9    5   11     -4.52      0.00 
   10    5   11      1.75      0.00 
   11    5   11      4.40      0.00 
   12    5   11      2.19      0.00 
   13    5   11     -1.24      0.00 
   14    5   11     -2.50      0.00 
   15    5   11     -1.61      0.00 
   16    5   11     -0.36      0.00 
   17    5   11     -0.04      0.00 
   18    5   11     -0.67      0.00 
   19    5   11     -1.17      0.00 
   20    5   11     -0.58      0.00 
  -20    6   11      1.09      0.00 
  -19    6   11      1.50      0.00 
  -18    6   11      0.54      0.00 
  -17    6   11     -0.57      0.00 
  -16    6   11      0.79      0.00 
  -15    6   11      4.51      0.00 
  -14    6   11      6.47      0.00 
  -13    6   11      3.55      0.00 
  -12    6   11     -1.54      0.00 
  -11    6   11     -2.89      0.00 
  -10    6   11      1.70      0.00 
   -9    6   11      7.50      0.00 
   -8    6   11      7.01      0.00 
   -7    6   11     -2.28      0.00 
   -6    6   11    -13.91      0.00 
   -5    6   11    -17.55      0.00 
   -4    6   11     -9.55      0.00 
   -3    6   11      2.40      0.00 
   -2    6   11      6.87      0.00 
   -1    6   11      0.69      0.00 
    0    6   11     -8.36      0.00 
    1    6   11    -10.74      0.00 
    2    6   11     -5.05      0.00 
    3    6   11      1.89      0.00 
    4    6   11      3.03      0.00 
    5    6   11     -2.10      0.00 
    6    6   11     -7.71      0.00 
    7    6   11     -7.78      0.00 
    8    6   11     -2.05      0.00 
    9    6   11      3.83      0.00 
   10    6   11      4.66      0.00 
   11    6   11      1.35      0.00 
   12    6   11     -1.11      0.00 
   13    6   11     -0.14      0.00 
   14    6   11      2.40      0.00 
   15    6   11      3.86      0.00 
   16    6   11      3.72      0.00 
   17    6   11      2.74      0.00 
   18    6   11      1.71      0.00 
   19    6   11      1.16      0.00 
   20    6   11      0.99      0.00 
  -20    7   11      2.95      0.00 
  -19    7   11      3.36      0.00 
  -18    7   11      2.64      0.00 
  -17    7   11      2.57      0.00 
  -16    7   11      3.06      0.00 
  -15    7   11      1.04      0.00 
  -14    7   11     -4.64      0.00 
  -13    7   11     -9.97      0.00 
  -12    7   11    -10.32      0.00 
  -11    7   11     -6.32      0.00 
  -10    7   11     -3.28      0.00 
   -9    7   11     -5.44      0.00 
   -8    7   11    -11.41      0.00 
   -7    7   11    -14.40      0.00 
   -6    7   11     -8.09      0.00 
   -5    7   11      5.86      0.00 
   -4    7   11     17.39      0.00 
   -3    7   11     17.59      0.00 
   -2    7   11      8.19      0.00 
   -1    7   11     -0.54      0.00 
    0    7   11     -0.93      0.00 
    1    7   11      4.89      0.00 
    2    7   11      8.82      0.00 
    3    7   11      5.93      0.00 
    4    7   11     -1.07      0.00 
    5    7   11     -5.32      0.00 
    6    7   11     -2.86      0.00 
    7    7   11      3.67      0.00 
    8    7   11      7.91      0.00 
    9    7   11      6.44      0.00 
   10    7   11      2.18      0.00 
   11    7   11      0.29      0.00 
   12    7   11      1.90      0.00 
   13    7   11      3.68      0.00 
   14    7   11      3.02      0.00 
   15    7   11      0.72      0.00 
   16    7   11     -1.47      0.00 
   17    7   11     -3.06      0.00 
   18    7   11     -3.87      0.00 
   19    7   11     -3.42      0.00 
  -19    8   11     -1.03      0.00 
  -18    8   11     -2.05      0.00 
  -17    8   11     -2.75      0.00 
  -16    8   11     -4.62      0.00 
  -15    8   11     -7.55      0.00 
  -14    8   11     -8.14      0.00 
  -13    8   11     -4.12      0.00 
  -12    8   11      1.65      0.00 
  -11    8   11      4.17      0.00 
  -10    8   11      2.02      0.00 
   -9    8   11     -1.21      0.00 
   -8    8   11     -0.43      0.00 
   -7    8   11      6.11      0.00 
   -6    8   11     14.14      0.00 
   -5    8   11     16.29      0.00 
   -4    8   11      9.61      0.00 
   -3    8   11     -0.46      0.00 
   -2    8   11     -5.16      0.00 
   -1    8   11     -1.43      0.00 
    0    8   11      5.23      0.00 
    1    8   11      6.92      0.00 
    2    8   11      1.58      0.00 
    3    8   11     -5.46      0.00 
    4    8   11     -7.60      0.00 
    5    8   11     -3.75      0.00 
    6    8   11      1.41      0.00 
    7    8   11      2.70      0.00 
    8    8   11     -0.66      0.00 
    9    8   11     -4.95      0.00 
   10    8   11     -5.97      0.00 
   11    8   11     -3.47      0.00 
   12    8   11     -0.90      0.00 
   13    8   11     -0.72      0.00 
   14    8   11     -1.86      0.00 
   15    8   11     -2.42      0.00 
   16    8   11     -2.35      0.00 
   17    8   11     -2.28      0.00 
   18    8   11     -1.78      0.00 
   19    8   11     -0.60      0.00 
  -19    9   11      0.25      0.00 
  -18    9   11     -1.07      0.00 
  -17    9   11     -2.56      0.00 
  -16    9   11     -3.52      0.00 
  -15    9   11     -2.29      0.00 
  -14    9   11      1.09      0.00 
  -13    9   11      3.34      0.00 
  -12    9   11      1.57      0.00 
  -11    9   11     -2.71      0.00 
  -10    9   11     -4.94      0.00 
   -9    9   11     -2.30      0.00 
   -8    9   11      3.49      0.00 
   -7    9   11      7.57      0.00 
   -6    9   11      6.34      0.00 
   -5    9   11      1.10      0.00 
   -4    9   11     -2.85      0.00 
   -3    9   11     -1.57      0.00 
   -2    9   11      3.51      0.00 
   -1    9   11      6.83      0.00 
    0    9   11      4.07      0.00 
    1    9   11     -3.31      0.00 
    2    9   11     -9.14      0.00 
    3    9   11     -8.91      0.00 
    4    9   11     -4.24      0.00 
    5    9   11     -0.20      0.00 
    6    9   11      0.34      0.00 
    7    9   11     -1.56      0.00 
    8    9   11     -3.09      0.00 
    9    9   11     -2.06      0.00 
   10    9   11      1.45      0.00 
   11    9   11      4.78      0.00 
   12    9   11      5.34      0.00 
   13    9   11      3.64      0.00 
   14    9   11      2.01      0.00 
   15    9   11      1.25      0.00 
   16    9   11      0.55      0.00 
   17    9   11     -0.20      0.00 
   18    9   11     -0.49      0.00 
  -18   10   11     -4.59      0.00 
  -17   10   11     -3.88      0.00 
  -16   10   11     -2.00      0.00 
  -15   10   11     -0.06      0.00 
  -14   10   11      0.04      0.00 
  -13   10   11     -2.03      0.00 
  -12   10   11     -3.60      0.00 
  -11   10   11     -1.76      0.00 
  -10   10   11      3.22      0.00 
   -9   10   11      7.83      0.00 
   -8   10   11      8.70      0.00 
   -7   10   11      5.66      0.00 
   -6   10   11      1.88      0.00 
   -5   10   11      0.68      0.00 
   -4   10   11      2.24      0.00 
   -3   10   11      3.82      0.00 
   -2   10   11      2.61      0.00 
   -1   10   11     -1.71      0.00 
    0   10   11     -6.47      0.00 
    1   10   11     -7.87      0.00 
    2   10   11     -4.64      0.00 
    3   10   11      0.33      0.00 
    4   10   11      3.24      0.00 
    5   10   11      3.25      0.00 
    6   10   11      1.97      0.00 
    7   10   11      0.83      0.00 
    8   10   11      0.74      0.00 
    9   10   11      2.23      0.00 
   10   10   11      4.06      0.00 
   11   10   11      3.91      0.00 
   12   10   11      1.64      0.00 
   13   10   11     -0.21      0.00 
   14   10   11     -0.13      0.00 
   15   10   11      0.66      0.00 
   16   10   11      0.67      0.00 
   17   10   11      0.07      0.00 
   18   10   11     -0.36      0.00 
  -17   11   11      2.32      0.00 
  -16   11   11      2.47      0.00 
  -15   11   11      1.61      0.00 
  -14   11   11      0.57      0.00 
  -13   11   11      1.04      0.00 
  -12   11   11      3.37      0.00 
  -11   11   11      5.58      0.00 
  -10   11   11      5.36      0.00 
   -9   11   11      2.56      0.00 
   -8   11   11     -0.72      0.00 
   -7   11   11     -2.04      0.00 
   -6   11   11     -0.85      0.00 
   -5   11   11      1.08      0.00 
   -4   11   11      1.62      0.00 
   -3   11   11      0.30      0.00 
   -2   11   11     -1.69      0.00 
   -1   11   11     -2.83      0.00 
    0   11   11     -2.16      0.00 
    1   11   11     -0.10      0.00 
    2   11   11      1.46      0.00 
    3   11   11      1.03      0.00 
    4   11   11     -0.87      0.00 
    5   11   11     -2.70      0.00 
    6   11   11     -3.67      0.00 
    7   11   11     -3.36      0.00 
    8   11   11     -1.30      0.00 
    9   11   11      1.38      0.00 
   10   11   11      2.12      0.00 
   11   11   11      0.28      0.00 
   12   11   11     -1.59      0.00 
   13   11   11     -1.31      0.00 
   14   11   11      0.14      0.00 
   15   11   11      0.67      0.00 
   16   11   11      0.10      0.00 
   17   11   11     -0.29      0.00 
  -17   12   11     -0.41      0.00 
  -16   12   11     -1.03      0.00 
  -15   12   11     -0.94      0.00 
  -14   12   11      0.37      0.00 
  -13   12   11      1.99      0.00 
  -12   12   11      2.18      0.00 
  -11   12   11      0.62      0.00 
  -10   12   11     -0.88      0.00 
   -9   12   11     -0.51      0.00 
   -8   12   11      1.63      0.00 
   -7   12   11      3.69      0.00 
   -6   12   11      3.84      0.00 
   -5   12   11      1.82      0.00 
   -4   12   11     -1.01      0.00 
   -3   12   11     -3.26      0.00 
   -2   12   11     -4.55      0.00 
   -1   12   11     -5.06      0.00 
    0   12   11     -4.94      0.00 
    1   12   11     -4.53      0.00 
    2   12   11     -4.27      0.00 
    3   12   11     -4.02      0.00 
    4   12   11     -3.35      0.00 
    5   12   11     -2.03      0.00 
    6   12   11      0.10      0.00 
    7   12   11      3.00      0.00 
    8   12   11      5.38      0.00 
    9   12   11      5.26      0.00 
   10   12   11      2.69      0.00 
   11   12   11      0.34      0.00 
   12   12   11      0.27      0.00 
   13   12   11      1.37      0.00 
   14   12   11      1.36      0.00 
   15   12   11      0.09      0.00 
   16   12   11     -0.79      0.00 
  -16   13   11      0.94      0.00 
  -15   13   11      2.16      0.00 
  -14   13   11      2.47      0.00 
  -13   13   11      1.05      0.00 
  -12   13   11     -1.12      0.00 
  -11   13   11     -1.98      0.00 
  -10   13   11     -0.87      0.00 
   -9   13   11      0.66      0.00 
   -8   13   11      0.49      0.00 
   -7   13   11     -1.78      0.00 
   -6   13   11     -4.44      0.00 
   -5   13   11     -5.53      0.00 
   -4   13   11     -4.88      0.00 
   -3   13   11     -3.83      0.00 
   -2   13   11     -3.08      0.00 
   -1   13   11     -2.00      0.00 
    0   13   11     -0.09      0.00 
    1   13   11      2.01      0.00 
    2   13   11      3.35      0.00 
    3   13   11      3.75      0.00 
    4   13   11      3.74      0.00 
    5   13   11      3.99      0.00 
    6   13   11      4.57      0.00 
    7   13   11      4.43      0.00 
    8   13   11      2.41      0.00 
    9   13   11     -0.71      0.00 
   10   13   11     -2.56      0.00 
   11   13   11     -2.15      0.00 
   12   13   11     -1.14      0.00 
   13   13   11     -1.47      0.00 
   14   13   11     -2.65      0.00 
   15   13   11     -2.79      0.00 
  -14   14   11     -2.43      0.00 
  -13   14   11     -3.13      0.00 
  -12   14   11     -1.97      0.00 
  -11   14   11      0.26      0.00 
  -10   14   11      1.63      0.00 
   -9   14   11      1.02      0.00 
   -8   14   11     -0.74      0.00 
   -7   14   11     -1.52      0.00 
   -6   14   11     -0.16      0.00 
   -5   14   11      1.98      0.00 
   -4   14   11      2.57      0.00 
   -3   14   11      1.42      0.00 
   -2   14   11      0.48      0.00 
   -1   14   11      0.81      0.00 
    0   14   11      1.28      0.00 
    1   14   11      0.55      0.00 
    2   14   11     -1.00      0.00 
    3   14   11     -1.97      0.00 
    4   14   11     -1.53      0.00 
    5   14   11     -0.21      0.00 
    6   14   11      0.44      0.00 
    7   14   11     -0.56      0.00 
    8   14   11     -2.20      0.00 
    9   14   11     -2.41      0.00 
   10   14   11     -0.80      0.00 
   11   14   11      0.65      0.00 
   12   14   11      0.31      0.00 
   13   14   11     -0.94      0.00 
   14   14   11     -1.11      0.00 
  -13   15   11      1.65      0.00 
  -12   15   11      2.94      0.00 
  -11   15   11      2.69      0.00 
  -10   15   11      1.22      0.00 
   -9   15   11     -0.23      0.00 
   -8   15   11     -0.47      0.00 
   -7   15   11      0.47      0.00 
   -6   15   11      0.93      0.00 
   -5   15   11     -0.61      0.00 
   -4   15   11     -3.16      0.00 
   -3   15   11     -4.14      0.00 
   -2   15   11     -2.93      0.00 
   -1   15   11     -1.53      0.00 
    0   15   11     -1.44      0.00 
    1   15   11     -1.65      0.00 
    2   15   11     -0.51      0.00 
    3   15   11      1.94      0.00 
    4   15   11      4.06      0.00 
    5   15   11      4.24      0.00 
    6   15   11      2.26      0.00 
    7   15   11     -0.28      0.00 
    8   15   11     -1.18      0.00 
    9   15   11     -0.08      0.00 
   10   15   11      1.07      0.00 
   11   15   11      0.46      0.00 
   12   15   11     -1.21      0.00 
   13   15   11     -1.93      0.00 
  -12   16   11     -0.39      0.00 
  -11   16   11     -1.68      0.00 
  -10   16   11     -2.22      0.00 
   -9   16   11     -1.84      0.00 
   -8   16   11     -1.18      0.00 
   -7   16   11     -1.20      0.00 
   -6   16   11     -2.11      0.00 
   -5   16   11     -2.54      0.00 
   -4   16   11     -0.87      0.00 
   -3   16   11      2.22      0.00 
   -2   16   11      4.09      0.00 
   -1   16   11      3.55      0.00 
    0   16   11      2.31      0.00 
    1   16   11      2.40      0.00 
    2   16   11      3.50      0.00 
    3   16   11      3.82      0.00 
    4   16   11      2.34      0.00 
    5   16   11     -0.32      0.00 
    6   16   11     -2.56      0.00 
    7   16   11     -2.89      0.00 
    8   16   11     -1.30      0.00 
    9   16   11      0.44      0.00 
   10   16   11      0.56      0.00 
   11   16   11     -0.64      0.00 
  -10   17   11      0.72      0.00 
   -9   17   11      1.19      0.00 
   -8   17   11      0.59      0.00 
   -7   17   11     -0.51      0.00 
   -6   17   11     -0.70      0.00 
   -5   17   11      0.78      0.00 
   -4   17   11      2.70      0.00 
   -3   17   11      2.79      0.00 
   -2   17   11      0.64      0.00 
   -1   17   11     -1.55      0.00 
    0   17   11     -1.66      0.00 
    1   17   11     -0.20      0.00 
    2   17   11      0.69      0.00 
    3   17   11     -0.07      0.00 
    4   17   11     -1.70      0.00 
    5   17   11     -2.76      0.00 
    6   17   11     -2.41      0.00 
    7   17   11     -0.91      0.00 
    8   17   11      0.54      0.00 
    9   17   11      0.78      0.00 
   -7   18   11     -2.36      0.00 
   -6   18   11     -0.86      0.00 
   -5   18   11      0.60      0.00 
   -4   18   11      0.42      0.00 
   -3   18   11     -1.19      0.00 
   -2   18   11     -2.11      0.00 
   -1   18   11     -0.87      0.00 
    0   18   11      1.50      0.00 
    1   18   11      2.61      0.00 
    2   18   11      1.55      0.00 
    3   18   11     -0.32      0.00 
    4   18   11     -1.19      0.00 
    5   18   11     -0.61      0.00 
    6   18   11      0.53      0.00 
    7   18   11      1.26      0.00 
   -2   19   11      0.82      0.00 
   -1   19   11      2.22      0.00 
    0   19   11      2.24      0.00 
    1   19   11      0.75      0.00 
    2   19   11     -0.67      0.00 
  -20    0   12      1.49      0.00 
  -19    0   12      1.07      0.00 
  -18    0   12     -1.99      0.00 
  -17    0   12     -6.02      0.00 
  -16    0   12     -7.80      0.00 
  -15    0   12     -5.00      0.00 
  -14    0   12      1.36      0.00 
  -13    0   12      6.29      0.00 
  -12    0   12      4.57      0.00 
  -11    0   12     -3.31      0.00 
  -10    0   12    -10.42      0.00 
   -9    0   12    -10.65      0.00 
   -8    0   12     -5.67      0.00 
   -7    0   12     -2.85      0.00 
   -6    0   12     -7.10      0.00 
   -5    0   12    -15.59      0.00 
   -4    0   12    -19.50      0.00 
   -3    0   12    -11.67      0.00 
   -2    0   12      4.91      0.00 
   -1    0   12     17.43      0.00 
    0    0   12     16.17      0.00 
    1    0   12      6.41      0.00 
    2    0   12      2.85      0.00 
    3    0   12     12.47      0.00 
    4    0   12     27.12      0.00 
    5    0   12     33.20      0.00 
    6    0   12     25.05      0.00 
    7    0   12      9.02      0.00 
    8    0   12     -3.39      0.00 
    9    0   12     -6.18      0.00 
   10    0   12     -3.28      0.00 
   11    0   12     -1.99      0.00 
   12    0   12     -4.26      0.00 
   13    0   12     -6.76      0.00 
   14    0   12     -7.07      0.00 
   15    0   12     -5.67      0.00 
   16    0   12     -3.61      0.00 
   17    0   12     -1.82      0.00 
   18    0   12     -1.22      0.00 
   19    0   12     -1.30      0.00 
   20    0   12     -0.41      0.00 
   21    0   12      1.22      0.00 
  -21    1   12     -0.01      0.00 
  -20    1   12     -1.18      0.00 
  -19    1   12     -3.72      0.00 
  -18    1   12     -5.60      0.00 
  -17    1   12     -4.73      0.00 
  -16    1   12     -1.00      0.00 
  -15    1   12      3.14      0.00 
  -14    1   12      3.88      0.00 
  -13    1   12     -0.61      0.00 
  -12    1   12     -7.09      0.00 
  -11    1   12     -9.03      0.00 
  -10    1   12     -3.65      0.00 
   -9    1   12      4.07      0.00 
   -8    1   12      6.55      0.00 
   -7    1   12      2.09      0.00 
   -6    1   12     -3.29      0.00 
   -5    1   12     -1.90      0.00 
   -4    1   12      8.08      0.00 
   -3    1   12     19.61      0.00 
   -2    1   12     21.85      0.00 
   -1    1   12     11.49      0.00 
    0    1   12     -1.54      0.00 
    1    1   12     -3.96      0.00 
    2    1   12      5.42      0.00 
    3    1   12     14.48      0.00 
    4    1   12     11.95      0.00 
    5    1   12     -1.10      0.00 
    6    1   12    -14.07      0.00 
    7    1   12    -17.73      0.00 
    8    1   12    -11.92      0.00 
    9    1   12     -4.18      0.00 
   10    1   12     -1.44      0.00 
   11    1   12     -3.45      0.00 
   12    1   12     -5.25      0.00 
   13    1   12     -4.25      0.00 
   14    1   12     -1.80      0.00 
   15    1   12      0.27      0.00 
   16    1   12      1.30      0.00 
   17    1   12      1.12      0.00 
   18    1   12      0.41      0.00 
   19    1   12      0.52      0.00 
   20    1   12      1.42      0.00 
   21    1   12      1.58      0.00 
  -21    2   12     -1.01      0.00 
  -20    2   12     -2.75      0.00 
  -19    2   12     -3.42      0.00 
  -18    2   12     -2.14      0.00 
  -17    2   12      0.35      0.00 
  -16    2   12      2.18      0.00 
  -15    2   12      1.77      0.00 
  -14    2   12     -0.47      0.00 
  -13    2   12     -1.47      0.00 
  -12    2   12      1.99      0.00 
  -11    2   12      8.78      0.00 
  -10    2   12     12.72      0.00 
   -9    2   12      8.69      0.00 
   -8    2   12     -0.89      0.00 
   -7    2   12     -7.88      0.00 
   -6    2   12     -6.79      0.00 
   -5    2   12     -0.13      0.00 
   -4    2   12      4.08      0.00 
   -3    2   12     -0.22      0.00 
   -2    2   12    -10.49      0.00 
   -1    2   12    -16.37      0.00 
    0    2   12     -9.94      0.00 
    1    2   12      4.35      0.00 
    2    2   12     13.63      0.00 
    3    2   12     10.88      0.00 
    4    2   12      1.69      0.00 
    5    2   12     -3.78      0.00 
    6    2   12     -1.62      0.00 
    7    2   12      4.00      0.00 
    8    2   12      6.66      0.00 
    9    2   12      3.78      0.00 
   10    2   12     -1.73      0.00 
   11    2   12     -5.01      0.00 
   12    2   12     -4.37      0.00 
   13    2   12     -1.96      0.00 
   14    2   12     -0.16      0.00 
   15    2   12      0.55      0.00 
   16    2   12      0.63      0.00 
   17    2   12      0.61      0.00 
   18    2   12      1.09      0.00 
   19    2   12      2.01      0.00 
   20    2   12      2.40      0.00 
  -21    3   12     -1.11      0.00 
  -20    3   12     -0.73      0.00 
  -19    3   12      0.37      0.00 
  -18    3   12      1.68      0.00 
  -17    3   12      2.39      0.00 
  -16    3   12      2.04      0.00 
  -15    3   12      1.34      0.00 
  -14    3   12      1.85      0.00 
  -13    3   12      4.00      0.00 
  -12    3   12      5.40      0.00 
  -11    3   12      2.35      0.00 
  -10    3   12     -5.67      0.00 
   -9    3   12    -13.47      0.00 
   -8    3   12    -14.22      0.00 
   -7    3   12     -6.72      0.00 
   -6    3   12      2.75      0.00 
   -5    3   12      6.54      0.00 
   -4    3   12      3.03      0.00 
   -3    3   12     -1.97      0.00 
   -2    3   12     -0.62      0.00 
   -1    3   12      8.98      0.00 
    0    3   12     19.75      0.00 
    1    3   12     22.12      0.00 
    2    3   12     14.26      0.00 
    3    3   12      3.68      0.00 
    4    3   12     -1.94      0.00 
    5    3   12     -2.25      0.00 
    6    3   12     -1.85      0.00 
    7    3   12     -3.83      0.00 
    8    3   12     -7.45      0.00 
    9    3   12     -9.99      0.00 
   10    3   12     -9.29      0.00 
   11    3   12     -5.58      0.00 
   12    3   12     -1.43      0.00 
   13    3   12      0.88      0.00 
   14    3   12      1.33      0.00 
   15    3   12      1.13      0.00 
   16    3   12      0.97      0.00 
   17    3   12      0.90      0.00 
   18    3   12      0.87      0.00 
   19    3   12      0.71      0.00 
   20    3   12      0.31      0.00 
  -21    4   12     -0.37      0.00 
  -20    4   12     -0.97      0.00 
  -19    4   12     -1.24      0.00 
  -18    4   12     -1.04      0.00 
  -17    4   12     -0.86      0.00 
  -16    4   12     -0.66      0.00 
  -15    4   12      0.26      0.00 
  -14    4   12      1.67      0.00 
  -13    4   12      1.96      0.00 
  -12    4   12      0.16      0.00 
  -11    4   12     -2.12      0.00 
  -10    4   12     -1.49      0.00 
   -9    4   12      3.91      0.00 
   -8    4   12     11.47      0.00 
   -7    4   12     15.15      0.00 
   -6    4   12     11.09      0.00 
   -5    4   12      2.13      0.00 
   -4    4   12     -4.38      0.00 
   -3    4   12     -3.56      0.00 
   -2    4   12      2.47      0.00 
   -1    4   12      6.76      0.00 
    0    4   12      4.15      0.00 
    1    4   12     -3.84      0.00 
    2    4   12    -10.87      0.00 
    3    4   12    -12.65      0.00 
    4    4   12    -10.55      0.00 
    5    4   12     -8.31      0.00 
    6    4   12     -7.35      0.00 
    7    4   12     -6.66      0.00 
    8    4   12     -5.12      0.00 
    9    4   12     -2.46      0.00 
   10    4   12      0.69      0.00 
   11    4   12      2.86      0.00 
   12    4   12      2.93      0.00 
   13    4   12      1.57      0.00 
   14    4   12      0.39      0.00 
   15    4   12      0.03      0.00 
   16    4   12      0.17      0.00 
   17    4   12      0.63      0.00 
   18    4   12      1.43      0.00 
   19    4   12      2.05      0.00 
   20    4   12      1.95      0.00 
  -20    5   12      0.34      0.00 
  -19    5   12      2.74      0.00 
  -18    5   12      5.09      0.00 
  -17    5   12      6.34      0.00 
  -16    5   12      6.87      0.00 
  -15    5   12      6.88      0.00 
  -14    5   12      5.77      0.00 
  -13    5   12      3.65      0.00 
  -12    5   12      1.84      0.00 
  -11    5   12      1.08      0.00 
  -10    5   12      0.55      0.00 
   -9    5   12     -1.42      0.00 
   -8    5   12     -6.19      0.00 
   -7    5   12    -13.26      0.00 
   -6    5   12    -19.14      0.00 
   -5    5   12    -19.35      0.00 
   -4    5   12    -12.97      0.00 
   -3    5   12     -4.15      0.00 
   -2    5   12      1.56      0.00 
   -1    5   12      2.06      0.00 
    0    5   12     -0.28      0.00 
    1    5   12     -1.53      0.00 
    2    5   12      0.02      0.00 
    3    5   12      2.75      0.00 
    4    5   12      4.21      0.00 
    5    5   12      3.80      0.00 
    6    5   12      2.50      0.00 
    7    5   12      1.34      0.00 
    8    5   12      0.99      0.00 
    9    5   12      1.63      0.00 
   10    5   12      2.48      0.00 
   11    5   12      2.39      0.00 
   12    5   12      1.41      0.00 
   13    5   12      0.62      0.00 
   14    5   12      0.58      0.00 
   15    5   12      1.13      0.00 
   16    5   12      2.21      0.00 
   17    5   12      3.51      0.00 
   18    5   12      3.92      0.00 
   19    5   12      2.75      0.00 
   20    5   12      0.92      0.00 
  -20    6   12      3.91      0.00 
  -19    6   12      5.45      0.00 
  -18    6   12      4.83      0.00 
  -17    6   12      2.49      0.00 
  -16    6   12     -0.40      0.00 
  -15    6   12     -3.28      0.00 
  -14    6   12     -5.63      0.00 
  -13    6   12     -6.95      0.00 
  -12    6   12     -7.74      0.00 
  -11    6   12     -8.97      0.00 
  -10    6   12    -10.30      0.00 
   -9    6   12    -10.32      0.00 
   -8    6   12     -8.33      0.00 
   -7    6   12     -4.42      0.00 
   -6    6   12      1.25      0.00 
   -5    6   12      7.80      0.00 
   -4    6   12     13.09      0.00 
   -3    6   12     15.03      0.00 
   -2    6   12     13.42      0.00 
   -1    6   12     10.00      0.00 
    0    6   12      6.99      0.00 
    1    6   12      5.49      0.00 
    2    6   12      4.86      0.00 
    3    6   12      3.79      0.00 
    4    6   12      1.79      0.00 
    5    6   12     -0.66      0.00 
    6    6   12     -2.76      0.00 
    7    6   12     -3.50      0.00 
    8    6   12     -2.34      0.00 
    9    6   12     -0.37      0.00 
   10    6   12      0.39      0.00 
   11    6   12     -0.58      0.00 
   12    6   12     -1.88      0.00 
   13    6   12     -2.24      0.00 
   14    6   12     -1.66      0.00 
   15    6   12     -0.62      0.00 
   16    6   12      0.16      0.00 
   17    6   12     -0.27      0.00 
   18    6   12     -1.91      0.00 
   19    6   12     -3.01      0.00 
  -20    7   12      1.25      0.00 
  -19    7   12      0.46      0.00 
  -18    7   12     -1.56      0.00 
  -17    7   12     -3.38      0.00 
  -16    7   12     -3.82      0.00 
  -15    7   12     -2.67      0.00 
  -14    7   12     -0.76      0.00 
  -13    7   12      0.43      0.00 
  -12    7   12      0.25      0.00 
  -11    7   12      0.04      0.00 
  -10    7   12      1.55      0.00 
   -9    7   12      4.32      0.00 
   -8    7   12      5.91      0.00 
   -7    7   12      4.95      0.00 
   -6    7   12      2.60      0.00 
   -5    7   12      0.94      0.00 
   -4    7   12      0.72      0.00 
   -3    7   12      0.87      0.00 
   -2    7   12      0.17      0.00 
   -1    7   12     -1.12      0.00 
    0    7   12     -1.73      0.00 
    1    7   12     -1.27      0.00 
    2    7   12     -0.83      0.00 
    3    7   12     -1.52      0.00 
    4    7   12     -3.47      0.00 
    5    7   12     -5.62      0.00 
    6    7   12     -6.14      0.00 
    7    7   12     -4.05      0.00 
    8    7   12     -1.01      0.00 
    9    7   12     -0.06      0.00 
   10    7   12     -1.76      0.00 
   11    7   12     -3.33      0.00 
   12    7   12     -2.54      0.00 
   13    7   12     -0.25      0.00 
   14    7   12      1.47      0.00 
   15    7   12      1.72      0.00 
   16    7   12      0.65      0.00 
   17    7   12     -0.96      0.00 
   18    7   12     -1.74      0.00 
   19    7   12     -0.94      0.00 
  -19    8   12      0.52      0.00 
  -18    8   12     -0.83      0.00 
  -17    8   12     -0.88      0.00 
  -16    8   12      0.28      0.00 
  -15    8   12      0.87      0.00 
  -14    8   12     -0.77      0.00 
  -13    8   12     -4.09      0.00 
  -12    8   12     -6.43      0.00 
  -11    8   12     -5.91      0.00 
  -10    8   12     -3.83      0.00 
   -9    8   12     -3.15      0.00 
   -8    8   12     -4.64      0.00 
   -7    8   12     -5.56      0.00 
   -6    8   12     -2.75      0.00 
   -5    8   12      3.39      0.00 
   -4    8   12      8.76      0.00 
   -3    8   12      9.74      0.00 
   -2    8   12      6.96      0.00 
   -1    8   12      4.11      0.00 
    0    8   12      3.47      0.00 
    1    8   12      3.74      0.00 
    2    8   12      2.57      0.00 
    3    8   12     -0.51      0.00 
    4    8   12     -3.54      0.00 
    5    8   12     -3.85      0.00 
    6    8   12     -0.81      0.00 
    7    8   12      2.76      0.00 
    8    8   12      3.10      0.00 
    9    8   12      0.37      0.00 
   10    8   12     -1.21      0.00 
   11    8   12      1.01      0.00 
   12    8   12      4.54      0.00 
   13    8   12      5.48      0.00 
   14    8   12      3.33      0.00 
   15    8   12      0.44      0.00 
   16    8   12     -1.54      0.00 
   17    8   12     -2.45      0.00 
   18    8   12     -2.46      0.00 
   19    8   12     -1.77      0.00 
  -19    9   12     -3.31      0.00 
  -18    9   12     -3.49      0.00 
  -17    9   12     -2.51      0.00 
  -16    9   12     -2.32      0.00 
  -15    9   12     -3.96      0.00 
  -14    9   12     -5.78      0.00 
  -13    9   12     -4.90      0.00 
  -12    9   12     -0.81      0.00 
  -11    9   12      3.48      0.00 
  -10    9   12      4.76      0.00 
   -9    9   12      3.62      0.00 
   -8    9   12      3.84      0.00 
   -7    9   12      7.63      0.00 
   -6    9   12     12.58      0.00 
   -5    9   12     13.79      0.00 
   -4    9   12      9.25      0.00 
   -3    9   12      2.34      0.00 
   -2    9   12     -1.55      0.00 
   -1    9   12     -0.73      0.00 
    0    9   12      1.34      0.00 
    1    9   12      0.51      0.00 
    2    9   12     -3.25      0.00 
    3    9   12     -6.25      0.00 
    4    9   12     -5.37      0.00 
    5    9   12     -1.36      0.00 
    6    9   12      1.67      0.00 
    7    9   12      0.46      0.00 
    8    9   12     -3.56      0.00 
    9    9   12     -5.37      0.00 
   10    9   12     -2.48      0.00 
   11    9   12      1.75      0.00 
   12    9   12      2.57      0.00 
   13    9   12      0.09      0.00 
   14    9   12     -1.76      0.00 
   15    9   12     -1.17      0.00 
   16    9   12     -0.06      0.00 
   17    9   12     -0.08      0.00 
   18    9   12     -0.38      0.00 
  -18   10   12      1.15      0.00 
  -17   10   12      1.16      0.00 
  -16   10   12      0.21      0.00 
  -15   10   12     -0.05      0.00 
  -14   10   12      2.08      0.00 
  -13   10   12      5.42      0.00 
  -12   10   12      6.42      0.00 
  -11   10   12      3.49      0.00 
  -10   10   12     -0.32      0.00 
   -9   10   12     -0.59      0.00 
   -8   10   12      2.94      0.00 
   -7   10   12      5.88      0.00 
   -6   10   12      4.21      0.00 
   -5   10   12     -1.15      0.00 
   -4   10   12     -5.36      0.00 
   -3   10   12     -4.64      0.00 
   -2   10   12     -0.31      0.00 
   -1   10   12      2.46      0.00 
    0   10   12      0.14      0.00 
    1   10   12     -5.20      0.00 
    2   10   12     -8.24      0.00 
    3   10   12     -6.46      0.00 
    4   10   12     -2.48      0.00 
    5   10   12     -0.62      0.00 
    6   10   12     -2.28      0.00 
    7   10   12     -4.77      0.00 
    8   10   12     -4.09      0.00 
    9   10   12      0.66      0.00 
   10   10   12      5.57      0.00 
   11   10   12      5.99      0.00 
   12   10   12      2.52      0.00 
   13   10   12      0.13      0.00 
   14   10   12      1.14      0.00 
   15   10   12      2.66      0.00 
   16   10   12      1.94      0.00 
   17   10   12      0.37      0.00 
  -17   11   12     -1.31      0.00 
  -16   11   12     -0.96      0.00 
  -15   11   12      0.60      0.00 
  -14   11   12      1.89      0.00 
  -13   11   12      0.68      0.00 
  -12   11   12     -2.58      0.00 
  -11   11   12     -4.01      0.00 
  -10   11   12     -0.78      0.00 
   -9   11   12      4.69      0.00 
   -8   11   12      7.02      0.00 
   -7   11   12      4.09      0.00 
   -6   11   12     -0.70      0.00 
   -5   11   12     -2.58      0.00 
   -4   11   12     -0.43      0.00 
   -3   11   12      2.40      0.00 
   -2   11   12      1.64      0.00 
   -1   11   12     -3.38      0.00 
    0   11   12     -8.54      0.00 
    1   11   12     -8.99      0.00 
    2   11   12     -4.55      0.00 
    3   11   12      0.25      0.00 
    4   11   12      1.67      0.00 
    5   11   12      0.38      0.00 
    6   11   12     -0.40      0.00 
    7   11   12      1.46      0.00 
    8   11   12      5.30      0.00 
    9   11   12      7.92      0.00 
   10   11   12      6.36      0.00 
   11   11   12      1.85      0.00 
   12   11   12     -0.75      0.00 
   13   11   12      0.72      0.00 
   14   11   12      2.88      0.00 
   15   11   12      2.30      0.00 
   16   11   12      0.39      0.00 
   17   11   12     -0.07      0.00 
  -16   12   12      1.93      0.00 
  -15   12   12      2.15      0.00 
  -14   12   12      0.74      0.00 
  -13   12   12     -1.12      0.00 
  -12   12   12     -0.75      0.00 
  -11   12   12      2.36      0.00 
  -10   12   12      4.91      0.00 
   -9   12   12      3.28      0.00 
   -8   12   12     -1.73      0.00 
   -7   12   12     -5.53      0.00 
   -6   12   12     -4.85      0.00 
   -5   12   12     -1.13      0.00 
   -4   12   12      1.32      0.00 
   -3   12   12     -0.17      0.00 
   -2   12   12     -4.03      0.00 
   -1   12   12     -5.80      0.00 
    0   12   12     -2.79      0.00 
    1   12   12      2.64      0.00 
    2   12   12      5.45      0.00 
    3   12   12      3.78      0.00 
    4   12   12      0.49      0.00 
    5   12   12     -0.90      0.00 
    6   12   12      0.31      0.00 
    7   12   12      2.53      0.00 
    8   12   12      3.54      0.00 
    9   12   12      1.79      0.00 
   10   12   12     -1.58      0.00 
   11   12   12     -3.06      0.00 
   12   12   12     -1.22      0.00 
   13   12   12      0.87      0.00 
   14   12   12      0.34      0.00 
   15   12   12     -1.23      0.00 
   16   12   12     -1.09      0.00 
  -15   13   12     -1.53      0.00 
  -14   13   12     -2.06      0.00 
  -13   13   12     -0.79      0.00 
  -12   13   12      1.36      0.00 
  -11   13   12      1.69      0.00 
  -10   13   12     -0.84      0.00 
   -9   13   12     -3.72      0.00 
   -8   13   12     -3.52      0.00 
   -7   13   12      0.15      0.00 
   -6   13   12      3.98      0.00 
   -5   13   12      4.36      0.00 
   -4   13   12      0.79      0.00 
   -3   13   12     -3.60      0.00 
   -2   13   12     -4.87      0.00 
   -1   13   12     -2.25      0.00 
    0   13   12      0.83      0.00 
    1   13   12      0.49      0.00 
    2   13   12     -2.87      0.00 
    3   13   12     -5.32      0.00 
    4   13   12     -4.37      0.00 
    5   13   12     -1.19      0.00 
    6   13   12      1.84      0.00 
    7   13   12      3.18      0.00 
    8   13   12      2.30      0.00 
    9   13   12      0.29      0.00 
   10   13   12     -0.33      0.00 
   11   13   12      1.21      0.00 
   12   13   12      2.30      0.00 
   13   13   12      0.83      0.00 
   14   13   12     -1.33      0.00 
   15   13   12     -1.55      0.00 
  -14   14   12      1.29      0.00 
  -13   14   12      1.79      0.00 
  -12   14   12      0.44      0.00 
  -11   14   12     -1.93      0.00 
  -10   14   12     -2.66      0.00 
   -9   14   12     -0.41      0.00 
   -8   14   12      2.82      0.00 
   -7   14   12      3.67      0.00 
   -6   14   12      0.90      0.00 
   -5   14   12     -3.55      0.00 
   -4   14   12     -6.33      0.00 
   -3   14   12     -5.40      0.00 
   -2   14   12     -1.78      0.00 
   -1   14   12      1.11      0.00 
    0   14   12      1.00      0.00 
    1   14   12     -0.53      0.00 
    2   14   12     -0.18      0.00 
    3   14   12      2.68      0.00 
    4   14   12      5.63      0.00 
    5   14   12      6.65      0.00 
    6   14   12      5.54      0.00 
    7   14   12      2.84      0.00 
    8   14   12     -0.17      0.00 
    9   14   12     -1.43      0.00 
   10   14   12     -0.57      0.00 
   11   14   12     -0.18      0.00 
   12   14   12     -2.03      0.00 
   13   14   12     -4.04      0.00 
   14   14   12     -3.59      0.00 
  -13   15   12     -0.97      0.00 
  -12   15   12     -1.49      0.00 
  -11   15   12     -0.39      0.00 
  -10   15   12      2.04      0.00 
   -9   15   12      3.36      0.00 
   -8   15   12      1.72      0.00 
   -7   15   12     -1.69      0.00 
   -6   15   12     -3.75      0.00 
   -5   15   12     -2.67      0.00 
   -4   15   12      0.77      0.00 
   -3   15   12      4.19      0.00 
   -2   15   12      5.18      0.00 
   -1   15   12      3.23      0.00 
    0   15   12      0.52      0.00 
    1   15   12     -0.25      0.00 
    2   15   12      0.89      0.00 
    3   15   12      1.81      0.00 
    4   15   12      1.37      0.00 
    5   15   12      0.06      0.00 
    6   15   12     -1.73      0.00 
    7   15   12     -3.40      0.00 
    8   15   12     -3.40      0.00 
    9   15   12     -1.48      0.00 
   10   15   12     -0.06      0.00 
   11   15   12     -0.88      0.00 
   12   15   12     -2.02      0.00 
  -11   16   12      2.15      0.00 
  -10   16   12      2.03      0.00 
   -9   16   12     -0.15      0.00 
   -8   16   12     -2.70      0.00 
   -7   16   12     -3.13      0.00 
   -6   16   12     -1.17      0.00 
   -5   16   12      1.14      0.00 
   -4   16   12      1.84      0.00 
   -3   16   12      0.42      0.00 
   -2   16   12     -2.25      0.00 
   -1   16   12     -4.26      0.00 
    0   16   12     -3.96      0.00 
    1   16   12     -1.84      0.00 
    2   16   12      0.09      0.00 
    3   16   12      0.78      0.00 
    4   16   12      0.61      0.00 
    5   16   12     -0.22      0.00 
    6   16   12     -1.40      0.00 
    7   16   12     -1.54      0.00 
    8   16   12     -0.07      0.00 
    9   16   12      1.17      0.00 
   10   16   12      0.57      0.00 
   11   16   12     -0.57      0.00 
   -9   17   12     -4.00      0.00 
   -8   17   12     -3.74      0.00 
   -7   17   12     -1.91      0.00 
   -6   17   12     -0.35      0.00 
   -5   17   12     -0.10      0.00 
   -4   17   12     -0.72      0.00 
   -3   17   12     -1.23      0.00 
   -2   17   12     -0.89      0.00 
   -1   17   12      0.65      0.00 
    0   17   12      2.63      0.00 
    1   17   12      3.60      0.00 
    2   17   12      3.14      0.00 
    3   17   12      2.02      0.00 
    4   17   12      0.75      0.00 
    5   17   12     -0.49      0.00 
    6   17   12     -0.90      0.00 
    7   17   12      0.01      0.00 
    8   17   12      1.05      0.00 
    9   17   12      0.92      0.00 
   -7   18   12      1.19      0.00 
   -6   18   12      0.71      0.00 
   -5   18   12      0.24      0.00 
   -4   18   12      0.31      0.00 
   -3   18   12      0.75      0.00 
   -2   18   12      1.24      0.00 
   -1   18   12      1.43      0.00 
    0   18   12      1.00      0.00 
    1   18   12      0.21      0.00 
    2   18   12     -0.29      0.00 
    3   18   12     -0.54      0.00 
    4   18   12     -0.98      0.00 
    5   18   12     -1.29      0.00 
    6   18   12     -0.91      0.00 
  -21    1   13     -0.28      0.00 
  -20    1   13     -0.48      0.00 
  -19    1   13     -1.26      0.00 
  -18    1   13     -2.86      0.00 
  -17    1   13     -4.67      0.00 
  -16    1   13     -5.39      0.00 
  -15    1   13     -3.99      0.00 
  -14    1   13     -0.97      0.00 
  -13    1   13      1.76      0.00 
  -12    1   13      2.47      0.00 
  -11    1   13      1.14      0.00 
  -10    1   13     -0.82      0.00 
   -9    1   13     -2.03      0.00 
   -8    1   13     -2.33      0.00 
   -7    1   13     -2.61      0.00 
   -6    1   13     -3.74      0.00 
   -5    1   13     -5.40      0.00 
   -4    1   13     -5.88      0.00 
   -3    1   13     -3.72      0.00 
   -2    1   13      0.22      0.00 
   -1    1   13      3.36      0.00 
    0    1   13      4.36      0.00 
    1    1   13      4.68      0.00 
    2    1   13      6.69      0.00 
    3    1   13     10.97      0.00 
    4    1   13     15.45      0.00 
    5    1   13     16.63      0.00 
    6    1   13     12.50      0.00 
    7    1   13      5.13      0.00 
    8    1   13     -0.79      0.00 
    9    1   13     -2.89      0.00 
   10    1   13     -3.04      0.00 
   11    1   13     -3.76      0.00 
   12    1   13     -4.91      0.00 
   13    1   13     -5.10      0.00 
   14    1   13     -4.24      0.00 
   15    1   13     -3.15      0.00 
   16    1   13     -2.25      0.00 
   17    1   13     -1.62      0.00 
   18    1   13     -1.17      0.00 
   19    1   13     -0.37      0.00 
   20    1   13      0.99      0.00 
  -21    2   13     -1.00      0.00 
  -20    2   13     -1.95      0.00 
  -19    2   13     -3.53      0.00 
  -18    2   13     -4.67      0.00 
  -17    2   13     -3.79      0.00 
  -16    2   13     -0.46      0.00 
  -15    2   13      3.57      0.00 
  -14    2   13      5.37      0.00 
  -13    2   13      3.52      0.00 
  -12    2   13     -0.30      0.00 
  -11    2   13     -2.65      0.00 
  -10    2   13     -1.71      0.00 
   -9    2   13      1.14      0.00 
   -8    2   13      3.10      0.00 
   -7    2   13      2.92      0.00 
   -6    2   13      2.08      0.00 
   -5    2   13      3.27      0.00 
   -4    2   13      7.35      0.00 
   -3    2   13     11.53      0.00 
   -2    2   13     11.79      0.00 
   -1    2   13      7.73      0.00 
    0    2   13      3.66      0.00 
    1    2   13      3.76      0.00 
    2    2   13      7.22      0.00 
    3    2   13      8.98      0.00 
    4    2   13      4.68      0.00 
    5    2   13     -5.04      0.00 
    6    2   13    -14.21      0.00 
    7    2   13    -16.58      0.00 
    8    2   13    -12.04      0.00 
    9    2   13     -6.44      0.00 
   10    2   13     -4.34      0.00 
   11    2   13     -4.49      0.00 
   12    2   13     -3.62      0.00 
   13    2   13     -1.40      0.00 
   14    2   13      0.57      0.00 
   15    2   13      1.62      0.00 
   16    2   13      1.88      0.00 
   17    2   13      1.57      0.00 
   18    2   13      1.42      0.00 
   19    2   13      1.95      0.00 
   20    2   13      2.22      0.00 
  -21    3   13     -0.97      0.00 
  -20    3   13     -2.34      0.00 
  -19    3   13     -2.86      0.00 
  -18    3   13     -1.27      0.00 
  -17    3   13      2.05      0.00 
  -16    3   13      4.83      0.00 
  -15    3   13      4.79      0.00 
  -14    3   13      2.11      0.00 
  -13    3   13     -0.03      0.00 
  -12    3   13      1.69      0.00 
  -11    3   13      6.98      0.00 
  -10    3   13     11.40      0.00 
   -9    3   13     10.78      0.00 
   -8    3   13      5.64      0.00 
   -7    3   13      0.40      0.00 
   -6    3   13     -1.29      0.00 
   -5    3   13     -0.18      0.00 
   -4    3   13     -0.50      0.00 
   -3    3   13     -5.36      0.00 
   -2    3   13    -12.39      0.00 
   -1    3   13    -15.19      0.00 
    0    3   13    -10.35      0.00 
    1    3   13     -2.12      0.00 
    2    3   13      1.70      0.00 
    3    3   13     -2.09      0.00 
    4    3   13     -8.97      0.00 
    5    3   13    -11.39      0.00 
    6    3   13     -6.02      0.00 
    7    3   13      2.88      0.00 
    8    3   13      7.88      0.00 
    9    3   13      6.25      0.00 
   10    3   13      2.13      0.00 
   11    3   13      0.39      0.00 
   12    3   13      1.22      0.00 
   13    3   13      2.16      0.00 
   14    3   13      2.05      0.00 
   15    3   13      1.33      0.00 
   16    3   13      0.61      0.00 
   17    3   13      0.67      0.00 
   18    3   13      1.70      0.00 
   19    3   13      2.42      0.00 
   20    3   13      1.68      0.00 
  -20    4   13      0.55      0.00 
  -19    4   13      2.98      0.00 
  -18    4   13      5.97      0.00 
  -17    4   13      7.30      0.00 
  -16    4   13      5.72      0.00 
  -15    4   13      2.77      0.00 
  -14    4   13      1.66      0.00 
  -13    4   13      3.80      0.00 
  -12    4   13      6.43      0.00 
  -11    4   13      4.60      0.00 
  -10    4   13     -3.35      0.00 
   -9    4   13    -12.74      0.00 
   -8    4   13    -16.70      0.00 
   -7    4   13    -13.33      0.00 
   -6    4   13     -7.49      0.00 
   -5    4   13     -5.51      0.00 
   -4    4   13     -8.49      0.00 
   -3    4   13    -11.03      0.00 
   -2    4   13     -6.62      0.00 
   -1    4   13      4.81      0.00 
    0    4   13     15.46      0.00 
    1    4   13     17.19      0.00 
    2    4   13     10.12      0.00 
    3    4   13      2.21      0.00 
    4    4   13      0.64      0.00 
    5    4   13      4.97      0.00 
    6    4   13      8.71      0.00 
    7    4   13      6.53      0.00 
    8    4   13     -0.22      0.00 
    9    4   13     -5.52      0.00 
   10    4   13     -5.58      0.00 
   11    4   13     -2.36      0.00 
   12    4   13      0.05      0.00 
   13    4   13      0.17      0.00 
   14    4   13     -0.75      0.00 
   15    4   13     -1.09      0.00 
   16    4   13     -0.09      0.00 
   17    4   13      1.60      0.00 
   18    4   13      2.18      0.00 
   19    4   13      0.94      0.00 
   20    4   13     -0.51      0.00 
  -20    5   13      2.47      0.00 
  -19    5   13      3.45      0.00 
  -18    5   13      2.68      0.00 
  -17    5   13     -0.26      0.00 
  -16    5   13     -3.18      0.00 
  -15    5   13     -3.34      0.00 
  -14    5   13     -0.99      0.00 
  -13    5   13      0.23      0.00 
  -12    5   13     -2.88      0.00 
  -11    5   13     -8.78      0.00 
  -10    5   13    -11.48      0.00 
   -9    5   13     -6.44      0.00 
   -8    5   13      3.63      0.00 
   -7    5   13     10.44      0.00 
   -6    5   13      8.53      0.00 
   -5    5   13      1.22      0.00 
   -4    5   13     -2.59      0.00 
   -3    5   13      2.35      0.00 
   -2    5   13     11.94      0.00 
   -1    5   13     16.51      0.00 
    0    5   13     10.65      0.00 
    1    5   13     -0.97      0.00 
    2    5   13     -8.58      0.00 
    3    5   13     -7.40      0.00 
    4    5   13     -1.66      0.00 
    5    5   13      1.03      0.00 
    6    5   13     -2.18      0.00 
    7    5   13     -7.25      0.00 
    8    5   13     -8.34      0.00 
    9    5   13     -4.26      0.00 
   10    5   13      0.78      0.00 
   11    5   13      2.43      0.00 
   12    5   13      0.57      0.00 
   13    5   13     -1.79      0.00 
   14    5   13     -2.29      0.00 
   15    5   13     -0.93      0.00 
   16    5   13      0.67      0.00 
   17    5   13      0.86      0.00 
   18    5   13     -0.26      0.00 
   19    5   13     -0.82      0.00 
   20    5   13      0.15      0.00 
  -20    6   13      0.79      0.00 
  -19    6   13      0.80      0.00 
  -18    6   13     -0.24      0.00 
  -17    6   13     -0.73      0.00 
  -16    6   13      1.19      0.00 
  -15    6   13      4.22      0.00 
  -14    6   13      4.69      0.00 
  -13    6   13      1.15      0.00 
  -12    6   13     -3.29      0.00 
  -11    6   13     -3.83      0.00 
  -10    6   13      0.66      0.00 
   -9    6   13      5.27      0.00 
   -8    6   13      3.24      0.00 
   -7    6   13     -6.53      0.00 
   -6    6   13    -16.63      0.00 
   -5    6   13    -17.76      0.00 
   -4    6   13     -8.44      0.00 
   -3    6   13      3.00      0.00 
   -2    6   13      6.68      0.00 
   -1    6   13      1.02      0.00 
    0    6   13     -6.22      0.00 
    1    6   13     -6.50      0.00 
    2    6   13      0.67      0.00 
    3    6   13      7.89      0.00 
    4    6   13      8.30      0.00 
    5    6   13      2.39      0.00 
    6    6   13     -3.34      0.00 
    7    6   13     -3.56      0.00 
    8    6   13      0.73      0.00 
    9    6   13      4.11      0.00 
   10    6   13      3.05      0.00 
   11    6   13     -0.67      0.00 
   12    6   13     -2.94      0.00 
   13    6   13     -2.10      0.00 
   14    6   13      0.20      0.00 
   15    6   13      1.73      0.00 
   16    6   13      1.78      0.00 
   17    6   13      1.15      0.00 
   18    6   13      0.95      0.00 
   19    6   13      1.37      0.00 
  -19    7   13      1.53      0.00 
  -18    7   13      1.37      0.00 
  -17    7   13      2.09      0.00 
  -16    7   13      2.45      0.00 
  -15    7   13     -0.16      0.00 
  -14    7   13     -5.65      0.00 
  -13    7   13    -10.17      0.00 
  -12    7   13    -10.21      0.00 
  -11    7   13     -6.62      0.00 
  -10    7   13     -4.10      0.00 
   -9    7   13     -6.36      0.00 
   -8    7   13    -11.37      0.00 
   -7    7   13    -12.06      0.00 
   -6    7   13     -3.41      0.00 
   -5    7   13     10.99      0.00 
   -4    7   13     21.18      0.00 
   -3    7   13     20.42      0.00 
   -2    7   13     11.82      0.00 
   -1    7   13      4.90      0.00 
    0    7   13      5.78      0.00 
    1    7   13     11.39      0.00 
    2    7   13     13.57      0.00 
    3    7   13      8.16      0.00 
    4    7   13     -0.99      0.00 
    5    7   13     -6.67      0.00 
    6    7   13     -5.73      0.00 
    7    7   13     -1.39      0.00 
    8    7   13      0.76      0.00 
    9    7   13     -1.36      0.00 
   10    7   13     -4.60      0.00 
   11    7   13     -4.77      0.00 
   12    7   13     -1.67      0.00 
   13    7   13      1.28      0.00 
   14    7   13      1.72      0.00 
   15    7   13      0.44      0.00 
   16    7   13     -0.87      0.00 
   17    7   13     -1.77      0.00 
   18    7   13     -2.39      0.00 
   19    7   13     -2.42      0.00 
  -19    8   13     -0.49      0.00 
  -18    8   13     -0.87      0.00 
  -17    8   13     -1.55      0.00 
  -16    8   13     -3.63      0.00 
  -15    8   13     -6.15      0.00 
  -14    8   13     -6.05      0.00 
  -13    8   13     -1.92      0.00 
  -12    8   13      3.59      0.00 
  -11    8   13      6.17      0.00 
  -10    8   13      4.42      0.00 
   -9    8   13      1.87      0.00 
   -8    8   13      3.61      0.00 
   -7    8   13     10.45      0.00 
   -6    8   13     16.95      0.00 
   -5    8   13     16.44      0.00 
   -4    8   13      8.06      0.00 
   -3    8   13     -1.87      0.00 
   -2    8   13     -5.80      0.00 
   -1    8   13     -2.18      0.00 
    0    8   13      3.12      0.00 
    1    8   13      2.92      0.00 
    2    8   13     -3.70      0.00 
    3    8   13    -10.81      0.00 
    4    8   13    -12.44      0.00 
    5    8   13     -8.38      0.00 
    6    8   13     -3.22      0.00 
    7    8   13     -1.36      0.00 
    8    8   13     -3.32      0.00 
    9    8   13     -5.72      0.00 
   10    8   13     -4.85      0.00 
   11    8   13     -1.02      0.00 
   12    8   13      1.92      0.00 
   13    8   13      1.69      0.00 
   14    8   13      0.08      0.00 
   15    8   13     -0.63      0.00 
   16    8   13     -0.81      0.00 
   17    8   13     -1.43      0.00 
   18    8   13     -1.77      0.00 
  -18    9   13      0.00      0.00 
  -17    9   13     -0.88      0.00 
  -16    9   13     -1.04      0.00 
  -15    9   13      0.64      0.00 
  -14    9   13      3.57      0.00 
  -13    9   13      4.93      0.00 
  -12    9   13      2.49      0.00 
  -11    9   13     -2.34      0.00 
  -10    9   13     -5.16      0.00 
   -9    9   13     -3.01      0.00 
   -8    9   13      2.04      0.00 
   -7    9   13      4.66      0.00 
   -6    9   13      2.01      0.00 
   -5    9   13     -3.21      0.00 
   -4    9   13     -5.73      0.00 
   -3    9   13     -2.94      0.00 
   -2    9   13      2.78      0.00 
   -1    9   13      6.01      0.00 
    0    9   13      3.18      0.00 
    1    9   13     -3.54      0.00 
    2    9   13     -8.14      0.00 
    3    9   13     -7.16      0.00 
    4    9   13     -2.73      0.00 
    5    9   13      0.85      0.00 
    6    9   13      1.42      0.00 
    7    9   13     -0.32      0.00 
    8    9   13     -1.86      0.00 
    9    9   13     -0.64      0.00 
   10    9   13      3.10      0.00 
   11    9   13      5.85      0.00 
   12    9   13      5.15      0.00 
   13    9   13      2.85      0.00 
   14    9   13      1.84      0.00 
   15    9   13      1.83      0.00 
   16    9   13      1.09      0.00 
   17    9   13     -0.12      0.00 
   18    9   13     -0.54      0.00 
  -18   10   13     -2.62      0.00 
  -17   10   13     -1.91      0.00 
  -16   10   13     -0.45      0.00 
  -15   10   13      0.57      0.00 
  -14   10   13     -0.24      0.00 
  -13   10   13     -2.70      0.00 
  -12   10   13     -4.44      0.00 
  -11   10   13     -2.76      0.00 
  -10   10   13      2.26      0.00 
   -9   10   13      7.14      0.00 
   -8   10   13      8.15      0.00 
   -7   10   13      5.40      0.00 
   -6   10   13      2.53      0.00 
   -5   10   13      2.46      0.00 
   -4   10   13      4.52      0.00 
   -3   10   13      5.82      0.00 
   -2   10   13      4.01      0.00 
   -1   10   13     -0.86      0.00 
    0   10   13     -5.88      0.00 
    1   10   13     -7.41      0.00 
    2   10   13     -4.80      0.00 
    3   10   13     -1.09      0.00 
    4   10   13      0.78      0.00 
    5   10   13      0.58      0.00 
    6   10   13     -0.57      0.00 
    7   10   13     -1.53      0.00 
    8   10   13     -0.90      0.00 
    9   10   13      1.66      0.00 
   10   10   13      3.87      0.00 
   11   10   13      3.37      0.00 
   12   10   13      1.39      0.00 
   13   10   13      0.92      0.00 
   14   10   13      2.18      0.00 
   15   10   13      2.90      0.00 
   16   10   13      2.11      0.00 
   17   10   13      1.00      0.00 
  -17   11   13      2.45      0.00 
  -16   11   13      2.67      0.00 
  -15   11   13      1.88      0.00 
  -14   11   13      1.07      0.00 
  -13   11   13      1.54      0.00 
  -12   11   13      3.45      0.00 
  -11   11   13      5.27      0.00 
  -10   11   13      4.97      0.00 
   -9   11   13      2.08      0.00 
   -8   11   13     -1.46      0.00 
   -7   11   13     -3.04      0.00 
   -6   11   13     -2.15      0.00 
   -5   11   13     -0.71      0.00 
   -4   11   13     -0.64      0.00 
   -3   11   13     -2.13      0.00 
   -2   11   13     -4.11      0.00 
   -1   11   13     -5.02      0.00 
    0   11   13     -3.85      0.00 
    1   11   13     -1.39      0.00 
    2   11   13      0.14      0.00 
    3   11   13     -0.31      0.00 
    4   11   13     -1.65      0.00 
    5   11   13     -2.57      0.00 
    6   11   13     -2.67      0.00 
    7   11   13     -1.44      0.00 
    8   11   13      1.45      0.00 
    9   11   13      4.25      0.00 
   10   11   13      4.41      0.00 
   11   11   13      2.24      0.00 
   12   11   13      0.67      0.00 
   13   11   13      1.18      0.00 
   14   11   13      2.10      0.00 
   15   11   13      1.66      0.00 
   16   11   13      0.46      0.00 
  -16   12   13     -0.69      0.00 
  -15   12   13     -1.06      0.00 
  -14   12   13     -0.59      0.00 
  -13   12   13     -0.21      0.00 
  -12   12   13     -1.03      0.00 
  -11   12   13     -2.83      0.00 
  -10   12   13     -4.11      0.00 
   -9   12   13     -3.50      0.00 
   -8   12   13     -1.07      0.00 
   -7   12   13      1.47      0.00 
   -6   12   13      2.31      0.00 
   -5   12   13      1.26      0.00 
   -4   12   13     -0.51      0.00 
   -3   12   13     -1.99      0.00 
   -2   12   13     -2.81      0.00 
   -1   12   13     -2.85      0.00 
    0   12   13     -2.43      0.00 
    1   12   13     -2.35      0.00 
    2   12   13     -2.79      0.00 
    3   12   13     -2.91      0.00 
    4   12   13     -2.13      0.00 
    5   12   13     -0.65      0.00 
    6   12   13      1.48      0.00 
    7   12   13      4.28      0.00 
    8   12   13      6.40      0.00 
    9   12   13      5.85      0.00 
   10   12   13      2.93      0.00 
   11   12   13      0.47      0.00 
   12   12   13      0.35      0.00 
   13   12   13      1.22      0.00 
   14   12   13      0.89      0.00 
   15   12   13     -0.45      0.00 
  -15   13   13      0.70      0.00 
  -14   13   13      0.40      0.00 
  -13   13   13     -1.06      0.00 
  -12   13   13     -2.30      0.00 
  -11   13   13     -1.79      0.00 
  -10   13   13      0.49      0.00 
   -9   13   13      2.77      0.00 
   -8   13   13      3.05      0.00 
   -7   13   13      1.07      0.00 
   -6   13   13     -1.38      0.00 
   -5   13   13     -2.50      0.00 
   -4   13   13     -2.44      0.00 
   -3   13   13     -2.31      0.00 
   -2   13   13     -2.16      0.00 
   -1   13   13     -1.29      0.00 
    0   13   13      0.25      0.00 
    1   13   13      1.68      0.00 
    2   13   13      2.58      0.00 
    3   13   13      2.99      0.00 
    4   13   13      3.11      0.00 
    5   13   13      3.42      0.00 
    6   13   13      4.07      0.00 
    7   13   13      4.08      0.00 
    8   13   13      2.27      0.00 
    9   13   13     -0.68      0.00 
   10   13   13     -2.53      0.00 
   11   13   13     -2.21      0.00 
   12   13   13     -1.24      0.00 
   13   13   13     -1.39      0.00 
   14   13   13     -2.19      0.00 
  -14   14   13     -1.40      0.00 
  -13   14   13     -1.10      0.00 
  -12   14   13      0.71      0.00 
  -11   14   13      2.72      0.00 
  -10   14   13      3.20      0.00 
   -9   14   13      1.46      0.00 
   -8   14   13     -1.23      0.00 
   -7   14   13     -2.37      0.00 
   -6   14   13     -0.88      0.00 
   -5   14   13      1.32      0.00 
   -4   14   13      1.80      0.00 
   -3   14   13      0.83      0.00 
   -2   14   13      0.37      0.00 
   -1   14   13      0.80      0.00 
    0   14   13      0.72      0.00 
    1   14   13     -0.59      0.00 
    2   14   13     -2.22      0.00 
    3   14   13     -2.81      0.00 
    4   14   13     -1.85      0.00 
    5   14   13     -0.10      0.00 
    6   14   13      0.84      0.00 
    7   14   13      0.07      0.00 
    8   14   13     -1.37      0.00 
    9   14   13     -1.60      0.00 
   10   14   13     -0.38      0.00 
   11   14   13      0.66      0.00 
   12   14   13      0.30      0.00 
   13   14   13     -0.62      0.00 
  -12   15   13      1.94      0.00 
  -11   15   13      1.00      0.00 
  -10   15   13     -0.62      0.00 
   -9   15   13     -1.67      0.00 
   -8   15   13     -0.98      0.00 
   -7   15   13      1.14      0.00 
   -6   15   13      2.33      0.00 
   -5   15   13      0.80      0.00 
   -4   15   13     -1.95      0.00 
   -3   15   13     -3.06      0.00 
   -2   15   13     -2.26      0.00 
   -1   15   13     -1.67      0.00 
    0   15   13     -2.16      0.00 
    1   15   13     -2.23      0.00 
    2   15   13     -0.47      0.00 
    3   15   13      2.49      0.00 
    4   15   13      4.74      0.00 
    5   15   13      4.76      0.00 
    6   15   13      2.64      0.00 
    7   15   13      0.17      0.00 
    8   15   13     -0.79      0.00 
    9   15   13     -0.23      0.00 
   10   15   13      0.21      0.00 
   11   15   13     -0.54      0.00 
   12   15   13     -1.65      0.00 
  -11   16   13     -0.96      0.00 
  -10   16   13     -1.22      0.00 
   -9   16   13     -0.83      0.00 
   -8   16   13     -0.31      0.00 
   -7   16   13     -0.72      0.00 
   -6   16   13     -2.27      0.00 
   -5   16   13     -3.15      0.00 
   -4   16   13     -1.57      0.00 
   -3   16   13      1.34      0.00 
   -2   16   13      2.75      0.00 
   -1   16   13      1.97      0.00 
    0   16   13      1.09      0.00 
    1   16   13      1.72      0.00 
    2   16   13      3.07      0.00 
    3   16   13      3.33      0.00 
    4   16   13      1.79      0.00 
    5   16   13     -0.74      0.00 
    6   16   13     -2.71      0.00 
    7   16   13     -2.95      0.00 
    8   16   13     -1.65      0.00 
    9   16   13     -0.27      0.00 
   10   16   13     -0.02      0.00 
   -9   17   13     -0.42      0.00 
   -8   17   13     -1.31      0.00 
   -7   17   13     -2.45      0.00 
   -6   17   13     -2.39      0.00 
   -5   17   13     -0.57      0.00 
   -4   17   13      1.30      0.00 
   -3   17   13      1.02      0.00 
   -2   17   13     -1.14      0.00 
   -1   17   13     -2.71      0.00 
    0   17   13     -2.20      0.00 
    1   17   13     -0.70      0.00 
    2   17   13     -0.02      0.00 
    3   17   13     -0.71      0.00 
    4   17   13     -1.92      0.00 
    5   17   13     -2.56      0.00 
    6   17   13     -1.98      0.00 
    7   17   13     -0.44      0.00 
    8   17   13      0.93      0.00 
   -6   18   13     -0.59      0.00 
   -5   18   13      0.28      0.00 
   -4   18   13     -0.55      0.00 
   -3   18   13     -2.04      0.00 
   -2   18   13     -2.15      0.00 
   -1   18   13     -0.36      0.00 
    0   18   13      1.73      0.00 
    1   18   13      2.38      0.00 
    2   18   13      1.42      0.00 
    3   18   13      0.03      0.00 
    4   18   13     -0.58      0.00 
    5   18   13     -0.08      0.00 
  -21    0   14      0.86      0.00 
  -20    0   14      0.52      0.00 
  -19    0   14     -1.90      0.00 
  -18    0   14     -6.24      0.00 
  -17    0   14    -10.44      0.00 
  -16    0   14    -11.21      0.00 
  -15    0   14     -6.94      0.00 
  -14    0   14     -0.26      0.00 
  -13    0   14      3.52      0.00 
  -12    0   14      1.30      0.00 
  -11    0   14     -4.38      0.00 
  -10    0   14     -7.16      0.00 
   -9    0   14     -3.13      0.00 
   -8    0   14      4.64      0.00 
   -7    0   14      8.59      0.00 
   -6    0   14      4.45      0.00 
   -5    0   14     -3.73      0.00 
   -4    0   14     -6.91      0.00 
   -3    0   14     -0.34      0.00 
   -2    0   14     10.68      0.00 
   -1    0   14     15.61      0.00 
    0    0   14      9.96      0.00 
    1    0   14      0.29      0.00 
    2    0   14     -2.74      0.00 
    3    0   14      4.74      0.00 
    4    0   14     16.19      0.00 
    5    0   14     20.69      0.00 
    6    0   14     13.17      0.00 
    7    0   14     -0.42      0.00 
    8    0   14     -9.19      0.00 
    9    0   14     -8.86      0.00 
   10    0   14     -4.71      0.00 
   11    0   14     -3.08      0.00 
   12    0   14     -4.38      0.00 
   13    0   14     -5.76      0.00 
   14    0   14     -5.77      0.00 
   15    0   14     -4.47      0.00 
   16    0   14     -2.49      0.00 
   17    0   14     -1.23      0.00 
   18    0   14     -1.26      0.00 
   19    0   14     -1.06      0.00 
   20    0   14      0.46      0.00 
  -21    1   14     -0.51      0.00 
  -20    1   14     -2.46      0.00 
  -19    1   14     -4.56      0.00 
  -18    1   14     -5.24      0.00 
  -17    1   14     -2.96      0.00 
  -16    1   14      1.95      0.00 
  -15    1   14      6.31      0.00 
  -14    1   14      6.46      0.00 
  -13    1   14      2.16      0.00 
  -12    1   14     -2.34      0.00 
  -11    1   14     -1.88      0.00 
  -10    1   14      4.19      0.00 
   -9    1   14     10.44      0.00 
   -8    1   14     10.43      0.00 
   -7    1   14      3.75      0.00 
   -6    1   14     -2.95      0.00 
   -5    1   14     -2.44      0.00 
   -4    1   14      5.28      0.00 
   -3    1   14     12.19      0.00 
   -2    1   14      9.96      0.00 
   -1    1   14     -0.80      0.00 
    0    1   14    -10.36      0.00 
    1    1   14     -9.96      0.00 
    2    1   14     -0.96      0.00 
    3    1   14      6.90      0.00 
    4    1   14      5.40      0.00 
    5    1   14     -4.51      0.00 
    6    1   14    -13.91      0.00 
    7    1   14    -14.68      0.00 
    8    1   14     -7.47      0.00 
    9    1   14     -0.07      0.00 
   10    1   14      1.89      0.00 
   11    1   14     -0.05      0.00 
   12    1   14     -1.54      0.00 
   13    1   14     -0.94      0.00 
   14    1   14      0.85      0.00 
   15    1   14      2.54      0.00 
   16    1   14      2.94      0.00 
   17    1   14      1.93      0.00 
   18    1   14      1.07      0.00 
   19    1   14      1.46      0.00 
   20    1   14      1.95      0.00 
  -21    2   14     -1.21      0.00 
  -20    2   14     -2.04      0.00 
  -19    2   14     -2.07      0.00 
  -18    2   14     -0.80      0.00 
  -17    2   14      1.32      0.00 
  -16    2   14      2.47      0.00 
  -15    2   14      1.13      0.00 
  -14    2   14     -1.54      0.00 
  -13    2   14     -2.07      0.00 
  -12    2   14      1.89      0.00 
  -11    2   14      8.18      0.00 
  -10    2   14     11.00      0.00 
   -9    2   14      6.67      0.00 
   -8    2   14     -1.71      0.00 
   -7    2   14     -6.74      0.00 
   -6    2   14     -4.45      0.00 
   -5    2   14      1.36      0.00 
   -4    2   14      2.82      0.00 
   -3    2   14     -3.94      0.00 
   -2    2   14    -13.99      0.00 
   -1    2   14    -17.60      0.00 
    0    2   14    -10.19      0.00 
    1    2   14      2.31      0.00 
    2    2   14      9.55      0.00 
    3    2   14      7.35      0.00 
    4    2   14      0.84      0.00 
    5    2   14     -2.10      0.00 
    6    2   14      1.30      0.00 
    7    2   14      7.11      0.00 
    8    2   14      9.48      0.00 
    9    2   14      6.47      0.00 
   10    2   14      1.21      0.00 
   11    2   14     -2.13      0.00 
   12    2   14     -2.31      0.00 
   13    2   14     -0.83      0.00 
   14    2   14      0.32      0.00 
   15    2   14      0.12      0.00 
   16    2   14     -0.92      0.00 
   17    2   14     -1.27      0.00 
   18    2   14     -0.35      0.00 
   19    2   14      0.71      0.00 
   20    2   14      0.91      0.00 
  -20    3   14     -0.64      0.00 
  -19    3   14     -0.06      0.00 
  -18    3   14      1.01      0.00 
  -17    3   14      1.79      0.00 
  -16    3   14      1.63      0.00 
  -15    3   14      1.42      0.00 
  -14    3   14      2.86      0.00 
  -13    3   14      5.93      0.00 
  -12    3   14      7.77      0.00 
  -11    3   14      4.99      0.00 
  -10    3   14     -2.14      0.00 
   -9    3   14     -8.48      0.00 
   -8    3   14     -8.46      0.00 
   -7    3   14     -2.32      0.00 
   -6    3   14      3.52      0.00 
   -5    3   14      2.93      0.00 
   -4    3   14     -3.61      0.00 
   -3    3   14     -9.10      0.00 
   -2    3   14     -6.54      0.00 
   -1    3   14      3.83      0.00 
    0    3   14     13.98      0.00 
    1    3   14     15.83      0.00 
    2    3   14      9.35      0.00 
    3    3   14      1.61      0.00 
    4    3   14     -1.64      0.00 
    5    3   14     -0.86      0.00 
    6    3   14      0.08      0.00 
    7    3   14     -1.22      0.00 
    8    3   14     -4.19      0.00 
    9    3   14     -6.68      0.00 
   10    3   14     -6.80      0.00 
   11    3   14     -4.40      0.00 
   12    3   14     -1.23      0.00 
   13    3   14      0.62      0.00 
   14    3   14      0.71      0.00 
   15    3   14      0.28      0.00 
   16    3   14      0.53      0.00 
   17    3   14      1.17      0.00 
   18    3   14      1.23      0.00 
   19    3   14      0.65      0.00 
   20    3   14      0.20      0.00 
  -20    4   14      0.47      0.00 
  -19    4   14      0.87      0.00 
  -18    4   14      1.37      0.00 
  -17    4   14      1.40      0.00 
  -16    4   14      1.36      0.00 
  -15    4   14      2.11      0.00 
  -14    4   14      3.11      0.00 
  -13    4   14      2.63      0.00 
  -12    4   14     -0.04      0.00 
  -11    4   14     -2.95      0.00 
  -10    4   14     -2.80      0.00 
   -9    4   14      1.56      0.00 
   -8    4   14      6.84      0.00 
   -7    4   14      7.53      0.00 
   -6    4   14      1.47      0.00 
   -5    4   14     -7.17      0.00 
   -4    4   14    -11.35      0.00 
   -3    4   14     -7.70      0.00 
   -2    4   14      0.15      0.00 
   -1    4   14      4.88      0.00 
    0    4   14      2.35      0.00 
    1    4   14     -4.48      0.00 
    2    4   14     -9.18      0.00 
    3    4   14     -8.62      0.00 
    4    4   14     -4.97      0.00 
    5    4   14     -1.66      0.00 
    6    4   14      0.13      0.00 
    7    4   14      0.90      0.00 
    8    4   14      1.27      0.00 
    9    4   14      1.91      0.00 
   10    4   14      3.08      0.00 
   11    4   14      3.91      0.00 
   12    4   14      3.23      0.00 
   13    4   14      1.42      0.00 
   14    4   14     -0.01      0.00 
   15    4   14     -0.42      0.00 
   16    4   14     -0.50      0.00 
   17    4   14     -0.61      0.00 
   18    4   14     -0.25      0.00 
   19    4   14      0.73      0.00 
   20    4   14      1.40      0.00 
  -20    5   14      0.91      0.00 
  -19    5   14      2.11      0.00 
  -18    5   14      2.95      0.00 
  -17    5   14      3.28      0.00 
  -16    5   14      3.56      0.00 
  -15    5   14      3.51      0.00 
  -14    5   14      2.28      0.00 
  -13    5   14      0.05      0.00 
  -12    5   14     -1.79      0.00 
  -11    5   14     -2.35      0.00 
  -10    5   14     -2.47      0.00 
   -9    5   14     -4.15      0.00 
   -8    5   14     -8.80      0.00 
   -7    5   14    -15.17      0.00 
   -6    5   14    -19.20      0.00 
   -5    5   14    -17.15      0.00 
   -4    5   14     -9.41      0.00 
   -3    5   14     -0.58      0.00 
   -2    5   14      4.51      0.00 
   -1    5   14      4.90      0.00 
    0    5   14      3.72      0.00 
    1    5   14      4.55      0.00 
    2    5   14      7.82      0.00 
    3    5   14     11.06      0.00 
    4    5   14     12.00      0.00 
    5    5   14     10.39      0.00 
    6    5   14      7.11      0.00 
    7    5   14      3.34      0.00 
    8    5   14      0.46      0.00 
    9    5   14     -0.79      0.00 
   10    5   14     -1.26      0.00 
   11    5   14     -2.22      0.00 
   12    5   14     -3.51      0.00 
   13    5   14     -4.06      0.00 
   14    5   14     -3.65      0.00 
   15    5   14     -2.70      0.00 
   16    5   14     -1.03      0.00 
   17    5   14      1.36      0.00 
   18    5   14      3.16      0.00 
   19    5   14      3.00      0.00 
  -20    6   14      1.73      0.00 
  -19    6   14      2.26      0.00 
  -18    6   14      1.73      0.00 
  -17    6   14      0.46      0.00 
  -16    6   14     -1.20      0.00 
  -15    6   14     -3.24      0.00 
  -14    6   14     -5.26      0.00 
  -13    6   14     -6.61      0.00 
  -12    6   14     -7.29      0.00 
  -11    6   14     -7.86      0.00 
  -10    6   14     -8.38      0.00 
   -9    6   14     -8.10      0.00 
   -8    6   14     -6.14      0.00 
   -7    6   14     -1.97      0.00 
   -6    6   14      4.11      0.00 
   -5    6   14     10.48      0.00 
   -4    6   14     14.88      0.00 
   -3    6   14     15.99      0.00 
   -2    6   14     14.37      0.00 
   -1    6   14     11.79      0.00 
    0    6   14      9.69      0.00 
    1    6   14      8.27      0.00 
    2    6   14      6.72      0.00 
    3    6   14      4.26      0.00 
    4    6   14      0.67      0.00 
    5    6   14     -3.61      0.00 
    6    6   14     -7.37      0.00 
    7    6   14     -8.86      0.00 
    8    6   14     -7.59      0.00 
    9    6   14     -5.34      0.00 
   10    6   14     -4.16      0.00 
   11    6   14     -4.01      0.00 
   12    6   14     -3.62      0.00 
   13    6   14     -2.62      0.00 
   14    6   14     -1.30      0.00 
   15    6   14      0.45      0.00 
   16    6   14      2.13      0.00 
   17    6   14      2.14      0.00 
   18    6   14      0.05      0.00 
   19    6   14     -1.97      0.00 
  -19    7   14      0.06      0.00 
  -18    7   14     -1.18      0.00 
  -17    7   14     -2.28      0.00 
  -16    7   14     -2.50      0.00 
  -15    7   14     -1.74      0.00 
  -14    7   14     -0.46      0.00 
  -13    7   14      0.55      0.00 
  -12    7   14      0.91      0.00 
  -11    7   14      1.34      0.00 
  -10    7   14      2.79      0.00 
   -9    7   14      4.90      0.00 
   -8    7   14      6.11      0.00 
   -7    7   14      5.27      0.00 
   -6    7   14      2.95      0.00 
   -5    7   14      0.83      0.00 
   -4    7   14     -0.05      0.00 
   -3    7   14     -0.22      0.00 
   -2    7   14     -0.79      0.00 
   -1    7   14     -1.81      0.00 
    0    7   14     -2.34      0.00 
    1    7   14     -1.91      0.00 
    2    7   14     -1.40      0.00 
    3    7   14     -2.16      0.00 
    4    7   14     -4.46      0.00 
    5    7   14     -6.66      0.00 
    6    7   14     -6.34      0.00 
    7    7   14     -3.19      0.00 
    8    7   14      0.01      0.00 
    9    7   14      0.55      0.00 
   10    7   14     -0.93      0.00 
   11    7   14     -1.77      0.00 
   12    7   14     -0.94      0.00 
   13    7   14      0.56      0.00 
   14    7   14      1.77      0.00 
   15    7   14      2.14      0.00 
   16    7   14      0.96      0.00 
   17    7   14     -1.42      0.00 
   18    7   14     -2.89      0.00 
  -19    8   14      0.22      0.00 
  -18    8   14     -0.33      0.00 
  -17    8   14      0.28      0.00 
  -16    8   14      1.58      0.00 
  -15    8   14      2.02      0.00 
  -14    8   14      0.50      0.00 
  -13    8   14     -2.34      0.00 
  -12    8   14     -4.47      0.00 
  -11    8   14     -4.57      0.00 
  -10    8   14     -3.56      0.00 
   -9    8   14     -3.45      0.00 
   -8    8   14     -4.68      0.00 
   -7    8   14     -5.10      0.00 
   -6    8   14     -2.23      0.00 
   -5    8   14      3.49      0.00 
   -4    8   14      8.46      0.00 
   -3    8   14      9.59      0.00 
   -2    8   14      7.58      0.00 
   -1    8   14      5.78      0.00 
    0    8   14      5.92      0.00 
    1    8   14      6.35      0.00 
    2    8   14      4.58      0.00 
    3    8   14      0.47      0.00 
    4    8   14     -3.29      0.00 
    5    8   14     -3.87      0.00 
    6    8   14     -1.46      0.00 
    7    8   14      0.50      0.00 
    8    8   14     -0.75      0.00 
    9    8   14     -3.63      0.00 
   10    8   14     -4.16      0.00 
   11    8   14     -1.23      0.00 
   12    8   14      2.29      0.00 
   13    8   14      3.60      0.00 
   14    8   14      2.67      0.00 
   15    8   14      0.82      0.00 
   16    8   14     -1.05      0.00 
   17    8   14     -2.21      0.00 
   18    8   14     -2.04      0.00 
  -18    9   14     -1.25      0.00 
  -17    9   14     -0.28      0.00 
  -16    9   14     -0.34      0.00 
  -15    9   14     -1.97      0.00 
  -14    9   14     -3.53      0.00 
  -13    9   14     -2.73      0.00 
  -12    9   14      0.54      0.00 
  -11    9   14      3.74      0.00 
  -10    9   14      4.63      0.00 
   -9    9   14      4.06      0.00 
   -8    9   14      4.96      0.00 
   -7    9   14      8.62      0.00 
   -6    9   14     12.55      0.00 
   -5    9   14     12.63      0.00 
   -4    9   14      7.61      0.00 
   -3    9   14      1.00      0.00 
   -2    9   14     -2.41      0.00 
   -1    9   14     -1.78      0.00 
    0    9   14     -0.77      0.00 
    1    9   14     -2.87      0.00 
    2    9   14     -7.25      0.00 
    3    9   14    -10.04      0.00 
    4    9   14     -8.72      0.00 
    5    9   14     -4.73      0.00 
    6    9   14     -2.03      0.00 
    7    9   14     -2.96      0.00 
    8    9   14     -5.35      0.00 
    9    9   14     -4.82      0.00 
   10    9   14     -0.36      0.00 
   11    9   14      4.04      0.00 
   12    9   14      4.56      0.00 
   13    9   14      2.27      0.00 
   14    9   14      0.73      0.00 
   15    9   14      0.87      0.00 
   16    9   14      0.93      0.00 
   17    9   14      0.28      0.00 
  -17   10   14      2.05      0.00 
  -16   10   14      1.45      0.00 
  -15   10   14      1.41      0.00 
  -14   10   14      3.13      0.00 
  -13   10   14      5.28      0.00 
  -12   10   14      4.98      0.00 
  -11   10   14      1.60      0.00 
  -10   10   14     -1.76      0.00 
   -9   10   14     -1.81      0.00 
   -8   10   14      0.86      0.00 
   -7   10   14      2.29      0.00 
   -6   10   14     -0.30      0.00 
   -5   10   14     -5.39      0.00 
   -4   10   14     -8.46      0.00 
   -3   10   14     -6.60      0.00 
   -2   10   14     -1.85      0.00 
   -1   10   14      0.72      0.00 
    0   10   14     -1.48      0.00 
    1   10   14     -5.69      0.00 
    2   10   14     -7.24      0.00 
    3   10   14     -4.68      0.00 
    4   10   14     -0.71      0.00 
    5   10   14      1.14      0.00 
    6   10   14      0.01      0.00 
    7   10   14     -1.55      0.00 
    8   10   14      0.00      0.00 
    9   10   14      4.80      0.00 
   10   10   14      8.39      0.00 
   11   10   14      6.94      0.00 
   12   10   14      2.61      0.00 
   13   10   14      0.70      0.00 
   14   10   14      2.15      0.00 
   15   10   14      3.24      0.00 
   17   10   14      0.63      0.00 
  -17   11   14     -0.69      0.00 
  -16   11   14     -0.83      0.00 
  -15   11   14     -0.22      0.00 
  -14   11   14     -0.19      0.00 
  -13   11   14     -2.30      0.00 
  -12   11   14     -5.45      0.00 
  -11   11   14     -6.09      0.00 
  -10   11   14     -2.51      0.00 
   -9   11   14      2.43      0.00 
   -8   11   14      4.28      0.00 
   -7   11   14      1.99      0.00 
   -6   11   14     -1.12      0.00 
   -5   11   14     -1.18      0.00 
   -4   11   14      2.13      0.00 
   -3   11   14      5.17      0.00 
   -2   11   14      4.01      0.00 
   -1   11   14     -1.14      0.00 
    0   11   14     -5.72      0.00 
    1   11   14     -5.73      0.00 
    2   11   14     -1.98      0.00 
    3   11   14      1.44      0.00 
    4   11   14      1.90      0.00 
    5   11   14      0.28      0.00 
    6   11   14     -0.66      0.00 
    7   11   14      1.14      0.00 
    8   11   14      4.86      0.00 
    9   11   14      6.76      0.00 
   10   11   14      4.23      0.00 
   11   11   14     -0.03      0.00 
   12   11   14     -0.91      0.00 
   13   11   14      1.93      0.00 
   14   11   14      3.89      0.00 
   15   11   14      2.61      0.00 
   16   11   14      0.73      0.00 
  -16   12   14      0.90      0.00 
  -15   12   14      0.92      0.00 
  -14   12   14     -0.28      0.00 
  -13   12   14     -1.37      0.00 
  -12   12   14     -0.25      0.00 
  -11   12   14      2.85      0.00 
  -10   12   14      4.82      0.00 
   -9   12   14      3.08      0.00 
   -8   12   14     -1.12      0.00 
   -7   12   14     -3.85      0.00 
   -6   12   14     -2.72      0.00 
   -5   12   14      0.63      0.00 
   -4   12   14      2.12      0.00 
   -3   12   14     -0.50      0.00 
   -2   12   14     -4.87      0.00 
   -1   12   14     -6.23      0.00 
    0   12   14     -2.73      0.00 
    1   12   14      2.27      0.00 
    2   12   14      4.13      0.00 
    3   12   14      2.07      0.00 
    4   12   14     -0.92      0.00 
    5   12   14     -1.83      0.00 
    6   12   14      0.01      0.00 
    7   12   14      2.93      0.00 
    8   12   14      4.08      0.00 
    9   12   14      2.05      0.00 
   10   12   14     -0.91      0.00 
   11   12   14     -1.23      0.00 
   12   12   14      0.96      0.00 
   13   12   14      2.03      0.00 
   14   12   14      0.56      0.00 
   15   12   14     -0.88      0.00 
  -15   13   14     -0.86      0.00 
  -14   13   14     -1.21      0.00 
  -13   13   14     -0.28      0.00 
  -12   13   14      0.78      0.00 
  -11   13   14      0.07      0.00 
  -10   13   14     -2.50      0.00 
   -9   13   14     -4.58      0.00 
   -8   13   14     -3.74      0.00 
   -7   13   14     -0.05      0.00 
   -6   13   14      3.62      0.00 
   -5   13   14      3.93      0.00 
   -4   13   14      0.41      0.00 
   -3   13   14     -3.50      0.00 
   -2   13   14     -3.75      0.00 
   -1   13   14     -0.40      0.00 
    0   13   14      2.29      0.00 
    1   13   14      0.99      0.00 
    2   13   14     -2.75      0.00 
    3   13   14     -4.88      0.00 
    4   13   14     -3.52      0.00 
    5   13   14      0.00      0.00 
    6   13   14      3.23      0.00 
    7   13   14      4.25      0.00 
    8   13   14      2.79      0.00 
    9   13   14      0.78      0.00 
   10   13   14      0.56      0.00 
   11   13   14      1.70      0.00 
   12   13   14      1.66      0.00 
   13   13   14     -0.15      0.00 
   14   13   14     -1.55      0.00 
  -13   14   14      0.33      0.00 
  -12   14   14     -0.89      0.00 
  -11   14   14     -1.85      0.00 
  -10   14   14     -0.76      0.00 
   -9   14   14      2.40      0.00 
   -8   14   14      5.54      0.00 
   -7   14   14      6.17      0.00 
   -6   14   14      3.42      0.00 
   -5   14   14     -1.10      0.00 
   -4   14   14     -4.10      0.00 
   -3   14   14     -3.30      0.00 
   -2   14   14     -0.10      0.00 
   -1   14   14      1.70      0.00 
    0   14   14      0.47      0.00 
    1   14   14     -1.36      0.00 
    2   14   14     -0.75      0.00 
    3   14   14      2.17      0.00 
    4   14   14      5.02      0.00 
    5   14   14      6.00      0.00 
    6   14   14      4.70      0.00 
    7   14   14      1.81      0.00 
    8   14   14     -0.79      0.00 
    9   14   14     -1.39      0.00 
   10   14   14     -0.67      0.00 
   11   14   14     -0.87      0.00 
   12   14   14     -2.32      0.00 
   13   14   14     -3.03      0.00 
  -12   15   14      0.83      0.00 
  -11   15   14      2.43      0.00 
  -10   15   14      3.83      0.00 
   -9   15   14      3.20      0.00 
   -8   15   14      0.19      0.00 
   -7   15   14     -3.33      0.00 
   -6   15   14     -4.92      0.00 
   -5   15   14     -3.47      0.00 
   -4   15   14      0.12      0.00 
   -3   15   14      3.30      0.00 
   -2   15   14      3.64      0.00 
   -1   15   14      1.22      0.00 
    0   15   14     -1.26      0.00 
    1   15   14     -1.61      0.00 
    2   15   14     -0.37      0.00 
    3   15   14      0.71      0.00 
    4   15   14      0.82      0.00 
    5   15   14     -0.15      0.00 
    6   15   14     -1.97      0.00 
    7   15   14     -3.32      0.00 
    8   15   14     -2.72      0.00 
    9   15   14     -0.86      0.00 
   10   15   14     -0.02      0.00 
   11   15   14     -0.64      0.00 
   12   15   14     -0.87      0.00 
  -10   16   14     -1.12      0.00 
   -9   16   14     -3.36      0.00 
   -8   16   14     -4.50      0.00 
   -7   16   14     -3.20      0.00 
   -6   16   14     -0.37      0.00 
   -5   16   14      1.74      0.00 
   -4   16   14      1.61      0.00 
   -3   16   14     -0.59      0.00 
   -2   16   14     -3.33      0.00 
   -1   16   14     -4.69      0.00 
    0   16   14     -3.84      0.00 
    1   16   14     -1.72      0.00 
    2   16   14      0.31      0.00 
    3   16   14      1.52      0.00 
    4   16   14      1.51      0.00 
    5   16   14      0.27      0.00 
    6   16   14     -0.92      0.00 
    7   16   14     -0.49      0.00 
    8   16   14      1.00      0.00 
    9   16   14      1.43      0.00 
   10   16   14      0.40      0.00 
   -8   17   14     -1.52      0.00 
   -7   17   14     -0.19      0.00 
   -6   17   14     -0.05      0.00 
   -5   17   14     -1.21      0.00 
   -4   17   14     -2.33      0.00 
   -3   17   14     -2.30      0.00 
   -2   17   14     -1.05      0.00 
   -1   17   14      0.77      0.00 
    0   17   14      2.36      0.00 
    1   17   14      3.20      0.00 
    2   17   14      3.16      0.00 
    3   17   14      2.16      0.00 
    4   17   14      0.48      0.00 
    5   17   14     -0.74      0.00 
    6   17   14     -0.50      0.00 
    7   17   14      0.49      0.00 
    8   17   14      0.67      0.00 
   -5   18   14     -1.58      0.00 
   -4   18   14     -0.62      0.00 
   -3   18   14      0.45      0.00 
   -2   18   14      0.84      0.00 
   -1   18   14      0.62      0.00 
    0   18   14      0.26      0.00 
    1   18   14     -0.06      0.00 
    2   18   14     -0.51      0.00 
    3   18   14     -1.09      0.00 
    4   18   14     -1.26      0.00 
  -20    1   15     -0.94      0.00 
  -19    1   15     -2.53      0.00 
  -18    1   15     -4.83      0.00 
  -17    1   15     -6.73      0.00 
  -16    1   15     -6.81      0.00 
  -15    1   15     -4.74      0.00 
  -14    1   15     -1.72      0.00 
  -13    1   15      0.61      0.00 
  -12    1   15      1.52      0.00 
  -11    1   15      1.47      0.00 
  -10    1   15      1.60      0.00 
   -9    1   15      2.82      0.00 
   -8    1   15      4.81      0.00 
   -7    1   15      6.09      0.00 
   -6    1   15      5.39      0.00 
   -5    1   15      3.16      0.00 
   -4    1   15      1.18      0.00 
   -3    1   15      0.55      0.00 
   -2    1   15      0.67      0.00 
   -1    1   15      0.29      0.00 
    0    1   15     -0.86      0.00 
    1    1   15     -1.74      0.00 
    2    1   15     -0.86      0.00 
    3    1   15      2.46      0.00 
    4    1   15      6.63      0.00 
    5    1   15      8.19      0.00 
    6    1   15      5.24      0.00 
    7    1   15      0.20      0.00 
    8    1   15     -2.72      0.00 
    9    1   15     -2.56      0.00 
   10    1   15     -1.88      0.00 
   11    1   15     -2.39      0.00 
   12    1   15     -3.07      0.00 
   13    1   15     -2.81      0.00 
   14    1   15     -2.10      0.00 
   15    1   15     -1.69      0.00 
   16    1   15     -1.57      0.00 
   17    1   15     -1.49      0.00 
   18    1   15     -1.21      0.00 
   19    1   15     -0.36      0.00 
   20    1   15      0.85      0.00 
  -20    2   15     -2.28      0.00 
  -19    2   15     -3.55      0.00 
  -18    2   15     -3.68      0.00 
  -17    2   15     -1.37      0.00 
  -16    2   15      2.95      0.00 
  -15    2   15      6.92      0.00 
  -14    2   15      8.32      0.00 
  -13    2   15      6.91      0.00 
  -12    2   15      4.49      0.00 
  -11    2   15      3.47      0.00 
  -10    2   15      4.79      0.00 
   -9    2   15      6.84      0.00 
   -8    2   15      6.79      0.00 
   -7    2   15      3.64      0.00 
   -6    2   15     -0.47      0.00 
   -5    2   15     -2.52      0.00 
   -4    2   15     -1.91      0.00 
   -3    2   15     -1.01      0.00 
   -2    2   15     -2.21      0.00 
   -1    2   15     -5.06      0.00 
    0    2   15     -6.64      0.00 
    1    2   15     -4.61      0.00 
    2    2   15      0.18      0.00 
    3    2   15      3.71      0.00 
    4    2   15      2.01      0.00 
    5    2   15     -4.46      0.00 
    6    2   15     -9.92      0.00 
    7    2   15     -9.17      0.00 
    8    2   15     -3.74      0.00 
    9    2   15      0.46      0.00 
   10    2   15      0.82      0.00 
   11    2   15     -0.06      0.00 
   12    2   15      0.37      0.00 
   13    2   15      1.56      0.00 
   14    2   15      2.33      0.00 
   15    2   15      2.60      0.00 
   16    2   15      2.49      0.00 
   17    2   15      2.05      0.00 
   18    2   15      1.82      0.00 
   19    2   15      1.99      0.00 
   20    2   15      1.71      0.00 
  -20    3   15     -0.17      0.00 
  -19    3   15      0.15      0.00 
  -18    3   15      1.96      0.00 
  -17    3   15      4.53      0.00 
  -16    3   15      5.66      0.00 
  -15    3   15      3.95      0.00 
  -14    3   15      0.55      0.00 
  -13    3   15     -1.65      0.00 
  -12    3   15     -0.37      0.00 
  -11    3   15      3.58      0.00 
  -10    3   15      6.33      0.00 
   -9    3   15      4.46      0.00 
   -8    3   15     -1.11      0.00 
   -7    3   15     -5.93      0.00 
   -6    3   15     -6.87      0.00 
   -5    3   15     -5.31      0.00 
   -4    3   15     -5.26      0.00 
   -3    3   15     -8.63      0.00 
   -2    3   15    -12.77      0.00 
   -1    3   15    -12.83      0.00 
    0    3   15     -7.03      0.00 
    1    3   15      0.81      0.00 
    2    3   15      4.65      0.00 
    3    3   15      2.22      0.00 
    4    3   15     -2.44      0.00 
    5    3   15     -2.78      0.00 
    6    3   15      3.22      0.00 
    7    3   15     10.46      0.00 
    8    3   15     12.43      0.00 
    9    3   15      8.51      0.00 
   10    3   15      3.56      0.00 
   11    3   15      1.23      0.00 
   12    3   15      0.94      0.00 
   13    3   15      0.86      0.00 
   14    3   15      0.31      0.00 
   15    3   15     -0.70      0.00 
   16    3   15     -1.77      0.00 
   17    3   15     -1.89      0.00 
   18    3   15     -0.88      0.00 
   19    3   15     -0.09      0.00 
  -20    4   15      0.50      0.00 
  -19    4   15      1.63      0.00 
  -18    4   15      3.08      0.00 
  -17    4   15      3.09      0.00 
  -16    4   15      1.18      0.00 
  -15    4   15     -0.88      0.00 
  -14    4   15     -0.71      0.00 
  -13    4   15      2.06      0.00 
  -12    4   15      4.64      0.00 
  -11    4   15      3.01      0.00 
  -10    4   15     -3.73      0.00 
   -9    4   15    -11.12      0.00 
   -8    4   15    -13.37      0.00 
   -7    4   15     -9.71      0.00 
   -6    4   15     -5.15      0.00 
   -5    4   15     -4.79      0.00 
   -4    4   15     -8.29      0.00 
   -3    4   15    -10.10      0.00 
   -2    4   15     -5.00      0.00 
   -1    4   15      5.99      0.00 
    0    4   15     15.54      0.00 
    1    4   15     16.92      0.00 
    2    4   15     10.98      0.00 
    3    4   15      4.98      0.00 
    4    4   15      4.68      0.00 
    5    4   15      8.54      0.00 
    6    4   15     10.20      0.00 
    7    4   15      5.82      0.00 
    8    4   15     -1.81      0.00 
    9    4   15     -6.99      0.00 
   10    4   15     -7.31      0.00 
   11    4   15     -5.00      0.00 
   12    4   15     -3.17      0.00 
   13    4   15     -2.91      0.00 
   14    4   15     -3.52      0.00 
   15    4   15     -3.49      0.00 
   16    4   15     -1.75      0.00 
   17    4   15      0.78      0.00 
   18    4   15      1.88      0.00 
   19    4   15      1.08      0.00 
  -20    5   15      1.26      0.00 
  -19    5   15      1.72      0.00 
  -18    5   15      0.86      0.00 
  -17    5   15     -1.28      0.00 
  -16    5   15     -2.73      0.00 
  -15    5   15     -1.92      0.00 
  -14    5   15      0.11      0.00 
  -13    5   15      0.39      0.00 
  -12    5   15     -3.14      0.00 
  -11    5   15     -8.54      0.00 
  -10    5   15    -10.50      0.00 
   -9    5   15     -5.68      0.00 
   -8    5   15      2.55      0.00 
   -7    5   15      6.82      0.00 
   -6    5   15      3.66      0.00 
   -5    5   15     -2.58      0.00 
   -4    5   15     -4.09      0.00 
   -3    5   15      2.48      0.00 
   -2    5   15     12.22      0.00 
   -1    5   15     16.15      0.00 
    0    5   15     10.21      0.00 
    1    5   15     -0.23      0.00 
    2    5   15     -5.93      0.00 
    3    5   15     -3.58      0.00 
    4    5   15      1.59      0.00 
    5    5   15      2.58      0.00 
    6    5   15     -1.83      0.00 
    7    5   15     -6.80      0.00 
    8    5   15     -7.46      0.00 
    9    5   15     -3.83      0.00 
   10    5   15      0.15      0.00 
   11    5   15      1.25      0.00 
   12    5   15     -0.35      0.00 
   13    5   15     -2.22      0.00 
   14    5   15     -2.18      0.00 
   15    5   15     -0.11      0.00 
   16    5   15      1.94      0.00 
   17    5   15      1.93      0.00 
   18    5   15      0.40      0.00 
   19    5   15     -0.32      0.00 
  -19    6   15     -0.71      0.00 
  -18    6   15     -1.72      0.00 
  -17    6   15     -1.67      0.00 
  -16    6   15      0.20      0.00 
  -15    6   15      2.23      0.00 
  -14    6   15      1.82      0.00 
  -13    6   15     -1.48      0.00 
  -12    6   15     -4.82      0.00 
  -11    6   15     -4.28      0.00 
  -10    6   15      0.51      0.00 
   -9    6   15      4.56      0.00 
   -8    6   15      2.12      0.00 
   -7    6   15     -6.42      0.00 
   -6    6   15    -13.70      0.00 
   -5    6   15    -12.44      0.00 
   -4    6   15     -3.00      0.00 
   -3    6   15      6.63      0.00 
   -2    6   15      8.38      0.00 
   -1    6   15      2.23      0.00 
    0    6   15     -3.80      0.00 
    1    6   15     -2.29      0.00 
    2    6   15      5.47      0.00 
    3    6   15     11.43      0.00 
    4    6   15      9.87      0.00 
    5    6   15      2.97      0.00 
    6    6   15     -2.58      0.00 
    7    6   15     -2.77      0.00 
    8    6   15      0.42      0.00 
    9    6   15      2.14      0.00 
   10    6   15      0.08      0.00 
   11    6   15     -3.62      0.00 
   12    6   15     -5.34      0.00 
   13    6   15     -3.85      0.00 
   14    6   15     -0.93      0.00 
   15    6   15      0.93      0.00 
   16    6   15      0.87      0.00 
   17    6   15      0.05      0.00 
   18    6   15     -0.03      0.00 
   19    6   15      0.63      0.00 
  -19    7   15      0.17      0.00 
  -18    7   15      0.73      0.00 
  -17    7   15      1.98      0.00 
  -16    7   15      2.36      0.00 
  -15    7   15      0.17      0.00 
  -14    7   15     -4.03      0.00 
  -13    7   15     -7.18      0.00 
  -12    7   15     -6.55      0.00 
  -11    7   15     -3.11      0.00 
  -10    7   15     -1.30      0.00 
   -9    7   15     -4.06      0.00 
   -8    7   15     -8.51      0.00 
   -7    7   15     -7.99      0.00 
   -6    7   15      0.69      0.00 
   -5    7   15     12.95      0.00 
   -4    7   15     20.16      0.00 
   -3    7   15     17.76      0.00 
   -2    7   15      9.76      0.00 
   -1    7   15      4.80      0.00 
    0    7   15      7.14      0.00 
    1    7   15     12.31      0.00 
    2    7   15     12.46      0.00 
    3    7   15      5.18      0.00 
    4    7   15     -4.51      0.00 
    5    7   15     -9.98      0.00 
    6    7   15     -9.28      0.00 
    7    7   15     -5.94      0.00 
    8    7   15     -4.74      0.00 
    9    7   15     -6.76      0.00 
   10    7   15     -8.59      0.00 
   11    7   15     -6.74      0.00 
   12    7   15     -2.03      0.00 
   13    7   15      1.75      0.00 
   14    7   15      2.54      0.00 
   15    7   15      1.47      0.00 
   16    7   15      0.24      0.00 
   18    7   15     -1.59      0.00 
  -18    8   15      0.70      0.00 
  -17    8   15      0.08      0.00 
  -16    8   15     -1.63      0.00 
  -15    8   15     -3.38      0.00 
  -14    8   15     -2.97      0.00 
  -13    8   15      0.58      0.00 
  -12    8   15      5.00      0.00 
  -11    8   15      6.44      0.00 
  -10    8   15      3.98      0.00 
   -9    8   15      1.56      0.00 
   -8    8   15      3.73      0.00 
   -7    8   15      9.94      0.00 
   -6    8   15     14.45      0.00 
   -5    8   15     12.06      0.00 
   -4    8   15      3.45      0.00 
   -3    8   15     -5.18      0.00 
   -2    8   15     -7.62      0.00 
   -1    8   15     -3.70      0.00 
    0    8   15      0.41      0.00 
    1    8   15     -1.20      0.00 
    2    8   15     -7.86      0.00 
    3    8   15    -13.59      0.00 
    4    8   15    -13.73      0.00 
    5    8   15     -8.93      0.00 
    6    8   15     -3.47      0.00 
    7    8   15     -1.22      0.00 
    8    8   15     -2.36      0.00 
    9    8   15     -3.31      0.00 
   10    8   15     -0.95      0.00 
   11    8   15      3.19      0.00 
   12    8   15      5.00      0.00 
   13    8   15      3.45      0.00 
   14    8   15      1.29      0.00 
   15    8   15      0.28      0.00 
   16    8   15     -0.59      0.00 
   17    8   15     -1.91      0.00 
   18    8   15     -2.37      0.00 
  -18    9   15      0.44      0.00 
  -17    9   15      0.26      0.00 
  -16    9   15      0.79      0.00 
  -15    9   15      2.44      0.00 
  -14    9   15      4.54      0.00 
  -13    9   15      4.97      0.00 
  -12    9   15      1.92      0.00 
  -11    9   15     -3.15      0.00 
  -10    9   15     -5.86      0.00 
   -9    9   15     -3.73      0.00 
   -8    9   15      0.45      0.00 
   -7    9   15      1.68      0.00 
   -6    9   15     -1.57      0.00 
   -5    9   15     -5.96      0.00 
   -4    9   15     -6.98      0.00 
   -3    9   15     -3.08      0.00 
   -2    9   15      2.91      0.00 
   -1    9   15      5.84      0.00 
    0    9   15      3.13      0.00 
    1    9   15     -2.35      0.00 
    2    9   15     -5.31      0.00 
    3    9   15     -3.62      0.00 
    4    9   15      0.41      0.00 
    5    9   15      3.23      0.00 
    6    9   15      3.05      0.00 
    7    9   15      0.62      0.00 
    8    9   15     -1.11      0.00 
    9    9   15      0.22      0.00 
   10    9   15      3.28      0.00 
   11    9   15      4.43      0.00 
   12    9   15      2.85      0.00 
   13    9   15      1.39      0.00 
   14    9   15      1.70      0.00 
   15    9   15      2.14      0.00 
   16    9   15      1.31      0.00 
   17    9   15      0.35      0.00 
  -17   10   15     -0.37      0.00 
  -16   10   15      0.53      0.00 
  -15   10   15      0.68      0.00 
  -14   10   15     -0.66      0.00 
  -13   10   15     -3.26      0.00 
  -12   10   15     -5.14      0.00 
  -11   10   15     -3.76      0.00 
  -10   10   15      0.87      0.00 
   -9   10   15      5.19      0.00 
   -8   10   15      5.87      0.00 
   -7   10   15      3.65      0.00 
   -6   10   15      1.98      0.00 
   -5   10   15      2.90      0.00 
   -4   10   15      5.30      0.00 
   -3   10   15      6.48      0.00 
   -2   10   15      4.39      0.00 
   -1   10   15     -0.56      0.00 
    0   10   15     -5.16      0.00 
    1   10   15     -6.25      0.00 
    2   10   15     -4.04      0.00 
    3   10   15     -1.45      0.00 
    4   10   15     -0.59      0.00 
    5   10   15     -1.41      0.00 
    6   10   15     -2.84      0.00 
    7   10   15     -3.44      0.00 
    8   10   15     -1.93      0.00 
    9   10   15      1.06      0.00 
   10   10   15      2.96      0.00 
   11   10   15      2.63      0.00 
   12   10   15      1.90      0.00 
   13   10   15      2.59      0.00 
   14   10   15      3.76      0.00 
   15   10   15      3.64      0.00 
   16   10   15      2.36      0.00 
  -16   11   15      1.78      0.00 
  -15   11   15      1.11      0.00 
  -14   11   15      0.39      0.00 
  -13   11   15      0.48      0.00 
  -12   11   15      1.70      0.00 
  -11   11   15      3.07      0.00 
  -10   11   15      2.76      0.00 
   -9   11   15      0.18      0.00 
   -8   11   15     -2.83      0.00 
   -7   11   15     -3.95      0.00 
   -6   11   15     -3.01      0.00 
   -5   11   15     -1.77      0.00 
   -4   11   15     -1.77      0.00 
   -3   11   15     -3.24      0.00 
   -2   11   15     -5.09      0.00 
   -1   11   15     -5.53      0.00 
    0   11   15     -3.70      0.00 
    1   11   15     -1.03      0.00 
    2   11   15      0.20      0.00 
    3   11   15     -0.41      0.00 
    4   11   15     -1.41      0.00 
    5   11   15     -1.72      0.00 
    6   11   15     -1.08      0.00 
    7   11   15      0.85      0.00 
    8   11   15      3.85      0.00 
    9   11   15      6.02      0.00 
   10   11   15      5.55      0.00 
   11   11   15      3.25      0.00 
   12   11   15      1.71      0.00 
   13   11   15      1.89      0.00 
   14   11   15      2.30      0.00 
   15   11   15      1.58      0.00 
   16   11   15      0.34      0.00 
  -15   12   15     -1.29      0.00 
  -14   12   15     -1.62      0.00 
  -13   12   15     -2.07      0.00 
  -12   12   15     -3.04      0.00 
  -11   12   15     -4.32      0.00 
  -10   12   15     -4.99      0.00 
   -9   12   15     -3.97      0.00 
   -8   12   15     -1.33      0.00 
   -7   12   15      1.40      0.00 
   -6   12   15      2.74      0.00 
   -5   12   15      2.50      0.00 
   -4   12   15      1.44      0.00 
   -3   12   15      0.33      0.00 
   -2   12   15     -0.14      0.00 
   -1   12   15      0.24      0.00 
    0   12   15      0.65      0.00 
    1   12   15      0.14      0.00 
    2   12   15     -0.90      0.00 
    3   12   15     -1.31      0.00 
    4   12   15     -0.84      0.00 
    5   12   15      0.10      0.00 
    6   12   15      1.64      0.00 
    7   12   15      3.90      0.00 
    8   12   15      5.48      0.00 
    9   12   15      4.56      0.00 
   10   12   15      1.71      0.00 
   11   12   15     -0.25      0.00 
   12   12   15      0.19      0.00 
   13   12   15      1.38      0.00 
   14   12   15      1.03      0.00 
   15   12   15     -0.40      0.00 
  -14   13   15     -0.16      0.00 
  -13   13   15     -0.89      0.00 
  -12   13   15     -1.03      0.00 
  -11   13   15      0.28      0.00 
  -10   13   15      2.87      0.00 
   -9   13   15      5.17      0.00 
   -8   13   15      5.45      0.00 
   -7   13   15      3.66      0.00 
   -6   13   15      1.54      0.00 
   -5   13   15      0.33      0.00 
   -4   13   15     -0.37      0.00 
   -3   13   15     -1.15      0.00 
   -2   13   15     -1.56      0.00 
   -1   13   15     -1.14      0.00 
    0   13   15     -0.23      0.00 
    1   13   15      0.60      0.00 
    2   13   15      1.08      0.00 
    3   13   15      1.02      0.00 
    4   13   15      0.73      0.00 
    5   13   15      1.13      0.00 
    6   13   15      2.40      0.00 
    7   13   15      3.13      0.00 
    8   13   15      1.89      0.00 
    9   13   15     -0.52      0.00 
   10   13   15     -1.80      0.00 
   11   13   15     -1.10      0.00 
   12   13   15     -0.11      0.00 
   13   13   15     -0.50      0.00 
   14   13   15     -1.47      0.00 
  -13   14   15      0.41      0.00 
  -12   14   15      1.85      0.00 
  -11   14   15      3.00      0.00 
  -10   14   15      2.58      0.00 
   -9   14   15      0.13      0.00 
   -8   14   15     -2.76      0.00 
   -7   14   15     -3.42      0.00 
   -6   14   15     -1.35      0.00 
   -5   14   15      0.89      0.00 
   -4   14   15      1.14      0.00 
   -3   14   15      0.23      0.00 
   -2   14   15     -0.01      0.00 
   -1   14   15      0.38      0.00 
    0   14   15      0.05      0.00 
    1   14   15     -1.45      0.00 
    2   14   15     -3.09      0.00 
    3   14   15     -3.35      0.00 
    4   14   15     -1.61      0.00 
    5   14   15      0.95      0.00 
    6   14   15      2.12      0.00 
    7   14   15      1.06      0.00 
    8   14   15     -0.63      0.00 
    9   14   15     -0.95      0.00 
   10   14   15      0.07      0.00 
   11   14   15      0.77      0.00 
   12   14   15      0.25      0.00 
  -12   15   15      0.57      0.00 
  -11   15   15     -0.45      0.00 
  -10   15   15     -1.72      0.00 
   -9   15   15     -2.01      0.00 
   -8   15   15     -0.06      0.00 
   -7   15   15      3.22      0.00 
   -6   15   15      4.60      0.00 
   -5   15   15      2.41      0.00 
   -4   15   15     -0.99      0.00 
   -3   15   15     -2.43      0.00 
   -2   15   15     -1.99      0.00 
   -1   15   15     -1.81      0.00 
    0   15   15     -2.45      0.00 
    1   15   15     -2.37      0.00 
    2   15   15     -0.34      0.00 
    3   15   15      2.87      0.00 
    4   15   15      5.02      0.00 
    5   15   15      4.44      0.00 
    6   15   15      1.73      0.00 
    7   15   15     -0.71      0.00 
    8   15   15     -1.24      0.00 
    9   15   15     -0.48      0.00 
   10   15   15     -0.07      0.00 
   11   15   15     -0.59      0.00 
  -10   16   15     -0.36      0.00 
   -9   16   15      0.07      0.00 
   -8   16   15      0.46      0.00 
   -7   16   15     -0.65      0.00 
   -6   16   15     -3.22      0.00 
   -5   16   15     -4.66      0.00 
   -4   16   15     -3.08      0.00 
   -3   16   15     -0.12      0.00 
   -2   16   15      1.21      0.00 
   -1   16   15      0.60      0.00 
    0   16   15      0.15      0.00 
    1   16   15      1.14      0.00 
    2   16   15      2.57      0.00 
    3   16   15      2.72      0.00 
    4   16   15      1.06      0.00 
    5   16   15     -1.36      0.00 
    6   16   15     -2.82      0.00 
    7   16   15     -2.52      0.00 
    8   16   15     -1.17      0.00 
    9   16   15     -0.10      0.00 
   -7   17   15     -3.53      0.00 
   -6   17   15     -3.24      0.00 
   -5   17   15     -1.19      0.00 
   -4   17   15      0.55      0.00 
   -3   17   15      0.13      0.00 
   -2   17   15     -1.60      0.00 
   -1   17   15     -2.37      0.00 
    0   17   15     -1.49      0.00 
    1   17   15     -0.22      0.00 
    2   17   15      0.15      0.00 
    3   17   15     -0.46      0.00 
    4   17   15     -1.29      0.00 
    5   17   15     -1.52      0.00 
    6   17   15     -0.78      0.00 
    7   17   15      0.53      0.00 
   -4   18   15     -0.84      0.00 
   -3   18   15     -1.64      0.00 
   -2   18   15     -0.97      0.00 
   -1   18   15      0.67      0.00 
    0   18   15      1.86      0.00 
    1   18   15      1.90      0.00 
    2   18   15      1.13      0.00 
    3   18   15      0.22      0.00 
  -20    0   16     -0.75      0.00 
  -19    0   16     -3.66      0.00 
  -18    0   16     -8.04      0.00 
  -17    0   16    -11.40      0.00 
  -16    0   16    -10.51      0.00 
  -15    0   16     -5.29      0.00 
  -14    0   16      0.66      0.00 
  -13    0   16      3.42      0.00 
  -12    0   16      1.87      0.00 
  -11    0   16     -1.25      0.00 
  -10    0   16     -0.87      0.00 
   -9    0   16      5.67      0.00 
   -8    0   16     14.49      0.00 
   -7    0   16     18.00      0.00 
   -6    0   16     13.04      0.00 
   -5    0   16      4.62      0.00 
   -4    0   16      0.48      0.00 
   -3    0   16      3.19      0.00 
   -2    0   16      7.87      0.00 
   -1    0   16      7.37      0.00 
    0    0   16     -0.59      0.00 
    1    0   16    -10.52      0.00 
    2    0   16    -13.73      0.00 
    3    0   16     -6.77      0.00 
    4    0   16      4.17      0.00 
    5    0   16      8.66      0.00 
    6    0   16      2.88      0.00 
    7    0   16     -6.39      0.00 
    8    0   16    -10.03      0.00 
    9    0   16     -6.60      0.00 
   10    0   16     -1.71      0.00 
   11    0   16      0.17      0.00 
   12    0   16     -0.62      0.00 
   13    0   16     -1.79      0.00 
   14    0   16     -1.92      0.00 
   15    0   16     -0.90      0.00 
   16    0   16      0.08      0.00 
   17    0   16     -0.16      0.00 
   18    0   16     -0.94      0.00 
   19    0   16     -0.62      0.00 
  -20    1   16     -2.11      0.00 
  -19    1   16     -3.37      0.00 
  -18    1   16     -3.14      0.00 
  -17    1   16      0.07      0.00 
  -16    1   16      5.07      0.00 
  -15    1   16      8.34      0.00 
  -14    1   16      7.55      0.00 
  -13    1   16      3.77      0.00 
  -12    1   16      0.67      0.00 
  -11    1   16      1.80      0.00 
  -10    1   16      7.02      0.00 
   -9    1   16     11.12      0.00 
   -8    1   16      8.57      0.00 
   -7    1   16      0.16      0.00 
   -6    1   16     -7.03      0.00 
   -5    1   16     -7.21      0.00 
   -4    1   16     -1.90      0.00 
   -3    1   16      1.84      0.00 
   -2    1   16     -1.36      0.00 
   -1    1   16     -9.79      0.00 
    0    1   16    -15.84      0.00 
    1    1   16    -13.14      0.00 
    2    1   16     -3.18      0.00 
    3    1   16      5.45      0.00 
    4    1   16      5.34      0.00 
    5    1   16     -2.13      0.00 
    6    1   16     -8.27      0.00 
    7    1   16     -6.67      0.00 
    8    1   16      0.35      0.00 
    9    1   16      5.73      0.00 
   10    1   16      5.98      0.00 
   11    1   16      3.25      0.00 
   12    1   16      1.05      0.00 
   13    1   16      0.86      0.00 
   14    1   16      2.03      0.00 
   15    1   16      2.88      0.00 
   16    1   16      2.22      0.00 
   17    1   16      0.91      0.00 
   18    1   16      0.58      0.00 
   19    1   16      1.09      0.00 
  -20    2   16     -0.66      0.00 
  -19    2   16     -0.85      0.00 
  -18    2   16      0.06      0.00 
  -17    2   16      1.49      0.00 
  -16    2   16      1.44      0.00 
  -15    2   16     -0.86      0.00 
  -14    2   16     -3.61      0.00 
  -13    2   16     -3.84      0.00 
  -12    2   16     -0.11      0.00 
  -11    2   16      5.33      0.00 
  -10    2   16      7.46      0.00 
   -9    2   16      3.56      0.00 
   -8    2   16     -2.82      0.00 
   -7    2   16     -5.14      0.00 
   -6    2   16     -1.39      0.00 
   -5    2   16      3.57      0.00 
   -4    2   16      3.20      0.00 
   -3    2   16     -3.98      0.00 
   -2    2   16    -12.58      0.00 
   -1    2   16    -14.85      0.00 
    0    2   16     -8.01      0.00 
    1    2   16      2.47      0.00 
    2    2   16      8.07      0.00 
    3    2   16      5.77      0.00 
    4    2   16      0.50      0.00 
    5    2   16     -0.88      0.00 
    6    2   16      3.23      0.00 
    7    2   16      8.49      0.00 
    8    2   16      9.92      0.00 
    9    2   16      6.58      0.00 
   10    2   16      1.47      0.00 
   11    2   16     -1.88      0.00 
   12    2   16     -2.16      0.00 
   13    2   16     -0.72      0.00 
   14    2   16      0.02      0.00 
   15    2   16     -0.97      0.00 
   16    2   16     -2.29      0.00 
   17    2   16     -2.28      0.00 
   18    2   16     -1.33      0.00 
   19    2   16     -0.73      0.00 
  -20    3   16     -0.83      0.00 
  -19    3   16     -0.53      0.00 
  -18    3   16      0.48      0.00 
  -17    3   16      1.08      0.00 
  -16    3   16      0.90      0.00 
  -15    3   16      1.22      0.00 
  -14    3   16      3.39      0.00 
  -13    3   16      6.85      0.00 
  -12    3   16      8.75      0.00 
  -11    3   16      6.24      0.00 
  -10    3   16      0.03      0.00 
   -9    3   16     -4.99      0.00 
   -8    3   16     -4.54      0.00 
   -7    3   16     -0.30      0.00 
   -6    3   16      1.63      0.00 
   -5    3   16     -2.66      0.00 
   -4    3   16    -10.57      0.00 
   -3    3   16    -15.25      0.00 
   -2    3   16    -11.61      0.00 
   -1    3   16     -1.27      0.00 
    0    3   16      8.18      0.00 
    1    3   16     10.20      0.00 
    2    3   16      5.62      0.00 
    3    3   16      0.78      0.00 
    4    3   16      0.07      0.00 
    5    3   16      2.34      0.00 
    6    3   16      3.90      0.00 
    7    3   16      2.78      0.00 
    8    3   16     -0.37      0.00 
    9    3   16     -3.54      0.00 
   10    3   16     -4.64      0.00 
   11    3   16     -3.04      0.00 
   12    3   16     -0.46      0.00 
   13    3   16      0.69      0.00 
   14    3   16      0.12      0.00 
   15    3   16     -0.31      0.00 
   16    3   16      0.39      0.00 
   17    3   16      1.11      0.00 
   18    3   16      0.85      0.00 
   19    3   16      0.36      0.00 
  -20    4   16      1.44      0.00 
  -19    4   16      2.04      0.00 
  -18    4   16      2.02      0.00 
  -17    4   16      1.31      0.00 
  -16    4   16      0.88      0.00 
  -15    4   16      1.31      0.00 
  -14    4   16      1.64      0.00 
  -13    4   16      0.22      0.00 
  -12    4   16     -3.20      0.00 
  -11    4   16     -6.43      0.00 
  -10    4   16     -6.41      0.00 
   -9    4   16     -2.68      0.00 
   -8    4   16      1.01      0.00 
   -7    4   16      0.09      0.00 
   -6    4   16     -5.71      0.00 
   -5    4   16    -11.47      0.00 
   -4    4   16    -11.61      0.00 
   -3    4   16     -4.99      0.00 
   -2    4   16      3.84      0.00 
   -1    4   16      8.41      0.00 
    0    4   16      6.12      0.00 
    1    4   16      0.57      0.00 
    2    4   16     -2.46      0.00 
    3    4   16     -0.92      0.00 
    4    4   16      2.71      0.00 
    5    4   16      5.28      0.00 
    6    4   16      5.79      0.00 
    7    4   16      4.72      0.00 
    8    4   16      3.02      0.00 
    9    4   16      1.92      0.00 
   10    4   16      1.96      0.00 
   11    4   16      2.05      0.00 
   12    4   16      0.90      0.00 
   13    4   16     -0.92      0.00 
   14    4   16     -1.83      0.00 
   15    4   16     -1.74      0.00 
   16    4   16     -1.80      0.00 
   17    4   16     -1.99      0.00 
   18    4   16     -1.25      0.00 
   19    4   16      0.27      0.00 
  -19    5   16     -0.82      0.00 
  -18    5   16     -1.39      0.00 
  -17    5   16     -1.41      0.00 
  -16    5   16     -0.78      0.00 
  -15    5   16     -0.47      0.00 
  -14    5   16     -1.34      0.00 
  -13    5   16     -2.85      0.00 
  -12    5   16     -3.53      0.00 
  -11    5   16     -2.65      0.00 
  -10    5   16     -1.37      0.00 
   -9    5   16     -2.02      0.00 
   -8    5   16     -5.68      0.00 
   -7    5   16    -10.38      0.00 
   -6    5   16    -12.19      0.00 
   -5    5   16     -8.75      0.00 
   -4    5   16     -1.70      0.00 
   -3    5   16      4.73      0.00 
   -2    5   16      7.35      0.00 
   -1    5   16      6.54      0.00 
    0    5   16      5.41      0.00 
    1    5   16      6.55      0.00 
    2    5   16      9.62      0.00 
    3    5   16     12.14      0.00 
    4    5   16     12.11      0.00 
    5    5   16      9.28      0.00 
    6    5   16      4.67      0.00 
    7    5   16     -0.10      0.00 
    8    5   16     -3.39      0.00 
    9    5   16     -4.73      0.00 
   10    5   16     -5.22      0.00 
   11    5   16     -5.85      0.00 
   12    5   16     -6.25      0.00 
   13    5   16     -5.80      0.00 
   14    5   16     -4.86      0.00 
   15    5   16     -3.68      0.00 
   16    5   16     -1.56      0.00 
   17    5   16      1.46      0.00 
   18    5   16      3.45      0.00 
   19    5   16      2.90      0.00 
  -19    6   16     -0.24      0.00 
  -18    6   16      0.00      0.00 
  -17    6   16      0.09      0.00 
  -16    6   16     -0.41      0.00 
  -15    6   16     -1.64      0.00 
  -14    6   16     -2.94      0.00 
  -13    6   16     -3.54      0.00 
  -12    6   16     -3.55      0.00 
  -11    6   16     -3.73      0.00 
  -10    6   16     -4.43      0.00 
   -9    6   16     -4.89      0.00 
   -8    6   16     -3.79      0.00 
   -7    6   16     -0.36      0.00 
   -6    6   16      4.65      0.00 
   -5    6   16      9.26      0.00 
   -4    6   16     11.77      0.00 
   -3    6   16     11.95      0.00 
   -2    6   16     10.78      0.00 
   -1    6   16      9.24      0.00 
    0    6   16      7.83      0.00 
    1    6   16      6.54      0.00 
    2    6   16      4.97      0.00 
    3    6   16      2.40      0.00 
    4    6   16     -1.61      0.00 
    5    6   16     -6.43      0.00 
    6    6   16    -10.13      0.00 
    7    6   16    -10.94      0.00 
    8    6   16     -9.06      0.00 
    9    6   16     -6.47      0.00 
   10    6   16     -4.67      0.00 
   11    6   16     -3.52      0.00 
   12    6   16     -2.52      0.00 
   13    6   16     -1.55      0.00 
   14    6   16     -0.15      0.00 
   15    6   16      2.22      0.00 
   16    6   16      4.29      0.00 
   17    6   16      3.69      0.00 
   18    6   16      0.48      0.00 
  -19    7   16      0.28      0.00 
  -18    7   16     -0.28      0.00 
  -17    7   16     -1.00      0.00 
  -16    7   16     -1.30      0.00 
  -15    7   16     -0.78      0.00 
  -14    7   16      0.33      0.00 
  -13    7   16      1.21      0.00 
  -12    7   16      1.37      0.00 
  -11    7   16      1.34      0.00 
  -10    7   16      2.12      0.00 
   -9    7   16      3.75      0.00 
   -8    7   16      4.97      0.00 
   -7    7   16      4.46      0.00 
   -6    7   16      2.38      0.00 
   -5    7   16      0.35      0.00 
   -4    7   16     -0.36      0.00 
   -3    7   16     -0.26      0.00 
   -2    7   16     -0.77      0.00 
   -1    7   16     -2.02      0.00 
    0    7   16     -2.69      0.00 
    1    7   16     -2.04      0.00 
    2    7   16     -1.27      0.00 
    3    7   16     -2.12      0.00 
    4    7   16     -4.46      0.00 
    5    7   16     -5.99      0.00 
    6    7   16     -4.66      0.00 
    7    7   16     -1.22      0.00 
    8    7   16      1.44      0.00 
    9    7   16      1.54      0.00 
   10    7   16      0.08      0.00 
   11    7   16     -0.94      0.00 
   12    7   16     -0.66      0.00 
   13    7   16      0.77      0.00 
   14    7   16      2.58      0.00 
   15    7   16      3.09      0.00 
   16    7   16      0.89      0.00 
   17    7   16     -2.71      0.00 
   18    7   16     -4.30      0.00 
  -18    8   16      0.08      0.00 
  -17    8   16      1.03      0.00 
  -16    8   16      2.58      0.00 
  -15    8   16      3.37      0.00 
  -14    8   16      2.33      0.00 
  -13    8   16     -0.09      0.00 
  -12    8   16     -2.14      0.00 
  -11    8   16     -2.57      0.00 
  -10    8   16     -2.05      0.00 
   -9    8   16     -2.26      0.00 
   -8    8   16     -3.66      0.00 
   -7    8   16     -4.39      0.00 
   -6    8   16     -2.18      0.00 
   -5    8   16      2.59      0.00 
   -4    8   16      6.59      0.00 
   -3    8   16      7.13      0.00 
   -2    8   16      5.30      0.00 
   -1    8   16      4.36      0.00 
    0    8   16      5.45      0.00 
    1    8   16      6.26      0.00 
    2    8   16      4.28      0.00 
    3    8   16      0.04      0.00 
    4    8   16     -3.40      0.00 
    5    8   16     -3.83      0.00 
    6    8   16     -2.23      0.00 
    7    8   16     -1.65      0.00 
    8    8   16     -3.60      0.00 
    9    8   16     -6.09      0.00 
   10    8   16     -5.93      0.00 
   11    8   16     -2.60      0.00 
   12    8   16      1.40      0.00 
   13    8   16      3.52      0.00 
   14    8   16      3.09      0.00 
   15    8   16      0.92      0.00 
   16    8   16     -1.41      0.00 
   17    8   16     -2.18      0.00 
  -17    9   16      1.28      0.00 
  -16    9   16      1.24      0.00 
  -15    9   16     -0.23      0.00 
  -14    9   16     -1.81      0.00 
  -13    9   16     -1.61      0.00 
  -12    9   16      0.42      0.00 
  -11    9   16      2.28      0.00 
  -10    9   16      2.38      0.00 
   -9    9   16      1.60      0.00 
   -8    9   16      2.40      0.00 
   -7    9   16      5.68      0.00 
   -6    9   16      9.01      0.00 
   -5    9   16      8.67      0.00 
   -4    9   16      3.87      0.00 
   -3    9   16     -1.75      0.00 
   -2    9   16     -3.98      0.00 
   -1    9   16     -2.86      0.00 
    0    9   16     -2.22      0.00 
    1    9   16     -4.69      0.00 
    2    9   16     -8.67      0.00 
    3    9   16    -10.56      0.00 
    4    9   16     -8.74      0.00 
    5    9   16     -4.94      0.00 
    6    9   16     -2.48      0.00 
    7    9   16     -2.89      0.00 
    8    9   16     -3.96      0.00 
    9    9   16     -2.17      0.00 
   10    9   16      2.59      0.00 
   11    9   16      6.35      0.00 
   12    9   16      6.09      0.00 
   13    9   16      3.37      0.00 
   14    9   16      1.40      0.00 
   15    9   16      0.90      0.00 
   16    9   16      0.61      0.00 
   17    9   16      0.15      0.00 
  -17   10   16      1.53      0.00 
  -16   10   16      1.15      0.00 
  -15   10   16      1.03      0.00 
  -14   10   16      2.02      0.00 
  -13   10   16      3.08      0.00 
  -12   10   16      2.14      0.00 
  -11   10   16     -0.95      0.00 
  -10   10   16     -3.57      0.00 
   -9   10   16     -3.34      0.00 
   -8   10   16     -1.07      0.00 
   -7   10   16     -0.12      0.00 
   -6   10   16     -2.65      0.00 
   -5   10   16     -6.92      0.00 
   -4   10   16     -8.68      0.00 
   -3   10   16     -5.74      0.00 
   -2   10   16     -0.75      0.00 
   -1   10   16      1.53      0.00 
    0   10   16     -0.43      0.00 
    1   10   16     -3.54      0.00 
    2   10   16     -4.01      0.00 
    3   10   16     -1.24      0.00 
    4   10   16      2.26      0.00 
    5   10   16      3.66      0.00 
    6   10   16      2.36      0.00 
    7   10   16      0.86      0.00 
    8   10   16      2.26      0.00 
    9   10   16      6.00      0.00 
   10   10   16      7.65      0.00 
   11   10   16      4.79      0.00 
   12   10   16      0.77      0.00 
   13   10   16      0.06      0.00 
   14   10   16      2.08      0.00 
   15   10   16      3.00      0.00 
   16   10   16      1.87      0.00 
  -16   11   16     -0.76      0.00 
  -15   11   16     -0.84      0.00 
  -14   11   16     -1.42      0.00 
  -13   11   16     -3.41      0.00 
  -12   11   16     -5.81      0.00 
  -11   11   16     -5.96      0.00 
  -10   11   16     -2.80      0.00 
   -9   11   16      1.33      0.00 
   -8   11   16      2.97      0.00 
   -7   11   16      1.44      0.00 
   -6   11   16     -0.33      0.00 
   -5   11   16      0.93      0.00 
   -4   11   16      4.95      0.00 
   -3   11   16      7.82      0.00 
   -2   11   16      6.13      0.00 
   -1   11   16      1.03      0.00 
    0   11   16     -2.90      0.00 
    1   11   16     -2.69      0.00 
    2   11   16      0.23      0.00 
    3   11   16      2.31      0.00 
    4   11   16      1.55      0.00 
    5   11   16     -0.98      0.00 
    6   11   16     -2.42      0.00 
    7   11   16     -0.76      0.00 
    8   11   16      2.56      0.00 
    9   11   16      3.68      0.00 
   10   11   16      1.21      0.00 
   11   11   16     -1.29      0.00 
   12   11   16     -0.16      0.00 
   13   11   16      3.01      0.00 
   14   11   16      3.95      0.00 
   15   11   16      2.10      0.00 
  -15   12   16      0.37      0.00 
  -14   12   16     -0.25      0.00 
  -13   12   16     -0.75      0.00 
  -12   12   16      0.20      0.00 
  -11   12   16      2.47      0.00 
  -10   12   16      3.98      0.00 
   -9   12   16      2.78      0.00 
   -8   12   16     -0.32      0.00 
   -7   12   16     -2.17      0.00 
   -6   12   16     -0.70      0.00 
   -5   12   16      2.31      0.00 
   -4   12   16      2.77      0.00 
   -3   12   16     -0.92      0.00 
   -2   12   16     -5.53      0.00 
   -1   12   16     -6.38      0.00 
    0   12   16     -2.72      0.00 
    1   12   16      1.60      0.00 
    2   12   16      2.58      0.00 
    3   12   16      0.07      0.00 
    4   12   16     -2.81      0.00 
    5   12   16     -3.02      0.00 
    6   12   16     -0.17      0.00 
    7   12   16      3.28      0.00 
    8   12   16      4.30      0.00 
    9   12   16      2.47      0.00 
   10   12   16      0.57      0.00 
   11   12   16      0.89      0.00 
   12   12   16      2.18      0.00 
   13   12   16      1.87      0.00 
   14   12   16      0.15      0.00 
  -14   13   16     -0.67      0.00 
  -13   13   16     -0.54      0.00 
  -12   13   16     -0.33      0.00 
  -11   13   16     -0.89      0.00 
  -10   13   16     -2.43      0.00 
   -9   13   16     -3.71      0.00 
   -8   13   16     -2.80      0.00 
   -7   13   16      0.71      0.00 
   -6   13   16      4.25      0.00 
   -5   13   16      4.28      0.00 
   -4   13   16      0.58      0.00 
   -3   13   16     -2.85      0.00 
   -2   13   16     -2.24      0.00 
   -1   13   16      1.35      0.00 
    0   13   16      3.39      0.00 
    1   13   16      1.44      0.00 
    2   13   16     -2.41      0.00 
    3   13   16     -4.29      0.00 
    4   13   16     -2.56      0.00 
    5   13   16      1.19      0.00 
    6   13   16      3.98      0.00 
    7   13   16      4.06      0.00 
    8   13   16      2.21      0.00 
    9   13   16      0.72      0.00 
   10   13   16      0.80      0.00 
   11   13   16      1.38      0.00 
   12   13   16      1.01      0.00 
   13   13   16     -0.07      0.00 
  -13   14   16      0.00      0.00 
  -12   14   16     -0.25      0.00 
  -11   14   16      0.04      0.00 
  -10   14   16      1.47      0.00 
   -9   14   16      4.03      0.00 
   -8   14   16      6.70      0.00 
   -7   14   16      7.53      0.00 
   -6   14   16      5.04      0.00 
   -5   14   16      0.48      0.00 
   -4   14   16     -2.57      0.00 
   -3   14   16     -1.87      0.00 
   -2   14   16      0.64      0.00 
   -1   14   16      1.36      0.00 
    0   14   16     -0.53      0.00 
    1   14   16     -2.41      0.00 
    2   14   16     -1.89      0.00 
    3   14   16      0.74      0.00 
    4   14   16      3.33      0.00 
    5   14   16      3.98      0.00 
    6   14   16      2.36      0.00 
    7   14   16     -0.15      0.00 
    8   14   16     -1.58      0.00 
    9   14   16     -1.29      0.00 
   10   14   16     -0.55      0.00 
   11   14   16     -0.62      0.00 
   12   14   16     -1.24      0.00 
  -11   15   16      2.25      0.00 
  -10   15   16      2.16      0.00 
   -9   15   16      0.74      0.00 
   -8   15   16     -1.79      0.00 
   -7   15   16     -4.30      0.00 
   -6   15   16     -5.25      0.00 
   -5   15   16     -3.66      0.00 
   -4   15   16     -0.36      0.00 
   -3   15   16      2.17      0.00 
   -2   15   16      1.95      0.00 
   -1   15   16     -0.32      0.00 
    0   15   16     -2.20      0.00 
    1   15   16     -2.25      0.00 
    2   15   16     -0.95      0.00 
    3   15   16      0.50      0.00 
    4   15   16      1.08      0.00 
    5   15   16      0.21      0.00 
    6   15   16     -1.54      0.00 
    7   15   16     -2.45      0.00 
    8   15   16     -1.64      0.00 
    9   15   16     -0.28      0.00 
   10   15   16      0.13      0.00 
   -9   16   16     -3.59      0.00 
   -8   16   16     -3.19      0.00 
   -7   16   16     -1.12      0.00 
   -6   16   16      1.30      0.00 
   -5   16   16      2.25      0.00 
   -4   16   16      1.05      0.00 
   -3   16   16     -1.36      0.00 
   -2   16   16     -3.35      0.00 
   -1   16   16     -3.84      0.00 
    0   16   16     -2.83      0.00 
    1   16   16     -0.93      0.00 
    2   16   16      1.15      0.00 
    3   16   16      2.44      0.00 
    4   16   16      1.94      0.00 
    5   16   16      0.08      0.00 
    6   16   16     -1.11      0.00 
    7   16   16     -0.43      0.00 
    8   16   16      0.87      0.00 
    9   16   16      1.05      0.00 
   -7   17   16      0.58      0.00 
   -6   17   16     -0.74      0.00 
   -5   17   16     -2.59      0.00 
   -4   17   16     -3.16      0.00 
   -3   17   16     -2.00      0.00 
   -2   17   16     -0.24      0.00 
   -1   17   16      1.09      0.00 
    0   17   16      2.02      0.00 
    1   17   16      2.79      0.00 
    2   17   16      2.86      0.00 
    3   17   16      1.57      0.00 
    4   17   16     -0.39      0.00 
    5   17   16     -1.26      0.00 
    6   17   16     -0.46      0.00 
   -1   18   16      0.19      0.00 
    0   18   16      0.17      0.00 
    1   18   16      0.09      0.00 
  -20    1   17     -0.82      0.00 
  -19    1   17     -2.53      0.00 
  -18    1   17     -4.71      0.00 
  -17    1   17     -6.06      0.00 
  -16    1   17     -5.56      0.00 
  -15    1   17     -3.54      0.00 
  -14    1   17     -1.14      0.00 
  -13    1   17      0.73      0.00 
  -12    1   17      1.83      0.00 
  -11    1   17      2.54      0.00 
  -10    1   17      3.78      0.00 
   -9    1   17      6.30      0.00 
   -8    1   17      9.43      0.00 
   -7    1   17     11.21      0.00 
   -6    1   17     10.21      0.00 
   -5    1   17      6.88      0.00 
   -4    1   17      2.97      0.00 
   -3    1   17     -0.23      0.00 
   -2    1   17     -2.64      0.00 
   -1    1   17     -4.91      0.00 
    0    1   17     -7.30      0.00 
    1    1   17     -9.02      0.00 
    2    1   17     -8.44      0.00 
    3    1   17     -4.88      0.00 
    4    1   17     -0.27      0.00 
    5    1   17      2.00      0.00 
    6    1   17      0.78      0.00 
    7    1   17     -1.36      0.00 
    8    1   17     -1.52      0.00 
    9    1   17     -0.09      0.00 
   10    1   17      0.72      0.00 
   11    1   17      0.36      0.00 
   12    1   17      0.04      0.00 
   13    1   17      0.27      0.00 
   14    1   17      0.39      0.00 
   15    1   17      0.06      0.00 
   16    1   17     -0.47      0.00 
   17    1   17     -0.89      0.00 
   18    1   17     -0.93      0.00 
   19    1   17     -0.42      0.00 
  -20    2   17     -1.24      0.00 
  -19    2   17     -1.95      0.00 
  -18    2   17     -1.31      0.00 
  -17    2   17      1.41      0.00 
  -16    2   17      5.13      0.00 
  -15    2   17      7.91      0.00 
  -14    2   17      8.56      0.00 
  -13    2   17      7.21      0.00 
  -12    2   17      5.15      0.00 
  -11    2   17      4.25      0.00 
  -10    2   17      5.22      0.00 
   -9    2   17      6.18      0.00 
   -8    2   17      4.27      0.00 
   -7    2   17     -1.08      0.00 
   -6    2   17     -7.24      0.00 
   -5    2   17    -11.09      0.00 
   -4    2   17    -11.82      0.00 
   -3    2   17    -11.17      0.00 
   -2    2   17    -11.11      0.00 
   -1    2   17    -11.71      0.00 
    0    2   17    -10.84      0.00 
    1    2   17     -6.52      0.00 
    2    2   17      0.31      0.00 
    3    2   17      5.52      0.00 
    4    2   17      5.47      0.00 
    5    2   17      1.40      0.00 
    6    2   17     -1.37      0.00 
    7    2   17      0.40      0.00 
    8    2   17      4.17      0.00 
    9    2   17      5.61      0.00 
   10    2   17      4.19      0.00 
   11    2   17      2.48      0.00 
   12    2   17      1.91      0.00 
   13    2   17      1.81      0.00 
   14    2   17      1.67      0.00 
   15    2   17      1.56      0.00 
   16    2   17      1.31      0.00 
   17    2   17      0.89      0.00 
   18    2   17      0.74      0.00 
   19    2   17      0.83      0.00 
  -20    3   17      1.18      0.00 
  -19    3   17      1.52      0.00 
  -18    3   17      2.63      0.00 
  -17    3   17      3.63      0.00 
  -16    3   17      3.01      0.00 
  -15    3   17      0.33      0.00 
  -14    3   17     -3.27      0.00 
  -13    3   17     -5.53      0.00 
  -12    3   17     -4.59      0.00 
  -11    3   17     -1.24      0.00 
  -10    3   17      0.80      0.00 
   -9    3   17     -1.32      0.00 
   -8    3   17     -6.05      0.00 
   -7    3   17     -9.05      0.00 
   -6    3   17     -8.00      0.00 
   -5    3   17     -4.65      0.00 
   -4    3   17     -2.65      0.00 
   -3    3   17     -3.70      0.00 
   -2    3   17     -5.73      0.00 
   -1    3   17     -4.71      0.00 
    0    3   17      0.85      0.00 
    1    3   17      7.48      0.00 
    2    3   17      9.87      0.00 
    3    3   17      6.72      0.00 
    4    3   17      2.42      0.00 
    5    3   17      2.39      0.00 
    6    3   17      6.95      0.00 
    7    3   17     11.04      0.00 
    8    3   17     10.23      0.00 
    9    3   17      5.45      0.00 
   10    3   17      0.77      0.00 
   11    3   17     -1.54      0.00 
   12    3   17     -2.00      0.00 
   13    3   17     -1.82      0.00 
   14    3   17     -1.86      0.00 
   15    3   17     -2.60      0.00 
   16    3   17     -3.46      0.00 
   17    3   17     -3.25      0.00 
   18    3   17     -2.07      0.00 
   19    3   17     -1.18      0.00 
  -19    4   17     -0.94      0.00 
  -18    4   17     -0.75      0.00 
  -17    4   17     -1.32      0.00 
  -16    4   17     -2.64      0.00 
  -15    4   17     -3.40      0.00 
  -14    4   17     -2.08      0.00 
  -13    4   17      1.46      0.00 
  -12    4   17      4.66      0.00 
  -11    4   17      3.82      0.00 
  -10    4   17     -1.48      0.00 
   -9    4   17     -6.77      0.00 
   -8    4   17     -7.38      0.00 
   -7    4   17     -3.77      0.00 
   -6    4   17     -0.68      0.00 
   -5    4   17     -1.78      0.00 
   -4    4   17     -6.00      0.00 
   -3    4   17     -8.23      0.00 
   -2    4   17     -4.07      0.00 
   -1    4   17      5.17      0.00 
    0    4   17     12.61      0.00 
    1    4   17     12.69      0.00 
    2    4   17      7.23      0.00 
    3    4   17      3.06      0.00 
    4    4   17      4.14      0.00 
    5    4   17      7.65      0.00 
    6    4   17      7.96      0.00 
    7    4   17      3.06      0.00 
    8    4   17     -3.74      0.00 
    9    4   17     -7.84      0.00 
   10    4   17     -7.82      0.00 
   11    4   17     -5.52      0.00 
   12    4   17     -3.50      0.00 
   13    4   17     -3.03      0.00 
   14    4   17     -3.60      0.00 
   15    4   17     -3.34      0.00 
   16    4   17     -1.17      0.00 
   17    4   17      1.47      0.00 
   18    4   17      2.35      0.00 
   19    4   17      1.48      0.00 
  -19    5   17      0.34      0.00 
  -18    5   17     -0.35      0.00 
  -17    5   17     -1.56      0.00 
  -16    5   17     -2.01      0.00 
  -15    5   17     -0.94      0.00 
  -14    5   17      0.77      0.00 
  -13    5   17      0.70      0.00 
  -12    5   17     -2.85      0.00 
  -11    5   17     -7.84      0.00 
  -10    5   17     -9.33      0.00 
   -9    5   17     -5.07      0.00 
   -8    5   17      1.13      0.00 
   -7    5   17      3.29      0.00 
   -6    5   17     -0.19      0.00 
   -5    5   17     -4.82      0.00 
   -4    5   17     -4.35      0.00 
   -3    5   17      3.16      0.00 
   -2    5   17     12.47      0.00 
   -1    5   17     15.49      0.00 
    0    5   17      9.58      0.00 
    1    5   17      0.85      0.00 
    2    5   17     -2.62      0.00 
    3    5   17      0.52      0.00 
    4    5   17      4.48      0.00 
    5    5   17      3.69      0.00 
    6    5   17     -1.41      0.00 
    7    5   17     -5.96      0.00 
    8    5   17     -6.26      0.00 
    9    5   17     -3.08      0.00 
   10    5   17      0.05      0.00 
   11    5   17      0.55      0.00 
   12    5   17     -1.25      0.00 
   13    5   17     -2.92      0.00 
   14    5   17     -2.19      0.00 
   15    5   17      0.65      0.00 
   16    5   17      2.89      0.00 
   17    5   17      2.46      0.00 
   18    5   17      0.55      0.00 
  -19    6   17     -1.80      0.00 
  -18    6   17     -2.74      0.00 
  -17    6   17     -2.55      0.00 
  -16    6   17     -1.06      0.00 
  -15    6   17      0.46      0.00 
  -14    6   17      0.15      0.00 
  -13    6   17     -2.34      0.00 
  -12    6   17     -4.47      0.00 
  -11    6   17     -2.87      0.00 
  -10    6   17      2.18      0.00 
   -9    6   17      5.79      0.00 
   -8    6   17      3.53      0.00 
   -7    6   17     -3.16      0.00 
   -6    6   17     -7.86      0.00 
   -5    6   17     -5.37      0.00 
   -4    6   17      2.91      0.00 
   -3    6   17      9.75      0.00 
   -2    6   17      8.90      0.00 
   -1    6   17      1.86      0.00 
    0    6   17     -3.31      0.00 
    1    6   17     -0.97      0.00 
    2    6   17      6.00      0.00 
    3    6   17      9.94      0.00 
    4    6   17      6.93      0.00 
    5    6   17      0.20      0.00 
    6    6   17     -4.26      0.00 
    7    6   17     -3.82      0.00 
    8    6   17     -1.08      0.00 
    9    6   17     -0.31      0.00 
   10    6   17     -2.73      0.00 
   11    6   17     -5.73      0.00 
   12    6   17     -6.10      0.00 
   13    6   17     -3.33      0.00 
   14    6   17      0.27      0.00 
   15    6   17      1.98      0.00 
   16    6   17      1.13      0.00 
   18    6   17     -1.05      0.00 
  -18    7   17      0.74      0.00 
  -17    7   17      2.26      0.00 
  -16    7   17      3.08      0.00 
  -15    7   17      2.00      0.00 
  -14    7   17     -0.64      0.00 
  -13    7   17     -2.47      0.00 
  -12    7   17     -1.33      0.00 
  -11    7   17      1.54      0.00 
  -10    7   17      2.07      0.00 
   -9    7   17     -1.61      0.00 
   -8    7   17     -6.13      0.00 
   -7    7   17     -5.85      0.00 
   -6    7   17      1.08      0.00 
   -5    7   17     10.14      0.00 
   -4    7   17     14.20      0.00 
   -3    7   17     10.38      0.00 
   -2    7   17      3.36      0.00 
   -1    7   17      0.62      0.00 
    0    7   17      4.31      0.00 
    1    7   17      9.01      0.00 
    2    7   17      8.16      0.00 
    3    7   17      1.00      0.00 
    4    7   17     -7.33      0.00 
    5    7   17    -11.31      0.00 
    6    7   17     -9.91      0.00 
    7    7   17     -6.81      0.00 
    8    7   17     -6.07      0.00 
    9    7   17     -7.67      0.00 
   10    7   17     -8.00      0.00 
   11    7   17     -4.76      0.00 
   12    7   17      0.14      0.00 
   13    7   17      3.21      0.00 
   14    7   17      3.28      0.00 
   15    7   17      1.71      0.00 
   16    7   17      0.05      0.00 
   17    7   17     -1.07      0.00 
  -18    8   17      1.50      0.00 
  -17    8   17      1.17      0.00 
  -16    8   17      0.10      0.00 
  -15    8   17     -1.06      0.00 
  -14    8   17     -0.77      0.00 
  -13    8   17      1.71      0.00 
  -12    8   17      4.36      0.00 
  -11    8   17      4.05      0.00 
  -10    8   17      0.76      0.00 
   -9    8   17     -1.51      0.00 
   -8    8   17      0.74      0.00 
   -7    8   17      6.18      0.00 
   -6    8   17      9.58      0.00 
   -5    8   17      6.90      0.00 
   -4    8   17     -0.61      0.00 
   -3    8   17     -7.09      0.00 
   -2    8   17     -7.64      0.00 
   -1    8   17     -3.43      0.00 
    0    8   17     -0.40      0.00 
    1    8   17     -2.63      0.00 
    2    8   17     -8.30      0.00 
    3    8   17    -12.19      0.00 
    4    8   17    -10.93      0.00 
    5    8   17     -5.59      0.00 
    6    8   17     -0.35      0.00 
    7    8   17      1.38      0.00 
    8    8   17      0.28      0.00 
    9    8   17      0.06      0.00 
   10    8   17      2.52      0.00 
   11    8   17      5.28      0.00 
   12    8   17      5.42      0.00 
   13    8   17      3.43      0.00 
   14    8   17      1.61      0.00 
   15    8   17      0.50      0.00 
   16    8   17     -0.74      0.00 
   17    8   17     -1.89      0.00 
  -17    9   17      0.45      0.00 
  -16    9   17      1.28      0.00 
  -15    9   17      2.62      0.00 
  -14    9   17      4.00      0.00 
  -13    9   17      3.78      0.00 
  -12    9   17      0.63      0.00 
  -11    9   17     -3.81      0.00 
  -10    9   17     -5.68      0.00 
   -9    9   17     -3.47      0.00 
   -8    9   17     -0.12      0.00 
   -7    9   17      0.35      0.00 
   -6    9   17     -2.77      0.00 
   -5    9   17     -6.32      0.00 
   -4    9   17     -6.37      0.00 
   -3    9   17     -1.96      0.00 
   -2    9   17      3.67      0.00 
   -1    9   17      5.91      0.00 
    0    9   17      3.44      0.00 
    1    9   17     -0.59      0.00 
    2    9   17     -2.12      0.00 
    3    9   17     -0.09      0.00 
    4    9   17      3.28      0.00 
    5    9   17      4.89      0.00 
    6    9   17      3.30      0.00 
    7    9   17      0.03      0.00 
    8    9   17     -1.77      0.00 
    9    9   17     -0.79      0.00 
   10    9   17      1.01      0.00 
   11    9   17      1.32      0.00 
   12    9   17      0.60      0.00 
   13    9   17      0.64      0.00 
   14    9   17      1.44      0.00 
   15    9   17      1.59      0.00 
   16    9   17      0.98      0.00 
  -16   10   17      0.84      0.00 
  -15   10   17      0.52      0.00 
  -14   10   17     -0.94      0.00 
  -13   10   17     -3.44      0.00 
  -12   10   17     -5.28      0.00 
  -11   10   17     -4.24      0.00 
  -10   10   17     -0.54      0.00 
   -9   10   17      2.71      0.00 
   -8   10   17      3.08      0.00 
   -7   10   17      1.51      0.00 
   -6   10   17      0.81      0.00 
   -5   10   17      2.43      0.00 
   -4   10   17      5.19      0.00 
   -3   10   17      6.40      0.00 
   -2   10   17      4.24      0.00 
   -1   10   17     -0.28      0.00 
    0   10   17     -3.96      0.00 
    1   10   17     -4.54      0.00 
    2   10   17     -2.81      0.00 
    3   10   17     -1.26      0.00 
    4   10   17     -1.41      0.00 
    5   10   17     -2.94      0.00 
    6   10   17     -4.38      0.00 
    7   10   17     -4.29      0.00 
    8   10   17     -2.28      0.00 
    9   10   17      0.43      0.00 
   10   10   17      2.18      0.00 
   11   10   17      2.54      0.00 
   12   10   17      2.50      0.00 
   13   10   17      2.79      0.00 
   14   10   17      3.05      0.00 
   15   10   17      2.61      0.00 
   16   10   17      1.52      0.00 
  -16   11   17      0.60      0.00 
  -15   11   17      0.11      0.00 
  -14   11   17     -0.56      0.00 
  -13   11   17     -0.75      0.00 
  -12   11   17      0.08      0.00 
  -11   11   17      1.26      0.00 
  -10   11   17      1.16      0.00 
   -9   11   17     -0.74      0.00 
   -8   11   17     -2.89      0.00 
   -7   11   17     -3.44      0.00 
   -6   11   17     -2.32      0.00 
   -5   11   17     -1.01      0.00 
   -4   11   17     -1.04      0.00 
   -3   11   17     -2.63      0.00 
   -2   11   17     -4.37      0.00 
   -1   11   17     -4.38      0.00 
    0   11   17     -2.33      0.00 
    1   11   17      0.02      0.00 
    2   11   17      0.85      0.00 
    3   11   17      0.18      0.00 
    4   11   17     -0.62      0.00 
    5   11   17     -0.55      0.00 
    6   11   17      0.52      0.00 
    7   11   17      2.42      0.00 
    8   11   17      4.67      0.00 
    9   11   17      5.95      0.00 
   10   11   17      5.06      0.00 
   11   11   17      2.69      0.00 
   12   11   17      1.08      0.00 
   13   11   17      1.36      0.00 
   15   11   17      1.49      0.00 
  -15   12   17     -0.93      0.00 
  -14   12   17     -1.56      0.00 
  -13   12   17     -1.97      0.00 
  -12   12   17     -2.38      0.00 
  -11   12   17     -2.99      0.00 
  -10   12   17     -3.26      0.00 
   -9   12   17     -2.28      0.00 
   -8   12   17      0.04      0.00 
   -7   12   17      2.56      0.00 
   -6   12   17      4.08      0.00 
   -5   12   17      4.19      0.00 
   -4   12   17      3.30      0.00 
   -3   12   17      2.27      0.00 
   -2   12   17      2.01      0.00 
   -1   12   17      2.45      0.00 
    0   12   17      2.57      0.00 
    1   12   17      1.69      0.00 
    2   12   17      0.36      0.00 
    3   12   17     -0.55      0.00 
    4   12   17     -0.88      0.00 
    5   12   17     -0.75      0.00 
    6   12   17      0.14      0.00 
    7   12   17      1.77      0.00 
    8   12   17      2.95      0.00 
    9   12   17      2.28      0.00 
   10   12   17      0.34      0.00 
   11   12   17     -0.45      0.00 
   12   12   17      0.92      0.00 
   13   12   17      2.32      0.00 
   14   12   17      1.56      0.00 
  -13   13   17      0.40      0.00 
  -12   13   17      0.57      0.00 
  -11   13   17      1.54      0.00 
  -10   13   17      3.47      0.00 
   -9   13   17      5.25      0.00 
   -8   13   17      5.49      0.00 
   -7   13   17      4.28      0.00 
   -6   13   17      2.87      0.00 
   -5   13   17      1.75      0.00 
   -4   13   17      0.50      0.00 
   -3   13   17     -0.90      0.00 
   -2   13   17     -1.75      0.00 
   -1   13   17     -1.74      0.00 
    0   13   17     -1.21      0.00 
    1   13   17     -0.77      0.00 
    2   13   17     -0.93      0.00 
    3   13   17     -1.67      0.00 
    4   13   17     -2.02      0.00 
    5   13   17     -0.97      0.00 
    6   13   17      1.07      0.00 
    7   13   17      2.32      0.00 
    8   13   17      1.69      0.00 
    9   13   17      0.16      0.00 
   10   13   17     -0.40      0.00 
   11   13   17      0.34      0.00 
   12   13   17      0.73      0.00 
   13   13   17     -0.32      0.00 
  -12   14   17      0.66      0.00 
  -11   14   17      1.14      0.00 
  -10   14   17      0.57      0.00 
   -9   14   17     -1.52      0.00 
   -8   14   17     -3.44      0.00 
   -7   14   17     -2.92      0.00 
   -6   14   17     -0.39      0.00 
   -5   14   17      1.33      0.00 
   -4   14   17      0.90      0.00 
   -3   14   17     -0.19      0.00 
   -2   14   17     -0.30      0.00 
   -1   14   17      0.18      0.00 
    0   14   17     -0.19      0.00 
    1   14   17     -1.79      0.00 
    2   14   17     -3.36      0.00 
    3   14   17     -2.98      0.00 
    4   14   17     -0.35      0.00 
    5   14   17      2.41      0.00 
    6   14   17      2.89      0.00 
    7   14   17      1.17      0.00 
    8   14   17     -0.56      0.00 
    9   14   17     -0.74      0.00 
   10   14   17      0.05      0.00 
   11   14   17      0.41      0.00 
  -11   15   17     -0.58      0.00 
  -10   15   17     -1.38      0.00 
   -9   15   17     -1.03      0.00 
   -8   15   17      1.73      0.00 
   -7   15   17      5.16      0.00 
   -6   15   17      5.63      0.00 
   -5   15   17      2.40      0.00 
   -4   15   17     -1.25      0.00 
   -3   15   17     -2.42      0.00 
   -2   15   17     -1.83      0.00 
   -1   15   17     -1.70      0.00 
    0   15   17     -2.41      0.00 
    1   15   17     -2.31      0.00 
    2   15   17     -0.19      0.00 
    3   15   17      2.89      0.00 
    4   15   17      4.27      0.00 
    5   15   17      2.54      0.00 
    6   15   17     -0.66      0.00 
    7   15   17     -2.48      0.00 
    8   15   17     -2.05      0.00 
    9   15   17     -0.82      0.00 
   10   15   17     -0.24      0.00 
   -8   16   17      0.63      0.00 
   -7   16   17     -1.04      0.00 
   -6   16   17     -4.05      0.00 
   -5   16   17     -5.24      0.00 
   -4   16   17     -3.15      0.00 
   -3   16   17     -0.10      0.00 
   -2   16   17      1.06      0.00 
   -1   16   17      0.44      0.00 
    0   16   17      0.14      0.00 
    1   16   17      1.19      0.00 
    2   16   17      2.49      0.00 
    3   16   17      2.35      0.00 
    4   16   17      0.44      0.00 
    5   16   17     -1.73      0.00 
    6   16   17     -2.44      0.00 
    7   16   17     -1.53      0.00 
    8   16   17     -0.27      0.00 
   -6   17   17     -2.32      0.00 
   -4   17   17      1.05      0.00 
   -3   17   17      0.50      0.00 
   -2   17   17     -0.84      0.00 
   -1   17   17     -1.22      0.00 
    0   17   17     -0.45      0.00 
    1   17   17      0.36      0.00 
    2   17   17      0.38      0.00 
    3   17   17     -0.30      0.00 
    4   17   17     -1.00      0.00 
    5   17   17     -1.05      0.00 
  -20    0   18     -0.67      0.00 
  -19    0   18     -2.98      0.00 
  -18    0   18     -6.37      0.00 
  -17    0   18     -8.17      0.00 
  -16    0   18     -6.43      0.00 
  -15    0   18     -2.08      0.00 
  -14    0   18      2.39      0.00 
  -13    0   18      4.61      0.00 
  -12    0   18      3.46      0.00 
  -11    0   18      1.09      0.00 
  -10    0   18      2.43      0.00 
   -9    0   18      9.55      0.00 
   -8    0   18     17.62      0.00 
   -7    0   18     19.51      0.00 
   -6    0   18     13.47      0.00 
   -5    0   18      4.39      0.00 
   -4    0   18     -1.47      0.00 
   -3    0   18     -1.86      0.00 
   -2    0   18     -0.24      0.00 
   -1    0   18     -2.62      0.00 
    0    0   18    -11.04      0.00 
    1    0   18    -19.89      0.00 
    2    0   18    -20.92      0.00 
    3    0   18    -12.46      0.00 
    4    0   18     -1.81      0.00 
    5    0   18      2.43      0.00 
    6    0   18     -0.87      0.00 
    7    0   18     -5.43      0.00 
    8    0   18     -5.37      0.00 
    9    0   18     -0.88      0.00 
   10    0   18      3.61      0.00 
   11    0   18      4.88      0.00 
   12    0   18      3.43      0.00 
   13    0   18      1.75      0.00 
   14    0   18      1.46      0.00 
   15    0   18      1.87      0.00 
   16    0   18      1.36      0.00 
   17    0   18     -0.17      0.00 
   18    0   18     -1.11      0.00 
   19    0   18     -0.76      0.00 
  -20    1   18     -0.63      0.00 
  -19    1   18     -1.41      0.00 
  -18    1   18     -0.69      0.00 
  -17    1   18      2.31      0.00 
  -16    1   18      5.88      0.00 
  -15    1   18      7.62      0.00 
  -14    1   18      6.38      0.00 
  -13    1   18      2.82      0.00 
  -12    1   18     -0.28      0.00 
  -11    1   18      0.51      0.00 
  -10    1   18      4.89      0.00 
   -9    1   18      7.35      0.00 
   -8    1   18      3.18      0.00 
   -7    1   18     -5.50      0.00 
   -6    1   18    -12.02      0.00 
   -5    1   18    -12.17      0.00 
   -4    1   18     -7.68      0.00 
   -3    1   18     -4.06      0.00 
   -2    1   18     -5.79      0.00 
   -1    1   18    -11.65      0.00 
    0    1   18    -14.82      0.00 
    1    1   18     -9.74      0.00 
    2    1   18      1.03      0.00 
    3    1   18      8.90      0.00 
    4    1   18      8.42      0.00 
    5    1   18      2.64      0.00 
    6    1   18     -1.12      0.00 
    7    1   18      0.82      0.00 
    8    1   18      5.70      0.00 
    9    1   18      8.46      0.00 
   10    1   18      7.00      0.00 
   11    1   18      3.27      0.00 
   12    1   18      0.59      0.00 
   13    1   18      0.36      0.00 
   14    1   18      1.20      0.00 
   15    1   18      1.08      0.00 
   16    1   18     -0.12      0.00 
   17    1   18     -0.80      0.00 
   18    1   18     -0.34      0.00 
   19    1   18      0.21      0.00 
  -19    2   18     -0.12      0.00 
  -18    2   18      0.49      0.00 
  -17    2   18      0.98      0.00 
  -16    2   18     -0.03      0.00 
  -15    2   18     -2.60      0.00 
  -14    2   18     -5.32      0.00 
  -13    2   18     -5.74      0.00 
  -12    2   18     -2.31      0.00 
  -11    2   18      2.82      0.00 
  -10    2   18      4.66      0.00 
   -9    2   18      1.31      0.00 
   -8    2   18     -3.03      0.00 
   -7    2   18     -3.02      0.00 
   -6    2   18      1.48      0.00 
   -5    2   18      5.70      0.00 
   -4    2   18      4.90      0.00 
   -3    2   18     -1.51      0.00 
   -2    2   18     -8.93      0.00 
   -1    2   18    -10.72      0.00 
    0    2   18     -4.75      0.00 
    1    2   18      3.60      0.00 
    2    2   18      6.86      0.00 
    3    2   18      3.65      0.00 
    4    2   18     -0.71      0.00 
    5    2   18     -1.00      0.00 
    6    2   18      2.83      0.00 
    7    2   18      6.87      0.00 
    8    2   18      7.54      0.00 
    9    2   18      4.32      0.00 
   10    2   18     -0.24      0.00 
   11    2   18     -2.78      0.00 
   12    2   18     -2.20      0.00 
   13    2   18     -0.56      0.00 
   14    2   18     -0.41      0.00 
   15    2   18     -1.65      0.00 
   16    2   18     -2.34      0.00 
   17    2   18     -1.81      0.00 
   18    2   18     -1.16      0.00 
   19    2   18     -0.96      0.00 
  -19    3   18     -0.53      0.00 
  -18    3   18      0.11      0.00 
  -17    3   18      0.20      0.00 
  -16    3   18     -0.06      0.00 
  -15    3   18      0.45      0.00 
  -14    3   18      2.68      0.00 
  -13    3   18      6.09      0.00 
  -12    3   18      8.01      0.00 
  -11    3   18      5.70      0.00 
  -10    3   18      0.26      0.00 
   -9    3   18     -3.53      0.00 
   -8    3   18     -2.85      0.00 
   -7    3   18     -0.45      0.00 
   -6    3   18     -1.26      0.00 
   -5    3   18     -6.88      0.00 
   -4    3   18    -14.07      0.00 
   -3    3   18    -17.30      0.00 
   -2    3   18    -12.96      0.00 
   -1    3   18     -3.10      0.00 
    0    3   18      5.40      0.00 
    1    3   18      7.27      0.00 
    2    3   18      4.12      0.00 
    3    3   18      1.66      0.00 
    4    3   18      2.82      0.00 
    5    3   18      5.71      0.00 
    6    3   18      7.10      0.00 
    7    3   18      5.59      0.00 
    8    3   18      1.91      0.00 
    9    3   18     -1.79      0.00 
   10    3   18     -3.12      0.00 
   11    3   18     -1.72      0.00 
   12    3   18      0.12      0.00 
   13    3   18      0.25      0.00 
   14    3   18     -0.61      0.00 
   15    3   18     -0.56      0.00 
   16    3   18      0.38      0.00 
   17    3   18      0.76      0.00 
   18    3   18      0.39      0.00 
  -19    4   18      1.61      0.00 
  -18    4   18      0.71      0.00 
  -17    4   18     -0.57      0.00 
  -16    4   18     -1.18      0.00 
  -15    4   18     -1.03      0.00 
  -14    4   18     -1.14      0.00 
  -13    4   18     -2.80      0.00 
  -12    4   18     -6.05      0.00 
  -11    4   18     -8.73      0.00 
  -10    4   18     -8.18      0.00 
   -9    4   18     -4.70      0.00 
   -8    4   18     -1.99      0.00 
   -7    4   18     -3.12      0.00 
   -6    4   18     -6.90      0.00 
   -5    4   18     -9.02      0.00 
   -4    4   18     -6.01      0.00 
   -3    4   18      1.78      0.00 
   -2    4   18     10.02      0.00 
   -1    4   18     13.56      0.00 
    0    4   18     10.90      0.00 
    1    4   18      5.75      0.00 
    2    4   18      3.08      0.00 
    3    4   18      4.18      0.00 
    4    4   18      6.49      0.00 
    5    4   18      7.26      0.00 
    6    4   18      5.86      0.00 
    7    4   18      3.17      0.00 
    8    4   18      0.58      0.00 
    9    4   18     -0.71      0.00 
   10    4   18     -0.75      0.00 
   11    4   18     -0.94      0.00 
   12    4   18     -2.05      0.00 
   13    4   18     -3.07      0.00 
   14    4   18     -2.96      0.00 
   15    4   18     -2.40      0.00 
   16    4   18     -2.33      0.00 
   17    4   18     -2.11      0.00 
   18    4   18     -0.92      0.00 
  -19    5   18     -3.25      0.00 
  -18    5   18     -4.37      0.00 
  -17    5   18     -4.11      0.00 
  -16    5   18     -3.02      0.00 
  -15    5   18     -2.29      0.00 
  -14    5   18     -2.34      0.00 
  -13    5   18     -2.43      0.00 
  -12    5   18     -1.45      0.00 
  -11    5   18      0.78      0.00 
  -10    5   18      2.86      0.00 
   -9    5   18      2.79      0.00 
   -8    5   18      0.13      0.00 
   -7    5   18     -3.00      0.00 
   -6    5   18     -3.60      0.00 
   -5    5   18     -0.71      0.00 
   -4    5   18      3.77      0.00 
   -3    5   18      6.78      0.00 
   -2    5   18      6.64      0.00 
   -1    5   18      4.31      0.00 
    0    5   18      2.37      0.00 
    1    5   18      2.79      0.00 
    2    5   18      5.19      0.00 
    3    5   18      7.26      0.00 
    4    5   18      6.94      0.00 
    5    5   18      4.02      0.00 
    6    5   18     -0.12      0.00 
    7    5   18     -3.71      0.00 
    8    5   18     -5.73      0.00 
    9    5   18     -6.30      0.00 
   10    5   18     -6.21      0.00 
   11    5   18     -5.87      0.00 
   12    5   18     -5.11      0.00 
   13    5   18     -4.09      0.00 
   14    5   18     -3.21      0.00 
   15    5   18     -2.08      0.00 
   16    5   18      0.11      0.00 
   17    5   18      2.59      0.00 
   18    5   18      3.28      0.00 
  -18    6   18      0.17      0.00 
  -17    6   18      1.12      0.00 
  -16    6   18      1.19      0.00 
  -15    6   18      0.67      0.00 
  -14    6   18      0.45      0.00 
  -13    6   18      0.73      0.00 
  -12    6   18      0.84      0.00 
  -11    6   18      0.03      0.00 
  -10    6   18     -1.61      0.00 
   -9    6   18     -3.07      0.00 
   -8    6   18     -3.08      0.00 
   -7    6   18     -1.14      0.00 
   -6    6   18      1.89      0.00 
   -5    6   18      4.43      0.00 
   -4    6   18      5.61      0.00 
   -3    6   18      5.75      0.00 
   -2    6   18      5.45      0.00 
   -1    6   18      4.87      0.00 
    0    6   18      4.20      0.00 
    1    6   18      3.76      0.00 
    2    6   18      3.18      0.00 
    3    6   18      1.29      0.00 
    4    6   18     -2.36      0.00 
    5    6   18     -6.47      0.00 
    6    6   18     -8.97      0.00 
    7    6   18     -8.81      0.00 
    8    6   18     -6.71      0.00 
    9    6   18     -4.16      0.00 
   10    6   18     -2.24      0.00 
   11    6   18     -1.32      0.00 
   12    6   18     -1.21      0.00 
   13    6   18     -1.03      0.00 
   14    6   18      0.47      0.00 
   15    6   18      3.19      0.00 
   16    6   18      4.75      0.00 
  -18    7   18      0.37      0.00 
  -17    7   18     -0.39      0.00 
  -16    7   18     -0.70      0.00 
  -15    7   18      0.03      0.00 
  -14    7   18      1.15      0.00 
  -13    7   18      1.45      0.00 
  -12    7   18      0.72      0.00 
  -11    7   18      0.04      0.00 
  -10    7   18      0.54      0.00 
   -9    7   18      2.08      0.00 
   -8    7   18      3.35      0.00 
   -7    7   18      3.14      0.00 
   -6    7   18      1.71      0.00 
   -5    7   18      0.59      0.00 
   -4    7   18      0.70      0.00 
   -3    7   18      1.04      0.00 
   -2    7   18      0.12      0.00 
   -1    7   18     -1.68      0.00 
    0    7   18     -2.47      0.00 
    1    7   18     -1.68      0.00 
    2    7   18     -1.00      0.00 
    3    7   18     -1.97      0.00 
    4    7   18     -3.80      0.00 
    5    7   18     -4.29      0.00 
    6    7   18     -2.45      0.00 
    7    7   18      0.45      0.00 
    8    7   18      2.23      0.00 
    9    7   18      1.73      0.00 
   10    7   18     -0.20      0.00 
   11    7   18     -1.65      0.00 
   12    7   18     -1.10      0.00 
   13    7   18      1.42      0.00 
   14    7   18      3.99      0.00 
   15    7   18      3.93      0.00 
   16    7   18      0.57      0.00 
   17    7   18     -3.22      0.00 
  -17    8   18      1.19      0.00 
  -16    8   18      3.12      0.00 
  -15    8   18      4.30      0.00 
  -14    8   18      3.50      0.00 
  -13    8   18      1.32      0.00 
  -12    8   18     -0.34      0.00 
  -11    8   18     -0.48      0.00 
  -10    8   18     -0.08      0.00 
   -9    8   18     -0.81      0.00 
   -8    8   18     -2.84      0.00 
   -7    8   18     -4.15      0.00 
   -6    8   18     -2.65      0.00 
   -5    8   18      0.98      0.00 
   -4    8   18      3.52      0.00 
   -3    8   18      2.95      0.00 
   -2    8   18      1.09      0.00 
   -1    8   18      1.10      0.00 
    0    8   18      3.22      0.00 
    1    8   18      4.57      0.00 
    2    8   18      3.04      0.00 
    3    8   18     -0.28      0.00 
    4    8   18     -2.76      0.00 
    5    8   18     -3.07      0.00 
    6    8   18     -2.24      0.00 
    7    8   18     -2.42      0.00 
    8    8   18     -4.43      0.00 
    9    8   18     -6.49      0.00 
   10    8   18     -5.93      0.00 
   11    8   18     -2.31      0.00 
   12    8   18      1.86      0.00 
   13    8   18      3.67      0.00 
   14    8   18      2.35      0.00 
   15    8   18     -0.58      0.00 
   16    8   18     -2.64      0.00 
  -17    9   18      1.78      0.00 
  -16    9   18      1.78      0.00 
  -15    9   18      0.27      0.00 
  -14    9   18     -1.51      0.00 
  -13    9   18     -1.82      0.00 
  -12    9   18     -0.70      0.00 
  -11    9   18      0.06      0.00 
  -10    9   18     -0.77      0.00 
   -9    9   18     -2.06      0.00 
   -8    9   18     -1.40      0.00 
   -7    9   18      1.90      0.00 
   -6    9   18      5.20      0.00 
   -5    9   18      4.92      0.00 
   -4    9   18      0.85      0.00 
   -3    9   18     -3.16      0.00 
   -2    9   18     -3.65      0.00 
   -1    9   18     -1.69      0.00 
    0    9   18     -1.10      0.00 
    1    9   18     -3.52      0.00 
    2    9   18     -6.83      0.00 
    3    9   18     -8.05      0.00 
    4    9   18     -6.23      0.00 
    5    9   18     -2.92      0.00 
    6    9   18     -0.73      0.00 
    7    9   18     -0.87      0.00 
    8    9   18     -1.49      0.00 
    9    9   18      0.26      0.00 
   10    9   18      4.11      0.00 
   11    9   18      6.52      0.00 
   12    9   18      5.32      0.00 
   13    9   18      2.37      0.00 
   14    9   18      0.52      0.00 
   15    9   18      0.23      0.00 
   16    9   18      0.35      0.00 
  -16   10   18      0.15      0.00 
  -15   10   18     -0.10      0.00 
  -14   10   18      0.54      0.00 
  -13   10   18      1.34      0.00 
  -12   10   18      0.60      0.00 
  -11   10   18     -1.81      0.00 
  -10   10   18     -3.73      0.00 
   -9   10   18     -3.12      0.00 
   -8   10   18     -0.77      0.00 
   -7   10   18      0.24      0.00 
   -6   10   18     -2.01      0.00 
   -5   10   18     -5.52      0.00 
   -4   10   18     -6.18      0.00 
   -3   10   18     -2.56      0.00 
   -2   10   18      2.08      0.00 
   -1   10   18      3.56      0.00 
    0   10   18      1.46      0.00 
    1   10   18     -1.01      0.00 
    2   10   18     -0.97      0.00 
    3   10   18      1.53      0.00 
    4   10   18      4.24      0.00 
    5   10   18      4.82      0.00 
    6   10   18      2.90      0.00 
    7   10   18      0.86      0.00 
    8   10   18      1.34      0.00 
    9   10   18      3.58      0.00 
   10   10   18      3.99      0.00 
   11   10   18      1.42      0.00 
   12   10   18     -0.94      0.00 
   13   10   18     -0.28      0.00 
   14   10   18      1.84      0.00 
   15   10   18      2.45      0.00 
  -15   11   18     -0.60      0.00 
  -14   11   18     -0.96      0.00 
  -13   11   18     -2.31      0.00 
  -12   11   18     -4.16      0.00 
  -11   11   18     -4.45      0.00 
  -10   11   18     -2.04      0.00 
   -9   11   18      1.36      0.00 
   -8   11   18      2.76      0.00 
   -7   11   18      1.52      0.00 
   -6   11   18      0.44      0.00 
   -5   11   18      2.41      0.00 
   -4   11   18      6.57      0.00 
   -3   11   18      8.82      0.00 
   -2   11   18      6.54      0.00 
   -1   11   18      1.69      0.00 
    0   11   18     -1.53      0.00 
    1   11   18     -1.18      0.00 
    2   11   18      0.93      0.00 
    3   11   18      1.72      0.00 
    4   11   18     -0.18      0.00 
    5   11   18     -3.32      0.00 
    6   11   18     -4.81      0.00 
    7   11   18     -3.15      0.00 
    8   11   18     -0.12      0.00 
    9   11   18      1.12      0.00 
   10   11   18      0.06      0.00 
   11   11   18     -0.55      0.00 
   12   11   18      1.10      0.00 
   13   11   18      3.09      0.00 
   14   11   18      2.87      0.00 
  -14   12   18      0.20      0.00 
  -13   12   18     -0.30      0.00 
  -12   12   18     -0.02      0.00 
  -11   12   18      1.63      0.00 
  -10   12   18      3.18      0.00 
   -9   12   18      2.56      0.00 
   -8   12   18      0.12      0.00 
   -7   12   18     -1.15      0.00 
   -6   12   18      0.63      0.00 
   -5   12   18      3.25      0.00 
   -4   12   18      2.74      0.00 
   -3   12   18     -1.57      0.00 
   -2   12   18     -5.88      0.00 
   -1   12   18     -6.19      0.00 
    0   12   18     -2.67      0.00 
    1   12   18      0.87      0.00 
    2   12   18      1.16      0.00 
    3   12   18     -1.45      0.00 
    4   12   18     -3.72      0.00 
    5   12   18     -2.89      0.00 
    6   12   18      0.62      0.00 
    7   12   18      3.93      0.00 
    8   12   18      4.72      0.00 
    9   12   18      3.36      0.00 
   10   12   18      1.98      0.00 
   11   12   18      1.71      0.00 
   12   12   18      1.74      0.00 
   13   12   18      1.04      0.00 
  -13   13   18     -0.91      0.00 
  -12   13   18     -0.56      0.00 
  -11   13   18     -0.23      0.00 
  -10   13   18     -1.02      0.00 
   -9   13   18     -2.28      0.00 
   -8   13   18     -1.64      0.00 
   -7   13   18      1.71      0.00 
   -6   13   18      4.91      0.00 
   -5   13   18      4.39      0.00 
   -4   13   18      0.62      0.00 
   -3   13   18     -2.12      0.00 
   -2   13   18     -0.93      0.00 
   -1   13   18      2.40      0.00 
    0   13   18      3.80      0.00 
    1   13   18      1.56      0.00 
    2   13   18     -2.16      0.00 
    3   13   18     -3.75      0.00 
    4   13   18     -1.85      0.00 
    5   13   18      1.47      0.00 
    6   13   18      3.15      0.00 
    7   13   18      2.33      0.00 
    8   13   18      0.63      0.00 
    9   13   18     -0.16      0.00 
   10   13   18      0.15      0.00 
   11   13   18      0.80      0.00 
   12   13   18      1.12      0.00 
  -12   14   18      0.90      0.00 
  -11   14   18      1.01      0.00 
  -10   14   18      1.27      0.00 
   -9   14   18      2.82      0.00 
   -8   14   18      5.46      0.00 
   -7   14   18      6.78      0.00 
   -6   14   18      4.71      0.00 
   -5   14   18      0.57      0.00 
   -4   14   18     -1.99      0.00 
   -3   14   18     -1.29      0.00 
   -2   14   18      0.56      0.00 
   -1   14   18      0.63      0.00 
    0   14   18     -1.40      0.00 
    1   14   18     -3.29      0.00 
    2   14   18     -3.00      0.00 
    3   14   18     -0.64      0.00 
    4   14   18      1.61      0.00 
    5   14   18      1.73      0.00 
    6   14   18     -0.12      0.00 
    7   14   18     -1.89      0.00 
    8   14   18     -2.06      0.00 
    9   14   18     -1.07      0.00 
   10   14   18     -0.20      0.00 
   11   14   18     -0.05      0.00 
  -10   15   18     -0.67      0.00 
   -9   15   18     -1.10      0.00 
   -8   15   18     -1.97      0.00 
   -7   15   18     -3.23      0.00 
   -6   15   18     -3.75      0.00 
   -5   15   18     -2.47      0.00 
   -4   15   18      0.03      0.00 
   -3   15   18      1.73      0.00 
   -2   15   18      1.32      0.00 
   -1   15   18     -0.53      0.00 
    0   15   18     -2.03      0.00 
    1   15   18     -1.98      0.00 
    2   15   18     -0.45      0.00 
    3   15   18      1.36      0.00 
    4   15   18      1.85      0.00 
    5   15   18      0.54      0.00 
    6   15   18     -1.20      0.00 
    7   15   18     -1.64      0.00 
    8   15   18     -0.77      0.00 
    9   15   18      0.06      0.00 
   -8   16   18     -0.51      0.00 
   -7   16   18      0.97      0.00 
   -6   16   18      2.05      0.00 
   -5   16   18      1.78      0.00 
   -4   16   18      0.32      0.00 
   -3   16   18     -1.34      0.00 
   -2   16   18     -2.36      0.00 
   -1   16   18     -2.54      0.00 
    0   16   18     -1.80      0.00 
    1   16   18     -0.15      0.00 
    2   16   18      1.74      0.00 
    3   16   18      2.38      0.00 
    4   16   18      0.92      0.00 
    5   16   18     -1.30      0.00 
    6   16   18     -2.09      0.00 
    7   16   18     -1.06      0.00 
   -4   17   18     -1.87      0.00 
   -3   17   18     -0.23      0.00 
   -2   17   18      0.90      0.00 
   -1   17   18      1.25      0.00 
    0   17   18      1.66      0.00 
    1   17   18      2.30      0.00 
    2   17   18      2.11      0.00 
    3   17   18      0.55      0.00 
    4   17   18     -1.15      0.00 
  -19    1   19     -1.24      0.00 
  -18    1   19     -2.64      0.00 
  -17    1   19     -3.33      0.00 
  -16    1   19     -2.94      0.00 
  -15    1   19     -1.77      0.00 
  -14    1   19     -0.32      0.00 
  -13    1   19      0.94      0.00 
  -12    1   19      1.66      0.00 
  -11    1   19      2.11      0.00 
  -10    1   19      3.39      0.00 
   -9    1   19      6.15      0.00 
   -8    1   19      9.34      0.00 
   -7    1   19     10.73      0.00 
   -6    1   19      8.93      0.00 
   -5    1   19      4.59      0.00 
   -4    1   19     -0.34      0.00 
   -3    1   19     -4.21      0.00 
   -2    1   19     -6.89      0.00 
   -1    1   19     -9.21      0.00 
    0    1   19    -11.49      0.00 
    1    1   19    -12.61      0.00 
    2    1   19    -11.06      0.00 
    3    1   19     -6.90      0.00 
    4    1   19     -2.34      0.00 
    5    1   19      0.12      0.00 
    6    1   19      0.28      0.00 
    7    1   19      0.12      0.00 
    8    1   19      1.10      0.00 
    9    1   19      2.53      0.00 
   10    1   19      3.14      0.00 
   11    1   19      2.87      0.00 
   12    1   19      2.44      0.00 
   13    1   19      2.04      0.00 
   14    1   19      1.44      0.00 
   15    1   19      0.64      0.00 
   16    1   19     -0.14      0.00 
   17    1   19     -0.69      0.00 
   18    1   19     -0.78      0.00 
  -19    2   19     -0.24      0.00 
  -18    2   19      0.49      0.00 
  -17    2   19      2.31      0.00 
  -16    2   19      4.45      0.00 
  -15    2   19      5.97      0.00 
  -14    2   19      5.97      0.00 
  -13    2   19      4.19      0.00 
  -12    2   19      1.86      0.00 
  -11    2   19      1.06      0.00 
  -10    2   19      2.14      0.00 
   -9    2   19      2.61      0.00 
   -8    2   19     -0.25      0.00 
   -7    2   19     -6.32      0.00 
   -6    2   19    -12.59      0.00 
   -5    2   19    -15.89      0.00 
   -4    2   19    -15.36      0.00 
   -3    2   19    -12.88      0.00 
   -2    2   19    -10.93      0.00 
   -1    2   19     -9.76      0.00 
    0    2   19     -7.13      0.00 
    1    2   19     -1.44      0.00 
    2    2   19      5.58      0.00 
    3    2   19     10.02      0.00 
    4    2   19      9.79      0.00 
    5    2   19      6.81      0.00 
    6    2   19      4.93      0.00 
    7    2   19      5.61      0.00 
    8    2   19      6.86      0.00 
    9    2   19      6.33      0.00 
   10    2   19      4.13      0.00 
   11    2   19      1.86      0.00 
   12    2   19      0.40      0.00 
   13    2   19     -0.28      0.00 
   14    2   19     -0.40      0.00 
   15    2   19     -0.32      0.00 
   16    2   19     -0.41      0.00 
   17    2   19     -0.50      0.00 
   18    2   19     -0.25      0.00 
  -19    3   19      1.00      0.00 
  -18    3   19      1.12      0.00 
  -17    3   19      0.87      0.00 
  -16    3   19     -0.36      0.00 
  -15    3   19     -3.02      0.00 
  -14    3   19     -6.49      0.00 
  -13    3   19     -8.43      0.00 
  -12    3   19     -6.79      0.00 
  -11    3   19     -2.96      0.00 
  -10    3   19     -1.02      0.00 
   -9    3   19     -3.00      0.00 
   -8    3   19     -6.45      0.00 
   -7    3   19     -7.36      0.00 
   -6    3   19     -4.26      0.00 
   -5    3   19      0.80      0.00 
   -4    3   19      4.20      0.00 
   -3    3   19      4.01      0.00 
   -2    3   19      2.22      0.00 
   -1    3   19      2.85      0.00 
    0    3   19      6.98      0.00 
    1    3   19     10.96      0.00 
    2    3   19     10.62      0.00 
    3    3   19      6.23      0.00 
    4    3   19      2.07      0.00 
    5    3   19      1.65      0.00 
    6    3   19      4.22      0.00 
    7    3   19      6.05      0.00 
    8    3   19      4.62      0.00 
    9    3   19      0.79      0.00 
   10    3   19     -2.78      0.00 
   11    3   19     -4.35      0.00 
   12    3   19     -3.96      0.00 
   13    3   19     -2.82      0.00 
   14    3   19     -2.30      0.00 
   15    3   19     -2.80      0.00 
   16    3   19     -3.22      0.00 
   17    3   19     -2.54      0.00 
   18    3   19     -1.37      0.00 
  -19    4   19     -2.36      0.00 
  -18    4   19     -2.79      0.00 
  -17    4   19     -3.18      0.00 
  -16    4   19     -3.76      0.00 
  -15    4   19     -3.86      0.00 
  -14    4   19     -1.86      0.00 
  -13    4   19      2.60      0.00 
  -12    4   19      6.46      0.00 
  -11    4   19      5.93      0.00 
  -10    4   19      1.48      0.00 
   -9    4   19     -2.19      0.00 
   -8    4   19     -1.73      0.00 
   -7    4   19      1.40      0.00 
   -6    4   19      3.07      0.00 
   -5    4   19      0.67      0.00 
   -4    4   19     -4.48      0.00 
   -3    4   19     -7.62      0.00 
   -2    4   19     -4.78      0.00 
   -1    4   19      2.34      0.00 
    0    4   19      7.30      0.00 
    1    4   19      6.13      0.00 
    2    4   19      1.68      0.00 
    3    4   19     -0.35      0.00 
    4    4   19      1.93      0.00 
    5    4   19      5.24      0.00 
    6    4   19      5.38      0.00 
    7    4   19      1.53      0.00 
    8    4   19     -3.50      0.00 
    9    4   19     -6.35      0.00 
   10    4   19     -5.84      0.00 
   11    4   19     -3.41      0.00 
   12    4   19     -1.47      0.00 
   13    4   19     -1.39      0.00 
   14    4   19     -2.24      0.00 
   15    4   19     -1.86      0.00 
   16    4   19      0.33      0.00 
   17    4   19      2.35      0.00 
   18    4   19      2.37      0.00 
  -18    5   19     -0.63      0.00 
  -17    5   19     -1.27      0.00 
  -16    5   19     -1.51      0.00 
  -15    5   19     -0.46      0.00 
  -14    5   19      1.38      0.00 
  -13    5   19      1.40      0.00 
  -12    5   19     -2.15      0.00 
  -11    5   19     -6.75      0.00 
  -10    5   19     -7.79      0.00 
   -9    5   19     -4.15      0.00 
   -8    5   19      0.28      0.00 
   -7    5   19      1.04      0.00 
   -6    5   19     -2.23      0.00 
   -5    5   19     -5.50      0.00 
   -4    5   19     -3.77      0.00 
   -3    5   19      3.92      0.00 
   -2    5   19     12.24      0.00 
   -1    5   19     14.17      0.00 
    0    5   19      8.59      0.00 
    1    5   19      1.74      0.00 
    2    5   19     -0.02      0.00 
    3    5   19      3.05      0.00 
    4    5   19      5.57      0.00 
    5    5   19      3.68      0.00 
    6    5   19     -1.28      0.00 
    7    5   19     -5.03      0.00 
    8    5   19     -4.98      0.00 
    9    5   19     -2.31      0.00 
   10    5   19     -0.11      0.00 
   11    5   19     -0.34      0.00 
   12    5   19     -2.32      0.00 
   13    5   19     -3.56      0.00 
   14    5   19     -2.14      0.00 
   15    5   19      1.02      0.00 
   16    5   19      2.88      0.00 
   17    5   19      1.93      0.00 
  -18    6   19     -2.59      0.00 
  -17    6   19     -2.53      0.00 
  -16    6   19     -1.29      0.00 
  -15    6   19      0.32      0.00 
  -14    6   19      0.49      0.00 
  -13    6   19     -1.25      0.00 
  -12    6   19     -2.43      0.00 
  -11    6   19     -0.15      0.00 
  -10    6   19      4.70      0.00 
   -9    6   19      7.68      0.00 
   -8    6   19      5.63      0.00 
   -7    6   19      0.33      0.00 
   -6    6   19     -2.93      0.00 
   -5    6   19     -0.35      0.00 
   -4    6   19      6.17      0.00 
   -3    6   19     10.10      0.00 
   -2    6   19      6.86      0.00 
   -1    6   19     -0.77      0.00 
    0    6   19     -5.35      0.00 
    1    6   19     -2.97      0.00 
    2    6   19      2.82      0.00 
    3    6   19      5.49      0.00 
    4    6   19      2.46      0.00 
    5    6   19     -2.92      0.00 
    6    6   19     -5.62      0.00 
    7    6   19     -4.23      0.00 
    8    6   19     -1.77      0.00 
    9    6   19     -1.59      0.00 
   10    6   19     -3.68      0.00 
   11    6   19     -5.37      0.00 
   12    6   19     -4.45      0.00 
   13    6   19     -1.12      0.00 
   14    6   19      2.27      0.00 
   15    6   19      3.22      0.00 
   16    6   19      1.46      0.00 
   17    6   19     -0.77      0.00 
  -18    7   19      1.02      0.00 
  -17    7   19      2.65      0.00 
  -16    7   19      4.00      0.00 
  -15    7   19      3.91      0.00 
  -14    7   19      2.40      0.00 
  -13    7   19      1.43      0.00 
  -12    7   19      2.57      0.00 
  -11    7   19      4.36      0.00 
  -10    7   19      3.50      0.00 
   -9    7   19     -1.03      0.00 
   -8    7   19     -5.99      0.00 
   -7    7   19     -6.62      0.00 
   -6    7   19     -1.61      0.00 
   -5    7   19      4.82      0.00 
   -4    7   19      6.54      0.00 
   -3    7   19      2.07      0.00 
   -2    7   19     -3.47      0.00 
   -1    7   19     -3.97      0.00 
    0    7   19      0.89      0.00 
    1    7   19      5.73      0.00 
    2    7   19      5.34      0.00 
    3    7   19     -0.35      0.00 
    4    7   19     -6.63      0.00 
    5    7   19     -8.82      0.00 
    6    7   19     -6.65      0.00 
    7    7   19     -3.94      0.00 
    8    7   19     -3.71      0.00 
    9    7   19     -4.88      0.00 
   10    7   19     -4.47      0.00 
   11    7   19     -1.73      0.00 
   12    7   19      1.46      0.00 
   13    7   19      3.01      0.00 
   14    7   19      2.40      0.00 
   15    7   19      0.50      0.00 
   16    7   19     -1.22      0.00 
   17    7   19     -1.71      0.00 
  -17    8   19      1.25      0.00 
  -16    8   19      0.56      0.00 
  -15    8   19     -0.41      0.00 
  -14    8   19     -0.48      0.00 
  -13    8   19      0.79      0.00 
  -12    8   19      1.72      0.00 
  -11    8   19      0.22      0.00 
  -10    8   19     -3.13      0.00 
   -9    8   19     -4.92      0.00 
   -8    8   19     -2.47      0.00 
   -7    8   19      2.86      0.00 
   -6    8   19      6.27      0.00 
   -5    8   19      4.15      0.00 
   -4    8   19     -1.81      0.00 
   -3    8   19     -5.97      0.00 
   -2    8   19     -4.80      0.00 
   -1    8   19     -0.56      0.00 
    0    8   19      1.61      0.00 
    1    8   19     -0.76      0.00 
    2    8   19     -5.55      0.00 
    3    8   19     -8.35      0.00 
    4    8   19     -6.45      0.00 
    5    8   19     -1.32      0.00 
    6    8   19      2.79      0.00 
    7    8   19      3.33      0.00 
    8    8   19      1.87      0.00 
    9    8   19      1.41      0.00 
   10    8   19      2.56      0.00 
   11    8   19      3.66      0.00 
   12    8   19      3.58      0.00 
   13    8   19      2.72      0.00 
   14    8   19      1.68      0.00 
   15    8   19      0.62      0.00 
   16    8   19     -0.30      0.00 
  -16    9   19      0.91      0.00 
  -15    9   19      1.92      0.00 
  -14    9   19      2.87      0.00 
  -13    9   19      2.49      0.00 
  -12    9   19      0.00      0.00 
  -11    9   19     -3.06      0.00 
  -10    9   19     -3.89      0.00 
   -9    9   19     -1.69      0.00 
   -8    9   19      1.07      0.00 
   -7    9   19      1.15      0.00 
   -6    9   19     -1.98      0.00 
   -5    9   19     -5.20      0.00 
   -4    9   19     -4.79      0.00 
   -3    9   19     -0.47      0.00 
   -2    9   19      4.19      0.00 
   -1    9   19      5.53      0.00 
    0    9   19      3.30      0.00 
    1    9   19      0.33      0.00 
    2    9   19     -0.39      0.00 
    3    9   19      1.71      0.00 
    4    9   19      4.36      0.00 
    5    9   19      4.62      0.00 
    6    9   19      1.81      0.00 
    7    9   19     -1.77      0.00 
    8    9   19     -3.56      0.00 
    9    9   19     -3.16      0.00 
   10    9   19     -1.88      0.00 
   11    9   19     -0.80      0.00 
   12    9   19     -0.16      0.00 
   13    9   19      0.12      0.00 
   14    9   19      0.14      0.00 
   15    9   19      0.05      0.00 
  -16   10   19      0.77      0.00 
  -15   10   19      0.35      0.00 
  -14   10   19     -0.97      0.00 
  -13   10   19     -3.08      0.00 
  -12   10   19     -4.60      0.00 
  -11   10   19     -3.88      0.00 
  -10   10   19     -1.25      0.00 
   -9   10   19      0.95      0.00 
   -8   10   19      0.99      0.00 
   -7   10   19     -0.29      0.00 
   -6   10   19     -0.47      0.00 
   -5   10   19      1.69      0.00 
   -4   10   19      4.74      0.00 
   -3   10   19      5.92      0.00 
   -2   10   19      3.97      0.00 
   -1   10   19      0.30      0.00 
    0   10   19     -2.45      0.00 
    1   10   19     -2.84      0.00 
    2   10   19     -1.61      0.00 
    3   10   19     -0.82      0.00 
    4   10   19     -1.77      0.00 
    5   10   19     -3.66      0.00 
    6   10   19     -4.67      0.00 
    7   10   19     -3.92      0.00 
    8   10   19     -1.87      0.00 
    9   10   19      0.58      0.00 
   10   10   19      2.46      0.00 
   11   10   19      2.88      0.00 
   12   10   19      2.05      0.00 
   13   10   19      1.36      0.00 
   14   10   19      1.49      0.00 
   15   10   19      1.56      0.00 
  -15   11   19     -0.45      0.00 
  -14   11   19     -0.90      0.00 
  -13   11   19     -0.92      0.00 
  -12   11   19      0.01      0.00 
  -11   11   19      1.22      0.00 
  -10   11   19      1.31      0.00 
   -9   11   19     -0.12      0.00 
   -8   11   19     -1.73      0.00 
   -7   11   19     -1.91      0.00 
   -6   11   19     -0.59      0.00 
   -5   11   19      0.69      0.00 
   -4   11   19      0.43      0.00 
   -3   11   19     -1.26      0.00 
   -2   11   19     -2.81      0.00 
   -1   11   19     -2.76      0.00 
    0   11   19     -1.11      0.00 
    1   11   19      0.80      0.00 
    2   11   19      1.51      0.00 
    3   11   19      0.87      0.00 
    4   11   19      0.14      0.00 
    5   11   19      0.44      0.00 
    6   11   19      1.53      0.00 
    7   11   19      2.74      0.00 
    8   11   19      3.88      0.00 
    9   11   19      4.37      0.00 
   10   11   19      3.22      0.00 
   11   11   19      0.98      0.00 
   12   11   19      0.05      0.00 
   13   11   19      1.31      0.00 
   14   11   19      2.47      0.00 
  -14   12   19     -0.58      0.00 
  -13   12   19     -0.49      0.00 
  -12   12   19     -0.45      0.00 
  -11   12   19     -0.91      0.00 
  -10   12   19     -1.40      0.00 
   -9   12   19     -0.93      0.00 
   -8   12   19      0.81      0.00 
   -7   12   19      2.96      0.00 
   -6   12   19      4.36      0.00 
   -5   12   19      4.41      0.00 
   -4   12   19      3.53      0.00 
   -3   12   19      2.67      0.00 
   -2   12   19      2.48      0.00 
   -1   12   19      2.77      0.00 
    0   12   19      2.81      0.00 
    1   12   19      1.98      0.00 
    2   12   19      0.35      0.00 
    3   12   19     -1.35      0.00 
    4   12   19     -2.39      0.00 
    5   12   19     -2.64      0.00 
    6   12   19     -2.22      0.00 
    7   12   19     -1.15      0.00 
    8   12   19      0.03      0.00 
    9   12   19      0.26      0.00 
   10   12   19     -0.24      0.00 
   11   12   19      0.27      0.00 
   12   12   19      2.10      0.00 
   13   12   19      2.92      0.00 
  -12   13   19      0.58      0.00 
  -11   13   19      0.71      0.00 
  -10   13   19      1.83      0.00 
   -9   13   19      3.19      0.00 
   -8   13   19      3.71      0.00 
   -7   13   19      3.37      0.00 
   -6   13   19      2.73      0.00 
   -5   13   19      1.81      0.00 
   -4   13   19      0.36      0.00 
   -3   13   19     -1.27      0.00 
   -2   13   19     -2.26      0.00 
   -1   13   19     -2.25      0.00 
    0   13   19     -1.78      0.00 
    1   13   19     -1.80      0.00 
    2   13   19     -2.61      0.00 
    3   13   19     -3.36      0.00 
    4   13   19     -2.92      0.00 
    5   13   19     -1.19      0.00 
    6   13   19      0.83      0.00 
    7   13   19      2.04      0.00 
    8   13   19      2.02      0.00 
    9   13   19      1.30      0.00 
   10   13   19      0.86      0.00 
   11   13   19      0.88      0.00 
   12   13   19      0.35      0.00 
  -11   14   19     -0.42      0.00 
  -10   14   19     -0.59      0.00 
   -9   14   19     -1.76      0.00 
   -8   14   19     -2.39      0.00 
   -6   14   19      1.00      0.00 
   -5   14   19      1.62      0.00 
   -4   14   19      0.55      0.00 
   -3   14   19     -0.41      0.00 
   -2   14   19     -0.15      0.00 
   -1   14   19      0.46      0.00 
    0   14   19     -0.05      0.00 
    1   14   19     -1.72      0.00 
    2   14   19     -2.76      0.00 
    3   14   19     -1.53      0.00 
    4   14   19      1.18      0.00 
    5   14   19      2.84      0.00 
    6   14   19      2.17      0.00 
    7   14   19      0.35      0.00 
    8   14   19     -0.84      0.00 
    9   14   19     -0.90      0.00 
   10   14   19     -0.44      0.00 
   -9   15   19     -0.28      0.00 
   -8   15   19      2.41      0.00 
   -7   15   19      4.91      0.00 
   -6   15   19      4.27      0.00 
   -5   15   19      0.97      0.00 
   -4   15   19     -1.67      0.00 
   -3   15   19     -1.88      0.00 
   -2   15   19     -1.07      0.00 
   -1   15   19     -1.19      0.00 
    0   15   19     -2.09      0.00 
    1   15   19     -1.95      0.00 
    2   15   19      0.12      0.00 
    3   15   19      2.48      0.00 
    4   15   19      2.53      0.00 
    5   15   19     -0.04      0.00 
    6   15   19     -2.77      0.00 
    7   15   19     -3.42      0.00 
    8   15   19     -2.28      0.00 
   -7   16   19     -0.92      0.00 
   -6   16   19     -3.25      0.00 
   -5   16   19     -3.42      0.00 
   -4   16   19     -1.01      0.00 
   -3   16   19      1.43      0.00 
   -2   16   19      1.79      0.00 
   -1   16   19      0.80      0.00 
    0   16   19      0.44      0.00 
    1   16   19      1.41      0.00 
    2   16   19      2.43      0.00 
    3   16   19      1.89      0.00 
    4   16   19     -0.07      0.00 
    5   16   19     -1.66      0.00 
    6   16   19     -1.60      0.00 
   -2   17   19     -0.35      0.00 
   -1   17   19     -0.63      0.00 
    0   17   19     -0.11      0.00 
    1   17   19      0.34      0.00 
    2   17   19      0.11      0.00 
  -19    0   20     -1.07      0.00 
  -18    0   20     -2.84      0.00 
  -17    0   20     -3.47      0.00 
  -16    0   20     -2.42      0.00 
  -15    0   20      0.26      0.00 
  -14    0   20      3.68      0.00 
  -13    0   20      5.11      0.00 
  -12    0   20      2.64      0.00 
  -11    0   20     -0.71      0.00 
  -10    0   20      0.62      0.00 
   -9    0   20      7.40      0.00 
   -8    0   20     13.87      0.00 
   -7    0   20     14.04      0.00 
   -6    0   20      7.30      0.00 
   -5    0   20     -1.92      0.00 
   -4    0   20     -7.89      0.00 
   -3    0   20     -8.22      0.00 
   -2    0   20     -6.55      0.00 
   -1    0   20     -8.79      0.00 
    0    0   20    -15.52      0.00 
    1    0   20    -20.51      0.00 
    2    0   20    -18.09      0.00 
    3    0   20     -9.57      0.00 
    4    0   20     -1.15      0.00 
    5    0   20      2.39      0.00 
    6    0   20      1.21      0.00 
    7    0   20     -0.81      0.00 
    8    0   20      0.14      0.00 
    9    0   20      4.07      0.00 
   10    0   20      7.40      0.00 
   11    0   20      7.26      0.00 
   12    0   20      4.72      0.00 
   13    0   20      2.84      0.00 
   14    0   20      2.51      0.00 
   15    0   20      2.04      0.00 
   16    0   20      0.34      0.00 
   17    0   20     -1.38      0.00 
   18    0   20     -1.69      0.00 
  -19    1   20     -0.03      0.00 
  -18    1   20      0.71      0.00 
  -17    1   20      2.44      0.00 
  -16    1   20      4.35      0.00 
  -15    1   20      5.38      0.00 
  -14    1   20      3.89      0.00 
  -13    1   20     -0.37      0.00 
  -12    1   20     -3.87      0.00 
  -11    1   20     -2.59      0.00 
  -10    1   20      1.93      0.00 
   -9    1   20      3.54      0.00 
   -8    1   20     -1.05      0.00 
   -7    1   20     -8.70      0.00 
   -6    1   20    -13.69      0.00 
   -5    1   20    -12.77      0.00 
   -4    1   20     -7.39      0.00 
   -3    1   20     -2.81      0.00 
   -2    1   20     -3.43      0.00 
   -1    1   20     -7.41      0.00 
    0    1   20     -8.08      0.00 
    1    1   20     -2.09      0.00 
    2    1   20      6.48      0.00 
    3    1   20     11.13      0.00 
    4    1   20      9.76      0.00 
    5    1   20      5.41      0.00 
    6    1   20      2.51      0.00 
    7    1   20      3.24      0.00 
    8    1   20      6.01      0.00 
    9    1   20      7.08      0.00 
   10    1   20      4.59      0.00 
   11    1   20      0.69      0.00 
   12    1   20     -1.26      0.00 
   13    1   20     -0.85      0.00 
   14    1   20     -0.40      0.00 
   15    1   20     -1.18      0.00 
   16    1   20     -2.01      0.00 
   17    1   20     -1.58      0.00 
   18    1   20     -0.47      0.00 
  -19    2   20      0.20      0.00 
  -18    2   20      0.44      0.00 
  -17    2   20      0.30      0.00 
  -16    2   20     -0.80      0.00 
  -15    2   20     -3.35      0.00 
  -14    2   20     -6.45      0.00 
  -13    2   20     -6.99      0.00 
  -12    2   20     -3.06      0.00 
  -11    2   20      2.19      0.00 
  -10    2   20      3.55      0.00 
   -9    2   20      0.51      0.00 
   -8    2   20     -2.24      0.00 
   -7    2   20     -0.92      0.00 
   -6    2   20      3.60      0.00 
   -5    2   20      7.39      0.00 
   -4    2   20      6.61      0.00 
   -3    2   20      0.73      0.00 
   -2    2   20     -5.83      0.00 
   -1    2   20     -7.06      0.00 
    0    2   20     -2.16      0.00 
    1    2   20      3.31      0.00 
    2    2   20      4.14      0.00 
    3    2   20      0.91      0.00 
    4    2   20     -2.15      0.00 
    5    2   20     -2.13      0.00 
    6    2   20      0.68      0.00 
    7    2   20      3.78      0.00 
    8    2   20      4.32      0.00 
    9    2   20      1.62      0.00 
   10    2   20     -1.76      0.00 
   11    2   20     -2.71      0.00 
   12    2   20     -1.29      0.00 
   13    2   20     -0.19      0.00 
   14    2   20     -0.76      0.00 
   15    2   20     -1.65      0.00 
   16    2   20     -1.42      0.00 
   17    2   20     -0.59      0.00 
   18    2   20     -0.20      0.00 
  -19    3   20     -0.36      0.00 
  -18    3   20     -0.31      0.00 
  -17    3   20     -0.63      0.00 
  -16    3   20     -1.13      0.00 
  -15    3   20     -1.05      0.00 
  -14    3   20      0.89      0.00 
  -13    3   20      4.44      0.00 
  -12    3   20      6.46      0.00 
  -11    3   20      4.25      0.00 
  -10    3   20     -0.35      0.00 
   -9    3   20     -2.90      0.00 
   -8    3   20     -2.08      0.00 
   -7    3   20     -0.85      0.00 
   -6    3   20     -2.52      0.00 
   -5    3   20     -7.56      0.00 
   -4    3   20    -13.25      0.00 
   -3    3   20    -15.13      0.00 
   -2    3   20    -10.45      0.00 
   -1    3   20     -1.65      0.00 
    0    3   20      5.07      0.00 
    1    3   20      6.15      0.00 
    2    3   20      3.96      0.00 
    3    3   20      2.92      0.00 
    4    3   20      4.51      0.00 
    5    3   20      6.94      0.00 
    6    3   20      7.84      0.00 
    7    3   20      6.05      0.00 
    8    3   20      2.32      0.00 
    9    3   20     -0.97      0.00 
   10    3   20     -1.77      0.00 
   11    3   20     -0.71      0.00 
   12    3   20     -0.11      0.00 
   13    3   20     -0.75      0.00 
   14    3   20     -1.22      0.00 
   15    3   20     -0.55      0.00 
   16    3   20      0.32      0.00 
   17    3   20      0.44      0.00 
   18    3   20      0.18      0.00 
  -18    4   20     -1.02      0.00 
  -17    4   20     -2.30      0.00 
  -16    4   20     -2.89      0.00 
  -15    4   20     -2.79      0.00 
  -14    4   20     -2.68      0.00 
  -13    4   20     -3.73      0.00 
  -12    4   20     -6.08      0.00 
  -11    4   20     -7.75      0.00 
  -10    4   20     -6.63      0.00 
   -9    4   20     -3.50      0.00 
   -8    4   20     -1.31      0.00 
   -7    4   20     -1.75      0.00 
   -6    4   20     -3.46      0.00 
   -5    4   20     -3.43      0.00 
   -4    4   20      0.44      0.00 
   -3    4   20      7.45      0.00 
   -2    4   20     13.85      0.00 
   -1    4   20     15.51      0.00 
    0    4   20     11.87      0.00 
    1    4   20      6.60      0.00 
    2    4   20      3.79      0.00 
    3    4   20      4.08      0.00 
    4    4   20      5.08      0.00 
    5    4   20      4.53      0.00 
    6    4   20      2.21      0.00 
    7    4   20     -0.59      0.00 
    8    4   20     -2.49      0.00 
    9    4   20     -2.99      0.00 
   10    4   20     -2.84      0.00 
   11    4   20     -3.01      0.00 
   12    4   20     -3.42      0.00 
   13    4   20     -3.25      0.00 
   14    4   20     -2.48      0.00 
   15    4   20     -1.95      0.00 
   16    4   20     -1.79      0.00 
   17    4   20     -1.27      0.00 
  -18    5   20     -4.13      0.00 
  -17    5   20     -3.51      0.00 
  -16    5   20     -2.34      0.00 
  -15    5   20     -1.37      0.00 
  -14    5   20     -0.53      0.00 
  -13    5   20      0.63      0.00 
  -12    5   20      2.52      0.00 
  -11    5   20      4.92      0.00 
  -10    5   20      6.79      0.00 
   -9    5   20      6.84      0.00 
   -8    5   20      4.90      0.00 
   -7    5   20      2.45      0.00 
   -6    5   20      1.44      0.00 
   -5    5   20      2.48      0.00 
   -4    5   20      4.22      0.00 
   -3    5   20      4.51      0.00 
   -2    5   20      2.41      0.00 
   -1    5   20     -1.04      0.00 
    0    5   20     -3.52      0.00 
    1    5   20     -3.28      0.00 
    2    5   20     -0.75      0.00 
    3    5   20      1.65      0.00 
    4    5   20      1.86      0.00 
    5    5   20     -0.02      0.00 
    6    5   20     -2.35      0.00 
    7    5   20     -3.89      0.00 
    8    5   20     -4.52      0.00 
    9    5   20     -4.45      0.00 
   10    5   20     -3.80      0.00 
   11    5   20     -2.73      0.00 
   12    5   20     -1.74      0.00 
   13    5   20     -1.26      0.00 
   14    5   20     -0.98      0.00 
   15    5   20     -0.03      0.00 
   16    5   20      1.72      0.00 
   17    5   20      2.86      0.00 
  -18    6   20      1.03      0.00 
  -17    6   20      2.00      0.00 
  -16    6   20      2.20      0.00 
  -15    6   20      2.38      0.00 
  -14    6   20      3.05      0.00 
  -13    6   20      3.54      0.00 
  -12    6   20      2.95      0.00 
  -11    6   20      1.21      0.00 
  -10    6   20     -1.05      0.00 
   -9    6   20     -3.08      0.00 
   -8    6   20     -4.16      0.00 
   -7    6   20     -3.84      0.00 
   -6    6   20     -2.43      0.00 
   -5    6   20     -0.92      0.00 
   -4    6   20      0.11      0.00 
   -3    6   20      0.81      0.00 
   -2    6   20      1.34      0.00 
   -1    6   20      1.64      0.00 
    0    6   20      2.08      0.00 
    1    6   20      2.99      0.00 
    2    6   20      3.49      0.00 
    3    6   20      2.23      0.00 
    4    6   20     -0.71      0.00 
    5    6   20     -3.60      0.00 
    6    6   20     -4.93      0.00 
    7    6   20     -4.48      0.00 
    8    6   20     -2.84      0.00 
    9    6   20     -0.91      0.00 
   10    6   20      0.16      0.00 
   11    6   20     -0.29      0.00 
   12    6   20     -1.49      0.00 
   13    6   20     -1.65      0.00 
   14    6   20      0.18      0.00 
   15    6   20      2.67      0.00 
   16    6   20      3.24      0.00 
   17    6   20      1.20      0.00 
  -17    7   20     -0.47      0.00 
  -16    7   20     -0.56      0.00 
  -15    7   20      0.38      0.00 
  -14    7   20      1.10      0.00 
  -13    7   20      0.50      0.00 
  -12    7   20     -0.84      0.00 
  -11    7   20     -1.48      0.00 
  -10    7   20     -0.71      0.00 
   -9    7   20      0.86      0.00 
   -8    7   20      2.10      0.00 
   -7    7   20      2.33      0.00 
   -6    7   20      1.94      0.00 
   -5    7   20      1.93      0.00 
   -4    7   20      2.55      0.00 
   -3    7   20      2.56      0.00 
   -2    7   20      0.98      0.00 
   -1    7   20     -1.13      0.00 
    0    7   20     -1.88      0.00 
    1    7   20     -1.22      0.00 
    2    7   20     -0.90      0.00 
    3    7   20     -1.79      0.00 
    4    7   20     -2.80      0.00 
    5    7   20     -2.57      0.00 
    6    7   20     -0.96      0.00 
    7    7   20      1.01      0.00 
    8    7   20      1.87      0.00 
    9    7   20      0.71      0.00 
   10    7   20     -1.59      0.00 
   11    7   20     -2.75      0.00 
   12    7   20     -1.22      0.00 
   13    7   20      2.08      0.00 
   14    7   20      4.34      0.00 
   15    7   20      3.40      0.00 
   16    7   20      0.07      0.00 
  -17    8   20      1.15      0.00 
  -16    8   20      3.16      0.00 
  -15    8   20      4.24      0.00 
  -14    8   20      3.40      0.00 
  -13    8   20      1.67      0.00 
  -12    8   20      0.82      0.00 
  -11    8   20      1.18      0.00 
  -10    8   20      1.38      0.00 
   -9    8   20      0.01      0.00 
   -8    8   20     -2.55      0.00 
   -7    8   20     -4.16      0.00 
   -6    8   20     -3.20      0.00 
   -5    8   20     -0.80      0.00 
   -4    8   20      0.14      0.00 
   -3    8   20     -1.32      0.00 
   -2    8   20     -2.74      0.00 
   -1    8   20     -1.56      0.00 
    0    8   20      1.44      0.00 
    1    8   20      3.32      0.00 
    2    8   20      2.66      0.00 
    3    8   20      0.61      0.00 
    4    8   20     -1.01      0.00 
    5    8   20     -1.41      0.00 
    6    8   20     -1.11      0.00 
    7    8   20     -1.56      0.00 
    8    8   20     -3.44      0.00 
    9    8   20     -5.24      0.00 
   10    8   20     -4.60      0.00 
   11    8   20     -1.43      0.00 
   12    8   20      1.63      0.00 
   13    8   20      2.10      0.00 
   14    8   20      0.01      0.00 
   15    8   20     -2.55      0.00 
   16    8   20     -3.43      0.00 
  -16    9   20      1.20      0.00 
  -15    9   20     -0.42      0.00 
  -14    9   20     -2.14      0.00 
  -13    9   20     -2.51      0.00 
  -12    9   20     -1.87      0.00 
  -11    9   20     -1.89      0.00 
  -10    9   20     -3.34      0.00 
   -9    9   20     -4.76      0.00 
   -8    9   20     -3.77      0.00 
   -7    9   20     -0.12      0.00 
   -6    9   20      3.24      0.00 
   -5    9   20      3.10      0.00 
   -4    9   20      0.06      0.00 
   -3    9   20     -1.96      0.00 
   -2    9   20     -0.68      0.00 
   -1    9   20      1.82      0.00 
    0    9   20      2.11      0.00 
    1    9   20     -0.35      0.00 
    2    9   20     -3.29      0.00 
    3    9   20     -4.47      0.00 
    4    9   20     -3.24      0.00 
    5    9   20     -0.69      0.00 
    6    9   20      1.04      0.00 
    7    9   20      0.70      0.00 
    8    9   20     -0.25      0.00 
    9    9   20      0.63      0.00 
   10    9   20      3.11      0.00 
   11    9   20      4.39      0.00 
   12    9   20      3.13      0.00 
   13    9   20      1.07      0.00 
   14    9   20      0.18      0.00 
   15    9   20      0.42      0.00 
  -15   10   20     -0.74      0.00 
  -14   10   20      0.08      0.00 
  -13   10   20      1.14      0.00 
  -12   10   20      0.85      0.00 
  -11   10   20     -0.87      0.00 
  -10   10   20     -2.08      0.00 
   -9   10   20     -0.99      0.00 
   -8   10   20      1.48      0.00 
   -7   10   20      2.31      0.00 
   -6   10   20     -0.02      0.00 
   -5   10   20     -3.08      0.00 
   -4   10   20     -3.02      0.00 
   -3   10   20      0.61      0.00 
   -2   10   20      4.18      0.00 
   -1   10   20      4.39      0.00 
    0   10   20      1.92      0.00 
    1   10   20     -0.15      0.00 
    2   10   20      0.06      0.00 
    3   10   20      2.07      0.00 
    4   10   20      3.97      0.00 
    5   10   20      3.83      0.00 
    6   10   20      1.35      0.00 
    7   10   20     -1.34      0.00 
    8   10   20     -1.77      0.00 
    9   10   20     -0.32      0.00 
   10   10   20      0.38      0.00 
   11   10   20     -0.56      0.00 
   12   10   20     -1.18      0.00 
   13   10   20     -0.10      0.00 
   14   10   20      1.34      0.00 
  -14   11   20      0.11      0.00 
  -13   11   20     -0.88      0.00 
  -12   11   20     -2.59      0.00 
  -11   11   20     -3.09      0.00 
  -10   11   20     -1.22      0.00 
   -9   11   20      1.44      0.00 
   -8   11   20      2.15      0.00 
   -7   11   20      0.63      0.00 
   -6   11   20     -0.23      0.00 
   -5   11   20      1.99      0.00 
   -4   11   20      5.84      0.00 
   -3   11   20      7.41      0.00 
   -2   11   20      4.96      0.00 
   -1   11   20      0.87      0.00 
    0   11   20     -1.39      0.00 
    1   11   20     -0.88      0.00 
    2   11   20      0.50      0.00 
    3   11   20      0.32      0.00 
    4   11   20     -2.08      0.00 
    5   11   20     -5.11      0.00 
    6   11   20     -6.30      0.00 
    7   11   20     -4.54      0.00 
    8   11   20     -1.32      0.00 
    9   11   20      0.82      0.00 
   10   11   20      1.05      0.00 
   11   11   20      0.84      0.00 
   12   11   20      1.38      0.00 
   13   11   20      1.95      0.00 
  -13   12   20     -0.45      0.00 
  -12   12   20     -0.32      0.00 
  -11   12   20      1.32      0.00 
  -10   12   20      2.85      0.00 
   -9   12   20      2.17      0.00 
   -8   12   20     -0.06      0.00 
   -7   12   20     -0.85      0.00 
   -6   12   20      1.11      0.00 
   -5   12   20      3.24      0.00 
   -4   12   20      2.18      0.00 
   -3   12   20     -1.90      0.00 
   -2   12   20     -5.37      0.00 
   -1   12   20     -5.24      0.00 
    0   12   20     -2.16      0.00 
    1   12   20      0.58      0.00 
    2   12   20      0.51      0.00 
    3   12   20     -1.65      0.00 
    4   12   20     -2.94      0.00 
    5   12   20     -1.45      0.00 
    6   12   20      1.87      0.00 
    7   12   20      4.51      0.00 
    8   12   20      4.95      0.00 
    9   12   20      3.57      0.00 
   10   12   20      1.76      0.00 
   11   12   20      0.71      0.00 
   12   12   20      0.59      0.00 
  -12   13   20      0.25      0.00 
  -11   13   20      0.83      0.00 
  -10   13   20     -0.26      0.00 
   -9   13   20     -1.87      0.00 
   -8   13   20     -1.31      0.00 
   -7   13   20      1.80      0.00 
   -6   13   20      4.30      0.00 
   -5   13   20      3.37      0.00 
   -4   13   20      0.15      0.00 
   -3   13   20     -1.65      0.00 
   -2   13   20     -0.22      0.00 
   -1   13   20      2.58      0.00 
    0   13   20      3.49      0.00 
    1   13   20      1.27      0.00 
    2   13   20     -2.11      0.00 
    3   13   20     -3.42      0.00 
    4   13   20     -1.75      0.00 
    5   13   20      0.57      0.00 
    6   13   20      1.01      0.00 
    7   13   20     -0.30      0.00 
    8   13   20     -1.52      0.00 
    9   13   20     -1.60      0.00 
   10   13   20     -0.68      0.00 
   11   13   20      0.67      0.00 
  -10   14   20     -0.91      0.00 
   -9   14   20      0.41      0.00 
   -8   14   20      3.33      0.00 
   -7   14   20      4.99      0.00 
   -6   14   20      3.47      0.00 
   -5   14   20      0.31      0.00 
   -4   14   20     -1.44      0.00 
   -3   14   20     -0.76      0.00 
   -2   14   20      0.53      0.00 
   -1   14   20      0.31      0.00 
    0   14   20     -1.65      0.00 
    1   14   20     -3.51      0.00 
    2   14   20     -3.24      0.00 
    3   14   20     -0.95      0.00 
    4   14   20      0.91      0.00 
    5   14   20      0.39      0.00 
    6   14   20     -1.55      0.00 
    7   14   20     -2.46      0.00 
    8   14   20     -1.58      0.00 
    9   14   20     -0.21      0.00 
   -8   15   20     -0.27      0.00 
   -7   15   20     -0.93      0.00 
   -6   15   20     -1.52      0.00 
   -5   15   20     -0.91      0.00 
   -4   15   20      0.64      0.00 
   -3   15   20      1.73      0.00 
   -2   15   20      1.33      0.00 
   -1   15   20     -0.24      0.00 
    0   15   20     -1.58      0.00 
    1   15   20     -1.28      0.00 
    2   15   20      0.63      0.00 
    3   15   20      2.36      0.00 
    4   15   20      2.08      0.00 
    5   15   20      0.20      0.00 
    6   15   20     -1.12      0.00 
    7   15   20     -0.77      0.00 
    8   15   20      0.15      0.00 
   -6   16   20      1.15      0.00 
   -5   16   20      0.67      0.00 
   -4   16   20     -0.01      0.00 
   -3   16   20     -0.62      0.00 
   -2   16   20     -1.24      0.00 
   -1   16   20     -1.63      0.00 
    0   16   20     -1.18      0.00 
    1   16   20      0.30      0.00 
    2   16   20      1.62      0.00 
    3   16   20      1.22      0.00 
    4   16   20     -0.79      0.00 
    5   16   20     -2.44      0.00 
  -18    1   21     -0.43      0.00 
  -17    1   21     -0.86      0.00 
  -16    1   21     -1.04      0.00 
  -15    1   21     -0.78      0.00 
  -14    1   21     -0.15      0.00 
  -13    1   21      0.24      0.00 
  -12    1   21     -0.03      0.00 
  -11    1   21     -0.31      0.00 
  -10    1   21      0.72      0.00 
   -9    1   21      3.35      0.00 
   -8    1   21      6.14      0.00 
   -7    1   21      6.95      0.00 
   -6    1   21      4.71      0.00 
   -5    1   21      0.38      0.00 
   -4    1   21     -3.88      0.00 
   -3    1   21     -6.63      0.00 
   -2    1   21     -8.17      0.00 
   -1    1   21     -9.49      0.00 
    0    1   21    -10.56      0.00 
    1    1   21    -10.26      0.00 
    2    1   21     -7.89      0.00 
    3    1   21     -4.18      0.00 
    4    1   21     -0.75      0.00 
    5    1   21      1.16      0.00 
    6    1   21      1.68      0.00 
    7    1   21      1.90      0.00 
    8    1   21      2.64      0.00 
    9    1   21      3.64      0.00 
   10    1   21      4.15      0.00 
   11    1   21      3.85      0.00 
   12    1   21      2.95      0.00 
   13    1   21      1.83      0.00 
   14    1   21      0.79      0.00 
   15    1   21     -0.04      0.00 
   16    1   21     -0.64      0.00 
   17    1   21     -0.87      0.00 
  -18    2   21      0.60      0.00 
  -17    2   21      1.09      0.00 
  -16    2   21      2.01      0.00 
  -15    2   21      2.80      0.00 
  -14    2   21      2.14      0.00 
  -13    2   21     -0.22      0.00 
  -12    2   21     -2.31      0.00 
  -11    2   21     -2.04      0.00 
  -10    2   21     -0.06      0.00 
   -9    2   21      0.59      0.00 
   -8    2   21     -2.23      0.00 
   -7    2   21     -7.64      0.00 
   -6    2   21    -12.49      0.00 
   -5    2   21    -13.82      0.00 
   -4    2   21    -11.30      0.00 
   -3    2   21     -7.44      0.00 
   -2    2   21     -4.78      0.00 
   -1    2   21     -3.09      0.00 
    0    2   21     -0.20      0.00 
    1    2   21      4.50      0.00 
    2    2   21      9.05      0.00 
    3    2   21     11.05      0.00 
    4    2   21     10.00      0.00 
    5    2   21      7.40      0.00 
    6    2   21      5.36      0.00 
    7    2   21      4.81      0.00 
    8    2   21      4.89      0.00 
    9    2   21      4.13      0.00 
   10    2   21      2.08      0.00 
   11    2   21     -0.36      0.00 
   12    2   21     -1.97      0.00 
   13    2   21     -2.30      0.00 
   14    2   21     -1.84      0.00 
   15    2   21     -1.41      0.00 
   16    2   21     -1.19      0.00 
   17    2   21     -0.78      0.00 
  -18    3   21     -0.74      0.00 
  -17    3   21     -1.18      0.00 
  -16    3   21     -2.06      0.00 
  -15    3   21     -4.50      0.00 
  -14    3   21     -7.69      0.00 
  -13    3   21     -8.52      0.00 
  -12    3   21     -5.36      0.00 
  -11    3   21     -0.92      0.00 
  -10    3   21      0.68      0.00 
   -9    3   21     -1.24      0.00 
   -8    3   21     -3.57      0.00 
   -7    3   21     -2.98      0.00 
   -6    3   21      1.22      0.00 
   -5    3   21      6.67      0.00 
   -4    3   21      9.66      0.00 
   -3    3   21      8.55      0.00 
   -2    3   21      5.86      0.00 
   -1    3   21      5.34      0.00 
    0    3   21      7.26      0.00 
    1    3   21      8.31      0.00 
    2    3   21      6.12      0.00 
    3    3   21      1.89      0.00 
    4    3   21     -1.41      0.00 
    5    3   21     -2.04      0.00 
    6    3   21     -0.56      0.00 
    7    3   21      0.87      0.00 
    8    3   21      0.38      0.00 
    9    3   21     -2.00      0.00 
   10    3   21     -4.35      0.00 
   11    3   21     -4.80      0.00 
   12    3   21     -3.31      0.00 
   13    3   21     -1.57      0.00 
   14    3   21     -1.14      0.00 
   15    3   21     -1.71      0.00 
   16    3   21     -1.81      0.00 
   17    3   21     -1.03      0.00 
  -18    4   21     -2.35      0.00 
  -17    4   21     -2.34      0.00 
  -16    4   21     -2.91      0.00 
  -15    4   21     -3.15      0.00 
  -14    4   21     -0.66      0.00 
  -13    4   21      4.46      0.00 
  -12    4   21      8.20      0.00 
  -11    4   21      7.22      0.00 
  -10    4   21      3.23      0.00 
   -9    4   21      0.71      0.00 
   -8    4   21      1.66      0.00 
   -7    4   21      4.11      0.00 
   -6    4   21      4.55      0.00 
   -5    4   21      1.01      0.00 
   -4    4   21     -4.89      0.00 
   -3    4   21     -8.50      0.00 
   -2    4   21     -6.53      0.00 
   -1    4   21     -1.24      0.00 
    0    4   21      1.88      0.00 
    1    4   21      0.54      0.00 
    2    4   21     -2.22      0.00 
    3    4   21     -2.40      0.00 
    4    4   21      0.51      0.00 
    5    4   21      3.76      0.00 
    6    4   21      4.48      0.00 
    7    4   21      2.18      0.00 
    8    4   21     -1.22      0.00 
    9    4   21     -3.11      0.00 
   10    4   21     -2.37      0.00 
   11    4   21     -0.27      0.00 
   12    4   21      0.87      0.00 
   13    4   21      0.06      0.00 
   14    4   21     -1.16      0.00 
   15    4   21     -0.73      0.00 
   16    4   21      1.10      0.00 
   17    4   21      2.13      0.00 
  -18    5   21     -0.37      0.00 
  -17    5   21     -1.01      0.00 
  -16    5   21     -1.39      0.00 
  -15    5   21     -0.10      0.00 
  -14    5   21      2.14      0.00 
  -13    5   21      2.20      0.00 
  -12    5   21     -1.30      0.00 
  -11    5   21     -5.33      0.00 
  -10    5   21     -5.92      0.00 
   -9    5   21     -2.89      0.00 
   -8    5   21      0.26      0.00 
   -7    5   21      0.24      0.00 
   -6    5   21     -2.84      0.00 
   -5    5   21     -5.33      0.00 
   -4    5   21     -3.02      0.00 
   -3    5   21      4.24      0.00 
   -2    5   21     11.17      0.00 
   -1    5   21     12.04      0.00 
    0    5   21      7.02      0.00 
    1    5   21      1.78      0.00 
    2    5   21      0.99      0.00 
    3    5   21      3.65      0.00 
    4    5   21      5.25      0.00 
    5    5   21      3.16      0.00 
    6    5   21     -1.00      0.00 
    7    5   21     -3.79      0.00 
    8    5   21     -3.63      0.00 
    9    5   21     -1.79      0.00 
   10    5   21     -0.55      0.00 
   11    5   21     -1.18      0.00 
   12    5   21     -2.96      0.00 
   13    5   21     -3.69      0.00 
   14    5   21     -1.97      0.00 
   15    5   21      0.84      0.00 
   16    5   21      1.95      0.00 
  -17    6   21     -1.58      0.00 
  -16    6   21     -0.35      0.00 
  -15    6   21      1.40      0.00 
  -14    6   21      1.73      0.00 
  -13    6   21      0.33      0.00 
  -12    6   21     -0.36      0.00 
  -11    6   21      1.95      0.00 
  -10    6   21      6.15      0.00 
   -9    6   21      8.48      0.00 
   -8    6   21      6.48      0.00 
   -7    6   21      1.79      0.00 
   -6    6   21     -0.97      0.00 
   -5    6   21      1.24      0.00 
   -4    6   21      6.07      0.00 
   -3    6   21      7.61      0.00 
   -2    6   21      2.85      0.00 
   -1    6   21     -4.65      0.00 
    0    6   21     -8.41      0.00 
    1    6   21     -5.81      0.00 
    2    6   21     -0.40      0.00 
    3    6   21      2.15      0.00 
    4    6   21     -0.02      0.00 
    5    6   21     -3.63      0.00 
    6    6   21     -4.67      0.00 
    7    6   21     -2.86      0.00 
    8    6   21     -1.00      0.00 
    9    6   21     -0.99      0.00 
   10    6   21     -2.21      0.00 
   11    6   21     -3.01      0.00 
   12    6   21     -2.13      0.00 
   13    6   21      0.41      0.00 
   14    6   21      2.87      0.00 
   15    6   21      3.08      0.00 
   16    6   21      1.11      0.00 
  -17    7   21      2.54      0.00 
  -16    7   21      4.02      0.00 
  -15    7   21      4.28      0.00 
  -14    7   21      3.30      0.00 
  -13    7   21      2.63      0.00 
  -12    7   21      3.32      0.00 
  -11    7   21      4.11      0.00 
  -10    7   21      2.44      0.00 
   -9    7   21     -2.43      0.00 
   -8    7   21     -7.62      0.00 
   -7    7   21     -8.72      0.00 
   -6    7   21     -4.65      0.00 
   -5    7   21      0.25      0.00 
   -4    7   21      0.64      0.00 
   -3    7   21     -3.60      0.00 
   -2    7   21     -7.25      0.00 
   -1    7   21     -5.69      0.00 
    0    7   21      0.33      0.00 
    1    7   21      5.78      0.00 
    2    7   21      6.21      0.00 
    3    7   21      1.83      0.00 
    4    7   21     -2.84      0.00 
    5    7   21     -3.80      0.00 
    6    7   21     -1.66      0.00 
    7    7   21      0.10      0.00 
    8    7   21     -0.17      0.00 
    9    7   21     -1.26      0.00 
   10    7   21     -1.69      0.00 
   11    7   21     -1.12      0.00 
   12    7   21      0.10      0.00 
   13    7   21      1.02      0.00 
   14    7   21      0.58      0.00 
   15    7   21     -1.01      0.00 
   16    7   21     -2.06      0.00 
  -16    8   21     -0.14      0.00 
  -15    8   21     -1.15      0.00 
  -14    8   21     -1.63      0.00 
  -13    8   21     -1.32      0.00 
  -12    8   21     -1.33      0.00 
  -11    8   21     -2.94      0.00 
  -10    8   21     -5.60      0.00 
   -9    8   21     -6.56      0.00 
   -8    8   21     -3.47      0.00 
   -7    8   21      2.30      0.00 
   -6    8   21      5.92      0.00 
   -5    8   21      4.22      0.00 
   -4    8   21     -0.38      0.00 
   -3    8   21     -2.62      0.00 
   -2    8   21     -0.39      0.00 
   -1    8   21      3.55      0.00 
    0    8   21      5.00      0.00 
    1    8   21      2.30      0.00 
    2    8   21     -2.42      0.00 
    3    8   21     -4.98      0.00 
    4    8   21     -3.15      0.00 
    5    8   21      0.96      0.00 
    6    8   21      3.41      0.00 
    7    8   21      2.83      0.00 
    8    8   21      0.91      0.00 
    9    8   21     -0.46      0.00 
   10    8   21     -0.56      0.00 
   11    8   21      0.49      0.00 
   12    8   21      1.84      0.00 
   13    8   21      2.20      0.00 
   15    8   21      0.40      0.00 
  -15    9   21      1.23      0.00 
  -14    9   21      1.97      0.00 
  -13    9   21      1.86      0.00 
  -12    9   21      0.45      0.00 
  -11    9   21     -1.19      0.00 
  -10    9   21     -1.20      0.00 
   -9    9   21      0.95      0.00 
   -8    9   21      3.19      0.00 
   -7    9   21      2.61      0.00 
   -6    9   21     -1.00      0.00 
   -5    9   21     -4.22      0.00 
   -4    9   21     -3.70      0.00 
   -3    9   21      0.07      0.00 
   -2    9   21      3.61      0.00 
   -1    9   21      4.25      0.00 
    0    9   21      2.14      0.00 
    1    9   21     -0.34      0.00 
    2    9   21     -0.59      0.00 
    3    9   21      1.66      0.00 
    4    9   21      3.77      0.00 
    5    9   21      3.07      0.00 
    6    9   21     -0.15      0.00 
    7    9   21     -3.48      0.00 
    8    9   21     -5.17      0.00 
    9    9   21     -4.81      0.00 
   10    9   21     -2.85      0.00 
   11    9   21     -0.79      0.00 
   12    9   21     -0.28      0.00 
   13    9   21     -1.15      0.00 
   14    9   21     -1.71      0.00 
  -15   10   21      0.14      0.00 
  -14   10   21     -0.90      0.00 
  -13   10   21     -2.50      0.00 
  -12   10   21     -3.64      0.00 
  -11   10   21     -3.20      0.00 
  -10   10   21     -1.49      0.00 
   -9   10   21     -0.27      0.00 
   -8   10   21     -0.78      0.00 
   -7   10   21     -2.10      0.00 
   -6   10   21     -1.89      0.00 
   -5   10   21      0.70      0.00 
   -4   10   21      3.88      0.00 
   -3   10   21      5.23      0.00 
   -2   10   21      3.97      0.00 
   -1   10   21      1.28      0.00 
    0   10   21     -0.90      0.00 
    1   10   21     -1.19      0.00 
    2   10   21     -0.11      0.00 
    3   10   21      0.20      0.00 
    4   10   21     -1.37      0.00 
    5   10   21     -3.35      0.00 
    6   10   21     -3.88      0.00 
    7   10   21     -2.85      0.00 
    8   10   21     -0.92      0.00 
    9   10   21      1.41      0.00 
   10   10   21      2.91      0.00 
   11   10   21      2.29      0.00 
   12   10   21      0.54      0.00 
   13   10   21      0.09      0.00 
   14   10   21      1.10      0.00 
  -14   11   21     -0.66      0.00 
  -13   11   21     -0.28      0.00 
  -12   11   21      0.87      0.00 
  -11   11   21      2.02      0.00 
  -10   11   21      2.03      0.00 
   -9   11   21      0.75      0.00 
   -8   11   21     -0.50      0.00 
   -7   11   21     -0.33      0.00 
   -6   11   21      1.04      0.00 
   -5   11   21      2.03      0.00 
   -4   11   21      1.56      0.00 
   -3   11   21      0.04      0.00 
   -2   11   21     -1.42      0.00 
   -1   11   21     -1.81      0.00 
    0   11   21     -0.72      0.00 
    1   11   21      1.02      0.00 
    2   11   21      1.70      0.00 
    3   11   21      0.84      0.00 
    4   11   21      0.05      0.00 
    5   11   21      0.47      0.00 
    6   11   21      1.26      0.00 
    7   11   21      1.51      0.00 
    8   11   21      1.62      0.00 
    9   11   21      1.51      0.00 
   10   11   21      0.34      0.00 
   11   11   21     -1.00      0.00 
   12   11   21     -0.39      0.00 
   13   11   21      1.75      0.00 
  -12   12   21      0.50      0.00 
  -11   12   21     -0.26      0.00 
  -10   12   21     -1.13      0.00 
   -9   12   21     -1.09      0.00 
   -8   12   21      0.17      0.00 
   -7   12   21      1.83      0.00 
   -6   12   21      2.76      0.00 
   -5   12   21      2.66      0.00 
   -4   12   21      2.06      0.00 
   -3   12   21      1.54      0.00 
   -2   12   21      1.41      0.00 
   -1   12   21      1.81      0.00 
    0   12   21      2.23      0.00 
    1   12   21      1.54      0.00 
    2   12   21     -0.60      0.00 
    3   12   21     -2.81      0.00 
    4   12   21     -3.83      0.00 
    5   12   21     -4.09      0.00 
    6   12   21     -4.22      0.00 
    7   12   21     -3.68      0.00 
    8   12   21     -2.21      0.00 
    9   12   21     -0.89      0.00 
   10   12   21     -0.13      0.00 
   11   12   21      1.02      0.00 
   12   12   21      2.36      0.00 
  -11   13   21     -0.65      0.00 
  -10   13   21      0.11      0.00 
   -9   13   21      1.32      0.00 
   -8   13   21      2.14      0.00 
   -7   13   21      2.37      0.00 
   -6   13   21      2.18      0.00 
   -5   13   21      1.49      0.00 
   -4   13   21      0.19      0.00 
   -3   13   21     -1.25      0.00 
   -2   13   21     -1.97      0.00 
   -1   13   21     -1.71      0.00 
    0   13   21     -1.43      0.00 
    1   13   21     -2.04      0.00 
    2   13   21     -2.92      0.00 
    3   13   21     -2.77      0.00 
    4   13   21     -1.49      0.00 
    5   13   21     -0.08      0.00 
    6   13   21      1.08      0.00 
    7   13   21      2.15      0.00 
    8   13   21      2.72      0.00 
    9   13   21      2.29      0.00 
   10   13   21      1.34      0.00 
  -10   14   21     -0.45      0.00 
   -9   14   21     -0.95      0.00 
   -7   14   21      0.15      0.00 
   -6   14   21      1.18      0.00 
   -5   14   21      0.97      0.00 
   -4   14   21     -0.04      0.00 
   -3   14   21     -0.40      0.00 
   -2   14   21      0.23      0.00 
   -1   14   21      0.69      0.00 
    0   14   21     -0.09      0.00 
    1   14   21     -1.42      0.00 
    2   14   21     -1.52      0.00 
    3   14   21      0.02      0.00 
    4   14   21      1.57      0.00 
    5   14   21      1.65      0.00 
    6   14   21      0.62      0.00 
    7   14   21     -0.36      0.00 
    8   14   21     -0.90      0.00 
    9   14   21     -1.09      0.00 
   -7   15   21      3.10      0.00 
   -6   15   21      2.26      0.00 
   -5   15   21      0.21      0.00 
   -4   15   21     -0.85      0.00 
   -3   15   21     -0.43      0.00 
   -2   15   21     -0.03      0.00 
   -1   15   21     -0.71      0.00 
    0   15   21     -1.67      0.00 
    1   15   21     -1.32      0.00 
    2   15   21      0.39      0.00 
    3   15   21      1.57      0.00 
    4   15   21      0.64      0.00 
    5   15   21     -1.60      0.00 
    6   15   21     -3.02      0.00 
    7   15   21     -2.76      0.00 
   -4   16   21      1.02      0.00 
   -3   16   21      2.07      0.00 
   -2   16   21      1.47      0.00 
   -1   16   21      0.34      0.00 
    0   16   21      0.21      0.00 
    1   16   21      1.17      0.00 
    2   16   21      1.86      0.00 
    3   16   21      1.17      0.00 
  -18    0   22     -0.12      0.00 
  -17    0   22     -0.58      0.00 
  -16    0   22     -0.50      0.00 
  -15    0   22      1.46      0.00 
  -14    0   22      4.05      0.00 
  -13    0   22      3.34      0.00 
  -12    0   22     -1.49      0.00 
  -11    0   22     -5.51      0.00 
  -10    0   22     -3.75      0.00 
   -9    0   22      2.60      0.00 
   -8    0   22      7.75      0.00 
   -7    0   22      7.15      0.00 
   -6    0   22      0.78      0.00 
   -5    0   22     -6.99      0.00 
   -4    0   22    -10.65      0.00 
   -3    0   22     -8.96      0.00 
   -2    0   22     -6.45      0.00 
   -1    0   22     -7.58      0.00 
    0    0   22    -11.05      0.00 
    1    0   22    -12.28      0.00 
    2    0   22     -9.25      0.00 
    3    0   22     -3.55      0.00 
    4    0   22      2.00      0.00 
    5    0   22      4.82      0.00 
    6    0   22      4.00      0.00 
    7    0   22      2.03      0.00 
    8    0   22      2.62      0.00 
    9    0   22      5.72      0.00 
   10    0   22      7.57      0.00 
   11    0   22      6.11      0.00 
   12    0   22      3.48      0.00 
   13    0   22      2.16      0.00 
   14    0   22      1.67      0.00 
   15    0   22      0.39      0.00 
   16    0   22     -1.47      0.00 
   17    0   22     -2.32      0.00 
  -18    1   22      0.71      0.00 
  -17    1   22      1.20      0.00 
  -16    1   22      2.44      0.00 
  -15    1   22      3.12      0.00 
  -14    1   22      0.57      0.00 
  -13    1   22     -4.47      0.00 
  -12    1   22     -6.94      0.00 
  -11    1   22     -3.84      0.00 
  -10    1   22      1.28      0.00 
   -9    1   22      2.60      0.00 
   -8    1   22     -1.47      0.00 
   -7    1   22     -7.56      0.00 
   -6    1   22    -10.76      0.00 
   -5    1   22     -8.32      0.00 
   -4    1   22     -2.19      0.00 
   -3    1   22      2.10      0.00 
   -2    1   22      1.37      0.00 
   -1    1   22     -1.38      0.00 
    0    1   22     -1.20      0.00 
    1    1   22      2.65      0.00 
    2    1   22      7.01      0.00 
    3    1   22      8.99      0.00 
    4    1   22      7.70      0.00 
    5    1   22      4.15      0.00 
    6    1   22      1.14      0.00 
    7    1   22      1.23      0.00 
    8    1   22      3.33      0.00 
    9    1   22      3.68      0.00 
   10    1   22      1.08      0.00 
   11    1   22     -1.66      0.00 
   12    1   22     -2.14      0.00 
   13    1   22     -1.43      0.00 
   14    1   22     -1.56      0.00 
   15    1   22     -2.34      0.00 
   16    1   22     -2.25      0.00 
   17    1   22     -0.99      0.00 
  -18    2   22     -0.01      0.00 
  -17    2   22     -0.15      0.00 
  -16    2   22     -1.08      0.00 
  -15    2   22     -4.05      0.00 
  -14    2   22     -7.39      0.00 
  -13    2   22     -7.00      0.00 
  -12    2   22     -2.04      0.00 
  -11    2   22      2.84      0.00 
  -10    2   22      3.30      0.00 
   -9    2   22      0.45      0.00 
   -8    2   22     -1.33      0.00 
   -7    2   22      0.47      0.00 
   -6    2   22      4.85      0.00 
   -5    2   22      8.27      0.00 
   -4    2   22      7.12      0.00 
   -3    2   22      1.46      0.00 
   -2    2   22     -3.99      0.00 
   -1    2   22     -4.76      0.00 
    0    2   22     -1.57      0.00 
    1    2   22      1.33      0.00 
    2    2   22      1.41      0.00 
    3    2   22     -0.69      0.00 
    4    2   22     -2.94      0.00 
    5    2   22     -3.34      0.00 
    6    2   22     -1.21      0.00 
    7    2   22      1.55      0.00 
    8    2   22      1.99      0.00 
    9    2   22     -0.10      0.00 
   10    2   22     -1.83      0.00 
   11    2   22     -1.35      0.00 
   12    2   22     -0.13      0.00 
   13    2   22     -0.15      0.00 
   14    2   22     -1.04      0.00 
   15    2   22     -1.22      0.00 
   16    2   22     -0.44      0.00 
   17    2   22      0.33      0.00 
  -18    3   22     -0.69      0.00 
  -17    3   22     -1.20      0.00 
  -16    3   22     -2.28      0.00 
  -15    3   22     -2.75      0.00 
  -14    3   22     -0.71      0.00 
  -13    3   22      3.11      0.00 
  -12    3   22      4.97      0.00 
  -11    3   22      2.89      0.00 
  -10    3   22     -0.57      0.00 
   -9    3   22     -1.93      0.00 
   -8    3   22     -0.86      0.00 
   -7    3   22      0.18      0.00 
   -6    3   22     -1.18      0.00 
   -5    3   22     -5.35      0.00 
   -4    3   22     -9.93      0.00 
   -3    3   22    -10.88      0.00 
   -2    3   22     -6.46      0.00 
   -1    3   22      0.34      0.00 
    0    3   22      4.75      0.00 
    1    3   22      5.06      0.00 
    2    3   22      3.35      0.00 
    3    3   22      2.47      0.00 
    4    3   22      3.53      0.00 
    5    3   22      5.51      0.00 
    6    3   22      6.32      0.00 
    7    3   22      4.71      0.00 
    8    3   22      1.76      0.00 
    9    3   22     -0.21      0.00 
   10    3   22     -0.41      0.00 
   11    3   22     -0.19      0.00 
   12    3   22     -0.72      0.00 
   13    3   22     -1.40      0.00 
   14    3   22     -1.20      0.00 
   15    3   22     -0.33      0.00 
   16    3   22      0.26      0.00 
   17    3   22      0.25      0.00 
  -17    4   22     -2.65      0.00 
  -16    4   22     -3.14      0.00 
  -15    4   22     -2.70      0.00 
  -14    4   22     -1.90      0.00 
  -13    4   22     -2.14      0.00 
  -12    4   22     -3.57      0.00 
  -11    4   22     -4.42      0.00 
  -10    4   22     -3.15      0.00 
   -9    4   22     -0.51      0.00 
   -8    4   22      1.45      0.00 
   -7    4   22      1.54      0.00 
   -6    4   22      0.54      0.00 
   -5    4   22      0.71      0.00 
   -4    4   22      3.83      0.00 
   -3    4   22      9.06      0.00 
   -2    4   22     12.95      0.00 
   -1    4   22     12.55      0.00 
    0    4   22      8.24      0.00 
    1    4   22      3.29      0.00 
    2    4   22      0.73      0.00 
    3    4   22      0.89      0.00 
    4    4   22      1.65      0.00 
    5    4   22      1.02      0.00 
    6    4   22     -0.93      0.00 
    7    4   22     -2.72      0.00 
    8    4   22     -3.40      0.00 
    9    4   22     -3.34      0.00 
   10    4   22     -3.20      0.00 
   11    4   22     -3.02      0.00 
   12    4   22     -2.45      0.00 
   13    4   22     -1.58      0.00 
   14    4   22     -0.98      0.00 
   15    4   22     -0.86      0.00 
   16    4   22     -0.80      0.00 
  -17    5   22     -1.27      0.00 
  -16    5   22     -0.36      0.00 
  -15    5   22      0.68      0.00 
  -14    5   22      1.91      0.00 
  -13    5   22      3.32      0.00 
  -12    5   22      4.88      0.00 
  -11    5   22      6.56      0.00 
  -10    5   22      7.90      0.00 
   -9    5   22      8.01      0.00 
   -8    5   22      6.32      0.00 
   -7    5   22      3.59      0.00 
   -6    5   22      1.55      0.00 
   -5    5   22      1.11      0.00 
   -4    5   22      1.19      0.00 
   -3    5   22      0.00      0.00 
   -2    5   22     -2.96      0.00 
   -1    5   22     -6.41      0.00 
    0    5   22     -8.26      0.00 
    1    5   22     -7.13      0.00 
    2    5   22     -3.76      0.00 
    3    5   22     -0.65      0.00 
    4    5   22      0.37      0.00 
    5    5   22     -0.21      0.00 
    6    5   22     -0.81      0.00 
    7    5   22     -0.98      0.00 
    8    5   22     -1.00      0.00 
    9    5   22     -0.73      0.00 
   10    5   22      0.14      0.00 
   11    5   22      1.03      0.00 
   12    5   22      1.05      0.00 
   13    5   22      0.35      0.00 
   14    5   22      0.02      0.00 
   15    5   22      0.74      0.00 
   16    5   22      1.76      0.00 
  -17    6   22      1.63      0.00 
  -16    6   22      1.87      0.00 
  -15    6   22      2.50      0.00 
  -14    6   22      3.34      0.00 
  -13    6   22      3.38      0.00 
  -12    6   22      2.18      0.00 
  -11    6   22      0.26      0.00 
  -10    6   22     -1.87      0.00 
   -9    6   22     -4.07      0.00 
   -8    6   22     -5.88      0.00 
   -7    6   22     -6.41      0.00 
   -6    6   22     -5.46      0.00 
   -5    6   22     -3.91      0.00 
   -4    6   22     -2.56      0.00 
   -3    6   22     -1.38      0.00 
   -2    6   22     -0.21      0.00 
   -1    6   22      1.02      0.00 
    0    6   22      2.61      0.00 
    1    6   22      4.50      0.00 
    2    6   22      5.47      0.00 
    3    6   22      4.47      0.00 
    4    6   22      2.17      0.00 
    5    6   22      0.20      0.00 
    6    6   22     -0.70      0.00 
    7    6   22     -0.65      0.00 
    8    6   22      0.12      0.00 
    9    6   22      0.91      0.00 
   10    6   22      0.50      0.00 
   11    6   22     -1.33      0.00 
   12    6   22     -3.01      0.00 
   13    6   22     -2.79      0.00 
   14    6   22     -0.79      0.00 
   15    6   22      1.01      0.00 
   16    6   22      1.03      0.00 
  -16    7   22     -0.58      0.00 
  -15    7   22      0.12      0.00 
  -14    7   22      0.17      0.00 
  -13    7   22     -0.90      0.00 
  -12    7   22     -2.12      0.00 
  -11    7   22     -2.32      0.00 
  -10    7   22     -1.35      0.00 
   -9    7   22      0.17      0.00 
   -8    7   22      1.55      0.00 
   -7    7   22      2.42      0.00 
   -6    7   22      2.89      0.00 
   -5    7   22      3.37      0.00 
   -4    7   22      3.74      0.00 
   -3    7   22      3.13      0.00 
   -2    7   22      1.22      0.00 
   -1    7   22     -0.70      0.00 
    0    7   22     -1.28      0.00 
    1    7   22     -0.89      0.00 
    2    7   22     -0.85      0.00 
    3    7   22     -1.41      0.00 
    4    7   22     -1.78      0.00 
    5    7   22     -1.44      0.00 
    6    7   22     -0.47      0.00 
    7    7   22      0.60      0.00 
    8    7   22      0.71      0.00 
    9    7   22     -0.77      0.00 
   10    7   22     -2.78      0.00 
   11    7   22     -3.17      0.00 
   12    7   22     -1.21      0.00 
   13    7   22      1.50      0.00 
   14    7   22      2.67      0.00 
   15    7   22      1.56      0.00 
  -16    8   22      2.49      0.00 
  -15    8   22      3.14      0.00 
  -14    8   22      2.40      0.00 
  -13    8   22      1.32      0.00 
  -12    8   22      1.11      0.00 
  -11    8   22      1.64      0.00 
  -10    8   22      1.61      0.00 
   -9    8   22      0.00      0.00 
   -8    8   22     -2.53      0.00 
   -7    8   22     -4.08      0.00 
   -6    8   22     -3.62      0.00 
   -5    8   22     -2.42      0.00 
   -4    8   22     -2.57      0.00 
   -3    8   22     -4.01      0.00 
   -2    8   22     -4.35      0.00 
   -1    8   22     -2.13      0.00 
    0    8   22      1.21      0.00 
    1    8   22      3.33      0.00 
    2    8   22      3.45      0.00 
    3    8   22      2.36      0.00 
    4    8   22      1.15      0.00 
    5    8   22      0.59      0.00 
    6    8   22      0.60      0.00 
    7    8   22      0.07      0.00 
    8    8   22     -1.70      0.00 
    9    8   22     -3.44      0.00 
   10    8   22     -3.32      0.00 
   11    8   22     -1.50      0.00 
   12    8   22     -0.02      0.00 
   13    8   22     -0.26      0.00 
   14    8   22     -1.66      0.00 
   15    8   22     -2.78      0.00 
  -15    9   22     -1.25      0.00 
  -14    9   22     -2.62      0.00 
  -13    9   22     -2.96      0.00 
  -12    9   22     -2.70      0.00 
  -11    9   22     -3.12      0.00 
  -10    9   22     -4.58      0.00 
   -9    9   22     -5.56      0.00 
   -8    9   22     -4.04      0.00 
   -7    9   22     -0.25      0.00 
   -6    9   22      2.85      0.00 
   -5    9   22      2.86      0.00 
   -4    9   22      1.10      0.00 
   -3    9   22      0.90      0.00 
   -2    9   22      3.17      0.00 
   -1    9   22      5.36      0.00 
    0    9   22      5.05      0.00 
    1    9   22      2.55      0.00 
    2    9   22     -0.26      0.00 
    3    9   22     -1.81      0.00 
    4    9   22     -1.44      0.00 
    5    9   22      0.23      0.00 
    6    9   22      1.26      0.00 
    7    9   22      0.34      0.00 
    8    9   22     -1.24      0.00 
    9    9   22     -1.22      0.00 
   10    9   22      0.44      0.00 
   11    9   22      1.72      0.00 
   12    9   22      1.60      0.00 
   13    9   22      0.98      0.00 
   14    9   22      0.78      0.00 
  -14   10   22      0.32      0.00 
  -13   10   22      1.42      0.00 
  -12   10   22      1.44      0.00 
  -11   10   22      0.46      0.00 
  -10   10   22      0.09      0.00 
   -9   10   22      1.55      0.00 
   -8   10   22      3.72      0.00 
   -7   10   22      3.90      0.00 
   -6   10   22      1.27      0.00 
   -5   10   22     -1.50      0.00 
   -4   10   22     -1.20      0.00 
   -3   10   22      1.73      0.00 
   -2   10   22      3.82      0.00 
   -1   10   22      2.98      0.00 
    0   10   22      0.53      0.00 
    1   10   22     -1.08      0.00 
    2   10   22     -0.84      0.00 
    3   10   22      0.70      0.00 
    4   10   22      2.08      0.00 
    5   10   22      1.57      0.00 
    6   10   22     -1.24      0.00 
    7   10   22     -4.27      0.00 
    8   10   22     -4.89      0.00 
    9   10   22     -3.10      0.00 
   10   10   22     -1.29      0.00 
   11   10   22     -0.88      0.00 
   12   10   22     -0.93      0.00 
   13   10   22     -0.44      0.00 
  -13   11   22     -0.50      0.00 
  -12   11   22     -1.95      0.00 
  -11   11   22     -2.29      0.00 
  -10   11   22     -0.92      0.00 
   -9   11   22      0.60      0.00 
   -8   11   22      0.25      0.00 
   -7   11   22     -1.66      0.00 
   -6   11   22     -2.42      0.00 
   -5   11   22     -0.19      0.00 
   -4   11   22      3.31      0.00 
   -3   11   22      4.70      0.00 
   -2   11   22      2.93      0.00 
   -1   11   22      0.17      0.00 
    0   11   22     -1.07      0.00 
    1   11   22     -0.47      0.00 
    2   11   22      0.33      0.00 
    3   11   22     -0.29      0.00 
    4   11   22     -2.64      0.00 
    5   11   22     -5.37      0.00 
    6   11   22     -6.35      0.00 
    7   11   22     -4.43      0.00 
    8   11   22     -0.87      0.00 
    9   11   22      1.67      0.00 
   10   11   22      1.82      0.00 
   11   11   22      0.79      0.00 
   12   11   22      0.33      0.00 
  -12   12   22     -0.02      0.00 
  -11   12   22      1.52      0.00 
  -10   12   22      2.42      0.00 
   -9   12   22      1.40      0.00 
   -8   12   22     -0.42      0.00 
   -7   12   22     -0.63      0.00 
   -6   12   22      1.34      0.00 
   -5   12   22      3.12      0.00 
   -4   12   22      2.21      0.00 
   -3   12   22     -0.99      0.00 
   -2   12   22     -3.61      0.00 
   -1   12   22     -3.48      0.00 
    0   12   22     -1.18      0.00 
    1   12   22      0.77      0.00 
    2   12   22      0.60      0.00 
    3   12   22     -0.96      0.00 
    4   12   22     -1.65      0.00 
    5   12   22     -0.23      0.00 
    6   12   22      2.29      0.00 
    7   12   22      4.01      0.00 
    8   12   22      3.77      0.00 
    9   12   22      1.88      0.00 
   10   12   22     -0.16      0.00 
   11   12   22     -0.78      0.00 
  -10   13   22     -0.76      0.00 
   -9   13   22     -2.16      0.00 
   -8   13   22     -1.47      0.00 
   -7   13   22      1.00      0.00 
   -6   13   22      2.65      0.00 
   -5   13   22      1.77      0.00 
   -4   13   22     -0.49      0.00 
   -3   13   22     -1.52      0.00 
   -2   13   22     -0.23      0.00 
   -1   13   22      1.97      0.00 
    0   13   22      2.61      0.00 
    1   13   22      0.67      0.00 
    2   13   22     -2.16      0.00 
    3   13   22     -3.19      0.00 
    4   13   22     -1.99      0.00 
    5   13   22     -0.77      0.00 
    6   13   22     -1.25      0.00 
    7   13   22     -2.64      0.00 
    8   13   22     -3.21      0.00 
    9   13   22     -2.40      0.00 
   10   13   22     -0.73      0.00 
   -9   14   22     -0.55      0.00 
   -8   14   22      2.18      0.00 
   -7   14   22      3.68      0.00 
   -6   14   22      2.75      0.00 
   -5   14   22      0.68      0.00 
   -4   14   22     -0.43      0.00 
   -3   14   22      0.02      0.00 
   -2   14   22      0.81      0.00 
   -1   14   22      0.40      0.00 
    0   14   22     -1.40      0.00 
    1   14   22     -2.94      0.00 
    2   14   22     -2.38      0.00 
    3   14   22     -0.14      0.00 
    4   14   22      1.11      0.00 
    5   14   22      0.00      0.00 
    6   14   22     -1.70      0.00 
    7   14   22     -1.63      0.00 
    8   14   22     -0.03      0.00 
   -6   15   22     -0.40      0.00 
   -5   15   22     -0.39      0.00 
   -4   15   22      0.48      0.00 
   -3   15   22      1.19      0.00 
   -2   15   22      0.81      0.00 
   -1   15   22     -0.54      0.00 
    0   15   22     -1.49      0.00 
    1   15   22     -0.71      0.00 
    2   15   22      1.32      0.00 
    3   15   22      2.40      0.00 
    4   15   22      1.28      0.00 
    5   15   22     -0.51      0.00 
   -1   16   22     -1.19      0.00 
    0   16   22     -0.78      0.00 
  -17    1   23     -0.06      0.00 
  -16    1   23     -0.62      0.00 
  -15    1   23     -0.82      0.00 
  -14    1   23     -0.90      0.00 
  -13    1   23     -1.53      0.00 
  -12    1   23     -2.73      0.00 
  -11    1   23     -3.42      0.00 
  -10    1   23     -2.47      0.00 
   -9    1   23      0.04      0.00 
   -8    1   23      2.63      0.00 
   -7    1   23      3.41      0.00 
   -6    1   23      1.66      0.00 
   -5    1   23     -1.48      0.00 
   -4    1   23     -4.01      0.00 
   -3    1   23     -5.02      0.00 
   -2    1   23     -5.20      0.00 
   -1    1   23     -5.40      0.00 
    0    1   23     -5.44      0.00 
    1    1   23     -4.62      0.00 
    2    1   23     -2.87      0.00 
    3    1   23     -0.72      0.00 
    4    1   23      1.11      0.00 
    5    1   23      2.10      0.00 
    6    1   23      2.14      0.00 
    7    1   23      1.88      0.00 
    8    1   23      2.13      0.00 
    9    1   23      2.94      0.00 
   10    1   23      3.51      0.00 
   11    1   23      3.13      0.00 
   12    1   23      1.92      0.00 
   13    1   23      0.57      0.00 
   14    1   23     -0.39      0.00 
   15    1   23     -0.90      0.00 
   16    1   23     -1.06      0.00 
  -17    2   23     -0.60      0.00 
  -16    2   23     -0.19      0.00 
  -15    2   23     -0.07      0.00 
  -14    2   23     -1.52      0.00 
  -13    2   23     -3.83      0.00 
  -12    2   23     -4.60      0.00 
  -11    2   23     -2.61      0.00 
  -10    2   23      0.50      0.00 
   -9    2   23      1.79      0.00 
   -8    2   23     -0.21      0.00 
   -7    2   23     -4.34      0.00 
   -6    2   23     -7.54      0.00 
   -5    2   23     -7.30      0.00 
   -4    2   23     -3.96      0.00 
   -3    2   23     -0.34      0.00 
   -2    2   23      1.48      0.00 
   -1    2   23      2.19      0.00 
    0    2   23      3.45      0.00 
    1    2   23      5.42      0.00 
    2    2   23      6.94      0.00 
    3    2   23      7.09      0.00 
    4    2   23      5.76      0.00 
    5    2   23      3.52      0.00 
    6    2   23      1.60      0.00 
    7    2   23      1.11      0.00 
    8    2   23      1.69      0.00 
    9    2   23      1.69      0.00 
   10    2   23      0.20      0.00 
   11    2   23     -1.86      0.00 
   12    2   23     -2.95      0.00 
   13    2   23     -2.61      0.00 
   14    2   23     -1.75      0.00 
   15    2   23     -1.19      0.00 
   16    2   23     -0.81      0.00 
  -17    3   23     -1.40      0.00 
  -16    3   23     -2.08      0.00 
  -15    3   23     -4.52      0.00 
  -14    3   23     -6.88      0.00 
  -13    3   23     -5.98      0.00 
  -12    3   23     -1.64      0.00 
  -11    3   23      2.57      0.00 
  -10    3   23      3.44      0.00 
   -9    3   23      1.42      0.00 
   -8    3   23     -0.43      0.00 
   -7    3   23      0.55      0.00 
   -6    3   23      4.61      0.00 
   -5    3   23      9.13      0.00 
   -4    3   23     10.52      0.00 
   -3    3   23      7.92      0.00 
   -2    3   23      4.21      0.00 
   -1    3   23      2.55      0.00 
    0    3   23      2.78      0.00 
    1    3   23      2.52      0.00 
    2    3   23      0.56      0.00 
    3    3   23     -2.23      0.00 
    4    3   23     -4.29      0.00 
    5    3   23     -4.54      0.00 
    6    3   23     -2.98      0.00 
    7    3   23     -1.04      0.00 
    8    3   23     -0.64      0.00 
    9    3   23     -2.08      0.00 
   10    3   23     -3.48      0.00 
   11    3   23     -2.98      0.00 
   12    3   23     -0.97      0.00 
   13    3   23      0.48      0.00 
   14    3   23      0.31      0.00 
   15    3   23     -0.48      0.00 
   16    3   23     -0.58      0.00 
  -17    4   23     -0.78      0.00 
  -16    4   23     -1.93      0.00 
  -15    4   23     -2.28      0.00 
  -14    4   23      0.58      0.00 
  -13    4   23      5.45      0.00 
  -12    4   23      8.14      0.00 
  -11    4   23      6.57      0.00 
  -10    4   23      3.11      0.00 
   -9    4   23      1.39      0.00 
   -8    4   23      2.51      0.00 
   -7    4   23      4.47      0.00 
   -6    4   23      4.17      0.00 
   -5    4   23     -0.02      0.00 
   -4    4   23     -6.09      0.00 
   -3    4   23     -9.51      0.00 
   -2    4   23     -7.87      0.00 
   -1    4   23     -3.68      0.00 
    0    4   23     -1.34      0.00 
    1    4   23     -2.10      0.00 
    2    4   23     -3.40      0.00 
    3    4   23     -2.56      0.00 
    4    4   23      0.47      0.00 
    5    4   23      3.66      0.00 
    6    4   23      4.95      0.00 
    7    4   23      3.81      0.00 
    8    4   23      1.54      0.00 
    9    4   23      0.22      0.00 
   10    4   23      0.85      0.00 
   11    4   23      2.19      0.00 
   12    4   23      2.17      0.00 
   13    4   23      0.47      0.00 
   14    4   23     -0.93      0.00 
   15    4   23     -0.51      0.00 
   16    4   23      0.72      0.00 
  -17    5   23     -1.08      0.00 
  -16    5   23     -1.38      0.00 
  -15    5   23      0.36      0.00 
  -14    5   23      2.72      0.00 
  -13    5   23      2.65      0.00 
  -12    5   23     -0.48      0.00 
  -11    5   23     -3.72      0.00 
  -10    5   23     -3.99      0.00 
   -9    5   23     -1.45      0.00 
   -8    5   23      0.95      0.00 
   -7    5   23      0.42      0.00 
   -6    5   23     -2.75      0.00 
   -5    5   23     -4.99      0.00 
   -4    5   23     -2.65      0.00 
   -3    5   23      3.72      0.00 
   -2    5   23      9.13      0.00 
   -1    5   23      9.18      0.00 
    0    5   23      4.74      0.00 
    1    5   23      0.76      0.00 
    2    5   23      0.72      0.00 
    3    5   23      3.25      0.00 
    4    5   23      4.55      0.00 
    5    5   23      2.91      0.00 
    6    5   23     -0.09      0.00 
    7    5   23     -2.12      0.00 
    8    5   23     -2.33      0.00 
    9    5   23     -1.44      0.00 
   10    5   23     -0.78      0.00 
   11    5   23     -1.43      0.00 
   12    5   23     -2.94      0.00 
   13    5   23     -3.36      0.00 
   14    5   23     -1.69      0.00 
   16    5   23      0.87      0.00 
  -16    6   23      0.71      0.00 
  -15    6   23      2.21      0.00 
  -14    6   23      2.28      0.00 
  -13    6   23      0.86      0.00 
  -12    6   23      0.12      0.00 
  -11    6   23      1.91      0.00 
  -10    6   23      5.36      0.00 
   -9    6   23      7.21      0.00 
   -8    6   23      5.12      0.00 
   -7    6   23      0.70      0.00 
   -6    6   23     -1.66      0.00 
   -5    6   23      0.36      0.00 
   -4    6   23      3.95      0.00 
   -3    6   23      4.01      0.00 
   -2    6   23     -1.09      0.00 
   -1    6   23     -7.61      0.00 
    0    6   23    -10.02      0.00 
    1    6   23     -6.59      0.00 
    2    6   23     -0.97      0.00 
    3    6   23      1.76      0.00 
    4    6   23      0.48      0.00 
    5    6   23     -1.69      0.00 
    6    6   23     -1.96      0.00 
    7    6   23     -0.66      0.00 
    8    6   23      0.56      0.00 
    9    6   23      0.89      0.00 
   10    6   23      0.22      0.00 
   11    6   23     -0.95      0.00 
   12    6   23     -1.22      0.00 
   13    6   23      0.20      0.00 
   14    6   23      1.84      0.00 
   15    6   23      1.73      0.00 
  -16    7   23      2.68      0.00 
  -15    7   23      2.83      0.00 
  -14    7   23      1.95      0.00 
  -13    7   23      1.20      0.00 
  -12    7   23      1.49      0.00 
  -11    7   23      1.98      0.00 
  -10    7   23      0.36      0.00 
   -9    7   23     -4.21      0.00 
   -8    7   23     -8.92      0.00 
   -7    7   23     -9.52      0.00 
   -6    7   23     -5.59      0.00 
   -5    7   23     -1.62      0.00 
   -4    7   23     -1.83      0.00 
   -3    7   23     -5.24      0.00 
   -2    7   23     -7.09      0.00 
   -1    7   23     -4.05      0.00 
    0    7   23      2.64      0.00 
    1    7   23      8.20      0.00 
    2    7   23      8.67      0.00 
    3    7   23      4.82      0.00 
    4    7   23      1.10      0.00 
    5    7   23      0.46      0.00 
    6    7   23      1.79      0.00 
    7    7   23      2.65      0.00 
    8    7   23      2.08      0.00 
    9    7   23      0.31      0.00 
   10    7   23     -1.94      0.00 
   11    7   23     -3.13      0.00 
   12    7   23     -2.29      0.00 
   13    7   23     -0.79      0.00 
   14    7   23     -0.68      0.00 
   15    7   23     -1.63      0.00 
  -15    8   23     -1.91      0.00 
  -14    8   23     -2.64      0.00 
  -13    8   23     -2.74      0.00 
  -12    8   23     -2.86      0.00 
  -11    8   23     -4.01      0.00 
  -10    8   23     -5.86      0.00 
   -9    8   23     -5.93      0.00 
   -8    8   23     -2.10      0.00 
   -7    8   23      3.77      0.00 
   -6    8   23      6.94      0.00 
   -5    8   23      5.21      0.00 
   -4    8   23      1.58      0.00 
   -3    8   23      0.46      0.00 
   -2    8   23      2.94      0.00 
   -1    8   23      6.33      0.00 
    0    8   23      7.03      0.00 
    1    8   23      3.70      0.00 
    2    8   23     -1.23      0.00 
    3    8   23     -3.68      0.00 
    4    8   23     -2.23      0.00 
    5    8   23      0.58      0.00 
    6    8   23      1.70      0.00 
    7    8   23      0.52      0.00 
    8    8   23     -1.85      0.00 
    9    8   23     -3.80      0.00 
   10    8   23     -3.63      0.00 
   11    8   23     -1.15      0.00 
   12    8   23      1.31      0.00 
   13    8   23      1.53      0.00 
   14    8   23      0.27      0.00 
  -14    9   23      1.40      0.00 
  -13    9   23      1.60      0.00 
  -12    9   23      1.01      0.00 
  -11    9   23      0.30      0.00 
  -10    9   23      0.85      0.00 
   -9    9   23      2.92      0.00 
   -8    9   23      4.45      0.00 
   -7    9   23      2.93      0.00 
   -6    9   23     -1.17      0.00 
   -5    9   23     -4.34      0.00 
   -4    9   23     -3.92      0.00 
   -3    9   23     -0.78      0.00 
   -2    9   23      2.07      0.00 
   -1    9   23      2.37      0.00 
    0    9   23      0.21      0.00 
    1    9   23     -1.96      0.00 
    2    9   23     -1.55      0.00 
    3    9   23      1.06      0.00 
    4    9   23      2.81      0.00 
    5    9   23      1.70      0.00 
    6    9   23     -1.26      0.00 
    7    9   23     -4.08      0.00 
    8    9   23     -5.34      0.00 
    9    9   23     -4.27      0.00 
   10    9   23     -1.64      0.00 
   11    9   23     -0.04      0.00 
   12    9   23     -0.92      0.00 
   13    9   23     -2.43      0.00 
  -13   10   23     -2.00      0.00 
  -12   10   23     -2.88      0.00 
  -11   10   23     -2.67      0.00 
  -10   10   23     -1.74      0.00 
   -9   10   23     -1.48      0.00 
   -8   10   23     -2.60      0.00 
   -7   10   23     -3.87      0.00 
   -6   10   23     -3.29      0.00 
   -5   10   23     -0.45      0.00 
   -4   10   23      2.93      0.00 
   -3   10   23      4.84      0.00 
   -2   10   23      4.40      0.00 
   -1   10   23      2.26      0.00 
    0   10   23      0.44      0.00 
    1   10   23      0.60      0.00 
    2   10   23      1.80      0.00 
    3   10   23      1.52      0.00 
    4   10   23     -0.71      0.00 
    5   10   23     -2.74      0.00 
    6   10   23     -3.08      0.00 
    7   10   23     -2.14      0.00 
    8   10   23     -0.47      0.00 
    9   10   23      1.34      0.00 
   10   10   23      1.78      0.00 
   11   10   23      0.34      0.00 
   12   10   23     -0.82      0.00 
  -12   11   23      1.29      0.00 
  -11   11   23      2.20      0.00 
  -10   11   23      2.08      0.00 
   -9   11   23      1.08      0.00 
   -8   11   23      0.39      0.00 
   -7   11   23      0.94      0.00 
   -6   11   23      2.17      0.00 
   -5   11   23      2.84      0.00 
   -4   11   23      2.40      0.00 
   -3   11   23      0.99      0.00 
   -2   11   23     -0.79      0.00 
   -1   11   23     -1.71      0.00 
    0   11   23     -0.79      0.00 
    1   11   23      0.88      0.00 
    2   11   23      1.07      0.00 
    3   11   23     -0.27      0.00 
    4   11   23     -1.01      0.00 
    5   11   23     -0.50      0.00 
    6   11   23     -0.27      0.00 
    7   11   23     -0.97      0.00 
    8   11   23     -1.60      0.00 
    9   11   23     -1.97      0.00 
   10   11   23     -2.52      0.00 
   11   11   23     -2.30      0.00 
  -11   12   23     -0.64      0.00 
  -10   12   23     -1.52      0.00 
   -9   12   23     -1.63      0.00 
   -8   12   23     -0.85      0.00 
   -7   12   23      0.02      0.00 
   -6   12   23      0.31      0.00 
   -5   12   23      0.18      0.00 
   -4   12   23      0.04      0.00 
   -3   12   23     -0.08      0.00 
   -2   12   23      0.09      0.00 
   -1   12   23      1.01      0.00 
    0   12   23      1.86      0.00 
    1   12   23      1.00      0.00 
    2   12   23     -1.42      0.00 
    3   12   23     -3.29      0.00 
    4   12   23     -3.77      0.00 
    5   12   23     -4.24      0.00 
    6   12   23     -5.13      0.00 
    7   12   23     -4.92      0.00 
    8   12   23     -3.06      0.00 
    9   12   23     -1.04      0.00 
   10   12   23      0.21      0.00 
  -10   13   23     -0.26      0.00 
   -9   13   23      0.75      0.00 
   -8   13   23      1.54      0.00 
   -7   13   23      1.86      0.00 
   -6   13   23      1.87      0.00 
   -5   13   23      1.58      0.00 
   -4   13   23      0.76      0.00 
   -3   13   23     -0.27      0.00 
   -2   13   23     -0.67      0.00 
   -1   13   23     -0.45      0.00 
    0   13   23     -0.66      0.00 
    1   13   23     -1.54      0.00 
    2   13   23     -1.76      0.00 
    3   13   23     -0.69      0.00 
    4   13   23      0.42      0.00 
    5   13   23      0.67      0.00 
    6   13   23      1.05      0.00 
    7   13   23      2.28      0.00 
    8   13   23      3.14      0.00 
    9   13   23      2.52      0.00 
   -8   14   23     -0.26      0.00 
   -7   14   23      0.09      0.00 
   -6   14   23      0.37      0.00 
   -5   14   23      0.06      0.00 
   -4   14   23     -0.48      0.00 
   -3   14   23     -0.44      0.00 
   -2   14   23      0.12      0.00 
   -1   14   23      0.19      0.00 
    0   14   23     -0.57      0.00 
    1   14   23     -1.10      0.00 
    2   14   23     -0.51      0.00 
    3   14   23      0.42      0.00 
    4   14   23      0.48      0.00 
    5   14   23     -0.12      0.00 
    6   14   23     -0.42      0.00 
    7   14   23     -0.42      0.00 
   -5   15   23      0.73      0.00 
   -4   15   23      0.51      0.00 
   -3   15   23      0.67      0.00 
   -2   15   23      0.33      0.00 
   -1   15   23     -0.65      0.00 
    0   15   23     -1.27      0.00 
    1   15   23     -0.72      0.00 
    2   15   23      0.32      0.00 
    3   15   23      0.52      0.00 
    4   15   23     -0.41      0.00 
  -17    0   24      0.01      0.00 
  -16    0   24      0.22      0.00 
  -15    0   24      2.04      0.00 
  -14    0   24      2.71      0.00 
  -13    0   24     -0.85      0.00 
  -12    0   24     -6.83      0.00 
  -11    0   24     -9.94      0.00 
  -10    0   24     -7.38      0.00 
   -9    0   24     -1.33      0.00 
   -8    0   24      3.45      0.00 
   -7    0   24      3.21      0.00 
   -6    0   24     -1.79      0.00 
   -5    0   24     -6.88      0.00 
   -4    0   24     -7.33      0.00 
   -3    0   24     -3.70      0.00 
   -2    0   24     -0.51      0.00 
   -1    0   24     -0.42      0.00 
    0    0   24     -2.12      0.00 
    2    0   24     -2.83      0.00 
    3    0   24      0.03      0.00 
    4    0   24      3.79      0.00 
    5    0   24      5.19      0.00 
    6    0   24      3.13      0.00 
    7    0   24      0.90      0.00 
    8    0   24      1.68      0.00 
    9    0   24      4.03      0.00 
   10    0   24      4.59      0.00 
   11    0   24      3.11      0.00 
   12    0   24      1.71      0.00 
   13    0   24      1.10      0.00 
   14    0   24      0.23      0.00 
   15    0   24     -1.19      0.00 
   16    0   24     -2.18      0.00 
  -17    1   24      0.25      0.00 
  -16    1   24      1.19      0.00 
  -15    1   24      0.61      0.00 
  -14    1   24     -3.21      0.00 
  -13    1   24     -7.38      0.00 
  -12    1   24     -7.20      0.00 
  -11    1   24     -2.26      0.00 
  -10    1   24      3.06      0.00 
   -9    1   24      4.47      0.00 
   -8    1   24      1.24      0.00 
   -7    1   24     -3.60      0.00 
   -6    1   24     -5.46      0.00 
   -5    1   24     -2.11      0.00 
   -4    1   24      3.49      0.00 
   -3    1   24      6.21      0.00 
   -2    1   24      4.63      0.00 
   -1    1   24      1.69      0.00 
    0    1   24      0.38      0.00 
    1    1   24      1.21      0.00 
    2    1   24      3.27      0.00 
    3    1   24      4.75      0.00 
    4    1   24      3.56      0.00 
    5    1   24      0.03      0.00 
    6    1   24     -2.38      0.00 
    7    1   24     -1.41      0.00 
    8    1   24      0.68      0.00 
    9    1   24      0.67      0.00 
   10    1   24     -1.06      0.00 
   11    1   24     -1.97      0.00 
   12    1   24     -1.59      0.00 
   13    1   24     -1.41      0.00 
   14    1   24     -1.92      0.00 
   15    1   24     -2.11      0.00 
   16    1   24     -1.33      0.00 
  -17    2   24     -0.36      0.00 
  -16    2   24     -1.70      0.00 
  -15    2   24     -5.03      0.00 
  -14    2   24     -7.32      0.00 
  -13    2   24     -5.23      0.00 
  -12    2   24     -0.08      0.00 
  -11    2   24      3.43      0.00 
  -10    2   24      2.88      0.00 
   -9    2   24      0.12      0.00 
   -8    2   24     -1.33      0.00 
   -7    2   24      0.60      0.00 
   -6    2   24      4.91      0.00 
   -5    2   24      7.81      0.00 
   -4    2   24      6.09      0.00 
   -3    2   24      0.91      0.00 
   -2    2   24     -3.42      0.00 
   -1    2   24     -4.20      0.00 
    0    2   24     -2.29      0.00 
    1    2   24     -0.08      0.00 
    2    2   24      0.52      0.00 
    3    2   24     -1.12      0.00 
    4    2   24     -3.51      0.00 
    5    2   24     -3.87      0.00 
    6    2   24     -1.56      0.00 
    7    2   24      0.74      0.00 
    8    2   24      0.72      0.00 
    9    2   24     -0.51      0.00 
   10    2   24     -0.68      0.00 
   11    2   24      0.16      0.00 
   12    2   24      0.36      0.00 
   13    2   24     -0.38      0.00 
   14    2   24     -0.90      0.00 
   15    2   24     -0.56      0.00 
   16    2   24      0.14      0.00 
  -17    3   24     -1.48      0.00 
  -16    3   24     -3.06      0.00 
  -15    3   24     -3.45      0.00 
  -14    3   24     -1.03      0.00 
  -13    3   24      2.48      0.00 
  -12    3   24      3.72      0.00 
  -11    3   24      2.06      0.00 
  -10    3   24     -0.05      0.00 
   -9    3   24     -0.28      0.00 
   -8    3   24      1.35      0.00 
   -7    3   24      2.83      0.00 
   -6    3   24      1.80      0.00 
   -5    3   24     -2.07      0.00 
   -4    3   24     -6.02      0.00 
   -3    3   24     -6.63      0.00 
   -2    3   24     -3.35      0.00 
   -1    3   24      1.07      0.00 
    0    3   24      3.59      0.00 
    1    3   24      3.17      0.00 
    2    3   24      1.05      0.00 
    3    3   24     -0.30      0.00 
    4    3   24      0.68      0.00 
    5    3   24      2.90      0.00 
    6    3   24      3.84      0.00 
    7    3   24      2.77      0.00 
    8    3   24      1.34      0.00 
    9    3   24      0.88      0.00 
   10    3   24      0.82      0.00 
   11    3   24      0.15      0.00 
   12    3   24     -0.76      0.00 
   13    3   24     -0.99      0.00 
   14    3   24     -0.49      0.00 
   15    3   24      0.06      0.00 
   16    3   24      0.23      0.00 
  -16    4   24     -2.07      0.00 
  -15    4   24     -1.10      0.00 
  -14    4   24      0.19      0.00 
  -13    4   24      0.40      0.00 
  -12    4   24     -0.42      0.00 
  -11    4   24     -0.83      0.00 
  -10    4   24      0.23      0.00 
   -9    4   24      2.33      0.00 
   -8    4   24      3.84      0.00 
   -7    4   24      3.47      0.00 
   -6    4   24      1.83      0.00 
   -5    4   24      1.25      0.00 
   -4    4   24      3.21      0.00 
   -3    4   24      6.40      0.00 
   -2    4   24      8.06      0.00 
   -1    4   24      6.55      0.00 
    0    4   24      2.57      0.00 
    1    4   24     -1.43      0.00 
    2    4   24     -3.01      0.00 
    3    4   24     -1.94      0.00 
    4    4   24     -0.41      0.00 
    5    4   24     -0.40      0.00 
    6    4   24     -1.42      0.00 
    7    4   24     -1.98      0.00 
    8    4   24     -1.91      0.00 
    9    4   24     -1.93      0.00 
   10    4   24     -1.97      0.00 
   11    4   24     -1.40      0.00 
   12    4   24     -0.34      0.00 
   13    4   24      0.40      0.00 
   14    4   24      0.45      0.00 
   15    4   24      0.19      0.00 
  -16    5   24      0.90      0.00 
  -15    5   24      1.75      0.00 
  -14    5   24      2.63      0.00 
  -13    5   24      3.32      0.00 
  -12    5   24      3.96      0.00 
  -11    5   24      4.86      0.00 
  -10    5   24      5.87      0.00 
   -9    5   24      5.99      0.00 
   -8    5   24      4.24      0.00 
   -7    5   24      1.32      0.00 
   -6    5   24     -0.83      0.00 
   -5    5   24     -1.49      0.00 
   -4    5   24     -1.94      0.00 
   -3    5   24     -3.53      0.00 
   -2    5   24     -6.12      0.00 
   -1    5   24     -8.47      0.00 
    0    5   24     -9.09      0.00 
    1    5   24     -6.96      0.00 
    2    5   24     -2.89      0.00 
    3    5   24      0.61      0.00 
    4    5   24      1.98      0.00 
    5    5   24      2.08      0.00 
    6    5   24      2.20      0.00 
    7    5   24      2.34      0.00 
    8    5   24      2.21      0.00 
    9    5   24      2.36      0.00 
   10    5   24      2.92      0.00 
   11    5   24      2.89      0.00 
   12    5   24      1.65      0.00 
   13    5   24      0.16      0.00 
   14    5   24     -0.33      0.00 
   15    5   24      0.13      0.00 
  -16    6   24      0.66      0.00 
  -15    6   24      1.24      0.00 
  -14    6   24      1.69      0.00 
  -13    6   24      1.44      0.00 
  -12    6   24      0.48      0.00 
  -11    6   24     -0.80      0.00 
  -10    6   24     -2.40      0.00 
   -9    6   24     -4.44      0.00 
   -8    6   24     -6.23      0.00 
   -7    6   24     -6.58      0.00 
   -6    6   24     -5.44      0.00 
   -5    6   24     -3.92      0.00 
   -4    6   24     -2.66      0.00 
   -3    6   24     -1.36      0.00 
   -2    6   24      0.16      0.00 
   -1    6   24      1.84      0.00 
    0    6   24      3.86      0.00 
    1    6   24      5.94      0.00 
    2    6   24      6.82      0.00 
    3    6   24      5.78      0.00 
    4    6   24      3.84      0.00 
    5    6   24      2.32      0.00 
    6    6   24      1.46      0.00 
    7    6   24      1.02      0.00 
    8    6   24      0.93      0.00 
    9    6   24      0.57      0.00 
   10    6   24     -0.94      0.00 
   11    6   24     -3.17      0.00 
   12    6   24     -4.35      0.00 
   13    6   24     -3.55      0.00 
   14    6   24     -1.76      0.00 
  -15    7   24     -0.36      0.00 
  -14    7   24     -0.60      0.00 
  -13    7   24     -1.48      0.00 
  -12    7   24     -2.37      0.00 
  -11    7   24     -2.53      0.00 
  -10    7   24     -1.73      0.00 
   -9    7   24     -0.26      0.00 
   -8    7   24      1.39      0.00 
   -7    7   24      2.67      0.00 
   -6    7   24      3.34      0.00 
   -5    7   24      3.58      0.00 
   -4    7   24      3.44      0.00 
   -3    7   24      2.50      0.00 
   -2    7   24      0.79      0.00 
   -1    7   24     -0.66      0.00 
    0    7   24     -1.05      0.00 
    1    7   24     -0.84      0.00 
    2    7   24     -0.87      0.00 
    3    7   24     -1.10      0.00 
    4    7   24     -1.14      0.00 
    5    7   24     -0.92      0.00 
    6    7   24     -0.50      0.00 
    7    7   24     -0.07      0.00 
    8    7   24     -0.29      0.00 
    9    7   24     -1.52      0.00 
   10    7   24     -2.80      0.00 
   11    7   24     -2.78      0.00 
   12    7   24     -1.37      0.00 
   13    7   24      0.10      0.00 
   14    7   24      0.53      0.00 
  -14    8   24      1.25      0.00 
  -13    8   24      0.52      0.00 
  -12    8   24      0.36      0.00 
  -11    8   24      0.84      0.00 
  -10    8   24      0.96      0.00 
   -9    8   24     -0.21      0.00 
   -8    8   24     -2.22      0.00 
   -7    8   24     -3.62      0.00 
   -6    8   24     -3.68      0.00 
   -5    8   24     -3.35      0.00 
   -4    8   24     -3.77      0.00 
   -3    8   24     -4.44      0.00 
   -2    8   24     -3.78      0.00 
   -1    8   24     -1.35      0.00 
    0    8   24      1.60      0.00 
    1    8   24      3.59      0.00 
    2    8   24      4.18      0.00 
    3    8   24      3.62      0.00 
    4    8   24      2.58      0.00 
    5    8   24      1.93      0.00 
    6    8   24      1.84      0.00 
    7    8   24      1.33      0.00 
    8    8   24     -0.36      0.00 
    9    8   24     -2.28      0.00 
   10    8   24     -2.96      0.00 
   11    8   24     -2.32      0.00 
   12    8   24     -1.43      0.00 
   13    8   24     -1.05      0.00 
  -14    9   24     -2.27      0.00 
  -13    9   24     -2.77      0.00 
  -12    9   24     -2.80      0.00 
  -11    9   24     -3.16      0.00 
  -10    9   24     -4.16      0.00 
   -9    9   24     -4.61      0.00 
   -8    9   24     -3.00      0.00 
   -7    9   24      0.26      0.00 
   -6    9   24      2.76      0.00 
   -5    9   24      3.04      0.00 
   -4    9   24      2.45      0.00 
   -3    9   24      3.17      0.00 
   -2    9   24      5.14      0.00 
   -1    9   24      6.42      0.00 
    0    9   24      5.77      0.00 
    1    9   24      3.62      0.00 
    2    9   24      1.02      0.00 
    3    9   24     -0.92      0.00 
    4    9   24     -1.27      0.00 
    5    9   24     -0.37      0.00 
    6    9   24     -0.13      0.00 
    7    9   24     -1.72      0.00 
    8    9   24     -3.71      0.00 
    9    9   24     -3.82      0.00 
   10    9   24     -1.89      0.00 
   11    9   24      0.24      0.00 
   12    9   24      1.27      0.00 
   13    9   24      1.30      0.00 
  -13   10   24      1.09      0.00 
  -12   10   24      1.38      0.00 
  -11   10   24      1.22      0.00 
  -10   10   24      1.52      0.00 
   -9   10   24      2.90      0.00 
   -8   10   24      4.36      0.00 
   -7   10   24      3.90      0.00 
   -6   10   24      1.25      0.00 
   -5   10   24     -1.20      0.00 
   -4   10   24     -1.15      0.00 
   -3   10   24      0.67      0.00 
   -2   10   24      1.65      0.00 
   -1   10   24      0.67      0.00 
    0   10   24     -1.15      0.00 
    1   10   24     -2.28      0.00 
    2   10   24     -2.11      0.00 
    3   10   24     -0.85      0.00 
    4   10   24      0.30      0.00 
    5   10   24     -0.46      0.00 
    6   10   24     -3.41      0.00 
    7   10   24     -6.17      0.00 
    8   10   24     -6.11      0.00 
    9   10   24     -3.58      0.00 
   10   10   24     -1.30      0.00 
   11   10   24     -0.80      0.00 
   12   10   24     -1.22      0.00 
  -12   11   24     -1.38      0.00 
  -11   11   24     -1.54      0.00 
  -10   11   24     -1.02      0.00 
   -9   11   24     -0.81      0.00 
   -8   11   24     -1.95      0.00 
   -7   11   24     -3.91      0.00 
   -6   11   24     -4.52      0.00 
   -5   11   24     -2.41      0.00 
   -4   11   24      0.97      0.00 
   -3   11   24      2.80      0.00 
   -2   11   24      2.18      0.00 
   -1   11   24      0.67      0.00 
    0   11   24      0.06      0.00 
    1   11   24      0.53      0.00 
    2   11   24      0.99      0.00 
    3   11   24      0.24      0.00 
    4   11   24     -2.05      0.00 
    5   11   24     -4.67      0.00 
    6   11   24     -5.47      0.00 
    7   11   24     -3.41      0.00 
    8   11   24     -0.11      0.00 
    9   11   24      1.62      0.00 
   10   11   24      0.91      0.00 
   11   11   24     -0.46      0.00 
  -10   12   24      1.44      0.00 
   -9   12   24      0.64      0.00 
   -8   12   24     -0.31      0.00 
   -7   12   24      0.02      0.00 
   -6   12   24      1.89      0.00 
   -5   12   24      3.63      0.00 
   -4   12   24      3.25      0.00 
   -3   12   24      0.83      0.00 
   -2   12   24     -1.48      0.00 
   -1   12   24     -1.79      0.00 
    0   12   24     -0.36      0.00 
    1   12   24      0.97      0.00 
    2   12   24      0.76      0.00 
    3   12   24     -0.46      0.00 
    4   12   24     -1.02      0.00 
    5   12   24     -0.02      0.00 
    6   12   24      1.62      0.00 
    7   12   24      2.30      0.00 
    8   12   24      1.27      0.00 
    9   12   24     -0.66      0.00 
   -9   13   24     -1.68      0.00 
   -8   13   24     -1.18      0.00 
   -7   13   24      0.26      0.00 
   -6   13   24      1.18      0.00 
   -5   13   24      0.53      0.00 
   -4   13   24     -1.03      0.00 
   -3   13   24     -1.78      0.00 
   -2   13   24     -0.82      0.00 
   -1   13   24      0.91      0.00 
    0   13   24      1.49      0.00 
    1   13   24      0.04      0.00 
    2   13   24     -2.06      0.00 
    3   13   24     -2.75      0.00 
    4   13   24     -1.95      0.00 
    5   13   24     -1.55      0.00 
    6   13   24     -2.50      0.00 
    7   13   24     -3.59      0.00 
    8   13   24     -3.31      0.00 
   -6   14   24      2.36      0.00 
   -5   14   24      1.10      0.00 
   -4   14   24      0.34      0.00 
   -3   14   24      0.50      0.00 
   -2   14   24      0.87      0.00 
   -1   14   24      0.42      0.00 
    0   14   24     -0.94      0.00 
    1   14   24     -1.87      0.00 
    2   14   24     -1.00      0.00 
    3   14   24      0.86      0.00 
    4   14   24      1.37      0.00 
    5   14   24      0.01      0.00 
   -2   15   24     -0.19      0.00 
   -1   15   24     -1.07      0.00 
    0   15   24     -1.44      0.00 
    1   15   24     -0.43      0.00 
  -16    1   25     -0.84      0.00 
  -15    1   25     -1.29      0.00 
  -14    1   25     -2.05      0.00 
  -13    1   25     -3.39      0.00 
  -12    1   25     -4.88      0.00 
  -11    1   25     -5.59      0.00 
  -10    1   25     -4.67      0.00 
   -9    1   25     -2.20      0.00 
   -8    1   25      0.58      0.00 
   -7    1   25      1.92      0.00 
   -6    1   25      1.17      0.00 
   -5    1   25     -0.47      0.00 
   -4    1   25     -1.25      0.00 
   -3    1   25     -0.73      0.00 
   -2    1   25      0.07      0.00 
   -1    1   25      0.25      0.00 
    0    1   25     -0.02      0.00 
    1    1   25     -0.18      0.00 
    2    1   25      0.00      0.00 
    3    1   25      0.46      0.00 
    4    1   25      0.93      0.00 
    5    1   25      0.99      0.00 
    6    1   25      0.45      0.00 
    7    1   25     -0.13      0.00 
    8    1   25      0.09      0.00 
    9    1   25      1.07      0.00 
   10    1   25      1.85      0.00 
   11    1   25      1.64      0.00 
   12    1   25      0.63      0.00 
   13    1   25     -0.43      0.00 
   14    1   25     -1.00      0.00 
   15    1   25     -1.06      0.00 
  -16    2   25     -1.27      0.00 
  -15    2   25     -2.02      0.00 
  -14    2   25     -3.75      0.00 
  -13    2   25     -5.04      0.00 
  -12    2   25     -4.12      0.00 
  -11    2   25     -0.80      0.00 
  -10    2   25      3.18      0.00 
   -9    2   25      5.34      0.00 
   -8    2   25      4.29      0.00 
   -7    2   25      1.03      0.00 
   -6    2   25     -1.41      0.00 
   -5    2   25     -0.77      0.00 
   -4    2   25      2.12      0.00 
   -3    2   25      4.33      0.00 
   -2    2   25      4.20      0.00 
   -1    2   25      2.76      0.00 
    0    2   25      1.71      0.00 
    1    2   25      1.46      0.00 
    2    2   25      1.43      0.00 
    3    2   25      1.08      0.00 
    4    2   25      0.06      0.00 
    5    2   25     -1.45      0.00 
    6    2   25     -2.39      0.00 
    7    2   25     -1.73      0.00 
    8    2   25     -0.07      0.00 
    9    2   25      0.75      0.00 
   10    2   25     -0.12      0.00 
   11    2   25     -1.57      0.00 
   12    2   25     -2.09      0.00 
   13    2   25     -1.50      0.00 
   14    2   25     -0.72      0.00 
   15    2   25     -0.35      0.00 
  -16    3   25     -1.50      0.00 
  -15    3   25     -3.55      0.00 
  -14    3   25     -4.42      0.00 
  -13    3   25     -2.22      0.00 
  -12    3   25      1.98      0.00 
  -11    3   25      5.13      0.00 
  -10    3   25      5.17      0.00 
   -9    3   25      2.72      0.00 
   -8    3   25      0.38      0.00 
   -7    3   25      0.74      0.00 
   -6    3   25      4.00      0.00 
   -5    3   25      7.28      0.00 
   -4    3   25      7.16      0.00 
   -3    3   25      3.42      0.00 
   -2    3   25     -0.73      0.00 
   -1    3   25     -2.47      0.00 
    0    3   25     -2.16      0.00 
    1    3   25     -1.87      0.00 
    2    3   25     -2.63      0.00 
    3    3   25     -3.93      0.00 
    4    3   25     -4.75      0.00 
    5    3   25     -4.20      0.00 
    6    3   25     -2.14      0.00 
    7    3   25      0.11      0.00 
    8    3   25      0.72      0.00 
    9    3   25     -0.41      0.00 
   10    3   25     -1.31      0.00 
   11    3   25     -0.50      0.00 
   12    3   25      1.17      0.00 
   13    3   25      1.83      0.00 
   14    3   25      1.12      0.00 
   15    3   25      0.23      0.00 
  -16    4   25     -1.52      0.00 
  -15    4   25     -1.55      0.00 
  -14    4   25      1.10      0.00 
  -13    4   25      4.65      0.00 
  -12    4   25      6.03      0.00 
  -11    4   25      4.31      0.00 
  -10    4   25      1.51      0.00 
   -9    4   25      0.35      0.00 
   -8    4   25      1.76      0.00 
   -7    4   25      3.90      0.00 
   -6    4   25      3.62      0.00 
   -5    4   25     -0.52      0.00 
   -4    4   25     -6.15      0.00 
   -3    4   25     -8.92      0.00 
   -2    4   25     -7.11      0.00 
   -1    4   25     -3.40      0.00 
    0    4   25     -1.55      0.00 
    1    4   25     -2.19      0.00 
    2    4   25     -2.95      0.00 
    3    4   25     -1.82      0.00 
    4    4   25      0.97      0.00 
    5    4   25      3.82      0.00 
    6    4   25      5.28      0.00 
    7    4   25      4.76      0.00 
    8    4   25      3.08      0.00 
    9    4   25      2.02      0.00 
   10    4   25      2.44      0.00 
   11    4   25      3.00      0.00 
   12    4   25      2.02      0.00 
   13    4   25     -0.02      0.00 
   14    4   25     -1.14      0.00 
   15    4   25     -0.69      0.00 
  -15    5   25      0.74      0.00 
  -14    5   25      2.71      0.00 
  -13    5   25      2.62      0.00 
  -12    5   25      0.24      0.00 
  -11    5   25     -2.18      0.00 
  -10    5   25     -2.23      0.00 
   -9    5   25      0.06      0.00 
   -8    5   25      1.98      0.00 
   -7    5   25      0.91      0.00 
   -6    5   25     -2.63      0.00 
   -5    5   25     -5.01      0.00 
   -4    5   25     -3.08      0.00 
   -3    5   25      2.17      0.00 
   -2    5   25      6.19      0.00 
   -1    5   25      5.56      0.00 
    0    5   25      1.62      0.00 
    1    5   25     -1.16      0.00 
    2    5   25     -0.37      0.00 
    3    5   25      2.23      0.00 
    4    5   25      3.57      0.00 
    5    5   25      2.78      0.00 
    6    5   25      0.93      0.00 
    7    5   25     -0.73      0.00 
    8    5   25     -1.43      0.00 
    9    5   25     -1.02      0.00 
   10    5   25     -0.57      0.00 
   11    5   25     -1.32      0.00 
   12    5   25     -2.68      0.00 
   13    5   25     -2.71      0.00 
   14    5   25     -1.09      0.00 
  -15    6   25      1.87      0.00 
  -14    6   25      1.56      0.00 
  -13    6   25     -0.01      0.00 
  -12    6   25     -1.13      0.00 
  -11    6   25      0.03      0.00 
  -10    6   25      2.88      0.00 
   -9    6   25      4.33      0.00 
   -8    6   25      2.23      0.00 
   -7    6   25     -1.56      0.00 
   -6    6   25     -3.07      0.00 
   -5    6   25     -0.88      0.00 
   -4    6   25      2.08      0.00 
   -3    6   25      1.72      0.00 
   -2    6   25     -2.80      0.00 
   -1    6   25     -7.89      0.00 
    0    6   25     -8.86      0.00 
    1    6   25     -4.76      0.00 
    2    6   25      0.60      0.00 
    3    6   25      3.06      0.00 
    4    6   25      2.32      0.00 
    5    6   25      0.85      0.00 
    6    6   25      0.33      0.00 
    7    6   25      0.80      0.00 
    8    6   25      1.84      0.00 
    9    6   25      2.44      0.00 
   10    6   25      1.40      0.00 
   11    6   25     -0.68      0.00 
   12    6   25     -1.55      0.00 
   13    6   25     -0.51      0.00 
   14    6   25      0.57      0.00 
  -14    7   25     -0.03      0.00 
  -13    7   25     -0.82      0.00 
  -12    7   25     -0.41      0.00 
  -11    7   25      0.43      0.00 
  -10    7   25     -0.63      0.00 
   -9    7   25     -4.34      0.00 
   -8    7   25     -7.79      0.00 
   -7    7   25     -7.47      0.00 
   -6    7   25     -3.82      0.00 
   -5    7   25     -0.87      0.00 
   -4    7   25     -1.42      0.00 
   -3    7   25     -4.12      0.00 
   -2    7   25     -5.06      0.00 
   -1    7   25     -1.66      0.00 
    0    7   25      4.63      0.00 
    1    7   25      9.29      0.00 
    2    7   25      9.12      0.00 
    3    7   25      5.53      0.00 
    4    7   25      2.39      0.00 
    5    7   25      1.60      0.00 
    6    7   25      2.29      0.00 
    7    7   25      2.89      0.00 
    8    7   25      2.08      0.00 
    9    7   25     -0.69      0.00 
   10    7   25     -3.92      0.00 
   11    7   25     -4.84      0.00 
   12    7   25     -3.06      0.00 
   13    7   25     -1.17      0.00 
  -14    8   25     -2.35      0.00 
  -13    8   25     -2.32      0.00 
  -12    8   25     -2.26      0.00 
  -11    8   25     -3.14      0.00 
  -10    8   25     -4.49      0.00 
   -9    8   25     -3.93      0.00 
   -8    8   25     -0.05      0.00 
   -7    8   25      4.88      0.00 
   -6    8   25      6.93      0.00 
   -5    8   25      5.02      0.00 
   -4    8   25      1.96      0.00 
   -3    8   25      1.17      0.00 
   -2    8   25      3.38      0.00 
   -1    8   25      6.20      0.00 
    0    8   25      6.27      0.00 
    1    8   25      2.63      0.00 
    2    8   25     -1.96      0.00 
    3    8   25     -3.92      0.00 
    4    8   25     -2.75      0.00 
    5    8   25     -0.85      0.00 
    6    8   25     -0.34      0.00 
    7    8   25     -1.75      0.00 
    8    8   25     -4.21      0.00 
    9    8   25     -5.53      0.00 
   10    8   25     -3.90      0.00 
   11    8   25     -0.49      0.00 
   12    8   25      1.37      0.00 
   13    8   25      0.59      0.00 
  -13    9   25      1.14      0.00 
  -12    9   25      0.76      0.00 
  -11    9   25      0.54      0.00 
  -10    9   25      1.49      0.00 
   -9    9   25      3.36      0.00 
   -8    9   25      4.08      0.00 
   -7    9   25      1.92      0.00 
   -6    9   25     -2.16      0.00 
   -5    9   25     -5.07      0.00 
   -4    9   25     -4.74      0.00 
   -3    9   25     -1.90      0.00 
   -2    9   25      0.70      0.00 
   -1    9   25      0.72      0.00 
    0    9   25     -1.51      0.00 
    1    9   25     -3.10      0.00 
    2    9   25     -1.84      0.00 
    3    9   25      0.97      0.00 
    4    9   25      2.32      0.00 
    5    9   25      1.16      0.00 
    6    9   25     -1.31      0.00 
    7    9   25     -3.44      0.00 
    8    9   25     -3.88      0.00 
    9    9   25     -2.20      0.00 
   10    9   25     -0.09      0.00 
   11    9   25      0.01      0.00 
   12    9   25     -1.56      0.00 
  -12   10   25     -2.03      0.00 
  -11   10   25     -1.91      0.00 
  -10   10   25     -1.60      0.00 
   -9   10   25     -2.10      0.00 
   -8   10   25     -3.54      0.00 
   -7   10   25     -4.67      0.00 
   -6   10   25     -3.90      0.00 
   -5   10   25     -1.01      0.00 
   -4   10   25      2.62      0.00 
   -3   10   25      4.91      0.00 
   -2   10   25      4.59      0.00 
   -1   10   25      2.52      0.00 
    0   10   25      1.28      0.00 
    1   10   25      2.14      0.00 
    2   10   25      3.18      0.00 
    3   10   25      2.04      0.00 
    4   10   25     -0.68      0.00 
    5   10   25     -2.63      0.00 
    6   10   25     -2.99      0.00 
    7   10   25     -2.37      0.00 
    8   10   25     -1.24      0.00 
    9   10   25     -0.34      0.00 
   10   10   25     -0.64      0.00 
   11   10   25     -1.50      0.00 
  -11   11   25      1.61      0.00 
  -10   11   25      1.56      0.00 
   -9   11   25      1.06      0.00 
   -8   11   25      0.96      0.00 
   -7   11   25      1.68      0.00 
   -6   11   25      2.73      0.00 
   -5   11   25      3.30      0.00 
   -4   11   25      2.86      0.00 
   -3   11   25      1.20      0.00 
   -2   11   25     -0.93      0.00 
   -1   11   25     -1.76      0.00 
    0   11   25     -0.63      0.00 
    1   11   25      0.61      0.00 
    2   11   25      0.00      0.00 
    3   11   25     -1.50      0.00 
    4   11   25     -1.83      0.00 
    5   11   25     -1.34      0.00 
    6   11   25     -1.80      0.00 
    7   11   25     -3.12      0.00 
    8   11   25     -3.94      0.00 
    9   11   25     -3.99      0.00 
   10   11   25     -3.53      0.00 
   -9   12   25     -1.45      0.00 
   -8   12   25     -1.30      0.00 
   -7   12   25     -1.25      0.00 
   -6   12   25     -1.45      0.00 
   -5   12   25     -1.48      0.00 
   -4   12   25     -1.26      0.00 
   -3   12   25     -1.00      0.00 
   -2   12   25     -0.34      0.00 
   -1   12   25      0.99      0.00 
    0   12   25      1.76      0.00 
    1   12   25      0.65      0.00 
    2   12   25     -1.31      0.00 
    3   12   25     -2.21      0.00 
    4   12   25     -2.37      0.00 
    5   12   25     -3.40      0.00 
    6   12   25     -4.75      0.00 
    7   12   25     -4.41      0.00 
    8   12   25     -2.33      0.00 
   -8   13   25      1.16      0.00 
   -7   13   25      1.38      0.00 
   -6   13   25      1.66      0.00 
   -5   13   25      1.92      0.00 
   -4   13   25      1.60      0.00 
   -3   13   25      0.84      0.00 
   -2   13   25      0.42      0.00 
   -1   13   25      0.31      0.00 
    0   13   25     -0.20      0.00 
    1   13   25     -0.70      0.00 
    2   13   25     -0.14      0.00 
    3   13   25      0.98      0.00 
    4   13   25      1.13      0.00 
    5   13   25      0.51      0.00 
    6   13   25      0.82      0.00 
   -5   14   25     -0.24      0.00 
   -4   14   25     -0.66      0.00 
   -3   14   25     -0.77      0.00 
   -2   14   25     -0.55      0.00 
   -1   14   25     -0.62      0.00 
    0   14   25     -0.94      0.00 
    1   14   25     -0.79      0.00 
    2   14   25     -0.24      0.00 
    3   14   25     -0.25      0.00 
    4   14   25     -0.88      0.00 
  -16    0   26      0.90      0.00 
  -15    0   26      1.63      0.00 
  -14    0   26     -0.31      0.00 
  -13    0   26     -5.13      0.00 
  -12    0   26     -9.87      0.00 
  -11    0   26    -11.32      0.00 
  -10    0   26     -8.28      0.00 
   -9    0   26     -2.27      0.00 
   -8    0   26      2.77      0.00 
   -7    0   26      3.10      0.00 
   -6    0   26     -0.58      0.00 
   -5    0   26     -3.17      0.00 
   -4    0   26     -1.04      0.00 
   -3    0   26      4.02      0.00 
   -2    0   26      7.56      0.00 
   -1    0   26      7.19      0.00 
    0    0   26      3.69      0.00 
    1    0   26     -0.17      0.00 
    3    0   26      0.58      0.00 
    4    0   26      2.58      0.00 
    5    0   26      1.53      0.00 
    6    0   26     -1.36      0.00 
    7    0   26     -2.48      0.00 
    8    0   26     -1.07      0.00 
    9    0   26      0.49      0.00 
   10    0   26      0.80      0.00 
   11    0   26      0.73      0.00 
   12    0   26      0.77      0.00 
   13    0   26      0.24      0.00 
   14    0   26     -0.90      0.00 
   15    0   26     -1.63      0.00 
  -16    1   26      0.10      0.00 
  -15    1   26     -2.07      0.00 
  -14    1   26     -5.57      0.00 
  -13    1   26     -7.06      0.00 
  -12    1   26     -4.47      0.00 
  -11    1   26      0.91      0.00 
  -10    1   26      5.90      0.00 
   -9    1   26      7.40      0.00 
   -8    1   26      4.47      0.00 
   -7    1   26      0.02      0.00 
   -6    1   26     -1.18      0.00 
   -5    1   26      2.30      0.00 
   -4    1   26      6.70      0.00 
   -3    1   26      7.57      0.00 
   -2    1   26      4.33      0.00 
   -1    1   26     -0.27      0.00 
    0    1   26     -3.09      0.00 
    1    1   26     -2.63      0.00 
    2    1   26     -0.13      0.00 
    3    1   26      1.07      0.00 
    4    1   26     -0.89      0.00 
    5    1   26     -3.77      0.00 
    6    1   26     -4.09      0.00 
    7    1   26     -1.98      0.00 
    8    1   26     -0.36      0.00 
    9    1   26     -0.41      0.00 
   10    1   26     -0.73      0.00 
   11    1   26     -0.51      0.00 
   12    1   26     -0.56      0.00 
   13    1   26     -1.18      0.00 
   14    1   26     -1.49      0.00 
   15    1   26     -1.06      0.00 
  -16    2   26     -2.35      0.00 
  -15    2   26     -4.82      0.00 
  -14    2   26     -5.06      0.00 
  -13    2   26     -2.13      0.00 
  -12    2   26      1.63      0.00 
  -11    2   26      3.28      0.00 
  -10    2   26      1.89      0.00 
   -9    2   26     -1.08      0.00 
   -8    2   26     -2.63      0.00 
   -7    2   26     -0.58      0.00 
   -6    2   26      3.72      0.00 
   -5    2   26      6.11      0.00 
   -4    2   26      4.12      0.00 
   -3    2   26     -0.50      0.00 
   -2    2   26     -4.05      0.00 
   -1    2   26     -4.40      0.00 
    0    2   26     -2.02      0.00 
    1    2   26      0.60      0.00 
    2    2   26      0.72      0.00 
    3    2   26     -1.80      0.00 
    4    2   26     -3.94      0.00 
    5    2   26     -3.21      0.00 
    6    2   26     -0.84      0.00 
    7    2   26      0.37      0.00 
    8    2   26      0.08      0.00 
    9    2   26      0.01      0.00 
   10    2   26      0.68      0.00 
   11    2   26      0.91      0.00 
   12    2   26      0.28      0.00 
   13    2   26     -0.31      0.00 
   14    2   26     -0.26      0.00 
  -16    3   26     -2.74      0.00 
  -15    3   26     -2.52      0.00 
  -14    3   26     -0.32      0.00 
  -13    3   26      1.98      0.00 
  -12    3   26      2.60      0.00 
  -11    3   26      1.70      0.00 
  -10    3   26      0.88      0.00 
   -9    3   26      1.65      0.00 
   -8    3   26      4.01      0.00 
   -7    3   26      5.84      0.00 
   -6    3   26      4.70      0.00 
   -5    3   26      0.84      0.00 
   -4    3   26     -2.81      0.00 
   -3    3   26     -3.67      0.00 
   -2    3   26     -1.74      0.00 
   -1    3   26      1.00      0.00 
    0    3   26      2.09      0.00 
    1    3   26      0.34      0.00 
    2    3   26     -2.66      0.00 
    3    3   26     -3.75      0.00 
    4    3   26     -1.94      0.00 
    5    3   26      0.49      0.00 
    6    3   26      1.34      0.00 
    7    3   26      1.20      0.00 
    8    3   26      1.51      0.00 
    9    3   26      2.01      0.00 
   10    3   26      1.59      0.00 
   11    3   26      0.47      0.00 
   12    3   26     -0.20      0.00 
   13    3   26     -0.08      0.00 
   14    3   26      0.25      0.00 
  -15    4   26      0.57      0.00 
  -14    4   26      1.74      0.00 
  -13    4   26      2.04      0.00 
  -12    4   26      1.61      0.00 
  -11    4   26      1.33      0.00 
  -10    4   26      2.02      0.00 
   -9    4   26      3.39      0.00 
   -8    4   26      3.88      0.00 
   -7    4   26      2.35      0.00 
   -6    4   26     -0.13      0.00 
   -5    4   26     -1.29      0.00 
   -4    4   26     -0.38      0.00 
   -3    4   26      1.30      0.00 
   -2    4   26      2.05      0.00 
   -1    4   26      0.79      0.00 
    0    4   26     -2.25      0.00 
    1    4   26     -4.99      0.00 
    2    4   26     -5.00      0.00 
    3    4   26     -2.54      0.00 
    4    4   26     -0.34      0.00 
    5    4   26      0.14      0.00 
    6    4   26      0.06      0.00 
    7    4   26      0.41      0.00 
    8    4   26      0.50      0.00 
    9    4   26     -0.11      0.00 
   10    4   26     -0.46      0.00 
   11    4   26      0.14      0.00 
   12    4   26      1.03      0.00 
   13    4   26      1.34      0.00 
   14    4   26      1.10      0.00 
  -15    5   26      1.20      0.00 
  -14    5   26      1.31      0.00 
  -13    5   26      1.13      0.00 
  -12    5   26      1.02      0.00 
  -11    5   26      1.47      0.00 
  -10    5   26      2.31      0.00 
   -9    5   26      2.38      0.00 
   -8    5   26      0.90      0.00 
   -7    5   26     -1.13      0.00 
   -6    5   26     -2.18      0.00 
   -5    5   26     -2.25      0.00 
   -4    5   26     -2.48      0.00 
   -3    5   26     -3.39      0.00 
   -2    5   26     -4.78      0.00 
   -1    5   26     -6.19      0.00 
    0    5   26     -6.38      0.00 
    1    5   26     -4.05      0.00 
    2    5   26     -0.08      0.00 
    3    5   26      2.87      0.00 
    4    5   26      3.70      0.00 
    5    5   26      3.67      0.00 
    6    5   26      3.78      0.00 
    7    5   26      3.59      0.00 
    8    5   26      3.05      0.00 
    9    5   26      2.88      0.00 
   10    5   26      2.94      0.00 
   11    5   26      2.17      0.00 
   12    5   26      0.54      0.00 
   13    5   26     -0.75      0.00 
   14    5   26     -0.99      0.00 
  -14    6   26      0.02      0.00 
  -13    6   26      0.01      0.00 
  -12    6   26     -0.17      0.00 
  -11    6   26     -0.62      0.00 
  -10    6   26     -1.60      0.00 
   -9    6   26     -3.04      0.00 
   -8    6   26     -4.11      0.00 
   -7    6   26     -4.04      0.00 
   -6    6   26     -3.22      0.00 
   -5    6   26     -2.43      0.00 
   -4    6   26     -1.69      0.00 
   -3    6   26     -0.70      0.00 
   -2    6   26      0.30      0.00 
   -1    6   26      1.38      0.00 
    0    6   26      3.09      0.00 
    1    6   26      5.00      0.00 
    2    6   26      5.57      0.00 
    3    6   26      4.36      0.00 
    4    6   26      2.75      0.00 
    5    6   26      1.80      0.00 
    6    6   26      1.21      0.00 
    7    6   26      0.63      0.00 
    8    6   26      0.14      0.00 
    9    6   26     -0.68      0.00 
   10    6   26     -2.30      0.00 
   11    6   26     -3.95      0.00 
   12    6   26     -4.29      0.00 
   13    6   26     -3.18      0.00 
  -14    7   26     -0.55      0.00 
  -13    7   26     -1.05      0.00 
  -12    7   26     -1.93      0.00 
  -11    7   26     -2.41      0.00 
  -10    7   26     -1.89      0.00 
   -9    7   26     -0.50      0.00 
   -8    7   26      1.10      0.00 
   -7    7   26      2.19      0.00 
   -6    7   26      2.56      0.00 
   -5    7   26      2.52      0.00 
   -4    7   26      2.20      0.00 
   -3    7   26      1.32      0.00 
   -2    7   26      0.02      0.00 
   -1    7   26     -0.88      0.00 
    0    7   26     -0.99      0.00 
    1    7   26     -0.88      0.00 
    2    7   26     -0.98      0.00 
    3    7   26     -0.97      0.00 
    4    7   26     -0.71      0.00 
    5    7   26     -0.52      0.00 
    6    7   26     -0.44      0.00 
    7    7   26     -0.29      0.00 
    8    7   26     -0.37      0.00 
    9    7   26     -1.04      0.00 
   10    7   26     -1.82      0.00 
   11    7   26     -1.84      0.00 
   12    7   26     -1.11      0.00 
   13    7   26     -0.41      0.00 
  -13    8   26     -0.32      0.00 
  -12    8   26     -0.63      0.00 
  -11    8   26      0.02      0.00 
  -10    8   26      0.67      0.00 
   -9    8   26      0.21      0.00 
   -8    8   26     -1.21      0.00 
   -7    8   26     -2.51      0.00 
   -6    8   26     -3.05      0.00 
   -5    8   26     -3.16      0.00 
   -4    8   26     -3.36      0.00 
   -3    8   26     -3.39      0.00 
   -2    8   26     -2.60      0.00 
   -1    8   26     -0.85      0.00 
    0    8   26      1.23      0.00 
    1    8   26      2.91      0.00 
    2    8   26      3.73      0.00 
    3    8   26      3.47      0.00 
    4    8   26      2.57      0.00 
    5    8   26      1.99      0.00 
    6    8   26      1.98      0.00 
    7    8   26      1.57      0.00 
    8    8   26     -0.04      0.00 
    9    8   26     -2.06      0.00 
   10    8   26     -2.98      0.00 
   11    8   26     -2.41      0.00 
   12    8   26     -1.15      0.00 
  -12    9   26     -1.78      0.00 
  -11    9   26     -1.79      0.00 
  -10    9   26     -2.35      0.00 
   -9    9   26     -2.72      0.00 
   -8    9   26     -1.74      0.00 
   -7    9   26      0.41      0.00 
   -6    9   26      2.23      0.00 
   -5    9   26      2.79      0.00 
   -4    9   26      2.76      0.00 
   -3    9   26      3.18      0.00 
   -2    9   26      4.10      0.00 
   -1    9   26      4.73      0.00 
    0    9   26      4.47      0.00 
    1    9   26      3.07      0.00 
    2    9   26      0.81      0.00 
    3    9   26     -1.23      0.00 
    4    9   26     -1.87      0.00 
    5    9   26     -1.51      0.00 
    6    9   26     -1.96      0.00 
    7    9   26     -3.91      0.00 
    8    9   26     -5.58      0.00 
    9    9   26     -4.94      0.00 
   10    9   26     -2.33      0.00 
   11    9   26      0.18      0.00 
  -11   10   26      1.30      0.00 
  -10   10   26      1.71      0.00 
   -9   10   26      2.57      0.00 
   -8   10   26      3.34      0.00 
   -7   10   26      2.76      0.00 
   -6   10   26      0.59      0.00 
   -5   10   26     -1.52      0.00 
   -4   10   26     -1.94      0.00 
   -3   10   26     -0.96      0.00 
   -2   10   26     -0.17      0.00 
   -1   10   26     -0.48      0.00 
    0   10   26     -1.53      0.00 
    1   10   26     -2.44      0.00 
    2   10   26     -2.37      0.00 
    3   10   26     -1.20      0.00 
    4   10   26     -0.27      0.00 
    5   10   26     -1.29      0.00 
    6   10   26     -3.97      0.00 
    7   10   26     -5.72      0.00 
    8   10   26     -4.70      0.00 
    9   10   26     -2.14      0.00 
   10   10   26     -0.59      0.00 
  -10   11   26     -1.02      0.00 
   -9   11   26     -1.55      0.00 
   -8   11   26     -2.75      0.00 
   -7   11   26     -4.41      0.00 
   -6   11   26     -4.92      0.00 
   -5   11   26     -2.99      0.00 
   -4   11   26      0.31      0.00 
   -3   11   26      2.55      0.00 
   -2   11   26      2.66      0.00 
   -1   11   26      1.67      0.00 
    0   11   26      1.11      0.00 
    1   11   26      1.40      0.00 
    2   11   26      1.73      0.00 
    3   11   26      0.90      0.00 
    4   11   26     -1.40      0.00 
    5   11   26     -3.71      0.00 
    6   11   26     -4.04      0.00 
    7   11   26     -2.11      0.00 
    8   11   26      0.06      0.00 
    9   11   26      0.52      0.00 
   -8   12   26      0.12      0.00 
   -7   12   26      0.61      0.00 
   -6   12   26      2.33      0.00 
   -5   12   26      4.09      0.00 
   -4   12   26      3.98      0.00 
   -3   12   26      1.85      0.00 
   -2   12   26     -0.43      0.00 
   -1   12   26     -1.04      0.00 
    0   12   26     -0.06      0.00 
    1   12   26      0.94      0.00 
    2   12   26      0.71      0.00 
    3   12   26     -0.32      0.00 
    4   12   26     -0.74      0.00 
    5   12   26      0.00      0.00 
    6   12   26      0.85      0.00 
    7   12   26      0.58      0.00 
   -6   13   26      0.43      0.00 
   -5   13   26     -0.15      0.00 
   -4   13   26     -1.42      0.00 
   -3   13   26     -2.07      0.00 
   -2   13   26     -1.33      0.00 
   -1   13   26      0.10      0.00 
    0   13   26      0.71      0.00 
    1   13   26     -0.20      0.00 
    2   13   26     -1.55      0.00 
    3   13   26     -1.86      0.00 
    4   13   26     -1.31      0.00 
    5   13   26     -1.38      0.00 
   -1   14   26      0.32      0.00 
    0   14   26     -0.39      0.00 
  -15    1   27     -1.44      0.00 
  -14    1   27     -2.47      0.00 
  -13    1   27     -3.74      0.00 
  -12    1   27     -5.00      0.00 
  -11    1   27     -5.69      0.00 
  -10    1   27     -4.94      0.00 
   -9    1   27     -2.46      0.00 
   -8    1   27      0.62      0.00 
   -7    1   27      2.40      0.00 
   -6    1   27      2.27      0.00 
   -5    1   27      1.63      0.00 
   -4    1   27      2.15      0.00 
   -3    1   27      3.70      0.00 
   -2    1   27      4.74      0.00 
   -1    1   27      4.30      0.00 
    0    1   27      2.83      0.00 
    1    1   27      1.27      0.00 
    2    1   27      0.10      0.00 
    3    1   27     -0.65      0.00 
    4    1   27     -1.15      0.00 
    5    1   27     -1.73      0.00 
    6    1   27     -2.50      0.00 
    7    1   27     -2.87      0.00 
    8    1   27     -2.20      0.00 
    9    1   27     -0.75      0.00 
   10    1   27      0.43      0.00 
   11    1   27      0.62      0.00 
   12    1   27      0.01      0.00 
   13    1   27     -0.66      0.00 
   14    1   27     -0.87      0.00 
  -15    2   27     -2.53      0.00 
  -14    2   27     -3.63      0.00 
  -13    2   27     -3.65      0.00 
  -12    2   27     -1.86      0.00 
  -11    2   27      1.80      0.00 
  -10    2   27      6.18      0.00 
   -9    2   27      8.85      0.00 
   -8    2   27      7.97      0.00 
   -7    2   27      4.57      0.00 
   -6    2   27      2.00      0.00 
   -5    2   27      2.49      0.00 
   -4    2   27      4.55      0.00 
   -3    2   27      4.94      0.00 
   -2    2   27      2.59      0.00 
   -1    2   27     -0.66      0.00 
    0    2   27     -2.77      0.00 
    1    2   27     -3.49      0.00 
    2    2   27     -3.60      0.00 
    3    2   27     -3.67      0.00 
    4    2   27     -3.96      0.00 
    5    2   27     -4.30      0.00 
    6    2   27     -3.81      0.00 
    7    2   27     -1.86      0.00 
    8    2   27      0.59      0.00 
    9    2   27      1.72      0.00 
   10    2   27      1.04      0.00 
   11    2   27     -0.16      0.00 
   12    2   27     -0.60      0.00 
   13    2   27     -0.24      0.00 
   14    2   27      0.20      0.00 
  -15    3   27     -1.82      0.00 
  -14    3   27     -1.46      0.00 
  -13    3   27      0.66      0.00 
  -12    3   27      3.59      0.00 
  -11    3   27      5.47      0.00 
  -10    3   27      4.68      0.00 
   -9    3   27      1.36      0.00 
   -8    3   27     -1.97      0.00 
   -7    3   27     -2.30      0.00 
   -6    3   27      0.53      0.00 
   -5    3   27      3.11      0.00 
   -4    3   27      2.06      0.00 
   -3    3   27     -2.02      0.00 
   -2    3   27     -5.36      0.00 
   -1    3   27     -5.60      0.00 
    0    3   27     -3.96      0.00 
    1    3   27     -2.80      0.00 
    2    3   27     -2.74      0.00 
    3    3   27     -3.05      0.00 
    4    3   27     -2.96      0.00 
    5    3   27     -1.86      0.00 
    6    3   27      0.31      0.00 
    7    3   27      2.28      0.00 
    8    3   27      2.43      0.00 
    9    3   27      1.06      0.00 
   10    3   27      0.21      0.00 
   11    3   27      0.84      0.00 
   12    3   27      1.81      0.00 
   13    3   27      1.82      0.00 
   14    3   27      1.06      0.00 
  -15    4   27     -0.99      0.00 
  -14    4   27      0.61      0.00 
  -13    4   27      2.51      0.00 
  -12    4   27      3.08      0.00 
  -11    4   27      1.66      0.00 
  -10    4   27     -0.51      0.00 
   -9    4   27     -1.08      0.00 
   -8    4   27      1.03      0.00 
   -7    4   27      3.92      0.00 
   -6    4   27      4.17      0.00 
   -5    4   27      0.46      0.00 
   -4    4   27     -4.37      0.00 
   -3    4   27     -6.08      0.00 
   -2    4   27     -3.75      0.00 
   -1    4   27     -0.68      0.00 
    0    4   27     -0.07      0.00 
    1    4   27     -1.46      0.00 
    2    4   27     -2.32      0.00 
    3    4   27     -1.45      0.00 
    4    4   27      0.60      0.00 
    5    4   27      2.84      0.00 
    6    4   27      4.20      0.00 
    7    4   27      3.84      0.00 
    8    4   27      2.37      0.00 
    9    4   27      1.61      0.00 
   10    4   27      2.04      0.00 
   11    4   27      2.10      0.00 
   12    4   27      0.78      0.00 
   13    4   27     -0.73      0.00 
  -14    5   27      2.07      0.00 
  -13    5   27      2.18      0.00 
  -12    5   27      0.63      0.00 
  -11    5   27     -1.07      0.00 
  -10    5   27     -0.85      0.00 
   -9    5   27      1.28      0.00 
   -8    5   27      2.69      0.00 
   -7    5   27      1.00      0.00 
   -6    5   27     -2.97      0.00 
   -5    5   27     -5.60      0.00 
   -4    5   27     -4.15      0.00 
   -3    5   27      0.09      0.00 
   -2    5   27      2.85      0.00 
   -1    5   27      1.55      0.00 
    0    5   27     -1.77      0.00 
    1    5   27     -3.24      0.00 
    2    5   27     -1.75      0.00 
    3    5   27      0.70      0.00 
    4    5   27      2.23      0.00 
    5    5   27      2.41      0.00 
    6    5   27      1.38      0.00 
    7    5   27     -0.15      0.00 
    8    5   27     -0.85      0.00 
    9    5   27     -0.37      0.00 
   10    5   27     -0.22      0.00 
   11    5   27     -1.31      0.00 
   12    5   27     -2.25      0.00 
   13    5   27     -1.57      0.00 
  -14    6   27      0.37      0.00 
  -13    6   27     -1.25      0.00 
  -12    6   27     -2.55      0.00 
  -11    6   27     -1.75      0.00 
  -10    6   27      0.56      0.00 
   -9    6   27      1.56      0.00 
   -8    6   27     -0.20      0.00 
   -7    6   27     -2.82      0.00 
   -6    6   27     -3.20      0.00 
   -5    6   27     -0.66      0.00 
   -4    6   27      2.22      0.00 
   -3    6   27      2.07      0.00 
   -2    6   27     -1.63      0.00 
   -1    6   27     -5.49      0.00 
    0    6   27     -5.58      0.00 
    1    6   27     -1.80      0.00 
    2    6   27      2.35      0.00 
    3    6   27      4.05      0.00 
    4    6   27      3.43      0.00 
    5    6   27      1.95      0.00 
    6    6   27      0.84      0.00 
    7    6   27      1.01      0.00 
    8    6   27      2.15      0.00 
    9    6   27      2.39      0.00 
   10    6   27      0.68      0.00 
   11    6   27     -1.28      0.00 
   12    6   27     -1.42      0.00 
  -13    7   27     -1.45      0.00 
  -12    7   27     -0.63      0.00 
  -11    7   27      0.60      0.00 
  -10    7   27      0.11      0.00 
   -9    7   27     -2.35      0.00 
   -8    7   27     -4.31      0.00 
   -7    7   27     -3.58      0.00 
   -6    7   27     -0.94      0.00 
   -5    7   27      0.77      0.00 
   -4    7   27     -0.24      0.00 
   -3    7   27     -2.87      0.00 
   -2    7   27     -3.96      0.00 
   -1    7   27     -1.24      0.00 
    0    7   27      3.80      0.00 
    1    7   27      7.10      0.00 
    2    7   27      6.42      0.00 
    3    7   27      3.34      0.00 
    4    7   27      0.78      0.00 
    5    7   27      0.13      0.00 
    6    7   27      0.99      0.00 
    7    7   27      1.80      0.00 
    8    7   27      0.72      0.00 
    9    7   27     -2.28      0.00 
   10    7   27     -4.54      0.00 
   11    7   27     -3.95      0.00 
   12    7   27     -1.80      0.00 
  -12    8   27     -0.74      0.00 
  -11    8   27     -1.63      0.00 
  -10    8   27     -2.65      0.00 
   -9    8   27     -1.95      0.00 
   -8    8   27      0.98      0.00 
   -7    8   27      4.17      0.00 
   -6    8   27      5.06      0.00 
   -5    8   27      3.15      0.00 
   -4    8   27      0.48      0.00 
   -3    8   27     -0.28      0.00 
   -2    8   27      1.67      0.00 
   -1    8   27      4.14      0.00 
    0    8   27      4.02      0.00 
    1    8   27      0.78      0.00 
    2    8   27     -2.81      0.00 
    3    8   27     -4.03      0.00 
    4    8   27     -2.93      0.00 
    5    8   27     -1.43      0.00 
    6    8   27     -1.16      0.00 
    7    8   27     -2.58      0.00 
    8    8   27     -4.38      0.00 
    9    8   27     -4.26      0.00 
   10    8   27     -1.68      0.00 
   11    8   27      0.91      0.00 
  -11    9   27      0.16      0.00 
  -10    9   27      1.30      0.00 
   -9    9   27      2.74      0.00 
   -8    9   27      2.88      0.00 
   -7    9   27      0.72      0.00 
   -6    9   27     -2.76      0.00 
   -5    9   27     -5.16      0.00 
   -4    9   27     -4.70      0.00 
   -3    9   27     -1.98      0.00 
   -2    9   27      0.27      0.00 
   -1    9   27     -0.12      0.00 
    0    9   27     -2.20      0.00 
    1    9   27     -3.01      0.00 
    2    9   27     -1.26      0.00 
    3    9   27      1.21      0.00 
    4    9   27      2.07      0.00 
    5    9   27      1.01      0.00 
    6    9   27     -0.82      0.00 
    7    9   27     -2.05      0.00 
    8    9   27     -1.75      0.00 
    9    9   27     -0.32      0.00 
   10    9   27      0.45      0.00 
  -10   10   27     -0.67      0.00 
   -9   10   27     -1.51      0.00 
   -8   10   27     -2.98      0.00 
   -7   10   27     -4.00      0.00 
   -6   10   27     -3.29      0.00 
   -5   10   27     -0.52      0.00 
   -4   10   27      2.88      0.00 
   -3   10   27      4.64      0.00 
   -2   10   27      3.73      0.00 
   -1   10   27      1.85      0.00 
    0   10   27      1.51      0.00 
    1   10   27      2.78      0.00 
    2   10   27      3.22      0.00 
    3   10   27      1.45      0.00 
    4   10   27     -1.11      0.00 
    5   10   27     -2.64      0.00 
    6   10   27     -2.99      0.00 
    7   10   27     -2.76      0.00 
    8   10   27     -2.29      0.00 
    9   10   27     -1.98      0.00 
   -9   11   27      0.71      0.00 
   -8   11   27      0.82      0.00 
   -7   11   27      1.54      0.00 
   -6   11   27      2.54      0.00 
   -5   11   27      3.07      0.00 
   -4   11   27      2.40      0.00 
   -3   11   27      0.55      0.00 
   -2   11   27     -1.18      0.00 
   -1   11   27     -1.26      0.00 
    0   11   27     -0.04      0.00 
    1   11   27      0.44      0.00 
    2   11   27     -0.58      0.00 
    3   11   27     -1.53      0.00 
    4   11   27     -1.31      0.00 
    5   11   27     -1.07      0.00 
    6   11   27     -1.98      0.00 
    7   11   27     -3.23      0.00 
    8   11   27     -3.61      0.00 
   -7   12   27     -1.45      0.00 
   -6   12   27     -1.78      0.00 
   -5   12   27     -1.73      0.00 
   -4   12   27     -1.34      0.00 
   -3   12   27     -0.80      0.00 
   -2   12   27      0.10      0.00 
   -1   12   27      1.20      0.00 
    0   12   27      1.45      0.00 
    1   12   27      0.48      0.00 
    2   12   27     -0.47      0.00 
    3   12   27     -0.58      0.00 
    4   12   27     -0.90      0.00 
    5   12   27     -2.22      0.00 
    6   12   27     -3.24      0.00 
   -4   13   27      1.63      0.00 
   -3   13   27      0.87      0.00 
   -2   13   27      0.33      0.00 
   -1   13   27      0.13      0.00 
    0   13   27     -0.08      0.00 
    1   13   27      0.08      0.00 
    2   13   27      0.85      0.00 
    3   13   27      1.33      0.00 
  -15    0   28      0.28      0.00 
  -14    0   28     -2.69      0.00 
  -13    0   28     -6.10      0.00 
  -12    0   28     -8.47      0.00 
  -11    0   28     -8.77      0.00 
  -10    0   28     -5.68      0.00 
   -9    0   28      0.23      0.00 
   -8    0   28      4.99      0.00 
   -7    0   28      4.90      0.00 
   -6    0   28      1.63      0.00 
   -5    0   28      0.64      0.00 
   -4    0   28      4.64      0.00 
   -3    0   28     10.60      0.00 
   -2    0   28     13.17      0.00 
   -1    0   28      9.93      0.00 
    0    0   28      3.44      0.00 
    1    0   28     -1.27      0.00 
    2    0   28     -1.78      0.00 
    3    0   28     -0.52      0.00 
    4    0   28     -1.18      0.00 
    5    0   28     -3.87      0.00 
    6    0   28     -5.64      0.00 
    7    0   28     -5.02      0.00 
    8    0   28     -3.45      0.00 
    9    0   28     -2.27      0.00 
   10    0   28     -1.07      0.00 
   11    0   28      0.31      0.00 
   12    0   28      0.72      0.00 
   13    0   28     -0.27      0.00 
  -15    1   28     -3.34      0.00 
  -14    1   28     -4.74      0.00 
  -13    1   28     -3.83      0.00 
  -12    1   28     -0.80      0.00 
  -11    1   28      3.64      0.00 
  -10    1   28      7.77      0.00 
   -9    1   28      8.64      0.00 
   -8    1   28      5.07      0.00 
   -7    1   28      0.50      0.00 
   -6    1   28     -0.24      0.00 
   -5    1   28      3.32      0.00 
   -4    1   28      6.71      0.00 
   -3    1   28      5.64      0.00 
   -2    1   28      0.27      0.00 
   -1    1   28     -5.27      0.00 
    0    1   28     -6.86      0.00 
    1    1   28     -4.33      0.00 
    2    1   28     -1.49      0.00 
    3    1   28     -1.62      0.00 
    4    1   28     -3.67      0.00 
    5    1   28     -4.25      0.00 
    6    1   28     -2.47      0.00 
    7    1   28     -0.45      0.00 
    8    1   28      0.35      0.00 
    9    1   28      0.69      0.00 
   10    1   28      1.21      0.00 
   11    1   28      1.12      0.00 
   12    1   28      0.06      0.00 
   13    1   28     -0.80      0.00 
  -14    2   28     -1.53      0.00 
  -13    2   28      0.49      0.00 
  -12    2   28      2.12      0.00 
  -11    2   28      2.28      0.00 
  -10    2   28      0.24      0.00 
   -9    2   28     -3.06      0.00 
   -8    2   28     -4.52      0.00 
   -7    2   28     -2.05      0.00 
   -6    2   28      2.35      0.00 
   -5    2   28      4.41      0.00 
   -4    2   28      2.19      0.00 
   -3    2   28     -2.13      0.00 
   -2    2   28     -4.65      0.00 
   -1    2   28     -3.26      0.00 
    0    2   28      0.35      0.00 
    1    2   28      2.22      0.00 
    2    2   28      0.48      0.00 
    3    2   28     -2.47      0.00 
    4    2   28     -3.23      0.00 
    5    2   28     -1.75      0.00 
    6    2   28     -0.51      0.00 
    7    2   28     -0.46      0.00 
    8    2   28     -0.31      0.00 
    9    2   28      0.59      0.00 
   10    2   28      1.15      0.00 
   11    2   28      0.68      0.00 
   12    2   28      0.01      0.00 
   13    2   28     -0.02      0.00 
  -14    3   28      0.16      0.00 
  -13    3   28      1.10      0.00 
  -12    3   28      1.52      0.00 
  -11    3   28      1.39      0.00 
  -10    3   28      1.46      0.00 
   -9    3   28      2.95      0.00 
   -8    3   28      5.70      0.00 
   -7    3   28      7.35      0.00 
   -6    3   28      5.85      0.00 
   -5    3   28      1.91      0.00 
   -4    3   28     -1.72      0.00 
   -3    3   28     -2.80      0.00 
   -2    3   28     -1.23      0.00 
   -1    3   28      0.77      0.00 
    0    3   28      0.29      0.00 
    1    3   28     -2.98      0.00 
    2    3   28     -5.89      0.00 
    3    3   28     -5.63      0.00 
    4    3   28     -3.23      0.00 
    5    3   28     -1.40      0.00 
    6    3   28     -0.58      0.00 
    7    3   28      0.58      0.00 
    8    3   28      2.09      0.00 
    9    3   28      2.51      0.00 
   10    3   28      1.52      0.00 
   11    3   28      0.39      0.00 
   12    3   28      0.08      0.00 
   13    3   28      0.32      0.00 
  -14    4   28      1.74      0.00 
  -13    4   28      2.05      0.00 
  -12    4   28      1.80      0.00 
  -11    4   28      1.43      0.00 
  -10    4   28      1.66      0.00 
   -9    4   28      2.17      0.00 
   -8    4   28      1.53      0.00 
   -7    4   28     -0.79      0.00 
   -6    4   28     -3.44      0.00 
   -5    4   28     -4.76      0.00 
   -4    4   28     -4.32      0.00 
   -3    4   28     -2.74      0.00 
   -2    4   28     -1.39      0.00 
   -1    4   28     -1.94      0.00 
    0    4   28     -4.24      0.00 
    1    4   28     -5.59      0.00 
    2    4   28     -3.97      0.00 
    3    4   28     -0.94      0.00 
    4    4   28      0.85      0.00 
    5    4   28      1.35      0.00 
    6    4   28      2.01      0.00 
    7    4   28      2.61      0.00 
    8    4   28      1.99      0.00 
    9    4   28      0.61      0.00 
   10    4   28     -0.03      0.00 
   11    4   28      0.39      0.00 
   12    4   28      0.97      0.00 
  -13    5   28     -0.94      0.00 
  -12    5   28     -1.40      0.00 
  -11    5   28     -1.14      0.00 
  -10    5   28     -0.40      0.00 
   -9    5   28     -0.18      0.00 
   -8    5   28     -0.75      0.00 
   -7    5   28     -1.25      0.00 
   -6    5   28     -1.05      0.00 
   -5    5   28     -0.45      0.00 
   -4    5   28      0.21      0.00 
   -3    5   28      0.59      0.00 
   -2    5   28     -0.12      0.00 
   -1    5   28     -1.90      0.00 
    0    5   28     -2.69      0.00 
    1    5   28     -0.88      0.00 
    2    5   28      2.02      0.00 
    3    5   28      3.39      0.00 
    4    5   28      3.15      0.00 
    5    5   28      2.93      0.00 
    6    5   28      2.89      0.00 
    7    5   28      2.22      0.00 
    8    5   28      1.31      0.00 
    9    5   28      1.08      0.00 
   10    5   28      1.10      0.00 
   11    5   28      0.45      0.00 
   12    5   28     -0.56      0.00 
  -13    6   28     -0.17      0.00 
  -12    6   28      0.22      0.00 
  -11    6   28      0.39      0.00 
  -10    6   28      0.11      0.00 
   -9    6   28     -0.49      0.00 
   -8    6   28     -0.93      0.00 
   -7    6   28     -1.06      0.00 
   -6    6   28     -1.15      0.00 
   -5    6   28     -1.19      0.00 
   -4    6   28     -0.98      0.00 
   -3    6   28     -0.93      0.00 
   -2    6   28     -1.39      0.00 
   -1    6   28     -1.35      0.00 
    0    6   28      0.19      0.00 
    1    6   28      2.04      0.00 
    2    6   28      2.22      0.00 
    3    6   28      0.98      0.00 
    4    6   28      0.17      0.00 
    5    6   28      0.19      0.00 
    6    6   28      0.10      0.00 
    7    6   28     -0.31      0.00 
    8    6   28     -0.59      0.00 
    9    6   28     -1.03      0.00 
   10    6   28     -2.05      0.00 
   11    6   28     -2.93      0.00 
   12    6   28     -2.71      0.00 
  -12    7   28     -1.27      0.00 
  -11    7   28     -1.84      0.00 
  -10    7   28     -1.52      0.00 
   -9    7   28     -0.52      0.00 
   -8    7   28      0.53      0.00 
   -7    7   28      1.14      0.00 
   -6    7   28      1.34      0.00 
   -5    7   28      1.39      0.00 
   -4    7   28      1.14      0.00 
   -3    7   28      0.38      0.00 
   -2    7   28     -0.41      0.00 
   -1    7   28     -0.54      0.00 
    0    7   28     -0.27      0.00 
    1    7   28     -0.41      0.00 
    2    7   28     -0.75      0.00 
    3    7   28     -0.54      0.00 
    4    7   28     -0.01      0.00 
    5    7   28      0.06      0.00 
    6    7   28     -0.16      0.00 
    7    7   28      0.01      0.00 
    8    7   28      0.26      0.00 
    9    7   28     -0.08      0.00 
   10    7   28     -0.69      0.00 
   11    7   28     -0.70      0.00 
  -11    8   28      0.13      0.00 
  -10    8   28      1.07      0.00 
   -9    8   28      1.07      0.00 
   -8    8   28      0.10      0.00 
   -7    8   28     -1.13      0.00 
   -6    8   28     -1.94      0.00 
   -5    8   28     -2.22      0.00 
   -4    8   28     -2.27      0.00 
   -3    8   28     -2.25      0.00 
   -2    8   28     -1.95      0.00 
   -1    8   28     -1.14      0.00 
    0    8   28      0.07      0.00 
    1    8   28      1.38      0.00 
    2    8   28      2.24      0.00 
    3    8   28      2.17      0.00 
    4    8   28      1.42      0.00 
    5    8   28      0.99      0.00 
    6    8   28      1.18      0.00 
    7    8   28      0.97      0.00 
    8    8   28     -0.41      0.00 
    9    8   28     -2.02      0.00 
   10    8   28     -2.32      0.00 
  -10    9   28     -0.52      0.00 
   -9    9   28     -1.14      0.00 
   -8    9   28     -1.03      0.00 
   -7    9   28      0.03      0.00 
   -6    9   28      1.34      0.00 
   -5    9   28      2.01      0.00 
   -4    9   28      1.83      0.00 
   -3    9   28      1.43      0.00 
   -2    9   28      1.57      0.00 
   -1    9   28      2.28      0.00 
    0    9   28      2.78      0.00 
    1    9   28      2.11      0.00 
    2    9   28      0.28      0.00 
    3    9   28     -1.47      0.00 
    4    9   28     -2.04      0.00 
    5    9   28     -1.98      0.00 
    6    9   28     -2.75      0.00 
    7    9   28     -4.38      0.00 
    8    9   28     -5.08      0.00 
    9    9   28     -3.60      0.00 
   -9   10   28      1.27      0.00 
   -8   10   28      1.76      0.00 
   -7   10   28      1.55      0.00 
   -6   10   28      0.12      0.00 
   -5   10   28     -1.66      0.00 
   -4   10   28     -2.35      0.00 
   -3   10   28     -1.59      0.00 
   -2   10   28     -0.40      0.00 
   -1   10   28     -0.01      0.00 
    0   10   28     -0.72      0.00 
    1   10   28     -1.64      0.00 
    2   10   28     -1.59      0.00 
    3   10   28     -0.54      0.00 
    4   10   28      0.06      0.00 
    5   10   28     -0.97      0.00 
    6   10   28     -2.72      0.00 
    7   10   28     -3.15      0.00 
    8   10   28     -1.75      0.00 
   -8   11   28     -1.83      0.00 
   -7   11   28     -3.09      0.00 
   -6   11   28     -3.56      0.00 
   -5   11   28     -1.97      0.00 
   -4   11   28      0.88      0.00 
   -3   11   28      2.88      0.00 
   -2   11   28      2.92      0.00 
   -1   11   28      1.87      0.00 
    0   11   28      1.22      0.00 
    1   11   28      1.51      0.00 
    2   11   28      1.83      0.00 
    3   11   28      0.97      0.00 
    4   11   28     -0.95      0.00 
    5   11   28     -2.41      0.00 
    6   11   28     -2.19      0.00 
   -5   12   28      3.33      0.00 
   -4   12   28      3.12      0.00 
   -3   12   28      1.24      0.00 
   -2   12   28     -0.60      0.00 
   -1   12   28     -0.94      0.00 
    0   12   28      0.04      0.00 
    1   12   28      0.90      0.00 
    2   12   28      0.67      0.00 
    3   12   28     -0.06      0.00 
    4   12   28     -0.13      0.00 
  -14    1   29     -1.44      0.00 
  -13    1   29     -2.11      0.00 
  -12    1   29     -3.07      0.00 
  -11    1   29     -3.90      0.00 
  -10    1   29     -3.39      0.00 
   -9    1   29     -1.02      0.00 
   -8    1   29      1.90      0.00 
   -7    1   29      3.40      0.00 
   -6    1   29      3.20      0.00 
   -5    1   29      3.06      0.00 
   -4    1   29      4.34      0.00 
   -3    1   29      6.17      0.00 
   -2    1   29      6.65      0.00 
   -1    1   29      5.22      0.00 
    0    1   29      2.89      0.00 
    1    1   29      0.69      0.00 
    2    1   29     -1.08      0.00 
    3    1   29     -2.38      0.00 
    4    1   29     -3.26      0.00 
    5    1   29     -4.00      0.00 
    6    1   29     -4.62      0.00 
    7    1   29     -4.49      0.00 
    8    1   29     -3.16      0.00 
    9    1   29     -1.26      0.00 
   10    1   29      0.12      0.00 
   11    1   29      0.46      0.00 
   12    1   29      0.08      0.00 
  -14    2   29     -1.90      0.00 
  -13    2   29     -1.53      0.00 
  -12    2   29     -0.06      0.00 
  -11    2   29      3.09      0.00 
  -10    2   29      7.10      0.00 
   -9    2   29      9.29      0.00 
   -8    2   29      7.61      0.00 
   -7    2   29      3.55      0.00 
   -6    2   29      0.92      0.00 
   -5    2   29      1.45      0.00 
   -4    2   29      2.78      0.00 
   -3    2   29      1.70      0.00 
   -2    2   29     -1.74      0.00 
   -1    2   29     -4.93      0.00 
    0    2   29     -6.28      0.00 
    1    2   29     -6.36      0.00 
    2    2   29     -5.96      0.00 
    3    2   29     -5.30      0.00 
    4    2   29     -4.59      0.00 
    5    2   29     -3.84      0.00 
    6    2   29     -2.26      0.00 
    7    2   29      0.40      0.00 
    8    2   29      2.77      0.00 
    9    2   29      3.24      0.00 
   10    2   29      2.07      0.00 
   11    2   29      0.74      0.00 
   12    2   29      0.15      0.00 
  -13    3   29      1.18      0.00 
  -12    3   29      2.71      0.00 
  -11    3   29      3.62      0.00 
  -10    3   29      2.13      0.00 
   -9    3   29     -1.84      0.00 
   -8    3   29     -5.50      0.00 
   -7    3   29     -5.60      0.00 
   -6    3   29     -2.45      0.00 
   -5    3   29     -0.09      0.00 
   -4    3   29     -1.50      0.00 
   -3    3   29     -4.85      0.00 
   -2    3   29     -6.15      0.00 
   -1    3   29     -4.41      0.00 
    0    3   29     -2.01      0.00 
    1    3   29     -0.80      0.00 
    2    3   29     -0.47      0.00 
    3    3   29     -0.38      0.00 
    4    3   29     -0.28      0.00 
    5    3   29      0.50      0.00 
    6    3   29      2.16      0.00 
    7    3   29      3.25      0.00 
    8    3   29      2.42      0.00 
    9    3   29      0.68      0.00 
   10    3   29      0.01      0.00 
   11    3   29      0.55      0.00 
   12    3   29      1.03      0.00 
  -13    4   29      0.50      0.00 
  -12    4   29      0.86      0.00 
  -11    4   29     -0.12      0.00 
  -10    4   29     -1.65      0.00 
   -9    4   29     -1.55      0.00 
   -8    4   29      1.26      0.00 
   -7    4   29      4.68      0.00 
   -6    4   29      5.15      0.00 
   -5    4   29      1.79      0.00 
   -4    4   29     -1.97      0.00 
   -3    4   29     -2.29      0.00 
   -2    4   29      0.28      0.00 
   -1    4   29      1.94      0.00 
    0    4   29      0.85      0.00 
    1    4   29     -1.19      0.00 
    2    4   29     -2.22      0.00 
    3    4   29     -2.09      0.00 
    4    4   29     -1.05      0.00 
    5    4   29      0.70      0.00 
    6    4   29      1.91      0.00 
    7    4   29      1.40      0.00 
    8    4   29      0.20      0.00 
    9    4   29      0.10      0.00 
   10    4   29      0.75      0.00 
   11    4   29      0.53      0.00 
   12    4   29     -0.46      0.00 
  -13    5   29      1.46      0.00 
  -12    5   29      0.51      0.00 
  -11    5   29     -0.57      0.00 
  -10    5   29     -0.12      0.00 
   -9    5   29      1.66      0.00 
   -8    5   29      2.46      0.00 
   -7    5   29      0.37      0.00 
   -6    5   29     -3.62      0.00 
   -5    5   29     -6.06      0.00 
   -4    5   29     -4.64      0.00 
   -3    5   29     -1.16      0.00 
   -2    5   29      0.34      0.00 
   -1    5   29     -1.40      0.00 
    0    5   29     -3.67      0.00 
    1    5   29     -3.88      0.00 
    2    5   29     -2.31      0.00 
    3    5   29     -0.34      0.00 
    4    5   29      1.37      0.00 
    5    5   29      2.14      0.00 
    6    5   29      1.38      0.00 
    7    5   29      0.10      0.00 
    8    5   29     -0.08      0.00 
    9    5   29      0.42      0.00 
   10    5   29     -0.05      0.00 
   11    5   29     -1.22      0.00 
  -12    6   29     -2.57      0.00 
  -11    6   29     -1.94      0.00 
  -10    6   29     -0.33      0.00 
   -9    6   29      0.30      0.00 
   -8    6   29     -0.78      0.00 
   -7    6   29     -2.12      0.00 
   -6    6   29     -1.60      0.00 
   -5    6   29      1.20      0.00 
   -4    6   29      4.05      0.00 
   -3    6   29      4.00      0.00 
   -2    6   29      0.89      0.00 
   -1    6   29     -2.03      0.00 
    0    6   29     -1.89      0.00 
    1    6   29      0.68      0.00 
    2    6   29      3.08      0.00 
    3    6   29      3.87      0.00 
    4    6   29      3.04      0.00 
    5    6   29      1.31      0.00 
    6    6   29      0.08      0.00 
    7    6   29      0.48      0.00 
    8    6   29      1.46      0.00 
    9    6   29      1.02      0.00 
   10    6   29     -0.55      0.00 
   11    6   29     -1.15      0.00 
  -11    7   29      1.31      0.00 
  -10    7   29      1.23      0.00 
   -9    7   29      0.04      0.00 
   -8    7   29     -0.91      0.00 
   -7    7   29     -0.55      0.00 
   -6    7   29      0.74      0.00 
   -5    7   29      1.36      0.00 
   -4    7   29     -0.11      0.00 
   -3    7   29     -2.99      0.00 
   -2    7   29     -4.45      0.00 
   -1    7   29     -2.56      0.00 
    0    7   29      1.11      0.00 
    1    7   29      3.27      0.00 
    2    7   29      2.50      0.00 
    3    7   29      0.19      0.00 
    4    7   29     -1.56      0.00 
    5    7   29     -1.55      0.00 
    6    7   29     -0.17      0.00 
    7    7   29      0.71      0.00 
    8    7   29     -0.40      0.00 
    9    7   29     -2.35      0.00 
   10    7   29     -2.75      0.00 
  -10    8   29     -1.27      0.00 
   -9    8   29     -0.87      0.00 
   -8    8   29      0.61      0.00 
   -7    8   29      2.16      0.00 
   -6    8   29      2.44      0.00 
   -5    8   29      0.89      0.00 
   -4    8   29     -1.26      0.00 
   -3    8   29     -1.80      0.00 
   -2    8   29      0.08      0.00 
   -1    8   29      2.37      0.00 
    0    8   29      2.38      0.00 
    1    8   29      0.00      0.00 
    2    8   29     -2.45      0.00 
    3    8   29     -3.04      0.00 
    4    8   29     -1.98      0.00 
    5    8   29     -0.78      0.00 
    6    8   29     -0.79      0.00 
    7    8   29     -1.92      0.00 
    8    8   29     -2.59      0.00 
    9    8   29     -1.49      0.00 
   -9    9   29      1.86      0.00 
   -8    9   29      1.74      0.00 
   -7    9   29      0.14      0.00 
   -6    9   29     -2.36      0.00 
   -5    9   29     -4.01      0.00 
   -4    9   29     -3.36      0.00 
   -3    9   29     -1.04      0.00 
   -2    9   29      0.51      0.00 
   -1    9   29     -0.19      0.00 
    0    9   29     -1.83      0.00 
    1    9   29     -2.10      0.00 
    2    9   29     -0.56      0.00 
    3    9   29      1.14      0.00 
    4    9   29      1.56      0.00 
    5    9   29      0.76      0.00 
    6    9   29     -0.28      0.00 
    7    9   29     -0.64      0.00 
    8    9   29     -0.13      0.00 
   -8   10   29     -1.70      0.00 
   -7   10   29     -2.54      0.00 
   -6   10   29     -1.90      0.00 
   -5   10   29      0.37      0.00 
   -4   10   29      2.76      0.00 
   -3   10   29      3.37      0.00 
   -2   10   29      2.12      0.00 
   -1   10   29      0.94      0.00 
    0   10   29      1.35      0.00 
    1   10   29      2.45      0.00 
    2   10   29      2.34      0.00 
    3   10   29      0.73      0.00 
    4   10   29     -1.00      0.00 
    5   10   29     -1.92      0.00 
    6   10   29     -2.22      0.00 
   -6   11   29      1.72      0.00 
   -5   11   29      2.03      0.00 
   -4   11   29      1.20      0.00 
   -3   11   29     -0.20      0.00 
   -2   11   29     -0.89      0.00 
   -1   11   29     -0.32      0.00 
    0   11   29      0.52      0.00 
    1   11   29      0.40      0.00 
    2   11   29     -0.35      0.00 
    3   11   29     -0.54      0.00 
    4   11   29     -0.14      0.00 
   -2   12   29      0.52      0.00 
   -1   12   29      0.93      0.00 
    0   12   29      0.81      0.00 
    1   12   29      0.36      0.00 
  -13    0   30     -3.30      0.00 
  -12    0   30     -4.06      0.00 
  -11    0   30     -4.03      0.00 
  -10    0   30     -1.32      0.00 
   -9    0   30      3.54      0.00 
   -8    0   30      6.57      0.00 
   -7    0   30      5.04      0.00 
   -6    0   30      1.73      0.00 
   -5    0   30      2.01      0.00 
   -4    0   30      7.30      0.00 
   -3    0   30     12.84      0.00 
   -2    0   30     12.74      0.00 
   -1    0   30      6.65      0.00 
    0    0   30      0.00      0.00 
    1    0   30     -2.56      0.00 
    2    0   30     -2.09      0.00 
    3    0   30     -2.44      0.00 
    4    0   30     -4.63      0.00 
    5    0   30     -6.38      0.00 
    6    0   30     -6.12      0.00 
    7    0   30     -4.83      0.00 
    8    0   30     -3.69      0.00 
    9    0   30     -2.35      0.00 
   10    0   30     -0.38      0.00 
   11    0   30      1.15      0.00 
   12    0   30      0.96      0.00 
  -13    1   30     -0.72      0.00 
  -12    1   30      1.14      0.00 
  -11    1   30      4.01      0.00 
  -10    1   30      6.65      0.00 
   -9    1   30      6.11      0.00 
   -8    1   30      1.81      0.00 
   -7    1   30     -2.33      0.00 
   -6    1   30     -2.10      0.00 
   -5    1   30      1.81      0.00 
   -4    1   30      4.20      0.00 
   -3    1   30      1.23      0.00 
   -2    1   30     -5.04      0.00 
   -1    1   30     -8.81      0.00 
    0    1   30     -7.28      0.00 
    1    1   30     -3.54      0.00 
    2    1   30     -1.98      0.00 
    3    1   30     -2.83      0.00 
    4    1   30     -3.10      0.00 
    5    1   30     -1.46      0.00 
    6    1   30      0.49      0.00 
    7    1   30      1.34      0.00 
    8    1   30      1.68      0.00 
    9    1   30      2.26      0.00 
   10    1   30      2.47      0.00 
   11    1   30      1.48      0.00 
  -13    2   30      1.18      0.00 
  -12    2   30      1.33      0.00 
  -11    2   30      0.69      0.00 
  -10    2   30     -1.65      0.00 
   -9    2   30     -4.68      0.00 
   -8    2   30     -5.35      0.00 
   -7    2   30     -2.21      0.00 
   -6    2   30      2.21      0.00 
   -5    2   30      3.70      0.00 
   -4    2   30      0.90      0.00 
   -3    2   30     -3.07      0.00 
   -2    2   30     -3.73      0.00 
   -1    2   30     -0.38      0.00 
    0    2   30      3.00      0.00 
    1    2   30      2.75      0.00 
    2    2   30     -0.04      0.00 
    3    2   30     -1.77      0.00 
    4    2   30     -1.40      0.00 
    5    2   30     -0.90      0.00 
    6    2   30     -1.32      0.00 
    7    2   30     -1.51      0.00 
    8    2   30     -0.62      0.00 
    9    2   30      0.41      0.00 
   10    2   30      0.48      0.00 
   11    2   30     -0.09      0.00 
  -13    3   30      0.04      0.00 
  -12    3   30      0.51      0.00 
  -11    3   30      0.73      0.00 
  -10    3   30      1.18      0.00 
   -9    3   30      2.89      0.00 
   -8    3   30      5.33      0.00 
   -7    3   30      6.30      0.00 
   -6    3   30      4.25      0.00 
   -5    3   30      0.10      0.00 
   -4    3   30     -3.30      0.00 
   -3    3   30     -3.53      0.00 
   -2    3   30     -1.16      0.00 
   -1    3   30      0.31      0.00 
    0    3   30     -1.60      0.00 
    1    3   30     -5.03      0.00 
    2    3   30     -6.32      0.00 
    3    3   30     -4.93      0.00 
    4    3   30     -3.26      0.00 
    5    3   30     -2.36      0.00 
    6    3   30     -1.02      0.00 
    7    3   30      1.14      0.00 
    8    3   30      2.52      0.00 
    9    3   30      2.07      0.00 
   10    3   30      0.70      0.00 
   11    3   30     -0.16      0.00 
  -12    4   30      0.77      0.00 
  -11    4   30      0.22      0.00 
  -10    4   30      0.14      0.00 
   -9    4   30      0.07      0.00 
   -8    4   30     -1.04      0.00 
   -7    4   30     -3.26      0.00 
   -6    4   30     -5.47      0.00 
   -5    4   30     -6.40      0.00 
   -4    4   30     -5.24      0.00 
   -3    4   30     -2.48      0.00 
   -2    4   30     -0.42      0.00 
   -1    4   30     -0.98      0.00 
    0    4   30     -2.80      0.00 
    1    4   30     -2.79      0.00 
    2    4   30     -0.57      0.00 
    3    4   30      1.36      0.00 
    4    4   30      1.87      0.00 
    5    4   30      2.33      0.00 
    6    4   30      3.29      0.00 
    7    4   30      3.27      0.00 
    8    4   30      1.66      0.00 
    9    4   30     -0.05      0.00 
   10    4   30     -0.52      0.00 
   11    4   30     -0.09      0.00 
  -12    5   30     -1.97      0.00 
  -11    5   30     -1.71      0.00 
  -10    5   30     -0.94      0.00 
   -9    5   30     -0.40      0.00 
   -8    5   30     -0.13      0.00 
   -7    5   30      0.29      0.00 
   -6    5   30      1.03      0.00 
   -5    5   30      2.29      0.00 
   -4    5   30      4.08      0.00 
   -3    5   30      5.08      0.00 
   -2    5   30      3.69      0.00 
   -1    5   30      0.85      0.00 
    0    5   30     -0.40      0.00 
    1    5   30      0.79      0.00 
    2    5   30      1.99      0.00 
    3    5   30      1.59      0.00 
    4    5   30      0.86      0.00 
    5    5   30      0.92      0.00 
    6    5   30      0.79      0.00 
    7    5   30     -0.22      0.00 
    8    5   30     -0.99      0.00 
    9    5   30     -0.74      0.00 
   10    5   30     -0.29      0.00 
  -11    6   30      1.09      0.00 
  -10    6   30      1.35      0.00 
   -9    6   30      1.20      0.00 
   -8    6   30      0.78      0.00 
   -7    6   30      0.13      0.00 
   -6    6   30     -0.49      0.00 
   -5    6   30     -0.68      0.00 
   -4    6   30     -0.91      0.00 
   -3    6   30     -2.21      0.00 
   -2    6   30     -4.01      0.00 
   -1    6   30     -4.12      0.00 
    0    6   30     -2.11      0.00 
    1    6   30     -0.43      0.00 
    2    6   30     -0.75      0.00 
    3    6   30     -1.60      0.00 
    4    6   30     -1.27      0.00 
    5    6   30     -0.47      0.00 
    6    6   30     -0.38      0.00 
    7    6   30     -0.54      0.00 
    8    6   30     -0.24      0.00 
    9    6   30     -0.12      0.00 
   10    6   30     -0.69      0.00 
  -10    7   30     -0.82      0.00 
   -9    7   30     -0.51      0.00 
   -8    7   30     -0.08      0.00 
   -7    7   30      0.33      0.00 
   -6    7   30      0.73      0.00 
   -5    7   30      0.97      0.00 
   -4    7   30      0.65      0.00 
   -3    7   30      0.01      0.00 
   -2    7   30      0.03      0.00 
   -1    7   30      0.88      0.00 
    0    7   30      1.30      0.00 
    1    7   30      0.60      0.00 
    2    7   30     -0.03      0.00 
    3    7   30      0.38      0.00 
    4    7   30      0.89      0.00 
    5    7   30      0.51      0.00 
    6    7   30      0.01      0.00 
    7    7   30      0.29      0.00 
    8    7   30      0.70      0.00 
    9    7   30      0.36      0.00 
   -9    8   30      1.29      0.00 
   -8    8   30      0.71      0.00 
   -7    8   30     -0.31      0.00 
   -6    8   30     -1.13      0.00 
   -5    8   30     -1.45      0.00 
   -4    8   30     -1.52      0.00 
   -3    8   30     -1.59      0.00 
   -2    8   30     -1.59      0.00 
   -1    8   30     -1.40      0.00 
    0    8   30     -0.92      0.00 
    1    8   30     -0.08      0.00 
    2    8   30      0.71      0.00 
    3    8   30      0.71      0.00 
    4    8   30      0.01      0.00 
    5    8   30     -0.29      0.00 
    6    8   30      0.16      0.00 
    7    8   30      0.25      0.00 
    8    8   30     -0.61      0.00 
   -8    9   30     -0.90      0.00 
   -7    9   30     -0.42      0.00 
   -6    9   30      0.62      0.00 
   -5    9   30      1.15      0.00 
   -4    9   30      0.62      0.00 
   -3    9   30     -0.23      0.00 
   -2    9   30     -0.21      0.00 
   -1    9   30      0.79      0.00 
    0    9   30      1.71      0.00 
    1    9   30      1.50      0.00 
    2    9   30      0.22      0.00 
    3    9   30     -1.03      0.00 
    4    9   30     -1.43      0.00 
    5    9   30     -1.43      0.00 
    6    9   30     -1.97      0.00 
    7    9   30     -2.79      0.00 
   -6   10   30      0.14      0.00 
   -5   10   30     -1.28      0.00 
   -4   10   30     -1.92      0.00 
   -3   10   30     -1.08      0.00 
   -2   10   30      0.33      0.00 
   -1   10   30      0.86      0.00 
    0   10   30      0.15      0.00 
    1   10   30     -0.73      0.00 
    2   10   30     -0.70      0.00 
    3   10   30      0.04      0.00 
    4   10   30      0.35      0.00 
    5   10   30     -0.21      0.00 
   -3   11   30      2.53      0.00 
   -2   11   30      2.21      0.00 
   -1   11   30      1.16      0.00 
    0   11   30      0.68      0.00 
    1   11   30      1.08      0.00 
    2   11   30      1.36      0.00 
  -12    1   31     -0.89      0.00 
  -11    1   31     -1.86      0.00 
  -10    1   31     -1.65      0.00 
   -9    1   31      0.20      0.00 
   -8    1   31      2.30      0.00 
   -7    1   31      3.00      0.00 
   -6    1   31      2.52      0.00 
   -5    1   31      2.67      0.00 
   -4    1   31      4.11      0.00 
   -3    1   31      5.43      0.00 
   -2    1   31      5.11      0.00 
   -1    1   31      3.35      0.00 
    0    1   31      1.25      0.00 
    1    1   31     -0.65      0.00 
    2    1   31     -2.17      0.00 
    3    1   31     -3.10      0.00 
    4    1   31     -3.58      0.00 
    5    1   31     -4.09      0.00 
    6    1   31     -4.46      0.00 
    7    1   31     -3.88      0.00 
    8    1   31     -2.25      0.00 
    9    1   31     -0.55      0.00 
   10    1   31      0.40      0.00 
  -12    2   31     -0.17      0.00 
  -11    2   31      2.02      0.00 
  -10    2   31      4.95      0.00 
   -9    2   31      5.96      0.00 
   -8    2   31      3.42      0.00 
   -7    2   31     -0.69      0.00 
   -6    2   31     -2.70      0.00 
   -5    2   31     -1.86      0.00 
   -4    2   31     -1.06      0.00 
   -3    2   31     -2.57      0.00 
   -2    2   31     -5.18      0.00 
   -1    2   31     -6.66      0.00 
    0    2   31     -6.73      0.00 
    1    2   31     -6.15      0.00 
    2    2   31     -5.06      0.00 
    3    2   31     -3.56      0.00 
    4    2   31     -2.37      0.00 
    5    2   31     -1.38      0.00 
    6    2   31      0.44      0.00 
    7    2   31      2.84      0.00 
    8    2   31      4.03      0.00 
    9    2   31      3.22      0.00 
   10    2   31      1.62      0.00 
  -12    3   31      0.88      0.00 
  -11    3   31      1.26      0.00 
  -10    3   31     -0.38      0.00 
   -9    3   31     -4.04      0.00 
   -8    3   31     -6.85      0.00 
   -7    3   31     -5.93      0.00 
   -6    3   31     -2.36      0.00 
   -5    3   31     -0.33      0.00 
   -4    3   31     -1.64      0.00 
   -3    3   31     -3.48      0.00 
   -2    3   31     -2.83      0.00 
   -1    3   31     -0.46      0.00 
    0    3   31      1.30      0.00 
    1    3   31      2.07      0.00 
    2    3   31      2.42      0.00 
    3    3   31      2.11      0.00 
    4    3   31      1.31      0.00 
    5    3   31      1.31      0.00 
    6    3   31      2.20      0.00 
    7    3   31      2.12      0.00 
    8    3   31      0.49      0.00 
    9    3   31     -0.89      0.00 
   10    3   31     -0.80      0.00 
  -11    4   31     -0.50      0.00 
  -10    4   31     -1.47      0.00 
   -9    4   31     -1.00      0.00 
   -8    4   31      1.79      0.00 
   -7    4   31      4.82      0.00 
   -6    4   31      4.80      0.00 
   -5    4   31      1.71      0.00 
   -4    4   31     -0.66      0.00 
   -3    4   31      0.25      0.00 
   -2    4   31      2.34      0.00 
   -1    4   31      2.39      0.00 
    0    4   31      0.56      0.00 
    1    4   31     -1.15      0.00 
    2    4   31     -2.23      0.00 
    3    4   31     -2.94      0.00 
    4    4   31     -2.50      0.00 
    5    4   31     -0.88      0.00 
    6    4   31      0.04      0.00 
    7    4   31     -0.61      0.00 
    8    4   31     -1.17      0.00 
    9    4   31     -0.54      0.00 
   10    4   31      0.01      0.00 
  -11    5   31     -0.46      0.00 
  -10    5   31     -0.06      0.00 
   -9    5   31      1.16      0.00 
   -8    5   31      1.54      0.00 
   -7    5   31     -0.44      0.00 
   -6    5   31     -3.74      0.00 
   -5    5   31     -5.19      0.00 
   -4    5   31     -3.32      0.00 
   -3    5   31     -0.66      0.00 
   -2    5   31     -0.32      0.00 
   -1    5   31     -1.85      0.00 
    0    5   31     -2.75      0.00 
    1    5   31     -2.31      0.00 
    2    5   31     -1.41      0.00 
    3    5   31     -0.15      0.00 
    4    5   31      1.45      0.00 
    5    5   31      2.14      0.00 
    6    5   31      1.31      0.00 
    7    5   31      0.51      0.00 
    8    5   31      0.78      0.00 
    9    5   31      0.90      0.00 
  -10    6   31     -0.13      0.00 
   -9    6   31      0.31      0.00 
   -8    6   31     -0.09      0.00 
   -7    6   31     -0.59      0.00 
   -6    6   31      0.33      0.00 
   -5    6   31      3.01      0.00 
   -4    6   31      5.34      0.00 
   -3    6   31      4.97      0.00 
   -2    6   31      2.46      0.00 
   -1    6   31      0.58      0.00 
    0    6   31      0.68      0.00 
    1    6   31      1.76      0.00 
    2    6   31      2.58      0.00 
    3    6   31      2.68      0.00 
    4    6   31      1.71      0.00 
    5    6   31      0.10      0.00 
    6    6   31     -0.67      0.00 
    7    6   31     -0.08      0.00 
    8    6   31      0.39      0.00 
   -9    7   31      0.96      0.00 
   -8    7   31      0.39      0.00 
   -7    7   31      0.13      0.00 
   -6    7   31      0.49      0.00 
   -5    7   31      0.53      0.00 
   -4    7   31     -1.04      0.00 
   -3    7   31     -3.61      0.00 
   -2    7   31     -4.80      0.00 
   -1    7   31     -3.39      0.00 
    0    7   31     -0.91      0.00 
    1    7   31      0.36      0.00 
    2    7   31     -0.26      0.00 
    3    7   31     -1.73      0.00 
    4    7   31     -2.58      0.00 
    5    7   31     -1.93      0.00 
    6    7   31     -0.48      0.00 
    7    7   31      0.13      0.00 
    8    7   31     -0.52      0.00 
   -8    8   31     -0.34      0.00 
   -7    8   31      0.29      0.00 
   -6    8   31      0.57      0.00 
   -5    8   31     -0.30      0.00 
   -4    8   31     -1.73      0.00 
   -3    8   31     -1.92      0.00 
   -2    8   31     -0.21      0.00 
   -1    8   31      1.74      0.00 
    0    8   31      1.91      0.00 
    1    8   31      0.34      0.00 
    2    8   31     -1.20      0.00 
    3    8   31     -1.40      0.00 
    4    8   31     -0.53      0.00 
    5    8   31      0.15      0.00 
    6    8   31     -0.11      0.00 
   -6    9   31     -1.25      0.00 
   -5    9   31     -2.17      0.00 
   -4    9   31     -1.66      0.00 
   -3    9   31     -0.15      0.00 
   -2    9   31      0.76      0.00 
   -1    9   31      0.18      0.00 
    0    9   31     -0.94      0.00 
    1    9   31     -1.12      0.00 
    2    9   31     -0.21      0.00 
    3    9   31      0.73      0.00 
    4    9   31      0.85      0.00 
    5    9   31      0.38      0.00 
   -4   10   31      1.84      0.00 
   -3   10   31      1.74      0.00 
   -2   10   31      0.86      0.00 
   -1   10   31      0.44      0.00 
    0   10   31      0.97      0.00 
    1   10   31      1.62      0.00 
    2   10   31      1.45      0.00 
  -11    0   32     -0.54      0.00 
  -10    0   32      1.06      0.00 
   -9    0   32      3.64      0.00 
   -8    0   32      4.26      0.00 
   -6    0   32     -0.98      0.00 
   -5    0   32      0.70      0.00 
   -4    0   32      6.18      0.00 
   -3    0   32      9.62      0.00 
   -2    0   32      6.91      0.00 
   -1    0   32      0.93      0.00 
    0    0   32     -2.70      0.00 
    1    0   32     -2.84      0.00 
    2    0   32     -2.66      0.00 
    3    0   32     -3.76      0.00 
    4    0   32     -4.66      0.00 
    5    0   32     -4.23      0.00 
    6    0   32     -3.33      0.00 
    7    0   32     -2.77      0.00 
    8    0   32     -2.11      0.00 
    9    0   32     -0.78      0.00 
  -11    1   32      2.02      0.00 
  -10    1   32      2.95      0.00 
   -9    1   32      1.39      0.00 
   -8    1   32     -2.42      0.00 
   -7    1   32     -5.04      0.00 
   -6    1   32     -3.50      0.00 
   -5    1   32      0.35      0.00 
   -4    1   32      1.27      0.00 
   -3    1   32     -2.76      0.00 
   -2    1   32     -7.52      0.00 
   -1    1   32     -8.00      0.00 
    0    1   32     -4.83      0.00 
    1    1   32     -2.34      0.00 
    2    1   32     -2.09      0.00 
    3    1   32     -1.87      0.00 
    4    1   32     -0.35      0.00 
    5    1   32      1.19      0.00 
    6    1   32      1.67      0.00 
    7    1   32      1.70      0.00 
    8    1   32      2.02      0.00 
    9    1   32      2.30      0.00 
  -11    2   32     -0.62      0.00 
  -10    2   32     -2.60      0.00 
   -9    2   32     -4.55      0.00 
   -8    2   32     -4.15      0.00 
   -7    2   32     -0.72      0.00 
   -6    2   32      3.03      0.00 
   -5    2   32      3.31      0.00 
   -4    2   32     -0.11      0.00 
   -3    2   32     -2.97      0.00 
   -2    2   32     -1.66      0.00 
   -1    2   32      1.96      0.00 
    0    2   32      3.40      0.00 
    1    2   32      1.80      0.00 
    2    2   32      0.15      0.00 
    3    2   32      0.03      0.00 
    4    2   32     -0.07      0.00 
    5    2   32     -1.20      0.00 
    6    2   32     -2.14      0.00 
    7    2   32     -1.75      0.00 
    8    2   32     -0.73      0.00 
    9    2   32     -0.23      0.00 
  -10    3   32      0.41      0.00 
   -9    3   32      1.81      0.00 
   -8    3   32      3.42      0.00 
   -7    3   32      3.49      0.00 
   -6    3   32      0.86      0.00 
   -5    3   32     -3.21      0.00 
   -4    3   32     -5.40      0.00 
   -3    3   32     -3.77      0.00 
   -2    3   32     -0.64      0.00 
   -1    3   32      0.02      0.00 
    0    3   32     -2.20      0.00 
    1    3   32     -3.99      0.00 
    2    3   32     -3.54      0.00 
    3    3   32     -2.53      0.00 
    4    3   32     -2.31      0.00 
    5    3   32     -1.70      0.00 
    6    3   32      0.24      0.00 
    7    3   32      2.11      0.00 
    8    3   32      2.26      0.00 
    9    3   32      1.04      0.00 
  -10    4   32     -0.70      0.00 
   -9    4   32     -0.86      0.00 
   -8    4   32     -1.78      0.00 
   -7    4   32     -3.44      0.00 
   -6    4   32     -4.95      0.00 
   -5    4   32     -4.83      0.00 
   -4    4   32     -2.22      0.00 
   -3    4   32      1.28      0.00 
   -2    4   32      2.69      0.00 
   -1    4   32      1.44      0.00 
    0    4   32      0.26      0.00 
    1    4   32      1.05      0.00 
    2    4   32      2.31      0.00 
    3    4   32      2.27      0.00 
    4    4   32      1.88      0.00 
    5    4   32      2.52      0.00 
    6    4   32      3.13      0.00 
    7    4   32      2.16      0.00 
    8    4   32      0.27      0.00 
   -9    5   32      0.40      0.00 
   -8    5   32      0.71      0.00 
   -7    5   32      1.08      0.00 
   -6    5   32      1.92      0.00 
   -5    5   32      3.76      0.00 
   -4    5   32      5.92      0.00 
   -3    5   32      6.20      0.00 
   -2    5   32      3.69      0.00 
   -1    5   32      0.81      0.00 
    0    5   32      0.13      0.00 
    1    5   32      0.77      0.00 
    2    5   32      0.44      0.00 
    3    5   32     -0.69      0.00 
    4    5   32     -0.87      0.00 
    5    5   32     -0.33      0.00 
    6    5   32     -0.62      0.00 
    7    5   32     -1.56      0.00 
    8    5   32     -1.69      0.00 
   -9    6   32      1.02      0.00 
   -8    6   32      0.44      0.00 
   -7    6   32     -0.23      0.00 
   -6    6   32     -0.48      0.00 
   -5    6   32     -0.37      0.00 
   -4    6   32     -1.10      0.00 
   -3    6   32     -3.30      0.00 
   -2    6   32     -5.08      0.00 
   -1    6   32     -4.26      0.00 
    0    6   32     -1.92      0.00 
    1    6   32     -0.95      0.00 
    2    6   32     -1.69      0.00 
    3    6   32     -1.90      0.00 
    4    6   32     -0.86      0.00 
    5    6   32     -0.09      0.00 
    6    6   32     -0.24      0.00 
    7    6   32     -0.16      0.00 
   -8    7   32     -0.45      0.00 
   -7    7   32      0.07      0.00 
   -6    7   32      0.66      0.00 
   -5    7   32      0.81      0.00 
   -4    7   32      0.28      0.00 
   -3    7   32      0.00      0.00 
   -2    7   32      1.02      0.00 
   -1    7   32      2.49      0.00 
    0    7   32      2.53      0.00 
    1    7   32      1.24      0.00 
    2    7   32      0.61      0.00 
    3    7   32      1.17      0.00 
    4    7   32      1.34      0.00 
    5    7   32      0.46      0.00 
    6    7   32     -0.13      0.00 
   -6    8   32     -0.86      0.00 
   -5    8   32     -1.14      0.00 
   -4    8   32     -1.14      0.00 
   -3    8   32     -0.98      0.00 
   -2    8   32     -0.88      0.00 
   -1    8   32     -1.07      0.00 
    0    8   32     -1.23      0.00 
    1    8   32     -0.76      0.00 
    2    8   32     -0.04      0.00 
    3    8   32     -0.11      0.00 
    4    8   32     -0.88      0.00 
    5    8   32     -1.09      0.00 
   -4    9   32      0.02      0.00 
   -3    9   32     -0.75      0.00 
   -2    9   32     -0.70      0.00 
   -1    9   32      0.18      0.00 
    0    9   32      1.06      0.00 
    1    9   32      1.16      0.00 
    2    9   32      0.41      0.00 
  -10    1   33     -1.17      0.00 
   -9    1   33     -0.16      0.00 
   -8    1   33      0.90      0.00 
   -7    1   33      0.92      0.00 
   -6    1   33      0.46      0.00 
   -5    1   33      0.80      0.00 
   -4    1   33      1.89      0.00 
   -3    1   33      2.43      0.00 
   -2    1   33      1.80      0.00 
   -1    1   33      0.57      0.00 
    0    1   33     -0.72      0.00 
    1    1   33     -1.86      0.00 
    2    1   33     -2.45      0.00 
    3    1   33     -2.29      0.00 
    4    1   33     -2.05      0.00 
    5    1   33     -2.35      0.00 
    6    1   33     -2.57      0.00 
    7    1   33     -1.90      0.00 
    8    1   33     -0.74      0.00 
   -9    2   33      1.99      0.00 
   -8    2   33     -0.52      0.00 
   -7    2   33     -3.66      0.00 
   -6    2   33     -4.65      0.00 
   -5    2   33     -3.68      0.00 
   -4    2   33     -3.19      0.00 
   -3    2   33     -4.06      0.00 
   -2    2   33     -4.93      0.00 
   -1    2   33     -4.94      0.00 
    0    2   33     -4.50      0.00 
    1    2   33     -3.65      0.00 
    2    2   33     -2.06      0.00 
    3    2   33     -0.51      0.00 
    4    2   33      0.08      0.00 
    5    2   33      0.54      0.00 
    6    2   33      1.92      0.00 
    7    2   33      3.24      0.00 
    8    2   33      2.93      0.00 
   -9    3   33     -3.46      0.00 
   -8    3   33     -5.00      0.00 
   -7    3   33     -3.36      0.00 
   -6    3   33     -0.18      0.00 
   -5    3   33      1.12      0.00 
   -4    3   33      0.17      0.00 
   -3    3   33     -0.33      0.00 
   -2    3   33      0.84      0.00 
   -1    3   33      2.23      0.00 
    0    3   33      2.94      0.00 
    1    3   33      3.52      0.00 
    2    3   33      3.67      0.00 
    3    3   33      2.53      0.00 
    4    3   33      1.04      0.00 
    5    3   33      0.79      0.00 
    6    3   33      1.09      0.00 
    7    3   33      0.23      0.00 
    8    3   33     -1.19      0.00 
   -9    4   33     -0.50      0.00 
   -8    4   33      1.53      0.00 
   -7    4   33      3.43      0.00 
   -6    4   33      2.69      0.00 
   -5    4   33      0.22      0.00 
   -4    4   33     -0.63      0.00 
   -3    4   33      0.86      0.00 
   -2    4   33      2.03      0.00 
   -1    4   33      1.38      0.00 
    0    4   33      0.26      0.00 
    1    4   33     -0.50      0.00 
    2    4   33     -1.60      0.00 
    3    4   33     -2.63      0.00 
    4    4   33     -2.14      0.00 
    5    4   33     -0.69      0.00 
    6    4   33     -0.26      0.00 
    7    4   33     -0.81      0.00 
   -8    5   33      0.77      0.00 
   -7    5   33     -0.67      0.00 
   -6    5   33     -2.73      0.00 
   -5    5   33     -2.82      0.00 
   -4    5   33     -0.78      0.00 
   -3    5   33      0.72      0.00 
   -2    5   33      0.29      0.00 
   -1    5   33     -0.48      0.00 
    0    5   33     -0.34      0.00 
    1    5   33     -0.11      0.00 
    2    5   33     -0.22      0.00 
    3    5   33      0.33      0.00 
    4    5   33      1.46      0.00 
    5    5   33      1.72      0.00 
    6    5   33      0.99      0.00 
   -7    6   33      0.16      0.00 
   -6    6   33      1.06      0.00 
   -5    6   33      3.09      0.00 
   -4    6   33      4.37      0.00 
   -3    6   33      3.67      0.00 
   -2    6   33      2.19      0.00 
   -1    6   33      1.48      0.00 
    0    6   33      1.42      0.00 
    1    6   33      1.30      0.00 
    2    6   33      1.24      0.00 
    3    6   33      1.17      0.00 
    4    6   33      0.51      0.00 
    5    6   33     -0.47      0.00 
   -5    7   33     -0.52      0.00 
   -4    7   33     -1.61      0.00 
   -3    7   33     -3.16      0.00 
   -2    7   33     -3.63      0.00 
   -1    7   33     -2.64      0.00 
    0    7   33     -1.30      0.00 
    1    7   33     -0.73      0.00 
    2    7   33     -1.09      0.00 
    3    7   33     -1.81      0.00 
    4    7   33     -2.02      0.00 
   -3    8   33     -1.13      0.00 
   -2    8   33      0.05      0.00 
   -1    8   33      1.44      0.00 
    0    8   33      1.65      0.00 
    1    8   33      0.73      0.00 
    2    8   33     -0.13      0.00 
   -8    0   34     -0.22      0.00 
   -7    0   34     -2.40      0.00 
   -6    0   34     -3.45      0.00 
   -5    0   34     -0.86      0.00 
   -4    0   34      3.21      0.00 
   -3    0   34      3.96      0.00 
   -2    0   34      0.64      0.00 
   -1    0   34     -2.67      0.00 
    0    0   34     -3.35      0.00 
    1    0   34     -3.04      0.00 
    2    0   34     -3.35      0.00 
    3    0   34     -3.19      0.00 
    4    0   34     -1.86      0.00 
    5    0   34     -0.79      0.00 
    6    0   34     -0.88      0.00 
    7    0   34     -1.14      0.00 
   -8    1   34     -3.48      0.00 
   -7    1   34     -4.30      0.00 
   -6    1   34     -2.21      0.00 
   -5    1   34      0.41      0.00 
   -4    1   34     -0.26      0.00 
   -3    1   34     -3.77      0.00 
   -2    1   34     -5.76      0.00 
   -1    1   34     -4.36      0.00 
    0    1   34     -2.30      0.00 
    1    1   34     -1.75      0.00 
    2    1   34     -1.38      0.00 
    3    1   34      0.06      0.00 
    4    1   34      1.25      0.00 
    5    1   34      1.12      0.00 
    6    1   34      0.68      0.00 
    7    1   34      0.87      0.00 
   -8    2   34     -1.90      0.00 
   -7    2   34      0.85      0.00 
   -6    2   34      3.07      0.00 
   -5    2   34      2.03      0.00 
   -4    2   34     -1.08      0.00 
   -3    2   34     -2.16      0.00 
   -2    2   34     -0.07      0.00 
   -1    2   34      1.98      0.00 
    0    2   34      1.70      0.00 
    1    2   34      0.78      0.00 
    2    2   34      1.03      0.00 
    3    2   34      1.27      0.00 
    4    2   34      0.11      0.00 
    5    2   34     -1.31      0.00 
    6    2   34     -1.46      0.00 
   -8    3   34      1.61      0.00 
   -7    3   34      0.99      0.00 
   -6    3   34     -1.76      0.00 
   -5    3   34     -4.82      0.00 
   -4    3   34     -5.00      0.00 
   -3    3   34     -2.05      0.00 
   -2    3   34      0.55      0.00 
   -1    3   34      0.36      0.00 
    0    3   34     -0.87      0.00 
    1    3   34     -0.77      0.00 
    2    3   34     -0.06      0.00 
    3    3   34     -0.39      0.00 
    4    3   34     -0.92      0.00 
    5    3   34     -0.03      0.00 
    6    3   34      1.62      0.00 
   -7    4   34     -2.19      0.00 
   -6    4   34     -2.93      0.00 
   -5    4   34     -1.65      0.00 
   -4    4   34      1.52      0.00 
   -3    4   34      3.98      0.00 
   -2    4   34      3.77      0.00 
   -1    4   34      2.28      0.00 
    0    4   34      1.95      0.00 
    1    4   34      2.57      0.00 
    2    4   34      2.25      0.00 
    3    4   34      1.12      0.00 
    4    4   34      0.93      0.00 
    5    4   34      1.70      0.00 
   -6    5   34      1.35      0.00 
   -5    5   34      3.21      0.00 
   -4    5   34      4.55      0.00 
   -3    5   34      3.68      0.00 
   -2    5   34      1.26      0.00 
   -1    5   34     -0.21      0.00 
    0    5   34     -0.03      0.00 
    1    5   34      0.06      0.00 
    2    5   34     -0.86      0.00 
    3    5   34     -1.45      0.00 
    4    5   34     -0.84      0.00 
   -5    6   34      0.03      0.00 
   -4    6   34     -1.05      0.00 
   -3    6   34     -3.01      0.00 
   -2    6   34     -3.68      0.00 
   -1    6   34     -2.14      0.00 
    0    6   34     -0.41      0.00 
    1    6   34     -0.44      0.00 
    2    6   34     -1.25      0.00 
    3    6   34     -1.01      0.00 
   -2    7   34      1.60      0.00 
   -1    7   34      2.84      0.00 
    0    7   34      2.25      0.00 
   -6    1   35     -0.98      0.00 
   -5    1   35     -0.61      0.00 
   -4    1   35     -0.07      0.00 
   -3    1   35     -0.03      0.00 
   -2    1   35     -0.48      0.00 
   -1    1   35     -1.12      0.00 
    0    1   35     -1.83      0.00 
    1    1   35     -2.25      0.00 
    2    1   35     -1.81      0.00 
    3    1   35     -0.82      0.00 
    4    1   35     -0.31      0.00 
    5    1   35     -0.56      0.00 
   -6    2   35     -3.26      0.00 
   -5    2   35     -2.58      0.00 
   -4    2   35     -2.25      0.00 
   -3    2   35     -2.33      0.00 
   -2    2   35     -2.21      0.00 
   -1    2   35     -2.01      0.00 
    0    2   35     -1.80      0.00 
    1    2   35     -0.95      0.00 
    2    2   35      0.43      0.00 
    3    2   35      1.07      0.00 
    4    2   35      0.73      0.00 
   -5    3   35      1.64      0.00 
   -4    3   35      1.10      0.00 
   -3    3   35      1.13      0.00 
   -2    3   35      1.69      0.00 
   -1    3   35      1.96      0.00 
    0    3   35      2.28      0.00 
    1    3   35      2.89      0.00 
    2    3   35      2.71      0.00 
    3    3   35      1.32      0.00 
    4    3   35      0.22      0.00 
   -4    4   35     -0.67      0.00 
   -3    4   35      0.63      0.00 
   -2    4   35      1.07      0.00 
   -1    4   35      0.70      0.00 
    0    4   35      0.65      0.00 
    1    4   35      0.49      0.00 
    2    4   35     -0.49      0.00 
    3    4   35     -1.24      0.00 
   -3    5   35      1.16      0.00 
   -2    5   35      0.52      0.00 
   -1    5   35      0.50      0.00 
    0    5   35      0.92      0.00 
    1    5   35      0.57      0.00 
   -3    0   36      0.17      0.00 
   -2    0   36     -1.95      0.00 
   -1    0   36     -2.85      0.00 
    0    0   36     -2.85      0.00 
    1    0   36     -3.22      0.00 
    2    0   36     -3.10      0.00 
   -3    1   36     -2.34      0.00 
   -2    1   36     -2.33      0.00 
   -1    1   36     -1.29      0.00 
    0    1   36     -1.11      0.00 
    1    1   36     -1.21      0.00 
   -2    2   36      0.47      0.00 
   -1    2   36      0.74      0.00 
    0    2   36      0.23      0.00 
    1    2   36      0.67      0.00 
  -21    3    7      0.31      0.00 
  -20    2    9      0.85      0.00 
   16   10   14      2.03      0.00 
   17    7   15     -0.77      0.00 
   17    6   17     -0.52      0.00 
   14   11   17      2.06      0.00 
   17    6   18      3.04      0.00 
   -7   14   19     -1.09      0.00 
   14    8   21      1.34      0.00 
   -8   14   21     -0.93      0.00 
    1    0   24     -3.38      0.00 
    2    0   26     -1.37      0.00 
   -7    0   32      1.67      0.00 
    0    0    0      0.00      0.00 
# SQUEEZE RESULTS (Version =  71116) 
# Note: Data are Listed for all Voids in the P1 Unit Cell 
# i.e. Centre of Gravity, Solvent Accessible Volume, 
# Recovered number of Electrons in the Void and 
# Details about the Squeezed Material 
loop_ 
  _platon_squeeze_void_nr 
  _platon_squeeze_void_average_x 
  _platon_squeeze_void_average_y 
  _platon_squeeze_void_average_z 
  _platon_squeeze_void_volume 
  _platon_squeeze_void_count_electrons 
  _platon_squeeze_void_content 
   1  0.000  0.000  0.000       285        96 ' ' 
   2  0.000  0.500  0.500       285        96 ' ' 
_platon_squeeze_void_probe_radius                  1.20 
_platon_squeeze_details 
) 
TITL asb655 in P2(1)/c 
CELL   16.7414   14.8414   26.8159     90.00     92.16     90.00 
SPGR P21/c 
# Solvent Accessible Volume =       568 
# Electrons Found in S.A.V. =       192 
# Note: Atoms in Void as Cxxx and Qxxx all others 
C101 0.940 0.926 0.025 !      11.28 eA-3 
C102 0.832 0.708 0.487 !      10.66 eA-3 
C103 0.168 0.292 0.513 !      10.66 eA-3 
C104 0.960 0.637 0.431 !      10.11 eA-3 
C105 0.111 0.124 0.032 !       3.68 eA-3 
C106 0.041 0.468 0.501 !       3.04 eA-3 
C107 0.952 0.897 0.959 !       2.58 eA-3 
C108 0.938 0.824 0.994 !       2.19 eA-3 
C109 0.875 0.781 0.932 !       1.32 eA-3 
C110 0.018 0.162 0.005 !       1.31 eA-3 
Q111 0.154 0.671 0.983 !       1.13 eA-3 
C112 0.869 0.750 0.457 !       1.05 eA-3 
Q113 0.183 0.254 0.986 !       0.93 eA-3 
Q114 0.737 0.872 0.682 !       0.91 eA-3 
Q115 0.615 0.071 0.014 !       0.90 eA-3 
Q116 0.871 0.028 0.874 !       0.89 eA-3 
Q117 0.093 0.532 0.328 !       0.88 eA-3 
Q118 0.589 0.919 0.361 !       0.88 eA-3 
Q119 0.877 0.360 0.734 !       0.86 eA-3 
C120 0.033 0.487 0.460 !       0.84 eA-3 
Q121 0.629 0.154 0.697 !       0.83 eA-3 
Q122 0.556 0.702 0.601 !       0.83 eA-3 
C123 0.988 0.656 0.460 !       0.82 eA-3 
C124 0.975 0.692 0.450 !       0.81 eA-3 
Q125 0.874 0.406 0.279 !       0.80 eA-3 
Q126 0.376 0.402 0.114 !       0.79 eA-3 
Q127 0.701 0.440 0.789 !       0.78 eA-3 
Q128 0.578 0.673 0.338 !       0.77 eA-3 
Q129 0.172 0.100-0.002 !       0.76 eA-3 
Q130 0.710 0.545 0.218 !       0.76 eA-3 
Q131 0.127 0.200 0.360 !       0.75 eA-3 
Q132 0.019 0.103 0.106 !       0.75 eA-3 
Q133 0.819 0.620 0.126 !       0.73 eA-3 
Q134 0.238 0.063 0.740 !       0.73 eA-3 
Q135 0.375 0.155 0.179 !       0.72 eA-3 
Q136 0.937 0.104 0.678 !       0.71 eA-3 
Q137 0.626 0.543 0.704 !       0.70 eA-3 
C138 0.162 0.185 0.977 !       0.70 eA-3 
Q139 0.285 0.032 0.929 !       0.69 eA-3 
Q140 0.920 0.723 0.992 !       0.69 eA-3 
Q141 0.414 0.841 0.392 !       0.69 eA-3 
Q142 0.725 0.794 0.156 !       0.69 eA-3 
Q143 0.062 0.189 0.297 !       0.68 eA-3 
Q144 0.742 0.527 0.796 !       0.68 eA-3 
Q145 0.201 0.239 0.517 !       0.68 eA-3 
Q146 0.892 0.167 0.146 !       0.66 eA-3 
C147 0.063 0.531 0.476 !       0.65 eA-3 
Q148 0.361 0.072 0.851 !       0.64 eA-3 
Q149 0.266 0.047 0.944 !       0.64 eA-3 
Q150 0.646 0.938 0.093 !       0.64 eA-3 
C151 0.999 0.934 0.039 !       0.64 eA-3 
C152 0.075 0.511 0.521 !       0.64 eA-3 
Q153 0.247 0.529 0.412 !       0.64 eA-3 
Q154 0.345 0.453 0.381 !       0.63 eA-3 
Q155 0.735 0.689 0.710 !       0.63 eA-3 
Q156 0.421 0.859 0.327 !       0.63 eA-3 
Q157 0.704 0.393 0.290 !       0.63 eA-3 
Q158 0.875 0.780 0.429 !       0.63 eA-3 
Q159 0.315 0.341 0.002 !       0.63 eA-3 
C160 0.969 0.481 0.456 !       0.63 eA-3 
Q161 0.608 0.892 0.204 !       0.62 eA-3 
Q162 0.920 0.103 0.882 !       0.62 eA-3 
Q163 0.622 1.000 0.055 !       0.62 eA-3 
Q164 0.733 0.762 0.738 !       0.62 eA-3 
Q165 0.158 0.501 0.265 !       0.61 eA-3 
Q166 0.108 0.589 0.368 !       0.61 eA-3 
Q167 0.024 0.424 0.219 !       0.60 eA-3 
Q168 0.021 0.891 0.358 !       0.59 eA-3 
Q169 0.250 0.171 0.257 !       0.59 eA-3 
Q170 0.865 0.418 0.733 !       0.59 eA-3 
Q171 0.886 0.373 0.288 !       0.58 eA-3 
Q172 0.343 0.094 0.116 !       0.58 eA-3 
Q173 0.332 0.026 0.509 !       0.58 eA-3 
Q174 0.120 0.394 0.460 !       0.58 eA-3 
Q175 0.139 0.327 0.740 !       0.58 eA-3 
Q176 0.218 0.157 0.025 !       0.58 eA-3 
Q177 0.216 0.176 0.523 !       0.57 eA-3 
Q178 0.335 0.265 0.276 !       0.56 eA-3 
Q179 0.443 0.799 0.132 !       0.56 eA-3 
Q180 0.953 0.378 0.650 !       0.56 eA-3 
Q181 0.406 0.326 0.249 !       0.56 eA-3 
Q182 0.110 0.248 0.593 !       0.55 eA-3 
Q183 0.379 0.183 0.296 !       0.55 eA-3 
Q184 0.737 0.786 0.389 !       0.55 eA-3 
Q185 0.446 0.950 0.763 !       0.55 eA-3 
Q186 0.427 0.389 0.257 !       0.55 eA-3 
Q187 0.091 0.130 0.952 !       0.55 eA-3 
Q188 0.909 0.550 0.823 !       0.55 eA-3 
Q189 0.952 0.429 0.638 !       0.54 eA-3 
Q190 0.515 0.750 0.054 !       0.54 eA-3 
Q191 0.188 0.278 0.780 !       0.54 eA-3 
Q192 0.440 0.277 0.594 !       0.54 eA-3 
Q193 0.560 0.786 0.907 !       0.54 eA-3 
Q194 0.452 0.526 0.205 !       0.53 eA-3 
Q195 0.923 0.091 0.171 !       0.53 eA-3 
Q196 0.567 0.641 0.779 !       0.53 eA-3 
Q197 0.772 0.112 0.913 !       0.53 eA-3 
Q198 0.978 0.177 0.063 !       0.53 eA-3 
Q199 0.158 0.172 0.171 !       0.53 eA-3 
) 
;
_shelx_fab_checksum              15955
loop_
_space_group_symop_operation_xyz
'x, y, z'
'-x, y+1/2, -z+1/2'
'-x, -y, -z'
'x, -y-1/2, z-1/2'
loop_
_atom_site_label
_atom_site_type_symbol
_atom_site_fract_x
_atom_site_fract_y
_atom_site_fract_z
_atom_site_U_iso_or_equiv
_atom_site_adp_type
_atom_site_occupancy
_atom_site_site_symmetry_order
_atom_site_calc_flag
_atom_site_refinement_flags_posn
_atom_site_refinement_flags_adp
_atom_site_refinement_flags_occupancy
_atom_site_disorder_assembly
_atom_site_disorder_group
Mn1 Mn 0.34977(2) 0.39338(2) 0.24973(2) 0.01298(8) Uani 1 1 d . . . . .
Fe1 Fe 0.23047(2) 0.25999(2) 0.30438(2) 0.01548(8) Uani 1 1 d . . . . .
P1 P 0.45667(3) 0.33002(4) 0.16509(2) 0.01587(12) Uani 1 1 d . . . . .
P2 P 0.35338(3) 0.38744(4) 0.36888(2) 0.01474(12) Uani 1 1 d . . . . .
P3 P 0.16555(3) 0.44200(4) 0.24464(2) 0.01425(12) Uani 1 1 d . . . . .
O1 O 0.31352(9) 0.28401(10) 0.26611(6) 0.0193(3) Uani 1 1 d . . . . .
O2 O 0.44939(9) 0.33867(10) 0.22095(5) 0.0184(3) Uani 1 1 d . . . . .
O3 O 0.28150(8) 0.32392(10) 0.36588(5) 0.0166(3) Uani 1 1 d . . . . .
O4 O 0.16121(8) 0.36112(10) 0.27902(5) 0.0157(3) Uani 1 1 d . . . . .
N1 N 0.39866(11) 0.53088(12) 0.22721(6) 0.0164(4) Uani 1 1 d . . . . .
N2 N 0.41313(11) 0.41166(12) 0.13433(7) 0.0174(4) Uani 1 1 d . . . . .
H2 H 0.3762(19) 0.399(2) 0.1144(12) 0.046(9) Uiso 1 1 d . . . . .
N3 N 0.36620(11) 0.44511(12) 0.31860(6) 0.0162(4) Uani 1 1 d . . . . .
N4 N 0.25079(10) 0.44970(12) 0.21879(7) 0.0169(4) Uani 1 1 d . . . . .
N5 N 0.27168(10) 0.12447(12) 0.32814(7) 0.0165(4) Uani 1 1 d . . . . .
N6 N 0.12888(10) 0.21597(12) 0.34877(7) 0.0188(4) Uani 1 1 d . . . . .
N7 N 0.16530(11) 0.17290(12) 0.24842(7) 0.0206(4) Uani 1 1 d . . . . .
C1 C 0.46261(12) 0.53674(15) 0.19031(8) 0.0175(5) Uani 1 1 d . . . . .
H1A H 0.5087 0.5004 0.2029 0.021 Uiso 1 1 calc R U . . .
H1B H 0.4806 0.6002 0.1887 0.021 Uiso 1 1 calc R U . . .
C2 C 0.44042(13) 0.50560(15) 0.13733(8) 0.0184(5) Uani 1 1 d . . . . .
H2A H 0.3976 0.5451 0.1233 0.022 Uiso 1 1 calc R U . . .
H2B H 0.4876 0.5126 0.1165 0.022 Uiso 1 1 calc R U . . .
C3 C 0.43367(14) 0.56503(15) 0.27564(8) 0.0205(5) Uani 1 1 d . . . . .
H3A H 0.4404 0.6312 0.2735 0.025 Uiso 1 1 calc R U . . .
H3B H 0.4872 0.5380 0.2817 0.025 Uiso 1 1 calc R U . . .
C4 C 0.38179(15) 0.54297(15) 0.31898(8) 0.0224(5) Uani 1 1 d . . . . .
H4A H 0.4094 0.5606 0.3508 0.027 Uiso 1 1 calc R U . . .
H4B H 0.3307 0.5765 0.3157 0.027 Uiso 1 1 calc R U . . .
C5 C 0.32832(13) 0.58756(14) 0.21111(8) 0.0186(5) Uani 1 1 d . . . . .
H5A H 0.3452 0.6343 0.1874 0.022 Uiso 1 1 calc R U . . .
H5B H 0.3065 0.6181 0.2405 0.022 Uiso 1 1 calc R U . . .
C6 C 0.26463(13) 0.52861(14) 0.18636(8) 0.0177(5) Uani 1 1 d . . . . .
H6A H 0.2145 0.5632 0.1813 0.021 Uiso 1 1 calc R U . . .
H6B H 0.2822 0.5082 0.1534 0.021 Uiso 1 1 calc R U . . .
C7 C 0.41224(13) 0.22868(15) 0.14037(8) 0.0183(5) Uani 1 1 d . . . . .
C8 C 0.39730(16) 0.21566(17) 0.08928(9) 0.0297(6) Uani 1 1 d . . . . .
H8A H 0.4067 0.2630 0.0664 0.036 Uiso 1 1 calc R U . . .
C9 C 0.36863(18) 0.13318(18) 0.07220(10) 0.0360(6) Uani 1 1 d . . . . .
H9A H 0.3583 0.1241 0.0375 0.043 Uiso 1 1 calc R U . . .
C10 C 0.35497(15) 0.06393(17) 0.10540(10) 0.0296(6) Uani 1 1 d . . . . .
H10A H 0.3363 0.0072 0.0933 0.035 Uiso 1 1 calc R U . . .
C11 C 0.36838(14) 0.07702(16) 0.15601(9) 0.0240(5) Uani 1 1 d . . . . .
H11A H 0.3583 0.0297 0.1788 0.029 Uiso 1 1 calc R U . . .
C12 C 0.39671(13) 0.15977(15) 0.17352(9) 0.0207(5) Uani 1 1 d . . . . .
H12A H 0.4054 0.1691 0.2084 0.025 Uiso 1 1 calc R U . . .
C13 C 0.56112(13) 0.32813(15) 0.15262(8) 0.0194(5) Uani 1 1 d . . . . .
C14 C 0.61882(14) 0.32044(16) 0.19111(9) 0.0228(5) Uani 1 1 d . . . . .
H14A H 0.6034 0.3201 0.2248 0.027 Uiso 1 1 calc R U . . .
C15 C 0.69907(14) 0.31322(18) 0.18018(10) 0.0296(6) Uani 1 1 d . . . . .
H15A H 0.7384 0.3077 0.2065 0.036 Uiso 1 1 calc R U . . .
C16 C 0.72182(15) 0.31400(19) 0.13133(10) 0.0338(6) Uani 1 1 d . . . . .
H16A H 0.7767 0.3087 0.1240 0.041 Uiso 1 1 calc R U . . .
C17 C 0.66509(16) 0.3224(2) 0.09305(11) 0.0476(8) Uani 1 1 d . . . . .
H17A H 0.6810 0.3237 0.0594 0.057 Uiso 1 1 calc R U . . .
C18 C 0.58480(15) 0.3291(2) 0.10348(10) 0.0393(7) Uani 1 1 d . . . . .
H18A H 0.5458 0.3343 0.0770 0.047 Uiso 1 1 calc R U . . .
C19 C 0.34478(14) 0.46275(15) 0.42145(8) 0.0199(5) Uani 1 1 d . . . . .
C20 C 0.27125(15) 0.47920(17) 0.44186(9) 0.0271(5) Uani 1 1 d . . . . .
H20A H 0.2252 0.4473 0.4299 0.033 Uiso 1 1 calc R U . . .
C21 C 0.26479(17) 0.54218(19) 0.47972(10) 0.0345(6) Uani 1 1 d . . . . .
H21A H 0.2144 0.5531 0.4937 0.041 Uiso 1 1 calc R U . . .
C22 C 0.33126(17) 0.58910(17) 0.49724(9) 0.0323(6) Uani 1 1 d . . . . .
H22A H 0.3261 0.6337 0.5223 0.039 Uiso 1 1 calc R U . . .
C23 C 0.40509(16) 0.57138(16) 0.47837(9) 0.0278(6) Uani 1 1 d . . . . .
H23A H 0.4511 0.6026 0.4910 0.033 Uiso 1 1 calc R U . . .
C24 C 0.41202(15) 0.50808(16) 0.44105(9) 0.0241(5) Uani 1 1 d . . . . .
H24A H 0.4631 0.4952 0.4285 0.029 Uiso 1 1 calc R U . . .
C25 C 0.44436(13) 0.32554(14) 0.38448(8) 0.0171(4) Uani 1 1 d . . . . .
C26 C 0.44936(14) 0.27417(15) 0.42827(8) 0.0210(5) Uani 1 1 d . . . . .
H26A H 0.4045 0.2694 0.4488 0.025 Uiso 1 1 calc R U . . .
C27 C 0.52045(14) 0.23011(15) 0.44164(9) 0.0245(5) Uani 1 1 d . . . . .
H27A H 0.5238 0.1945 0.4711 0.029 Uiso 1 1 calc R U . . .
C28 C 0.58625(14) 0.23787(15) 0.41225(9) 0.0255(5) Uani 1 1 d . . . . .
H28A H 0.6346 0.2080 0.4218 0.031 Uiso 1 1 calc R U . . .
C29 C 0.58213(14) 0.28885(15) 0.36905(9) 0.0250(5) Uani 1 1 d . . . . .
H29A H 0.6275 0.2940 0.3490 0.030 Uiso 1 1 calc R U . . .
C30 C 0.51089(13) 0.33273(15) 0.35503(9) 0.0201(5) Uani 1 1 d . . . . .
H30A H 0.5078 0.3676 0.3253 0.024 Uiso 1 1 calc R U . . .
C31 C 0.08670(13) 0.43443(14) 0.19671(8) 0.0159(4) Uani 1 1 d . . . . .
C32 C 0.10397(14) 0.42950(15) 0.14630(8) 0.0212(5) Uani 1 1 d . . . . .
H32A H 0.1579 0.4323 0.1365 0.025 Uiso 1 1 calc R U . . .
C33 C 0.04245(15) 0.42044(16) 0.11035(9) 0.0262(5) Uani 1 1 d . . . . .
H33A H 0.0542 0.4185 0.0760 0.031 Uiso 1 1 calc R U . . .
C34 C -0.03614(14) 0.41430(15) 0.12474(9) 0.0251(5) Uani 1 1 d . . . . .
H34A H -0.0782 0.4086 0.1002 0.030 Uiso 1 1 calc R U . . .
C35 C -0.05331(13) 0.41648(14) 0.17478(9) 0.0205(5) Uani 1 1 d . . . . .
H35A H -0.1070 0.4103 0.1845 0.025 Uiso 1 1 calc R U . . .
C36 C 0.00740(13) 0.42770(14) 0.21092(8) 0.0172(4) Uani 1 1 d . . . . .
H36A H -0.0049 0.4308 0.2452 0.021 Uiso 1 1 calc R U . . .
C37 C 0.14163(13) 0.53879(14) 0.28225(8) 0.0170(4) Uani 1 1 d . . . . .
C38 C 0.12417(13) 0.62315(15) 0.26234(9) 0.0201(5) Uani 1 1 d . . . . .
H38A H 0.1250 0.6320 0.2273 0.024 Uiso 1 1 calc R U . . .
C39 C 0.10551(13) 0.69453(15) 0.29306(9) 0.0216(5) Uani 1 1 d . . . . .
H39A H 0.0939 0.7520 0.2790 0.026 Uiso 1 1 calc R U . A 1
C40 C 0.10380(16) 0.68229(16) 0.34371(10) 0.0302(6) Uani 1 1 d . . . B 1
H40A H 0.0881 0.7304 0.3645 0.036 Uiso 1 1 calc R U . B 1
C41 C 0.12505(19) 0.59943(18) 0.36464(10) 0.0377(7) Uani 1 1 d . . . B 1
H41A H 0.1264 0.5918 0.3998 0.045 Uiso 1 1 calc R U . B 1
C42 C 0.14423(17) 0.52807(17) 0.33386(9) 0.0315(6) Uani 1 1 d . . . B 1
H42A H 0.1592 0.4716 0.3481 0.038 Uiso 1 1 calc R U . B 1
C43 C 0.35356(13) 0.12818(15) 0.35074(9) 0.0212(5) Uani 1 1 d . . . C 1
H43A H 0.3751 0.0670 0.3540 0.032 Uiso 1 1 calc R U . C 1
H43B H 0.3522 0.1561 0.3838 0.032 Uiso 1 1 calc R U . C 1
H43C H 0.3877 0.1639 0.3294 0.032 Uiso 1 1 calc R U . C 1
C44 C 0.21641(14) 0.08369(15) 0.36462(9) 0.0213(5) Uani 1 1 d . . . D 1
H44A H 0.2480 0.0516 0.3911 0.026 Uiso 1 1 calc R U . D 1
H44B H 0.1810 0.0393 0.3473 0.026 Uiso 1 1 calc R U . D 1
C45 C 0.16630(13) 0.15612(15) 0.38793(9) 0.0213(5) Uani 1 1 d . . . D 1
H45A H 0.1239 0.1277 0.4073 0.026 Uiso 1 1 calc R U . D 1
H45B H 0.2004 0.1926 0.4112 0.026 Uiso 1 1 calc R U . D 1
C46 C 0.08960(14) 0.29228(16) 0.37365(9) 0.0250(5) Uani 1 1 d . . . E 1
H46A H 0.0492 0.2691 0.3958 0.038 Uiso 1 1 calc R U . E 1
H46B H 0.0639 0.3315 0.3484 0.038 Uiso 1 1 calc R U . E 1
H46C H 0.1297 0.3268 0.3932 0.038 Uiso 1 1 calc R U . E 1
C47 C 0.06842(14) 0.16612(16) 0.31638(9) 0.0264(5) Uani 1 1 d . . . F 1
H47A H 0.0141 0.1862 0.3246 0.032 Uiso 1 1 calc R U . F 1
H47B H 0.0725 0.1009 0.3237 0.032 Uiso 1 1 calc R U . F 1
C48 C 0.08027(13) 0.18132(16) 0.26115(9) 0.0251(5) Uani 1 1 d . . . F 1
H48A H 0.0481 0.1368 0.2416 0.030 Uiso 1 1 calc R U . F 1
H48B H 0.0608 0.2422 0.2518 0.030 Uiso 1 1 calc R U . F 1
C49 C 0.17564(15) 0.20450(16) 0.19662(9) 0.0262(5) Uani 1 1 d . . . G 1
H49A H 0.1422 0.1682 0.1736 0.039 Uiso 1 1 calc R U . G 1
H49B H 0.2318 0.1983 0.1882 0.039 Uiso 1 1 calc R U . G 1
H49C H 0.1598 0.2679 0.1939 0.039 Uiso 1 1 calc R U . G 1
C50 C 0.19305(15) 0.07757(15) 0.25257(9) 0.0244(5) Uani 1 1 d . . . H 1
H50A H 0.1984 0.0520 0.2188 0.029 Uiso 1 1 calc R U . H 1
H50B H 0.1530 0.0414 0.2700 0.029 Uiso 1 1 calc R U . H 1
C51 C 0.27275(14) 0.07240(15) 0.28106(8) 0.0217(5) Uani 1 1 d . . . H 1
H51A H 0.2854 0.0086 0.2887 0.026 Uiso 1 1 calc R U . H 1
H51B H 0.3152 0.0963 0.2600 0.026 Uiso 1 1 calc R U . H 1
S1 S 0.28078(4) 0.41407(4) 0.01208(2) 0.02888(15) Uani 1 1 d . . . I 1
O5 O 0.29827(10) 0.32787(12) -0.00907(7) 0.0319(4) Uani 1 1 d . . . I 1
O6 O 0.27803(10) 0.41699(13) 0.06589(6) 0.0328(4) Uani 1 1 d . . . I 1
O7 O 0.21853(13) 0.46404(15) -0.01418(7) 0.0513(6) Uani 1 1 d . . . I 1
C52 C 0.3714(2) 0.47788(19) -0.00001(10) 0.0411(7) Uani 1 1 d . . . I 1
F1 F 0.38513(12) 0.48180(13) -0.04875(6) 0.0570(5) Uani 1 1 d . . . I 1
F2 F 0.43561(10) 0.43956(13) 0.02270(6) 0.0479(4) Uani 1 1 d . . . I 1
F3 F 0.36687(15) 0.56208(12) 0.01691(7) 0.0674(6) Uani 1 1 d . . . I 1
S2 S 0.20219(4) 0.84776(4) 0.18855(2) 0.02122(13) Uani 1 1 d . . . J 1
O8 O 0.21213(10) 0.75308(11) 0.17867(6) 0.0276(4) Uani 1 1 d . . . J 1
O9 O 0.13880(11) 0.87007(12) 0.22126(7) 0.0356(4) Uani 1 1 d . . . J 1
O10 O 0.27561(10) 0.89633(11) 0.19839(6) 0.0297(4) Uani 1 1 d . . . J 1
C53 C 0.16605(15) 0.89399(16) 0.12880(9) 0.0275(5) Uani 1 1 d . . . J 1
F4 F 0.21695(9) 0.87748(10) 0.09257(5) 0.0358(4) Uani 1 1 d . . . J 1
F5 F 0.09551(9) 0.85975(11) 0.11406(6) 0.0431(4) Uani 1 1 d . . . J 1
F6 F 0.15767(10) 0.98369(10) 0.13139(6) 0.0426(4) Uani 1 1 d . . . J 1
C54 C 0.12814(17) 0.63384(18) 0.02349(10) 0.0341(6) Uani 1 1 d . . . K 1
H54A H 0.1509 0.5756 0.0118 0.041 Uiso 1 1 calc R U . K 1
Cl1 Cl 0.02235(4) 0.62486(6) 0.02319(3) 0.04572(18) Uani 1 1 d . . . K 1
Cl2 Cl 0.16555(5) 0.65609(5) 0.08404(3) 0.04300(18) Uani 1 1 d . . . K 1
Cl3 Cl 0.15597(5) 0.72114(6) -0.01733(3) 0.04529(18) Uani 1 1 d . . . K 1
loop_
_atom_site_aniso_label
_atom_site_aniso_U_11
_atom_site_aniso_U_22
_atom_site_aniso_U_33
_atom_site_aniso_U_23
_atom_site_aniso_U_13
_atom_site_aniso_U_12
Mn1 0.01061(16) 0.01541(16) 0.01271(16) -0.00174(12) -0.00221(12) 0.00036(12)
Fe1 0.01285(16) 0.01660(16) 0.01678(16) 0.00053(12) -0.00233(12) 0.00010(12)
P1 0.0134(3) 0.0186(3) 0.0155(3) 0.0002(2) 0.0002(2) -0.0001(2)
P2 0.0135(3) 0.0177(3) 0.0129(3) -0.0004(2) -0.0007(2) -0.0017(2)
P3 0.0122(3) 0.0156(3) 0.0147(3) 0.0016(2) -0.0022(2) -0.0005(2)
O1 0.0163(8) 0.0221(8) 0.0194(8) -0.0041(6) -0.0018(6) 0.0015(6)
O2 0.0179(8) 0.0210(8) 0.0161(8) 0.0006(6) 0.0002(6) 0.0004(6)
O3 0.0141(8) 0.0198(8) 0.0158(8) 0.0006(6) -0.0008(6) -0.0015(6)
O4 0.0125(7) 0.0176(7) 0.0168(8) 0.0027(6) -0.0019(6) 0.0002(6)
N1 0.0164(9) 0.0185(9) 0.0143(9) 0.0002(7) -0.0003(7) -0.0020(7)
N2 0.0148(10) 0.0190(9) 0.0182(10) 0.0000(8) -0.0027(8) -0.0022(8)
N3 0.0177(9) 0.0160(9) 0.0145(9) -0.0003(7) -0.0020(7) -0.0022(7)
N4 0.0138(9) 0.0209(9) 0.0157(9) 0.0055(7) -0.0011(7) -0.0010(7)
N5 0.0126(9) 0.0190(9) 0.0177(10) 0.0021(7) -0.0033(7) -0.0002(7)
N6 0.0117(9) 0.0206(9) 0.0238(10) 0.0044(8) -0.0029(8) 0.0002(7)
N7 0.0195(10) 0.0184(9) 0.0233(10) 0.0014(8) -0.0070(8) 0.0011(8)
C1 0.0129(11) 0.0181(11) 0.0214(12) 0.0024(9) 0.0020(9) -0.0037(9)
C2 0.0166(11) 0.0206(11) 0.0182(11) 0.0024(9) 0.0009(9) -0.0025(9)
C3 0.0242(12) 0.0169(11) 0.0200(12) -0.0023(9) -0.0046(9) -0.0058(9)
C4 0.0330(14) 0.0171(11) 0.0169(12) -0.0006(9) 0.0002(10) -0.0040(10)
C5 0.0182(11) 0.0168(11) 0.0209(12) 0.0031(9) 0.0018(9) 0.0017(9)
C6 0.0146(11) 0.0210(11) 0.0176(11) 0.0057(9) 0.0015(9) 0.0026(9)
C7 0.0142(11) 0.0201(11) 0.0203(12) -0.0027(9) -0.0018(9) 0.0013(9)
C8 0.0419(16) 0.0257(13) 0.0214(13) 0.0017(10) -0.0017(11) -0.0044(11)
C9 0.0536(18) 0.0325(14) 0.0214(14) -0.0060(11) -0.0055(12) -0.0055(13)
C10 0.0308(14) 0.0243(13) 0.0333(14) -0.0069(11) -0.0023(11) -0.0042(11)
C11 0.0207(12) 0.0217(12) 0.0298(13) 0.0004(10) 0.0027(10) -0.0001(9)
C12 0.0176(11) 0.0225(12) 0.0219(12) -0.0006(9) 0.0002(9) -0.0007(9)
C13 0.0171(11) 0.0198(11) 0.0213(12) 0.0024(9) 0.0012(9) 0.0020(9)
C14 0.0205(12) 0.0280(12) 0.0197(12) -0.0046(10) -0.0017(9) 0.0004(10)
C15 0.0183(12) 0.0368(14) 0.0333(14) -0.0064(11) -0.0067(11) 0.0023(11)
C16 0.0152(12) 0.0452(16) 0.0411(16) 0.0048(13) 0.0029(11) 0.0056(11)
C17 0.0238(14) 0.092(3) 0.0276(15) 0.0177(15) 0.0101(12) 0.0170(15)
C18 0.0189(13) 0.076(2) 0.0232(14) 0.0126(13) 0.0004(11) 0.0116(13)
C19 0.0239(12) 0.0222(11) 0.0137(11) -0.0001(9) 0.0009(9) -0.0012(9)
C20 0.0238(13) 0.0347(14) 0.0228(13) -0.0039(10) 0.0014(10) -0.0015(11)
C21 0.0336(15) 0.0426(16) 0.0275(14) -0.0073(12) 0.0045(11) 0.0049(12)
C22 0.0485(17) 0.0282(13) 0.0202(13) -0.0072(10) 0.0008(12) -0.0019(12)
C23 0.0353(15) 0.0254(13) 0.0223(13) -0.0009(10) -0.0048(11) -0.0042(11)
C24 0.0275(13) 0.0237(12) 0.0206(12) -0.0011(9) -0.0036(10) -0.0017(10)
C25 0.0165(11) 0.0170(11) 0.0176(11) -0.0021(8) -0.0034(9) -0.0039(9)
C26 0.0217(12) 0.0223(11) 0.0187(12) -0.0010(9) -0.0029(9) -0.0045(9)
C27 0.0277(13) 0.0196(11) 0.0254(13) 0.0022(9) -0.0096(10) -0.0009(10)
C28 0.0200(12) 0.0189(12) 0.0367(14) -0.0043(10) -0.0104(11) 0.0036(9)
C29 0.0167(12) 0.0223(12) 0.0359(14) -0.0063(10) -0.0001(10) -0.0031(9)
C30 0.0172(11) 0.0204(11) 0.0226(12) 0.0010(9) -0.0003(9) -0.0032(9)
C31 0.0157(11) 0.0123(10) 0.0194(11) 0.0020(8) -0.0037(9) -0.0004(8)
C32 0.0196(12) 0.0243(12) 0.0196(12) 0.0027(9) -0.0018(9) -0.0035(9)
C33 0.0322(14) 0.0279(13) 0.0182(12) 0.0006(10) -0.0042(10) -0.0055(11)
C34 0.0236(13) 0.0219(12) 0.0288(13) 0.0035(10) -0.0139(10) -0.0043(10)
C35 0.0143(11) 0.0146(10) 0.0321(13) 0.0017(9) -0.0048(10) -0.0007(8)
C36 0.0174(11) 0.0131(10) 0.0210(12) 0.0024(8) -0.0012(9) 0.0021(8)
C37 0.0131(10) 0.0186(11) 0.0191(11) -0.0005(9) -0.0017(9) -0.0031(8)
C38 0.0149(11) 0.0232(11) 0.0221(12) 0.0052(9) 0.0002(9) 0.0008(9)
C39 0.0148(11) 0.0180(11) 0.0319(13) 0.0038(10) -0.0023(10) 0.0000(9)
C40 0.0374(15) 0.0222(12) 0.0309(14) -0.0072(10) -0.0012(11) -0.0002(11)
C41 0.060(2) 0.0307(14) 0.0223(14) -0.0004(11) 0.0000(13) 0.0039(13)
C42 0.0482(17) 0.0226(13) 0.0233(13) 0.0024(10) -0.0020(12) 0.0036(11)
C43 0.0148(11) 0.0224(12) 0.0260(13) 0.0018(9) -0.0049(9) 0.0026(9)
C44 0.0183(12) 0.0220(12) 0.0232(12) 0.0067(9) -0.0028(9) -0.0003(9)
C45 0.0168(11) 0.0257(12) 0.0216(12) 0.0085(9) 0.0021(9) 0.0009(9)
C46 0.0199(12) 0.0251(12) 0.0306(13) 0.0053(10) 0.0072(10) 0.0033(10)
C47 0.0141(11) 0.0258(12) 0.0386(15) 0.0050(11) -0.0065(10) -0.0041(10)
C48 0.0158(12) 0.0229(12) 0.0357(14) 0.0023(10) -0.0098(10) -0.0019(9)
C49 0.0326(14) 0.0221(12) 0.0230(13) -0.0006(10) -0.0089(10) 0.0011(10)
C50 0.0298(14) 0.0159(11) 0.0267(13) -0.0018(9) -0.0087(10) 0.0006(10)
C51 0.0254(13) 0.0178(11) 0.0216(12) -0.0031(9) -0.0044(10) 0.0033(9)
S1 0.0291(3) 0.0327(3) 0.0241(3) -0.0090(3) -0.0088(3) 0.0092(3)
O5 0.0287(10) 0.0326(10) 0.0342(10) -0.0089(8) -0.0024(8) 0.0050(8)
O6 0.0231(9) 0.0506(11) 0.0242(9) -0.0092(8) -0.0049(7) 0.0042(8)
O7 0.0559(14) 0.0565(13) 0.0394(12) -0.0227(10) -0.0272(10) 0.0340(11)
C52 0.065(2) 0.0373(16) 0.0208(14) -0.0017(11) -0.0068(13) -0.0112(14)
F1 0.0908(15) 0.0606(12) 0.0193(8) 0.0003(8) -0.0024(9) -0.0306(11)
F2 0.0344(9) 0.0795(13) 0.0296(9) 0.0011(8) -0.0018(7) -0.0169(9)
F3 0.1246(19) 0.0369(10) 0.0395(11) -0.0084(8) -0.0135(11) -0.0250(11)
S2 0.0258(3) 0.0189(3) 0.0192(3) 0.0015(2) 0.0040(2) 0.0025(2)
O8 0.0366(10) 0.0204(8) 0.0258(9) -0.0001(7) 0.0020(8) 0.0025(7)
O9 0.0421(11) 0.0328(10) 0.0331(10) 0.0048(8) 0.0193(9) 0.0069(8)
O10 0.0299(10) 0.0291(9) 0.0297(10) -0.0046(7) -0.0050(8) -0.0024(7)
C53 0.0273(13) 0.0267(13) 0.0281(14) 0.0020(10) -0.0019(11) -0.0027(10)
F4 0.0440(9) 0.0438(9) 0.0200(7) 0.0019(6) 0.0056(7) -0.0085(7)
F5 0.0273(8) 0.0508(10) 0.0500(10) 0.0049(8) -0.0138(7) -0.0056(7)
F6 0.0603(11) 0.0256(8) 0.0411(9) 0.0098(7) -0.0083(8) 0.0071(7)
C54 0.0396(16) 0.0332(14) 0.0290(14) -0.0072(11) -0.0053(12) 0.0085(12)
Cl1 0.0389(4) 0.0630(5) 0.0350(4) -0.0055(3) -0.0017(3) -0.0047(4)
Cl2 0.0596(5) 0.0401(4) 0.0279(4) -0.0004(3) -0.0164(3) -0.0026(3)
Cl3 0.0449(4) 0.0611(5) 0.0302(4) 0.0054(3) 0.0049(3) -0.0004(4)
loop_
_atom_type_symbol
_atom_type_description
_atom_type_scat_dispersion_real
_atom_type_scat_dispersion_imag
_atom_type_scat_source
C C 0.0033 0.0016 'International Tables Vol C Tables 4.2.6.8 and 6.1.1.4'
H H 0.0000 0.0000 'International Tables Vol C Tables 4.2.6.8 and 6.1.1.4'
N N 0.0061 0.0033 'International Tables Vol C Tables 4.2.6.8 and 6.1.1.4'
O O 0.0106 0.0060 'International Tables Vol C Tables 4.2.6.8 and 6.1.1.4'
F F 0.0171 0.0103 'International Tables Vol C Tables 4.2.6.8 and 6.1.1.4'
P P 0.1023 0.0942 'International Tables Vol C Tables 4.2.6.8 and 6.1.1.4'
S S 0.1246 0.1234 'International Tables Vol C Tables 4.2.6.8 and 6.1.1.4'
Cl Cl 0.1484 0.1585 'International Tables Vol C Tables 4.2.6.8 and 6.1.1.4'
Mn Mn 0.3368 0.7283 'International Tables Vol C Tables 4.2.6.8 and 6.1.1.4'
Fe Fe 0.3463 0.8444 'International Tables Vol C Tables 4.2.6.8 and 6.1.1.4'
loop_
_geom_angle_atom_site_label_1
_geom_angle_atom_site_label_2
_geom_angle_atom_site_label_3
_geom_angle
_geom_angle_site_symmetry_1
_geom_angle_site_symmetry_3
_geom_angle_publ_flag
O1 Mn1 N4 101.33(7) . . ?
O1 Mn1 N3 99.01(7) . . ?
N4 Mn1 N3 107.64(7) . . ?
O1 Mn1 O2 91.23(6) . . ?
N4 Mn1 O2 133.29(7) . . ?
N3 Mn1 O2 114.56(7) . . ?
O1 Mn1 N1 178.25(7) . . ?
N4 Mn1 N1 79.49(7) . . ?
N3 Mn1 N1 82.18(7) . . ?
O2 Mn1 N1 87.09(6) . . ?
O1 Mn1 Fe1 26.70(5) . . ?
N4 Mn1 Fe1 85.83(5) . . ?
N3 Mn1 Fe1 83.21(5) . . ?
O2 Mn1 Fe1 117.45(4) . . ?
N1 Mn1 Fe1 155.04(5) . . ?
O1 Fe1 O4 96.22(6) . . ?
O1 Fe1 O3 93.41(6) . . ?
O4 Fe1 O3 98.29(6) . . ?
O1 Fe1 N6 174.11(7) . . ?
O4 Fe1 N6 87.53(6) . . ?
O3 Fe1 N6 90.53(6) . . ?
O1 Fe1 N5 96.05(7) . . ?
O4 Fe1 N5 161.93(6) . . ?
O3 Fe1 N5 94.17(6) . . ?
N6 Fe1 N5 79.29(7) . . ?
O1 Fe1 N7 95.75(7) . . ?
O4 Fe1 N7 86.77(6) . . ?
O3 Fe1 N7 169.01(6) . . ?
N6 Fe1 N7 79.89(7) . . ?
N5 Fe1 N7 78.84(7) . . ?
O1 Fe1 Mn1 26.68(5) . . ?
O4 Fe1 Mn1 75.19(4) . . ?
O3 Fe1 Mn1 80.50(4) . . ?
N6 Fe1 Mn1 159.02(5) . . ?
N5 Fe1 Mn1 120.02(5) . . ?
N7 Fe1 Mn1 110.32(5) . . ?
O2 P1 N2 112.86(9) . . ?
O2 P1 C13 107.55(10) . . ?
N2 P1 C13 109.83(10) . . ?
O2 P1 C7 112.91(10) . . ?
N2 P1 C7 105.43(10) . . ?
C13 P1 C7 108.16(10) . . ?
O3 P2 N3 114.29(9) . . ?
O3 P2 C19 109.66(9) . . ?
N3 P2 C19 109.85(10) . . ?
O3 P2 C25 110.63(9) . . ?
N3 P2 C25 108.86(10) . . ?
C19 P2 C25 102.94(10) . . ?
O4 P3 N4 112.36(9) . . ?
O4 P3 C37 105.82(9) . . ?
N4 P3 C37 113.66(10) . . ?
O4 P3 C31 109.39(9) . . ?
N4 P3 C31 109.41(10) . . ?
C37 P3 C31 105.92(10) . . ?
Mn1 O1 Fe1 126.62(8) . . ?
P1 O2 Mn1 120.50(9) . . ?
P2 O3 Fe1 128.91(9) . . ?
P3 O4 Fe1 139.46(9) . . ?
C1 N1 C3 106.86(16) . . ?
C1 N1 C5 110.69(16) . . ?
C3 N1 C5 109.79(17) . . ?
C1 N1 Mn1 120.08(13) . . ?
C3 N1 Mn1 101.87(12) . . ?
C5 N1 Mn1 106.97(12) . . ?
C2 N2 P1 123.24(16) . . ?
C4 N3 P2 122.95(15) . . ?
C4 N3 Mn1 113.61(14) . . ?
P2 N3 Mn1 123.08(10) . . ?
C6 N4 P3 117.93(14) . . ?
C6 N4 Mn1 115.25(13) . . ?
P3 N4 Mn1 121.51(10) . . ?
C43 N5 C51 109.15(17) . . ?
C43 N5 C44 109.45(17) . . ?
C51 N5 C44 111.91(17) . . ?
C43 N5 Fe1 111.00(13) . . ?
C51 N5 Fe1 104.03(13) . . ?
C44 N5 Fe1 111.20(13) . . ?
C46 N6 C45 108.63(18) . . ?
C46 N6 C47 109.63(18) . . ?
C45 N6 C47 111.63(17) . . ?
C46 N6 Fe1 112.34(13) . . ?
C45 N6 Fe1 104.08(12) . . ?
C47 N6 Fe1 110.43(14) . . ?
C48 N7 C49 109.65(18) . . ?
C48 N7 C50 111.22(18) . . ?
C49 N7 C50 108.84(18) . . ?
C48 N7 Fe1 104.22(14) . . ?
C49 N7 Fe1 112.03(14) . . ?
C50 N7 Fe1 110.85(13) . . ?
N1 C1 C2 116.44(17) . . ?
N2 C2 C1 113.76(18) . . ?
N1 C3 C4 112.14(18) . . ?
N3 C4 C3 108.31(18) . . ?
N1 C5 C6 109.58(17) . . ?
N4 C6 C5 108.83(17) . . ?
C12 C7 C8 119.7(2) . . ?
C12 C7 P1 117.83(17) . . ?
C8 C7 P1 122.34(18) . . ?
C9 C8 C7 119.5(2) . . ?
C10 C9 C8 120.4(2) . . ?
C11 C10 C9 120.2(2) . . ?
C10 C11 C12 119.8(2) . . ?
C7 C12 C11 120.3(2) . . ?
C18 C13 C14 119.3(2) . . ?
C18 C13 P1 119.45(18) . . ?
C14 C13 P1 121.16(17) . . ?
C15 C14 C13 120.0(2) . . ?
C16 C15 C14 120.2(2) . . ?
C17 C16 C15 120.1(2) . . ?
C16 C17 C18 120.1(3) . . ?
C17 C18 C13 120.2(2) . . ?
C20 C19 C24 118.8(2) . . ?
C20 C19 P2 120.92(18) . . ?
C24 C19 P2 120.26(18) . . ?
C21 C20 C19 120.1(2) . . ?
C22 C21 C20 120.3(2) . . ?
C23 C22 C21 120.1(2) . . ?
C22 C23 C24 119.8(2) . . ?
C23 C24 C19 120.8(2) . . ?
C30 C25 C26 119.6(2) . . ?
C30 C25 P2 120.84(17) . . ?
C26 C25 P2 119.50(17) . . ?
C27 C26 C25 119.7(2) . . ?
C28 C27 C26 120.4(2) . . ?
C29 C28 C27 120.5(2) . . ?
C28 C29 C30 119.7(2) . . ?
C25 C30 C29 120.3(2) . . ?
C32 C31 C36 119.6(2) . . ?
C32 C31 P3 121.26(17) . . ?
C36 C31 P3 119.02(17) . . ?
C33 C32 C31 120.1(2) . . ?
C34 C33 C32 119.9(2) . . ?
C35 C34 C33 120.1(2) . . ?
C34 C35 C36 120.4(2) . . ?
C35 C36 C31 119.7(2) . . ?
C38 C37 C42 118.9(2) . . ?
C38 C37 P3 123.35(17) . . ?
C42 C37 P3 117.67(17) . . ?
C39 C38 C37 120.7(2) . . ?
C40 C39 C38 120.1(2) . . ?
C39 C40 C41 120.1(2) . . ?
C42 C41 C40 119.7(2) . . ?
C41 C42 C37 120.3(2) . . ?
N5 C44 C45 110.37(18) . . ?
N6 C45 C44 110.87(18) . . ?
N6 C47 C48 112.37(18) . . ?
N7 C48 C47 111.97(18) . . ?
N7 C50 C51 110.59(18) . . ?
N5 C51 C50 111.40(18) . . ?
O5 S1 O7 114.87(11) . . ?
O5 S1 O6 115.85(11) . . ?
O7 S1 O6 114.99(12) . . ?
O5 S1 C52 102.05(12) . . ?
O7 S1 C52 103.68(15) . . ?
O6 S1 C52 102.67(11) . . ?
F3 C52 F1 107.8(2) . . ?
F3 C52 F2 107.3(2) . . ?
F1 C52 F2 107.3(3) . . ?
F3 C52 S1 111.5(2) . . ?
F1 C52 S1 111.74(19) . . ?
F2 C52 S1 110.86(19) . . ?
O9 S2 O10 114.61(11) . . ?
O9 S2 O8 115.40(11) . . ?
O10 S2 O8 114.71(11) . . ?
O9 S2 C53 102.75(11) . . ?
O10 S2 C53 103.01(11) . . ?
O8 S2 C53 104.01(11) . . ?
F5 C53 F4 107.2(2) . . ?
F5 C53 F6 107.5(2) . . ?
F4 C53 F6 106.9(2) . . ?
F5 C53 S2 112.21(17) . . ?
F4 C53 S2 111.67(17) . . ?
F6 C53 S2 111.09(17) . . ?
Cl2 C54 Cl3 110.03(15) . . ?
Cl2 C54 Cl1 109.90(15) . . ?
Cl3 C54 Cl1 109.75(14) . . ?
loop_
_geom_bond_atom_site_label_1
_geom_bond_atom_site_label_2
_geom_bond_distance
_geom_bond_site_symmetry_2
_geom_bond_publ_flag
Mn1 O1 1.7934(16) . ?
Mn1 N4 2.0072(18) . ?
Mn1 N3 2.0093(18) . ?
Mn1 O2 2.0331(15) . ?
Mn1 N1 2.2883(18) . ?
Mn1 Fe1 3.2057(4) . ?
Fe1 O1 1.7946(15) . ?
Fe1 O4 2.0000(14) . ?
Fe1 O3 2.0601(15) . ?
Fe1 N6 2.2113(18) . ?
Fe1 N5 2.2123(18) . ?
Fe1 N7 2.2336(19) . ?
P1 O2 1.5130(16) . ?
P1 N2 1.6231(19) . ?
P1 C13 1.793(2) . ?
P1 C7 1.794(2) . ?
P2 O3 1.5283(15) . ?
P2 N3 1.6183(18) . ?
P2 C19 1.809(2) . ?
P2 C25 1.814(2) . ?
P3 O4 1.5171(15) . ?
P3 N4 1.6138(18) . ?
P3 C37 1.809(2) . ?
P3 C31 1.811(2) . ?
N1 C1 1.487(3) . ?
N1 C3 1.493(3) . ?
N1 C5 1.497(3) . ?
N2 C2 1.468(3) . ?
N3 C4 1.476(3) . ?
N4 C6 1.482(3) . ?
N5 C43 1.479(3) . ?
N5 C51 1.481(3) . ?
N5 C44 1.499(3) . ?
N6 C46 1.481(3) . ?
N6 C45 1.495(3) . ?
N6 C47 1.503(3) . ?
N7 C48 1.482(3) . ?
N7 C49 1.482(3) . ?
N7 C50 1.492(3) . ?
C1 C2 1.526(3) . ?
C3 C4 1.513(3) . ?
C5 C6 1.513(3) . ?
C7 C12 1.386(3) . ?
C7 C8 1.397(3) . ?
C8 C9 1.386(4) . ?
C9 C10 1.384(4) . ?
C10 C11 1.381(3) . ?
C11 C12 1.392(3) . ?
C13 C18 1.390(3) . ?
C13 C14 1.391(3) . ?
C14 C15 1.390(3) . ?
C15 C16 1.378(4) . ?
C16 C17 1.378(4) . ?
C17 C18 1.387(4) . ?
C19 C20 1.388(3) . ?
C19 C24 1.397(3) . ?
C20 C21 1.387(3) . ?
C21 C22 1.380(4) . ?
C22 C23 1.378(4) . ?
C23 C24 1.381(3) . ?
C25 C30 1.394(3) . ?
C25 C26 1.400(3) . ?
C26 C27 1.393(3) . ?
C27 C28 1.383(3) . ?
C28 C29 1.383(3) . ?
C29 C30 1.398(3) . ?
C31 C32 1.395(3) . ?
C31 C36 1.399(3) . ?
C32 C33 1.391(3) . ?
C33 C34 1.388(3) . ?
C34 C35 1.383(3) . ?
C35 C36 1.387(3) . ?
C37 C38 1.388(3) . ?
C37 C42 1.392(3) . ?
C38 C39 1.385(3) . ?
C39 C40 1.372(3) . ?
C40 C41 1.393(4) . ?
C41 C42 1.388(4) . ?
C44 C45 1.513(3) . ?
C47 C48 1.519(3) . ?
C50 C51 1.514(3) . ?
S1 O5 1.4341(18) . ?
S1 O7 1.4409(19) . ?
S1 O6 1.4461(18) . ?
S1 C52 1.828(3) . ?
C52 F3 1.333(3) . ?
C52 F1 1.337(3) . ?
C52 F2 1.342(3) . ?
S2 O9 1.4406(17) . ?
S2 O10 1.4406(18) . ?
S2 O8 1.4408(17) . ?
S2 C53 1.825(3) . ?
C53 F5 1.332(3) . ?
C53 F4 1.339(3) . ?
C53 F6 1.341(3) . ?
C54 Cl2 1.750(3) . ?
C54 Cl3 1.770(3) . ?
C54 Cl1 1.776(3) . ?
loop_
_geom_hbond_atom_site_label_D
_geom_hbond_atom_site_label_H
_geom_hbond_atom_site_label_A
_geom_hbond_distance_DH
_geom_hbond_distance_HA
_geom_hbond_distance_DA
_geom_hbond_angle_DHA
_geom_hbond_site_symmetry_A
N2 H2 O6 0.82(3) 2.07(3) 2.859(3) 160(3) .
