#------------------------------------------------------------------------------
#$Date: 2024-02-04 13:31:11 +0200 (Sun, 04 Feb 2024) $
#$Revision: 289414 $
#$URL: file:///home/coder/svn-repositories/cod/cif/1/57/04/1570414.cif $
#------------------------------------------------------------------------------
#
# This file is available in the Crystallography Open Database (COD),
# http://www.crystallography.net/
#
# All data on this site have been placed in the public domain by the
# contributors.
#
data_1570414
loop_
_publ_author_name
'Cheng, Qiuhong'
'Hao, Aiyou'
'Xing, Pengyao'
_publ_section_title
;
 Selective chiral dimerization and folding driven by arene-perfluoroarene
 force.
;
_journal_issue                   2
_journal_name_full               'Chemical science'
_journal_page_first              618
_journal_page_last               628
_journal_paper_doi               10.1039/d3sc05212e
_journal_volume                  15
_journal_year                    2024
_chemical_formula_moiety         'C33 H22 F7 N3 O2'
_chemical_formula_sum            'C33 H22 F7 N3 O2'
_chemical_formula_weight         625.53
_space_group_crystal_system      orthorhombic
_space_group_IT_number           20
_space_group_name_Hall           'C 2c 2'
_space_group_name_H-M_alt        'C 2 2 21'
_atom_sites_solution_hydrogens   geom
_atom_sites_solution_primary     dual
_audit_creation_date             2022-09-19
_audit_creation_method
;
Olex2 1.3
(compiled 2020.02.04 svn.rd84adfe8 for OlexSys, GUI svn.r6032)
;
_audit_update_record
;
2023-03-03 deposited with the CCDC.	2023-11-28 downloaded from the CCDC.
;
_cell_angle_alpha                90
_cell_angle_beta                 90
_cell_angle_gamma                90
_cell_formula_units_Z            8
_cell_length_a                   7.1815(3)
_cell_length_b                   17.3109(7)
_cell_length_c                   46.2197(17)
_cell_measurement_reflns_used    4723
_cell_measurement_temperature    173.01(10)
_cell_measurement_theta_max      75.2640
_cell_measurement_theta_min      5.1820
_cell_volume                     5746.0(4)
_computing_cell_refinement       'CrysAlisPro 1.171.42.49 (Rigaku OD, 2022)'
_computing_data_collection       'CrysAlisPro 1.171.42.49 (Rigaku OD, 2022)'
_computing_data_reduction        'CrysAlisPro 1.171.42.49 (Rigaku OD, 2022)'
_computing_molecular_graphics    'Olex2 1.3 (Dolomanov et al., 2009)'
_computing_publication_material  'Olex2 1.3 (Dolomanov et al., 2009)'
_computing_structure_refinement  'SHELXL 2018/3 (Sheldrick, 2015)'
_computing_structure_solution    'SHELXT  (Sheldrick, 2015)'
_diffrn_ambient_environment      N~2~
_diffrn_ambient_temperature      173.01(10)
_diffrn_detector                 'Hybrid Pixel Array Detector'
_diffrn_detector_area_resol_mean 10.0000
_diffrn_detector_type            HyPix
_diffrn_measured_fraction_theta_full 0.990
_diffrn_measured_fraction_theta_max 0.943
_diffrn_measurement_details
;
List of Runs (angles in degrees, time in seconds):

  # Type    Start    End  Width  t~exp~   \w     \q     \k     \f   Frames
#--------------------------------------------------------------------------
  1  \w     35.00 109.00   1.00    3.60    --  106.65-124.00  32.00   74
  2  \w     34.00  91.00   1.00    3.60    --  106.65 -72.00 100.00   57
  3  \w     94.00 126.00   1.00    3.60    --  106.65  49.00  49.00   32
  4  \w    130.00 178.00   1.00    3.60    --  106.65  49.00  49.00   48
  5  \w     94.00 163.00   1.00    3.60    --  106.65  19.00-150.00   69
  6  \w    -65.00  22.00   1.00    1.30    --  -48.42  72.00-129.00   87
  7  \w    -85.00 -59.00   1.00    3.60    --  -91.75  72.00-129.00   26
  8  \w    -66.00 -19.00   1.00    3.60    --  -91.75  57.00-150.00   47
  9  \w    -49.00 -19.00   1.00    3.60    --  -91.75  72.00-129.00   30
 10  \w    -55.00 -30.00   1.00    3.60    --  -91.75  49.00  49.00   25
 11  \w   -165.00 -82.00   1.00    3.60    --  -91.75 -38.00 150.00   83
 12  \w    -85.00 -19.00   1.00    3.60    --  -91.75 125.00-120.00   66
 13  \w   -120.00 -73.00   1.00    1.30    --  -48.42-125.00-180.00   47
;
_diffrn_measurement_device       'four-circle diffractometer'
_diffrn_measurement_device_type  'XtaLAB Synergy, Dualflex, HyPix'
_diffrn_measurement_method       '\w scans'
_diffrn_orient_matrix_type
'CrysAlisPro convention (1999,Acta A55,543-557)'
_diffrn_orient_matrix_UB_11      0.1671102000
_diffrn_orient_matrix_UB_12      -0.0482806000
_diffrn_orient_matrix_UB_13      -0.0105180000
_diffrn_orient_matrix_UB_21      -0.0444152000
_diffrn_orient_matrix_UB_22      0.0223591000
_diffrn_orient_matrix_UB_23      -0.0314906000
_diffrn_orient_matrix_UB_31      0.1273060000
_diffrn_orient_matrix_UB_32      0.0712784000
_diffrn_orient_matrix_UB_33      0.0027799000
_diffrn_radiation_monochromator  mirror
_diffrn_radiation_probe          x-ray
_diffrn_radiation_type           'Cu K\a'
_diffrn_radiation_wavelength     1.54184
_diffrn_reflns_av_R_equivalents  0.0461
_diffrn_reflns_av_unetI/netI     0.0477
_diffrn_reflns_Laue_measured_fraction_full 0.990
_diffrn_reflns_Laue_measured_fraction_max 0.943
_diffrn_reflns_limit_h_max       9
_diffrn_reflns_limit_h_min       -8
_diffrn_reflns_limit_k_max       21
_diffrn_reflns_limit_k_min       -19
_diffrn_reflns_limit_l_max       58
_diffrn_reflns_limit_l_min       -50
_diffrn_reflns_number            14428
_diffrn_reflns_point_group_measured_fraction_full 0.972
_diffrn_reflns_point_group_measured_fraction_max 0.906
_diffrn_reflns_theta_full        67.684
_diffrn_reflns_theta_max         76.505
_diffrn_reflns_theta_min         5.110
_diffrn_source                   'micro-focus sealed X-ray tube'
_diffrn_source_type              'PhotonJet (Cu) X-ray Source'
_exptl_absorpt_coefficient_mu    1.057
_exptl_absorpt_correction_T_max  1.00000
_exptl_absorpt_correction_T_min  0.29192
_exptl_absorpt_correction_type   multi-scan
_exptl_absorpt_process_details
;
CrysAlisPro 1.171.42.49 (Rigaku Oxford Diffraction, 2022)
Empirical absorption correction using spherical harmonics,
implemented in SCALE3 ABSPACK scaling algorithm.
;
_exptl_crystal_colour            'clear light colourless'
_exptl_crystal_colour_lustre     clear
_exptl_crystal_colour_modifier   light
_exptl_crystal_colour_primary    colourless
_exptl_crystal_density_diffrn    1.446
_exptl_crystal_description       needle
_exptl_crystal_F_000             2560
_exptl_crystal_size_max          0.03
_exptl_crystal_size_mid          0.02
_exptl_crystal_size_min          0.01
_refine_diff_density_max         0.330
_refine_diff_density_min         -0.442
_refine_diff_density_rms         0.047
_refine_ls_abs_structure_details
;
 Flack x determined using 1575 quotients [(I+)-(I-)]/[(I+)+(I-)]
 (Parsons, Flack and Wagner, Acta Cryst. B69 (2013) 249-259).
;
_refine_ls_abs_structure_Flack   0.41(10)
_refine_ls_extinction_method     none
_refine_ls_goodness_of_fit_ref   0.857
_refine_ls_hydrogen_treatment    constr
_refine_ls_matrix_type           full
_refine_ls_number_parameters     407
_refine_ls_number_reflns         5464
_refine_ls_number_restraints     6
_refine_ls_restrained_S_all      0.939
_refine_ls_R_factor_all          0.0634
_refine_ls_R_factor_gt           0.0522
_refine_ls_shift/su_max          0.000
_refine_ls_shift/su_mean         0.000
_refine_ls_structure_factor_coef Fsqd
_refine_ls_weighting_details
'w=1/[\s^2^(Fo^2^)+(0.1095P)^2^+6.1639P] where P=(Fo^2^+2Fc^2^)/3'
_refine_ls_weighting_scheme      calc
_refine_ls_wR_factor_gt          0.1467
_refine_ls_wR_factor_ref         0.1567
_reflns_Friedel_coverage         0.707
_reflns_Friedel_fraction_full    0.949
_reflns_Friedel_fraction_max     0.858
_reflns_number_gt                4542
_reflns_number_total             5464
_reflns_threshold_expression     'I > 2\s(I)'
_cod_data_source_file            d3sc05212e2.cif
_cod_data_source_block           20220917pma_auto
_cod_depositor_comments
'Adding full bibliography for 1570414--1570417.cif.'
_cod_original_cell_volume        5745.9(4)
_cod_database_code               1570414
_shelx_shelxl_version_number     2018/3
_chemical_oxdiff_formula         CNOF
_shelx_space_group_comment
;
The symmetry employed for this shelxl refinement is uniquely defined
by the following loop, which should always be used as a source of
symmetry information in preference to the above space-group names.
They are only intended as comments.
;
_shelx_estimated_absorpt_t_max   0.990
_shelx_estimated_absorpt_t_min   0.969
_reflns_odcompleteness_completeness 98.84
_reflns_odcompleteness_iscentric 1
_reflns_odcompleteness_theta     66.97
_olex2_refinement_description
;
1. Fixed Uiso
 At 1.2 times of:
  All C(H) groups, All C(H,H) groups, All N(H) groups
 At 1.5 times of:
  All C(H,H,H) groups
2. Uiso/Uaniso restraints and constraints
Uanis(F27) \\sim Ueq: with sigma of 0.001 and sigma for terminal atoms of 0.002
3.a Ternary CH refined with riding coordinates:
 C17(H17)
3.b Secondary CH2 refined with riding coordinates:
 C12(H12A,H12B), C14(H14A,H14B), C13(H13A,H13B)
3.c Aromatic/amide H refined with riding coordinates:
 N18(H18), N15(H15), N11(H11), C31(H31), C41(H41), C32(H32), C42(H42),
 C37(H37), C36(H36), C45(H45), C43(H43), C44(H44)
3.d Idealised Me refined as rotating group:
 C21(H21A,H21B,H21C)
;
_smtbx_masks_void_probe_radius   1.2
_smtbx_masks_void_truncation_radius 1.2
_shelx_res_file
;
TITL 20220917pma_auto_a.res in C222(1)
    20220917pma_auto.res
    created by SHELXL-2018/3 at 14:12:30 on 19-Sep-2022
REM Old TITL 20220917PMA_auto in C222(1)
REM SHELXT solution in C222(1)
REM R1 0.170, Rweak 0.036, Alpha 0.003, Orientation as input
REM Flack x = 0.334 ( 0.087 ) from Parsons' quotients
REM Formula found by SHELXT: C67 C44 O6 F16
CELL 1.54184 7.181498 17.310863 46.219691 90 90 90
ZERR 8 0.000292 0.000745 0.001654 0 0 0
LATT -7
SYMM -X,-Y,0.5+Z
SYMM -X,+Y,0.5-Z
SYMM +X,-Y,-Z
SFAC C H F N O
UNIT 264 176 56 24 16
ISOR 0.001 0.002 F27

L.S. 4
PLAN  5
SIZE 0.01 0.02 0.03
TEMP -100.14(10)
CONF
fmap 2
ABIN
MORE -1
BOND $H
ACTA
REM <olex2.extras>
REM <HklSrc "%.\\20220917PMA_auto.hkl">
REM </olex2.extras>

WGHT    0.109500    6.163899
FVAR       1.16502
F23   3    0.613559    0.759006    0.595618    11.00000    0.06985    0.04375 =
         0.03771    0.00522    0.00703   -0.01028
O20   5    0.277965    0.437457    0.457719    11.00000    0.04493    0.03093 =
         0.03308   -0.00034   -0.00208   -0.00950
F29   3    0.551932    0.508668    0.634173    11.00000    0.05805    0.05206 =
         0.05787    0.01649   -0.00394   -0.00751
O22   5    0.545836    0.320557    0.504535    11.00000    0.03874    0.02895 =
         0.04242   -0.00626   -0.00286    0.00807
F25   3    0.501629    0.822198    0.644973    11.00000    0.07788    0.05138 =
         0.05301   -0.00935    0.00810   -0.00903
N18   4    0.177060    0.334773    0.482353    11.00000    0.03544    0.02683 =
         0.02636   -0.00319   -0.00421   -0.00765
AFIX  43
H18   2    0.123500    0.289052    0.482209    11.00000   -1.20000
AFIX   0
N15   4    0.508313    0.436133    0.526305    11.00000    0.02723    0.02541 =
         0.04128   -0.00630   -0.00872    0.00066
AFIX  43
H15   2    0.428936    0.472290    0.531501    11.00000   -1.20000
AFIX   0
F28   3    0.436415    0.492544    0.685750    11.00000    0.06383    0.09292 =
         0.07708    0.04964    0.00468   -0.00478
N11   4    0.650269    0.607581    0.587368    11.00000    0.04948    0.04231 =
         0.03728   -0.00036   -0.00272   -0.00912
AFIX  43
H11   2    0.693687    0.643131    0.575548    11.00000   -1.20000
AFIX   0
F24   3    0.395897    0.804958    0.697834    11.00000    0.08188    0.11155 =
         0.04925   -0.02176    0.01268   -0.01886
C19   1    0.208918    0.371961    0.457462    11.00000    0.02463    0.02656 =
         0.02795   -0.00311   -0.00127   -0.00008
C16   1    0.443294    0.373177    0.512573    11.00000    0.03122    0.02439 =
         0.02361    0.00121   -0.00472    0.00375
C30   1    0.116097    0.371930    0.403978    11.00000    0.02216    0.03748 =
         0.02960   -0.00314    0.00353    0.00048
C17   1    0.231094    0.370040    0.509629    11.00000    0.03389    0.02506 =
         0.02417   -0.00167    0.00063   -0.00471
AFIX  13
H17   2    0.179921    0.423708    0.510551    11.00000   -1.20000
AFIX   0
F27   3    0.320231    0.556507    0.734906    11.00000    0.07849    0.13241 =
         0.05752    0.03641    0.00812   -0.00252
C31   1    0.118424    0.455051    0.401434    11.00000    0.03334    0.03774 =
         0.03284    0.00166    0.00260   -0.00282
AFIX  43
H31   2    0.152709    0.485385    0.417713    11.00000   -1.20000
AFIX   0
C39   1    0.062548    0.328074    0.378989    11.00000    0.02321    0.04957 =
         0.02810   -0.00436    0.00136    0.00042
C40   1    0.157721    0.331264    0.429822    11.00000    0.02576    0.03492 =
         0.02776   -0.00218   -0.00049   -0.00149
F26   3    0.302702    0.710912    0.741567    11.00000    0.07941    0.20001 =
         0.03450    0.00044    0.01516   -0.00495
C2    1    0.568017    0.713320    0.617915    11.00000    0.03970    0.04618 =
         0.03095   -0.00063   -0.00052   -0.00955
C1    1    0.585554    0.631803    0.613724    11.00000    0.03336    0.04988 =
         0.03561    0.00288   -0.00855   -0.00786
C41   1    0.153505    0.250456    0.429730    11.00000    0.03651    0.03446 =
         0.03108   -0.00305   -0.00296   -0.00015
AFIX  43
H41   2    0.184036    0.223439    0.446981    11.00000   -1.20000
AFIX   0
C12   1    0.653229    0.527696    0.577248    11.00000    0.03342    0.03599 =
         0.04274   -0.00052   -0.00994   -0.00575
AFIX  23
H12A  2    0.525343    0.506344    0.577218    11.00000   -1.20000
H12B  2    0.730729    0.495810    0.590331    11.00000   -1.20000
AFIX   0
C14   1    0.704901    0.446831    0.532914    11.00000    0.02512    0.03085 =
         0.04889    0.00102   -0.00761    0.00084
AFIX  23
H14A  2    0.779224    0.443594    0.514915    11.00000   -1.20000
H14B  2    0.747652    0.405636    0.546204    11.00000   -1.20000
AFIX   0
C32   1    0.072756    0.490706    0.376326    11.00000    0.03724    0.04136 =
         0.04086    0.00734    0.00640    0.01085
AFIX  43
H32   2    0.077819    0.545488    0.375390    11.00000   -1.20000
AFIX   0
C33   1    0.017029    0.448329    0.351125    11.00000    0.03590    0.06307 =
         0.03099    0.00830    0.00478    0.00748
C34   1    0.013459    0.367133    0.352767    11.00000    0.02469    0.06092 =
         0.02943   -0.00057    0.00087    0.00585
C38   1    0.057794    0.245899    0.379919    11.00000    0.03217    0.04885 =
         0.03421   -0.01246    0.00165   -0.00350
C10   1    0.538177    0.587141    0.636918    11.00000    0.03404    0.05047 =
         0.04442    0.00836   -0.01089   -0.00993
C21   1    0.153674    0.323101    0.534761    11.00000    0.04724    0.04755 =
         0.02800   -0.00215    0.00588   -0.01474
AFIX 137
H21A  2    0.018018    0.319320    0.532947    11.00000   -1.50000
H21B  2    0.185170    0.348599    0.553049    11.00000   -1.50000
H21C  2    0.208007    0.271176    0.534463    11.00000   -1.50000
AFIX   0
C42   1    0.106351    0.208787    0.405346    11.00000    0.04969    0.03215 =
         0.03872   -0.00883   -0.00218    0.00149
AFIX  43
H42   2    0.107238    0.153939    0.406025    11.00000   -1.20000
AFIX   0
C37   1    0.004391    0.204105    0.354182    11.00000    0.04673    0.06085 =
         0.04026   -0.02127   -0.00095   -0.00675
AFIX  43
H37   2    0.002443    0.149243    0.354587    11.00000   -1.20000
AFIX   0
C4    1    0.466154    0.698215    0.666985    11.00000    0.03425    0.06972 =
         0.03509   -0.00043   -0.00451   -0.00591
C13   1    0.732598    0.525730    0.547015    11.00000    0.03330    0.03238 =
         0.04386   -0.00355   -0.01068   -0.00520
AFIX  23
H13A  2    0.867272    0.537770    0.547783    11.00000   -1.20000
H13B  2    0.671058    0.565795    0.535091    11.00000   -1.20000
AFIX   0
C35   1   -0.039914    0.322588    0.327879    11.00000    0.03166    0.08376 =
         0.02646   -0.00575   -0.00027   -0.00174
C3    1    0.514243    0.744495    0.643204    11.00000    0.04946    0.05504 =
         0.03633   -0.00297   -0.00212   -0.01107
C36   1   -0.042159    0.240678    0.329907    11.00000    0.04290    0.08100 =
         0.03681   -0.02253   -0.00148   -0.00559
AFIX  43
H36   2   -0.077877    0.211209    0.313480    11.00000   -1.20000
AFIX   0
C9    1    0.478421    0.616967    0.663582    11.00000    0.03495    0.07172 =
         0.03794    0.01554   -0.00806   -0.01448
C45   1   -0.090070    0.363013    0.302576    11.00000    0.04364    0.10541 =
         0.02936   -0.00083   -0.00486    0.00625
AFIX  43
H45   2   -0.126505    0.334814    0.285877    11.00000   -1.20000
AFIX   0
C43   1   -0.035207    0.485855    0.325365    11.00000    0.04628    0.07732 =
         0.04385    0.01772    0.00034    0.01415
AFIX  43
H43   2   -0.034801    0.540654    0.324258    11.00000   -1.20000
AFIX   0
C8    1    0.429436    0.569473    0.687305    11.00000    0.04051    0.08714 =
         0.05311    0.02778   -0.01062   -0.01012
C44   1   -0.087404    0.441831    0.301558    11.00000    0.05187    0.10912 =
         0.03063    0.01464   -0.00322    0.01082
AFIX  43
H44   2   -0.122079    0.467210    0.284148    11.00000   -1.20000
AFIX   0
C7    1    0.373031    0.601120    0.712817    11.00000    0.04458    0.12109 =
         0.03963    0.03163    0.00389   -0.00586
C5    1    0.407594    0.728010    0.694076    11.00000    0.05140    0.09371 =
         0.03897   -0.00128   -0.00462   -0.01987
C6    1    0.362158    0.680126    0.716068    11.00000    0.04430    0.15307 =
         0.02848    0.00711   -0.00118   -0.00687
HKLF 4




REM  20220917pma_auto_a.res in C222(1)
REM wR2 = 0.1567, GooF = S = 0.857, Restrained GooF = 0.939 for all data
REM R1 = 0.0522 for 4542 Fo > 4sig(Fo) and 0.0634 for all 5464 data
REM 407 parameters refined using 6 restraints

END

WGHT      0.0614      4.1478

REM Highest difference peak  0.330,  deepest hole -0.442,  1-sigma level  0.047
Q1    1   0.3404  0.6004  0.7376  11.00000  0.05    0.33
Q2    1   0.4044  0.7869  0.6726  11.00000  0.05    0.21
Q3    1   0.3228  0.8768  0.7060  11.00000  0.05    0.20
Q4    1   0.5046  0.8367  0.6669  11.00000  0.05    0.19
Q5    1   0.3796  0.7366  0.7172  11.00000  0.05    0.18
;
_shelx_res_checksum              30832
_shelx_fab_file
;
-9 -1 -5 -0.0041 -0.3543
-9 -1 -4 -0.1046 -0.1305
-9 -1 -3 -0.0729 0.2546
-9 -1 -2 0.1745 0.0816
-9 -1 -1 0.1209 -0.0878
-8 -10 -5 -2.0515 -1.1242
-8 -10 -4 0.4420 0.4230
-8 -10 -3 2.7471 0.7762
-8 -10 -2 -0.6423 -0.2237
-8 -10 -1 -3.1429 -0.2734
-8 -8 -11 0.1532 -1.1489
-8 -8 -10 0.2890 -1.4196
-8 -8 -9 -0.1843 1.1130
-8 -8 -8 0.5443 1.6220
-8 -8 -7 0.1372 -0.9673
-8 -8 -6 -1.5333 -1.5879
-8 -8 -5 -0.0330 0.7403
-8 -8 -4 2.4699 1.2748
-8 -8 -3 -0.0811 -0.4650
-8 -8 -2 -3.1392 -0.7129
-8 -8 -1 0.1532 0.1667
-8 -6 -15 1.6849 -0.2014
-8 -6 -14 0.3147 0.9453
-8 -6 -13 -1.8733 0.4985
-8 -6 -12 -0.2047 -1.0709
-8 -6 -11 1.7564 -0.8292
-8 -6 -10 0.0621 1.0748
-8 -6 -9 -1.3343 1.1053
-8 -6 -8 0.0786 -0.9623
-8 -6 -7 0.6893 -1.2308
-8 -6 -6 -0.1920 0.7655
-8 -6 -5 0.0296 1.1362
-8 -6 -4 0.2681 -0.5251
-8 -6 -3 -0.6447 -0.8082
-8 -6 -2 -0.3096 0.2720
-8 -6 -1 0.9982 0.3022
-8 -4 -17 -0.6283 0.5405
-8 -4 -16 2.2073 0.1589
-8 -4 -15 0.7283 -0.3138
-8 -4 -14 -2.5706 -0.0926
-8 -4 -13 -0.7329 0.0814
-8 -4 -12 2.7632 -0.0496
-8 -4 -11 0.6424 0.0952
-8 -4 -10 -2.7670 0.2296
-8 -4 -9 -0.4798 -0.1861
-8 -4 -8 2.6053 -0.3870
-8 -4 -7 0.2825 0.1971
-8 -4 -6 -2.3402 0.4607
-8 -4 -5 -0.0915 -0.1570
-8 -4 -4 2.0571 -0.4128
-8 -4 -3 -0.0575 0.0973
-8 -4 -2 -1.8429 0.2458
-8 -4 -1 0.1391 -0.0363
-8 -2 -26 0.0172 0.6927
-8 -2 -18 -0.4824 2.1620
-8 -2 -17 2.6123 0.1536
-8 -2 -16 0.6230 -2.0286
-8 -2 -15 -2.8478 -0.2210
-8 -2 -14 -0.7063 1.7438
-8 -2 -13 3.0053 0.2368
-8 -2 -12 0.7157 -1.3947
-8 -2 -11 -3.0976 -0.2012
-8 -2 -10 -0.6530 1.0555
-8 -2 -9 3.1424 0.1319
-8 -2 -8 0.5367 -0.7673
-8 -2 -7 -3.1573 -0.0569
-8 -2 -6 -0.3966 0.5357
-8 -2 -5 3.1567 0.0039
-8 -2 -4 0.2658 -0.3439
-8 -2 -3 -3.1505 0.0118
-8 -2 -2 -0.1736 0.1712
-8 -2 -1 3.1447 0.0070
-7 -13 -4 -0.4083 -0.0812
-7 -13 -3 0.6946 0.4481
-7 -13 -2 0.5357 0.0388
-7 -13 -1 -0.6919 -0.1747
-7 -11 -15 -0.3022 0.4845
-7 -11 -14 -2.1447 1.7302
-7 -11 -13 0.3020 -0.7594
-7 -11 -12 2.3881 -1.2410
-7 -11 -11 -0.1561 0.9809
-7 -11 -10 -2.6306 0.6293
-7 -11 -9 -0.1634 -1.0920
-7 -11 -8 2.8726 -0.0519
-7 -11 -7 0.6269 1.0607
-7 -11 -6 -3.1023 -0.3404
-7 -11 -5 -1.1465 -0.8851
-7 -11 -4 3.2969 0.4582
-7 -11 -3 1.5983 0.5887
-7 -11 -2 -3.4289 -0.3090
-7 -11 -1 -1.8629 -0.2126
-7 -9 -23 -1.3512 1.9130
-7 -9 -22 0.3257 0.4282
-7 -9 -21 1.7107 -2.3468
-7 -9 -20 -0.3394 -0.2793
-7 -9 -19 -2.0998 2.6533
-7 -9 -18 0.3896 -0.0510
-7 -9 -17 2.5239 -2.7324
-7 -9 -16 -0.4337 0.5377
-7 -9 -15 -2.9884 2.5196
-7 -9 -14 0.3878 -1.1026
-7 -9 -13 3.4942 -2.0206
-7 -9 -12 -0.1564 1.6320
-7 -9 -11 -4.0331 1.3247
-7 -9 -10 -0.3232 -2.0071
-7 -9 -9 4.5839 -0.5876
-7 -9 -8 1.0408 2.1340
-7 -9 -7 -5.1114 -0.0156
-7 -9 -6 -1.8966 -1.9655
-7 -9 -5 5.5698 0.3506
-7 -9 -4 2.7198 1.5106
-7 -9 -3 -5.9105 -0.3734
-7 -9 -2 -3.3175 -0.8301
-7 -9 -1 6.0926 0.1501
-7 -7 -27 0.6678 0.9098
-7 -7 -26 1.0492 -1.5284
-7 -7 -25 -0.6280 -1.0804
-7 -7 -24 -1.2821 1.9670
-7 -7 -23 0.5337 1.1334
-7 -7 -22 1.5228 -2.4028
-7 -7 -21 -0.4339 -0.9855
-7 -7 -20 -1.7961 2.7501
-7 -7 -19 0.3653 0.5864
-7 -7 -18 2.1287 -2.9071
-7 -7 -17 -0.3230 0.0546
-7 -7 -16 -2.5395 2.7910
-7 -7 -15 0.2485 -0.8590
-7 -7 -14 3.0319 -2.3757
-7 -7 -13 -0.0465 1.6906
-7 -7 -12 -3.5910 1.7160
-7 -7 -11 -0.3738 -2.3864
-7 -7 -10 4.1842 -0.9442
-7 -7 -9 1.0493 2.7952
-7 -7 -8 -4.7665 0.2350
-7 -7 -7 -1.9268 -2.8136
-7 -7 -6 5.2880 0.2505
-7 -7 -5 2.8611 2.4102
-7 -7 -4 -5.7010 -0.4218
-7 -7 -3 -3.6516 -1.6319
-7 -7 -2 5.9666 0.2942
-7 -7 -1 4.1063 0.5950
-7 -5 -25 -1.4801 1.4165
-7 -5 -24 0.9067 1.7294
-7 -5 -23 1.5586 -1.9067
-7 -5 -22 -0.7627 -1.7484
-7 -5 -21 -1.5887 2.3809
-7 -5 -20 0.6030 1.5009
-7 -5 -19 1.6146 -2.7258
-7 -5 -18 -0.4732 -0.9560
-7 -5 -17 -1.6795 2.8318
-7 -5 -16 0.3768 0.1555
-7 -5 -15 1.8108 -2.6327
-7 -5 -14 -0.2667 0.7854
-7 -5 -13 -2.0116 2.1383
-7 -5 -12 0.0648 -1.6989
-7 -5 -11 2.2625 -1.4430
-7 -5 -10 0.2981 2.4030
-7 -5 -9 -2.5304 0.7043
-7 -5 -8 -0.8383 -2.7442
-7 -5 -7 2.7802 -0.0949
-7 -5 -6 1.4946 2.6345
-7 -5 -5 -2.9846 -0.2554
-7 -5 -4 -2.1375 -2.0730
-7 -5 -3 3.1277 0.3060
-7 -5 -2 2.6097 1.1478
-7 -5 -1 -3.2027 -0.1217
-7 -3 -35 -0.2993 -0.2064
-7 -3 -34 -0.6392 -0.2029
-7 -3 -33 0.5834 0.2972
-7 -3 -32 1.0370 0.2271
-7 -3 -31 -0.9319 -0.4758
-7 -3 -30 -1.4631 -0.1442
-7 -3 -29 1.2704 0.7661
-7 -3 -28 1.8374 -0.1030
-7 -3 -27 -1.5181 -1.1533
-7 -3 -26 -2.0875 0.5397
-7 -3 -25 1.6205 1.5748
-7 -3 -24 2.1721 -1.1385
-7 -3 -23 -1.5719 -1.9290
-7 -3 -22 -2.0927 1.8129
-7 -3 -21 1.4157 2.1007
-7 -3 -20 1.8903 -2.4321
-7 -3 -19 -1.2220 -1.9977
-7 -3 -18 -1.6268 2.8537
-7 -3 -17 1.0529 1.5840
-7 -3 -16 1.3622 -2.9674
-7 -3 -15 -0.9333 -0.9007
-7 -3 -14 -1.1354 2.7331
-7 -3 -13 0.8418 0.0632
-7 -3 -12 0.9576 -2.2003
-7 -3 -11 -0.7266 0.7627
-7 -3 -10 -0.8181 1.4978
-7 -3 -9 0.5386 -1.4012
-7 -3 -8 0.6997 -0.7958
-7 -3 -7 -0.2647 1.7107
-7 -3 -6 -0.5923 0.2512
-7 -3 -5 -0.0574 -1.6214
-7 -3 -4 0.4997 0.0444
-7 -3 -3 0.3488 1.1540
-7 -3 -2 -0.4366 -0.0945
-7 -3 -1 -0.5229 -0.4169
-7 -1 -21 2.4812 -2.1208
-7 -1 -20 -2.1377 -2.4050
-7 -1 -19 -2.1564 2.7194
-7 -1 -18 1.8499 2.5927
-7 -1 -17 1.7720 -3.0251
-7 -1 -16 -1.5742 -2.4460
-7 -1 -15 -1.3956 2.9680
-7 -1 -14 1.3516 1.9848
-7 -1 -13 1.0640 -2.5660
-7 -1 -12 -1.1813 -1.3094
-7 -1 -11 -0.7814 1.9225
-7 -1 -10 1.0340 0.5750
-7 -1 -9 0.5336 -1.1967
-7 -1 -8 -0.8776 0.0509
-7 -1 -7 -0.3078 0.5556
-7 -1 -6 0.7018 -0.4356
-7 -1 -5 0.1067 -0.1217
-7 -1 -4 -0.5267 0.5194
-7 -1 -3 0.0494 -0.0637
-7 -1 -2 0.3934 -0.3329
-7 -1 -1 -0.1337 0.0518
-6 -14 -17 -0.1800 -0.4228
-6 -14 -16 -1.5418 -0.4548
-6 -14 -15 0.2082 0.4497
-6 -14 -14 1.5973 0.7718
-6 -14 -13 -0.1875 -0.3703
-6 -14 -12 -1.5990 -1.1076
-6 -14 -11 0.0870 0.2135
-6 -14 -7 -0.3745 -0.1131
-6 -14 -6 1.0616 1.4410
-6 -14 -5 0.6699 0.1792
-6 -14 -4 -0.7854 -1.1359
-6 -14 -3 -0.9240 -0.1513
-6 -14 -2 0.5762 0.6335
-6 -14 -1 1.0712 0.0500
-6 -12 -25 -1.6048 0.0993
-6 -12 -24 0.3486 -0.2642
-6 -12 -23 1.8702 -0.1211
-6 -12 -22 -0.3274 -0.0450
-6 -12 -21 -2.1000 0.1222
-6 -12 -20 0.2511 0.3532
-6 -12 -17 -2.5587 -0.0908
-6 -12 -16 -0.0471 0.7557
-6 -12 -15 2.7828 0.3528
-6 -12 -14 0.2569 -0.7968
-6 -12 -13 -2.9416 -0.6959
-6 -12 -12 -0.5019 0.7388
-6 -12 -11 2.9674 1.0519
-6 -12 -10 0.7764 -0.6133
-6 -12 -9 -2.8159 -1.3253
-6 -12 -8 -1.0673 0.4590
-6 -12 -7 2.4985 1.4209
-6 -12 -6 1.3504 -0.3100
-6 -12 -5 -2.0912 -1.2767
-6 -12 -4 -1.5918 0.1869
-6 -12 -3 1.7144 0.8887
-6 -12 -2 1.7556 -0.0925
-6 -12 -1 -1.4898 -0.3186
-6 -10 -31 -0.7339 0.7970
-6 -10 -30 -0.6421 0.1839
-6 -10 -29 0.9490 -0.7890
-6 -10 -20 2.0807 -0.0589
-6 -10 -19 -0.5384 -0.7125
-6 -10 -18 -2.4309 0.0986
-6 -10 -17 0.0714 0.9941
-6 -10 -16 2.8421 -0.0422
-6 -10 -15 0.4335 -1.1898
-6 -10 -14 -3.2591 -0.1442
-6 -10 -13 -0.9111 1.2950
-6 -10 -12 3.5917 0.4409
-6 -10 -11 1.3096 -1.3121
-6 -10 -10 -3.7533 -0.7715
-6 -10 -9 -1.6015 1.2443
-6 -10 -8 3.7033 1.0255
-6 -10 -7 1.7857 -1.0937
-6 -10 -6 -3.4738 -1.0971
-6 -10 -5 -1.8821 0.8637
-6 -10 -4 3.1651 0.9278
-6 -10 -3 1.9213 -0.5640
-6 -10 -2 -2.9084 -0.5328
-6 -10 -1 -1.9324 0.2139
-6 -8 -29 0.3912 -0.2187
-6 -8 -28 -2.0771 0.6411
-6 -8 -27 -0.6051 -0.1365
-6 -8 -26 2.2664 -0.4145
-6 -8 -25 0.7863 0.4141
-6 -8 -24 -2.2475 0.0924
-6 -8 -23 -0.9512 -0.5479
-6 -8 -22 1.9789 0.2791
-6 -8 -21 1.1487 0.5325
-6 -8 -20 -1.4692 -0.6550
-6 -8 -19 -1.4373 -0.4283
-6 -8 -18 0.7824 1.0028
-6 -8 -17 1.8524 0.3358
-6 -8 -16 -0.0252 -1.3035
-6 -8 -15 -2.3812 -0.3509
-6 -8 -14 -0.6794 1.5448
-6 -8 -13 2.9588 0.5185
-6 -8 -12 1.2246 -1.7116
-6 -8 -11 -3.4899 -0.8054
-6 -8 -10 -1.5476 1.7800
-6 -8 -9 3.8873 1.1068
-6 -8 -8 1.6448 -1.7199
-6 -8 -7 -4.1085 -1.2849
-6 -8 -6 -1.5688 1.5064
-6 -8 -5 4.1721 1.2256
-6 -8 -4 1.4093 -1.1338
-6 -8 -3 -4.1456 -0.8886
-6 -8 -2 -1.2635 0.6267
-6 -8 -1 4.1100 0.3301
-6 -6 -36 0.2199 1.6050
-6 -6 -35 1.3034 -0.5089
-6 -6 -34 -0.1566 -1.6255
-6 -6 -33 -1.7682 0.6286
-6 -6 -32 0.0126 1.3648
-6 -6 -31 2.2645 -0.6806
-6 -6 -30 0.1854 -0.8595
-6 -6 -29 -2.7225 0.6329
-6 -6 -28 -0.3894 0.2176
-6 -6 -27 3.0518 -0.4776
-6 -6 -26 0.5545 0.4144
-6 -6 -25 -3.1636 0.2323
-6 -6 -24 -0.6633 -0.9026
-6 -6 -23 2.9986 0.0693
-6 -6 -22 0.7400 1.1754
-6 -6 -21 -2.5495 -0.3912
-6 -6 -20 -0.8433 -1.2495
-6 -6 -19 1.8715 0.7061
-6 -6 -18 1.0429 1.2202
-6 -6 -17 -1.0735 -0.9990
-6 -6 -16 -1.3875 -1.2150
-6 -6 -15 0.2933 1.2615
-6 -6 -14 1.8819 1.3322
-6 -6 -13 0.3379 -1.4811
-6 -6 -12 -2.4818 -1.5885
-6 -6 -11 -0.7294 1.6326
-6 -6 -10 3.1102 1.9021
-6 -6 -9 0.8542 -1.6785
-6 -6 -8 -3.6855 -2.1199
-6 -6 -7 -0.7532 1.5789
-6 -6 -6 4.1477 2.0806
-6 -6 -5 0.5203 -1.3089
-6 -6 -4 -4.4714 -1.6859
-6 -6 -3 -0.2733 0.8746
-6 -6 -2 4.6597 0.9506
-6 -6 -1 0.1177 -0.3198
-6 -4 -39 -0.2201 -1.8853
-6 -4 -38 -1.1689 0.5032
-6 -4 -37 0.2187 2.3405
-6 -4 -36 1.5679 -0.5702
-6 -4 -35 -0.1423 -2.5357
-6 -4 -34 -2.0385 0.6316
-6 -4 -33 -0.0258 2.3872
-6 -4 -32 2.5505 -0.6593
-6 -4 -31 0.2707 -1.8893
-6 -4 -30 -3.0446 0.6282
-6 -4 -29 -0.5464 1.1267
-6 -4 -28 3.4421 -0.5261
-6 -4 -27 0.7917 -0.2538
-6 -4 -26 -3.6625 0.3598
-6 -4 -25 -0.9559 -0.5542
-6 -4 -24 3.6467 -0.1506
-6 -4 -23 1.0214 1.1630
-6 -4 -22 -3.3768 -0.0742
-6 -4 -21 -1.0148 -1.5268
-6 -4 -20 2.8847 0.2924
-6 -4 -19 0.9989 1.7006
-6 -4 -18 -2.2477 -0.4926
-6 -4 -17 -1.0499 -1.8081
-6 -4 -16 1.5704 0.6724
-6 -4 -15 1.2297 1.9777
-6 -4 -14 -0.9589 -0.8311
-6 -4 -13 -1.5633 -2.2728
-6 -4 -12 0.4954 0.9599
-6 -4 -11 2.0312 2.6490
-6 -4 -10 -0.2203 -1.0377
-6 -4 -9 -2.5774 -2.9601
-6 -4 -8 0.1269 1.0348
-6 -4 -7 3.1278 3.0132
-6 -4 -6 -0.1684 -0.9241
-6 -4 -5 -3.6094 -2.6523
-6 -4 -4 0.2751 0.6948
-6 -4 -3 3.9641 1.8331
-6 -4 -2 -0.3756 -0.3630
-6 -4 -1 -4.1536 -0.6571
-6 -2 -42 0.1910 1.3974
-6 -2 -41 1.2058 -0.4072
-6 -2 -40 -0.1996 -2.0923
-6 -2 -39 -1.5193 0.4256
-6 -2 -38 0.1830 2.7060
-6 -2 -37 1.8895 -0.4442
-6 -2 -36 -0.1174 -3.0996
-6 -2 -35 -2.3178 0.4604
-6 -2 -34 -0.0134 3.1567
-6 -2 -33 2.7831 -0.4639
-6 -2 -32 0.2074 -2.8249
-6 -2 -31 -3.2401 0.4427
-6 -2 -30 -0.4398 2.1422
-6 -2 -29 3.6273 -0.3886
-6 -2 -28 0.6687 -1.2354
-6 -2 -27 -3.8817 0.3025
-6 -2 -26 -0.8482 0.2842
-6 -2 -25 3.9562 -0.1942
-6 -2 -24 0.9463 0.5395
-6 -2 -23 -3.8333 0.0787
-6 -2 -22 -0.9573 -1.1325
-6 -2 -21 3.5296 0.0298
-6 -2 -20 0.9057 1.4954
-6 -2 -19 -3.0910 -0.1230
-6 -2 -18 -0.8394 -1.7233
-6 -2 -17 2.5785 0.2000
-6 -2 -16 0.8128 1.9531
-6 -2 -15 -2.0528 -0.2642
-6 -2 -14 -0.8699 -2.2876
-6 -2 -13 1.5612 0.3180
-6 -2 -12 1.0302 2.7325
-6 -2 -11 -1.1318 -0.3580
-6 -2 -10 -1.2839 -3.1748
-6 -2 -9 0.7757 0.3739
-6 -2 -8 1.5960 3.4176
-6 -2 -7 -0.4934 -0.3519
-6 -2 -6 -1.9167 -3.2600
-6 -2 -5 0.2825 0.2817
-6 -2 -4 2.1932 2.5882
-6 -2 -3 -0.1417 -0.1629
-6 -2 -2 -2.3804 -1.4379
-6 -2 -1 0.0718 0.0086
-5 -17 -6 0.3371 -0.8745
-5 -17 -5 -0.7834 0.2099
-5 -17 -4 -0.0035 0.7539
-5 -17 -3 0.5712 -0.1571
-5 -17 -2 -0.2552 -0.4392
-5 -17 -1 -0.4315 0.0699
-5 -15 -21 1.8685 -0.1759
-5 -15 -20 -0.7488 -0.5462
-5 -15 -19 -1.5937 0.3937
-5 -15 -18 0.7669 0.4146
-5 -15 -17 1.1448 -0.5703
-5 -15 -16 -0.5850 -0.2714
-5 -15 -15 -0.6351 0.6171
-5 -15 -14 0.2582 0.1340
-5 -15 -13 0.1980 -0.4854
-5 -15 -12 0.1154 -0.0170
-5 -15 -11 0.0536 0.1959
-5 -15 -10 -0.4315 -0.0694
-5 -15 -9 -0.0641 0.1609
-5 -15 -8 0.6191 0.1194
-5 -15 -7 -0.1453 -0.4565
-5 -15 -6 -0.6648 -0.1326
-5 -15 -5 0.4827 0.5773
-5 -15 -4 0.6119 0.1129
-5 -15 -3 -0.8163 -0.4737
-5 -15 -2 -0.5349 -0.0687
-5 -15 -1 1.0201 0.1847
-5 -13 -29 0.1568 -0.9617
-5 -13 -28 -2.3594 -0.3515
-5 -13 -27 0.1582 1.0279
-5 -13 -26 2.9842 0.2950
-5 -13 -25 -0.5943 -1.0432
-5 -13 -24 -3.4459 -0.1113
-5 -13 -23 1.0776 1.0180
-5 -13 -22 3.6507 -0.2236
-5 -13 -21 -1.5078 -0.9602
-5 -13 -20 -3.5526 0.6716
-5 -13 -19 1.7863 0.8694
-5 -13 -18 3.1692 -1.1326
-5 -13 -17 -1.8468 -0.7384
-5 -13 -16 -2.5793 1.4758
-5 -13 -15 1.6769 0.5611
-5 -13 -14 1.9039 -1.5911
-5 -13 -13 -1.3201 -0.3429
-5 -13 -12 -1.2728 1.4375
-5 -13 -11 0.8598 0.1070
-5 -13 -10 0.7894 -1.0657
-5 -13 -9 -0.3902 0.1078
-5 -13 -8 -0.5031 0.6015
-5 -13 -7 -0.0130 -0.2579
-5 -13 -6 0.4012 -0.1952
-5 -13 -5 0.3094 0.3106
-5 -13 -4 -0.4202 -0.0415
-5 -13 -3 -0.4938 -0.2588
-5 -13 -2 0.4765 0.0827
-5 -13 -1 0.5804 0.1264
-5 -11 -35 0.9438 0.6238
-5 -11 -34 0.1251 -0.8054
-5 -11 -33 -1.4658 -0.6396
-5 -11 -32 -0.1139 1.0132
-5 -11 -31 2.1127 0.6619
-5 -11 -30 0.0142 -1.1803
-5 -11 -29 -2.8296 -0.6750
-5 -11 -28 0.2129 1.3000
-5 -11 -27 3.5321 0.6269
-5 -11 -26 -0.5800 -1.3842
-5 -11 -25 -4.1216 -0.4499
-5 -11 -24 1.0602 1.4517
-5 -11 -23 4.5044 0.0970
-5 -11 -22 -1.5864 -1.5115
-5 -11 -21 -4.6113 0.4220
-5 -11 -20 2.0647 1.5513
-5 -11 -19 4.4111 -1.0253
-5 -11 -18 -2.3987 -1.5380
-5 -11 -17 -3.9168 1.5765
-5 -11 -16 2.5172 1.4321
-5 -11 -15 3.1810 -1.9305
-5 -11 -14 -2.3941 -1.2097
-5 -11 -13 -2.2855 1.9912
-5 -11 -12 2.0545 0.8819
-5 -11 -11 1.3255 -1.7527
-5 -11 -10 -1.5655 -0.5003
-5 -11 -9 -0.3941 1.3049
-5 -11 -8 1.0161 0.1440
-5 -11 -7 -0.4302 -0.7974
-5 -11 -6 -0.4949 0.1078
-5 -11 -5 1.0895 0.3773
-5 -11 -4 0.0742 -0.2070
-5 -11 -3 -1.5469 -0.1273
-5 -11 -2 0.1972 0.1578
-5 -11 -1 1.7821 0.0336
-5 -9 -39 0.0345 -0.2760
-5 -9 -38 -0.6632 -0.4399
-5 -9 -37 -0.0864 0.4809
-5 -9 -36 1.0048 0.5124
-5 -9 -35 0.1807 -0.7409
-5 -9 -34 -1.4356 -0.5829
-5 -9 -33 -0.2909 1.0183
-5 -9 -32 1.9397 0.6752
-5 -9 -31 0.3690 -1.2766
-5 -9 -30 -2.4813 -0.7877
-5 -9 -29 -0.3563 1.4958
-5 -9 -28 3.0090 0.8813
-5 -9 -27 0.2016 -1.6778
-5 -9 -26 -3.4636 -0.8875
-5 -9 -25 0.1188 1.8382
-5 -9 -24 3.7876 0.7387
-5 -9 -23 -0.5880 -1.9889
-5 -9 -22 -3.9312 -0.4054
-5 -9 -21 1.1469 2.1210
-5 -9 -20 3.8552 -0.0760
-5 -9 -19 -1.7076 -2.1991
-5 -9 -18 -3.5309 0.6022
-5 -9 -17 2.1766 2.1714
-5 -9 -16 2.9416 -1.0349
-5 -9 -15 -2.4806 -1.9940
-5 -9 -14 -2.0880 1.2528
-5 -9 -13 2.5846 1.6573
-5 -9 -12 0.9972 -1.2026
-5 -9 -11 -2.4989 -1.2013
-5 -9 -10 0.2682 0.9236
-5 -9 -9 2.2710 0.7109
-5 -9 -8 -1.6055 -0.5339
-5 -9 -7 -1.9706 -0.2894
-5 -9 -6 2.8785 0.1801
-5 -9 -5 1.6704 0.0203
-5 -9 -4 -3.9356 0.0259
-5 -9 -3 -1.4327 0.0661
-5 -9 -2 4.6369 -0.0546
-5 -9 -1 1.3014 -0.0073
-5 -7 -42 0.1140 -0.0059
-5 -7 -41 0.4670 -0.0388
-5 -7 -40 -0.0922 -0.0832
-5 -7 -39 -0.7311 -0.0367
-5 -7 -38 -0.0075 0.2684
-5 -7 -37 1.0191 0.1236
-5 -7 -36 0.1926 -0.5458
-5 -7 -35 -1.3217 -0.2466
-5 -7 -34 -0.4453 0.8850
-5 -7 -33 1.6239 0.4311
-5 -7 -32 0.7188 -1.2410
-5 -7 -31 -1.9021 -0.6826
-5 -7 -30 -0.9430 1.5713
-5 -7 -29 2.1269 0.9707
-5 -7 -28 1.0402 -1.8498
-5 -7 -27 -2.2709 -1.2287
-5 -7 -25 2.3148 1.3745
-5 -7 -21 2.0661 1.1271
-5 -7 -20 -0.5541 -2.4023
-5 -7 -19 -1.7515 -0.7776
-5 -7 -18 1.2876 2.3604
-5 -7 -17 1.2743 0.4042
-5 -7 -16 -2.0021 -2.1944
-5 -7 -15 -0.5913 -0.1269
-5 -7 -14 2.6319 1.8903
-5 -7 -13 -0.3358 0.0284
-5 -7 -12 -3.1420 -1.4690
-5 -7 -11 1.5140 -0.1158
-5 -7 -10 3.5279 0.9908
-5 -7 -9 -2.8920 0.3159
-5 -7 -8 -3.8058 -0.5420
-5 -7 -7 4.3492 -0.5053
-5 -7 -6 3.9983 0.2056
-5 -7 -5 -5.7066 0.5656
-5 -7 -4 -4.1247 -0.0306
-5 -7 -3 6.7620 -0.4371
-5 -7 -2 4.1958 0.0095
-5 -7 -1 -7.3398 0.1472
-5 -5 -44 -0.3300 0.1802
-5 -5 -43 0.1989 0.0330
-5 -5 -39 0.0981 0.2061
-5 -5 -38 1.3208 -0.0503
-5 -5 -37 0.0774 -0.4340
-5 -5 -36 -1.5614 -0.0806
-5 -5 -35 -0.3400 0.7533
-5 -5 -34 1.7339 0.2986
-5 -5 -33 0.6586 -1.1272
-5 -5 -32 -1.8254 -0.6121
-5 -5 -31 -0.9717 1.5024
-5 -5 -30 1.8168 0.9962
-5 -5 -29 1.1970 -1.8257
-5 -5 -28 -1.6888 -1.3885
-5 -5 -27 -1.2515 2.0596
-5 -5 -26 1.4326 1.7039
-5 -5 -25 1.0744 -2.1884
-5 -5 -24 -1.0569 -1.8629
-5 -5 -23 -0.6453 2.2155
-5 -5 -22 0.5852 1.8254
-5 -5 -21 -0.0115 -2.1542
-5 -5 -20 -0.0423 -1.6121
-5 -5 -19 0.8364 2.0179
-5 -5 -18 -0.5632 1.3027
-5 -5 -17 -1.7542 -1.8159
-5 -5 -16 1.2510 -1.0073
-5 -5 -15 2.6958 1.5560
-5 -5 -14 -2.0638 0.8227
-5 -5 -13 -3.6114 -1.2509
-5 -5 -12 3.0449 -0.7896
-5 -5 -11 4.4720 0.9249
-5 -5 -10 -4.2045 0.8737
-5 -5 -9 -5.2599 -0.6133
-5 -5 -8 5.4909 -0.9789
-5 -5 -7 5.9558 0.3542
-5 -5 -6 -6.7809 0.9892
-5 -5 -5 -6.5301 -0.1759
-5 -5 -4 7.8991 -0.8220
-5 -5 -3 6.9440 0.0837
-5 -5 -2 -8.6615 0.4668
-5 -5 -1 -7.1600 -0.0555
-5 -3 -47 0.0664 0.0579
-5 -3 -46 0.0427 -0.3131
-5 -3 -45 -0.4998 -0.1151
-5 -3 -44 -0.1060 0.3565
-5 -3 -43 0.9686 0.1578
-5 -3 -42 0.1772 -0.3935
-5 -3 -41 -1.3999 -0.1934
-5 -3 -40 -0.2609 0.4590
-5 -3 -39 1.7444 0.2433
-5 -3 -38 0.3719 -0.5875
-5 -3 -37 -1.9821 -0.3392
-5 -3 -36 -0.5246 0.7966
-5 -3 -35 2.1126 0.5106
-5 -3 -34 0.7177 -1.0759
-5 -3 -33 -2.1381 -0.7698
-5 -3 -32 -0.9219 1.3861
-5 -3 -31 2.0493 1.0979
-5 -3 -30 1.0781 -1.6697
-5 -3 -29 -1.8245 -1.4416
-5 -3 -28 -1.1103 1.8685
-5 -3 -27 1.4410 1.7243
-5 -3 -26 0.9477 -1.9416
-5 -3 -25 -0.8916 -1.8701
-5 -3 -24 -0.5488 1.8778
-5 -3 -23 0.1953 1.8344
-5 -3 -22 -0.0855 -1.6975
-5 -3 -21 0.6052 -1.6254
-5 -3 -20 0.9138 1.4450
-5 -3 -19 -1.4611 1.3085
-5 -3 -18 -1.8710 -1.1739
-5 -3 -17 2.3386 -0.9854
-5 -3 -16 2.8906 0.9313
-5 -3 -15 -3.2335 0.7568
-5 -3 -14 -3.9227 -0.7455
-5 -3 -13 4.1680 -0.6812
-5 -3 -12 4.9377 0.6212
-5 -3 -11 -5.1687 0.7490
-5 -3 -10 -5.9176 -0.5424
-5 -3 -9 6.2358 -0.8836
-5 -3 -8 6.8393 0.4812
-5 -3 -7 -7.3192 0.9724
-5 -3 -6 -7.6613 -0.4091
-5 -3 -5 8.3145 -0.9139
-5 -3 -4 8.3223 0.3071
-5 -3 -3 -9.0852 0.6626
-5 -3 -2 -8.7542 -0.1710
-5 -3 -1 9.5038 -0.2505
-5 -1 -45 -0.5472 0.6215
-5 -1 -44 0.9768 0.5651
-5 -1 -43 0.8107 -0.6992
-5 -1 -42 -1.3917 -0.6279
-5 -1 -41 -1.0300 0.7514
-5 -1 -40 1.7190 0.6745
-5 -1 -39 1.1900 -0.8107
-5 -1 -38 -1.9378 -0.7376
-5 -1 -37 -1.3001 0.9109
-5 -1 -36 2.0552 0.8497
-5 -1 -35 1.3785 -1.0703
-5 -1 -34 -2.0864 -1.0263
-5 -1 -33 -1.4307 1.2800
-5 -1 -32 2.0335 1.2543
-5 -1 -31 1.4352 -1.5012
-5 -1 -30 -1.8748 -1.4896
-5 -1 -29 -1.3430 1.6756
-5 -1 -28 1.5713 1.6670
-5 -1 -27 1.0940 -1.7440
-5 -1 -26 -1.0864 -1.7220
-5 -1 -25 -0.6417 1.6680
-5 -1 -24 0.4079 1.6164
-5 -1 -23 -0.0254 -1.4475
-5 -1 -22 0.4405 -1.3579
-5 -1 -21 0.8773 1.1250
-5 -1 -20 -1.4048 1.0046
-5 -1 -19 -1.8537 -0.7750
-5 -1 -18 2.4206 -0.6497
-5 -1 -17 2.8868 0.4811
-5 -1 -16 -3.4377 0.3903
-5 -1 -15 -3.9236 -0.3078
-5 -1 -14 4.4343 -0.2911
-5 -1 -13 4.9373 0.2777
-5 -1 -12 -5.4141 0.3578
-5 -1 -11 -5.9208 -0.3623
-5 -1 -10 6.3863 -0.5315
-5 -1 -9 6.8682 0.4923
-5 -1 -8 -7.3399 0.7091
-5 -1 -7 -7.7542 -0.5825
-5 -1 -6 8.2267 -0.7830
-5 -1 -5 8.5248 0.5636
-5 -1 -4 -8.9630 0.6832
-5 -1 -3 -9.1043 -0.4084
-5 -1 -2 9.4518 -0.4066
-5 -1 -1 9.4184 0.1424
-4 -18 -9 -0.4911 -1.1026
-4 -18 -8 0.5215 -0.2417
-4 -18 -7 0.5418 0.8875
-4 -18 -6 -0.3732 0.2323
-4 -18 -5 -0.4957 -0.6383
-4 -18 -4 0.2271 -0.1908
-4 -18 -3 0.4078 0.3844
-4 -18 -2 -0.1204 0.1069
-4 -18 -1 -0.3429 -0.1379
-4 -16 -25 0.4845 -1.0902
-4 -16 -24 -0.2363 1.1659
-4 -16 -23 -0.5146 1.3734
-4 -16 -22 0.6038 -1.5182
-4 -16 -21 0.5806 -1.5651
-4 -16 -20 -0.8457 1.8706
-4 -16 -19 -0.6649 1.6585
-4 -16 -18 0.8717 -2.1835
-4 -16 -17 0.7417 -1.6741
-4 -16 -16 -0.6539 2.4034
-4 -16 -15 -0.7883 1.6451
-4 -16 -14 0.2372 -2.4792
-4 -16 -13 0.7924 -1.5991
-4 -16 -12 0.2775 2.3825
-4 -16 -11 -0.7549 1.5419
-4 -16 -10 -0.7713 -2.1208
-4 -16 -9 0.6877 -1.4539
-4 -16 -8 1.1505 1.7371
-4 -16 -7 -0.6080 1.3002
-4 -16 -6 -1.3765 -1.2928
-4 -16 -5 0.5330 -1.0489
-4 -16 -4 1.4697 0.8433
-4 -16 -3 -0.4759 0.6907
-4 -16 -2 -1.4874 -0.4179
-4 -16 -1 0.4449 -0.2487
-4 -14 -33 0.8902 0.3938
-4 -14 -32 -0.6481 -0.1931
-4 -14 -31 -0.9728 -0.6520
-4 -14 -30 0.4487 -0.1711
-4 -14 -29 0.8415 0.9665
-4 -14 -28 -0.2523 0.6198
-4 -14 -27 -0.4797 -1.3237
-4 -14 -26 0.1159 -1.1055
-4 -14 -25 -0.0614 1.7143
-4 -14 -24 -0.0646 1.5780
-4 -14 -23 0.6687 -2.1280
-4 -14 -22 0.0842 -1.9970
-4 -14 -21 -1.1966 2.5436
-4 -14 -20 -0.1314 2.3414
-4 -14 -19 1.5109 -2.9204
-4 -14 -18 0.1573 -2.6091
-4 -14 -17 -1.5317 3.2005
-4 -14 -16 -0.1312 2.8078
-4 -14 -15 1.2592 -3.3231
-4 -14 -14 0.0550 -2.9408
-4 -14 -13 -0.7714 3.2454
-4 -14 -12 0.0398 2.9948
-4 -14 -11 0.1937 -2.9620
-4 -14 -10 -0.1095 -2.9361
-4 -14 -9 0.3456 2.5097
-4 -14 -8 0.1213 2.7200
-4 -14 -7 -0.7578 -1.9556
-4 -14 -6 -0.0709 -2.3089
-4 -14 -5 1.0145 1.3721
-4 -14 -4 -0.0154 1.6932
-4 -14 -3 -1.1407 -0.8096
-4 -14 -2 0.0935 -0.9052
-4 -14 -1 1.1854 0.2808
-4 -12 -38 0.1354 0.4948
-4 -12 -37 -0.8282 -0.9669
-4 -12 -36 -0.3004 -0.5819
-4 -12 -35 0.6571 0.8515
-4 -12 -34 0.4376 0.7410
-4 -12 -33 -0.3254 -0.5947
-4 -12 -32 -0.4784 -0.9817
-4 -12 -31 -0.0929 0.2115
-4 -12 -30 0.3601 1.2971
-4 -12 -29 0.4957 0.2716
-4 -12 -28 -0.0482 -1.6706
-4 -12 -27 -0.7929 -0.8202
-4 -12 -26 -0.4459 2.0835
-4 -12 -25 0.9421 1.3975
-4 -12 -24 1.0580 -2.5168
-4 -12 -23 -0.9644 -1.9700
-4 -12 -22 -1.6828 2.9478
-4 -12 -21 0.9311 2.5117
-4 -12 -20 2.2000 -3.3435
-4 -12 -19 -0.9280 -3.0037
-4 -12 -18 -2.5098 3.6575
-4 -12 -17 1.0127 3.4304
-4 -12 -16 2.5638 -3.8361
-4 -12 -15 -1.1862 -3.7703
-4 -12 -14 -2.3782 3.8319
-4 -12 -13 1.3916 3.9895
-4 -12 -12 2.0260 -3.6217
-4 -12 -11 -1.5414 -4.0405
-4 -12 -10 -1.6089 3.2166
-4 -12 -9 1.5617 3.8697
-4 -12 -8 1.2223 -2.6612
-4 -12 -7 -1.4305 -3.4332
-4 -12 -6 -0.9269 2.0178
-4 -12 -5 1.1925 2.7166
-4 -12 -4 0.7397 -1.3446
-4 -12 -3 -0.9426 -1.7488
-4 -12 -2 -0.6451 0.6769
-4 -12 -1 0.7848 0.6058
-4 -10 -39 -0.4057 0.4643
-4 -10 -38 -0.8860 -1.3037
-4 -10 -37 0.5380 -0.5188
-4 -10 -36 0.6838 1.1992
-4 -10 -35 -0.6749 0.6565
-4 -10 -34 -0.2670 -0.9433
-4 -10 -33 0.8189 -0.9076
-4 -10 -32 -0.2960 0.5505
-4 -10 -31 -0.9834 1.2752
-4 -10 -30 0.8878 -0.0399
-4 -10 -29 1.1908 -1.7367
-4 -10 -28 -1.3840 -0.5662
-4 -10 -27 -1.4632 2.2535
-4 -10 -26 1.7019 1.2416
-4 -10 -25 1.8095 -2.7836
-4 -10 -24 -1.8321 -1.9555
-4 -10 -23 -2.2137 3.2895
-4 -10 -22 1.8381 2.6731
-4 -10 -21 2.6330 -3.7400
-4 -10 -20 -1.8236 -3.3573
-4 -10 -19 -3.0060 4.1061
-4 -10 -18 1.8807 3.9692
-4 -10 -17 3.2711 -4.3570
-4 -10 -16 -2.0437 -4.4675
-4 -10 -15 -3.3865 4.4597
-4 -10 -14 2.2714 4.8066
-4 -10 -13 3.3438 -4.3844
-4 -10 -12 -2.4660 -4.9368
-4 -10 -11 -3.1699 4.1133
-4 -10 -10 2.5218 4.8089
-4 -10 -9 2.9164 -3.6474
-4 -10 -8 -2.3805 -4.3842
-4 -10 -7 -2.6428 3.0087
-4 -10 -6 2.0659 3.6479
-4 -10 -5 2.4006 -2.2342
-4 -10 -4 -1.6814 -2.6221
-4 -10 -3 -2.2245 1.3675
-4 -10 -2 1.3695 1.3714
-4 -10 -1 2.1327 -0.4500
-4 -8 -45 0.4198 1.1346
-4 -8 -44 0.0058 0.0862
-4 -8 -43 -0.6891 -1.4781
-4 -8 -42 0.1686 -0.0530
-4 -8 -41 0.9734 1.6928
-4 -8 -40 -0.4567 0.0109
-4 -8 -39 -1.1715 -1.7498
-4 -8 -38 0.8331 -0.0152
-4 -8 -37 1.1809 1.6429
-4 -8 -36 -1.2449 0.1290
-4 -8 -35 -0.9390 -1.3768
-4 -8 -34 1.6271 -0.3997
-4 -8 -33 0.4548 0.9575
-4 -8 -32 -1.9263 0.8408
-4 -8 -31 0.1885 -0.3883
-4 -8 -30 2.1212 -1.4253
-4 -8 -29 -0.8607 -0.3253
-4 -8 -28 -2.2307 2.0939
-4 -8 -27 1.4330 1.1670
-4 -8 -26 2.3061 -2.7751
-4 -8 -25 -1.8256 -2.1023
-4 -8 -24 -2.4090 3.4054
-4 -8 -23 2.0342 3.0773
-4 -8 -22 2.5846 -3.9444
-4 -8 -21 -2.1216 -4.0245
-4 -8 -20 -2.8416 4.3755
-4 -8 -19 2.1792 4.8721
-4 -8 -18 3.1465 -4.6971
-4 -8 -17 -2.2776 -5.5530
-4 -8 -16 -3.4351 4.9068
-4 -8 -15 2.4294 6.0095
-4 -8 -14 3.6363 -4.9896
-4 -8 -13 -2.5834 -6.1948
-4 -8 -12 -3.6972 4.9139
-4 -8 -11 2.6527 6.0721
-4 -8 -10 3.6016 -4.6388
-4 -8 -9 -2.5645 -5.6178
-4 -8 -8 -3.3755 4.1286
-4 -8 -7 2.3046 4.8263
-4 -8 -6 3.0789 -3.3689
-4 -8 -5 -1.9360 -3.7190
-4 -8 -4 -2.7888 2.3783
-4 -8 -3 1.5790 2.3510
-4 -8 -2 2.5785 -1.2112
-4 -8 -1 -1.3628 -0.8105
-4 -6 -47 -0.5055 0.0504
-4 -6 -46 0.0521 1.7605
-4 -6 -45 0.5854 -0.1163
-4 -6 -44 -0.3194 -2.1188
-4 -6 -43 -0.5176 0.2134
-4 -6 -42 0.7223 2.3227
-4 -6 -41 0.2717 -0.3151
-4 -6 -40 -1.1717 -2.3566
-4 -6 -39 0.1396 0.3691
-4 -6 -38 1.5358 2.2272
-4 -6 -37 -0.6580 -0.3107
-4 -6 -36 -1.6835 -1.9440
-4 -6 -35 1.1947 0.0848
-4 -6 -34 1.5320 1.5046
-4 -6 -33 -1.6578 0.3317
-4 -6 -32 -1.0792 -0.8915
-4 -6 -31 1.9841 -0.9167
-4 -6 -30 0.4061 0.0847
-4 -6 -29 -2.1615 1.6064
-4 -6 -28 0.3531 0.9196
-4 -6 -27 2.2328 -2.3145
-4 -6 -26 -1.0594 -2.0916
-4 -6 -25 -2.2783 2.9600
-4 -6 -24 1.6163 3.3624
-4 -6 -23 2.3840 -3.4917
-4 -6 -22 -1.9953 -4.6331
-4 -6 -21 -2.6066 3.8986
-4 -6 -20 2.2305 5.7937
-4 -6 -19 2.9508 -4.2024
-4 -6 -18 -2.3870 -6.7429
-4 -6 -17 -3.3663 4.4356
-4 -6 -16 2.5211 7.4022
-4 -6 -15 3.7654 -4.6146
-4 -6 -14 -2.6515 -7.7192
-4 -6 -13 -4.0549 4.7202
-4 -6 -12 2.7551 7.6629
-4 -6 -11 4.1683 -4.6955
-4 -6 -10 -2.7882 -7.2186
-4 -6 -9 -4.0892 4.4608
-4 -6 -8 2.7197 6.3859
-4 -6 -7 3.8558 -3.9438
-4 -6 -6 -2.5579 -5.1841
-4 -6 -5 -3.5492 3.1100
-4 -6 -4 2.3561 3.6609
-4 -6 -3 3.2683 -1.9849
-4 -6 -2 -2.1925 -1.8980
-4 -6 -1 -3.1008 0.6574
-4 -4 -48 -1.2040 -0.0416
-4 -4 -47 -0.4762 2.3002
-4 -4 -46 1.4283 -0.0233
-4 -4 -45 0.3210 -2.6897
-4 -4 -44 -1.4974 0.1156
-4 -4 -43 0.0372 2.8843
-4 -4 -42 1.3680 -0.2186
-4 -4 -41 -0.5518 -2.8826
-4 -4 -40 -1.0335 0.2960
-4 -4 -39 1.1113 2.7133
-4 -4 -38 0.5298 -0.2979
-4 -4 -37 -1.5680 -2.4057
-4 -4 -36 0.0715 0.1765
-4 -4 -35 1.7840 1.9649
-4 -4 -34 -0.6838 0.0953
-4 -4 -33 -1.6767 -1.3643
-4 -4 -32 1.2321 -0.5085
-4 -4 -31 1.2458 0.5592
-4 -4 -30 -1.6767 1.0161
-4 -4 -29 -0.5720 0.4838
-4 -4 -28 2.0252 -1.5455
-4 -4 -27 -0.2135 -1.7578
-4 -4 -26 -2.3254 2.0219
-4 -4 -25 0.9738 3.2012
-4 -4 -24 2.6439 -2.3945
-4 -4 -23 -1.6086 -4.7034
-4 -4 -22 -3.0362 2.6523
-4 -4 -21 2.0773 6.1293
-4 -4 -20 3.5221 -2.8239
-4 -4 -19 -2.3967 -7.3490
-4 -4 -18 -4.0755 2.9597
-4 -4 -17 2.6178 8.2608
-4 -4 -16 4.6317 -3.1027
-4 -4 -15 -2.7944 -8.7994
-4 -4 -14 -5.1097 3.2619
-4 -4 -13 2.9591 8.9285
-4 -4 -12 5.4401 -3.3984
-4 -4 -11 -3.1160 -8.6296
-4 -4 -10 -5.5883 3.4319
-4 -4 -9 3.2495 7.8931
-4 -4 -8 5.5652 -3.2665
-4 -4 -7 -3.3421 -6.7222
-4 -4 -6 -5.4226 2.8267
-4 -4 -5 3.3889 5.1455
-4 -4 -4 5.2368 -2.0903
-4 -4 -3 -3.4014 -3.2309
-4 -4 -2 -5.0860 1.1045
-4 -4 -1 3.3999 1.0916
-4 -2 -49 -1.9013 -0.1033
-4 -2 -48 -0.5404 2.4704
-4 -2 -47 2.2141 0.0809
-4 -2 -46 0.5240 -2.9309
-4 -2 -45 -2.3621 -0.0401
-4 -2 -44 -0.3655 3.1597
-4 -2 -43 2.3048 -0.0138
-4 -2 -42 0.0675 -3.1539
-4 -2 -41 -2.0288 0.0651
-4 -2 -40 0.3204 2.9574
-4 -2 -39 1.5519 -0.0891
-4 -2 -38 -0.7106 -2.6256
-4 -2 -37 -0.9204 0.0583
-4 -2 -36 1.0012 2.1888
-4 -2 -35 0.1975 0.0471
-4 -2 -34 -1.1069 -1.6323
-4 -2 -33 0.5526 -0.2293
-4 -2 -32 0.9855 0.9046
-4 -2 -31 -1.2822 0.4684
-4 -2 -30 -0.6505 0.0526
-4 -2 -29 1.9705 -0.7262
-4 -2 -28 0.1647 -1.2650
-4 -2 -27 -2.6240 0.9588
-4 -2 -26 0.3823 2.6991
-4 -2 -25 3.2664 -1.1319
-4 -2 -24 -0.9028 -4.2588
-4 -2 -23 -3.9219 1.2340
-4 -2 -22 1.3359 5.8066
-4 -2 -21 4.5988 -1.2810
-4 -2 -20 -1.6600 -7.1987
-4 -2 -19 -5.2816 1.3081
-4 -2 -18 1.8893 8.3161
-4 -2 -17 5.9335 -1.3536
-4 -2 -16 -2.0586 -9.0793
-4 -2 -15 -6.5081 1.4393
-4 -2 -14 2.2048 9.4437
-4 -2 -13 6.9654 -1.5564
-4 -2 -12 -2.3522 -9.3831
-4 -2 -11 -7.2847 1.6630
-4 -2 -10 2.5064 8.8752
-4 -2 -9 7.4698 -1.6958
-4 -2 -8 -2.6579 -7.9002
-4 -2 -7 -7.5463 1.5919
-4 -2 -6 2.7904 6.4560
-4 -2 -5 7.5529 -1.3132
-4 -2 -4 -2.8883 -4.5805
-4 -2 -3 -7.5296 0.8634
-4 -2 -2 2.9418 2.3695
-4 -2 -1 7.5091 -0.2919
-3 -19 -14 -0.8072 -1.0131
-3 -19 -13 -1.0608 0.5469
-3 -19 -12 0.8131 0.8585
-3 -19 -11 1.2533 -0.2806
-3 -19 -10 -0.6167 -0.5617
-3 -19 -9 -1.4167 -0.0249
-3 -19 -8 0.2080 0.2207
-3 -19 -7 1.5465 0.2728
-3 -19 -6 0.3457 0.0533
-3 -19 -5 -1.6421 -0.3853
-3 -19 -4 -0.9120 -0.1812
-3 -19 -2 1.3353 0.1488
-3 -19 -1 -1.7382 -0.1482
-3 -17 -27 -0.2203 0.4617
-3 -17 -26 0.6780 -0.2502
-3 -17 -25 0.2576 -0.2582
-3 -17 -24 -0.5910 0.0788
-3 -17 -23 -0.3073 -0.1486
-3 -17 -22 0.3386 0.1672
-3 -17 -21 0.4245 0.7046
-3 -17 -20 0.0717 -0.4214
-3 -17 -19 -0.6418 -1.2959
-3 -17 -18 -0.6015 0.6059
-3 -17 -17 0.9383 1.7785
-3 -17 -16 1.1877 -0.6572
-3 -17 -15 -1.2297 -2.0256
-3 -17 -14 -1.7547 0.5497
-3 -17 -13 1.3886 1.9732
-3 -17 -12 2.2318 -0.3082
-3 -17 -11 -1.2928 -1.6456
-3 -17 -10 -2.5703 0.0027
-3 -17 -9 0.8822 1.1492
-3 -17 -8 2.7560 0.2731
-3 -17 -7 -0.1993 -0.6331
-3 -17 -6 -2.8116 -0.4329
-3 -17 -5 -0.6075 0.2321
-3 -17 -4 2.7876 0.4283
-3 -17 -3 1.3251 -0.0156
-3 -17 -2 -2.7438 -0.2663
-3 -17 -1 -1.7463 -0.0373
-3 -15 -31 1.4777 -0.2231
-3 -15 -30 0.5007 -0.6413
-3 -15 -29 -1.8226 0.3733
-3 -15 -28 -0.5482 0.6375
-3 -15 -27 2.0627 -0.4445
-3 -15 -26 0.5314 -0.4085
-3 -15 -25 -2.1155 0.4313
-3 -15 -24 -0.5026 -0.0702
-3 -15 -23 1.9158 -0.3575
-3 -15 -22 0.5411 0.7524
-3 -15 -21 -1.4355 0.2672
-3 -15 -20 -0.7179 -1.5221
-3 -15 -19 0.6980 -0.2099
-3 -15 -18 1.0556 2.2198
-3 -15 -17 0.2191 0.2224
-3 -15 -16 -1.5010 -2.6879
-3 -15 -15 -1.1956 -0.3156
-3 -15 -14 1.9300 2.8212
-3 -15 -13 2.0954 0.4695
-3 -15 -12 -2.1870 -2.6023
-3 -15 -11 -2.8008 -0.6382
-3 -15 -10 2.1471 2.1087
-3 -15 -9 3.2444 0.7639
-3 -15 -8 -1.7748 -1.4844
-3 -15 -7 -3.4280 -0.7938
-3 -15 -6 1.1528 0.8878
-3 -15 -5 3.4180 0.6971
-3 -15 -4 -0.4639 -0.4329
-3 -15 -3 -3.3202 -0.4743
-3 -15 -2 -0.0704 0.1503
-3 -15 -1 3.2398 0.1590
-3 -13 -35 1.0729 -0.2010
-3 -13 -34 -2.0865 -0.0276
-3 -13 -33 -1.2060 0.3409
-3 -13 -32 2.6058 -0.2022
-3 -13 -31 1.2463 -0.4411
-3 -13 -30 -3.1265 0.4170
-3 -13 -29 -1.1793 0.4172
-3 -13 -28 3.5684 -0.5966
-3 -13 -27 1.0200 -0.1991
-3 -13 -26 -3.8335 0.7412
-3 -13 -25 -0.8216 -0.2428
-3 -13 -24 3.8254 -0.8676
-3 -13 -23 0.6689 0.8808
-3 -13 -22 -3.4740 0.9972
-3 -13 -21 -0.6535 -1.6279
-3 -13 -20 2.7613 -1.1423
-3 -13 -19 0.8361 2.3548
-3 -13 -18 -1.7375 1.2964
-3 -13 -17 -1.2132 -2.9215
-3 -13 -16 0.5207 -1.4342
-3 -13 -15 1.7041 3.2163
-3 -13 -14 0.7251 1.5207
-3 -13 -13 -2.1707 -3.1882
-3 -13 -12 -1.8285 -1.5245
-3 -13 -11 2.4651 2.8620
-3 -13 -10 2.6569 1.4300
-3 -13 -9 -2.4887 -2.3280
-3 -13 -8 -3.1522 -1.2417
-3 -13 -7 2.2372 1.7092
-3 -13 -6 3.3443 0.9804
-3 -13 -5 -1.8094 -1.1186
-3 -13 -4 -3.3346 -0.6729
-3 -13 -3 1.3735 0.6205
-3 -13 -2 3.2537 0.3424
-3 -13 -1 -1.1022 -0.2138
-3 -11 -43 -0.8926 -0.2796
-3 -11 -38 -1.5001 -0.0139
-3 -11 -37 2.2444 0.1207
-3 -11 -36 1.6912 0.0037
-3 -11 -35 -2.8294 0.0624
-3 -11 -34 -1.7479 0.0329
-3 -11 -33 3.4564 -0.2802
-3 -11 -32 1.6696 -0.0356
-3 -11 -31 -4.0818 0.5050
-3 -11 -30 -1.4711 -0.0603
-3 -11 -29 4.6366 -0.7202
-3 -11 -28 1.1827 0.3029
-3 -11 -27 -5.0306 0.9267
-3 -11 -26 -0.8523 -0.7095
-3 -11 -25 5.1657 -1.1380
-3 -11 -24 0.5442 1.2594
-3 -11 -23 -4.9579 1.3664
-3 -11 -22 -0.3279 -1.8969
-3 -11 -21 4.3628 -1.6069
-3 -11 -20 0.2586 2.5417
-3 -11 -19 -3.3973 1.8288
-3 -11 -18 -0.3531 -3.1049
-3 -11 -17 2.1486 -1.9808
-3 -11 -16 0.5742 3.5057
-3 -11 -15 -0.7633 2.0096
-3 -11 -14 -0.8339 -3.6875
-3 -11 -13 -0.5820 -1.8837
-3 -11 -12 1.0197 3.6271
-3 -11 -11 1.7242 1.6114
-3 -11 -10 -1.0360 -3.3366
-3 -11 -9 -2.5550 -1.2426
-3 -11 -8 0.8451 2.8561
-3 -11 -7 3.0481 0.8526
-3 -11 -6 -0.4888 -2.2399
-3 -11 -5 -3.2581 -0.5125
-3 -11 -4 0.0785 1.5414
-3 -11 -3 3.2938 0.2612
-3 -11 -2 0.2447 -0.8011
-3 -11 -1 -3.2706 -0.0904
-3 -9 -46 0.5756 -0.0043
-3 -9 -45 0.2206 -0.2123
-3 -9 -44 -0.9753 -0.0696
-3 -9 -40 -2.0122 -0.1629
-3 -9 -39 -1.3892 -0.2269
-3 -9 -38 2.6340 0.1043
-3 -9 -37 1.5361 0.2567
-3 -9 -36 -3.3066 0.0478
-3 -9 -35 -1.5073 -0.2686
-3 -9 -34 4.0010 -0.2793
-3 -9 -33 1.3262 0.3243
-3 -9 -32 -4.6694 0.5581
-3 -9 -31 -1.0388 -0.4820
-3 -9 -30 5.2436 -0.8498
-3 -9 -29 0.6970 0.7762
-3 -9 -28 -5.6412 1.1317
-3 -9 -27 -0.3475 -1.2082
-3 -9 -26 5.7774 -1.3968
-3 -9 -25 0.0268 1.7502
-3 -9 -24 -5.5825 1.6471
-3 -9 -23 0.2401 -2.3571
-3 -9 -22 5.0204 -1.8774
-3 -9 -21 -0.4416 2.9792
-3 -9 -20 -4.1040 2.0635
-3 -9 -19 0.5840 -3.5710
-3 -9 -18 2.9006 -2.1601
-3 -9 -17 -0.6961 4.0908
-3 -9 -16 -1.5264 2.1163
-3 -9 -15 0.8287 -4.4957
-3 -9 -14 0.1266 -1.8996
-3 -9 -13 -1.0435 4.7370
-3 -9 -12 1.1536 1.5204
-3 -9 -11 1.3915 -4.7601
-3 -9 -10 -2.2005 -1.0401
-3 -9 -9 -1.8883 4.5131
-3 -9 -8 2.9555 0.5579
-3 -9 -7 2.4954 -3.9613
-3 -9 -6 -3.4233 -0.1770
-3 -9 -5 -3.1210 3.1027
-3 -9 -4 3.6612 -0.0348
-3 -9 -3 3.6413 -1.9781
-3 -9 -2 -3.7507 0.0737
-3 -9 -1 -3.9379 0.6722
-3 -7 -48 0.3741 0.1947
-3 -7 -47 0.7429 -0.0676
-3 -7 -46 -0.0977 0.0080
-3 -7 -45 -1.1766 -0.0991
-3 -7 -44 -0.2728 -0.2318
-3 -7 -43 1.6851 0.2950
-3 -7 -42 0.6473 0.4166
-3 -7 -41 -2.2610 -0.4521
-3 -7 -40 -0.9309 -0.5241
-3 -7 -39 2.8981 0.4997
-3 -7 -38 1.0550 0.5566
-3 -7 -37 -3.5841 -0.3898
-3 -7 -36 -0.9969 -0.5591
-3 -7 -35 4.2895 0.1133
-3 -7 -34 0.7810 0.6028
-3 -7 -33 -4.9616 0.2979
-3 -7 -32 -0.4637 -0.7582
-3 -7 -31 5.5252 -0.7848
-3 -7 -30 0.1095 1.0694
-3 -7 -29 -5.8931 1.2832
-3 -7 -28 0.2308 -1.5416
-3 -7 -27 5.9843 -1.7426
-3 -7 -26 -0.5322 2.1453
-3 -7 -25 -5.7434 2.1341
-3 -7 -24 0.7957 -2.8330
-3 -7 -23 5.1550 -2.4442
-3 -7 -22 -1.0423 3.5585
-3 -7 -21 -4.2495 2.6618
-3 -7 -20 1.3045 -4.2872
-3 -7 -19 3.0981 -2.7663
-3 -7 -18 -1.6201 4.9930
-3 -7 -17 -1.7996 2.7282
-3 -7 -16 2.0273 -5.6428
-3 -7 -15 0.4626 -2.5221
-3 -7 -14 -2.5593 6.1790
-3 -7 -13 0.8114 2.1476
-3 -7 -12 3.2344 -6.5110
-3 -7 -11 -1.9420 -1.6445
-3 -7 -10 -4.0436 6.5245
-3 -7 -9 2.8766 1.0928
-3 -7 -8 4.9391 -6.1085
-3 -7 -7 -3.5927 -0.5912
-3 -7 -6 -5.8325 5.1926
-3 -7 -5 4.0927 0.2239
-3 -7 -4 6.6062 -3.7808
-3 -7 -3 -4.3961 -0.0270
-3 -7 -2 -7.1387 1.9681
-3 -7 -1 4.5282 -0.0279
-3 -5 -50 -0.4388 0.0264
-3 -5 -49 0.6393 0.0866
-3 -5 -48 0.7664 0.1349
-3 -5 -47 -0.4760 0.0973
-3 -5 -46 -1.1789 -0.3907
-3 -5 -45 0.1767 -0.3224
-3 -5 -44 1.6592 0.6990
-3 -5 -43 0.1867 0.5299
-3 -5 -42 -2.1956 -0.9817
-3 -5 -41 -0.5217 -0.6717
-3 -5 -40 2.7835 1.1455
-3 -5 -39 0.7465 0.7344
-3 -5 -38 -3.4181 -1.1094
-3 -5 -37 -0.8143 -0.7489
-3 -5 -36 4.0806 0.8320
-3 -5 -35 0.7216 0.7823
-3 -5 -34 -4.7260 -0.3246
-3 -5 -33 -0.5000 -0.9136
-3 -5 -32 5.2804 -0.3533
-3 -5 -31 0.1963 1.2055
-3 -5 -30 -5.6514 1.1141
-3 -5 -29 0.1480 -1.6845
-3 -5 -28 5.7513 -1.8689
-3 -5 -27 -0.5108 2.3376
-3 -5 -26 -5.5219 2.5501
-3 -5 -25 0.8910 -3.1234
-3 -5 -24 4.9533 -3.1192
-3 -5 -23 -1.3028 3.9924
-3 -5 -22 -4.0868 3.5609
-3 -5 -21 1.7672 -4.9010
-3 -5 -20 3.0021 -3.8684
-3 -5 -19 -2.3060 5.8140
-3 -5 -18 -1.7937 4.0306
-3 -5 -17 2.9387 -6.6920
-3 -5 -16 0.5467 -4.0291
-3 -5 -15 -3.6818 7.4717
-3 -5 -14 0.6775 3.8468
-3 -5 -13 4.5441 -8.0521
-3 -5 -12 -1.8421 -3.4833
-3 -5 -11 -5.5180 8.2972
-3 -5 -10 2.9243 2.9657
-3 -5 -9 6.5683 -8.0608
-3 -5 -8 -3.8992 -2.3491
-3 -5 -7 -7.6241 7.2267
-3 -5 -6 4.7302 1.7009
-3 -5 -5 8.5821 -5.7537
-3 -5 -4 -5.3685 -1.0787
-3 -5 -3 -9.3229 3.7061
-3 -5 -2 5.7645 0.5101
-3 -3 -53 -0.1225 0.1396
-3 -3 -52 -0.9451 -0.1945
-3 -3 -51 0.0458 -0.2409
-3 -3 -50 1.0665 0.1838
-3 -3 -49 0.1531 0.4169
-3 -3 -48 -1.0040 -0.0977
-3 -3 -47 -0.4727 -0.6698
-3 -3 -46 0.7559 -0.0466
-3 -3 -45 0.8932 0.9724
-3 -3 -44 -0.3689 0.2111
-3 -3 -43 -1.3899 -1.2661
-3 -3 -42 -0.0780 -0.3552
-3 -3 -41 1.9429 1.4699
-3 -3 -40 0.5002 0.4572
-3 -3 -39 -2.5385 -1.5006
-3 -3 -38 -0.8295 -0.5291
-3 -3 -37 3.1588 1.2964
-3 -3 -36 1.0261 0.6168
-3 -3 -35 -3.7683 -0.8369
-3 -3 -34 -1.0760 -0.7852
-3 -3 -33 4.3047 0.1495
-3 -3 -32 0.9800 1.0962
-3 -3 -31 -4.6827 0.6985
-3 -3 -30 -0.7422 -1.5875
-3 -3 -29 4.8133 -1.6210
-3 -3 -28 0.3633 2.2631
-3 -3 -27 -4.6302 2.5366
-3 -3 -26 0.1563 -3.0967
-3 -3 -25 4.1134 -3.3862
-3 -3 -24 -0.8111 4.0447
-3 -3 -23 -3.2972 4.1374
-3 -3 -22 1.5855 -5.0601
-3 -3 -21 2.2590 -4.7762
-3 -3 -20 -2.4563 6.0974
-3 -3 -19 -1.0914 5.2912
-3 -3 -18 3.4008 -7.1075
-3 -3 -17 -0.1280 -5.6605
-3 -3 -16 -4.4064 8.0233
-3 -3 -15 1.3565 5.8477
-3 -3 -14 5.4729 -8.7476
-3 -3 -13 -2.5859 -5.8098
-3 -3 -12 -6.6047 9.1519
-3 -3 -11 3.8222 5.5115
-3 -3 -10 7.7933 -9.0928
-3 -3 -9 -5.0560 -4.9407
-3 -3 -8 -8.9984 8.4447
-3 -3 -7 6.2387 4.1149
-3 -3 -6 10.1387 -7.1395
-3 -3 -5 -7.2778 -3.0792
-3 -3 -4 -11.0984 5.2009
-3 -3 -3 8.0559 1.8952
-3 -3 -2 11.7523 -2.7582
-3 -3 -1 -8.4651 -0.6299
-3 -1 -54 -0.6239 0.2648
-3 -1 -53 -1.0481 -0.2765
-3 -1 -52 0.7852 -0.3721
-3 -1 -51 1.2475 0.3605
-3 -1 -50 -0.8055 0.5061
-3 -1 -49 -1.2653 -0.4136
-3 -1 -48 0.6537 -0.6648
-3 -1 -47 1.0787 0.4305
-3 -1 -46 -0.3343 0.8379
-3 -1 -45 -0.7103 -0.4177
-3 -1 -44 -0.1208 -1.0030
-3 -1 -43 0.2160 0.3844
-3 -1 -42 0.6680 1.1227
-3 -1 -41 0.3348 -0.3319
-3 -1 -40 -1.2637 -1.1482
-3 -1 -39 -0.8768 0.2449
-3 -1 -38 1.8686 1.0286
-3 -1 -37 1.3571 -0.0906
-3 -1 -36 -2.4414 -0.7245
-3 -1 -35 -1.7324 -0.1729
-3 -1 -34 2.9296 0.2209
-3 -1 -33 1.9618 0.5822
-3 -1 -32 -3.2663 0.4677
-3 -1 -31 -2.0022 -1.1563
-3 -1 -30 3.3776 -1.3004
-3 -1 -29 1.8124 1.8902
-3 -1 -28 -3.2018 2.2223
-3 -1 -27 -1.3648 -2.7576
-3 -1 -26 2.7107 -3.1790
-3 -1 -25 0.6597 3.7196
-3 -1 -24 -1.9233 4.1275
-3 -1 -23 0.2692 -4.7342
-3 -1 -22 0.9016 -5.0376
-3 -1 -21 -1.3616 5.7601
-3 -1 -20 0.2702 5.8842
-3 -1 -19 2.5498 -6.7522
-3 -1 -18 -1.5156 -6.6334
-3 -1 -17 -3.7820 7.6524
-3 -1 -16 2.7904 7.2328
-3 -1 -15 5.0368 -8.3797
-3 -1 -14 -4.0893 -7.6084
-3 -1 -13 -6.3208 8.8298
-3 -1 -12 5.4297 7.6750
-3 -1 -11 7.6476 -8.8853
-3 -1 -10 -6.8194 -7.3546
-3 -1 -9 -9.0083 8.4388
-3 -1 -8 8.2240 6.5984
-3 -1 -7 10.3468 -7.4221
-3 -1 -6 -9.5509 -5.4039
-3 -1 -5 -11.5542 5.8322
-3 -1 -4 10.6599 3.8231
-3 -1 -3 12.4882 -3.7472
-3 -1 -2 -11.3992 -1.9588
-3 -1 -1 -13.0119 1.3237
-2 -18 -26 -0.5875 0.0866
-2 -18 -25 -1.0064 0.6087
-2 -18 -24 0.5751 0.0560
-2 -18 -23 0.9807 -0.8983
-2 -18 -22 -0.5484 -0.1856
-2 -18 -21 -0.8057 1.3154
-2 -18 -20 0.4604 0.3098
-2 -18 -19 0.4824 -1.8338
-2 -18 -18 -0.2518 -0.4599
-2 -18 -17 -0.0390 2.3811
-2 -18 -16 -0.1214 0.6723
-2 -18 -15 -0.4758 -2.8554
-2 -18 -14 0.6629 -0.9606
-2 -18 -13 1.0035 3.1551
-2 -18 -12 -1.3288 1.2950
-2 -18 -11 -1.4889 -3.2100
-2 -18 -10 2.0395 -1.5979
-2 -18 -9 1.8920 2.9994
-2 -18 -8 -2.7057 1.7638
-2 -18 -7 -2.1939 -2.5514
-2 -18 -6 3.2556 -1.6966
-2 -18 -5 2.3965 1.9257
-2 -18 -4 -3.6501 1.3491
-2 -18 -3 -2.5158 -1.1888
-2 -18 -2 3.8805 -0.7497
-2 -18 -1 2.5713 0.3962
-2 -16 -33 1.1804 -0.0681
-2 -16 -32 0.6109 -0.8983
-2 -16 -31 -1.3148 -0.1574
-2 -16 -30 -0.6572 1.1361
-2 -16 -29 1.3383 0.4201
-2 -16 -28 0.7054 -1.3352
-2 -16 -27 -1.2776 -0.6535
-2 -16 -26 -0.7193 1.5381
-2 -16 -25 1.1696 0.7981
-2 -16 -24 0.6540 -1.8055
-2 -16 -23 -1.0359 -0.8274
-2 -16 -22 -0.4679 2.1815
-2 -16 -21 0.8662 0.7645
-2 -16 -20 0.1353 -2.6634
-2 -16 -19 -0.6197 -0.6774
-2 -16 -18 0.3433 3.1886
-2 -16 -17 0.2444 0.6533
-2 -16 -16 -0.9387 -3.6488
-2 -16 -15 0.2958 -0.7598
-2 -16 -14 1.5972 3.9255
-2 -16 -13 -0.9982 1.0083
-2 -16 -12 -2.2530 -3.9323
-2 -16 -11 1.8155 -1.3382
-2 -16 -10 2.8437 3.6443
-2 -16 -9 -2.6663 1.6295
-2 -16 -8 -3.3250 -3.1026
-2 -16 -7 3.4587 -1.7433
-2 -16 -6 3.6781 2.3914
-2 -16 -5 -4.1120 1.5749
-2 -16 -4 -3.9084 -1.6006
-2 -16 -3 4.5704 -1.0989
-2 -16 -2 4.0355 0.7929
-2 -16 -1 -4.8037 0.3864
-2 -14 -39 -0.7259 0.1392
-2 -14 -38 0.3278 -0.4781
-2 -14 -37 0.6471 -0.5038
-2 -14 -36 -0.6695 0.1755
-2 -14 -35 -0.5171 0.9512
-2 -14 -34 0.9755 0.2964
-2 -14 -33 0.3671 -1.4080
-2 -14 -32 -1.1608 -0.8733
-2 -14 -31 -0.2278 1.8157
-2 -14 -30 1.1790 1.4570
-2 -14 -29 0.1182 -2.1567
-2 -14 -28 -1.0369 -1.9388
-2 -14 -27 -0.0373 2.4607
-2 -14 -26 0.7857 2.2300
-2 -14 -25 -0.0409 -2.7866
-2 -14 -24 -0.4937 -2.2915
-2 -14 -23 0.1634 3.1867
-2 -14 -22 0.2113 2.1502
-2 -14 -21 -0.3877 -3.6688
-2 -14 -20 0.0532 -1.8943
-2 -14 -19 0.7649 4.1763
-2 -14 -18 -0.3387 1.6451
-2 -14 -17 -1.3230 -4.5976
-2 -14 -16 0.7134 -1.5138
-2 -14 -15 2.0545 4.8038
-2 -14 -14 -1.2437 1.5573
-2 -14 -13 -2.9146 -4.6997
-2 -14 -12 1.9622 -1.7509
-2 -14 -11 3.8304 4.2637
-2 -14 -10 -2.8482 1.9912
-2 -14 -9 -4.7177 -3.5586
-2 -14 -8 3.8257 -2.1294
-2 -14 -7 5.4997 2.7065
-2 -14 -6 -4.7795 2.0262
-2 -14 -5 -6.1194 -1.8386
-2 -14 -4 5.5807 -1.6062
-2 -14 -3 6.5439 1.0427
-2 -14 -2 -6.1144 0.8916
-2 -14 -1 -6.7586 -0.3340
-2 -12 -44 -0.3094 -0.3710
-2 -12 -43 -0.7370 -1.0084
-2 -12 -42 0.3208 0.2798
-2 -12 -41 0.7751 1.0298
-2 -12 -40 -0.2856 -0.0327
-2 -12 -39 -0.6555 -0.7994
-2 -12 -38 0.1989 -0.3570
-2 -12 -37 0.4131 0.3042
-2 -12 -36 -0.0665 0.8436
-2 -12 -35 -0.1367 0.4152
-2 -12 -34 -0.0936 -1.3660
-2 -12 -33 -0.0614 -1.2704
-2 -12 -32 0.2526 1.8729
-2 -12 -31 0.0879 2.1441
-2 -12 -30 -0.3790 -2.3447
-2 -12 -29 0.0951 -2.9156
-2 -12 -28 0.4497 2.8009
-2 -12 -27 -0.4548 3.4892
-2 -12 -26 -0.4650 -3.2865
-2 -12 -25 0.9037 -3.8179
-2 -12 -24 0.4578 3.8400
-2 -12 -23 -1.3381 3.9148
-2 -12 -22 -0.4951 -4.4587
-2 -12 -21 1.6869 -3.8480
-2 -12 -20 0.6661 5.0766
-2 -12 -19 -1.9466 3.7175
-2 -12 -18 -1.0595 -5.5715
-2 -12 -17 2.1895 -3.6202
-2 -12 -16 1.7365 5.8016
-2 -12 -15 -2.5394 3.6132
-2 -12 -14 -2.7082 -5.6588
-2 -12 -13 3.1230 -3.6883
-2 -12 -12 3.9265 5.1168
-2 -12 -11 -4.0155 3.7687
-2 -12 -10 -5.2903 -4.2505
-2 -12 -9 5.1999 -3.7308
-2 -12 -8 6.6652 3.2141
-2 -12 -7 -6.5559 3.4466
-2 -12 -6 -7.9087 -2.1859
-2 -12 -5 7.8817 -2.8314
-2 -12 -4 8.8940 1.3011
-2 -12 -3 -8.9435 1.8808
-2 -12 -2 -9.5243 -0.6020
-2 -12 -1 9.5373 -0.6810
-2 -10 -46 0.8610 1.0753
-2 -10 -45 0.1405 -0.6278
-2 -10 -44 -1.2087 -1.2529
-2 -10 -43 -0.1959 0.5306
-2 -10 -42 1.4695 1.2286
-2 -10 -41 0.2119 -0.3195
-2 -10 -40 -1.5799 -0.9524
-2 -10 -39 -0.1886 0.0059
-2 -10 -38 1.5268 0.4221
-2 -10 -37 0.1372 0.3866
-2 -10 -36 -1.3620 0.3182
-2 -10 -35 -0.0738 -0.8303
-2 -10 -34 1.1895 -1.1918
-2 -10 -33 0.0095 1.3063
-2 -10 -32 -1.1288 2.1101
-2 -10 -31 0.0557 -1.8144
-2 -10 -30 1.2670 -2.9925
-2 -10 -29 -0.1318 2.3750
-2 -10 -28 -1.6211 3.7815
-2 -10 -27 0.2277 -3.0178
-2 -10 -26 2.1285 -4.4502
-2 -10 -25 -0.3343 3.7589
-2 -10 -24 -2.6731 5.0006
-2 -10 -23 0.4097 -4.5753
-2 -10 -22 3.1385 -5.4550
-2 -10 -21 -0.3743 5.3881
-2 -10 -20 -3.4665 5.8414
-2 -10 -19 0.1226 -6.0678
-2 -10 -18 3.6967 -6.1778
-2 -10 -17 0.4493 6.4648
-2 -10 -16 -3.9657 6.4570
-2 -10 -15 -1.4108 -6.4571
-2 -10 -14 4.4636 -6.6386
-2 -10 -13 2.7669 5.9979
-2 -10 -12 -5.3600 6.6512
-2 -10 -11 -4.4442 -5.1417
-2 -10 -10 6.7263 -6.4061
-2 -10 -9 6.2971 4.0350
-2 -10 -8 -8.4848 5.8217
-2 -10 -7 -8.1314 -2.8699
-2 -10 -6 10.4051 -4.8503
-2 -10 -5 9.7382 1.8184
-2 -10 -4 -12.1536 3.5013
-2 -10 -3 -10.9288 -0.9726
-2 -10 -2 13.3825 -1.8506
-2 -10 -1 11.5623 0.3154
-2 -8 -48 -0.1518 0.6406
-2 -8 -47 0.9747 1.0664
-2 -8 -46 0.2186 -0.6167
-2 -8 -45 -1.3594 -1.1440
-2 -8 -44 -0.1999 0.5219
-2 -8 -43 1.7210 1.0400
-2 -8 -42 0.0599 -0.3701
-2 -8 -41 -1.9899 -0.7345
-2 -8 -40 0.2147 0.1740
-2 -8 -39 2.1190 0.2474
-2 -8 -38 -0.6063 0.0625
-2 -8 -37 -2.1115 0.3740
-2 -8 -36 1.0697 -0.3466
-2 -8 -35 2.0308 -1.0776
-2 -8 -34 -1.5446 0.6968
-2 -8 -33 -1.9830 1.8263
-2 -8 -32 1.9743 -1.1391
-2 -8 -31 2.0765 -2.6099
-2 -8 -30 -2.3209 1.7004
-2 -8 -29 -2.3752 3.4415
-2 -8 -28 2.5697 -2.3987
-2 -8 -27 2.8662 -4.3432
-2 -8 -26 -2.7188 3.2297
-2 -8 -25 -3.4613 5.3266
-2 -8 -24 2.7601 -4.1549
-2 -8 -23 4.0345 -6.3756
-2 -8 -22 -2.6588 5.0941
-2 -8 -21 -4.4846 7.4387
-2 -8 -20 2.3458 -5.9304
-2 -8 -19 4.7953 -8.4312
-2 -8 -18 -1.7279 6.5299
-2 -8 -17 -5.0648 9.2469
-2 -8 -16 0.7158 -6.7737
-2 -8 -15 5.4870 -9.7742
-2 -8 -14 0.7389 6.5933
-2 -8 -13 -6.2850 9.9128
-2 -8 -12 -2.6117 -5.9959
-2 -8 -11 7.6171 -9.5882
-2 -8 -10 4.7893 5.0678
-2 -8 -9 -9.4932 8.7623
-2 -8 -8 -7.0780 -3.9513
-2 -8 -7 11.7327 -7.4401
-2 -8 -6 9.2321 2.8005
-2 -8 -5 -13.9882 5.6716
-2 -8 -4 -10.9966 -1.7327
-2 -8 -3 15.8306 -3.5492
-2 -8 -2 12.1519 0.7934
-2 -8 -1 -16.8700 1.2004
-2 -6 -52 0.7413 0.5094
-2 -6 -51 -0.0093 -0.3478
-2 -6 -50 -1.0016 -0.6941
-2 -6 -49 0.0867 0.3303
-2 -6 -48 1.2798 0.8029
-2 -6 -47 -0.2444 -0.2558
-2 -6 -46 -1.5818 -0.7715
-2 -6 -45 0.5158 0.1462
-2 -6 -44 1.8927 0.5658
-2 -6 -43 -0.9329 -0.0269
-2 -6 -42 -2.1757 -0.1945
-2 -6 -41 1.5136 -0.0878
-2 -6 -40 2.3887 -0.2977
-2 -6 -39 -2.2490 0.2044
-2 -6 -38 -2.5101 0.8533
-2 -6 -37 3.0959 -0.3513
-2 -6 -36 2.5605 -1.4324
-2 -6 -35 -3.9812 0.5711
-2 -6 -34 -2.6064 2.0360
-2 -6 -33 4.8175 -0.9076
-2 -6 -32 2.7396 -2.7110
-2 -6 -31 -5.5249 1.3921
-2 -6 -30 -3.0391 3.5337
-2 -6 -29 6.0486 -2.0338
-2 -6 -28 3.5315 -4.5781
-2 -6 -27 -6.3640 2.8146
-2 -6 -26 -4.1710 5.8793
-2 -6 -25 6.4659 -3.6894
-2 -6 -24 4.8531 -7.4074
-2 -6 -23 -6.3466 4.5897
-2 -6 -22 -5.4602 9.0606
-2 -6 -21 5.9752 -5.4297
-2 -6 -20 5.9232 -10.6783
-2 -6 -19 -5.2895 6.1165
-2 -6 -18 -6.2703 12.0708
-2 -6 -17 4.2085 -6.5620
-2 -6 -16 6.6393 -13.0535
-2 -6 -15 -2.6639 6.6988
-2 -6 -14 -7.2395 13.4775
-2 -6 -13 0.6397 -6.4932
-2 -6 -12 8.2721 -13.2487
-2 -6 -11 1.7947 5.9537
-2 -6 -10 -9.8382 12.3356
-2 -6 -9 -4.4718 -5.1294
-2 -6 -8 11.8680 -10.7651
-2 -6 -7 7.1390 4.0969
-2 -6 -6 -14.1064 8.6142
-2 -6 -5 -9.4979 -2.9405
-2 -6 -4 16.1637 -5.9980
-2 -6 -3 11.2576 1.7314
-2 -6 -2 -17.6213 3.0588
-2 -6 -1 -12.1893 -0.5151
-2 -4 -54 0.0840 0.1054
-2 -4 -53 1.1402 0.3458
-2 -4 -52 -0.3241 -0.0747
-2 -4 -51 -1.4156 -0.4776
-2 -4 -50 0.6916 -0.0025
-2 -4 -49 1.6449 0.5190
-2 -4 -48 -1.1787 0.1167
-2 -4 -47 -1.8478 -0.4035
-2 -4 -46 1.7731 -0.2448
-2 -4 -45 2.0433 0.1003
-2 -4 -44 -2.4681 0.3606
-2 -4 -43 -2.2358 0.3733
-2 -4 -42 3.2649 -0.4492
-2 -4 -41 2.4143 -0.9601
-2 -4 -40 -4.1661 0.5173
-2 -4 -39 -2.5646 1.5915
-2 -4 -38 5.1628 -0.5948
-2 -4 -37 2.6878 -2.2244
-2 -4 -36 -6.2239 0.7268
-2 -4 -35 -2.8138 2.8683
-2 -4 -34 7.2949 -0.9589
-2 -4 -33 2.9988 -3.5918
-2 -4 -32 -8.3075 1.3215
-2 -4 -31 -3.3056 4.5013
-2 -4 -30 9.1955 -1.8197
-2 -4 -29 3.7731 -5.7008
-2 -4 -28 -9.9081 2.4325
-2 -4 -27 -4.3909 7.2461
-2 -4 -26 10.4117 -3.1182
-2 -4 -25 5.0931 -9.1123
-2 -4 -24 -10.6792 3.8253
-2 -4 -23 -5.7804 11.1833
-2 -4 -22 10.6710 -4.5011
-2 -4 -21 6.3628 -13.2690
-2 -4 -20 -10.3210 5.0969
-2 -4 -19 -6.8076 15.1400
-2 -4 -18 9.5379 -5.5686
-2 -4 -17 7.1690 -16.5684
-2 -4 -16 -8.2276 5.8745
-2 -4 -15 -7.5827 17.3635
-2 -4 -14 6.3324 -5.9748
-2 -4 -13 8.2209 -17.3933
-2 -4 -12 -3.8743 5.8344
-2 -4 -11 -9.2210 16.5921
-2 -4 -10 0.9852 -5.4287
-2 -4 -9 10.6156 -14.9587
-2 -4 -8 2.0892 4.7514
-2 -4 -7 -12.2918 12.5502
-2 -4 -6 -5.0174 -3.8200
-2 -4 -5 14.0005 -9.4748
-2 -4 -4 7.4371 2.6770
-2 -4 -3 -15.4182 5.8853
-2 -4 -2 -9.0245 -1.3864
-2 -4 -1 16.2411 -1.9711
-2 -2 -56 -0.6372 -0.2273
-2 -2 -55 0.3327 0.0303
-2 -2 -54 0.8985 0.3285
-2 -2 -53 -0.7431 0.0090
-2 -2 -52 -1.1152 -0.4193
-2 -2 -51 1.3450 -0.0737
-2 -2 -50 1.2775 0.4252
-2 -2 -49 -2.1040 0.1589
-2 -2 -48 -1.3947 -0.2721
-2 -2 -47 2.9613 -0.2511
-2 -2 -46 1.4859 -0.0836
-2 -2 -45 -3.8583 0.3342
-2 -2 -44 -1.5688 0.6355
-2 -2 -43 4.7597 -0.3969
-2 -2 -42 1.6523 -1.3308
-2 -2 -41 -5.6623 0.4406
-2 -2 -40 -1.7369 2.0966
-2 -2 -39 6.5877 -0.4814
-2 -2 -38 1.8226 -2.8783
-2 -2 -37 -7.5642 0.5464
-2 -2 -36 -1.9181 3.6725
-2 -2 -35 8.6071 -0.6648
-2 -2 -34 2.0460 -4.5397
-2 -2 -33 -9.7080 0.8578
-2 -2 -32 -2.2383 5.5869
-2 -2 -31 10.8350 -1.1307
-2 -2 -30 2.5227 -6.9279
-2 -2 -29 -11.9415 1.4718
-2 -2 -28 -2.9067 8.6343
-2 -2 -27 12.9735 -1.8564
-2 -2 -26 3.3670 -10.6969
-2 -2 -25 -13.8702 2.2552
-2 -2 -24 -3.8524 13.0117
-2 -2 -23 14.5552 -2.6422
-2 -2 -22 4.3013 -15.3930
-2 -2 -21 -14.9268 2.9980
-2 -2 -20 -4.6683 17.6072
-2 -2 -19 14.8563 -3.3092
-2 -2 -18 4.9493 -19.4142
-2 -2 -17 -14.2052 3.5621
-2 -2 -16 -5.1911 20.6012
-2 -2 -15 12.8607 -3.7366
-2 -2 -14 5.4805 -21.0035
-2 -2 -13 -10.7839 3.8039
-2 -2 -12 -5.9122 20.5118
-2 -2 -11 8.0516 -3.7286
-2 -2 -10 6.5471 -19.0723
-2 -2 -9 -4.8776 3.4773
-2 -2 -8 -7.3775 16.6879
-2 -2 -7 1.5990 -3.0300
-2 -2 -6 8.3138 -13.4223
-2 -2 -5 1.3722 2.3894
-2 -2 -4 -9.2008 9.4060
-2 -2 -3 -3.6240 -1.5861
-2 -2 -2 9.8608 -4.8374
-2 -2 -1 4.8268 0.6763
-1 -21 -13 -0.6580 0.8883
-1 -21 -12 0.2980 0.0564
-1 -21 -11 0.7941 -0.8273
-1 -21 -10 -0.6882 -0.1542
-1 -21 -9 -0.8412 0.7031
-1 -21 -8 1.1847 0.2652
-1 -21 -7 0.8074 -0.5391
-1 -21 -6 -1.7217 -0.3304
-1 -21 -5 -0.7237 0.3643
-1 -21 -4 2.2074 0.3036
-1 -21 -3 0.6326 -0.2004
-1 -21 -2 -2.5476 -0.1764
-1 -21 -1 -0.5738 0.0536
-1 -19 -27 0.5101 0.2638
-1 -19 -26 -0.2427 0.9387
-1 -19 -25 -0.4834 -0.1452
-1 -19 -24 0.1958 -1.4261
-1 -19 -23 0.3653 0.0359
-1 -19 -22 -0.2341 1.8851
-1 -19 -21 -0.1719 0.0307
-1 -19 -20 0.3789 -2.2628
-1 -19 -19 -0.0840 -0.0563
-1 -19 -18 -0.6168 2.5104
-1 -19 -17 0.4026 0.0787
-1 -19 -16 0.9058 -2.5896
-1 -19 -15 -0.7985 -0.1503
-1 -19 -14 -1.1911 2.4833
-1 -19 -13 1.2913 0.3051
-1 -19 -12 1.4234 -2.2049
-1 -19 -11 -1.8892 -0.5307
-1 -19 -10 -1.5729 1.8009
-1 -19 -9 2.5735 0.7622
-1 -19 -8 1.6353 -1.3413
-1 -19 -7 -3.2911 -0.9042
-1 -19 -6 -1.6290 0.8991
-1 -19 -5 3.9584 0.8715
-1 -19 -4 1.5863 -0.5262
-1 -19 -3 -4.4789 -0.6310
-1 -19 -2 -1.5416 0.2355
-1 -19 -1 4.7667 0.2232
-1 -17 -35 -1.0681 -0.5181
-1 -17 -34 -0.1733 -0.3349
-1 -17 -33 1.2987 0.3314
-1 -17 -32 0.4037 0.4722
-1 -17 -31 -1.4073 0.0832
-1 -17 -30 -0.5454 -0.5317
-1 -17 -29 1.4025 -0.7065
-1 -17 -28 0.5389 0.4981
-1 -17 -27 -1.3322 1.4830
-1 -17 -26 -0.3599 -0.3938
-1 -17 -25 1.2653 -2.3324
-1 -17 -24 0.0221 0.2654
-1 -17 -23 -1.2650 3.1610
-1 -17 -22 0.4326 -0.1566
-1 -17 -21 1.3663 -3.8712
-1 -17 -20 -0.9525 0.0814
-1 -17 -19 -1.5660 4.3720
-1 -17 -18 1.4938 -0.0146
-1 -17 -17 1.8269 -4.5915
-1 -17 -16 -2.0326 -0.0945
-1 -17 -15 -2.0945 4.4929
-1 -17 -14 2.5651 0.2900
-1 -17 -13 2.3172 -4.0880
-1 -17 -12 -3.0991 -0.5742
-1 -17 -11 -2.4623 3.4430
-1 -17 -10 3.6393 0.8910
-1 -17 -9 2.5225 -2.6666
-1 -17 -8 -4.1748 -1.1373
-1 -17 -7 -2.5136 1.8827
-1 -17 -6 4.6740 1.2023
-1 -17 -5 2.4648 -1.1933
-1 -17 -4 -5.0887 -1.0167
-1 -17 -3 -2.4083 0.6459
-1 -17 -2 5.3666 0.5897
-1 -17 -1 2.3709 -0.2205
-1 -15 -41 -0.5577 0.2863
-1 -15 -40 -0.8163 -0.4442
-1 -15 -39 0.5080 -0.2900
-1 -15 -38 1.2417 0.6312
-1 -15 -37 -0.3685 0.3377
-1 -15 -36 -1.6597 -0.6657
-1 -15 -35 0.1957 -0.4209
-1 -15 -34 1.9953 0.4711
-1 -15 -33 -0.0691 0.5060
-1 -15 -32 -2.1964 -0.0087
-1 -15 -31 0.0690 -0.5516
-1 -15 -30 2.2531 -0.7131
-1 -15 -29 -0.2524 0.5309
-1 -15 -28 -2.2011 1.6431
-1 -15 -27 0.6366 -0.4461
-1 -15 -26 2.1075 -2.6984
-1 -15 -25 -1.1957 0.3282
-1 -15 -24 -2.0442 3.7777
-1 -15 -23 1.8703 -0.2192
-1 -15 -22 2.0613 -4.7722
-1 -15 -21 -2.5855 0.1481
-1 -15 -20 -2.1703 5.5737
-1 -15 -19 3.2714 -0.1122
-1 -15 -18 2.3441 -6.0856
-1 -15 -17 -3.8792 0.0771
-1 -15 -16 -2.5304 6.2378
-1 -15 -15 4.3867 0.0042
-1 -15 -14 2.6744 -6.0041
-1 -15 -13 -4.7960 -0.1620
-1 -15 -12 -2.7381 5.4154
-1 -15 -11 5.1233 0.3849
-1 -15 -10 2.7111 -4.5589
-1 -15 -9 -5.3875 -0.6141
-1 -15 -8 -2.6102 3.5598
-1 -15 -7 5.6020 0.7636
-1 -15 -6 2.4704 -2.5463
-1 -15 -5 -5.7705 -0.7564
-1 -15 -4 -2.3322 1.6110
-1 -15 -3 5.8889 0.5624
-1 -15 -2 2.2318 -0.7840
-1 -15 -1 -5.9501 -0.2173
-1 -13 -46 -0.8103 0.9829
-1 -13 -45 -0.2124 -0.1593
-1 -13 -44 0.9864 -1.0869
-1 -13 -43 0.3355 0.3811
-1 -13 -42 -1.0903 1.0849
-1 -13 -41 -0.5490 -0.6314
-1 -13 -40 1.1139 -1.0016
-1 -13 -39 0.8421 0.8341
-1 -13 -38 -1.0798 0.8767
-1 -13 -37 -1.1684 -0.8955
-1 -13 -36 1.0391 -0.7448
-1 -13 -35 1.4593 0.7314
-1 -13 -34 -1.0584 0.6222
-1 -13 -33 -1.6490 -0.2925
-1 -13 -32 1.2011 -0.5043
-1 -13 -31 1.7004 -0.4226
-1 -13 -30 -1.5091 0.3755
-1 -13 -29 -1.6202 1.3691
-1 -13 -28 1.9906 -0.2247
-1 -13 -27 1.4563 -2.4708
-1 -13 -26 -2.6199 0.0567
-1 -13 -25 -1.2785 3.6369
-1 -13 -24 3.3464 0.1060
-1 -13 -23 1.1509 -4.7758
-1 -13 -22 -4.1100 -0.2333
-1 -13 -21 -1.1077 5.7998
-1 -13 -20 4.8571 0.3026
-1 -13 -19 1.1416 -6.6254
-1 -13 -18 -5.5507 -0.3110
-1 -13 -17 -1.2096 7.1754
-1 -13 -16 6.1728 0.2773
-1 -13 -15 1.2522 -7.3859
-1 -13 -14 -6.7206 -0.2323
-1 -13 -13 -1.2169 7.2204
-1 -13 -12 7.1987 0.2030
-1 -13 -11 1.0773 -6.6815
-1 -13 -10 -7.6116 -0.1991
-1 -13 -9 -0.8414 5.8151
-1 -13 -8 7.9593 0.2087
-1 -13 -7 0.5475 -4.6997
-1 -13 -6 -8.2377 -0.2065
-1 -13 -5 -0.2519 3.4258
-1 -13 -4 8.4402 0.1695
-1 -13 -3 0.0132 -2.0710
-1 -13 -2 -8.5610 -0.0905
-1 -13 -1 0.1212 0.6857
-1 -11 -49 0.8069 -1.2052
-1 -11 -47 -1.0549 1.6342
-1 -11 -46 0.1568 -0.4663
-1 -11 -45 1.2841 -1.9380
-1 -11 -44 -0.3685 0.7023
-1 -11 -43 -1.4726 2.0594
-1 -11 -42 0.5306 -0.9793
-1 -11 -41 1.6130 -1.9873
-1 -11 -40 -0.6013 1.2314
-1 -11 -39 -1.7180 1.7550
-1 -11 -38 0.5788 -1.3612
-1 -11 -37 1.8181 -1.4239
-1 -11 -36 -0.5042 1.2682
-1 -11 -35 -1.9536 1.0580
-1 -11 -34 0.4451 -0.8820
-1 -11 -33 2.1619 -0.7016
-1 -11 -32 -0.4666 0.1872
-1 -11 -31 -2.4669 0.3688
-1 -11 -30 0.6037 0.7724
-1 -11 -29 2.8733 -0.0481
-1 -11 -28 -0.8459 -1.9098
-1 -11 -27 -3.3686 -0.2818
-1 -11 -26 1.1419 3.1233
-1 -11 -25 3.9322 0.6330
-1 -11 -24 -1.4216 -4.3233
-1 -11 -23 -4.5463 -0.9944
-1 -11 -22 1.6259 5.4458
-1 -11 -21 5.2040 1.3304
-1 -11 -20 -1.7326 -6.4486
-1 -11 -19 -5.9117 -1.5909
-1 -11 -18 1.7653 7.2954
-1 -11 -17 6.6825 1.7293
-1 -11 -16 -1.7850 -7.9389
-1 -11 -15 -7.5255 -1.7193
-1 -11 -14 1.8660 8.3133
-1 -11 -13 8.4345 1.5655
-1 -11 -12 -2.0671 -8.3413
-1 -11 -11 -9.3809 -1.3028
-1 -11 -10 2.4089 7.9527
-1 -11 -9 10.3145 0.9852
-1 -11 -8 -2.8641 -7.1063
-1 -11 -7 -11.1704 -0.6699
-1 -11 -6 3.3640 5.8068
-1 -11 -5 11.8806 0.4001
-1 -11 -4 -3.8170 -4.1108
-1 -11 -3 -12.3860 -0.1939
-1 -11 -2 4.1332 2.1221
-1 -11 -1 12.6450 0.0415
-1 -9 -50 0.6381 -1.2999
-1 -9 -49 -0.1971 0.7740
-1 -9 -48 -0.8611 1.8463
-1 -9 -47 0.6969 -0.9689
-1 -9 -46 1.0896 -2.3049
-1 -9 -45 -1.2923 1.2202
-1 -9 -44 -1.3096 2.5840
-1 -9 -43 1.8853 -1.5294
-1 -9 -42 1.5124 -2.6326
-1 -9 -41 -2.3831 1.8466
-1 -9 -40 -1.6982 2.4538
-1 -9 -39 2.7316 -2.0694
-1 -9 -38 1.8759 -2.0993
-1 -9 -37 -2.9353 2.0703
-1 -9 -36 -2.0601 1.6463
-1 -9 -35 3.0529 -1.7395
-1 -9 -34 2.2664 -1.1667
-1 -9 -33 -3.1708 1.0287
-1 -9 -32 -2.5063 0.6996
-1 -9 -31 3.3657 0.0265
-1 -9 -30 2.7852 -0.2406
-1 -9 -29 -3.6717 -1.3157
-1 -9 -28 -3.1049 -0.2495
-1 -9 -27 4.0665 2.6908
-1 -9 -26 3.4692 0.8181
-1 -9 -25 -4.4823 -4.0160
-1 -9 -24 -3.8908 -1.4896
-1 -9 -23 4.8368 5.2072
-1 -9 -22 4.3954 2.2407
-1 -9 -21 -5.0706 -6.2440
-1 -9 -20 -5.0201 -2.9954
-1 -9 -19 5.1760 7.1509
-1 -9 -18 5.8042 3.6411
-1 -9 -17 -5.2043 -7.9551
-1 -9 -16 -6.7755 -4.0616
-1 -9 -15 5.2484 8.6436
-1 -9 -14 7.9355 4.1750
-1 -9 -13 -5.4090 -9.1375
-1 -9 -12 -9.2491 -3.9605
-1 -9 -11 5.7550 9.2980
-1 -9 -10 10.6432 3.4646
-1 -9 -9 -6.2942 -8.9624
-1 -9 -8 -12.0137 -2.7840
-1 -9 -7 6.9649 7.9982
-1 -9 -6 13.2415 2.0311
-1 -9 -5 -7.6503 -6.3564
-1 -9 -4 -14.2111 -1.2962
-1 -9 -3 8.2106 4.1043
-1 -9 -2 14.8287 0.6211
-1 -9 -1 -8.5240 -1.4276
-1 -7 -52 0.1490 -1.1654
-1 -7 -51 0.5128 -1.0584
-1 -7 -50 -0.6516 1.4219
-1 -7 -49 -0.6351 1.5295
-1 -7 -48 1.3572 -1.6643
-1 -7 -47 0.7469 -1.9726
-1 -7 -46 -2.1941 1.9325
-1 -7 -45 -0.8462 2.3047
-1 -7 -44 3.0506 -2.2520
-1 -7 -43 0.9335 -2.4623
-1 -7 -42 -3.8094 2.5980
-1 -7 -41 -1.0109 2.4213
-1 -7 -40 4.3890 -2.8789
-1 -7 -39 1.0830 -2.2020
-1 -7 -38 -4.7731 2.9509
-1 -7 -37 -1.1571 1.8573
-1 -7 -36 5.0169 -2.6641
-1 -7 -35 1.2439 -1.4486
-1 -7 -34 -5.2243 1.9223
-1 -7 -33 -1.3564 1.0170
-1 -7 -32 5.5068 -0.7299
-1 -7 -31 1.5093 -0.5635
-1 -7 -30 -5.9375 -0.7962
-1 -7 -29 -1.7171 0.0467
-1 -7 -28 6.5217 2.4600
-1 -7 -27 1.9944 0.5991
-1 -7 -26 -7.1949 -4.0511
-1 -7 -25 -2.3566 -1.4294
-1 -7 -24 7.8496 5.4157
-1 -7 -23 2.8219 2.4545
-1 -7 -22 -8.3809 -6.5022
-1 -7 -21 -3.4118 -3.6157
-1 -7 -20 8.7311 7.3613
-1 -7 -19 4.1494 4.7853
-1 -7 -18 -8.9165 -8.0987
-1 -7 -17 -5.0531 -5.7930
-1 -7 -16 9.0244 8.8021
-1 -7 -15 6.1277 6.4701
-1 -7 -14 -9.1819 -9.4719
-1 -7 -13 -7.3544 -6.6962
-1 -7 -12 9.5069 9.9887
-1 -7 -11 8.6841 6.4307
-1 -7 -10 -10.0610 -10.1328
-1 -7 -9 -10.0374 -5.7186
-1 -7 -8 10.8207 9.6520
-1 -7 -7 11.3109 4.6675
-1 -7 -6 -11.6773 -8.3545
-1 -7 -5 -12.3916 -3.4077
-1 -7 -4 12.4669 6.1925
-1 -7 -3 13.1747 2.0513
-1 -7 -2 -13.0191 -3.3053
-1 -7 -1 -13.5810 -0.6673
-1 -5 -54 -0.5310 0.4737
-1 -5 -53 0.8282 -1.5296
-1 -5 -52 0.5898 -0.7450
-1 -5 -51 -1.4422 1.9176
-1 -5 -50 -0.5806 1.0544
-1 -5 -49 2.2308 -2.2575
-1 -5 -48 0.5017 -1.3618
-1 -5 -47 -3.1259 2.5729
-1 -5 -46 -0.3636 1.6201
-1 -5 -45 4.0226 -2.8958
-1 -5 -44 0.1826 -1.7863
-1 -5 -43 -4.8109 3.2269
-1 -5 -42 0.0240 1.8330
-1 -5 -41 5.4149 -3.5041
-1 -5 -40 -0.2420 -1.7544
-1 -5 -39 -5.8248 3.5989
-1 -5 -38 0.4590 1.5649
-1 -5 -37 6.1064 -3.3498
-1 -5 -36 -0.6609 -1.2897
-1 -5 -35 -6.3830 2.6233
-1 -5 -34 0.8277 0.9493
-1 -5 -33 6.7934 -1.3779
-1 -5 -32 -0.9327 -0.5451
-1 -5 -31 -7.4411 -0.3004
-1 -5 -30 0.9458 0.0515
-1 -5 -29 8.3547 2.2105
-1 -5 -28 -0.8394 0.5795
-1 -5 -27 -9.4753 -4.0966
-1 -5 -26 0.5959 -1.4014
-1 -5 -25 10.6761 5.7337
-1 -5 -24 -0.2119 2.4463
-1 -5 -23 -11.8074 -7.0041
-1 -5 -22 -0.3028 -3.6986
-1 -5 -21 12.7511 7.9283
-1 -5 -20 0.9297 5.0791
-1 -5 -19 -13.4620 -8.6366
-1 -5 -18 -1.6477 -6.4467
-1 -5 -17 13.9820 9.2902
-1 -5 -16 2.4383 7.6214
-1 -5 -15 -14.4212 -9.9829
-1 -5 -14 -3.2847 -8.4211
-1 -5 -13 14.9129 10.6680
-1 -5 -12 4.1676 8.7016
-1 -5 -11 -15.5599 -11.1412
-1 -5 -10 -5.0582 -8.3872
-1 -5 -9 16.3907 11.0934
-1 -5 -8 5.9133 7.4808
-1 -5 -7 -17.3431 -10.2167
-1 -5 -6 -6.6756 -6.0552
-1 -5 -5 18.2786 8.3261
-1 -5 -4 7.2804 4.2291
-1 -5 -3 -19.0244 -5.4504
-1 -5 -2 -7.6678 -2.1403
-1 -5 -1 19.4277 1.8582
-1 -3 -56 -0.9052 0.8915
-1 -3 -55 -0.3679 0.3672
-1 -3 -54 1.4079 -1.3827
-1 -3 -53 0.3194 -0.6055
-1 -3 -52 -2.0618 1.8701
-1 -3 -51 -0.1559 0.8535
-1 -3 -50 2.8455 -2.3083
-1 -3 -49 -0.1236 -1.0862
-1 -3 -48 -3.6993 2.6865
-1 -3 -47 0.4993 1.2829
-1 -3 -46 4.5354 -3.0197
-1 -3 -45 -0.9393 -1.4273
-1 -3 -44 -5.2639 3.3188
-1 -3 -43 1.4123 1.5051
-1 -3 -42 5.8265 -3.5558
-1 -3 -41 -1.8973 -1.5008
-1 -3 -40 -6.2252 3.6439
-1 -3 -39 2.3876 1.3964
-1 -3 -38 6.5326 -3.4497
-1 -3 -37 -2.8849 -1.1738
-1 -3 -36 -6.8774 2.8375
-1 -3 -35 3.3890 0.8189
-1 -3 -34 7.4068 -1.7304
-1 -3 -33 -3.8876 -0.3255
-1 -3 -32 -8.2384 0.1590
-1 -3 -31 4.3522 -0.3058
-1 -3 -30 9.4195 1.7265
-1 -3 -29 -4.7424 1.0710
-1 -3 -28 -10.9075 -3.6938
-1 -3 -27 5.0175 -1.9691
-1 -3 -26 12.5813 5.5031
-1 -3 -25 -5.1505 3.0032
-1 -3 -24 -14.2787 -6.9895
-1 -3 -23 5.1375 -4.1751
-1 -3 -22 15.8470 8.1175
-1 -3 -21 -4.9993 5.4705
-1 -3 -20 -17.1885 -8.9797
-1 -3 -19 4.7735 -6.8411
-1 -3 -18 18.2853 9.7375
-1 -3 -17 -4.5023 8.1902
-1 -3 -16 -19.1943 -10.5248
-1 -3 -15 4.2199 -9.3705
-1 -3 -14 20.0172 11.3556
-1 -3 -13 -3.9465 10.1992
-1 -3 -12 -20.8548 -12.0755
-1 -3 -11 3.6886 -10.4889
-1 -3 -10 21.7649 12.3841
-1 -3 -9 -3.4465 10.0876
-1 -3 -8 -22.7363 -11.9245
-1 -3 -7 3.2228 -8.9161
-1 -3 -6 23.6888 10.4122
-1 -3 -5 -3.0274 6.9937
-1 -3 -4 -24.4977 -7.7552
-1 -3 -3 2.8779 -4.4446
-1 -3 -2 25.0334 4.1210
-1 -3 -1 -2.7932 1.4842
-1 -1 -57 -0.7713 0.4158
-1 -1 -56 0.2851 0.3540
-1 -1 -55 1.1800 -0.8379
-1 -1 -54 -0.5269 -0.6793
-1 -1 -53 -1.7151 1.2999
-1 -1 -52 0.8928 1.0140
-1 -1 -51 2.3683 -1.7422
-1 -1 -50 -1.3779 -1.3200
-1 -1 -49 -3.1009 2.1268
-1 -1 -48 1.9504 1.5763
-1 -1 -47 3.8488 -2.4435
-1 -1 -46 -2.5619 -1.7776
-1 -1 -45 -4.5419 2.6969
-1 -1 -44 3.1652 1.9215
-1 -1 -43 5.1300 -2.8808
-1 -1 -42 -3.7340 -1.9928
-1 -1 -41 -5.6077 2.9543
-1 -1 -40 4.2749 1.9521
-1 -1 -39 6.0245 -2.8359
-1 -1 -38 -4.8263 -1.7411
-1 -1 -37 -6.4772 2.4238
-1 -1 -36 5.4432 1.3011
-1 -1 -35 7.0819 -1.6363
-1 -1 -34 -6.1740 -0.5992
-1 -1 -33 -7.9369 0.4558
-1 -1 -32 7.0387 -0.3516
-1 -1 -31 9.0891 1.0469
-1 -1 -30 -8.0175 1.4906
-1 -1 -29 -10.5154 -2.7234
-1 -1 -28 9.0540 -2.7287
-1 -1 -27 12.1281 4.3924
-1 -1 -26 -10.0728 3.9816
-1 -1 -25 -13.8001 -5.9029
-1 -1 -24 11.0032 -5.2011
-1 -1 -23 15.4023 7.1862
-1 -1 -22 -11.7996 6.3882
-1 -1 -21 -16.8393 -8.2735
-1 -1 -20 12.4520 -7.5773
-1 -1 -19 18.0709 9.2647
-1 -1 -18 -12.9827 8.7967
-1 -1 -17 -19.1137 -10.2602
-1 -1 -16 13.4323 -10.0198
-1 -1 -5 -23.9600 -9.5169
-1 -1 -4 15.5449 -7.2400
-1 -1 -3 24.4527 6.2545
-1 -1 -2 -15.6846 3.8348
-1 -1 -1 -24.7032 -2.2083
0 0 12 55.8528 -0.1373
0 0 14 -44.7465 0.1682
0 0 16 35.1260 -0.1757
0 0 18 -27.0462 0.1546
0 0 20 20.3458 -0.1072
0 0 22 -14.7936 0.0425
0 0 24 10.2006 0.0258
0 0 30 -1.5271 -0.1390
0 0 32 0.2712 0.1366
0 0 34 0.3003 -0.1246
0 0 36 -0.3593 0.1128
0 0 38 0.0977 -0.1083
0 0 40 0.3198 0.1132
0 0 42 -0.7842 -0.1242
0 0 44 1.2421 0.1350
0 0 46 -1.6695 -0.1386
0 0 48 2.0406 0.1308
0 0 50 -2.3095 -0.1111
0 0 52 2.4155 0.0829
0 0 54 -2.3094 -0.0519
0 0 56 1.9837 0.0239
0 0 58 -1.4884 -0.0031
0 2 0 -2.0521 0.1229
0 2 1 -98.7485 -0.2295
0 2 2 2.3039 -0.1074
0 2 3 94.7478 0.2199
0 2 4 -2.9744 0.0610
0 2 5 -87.2835 -0.1875
0 2 6 3.9365 -0.0014
0 2 7 77.3242 0.1354
0 2 8 -5.0252 -0.0480
0 2 9 -66.0459 -0.0719
0 2 10 6.0809 0.0678
0 2 11 54.5892 0.0085
0 2 24 -8.0570 0.1081
0 2 25 -6.2407 -0.0200
0 2 26 7.6198 -0.0575
0 2 27 3.3587 0.0360
0 2 28 -7.0330 0.0126
0 2 29 -1.2394 -0.0380
0 2 30 6.3364 0.0111
0 2 31 -0.1310 0.0288
0 2 32 -5.5942 -0.0081
0 2 33 0.8234 -0.0150
0 2 34 4.8807 -0.0153
0 2 35 -0.9770 0.0044
0 2 36 -4.2574 0.0448
0 2 37 0.7731 -0.0026
0 2 38 3.7531 -0.0639
0 2 39 -0.3890 0.0114
0 2 40 -3.3544 0.0615
0 2 41 -0.0431 -0.0281
0 2 42 3.0141 -0.0357
0 2 43 0.4527 0.0466
0 2 44 -2.6721 -0.0058
0 2 45 -0.8183 -0.0601
0 2 46 2.2824 0.0493
0 2 47 1.1368 0.0634
0 2 48 -1.8326 -0.0807
0 2 49 -1.3950 -0.0550
0 2 50 1.3488 0.0912
0 2 51 1.5583 0.0372
0 2 52 -0.8843 -0.0798
0 2 53 -1.5826 -0.0151
0 2 54 0.4969 0.0531
0 2 55 1.4399 -0.0056
0 2 56 -0.2251 -0.0215
0 2 57 -1.1425 0.0199
0 4 0 -73.2557 -0.2014
0 4 1 2.7645 -0.0905
0 4 2 71.6455 0.2032
0 4 3 -3.4068 0.0663
0 4 4 -67.0145 -0.1822
0 4 5 4.5504 -0.0215
0 4 6 59.9962 0.1432
0 4 7 -5.9899 -0.0278
0 4 8 -51.4878 -0.0960
0 4 9 7.4973 0.0643
0 4 10 42.4560 0.0512
0 4 11 -8.8805 -0.0761
0 4 12 -33.7454 -0.0172
0 4 13 10.0203 0.0608
0 4 14 25.9428 -0.0018
0 4 15 -10.8773 -0.0263
0 4 16 -19.3276 0.0065
0 4 17 11.4697 -0.0126
0 4 18 13.9095 -0.0015
0 4 19 -11.8358 0.0403
0 4 20 -9.5288 -0.0068
0 4 21 12.0002 -0.0465
0 4 22 5.9753 0.0125
0 4 23 -11.9582 0.0300
0 4 24 -3.0835 -0.0114
0 4 25 11.6846 0.0011
0 4 26 0.7749 0.0021
0 4 27 -11.1594 -0.0332
0 4 28 0.9559 0.0134
0 4 29 10.3963 0.0530
0 4 30 -2.0912 -0.0313
0 4 31 -9.4565 -0.0525
0 4 32 2.6464 0.0466
0 4 33 8.4405 0.0326
0 4 34 -2.7033 -0.0550
0 4 35 -7.4578 -0.0016
0 4 36 2.4061 0.0541
0 4 37 6.5895 -0.0280
0 4 38 -1.9269 -0.0446
0 4 39 -5.8601 0.0453
0 4 40 1.4189 0.0297
0 4 41 5.2323 -0.0452
0 4 42 -0.9810 -0.0143
0 4 43 -4.6292 0.0296
0 4 44 0.6481 0.0037
0 4 45 3.9734 -0.0067
0 4 46 -0.4075 -0.0012
0 4 47 -3.2261 -0.0134
0 4 48 0.2288 0.0076
0 4 49 2.4087 0.0226
0 4 50 -0.0909 -0.0205
0 4 51 -1.5969 -0.0182
0 4 52 -0.0072 0.0354
0 4 53 0.8905 0.0030
0 4 54 0.0530 -0.0471
0 4 55 -0.3727 0.0164
0 4 56 -0.0374 0.0519
0 6 0 2.3413 -0.0506
0 6 1 45.8887 0.0381
0 6 2 -2.5979 0.0466
0 6 3 -43.6448 -0.0289
0 6 4 3.3049 -0.0272
0 6 5 39.4712 0.0081
0 6 6 -4.3339 -0.0003
0 6 7 -33.9501 0.0147
0 6 8 5.5180 0.0263
0 6 9 27.7866 -0.0298
0 6 10 -6.6994 -0.0421
0 6 11 -21.6556 0.0312
0 6 12 7.7683 0.0435
0 6 13 16.0734 -0.0187
0 6 14 -8.6788 -0.0323
0 6 15 -11.3243 -0.0026
0 6 16 9.4380 0.0151
0 6 17 7.4601 0.0248
0 6 18 -10.0764 -0.0007
0 6 19 -4.3626 -0.0400
0 6 20 10.6131 -0.0037
0 6 21 1.8413 0.0433
0 6 22 -11.0332 -0.0044
0 6 23 0.2702 -0.0344
0 6 24 11.2873 0.0222
0 6 25 -2.0538 0.0166
0 6 26 -11.3123 -0.0425
0 6 27 3.4961 0.0041
0 6 28 11.0643 0.0569
0 6 29 -4.5252 -0.0216
0 6 30 -10.5461 -0.0593
0 6 31 5.0711 0.0316
0 6 32 9.8148 0.0484
0 6 33 -5.1199 -0.0323
0 6 34 -8.9655 -0.0280
0 6 35 4.7407 0.0250
0 6 36 8.0963 0.0055
0 6 37 -4.0739 -0.0132
0 6 38 -7.2713 0.0117
0 6 39 3.2915 0.0017
0 6 40 6.5001 -0.0188
0 6 41 -2.5484 0.0051
0 6 42 -5.7420 0.0155
0 6 43 1.9451 -0.0042
0 6 44 4.9361 -0.0058
0 6 45 -1.5147 -0.0053
0 6 46 -4.0410 -0.0041
0 6 47 1.2352 0.0216
0 6 48 3.0670 0.0088
0 6 49 -1.0559 -0.0409
0 6 50 -2.0832 -0.0055
0 6 51 0.9251 0.0582
0 6 52 1.1966 -0.0047
0 6 53 -0.8067 -0.0691
0 6 54 -0.5119 0.0179
0 8 0 25.8375 -0.0257
0 8 1 -1.6468 0.0004
0 8 2 -25.0772 0.0335
0 8 3 1.9174 0.0006
0 8 4 22.9048 -0.0496
0 8 5 -2.4223 -0.0037
0 8 6 -19.6630 0.0656
0 8 7 3.0972 0.0068
0 8 8 15.8309 -0.0727
0 8 9 -3.8688 -0.0074
0 8 10 -11.9095 0.0654
0 8 11 4.6727 0.0044
0 8 12 8.3088 -0.0438
0 8 13 -5.4666 0.0015
0 8 14 -5.2696 0.0137
0 8 15 6.2330 -0.0082
0 8 16 2.8398 0.0161
0 8 17 -6.9720 0.0128
0 8 18 -0.9095 -0.0368
0 8 19 7.6855 -0.0130
0 8 20 -0.7104 0.0437
0 8 21 -8.3605 0.0081
0 8 22 2.1954 -0.0368
0 8 23 8.9604 0.0007
0 8 24 -3.6343 0.0209
0 8 25 -9.4285 -0.0102
0 8 26 4.9978 -0.0034
0 8 27 9.7033 0.0171
0 8 28 -6.1593 -0.0090
0 8 29 -9.7405 -0.0187
0 8 30 6.9536 0.0119
0 8 31 9.5304 0.0147
0 8 32 -7.2481 -0.0050
0 8 33 -9.1020 -0.0069
0 8 34 6.9999 -0.0086
0 8 35 8.5109 -0.0009
0 8 36 -6.2760 0.0237
0 8 37 -7.8172 0.0053
0 8 38 5.2345 -0.0346
0 8 39 7.0627 -0.0039
0 8 40 -4.0761 0.0373
0 8 41 -6.2599 -0.0033
0 8 42 2.9879 -0.0301
0 8 43 5.3993 0.0136
0 8 44 -2.0988 0.0139
0 8 45 -4.4698 -0.0234
0 8 46 1.4608 0.0080
0 8 47 3.4841 0.0293
0 8 48 -1.0561 -0.0308
0 8 49 -2.4916 -0.0292
0 8 50 0.8224 0.0498
0 8 51 1.5741 0.0236
0 8 52 -0.6841 -0.0612
0 10 0 0.3730 -0.0350
0 10 1 -12.5097 -0.0152
0 10 2 -0.2776 0.0327
0 10 3 11.4770 0.0016
0 10 4 -0.0072 -0.0257
0 10 5 -9.6044 0.0147
0 10 6 0.4828 0.0156
0 10 7 7.2278 -0.0271
0 10 8 -1.1394 -0.0046
0 10 9 -4.7353 0.0303
0 10 10 1.9462 -0.0048
0 10 11 2.4679 -0.0228
0 10 12 -2.8497 0.0110
0 10 13 -0.6371 0.0078
0 10 14 3.7833 -0.0131
0 10 15 -0.7131 0.0087
0 10 16 -4.6837 0.0118
0 10 17 1.6910 -0.0203
0 10 18 5.5066 -0.0083
0 10 19 -2.4947 0.0227
0 10 20 -6.2323 0.0046
0 10 21 3.3244 -0.0158
0 10 22 6.8596 -0.0025
0 10 23 -4.3017 0.0030
0 10 24 -7.3909 0.0030
0 10 25 5.4212 0.0100
0 10 26 7.8180 -0.0064
0 10 27 -6.5525 -0.0180
0 10 28 -8.1157 0.0119
0 10 29 7.4878 0.0179
0 10 30 8.2475 -0.0178
0 10 31 -8.0166 -0.0098
0 10 32 -8.1801 0.0223
0 10 33 7.9990 -0.0030
0 10 34 7.8976 -0.0235
0 10 35 -7.4127 0.0158
0 10 36 -7.4099 0.0203
0 10 37 6.3585 -0.0242
0 10 38 6.7497 -0.0129
0 10 39 -5.0273 0.0254
0 10 40 -5.9625 0.0025
0 10 41 3.6423 -0.0189
0 10 42 5.0953 0.0088
0 10 43 -2.4004 0.0064
0 10 44 -4.1902 -0.0188
0 10 45 1.4292 0.0088
0 10 46 3.2857 0.0257
0 10 47 -0.7714 -0.0231
0 10 48 -2.4212 -0.0287
0 10 49 0.3957 0.0333
0 12 0 -5.2300 -0.0300
0 12 1 -3.7643 0.0246
0 12 2 4.8193 0.0251
0 12 3 3.5375 -0.0192
0 12 4 -3.6837 -0.0167
0 12 5 -3.0693 0.0092
0 12 6 2.0636 0.0078
0 12 7 2.3345 0.0015
0 12 8 -0.2815 -0.0017
0 12 9 -1.3392 -0.0091
0 12 10 -1.3487 -0.0003
0 12 11 0.1441 0.0112
0 12 12 2.6062 -0.0012
0 12 13 1.1372 -0.0071
0 12 14 -3.4147 0.0040
0 12 15 -2.3671 -0.0011
0 12 16 3.8454 -0.0051
0 12 17 3.4271 0.0102
0 12 18 -4.0731 0.0026
0 12 19 -4.2545 -0.0165
0 12 20 4.3007 0.0033
0 12 21 4.8558 0.0177
0 12 22 -4.6803 -0.0108
0 12 23 -5.2890 -0.0130
0 12 24 5.2573 0.0170
0 12 25 5.6258 0.0039
0 12 26 -5.9562 -0.0195
0 12 27 -5.9115 0.0069
0 12 28 6.6108 0.0174
0 12 29 6.1417 -0.0162
0 12 30 -7.0256 -0.0119
0 12 31 -6.2657 0.0217
0 12 32 7.0438 0.0055
0 12 33 6.2135 -0.0223
0 12 34 -6.6000 -0.0011
0 12 35 -5.9313 0.0186
0 12 36 5.7378 0.0007
0 12 37 5.4093 -0.0123
0 12 38 -4.5934 -0.0046
0 12 39 -4.6898 0.0057
0 12 40 3.3511 0.0117
0 12 41 3.8542 -0.0005
0 12 42 -2.1913 -0.0194
0 12 43 -2.9976 -0.0023
0 12 44 1.2475 0.0251
0 12 45 2.2026 0.0028
0 12 46 -0.5837 -0.0269
0 12 47 -1.5235 -0.0018
0 12 48 0.1946 0.0241
0 14 0 -6.7279 -0.0041
0 14 1 2.1045 -0.0077
0 14 2 6.6106 0.0068
0 14 3 -1.4561 0.0065
0 14 4 -6.2514 -0.0133
0 14 5 0.3110 -0.0050
0 14 6 5.6008 0.0205
0 14 7 1.0800 0.0032
0 14 8 -4.6256 -0.0248
0 14 9 -2.4372 -0.0014
0 14 10 3.3548 0.0235
0 14 11 3.5317 0.0001
0 14 12 -1.8985 -0.0161
0 14 13 -4.2426 -0.0001
0 14 14 0.4287 0.0046
0 14 15 4.5759 0.0017
0 14 16 0.8733 0.0075
0 14 17 -4.6399 -0.0046
0 14 18 -1.8787 -0.0165
0 14 19 4.5901 0.0076
0 14 20 2.5520 0.0196
0 14 21 -4.5645 -0.0092
0 14 22 -2.9522 -0.0164
0 14 23 4.6332 0.0085
0 14 24 3.1946 0.0087
0 14 25 -4.7803 -0.0052
0 14 26 -3.3912 0.0003
0 14 27 4.9193 0.0005
0 14 28 3.5990 -0.0071
0 14 29 -4.9361 0.0035
0 14 30 -3.7987 0.0092
0 14 31 4.7371 -0.0047
0 14 32 3.9112 -0.0064
0 14 33 -4.2866 0.0014
0 14 34 -3.8426 0.0000
0 14 35 3.6188 0.0063
0 14 36 3.5337 0.0069
0 14 37 -2.8240 -0.0168
0 14 38 -2.9916 -0.0114
0 14 39 2.0172 0.0273
0 14 40 2.2911 0.0116
0 14 41 -1.3031 -0.0348
0 14 42 -1.5481 -0.0070
0 14 43 0.7499 0.0368
0 14 44 0.8792 -0.0008
0 16 0 0.9889 -0.0187
0 16 1 7.4369 0.0073
0 16 2 -0.7447 0.0161
0 16 3 -7.2716 -0.0116
0 16 4 0.0736 -0.0104
0 16 5 6.8825 0.0170
0 16 6 0.8689 0.0034
0 16 7 -6.1962 -0.0210
0 16 8 -1.8790 0.0031
0 16 9 5.1806 0.0214
0 16 10 2.7666 -0.0072
0 16 11 -3.8886 -0.0175
0 16 12 -3.4063 0.0080
0 16 13 2.4642 0.0103
0 16 14 3.7618 -0.0060
0 16 15 -1.1028 -0.0022
0 16 16 -3.8765 0.0024
0 16 17 -0.0154 -0.0039
0 16 18 3.8375 0.0009
0 16 19 0.7889 0.0061
0 16 20 -3.7306 -0.0021
0 16 21 -1.2241 -0.0037
0 16 22 3.6043 0.0005
0 16 23 1.4193 -0.0016
0 16 24 -3.4579 0.0036
0 16 25 -1.5109 0.0072
0 16 26 3.2538 -0.0082
0 16 27 1.6094 -0.0101
0 16 28 -2.9480 0.0111
0 16 29 -1.7543 0.0083
0 16 30 2.5208 -0.0102
0 16 31 1.9069 -0.0015
0 16 32 -1.9953 0.0045
0 16 33 -1.9807 -0.0084
0 16 34 1.4336 0.0052
0 16 35 1.8927 0.0183
0 16 36 -0.9162 -0.0169
0 16 37 -1.6081 -0.0250
0 16 38 0.5131 0.0276
0 16 39 1.1600 0.0262
0 18 0 6.3244 -0.0101
0 18 1 0.2836 -0.0004
0 18 2 -6.2860 0.0088
0 18 3 -0.5361 0.0035
0 18 4 6.1225 -0.0061
0 18 5 0.9725 -0.0088
0 18 6 -5.7502 0.0033
0 18 7 -1.4836 0.0142
0 18 8 5.0910 -0.0015
0 18 9 1.9556 -0.0175
0 18 10 -4.1307 0.0017
0 18 11 -2.3071 0.0175
0 18 12 2.9491 -0.0034
0 18 13 2.5088 -0.0142
0 18 14 -1.7077 0.0057
0 18 15 -2.5800 0.0089
0 18 16 0.5967 -0.0071
0 18 17 2.5659 -0.0034
0 18 18 0.2319 0.0065
0 18 19 -2.5074 -0.0003
0 18 20 -0.7162 -0.0036
0 18 21 2.4184 0.0015
0 18 22 0.8966 -0.0008
0 18 23 -2.2806 -0.0005
0 18 24 -0.8866 0.0051
0 18 25 2.0590 -0.0015
0 18 26 0.8167 -0.0075
0 18 27 -1.7272 0.0025
0 18 28 -0.7800 0.0064
0 18 29 1.2917 -0.0012
0 18 30 0.8022 -0.0016
0 18 31 -0.8007 -0.0031
0 18 32 -0.8469 -0.0057
0 18 33 0.3333 0.0096
0 20 0 0.9905 -0.0027
0 20 1 -4.3131 0.0092
0 20 2 -1.0314 0.0032
0 20 3 4.2729 -0.0099
0 20 4 1.1350 -0.0053
0 20 5 -4.1281 0.0104
0 20 6 -1.2605 0.0077
0 20 7 3.7923 -0.0110
0 20 8 1.3611 -0.0091
0 20 9 -3.2077 0.0116
0 20 10 -1.4052 0.0084
0 20 11 2.3891 -0.0124
0 20 12 1.3893 -0.0056
0 20 13 -1.4350 0.0131
0 20 14 -1.3362 0.0016
0 20 15 0.4998 -0.0133
0 20 16 1.2802 0.0023
0 20 17 0.2597 0.0127
0 20 18 -1.2465 -0.0049
0 20 19 -0.7403 -0.0113
0 20 20 1.2351 0.0056
0 20 21 0.9234 0.0092
0 20 22 -1.2183 -0.0048
0 20 23 -0.8723 -0.0069
1 1 0 15.7155 -0.0075
1 1 1 -24.7032 2.2083
1 1 2 -15.6846 -3.8348
1 1 3 24.4527 -6.2545
1 1 4 15.5449 7.2400
1 1 5 -23.9600 9.5169
1 1 6 -15.3068 -9.8531
1 1 7 23.2875 -11.6971
1 1 8 14.9914 11.4813
1 1 9 -22.5103 12.7394
1 1 10 -14.6265 -12.1180
1 1 11 21.6928 -12.8103
1 1 12 14.2385 11.9176
1 1 13 -20.8673 12.2145
1 1 14 -13.8421 -11.1299
1 1 15 20.0236 -11.2811
1 1 16 13.4323 10.0198
1 1 17 -19.1137 10.2602
1 1 18 -12.9827 -8.7967
1 1 19 18.0709 -9.2647
1 1 20 12.4520 7.5773
1 1 21 -16.8393 8.2735
1 1 22 -11.7996 -6.3882
1 1 23 15.4023 -7.1862
1 1 24 11.0032 5.2011
1 1 25 -13.8001 5.9029
1 1 26 -10.0728 -3.9816
1 1 27 12.1281 -4.3924
1 1 28 9.0540 2.7287
1 1 29 -10.5154 2.7234
1 1 30 -8.0175 -1.4906
1 1 31 9.0891 -1.0469
1 1 32 7.0387 0.3516
1 1 33 -7.9369 -0.4558
1 1 34 -6.1740 0.5992
1 1 35 7.0819 1.6363
1 1 36 5.4432 -1.3011
1 1 37 -6.4772 -2.4238
1 1 38 -4.8263 1.7411
1 1 39 6.0245 2.8359
1 1 40 4.2749 -1.9521
1 1 41 -5.6077 -2.9543
1 1 42 -3.7340 1.9928
1 1 43 5.1300 2.8808
1 1 44 3.1652 -1.9215
1 1 45 -4.5419 -2.6969
1 1 46 -2.5619 1.7776
1 1 50 -1.3779 1.3200
1 1 51 2.3683 1.7422
1 1 52 0.8928 -1.0140
1 1 53 -1.7151 -1.2999
1 1 54 -0.5269 0.6793
1 1 55 1.1800 0.8379
1 1 56 0.2851 -0.3540
1 1 57 -0.7713 -0.4158
1 3 0 -25.2031 -0.0785
1 3 1 -2.7932 -1.4842
1 3 2 25.0334 -4.1210
1 3 3 2.8779 4.4446
1 3 4 -24.4977 7.7552
1 3 5 -3.0274 -6.9937
1 3 6 23.6888 -10.4122
1 3 7 3.2228 8.9161
1 3 8 -22.7363 11.9245
1 3 9 -3.4465 -10.0876
1 3 10 21.7649 -12.3841
1 3 11 3.6886 10.4889
1 3 12 -20.8548 12.0755
1 3 13 -3.9465 -10.1992
1 3 14 20.0172 -11.3556
1 3 15 4.2199 9.3705
1 3 16 -19.1943 10.5248
1 3 17 -4.5023 -8.1902
1 3 18 18.2853 -9.7375
1 3 19 4.7735 6.8411
1 3 20 -17.1885 8.9797
1 3 21 -4.9993 -5.4705
1 3 22 15.8470 -8.1175
1 3 23 5.1375 4.1751
1 3 24 -14.2787 6.9895
1 3 25 -5.1505 -3.0032
1 3 26 12.5813 -5.5031
1 3 27 5.0175 1.9691
1 3 28 -10.9075 3.6938
1 3 29 -4.7424 -1.0710
1 3 30 9.4195 -1.7265
1 3 31 4.3522 0.3058
1 3 32 -8.2384 -0.1590
1 3 33 -3.8876 0.3255
1 3 34 7.4068 1.7304
1 3 35 3.3890 -0.8189
1 3 36 -6.8774 -2.8375
1 3 37 -2.8849 1.1738
1 3 38 6.5326 3.4497
1 3 39 2.3876 -1.3964
1 3 40 -6.2252 -3.6439
1 3 41 -1.8973 1.5008
1 3 42 5.8265 3.5558
1 3 43 1.4123 -1.5051
1 3 44 -5.2639 -3.3188
1 3 45 -0.9393 1.4273
1 3 46 4.5354 3.0197
1 3 47 0.4993 -1.2829
1 3 48 -3.6993 -2.6865
1 3 49 -0.1236 1.0862
1 3 50 2.8455 2.3083
1 3 51 -0.1559 -0.8535
1 3 52 -2.0618 -1.8701
1 3 53 0.3194 0.6055
1 3 54 1.4079 1.3827
1 3 55 -0.3679 -0.3672
1 3 56 -0.9052 -0.8915
1 5 0 7.7960 0.0730
1 5 1 19.4277 -1.8582
1 5 2 -7.6678 2.1403
1 5 3 -19.0244 5.4504
1 5 4 7.2804 -4.2291
1 5 5 18.2786 -8.3261
1 5 6 -6.6756 6.0552
1 5 7 -17.3431 10.2167
1 5 8 5.9133 -7.4808
1 5 9 16.3907 -11.0934
1 5 10 -5.0582 8.3872
1 5 11 -15.5599 11.1412
1 5 12 4.1676 -8.7016
1 5 13 14.9129 -10.6680
1 5 14 -3.2847 8.4211
1 5 15 -14.4212 9.9829
1 5 16 2.4383 -7.6214
1 5 17 13.9820 -9.2902
1 5 18 -1.6477 6.4467
1 5 19 -13.4620 8.6366
1 5 20 0.9297 -5.0791
1 5 21 12.7511 -7.9283
1 5 22 -0.3028 3.6986
1 5 23 -11.8074 7.0041
1 5 24 -0.2119 -2.4463
1 5 25 10.6761 -5.7337
1 5 26 0.5959 1.4014
1 5 27 -9.4753 4.0966
1 5 28 -0.8394 -0.5795
1 5 29 8.3547 -2.2105
1 5 30 0.9458 -0.0515
1 5 31 -7.4411 0.3004
1 5 32 -0.9327 0.5451
1 5 33 6.7934 1.3779
1 5 34 0.8277 -0.9493
1 5 35 -6.3830 -2.6233
1 5 36 -0.6609 1.2897
1 5 37 6.1064 3.3498
1 5 38 0.4590 -1.5649
1 5 39 -5.8248 -3.5989
1 5 40 -0.2420 1.7544
1 5 41 5.4149 3.5041
1 5 42 0.0240 -1.8330
1 5 43 -4.8109 -3.2269
1 5 44 0.1826 1.7863
1 5 45 4.0226 2.8958
1 5 46 -0.3636 -1.6201
1 5 47 -3.1259 -2.5729
1 5 48 0.5017 1.3618
1 5 49 2.2308 2.2575
1 5 50 -0.5806 -1.0544
1 5 51 -1.4422 -1.9176
1 5 52 0.5898 0.7450
1 5 53 0.8282 1.5296
1 5 54 -0.5310 -0.4737
1 7 0 13.2088 -0.0052
1 7 1 -13.5810 0.6673
1 7 2 -13.0191 3.3053
1 7 3 13.1747 -2.0513
1 7 4 12.4669 -6.1925
1 7 5 -12.3916 3.4077
1 7 6 -11.6773 8.3545
1 7 7 11.3109 -4.6675
1 7 8 10.8207 -9.6520
1 7 9 -10.0374 5.7186
1 7 10 -10.0610 10.1328
1 7 11 8.6841 -6.4307
1 7 12 9.5069 -9.9887
1 7 13 -7.3544 6.6962
1 7 14 -9.1819 9.4719
1 7 15 6.1277 -6.4701
1 7 16 9.0244 -8.8021
1 7 17 -5.0531 5.7930
1 7 18 -8.9165 8.0987
1 7 19 4.1494 -4.7853
1 7 20 8.7311 -7.3613
1 7 21 -3.4118 3.6157
1 7 22 -8.3809 6.5022
1 7 23 2.8219 -2.4545
1 7 24 7.8496 -5.4157
1 7 25 -2.3566 1.4294
1 7 26 -7.1949 4.0511
1 7 27 1.9944 -0.5991
1 7 28 6.5217 -2.4600
1 7 29 -1.7171 -0.0467
1 7 30 -5.9375 0.7962
1 7 31 1.5093 0.5635
1 7 32 5.5068 0.7299
1 7 33 -1.3564 -1.0170
1 7 34 -5.2243 -1.9223
1 7 35 1.2439 1.4486
1 7 36 5.0169 2.6641
1 7 37 -1.1571 -1.8573
1 7 38 -4.7731 -2.9509
1 7 39 1.0830 2.2020
1 7 40 4.3890 2.8789
1 7 41 -1.0109 -2.4213
1 7 42 -3.8094 -2.5980
1 7 43 0.9335 2.4623
1 7 44 3.0506 2.2520
1 7 45 -0.8462 -2.3047
1 7 46 -2.1941 -1.9325
1 7 47 0.7469 1.9726
1 7 48 1.3572 1.6643
1 7 49 -0.6351 -1.5295
1 7 50 -0.6516 -1.4219
1 7 51 0.5128 1.0584
1 7 52 0.1490 1.1654
1 9 0 -15.0354 -0.0053
1 9 1 -8.5240 1.4276
1 9 2 14.8287 -0.6211
1 9 3 8.2106 -4.1043
1 9 4 -14.2111 1.2962
1 9 5 -7.6503 6.3564
1 9 6 13.2415 -2.0311
1 9 7 6.9649 -7.9982
1 9 8 -12.0137 2.7840
1 9 9 -6.2942 8.9624
1 9 10 10.6432 -3.4646
1 9 11 5.7550 -9.2980
1 9 12 -9.2491 3.9605
1 9 13 -5.4090 9.1375
1 9 14 7.9355 -4.1750
1 9 15 5.2484 -8.6436
1 9 16 -6.7755 4.0616
1 9 17 -5.2043 7.9551
1 9 18 5.8042 -3.6411
1 9 19 5.1760 -7.1509
1 9 20 -5.0201 2.9954
1 9 21 -5.0706 6.2440
1 9 22 4.3954 -2.2407
1 9 23 4.8368 -5.2072
1 9 24 -3.8908 1.4896
1 9 25 -4.4823 4.0160
1 9 26 3.4692 -0.8181
1 9 27 4.0665 -2.6908
1 9 28 -3.1049 0.2495
1 9 29 -3.6717 1.3157
1 9 30 2.7852 0.2406
1 9 31 3.3657 -0.0265
1 9 32 -2.5063 -0.6996
1 9 33 -3.1708 -1.0287
1 9 34 2.2664 1.1667
1 9 35 3.0529 1.7395
1 9 36 -2.0601 -1.6463
1 9 37 -2.9353 -2.0703
1 9 38 1.8759 2.0993
1 9 39 2.7316 2.0694
1 9 40 -1.6982 -2.4538
1 9 41 -2.3831 -1.8466
1 9 42 1.5124 2.6326
1 9 43 1.8853 1.5294
1 9 44 -1.3096 -2.5840
1 9 45 -1.2923 -1.2202
1 9 46 1.0896 2.3049
1 9 47 0.6969 0.9689
1 9 48 -0.8611 -1.8463
1 9 49 -0.1971 -0.7740
1 9 50 0.6381 1.2999
1 11 0 -4.2479 -0.0215
1 11 1 12.6450 -0.0415
1 11 2 4.1332 -2.1221
1 11 3 -12.3860 0.1939
1 11 4 -3.8170 4.1108
1 11 5 11.8806 -0.4001
1 11 6 3.3640 -5.8068
1 11 7 -11.1704 0.6699
1 11 8 -2.8641 7.1063
1 11 9 10.3145 -0.9852
1 11 10 2.4089 -7.9527
1 11 11 -9.3809 1.3028
1 11 12 -2.0671 8.3413
1 11 13 8.4345 -1.5655
1 11 14 1.8660 -8.3133
1 11 15 -7.5255 1.7193
1 11 16 -1.7850 7.9389
1 11 17 6.6825 -1.7293
1 11 18 1.7653 -7.2954
1 11 19 -5.9117 1.5909
1 11 20 -1.7326 6.4486
1 11 21 5.2040 -1.3304
1 11 22 1.6259 -5.4458
1 11 23 -4.5463 0.9944
1 11 24 -1.4216 4.3233
1 11 25 3.9322 -0.6330
1 11 26 1.1419 -3.1233
1 11 27 -3.3686 0.2818
1 11 28 -0.8459 1.9098
1 11 29 2.8733 0.0481
1 11 30 0.6037 -0.7724
1 11 31 -2.4669 -0.3688
1 11 32 -0.4666 -0.1872
1 11 33 2.1619 0.7016
1 11 34 0.4451 0.8820
1 11 35 -1.9536 -1.0580
1 11 36 -0.5042 -1.2682
1 11 37 1.8181 1.4239
1 11 38 0.5788 1.3612
1 11 39 -1.7180 -1.7550
1 11 40 -0.6013 -1.2314
1 11 41 1.6130 1.9873
1 11 42 0.5306 0.9793
1 11 43 -1.4726 -2.0594
1 11 44 -0.3685 -0.7023
1 11 45 1.2841 1.9380
1 11 46 0.1568 0.4663
1 11 47 -1.0549 -1.6342
1 11 49 0.8069 1.2052
1 13 0 8.5974 0.0165
1 13 1 0.1212 -0.6857
1 13 2 -8.5610 0.0905
1 13 3 0.0132 2.0710
1 13 4 8.4402 -0.1695
1 13 5 -0.2519 -3.4258
1 13 6 -8.2377 0.2065
1 13 7 0.5475 4.6997
1 13 8 7.9593 -0.2087
1 13 9 -0.8414 -5.8151
1 13 10 -7.6116 0.1991
1 13 11 1.0773 6.6815
1 13 12 7.1987 -0.2030
1 13 13 -1.2169 -7.2204
1 13 14 -6.7206 0.2323
1 13 15 1.2522 7.3859
1 13 16 6.1728 -0.2773
1 13 17 -1.2096 -7.1754
1 13 18 -5.5507 0.3110
1 13 19 1.1416 6.6254
1 13 20 4.8571 -0.3026
1 13 21 -1.1077 -5.7998
1 13 22 -4.1100 0.2333
1 13 23 1.1509 4.7758
1 13 24 3.3464 -0.1060
1 13 25 -1.2785 -3.6369
1 13 26 -2.6199 -0.0567
1 13 27 1.4563 2.4708
1 13 28 1.9906 0.2247
1 13 29 -1.6202 -1.3691
1 13 30 -1.5091 -0.3755
1 13 31 1.7004 0.4226
1 13 32 1.2011 0.5043
1 13 33 -1.6490 0.2925
1 13 34 -1.0584 -0.6222
1 13 35 1.4593 -0.7314
1 13 36 1.0391 0.7448
1 13 37 -1.1684 0.8955
1 13 38 -1.0798 -0.8767
1 13 39 0.8421 -0.8341
1 13 40 1.1139 1.0016
1 13 41 -0.5490 0.6314
1 13 42 -1.0903 -1.0849
1 13 43 0.3355 -0.3811
1 13 44 0.9864 1.0869
1 13 45 -0.2124 0.1593
1 15 0 -2.1935 -0.0305
1 15 1 -5.9501 0.2173
1 15 2 2.2318 0.7840
1 15 3 5.8889 -0.5624
1 15 4 -2.3322 -1.6110
1 15 5 -5.7705 0.7564
1 15 6 2.4704 2.5463
1 15 7 5.6020 -0.7636
1 15 8 -2.6102 -3.5598
1 15 9 -5.3875 0.6141
1 15 10 2.7111 4.5589
1 15 11 5.1233 -0.3849
1 15 12 -2.7381 -5.4154
1 15 13 -4.7960 0.1620
1 15 14 2.6744 6.0041
1 15 15 4.3867 -0.0042
1 15 16 -2.5304 -6.2378
1 15 17 -3.8792 -0.0771
1 15 18 2.3441 6.0856
1 15 19 3.2714 0.1122
1 15 20 -2.1703 -5.5737
1 15 21 -2.5855 -0.1481
1 15 22 2.0613 4.7722
1 15 23 1.8703 0.2192
1 15 24 -2.0442 -3.7777
1 15 25 -1.1957 -0.3282
1 15 26 2.1075 2.6984
1 15 27 0.6366 0.4461
1 15 28 -2.2011 -1.6431
1 15 29 -0.2524 -0.5309
1 15 30 2.2531 0.7131
1 15 31 0.0690 0.5516
1 15 32 -2.1964 0.0087
1 15 33 -0.0691 -0.5060
1 15 34 1.9953 -0.4711
1 15 35 0.1957 0.4209
1 15 36 -1.6597 0.6657
1 15 37 -0.3685 -0.3377
1 15 38 1.2417 -0.6312
1 15 39 0.5080 0.2900
1 15 40 -0.8163 0.4442
1 15 41 -0.5577 -0.2863
1 17 0 -5.4671 0.0148
1 17 1 2.3709 0.2205
1 17 2 5.3666 -0.5897
1 17 3 -2.4083 -0.6459
1 17 4 -5.0887 1.0167
1 17 5 2.4648 1.1933
1 17 6 4.6740 -1.2023
1 17 7 -2.5136 -1.8827
1 17 8 -4.1748 1.1373
1 17 9 2.5225 2.6666
1 17 10 3.6393 -0.8910
1 17 11 -2.4623 -3.4430
1 17 12 -3.0991 0.5742
1 17 13 2.3172 4.0880
1 17 14 2.5651 -0.2900
1 17 15 -2.0945 -4.4929
1 17 16 -2.0326 0.0945
1 17 17 1.8269 4.5915
1 17 18 1.4938 0.0146
1 17 19 -1.5660 -4.3720
1 17 20 -0.9525 -0.0814
1 17 21 1.3663 3.8712
1 17 22 0.4326 0.1566
1 17 23 -1.2650 -3.1610
1 17 24 0.0221 -0.2654
1 17 25 1.2653 2.3324
1 17 26 -0.3599 0.3938
1 17 27 -1.3322 -1.4830
1 17 28 0.5389 -0.4981
1 17 29 1.4025 0.7065
1 17 30 -0.5454 0.5317
1 17 31 -1.4073 -0.0832
1 17 32 0.4037 -0.4722
1 17 33 1.2987 -0.3314
1 17 34 -0.1733 0.3349
1 17 35 -1.0681 0.5181
1 19 0 1.5211 -0.0014
1 19 1 4.7667 -0.2232
1 19 2 -1.5416 -0.2355
1 19 3 -4.4789 0.6310
1 19 4 1.5863 0.5262
1 19 5 3.9584 -0.8715
1 19 6 -1.6290 -0.8991
1 19 7 -3.2911 0.9042
1 19 8 1.6353 1.3413
1 19 9 2.5735 -0.7622
1 19 10 -1.5729 -1.8009
1 19 11 -1.8892 0.5307
1 19 12 1.4234 2.2049
1 19 13 1.2913 -0.3051
1 19 14 -1.1911 -2.4833
1 19 15 -0.7985 0.1503
1 19 16 0.9058 2.5896
1 19 17 0.4026 -0.0787
1 19 18 -0.6168 -2.5104
1 19 19 -0.0840 0.0563
1 19 20 0.3789 2.2628
1 19 21 -0.1719 -0.0307
1 19 22 -0.2341 -1.8851
1 19 23 0.3653 -0.0359
1 19 24 0.1958 1.4261
1 19 25 -0.4834 0.1452
1 19 26 -0.2427 -0.9387
1 19 27 0.5101 -0.2638
1 21 2 -2.5476 0.1764
1 21 3 0.6326 0.2004
1 21 4 2.2074 -0.3036
1 21 5 -0.7237 -0.3643
1 21 6 -1.7217 0.3304
1 21 7 0.8074 0.5391
1 21 8 1.1847 -0.2652
1 21 9 -0.8412 -0.7031
1 21 10 -0.6882 0.1542
1 21 11 0.7941 0.8273
1 21 12 0.2980 -0.0564
1 21 13 -0.6580 -0.8883
2 0 0 -2.5757 0.2534
2 0 1 0.0273 -2.6440
2 0 2 1.9424 -0.2478
2 0 3 -0.1016 7.7499
2 0 4 -0.1115 0.2405
2 0 5 0.1578 -12.3752
2 0 6 -2.6363 -0.2291
2 0 7 -0.1872 16.2733
2 0 8 5.8951 0.2110
2 0 9 0.1898 -19.2761
2 0 10 -9.2172 -0.1848
2 0 11 -0.1732 21.2957
2 0 12 12.1992 0.1510
2 0 13 0.1493 -22.3145
2 0 14 -14.5485 -0.1125
2 0 15 -0.1292 22.3722
2 0 16 16.1168 0.0734
2 0 17 0.1195 -21.5590
2 0 18 -16.8948 -0.0378
2 0 19 -0.1208 20.0140
2 0 20 16.9777 0.0085
2 0 21 0.1288 -17.9245
2 0 22 -16.5166 0.0134
2 0 23 -0.1369 15.5169
2 0 24 15.6725 -0.0287
2 0 25 0.1394 -13.0330
2 0 26 -14.5879 0.0395
2 0 27 -0.1335 10.6933
2 0 28 13.3762 -0.0482
2 0 29 0.1198 -8.6571
2 0 30 -12.1245 0.0566
2 0 31 -0.1014 6.9941
2 0 32 10.9006 -0.0655
2 0 33 0.0823 -5.6808
2 0 34 -9.7537 0.0744
2 0 35 -0.0655 4.6250
2 0 36 8.7099 -0.0821
2 0 37 0.0520 -3.7104
2 0 38 -7.7646 0.0870
2 0 39 -0.0414 2.8451
2 0 40 6.8835 -0.0878
2 0 41 0.0320 -1.9942
2 0 42 -6.0141 0.0842
2 0 43 -0.0221 1.1851
2 0 44 5.1093 -0.0765
2 0 45 0.0109 -0.4851
2 0 46 -4.1515 0.0659
2 0 47 0.0015 -0.0365
2 0 48 3.1674 -0.0540
2 0 49 -0.0139 0.3446
2 0 50 -2.2234 0.0422
2 0 51 0.0245 -0.4555
2 0 52 1.4032 -0.0312
2 0 53 -0.0318 0.4299
2 0 54 -0.7752 0.0214
2 0 55 0.0347 -0.3465
2 0 56 0.3665 -0.0128
2 2 0 -10.1482 0.0269
2 2 1 4.8268 -0.6763
2 2 2 9.8608 4.8374
2 2 3 -3.6240 1.5861
2 2 4 -9.2008 -9.4060
2 2 5 1.3722 -2.3894
2 2 6 8.3138 13.4223
2 2 7 1.5990 3.0300
2 2 8 -7.3775 -16.6879
2 2 9 -4.8776 -3.4773
2 2 10 6.5471 19.0723
2 2 11 8.0516 3.7286
2 2 12 -5.9122 -20.5118
2 2 13 -10.7839 -3.8039
2 2 14 5.4805 21.0035
2 2 15 12.8607 3.7366
2 2 16 -5.1911 -20.6012
2 2 17 -14.2052 -3.5621
2 2 18 4.9493 19.4142
2 2 19 14.8563 3.3092
2 2 20 -4.6683 -17.6072
2 2 21 -14.9268 -2.9980
2 2 22 4.3013 15.3930
2 2 23 14.5552 2.6422
2 2 24 -3.8524 -13.0117
2 2 25 -13.8702 -2.2552
2 2 26 3.3670 10.6969
2 2 27 12.9735 1.8564
2 2 28 -2.9067 -8.6343
2 2 29 -11.9415 -1.4718
2 2 30 2.5227 6.9279
2 2 31 10.8350 1.1307
2 2 32 -2.2383 -5.5869
2 2 33 -9.7080 -0.8578
2 2 34 2.0460 4.5397
2 2 35 8.6071 0.6648
2 2 36 -1.9181 -3.6725
2 2 37 -7.5642 -0.5464
2 2 38 1.8226 2.8783
2 2 39 6.5877 0.4814
2 2 40 -1.7369 -2.0966
2 2 41 -5.6623 -0.4406
2 2 42 1.6523 1.3308
2 2 43 4.7597 0.3969
2 2 44 -1.5688 -0.6355
2 2 45 -3.8583 -0.3342
2 2 46 1.4859 0.0836
2 2 47 2.9613 0.2511
2 2 48 -1.3947 0.2721
2 2 49 -2.1040 -0.1589
2 2 50 1.2775 -0.4252
2 2 51 1.3450 0.0737
2 2 52 -1.1152 0.4193
2 2 53 -0.7431 -0.0090
2 2 54 0.8985 -0.3285
2 2 55 0.3327 -0.0303
2 2 56 -0.6372 0.2273
2 4 0 9.5589 -0.0252
2 4 1 16.2411 1.9711
2 4 2 -9.0245 1.3864
2 4 3 -15.4182 -5.8853
2 4 4 7.4371 -2.6770
2 4 5 14.0005 9.4748
2 4 6 -5.0174 3.8200
2 4 7 -12.2918 -12.5502
2 4 8 2.0892 -4.7514
2 4 9 10.6156 14.9587
2 4 10 0.9852 5.4287
2 4 11 -9.2210 -16.5921
2 4 12 -3.8743 -5.8344
2 4 13 8.2209 17.3933
2 4 14 6.3324 5.9748
2 4 15 -7.5827 -17.3635
2 4 16 -8.2276 -5.8745
2 4 17 7.1690 16.5684
2 4 18 9.5379 5.5686
2 4 19 -6.8076 -15.1400
2 4 20 -10.3210 -5.0969
2 4 21 6.3628 13.2690
2 4 22 10.6710 4.5011
2 4 23 -5.7804 -11.1833
2 4 24 -10.6792 -3.8253
2 4 25 5.0931 9.1123
2 4 26 10.4117 3.1182
2 4 27 -4.3909 -7.2461
2 4 28 -9.9081 -2.4325
2 4 29 3.7731 5.7008
2 4 30 9.1955 1.8197
2 4 31 -3.3056 -4.5013
2 4 32 -8.3075 -1.3215
2 4 33 2.9988 3.5918
2 4 34 7.2949 0.9589
2 4 35 -2.8138 -2.8683
2 4 36 -6.2239 -0.7268
2 4 37 2.6878 2.2244
2 4 38 5.1628 0.5948
2 4 39 -2.5646 -1.5915
2 4 40 -4.1661 -0.5173
2 4 41 2.4143 0.9601
2 4 42 3.2649 0.4492
2 4 43 -2.2358 -0.3733
2 4 44 -2.4681 -0.3606
2 4 45 2.0433 -0.1003
2 4 46 1.7731 0.2448
2 4 47 -1.8478 0.4035
2 4 48 -1.1787 -0.1167
2 4 49 1.6449 -0.5190
2 4 50 0.6916 0.0025
2 4 51 -1.4156 0.4776
2 4 52 -0.3241 0.0747
2 4 53 1.1402 -0.3458
2 4 54 0.0840 -0.1054
2 6 0 18.1565 -0.0441
2 6 1 -12.1893 0.5151
2 6 2 -17.6213 -3.0588
2 6 3 11.2576 -1.7314
2 6 4 16.1637 5.9980
2 6 5 -9.4979 2.9405
2 6 6 -14.1064 -8.6142
2 6 7 7.1390 -4.0969
2 6 8 11.8680 10.7651
2 6 9 -4.4718 5.1294
2 6 10 -9.8382 -12.3356
2 6 11 1.7947 -5.9537
2 6 12 8.2721 13.2487
2 6 13 0.6397 6.4932
2 6 14 -7.2395 -13.4775
2 6 15 -2.6639 -6.6988
2 6 16 6.6393 13.0535
2 6 17 4.2085 6.5620
2 6 18 -6.2703 -12.0708
2 6 19 -5.2895 -6.1165
2 6 20 5.9232 10.6783
2 6 21 5.9752 5.4297
2 6 22 -5.4602 -9.0606
2 6 23 -6.3466 -4.5897
2 6 24 4.8531 7.4074
2 6 25 6.4659 3.6894
2 6 26 -4.1710 -5.8793
2 6 27 -6.3640 -2.8146
2 6 28 3.5315 4.5781
2 6 29 6.0486 2.0338
2 6 30 -3.0391 -3.5337
2 6 31 -5.5249 -1.3921
2 6 32 2.7396 2.7110
2 6 33 4.8175 0.9076
2 6 34 -2.6064 -2.0360
2 6 35 -3.9812 -0.5711
2 6 36 2.5605 1.4324
2 6 37 3.0959 0.3513
2 6 38 -2.5101 -0.8533
2 6 39 -2.2490 -0.2044
2 6 40 2.3887 0.2977
2 6 41 1.5136 0.0878
2 6 42 -2.1757 0.1945
2 6 43 -0.9329 0.0269
2 6 44 1.8927 -0.5658
2 6 45 0.5158 -0.1462
2 6 46 -1.5818 0.7715
2 6 47 -0.2444 0.2558
2 6 48 1.2798 -0.8029
2 6 49 0.0867 -0.3303
2 6 50 -1.0016 0.6941
2 6 51 -0.0093 0.3478
2 6 52 0.7413 -0.5094
2 8 0 -12.5517 -0.0497
2 8 1 -16.8700 -1.2004
2 8 2 12.1519 -0.7934
2 8 3 15.8306 3.5492
2 8 4 -10.9966 1.7327
2 8 5 -13.9882 -5.6716
2 8 6 9.2321 -2.8005
2 8 7 11.7327 7.4401
2 8 8 -7.0780 3.9513
2 8 9 -9.4932 -8.7623
2 8 10 4.7893 -5.0678
2 8 11 7.6171 9.5882
2 8 12 -2.6117 5.9959
2 8 13 -6.2850 -9.9128
2 8 14 0.7389 -6.5933
2 8 15 5.4870 9.7742
2 8 16 0.7158 6.7737
2 8 17 -5.0648 -9.2469
2 8 18 -1.7279 -6.5299
2 8 19 4.7953 8.4312
2 8 20 2.3458 5.9304
2 8 21 -4.4846 -7.4387
2 8 22 -2.6588 -5.0941
2 8 23 4.0345 6.3756
2 8 24 2.7601 4.1549
2 8 25 -3.4613 -5.3266
2 8 26 -2.7188 -3.2297
2 8 27 2.8662 4.3432
2 8 28 2.5697 2.3987
2 8 29 -2.3752 -3.4415
2 8 30 -2.3209 -1.7004
2 8 31 2.0765 2.6099
2 8 32 1.9743 1.1391
2 8 33 -1.9830 -1.8263
2 8 34 -1.5446 -0.6968
2 8 35 2.0308 1.0776
2 8 36 1.0697 0.3466
2 8 37 -2.1115 -0.3740
2 8 38 -0.6063 -0.0625
2 8 39 2.1190 -0.2474
2 8 40 0.2147 -0.1740
2 8 41 -1.9899 0.7345
2 8 42 0.0599 0.3701
2 8 43 1.7210 -1.0400
2 8 44 -0.1999 -0.5219
2 8 45 -1.3594 1.1440
2 8 46 0.2186 0.6167
2 8 47 0.9747 -1.0664
2 8 48 -0.1518 -0.6406
2 10 0 -13.8293 -0.0323
2 10 1 11.5623 -0.3154
2 10 2 13.3825 1.8506
2 10 3 -10.9288 0.9726
2 10 4 -12.1536 -3.5013
2 10 5 9.7382 -1.8184
2 10 6 10.4051 4.8503
2 10 7 -8.1314 2.8699
2 10 8 -8.4848 -5.8217
2 10 9 6.2971 -4.0350
2 10 10 6.7263 6.4061
2 10 11 -4.4442 5.1417
2 10 12 -5.3600 -6.6512
2 10 13 2.7669 -5.9979
2 10 14 4.4636 6.6386
2 10 15 -1.4108 6.4571
2 10 16 -3.9657 -6.4570
2 10 17 0.4493 -6.4648
2 10 18 3.6967 6.1778
2 10 19 0.1226 6.0678
2 10 20 -3.4665 -5.8414
2 10 21 -0.3743 -5.3881
2 10 22 3.1385 5.4550
2 10 23 0.4097 4.5753
2 10 24 -2.6731 -5.0006
2 10 25 -0.3343 -3.7589
2 10 26 2.1285 4.4502
2 10 27 0.2277 3.0178
2 10 28 -1.6211 -3.7815
2 10 29 -0.1318 -2.3750
2 10 30 1.2670 2.9925
2 10 31 0.0557 1.8144
2 10 32 -1.1288 -2.1101
2 10 33 0.0095 -1.3063
2 10 34 1.1895 1.1918
2 10 35 -0.0738 0.8303
2 10 36 -1.3620 -0.3182
2 10 37 0.1372 -0.3866
2 10 38 1.5268 -0.4221
2 10 39 -0.1886 -0.0059
2 10 40 -1.5799 0.9524
2 10 41 0.2119 0.3195
2 10 42 1.4695 -1.2286
2 10 43 -0.1959 -0.5306
2 10 44 -1.2087 1.2529
2 10 45 0.1405 0.6278
2 10 46 0.8610 -1.0753
2 12 0 9.7408 -0.0289
2 12 1 9.5373 0.6810
2 12 2 -9.5243 0.6020
2 12 3 -8.9435 -1.8808
2 12 4 8.8940 -1.3011
2 12 5 7.8817 2.8314
2 12 6 -7.9087 2.1859
2 12 7 -6.5559 -3.4466
2 12 8 6.6652 -3.2141
2 12 9 5.1999 3.7308
2 12 10 -5.2903 4.2505
2 12 11 -4.0155 -3.7687
2 12 12 3.9265 -5.1168
2 12 13 3.1230 3.6883
2 12 14 -2.7082 5.6588
2 12 15 -2.5394 -3.6132
2 12 16 1.7365 -5.8016
2 12 17 2.1895 3.6202
2 12 18 -1.0595 5.5715
2 12 19 -1.9466 -3.7175
2 12 20 0.6661 -5.0766
2 12 21 1.6869 3.8480
2 12 22 -0.4951 4.4587
2 12 23 -1.3381 -3.9148
2 12 24 0.4578 -3.8400
2 12 25 0.9037 3.8179
2 12 26 -0.4650 3.2865
2 12 27 -0.4548 -3.4892
2 12 28 0.4497 -2.8009
2 12 29 0.0951 2.9156
2 12 30 -0.3790 2.3447
2 12 31 0.0879 -2.1441
2 12 32 0.2526 -1.8729
2 12 33 -0.0614 1.2704
2 12 34 -0.0936 1.3660
2 12 35 -0.1367 -0.4152
2 12 36 -0.0665 -0.8436
2 12 37 0.4131 -0.3042
2 12 38 0.1989 0.3570
2 12 39 -0.6555 0.7994
2 12 40 -0.2856 0.0327
2 12 41 0.7751 -1.0298
2 12 42 0.3208 -0.2798
2 12 43 -0.7370 1.0084
2 12 44 -0.3094 0.3710
2 12 45 0.5664 -0.7962
2 14 0 6.3024 0.0009
2 14 1 -6.7586 0.3340
2 14 2 -6.1144 -0.8916
2 14 3 6.5439 -1.0427
2 14 4 5.5807 1.6062
2 14 5 -6.1194 1.8386
2 14 6 -4.7795 -2.0262
2 14 7 5.4997 -2.7065
2 14 8 3.8257 2.1294
2 14 9 -4.7177 3.5586
2 14 10 -2.8482 -1.9912
2 14 11 3.8304 -4.2637
2 14 12 1.9622 1.7509
2 14 13 -2.9146 4.6997
2 14 14 -1.2437 -1.5573
2 14 15 2.0545 -4.8038
2 14 16 0.7134 1.5138
2 14 17 -1.3230 4.5976
2 14 18 -0.3387 -1.6451
2 14 19 0.7649 -4.1763
2 14 20 0.0532 1.8943
2 14 21 -0.3877 3.6688
2 14 22 0.2113 -2.1502
2 14 23 0.1634 -3.1867
2 14 24 -0.4937 2.2915
2 14 25 -0.0409 2.7866
2 14 26 0.7857 -2.2300
2 14 27 -0.0373 -2.4607
2 14 28 -1.0369 1.9388
2 14 29 0.1182 2.1567
2 14 30 1.1790 -1.4570
2 14 31 -0.2278 -1.8157
2 14 32 -1.1608 0.8733
2 14 33 0.3671 1.4080
2 14 34 0.9755 -0.2964
2 14 35 -0.5171 -0.9512
2 14 36 -0.6695 -0.1755
2 14 37 0.6471 0.5038
2 14 38 0.3278 0.4781
2 14 39 -0.7259 -0.1392
2 14 40 -0.0418 -0.5909
2 16 0 -4.0784 -0.0097
2 16 1 -4.8037 -0.3864
2 16 2 4.0355 -0.7929
2 16 3 4.5704 1.0989
2 16 4 -3.9084 1.6006
2 16 5 -4.1120 -1.5749
2 16 6 3.6781 -2.3914
2 16 7 3.4587 1.7433
2 16 8 -3.3250 3.1026
2 16 9 -2.6663 -1.6295
2 16 10 2.8437 -3.6443
2 16 11 1.8155 1.3382
2 16 12 -2.2530 3.9323
2 16 13 -0.9982 -1.0083
2 16 14 1.5972 -3.9255
2 16 15 0.2958 0.7598
2 16 16 -0.9387 3.6488
2 16 17 0.2444 -0.6533
2 16 18 0.3433 -3.1886
2 16 19 -0.6197 0.6774
2 16 20 0.1353 2.6634
2 16 21 0.8662 -0.7645
2 16 22 -0.4679 -2.1815
2 16 23 -1.0359 0.8274
2 16 24 0.6540 1.8055
2 16 25 1.1696 -0.7981
2 16 26 -0.7193 -1.5381
2 16 27 -1.2776 0.6535
2 16 28 0.7054 1.3352
2 16 29 1.3383 -0.4201
2 16 30 -0.6572 -1.1361
2 16 31 -1.3148 0.1574
2 16 32 0.6109 0.8983
2 16 33 1.1804 0.0681
2 16 34 -0.5852 -0.6182
2 16 35 -0.9404 -0.2080
2 18 0 -3.9539 -0.0016
2 18 1 2.5713 -0.3962
2 18 2 3.8805 0.7497
2 18 3 -2.5158 1.1888
2 18 4 -3.6501 -1.3491
2 18 5 2.3965 -1.9257
2 18 6 3.2556 1.6966
2 18 7 -2.1939 2.5514
2 18 8 -2.7057 -1.7638
2 18 9 1.8920 -2.9994
2 18 10 2.0395 1.5979
2 18 11 -1.4889 3.2100
2 18 12 -1.3288 -1.2950
2 18 13 1.0035 -3.1551
2 18 14 0.6629 0.9606
2 18 15 -0.4758 2.8554
2 18 16 -0.1214 -0.6723
2 18 17 -0.0390 -2.3811
2 18 18 -0.2518 0.4599
2 18 19 0.4824 1.8338
2 18 20 0.4604 -0.3098
2 18 21 -0.8057 -1.3154
2 18 22 -0.5484 0.1856
2 18 23 0.9807 0.8983
2 18 24 0.5751 -0.0560
2 18 25 -1.0064 -0.6087
2 18 26 -0.5875 -0.0866
2 18 27 0.9079 0.4285
2 20 1 2.3608 0.2928
2 20 2 -1.5622 0.5892
2 20 3 -2.2784 -0.8028
2 20 4 1.4704 -1.1516
2 20 5 2.1025 1.1663
2 20 6 -1.3154 1.6300
2 20 7 -1.8248 -1.3345
2 20 8 1.0974 -1.9766
2 20 9 1.4562 1.3116
2 20 10 -0.8224 2.1492
2 20 11 -1.0361 -1.1457
2 20 12 0.5047 -2.1248
2 20 13 0.6274 0.9052
2 20 14 -0.1681 1.9121
3 1 0 11.6529 0.0497
3 1 1 -13.0119 -1.3237
3 1 2 -11.3992 1.9588
3 1 3 12.4882 3.7472
3 1 4 10.6599 -3.8231
3 1 5 -11.5542 -5.8322
3 1 6 -9.5509 5.4039
3 1 7 10.3468 7.4221
3 1 8 8.2240 -6.5984
3 1 9 -9.0083 -8.4388
3 1 10 -6.8194 7.3546
3 1 11 7.6476 8.8853
3 1 12 5.4297 -7.6750
3 1 13 -6.3208 -8.8298
3 1 14 -4.0893 7.6084
3 1 15 5.0368 8.3797
3 1 16 2.7904 -7.2328
3 1 17 -3.7820 -7.6524
3 1 18 -1.5156 6.6334
3 1 19 2.5498 6.7522
3 1 20 0.2702 -5.8842
3 1 21 -1.3616 -5.7601
3 1 22 0.9016 5.0376
3 1 23 0.2692 4.7342
3 1 24 -1.9233 -4.1275
3 1 25 0.6597 -3.7196
3 1 26 2.7107 3.1790
3 1 27 -1.3648 2.7576
3 1 28 -3.2018 -2.2223
3 1 29 1.8124 -1.8902
3 1 30 3.3776 1.3004
3 1 31 -2.0022 1.1563
3 1 32 -3.2663 -0.4677
3 1 33 1.9618 -0.5822
3 1 34 2.9296 -0.2209
3 1 35 -1.7324 0.1729
3 1 36 -2.4414 0.7245
3 1 37 1.3571 0.0906
3 1 38 1.8686 -1.0286
3 1 39 -0.8768 -0.2449
3 1 40 -1.2637 1.1482
3 1 41 0.3348 0.3319
3 1 42 0.6680 -1.1227
3 1 43 0.2160 -0.3844
3 1 44 -0.1208 1.0030
3 1 45 -0.7103 0.4177
3 1 46 -0.3343 -0.8379
3 1 47 1.0787 -0.4305
3 1 48 0.6537 0.6648
3 1 49 -1.2653 0.4136
3 1 50 -0.8055 -0.5061
3 1 53 -1.0481 0.2765
3 1 54 -0.6239 -0.2648
3 3 0 -12.0002 -0.0344
3 3 1 -8.4651 0.6299
3 3 2 11.7523 2.7582
3 3 3 8.0559 -1.8952
3 3 4 -11.0984 -5.2009
3 3 5 -7.2778 3.0792
3 3 6 10.1387 7.1395
3 3 7 6.2387 -4.1149
3 3 8 -8.9984 -8.4447
3 3 9 -5.0560 4.9407
3 3 10 7.7933 9.0928
3 3 11 3.8222 -5.5115
3 3 12 -6.6047 -9.1519
3 3 13 -2.5859 5.8098
3 3 14 5.4729 8.7476
3 3 15 1.3565 -5.8477
3 3 16 -4.4064 -8.0233
3 3 17 -0.1280 5.6605
3 3 18 3.4008 7.1075
3 3 19 -1.0914 -5.2912
3 3 20 -2.4563 -6.0974
3 3 21 2.2590 4.7762
3 3 22 1.5855 5.0601
3 3 23 -3.2972 -4.1374
3 3 24 -0.8111 -4.0447
3 3 25 4.1134 3.3862
3 3 26 0.1563 3.0967
3 3 27 -4.6302 -2.5366
3 3 28 0.3633 -2.2631
3 3 29 4.8133 1.6210
3 3 30 -0.7422 1.5875
3 3 31 -4.6827 -0.6985
3 3 32 0.9800 -1.0962
3 3 33 4.3047 -0.1495
3 3 34 -1.0760 0.7852
3 3 35 -3.7683 0.8369
3 3 36 1.0261 -0.6168
3 3 37 3.1588 -1.2964
3 3 38 -0.8295 0.5291
3 3 39 -2.5385 1.5006
3 3 40 0.5002 -0.4572
3 3 41 1.9429 -1.4699
3 3 42 -0.0780 0.3552
3 3 43 -1.3899 1.2661
3 3 44 -0.3689 -0.2111
3 3 45 0.8932 -0.9724
3 3 46 0.7559 0.0466
3 3 47 -0.4727 0.6698
3 3 48 -1.0040 0.0977
3 3 49 0.1531 -0.4169
3 3 50 1.0665 -0.1838
3 3 51 0.0458 0.2409
3 3 52 -0.9451 0.1945
3 3 53 -0.1225 -0.1396
3 5 2 5.7645 -0.5101
3 5 3 -9.3229 -3.7061
3 5 4 -5.3685 1.0787
3 5 5 8.5821 5.7537
3 5 6 4.7302 -1.7009
3 5 7 -7.6241 -7.2267
3 5 8 -3.8992 2.3491
3 5 9 6.5683 8.0608
3 5 10 2.9243 -2.9657
3 5 11 -5.5180 -8.2972
3 5 12 -1.8421 3.4833
3 5 13 4.5441 8.0521
3 5 14 0.6775 -3.8468
3 5 15 -3.6818 -7.4717
3 5 16 0.5467 4.0291
3 5 17 2.9387 6.6920
3 5 18 -1.7937 -4.0306
3 5 19 -2.3060 -5.8140
3 5 20 3.0021 3.8684
3 5 21 1.7672 4.9010
3 5 22 -4.0868 -3.5609
3 5 23 -1.3028 -3.9924
3 5 24 4.9533 3.1192
3 5 25 0.8910 3.1234
3 5 26 -5.5219 -2.5501
3 5 27 -0.5108 -2.3376
3 5 28 5.7513 1.8689
3 5 29 0.1480 1.6845
3 5 30 -5.6514 -1.1141
3 5 31 0.1963 -1.2055
3 5 32 5.2804 0.3533
3 5 33 -0.5000 0.9136
3 5 34 -4.7260 0.3246
3 5 35 0.7216 -0.7823
3 5 36 4.0806 -0.8320
3 5 37 -0.8143 0.7489
3 5 38 -3.4181 1.1094
3 5 39 0.7465 -0.7344
3 5 40 2.7835 -1.1455
3 5 41 -0.5217 0.6717
3 5 42 -2.1956 0.9817
3 5 43 0.1867 -0.5299
3 5 44 1.6592 -0.6990
3 5 45 0.1767 0.3224
3 5 46 -1.1789 0.3907
3 5 47 -0.4760 -0.0973
3 5 48 0.7664 -0.1349
3 5 49 0.6393 -0.0866
3 5 50 -0.4388 -0.0264
3 5 51 -0.6397 0.1863
3 7 0 7.3362 -0.0684
3 7 1 4.5282 0.0279
3 7 2 -7.1387 -1.9681
3 7 3 -4.3961 0.0270
3 7 4 6.6062 3.7808
3 7 5 4.0927 -0.2239
3 7 6 -5.8325 -5.1926
3 7 7 -3.5927 0.5912
3 7 8 4.9391 6.1085
3 7 9 2.8766 -1.0928
3 7 10 -4.0436 -6.5245
3 7 11 -1.9420 1.6445
3 7 12 3.2344 6.5110
3 7 13 0.8114 -2.1476
3 7 14 -2.5593 -6.1790
3 7 15 0.4626 2.5221
3 7 16 2.0273 5.6428
3 7 17 -1.7996 -2.7282
3 7 18 -1.6201 -4.9930
3 7 19 3.0981 2.7663
3 7 20 1.3045 4.2872
3 7 21 -4.2495 -2.6618
3 7 22 -1.0423 -3.5585
3 7 23 5.1550 2.4442
3 7 24 0.7957 2.8330
3 7 25 -5.7434 -2.1341
3 7 26 -0.5322 -2.1453
3 7 27 5.9843 1.7426
3 7 28 0.2308 1.5416
3 7 29 -5.8931 -1.2832
3 7 30 0.1095 -1.0694
3 7 31 5.5252 0.7848
3 7 32 -0.4637 0.7582
3 7 33 -4.9616 -0.2979
3 7 34 0.7810 -0.6028
3 7 35 4.2895 -0.1133
3 7 36 -0.9969 0.5591
3 7 37 -3.5841 0.3898
3 7 38 1.0550 -0.5566
3 7 39 2.8981 -0.4997
3 7 40 -0.9309 0.5241
3 7 41 -2.2610 0.4521
3 7 42 0.6473 -0.4166
3 7 43 1.6851 -0.2950
3 7 44 -0.2728 0.2318
3 7 45 -1.1766 0.0991
3 7 46 -0.0977 -0.0080
3 7 47 0.7429 0.0676
3 7 48 0.3741 -0.1947
3 7 49 -0.3946 -0.1617
3 9 0 3.7632 0.0040
3 9 1 -3.9379 -0.6722
3 9 2 -3.7507 -0.0737
3 9 3 3.6413 1.9781
3 9 4 3.6612 0.0348
3 9 5 -3.1210 -3.1027
3 9 6 -3.4233 0.1770
3 9 7 2.4954 3.9613
3 9 8 2.9555 -0.5579
3 9 9 -1.8883 -4.5131
3 9 10 -2.2005 1.0401
3 9 11 1.3915 4.7601
3 9 12 1.1536 -1.5204
3 9 13 -1.0435 -4.7370
3 9 14 0.1266 1.8996
3 9 15 0.8287 4.4957
3 9 16 -1.5264 -2.1163
3 9 17 -0.6961 -4.0908
3 9 18 2.9006 2.1601
3 9 19 0.5840 3.5710
3 9 20 -4.1040 -2.0635
3 9 21 -0.4416 -2.9792
3 9 22 5.0204 1.8774
3 9 23 0.2401 2.3571
3 9 24 -5.5825 -1.6471
3 9 25 0.0268 -1.7502
3 9 26 5.7774 1.3968
3 9 27 -0.3475 1.2082
3 9 28 -5.6412 -1.1317
3 9 29 0.6970 -0.7762
3 9 30 5.2436 0.8498
3 9 31 -1.0388 0.4820
3 9 32 -4.6694 -0.5581
3 9 33 1.3262 -0.3243
3 9 34 4.0010 0.2793
3 9 35 -1.5073 0.2686
3 9 36 -3.3066 -0.0478
3 9 37 1.5361 -0.2567
3 9 38 2.6340 -0.1043
3 9 39 -1.3892 0.2269
3 9 40 -2.0122 0.1629
3 9 41 1.0798 -0.1369
3 9 42 1.4565 -0.1398
3 9 43 -0.6621 -0.0199
3 9 44 -0.9753 0.0696
3 9 45 0.2206 0.2123
3 9 46 0.5756 0.0043
3 9 47 0.1537 -0.3863
3 11 0 -0.3646 -0.0436
3 11 1 -3.2706 0.0904
3 11 2 0.2447 0.8011
3 11 3 3.2938 -0.2612
3 11 4 0.0785 -1.5414
3 11 5 -3.2581 0.5125
3 11 6 -0.4888 2.2399
3 11 7 3.0481 -0.8526
3 11 8 0.8451 -2.8561
3 11 9 -2.5550 1.2426
3 11 10 -1.0360 3.3366
3 11 11 1.7242 -1.6114
3 11 12 1.0197 -3.6271
3 11 13 -0.5820 1.8837
3 11 14 -0.8339 3.6875
3 11 15 -0.7633 -2.0096
3 11 16 0.5742 -3.5057
3 11 17 2.1486 1.9808
3 11 18 -0.3531 3.1049
3 11 19 -3.3973 -1.8288
3 11 20 0.2586 -2.5417
3 11 21 4.3628 1.6069
3 11 22 -0.3279 1.8969
3 11 23 -4.9579 -1.3664
3 11 24 0.5442 -1.2594
3 11 25 5.1657 1.1380
3 11 26 -0.8523 0.7095
3 11 27 -5.0306 -0.9267
3 11 28 1.1827 -0.3029
3 11 29 4.6366 0.7202
3 11 30 -1.4711 0.0603
3 11 31 -4.0818 -0.5050
3 11 32 1.6696 0.0356
3 11 33 3.4564 0.2802
3 11 34 -1.7479 -0.0329
3 11 35 -2.8294 -0.0624
3 11 36 1.6912 -0.0037
3 11 37 2.2444 -0.1207
3 11 38 -1.5001 0.0139
3 11 39 -1.7232 0.2430
3 11 40 1.1934 0.0390
3 11 41 1.2727 -0.2931
3 11 42 -0.8110 -0.1573
3 11 43 -0.8926 0.2796
3 11 44 0.4115 0.3093
3 13 0 -3.2100 0.0030
3 13 1 -1.1022 0.2138
3 13 2 3.2537 -0.3424
3 13 3 1.3735 -0.6205
3 13 4 -3.3346 0.6729
3 13 5 -1.8094 1.1186
3 13 6 3.3443 -0.9804
3 13 7 2.2372 -1.7092
3 13 8 -3.1522 1.2417
3 13 9 -2.4887 2.3280
3 13 10 2.6569 -1.4300
3 13 11 2.4651 -2.8620
3 13 12 -1.8285 1.5245
3 13 13 -2.1707 3.1882
3 13 14 0.7251 -1.5207
3 13 15 1.7041 -3.2163
3 13 16 0.5207 1.4342
3 13 17 -1.2132 2.9215
3 13 18 -1.7375 -1.2964
3 13 19 0.8361 -2.3548
3 13 20 2.7613 1.1423
3 13 21 -0.6535 1.6279
3 13 22 -3.4740 -0.9972
3 13 23 0.6689 -0.8808
3 13 24 3.8254 0.8676
3 13 25 -0.8216 0.2428
3 13 26 -3.8335 -0.7412
3 13 27 1.0200 0.1991
3 13 28 3.5684 0.5966
3 13 29 -1.1793 -0.4172
3 13 30 -3.1265 -0.4170
3 13 31 1.2463 0.4411
3 13 32 2.6058 0.2022
3 13 33 -1.2060 -0.3409
3 13 34 -2.0865 0.0276
3 13 35 1.0729 0.2010
3 13 36 1.6215 -0.2372
3 13 37 -0.8757 -0.0943
3 13 38 -1.2360 0.3898
3 15 0 0.2713 -0.0179
3 15 1 3.2398 -0.1590
3 15 2 -0.0704 -0.1503
3 15 3 -3.3202 0.4743
3 15 4 -0.4639 0.4329
3 15 5 3.4180 -0.6971
3 15 6 1.1528 -0.8878
3 15 7 -3.4280 0.7938
3 15 8 -1.7748 1.4844
3 15 9 3.2444 -0.7639
3 15 10 2.1471 -2.1087
3 15 11 -2.8008 0.6382
3 15 12 -2.1870 2.6023
3 15 13 2.0954 -0.4695
3 15 14 1.9300 -2.8212
3 15 15 -1.1956 0.3156
3 15 16 -1.5010 2.6879
3 15 17 0.2191 -0.2224
3 15 18 1.0556 -2.2198
3 15 19 0.6980 0.2099
3 15 20 -0.7179 1.5221
3 15 21 -1.4355 -0.2672
3 15 22 0.5411 -0.7524
3 15 23 1.9158 0.3575
3 15 24 -0.5026 0.0702
3 15 25 -2.1155 -0.4313
3 15 26 0.5314 0.4085
3 15 27 2.0627 0.4445
3 15 28 -0.5482 -0.6375
3 15 29 -1.8226 -0.3733
3 15 30 0.5007 0.6413
3 15 31 1.4777 0.2231
3 17 0 2.7269 -0.0082
3 17 1 -1.7463 0.0373
3 17 2 -2.7438 0.2663
3 17 3 1.3251 0.0156
3 17 4 2.7876 -0.4283
3 17 5 -0.6075 -0.2321
3 17 6 -2.8116 0.4329
3 17 7 -0.1993 0.6331
3 17 8 2.7560 -0.2731
3 17 9 0.8822 -1.1492
3 17 10 -2.5703 -0.0027
3 17 11 -1.2928 1.6456
3 17 12 2.2318 0.3082
3 17 13 1.3886 -1.9732
3 17 14 -1.7547 -0.5497
3 17 15 -1.2297 2.0256
3 17 16 1.1877 0.6572
3 17 17 0.9383 -1.7785
3 17 18 -0.6015 -0.6059
3 17 19 -0.6418 1.2959
3 17 20 0.0717 0.4214
3 17 21 0.4245 -0.7046
3 17 22 0.3386 -0.1672
3 17 23 -0.3073 0.1486
3 17 24 -0.5910 -0.0788
3 17 25 0.2576 0.2582
3 17 26 0.6780 0.2502
3 17 27 -0.2203 -0.4617
3 19 0 -1.4909 0.0121
4 0 0 -8.6336 0.0146
4 0 1 -0.0182 1.2362
4 0 2 8.6260 -0.0098
4 0 3 0.0475 -3.6155
4 0 4 -8.5950 -0.0013
4 0 5 -0.0754 5.7105
4 0 6 8.5307 0.0146
4 0 7 0.1020 -7.3922
4 0 8 -8.4164 -0.0257
4 0 9 -0.1270 8.5982
4 0 10 8.2296 0.0312
4 0 11 0.1496 -9.3211
4 0 12 -7.9463 -0.0299
4 0 13 -0.1679 9.5838
4 0 14 7.5485 0.0229
4 0 15 0.1799 -9.4147
4 0 16 -7.0309 -0.0128
4 0 17 -0.1837 8.8395
4 0 18 6.4052 0.0026
4 0 19 0.1784 -7.8896
4 0 20 -5.6973 0.0054
4 0 21 -0.1652 6.6218
4 0 22 4.9386 -0.0101
4 0 23 0.1469 -5.1328
4 0 24 -4.1557 0.0121
4 0 25 -0.1272 3.5564
4 0 26 3.3623 -0.0126
4 0 27 0.1094 -2.0394
4 0 28 -2.5588 0.0128
4 0 29 -0.0958 0.7045
4 0 30 1.7391 -0.0136
4 0 31 0.0863 0.3814
4 0 32 -0.9017 0.0147
4 0 33 -0.0791 -1.2189
4 0 34 0.0600 -0.0154
4 0 35 0.0715 1.8593
4 0 36 0.7530 0.0148
4 0 37 -0.0613 -2.3676
4 0 38 -1.4877 -0.0124
4 0 39 0.0474 2.7823
4 0 40 2.0884 0.0083
4 0 41 -0.0306 -3.0927
4 0 42 -2.5057 -0.0035
4 0 43 0.0129 3.2449
4 0 44 2.7077 -0.0010
4 0 45 0.0027 -3.1734
4 0 46 -2.6870 0.0039
4 0 47 -0.0140 2.8442
4 0 48 2.4629 -0.0051
4 0 49 0.0196 -2.2849
4 0 50 -2.0779 0.0046
4 0 52 1.5922 -0.0032
4 2 0 -2.9463 -0.0248
4 2 1 7.5091 0.2919
4 2 2 2.9418 -2.3695
4 2 3 -7.5296 -0.8634
4 2 4 -2.8883 4.5805
4 2 5 7.5529 1.3132
4 2 6 2.7904 -6.4560
4 2 7 -7.5463 -1.5919
4 2 8 -2.6579 7.9002
4 2 9 7.4698 1.6958
4 2 10 2.5064 -8.8752
4 2 11 -7.2847 -1.6630
4 2 12 -2.3522 9.3831
4 2 13 6.9654 1.5564
4 2 14 2.2048 -9.4437
4 2 15 -6.5081 -1.4393
4 2 16 -2.0586 9.0793
4 2 17 5.9335 1.3536
4 2 18 1.8893 -8.3161
4 2 19 -5.2816 -1.3081
4 2 20 -1.6600 7.1987
4 2 21 4.5988 1.2810
4 2 22 1.3359 -5.8066
4 2 23 -3.9219 -1.2340
4 2 24 -0.9028 4.2588
4 2 25 3.2664 1.1319
4 2 26 0.3823 -2.6991
4 2 27 -2.6240 -0.9588
4 2 28 0.1647 1.2650
4 2 29 1.9705 0.7262
4 2 30 -0.6505 -0.0526
4 2 31 -1.2822 -0.4684
4 2 32 0.9855 -0.9046
4 2 33 0.5526 0.2293
4 2 34 -1.1069 1.6323
4 2 35 0.1975 -0.0471
4 2 36 1.0012 -2.1888
4 2 37 -0.9204 -0.0583
4 2 38 -0.7106 2.6256
4 2 39 1.5519 0.0891
4 2 40 0.3204 -2.9574
4 2 41 -2.0288 -0.0651
4 2 42 0.0675 3.1539
4 2 43 2.3048 0.0138
4 2 44 -0.3655 -3.1597
4 2 45 -2.3621 0.0401
4 2 46 0.5240 2.9309
4 2 47 2.2141 -0.0809
4 2 48 -0.5404 -2.4704
4 2 49 -1.9013 0.1033
4 4 0 5.0282 -0.0193
4 4 1 3.3999 -1.0916
4 4 2 -5.0860 -1.1045
4 4 3 -3.4014 3.2309
4 4 4 5.2368 2.0903
4 4 5 3.3889 -5.1455
4 4 6 -5.4226 -2.8267
4 4 7 -3.3421 6.7222
4 4 8 5.5652 3.2665
4 4 9 3.2495 -7.8931
4 4 10 -5.5883 -3.4319
4 4 11 -3.1160 8.6296
4 4 12 5.4401 3.3984
4 4 13 2.9591 -8.9285
4 4 14 -5.1097 -3.2619
4 4 15 -2.7944 8.7994
4 4 16 4.6317 3.1027
4 4 17 2.6178 -8.2608
4 4 18 -4.0755 -2.9597
4 4 19 -2.3967 7.3490
4 4 20 3.5221 2.8239
4 4 21 2.0773 -6.1293
4 4 22 -3.0362 -2.6523
4 4 23 -1.6086 4.7034
4 4 24 2.6439 2.3945
4 4 25 0.9738 -3.2012
4 4 26 -2.3254 -2.0219
4 4 27 -0.2135 1.7578
4 4 28 2.0252 1.5455
4 4 29 -0.5720 -0.4838
4 4 30 -1.6767 -1.0161
4 4 31 1.2458 -0.5592
4 4 32 1.2321 0.5085
4 4 33 -1.6767 1.3643
4 4 34 -0.6838 -0.0953
4 4 35 1.7840 -1.9649
4 4 36 0.0715 -0.1765
4 4 37 -1.5680 2.4057
4 4 38 0.5298 0.2979
4 4 39 1.1113 -2.7133
4 4 40 -1.0335 -0.2960
4 4 41 -0.5518 2.8826
4 4 42 1.3680 0.2186
4 4 43 0.0372 -2.8843
4 4 44 -1.4974 -0.1156
4 4 45 0.3210 2.6897
4 4 46 1.4283 0.0233
4 4 47 -0.4762 -2.3002
4 4 48 -1.2040 0.0416
4 4 50 0.8899 -0.0783
4 6 0 2.1354 -0.0079
4 6 1 -3.1008 -0.6574
4 6 2 -2.1925 1.8980
4 6 3 3.2683 1.9849
4 6 4 2.3561 -3.6609
4 6 5 -3.5492 -3.1100
4 6 6 -2.5579 5.1841
4 6 7 3.8558 3.9438
4 6 8 2.7197 -6.3859
4 6 9 -4.0892 -4.4608
4 6 10 -2.7882 7.2186
4 6 11 4.1683 4.6955
4 6 12 2.7551 -7.6629
4 6 13 -4.0549 -4.7202
4 6 14 -2.6515 7.7192
4 6 15 3.7654 4.6146
4 6 16 2.5211 -7.4022
4 6 17 -3.3663 -4.4356
4 6 18 -2.3870 6.7429
4 6 19 2.9508 4.2024
4 6 20 2.2305 -5.7937
4 6 21 -2.6066 -3.8986
4 6 22 -1.9953 4.6331
4 6 23 2.3840 3.4917
4 6 24 1.6163 -3.3624
4 6 25 -2.2783 -2.9600
4 6 26 -1.0594 2.0916
4 6 27 2.2328 2.3145
4 6 28 0.3531 -0.9196
4 6 29 -2.1615 -1.6064
4 6 30 0.4061 -0.0847
4 6 31 1.9841 0.9167
4 6 32 -1.0792 0.8915
4 6 33 -1.6578 -0.3317
4 6 34 1.5320 -1.5046
4 6 35 1.1947 -0.0848
4 6 36 -1.6835 1.9440
4 6 37 -0.6580 0.3107
4 6 38 1.5358 -2.2272
4 6 39 0.1396 -0.3691
4 6 40 -1.1717 2.3566
4 6 41 0.2717 0.3151
4 6 42 0.7223 -2.3227
4 6 43 -0.5176 -0.2134
4 6 44 -0.3194 2.1188
4 6 45 0.5854 0.1163
4 6 46 0.0521 -1.7605
4 6 47 -0.5055 -0.0504
4 6 48 0.0552 1.2969
4 6 49 0.3366 0.0172
4 8 0 -2.5003 0.0487
4 8 1 -1.3628 0.8105
4 8 2 2.5785 1.2112
4 8 3 1.5790 -2.3510
4 8 4 -2.7888 -2.3783
4 8 5 -1.9360 3.7190
4 8 6 3.0789 3.3689
4 8 7 2.3046 -4.8263
4 8 8 -3.3755 -4.1286
4 8 9 -2.5645 5.6178
4 8 10 3.6016 4.6388
4 8 11 2.6527 -6.0721
4 8 12 -3.6972 -4.9139
4 8 13 -2.5834 6.1948
4 8 14 3.6363 4.9896
4 8 15 2.4294 -6.0095
4 8 16 -3.4351 -4.9068
4 8 17 -2.2776 5.5530
4 8 18 3.1465 4.6971
4 8 19 2.1792 -4.8721
4 8 20 -2.8416 -4.3755
4 8 21 -2.1216 4.0245
4 8 22 2.5846 3.9444
4 8 23 2.0342 -3.0773
4 8 24 -2.4090 -3.4054
4 8 25 -1.8256 2.1023
4 8 26 2.3061 2.7751
4 8 27 1.4330 -1.1670
4 8 28 -2.2307 -2.0939
4 8 29 -0.8607 0.3253
4 8 30 2.1212 1.4253
4 8 31 0.1885 0.3883
4 8 32 -1.9263 -0.8408
4 8 33 0.4548 -0.9575
4 8 34 1.6271 0.3997
4 8 35 -0.9390 1.3768
4 8 36 -1.2449 -0.1290
4 8 37 1.1809 -1.6429
4 8 38 0.8331 0.0152
4 8 39 -1.1715 1.7498
4 8 40 -0.4567 -0.0109
4 8 41 0.9734 -1.6928
4 8 42 0.1686 0.0530
4 8 43 -0.6891 1.4781
4 8 44 0.0058 -0.0862
4 8 45 0.4198 -1.1346
4 8 46 -0.0734 0.0804
4 8 47 -0.2300 0.7189
4 10 0 -1.2509 -0.0025
4 10 1 2.1327 0.4500
4 10 2 1.3695 -1.3714
4 10 3 -2.2245 -1.3675
4 10 4 -1.6814 2.6221
4 10 5 2.4006 2.2342
4 10 6 2.0659 -3.6479
4 10 7 -2.6428 -3.0087
4 10 8 -2.3805 4.3842
4 10 9 2.9164 3.6474
4 10 10 2.5218 -4.8089
4 10 11 -3.1699 -4.1133
4 10 12 -2.4660 4.9368
4 10 13 3.3438 4.3844
4 10 14 2.2714 -4.8066
4 10 15 -3.3865 -4.4597
4 10 16 -2.0437 4.4675
4 10 17 3.2711 4.3570
4 10 18 1.8807 -3.9692
4 10 19 -3.0060 -4.1061
4 10 20 -1.8236 3.3573
4 10 21 2.6330 3.7400
4 10 22 1.8381 -2.6731
4 10 23 -2.2137 -3.2895
4 10 24 -1.8321 1.9555
4 10 25 1.8095 2.7836
4 10 26 1.7019 -1.2416
4 10 27 -1.4632 -2.2535
4 10 28 -1.3840 0.5662
4 10 29 1.1908 1.7367
4 10 30 0.8878 0.0399
4 10 31 -0.9834 -1.2752
4 10 32 -0.2960 -0.5505
4 10 33 0.8189 0.9076
4 10 34 -0.2670 0.9433
4 10 35 -0.6749 -0.6565
4 10 36 0.6838 -1.1992
4 10 37 0.5380 0.5188
4 10 38 -0.8860 1.3037
4 10 39 -0.4057 -0.4643
4 10 40 0.8747 -1.2511
4 10 41 0.2827 0.4451
4 10 42 -0.7106 1.0525
4 10 43 -0.1753 -0.4129
4 10 44 0.4827 -0.7419
4 12 0 0.6180 0.0206
4 12 1 0.7848 -0.6058
4 12 2 -0.6451 -0.6769
4 12 3 -0.9426 1.7488
4 12 4 0.7397 1.3446
4 12 5 1.1925 -2.7166
4 12 6 -0.9269 -2.0178
4 12 7 -1.4305 3.4332
4 12 8 1.2223 2.6612
4 12 9 1.5617 -3.8697
4 12 10 -1.6089 -3.2166
4 12 11 -1.5414 4.0405
4 12 12 2.0260 3.6217
4 12 13 1.3916 -3.9895
4 12 14 -2.3782 -3.8319
4 12 15 -1.1862 3.7703
4 12 16 2.5638 3.8361
4 12 17 1.0127 -3.4304
4 12 18 -2.5098 -3.6575
4 12 19 -0.9280 3.0037
4 12 20 2.2000 3.3435
4 12 21 0.9311 -2.5117
4 12 22 -1.6828 -2.9478
4 12 23 -0.9644 1.9700
4 12 24 1.0580 2.5168
4 12 25 0.9421 -1.3975
4 12 26 -0.4459 -2.0835
4 12 27 -0.7929 0.8202
4 12 28 -0.0482 1.6706
4 12 29 0.4957 -0.2716
4 12 30 0.3601 -1.2971
4 12 31 -0.0929 -0.2115
4 12 32 -0.4784 0.9817
4 12 33 -0.3254 0.5947
4 12 34 0.4376 -0.7410
4 12 35 0.6571 -0.8515
4 12 36 -0.3004 0.5819
4 12 37 -0.8282 0.9669
4 12 38 0.1354 -0.4948
4 12 39 0.8189 -0.9407
4 14 0 -0.1235 -0.0176
4 14 1 1.1854 -0.2808
4 14 2 0.0935 0.9052
4 14 3 -1.1407 0.8096
4 14 4 -0.0154 -1.6932
4 14 5 1.0145 -1.3721
4 14 6 -0.0709 2.3089
4 14 7 -0.7578 1.9556
4 14 8 0.1213 -2.7200
4 14 9 0.3456 -2.5097
4 14 10 -0.1095 2.9361
4 14 11 0.1937 2.9620
4 14 12 0.0398 -2.9948
4 14 13 -0.7714 -3.2454
4 14 14 0.0550 2.9408
4 14 15 1.2592 3.3231
4 14 16 -0.1312 -2.8078
4 14 17 -1.5317 -3.2005
4 14 18 0.1573 2.6091
4 14 19 1.5109 2.9204
4 14 20 -0.1314 -2.3414
4 14 21 -1.1966 -2.5436
4 14 22 0.0842 1.9970
4 14 23 0.6687 2.1280
4 14 24 -0.0646 -1.5780
4 14 25 -0.0614 -1.7143
4 14 26 0.1159 1.1055
4 14 27 -0.4797 1.3237
4 14 28 -0.2523 -0.6198
4 14 29 0.8415 -0.9665
4 14 30 0.4487 0.1711
4 14 31 -0.9728 0.6520
4 14 32 -0.6481 0.1931
4 14 33 0.8902 -0.3938
4 14 34 0.7844 -0.4400
4 16 0 1.4863 -0.0132
4 16 1 0.4449 0.2487
4 16 2 -1.4874 0.4179
4 16 3 -0.4759 -0.6907
4 16 4 1.4697 -0.8433
4 16 5 0.5330 1.0489
4 16 6 -1.3765 1.2928
4 16 7 -0.6080 -1.3002
4 16 8 1.1505 -1.7371
4 16 9 0.6877 1.4539
4 16 10 -0.7713 2.1208
4 16 11 -0.7549 -1.5419
4 16 12 0.2775 -2.3825
4 16 13 0.7924 1.5991
4 16 14 0.2372 2.4792
4 16 15 -0.7883 -1.6451
4 16 16 -0.6539 -2.4034
4 16 17 0.7417 1.6741
4 16 18 0.8717 2.1835
4 16 19 -0.6649 -1.6585
4 16 20 -0.8457 -1.8706
4 16 21 0.5806 1.5651
4 16 22 0.6038 1.5182
4 16 23 -0.5146 -1.3734
4 16 24 -0.2363 -1.1659
4 16 25 0.4845 1.0902
4 16 26 -0.1375 0.8340
4 18 0 0.0817 -0.0065
4 18 1 -0.3429 0.1379
4 18 2 -0.1204 -0.1069
4 18 3 0.4078 -0.3844
4 18 4 0.2271 0.1908
4 18 5 -0.4957 0.6383
4 18 6 -0.3732 -0.2323
4 18 7 0.5418 -0.8875
4 18 8 0.5215 0.2417
4 18 9 -0.4911 1.1026
4 18 10 -0.6379 -0.2476
4 18 11 0.3265 -1.2474
4 18 12 0.7006 0.2822
4 18 13 -0.0794 1.2944
5 1 0 -9.6168 -0.0194
5 1 1 9.4184 -0.1424
5 1 2 9.4518 0.4066
5 1 3 -9.1043 0.4084
5 1 4 -8.9630 -0.6832
5 1 5 8.5248 -0.5636
5 1 6 8.2267 0.7830
5 1 7 -7.7542 0.5825
5 1 8 -7.3399 -0.7091
5 1 9 6.8682 -0.4923
5 1 10 6.3863 0.5315
5 1 11 -5.9208 0.3623
5 1 12 -5.4141 -0.3578
5 1 13 4.9373 -0.2777
5 1 14 4.4343 0.2911
5 1 15 -3.9236 0.3078
5 1 16 -3.4377 -0.3903
5 1 17 2.8868 -0.4811
5 1 18 2.4206 0.6497
5 1 19 -1.8537 0.7750
5 1 20 -1.4048 -1.0046
5 1 21 0.8773 -1.1250
5 1 22 0.4405 1.3579
5 1 23 -0.0254 1.4475
5 1 24 0.4079 -1.6164
5 1 25 -0.6417 -1.6680
5 1 26 -1.0864 1.7220
5 1 27 1.0940 1.7440
5 1 28 1.5713 -1.6670
5 1 29 -1.3430 -1.6756
5 1 30 -1.8748 1.4896
5 1 31 1.4352 1.5012
5 1 32 2.0335 -1.2543
5 1 33 -1.4307 -1.2800
5 1 34 -2.0864 1.0263
5 1 35 1.3785 1.0703
5 1 36 2.0552 -0.8497
5 1 37 -1.3001 -0.9109
5 1 38 -1.9378 0.7376
5 1 39 1.1900 0.8107
5 1 40 1.7190 -0.6745
5 1 41 -1.0300 -0.7514
5 1 42 -1.3917 0.6279
5 1 43 0.8107 0.6992
5 1 44 0.9768 -0.5651
5 1 45 -0.5472 -0.6215
5 1 46 -0.5293 0.4657
5 1 47 0.2790 0.5012
5 1 48 0.1260 -0.3285
5 3 0 8.9034 -0.0114
5 3 1 9.5038 0.2505
5 3 2 -8.7542 0.1710
5 3 3 -9.0852 -0.6626
5 3 4 8.3223 -0.3071
5 3 5 8.3145 0.9139
5 3 6 -7.6613 0.4091
5 3 7 -7.3192 -0.9724
5 3 8 6.8393 -0.4812
5 3 9 6.2358 0.8836
5 3 10 -5.9176 0.5424
5 3 11 -5.1687 -0.7490
5 3 12 4.9377 -0.6212
5 3 13 4.1680 0.6812
5 3 14 -3.9227 0.7455
5 3 15 -3.2335 -0.7568
5 3 16 2.8906 -0.9313
5 3 17 2.3386 0.9854
5 3 18 -1.8710 1.1739
5 3 19 -1.4611 -1.3085
5 3 20 0.9138 -1.4450
5 3 21 0.6052 1.6254
5 3 22 -0.0855 1.6975
5 3 23 0.1953 -1.8344
5 3 24 -0.5488 -1.8778
5 3 25 -0.8916 1.8701
5 3 26 0.9477 1.9416
5 3 27 1.4410 -1.7243
5 3 28 -1.1103 -1.8685
5 3 29 -1.8245 1.4416
5 3 30 1.0781 1.6697
5 3 31 2.0493 -1.0979
5 3 32 -0.9219 -1.3861
5 3 33 -2.1381 0.7698
5 3 34 0.7177 1.0759
5 3 35 2.1126 -0.5106
5 3 36 -0.5246 -0.7966
5 3 37 -1.9821 0.3392
5 3 38 0.3719 0.5875
5 3 39 1.7444 -0.2433
5 3 40 -0.2609 -0.4590
5 3 41 -1.3999 0.1934
5 3 42 0.1772 0.3935
5 3 43 0.9686 -0.1578
5 3 44 -0.1060 -0.3565
5 3 45 -0.4998 0.1151
5 3 46 0.0427 0.3131
5 3 47 0.0664 -0.0579
5 5 0 8.9293 -0.0069
5 5 1 -7.1600 0.0555
5 5 2 -8.6615 -0.4668
5 5 3 6.9440 -0.0837
5 5 4 7.8991 0.8220
5 5 5 -6.5301 0.1759
5 5 6 -6.7809 -0.9892
5 5 7 5.9558 -0.3542
5 5 8 5.4909 0.9789
5 5 9 -5.2599 0.6133
5 5 10 -4.2045 -0.8737
5 5 11 4.4720 -0.9249
5 5 12 3.0449 0.7896
5 5 13 -3.6114 1.2509
5 5 14 -2.0638 -0.8227
5 5 15 2.6958 -1.5560
5 5 16 1.2510 1.0073
5 5 17 -1.7542 1.8159
5 5 18 -0.5632 -1.3027
5 5 19 0.8364 -2.0179
5 5 20 -0.0423 1.6121
5 5 21 -0.0115 2.1542
5 5 22 0.5852 -1.8254
5 5 23 -0.6453 -2.2155
5 5 24 -1.0569 1.8629
5 5 25 1.0744 2.1884
5 5 26 1.4326 -1.7039
5 5 27 -1.2515 -2.0596
5 5 28 -1.6888 1.3885
5 5 29 1.1970 1.8257
5 5 30 1.8168 -0.9962
5 5 31 -0.9717 -1.5024
5 5 32 -1.8254 0.6121
5 5 33 0.6586 1.1272
5 5 34 1.7339 -0.2986
5 5 35 -0.3400 -0.7533
5 5 36 -1.5614 0.0806
5 5 37 0.0774 0.4340
5 5 38 1.3208 0.0503
5 5 39 0.0981 -0.2061
5 5 40 -1.0222 -0.1209
5 5 41 -0.1845 0.0789
5 5 42 0.6817 0.1586
5 5 43 0.1989 -0.0330
5 5 44 -0.3300 -0.1802
5 5 45 -0.1664 0.0314
5 5 46 0.0132 0.1899
5 7 0 -4.2165 0.0787
5 7 1 -7.3398 -0.1472
5 7 2 4.1958 -0.0095
5 7 3 6.7620 0.4371
5 7 4 -4.1247 0.0306
5 7 5 -5.7066 -0.5656
5 7 6 3.9983 -0.2056
5 7 7 4.3492 0.5053
5 7 8 -3.8058 0.5420
5 7 9 -2.8920 -0.3159
5 7 10 3.5279 -0.9908
5 7 11 1.5140 0.1158
5 7 12 -3.1420 1.4690
5 7 13 -0.3358 -0.0284
5 7 14 2.6319 -1.8903
5 7 15 -0.5913 0.1269
5 7 16 -2.0021 2.1944
5 7 17 1.2743 -0.4042
5 7 18 1.2876 -2.3604
5 7 19 -1.7515 0.7776
5 7 20 -0.5541 2.4023
5 7 21 2.0661 -1.1271
5 7 22 -0.1134 -2.3516
5 7 23 -2.2488 1.3445
5 7 24 0.6326 2.2365
5 7 25 2.3148 -1.3745
5 7 26 -0.9466 -2.0698
5 7 27 -2.2709 1.2287
5 7 28 1.0402 1.8498
5 7 29 2.1269 -0.9707
5 7 30 -0.9430 -1.5713
5 7 31 -1.9021 0.6826
5 7 32 0.7188 1.2410
5 7 33 1.6239 -0.4311
5 7 34 -0.4453 -0.8850
5 7 35 -1.3217 0.2466
5 7 36 0.1926 0.5458
5 7 37 1.0191 -0.1236
5 7 38 -0.0075 -0.2684
5 7 39 -0.7311 0.0367
5 7 40 -0.0922 0.0832
5 7 41 0.4670 0.0388
5 9 0 -4.8835 0.0311
5 9 1 1.3014 0.0073
5 9 2 4.6369 0.0546
5 9 3 -1.4327 -0.0661
5 9 4 -3.9356 -0.0259
5 9 5 1.6704 -0.0203
5 9 6 2.8785 -0.1801
5 9 7 -1.9706 0.2894
5 9 8 -1.6055 0.5339
5 9 9 2.2710 -0.7109
5 9 10 0.2682 -0.9236
5 9 11 -2.4989 1.2013
5 9 12 0.9972 1.2026
5 9 13 2.5846 -1.6573
5 9 14 -2.0880 -1.2528
5 9 15 -2.4806 1.9940
5 9 16 2.9416 1.0349
5 9 17 2.1766 -2.1714
5 9 18 -3.5309 -0.6022
5 9 19 -1.7076 2.1991
5 9 20 3.8552 0.0760
5 9 21 1.1469 -2.1210
5 9 22 -3.9312 0.4054
5 9 23 -0.5880 1.9889
5 9 24 3.7876 -0.7387
5 9 25 0.1188 -1.8382
5 9 26 -3.4636 0.8875
5 9 27 0.2016 1.6778
5 9 28 3.0090 -0.8813
5 9 29 -0.3563 -1.4958
5 9 30 -2.4813 0.7877
5 9 31 0.3690 1.2766
5 9 32 1.9397 -0.6752
5 9 33 -0.2909 -1.0183
5 9 34 -1.4356 0.5829
5 9 35 0.1807 0.7409
5 9 36 1.0048 -0.5124
5 9 37 -0.0864 -0.4809
5 9 38 -0.6632 0.4399
5 9 39 0.0345 0.2760
5 9 40 0.4090 -0.3391
5 9 41 -0.0285 -0.1483
5 9 42 -0.2299 0.2018
5 11 0 -0.2925 0.0179
5 11 1 1.7821 -0.0336
5 11 2 0.1972 -0.1578
5 11 3 -1.5469 0.1273
5 11 4 0.0742 0.2070
5 11 5 1.0895 -0.3773
5 11 6 -0.4949 -0.1078
5 11 7 -0.4302 0.7974
5 11 8 1.0161 -0.1440
5 11 9 -0.3941 -1.3049
5 11 10 -1.5655 0.5003
5 11 11 1.3255 1.7527
5 11 12 2.0545 -0.8819
5 11 13 -2.2855 -1.9912
5 11 14 -2.3941 1.2097
5 11 15 3.1810 1.9305
5 11 16 2.5172 -1.4321
5 11 17 -3.9168 -1.5765
5 11 18 -2.3987 1.5380
5 11 19 4.4111 1.0253
5 11 20 2.0647 -1.5513
5 11 21 -4.6113 -0.4220
5 11 22 -1.5864 1.5115
5 11 23 4.5044 -0.0970
5 11 24 1.0602 -1.4517
5 11 25 -4.1216 0.4499
5 11 26 -0.5800 1.3842
5 11 27 3.5321 -0.6269
5 11 28 0.2129 -1.3000
5 11 29 -2.8296 0.6750
5 11 30 0.0142 1.1803
5 11 31 2.1127 -0.6619
5 11 32 -0.1139 -1.0132
5 11 33 -1.4658 0.6396
5 11 34 0.1251 0.8054
5 11 35 0.9438 -0.6238
5 11 36 -0.0946 -0.5834
5 11 37 -0.5665 0.5970
5 11 38 0.0613 0.3833
5 13 0 -0.5009 -0.0028
5 13 5 0.3094 -0.3106
5 13 6 0.4012 0.1952
5 13 7 -0.0130 0.2579
5 13 8 -0.5031 -0.6015
5 13 9 -0.3902 -0.1078
5 13 10 0.7894 1.0657
5 13 11 0.8598 -0.1070
5 13 12 -1.2728 -1.4375
5 13 13 -1.3201 0.3429
5 13 14 1.9039 1.5911
5 13 15 1.6769 -0.5611
5 13 16 -2.5793 -1.4758
5 13 17 -1.8468 0.7384
5 13 18 3.1692 1.1326
5 13 19 1.7863 -0.8694
5 13 20 -3.5526 -0.6716
5 13 21 -1.5078 0.9602
5 13 22 3.6507 0.2236
5 13 23 1.0776 -1.0180
5 13 24 -3.4459 0.1113
5 13 25 -0.5943 1.0432
5 13 26 2.9842 -0.2950
5 13 27 0.1582 -1.0279
5 13 28 -2.3594 0.3515
5 13 29 0.1568 0.9617
5 13 30 1.6861 -0.3411
5 13 31 -0.3206 -0.8405
5 13 32 -1.0705 0.3235
5 13 33 0.3468 0.6738
5 15 0 0.5009 -0.0110
5 15 1 1.0201 -0.1847
5 15 2 -0.5349 0.0687
5 15 3 -0.8163 0.4737
5 15 4 0.6119 -0.1129
5 15 5 0.4827 -0.5773
5 15 6 -0.6648 0.1326
5 15 7 -0.1453 0.4565
5 15 8 0.6191 -0.1194
5 15 9 -0.0641 -0.1609
5 15 10 -0.4315 0.0694
5 15 11 0.0536 -0.1959
5 15 12 0.1154 0.0170
5 15 13 0.1980 0.4854
5 15 14 0.2582 -0.1340
5 15 15 -0.6351 -0.6171
5 15 16 -0.5850 0.2714
5 15 17 1.1448 0.5703
5 15 18 0.7669 -0.4146
5 15 19 -1.5937 -0.3937
5 15 20 -0.7488 0.5462
5 15 21 1.8685 0.1759
5 15 22 0.5392 -0.6481
5 15 23 -1.9074 -0.0025
5 15 24 -0.2055 0.7037
5 15 25 1.7126 -0.0787
5 15 26 -0.1517 -0.7022
5 17 0 0.3518 -0.0056
5 17 1 -0.4315 -0.0699
5 17 2 -0.2552 0.4392
5 17 3 0.5712 0.1571
5 17 4 -0.0035 -0.7539
5 17 5 -0.7834 -0.2099
5 17 6 0.3371 0.8745
5 17 7 0.9646 0.2226
5 17 8 -0.6338 -0.7945
5 17 9 -1.0187 -0.2064
5 17 10 0.7951 0.5730
5 17 11 0.8985 0.1841
5 17 12 -0.7679 -0.3061
5 17 13 -0.6258 -0.1793
5 17 14 0.5593 0.0858
6 0 0 0.2706 -0.0941
6 0 1 0.0013 -0.7552
6 0 2 -0.1986 0.0927
6 0 3 -0.0042 2.1076
6 0 4 -0.0104 -0.0877
6 0 5 0.0106 -3.0471
6 0 6 0.3294 0.0798
6 0 7 -0.0211 3.4527
6 0 8 -0.7243 -0.0700
6 0 9 0.0350 -3.3686
6 0 10 1.1644 0.0592
6 0 11 -0.0501 2.9671
6 0 12 -1.6292 -0.0480
6 0 13 0.0638 -2.4644
6 0 14 2.1069 0.0369
6 0 15 -0.0736 2.0285
6 0 16 -2.5874 -0.0263
6 0 17 0.0782 -1.7175
6 0 18 3.0530 0.0163
6 0 19 -0.0776 1.4723
6 0 20 -3.4724 -0.0073
6 0 21 0.0731 -1.1635
6 0 22 3.8030 -0.0004
6 0 23 -0.0664 0.6665
6 0 24 -4.0009 0.0065
6 0 25 0.0591 0.0701
6 0 26 4.0346 -0.0109
6 0 27 -0.0521 -0.9915
6 0 28 -3.8969 0.0139
6 0 29 0.0455 1.9521
6 0 30 3.6098 -0.0159
6 0 31 -0.0388 -2.7671
6 0 32 -3.2188 0.0175
6 0 33 0.0316 3.2774
6 0 34 2.7809 -0.0190
6 0 35 -0.0238 -3.3997
6 0 36 -2.3477 0.0206
6 0 37 0.0158 3.1451
6 0 38 1.9535 -0.0219
6 0 39 -0.0087 -2.6034
6 0 40 -1.6100 0.0222
6 0 41 0.0031 1.9074
6 0 42 1.3094 -0.0210
6 0 43 0.0005 -1.1918
6 2 0 2.4473 0.0001
6 2 1 0.0718 -0.0086
6 2 2 -2.3804 1.4379
6 2 3 -0.1417 0.1629
6 2 4 2.1932 -2.5882
6 2 5 0.2825 -0.2817
6 2 6 -1.9167 3.2600
6 2 7 -0.4934 0.3519
6 2 8 1.5960 -3.4176
6 2 9 0.7757 -0.3739
6 2 10 -1.2839 3.1748
6 2 11 -1.1318 0.3580
6 2 12 1.0302 -2.7325
6 2 13 1.5612 -0.3180
6 2 14 -0.8699 2.2876
6 2 15 -2.0528 0.2642
6 2 16 0.8128 -1.9531
6 2 17 2.5785 -0.2000
6 2 18 -0.8394 1.7233
6 2 19 -3.0910 0.1230
6 2 20 0.9057 -1.4954
6 2 21 3.5296 -0.0298
6 2 22 -0.9573 1.1325
6 2 23 -3.8333 -0.0787
6 2 24 0.9463 -0.5395
6 2 25 3.9562 0.1942
6 2 26 -0.8482 -0.2842
6 2 27 -3.8817 -0.3025
6 2 28 0.6687 1.2354
6 2 29 3.6273 0.3886
6 2 30 -0.4398 -2.1422
6 2 31 -3.2401 -0.4427
6 2 32 0.2074 2.8249
6 2 33 2.7831 0.4639
6 2 34 -0.0134 -3.1567
6 2 35 -2.3178 -0.4604
6 2 36 -0.1174 3.0996
6 2 37 1.8895 0.4442
6 2 38 0.1830 -2.7060
6 2 39 -1.5193 -0.4256
6 2 40 -0.1996 2.0923
6 2 41 1.2058 0.4072
6 2 42 0.1910 -1.3974
6 4 0 0.4171 0.0284
6 4 1 -4.1536 0.6571
6 4 2 -0.3756 0.3630
6 4 3 3.9641 -1.8331
6 4 4 0.2751 -0.6948
6 4 5 -3.6094 2.6523
6 4 6 -0.1684 0.9241
6 4 7 3.1278 -3.0132
6 4 8 0.1269 -1.0348
6 4 9 -2.5774 2.9601
6 4 10 -0.2203 1.0377
6 4 11 2.0312 -2.6490
6 4 12 0.4954 -0.9599
6 4 13 -1.5633 2.2728
6 4 14 -0.9589 0.8311
6 4 15 1.2297 -1.9777
6 4 16 1.5704 -0.6724
6 4 17 -1.0499 1.8081
6 4 18 -2.2477 0.4926
6 4 19 0.9989 -1.7006
6 4 20 2.8847 -0.2924
6 4 21 -1.0148 1.5268
6 4 22 -3.3768 0.0742
6 4 23 1.0214 -1.1630
6 4 24 3.6467 0.1506
6 4 25 -0.9559 0.5542
6 4 26 -3.6625 -0.3598
6 4 27 0.7917 0.2538
6 4 28 3.4421 0.5261
6 4 29 -0.5464 -1.1267
6 4 30 -3.0446 -0.6282
6 4 31 0.2707 1.8893
6 4 32 2.5505 0.6593
6 4 33 -0.0258 -2.3872
6 4 34 -2.0385 -0.6316
6 4 35 -0.1423 2.5357
6 4 36 1.5679 0.5702
6 4 37 0.2187 -2.3405
6 4 38 -1.1689 -0.5032
6 4 39 -0.2201 1.8853
6 4 40 0.8451 0.4491
6 6 0 -4.7259 0.0073
6 6 1 0.1177 0.3198
6 6 2 4.6597 -0.9506
6 6 3 -0.2733 -0.8746
6 6 4 -4.4714 1.6859
6 6 5 0.5203 1.3089
6 6 6 4.1477 -2.0806
6 6 7 -0.7532 -1.5789
6 6 8 -3.6855 2.1199
6 6 9 0.8542 1.6785
6 6 10 3.1102 -1.9021
6 6 11 -0.7294 -1.6326
6 6 12 -2.4818 1.5885
6 6 13 0.3379 1.4811
6 6 14 1.8819 -1.3322
6 6 15 0.2933 -1.2615
6 6 16 -1.3875 1.2150
6 6 17 -1.0735 0.9990
6 6 18 1.0429 -1.2202
6 6 19 1.8715 -0.7061
6 6 20 -0.8433 1.2495
6 6 21 -2.5495 0.3912
6 6 22 0.7400 -1.1754
6 6 23 2.9986 -0.0693
6 6 24 -0.6633 0.9026
6 6 25 -3.1636 -0.2323
6 6 26 0.5545 -0.4144
6 6 27 3.0518 0.4776
6 6 28 -0.3894 -0.2176
6 6 29 -2.7225 -0.6329
6 6 30 0.1854 0.8595
6 6 31 2.2645 0.6806
6 6 32 0.0126 -1.3648
6 6 33 -1.7682 -0.6286
6 6 34 -0.1566 1.6255
6 6 35 1.3034 0.5089
6 6 36 0.2199 -1.6050
6 6 37 -0.9089 -0.3664
6 6 38 -0.2075 1.3426
6 6 39 0.5934 0.2429
6 8 0 1.2053 0.0400
6 8 1 4.1100 -0.3301
6 8 2 -1.2635 -0.6267
6 8 3 -4.1456 0.8886
6 8 4 1.4093 1.1338
6 8 5 4.1721 -1.2256
6 8 6 -1.5688 -1.5064
6 8 7 -4.1085 1.2849
6 8 8 1.6448 1.7199
6 8 9 3.8873 -1.1068
6 8 10 -1.5476 -1.7800
6 8 11 -3.4899 0.8054
6 8 12 1.2246 1.7116
6 8 13 2.9588 -0.5185
6 8 14 -0.6794 -1.5448
6 8 15 -2.3812 0.3509
6 8 16 -0.0252 1.3035
6 8 17 1.8524 -0.3358
6 8 18 0.7824 -1.0028
6 8 19 -1.4373 0.4283
6 8 20 -1.4692 0.6550
6 8 21 1.1487 -0.5325
6 8 22 1.9789 -0.2791
6 8 23 -0.9512 0.5479
6 8 24 -2.2475 -0.0924
6 8 25 0.7863 -0.4141
6 8 26 2.2664 0.4145
6 8 27 -0.6051 0.1365
6 8 28 -2.0771 -0.6411
6 8 29 0.3912 0.2187
6 8 30 1.7532 0.7399
6 8 31 -0.1645 -0.5521
6 8 32 -1.3753 -0.7061
6 8 33 -0.0343 0.7714
6 8 34 1.0094 0.5665
6 8 35 0.1686 -0.8238
6 8 36 -0.6947 -0.3715
6 8 37 -0.2248 0.7117
6 10 0 2.8126 -0.0009
6 10 1 -1.9324 -0.2139
6 10 2 -2.9084 0.5328
6 10 3 1.9213 0.5640
6 10 4 3.1651 -0.9278
6 10 5 -1.8821 -0.8637
6 10 6 -3.4738 1.0971
6 10 7 1.7857 1.0937
6 10 8 3.7033 -1.0255
6 10 9 -1.6015 -1.2443
6 10 10 -3.7533 0.7715
6 10 11 1.3096 1.3121
6 10 12 3.5917 -0.4409
6 10 13 -0.9111 -1.2950
6 10 14 -3.2591 0.1442
6 10 15 0.4335 1.1898
6 10 16 2.8421 0.0422
6 10 17 0.0714 -0.9941
6 10 18 -2.4309 -0.0986
6 10 19 -0.5384 0.7125
6 10 20 2.0807 0.0589
6 10 21 0.9049 -0.3642
6 10 22 -1.7967 0.0121
6 10 23 -1.1274 -0.0130
6 10 24 1.5444 -0.0509
6 10 25 1.1927 0.3664
6 10 26 -1.2790 0.0228
6 10 27 -1.1191 -0.6398
6 10 28 0.9751 0.0677
6 10 29 0.9490 0.7890
6 10 30 -0.6421 -0.1839
6 10 31 -0.7339 -0.7970
6 10 32 0.3192 0.2774
6 10 33 0.5198 0.6799
6 10 34 -0.0538 -0.3101
6 12 0 -1.8137 -0.0145
6 12 1 -1.4898 0.3186
6 12 2 1.7556 0.0925
6 12 3 1.7144 -0.8887
6 12 4 -1.5918 -0.1869
6 12 5 -2.0912 1.2767
6 12 6 1.3504 0.3100
6 12 7 2.4985 -1.4209
6 12 8 -1.0673 -0.4590
6 12 9 -2.8159 1.3253
6 12 10 0.7764 0.6133
6 12 11 2.9674 -1.0519
6 12 12 -0.5019 -0.7388
6 12 13 -2.9416 0.6959
6 12 14 0.2569 0.7968
6 12 15 2.7828 -0.3528
6 12 16 -0.0471 -0.7557
6 12 17 -2.5587 0.0908
6 14 0 -0.4996 0.0160
6 14 1 1.0712 -0.0500
6 14 2 0.5762 -0.6335
6 14 3 -0.9240 0.1513
6 14 4 -0.7854 1.1359
6 14 5 0.6699 -0.1792
6 14 6 1.0616 -1.4410
6 14 7 -0.3745 0.1131
6 14 8 -1.3248 1.5164
6 14 9 0.1060 0.0327
6 14 10 1.5124 -1.3838
6 14 11 0.0870 -0.2135
6 14 12 -1.5990 1.1076
6 14 13 -0.1875 0.3703
6 14 14 1.5973 -0.7718
6 14 15 0.2082 -0.4497
6 14 17 -0.1800 0.4228
6 14 18 1.4640 -0.2103
6 14 19 0.1355 -0.2934
6 14 20 -1.3752 0.0583
6 14 21 -0.0958 0.0965
6 14 22 1.2636 0.0111
6 16 2 -0.2020 0.1851
6 16 3 -0.1344 0.5975
6 16 4 0.0425 -0.3240
6 16 5 0.2104 -0.8529
6 16 6 0.1617 0.3613
6 16 7 -0.2899 0.9609
6 16 8 -0.3453 -0.2923
7 1 0 -0.3421 0.0124
7 1 1 -0.1337 -0.0518
7 1 2 0.3934 0.3329
7 1 3 0.0494 0.0637
7 1 4 -0.5267 -0.5194
7 1 5 0.1067 0.1217
7 1 6 0.7018 0.4356
7 1 7 -0.3078 -0.5556
7 1 8 -0.8776 -0.0509
7 1 9 0.5336 1.1967
7 1 10 1.0340 -0.5750
7 1 11 -0.7814 -1.9225
7 1 12 -1.1813 1.3094
7 1 13 1.0640 2.5660
7 1 14 1.3516 -1.9848
7 1 15 -1.3956 -2.9680
7 1 16 -1.5742 2.4460
7 1 17 1.7720 3.0251
7 1 18 1.8499 -2.5927
7 1 19 -2.1564 -2.7194
7 1 20 -2.1377 2.4050
7 1 21 2.4812 2.1208
7 1 22 2.3623 -1.9435
7 1 23 -2.6667 -1.3627
7 1 24 -2.4421 1.3269
7 1 25 2.6501 0.6012
7 1 26 2.3231 -0.6948
7 1 27 -2.4127 0.0286
7 1 28 -2.0055 0.1673
7 1 29 1.9916 -0.4450
7 1 30 1.5480 0.1839
7 1 31 -1.4710 0.6322
7 1 32 -1.0473 -0.3464
7 1 33 0.9543 -0.6316
7 1 34 0.6040 0.3583
7 1 35 -0.5311 0.5180
7 1 36 -0.2874 -0.2848
7 3 0 0.4181 0.0049
7 3 1 -0.5229 0.4169
7 3 2 -0.4366 0.0945
7 3 3 0.3488 -1.1540
7 3 4 0.4997 -0.0444
7 3 5 -0.0574 1.6214
7 3 6 -0.5923 -0.2512
7 3 7 -0.2647 -1.7107
7 3 8 0.6997 0.7958
7 3 9 0.5386 1.4012
7 3 10 -0.8181 -1.4978
7 3 11 -0.7266 -0.7627
7 3 12 0.9576 2.2003
7 3 13 0.8418 -0.0632
7 3 14 -1.1354 -2.7331
7 3 15 -0.9333 0.9007
7 3 16 1.3622 2.9674
7 3 17 1.0529 -1.5840
7 3 18 -1.6268 -2.8537
7 3 19 -1.2220 1.9977
7 3 20 1.8903 2.4321
7 3 21 1.4157 -2.1007
7 3 22 -2.0927 -1.8129
7 3 23 -1.5719 1.9290
7 3 24 2.1721 1.1385
7 3 25 1.6205 -1.5748
7 3 26 -2.0875 -0.5397
7 3 27 -1.5181 1.1533
7 3 28 1.8374 0.1030
7 3 29 1.2704 -0.7661
7 3 30 -1.4631 0.1442
7 3 31 -0.9319 0.4758
7 3 32 1.0370 -0.2271
7 3 33 0.5834 -0.2972
7 3 34 -0.6392 0.2029
7 3 35 -0.2993 0.2064
7 5 0 -2.7833 0.0189
7 5 5 -2.9846 0.2554
7 5 6 1.4946 -2.6345
7 5 7 2.7802 0.0949
7 5 8 -0.8383 2.7442
7 5 9 -2.5304 -0.7043
7 5 10 0.2981 -2.4030
7 5 11 2.2625 1.4430
7 5 12 0.0648 1.6989
7 5 13 -2.0116 -2.1383
7 5 14 -0.2667 -0.7854
7 5 15 1.8108 2.6327
7 5 16 0.3768 -0.1555
7 5 17 -1.6795 -2.8318
7 5 18 -0.4732 0.9560
7 5 19 1.6146 2.7258
7 5 20 0.6030 -1.5009
7 5 21 -1.5887 -2.3809
7 5 22 -0.7627 1.7484
7 5 23 1.5586 1.9067
7 5 24 0.9067 -1.7294
7 5 25 -1.4801 -1.4165
7 5 26 -0.9766 1.5259
7 5 27 1.3249 0.9937
7 5 28 0.9341 -1.2375
7 5 29 -1.0916 -0.6769
7 5 30 -0.7814 0.9489
7 5 31 0.8065 0.4633
7 7 0 -6.0592 -0.0127
7 7 5 2.8611 -2.4102
7 7 6 5.2880 -0.2505
7 7 7 -1.9268 2.8136
7 7 8 -4.7665 -0.2350
7 7 9 1.0493 -2.7952
7 7 10 4.1842 0.9442
7 7 11 -0.3738 2.3864
7 7 12 -3.5910 -1.7160
7 7 13 -0.0465 -1.6906
7 7 14 3.0319 2.3757
7 7 15 0.2485 0.8590
7 7 16 -2.5395 -2.7910
7 7 17 -0.3230 -0.0546
7 7 18 2.1287 2.9071
7 7 19 0.3653 -0.5864
7 7 20 -1.7961 -2.7501
7 7 21 -0.4339 0.9855
7 7 22 1.5228 2.4028
7 7 23 0.5337 -1.1334
7 7 24 -1.2821 -1.9670
7 7 25 -0.6280 1.0804
7 7 26 1.0492 1.5284
7 7 27 0.6678 -0.9098
7 9 0 3.5383 -0.0242
7 9 5 5.5698 -0.3506
7 9 6 -1.8966 1.9655
7 9 7 -5.1114 0.0156
7 9 8 1.0408 -2.1340
7 9 9 4.5839 0.5876
7 9 10 -0.3232 2.0071
7 9 11 -4.0331 -1.3247
7 9 12 -0.1564 -1.6320
7 9 13 3.4942 2.0206
7 9 15 -2.9884 -2.5196
7 9 16 -0.4337 -0.5377
7 9 17 2.5239 2.7324
7 9 18 0.3896 0.0510
7 11 0 3.4760 0.0030
7 11 4 3.2969 -0.4582
7 11 5 -1.1465 0.8851
7 11 6 -3.1023 0.3404
7 11 7 0.6269 -1.0607
7 11 8 2.8726 0.0519
7 11 9 -0.1634 1.0920
7 11 10 -2.6306 -0.6293
7 11 11 -0.1561 -0.9809
7 11 12 2.3881 1.2410
7 11 13 0.3020 0.7594
7 11 14 -2.1447 -1.7302
7 11 15 -0.3022 -0.4845
7 11 16 1.8924 1.9858
7 13 0 -0.5854 0.0044
7 13 4 -0.4083 0.0812
7 13 5 -0.7037 0.5400
7 13 7 0.7201 -0.4040
7 13 8 -0.0989 0.1813
7 13 9 -0.7402 0.0757
7 13 10 0.0077 -0.2104
8 0 0 -3.3788 0.0378
8 0 1 -0.0002 0.1362
8 0 2 3.3563 -0.0393
8 0 3 -0.0000 -0.4069
8 0 4 -3.2953 0.0423
8 0 5 0.0005 0.6950
8 0 6 3.2153 -0.0454
8 0 7 -0.0014 -1.0190
8 0 8 -3.1391 0.0468
8 0 9 0.0025 1.3950
8 0 10 3.0821 -0.0449
8 0 11 -0.0036 -1.8201
8 0 12 -3.0437 0.0394
8 0 13 0.0041 2.2580
8 0 14 3.0044 -0.0310
8 0 15 -0.0038 -2.6347
8 0 16 -2.9303 0.0213
8 0 17 0.0023 2.8544
8 0 18 2.7846 -0.0123
8 0 19 0.0001 -2.8318
8 0 20 -2.5408 0.0054
8 0 21 -0.0031 2.5276
8 0 22 2.1939 -0.0014
8 0 27 0.0071 -0.5606
8 2 0 0.1402 0.0041
8 2 1 3.1447 -0.0070
8 2 2 -0.1736 -0.1712
8 2 3 -3.1505 -0.0118
8 2 4 0.2658 0.3439
8 2 5 3.1567 -0.0039
8 2 6 -0.3966 -0.5357
8 2 7 -3.1573 0.0569
8 2 8 0.5367 0.7673
8 2 9 3.1424 -0.1319
8 2 10 -0.6530 -1.0555
8 2 11 -3.0976 0.2012
8 2 12 0.7157 1.3947
8 2 13 3.0053 -0.2368
8 2 14 -0.7063 -1.7438
8 2 15 -2.8478 0.2210
8 2 16 0.6230 2.0286
8 2 17 2.6123 -0.1536
8 2 18 -0.4824 -2.1620
8 2 26 0.0172 -0.6927
8 4 0 1.7621 0.0048
8 4 1 0.1391 0.0363
8 4 2 -1.8429 -0.2458
8 4 3 -0.0575 -0.0973
8 4 4 2.0571 0.4128
8 4 5 -0.0915 0.1570
8 4 6 -2.3402 -0.4607
8 4 7 0.2825 -0.1971
8 4 8 2.6053 0.3870
8 4 9 -0.4798 0.1861
8 4 10 -2.7670 -0.2296
8 4 11 0.6424 -0.0952
8 4 12 2.7632 0.0496
8 4 13 -0.7329 -0.0814
8 4 14 -2.5706 0.0926
8 4 15 0.7283 0.3138
8 4 16 2.2073 -0.1589
8 4 17 -0.6283 -0.5405
8 6 0 0.3239 0.0181
8 6 1 0.9982 -0.3022
8 6 2 -0.3096 -0.2720
8 6 3 -0.6447 0.8082
8 6 4 0.2681 0.5251
8 6 5 0.0296 -1.1362
8 6 6 -0.1920 -0.7655
8 6 7 0.6893 1.2308
8 6 8 0.0786 0.9623
8 6 9 -1.3343 -1.1053
8 6 10 0.0621 -1.0748
8 6 11 1.7564 0.8292
8 6 12 -0.2047 1.0709
8 6 13 -1.8733 -0.4985
8 6 14 0.3147 -0.9453
8 6 15 1.6849 0.2014
8 8 0 3.3809 -0.0042
8 8 1 0.1532 -0.1667
8 8 2 -3.1392 0.7129
8 8 3 -0.0811 0.4650
8 8 4 2.4699 -1.2748
8 8 5 -0.0330 -0.7403
8 8 6 -1.5333 1.5879
8 8 7 0.1372 0.9673
8 8 8 0.5443 -1.6220
8 8 9 -0.1843 -1.1130
8 8 10 0.2890 1.4196
8 8 11 0.1532 1.1489
8 8 12 -0.8197 -1.0725
8 10 0 0.7166 0.0028
8 10 1 -3.1429 0.2734
8 10 2 -0.6423 0.2237
8 10 3 2.7471 -0.7762
8 10 4 0.4420 -0.4230
8 10 5 -2.0515 1.1242
9 1 0 -0.2040 0.0112
9 1 1 0.1209 0.0878
9 1 2 0.1745 -0.0816
9 1 3 -0.0729 -0.2546
9 1 4 -0.1046 0.1305
0 0 0 0.0 0.0
;
_shelx_fab_checksum              4413
_olex2_submission_special_instructions 'No special instructions were received'
_oxdiff_exptl_absorpt_empirical_details
;
Empirical correction (ABSPACK) includes:
- Absorption correction using spherical harmonics
- Frame scaling
;
_oxdiff_exptl_absorpt_empirical_full_max 1.581
_oxdiff_exptl_absorpt_empirical_full_min 0.294
loop_
_space_group_symop_operation_xyz
'x, y, z'
'-x, -y, z+1/2'
'-x, y, -z+1/2'
'x, -y, -z'
'x+1/2, y+1/2, z'
'-x+1/2, -y+1/2, z+1/2'
'-x+1/2, y+1/2, -z+1/2'
'x+1/2, -y+1/2, -z'
loop_
_atom_site_label
_atom_site_type_symbol
_atom_site_fract_x
_atom_site_fract_y
_atom_site_fract_z
_atom_site_U_iso_or_equiv
_atom_site_adp_type
_atom_site_occupancy
_atom_site_site_symmetry_order
_atom_site_calc_flag
_atom_site_refinement_flags_posn
_atom_site_refinement_flags_adp
_atom_site_refinement_flags_occupancy
_atom_site_disorder_assembly
_atom_site_disorder_group
F23 F 0.6136(4) 0.75901(16) 0.59562(6) 0.0504(7) Uani 1 1 d . . . . .
O20 O 0.2780(4) 0.43746(16) 0.45772(6) 0.0363(6) Uani 1 1 d . . . . .
F29 F 0.5519(4) 0.50867(17) 0.63417(7) 0.0560(8) Uani 1 1 d . . . . .
O22 O 0.5458(4) 0.32056(16) 0.50453(6) 0.0367(7) Uani 1 1 d . . . . .
F25 F 0.5016(5) 0.82220(18) 0.64497(7) 0.0608(8) Uani 1 1 d . . . . .
N18 N 0.1771(5) 0.33477(18) 0.48235(7) 0.0295(7) Uani 1 1 d . . . . .
H18 H 0.123500 0.289052 0.482209 0.035 Uiso 1 1 calc R U . . .
N15 N 0.5083(4) 0.43613(19) 0.52630(8) 0.0313(7) Uani 1 1 d . . . . .
H15 H 0.428936 0.472290 0.531501 0.038 Uiso 1 1 calc R U . . .
F28 F 0.4364(5) 0.4925(2) 0.68575(9) 0.0779(11) Uani 1 1 d . . . . .
N11 N 0.6503(6) 0.6076(2) 0.58737(8) 0.0430(9) Uani 1 1 d . . . . .
H11 H 0.693687 0.643131 0.575548 0.052 Uiso 1 1 calc R U . . .
F24 F 0.3959(6) 0.8050(3) 0.69783(8) 0.0809(12) Uani 1 1 d . . . . .
C19 C 0.2089(5) 0.3720(2) 0.45746(8) 0.0264(7) Uani 1 1 d . . . . .
C16 C 0.4433(5) 0.3732(2) 0.51257(8) 0.0264(7) Uani 1 1 d . . . . .
C30 C 0.1161(5) 0.3719(2) 0.40398(9) 0.0297(8) Uani 1 1 d . . . . .
C17 C 0.2311(5) 0.3700(2) 0.50963(8) 0.0277(8) Uani 1 1 d . . . . .
H17 H 0.179921 0.423708 0.510551 0.033 Uiso 1 1 calc R U . . .
F27 F 0.3202(6) 0.5565(3) 0.73491(8) 0.0895(11) Uani 1 1 d . U . . .
C31 C 0.1184(6) 0.4551(2) 0.40143(9) 0.0346(9) Uani 1 1 d . . . . .
H31 H 0.152709 0.485385 0.417713 0.042 Uiso 1 1 calc R U . . .
C39 C 0.0625(5) 0.3281(3) 0.37899(8) 0.0336(9) Uani 1 1 d . . . . .
C40 C 0.1577(5) 0.3313(2) 0.42982(8) 0.0295(8) Uani 1 1 d . . . . .
F26 F 0.3027(6) 0.7109(3) 0.74157(7) 0.1046(16) Uani 1 1 d . . . . .
C2 C 0.5680(6) 0.7133(3) 0.61791(9) 0.0389(10) Uani 1 1 d . . . . .
C1 C 0.5856(6) 0.6318(3) 0.61372(10) 0.0396(10) Uani 1 1 d . . . . .
C41 C 0.1535(6) 0.2505(2) 0.42973(9) 0.0340(9) Uani 1 1 d . . . . .
H41 H 0.184036 0.223439 0.446981 0.041 Uiso 1 1 calc R U . . .
C12 C 0.6532(6) 0.5277(2) 0.57725(10) 0.0374(9) Uani 1 1 d . . . . .
H12A H 0.525343 0.506344 0.577218 0.045 Uiso 1 1 calc R U . . .
H12B H 0.730729 0.495810 0.590331 0.045 Uiso 1 1 calc R U . . .
C14 C 0.7049(6) 0.4468(2) 0.53291(10) 0.0350(9) Uani 1 1 d . . . . .
H14A H 0.779224 0.443594 0.514915 0.042 Uiso 1 1 calc R U . . .
H14B H 0.747652 0.405636 0.546204 0.042 Uiso 1 1 calc R U . . .
C32 C 0.0728(6) 0.4907(3) 0.37633(10) 0.0398(10) Uani 1 1 d . . . . .
H32 H 0.077819 0.545488 0.375390 0.048 Uiso 1 1 calc R U . . .
C33 C 0.0170(6) 0.4483(3) 0.35112(9) 0.0433(11) Uani 1 1 d . . . . .
C34 C 0.0135(6) 0.3671(3) 0.35277(9) 0.0383(10) Uani 1 1 d . . . . .
C38 C 0.0578(6) 0.2459(3) 0.37992(9) 0.0384(10) Uani 1 1 d . . . . .
C10 C 0.5382(6) 0.5871(3) 0.63692(10) 0.0430(11) Uani 1 1 d . . . . .
C21 C 0.1537(7) 0.3231(3) 0.53476(9) 0.0409(10) Uani 1 1 d . . . . .
H21A H 0.018018 0.319320 0.532947 0.061 Uiso 1 1 calc R U . . .
H21B H 0.185170 0.348599 0.553049 0.061 Uiso 1 1 calc R U . . .
H21C H 0.208007 0.271176 0.534463 0.061 Uiso 1 1 calc R U . . .
C42 C 0.1064(7) 0.2088(3) 0.40535(10) 0.0402(10) Uani 1 1 d . . . . .
H42 H 0.107238 0.153939 0.406025 0.048 Uiso 1 1 calc R U . . .
C37 C 0.0044(7) 0.2041(3) 0.35418(11) 0.0493(12) Uani 1 1 d . . . . .
H37 H 0.002443 0.149243 0.354587 0.059 Uiso 1 1 calc R U . . .
C4 C 0.4662(6) 0.6982(3) 0.66699(10) 0.0464(11) Uani 1 1 d . . . . .
C13 C 0.7326(6) 0.5257(2) 0.54702(10) 0.0365(9) Uani 1 1 d . . . . .
H13A H 0.867272 0.537770 0.547783 0.044 Uiso 1 1 calc R U . . .
H13B H 0.671058 0.565795 0.535091 0.044 Uiso 1 1 calc R U . . .
C35 C -0.0399(6) 0.3226(4) 0.32788(9) 0.0473(12) Uani 1 1 d . . . . .
C3 C 0.5142(7) 0.7445(3) 0.64320(10) 0.0469(11) Uani 1 1 d . . . . .
C36 C -0.0422(7) 0.2407(4) 0.32991(11) 0.0536(13) Uani 1 1 d . . . . .
H36 H -0.077877 0.211209 0.313480 0.064 Uiso 1 1 calc R U . . .
C9 C 0.4784(7) 0.6170(3) 0.66358(11) 0.0482(12) Uani 1 1 d . . . . .
C45 C -0.0901(7) 0.3630(4) 0.30258(11) 0.0595(16) Uani 1 1 d . . . . .
H45 H -0.126505 0.334814 0.285877 0.071 Uiso 1 1 calc R U . . .
C43 C -0.0352(7) 0.4859(4) 0.32536(11) 0.0558(14) Uani 1 1 d . . . . .
H43 H -0.034801 0.540654 0.324258 0.067 Uiso 1 1 calc R U . . .
C8 C 0.4294(7) 0.5695(4) 0.68730(13) 0.0603(15) Uani 1 1 d . . . . .
C44 C -0.0874(8) 0.4418(5) 0.30156(11) 0.0639(17) Uani 1 1 d . . . . .
H44 H -0.122079 0.467210 0.284148 0.077 Uiso 1 1 calc R U . . .
C7 C 0.3730(8) 0.6011(5) 0.71282(12) 0.0684(18) Uani 1 1 d . . . . .
C5 C 0.4076(8) 0.7280(4) 0.69408(11) 0.0614(16) Uani 1 1 d . . . . .
C6 C 0.3622(8) 0.6801(6) 0.71607(11) 0.075(2) Uani 1 1 d . . . . .
loop_
_atom_site_aniso_label
_atom_site_aniso_U_11
_atom_site_aniso_U_22
_atom_site_aniso_U_33
_atom_site_aniso_U_23
_atom_site_aniso_U_13
_atom_site_aniso_U_12
F23 0.0698(19) 0.0437(14) 0.0377(14) 0.0052(12) 0.0070(13) -0.0103(13)
O20 0.0449(16) 0.0309(14) 0.0331(14) -0.0003(12) -0.0021(12) -0.0095(13)
F29 0.0581(18) 0.0521(16) 0.0579(18) 0.0165(14) -0.0039(14) -0.0075(14)
O22 0.0387(15) 0.0289(14) 0.0424(16) -0.0063(12) -0.0029(12) 0.0081(12)
F25 0.078(2) 0.0514(17) 0.0530(17) -0.0094(14) 0.0081(15) -0.0090(16)
N18 0.0354(17) 0.0268(15) 0.0264(16) -0.0032(13) -0.0042(13) -0.0076(13)
N15 0.0272(15) 0.0254(15) 0.0413(18) -0.0063(14) -0.0087(13) 0.0007(13)
F28 0.064(2) 0.093(3) 0.077(2) 0.050(2) 0.0047(18) -0.005(2)
N11 0.049(2) 0.042(2) 0.0373(19) -0.0004(16) -0.0027(17) -0.0091(18)
F24 0.082(3) 0.112(3) 0.0493(19) -0.0218(19) 0.0127(17) -0.019(2)
C19 0.0246(17) 0.0266(17) 0.0280(18) -0.0031(14) -0.0013(14) -0.0001(15)
C16 0.0312(18) 0.0244(17) 0.0236(16) 0.0012(14) -0.0047(14) 0.0037(15)
C30 0.0222(18) 0.037(2) 0.0296(19) -0.0031(16) 0.0035(15) 0.0005(15)
C17 0.034(2) 0.0251(17) 0.0242(18) -0.0017(14) 0.0006(15) -0.0047(15)
F27 0.0785(19) 0.132(2) 0.0575(16) 0.0364(17) 0.0081(15) -0.0025(18)
C31 0.033(2) 0.038(2) 0.0328(19) 0.0017(17) 0.0026(16) -0.0028(17)
C39 0.0232(18) 0.050(2) 0.028(2) -0.0044(18) 0.0014(15) 0.0004(18)
C40 0.0258(18) 0.035(2) 0.0278(18) -0.0022(16) -0.0005(15) -0.0015(16)
F26 0.079(2) 0.200(5) 0.0345(17) 0.000(2) 0.0152(17) -0.005(3)
C2 0.040(2) 0.046(2) 0.031(2) -0.0006(18) -0.0005(17) -0.010(2)
C1 0.033(2) 0.050(3) 0.036(2) 0.0029(19) -0.0085(17) -0.0079(19)
C41 0.037(2) 0.034(2) 0.031(2) -0.0030(16) -0.0030(17) -0.0001(17)
C12 0.033(2) 0.036(2) 0.043(2) -0.0005(18) -0.0099(18) -0.0057(17)
C14 0.0251(18) 0.0308(19) 0.049(2) 0.0010(18) -0.0076(17) 0.0008(16)
C32 0.037(2) 0.041(2) 0.041(2) 0.0073(18) 0.0064(19) 0.0109(19)
C33 0.036(2) 0.063(3) 0.031(2) 0.008(2) 0.0048(17) 0.007(2)
C34 0.0247(19) 0.061(3) 0.029(2) -0.001(2) 0.0009(16) 0.0059(19)
C38 0.032(2) 0.049(2) 0.034(2) -0.0125(19) 0.0017(17) -0.0035(19)
C10 0.034(2) 0.050(3) 0.044(2) 0.008(2) -0.0109(19) -0.010(2)
C21 0.047(2) 0.048(2) 0.028(2) -0.0022(18) 0.0059(18) -0.015(2)
C42 0.050(3) 0.032(2) 0.039(2) -0.0088(18) -0.0022(19) 0.0015(19)
C37 0.047(3) 0.061(3) 0.040(2) -0.021(2) -0.001(2) -0.007(2)
C4 0.034(2) 0.070(3) 0.035(2) 0.000(2) -0.0045(18) -0.006(2)
C13 0.033(2) 0.032(2) 0.044(2) -0.0035(18) -0.0107(17) -0.0052(16)
C35 0.032(2) 0.084(4) 0.026(2) -0.006(2) -0.0003(17) -0.002(2)
C3 0.049(3) 0.055(3) 0.036(2) -0.003(2) -0.002(2) -0.011(2)
C36 0.043(3) 0.081(4) 0.037(2) -0.023(2) -0.001(2) -0.006(3)
C9 0.035(2) 0.072(3) 0.038(2) 0.016(2) -0.0081(18) -0.014(2)
C45 0.044(3) 0.105(5) 0.029(2) -0.001(3) -0.005(2) 0.006(3)
C43 0.046(3) 0.077(4) 0.044(3) 0.018(3) 0.000(2) 0.014(3)
C8 0.041(3) 0.087(4) 0.053(3) 0.028(3) -0.011(2) -0.010(3)
C44 0.052(3) 0.109(5) 0.031(2) 0.015(3) -0.003(2) 0.011(3)
C7 0.045(3) 0.121(6) 0.040(3) 0.032(3) 0.004(2) -0.006(3)
C5 0.051(3) 0.094(5) 0.039(3) -0.001(3) -0.005(2) -0.020(3)
C6 0.044(3) 0.153(7) 0.028(2) 0.007(3) -0.001(2) -0.007(4)
loop_
_atom_type_symbol
_atom_type_description
_atom_type_scat_dispersion_real
_atom_type_scat_dispersion_imag
_atom_type_scat_source
C C 0.0181 0.0091 'International Tables Vol C Tables 4.2.6.8 and 6.1.1.4'
H H 0.0000 0.0000 'International Tables Vol C Tables 4.2.6.8 and 6.1.1.4'
F F 0.0727 0.0534 'International Tables Vol C Tables 4.2.6.8 and 6.1.1.4'
N N 0.0311 0.0180 'International Tables Vol C Tables 4.2.6.8 and 6.1.1.4'
O O 0.0492 0.0322 'International Tables Vol C Tables 4.2.6.8 and 6.1.1.4'
loop_
_geom_angle_atom_site_label_1
_geom_angle_atom_site_label_2
_geom_angle_atom_site_label_3
_geom_angle
_geom_angle_site_symmetry_1
_geom_angle_site_symmetry_3
_geom_angle_publ_flag
C19 N18 H18 120.1 . . ?
C19 N18 C17 119.9(3) . . ?
C17 N18 H18 120.1 . . ?
C16 N15 H15 118.7 . . ?
C16 N15 C14 122.6(3) . . ?
C14 N15 H15 118.7 . . ?
C1 N11 H11 117.3 . . ?
C1 N11 C12 125.4(4) . . ?
C12 N11 H11 117.3 . . ?
O20 C19 N18 120.1(3) . . ?
O20 C19 C40 122.3(3) . . ?
N18 C19 C40 117.6(3) . . ?
O22 C16 N15 122.4(4) . . ?
O22 C16 C17 122.9(3) . . ?
N15 C16 C17 114.6(3) . . ?
C39 C30 C31 117.7(4) . . ?
C40 C30 C31 124.1(4) . . ?
C40 C30 C39 118.2(4) . . ?
N18 C17 C16 111.0(3) . . ?
N18 C17 H17 109.2 . . ?
N18 C17 C21 109.9(3) . . ?
C16 C17 H17 109.2 . . ?
C21 C17 C16 108.3(3) . . ?
C21 C17 H17 109.2 . . ?
C30 C31 H31 119.3 . . ?
C32 C31 C30 121.4(4) . . ?
C32 C31 H31 119.3 . . ?
C34 C39 C30 119.8(4) . . ?
C38 C39 C30 120.7(4) . . ?
C38 C39 C34 119.4(4) . . ?
C30 C40 C19 122.3(3) . . ?
C41 C40 C19 118.4(4) . . ?
C41 C40 C30 119.3(4) . . ?
F23 C2 C1 117.2(4) . . ?
F23 C2 C3 120.1(4) . . ?
C3 C2 C1 122.6(4) . . ?
N11 C1 C2 116.9(4) . . ?
C10 C1 N11 127.6(5) . . ?
C10 C1 C2 115.5(4) . . ?
C40 C41 H41 119.0 . . ?
C42 C41 C40 122.0(4) . . ?
C42 C41 H41 119.0 . . ?
N11 C12 H12A 109.9 . . ?
N11 C12 H12B 109.9 . . ?
N11 C12 C13 108.9(3) . . ?
H12A C12 H12B 108.3 . . ?
C13 C12 H12A 109.9 . . ?
C13 C12 H12B 109.9 . . ?
N15 C14 H14A 109.8 . . ?
N15 C14 H14B 109.8 . . ?
N15 C14 C13 109.3(3) . . ?
H14A C14 H14B 108.3 . . ?
C13 C14 H14A 109.8 . . ?
C13 C14 H14B 109.8 . . ?
C31 C32 H32 119.0 . . ?
C31 C32 C33 122.0(4) . . ?
C33 C32 H32 119.0 . . ?
C34 C33 C32 118.2(4) . . ?
C43 C33 C32 121.7(5) . . ?
C43 C33 C34 120.1(5) . . ?
C39 C34 C35 119.3(4) . . ?
C33 C34 C39 120.8(4) . . ?
C33 C34 C35 119.8(4) . . ?
C39 C38 C37 118.8(4) . . ?
C42 C38 C39 118.9(4) . . ?
C42 C38 C37 122.3(5) . . ?
F29 C10 C9 118.0(4) . . ?
C1 C10 F29 118.1(4) . . ?
C1 C10 C9 123.9(5) . . ?
C17 C21 H21A 109.5 . . ?
C17 C21 H21B 109.5 . . ?
C17 C21 H21C 109.5 . . ?
H21A C21 H21B 109.5 . . ?
H21A C21 H21C 109.5 . . ?
H21B C21 H21C 109.5 . . ?
C41 C42 C38 120.8(4) . . ?
C41 C42 H42 119.6 . . ?
C38 C42 H42 119.6 . . ?
C38 C37 H37 119.2 . . ?
C36 C37 C38 121.5(5) . . ?
C36 C37 H37 119.2 . . ?
C3 C4 C9 117.7(4) . . ?
C3 C4 C5 123.8(5) . . ?
C5 C4 C9 118.5(5) . . ?
C12 C13 C14 111.5(4) . . ?
C12 C13 H13A 109.3 . . ?
C12 C13 H13B 109.3 . . ?
C14 C13 H13A 109.3 . . ?
C14 C13 H13B 109.3 . . ?
H13A C13 H13B 108.0 . . ?
C36 C35 C34 119.1(4) . . ?
C45 C35 C34 117.8(5) . . ?
C45 C35 C36 123.2(5) . . ?
F25 C3 C4 120.3(4) . . ?
C2 C3 F25 118.1(4) . . ?
C2 C3 C4 121.5(5) . . ?
C37 C36 C35 121.8(4) . . ?
C37 C36 H36 119.1 . . ?
C35 C36 H36 119.1 . . ?
C10 C9 C4 118.8(4) . . ?
C10 C9 C8 122.9(5) . . ?
C8 C9 C4 118.4(5) . . ?
C35 C45 H45 119.3 . . ?
C44 C45 C35 121.4(5) . . ?
C44 C45 H45 119.3 . . ?
C33 C43 H43 120.4 . . ?
C44 C43 C33 119.2(6) . . ?
C44 C43 H43 120.4 . . ?
F28 C8 C9 121.9(6) . . ?
F28 C8 C7 117.3(5) . . ?
C7 C8 C9 120.7(6) . . ?
C45 C44 C43 121.6(5) . . ?
C45 C44 H44 119.2 . . ?
C43 C44 H44 119.2 . . ?
F27 C7 C8 120.9(7) . . ?
F27 C7 C6 118.3(6) . . ?
C8 C7 C6 120.7(5) . . ?
F24 C5 C4 119.5(5) . . ?
F24 C5 C6 119.7(6) . . ?
C6 C5 C4 120.8(7) . . ?
F26 C6 C7 120.0(6) . . ?
C5 C6 F26 119.1(8) . . ?
C5 C6 C7 120.9(6) . . ?
loop_
_geom_bond_atom_site_label_1
_geom_bond_atom_site_label_2
_geom_bond_distance
_geom_bond_site_symmetry_2
_geom_bond_publ_flag
F23 C2 1.340(5) . ?
O20 C19 1.238(5) . ?
F29 C10 1.368(6) . ?
O22 C16 1.229(5) . ?
F25 C3 1.351(6) . ?
N18 H18 0.8800 . ?
N18 C19 1.338(5) . ?
N18 C17 1.454(5) . ?
N15 H15 0.8800 . ?
N15 C16 1.345(5) . ?
N15 C14 1.456(5) . ?
F28 C8 1.335(8) . ?
N11 H11 0.8800 . ?
N11 C1 1.370(6) . ?
N11 C12 1.460(6) . ?
F24 C5 1.346(8) . ?
C19 C40 1.505(5) . ?
C16 C17 1.531(5) . ?
C30 C31 1.444(6) . ?
C30 C39 1.435(6) . ?
C30 C40 1.418(6) . ?
C17 H17 1.0000 . ?
C17 C21 1.523(5) . ?
F27 C7 1.335(7) . ?
C31 H31 0.9500 . ?
C31 C32 1.355(6) . ?
C39 C34 1.432(6) . ?
C39 C38 1.424(7) . ?
C40 C41 1.399(6) . ?
F26 C6 1.362(8) . ?
C2 C1 1.430(7) . ?
C2 C3 1.344(7) . ?
C1 C10 1.365(7) . ?
C41 H41 0.9500 . ?
C41 C42 1.380(6) . ?
C12 H12A 0.9900 . ?
C12 H12B 0.9900 . ?
C12 C13 1.510(7) . ?
C14 H14A 0.9900 . ?
C14 H14B 0.9900 . ?
C14 C13 1.526(6) . ?
C32 H32 0.9500 . ?
C32 C33 1.434(7) . ?
C33 C34 1.408(7) . ?
C33 C43 1.407(7) . ?
C34 C35 1.437(7) . ?
C38 C42 1.384(7) . ?
C38 C37 1.444(6) . ?
C10 C9 1.403(8) . ?
C21 H21A 0.9800 . ?
C21 H21B 0.9800 . ?
C21 H21C 0.9800 . ?
C42 H42 0.9500 . ?
C37 H37 0.9500 . ?
C37 C36 1.331(8) . ?
C4 C3 1.403(7) . ?
C4 C9 1.418(8) . ?
C4 C5 1.418(8) . ?
C13 H13A 0.9900 . ?
C13 H13B 0.9900 . ?
C35 C36 1.421(8) . ?
C35 C45 1.410(8) . ?
C36 H36 0.9500 . ?
C9 C8 1.415(7) . ?
C45 H45 0.9500 . ?
C45 C44 1.365(10) . ?
C43 H43 0.9500 . ?
C43 C44 1.390(9) . ?
C8 C7 1.362(10) . ?
C44 H44 0.9500 . ?
C7 C6 1.378(11) . ?
C5 C6 1.352(9) . ?
loop_
_geom_torsion_atom_site_label_1
_geom_torsion_atom_site_label_2
_geom_torsion_atom_site_label_3
_geom_torsion_atom_site_label_4
_geom_torsion
_geom_torsion_site_symmetry_1
_geom_torsion_site_symmetry_2
_geom_torsion_site_symmetry_3
_geom_torsion_site_symmetry_4
_geom_torsion_publ_flag
F23 C2 C1 N11 1.0(6) . . . . ?
F23 C2 C1 C10 179.9(4) . . . . ?
F23 C2 C3 F25 2.3(7) . . . . ?
F23 C2 C3 C4 -179.8(4) . . . . ?
O20 C19 C40 C30 -24.9(6) . . . . ?
O20 C19 C40 C41 154.4(4) . . . . ?
F29 C10 C9 C4 179.0(4) . . . . ?
F29 C10 C9 C8 -1.1(7) . . . . ?
O22 C16 C17 N18 -39.1(5) . . . . ?
O22 C16 C17 C21 81.6(5) . . . . ?
N18 C19 C40 C30 155.1(4) . . . . ?
N18 C19 C40 C41 -25.7(5) . . . . ?
N15 C16 C17 N18 144.8(3) . . . . ?
N15 C16 C17 C21 -94.5(4) . . . . ?
N15 C14 C13 C12 70.7(4) . . . . ?
F28 C8 C7 F27 -2.5(8) . . . . ?
F28 C8 C7 C6 -180.0(5) . . . . ?
N11 C1 C10 F29 -1.3(7) . . . . ?
N11 C1 C10 C9 177.8(4) . . . . ?
N11 C12 C13 C14 -168.9(3) . . . . ?
F24 C5 C6 F26 0.9(9) . . . . ?
F24 C5 C6 C7 -179.9(5) . . . . ?
C19 N18 C17 C16 -69.1(4) . . . . ?
C19 N18 C17 C21 171.1(4) . . . . ?
C19 C40 C41 C42 179.4(4) . . . . ?
C16 N15 C14 C13 177.0(4) . . . . ?
C30 C31 C32 C33 1.0(7) . . . . ?
C30 C39 C34 C33 0.0(6) . . . . ?
C30 C39 C34 C35 180.0(4) . . . . ?
C30 C39 C38 C42 -0.2(6) . . . . ?
C30 C39 C38 C37 -179.5(4) . . . . ?
C30 C40 C41 C42 -1.3(6) . . . . ?
C17 N18 C19 O20 -2.7(5) . . . . ?
C17 N18 C19 C40 177.4(4) . . . . ?
F27 C7 C6 F26 1.5(9) . . . . ?
F27 C7 C6 C5 -177.7(5) . . . . ?
C31 C30 C39 C34 -0.1(6) . . . . ?
C31 C30 C39 C38 179.8(4) . . . . ?
C31 C30 C40 C19 0.0(6) . . . . ?
C31 C30 C40 C41 -179.2(4) . . . . ?
C31 C32 C33 C34 -1.1(6) . . . . ?
C31 C32 C33 C43 178.2(5) . . . . ?
C39 C30 C31 C32 -0.4(6) . . . . ?
C39 C30 C40 C19 -177.9(3) . . . . ?
C39 C30 C40 C41 2.9(6) . . . . ?
C39 C34 C35 C36 -0.2(7) . . . . ?
C39 C34 C35 C45 179.1(4) . . . . ?
C39 C38 C42 C41 1.9(7) . . . . ?
C39 C38 C37 C36 -0.8(7) . . . . ?
C40 C30 C31 C32 -178.3(4) . . . . ?
C40 C30 C39 C34 177.9(4) . . . . ?
C40 C30 C39 C38 -2.1(6) . . . . ?
C40 C41 C42 C38 -1.1(7) . . . . ?
C2 C1 C10 F29 179.9(4) . . . . ?
C2 C1 C10 C9 -0.9(7) . . . . ?
C1 N11 C12 C13 179.2(4) . . . . ?
C1 C2 C3 F25 -179.9(4) . . . . ?
C1 C2 C3 C4 -2.0(8) . . . . ?
C1 C10 C9 C4 -0.1(7) . . . . ?
C1 C10 C9 C8 179.8(5) . . . . ?
C12 N11 C1 C2 -170.7(4) . . . . ?
C12 N11 C1 C10 10.5(8) . . . . ?
C14 N15 C16 O22 -0.4(6) . . . . ?
C14 N15 C16 C17 175.7(4) . . . . ?
C32 C33 C34 C39 0.6(6) . . . . ?
C32 C33 C34 C35 -179.4(4) . . . . ?
C32 C33 C43 C44 179.8(5) . . . . ?
C33 C34 C35 C36 179.8(4) . . . . ?
C33 C34 C35 C45 -1.0(7) . . . . ?
C33 C43 C44 C45 0.3(8) . . . . ?
C34 C39 C38 C42 179.7(4) . . . . ?
C34 C39 C38 C37 0.4(6) . . . . ?
C34 C33 C43 C44 -1.0(7) . . . . ?
C34 C35 C36 C37 -0.2(8) . . . . ?
C34 C35 C45 C44 0.3(8) . . . . ?
C38 C39 C34 C33 -179.9(4) . . . . ?
C38 C39 C34 C35 0.1(6) . . . . ?
C38 C37 C36 C35 0.7(8) . . . . ?
C10 C9 C8 F28 -0.3(8) . . . . ?
C10 C9 C8 C7 179.7(5) . . . . ?
C42 C38 C37 C36 179.9(5) . . . . ?
C37 C38 C42 C41 -178.8(4) . . . . ?
C4 C9 C8 F28 179.7(4) . . . . ?
C4 C9 C8 C7 -0.4(8) . . . . ?
C4 C5 C6 F26 -178.6(5) . . . . ?
C4 C5 C6 C7 0.5(9) . . . . ?
C35 C45 C44 C43 0.0(9) . . . . ?
C3 C2 C1 N11 -176.9(4) . . . . ?
C3 C2 C1 C10 2.0(7) . . . . ?
C3 C4 C9 C10 0.3(7) . . . . ?
C3 C4 C9 C8 -179.7(5) . . . . ?
C3 C4 C5 F24 0.1(8) . . . . ?
C3 C4 C5 C6 179.6(5) . . . . ?
C36 C35 C45 C44 179.5(5) . . . . ?
C9 C4 C3 F25 178.6(4) . . . . ?
C9 C4 C3 C2 0.8(7) . . . . ?
C9 C4 C5 F24 179.7(5) . . . . ?
C9 C4 C5 C6 -0.8(8) . . . . ?
C9 C8 C7 F27 177.5(5) . . . . ?
C9 C8 C7 C6 0.1(9) . . . . ?
C45 C35 C36 C37 -179.4(5) . . . . ?
C43 C33 C34 C39 -178.7(4) . . . . ?
C43 C33 C34 C35 1.3(7) . . . . ?
C8 C7 C6 F26 179.0(5) . . . . ?
C8 C7 C6 C5 -0.2(9) . . . . ?
C5 C4 C3 F25 -1.8(8) . . . . ?
C5 C4 C3 C2 -179.6(5) . . . . ?
C5 C4 C9 C10 -179.3(4) . . . . ?
C5 C4 C9 C8 0.7(7) . . . . ?
loop_
_smtbx_masks_void_nr
_smtbx_masks_void_average_x
_smtbx_masks_void_average_y
_smtbx_masks_void_average_z
_smtbx_masks_void_volume
_smtbx_masks_void_count_electrons
_smtbx_masks_void_content
1 -0.283 0.115 0.250 107.8 29.8 ?
2 -0.664 0.385 0.750 107.8 29.7 ?
3 -0.284 0.615 0.250 107.8 29.8 ?
4 -0.232 0.885 0.750 107.8 29.7 ?
