#------------------------------------------------------------------------------
#$Date: 2024-02-05 14:10:53 +0200 (Mon, 05 Feb 2024) $
#$Revision: 289698 $
#$URL: file:///home/coder/svn-repositories/cod/cif/1/57/03/1570305.cif $
#------------------------------------------------------------------------------
#
# This file is available in the Crystallography Open Database (COD),
# http://www.crystallography.net/
#
# All data on this site have been placed in the public domain by the
# contributors.
#
data_1570305
loop_
_publ_author_name
'Chen, An'
'Cai, Peishan'
'Peng, Yayun'
'Guo, Minshan'
'Su, Yuan'
'Cai, Ting'
_publ_section_title
;
 The role of alkyl chain length in the melt and solution crystallization
 of paliperidone aliphatic prodrugs.
;
_journal_issue                   'Pt 1'
_journal_name_full               IUCrJ
_journal_page_first              23
_journal_page_last               33
_journal_paper_doi               10.1107/S2052252523009582
_journal_volume                  11
_journal_year                    2024
_chemical_formula_moiety         'C39 H57 F N4 O4'
_chemical_formula_sum            'C39 H57 F N4 O4'
_chemical_formula_weight         664.88
_space_group_crystal_system      monoclinic
_space_group_IT_number           14
_space_group_name_Hall           '-P 2ybc'
_space_group_name_H-M_alt        'P 1 21/c 1'
_atom_sites_solution_hydrogens   geom
_atom_sites_solution_primary     dual
_audit_creation_date             2020-08-25
_audit_creation_method
;
Olex2 1.2
(compiled 2018.05.29 svn.r3508 for OlexSys, GUI svn.r5506)
;
_cell_angle_alpha                90
_cell_angle_beta                 92.992(3)
_cell_angle_gamma                90
_cell_formula_units_Z            4
_cell_length_a                   34.188(3)
_cell_length_b                   9.8280(9)
_cell_length_c                   10.8068(9)
_cell_measurement_reflns_used    4887
_cell_measurement_temperature    100
_cell_measurement_theta_max      25.667
_cell_measurement_theta_min      2.156
_cell_volume                     3626.1(6)
_computing_cell_refinement       'SAINT V8.40A (?, 2016)'
_computing_data_reduction        'SAINT V8.40A (?, 2016)'
_computing_molecular_graphics    'Olex2 (Dolomanov et al., 2009)'
_computing_publication_material  'Olex2 (Dolomanov et al., 2009)'
_computing_structure_refinement  'ShelXL (Sheldrick, 2015)'
_computing_structure_solution    'XT (Sheldrick, 2015)'
_diffrn_ambient_temperature      100.0
_diffrn_measured_fraction_theta_full 0.995
_diffrn_measured_fraction_theta_max 0.984
_diffrn_measurement_device_type  'Bruker D8 VENTURE'
_diffrn_measurement_method       '\f and \w scans'
_diffrn_radiation_type           MoK\a
_diffrn_radiation_wavelength     0.71073
_diffrn_reflns_av_R_equivalents  0.0708
_diffrn_reflns_av_unetI/netI     0.0834
_diffrn_reflns_Laue_measured_fraction_full 0.995
_diffrn_reflns_Laue_measured_fraction_max 0.984
_diffrn_reflns_limit_h_max       42
_diffrn_reflns_limit_h_min       -42
_diffrn_reflns_limit_k_max       12
_diffrn_reflns_limit_k_min       -11
_diffrn_reflns_limit_l_max       13
_diffrn_reflns_limit_l_min       -12
_diffrn_reflns_number            25113
_diffrn_reflns_point_group_measured_fraction_full 0.995
_diffrn_reflns_point_group_measured_fraction_max 0.984
_diffrn_reflns_theta_full        25.242
_diffrn_reflns_theta_max         26.416
_diffrn_reflns_theta_min         2.156
_diffrn_standards_number         0
_exptl_absorpt_coefficient_mu    0.082
_exptl_absorpt_correction_T_max  0.7454
_exptl_absorpt_correction_T_min  0.5723
_exptl_absorpt_correction_type   multi-scan
_exptl_absorpt_process_details
'SADABS-2016/2 (Bruker,2016/2) was used for absorption correction. wR2(int) was 0.1514 before and 0.0838 after correction. The Ratio of minimum to maximum transmission is 0.7678. The \l/2 correction factor is Not present.'
_exptl_crystal_colour            colourless
_exptl_crystal_colour_primary    colourless
_exptl_crystal_density_diffrn    1.218
_exptl_crystal_description       plate
_exptl_crystal_F_000             1440
_exptl_crystal_size_max          0.14
_exptl_crystal_size_mid          0.06
_exptl_crystal_size_min          0.03
_refine_diff_density_max         0.227
_refine_diff_density_min         -0.250
_refine_diff_density_rms         0.059
_refine_ls_extinction_method     none
_refine_ls_goodness_of_fit_ref   1.016
_refine_ls_hydrogen_treatment    constr
_refine_ls_matrix_type           full
_refine_ls_number_parameters     435
_refine_ls_number_reflns         7346
_refine_ls_number_restraints     0
_refine_ls_restrained_S_all      1.016
_refine_ls_R_factor_all          0.1155
_refine_ls_R_factor_gt           0.0556
_refine_ls_shift/su_max          0.001
_refine_ls_shift/su_mean         0.000
_refine_ls_structure_factor_coef Fsqd
_refine_ls_weighting_details
'w=1/[\s^2^(Fo^2^)+(0.0631P)^2^+0.7558P] where P=(Fo^2^+2Fc^2^)/3'
_refine_ls_weighting_scheme      calc
_refine_ls_wR_factor_gt          0.1165
_refine_ls_wR_factor_ref         0.1462
_reflns_Friedel_coverage         0.000
_reflns_number_gt                4434
_reflns_number_total             7346
_reflns_threshold_expression     'I > 2\s(I)'
_iucr_refine_instructions_details
;
TITL 1_a.res in P2(1)/c
    1.res
    created by SHELXL-2018/3 at 19:34:03 on 25-Aug-2020
REM Old TITL 1 in P2(1)/c
REM SHELXT solution in P2(1)/c
REM R1 0.175, Rweak 0.012, Alpha 0.034, Orientation as input
REM Formula found by SHELXT: C39 N4 O4 F
CELL 0.71073 34.1881 9.828 10.8068 90 92.992 90
ZERR 4 0.0028 0.0009 0.0009 0 0.003 0
LATT 1
SYMM -X,0.5+Y,0.5-Z
SFAC C H F N O
UNIT 156 228 4 16 16

L.S. 4
PLAN  20
SIZE 0.14 0.06 0.03
TEMP -173.15
BOND $H
list 4
fmap 2
ACTA
REM <olex2.extras>
REM <HklSrc "%.\\1.hkl">
REM </olex2.extras>

WGHT    0.063100    0.755800
FVAR       0.36546
F1    3    0.221179    0.229160   -0.492789    11.00000    0.02514    0.04867 =
         0.04293   -0.00197   -0.00910   -0.00618
O2    5    0.602613    0.555965   -0.322147    11.00000    0.02887    0.02543 =
         0.01999    0.00261   -0.00272    0.00267
O3    5    0.737172    0.369794   -0.085702    11.00000    0.02175    0.02840 =
         0.02228   -0.00158   -0.00418    0.00158
O1    5    0.305212    0.492457   -0.219629    11.00000    0.02387    0.02864 =
         0.02848   -0.00393   -0.00057    0.00136
O4    5    0.779883    0.195101   -0.080159    11.00000    0.02884    0.03448 =
         0.03168   -0.00441   -0.00557    0.00451
N3    4    0.655721    0.436894   -0.247394    11.00000    0.02264    0.02149 =
         0.01692    0.00068   -0.00018   -0.00059
N007  4    0.652334    0.292260   -0.074905    11.00000    0.02418    0.02499 =
         0.02053   -0.00038   -0.00139    0.00040
N2    4    0.485870    0.429949   -0.237861    11.00000    0.02056    0.03167 =
         0.01809    0.00130   -0.00154   -0.00054
N1    4    0.347007    0.485947   -0.194844    11.00000    0.02124    0.03249 =
         0.02802   -0.00341   -0.00174    0.00131
C19   1    0.616386    0.476415   -0.242491    11.00000    0.02355    0.02145 =
         0.01793   -0.00391   -0.00336    0.00043
C16   1    0.595179    0.419782   -0.143316    11.00000    0.02197    0.02495 =
         0.01771   -0.00463   -0.00118   -0.00053
C17   1    0.613874    0.331488   -0.063161    11.00000    0.02107    0.02369 =
         0.02066   -0.00216   -0.00044   -0.00175
C8    1    0.360060    0.389943   -0.264841    11.00000    0.02562    0.02480 =
         0.01909    0.00420   -0.00081    0.00054
C6    1    0.325612    0.220495   -0.424067    11.00000    0.02610    0.02552 =
         0.02191    0.00140   -0.00141    0.00118
AFIX  43
H6    2    0.348102    0.172055   -0.447534    11.00000   -1.20000
AFIX   0
C9    1    0.402887    0.359375   -0.268325    11.00000    0.02288    0.02108 =
         0.01945   -0.00085   -0.00093   -0.00083
AFIX  13
H9    2    0.405582    0.264789   -0.300907    11.00000   -1.20000
AFIX   0
C24   1    0.671408    0.344325   -0.164198    11.00000    0.02393    0.02192 =
         0.01884   -0.00183   -0.00373   -0.00048
C11   1    0.467889    0.335349   -0.152748    11.00000    0.02564    0.02657 =
         0.01991    0.00075   -0.00242   -0.00032
AFIX  23
H11A  2    0.481630    0.342015   -0.070037    11.00000   -1.20000
H11B  2    0.470963    0.241126   -0.183148    11.00000   -1.20000
AFIX   0
C5    1    0.328790    0.325872   -0.338118    11.00000    0.02215    0.02558 =
         0.01953    0.00182   -0.00041   -0.00041
C4    1    0.295525    0.395096   -0.305372    11.00000    0.02843    0.02312 =
         0.02153    0.00208   -0.00067    0.00072
C14   1    0.552748    0.461298   -0.140213    11.00000    0.02276    0.02542 =
         0.02043   -0.00095   -0.00095   -0.00049
AFIX  23
H14A  2    0.550856    0.561690   -0.145101    11.00000   -1.20000
H14B  2    0.542428    0.432401   -0.060439    11.00000   -1.20000
AFIX   0
C10   1    0.424563    0.365423   -0.141016    11.00000    0.02444    0.02492 =
         0.01976    0.00063    0.00009    0.00024
AFIX  23
H10A  2    0.421425    0.456944   -0.104570    11.00000   -1.20000
H10B  2    0.413191    0.297980   -0.085106    11.00000   -1.20000
AFIX   0
C25   1    0.770837    0.306868   -0.045950    11.00000    0.02236    0.03213 =
         0.02197    0.00382    0.00011   -0.00119
C7    1    0.288769    0.188443   -0.474238    11.00000    0.03117    0.02639 =
         0.02324    0.00134   -0.00155   -0.00191
AFIX  43
H7    2    0.285384    0.116713   -0.532746    11.00000   -1.20000
AFIX   0
C23   1    0.712791    0.294957   -0.177310    11.00000    0.02024    0.02887 =
         0.01984   -0.00508   -0.00179   -0.00153
AFIX  13
H23   2    0.714258    0.195472   -0.158213    11.00000   -1.20000
AFIX   0
C20   1    0.676608    0.493809   -0.352070    11.00000    0.02873    0.03139 =
         0.01979    0.00272    0.00356   -0.00560
AFIX  23
H20A  2    0.672044    0.593217   -0.356199    11.00000   -1.20000
H20B  2    0.665692    0.453387   -0.430368    11.00000   -1.20000
AFIX   0
C3    1    0.258084    0.366819   -0.354500    11.00000    0.02339    0.03176 =
         0.02866    0.00597    0.00078    0.00184
AFIX  43
H3    2    0.235520    0.415532   -0.332089    11.00000   -1.20000
AFIX   0
C21   1    0.720223    0.467232   -0.340648    11.00000    0.02654    0.03524 =
         0.02484    0.00192    0.00250   -0.00415
AFIX  23
H21A  2    0.732656    0.527936   -0.276936    11.00000   -1.20000
H21B  2    0.731957    0.486531   -0.420624    11.00000   -1.20000
AFIX   0
C13   1    0.422564    0.455617   -0.356853    11.00000    0.02718    0.03164 =
         0.02030    0.00281   -0.00286    0.00013
AFIX  23
H13A  2    0.409884    0.446852   -0.440947    11.00000   -1.20000
H13B  2    0.419357    0.550745   -0.329007    11.00000   -1.20000
AFIX   0
C26   1    0.794018    0.394019    0.044569    11.00000    0.02233    0.03074 =
         0.02580    0.00251   -0.00339   -0.00109
AFIX  23
H26A  2    0.776492    0.427040    0.108194    11.00000   -1.20000
H26B  2    0.803770    0.474469    0.000462    11.00000   -1.20000
AFIX   0
C15   1    0.527669    0.398753   -0.246588    11.00000    0.02337    0.02945 =
         0.02223   -0.00305   -0.00005    0.00075
AFIX  23
H15A  2    0.536598    0.433738   -0.326257    11.00000   -1.20000
H15B  2    0.531297    0.298812   -0.245884    11.00000   -1.20000
AFIX   0
C27   1    0.828679    0.320981    0.108844    11.00000    0.02133    0.03719 =
         0.02480    0.00216   -0.00301    0.00200
AFIX  23
H27A  2    0.819470    0.234547    0.144297    11.00000   -1.20000
H27B  2    0.847921    0.298300    0.046669    11.00000   -1.20000
AFIX   0
C22   1    0.727492    0.320008   -0.304686    11.00000    0.02463    0.03847 =
         0.02487   -0.00451    0.00127    0.00125
AFIX  23
H22A  2    0.713700    0.259293   -0.365656    11.00000   -1.20000
H22B  2    0.755867    0.299874   -0.304550    11.00000   -1.20000
AFIX   0
C18   1    0.595543    0.265700    0.044814    11.00000    0.02853    0.02851 =
         0.02444    0.00384    0.00174    0.00038
AFIX 137
H18A  2    0.598166    0.166655    0.038807    11.00000   -1.50000
H18B  2    0.567729    0.289974    0.044064    11.00000   -1.50000
H18C  2    0.608756    0.297478    0.122136    11.00000   -1.50000
AFIX   0
C28   1    0.848804    0.404905    0.211265    11.00000    0.02342    0.03395 =
         0.02359    0.00227   -0.00224   -0.00179
AFIX  23
H28A  2    0.829074    0.434531    0.269497    11.00000   -1.20000
H28B  2    0.860088    0.487493    0.174656    11.00000   -1.20000
AFIX   0
C29   1    0.881142    0.327418    0.282792    11.00000    0.02399    0.03654 =
         0.02298    0.00021   -0.00456    0.00057
AFIX  23
H29A  2    0.901370    0.301393    0.224909    11.00000   -1.20000
H29B  2    0.870020    0.242584    0.315673    11.00000   -1.20000
AFIX   0
C2    1    0.256706    0.262726   -0.437836    11.00000    0.02200    0.03505 =
         0.02773    0.00548   -0.00625   -0.00549
C33   1    0.984172    0.326359    0.640408    11.00000    0.02385    0.03519 =
         0.02505   -0.00152   -0.00180   -0.00067
AFIX  23
H33A  2    1.004423    0.300800    0.582444    11.00000   -1.20000
H33B  2    0.972822    0.241288    0.672015    11.00000   -1.20000
AFIX   0
C12   1    0.465921    0.422382   -0.360960    11.00000    0.02473    0.03583 =
         0.01788    0.00252   -0.00172   -0.00131
AFIX  23
H12A  2    0.468961    0.329622   -0.394859    11.00000   -1.20000
H12B  2    0.478343    0.487087   -0.417127    11.00000   -1.20000
AFIX   0
C37   1    1.087886    0.325897    0.998001    11.00000    0.02676    0.03537 =
         0.02368   -0.00098   -0.00258   -0.00111
AFIX  23
H37A  2    1.076591    0.242201    1.032542    11.00000   -1.20000
H37B  2    1.107718    0.297908    0.939480    11.00000   -1.20000
AFIX   0
C34   1    1.003636    0.404244    0.748829    11.00000    0.02433    0.03349 =
         0.02620   -0.00072   -0.00265   -0.00052
AFIX  23
H34A  2    1.014884    0.489463    0.717173    11.00000   -1.20000
H34B  2    0.983371    0.429599    0.806814    11.00000   -1.20000
AFIX   0
C36   1    1.055479    0.404210    0.926870    11.00000    0.02531    0.03351 =
         0.02536    0.00234   -0.00281    0.00123
AFIX  23
H36A  2    1.035355    0.430238    0.985108    11.00000   -1.20000
H36B  2    1.066665    0.489068    0.894251    11.00000   -1.20000
AFIX   0
C32   1    0.952083    0.405931    0.569655    11.00000    0.02588    0.03626 =
         0.02310    0.00048   -0.00326    0.00142
AFIX  23
H32A  2    0.963437    0.490837    0.537718    11.00000   -1.20000
H32B  2    0.931858    0.431751    0.627618    11.00000   -1.20000
AFIX   0
C31   1    0.932582    0.327348    0.461438    11.00000    0.02226    0.03866 =
         0.02317    0.00044   -0.00362    0.00046
AFIX  23
H31A  2    0.952842    0.300996    0.403783    11.00000   -1.20000
H31B  2    0.921086    0.242732    0.493473    11.00000   -1.20000
AFIX   0
C30   1    0.900606    0.407222    0.389942    11.00000    0.02456    0.03572 =
         0.02433    0.00022   -0.00298    0.00014
AFIX  23
H30A  2    0.880399    0.434149    0.447576    11.00000   -1.20000
H30B  2    0.912108    0.491458    0.357154    11.00000   -1.20000
AFIX   0
C35   1    1.035777    0.325541    0.819641    11.00000    0.02522    0.03483 =
         0.02439   -0.00072   -0.00314   -0.00169
AFIX  23
H35A  2    1.055896    0.299214    0.761488    11.00000   -1.20000
H35B  2    1.024469    0.240878    0.852237    11.00000   -1.20000
AFIX   0
C38   1    1.108104    0.406569    1.103150    11.00000    0.02721    0.03761 =
         0.02565    0.00268   -0.00115   -0.00078
AFIX  23
H38A  2    1.119885    0.489307    1.068416    11.00000   -1.20000
H38B  2    1.088202    0.436167    1.160808    11.00000   -1.20000
AFIX   0
C39   1    1.139856    0.327234    1.175529    11.00000    0.02786    0.04636 =
         0.02816    0.00079   -0.00427    0.00086
AFIX  23
H39A  2    1.158675    0.291538    1.116964    11.00000   -1.20000
H39B  2    1.127732    0.248380    1.215745    11.00000   -1.20000
AFIX   0
C40   1    1.162126    0.411609    1.274399    11.00000    0.04091    0.06374 =
         0.03928    0.00128   -0.01507   -0.00299
AFIX 137
H40A  2    1.175492    0.487012    1.234916    11.00000   -1.50000
H40B  2    1.181502    0.354092    1.319315    11.00000   -1.50000
H40C  2    1.143699    0.447964    1.332525    11.00000   -1.50000
AFIX   0
HKLF 4




REM  1_a.res in P2(1)/c
REM wR2 = 0.1462, GooF = S = 1.016, Restrained GooF = 1.016 for all data
REM R1 = 0.0556 for 4434 Fo > 4sig(Fo) and 0.1155 for all 7346 data
REM 435 parameters refined using 0 restraints

END  
     
WGHT      0.0524      1.1522 

REM Highest difference peak  0.227,  deepest hole -0.250,  1-sigma level  0.059
Q1    1   1.0869  0.1108  1.0462  11.00000  0.05    0.22
Q2    1   0.9076  0.1457  0.4588  11.00000  0.05    0.20
Q3    1   0.8873  0.5662  0.4012  11.00000  0.05    0.20
Q4    1   0.9024  0.5176  0.3805  11.00000  0.05    0.20
Q5    1   0.2189  0.4802 -0.4892  11.00000  0.05    0.20
Q6    1   0.8204  0.2209 -0.1322  11.00000  0.05    0.19
Q7    1   1.1200  0.5798  1.0146  11.00000  0.05    0.19
Q8    1   0.5693  0.6273 -0.0967  11.00000  0.05    0.19
Q9    1   0.3948  0.5303 -0.4248  11.00000  0.05    0.19
Q10   1   0.6292  0.6723 -0.3146  11.00000  0.05    0.19
Q11   1   1.1270  0.1798  1.1902  11.00000  0.05    0.19
Q12   1   1.1489  0.2092  1.1715  11.00000  0.05    0.19
Q13   1   0.2396  0.2387 -0.6071  11.00000  0.05    0.19
Q14   1   0.6572  0.1185 -0.1502  11.00000  0.05    0.18
Q15   1   1.1003  0.1979  0.9588  11.00000  0.05    0.18
Q16   1   0.8404  0.4181  0.5183  11.00000  0.05    0.18
Q17   1   0.4013  0.2027 -0.1750  11.00000  0.05    0.18
Q18   1   0.8114  0.1279  0.0609  11.00000  0.05    0.18
Q19   1   0.8187  0.3801  0.3093  11.00000  0.05    0.18
Q20   1   0.5479  0.5903 -0.0333  11.00000  0.05    0.18

  REM The information below was added by Olex2.
  REM
  REM R1 = 0.0556 for 4434 Fo > 4sig(Fo) and 0.1155 for all 26050 data
  REM n/a parameters refined using n/a restraints
  REM Highest difference peak 0.23, deepest hole -0.25
  REM Mean Shift 0, Max Shift -0.001.

  REM +++ Tabular Listing of Refinement Information +++
  REM R1_all = 0.1155
  REM R1_gt = 0.0556
  REM wR_ref = 0.1462
  REM GOOF = 1.016
  REM Shift_max = -0.001
  REM Shift_mean = 0
  REM Reflections_all = 26050
  REM Reflections_gt = 4434
  REM Parameters = n/a
  REM Hole = -0.25
  REM Peak = 0.23
  REM Flack = n/a

  
;
_cod_data_source_file            lq5053.cif
_cod_data_source_block           PC16
_cod_depositor_comments
'Adding full bibliography for 1570302--1570305.cif.'
_cod_original_cell_volume        3626.1(5)
_cod_database_code               1570305
_shelx_shelxl_version_number     2018/3
_shelx_space_group_comment
;
The symmetry employed for this shelxl refinement is uniquely defined
by the following loop, which should always be used as a source of
symmetry information in preference to the above space-group names.
They are only intended as comments.
;
_shelx_estimated_absorpt_t_max   0.998
_shelx_estimated_absorpt_t_min   0.989
_olex2_refinement_description
;
1. Fixed Uiso
 At 1.2 times of:
  All C(H) groups, All C(H,H) groups
 At 1.5 times of:
  All C(H,H,H) groups
2.a Ternary CH refined with riding coordinates:
 C9(H9), C23(H23)
2.b Secondary CH2 refined with riding coordinates:
 C11(H11A,H11B), C14(H14A,H14B), C10(H10A,H10B), C20(H20A,H20B), C21(H21A,
 H21B), C13(H13A,H13B), C26(H26A,H26B), C15(H15A,H15B), C27(H27A,H27B),
 C22(H22A,H22B), C28(H28A,H28B), C29(H29A,H29B), C33(H33A,H33B), C12(H12A,H12B),
  C37(H37A,H37B), C34(H34A,H34B), C36(H36A,H36B), C32(H32A,H32B), C31(H31A,
 H31B), C30(H30A,H30B), C35(H35A,H35B), C38(H38A,H38B), C39(H39A,H39B)
2.c Aromatic/amide H refined with riding coordinates:
 C6(H6), C7(H7), C3(H3)
2.d Idealised Me refined as rotating group:
 C18(H18A,H18B,H18C), C40(H40A,H40B,H40C)
;
_olex2_submission_special_instructions 'No special instructions were received'
loop_
_space_group_symop_operation_xyz
'x, y, z'
'-x, y+1/2, -z+1/2'
'-x, -y, -z'
'x, -y-1/2, z-1/2'
loop_
_atom_site_label
_atom_site_type_symbol
_atom_site_fract_x
_atom_site_fract_y
_atom_site_fract_z
_atom_site_U_iso_or_equiv
_atom_site_adp_type
_atom_site_occupancy
_atom_site_site_symmetry_order
_atom_site_calc_flag
_atom_site_refinement_flags_posn
_atom_site_refinement_flags_adp
_atom_site_refinement_flags_occupancy
_atom_site_disorder_assembly
_atom_site_disorder_group
F1 F 0.22118(4) 0.22916(16) -0.49279(13) 0.0393(4) Uani 1 1 d . . . . .
O2 O 0.60261(4) 0.55596(16) -0.32215(14) 0.0249(4) Uani 1 1 d . . . . .
O3 O 0.73717(4) 0.36979(16) -0.08570(14) 0.0243(4) Uani 1 1 d . . . . .
O1 O 0.30521(4) 0.49246(17) -0.21963(14) 0.0271(4) Uani 1 1 d . . . . .
O4 O 0.77988(4) 0.19510(18) -0.08016(15) 0.0319(4) Uani 1 1 d . . . . .
N3 N 0.65572(5) 0.43689(19) -0.24739(16) 0.0204(4) Uani 1 1 d . . . . .
N007 N 0.65233(5) 0.2923(2) -0.07490(17) 0.0233(5) Uani 1 1 d . . . . .
N2 N 0.48587(5) 0.4299(2) -0.23786(16) 0.0235(5) Uani 1 1 d . . . . .
N1 N 0.34701(5) 0.4859(2) -0.19484(17) 0.0274(5) Uani 1 1 d . . . . .
C19 C 0.61639(6) 0.4764(2) -0.24249(19) 0.0211(5) Uani 1 1 d . . . . .
C16 C 0.59518(6) 0.4198(2) -0.14332(19) 0.0216(5) Uani 1 1 d . . . . .
C17 C 0.61387(6) 0.3315(2) -0.0632(2) 0.0219(5) Uani 1 1 d . . . . .
C8 C 0.36006(6) 0.3899(2) -0.2648(2) 0.0232(5) Uani 1 1 d . . . . .
C6 C 0.32561(6) 0.2205(2) -0.4241(2) 0.0246(5) Uani 1 1 d . . . . .
H6 H 0.348102 0.172055 -0.447534 0.030 Uiso 1 1 calc R . . . .
C9 C 0.40289(6) 0.3594(2) -0.26832(19) 0.0212(5) Uani 1 1 d . . . . .
H9 H 0.405582 0.264789 -0.300907 0.025 Uiso 1 1 calc R . . . .
C24 C 0.67141(6) 0.3443(2) -0.1642(2) 0.0217(5) Uani 1 1 d . . . . .
C11 C 0.46789(6) 0.3353(2) -0.1527(2) 0.0242(5) Uani 1 1 d . . . . .
H11A H 0.481630 0.342015 -0.070037 0.029 Uiso 1 1 calc R . . . .
H11B H 0.470963 0.241126 -0.183148 0.029 Uiso 1 1 calc R . . . .
C5 C 0.32879(6) 0.3259(2) -0.3381(2) 0.0225(5) Uani 1 1 d . . . . .
C4 C 0.29553(7) 0.3951(2) -0.3054(2) 0.0244(5) Uani 1 1 d . . . . .
C14 C 0.55275(6) 0.4613(3) -0.1402(2) 0.0229(5) Uani 1 1 d . . . . .
H14A H 0.550856 0.561690 -0.145101 0.028 Uiso 1 1 calc R . . . .
H14B H 0.542428 0.432401 -0.060439 0.028 Uiso 1 1 calc R . . . .
C10 C 0.42456(6) 0.3654(3) -0.1410(2) 0.0231(5) Uani 1 1 d . . . . .
H10A H 0.421425 0.456944 -0.104570 0.028 Uiso 1 1 calc R . . . .
H10B H 0.413191 0.297980 -0.085106 0.028 Uiso 1 1 calc R . . . .
C25 C 0.77084(6) 0.3069(3) -0.0459(2) 0.0255(6) Uani 1 1 d . . . . .
C7 C 0.28877(7) 0.1884(3) -0.4742(2) 0.0270(6) Uani 1 1 d . . . . .
H7 H 0.285384 0.116713 -0.532746 0.032 Uiso 1 1 calc R . . . .
C23 C 0.71279(6) 0.2950(3) -0.17731(19) 0.0231(5) Uani 1 1 d . . . . .
H23 H 0.714258 0.195472 -0.158213 0.028 Uiso 1 1 calc R . . . .
C20 C 0.67661(6) 0.4938(3) -0.3521(2) 0.0266(6) Uani 1 1 d . . . . .
H20A H 0.672044 0.593217 -0.356199 0.032 Uiso 1 1 calc R . . . .
H20B H 0.665692 0.453387 -0.430368 0.032 Uiso 1 1 calc R . . . .
C3 C 0.25808(7) 0.3668(3) -0.3545(2) 0.0280(6) Uani 1 1 d . . . . .
H3 H 0.235520 0.415532 -0.332089 0.034 Uiso 1 1 calc R . . . .
C21 C 0.72022(6) 0.4672(3) -0.3406(2) 0.0288(6) Uani 1 1 d . . . . .
H21A H 0.732656 0.527936 -0.276936 0.035 Uiso 1 1 calc R . . . .
H21B H 0.731957 0.486531 -0.420624 0.035 Uiso 1 1 calc R . . . .
C13 C 0.42256(6) 0.4556(3) -0.3569(2) 0.0265(6) Uani 1 1 d . . . . .
H13A H 0.409884 0.446852 -0.440947 0.032 Uiso 1 1 calc R . . . .
H13B H 0.419357 0.550745 -0.329007 0.032 Uiso 1 1 calc R . . . .
C26 C 0.79402(6) 0.3940(3) 0.0446(2) 0.0265(6) Uani 1 1 d . . . . .
H26A H 0.776492 0.427040 0.108194 0.032 Uiso 1 1 calc R . . . .
H26B H 0.803770 0.474469 0.000462 0.032 Uiso 1 1 calc R . . . .
C15 C 0.52767(6) 0.3988(3) -0.2466(2) 0.0251(5) Uani 1 1 d . . . . .
H15A H 0.536598 0.433738 -0.326257 0.030 Uiso 1 1 calc R . . . .
H15B H 0.531297 0.298812 -0.245884 0.030 Uiso 1 1 calc R . . . .
C27 C 0.82868(6) 0.3210(3) 0.1088(2) 0.0279(6) Uani 1 1 d . . . . .
H27A H 0.819470 0.234547 0.144297 0.034 Uiso 1 1 calc R . . . .
H27B H 0.847921 0.298300 0.046669 0.034 Uiso 1 1 calc R . . . .
C22 C 0.72749(7) 0.3200(3) -0.3047(2) 0.0293(6) Uani 1 1 d . . . . .
H22A H 0.713700 0.259293 -0.365656 0.035 Uiso 1 1 calc R . . . .
H22B H 0.755867 0.299874 -0.304550 0.035 Uiso 1 1 calc R . . . .
C18 C 0.59554(6) 0.2657(3) 0.0448(2) 0.0272(6) Uani 1 1 d . . . . .
H18A H 0.598166 0.166655 0.038807 0.041 Uiso 1 1 calc GR . . . .
H18B H 0.567729 0.289974 0.044064 0.041 Uiso 1 1 calc GR . . . .
H18C H 0.608756 0.297478 0.122136 0.041 Uiso 1 1 calc GR . . . .
C28 C 0.84880(6) 0.4049(3) 0.2113(2) 0.0271(6) Uani 1 1 d . . . . .
H28A H 0.829074 0.434531 0.269497 0.033 Uiso 1 1 calc R . . . .
H28B H 0.860088 0.487493 0.174656 0.033 Uiso 1 1 calc R . . . .
C29 C 0.88114(6) 0.3274(3) 0.2828(2) 0.0280(6) Uani 1 1 d . . . . .
H29A H 0.901370 0.301393 0.224909 0.034 Uiso 1 1 calc R . . . .
H29B H 0.870020 0.242584 0.315673 0.034 Uiso 1 1 calc R . . . .
C2 C 0.25671(6) 0.2627(3) -0.4378(2) 0.0285(6) Uani 1 1 d . . . . .
C33 C 0.98417(6) 0.3264(3) 0.6404(2) 0.0281(6) Uani 1 1 d . . . . .
H33A H 1.004423 0.300800 0.582444 0.034 Uiso 1 1 calc R . . . .
H33B H 0.972822 0.241288 0.672015 0.034 Uiso 1 1 calc R . . . .
C12 C 0.46592(6) 0.4224(3) -0.3610(2) 0.0262(6) Uani 1 1 d . . . . .
H12A H 0.468961 0.329622 -0.394859 0.031 Uiso 1 1 calc R . . . .
H12B H 0.478343 0.487087 -0.417127 0.031 Uiso 1 1 calc R . . . .
C37 C 1.08789(7) 0.3259(3) 0.9980(2) 0.0287(6) Uani 1 1 d . . . . .
H37A H 1.076591 0.242201 1.032542 0.034 Uiso 1 1 calc R . . . .
H37B H 1.107718 0.297908 0.939480 0.034 Uiso 1 1 calc R . . . .
C34 C 1.00364(6) 0.4042(3) 0.7488(2) 0.0281(6) Uani 1 1 d . . . . .
H34A H 1.014884 0.489463 0.717173 0.034 Uiso 1 1 calc R . . . .
H34B H 0.983371 0.429599 0.806814 0.034 Uiso 1 1 calc R . . . .
C36 C 1.05548(7) 0.4042(3) 0.9269(2) 0.0282(6) Uani 1 1 d . . . . .
H36A H 1.035355 0.430238 0.985108 0.034 Uiso 1 1 calc R . . . .
H36B H 1.066665 0.489068 0.894251 0.034 Uiso 1 1 calc R . . . .
C32 C 0.95208(6) 0.4059(3) 0.5697(2) 0.0286(6) Uani 1 1 d . . . . .
H32A H 0.963437 0.490837 0.537718 0.034 Uiso 1 1 calc R . . . .
H32B H 0.931858 0.431751 0.627618 0.034 Uiso 1 1 calc R . . . .
C31 C 0.93258(6) 0.3273(3) 0.4614(2) 0.0282(6) Uani 1 1 d . . . . .
H31A H 0.952842 0.300996 0.403783 0.034 Uiso 1 1 calc R . . . .
H31B H 0.921086 0.242732 0.493473 0.034 Uiso 1 1 calc R . . . .
C30 C 0.90061(6) 0.4072(3) 0.3899(2) 0.0284(6) Uani 1 1 d . . . . .
H30A H 0.880399 0.434149 0.447576 0.034 Uiso 1 1 calc R . . . .
H30B H 0.912108 0.491458 0.357154 0.034 Uiso 1 1 calc R . . . .
C35 C 1.03578(6) 0.3255(3) 0.8196(2) 0.0283(6) Uani 1 1 d . . . . .
H35A H 1.055896 0.299214 0.761488 0.034 Uiso 1 1 calc R . . . .
H35B H 1.024469 0.240878 0.852237 0.034 Uiso 1 1 calc R . . . .
C38 C 1.10810(7) 0.4066(3) 1.1031(2) 0.0302(6) Uani 1 1 d . . . . .
H38A H 1.119885 0.489307 1.068416 0.036 Uiso 1 1 calc R . . . .
H38B H 1.088202 0.436167 1.160808 0.036 Uiso 1 1 calc R . . . .
C39 C 1.13986(7) 0.3272(3) 1.1755(2) 0.0343(6) Uani 1 1 d . . . . .
H39A H 1.158675 0.291538 1.116964 0.041 Uiso 1 1 calc R . . . .
H39B H 1.127732 0.248380 1.215745 0.041 Uiso 1 1 calc R . . . .
C40 C 1.16213(8) 0.4116(3) 1.2744(3) 0.0486(8) Uani 1 1 d . . . . .
H40A H 1.175492 0.487012 1.234916 0.073 Uiso 1 1 calc GR . . . .
H40B H 1.181502 0.354092 1.319315 0.073 Uiso 1 1 calc GR . . . .
H40C H 1.143699 0.447964 1.332525 0.073 Uiso 1 1 calc GR . . . .
loop_
_atom_site_aniso_label
_atom_site_aniso_U_11
_atom_site_aniso_U_22
_atom_site_aniso_U_33
_atom_site_aniso_U_23
_atom_site_aniso_U_13
_atom_site_aniso_U_12
F1 0.0251(7) 0.0487(10) 0.0429(9) -0.0020(8) -0.0091(6) -0.0062(7)
O2 0.0289(8) 0.0254(10) 0.0200(8) 0.0026(7) -0.0027(7) 0.0027(8)
O3 0.0218(8) 0.0284(10) 0.0223(8) -0.0016(7) -0.0042(7) 0.0016(8)
O1 0.0239(8) 0.0286(10) 0.0285(9) -0.0039(8) -0.0006(7) 0.0014(8)
O4 0.0288(9) 0.0345(11) 0.0317(9) -0.0044(8) -0.0056(7) 0.0045(8)
N3 0.0226(9) 0.0215(11) 0.0169(9) 0.0007(8) -0.0002(8) -0.0006(9)
N007 0.0242(10) 0.0250(12) 0.0205(10) -0.0004(9) -0.0014(8) 0.0004(9)
N2 0.0206(9) 0.0317(12) 0.0181(9) 0.0013(9) -0.0015(8) -0.0005(9)
N1 0.0212(10) 0.0325(13) 0.0280(11) -0.0034(10) -0.0017(8) 0.0013(9)
C19 0.0235(11) 0.0214(13) 0.0179(11) -0.0039(10) -0.0034(9) 0.0004(11)
C16 0.0220(11) 0.0250(14) 0.0177(11) -0.0046(10) -0.0012(9) -0.0005(11)
C17 0.0211(11) 0.0237(14) 0.0207(11) -0.0022(10) -0.0004(9) -0.0018(11)
C8 0.0256(12) 0.0248(14) 0.0191(11) 0.0042(10) -0.0008(10) 0.0005(11)
C6 0.0261(12) 0.0255(14) 0.0219(12) 0.0014(10) -0.0014(10) 0.0012(11)
C9 0.0229(11) 0.0211(14) 0.0195(11) -0.0008(10) -0.0009(9) -0.0008(10)
C24 0.0239(11) 0.0219(14) 0.0188(11) -0.0018(10) -0.0037(9) -0.0005(11)
C11 0.0256(12) 0.0266(14) 0.0199(11) 0.0008(10) -0.0024(10) -0.0003(11)
C5 0.0222(11) 0.0256(14) 0.0195(11) 0.0018(10) -0.0004(9) -0.0004(11)
C4 0.0284(12) 0.0231(14) 0.0215(11) 0.0021(10) -0.0007(10) 0.0007(11)
C14 0.0228(11) 0.0254(14) 0.0204(11) -0.0009(10) -0.0009(9) -0.0005(11)
C10 0.0244(11) 0.0249(14) 0.0198(11) 0.0006(10) 0.0001(9) 0.0002(11)
C25 0.0224(12) 0.0321(16) 0.0220(12) 0.0038(11) 0.0001(10) -0.0012(12)
C7 0.0312(13) 0.0264(15) 0.0232(12) 0.0013(11) -0.0016(10) -0.0019(12)
C23 0.0202(11) 0.0289(15) 0.0198(11) -0.0051(10) -0.0018(9) -0.0015(11)
C20 0.0287(12) 0.0314(15) 0.0198(11) 0.0027(11) 0.0036(10) -0.0056(11)
C3 0.0234(12) 0.0318(15) 0.0287(13) 0.0060(12) 0.0008(10) 0.0018(11)
C21 0.0265(12) 0.0352(16) 0.0248(12) 0.0019(11) 0.0025(10) -0.0041(12)
C13 0.0272(12) 0.0316(15) 0.0203(12) 0.0028(11) -0.0029(10) 0.0001(12)
C26 0.0223(12) 0.0307(15) 0.0258(12) 0.0025(11) -0.0034(10) -0.0011(11)
C15 0.0234(11) 0.0295(15) 0.0222(12) -0.0031(11) -0.0001(10) 0.0007(11)
C27 0.0213(11) 0.0372(16) 0.0248(12) 0.0022(11) -0.0030(10) 0.0020(11)
C22 0.0246(12) 0.0385(17) 0.0249(12) -0.0045(12) 0.0013(10) 0.0013(12)
C18 0.0285(12) 0.0285(15) 0.0244(12) 0.0038(11) 0.0017(10) 0.0004(11)
C28 0.0234(12) 0.0339(15) 0.0236(12) 0.0023(11) -0.0022(10) -0.0018(12)
C29 0.0240(12) 0.0365(16) 0.0230(12) 0.0002(11) -0.0046(10) 0.0006(12)
C2 0.0220(12) 0.0350(16) 0.0277(13) 0.0055(12) -0.0062(10) -0.0055(12)
C33 0.0238(12) 0.0352(16) 0.0251(12) -0.0015(11) -0.0018(10) -0.0007(12)
C12 0.0247(12) 0.0358(16) 0.0179(11) 0.0025(11) -0.0017(9) -0.0013(12)
C37 0.0268(12) 0.0354(16) 0.0237(12) -0.0010(11) -0.0026(10) -0.0011(12)
C34 0.0243(12) 0.0335(16) 0.0262(12) -0.0007(11) -0.0026(10) -0.0005(11)
C36 0.0253(12) 0.0335(16) 0.0254(12) 0.0023(11) -0.0028(10) 0.0012(12)
C32 0.0259(12) 0.0363(16) 0.0231(12) 0.0005(11) -0.0033(10) 0.0014(12)
C31 0.0223(11) 0.0387(16) 0.0232(12) 0.0004(11) -0.0036(10) 0.0005(12)
C30 0.0246(12) 0.0357(16) 0.0243(12) 0.0002(11) -0.0030(10) 0.0001(12)
C35 0.0252(12) 0.0348(16) 0.0244(12) -0.0007(11) -0.0031(10) -0.0017(12)
C38 0.0272(12) 0.0376(16) 0.0256(12) 0.0027(12) -0.0011(10) -0.0008(12)
C39 0.0279(13) 0.0464(18) 0.0282(13) 0.0008(12) -0.0043(11) 0.0009(13)
C40 0.0409(16) 0.064(2) 0.0393(16) 0.0013(15) -0.0151(13) -0.0030(16)
loop_
_atom_type_symbol
_atom_type_description
_atom_type_scat_dispersion_real
_atom_type_scat_dispersion_imag
_atom_type_scat_source
C C 0.0033 0.0016 'International Tables Vol C Tables 4.2.6.8 and 6.1.1.4'
H H 0.0000 0.0000 'International Tables Vol C Tables 4.2.6.8 and 6.1.1.4'
F F 0.0171 0.0103 'International Tables Vol C Tables 4.2.6.8 and 6.1.1.4'
N N 0.0061 0.0033 'International Tables Vol C Tables 4.2.6.8 and 6.1.1.4'
O O 0.0106 0.0060 'International Tables Vol C Tables 4.2.6.8 and 6.1.1.4'
loop_
_geom_angle_atom_site_label_1
_geom_angle_atom_site_label_2
_geom_angle_atom_site_label_3
_geom_angle
_geom_angle_site_symmetry_1
_geom_angle_site_symmetry_3
_geom_angle_publ_flag
C25 O3 C23 115.48(18) . . ?
C4 O1 N1 107.40(16) . . ?
C19 N3 C20 115.22(18) . . ?
C24 N3 C19 120.17(18) . . ?
C24 N3 C20 124.45(18) . . ?
C24 N007 C17 118.40(19) . . ?
C11 N2 C15 110.44(18) . . ?
C12 N2 C11 110.31(17) . . ?
C12 N2 C15 109.84(17) . . ?
C8 N1 O1 106.89(17) . . ?
O2 C19 N3 118.63(19) . . ?
O2 C19 C16 125.1(2) . . ?
N3 C19 C16 116.28(19) . . ?
C19 C16 C14 115.78(19) . . ?
C17 C16 C19 118.88(19) . . ?
C17 C16 C14 125.3(2) . . ?
N007 C17 C18 112.91(19) . . ?
C16 C17 N007 122.4(2) . . ?
C16 C17 C18 124.6(2) . . ?
N1 C8 C9 121.7(2) . . ?
N1 C8 C5 111.6(2) . . ?
C5 C8 C9 126.6(2) . . ?
C5 C6 H6 121.0 . . ?
C7 C6 H6 121.0 . . ?
C7 C6 C5 118.0(2) . . ?
C8 C9 H9 107.7 . . ?
C8 C9 C10 113.47(18) . . ?
C8 C9 C13 110.80(18) . . ?
C10 C9 H9 107.7 . . ?
C13 C9 H9 107.7 . . ?
C13 C9 C10 109.33(18) . . ?
N3 C24 C23 119.28(19) . . ?
N007 C24 N3 123.76(19) . . ?
N007 C24 C23 116.9(2) . . ?
N2 C11 H11A 109.3 . . ?
N2 C11 H11B 109.3 . . ?
N2 C11 C10 111.78(18) . . ?
H11A C11 H11B 107.9 . . ?
C10 C11 H11A 109.3 . . ?
C10 C11 H11B 109.3 . . ?
C6 C5 C8 136.2(2) . . ?
C4 C5 C8 103.9(2) . . ?
C4 C5 C6 119.9(2) . . ?
O1 C4 C5 110.18(19) . . ?
O1 C4 C3 126.0(2) . . ?
C5 C4 C3 123.8(2) . . ?
C16 C14 H14A 109.2 . . ?
C16 C14 H14B 109.2 . . ?
C16 C14 C15 112.15(19) . . ?
H14A C14 H14B 107.9 . . ?
C15 C14 H14A 109.2 . . ?
C15 C14 H14B 109.2 . . ?
C9 C10 H10A 109.6 . . ?
C9 C10 H10B 109.6 . . ?
C11 C10 C9 110.21(18) . . ?
C11 C10 H10A 109.6 . . ?
C11 C10 H10B 109.6 . . ?
H10A C10 H10B 108.1 . . ?
O3 C25 C26 111.0(2) . . ?
O4 C25 O3 123.1(2) . . ?
O4 C25 C26 126.0(2) . . ?
C6 C7 H7 120.5 . . ?
C6 C7 C2 119.0(2) . . ?
C2 C7 H7 120.5 . . ?
O3 C23 C24 106.22(17) . . ?
O3 C23 H23 109.4 . . ?
O3 C23 C22 109.31(18) . . ?
C24 C23 H23 109.4 . . ?
C24 C23 C22 113.04(19) . . ?
C22 C23 H23 109.4 . . ?
N3 C20 H20A 109.1 . . ?
N3 C20 H20B 109.1 . . ?
N3 C20 C21 112.68(19) . . ?
H20A C20 H20B 107.8 . . ?
C21 C20 H20A 109.1 . . ?
C21 C20 H20B 109.1 . . ?
C4 C3 H3 123.1 . . ?
C2 C3 C4 113.7(2) . . ?
C2 C3 H3 123.1 . . ?
C20 C21 H21A 109.8 . . ?
C20 C21 H21B 109.8 . . ?
C20 C21 C22 109.5(2) . . ?
H21A C21 H21B 108.2 . . ?
C22 C21 H21A 109.8 . . ?
C22 C21 H21B 109.8 . . ?
C9 C13 H13A 109.6 . . ?
C9 C13 H13B 109.6 . . ?
H13A C13 H13B 108.1 . . ?
C12 C13 C9 110.33(19) . . ?
C12 C13 H13A 109.6 . . ?
C12 C13 H13B 109.6 . . ?
C25 C26 H26A 108.8 . . ?
C25 C26 H26B 108.8 . . ?
C25 C26 C27 113.7(2) . . ?
H26A C26 H26B 107.7 . . ?
C27 C26 H26A 108.8 . . ?
C27 C26 H26B 108.8 . . ?
N2 C15 C14 112.17(18) . . ?
N2 C15 H15A 109.2 . . ?
N2 C15 H15B 109.2 . . ?
C14 C15 H15A 109.2 . . ?
C14 C15 H15B 109.2 . . ?
H15A C15 H15B 107.9 . . ?
C26 C27 H27A 109.0 . . ?
C26 C27 H27B 109.0 . . ?
H27A C27 H27B 107.8 . . ?
C28 C27 C26 112.9(2) . . ?
C28 C27 H27A 109.0 . . ?
C28 C27 H27B 109.0 . . ?
C23 C22 C21 109.4(2) . . ?
C23 C22 H22A 109.8 . . ?
C23 C22 H22B 109.8 . . ?
C21 C22 H22A 109.8 . . ?
C21 C22 H22B 109.8 . . ?
H22A C22 H22B 108.2 . . ?
C17 C18 H18A 109.5 . . ?
C17 C18 H18B 109.5 . . ?
C17 C18 H18C 109.5 . . ?
H18A C18 H18B 109.5 . . ?
H18A C18 H18C 109.5 . . ?
H18B C18 H18C 109.5 . . ?
C27 C28 H28A 109.0 . . ?
C27 C28 H28B 109.0 . . ?
C27 C28 C29 112.9(2) . . ?
H28A C28 H28B 107.8 . . ?
C29 C28 H28A 109.0 . . ?
C29 C28 H28B 109.0 . . ?
C28 C29 H29A 108.8 . . ?
C28 C29 H29B 108.8 . . ?
C28 C29 C30 114.0(2) . . ?
H29A C29 H29B 107.7 . . ?
C30 C29 H29A 108.8 . . ?
C30 C29 H29B 108.8 . . ?
F1 C2 C7 116.5(2) . . ?
C3 C2 F1 117.9(2) . . ?
C3 C2 C7 125.5(2) . . ?
H33A C33 H33B 107.7 . . ?
C34 C33 H33A 108.8 . . ?
C34 C33 H33B 108.8 . . ?
C32 C33 H33A 108.8 . . ?
C32 C33 H33B 108.8 . . ?
C32 C33 C34 113.8(2) . . ?
N2 C12 C13 111.77(18) . . ?
N2 C12 H12A 109.3 . . ?
N2 C12 H12B 109.3 . . ?
C13 C12 H12A 109.3 . . ?
C13 C12 H12B 109.3 . . ?
H12A C12 H12B 107.9 . . ?
H37A C37 H37B 107.7 . . ?
C36 C37 H37A 108.8 . . ?
C36 C37 H37B 108.8 . . ?
C38 C37 H37A 108.8 . . ?
C38 C37 H37B 108.8 . . ?
C38 C37 C36 113.8(2) . . ?
C33 C34 H34A 108.7 . . ?
C33 C34 H34B 108.7 . . ?
H34A C34 H34B 107.6 . . ?
C35 C34 C33 114.0(2) . . ?
C35 C34 H34A 108.7 . . ?
C35 C34 H34B 108.7 . . ?
C37 C36 H36A 108.7 . . ?
C37 C36 H36B 108.7 . . ?
H36A C36 H36B 107.6 . . ?
C35 C36 C37 114.1(2) . . ?
C35 C36 H36A 108.7 . . ?
C35 C36 H36B 108.7 . . ?
C33 C32 H32A 108.8 . . ?
C33 C32 H32B 108.8 . . ?
C33 C32 C31 113.6(2) . . ?
H32A C32 H32B 107.7 . . ?
C31 C32 H32A 108.8 . . ?
C31 C32 H32B 108.8 . . ?
C32 C31 H31A 108.8 . . ?
C32 C31 H31B 108.8 . . ?
H31A C31 H31B 107.7 . . ?
C30 C31 C32 113.7(2) . . ?
C30 C31 H31A 108.8 . . ?
C30 C31 H31B 108.8 . . ?
C29 C30 C31 113.2(2) . . ?
C29 C30 H30A 108.9 . . ?
C29 C30 H30B 108.9 . . ?
C31 C30 H30A 108.9 . . ?
C31 C30 H30B 108.9 . . ?
H30A C30 H30B 107.8 . . ?
C34 C35 C36 113.9(2) . . ?
C34 C35 H35A 108.8 . . ?
C34 C35 H35B 108.8 . . ?
C36 C35 H35A 108.8 . . ?
C36 C35 H35B 108.8 . . ?
H35A C35 H35B 107.7 . . ?
C37 C38 H38A 108.8 . . ?
C37 C38 H38B 108.8 . . ?
H38A C38 H38B 107.7 . . ?
C39 C38 C37 113.7(2) . . ?
C39 C38 H38A 108.8 . . ?
C39 C38 H38B 108.8 . . ?
C38 C39 H39A 108.9 . . ?
C38 C39 H39B 108.9 . . ?
C38 C39 C40 113.5(2) . . ?
H39A C39 H39B 107.7 . . ?
C40 C39 H39A 108.9 . . ?
C40 C39 H39B 108.9 . . ?
C39 C40 H40A 109.5 . . ?
C39 C40 H40B 109.5 . . ?
C39 C40 H40C 109.5 . . ?
H40A C40 H40B 109.5 . . ?
H40A C40 H40C 109.5 . . ?
H40B C40 H40C 109.5 . . ?
loop_
_geom_bond_atom_site_label_1
_geom_bond_atom_site_label_2
_geom_bond_distance
_geom_bond_site_symmetry_2
_geom_bond_publ_flag
F1 C2 1.364(2) . ?
O2 C19 1.238(3) . ?
O3 C25 1.356(3) . ?
O3 C23 1.459(3) . ?
O1 N1 1.441(2) . ?
O1 C4 1.361(3) . ?
O4 C25 1.205(3) . ?
N3 C19 1.403(3) . ?
N3 C24 1.369(3) . ?
N3 C20 1.479(3) . ?
N007 C17 1.382(3) . ?
N007 C24 1.298(3) . ?
N2 C11 1.465(3) . ?
N2 C15 1.469(3) . ?
N2 C12 1.465(3) . ?
N1 C8 1.303(3) . ?
C19 C16 1.437(3) . ?
C16 C17 1.362(3) . ?
C16 C14 1.509(3) . ?
C17 C18 1.500(3) . ?
C8 C9 1.497(3) . ?
C8 C5 1.442(3) . ?
C6 H6 0.9500 . ?
C6 C5 1.392(3) . ?
C6 C7 1.381(3) . ?
C9 H9 1.0000 . ?
C9 C10 1.529(3) . ?
C9 C13 1.526(3) . ?
C24 C23 1.509(3) . ?
C11 H11A 0.9900 . ?
C11 H11B 0.9900 . ?
C11 C10 1.522(3) . ?
C5 C4 1.387(3) . ?
C4 C3 1.388(3) . ?
C14 H14A 0.9900 . ?
C14 H14B 0.9900 . ?
C14 C15 1.527(3) . ?
C10 H10A 0.9900 . ?
C10 H10B 0.9900 . ?
C25 C26 1.496(3) . ?
C7 H7 0.9500 . ?
C7 C2 1.391(3) . ?
C23 H23 1.0000 . ?
C23 C22 1.510(3) . ?
C20 H20A 0.9900 . ?
C20 H20B 0.9900 . ?
C20 C21 1.513(3) . ?
C3 H3 0.9500 . ?
C3 C2 1.362(3) . ?
C21 H21A 0.9900 . ?
C21 H21B 0.9900 . ?
C21 C22 1.515(4) . ?
C13 H13A 0.9900 . ?
C13 H13B 0.9900 . ?
C13 C12 1.521(3) . ?
C26 H26A 0.9900 . ?
C26 H26B 0.9900 . ?
C26 C27 1.522(3) . ?
C15 H15A 0.9900 . ?
C15 H15B 0.9900 . ?
C27 H27A 0.9900 . ?
C27 H27B 0.9900 . ?
C27 C28 1.516(3) . ?
C22 H22A 0.9900 . ?
C22 H22B 0.9900 . ?
C18 H18A 0.9800 . ?
C18 H18B 0.9800 . ?
C18 H18C 0.9800 . ?
C28 H28A 0.9900 . ?
C28 H28B 0.9900 . ?
C28 C29 1.520(3) . ?
C29 H29A 0.9900 . ?
C29 H29B 0.9900 . ?
C29 C30 1.523(3) . ?
C33 H33A 0.9900 . ?
C33 H33B 0.9900 . ?
C33 C34 1.523(3) . ?
C33 C32 1.521(3) . ?
C12 H12A 0.9900 . ?
C12 H12B 0.9900 . ?
C37 H37A 0.9900 . ?
C37 H37B 0.9900 . ?
C37 C36 1.524(3) . ?
C37 C38 1.522(3) . ?
C34 H34A 0.9900 . ?
C34 H34B 0.9900 . ?
C34 C35 1.518(3) . ?
C36 H36A 0.9900 . ?
C36 H36B 0.9900 . ?
C36 C35 1.521(3) . ?
C32 H32A 0.9900 . ?
C32 H32B 0.9900 . ?
C32 C31 1.526(3) . ?
C31 H31A 0.9900 . ?
C31 H31B 0.9900 . ?
C31 C30 1.523(3) . ?
C30 H30A 0.9900 . ?
C30 H30B 0.9900 . ?
C35 H35A 0.9900 . ?
C35 H35B 0.9900 . ?
C38 H38A 0.9900 . ?
C38 H38B 0.9900 . ?
C38 C39 1.520(3) . ?
C39 H39A 0.9900 . ?
C39 H39B 0.9900 . ?
C39 C40 1.524(4) . ?
C40 H40A 0.9800 . ?
C40 H40B 0.9800 . ?
C40 H40C 0.9800 . ?
loop_
_refln_index_h
_refln_index_k
_refln_index_l
_refln_F_squared_meas
_refln_F_squared_sigma
0 0 2 2328.77 85.79
0 0 3 -3.7 2.2
0 0 -3 -0.1 1.2
0 0 3 -0.5 1.6
0 0 4 15.4 3.7
0 0 -4 15.6 2.1
0 0 4 16.9 2.7
0 0 -5 0.4 1.6
0 0 5 7.2 3.7
0 0 5 -0.2 2.2
0 0 6 27.6 5.5
0 0 6 39.9 4.7
0 0 7 2.7 2.8
0 0 7 0.8 3.5
0 0 8 15.2 4.2
0 0 8 16.2 5.3
0 0 9 2.4 3.6
0 0 9 5.7 5.3
0 0 10 413.26 21.2
0 0 10 397.36 24
0 0 11 6.8 6.4
0 0 11 4 4.5
0 0 12 101.99 13.4
0 0 13 -6.6 5
0 1 0 0 0.9
0 1 0 -1.4 1.4
0 -1 0 -0.1 1.2
0 -1 0 0.4 0.8
0 1 -1 319.07 12.1
0 1 1 311.67 13.4
0 -1 -1 307.27 13.4
0 -1 1 315.47 12.1
0 1 -2 5.6 2.5
0 1 2 11.2 3.5
0 -1 -2 12.9 3.4
0 -1 2 8.3 2.4
0 1 -3 410.86 17.5
0 1 3 398.76 17.5
0 -1 3 408.06 17
0 -1 -3 402.06 17.1
0 1 -4 16.1 3.6
0 1 4 19.3 3.8
0 -1 4 20.2 2.3
0 -1 4 16.6 3.6
0 -1 -4 21 3.4
0 1 5 3.8 3.2
0 -1 5 -0.5 2.8
0 -1 5 0.8 1.8
0 -1 -5 0.1 2.1
0 1 6 -2.5 2.7
0 1 6 2.1 3.6
0 -1 6 2.3 2.1
0 -1 6 -1.1 3.3
0 -1 -6 1.7 2.1
0 1 7 97.79 8.2
0 1 7 106.39 10.4
0 -1 7 128.89 10
0 -1 -7 122.39 6.9
0 -1 7 115.39 7.3
0 1 8 21.3 6.5
0 -1 8 22.1 6
0 -1 8 25.5 4.4
0 -1 -8 27.8 3.7
0 1 9 37.2 6.5
0 1 9 36 8
0 -1 9 30.4 5.1
0 -1 -9 34.6 5.8
0 -1 9 32.6 6.7
0 1 10 84.29 13.9
0 1 10 74.79 11.5
0 -1 10 90.89 11.3
0 -1 10 72.89 7.8
0 1 11 10.8 7.3
0 -1 11 6 4.9
0 -1 11 8.3 5.5
0 1 12 0.7 5.5
0 -1 12 8.4 5.9
0 1 13 4.8 6.9
0 -1 13 6.2 6.7
0 2 0 102.09 5.9
0 2 0 105.29 7.9
0 -2 0 104.99 6.2
0 -2 0 97.09 8.3
0 2 -1 5264.47 194.78
0 2 1 5300.17 195.48
0 -2 1 5354.36 194.98
0 -2 -1 5403.66 195.48
0 2 2 5310.67 193.78
0 -2 2 5157.28 192.58
0 -2 -2 5347.77 193.58
0 2 -3 74.19 5.2
0 2 3 76.09 6.9
0 -2 3 65.79 4.6
0 -2 -3 76.99 6.5
0 2 4 1.9 3.4
0 2 -4 4.8 2.9
0 -2 -4 7.2 3.4
0 -2 4 3.3 2.5
0 2 5 28.2 5.6
0 2 -5 24.3 4.7
0 -2 -5 27.9 4.8
0 -2 5 27.2 4.5
0 2 -6 38.2 6.4
0 2 6 45.7 6.6
0 -2 6 40 3.7
0 -2 -6 44.5 5.7
0 2 7 25.4 5.4
0 -2 7 21.2 5
0 -2 -7 30.5 4.7
0 -2 7 34.1 3.9
0 2 8 278.47 18
0 2 8 242.78 15.6
0 -2 -8 261.77 13.3
0 -2 8 275.57 12.7
0 -2 8 245.98 15.8
0 2 9 169.18 14.1
0 -2 9 147.89 9.5
0 -2 9 139.39 12.1
0 -2 -9 128.19 8.5
0 2 10 54.19 10
0 2 10 42.4 8.7
0 -2 10 46.2 6.1
0 -2 10 39.6 8.3
0 -2 -10 45.1 5.2
0 2 11 516.95 33.3
0 2 11 504.65 31.1
0 -2 11 533.15 24.9
0 -2 -11 505.45 22.4
0 -2 11 524.45 28.6
0 2 12 -3.2 4.7
0 -2 12 -1.1 5.2
0 2 13 3.2 7.3
0 -2 13 -5.7 5
0 3 0 0.7 3.4
0 3 0 0.1 1.9
0 -3 0 4.2 4.1
0 -3 0 0 2.3
0 3 -1 1518.75 55.39
0 3 -1 1450.65 58.29
0 3 1 1526.45 56.69
0 3 1 1513.45 59.39
0 -3 1 1495.85 55.49
0 -3 1 1449.15 58.49
0 -3 -1 1470.05 58.99
0 3 2 53.39 7.3
0 3 -2 56.39 4.2
0 -3 2 47 6.1
0 -3 -2 59.79 7
0 -3 2 54.89 4
0 3 -3 101.79 6.2
0 3 3 109.99 9.5
0 -3 3 93.29 7.9
0 -3 -3 103.69 8.9
0 -3 3 98.99 6
0 3 4 11.1 5
0 3 -4 15.8 3.5
0 -3 4 11.6 3.1
0 -3 -4 23.4 5.4
0 -3 4 10.1 4.2
0 3 5 71.99 8.6
0 -3 5 97.19 7
0 3 6 4.8 4.3
0 3 -6 6.8 3.7
0 -3 6 2.7 3.2
0 -3 -6 4 3.5
0 3 -7 186.28 13.4
0 3 7 168.48 15
0 -3 7 183.28 11.7
0 -3 -7 183.18 11.8
0 3 8 -0.7 4.3
0 -3 -8 -0.6 3.3
0 -3 8 2.8 4.3
0 -3 8 0.3 2.7
0 3 9 247.38 18.2
0 3 9 220.18 16.4
0 -3 9 235.78 15.3
0 -3 -9 213.88 12.7
0 -3 9 226.08 11.8
0 3 10 7.1 5.5
0 3 10 5.8 6.4
0 -3 10 -7 4.1
0 -3 10 6.5 3.5
0 -3 -10 8.9 3.5
0 3 11 99.39 15.6
0 3 11 82.59 13.3
0 -3 11 81.99 10.9
0 -3 -11 80.39 7.1
0 -3 11 71.09 8.4
0 3 12 3.3 6.3
0 -3 12 -1 5.7
0 -3 -12 -0.7 2.9
0 3 13 -8.6 7.2
0 -3 13 -3.8 5
0 4 0 223.68 11.2
0 4 0 244.78 14.9
0 -4 0 233.58 14.9
0 -4 0 234.88 12.2
0 4 -1 111.29 9.3
0 4 1 91.89 7.3
0 4 -1 88.79 6.2
0 4 1 101.19 10.2
0 -4 -1 104.79 10.7
0 -4 1 103.69 6.9
0 -4 1 89.79 9.4
0 4 -2 194.58 9.8
0 4 2 209.48 12
0 4 2 180.28 14.3
0 -4 -2 206.78 14
0 -4 2 197.48 13.4
0 -4 2 200.38 9.9
0 4 -3 16.9 3.3
0 4 3 13.4 5.8
0 -4 -3 7.3 5.4
0 -4 3 13 3.2
0 -4 3 7.2 4.9
0 4 -4 50.29 4.9
0 4 4 42.4 12.5
0 -4 4 46.9 7.1
0 -4 4 48.5 4.9
0 -4 -4 48.3 7.6
0 4 -5 334.07 16.4
0 4 5 328.07 19.9
0 -4 -5 335.87 19
0 -4 5 330.27 17.9
0 -4 5 348.97 15.9
0 4 6 96.19 10.6
0 4 -6 99.39 8.4
0 -4 6 98.99 7.7
0 -4 6 83.89 11.1
0 -4 -6 97.29 9.4
0 4 -7 272.77 16
0 4 7 242.78 17
0 -4 7 242.18 17.3
0 -4 7 258.57 14.4
0 -4 -7 228.68 15.7
0 4 -8 30.3 7.5
0 4 8 22.6 7.4
0 -4 8 22.6 4.2
0 -4 8 30.2 8
0 -4 -8 34 6.7
0 -4 8 30 6.2
0 4 9 199.18 17.5
0 -4 9 178.28 14.7
0 -4 -9 149.88 12
0 -4 9 196.78 13.9
0 4 10 7.7 6.9
0 4 10 2.9 6.1
0 -4 -10 0.9 3.4
0 -4 10 1.3 4.8
0 -4 10 10.2 3.6
0 -4 10 8.1 6
0 4 11 8.4 7.3
0 4 11 14 8.6
0 -4 11 -0.2 3.6
0 -4 -11 4.9 3.8
0 -4 11 5.8 5.2
0 4 12 11.8 7.9
0 -4 12 -0.4 3.7
0 -4 -12 3.6 4.6
0 -4 12 14.1 6.7
0 5 0 2.4 5.4
0 5 0 -2.4 2.7
0 -5 0 2.2 3.7
0 -5 0 -3.4 3.7
0 5 -1 176.58 9.6
0 5 1 166.28 14.1
0 5 1 162.88 10.4
0 -5 1 178.68 10.4
0 -5 -1 161.18 13.6
0 -5 1 164.88 13.5
0 5 -2 55.29 5.2
0 5 2 61.49 7.1
0 5 2 58.79 9.6
0 -5 2 53.29 5.6
0 -5 -2 80.29 10.5
0 -5 2 68.09 9.4
0 5 -3 2.3 2.3
0 5 3 7.9 5.7
0 5 3 2.3 3.7
0 -5 -3 -1.5 4.1
0 -5 3 -4.3 4.2
0 -5 3 -5.3 2.4
0 5 4 390.16 23.8
0 5 -4 391.96 18.4
0 -5 4 423.06 22.4
0 -5 4 416.26 18.5
0 -5 -4 421.86 23.2
0 5 -5 216.58 12
0 5 5 230.78 17
0 -5 -5 231.48 15.9
0 -5 5 215.58 15.1
0 -5 5 179.58 12.5
0 5 -6 -2.7 3.1
0 5 6 3.3 5.9
0 -5 6 6.2 4.8
0 -5 6 1.6 3.2
0 -5 -6 9 5.5
0 5 -7 12.2 5.1
0 5 7 24.6 7.3
0 -5 7 12.5 6.4
0 -5 -7 14.7 6.2
0 -5 7 19.2 5
0 5 8 36.4 9.4
0 5 -8 44.4 8.5
0 -5 8 27.6 10.2
0 -5 8 37.3 6.9
0 -5 -8 49.1 8.8
0 5 -9 -2.1 5
0 5 9 3.2 6.6
0 -5 9 3.3 3.2
0 -5 -9 -1.6 5.3
0 -5 9 10.1 5
0 5 10 19.2 8.8
0 -5 10 7.5 3.8
0 -5 10 18.5 6.4
0 -5 -10 30.6 6.6
0 5 11 -4.1 6.8
0 5 11 13.4 9.1
0 -5 11 21.1 7.2
0 -5 11 10.8 3.9
0 -5 -11 15 5.8
0 5 12 7.9 8.8
0 -5 12 23.8 7.9
0 6 0 23.6 7.9
0 6 0 30 4.8
0 -6 0 35.8 7.7
0 6 -1 -0.2 2.5
0 6 1 -1.9 5.3
0 6 1 3 3.5
0 6 -1 -1.1 4.7
0 -6 1 0 3.4
0 -6 1 -4 4.3
0 -6 -1 3.4 4.8
0 6 -2 6.4 3
0 6 2 6.5 4.3
0 6 2 3.9 5.6
0 -6 2 1.5 5.2
0 -6 2 3.9 3.7
0 -6 -2 12.4 6.1
0 6 3 35.4 6.2
0 6 3 37.4 9
0 6 -3 42.3 5.4
0 -6 -3 28.3 7.6
0 -6 3 25.7 7.4
0 -6 3 37.4 5.6
0 6 4 72.09 9.2
0 6 4 82.09 12.4
0 6 -4 65.99 6.6
0 -6 4 56.19 6.6
0 -6 4 74.19 10.6
0 -6 -4 85.19 11.9
0 6 -5 17.9 4.5
0 6 5 30.3 9.1
0 -6 5 22.9 4.8
0 -6 5 25.4 8.1
0 -6 -5 24.4 8.2
0 6 -6 265.97 15.8
0 6 6 307.37 21.6
0 -6 6 272.97 15.1
0 -6 6 268.67 19.6
0 -6 -6 253.17 19.2
0 6 7 9.9 7
0 6 -7 17.2 5.6
0 -6 -7 -3.5 5.3
0 -6 7 12.8 8
0 6 8 40.9 10.2
0 6 -8 61.69 9.5
0 -6 8 45.9 7.1
0 -6 8 49.3 13
0 -6 -8 34.7 7.9
0 6 -9 9.1 6.7
0 6 9 16.9 8.4
0 -6 9 18.1 6
0 -6 -9 11.8 5.9
0 6 10 1.4 7.7
0 -6 10 4.6 3.6
0 -6 10 -0.3 4.8
0 6 11 -0.3 7.7
0 -6 11 -1.3 3.7
0 -6 11 -9.6 4.8
0 7 0 25.6 7.6
0 7 0 1.5 3.3
0 -7 0 8.1 5.8
0 7 1 5.8 4
0 7 1 10.1 6.6
0 7 -1 10.4 3.8
0 7 -1 21.4 8.1
0 -7 -1 23.8 7.6
0 -7 1 14.7 6.4
0 -7 1 16.4 5.2
0 7 2 62.79 11.8
0 7 -2 64.89 6.8
0 7 2 68.69 8.1
0 -7 -2 75.79 12.2
0 -7 2 73.99 8.4
0 -7 2 76.29 11.7
0 7 3 118.89 14
0 7 3 97.79 10.3
0 7 -3 101.59 8.4
0 -7 3 103.99 13.6
0 -7 3 115.59 9.3
0 7 -4 7.7 3.9
0 7 4 4.8 7
0 -7 4 1.9 6.2
0 -7 4 4.3 4.2
0 -7 -4 5.2 6.6
0 7 5 -7.7 4.5
0 7 -5 6.6 3.9
0 7 5 -7.1 5.7
0 -7 -5 8.7 7.8
0 -7 5 -12.7 4.5
0 -7 5 -3.4 3.8
0 7 -6 305.17 17.6
0 7 6 348.67 25.6
0 -7 6 348.77 22.1
0 -7 -6 270.17 22.8
0 -7 6 287.17 16.8
0 7 7 -0.5 8.6
0 7 -7 0.8 4.3
0 -7 7 3.1 4.4
0 -7 7 14 7.8
0 7 -8 1.7 4.7
0 -7 8 6.5 4.8
0 7 9 -2.7 7.7
0 7 -9 1.1 5.8
0 -7 9 3.1 4.7
0 -7 10 5.4 5.7
0 7 11 30.5 13.3
0 -7 11 0 4.1
0 -7 11 3.3 6.1
0 8 0 160.38 11.7
0 8 0 168.58 18.2
0 -8 0 132.49 16.8
0 8 1 108.19 15.8
0 8 1 93.79 9.9
0 8 -1 65.09 7.9
0 -8 1 88.59 14.3
0 -8 -1 101.69 14.9
0 8 2 6.9 4.7
0 8 2 0.2 6.8
0 8 -2 -1.5 3.6
0 -8 -2 -5.2 6.5
0 -8 2 -0.6 4.9
0 -8 2 -2.1 7
0 8 3 51.29 11.3
0 8 3 49.2 8.3
0 8 -3 45.6 6.6
0 -8 3 47.8 7.8
0 -8 3 71.59 12.9
0 -8 -3 70.09 12.7
0 8 4 5.2 6.2
0 8 4 14.2 9.9
0 8 -4 14.8 4.6
0 -8 4 25.7 6.1
0 -8 4 -5 7.2
0 8 -5 74.89 9.1
0 -8 5 70.89 9
0 -8 5 70.79 17.4
0 8 6 35 12.1
0 8 -6 36.4 6.6
0 -8 6 39.5 9.8
0 -8 6 26 6.6
0 8 -7 -4.9 4.2
0 8 7 11.8 9.9
0 -8 7 10.4 10.9
0 -8 7 0.4 4.5
0 8 8 6.5 9.4
0 8 -8 7.2 5.9
0 -8 8 5 4.8
0 -8 9 11 6
0 -8 10 6.4 5.4
0 9 0 8.4 14.9
0 9 1 27.2 12.1
0 9 1 27.5 6.5
0 9 -1 13.4 5.4
0 9 2 1 9.1
0 9 -2 0.8 3.8
0 9 2 1.9 5.3
0 -9 2 -4 5.1
0 9 3 12.3 8.6
0 9 -3 7.2 4
0 -9 3 -4.4 5.3
0 9 -4 20.5 5.3
0 9 4 34 12.6
0 -9 4 32.6 7.5
0 9 5 6.3 11
0 -9 5 9 6.1
0 9 -6 3.1 4.5
0 9 6 -11.2 7.3
0 -9 6 8.7 5.7
0 9 7 23.8 13.1
0 9 -7 29.2 7.2
0 -9 7 18.1 6.7
0 9 8 4.7 13.2
0 -9 8 1.2 5.7
0 -9 9 0.4 5.2
0 10 0 93.89 10.4
0 10 -1 21.2 5.8
0 10 1 17 11.7
0 10 2 -5.7 9.5
0 10 -2 -2.7 4
0 10 -3 7.3 4.3
0 10 3 -10.6 8.3
0 -10 3 -0.3 7.2
0 10 -4 18.4 5.7
0 10 4 34.8 16
0 -10 4 23.7 8
0 10 -5 -3.4 3.8
0 -10 5 3.4 7.1
0 10 6 62.59 18
0 10 -6 74.99 11.2
0 -10 6 86.79 12.1
0 -10 7 5.2 6.3
0 11 2 -3.2 11.2
0 11 4 24.8 16.4
0 11 6 -13.6 11.8
-1 0 13 -8.7 4.9
-1 0 12 55.79 11.2
-1 0 11 -3.5 5.2
-1 0 10 173.78 15
-1 0 10 156.28 12.5
-1 0 9 4.5 5.3
-1 0 9 -1.9 2.9
-1 0 8 17.6 6
-1 0 8 17.9 4.2
-1 0 7 -3.1 3.3
-1 0 7 -2.3 2.3
-1 0 6 13.2 4.5
-1 0 6 12.9 3.1
-1 0 5 -2.7 2.6
-1 0 5 0.3 2.2
1 0 -5 1.2 1.5
-1 0 4 1710.93 65.59
1 0 -4 1765.22 62.59
-1 0 4 1650.33 63.29
1 0 -3 1.1 1.2
-1 0 3 -3.3 2.4
-1 0 3 0.7 1.6
-1 0 1 1.5 1
1 0 1 -0.4 0.6
-1 0 -2 61.59 3.5
1 0 2 61.49 3.9
-1 0 -3 -1.4 1.3
1 0 3 1.2 1.9
1 0 4 568.84 23
-1 0 -4 587.84 22.3
1 0 4 580.74 24.9
1 0 5 -0.3 3.1
-1 0 -5 -1 1.6
1 0 5 2.3 2.4
1 0 6 7.2 3.7
-1 0 -6 19.1 2.8
1 0 6 27.4 4.3
1 0 7 1.1 3.7
1 0 7 0.9 2.6
1 0 8 53.89 6.3
1 0 8 62.79 9.2
1 0 9 1.7 4.6
1 0 9 -2.4 3.4
1 0 10 697.13 31.6
1 0 10 660.43 34.4
1 0 11 7.2 5.8
1 0 11 1.7 4.2
1 0 12 -0.4 5.9
1 0 13 1.4 6.1
-1 1 13 22.1 9.6
-1 -1 13 22.6 8.6
-1 1 12 20.7 7.3
-1 -1 12 30.4 8.5
-1 1 11 7.2 6.5
-1 -1 11 -4.2 4.5
-1 1 10 19.1 9.9
-1 1 10 30.7 7.6
-1 -1 10 30.6 7.6
-1 -1 10 30.6 5.6
-1 1 9 -1.2 3.7
-1 1 9 7.6 5.6
1 -1 -9 -0.9 2
-1 -1 9 3 4.6
-1 -1 9 3.5 3.2
-1 1 8 82.29 9.4
-1 1 8 61.39 7.7
1 -1 -8 71.69 5.2
-1 -1 8 76.79 8.8
-1 -1 8 72.79 6
-1 1 7 23 4.6
-1 1 7 26.9 5.9
-1 -1 7 23.3 5
1 -1 -7 19.2 3.1
-1 -1 7 21.8 3.4
-1 1 6 1008.7 41.6
-1 1 6 1030.9 44.1
-1 -1 6 1038.1 39.7
-1 -1 6 1075.59 43.1
1 -1 -6 1062.59 40.1
-1 1 5 -3.3 3.3
-1 1 5 2.6 2.9
1 -1 -5 0.6 2.2
-1 -1 5 1.1 3.1
-1 -1 5 3.7 1.8
-1 1 4 434.96 19.2
1 1 -4 449.56 19.9
-1 -1 4 449.36 19.3
1 -1 -4 438.06 18.3
-1 1 3 46.4 4.7
1 1 -3 44.7 4.7
-1 -1 3 45.8 4.3
1 -1 -3 46.5 4.5
1 1 -2 218.28 10.2
-1 1 2 233.58 11.1
-1 -1 2 235.68 10.1
1 -1 -2 228.48 11
1 1 -1 1.4 1
1 1 -1 0.4 1.5
-1 1 1 0 1.8
-1 -1 1 4 1.7
1 -1 -1 0.3 1.8
-1 -1 1 1.7 1
1 1 0 180.28 8.2
-1 1 0 188.88 7.3
1 1 0 175.38 7.3
-1 1 0 176.48 8.1
1 -1 0 166.88 8
-1 -1 0 179.48 8.2
-1 -1 0 179.88 7.3
-1 1 -1 28.2 1.9
1 1 1 29.3 3.5
1 -1 1 30.9 1.9
-1 -1 -1 27.8 3.4
1 1 2 132.29 8.3
-1 1 -2 129.29 6.9
-1 -1 -2 125.89 7.6
1 -1 2 132.59 6.6
1 1 3 114.49 7.3
-1 1 -3 105.19 6.8
-1 -1 -3 116.09 6.7
1 -1 3 122.29 6.8
1 1 4 70.49 6
-1 -1 -4 75.19 5.3
1 -1 4 71.89 5.8
1 -1 4 70.69 4.2
1 1 5 86.79 7.1
1 -1 5 86.29 5.3
1 -1 5 81.49 7.2
-1 -1 -5 88.79 5.9
1 1 6 51.79 6
1 -1 6 44.3 4.3
-1 -1 -6 47.4 4.4
1 1 7 15.8 5
1 1 7 16.7 4.4
-1 -1 -7 18.8 3.1
1 -1 7 19.1 3.6
1 -1 7 17.5 4.5
1 1 8 197.58 14
1 1 8 183.38 11.9
1 -1 8 183.48 10.5
1 -1 8 191.68 13.4
-1 -1 -8 174.88 9.6
1 1 9 33 6.8
1 1 9 31 7.2
1 -1 9 40.2 5.8
-1 -1 -9 34.7 4.5
1 -1 9 34.2 7
1 1 10 5.6 5.7
1 -1 10 11.9 4.4
1 -1 10 -2.9 4.8
1 1 11 295.37 21.7
1 1 11 315.97 21.5
1 -1 11 281.07 20
1 -1 11 312.57 17.9
1 1 12 9.7 6.6
1 -1 12 0.3 5.4
1 1 13 58.29 11.8
1 -1 13 74.19 11.9
-1 2 13 7.9 8.6
-1 -2 13 10.3 6
-1 2 12 11 7.6
-1 -2 12 4.8 6.2
-1 2 11 57.99 10
-1 -2 11 37.9 8.4
1 -2 -11 54.99 5.5
-1 2 10 125.89 13.9
-1 -2 10 130.99 9.3
1 -2 -10 127.89 8.1
-1 -2 10 137.49 12.4
-1 2 9 52.99 9.8
-1 2 9 48.7 7.7
1 -2 -9 51.49 5.4
-1 -2 9 61.29 9.1
-1 -2 9 61.19 5.8
-1 2 8 132.49 12.6
-1 2 8 127.39 10.4
-1 -2 8 124.89 10.8
-1 -2 8 127.49 7.7
-1 2 7 228.18 15.3
-1 2 7 215.78 13.6
-1 -2 7 223.18 10.5
-1 -2 7 239.28 13.8
1 -2 -7 234.78 12
-1 2 6 1040.3 45.9
1 2 -6 1145.29 46.9
1 -2 -6 1130.79 44.7
-1 -2 6 1193.68 45.7
-1 2 5 12.5 4.4
-1 -2 5 16.1 3.9
1 -2 -5 13.2 3.8
-1 2 4 14.8 4.3
1 2 -4 9.6 3.1
-1 -2 4 9.2 2.9
1 -2 -4 14.1 4
-1 2 3 777.92 32.5
1 2 -3 803.12 30.6
-1 -2 3 800.62 30.3
-1 -2 3 746.43 30.9
1 -2 -3 756.32 31.9
-1 2 2 125.59 8.9
1 2 -2 127.29 6.6
-1 -2 2 131.49 6.5
1 -2 -2 108.09 8.4
-1 -2 2 129.89 8
1 2 -1 4850.92 176.78
-1 2 1 4856.31 177.48
1 -2 -1 4841.12 177.38
-1 -2 1 4758.82 176.78
-1 2 0 1266.87 47.3
-1 2 0 1289.97 49.6
1 2 0 1311.87 47.5
1 2 0 1299.07 49.7
1 -2 0 1263.37 47.5
-1 -2 0 1241.68 47.6
1 -2 0 1247.88 49.4
-1 -2 0 1277.87 49.5
1 2 1 2429.06 89.99
1 2 1 2454.75 88.49
1 -2 1 2281.87 89.09
-1 -2 -1 2389.86 89.69
1 2 2 4990.1 184.58
-1 -2 -2 5037.8 184.18
1 2 3 301.57 15.5
-1 2 -3 300.07 13.3
1 -2 3 294.47 12.9
-1 -2 -3 317.07 15
-1 2 -4 -3.4 2.2
1 2 4 4.8 3.7
-1 -2 -4 0.2 2.8
1 -2 4 2.8 2.2
-1 2 -5 -1.4 2.8
1 2 5 1.9 3.8
-1 -2 -5 4.3 3.1
1 -2 5 1.7 2.7
1 2 6 79.29 8.1
1 -2 6 77.79 8.1
-1 -2 -6 96.69 7.1
1 -2 6 90.69 5.5
1 2 7 13.3 4.9
1 -2 7 32.5 4
1 -2 7 21.5 4.8
-1 -2 -7 31 5.3
1 2 8 75.89 9.1
1 2 8 110.79 13
1 -2 8 67.39 8.4
1 -2 8 73.19 6.2
-1 -2 -8 72.49 6.4
1 2 9 262.47 17.5
1 2 9 290.37 19
1 -2 9 256.67 16.8
-1 -2 -9 264.27 13.4
1 -2 9 266.57 14.1
1 2 10 16.8 6.8
1 2 10 18.7 6.1
1 -2 10 24.2 6.7
1 -2 10 26.4 5.2
-1 -2 -10 28.6 4.4
1 2 11 12 7.2
1 -2 11 13.1 6.4
-1 -2 -11 20.9 4
1 -2 11 17 5.6
1 2 12 9.4 7.5
1 -2 12 21.4 6.1
1 -2 12 12.1 6.7
1 2 13 20.2 8.4
1 -2 13 30.7 8.2
-1 3 13 3.8 7.9
-1 -3 13 4.4 5.9
-1 3 12 -0.1 6.3
-1 -3 12 -6.4 4.9
1 -3 -12 6.1 3.3
-1 3 11 112.49 15.3
-1 -3 11 82.49 8
1 -3 -11 82.69 7.1
-1 -3 11 58.89 9.8
-1 3 10 10 6.7
1 -3 -10 10.3 3.7
-1 -3 10 -1.8 4.6
-1 -3 10 6.5 3.5
-1 3 9 -0.1 5
-1 3 9 -1.1 5
1 -3 -9 0.4 3
-1 -3 9 1.2 4.3
-1 -3 9 -0.8 2.7
-1 3 8 66.39 9.8
1 -3 -8 60.19 6.8
-1 -3 8 69.89 8.2
-1 -3 8 59.39 5.3
-1 3 7 33.4 7.1
1 3 -7 34.2 6.4
1 -3 -7 38.6 5.9
-1 -3 7 26.8 5.2
-1 -3 7 30.7 3.8
1 3 -6 7.4 3.7
-1 3 6 15.1 5.2
1 -3 -6 10.1 4
-1 -3 6 12.5 3.6
-1 3 5 470.55 24.3
1 3 -5 504.35 22.5
1 -3 -5 529.05 24.1
-1 -3 5 481.65 22.3
-1 -3 5 490.95 21.5
1 3 -4 63.49 5.8
-1 3 4 60.59 8.3
1 -3 -4 74.29 8.2
-1 -3 4 62.49 6.8
-1 -3 4 72.59 5.7
-1 3 3 18.4 5
1 3 -3 14.6 2.9
-1 -3 3 7.1 3.8
1 -3 -3 15.5 4.9
-1 -3 3 14 2.8
-1 3 2 998.8 41.9
1 3 -2 1033.3 38.1
-1 -3 2 1027.6 38
-1 -3 2 965.3 40.5
1 -3 -2 953.6 41.3
1 3 -1 580.54 21.7
-1 3 1 551.24 22.8
1 3 -1 513.45 24.3
-1 3 1 538.15 25.1
1 -3 -1 550.84 25.1
-1 -3 1 540.75 21.8
-1 -3 1 533.55 24.5
1 3 0 2.2 3.6
-1 3 0 -1.1 1.9
1 3 0 -0.5 2
-1 3 0 1.7 3.3
-1 -3 0 0 2.4
1 -3 0 0.1 2.3
1 -3 0 9.6 4.5
-1 -3 0 1.3 3.8
1 3 1 100.09 6.6
-1 3 -1 101.19 5.4
1 3 1 94.49 8.9
1 -3 1 96.19 5.6
1 -3 1 83.69 7.7
-1 -3 -1 91.39 8.4
1 3 2 149.88 11.3
-1 3 -2 168.88 7.9
1 -3 2 158.38 10.5
1 -3 2 172.58 7.9
-1 -3 -2 170.98 11
-1 3 -3 1.1 1.8
1 3 3 5.5 4.5
1 -3 3 0.2 3.2
1 -3 3 2 2
-1 -3 -3 3 3.9
1 3 4 95.59 9.7
-1 3 -4 113.19 7.4
1 -3 4 107.69 6.8
-1 -3 -4 97.29 8.9
-1 3 -5 37.4 5.2
1 3 5 34.7 6.8
1 -3 5 39.3 4.8
-1 -3 -5 43.4 6.7
-1 3 -6 83.19 7.8
1 3 6 81.29 9.1
-1 -3 -6 85.49 7.8
-1 3 -7 184.68 13.2
1 3 7 173.28 13.3
-1 -3 -7 160.88 11.3
1 -3 7 195.28 11.6
1 -3 7 158.28 9.1
1 3 8 24.6 6.7
1 -3 8 25.7 4
-1 -3 -8 13 4.2
1 -3 8 28 5.8
1 3 9 376.66 22.4
-1 -3 -9 371.86 19
1 -3 9 373.36 17.3
1 -3 9 373.96 20.4
1 3 10 -5.3 4.2
1 3 10 -1.8 4.6
1 -3 10 1.2 4.8
-1 -3 -10 -3.3 2.8
1 -3 10 1 3.2
1 3 11 -7.1 5.1
1 3 11 5.1 5.6
1 -3 11 3.2 5.4
1 -3 11 0.1 3.6
-1 -3 -11 -0.8 2.9
1 3 12 30.6 9.6
1 -3 12 13.9 6.8
-1 -3 -12 5.8 3.7
1 -3 12 15.6 5.1
1 3 13 3.5 8
1 -3 13 8.7 6.5
-1 4 12 -2.6 6.5
1 -4 -12 11.9 5.4
-1 -4 12 1.8 3.9
-1 -4 12 3.4 5.9
-1 4 11 0.2 6.6
-1 4 11 2.8 7.1
1 -4 -11 0.8 3.6
-1 -4 11 4.4 3.4
-1 -4 11 6 5.5
-1 4 10 14.7 7
-1 4 10 18.5 7.1
-1 -4 10 15.7 3.9
-1 -4 10 12.6 5.7
1 -4 -10 19 5.1
-1 4 9 321.57 21
1 -4 -9 283.07 17.7
-1 -4 9 327.27 18.4
1 4 -8 65.89 9.7
-1 4 8 65.89 10
-1 -4 8 73.39 8.8
1 -4 -8 66.49 9
-1 4 7 96.99 10.8
1 4 -7 105.19 9.7
-1 -4 7 94.19 9.3
-1 -4 7 106.89 8.9
1 -4 -7 98.09 9.8
-1 4 6 38.6 7.7
1 4 -6 56.99 7.4
1 -4 -6 64.39 8.5
-1 -4 6 42.3 7
-1 -4 6 42.5 5.8
-1 4 5 164.88 12.9
1 4 -5 150.68 9.5
-1 -4 5 130.79 10.5
1 -4 -5 150.18 11.6
-1 -4 5 145.39 9.1
-1 4 4 411.46 23.1
1 4 -4 420.46 18.9
-1 -4 4 416.96 21
-1 -4 4 412.56 18.3
1 -4 -4 422.16 22.4
-1 4 3 67.99 9.5
1 4 -3 64.59 5.4
-1 -4 3 69.29 5.5
-1 -4 3 57.49 8.1
1 -4 -3 80.49 9.7
1 4 -2 482.25 23.6
-1 4 2 475.35 24.9
1 4 -2 509.85 20.4
1 -4 -2 472.25 26.6
-1 -4 2 496.45 20.3
-1 -4 2 465.95 23.8
-1 4 1 309.97 18
1 4 -1 310.57 17.8
-1 4 1 323.27 15.3
1 4 -1 316.87 14.2
-1 -4 1 323.67 14.7
-1 -4 1 312.57 17.7
1 -4 -1 326.57 19.8
-1 4 0 250.07 15.6
-1 4 0 280.37 12.7
1 4 0 276.97 16.5
1 4 0 273.67 12.8
-1 -4 0 260.97 16.1
1 -4 0 252.67 15.7
-1 -4 0 278.27 13.6
1 -4 0 257.57 13.3
-1 4 -1 32 3.8
1 4 1 42.5 5.4
1 4 1 22.5 6.3
-1 4 -1 36.1 6.7
-1 -4 -1 28.3 7.5
1 -4 1 32.4 6.4
1 -4 1 37.5 4.3
1 4 2 110.19 11.1
-1 4 -2 118.69 6.8
1 -4 2 116.89 7
1 -4 2 125.69 10.5
-1 -4 -2 117.89 10.8
-1 4 -3 98.39 6.4
1 4 3 78.79 9.5
1 -4 3 82.79 9.4
-1 -4 -3 100.89 10
1 -4 3 105.39 6.4
-1 4 -4 297.97 14.5
-1 -4 -4 313.97 18.1
1 -4 4 331.57 14.4
1 -4 4 292.67 17.2
-1 4 -5 341.27 17.2
1 4 5 361.46 21
-1 -4 -5 366.76 19.8
1 -4 5 350.16 16.4
1 4 6 2.2 4.8
-1 4 -6 8.1 3.8
1 -4 6 -2.8 3.2
-1 -4 -6 12.5 4.9
1 -4 6 9.1 4.6
1 4 7 138.49 12.9
-1 4 -7 126.69 10.6
1 -4 7 130.59 9.5
1 -4 7 113.79 11.2
-1 -4 -7 127.19 10.9
1 4 8 12.2 6.6
-1 4 -8 17.8 6.3
-1 -4 -8 10.3 4.9
1 -4 8 23.5 5.7
1 -4 8 9.1 3.6
1 -4 8 19.7 6.1
1 4 9 22.9 7.6
-1 -4 -9 24.7 5.8
1 -4 9 35 6.9
1 -4 9 44.8 9.7
1 4 10 4.5 5.8
1 -4 10 11.5 5.6
-1 -4 -10 5.4 4
1 4 11 9 7.5
1 4 11 1 6.4
1 -4 11 15.3 6.4
1 4 12 3.4 7.6
1 -4 12 -2.2 5.8
-1 -4 -12 0.5 3.9
-1 5 12 29.9 11.4
-1 -5 12 27.8 7.8
-1 -5 12 12.5 4.7
1 -5 -12 6.6 5.2
-1 5 11 -2.2 7.3
1 -5 -11 -0.3 4.3
-1 -5 11 2.6 5.3
-1 -5 10 42.7 8.3
1 -5 -10 30.8 7
1 5 -9 17.5 6.8
-1 5 9 20.7 8.2
-1 -5 9 29.8 10.3
-1 -5 9 19.9 4.7
1 -5 -9 14.6 6.2
-1 -5 9 33.1 7
1 5 -8 9.9 5.5
-1 5 8 1.7 6.4
-1 -5 8 -0.4 5.6
1 -5 -8 19 6.4
-1 -5 8 11.7 5.2
-1 5 7 360.56 24.7
1 5 -7 376.86 21.7
1 -5 -7 372.36 23.1
-1 -5 7 361.26 22.4
-1 -5 7 385.96 19.1
-1 5 6 212.98 17.3
1 5 -6 201.78 13
-1 -5 6 198.48 15.6
1 -5 -6 236.98 16
-1 -5 6 210.48 12.5
-1 5 5 5.7 5.4
1 5 -5 -1.1 2.7
1 -5 -5 -0.3 4.2
-1 -5 5 -4.7 2.9
-1 -5 5 4.2 4.5
1 5 -4 74.49 6.4
-1 5 4 87.79 11.4
1 -5 -4 90.29 10.2
-1 -5 4 73.89 9.2
-1 -5 4 54.59 6.6
1 5 -3 12 3.5
-1 5 3 6.1 5.3
-1 -5 3 10 5.2
-1 -5 3 7.9 3.2
1 -5 -3 18.2 6.4
1 5 -2 285.77 14.2
-1 5 2 305.87 16.1
1 5 -2 322.37 21.2
-1 5 2 289.87 19.3
-1 -5 2 297.57 18.4
1 -5 -2 317.87 19.1
-1 -5 2 310.47 14.8
-1 5 1 7.3 5.7
1 5 -1 -0.6 2.9
-1 5 1 1.7 5.3
-1 -5 1 1.5 4.9
1 -5 -1 -3.2 4.6
-1 -5 1 3.4 3.2
1 5 0 39 8
-1 5 0 38 4.9
-1 5 0 44.8 8.3
-1 -5 0 36.1 7
1 -5 0 42.1 8.2
-1 -5 0 34.2 5.9
1 5 1 204.78 11.8
-1 5 -1 188.48 10.5
-1 5 -1 215.08 16.9
1 5 1 199.98 15.5
1 -5 1 205.98 11.6
1 -5 1 212.28 15.1
-1 -5 -1 199.68 15.1
1 5 2 87.29 7.5
-1 5 -2 83.09 6.1
1 5 2 75.59 10.6
1 -5 2 67.99 9.6
-1 -5 -2 70.89 10.1
1 -5 2 79.29 6.5
1 5 3 0.8 4.3
1 5 3 8.2 4.4
-1 5 -3 -0.3 2.1
1 -5 3 0.7 2.7
1 -5 3 -3.6 4.1
-1 -5 -3 0.7 4.6
1 5 4 46.8 8.7
-1 -5 -4 58.09 8.7
1 -5 4 63.89 5.7
1 -5 4 59.99 8.8
1 5 5 -4.1 4.8
-1 5 -5 -1.5 2.4
1 -5 5 0.1 4.1
1 -5 5 -8.8 2.8
-1 -5 -5 3.6 5
1 5 6 29.8 8.6
-1 5 -6 43 6.7
1 -5 6 52.59 8.7
-1 -5 -6 40.2 8.6
1 -5 6 49.99 6.1
1 5 7 13.4 7.1
-1 5 -7 12.4 5.2
1 -5 7 11.8 6.9
-1 -5 -7 22 6.7
1 -5 7 11.5 4.4
-1 5 -8 238.28 16.1
1 5 8 224.08 17.9
1 -5 8 237.08 19.4
-1 -5 -8 170.08 14.9
1 -5 8 242.58 14.5
1 5 9 13.7 8
1 -5 9 23 9.4
-1 -5 -9 12.6 6
1 -5 9 4.1 3.6
1 -5 9 6.9 4.8
1 5 10 74.99 15.7
1 -5 10 87.79 10.6
1 -5 10 83.49 7.3
-1 -5 -10 78.69 11.1
1 5 11 36.4 11.7
1 5 11 25 9.9
1 -5 11 20.6 4.8
1 -5 11 23.9 7.2
-1 -5 -11 17.7 5.7
1 5 12 5.3 6.2
1 -5 12 -7.8 5.3
1 -5 12 -0.5 4
-1 6 11 10.9 9.8
-1 -6 11 16.1 4.5
-1 -6 11 22.4 7
-1 6 10 14.2 9.8
-1 -6 10 16.1 4.4
-1 6 9 7.9 6.7
1 6 -9 7.7 5.9
1 -6 -9 10.8 6.3
-1 -6 9 7.4 4.9
-1 6 8 72.39 16.1
1 -6 -8 86.99 10.8
-1 -6 8 73.69 9.1
-1 -6 8 98.59 16.7
-1 6 7 -11.4 4.7
1 6 -7 -2.9 3.6
-1 -6 7 8.5 6.9
1 -6 -7 2.2 7.2
-1 -6 7 -2.2 3.6
-1 6 6 184.18 16.7
1 6 -6 156.78 11.8
1 -6 -6 126.69 14.2
-1 -6 6 178.58 15.6
-1 -6 6 164.38 11
1 6 -5 18.3 4.5
-1 6 5 26.1 8.4
-1 -6 5 7.4 6.2
-1 -6 5 24.2 5.1
1 -6 -5 17 7.5
1 6 -4 111.99 8.4
-1 6 4 116.49 12.6
1 -6 -4 116.09 12.5
-1 -6 4 101.49 8.2
-1 -6 4 145.49 12.7
-1 6 3 18.8 5.3
1 6 -3 9 3.3
-1 6 3 10.7 5.9
-1 -6 3 15.4 4.5
-1 -6 3 10.4 5.7
1 -6 -3 8.2 6.1
1 6 -2 28.6 7.1
1 6 -2 23 4.2
-1 6 2 29.9 8
-1 6 2 19 4.9
1 -6 -2 28.3 7.6
-1 -6 2 23.7 6.8
1 6 -1 67.49 6.3
-1 6 1 61.89 6.9
-1 6 1 64.59 10.3
1 6 -1 72.19 10.6
1 -6 -1 70.59 10.6
-1 -6 1 76.69 9.5
-1 6 0 8.4 5.6
1 6 0 4.5 5.3
-1 6 0 7.3 3.3
1 6 0 -2.8 2.5
1 -6 0 5.4 5.6
-1 -6 0 2.7 5.1
-1 -6 0 -4 3.5
-1 6 -1 135.79 9.1
-1 6 -1 145.49 13.6
1 6 1 155.78 10.4
1 6 1 167.18 14.3
-1 -6 -1 155.78 14.2
1 -6 1 148.59 10.2
1 -6 1 138.79 13.4
-1 6 -2 -1.5 2.5
1 6 2 14.3 6.8
1 6 2 4.4 3.8
1 -6 2 10 6
-1 -6 -2 10.7 6.3
1 -6 2 0.3 3.1
-1 6 -3 5.9 3
1 6 3 2.8 4.1
1 6 3 1.1 5.8
1 -6 3 0.2 3
1 -6 3 8.3 5.9
-1 -6 -3 3.9 5.1
-1 6 -4 15.7 3.7
1 6 4 20.5 5.6
1 6 4 5.3 6.5
1 -6 4 2.4 5.3
-1 -6 -4 17.6 6.6
1 -6 4 7.4 4.7
-1 6 -5 40 5.9
1 6 5 45.3 10.6
-1 -6 -5 39.4 8.9
1 -6 5 44.7 9.6
1 -6 5 37.4 5.6
1 6 6 22.9 7.8
-1 6 -6 -2.8 3.5
1 -6 6 6.3 3.7
1 -6 6 8.2 6.3
-1 -6 -6 3.2 6
-1 6 -7 43 7.9
1 6 7 48 10.9
1 -6 7 52.69 6.8
-1 -6 -7 58.59 10.2
1 -6 7 66.59 11.4
1 6 8 5.7 6.3
-1 6 -8 2.2 4.5
-1 -6 -8 -2.3 4.9
1 -6 8 2.8 4.1
1 -6 8 -3.3 7.1
-1 6 -9 28.5 8.3
1 6 9 24.3 8.8
-1 -6 -9 22.1 7.3
1 -6 9 33.3 6.9
1 -6 10 -3.4 4.3
1 6 11 -2.7 8.3
1 -6 11 4.8 4
1 -6 11 6.3 5.2
-1 -7 11 -0.1 5.6
-1 -7 11 8.8 4.5
-1 -7 10 -1 5
1 7 -9 -4.4 5.5
-1 7 9 10.6 7.5
-1 -7 9 3.1 4.7
1 7 -8 -1.7 4.5
-1 -7 8 2.7 4.5
-1 7 7 53.19 15.2
1 7 -7 41.4 8
-1 -7 7 48.3 10.3
-1 -7 7 43.8 7.3
1 -7 -7 47.4 12.3
1 7 -6 70.09 8.4
-1 7 6 95.49 13.9
-1 -7 6 91.49 15
-1 -7 6 64.79 8.2
1 -7 -6 83.89 13.1
1 7 -5 32.2 5.8
-1 7 5 25 9.6
-1 7 5 32.2 8
-1 -7 5 18 5.5
1 -7 -5 20.7 8.7
-1 -7 5 33.3 8.6
-1 7 4 -8 6.4
1 7 -4 -4.2 3
-1 -7 4 -3.8 6.7
-1 -7 4 3.7 4.1
1 -7 -4 -10.8 5.6
-1 7 3 213.58 18
1 7 -3 195.68 11.9
-1 7 3 185.38 13.1
-1 -7 3 217.58 17.1
-1 -7 3 183.38 12.7
-1 7 2 16.1 8.5
-1 7 2 6.5 4.3
1 7 -2 13.9 4
-1 -7 2 8.8 4.6
-1 -7 2 3.1 6.2
1 -7 -2 12.1 6.9
1 7 -1 112.69 9.3
1 7 -1 156.38 15.2
-1 7 1 116.89 9.8
-1 7 1 161.48 15.8
-1 -7 1 112.19 10.5
1 -7 -1 130.09 14.1
-1 -7 1 173.58 15.1
-1 7 0 166.58 11.2
1 7 0 179.58 11.5
1 7 0 186.38 17.1
-1 7 0 214.38 17.5
1 -7 0 167.98 15.3
-1 -7 0 170.38 15.9
1 7 1 111.79 9.2
1 7 1 93.19 13.1
-1 7 -1 87.59 7.9
1 -7 1 98.79 9.4
-1 -7 -1 120.09 13.5
1 -7 1 104.69 12.1
1 7 2 54.79 7.8
-1 7 -2 54.49 6.3
1 7 2 61.59 11.3
1 -7 2 61.59 8.1
1 -7 2 66.09 11.2
-1 -7 -2 66.59 11.2
1 7 3 11.7 5.4
1 7 3 11.5 7.5
-1 7 -3 4.4 3.1
1 -7 3 4 6.5
1 -7 3 -1.2 3.9
-1 -7 -3 -0.5 9.4
-1 7 -4 4.1 3.5
1 7 4 13.3 8.1
1 7 4 10.6 6.1
1 -7 4 13.8 4.6
1 -7 4 9.6 6.6
-1 -7 -4 23.2 7.7
1 7 5 8.8 5.5
-1 7 -5 2.8 3.4
1 7 5 2.7 6.3
-1 -7 -5 -6.7 6
1 -7 5 -4.2 6.6
1 -7 5 2.6 3.9
1 7 6 43.9 11
-1 7 -6 22.1 5.4
1 -7 6 13.3 5.1
1 -7 6 22.8 9.8
-1 -7 -6 14.9 7.8
-1 7 -7 9.6 4.8
1 7 7 13.3 7.7
1 -7 7 3.8 8.3
1 -7 7 1.2 4.2
1 -7 8 0.1 4.2
1 -7 8 4.6 8.3
1 7 9 4.4 10
-1 7 -9 8.3 6.7
1 -7 9 6.4 5.2
1 7 10 14 10.7
1 -7 10 -3.5 5.5
1 -7 11 -3.3 3.7
1 -7 11 1.1 5.5
-1 -8 10 17.2 6.5
-1 8 9 27.7 11.1
1 8 -8 16.1 6.8
-1 8 8 34.9 12.6
-1 -8 8 28.1 6.8
-1 8 7 61.19 15.3
1 8 -7 41.4 8.5
-1 -8 7 58.99 8.5
-1 -8 7 60.19 16.8
-1 8 6 14.5 10.1
1 8 -6 1.1 4.3
-1 -8 6 29.2 13.7
-1 -8 6 13.8 5.4
1 8 -5 55.49 7.4
-1 8 5 28.5 14.3
-1 -8 5 43.3 7.3
-1 -8 5 59.79 11.6
1 8 -4 28.2 5.4
-1 8 4 25 10.7
-1 8 4 19.6 6.8
-1 -8 4 28.7 6.8
-1 -8 4 22.8 9.3
-1 8 3 69.99 10.1
-1 8 3 107.59 16.4
1 8 -3 66.39 7.9
-1 -8 3 86.59 10
-1 -8 3 62.19 12.5
1 -8 -3 100.09 15.7
-1 8 2 39.4 10.4
-1 8 2 29 6.8
1 8 -2 21 5.5
1 -8 -2 27.8 9.6
-1 -8 2 33.1 9.7
-1 -8 2 32.1 7.3
-1 8 1 40.6 10.5
-1 8 1 18.9 5.9
1 8 -1 35.8 10.5
1 8 -1 31.2 6
-1 -8 1 19.8 6.9
-1 -8 1 28.3 9.6
1 -8 -1 70.29 12.9
1 8 0 28.9 9.8
-1 -8 0 37.7 9.6
1 8 1 9.8 4.8
-1 8 -1 17.3 4.8
1 8 1 9.4 8.4
-1 -8 -1 5.2 8.3
1 -8 1 17.5 9
-1 8 -2 25.1 5.1
1 8 2 20.9 10
1 8 2 8.9 6.6
1 -8 2 24.3 6.5
1 -8 2 15 8.6
-1 -8 -2 20 8.7
1 8 3 1.3 4.8
1 8 3 8.2 9.3
-1 8 -3 8.9 4
-1 -8 -3 1.4 7.7
1 -8 3 1.8 7.7
1 -8 3 2.2 4.8
1 8 4 2.4 5.4
-1 8 -4 8.9 3.8
1 8 4 17.8 9.2
1 -8 4 5 7
1 -8 4 -2 4.2
-1 8 -5 148.69 10.8
1 -8 5 139.29 11.6
1 -8 5 135.79 22.9
-1 8 -6 21.3 5.7
1 8 6 16.5 9.6
1 -8 6 22 9.3
1 -8 6 20.4 6.1
-1 8 -7 -3.4 4
1 8 7 7.4 8.7
1 -8 7 1.6 4.5
1 8 8 21 10.9
-1 8 -8 20.3 7.1
1 -8 8 15.7 5.8
1 -8 8 30 12.7
1 8 9 -2.8 8.7
1 -8 9 -5.7 4.9
1 -8 10 -5.2 4.5
-1 -9 9 2.7 5.2
-1 9 8 5.5 10.2
-1 -9 8 22.1 7.4
1 9 -7 18.1 6.5
-1 9 7 21.9 11.2
-1 -9 7 17.9 6.8
1 9 -6 5.7 4.5
-1 9 6 20.7 12.6
-1 -9 6 19.6 6.8
-1 9 5 44 14.3
1 9 -5 14.6 5.3
-1 -9 5 15.2 6.6
-1 9 4 10.1 10.8
-1 -9 4 5.4 5.6
-1 9 3 62.99 15.6
-1 9 3 47.9 9.7
1 9 -3 68.39 8.3
-1 -9 3 58.79 10
1 9 -2 7.4 4.6
-1 9 2 -0.1 5.2
-1 9 2 3.3 8.8
-1 -9 2 13.8 7.2
-1 9 1 56.79 8.6
-1 9 1 50.59 13.4
1 9 -1 52.79 9.3
-1 9 0 48.5 7.4
1 9 0 51.49 7.9
-1 9 -1 36.9 6.3
1 9 1 65.19 14.1
1 9 1 26.2 6.6
1 9 2 10.4 10
-1 9 -2 -4.9 3.4
1 9 2 2.1 4.9
-1 9 -3 18 5.3
1 9 3 35.3 13.3
1 -9 3 25.4 7.7
1 9 4 11.1 9.9
-1 9 -4 5.9 3.9
1 -9 4 -1.3 5.6
1 9 5 3.6 9.3
-1 9 -5 7 4.3
1 -9 5 10.2 6.1
1 9 6 23.5 13.4
-1 9 -7 26.3 7.1
1 -9 7 31.7 7.7
1 9 8 10.4 10.9
-1 9 -8 3.7 6.2
1 -9 8 0.1 5.2
-1 -10 7 5.6 7.9
-1 10 6 31.7 15.8
-1 -10 6 20.5 8.1
-1 10 5 1 9.8
1 10 -5 6.8 4.6
-1 -10 5 4.2 6.7
-1 10 4 -8.7 7
1 10 -4 3.1 4.5
-1 -10 4 1.1 6
-1 10 3 -1.3 10
1 10 -3 -8.4 4
-1 -10 3 -5.7 5.9
1 10 -2 4.2 4.3
-1 10 2 -9.3 6.2
1 10 -1 6.3 4.8
-1 10 1 -3.7 4.8
-1 10 1 39 12.2
1 10 0 92.99 11.1
1 10 0 126.99 22.2
-1 10 0 82.89 10.5
1 10 1 7.6 11
-1 10 -1 10.5 5
1 10 2 -8.8 5.9
-1 10 -2 -3.1 3.8
1 10 3 38 15.5
-1 10 -3 31.1 6.2
1 -10 3 8.7 6.9
1 10 4 56.59 13
-1 10 -4 40.1 6.9
1 -10 4 47.7 10.5
-1 10 -5 8.7 4.8
1 10 5 10.1 9.2
1 -10 5 -0.1 5.9
-1 10 -6 32.8 7.1
1 -10 6 8.2 6.9
1 10 7 9.2 12.3
1 -10 7 7 6.7
-1 -11 6 0.8 8
-1 -11 5 7.5 9
-1 -11 4 -0.5 7.4
-1 11 3 12.5 12.9
1 11 1 14.9 13
1 11 2 18.5 13.3
1 11 3 1.4 12.8
1 11 4 24.7 11.7
1 -11 5 1.7 8.6
-2 0 13 1.4 6.4
-2 0 12 135.09 14.5
-2 0 11 5.7 6.3
-2 0 10 119.19 13
-2 0 10 115.69 11.4
-2 0 9 -0.5 3
-2 0 9 -2.6 4.5
-2 0 8 529.75 26.2
-2 0 8 497.55 22.3
-2 0 7 2.3 3.5
-2 0 7 2.9 2.4
-2 0 6 35.7 4.1
-2 0 6 47.9 7
-2 0 5 -3.8 3
-2 0 5 -2.7 1.8
2 0 -5 1.2 1.4
-2 0 4 313.67 13.6
-2 0 4 344.87 16.1
2 0 -4 336.47 12.8
2 0 -3 -1.7 1
-2 0 3 -1.7 1.5
-2 0 3 -2.9 2.4
2 0 -2 1359.66 52.39
2 0 -2 1442.56 50.59
-2 0 2 1391.76 50.79
-2 0 2 1378.26 52.29
-2 0 1 -0.3 0.8
2 0 -1 0.1 0.8
-2 0 -1 0.1 0.7
2 0 1 -0.2 0.7
2 0 2 77.89 4.7
-2 0 -2 74.99 4.1
-2 0 -3 -0.1 1.4
2 0 3 -0.4 1.8
2 0 4 5 2.2
-2 0 -4 7.7 1.8
2 0 5 3.1 3.3
2 0 5 2.8 2.6
-2 0 -5 1.7 1.8
2 0 6 23.5 5.2
-2 0 -6 20.7 3.1
2 0 6 25.1 4
2 0 7 -2.3 3.1
2 0 7 1.4 2.8
2 0 8 262.37 14
2 0 8 230.98 15.9
2 0 9 -6.3 3.7
2 0 9 0.8 3.7
2 0 10 195.68 16.4
2 0 10 208.78 15.3
2 0 12 164.08 16.2
2 0 13 1.3 5.9
-2 1 13 7.5 7.9
-2 -1 13 6.5 6.3
-2 1 12 46.2 10.4
-2 -1 12 67.79 11.3
-2 1 11 26.8 8.2
-2 -1 11 29.2 7.4
-2 -1 10 17.3 6.5
-2 -1 10 17.3 5
-2 1 9 40.7 6.8
-2 1 9 30.9 7.9
-2 -1 9 49.5 5.6
2 -1 -9 31.2 3.8
-2 -1 9 24.7 6.5
-2 1 8 23.7 6.8
-2 1 8 23.1 4.9
-2 -1 8 9.6 5.1
-2 -1 8 32 4.3
2 -1 -8 30.8 3.6
-2 1 7 40.1 6.8
-2 1 7 42.6 5.7
2 -1 -7 40.1 3.9
-2 -1 7 43.5 4
-2 -1 7 41.3 6.7
-2 1 6 145.09 11.2
-2 1 6 135.79 8.9
-2 -1 6 158.48 10.4
2 -1 -6 146.39 7.6
-2 -1 6 141.29 7.2
-2 1 5 1.8 3.9
-2 1 5 -1.6 2.5
2 1 -5 1 3.6
-2 -1 5 1.8 1.7
-2 -1 5 2.2 3
2 -1 -5 1.6 2.1
-2 1 4 77.89 5.9
2 1 -4 77.69 6.4
-2 -1 4 75.19 6.1
-2 -1 4 77.79 3.8
2 -1 -4 75.99 5.3
2 1 -3 1061.59 40.8
-2 1 3 1027.4 40.6
-2 -1 3 1094.69 40.5
2 -1 -3 1034.2 40.3
-2 1 2 893.71 34.3
2 1 -2 890.91 33.7
-2 -1 2 863.01 33.1
2 -1 -2 868.41 34.2
-2 -1 2 899.71 33.5
2 1 -1 408.86 15.3
-2 1 1 400.66 16.3
2 1 -1 394.46 15.8
-2 -1 1 395.36 15.3
-2 -1 1 381.56 15.7
2 -1 -1 385.36 16.3
2 1 0 56.59 4
2 1 0 59.39 3.2
-2 -1 0 61.69 3.3
-2 -1 0 64.99 4.1
2 1 1 12.6 2.9
-2 1 -1 17.4 1.5
-2 -1 -1 22 2.9
2 -1 1 14.4 1.4
2 1 2 -0.3 3.2
-2 1 -2 5 2.3
2 -1 2 2.5 2.1
-2 -1 -2 4 3
2 1 3 46.2 4.9
-2 -1 -3 54.19 4.5
2 -1 3 51.59 4.3
2 1 4 316.17 15
2 -1 4 318.77 14.8
-2 -1 -4 310.07 14
2 1 5 45.9 5.9
2 -1 5 54.99 6.3
-2 -1 -5 35.2 4.3
2 -1 5 44.3 4.2
2 1 6 6.9 3.5
-2 -1 -6 7.6 2.7
2 -1 6 10.7 2.8
2 -1 6 6.3 3.8
2 1 7 90.19 9.4
2 1 7 63.79 7.2
2 -1 7 90.99 8.3
-2 -1 -7 74.49 5.4
2 -1 7 68.09 6
2 1 8 107.39 11.1
2 1 8 109.39 9.5
-2 -1 -8 109.39 7.4
2 -1 8 111.19 10.2
2 -1 8 114.99 8.2
2 1 9 3.5 4.5
2 1 9 -1.6 4.3
-2 -1 -9 3.1 2.5
2 -1 9 0.7 3.2
2 -1 9 0.7 4.3
2 1 10 12.9 6.5
2 1 10 10.3 5.7
2 -1 10 12.5 6.1
2 -1 10 13.7 5.1
2 1 11 44 9
2 1 11 32.7 9.1
2 -1 11 39.3 7.7
2 -1 11 31.4 8
2 1 12 28 8.9
2 -1 12 15.5 7
2 1 13 46.2 10.7
2 -1 13 63.69 10.9
-2 -2 13 2.8 6.3
-2 2 12 61.79 12
-2 -2 12 53.49 9.9
-2 2 11 11.3 6.2
-2 -2 11 2 5.6
2 -2 -11 6.6 2.8
-2 2 10 107.49 14.1
-2 2 10 79.89 11.1
-2 -2 10 98.39 7.8
-2 -2 10 73.59 10
2 -2 -10 84.99 6.3
-2 2 9 106.19 12.3
-2 2 9 84.49 9.8
-2 -2 9 75.79 6.4
2 -2 -9 78.19 6.7
-2 -2 9 93.69 10.1
-2 2 8 29.7 5.9
-2 2 8 25.3 7
-2 -2 8 33.9 4.1
2 -2 -8 29.5 4.5
-2 -2 8 19.3 5.5
-2 2 7 168.58 11.6
-2 2 7 176.58 13.8
2 2 -7 189.38 13.2
-2 -2 7 179.78 8.7
-2 -2 7 220.88 12.7
2 -2 -7 172.78 10.3
2 2 -6 17.1 4.9
-2 2 6 14.7 4.3
2 -2 -6 15.5 3.8
-2 -2 6 13.2 4.3
-2 -2 6 20.9 2.6
-2 2 5 146.49 10
2 2 -5 131.39 9.7
2 -2 -5 143.39 9.4
-2 -2 5 159.18 9.3
2 2 -4 84.49 6.9
-2 2 4 100.09 8.1
2 -2 -4 85.79 7.3
-2 -2 4 110.79 6.9
-2 -2 4 102.09 6.6
-2 2 3 374.06 17.9
2 2 -3 393.36 16.4
-2 -2 3 391.86 16.1
2 -2 -3 380.76 17.8
-2 -2 3 357.56 16.5
2 2 -2 1455.45 55.89
-2 2 2 1468.45 57.29
2 2 -2 1533.55 54.99
-2 -2 2 1532.45 54.99
-2 -2 2 1451.75 56.09
2 -2 -2 1407.96 56.89
2 2 -1 4257.27 156.98
-2 2 1 4306.67 157.58
2 -2 -1 4327.67 157.68
-2 -2 1 4212.08 156.88
2 2 0 1421.36 51.19
2 2 0 1347.77 53.09
-2 2 0 1404.96 50.89
-2 2 0 1376.66 53.09
2 -2 0 1351.66 53.09
-2 -2 0 1396.26 51.39
-2 -2 0 1325.07 52.99
2 2 1 306.67 13.8
2 2 1 288.17 15.3
-2 2 -1 315.57 12.1
2 -2 1 304.27 12.1
-2 -2 -1 298.07 15.3
2 2 2 111.89 8.1
-2 2 -2 98.79 5.4
2 -2 2 110.69 5.3
-2 -2 -2 104.69 7.9
2 2 3 426.26 20.2
-2 2 -3 439.56 17.8
-2 -2 -3 409.46 19.3
2 -2 3 436.16 17.4
-2 2 -4 10 3.2
2 2 4 5.6 4.1
2 -2 4 9.4 2.7
-2 -2 -4 3.1 3.3
-2 2 -5 123.19 8.8
2 2 5 124.69 9.7
-2 -2 -5 122.19 8.6
2 -2 5 134.89 8.3
2 2 6 36.1 6.4
-2 -2 -6 38 5.2
2 -2 6 29.5 5
2 -2 6 30.2 3.6
2 2 7 68.99 8
2 -2 7 80.89 7.6
2 -2 7 75.49 5.7
-2 -2 -7 71.09 6.2
2 2 8 8.2 5.3
2 -2 8 18.6 4.9
-2 -2 -8 20.3 4.1
2 -2 8 17 4
2 2 9 249.97 18.7
2 2 9 203.58 15.8
-2 -2 -9 254.17 12.9
2 -2 9 260.97 16.4
2 -2 9 250.27 13.4
2 2 10 49.9 9.3
2 2 10 68.09 10.3
2 -2 10 59.29 6.9
2 -2 10 59.69 9
-2 -2 -10 54.79 5.8
2 2 11 51.59 12.7
2 2 11 73.59 12.4
-2 -2 -11 57.89 6
2 -2 11 67.29 8.2
2 -2 11 51.29 10.5
2 2 12 1 6.4
2 -2 12 1.9 5.4
2 2 13 88.49 14.7
2 -2 13 77.39 11.7
-2 3 13 14.5 7.8
-2 -3 13 10.1 6.4
-2 3 12 12 8.2
-2 -3 12 14.5 7
2 -3 -12 12.6 3.5
-2 3 11 20.7 8.6
-2 -3 11 28.4 7.8
2 -3 -11 18.1 3.9
-2 3 10 -10.2 4.8
-2 -3 10 14 5.7
-2 -3 10 7 3.1
2 -3 -10 4.9 3.4
-2 3 9 169.18 14.5
-2 3 9 193.28 16.5
-2 -3 9 161.88 9.2
2 -3 -9 181.98 11.3
-2 -3 9 152.18 13
-2 -3 9 183.48 14.1
-2 3 8 86.29 11.7
2 3 -8 87.99 11
-2 3 8 66.99 10.2
-2 -3 8 97.09 9.2
-2 -3 8 96.49 8.3
-2 -3 8 70.89 5.6
2 -3 -8 80.79 7.8
-2 3 7 72.69 9.1
2 3 -7 70.89 8.4
-2 -3 7 71.59 7.3
-2 -3 7 63.79 4.9
-2 -3 7 72.39 6.8
2 -3 -7 66.89 7.2
-2 3 6 57.09 7.8
2 3 -6 51.39 7.3
2 -3 -6 55.99 8.3
-2 -3 6 50.29 6.1
-2 -3 6 53.39 6.1
2 3 -5 63.79 6.7
-2 3 5 57.09 7.9
2 -3 -5 67.69 7.5
-2 -3 5 56.29 6.3
-2 -3 5 53.79 5.7
-2 3 4 140.39 11.2
2 3 -4 135.99 8.5
2 -3 -4 127.09 10.1
-2 -3 4 134.99 8.2
-2 -3 4 133.19 9.4
2 3 -3 1082.59 41.3
-2 3 3 1079.69 44.8
2 -3 -3 1059.39 44.2
-2 -3 3 1017.3 42.9
-2 -3 3 1106.09 41.2
2 3 -2 28.4 5
2 3 -2 23.8 3.3
-2 3 2 37.1 5.8
-2 -3 2 26.5 4.9
2 -3 -2 33.7 5.8
-2 -3 2 29.3 3.5
-2 3 1 157.98 11
2 3 -1 156.58 10.3
2 3 -1 163.18 8
2 -3 -1 163.28 10.8
-2 -3 1 153.08 10.2
-2 -3 1 171.18 8.3
-2 3 0 335.37 13.8
-2 3 0 302.47 16.3
2 3 0 328.27 14.1
2 3 0 324.67 16.8
-2 -3 0 336.97 16.7
-2 -3 0 313.37 14.5
2 -3 0 316.97 16.8
2 3 1 207.98 10.5
-2 3 -1 216.38 9.1
2 3 1 193.98 12.4
2 -3 1 209.48 9.2
-2 -3 -1 192.08 12.1
2 -3 1 187.68 11.8
2 3 2 55.89 7.4
-2 3 -2 70.79 4.3
2 -3 2 73.29 4.4
-2 -3 -2 66.69 7.4
2 -3 2 64.29 6.8
-2 3 -3 4.4 2.2
2 3 3 7.4 4.3
-2 -3 -3 5.8 4.1
2 -3 3 4.5 2
2 3 4 38.7 7.4
-2 3 -4 42.7 4.9
-2 -3 -4 43.5 6.7
2 -3 4 42.9 4.4
2 3 5 696.43 33
-2 3 -5 758.62 30.8
-2 -3 -5 712.13 31.6
2 -3 5 729.03 29.5
-2 3 -6 145.79 10.4
-2 -3 -6 122.29 9.5
2 -3 6 159.98 9.5
2 3 7 2.1 4.5
2 -3 7 -1 2.9
-2 -3 -7 5.2 3.5
2 -3 7 2.3 2.4
2 3 8 4.2 5.2
-2 -3 -8 14.7 4.6
2 -3 8 12 3.4
2 -3 8 9.4 4.5
2 3 9 99.59 12.6
2 -3 9 112.69 10.7
2 -3 9 100.69 7.8
-2 -3 -9 123.19 9.2
2 3 10 6 6
2 3 10 3.5 5.7
2 -3 10 2 4.7
-2 -3 -10 10.1 4
2 -3 10 8.7 4.9
2 3 11 71.59 13.1
2 3 11 90.59 14.3
-2 -3 -11 71.99 7.2
2 3 12 29.5 9.6
2 3 12 31.6 10.5
-2 -3 -12 34.7 5.7
2 -3 12 25.1 7.8
2 3 13 -1.1 7.2
2 -3 13 11 6.5
-2 4 12 38.7 10.9
2 -4 -12 51.19 6.8
-2 -4 12 64.19 10.8
-2 4 11 32.3 9.8
-2 -4 11 31.2 5.5
2 -4 -11 38.2 6.5
-2 -4 11 31.3 7.6
-2 4 10 25.7 8.3
-2 4 10 21.8 9
-2 -4 10 36.1 7.9
2 -4 -10 30.2 6.2
-2 -4 10 28.9 4.3
2 4 -9 43.9 8.9
-2 4 9 56.99 9.3
-2 -4 9 58.79 8.5
2 -4 -9 43.7 7.5
-2 -4 9 65.29 11.1
-2 -4 9 47.1 5.1
-2 4 8 27.8 7.6
2 4 -8 42.6 8.1
-2 -4 8 51.49 8.2
2 -4 -8 17.8 5.5
-2 -4 8 36.7 6.7
-2 4 7 63.99 9.8
2 4 -7 56.99 8.4
2 -4 -7 64.39 8.7
-2 -4 7 66.79 8.7
-2 -4 7 60.79 7.3
-2 4 6 322.67 19.6
2 4 -6 337.37 17.4
-2 -4 6 310.27 17.1
-2 -4 6 319.17 16.3
2 -4 -6 322.47 18.7
-2 4 5 38.7 8.2
2 4 -5 37.9 5.4
-2 -4 5 40.3 6.4
2 -4 -5 39.6 7.3
2 4 -4 346.37 16.6
-2 4 4 369.16 20.7
2 -4 -4 371.66 20.1
-2 -4 4 345.97 18.6
-2 -4 4 340.27 16.1
2 4 -3 165.88 9.3
-2 4 3 175.28 13.5
-2 -4 3 170.38 11.9
2 -4 -3 180.28 12.8
-2 -4 3 163.78 9.2
-2 4 2 163.58 12.5
2 4 -2 169.78 11.8
2 4 -2 163.28 9
2 -4 -2 172.78 14.3
-2 -4 2 172.48 9.2
-2 -4 2 159.78 11.9
2 4 -1 93.29 6.2
2 4 -1 84.59 9.2
-2 4 1 96.59 9.3
-2 4 1 91.29 7
2 -4 -1 85.69 11.6
-2 -4 1 74.89 8.7
-2 -4 1 90.09 6.6
-2 4 0 542.05 26
-2 4 0 511.45 21.9
2 4 0 544.05 26.4
2 4 0 568.74 22.5
2 -4 0 517.45 26.1
-2 -4 0 538.15 26
-2 -4 0 516.05 22.9
2 4 1 191.68 10.6
2 4 1 170.88 12.9
-2 4 -1 188.28 9
2 -4 1 166.58 12.7
2 -4 1 182.38 9.5
-2 4 -2 93.69 6
2 4 2 91.09 9.9
2 4 2 103.29 9.7
-2 -4 -2 92.69 9.4
2 -4 2 104.89 6.3
2 -4 2 98.79 9.8
-2 4 -3 3.3 2.3
2 4 3 2.5 4.9
2 -4 3 -2.2 4.1
2 -4 3 3.6 2.4
-2 -4 -3 7.7 4.8
-2 4 -4 4.6 2.4
2 4 4 1.1 4.8
-2 -4 -4 1 4.4
2 -4 4 0.4 2.3
-2 4 -5 479.35 24.9
2 4 5 531.95 27.5
2 -4 5 545.85 22.5
2 -4 5 529.65 25.7
-2 -4 -5 528.65 25.9
-2 4 -6 158.48 10.9
2 4 6 139.09 13.6
-2 -4 -6 170.28 12.1
-2 4 -7 75.79 8.3
2 4 7 78.69 11
-2 -4 -7 65.49 8.7
2 -4 7 71.19 7.6
2 4 8 4.2 5.7
2 -4 8 17.5 5.9
-2 -4 -8 17.8 5.3
2 -4 8 10.3 4.7
2 4 9 10.5 6.8
2 -4 9 9.6 5
2 -4 9 0.6 3
-2 -4 -9 -1.8 3.5
2 4 10 -0.5 6.6
2 -4 10 -1 6.6
2 -4 10 -1.6 3.3
2 -4 10 -1.8 4.5
-2 -4 -10 0.2 3.8
2 4 11 9.4 7.4
2 -4 11 12.7 8.8
2 -4 11 14.9 4.6
2 4 12 8.1 7.1
2 -4 12 15 6.8
-2 5 12 9.8 10
-2 -5 12 12.2 4.7
-2 -5 12 8.8 6.7
2 -5 -12 8.1 5.2
-2 5 11 45.8 11.7
2 -5 -11 24.2 6.5
-2 -5 11 26.6 7.9
-2 -5 11 30.7 5
-2 5 10 106.39 15.6
-2 5 10 82.29 13.9
-2 -5 10 63.59 6.3
-2 -5 10 81.79 10.7
2 5 -9 8.8 6.9
-2 -5 9 16.3 6.1
2 -5 -9 22.4 6.4
2 5 -8 36.7 8
-2 5 8 54.39 10.5
2 -5 -8 39.8 8
-2 -5 8 33.3 10.5
-2 -5 8 49.99 7.9
2 5 -7 24.3 6
-2 5 7 45.7 9.2
2 -5 -7 34.6 8.3
-2 -5 7 35.9 7.8
2 5 -6 68.49 7.9
-2 5 6 85.39 11.7
-2 -5 6 83.89 10.9
2 -5 -6 85.39 11
-2 -5 6 66.09 7.2
-2 5 5 320.97 20.2
2 5 -5 288.47 15.4
-2 -5 5 297.97 15.1
2 -5 -5 312.87 19
-2 -5 5 287.57 17.9
2 5 -4 236.58 13
-2 5 4 268.47 18
2 -5 -4 263.47 17.3
-2 -5 4 253.37 16
-2 5 3 81.59 11.1
2 5 -3 77.79 6.4
-2 -5 3 90.89 10
2 -5 -3 72.79 10.2
-2 -5 3 89.99 7.1
-2 5 2 16.4 4.6
2 5 -2 8.5 5.2
-2 5 2 10 6
2 5 -2 4.7 3.3
2 -5 -2 6.4 4.7
-2 -5 2 12.7 3.7
-2 -5 2 9 5.3
-2 5 1 109.69 11.5
2 5 -1 99.09 11.7
-2 5 1 94.69 9
2 -5 -1 91.29 10.8
-2 -5 1 101.89 10.1
-2 -5 1 90.39 7.6
2 5 0 91.49 7.3
-2 5 0 111.39 7.4
-2 5 0 87.89 10.8
2 5 0 96.49 11.3
-2 -5 0 88.69 8.1
-2 -5 0 115.19 10.9
2 -5 0 87.99 10.2
-2 5 -1 18.4 3.6
2 5 1 15.3 4.3
2 5 1 9.3 6.2
2 -5 1 9.1 5.6
2 -5 1 20.5 4.3
-2 -5 -1 15.1 6.1
2 5 2 33.9 5.8
2 5 2 26.9 7.5
-2 5 -2 20.2 3.5
2 -5 2 22.2 6.6
-2 -5 -2 43.3 8
2 -5 2 27.1 4.1
-2 5 -3 15.9 3.2
2 5 3 14 4.5
2 5 3 10 6.2
2 -5 3 13.6 5.6
2 -5 3 18.3 3.6
-2 -5 -3 13.2 5.7
2 5 4 1.3 5.5
-2 5 -4 -2.7 2
-2 -5 -4 -3.5 4.3
2 -5 4 -3.2 4.2
2 -5 4 -0.1 2.4
-2 5 -5 12.1 3.7
2 5 5 11.1 6.5
-2 -5 -5 12.1 5.8
2 -5 5 10.3 3.5
2 -5 5 14.3 5.6
2 5 6 71.79 11.4
-2 5 -6 63.09 7.9
2 -5 6 83.49 10
2 -5 6 58.79 6.7
-2 -5 -6 81.59 10.5
2 5 7 16.8 7.7
-2 5 -7 19 5.7
-2 -5 -7 29.6 7.4
2 -5 7 17.1 4.9
2 -5 7 31.5 7.3
2 5 8 249.78 20.4
-2 5 -8 259.77 18.8
2 -5 8 245.88 14.8
-2 -5 -8 216.28 16
2 -5 8 230.78 17
2 5 9 26.7 9.2
2 -5 9 16.1 4.4
-2 -5 -9 11.9 5.4
2 -5 9 14.9 5.5
2 -5 9 20.2 9.2
2 5 10 17.3 9.3
2 -5 10 25.5 6.6
2 -5 10 28 5
-2 -5 -10 26 6.9
2 5 11 -4 6.5
-2 -5 -11 0.5 5.3
2 -5 11 4.5 3.6
2 -5 11 3.9 5.3
2 5 12 -6 5.2
2 -5 12 5.9 4.6
2 -5 12 -3.6 5.4
-2 6 11 1.7 8.1
-2 -6 11 5.4 5.7
-2 -6 11 -7.2 3.4
-2 6 10 26.4 11.1
2 -6 -10 45.4 10.7
-2 -6 10 39.7 8.8
2 6 -9 28.5 8
-2 6 9 13.3 8.4
2 -6 -9 29.5 8.4
-2 -6 9 34.3 7.2
-2 6 8 12.5 7.8
2 6 -8 7.5 4.8
-2 -6 8 10.3 5.2
2 -6 -8 1.8 5.8
-2 6 7 -5 4.9
2 6 -7 2 4
-2 -6 7 9.3 4.5
-2 -6 7 -2.9 6.1
-2 6 6 217.98 19.5
2 6 -6 179.78 12.8
2 -6 -6 165.48 15.6
-2 -6 6 201.48 15.6
-2 -6 6 172.78 12.1
2 6 -5 8.2 3.9
-2 6 5 15.8 7.1
2 -6 -5 18.9 7.2
-2 -6 5 9.7 4.1
-2 -6 5 4.8 5.9
2 6 -4 40.5 5.7
-2 6 4 49 10
-2 -6 4 54.79 9.3
2 -6 -4 51.69 9.2
-2 -6 4 55.79 6.7
-2 6 3 49.6 10
-2 6 3 52.49 7.7
2 6 -3 50.69 6
-2 -6 3 57.59 9.6
2 -6 -3 45 9
-2 -6 3 48.5 6.3
-2 6 2 193.58 12.7
-2 6 2 228.88 17
2 6 -2 203.28 11.5
2 6 -2 220.88 16
2 -6 -2 201.88 16.4
-2 -6 2 202.88 12.2
-2 -6 2 187.78 15.3
2 6 -1 39 5.2
-2 6 1 51.09 9.6
-2 6 1 42.3 6
2 6 -1 40.9 8.5
-2 -6 1 32.3 5.8
2 -6 -1 45.4 8.7
-2 -6 1 36.4 7.5
2 6 0 191.98 11.6
-2 6 0 208.98 11.6
2 6 0 216.58 16.8
-2 6 0 210.58 16.5
-2 -6 0 212.98 13.4
-2 -6 0 238.08 16.7
2 -6 0 189.78 15.6
-2 6 -1 48.4 6.1
2 6 1 49.5 6.4
-2 -6 -1 64.59 9.9
2 -6 1 61.79 7.2
2 -6 1 55.79 9.4
2 6 2 54.89 7.3
2 6 2 54.69 10.4
-2 6 -2 72.19 9.6
2 -6 2 59.39 6.6
-2 -6 -2 42.8 8.7
2 -6 2 59.19 9.6
-2 6 -3 135.39 8.8
2 6 3 154.68 11
2 6 3 134.69 14
2 -6 3 132.39 13.1
-2 -6 -3 141.89 13.7
2 -6 3 143.29 9.2
2 6 4 120.79 14
2 6 4 105.59 10
-2 6 -4 114.89 8
2 -6 4 99.19 12.7
-2 -6 -4 119.69 12.6
2 -6 4 110.59 8
2 6 5 35.7 11.8
-2 6 -5 26.5 4.7
2 6 5 28.3 8.6
2 -6 5 22.6 4.9
-2 -6 -5 41.4 9.1
2 -6 5 29 7.6
2 6 6 -5.8 5.8
-2 6 -6 1.7 3.5
2 -6 6 2.2 3.4
2 -6 6 4.6 5.5
-2 6 -7 113.59 10.8
2 6 7 119.99 14.4
2 -6 7 121.49 9.5
2 -6 7 123.39 15.7
-2 -6 -7 99.09 12.5
-2 6 -8 -1.6 5.3
2 6 8 2.9 6.3
-2 -6 -8 10 6.2
2 -6 8 -4.2 3.9
2 -6 8 5.5 8.3
2 6 9 19.7 8.4
-2 6 -9 24.1 8.5
2 -6 9 8.7 9.4
2 -6 9 16.6 5.6
2 -6 10 0.8 4.7
2 -6 10 -1.3 3.6
2 -6 11 7.3 5.7
2 -6 11 10.3 4.4
-2 -7 11 -0.9 4
-2 -7 11 5.2 5.8
-2 -7 10 5.3 5.2
-2 7 9 65.49 13.2
-2 -7 9 60.69 9.4
-2 7 8 10.6 11.5
2 7 -8 15.6 6
-2 -7 8 12.4 5.1
-2 -7 8 29.8 9.1
-2 7 7 60.99 17.3
2 -7 -7 76.89 13.5
-2 -7 7 72.69 9
-2 7 6 51.89 11.3
2 7 -6 20 5.3
-2 -7 6 15.4 8.5
2 -7 -6 14.6 8.7
-2 -7 6 22.7 5.7
-2 7 5 1.7 6.6
-2 7 5 7.1 6.2
2 7 -5 24.4 5.3
-2 -7 5 10.7 5
-2 -7 5 41.1 9.8
2 -7 -5 24.5 8.7
-2 7 4 6.1 4.8
-2 7 4 16.4 8.1
2 7 -4 -1.6 3.1
2 -7 -4 12.4 7.6
-2 -7 4 -7 3.3
-2 -7 4 16.2 6.8
-2 7 3 31.7 6.8
2 7 -3 31.8 5.5
-2 7 3 31.8 9.1
-2 -7 3 25.4 5.8
-2 -7 3 33.9 8.7
2 7 -2 15.1 4.2
-2 7 2 15.8 5.3
2 7 -2 23.5 7.9
-2 7 2 14.3 8.3
2 -7 -2 9.5 6.6
-2 -7 2 12.5 5
-2 -7 2 25.6 7.8
-2 7 1 341.07 22.5
2 7 -1 301.17 21.2
2 7 -1 267.57 15.1
-2 7 1 266.77 15.6
-2 -7 1 321.67 21.3
2 -7 -1 297.57 21.3
-2 -7 1 282.87 17.2
-2 7 0 14.5 7.1
2 7 0 7.5 4
-2 7 0 7.4 3.7
2 7 0 18.2 7.5
2 -7 0 5 6.6
-2 -7 0 9 6.3
2 7 1 67.09 7.9
-2 7 -1 72.99 7
2 7 1 76.69 12.1
-2 -7 -1 69.59 11.4
2 -7 1 81.29 12.2
2 7 2 34.1 6.4
-2 7 -2 31.9 4.9
2 7 2 18.2 7.8
2 -7 2 25.2 5.8
2 -7 2 27 8.1
-2 -7 -2 21.7 7.7
2 7 3 9.9 7.1
2 7 3 7.2 5.4
-2 7 -3 10 3.5
2 -7 3 10.9 4.7
-2 -7 -3 5.7 8.1
2 -7 3 15.1 8.3
-2 7 -4 55.29 6.3
2 7 4 51.39 8
2 7 4 58.69 12.3
2 -7 4 49 10.8
2 -7 4 55.19 7
-2 -7 -4 40.9 10.5
-2 7 -5 -2.4 2.7
2 7 5 -10 6
2 -7 5 0 3.6
-2 -7 -5 8.1 7
2 -7 5 6.8 6.9
2 7 6 4.5 7.4
-2 7 -6 2.8 3.8
-2 -7 -6 -12.4 5.8
2 -7 6 6 4.3
2 -7 6 -8.8 7.7
-2 7 -7 114.79 11.7
2 7 7 116.99 17.9
2 -7 7 131.99 13.9
2 -7 7 113.79 10
-2 7 -8 -6.8 4.4
2 7 8 6.2 8.4
2 -7 8 0.7 4.3
2 7 9 15.9 9.6
-2 7 -9 -11.8 5.8
2 -7 9 1.8 5
2 -7 10 -2.5 4.9
2 7 11 -9.2 8.1
2 -7 11 1.4 5.1
2 -7 11 -5.5 3.9
-2 8 10 11.2 9.5
-2 -8 10 6.7 6
-2 8 9 10.5 9.7
-2 -8 9 -8.8 4.8
2 8 -8 1.7 6
-2 -8 8 -2.3 4.5
2 8 -7 2.6 4.9
-2 8 7 -1.6 8.2
-2 -8 7 -7.5 4.2
-2 -8 7 10.7 9
-2 8 6 50.99 14.2
-2 -8 6 84.19 16.6
-2 -8 6 51.69 8.2
2 8 -5 0.9 3.7
-2 8 5 4.9 8.6
-2 -8 5 -4.2 6.1
-2 -8 5 2.2 4.7
-2 8 4 16.4 9.9
2 8 -4 23.5 5.3
-2 8 4 10.9 5.8
-2 -8 4 19.8 8
-2 -8 4 14.1 5.8
-2 8 3 4.4 5.5
-2 8 3 11.2 8.7
2 8 -3 5.2 4.1
2 -8 -3 16.4 9.1
-2 -8 3 17.5 8.3
-2 -8 3 0.4 4.9
-2 8 2 102.39 15.6
2 8 -2 85.99 8.7
-2 8 2 80.39 9.6
2 -8 -2 82.49 13
-2 -8 2 83.19 10.5
-2 -8 2 101.29 14.3
-2 8 1 59.19 8.1
2 8 -1 47.7 7.1
-2 8 1 68.49 13.2
2 8 -1 79.59 13.3
-2 -8 1 64.59 10
-2 -8 1 72.89 13.1
2 -8 -1 58.69 12.2
-2 8 0 96.59 8.8
2 8 0 80.19 9.3
2 8 0 89.99 13.7
2 -8 0 102.19 15
-2 -8 0 110.69 14.8
-2 8 -1 4.1 3.9
2 8 1 -6.2 3.8
2 8 1 7.5 7.4
-2 -8 -1 4.7 6.5
2 -8 1 6.1 7.8
2 8 2 16.5 8.6
-2 8 -2 7.8 4
2 8 2 22.8 9.9
2 -8 2 13.6 6.3
-2 -8 -2 21.5 8.9
2 -8 2 14.6 9.3
2 8 3 3.2 7.8
-2 8 -3 -4.2 3
2 8 3 -2.8 4.5
2 -8 3 16.9 8.4
2 -8 3 0.4 4.4
-2 -8 -3 1.8 8
2 8 4 5.9 6.5
-2 8 -4 10.7 3.9
2 8 4 6.4 6.8
2 -8 4 2.5 4.5
2 -8 4 25.2 9.1
-2 8 -5 244.18 14.7
2 -8 5 205.08 25.7
2 -8 5 236.98 15.4
2 8 6 8.4 9.5
-2 8 -6 -1.9 3.6
2 -8 6 11.7 9.3
2 -8 6 5.9 4.9
-2 8 -7 6.6 5.2
2 8 7 3.7 11.3
2 -8 7 7.9 4.7
-2 8 -8 35.5 8.2
2 8 8 49.3 13.6
2 -8 8 45.1 7.9
2 -8 8 28 11.5
2 8 9 3.6 7.8
-2 8 -9 9.5 6.9
2 -8 9 1.5 5
-2 9 9 -2.5 10.3
-2 -9 9 -0.7 5.9
-2 9 8 20.4 11.7
-2 -9 8 17.9 7.4
-2 9 7 4.7 10.1
-2 -9 7 13.7 6.3
-2 9 6 40.8 13.5
2 9 -6 13.5 5.6
-2 -9 6 35.5 7.8
2 9 -5 0.2 3.9
-2 9 5 -5.3 8.8
-2 -9 5 -3.7 4.7
-2 9 4 6.3 10.3
2 9 -4 -6.1 3.8
-2 -9 4 8.6 6.2
-2 9 3 50.79 14.3
2 9 -3 32.3 8
-2 9 3 40.1 8.6
-2 -9 3 43.5 8.6
-2 9 2 76.09 15.7
-2 9 2 39.3 7.5
2 9 -2 46.3 10.4
-2 -9 2 48.1 9.9
-2 9 1 9.5 9.4
2 9 -1 16.4 6.2
2 9 -1 29.2 11.6
2 9 0 10.2 5.1
-2 9 0 4.2 4.2
2 9 1 88.19 10.1
-2 9 -1 78.59 8.5
2 9 1 84.59 14.6
2 9 2 11.6 9.6
2 9 2 8.6 5.5
-2 9 -2 0.9 3.4
-2 9 -3 18.4 5.1
2 9 3 21.5 11.5
2 -9 3 7.7 6.5
2 9 4 6.9 10.9
-2 9 -4 -3.1 3.2
2 -9 4 4.6 5.4
-2 9 -5 72.99 9.2
2 9 5 68.49 17
2 -9 5 87.09 10.6
-2 9 -6 14 5.6
2 9 6 29.3 12.7
2 -9 6 19 6.6
-2 9 -7 0 4.4
2 -9 7 -4.8 5.2
2 9 8 1.5 14
-2 9 -8 20.5 9
2 -9 8 14.5 7
2 -9 9 8.7 5.6
-2 -10 7 3.9 6.6
-2 10 6 62.59 18.1
-2 -10 5 8.9 6.3
-2 10 4 5 11.2
2 10 -4 0 4.4
-2 -10 4 -5.3 6.1
-2 10 3 9.2 10.7
2 10 -3 11.3 5.5
-2 -10 3 18.1 7.2
-2 10 2 -10.5 10.7
2 10 -2 3.6 4.4
2 10 -1 137.79 12.4
-2 10 1 129.69 12.2
2 10 0 50.09 15.2
-2 10 0 66.79 9.1
-2 10 -1 -2.9 4.2
2 10 1 10 11.4
-2 10 -2 5.5 4.3
2 10 2 9.3 11.6
2 10 3 40.8 15.6
-2 10 -3 52.29 8.4
-2 10 -4 13.7 5.2
2 -10 4 6.6 6.8
2 10 5 19.4 13.1
-2 10 -5 10.3 4.5
2 -10 5 1.9 7.3
2 10 6 7.3 11.9
-2 10 -6 2.5 4.9
2 -10 6 -7.8 4.9
-2 10 -7 14.2 7.6
2 10 7 15.2 12.9
2 -10 7 2.3 6.4
-2 -11 6 19.4 9.3
-2 11 5 14.5 14.1
-2 -11 5 29 11
-2 11 4 22 10.7
-2 -11 4 19 9.7
2 11 1 -10.1 13.3
2 11 2 -2.1 14.8
-2 11 -2 4.2 7.3
2 11 3 4.5 10.4
-2 11 -3 -1.4 4.7
-2 11 -4 5.7 5.3
2 11 4 1.5 14.7
2 -11 5 0.2 8.4
2 12 2 8.4 18.2
-3 0 13 10.8 6.7
-3 0 12 20.7 7.1
-3 0 11 5.1 6.1
-3 0 10 79.29 8.9
-3 0 10 81.19 11.7
-3 0 9 -5.2 4.4
-3 0 9 -1.1 2.7
-3 0 8 434.66 19.1
-3 0 8 426.06 23
-3 0 7 0.6 2.1
-3 0 7 1.2 3.8
-3 0 6 82.19 5.6
-3 0 6 93.29 8.7
3 0 -5 0.3 1.2
-3 0 5 -0.1 3.4
-3 0 5 1.2 1.9
-3 0 4 412.26 17
3 0 -4 444.66 16.2
-3 0 4 434.26 19.6
3 0 -3 -2.8 2.1
3 0 -3 -0.9 0.9
-3 0 3 -0.9 1.3
-3 0 3 1.7 2.3
3 0 -2 757.82 30
-3 0 2 782.52 29.9
3 0 -1 -0.1 0.8
-3 0 1 -2.1 0.8
-3 0 -1 -0.6 0.7
3 0 1 -0.1 1
-3 0 -2 67.29 4.2
3 0 2 68.29 4.5
3 0 3 -0.7 1.8
-3 0 -3 -0.9 1.5
3 0 4 381.46 16.6
-3 0 -4 403.16 16
-3 0 -5 0.3 1.8
3 0 5 -2.7 2.4
3 0 5 2 3.2
3 0 6 172.88 10
-3 0 -6 173.88 8.7
3 0 6 172.18 12
3 0 7 -1.6 2.6
3 0 7 -5.5 3
3 0 8 72.59 7.5
3 0 8 93.69 9.7
3 0 9 -5.9 3.2
3 0 9 -5.1 4.2
3 0 10 565.04 27.7
3 0 10 502.35 28.8
3 0 11 1.1 4.2
3 0 11 2 5
3 0 12 213.88 18.4
3 0 13 10.9 7.1
-3 1 13 4.1 6.2
-3 -1 13 -1.8 6
-3 1 12 144.89 16.4
-3 -1 12 166.98 15.8
-3 1 11 -4 5.2
-3 -1 11 -3.6 4.7
-3 1 10 3.9 4.3
-3 -1 10 5.5 5.3
-3 1 9 5.3 3.9
-3 1 9 6.4 5
3 -1 -9 6.3 2.2
-3 -1 9 5.9 2.8
-3 -1 9 9.6 5.4
-3 1 8 14.7 3.8
-3 1 8 10.9 5.1
-3 -1 8 12.9 5.4
-3 -1 8 4.4 2.5
3 -1 -8 11 2.4
-3 1 7 72.59 8.5
-3 1 7 65.09 6.2
3 -1 -7 65.39 4.7
-3 -1 7 74.59 7.9
-3 -1 7 66.79 4.8
-3 1 6 0.3 3.5
-3 1 6 4.2 2.9
3 -1 -6 9.3 2.4
-3 -1 6 6.3 1.9
-3 -1 6 8.4 3.7
-3 1 5 5.9 2.9
-3 1 5 1.5 3.2
3 1 -5 1.4 3.5
-3 -1 5 7.9 3.7
-3 -1 5 5.7 1.7
3 -1 -5 2.3 2.2
3 1 -4 235.18 12.4
-3 1 4 232.88 11.4
-3 1 4 221.58 12.8
3 -1 -4 229.28 10.8
-3 -1 4 235.48 9.1
-3 -1 4 237.38 11.9
3 1 -3 0.8 2
-3 1 3 -0.4 2.3
-3 1 3 -3.4 2.1
3 -1 -3 1.9 2.3
-3 -1 3 3.5 2.1
-3 -1 3 3.8 1.5
3 1 -2 584.24 22.6
-3 1 2 565.74 23
-3 -1 2 570.64 22.4
3 -1 -2 551.54 22.9
-3 -1 2 566.54 21.8
3 1 -1 240.88 9.7
3 1 -1 229.58 10.1
-3 -1 1 238.48 9.8
-3 -1 1 232.28 10.1
3 -1 -1 224.78 10.7
3 1 0 123.19 6.4
3 1 0 128.39 5.6
-3 -1 0 116.89 6.3
-3 -1 0 120.89 5.6
3 1 1 81.89 5.7
-3 1 -1 72.09 3.4
3 1 1 80.99 5.2
-3 -1 -1 80.39 5.4
3 -1 1 77.59 3.3
3 1 2 807.32 32.9
3 -1 2 837.02 31.5
-3 -1 -2 853.71 32.6
3 1 3 207.78 10.8
3 -1 3 201.38 9.9
-3 -1 -3 218.38 10.3
3 1 4 320.47 15.8
-3 -1 -4 336.27 14.7
3 -1 4 340.77 15.4
3 1 5 5.2 3.3
-3 -1 -5 3.1 2.5
3 -1 5 5.6 2.4
3 -1 5 1.6 3.1
3 1 6 6.9 3.8
-3 -1 -6 9.3 2.9
3 -1 6 13.2 4.3
3 -1 6 16.4 3.4
3 1 7 98.59 8.7
-3 -1 -7 98.99 7.7
3 -1 7 112.59 9.3
3 -1 7 115.39 7.6
3 1 8 33.6 6.4
3 1 8 33.2 7.4
3 -1 8 27.4 6.2
-3 -1 -8 35.4 4.5
3 -1 8 48.3 6
3 1 9 5.9 5
3 1 9 14.8 6.5
3 -1 9 14.2 5.5
3 -1 9 15.9 4.8
-3 -1 -9 17.3 3.4
3 1 10 112.39 12.6
3 1 10 99.69 13.2
3 -1 10 90.59 11.4
3 1 11 28 6.9
3 1 11 31.6 8.3
3 -1 11 29 7.4
3 -1 11 36 6.9
3 1 12 5 6.2
3 1 12 1.4 4.9
3 -1 12 1.9 4.6
3 -1 12 -1.5 4.4
3 1 13 3 7.1
3 -1 13 0.8 5.4
-3 -2 13 -8.8 5.2
-3 2 12 39.2 10.7
-3 -2 12 24.7 7.7
-3 2 11 -9.4 4
-3 -2 11 -3.8 4.8
3 -2 -11 3.2 2.4
-3 2 10 54.39 10.6
-3 -2 10 62.19 5.3
-3 -2 10 46.8 8.4
3 -2 -10 60.89 6.9
-3 2 9 69.89 10.6
-3 2 9 85.89 9.5
-3 -2 9 103.59 6.7
3 -2 -9 96.69 7.4
-3 -2 9 98.29 10.7
-3 2 8 197.28 13
-3 2 8 208.08 15.2
-3 -2 8 217.08 14.3
3 -2 -8 217.78 11.1
-3 -2 8 208.48 10
3 2 -7 2.9 4
-3 2 7 -1.1 3.2
-3 2 7 5 4.7
-3 -2 7 0.1 3.6
-3 -2 7 0.4 1.7
3 -2 -7 -1.4 2.4
3 2 -6 6 4
-3 2 6 10.2 4
-3 2 6 6.3 4.8
-3 -2 6 16.8 2.2
-3 -2 6 12.2 3.8
3 -2 -6 15.6 3.8
-3 2 5 14.7 4.4
3 2 -5 15 4.3
3 -2 -5 14.5 4.1
-3 -2 5 12 3
-3 -2 5 16.5 4
3 2 -4 591.74 24.3
-3 2 4 549.45 24.9
-3 -2 4 581.14 23.6
3 -2 -4 555.24 24.4
-3 -2 4 548.85 23
3 2 -3 10.8 2.7
-3 2 3 8.4 3.6
-3 -2 3 4.9 2.6
-3 -2 3 12.5 2.7
3 -2 -3 13.4 3.7
-3 2 2 301.87 14.7
3 2 -2 305.57 12.8
3 2 -2 295.97 13.6
3 -2 -2 288.87 14.6
-3 -2 2 277.17 13.6
-3 -2 2 294.67 12.6
-3 2 1 8101.09 296.67
3 2 -1 8224.38 296.37
-3 -2 1 8214.68 296.27
3 -2 -1 8075.19 296.87
3 2 0 52.09 6.4
-3 2 0 53.39 4.4
3 2 0 47.7 4.7
3 -2 0 47.4 6.2
-3 -2 0 45.8 6.2
-3 -2 0 44.6 4.7
3 2 1 878.41 34
-3 2 -1 928.81 32.2
3 2 1 889.31 35.7
3 -2 1 871.61 32.2
-3 -2 -1 783.12 34.9
-3 2 -2 2711.53 100.49
3 2 2 2706.83 103.79
-3 -2 -2 2760.52 103.29
3 -2 2 2863.81 100.39
3 2 3 9.8 3.9
-3 2 -3 5.1 2.1
-3 -2 -3 5 3.1
3 -2 3 5.1 1.8
3 2 4 5.3 4
-3 2 -4 2.5 2.7
3 -2 4 3.2 2.3
-3 -2 -4 1.9 3.1
3 2 5 320.07 17.6
3 -2 5 343.07 15.8
-3 -2 -5 336.17 16.3
3 2 6 41.1 6.7
3 -2 6 43.6 5.8
-3 -2 -6 35.2 5.7
3 -2 6 36.4 4
3 2 7 1.2 3.6
3 -2 7 -0.5 3.1
-3 -2 -7 9.6 3.3
3 -2 7 6.5 2.9
3 2 8 36.6 7.4
3 -2 8 31.8 6.2
3 -2 8 34.7 5.2
-3 -2 -8 38.4 5.2
3 2 9 30.3 8.2
3 2 9 43.1 7.7
-3 -2 -9 40.3 5.2
3 -2 9 38.9 5.9
3 -2 9 33.4 7.1
3 2 10 -0.1 4.7
3 2 10 9.3 6.2
3 -2 10 0.8 4.7
-3 -2 -10 3.4 2.8
3 2 11 56.39 11.2
3 2 11 39.5 9.5
3 -2 11 41 7.3
-3 -2 -11 54.09 5.9
3 2 12 48.8 11.3
3 2 12 40 11.5
3 -2 12 46.5 8.3
3 -2 12 14.5 7.1
3 2 13 15.2 8.8
3 -2 13 7.7 5.7
-3 3 13 -3.8 6.4
-3 -3 13 1.4 6
-3 3 12 -0.3 6.1
-3 -3 12 6 6.1
3 -3 -12 8.5 3.1
-3 3 11 6.5 7
-3 -3 11 -9.4 4.4
3 -3 -11 -0.4 2.7
-3 3 10 21.6 8.1
-3 3 10 17.2 8.1
-3 -3 10 23.5 3.8
-3 -3 10 12.2 6.2
3 -3 -10 18.7 4
-3 3 9 138.79 16.3
-3 3 9 104.69 10.9
-3 -3 9 101.49 6.6
3 -3 -9 107.29 8.7
-3 -3 9 109.09 11
-3 -3 9 110.09 10.7
-3 3 8 0.1 5.6
-3 3 8 0.3 4.7
3 3 -8 4.6 4.6
3 -3 -8 2.6 3.6
-3 -3 8 12.3 5.1
-3 -3 8 6.3 2.5
-3 -3 8 2 3.5
3 3 -7 34.8 6.5
-3 3 7 12.4 5.3
-3 -3 7 28.3 3.3
3 -3 -7 25.8 5.7
-3 -3 7 35.3 4.9
-3 -3 7 29.8 5.6
3 3 -6 2.5 3.3
-3 3 6 3.7 3.9
-3 -3 6 1.9 2.9
-3 -3 6 -0.3 2.7
-3 3 5 441.56 21.9
3 3 -5 440.86 20.2
-3 -3 5 397.76 19.4
3 -3 -5 425.46 20.9
-3 -3 5 435.46 19.5
3 3 -4 104.89 7.4
-3 3 4 97.99 9.5
-3 -3 4 104.39 7.2
-3 -3 4 103.99 8.1
3 -3 -4 91.09 8.8
3 3 -3 587.34 24.3
-3 3 3 594.64 27.3
-3 -3 3 576.04 25.9
-3 -3 3 625.34 24.4
3 -3 -3 586.34 27.1
3 3 -2 799.82 30.3
3 3 -2 773.32 32.3
-3 3 2 778.32 33.4
3 -3 -2 741.73 33.2
-3 -3 2 732.13 32.1
-3 -3 2 790.32 30.1
3 3 -1 497.95 23
3 3 -1 521.35 20.4
-3 3 1 490.65 23.3
-3 -3 1 494.25 22.8
3 -3 -1 465.55 23.2
-3 -3 1 521.55 20.4
3 3 0 486.15 23
-3 3 0 479.25 19.6
3 3 0 518.65 20.2
-3 -3 0 492.05 20.5
-3 -3 0 496.15 22.7
3 -3 0 455.15 22.5
-3 3 -1 709.23 26.3
3 3 1 709.93 28.1
3 3 1 717.33 30.9
-3 -3 -1 634.54 29.7
3 -3 1 675.23 29.9
3 -3 1 691.43 26.5
3 3 2 207.08 13.5
-3 3 -2 227.58 9.6
3 3 2 216.08 11.8
-3 -3 -2 201.78 13
3 -3 2 243.28 9.7
-3 3 -3 5.9 2.2
3 3 3 2.8 4.2
-3 -3 -3 12.1 4.7
3 -3 3 5.4 2
-3 3 -4 -2.9 2.3
3 3 4 -2.2 4.1
3 -3 4 2.4 2.2
3 3 5 6.3 4.9
-3 3 -5 -2.6 2.5
3 -3 5 5.4 2.6
-3 -3 -5 3.9 3.6
3 3 6 0.5 4.2
-3 3 -6 -3.5 2.7
3 -3 6 -0.7 2.7
-3 -3 -6 2.4 3.3
3 3 7 5.4 5
3 -3 7 4.3 2.8
-3 -3 -7 1.5 3.4
3 -3 7 6.2 3.5
3 3 8 13.8 6.3
3 -3 8 20.5 4.4
-3 -3 -8 19.6 4.7
3 -3 8 27.7 6
3 3 9 15 6.7
-3 -3 -9 19.1 4.6
3 -3 9 19.8 5.8
3 3 10 1.1 5.1
3 3 10 -0.7 5.3
3 -3 10 5.3 3.7
-3 -3 -10 1 3.4
3 -3 10 -2.5 3.9
3 3 11 96.39 14.6
3 3 11 79.19 13.4
-3 -3 -11 71.49 7
3 -3 11 63.39 8.1
3 3 12 -4.6 6.3
3 -3 12 0.5 4.3
3 -3 12 0.7 5.6
3 3 13 18.2 9
3 -3 13 16.6 7.2
-3 4 12 36.9 10.9
3 -4 -12 40.9 6
-3 -4 12 34.8 8.6
-3 4 11 54.99 12.6
3 -4 -11 66.99 7.8
-3 -4 11 58.69 5.8
-3 -4 11 68.59 10.5
-3 4 10 13.2 7
-3 4 10 17.2 8.7
-3 -4 10 12.4 3.4
-3 -4 10 14.4 6.2
-3 4 9 93.39 10.7
-3 4 9 85.99 12.4
3 4 -9 107.79 13.8
-3 -4 9 72.69 5.9
3 -4 -9 86.09 9.1
-3 -4 9 87.79 9.9
-3 4 8 -0.3 4.4
3 4 -8 -0.7 4.6
-3 -4 8 -0.1 4.2
-3 -4 8 -0.7 4.5
3 -4 -8 -6.4 3.6
3 4 -7 351.36 19.4
-3 4 7 349.77 20.8
3 -4 -7 318.87 18.8
-3 -4 7 329.37 17.6
-3 -4 7 327.07 18.4
-3 4 6 169.38 13.6
3 4 -6 164.88 11.6
-3 -4 6 183.08 11.3
-3 -4 6 178.38 11.6
3 -4 -6 167.38 13
3 4 -5 33.6 5.3
-3 -4 5 27.4 5.7
3 -4 -5 46.5 7.2
-3 -4 5 36.9 5.3
-3 4 4 123.09 11.6
3 4 -4 124.09 8.5
-3 -4 4 128.79 10.2
-3 -4 4 123.39 8.1
3 -4 -4 119.09 11.2
3 4 -3 157.48 9.9
-3 4 3 193.98 13.9
-3 -4 3 173.58 12.3
-3 -4 3 196.38 10
3 -4 -3 197.18 13.7
3 4 -2 5 4.8
3 4 -2 8.3 3.1
-3 4 2 7.8 5.4
3 -4 -2 7.3 5.8
-3 -4 2 8.5 3.3
-3 -4 2 9.5 4.9
-3 4 1 94.39 9.9
3 4 -1 103.79 6.8
-3 4 1 96.29 7.3
3 4 -1 109.09 10
-3 -4 1 108.59 9.8
-3 -4 1 107.79 7.3
-3 4 0 267.87 16.2
3 4 0 272.17 12.8
3 4 0 264.17 16.2
-3 4 0 266.97 12.3
-3 -4 0 253.07 15.8
3 -4 0 251.87 16.3
-3 -4 0 268.37 13.5
3 4 1 55.69 6.3
-3 4 -1 51.29 4.2
3 4 1 53.89 8.7
3 -4 1 45.7 7.2
3 -4 1 49 5
3 4 2 404.96 21.8
3 4 2 382.16 18.6
-3 4 -2 386.36 15.8
3 -4 2 377.06 16
3 -4 2 349.77 22.2
-3 -4 -2 379.56 20.7
-3 4 -3 896.61 35.9
3 4 3 917.91 39.2
3 4 3 934.11 45.2
3 -4 3 1023.4 36.2
-3 -4 -3 900.31 40.7
3 4 4 118.79 11.3
-3 4 -4 114.29 7.2
-3 -4 -4 120.19 10.6
3 -4 4 108.19 6.8
-3 4 -5 954.2 37.8
3 4 5 959.4 42.7
3 -4 5 905.71 36.6
-3 -4 -5 880.31 40.2
3 4 6 39.3 8.4
-3 4 -6 35.1 5.7
-3 -4 -6 41.4 7.2
3 -4 6 28.2 5.1
3 4 7 95.39 12.4
-3 4 -7 114.29 10.3
-3 -4 -7 109.99 10.4
3 -4 7 114.39 9
3 4 8 4.7 5.7
-3 -4 -8 8.6 4.7
3 -4 8 -3.7 3.3
3 -4 8 2.1 3.1
3 4 9 2.1 5.4
-3 -4 -9 3.4 4
3 -4 9 2.5 4.3
3 -4 9 4.1 3.4
3 4 10 6.1 6.6
3 -4 10 11.8 5.6
3 -4 10 11.3 4.1
3 4 11 1.5 7.9
3 4 11 18.2 9.2
3 -4 11 10.3 4.4
-3 -4 -11 10.1 4.4
3 -4 11 21.9 8.7
3 -4 11 14.7 8.4
3 4 12 -8.2 6.7
-3 -4 -12 -5.1 3.8
3 -4 12 2.5 4.1
3 -4 12 10.1 6.4
-3 5 12 14.1 9.3
-3 -5 12 9.5 6.8
3 -5 -12 0.6 4.7
-3 5 11 4.3 7.1
-3 -5 11 4.8 3.3
-3 -5 11 11.7 6.8
3 -5 -11 -4.8 4.5
-3 5 10 6.2 7.6
3 -5 -10 24.9 8
-3 -5 10 8.9 3.2
-3 5 9 4.7 5.7
3 5 -9 2.7 4.7
3 -5 -9 -1.2 4.2
-3 -5 9 -6.2 4.3
-3 5 8 16.9 6.9
-3 -5 8 14.3 7.2
-3 -5 8 -1.8 4.3
3 -5 -8 3.5 5.1
3 5 -7 1226.28 51.99
-3 5 7 1325.37 55.49
-3 -5 7 1231.88 49.8
3 -5 -7 1115.99 53.09
-3 -5 7 1193.88 52.39
-3 5 6 27.2 7.5
3 5 -6 31.7 5.8
-3 -5 6 36.6 5.9
3 -5 -6 46.7 8.6
-3 -5 6 31.6 6.6
3 5 -5 150.68 9.8
-3 5 5 142.49 13.1
-3 -5 5 132.89 11.4
-3 -5 5 125.59 9.3
3 -5 -5 150.18 12.8
3 5 -4 278.97 14
-3 5 4 282.97 18.6
3 -5 -4 257.47 17.6
-3 -5 4 268.77 16.7
-3 -5 4 256.87 13.8
-3 5 3 2.2 5.1
3 5 -3 1.6 2.6
3 -5 -3 2.1 4.7
-3 -5 3 -4 3.2
-3 -5 3 2.8 4.7
3 5 -2 48.9 8.3
3 5 -2 41.7 5.3
-3 5 2 42.1 8.3
-3 5 2 44.1 6.1
-3 -5 2 45.4 7.9
3 -5 -2 44.6 8.5
-3 -5 2 42.3 5.6
-3 5 1 14.9 4
3 5 -1 19.6 4.2
-3 5 1 17.4 6.5
-3 -5 1 9.4 5.3
3 -5 -1 15.7 5.8
-3 -5 1 12.1 4.1
3 5 0 214.58 11.5
-3 5 0 206.08 15.3
3 5 0 207.28 15.7
-3 5 0 213.48 11.1
3 -5 0 193.18 14.9
-3 -5 0 197.28 15
-3 -5 0 218.78 12.8
3 5 1 166.58 13.7
-3 5 -1 164.18 8.8
3 5 1 150.58 9.8
3 -5 1 146.69 13
-3 -5 -1 167.68 13.6
3 -5 1 161.98 9.6
3 5 2 70.29 7.4
3 5 2 60.09 10.1
-3 5 -2 50.59 4.9
-3 -5 -2 61.09 9.2
3 -5 2 60.29 5.6
3 -5 2 47.8 8.5
-3 5 -3 3.5 2.2
3 5 3 1.5 3.7
3 5 3 -0.4 5.2
3 -5 3 -0.8 2.2
3 -5 3 -1.8 4.6
-3 -5 -3 -0.7 3.8
3 5 4 -3.8 3.9
3 5 4 2.6 4.3
-3 5 -4 1.7 2.2
3 -5 4 -1.6 2.3
-3 -5 -4 3.1 4.6
3 -5 4 3 4.7
-3 5 -5 17 4.3
3 5 5 17.2 6.6
3 -5 5 12.4 3.6
-3 -5 -5 15.3 5.7
3 -5 5 2.6 4.8
3 5 6 18.4 7.4
-3 5 -6 24.9 5.2
-3 -5 -6 36.2 7.2
3 -5 6 30.9 7.7
3 -5 6 14.9 4.8
-3 5 -7 20.6 5.7
3 5 7 14.4 7
3 -5 7 19.4 5
3 -5 7 39.5 8.5
-3 -5 -7 13.3 6.4
3 5 8 17.2 8.3
-3 5 -8 25.2 7.2
3 -5 8 26.9 8.9
3 -5 8 24.5 5.4
3 5 9 24.7 9.3
3 -5 9 21.9 4.9
-3 -5 -9 23.5 6.3
3 -5 9 40.5 7
3 -5 9 21.3 8.3
3 5 10 16.8 9
3 -5 10 22.7 4.9
-3 -5 -10 9.3 5.6
3 -5 10 16.9 6.3
3 5 11 21.2 9.7
3 -5 11 28.4 5.4
3 5 12 7.4 8.4
3 -5 12 4.1 4.7
3 -5 12 3.6 5.9
-3 6 11 11.1 10.4
-3 -6 11 5.5 5.9
-3 6 10 8.3 9.5
-3 -6 10 15.7 4.1
-3 -6 10 17.9 6.6
3 -6 -10 11.8 6.2
3 6 -9 4.4 5.7
-3 6 9 1.3 6.6
-3 -6 9 22.9 6.1
3 -6 -9 -3.6 5
3 6 -8 -0.1 5
-3 6 8 25 10.6
3 -6 -8 0.3 4.9
-3 -6 8 12.2 5.5
-3 -6 8 8.6 8.1
-3 6 7 45.2 10.7
3 6 -7 38.4 7.6
-3 -6 7 57.69 11.1
-3 -6 7 44.9 6.9
3 6 -6 546.05 26.2
-3 6 6 571.04 30.7
-3 -6 6 516.35 24.6
-3 -6 6 549.65 28
3 -6 -6 433.66 30.5
3 6 -5 2.2 3.6
-3 6 5 3.4 6.5
-3 -6 5 1.1 3.8
-3 -6 5 1.4 5
3 -6 -5 1.8 5.7
3 6 -4 10.9 3.9
-3 6 4 4.3 6.2
-3 -6 4 8.7 5.9
3 -6 -4 12.6 6
-3 -6 4 12.6 4.3
-3 6 3 91.19 8.9
3 6 -3 91.09 7.6
-3 6 3 80.19 11.5
-3 -6 3 94.69 8
3 -6 -3 89.19 10.8
-3 -6 3 100.79 11.2
-3 6 2 145.99 14.2
3 6 -2 173.88 13.9
-3 6 2 131.09 10.4
3 6 -2 134.39 9.2
-3 -6 2 142.09 13
3 -6 -2 161.38 14.3
-3 -6 2 146.99 10.1
-3 6 1 499.95 26.6
-3 6 1 454.65 21.3
3 6 -1 500.25 26.8
3 6 -1 404.16 20.5
-3 -6 1 453.95 22.3
-3 -6 1 496.55 26.2
3 -6 -1 455.45 26.3
-3 6 0 365.26 21.9
-3 6 0 351.56 16.8
3 6 0 331.97 21.5
-3 -6 0 359.06 18.6
-3 -6 0 319.47 20.8
3 -6 0 364.56 22.4
3 6 1 589.34 31.6
-3 6 -1 565.34 26.8
3 -6 1 599.24 31.5
-3 -6 -1 611.84 31.2
3 -6 1 598.54 26.5
3 6 2 44 9.5
3 6 2 60.59 7.7
-3 6 -2 41.9 5
3 -6 2 56.19 9.8
3 -6 2 51.59 6.2
-3 -6 -2 51.99 9.4
3 6 3 131.49 10.9
-3 6 -3 127.99 9.3
3 6 3 132.49 14.4
3 -6 3 126.09 8.6
-3 -6 -3 149.79 13.6
3 -6 3 124.29 12.8
3 6 4 11.9 4.9
3 6 4 7.2 6.2
3 -6 4 9 3.6
-3 -6 -4 8 5.9
3 6 5 51.29 9
3 6 5 61.29 11.5
-3 6 -5 64.89 6.4
3 -6 5 61.79 6.8
-3 -6 -5 67.89 10.8
3 -6 5 40.3 9.7
3 6 6 75.49 12.7
-3 6 -6 69.19 8.6
3 -6 6 64.99 7.1
3 -6 6 62.19 11.4
-3 -6 -6 69.39 11.5
-3 6 -7 13.5 4.7
3 6 7 13.9 7.4
-3 -6 -7 5 5.5
3 -6 7 22.8 8.6
3 -6 7 5.9 3.9
-3 6 -8 38.5 8.7
3 6 8 41.4 11
-3 -6 -8 39 8.8
3 -6 8 26.6 5.7
3 -6 8 28.6 10.6
3 6 9 10.1 7
3 -6 9 23.2 11.2
3 -6 9 24.6 6.1
3 6 10 3 7
3 -6 10 -1.7 3.7
3 -6 10 -10.5 7.4
3 -6 10 4.4 5
3 -6 11 4.9 5.2
3 -6 11 -6.2 4.1
-3 7 11 14.3 9.7
-3 -7 11 6.9 4.1
-3 -7 11 -2.6 5.9
-3 -7 10 -7 4.6
-3 7 9 59.49 15.2
-3 -7 9 47.6 9.7
3 7 -8 115.09 12.2
-3 7 8 125.39 23.3
-3 -7 8 96.29 10.4
3 7 -7 2 4.4
-3 7 7 10.8 9.6
-3 -7 7 2.6 4.5
3 -7 -7 7.8 7.5
-3 7 6 296.37 22
3 7 -6 253.07 15.7
3 -7 -6 218.08 20.3
-3 -7 6 220.68 18.8
-3 -7 6 240.48 15
3 7 -5 131.79 10.6
-3 7 5 161.28 17.4
3 -7 -5 138.59 15.5
-3 -7 5 120.79 10.7
-3 7 4 42.6 8.1
3 7 -4 47.2 6.6
-3 7 4 50.49 11.3
-3 -7 4 73.09 11.7
-3 -7 4 45.7 7.1
3 -7 -4 40.9 10.3
3 7 -3 -0.4 3
-3 7 3 -2.8 4.3
-3 7 3 -2.1 7
-3 -7 3 -0.7 5.5
-3 -7 3 -3.5 3.8
3 7 -2 6.4 6.2
3 7 -2 1.1 3.3
-3 7 2 6.6 6.8
-3 7 2 1.3 3.9
-3 -7 2 0.8 4.1
-3 -7 2 -13.6 4.9
3 -7 -2 -2 5.7
3 7 -1 133.29 14.4
-3 7 1 101.99 8.9
3 7 -1 99.79 8.7
-3 -7 1 117.59 13.3
-3 -7 1 103.89 10.2
3 -7 -1 151.58 14.9
3 7 0 123.89 14.7
3 7 0 113.19 9.2
-3 7 0 114.49 9
-3 -7 0 96.99 11.9
3 -7 0 131.59 14.4
-3 -7 0 110.99 10.9
3 7 1 3.8 6
3 7 1 1.3 3.9
-3 7 -1 2.9 3.2
3 -7 1 5.5 6.3
-3 -7 -1 0 5.3
3 7 2 4.9 6.7
3 7 2 -4.9 3.4
-3 7 -2 0.3 2.7
-3 -7 -2 -2.4 5.2
3 -7 2 3.3 6.6
-3 7 -3 12.8 3.7
3 7 3 0.6 4.8
3 7 3 13.5 7.9
-3 -7 -3 9.6 7.1
3 -7 3 6.5 6.8
3 7 4 -10.5 4.2
3 7 4 15.9 8.4
-3 7 -4 -0.8 2.8
3 -7 4 4.3 4
3 -7 4 0.3 6.2
-3 -7 -4 6 6.2
3 7 5 25.4 7.7
3 7 5 30.1 10.9
-3 7 -5 20.6 4.7
3 -7 5 13.5 7.7
3 -7 5 22.6 5.1
-3 -7 -5 17.8 8.1
3 7 6 39.9 11.8
-3 7 -6 42.8 7
3 -7 6 30.3 9.2
-3 -7 -6 57.39 11.3
3 -7 6 52.39 7
-3 7 -7 50.59 8
3 7 7 39 11.1
3 -7 7 57.49 7.2
-3 7 -8 -4.7 4.6
3 7 8 4.8 7
3 -7 8 4.4 4.3
-3 7 -9 -6.6 6
3 7 9 -4 6.8
3 -7 9 10.1 5.5
3 7 10 23.6 12.2
3 -7 10 37.9 7.7
3 -7 11 4.1 5.2
3 -7 11 4.1 4.2
-3 -8 10 -2.2 5.1
-3 -8 9 3.8 5.9
-3 8 8 -1.7 6.7
-3 -8 8 1.9 4.6
3 8 -7 41.7 8.6
-3 8 7 67.69 14.5
-3 -8 7 55.29 8.6
3 8 -6 -2.3 3.8
-3 -8 6 5.4 4.7
-3 -8 6 19.5 10.4
3 8 -5 2.4 4.1
-3 8 5 14 9
-3 -8 5 4.3 5.1
-3 -8 5 -0.4 7.2
3 8 -4 3.4 4.1
-3 8 4 13.4 6.3
-3 8 4 10.2 7.6
-3 -8 4 -1 6.6
-3 -8 4 10.2 5.5
-3 8 3 -1.2 7.1
3 8 -3 4.7 4.1
3 -8 -3 6 8.8
-3 -8 3 -7.4 4.2
-3 -8 3 -1.9 9.6
3 8 -2 130.99 10.9
-3 8 2 161.68 12.5
-3 8 2 163.98 18
3 8 -2 156.08 16.9
3 -8 -2 156.78 16.2
-3 -8 2 144.99 13
-3 -8 2 158.48 16.8
-3 8 1 10.9 8.6
3 8 -1 11.3 4.4
3 8 -1 9.1 7.8
-3 8 1 11.9 5.3
-3 -8 1 15.7 8.4
3 -8 -1 11.7 9.4
-3 -8 1 9 5.9
-3 8 0 18.7 5.2
3 8 0 27.7 6.2
3 8 0 29.7 10.3
3 -8 0 33.9 10
-3 -8 0 33.4 9.3
3 8 1 20.6 9.9
-3 8 -1 13.2 4.4
3 8 1 13 5.3
3 -8 1 3.6 6.5
-3 -8 -1 0 6.3
3 8 2 -14.4 5.9
3 8 2 -1.8 4.2
-3 8 -2 -2.3 3.3
3 -8 2 0.9 4.7
3 -8 2 17.6 9.2
-3 -8 -2 -3.9 5.4
-3 8 -3 55.19 6.2
3 8 3 51.29 8.1
3 8 3 53.99 12.9
3 -8 3 37.5 10.7
3 -8 3 50.09 8.5
-3 8 -4 -0.2 3.2
3 8 4 13.5 9.5
3 -8 4 1.8 4.4
3 -8 4 0.6 8
3 8 5 106.49 20.5
-3 8 -5 125.19 10
3 -8 5 97.99 10.3
3 -8 5 86.19 18.8
3 8 6 86.79 18.1
-3 8 -6 75.39 9.4
3 -8 6 79.59 15.3
3 -8 6 87.19 9.8
3 8 8 3.8 9.9
3 -8 8 3.1 5.1
3 8 9 6 9.4
3 -8 9 3.7 4.7
3 -8 10 11.5 6
-3 -9 9 10.6 6.6
-3 9 8 -0.2 11.3
-3 -9 8 5.4 5.7
-3 -9 7 1.9 6
3 9 -6 20 6
-3 9 6 14.3 11
-3 -9 6 26.4 7.4
-3 9 5 5.9 10.6
3 9 -5 3.2 4.3
-3 -9 5 1.3 5.1
-3 9 4 -5.5 8.5
3 9 -4 12 4.9
-3 -9 4 17 6.6
-3 9 3 44.8 8.3
-3 9 3 82.29 14.1
3 9 -3 61.69 8
-3 -9 3 71.79 10.4
-3 9 2 11.2 5.9
3 9 -2 25.6 6
-3 9 2 23.4 11.6
-3 -9 2 18.3 7.3
3 9 -1 16.7 5.5
3 9 -1 26 13.1
-3 9 1 10.6 5.8
3 9 0 4.6 4.9
-3 9 0 0.5 3.9
3 9 1 -0.7 4.8
3 9 1 11.5 10.7
-3 9 -1 12.5 4.3
3 9 2 -9.8 5.9
-3 9 -2 3.8 3.6
3 9 2 1.2 5.7
3 9 3 -5.7 9.6
-3 9 -3 -3 3.1
3 -9 3 0.7 5.8
-3 9 -4 7.1 4.2
3 9 4 17.5 10.7
3 -9 4 -2.6 5
3 9 5 42.3 13.3
-3 9 -5 29.6 6.3
3 -9 5 23.4 7.3
3 9 6 16.3 11.8
-3 9 -6 16.3 5.8
3 -9 6 20.5 7.2
3 9 7 4.8 9.7
3 -9 7 -2.3 4.5
3 9 8 31 14.2
3 -9 8 19.9 7.2
3 9 9 -0.6 10
3 -9 9 -8.7 5.6
-3 -10 7 -3.1 5.5
-3 10 6 43 15.9
-3 -10 6 -6.4 5.9
-3 10 5 0 8.8
-3 -10 5 -8.6 5.6
-3 10 4 6.8 8.1
-3 -10 4 1.4 7.1
-3 10 3 30.2 15.8
-3 -10 3 38.2 9.3
-3 -10 2 6.1 7.1
3 10 -1 51.89 15
-3 10 1 26.8 6.8
3 10 0 19.6 11.5
-3 10 0 16.1 5.8
-3 10 -1 -5.5 3.9
3 10 1 2.7 10.9
-3 10 -2 -7 4.7
3 10 2 -3.5 9.4
-3 10 -3 12.5 4.7
3 10 3 12.9 14.6
3 10 4 16.2 12.3
-3 10 -4 0.8 4.2
3 -10 4 -1.8 7.3
3 10 5 32.7 16
3 -10 5 58.69 11.2
-3 10 -6 18.7 5.9
3 10 6 -8.2 11.4
3 -10 6 9.5 7.1
-3 10 -7 -9.3 5.3
3 -10 7 -0.9 6.9
-3 11 6 12.2 14.1
-3 -11 6 -10.8 6.5
-3 -11 5 4.6 8.6
-3 -11 4 2.9 7.6
-3 -11 3 9.8 8.9
3 11 0 18.5 15.7
-3 11 -1 12 6.9
3 11 1 17.5 13.9
3 11 2 32.3 17.5
-3 11 -2 30.8 7
3 11 3 -0.1 13.8
-3 11 -3 10.5 4.7
-3 11 -4 -2.8 4.7
3 11 4 -6.7 12.3
-3 11 -5 -3.6 4.3
3 12 1 -7.3 12.2
3 12 2 1.6 15.1
-4 0 13 -4.8 6
-4 0 12 104.39 13.2
-4 0 11 -6.2 4.7
-4 0 10 41.9 9.7
-4 0 9 1.5 2.9
-4 0 9 4 4.7
-4 0 8 3.5 4.6
-4 0 8 7.4 2.7
-4 0 7 0.1 1.9
-4 0 7 -0.6 3.5
-4 0 6 177.28 11.9
-4 0 6 167.48 8.4
-4 0 5 -0.9 2.9
-4 0 5 0.3 1.7
-4 0 4 24.9 2.5
-4 0 4 21.9 4.1
4 0 -4 36 5.3
4 0 -4 27.3 1.7
-4 0 3 -1.8 2.4
4 0 -3 -4.8 2.2
-4 0 2 965.7 36.4
4 0 -2 922.41 36.5
4 0 -2 961.3 34.8
4 0 -1 -0.5 1.1
-4 0 1 -1.5 1.2
4 0 0 18.6 1.5
4 0 0 18 1.6
-4 0 0 18.7 1.6
-4 0 0 18.6 1.6
4 0 1 -0.9 1.2
4 0 1 -1.1 1.2
-4 0 -1 -0.3 1.2
4 0 2 479.55 18.9
-4 0 -2 472.15 18.7
4 0 3 -1.9 1.9
-4 0 -3 0.7 1.5
-4 0 -4 214.38 9.8
4 0 4 214.48 10.4
4 0 5 5.6 3
-4 0 -5 -1.4 1.8
4 0 6 8.4 3.5
4 0 6 5.1 4.4
-4 0 -6 5.6 2.3
4 0 7 -2.2 3
4 0 7 0.2 2.8
4 0 8 4.8 3.9
4 0 8 7.3 4.8
4 0 9 -5.5 4
4 0 9 -0.6 4.3
4 0 10 11.3 5.2
4 0 10 1.7 5.7
4 0 11 9.6 4.8
4 0 11 4.1 5.1
4 0 12 33.8 8.9
4 0 12 54.29 10.4
4 0 13 -2.3 6
-4 1 13 7.2 7
-4 -1 13 -0.2 5.5
-4 1 12 -4.8 5.7
-4 -1 12 2.6 6
-4 1 11 65.99 11.8
-4 -1 11 45.2 9.4
-4 1 10 2.4 6.3
-4 -1 10 1.6 5.5
-4 1 9 98.59 10
-4 1 9 85.09 11.6
-4 -1 9 97.79 10.7
-4 1 8 94.09 10.1
-4 1 8 96.39 7.6
4 -1 -8 105.79 5.8
-4 -1 8 96.29 10.1
-4 -1 8 107.09 6.2
-4 1 7 52.29 5.6
-4 1 7 71.99 8
-4 -1 7 57.99 3.9
4 -1 -7 51.19 4.1
-4 -1 7 61.39 7.7
-4 1 6 82.49 6.4
4 1 -6 87.29 8.7
-4 1 6 84.29 8.3
4 -1 -6 84.49 5.2
-4 -1 6 81.49 7.8
-4 -1 6 75.59 4.4
4 1 -5 -0.4 3.2
-4 1 5 -1.7 3.7
-4 1 5 2.1 2.6
-4 -1 5 -1.5 3
-4 -1 5 1.4 1.2
4 -1 -5 3.3 2.2
-4 1 4 75.89 5.6
-4 1 4 71.79 6.9
4 1 -4 73.39 6.2
-4 -1 4 73.49 5.8
4 -1 -4 66.99 5.2
4 1 -3 1396.96 52.29
-4 1 3 1357.86 52.79
-4 1 3 1333.97 51.59
-4 -1 3 1355.16 49.99
4 -1 -3 1370.16 51.59
-4 -1 3 1388.76 51.79
4 1 -2 366.46 15.3
4 1 -2 360.66 14.6
-4 1 2 354.36 16.1
-4 1 2 366.46 15.6
-4 -1 2 368.66 14.4
-4 -1 2 369.06 15.2
4 -1 -2 358.96 15.8
-4 1 1 90.39 5.4
4 1 -1 95.99 5.1
4 1 -1 85.89 5.5
-4 -1 1 95.29 5.2
-4 -1 1 89.89 5
4 1 0 17.2 2.1
-4 1 0 13.1 1.6
4 1 0 13.8 2.8
-4 -1 0 24.5 2.5
-4 -1 0 14.7 2.6
4 1 1 39.3 4.6
4 1 1 42.6 4.4
-4 -1 -1 46.9 4.6
4 -1 1 37.3 2
-4 -1 -1 34.7 4
4 1 2 613.54 25
-4 -1 -2 604.14 24.4
4 -1 2 601.04 23.3
4 1 3 219.38 11.1
4 -1 3 205.88 9.3
4 -1 3 203.98 10
-4 -1 -3 211.68 10.3
4 1 4 36.8 5.1
4 -1 4 27.8 4.2
-4 -1 -4 32.5 4.2
4 -1 4 30.9 3.5
4 1 5 113.99 8.6
-4 -1 -5 113.69 7.2
4 -1 5 118.49 6.9
4 -1 5 106.29 8.3
4 1 6 137.19 9.6
-4 -1 -6 122.99 7.6
4 -1 6 117.89 9.3
4 -1 6 130.99 7.9
4 1 7 1 3.4
-4 -1 -7 -2.1 2
4 -1 7 2.4 3.5
4 -1 7 5.8 3
4 1 8 1 4.4
4 -1 8 1 4.1
-4 -1 -8 -0.5 2.5
4 -1 8 -1.6 2.7
4 1 9 11.7 5.3
4 1 9 10.9 6.4
-4 -1 -9 8.1 3
4 -1 9 3.8 4.4
4 1 10 32.7 7.6
4 1 10 17 6.7
4 -1 10 24.4 5.6
4 -1 10 20.6 6.6
4 1 11 7.1 5.6
4 1 11 21.1 6.4
4 -1 11 23.6 7.5
4 -1 11 18.3 5.8
4 1 12 18 8
4 1 12 19.2 7.9
4 -1 12 9.2 6
4 -1 12 34.9 9
4 1 13 12.6 7.9
4 -1 13 6.8 6.6
-4 -2 13 -2.2 5.6
-4 2 12 49.7 11.9
-4 -2 12 48.2 10
-4 2 11 22.5 7.6
-4 -2 11 16.6 7.3
-4 2 10 14.4 6.8
-4 -2 10 2.6 5.2
4 -2 -10 4.6 2.9
-4 2 9 2.6 5.4
-4 2 9 -0.6 4.3
-4 -2 9 7.3 5.1
4 -2 -9 4.4 2.5
-4 2 8 71.09 7.8
-4 2 8 82.29 11
-4 -2 8 62.89 4.4
-4 -2 8 58.69 5.2
-4 -2 8 76.29 9.1
4 -2 -8 61.59 5.5
-4 2 7 30.6 5.6
-4 2 7 23.6 6.1
4 2 -7 30.3 6.3
4 -2 -7 28.4 4.4
-4 -2 7 29.3 5.6
-4 -2 7 32.4 3.8
-4 -2 7 29.3 2.9
-4 2 6 48 7.5
-4 2 6 52.69 6.1
4 2 -6 60.69 7.7
4 -2 -6 51.09 5.4
-4 -2 6 53.89 6.2
-4 -2 6 49.5 4.4
-4 -2 6 48.3 3.2
4 2 -5 122.29 9
-4 2 5 118.19 9
-4 -2 5 126.89 8.6
4 -2 -5 121.79 8.5
-4 -2 5 112.19 6.9
-4 2 4 3.5 3.4
4 2 -4 9.4 3.3
4 -2 -4 3 3.1
-4 -2 4 0.4 2.3
-4 -2 4 -0.1 2.1
4 2 -3 137.59 7.5
-4 2 3 130.79 8.7
4 -2 -3 126.19 8.7
-4 -2 3 131.59 7.5
-4 -2 3 135.89 7.4
4 2 -2 1400.96 50.49
4 2 -2 1306.57 51.09
-4 2 2 1325.27 52.09
-4 -2 2 1409.16 50.49
4 -2 -2 1294.17 52.19
-4 -2 2 1305.57 51.09
4 2 -1 7493.65 277.37
-4 -2 1 7756.62 277.27
4 -2 -1 7622.24 277.97
4 2 0 655.83 28
4 2 0 679.63 25.9
-4 -2 0 658.83 26.1
-4 -2 0 663.83 27.7
4 2 1 199.08 12
-4 2 -1 237.58 8.5
4 2 1 216.28 10.7
-4 -2 -1 208.38 11.9
-4 -2 -1 191.08 11.1
4 -2 1 212.68 8.5
-4 2 -2 2250.87 82.79
4 2 2 2292.07 86.39
4 -2 2 2272.27 82.49
-4 -2 -2 2267.47 85.69
-4 2 -3 96.79 5.9
4 2 3 114.99 8.6
-4 -2 -3 97.59 7.6
4 -2 3 106.09 5.6
4 2 4 22 5.1
-4 -2 -4 24.5 4.7
4 -2 4 14.4 3.1
4 2 5 70.39 8.5
-4 -2 -5 68.19 6.3
4 -2 5 68.09 6.1
4 -2 5 68.79 5.2
4 2 6 102.09 9.5
-4 -2 -6 107.09 7.7
4 -2 6 96.49 7.7
4 -2 6 97.09 6.5
4 2 7 39.4 7.9
4 -2 7 32.4 5.5
4 -2 7 37.6 4.8
-4 -2 -7 37.1 5.2
4 2 8 79.29 10
-4 -2 -8 84.19 6.9
4 -2 8 68.89 8.5
4 -2 8 78.69 6.9
4 2 9 65.79 10.2
4 2 9 87.09 12.5
-4 -2 -9 64.19 6.3
4 -2 9 73.09 9.2
4 2 10 4.2 4.5
4 2 10 6.8 5.6
4 -2 10 -0.1 3.3
-4 -2 -10 1.6 3
4 -2 10 -1.2 4.4
4 2 11 84.59 13.2
4 2 11 68.69 12.2
4 -2 11 63.29 15.3
-4 -2 -11 65.09 6.7
4 -2 11 68.29 8.2
4 2 12 49.5 11.6
4 -2 12 56.09 9.7
4 -2 12 69.69 10.8
4 2 13 17.1 9.1
4 -2 13 10.8 7.3
-4 3 13 5 7.8
-4 -3 13 7.1 6.5
-4 3 12 6.1 6.6
4 -3 -12 9.8 3.1
-4 -3 12 16.1 7.2
-4 3 11 -6.3 4.9
4 -3 -11 2.1 2.8
-4 -3 11 -0.5 5.1
-4 3 10 96.19 13.7
-4 3 10 95.99 13.9
4 -3 -10 77.69 7.3
-4 -3 10 96.59 11.5
-4 3 9 3.8 5.3
-4 -3 9 5.1 5.1
4 -3 -9 6.6 3.5
-4 3 8 184.38 15
4 3 -8 162.78 14
-4 3 8 173.68 13
-4 -3 8 179.38 12.9
4 -3 -8 182.88 11.6
-4 -3 8 170.48 8.5
-4 -3 8 188.88 13
-4 3 7 65.09 9.6
-4 3 7 73.29 8.6
4 3 -7 76.69 8.6
-4 -3 7 69.79 6.4
4 -3 -7 67.49 7.2
-4 -3 7 77.49 8.1
-4 -3 7 63.49 4.4
4 3 -6 160.88 11.1
-4 3 6 144.69 11.3
4 -3 -6 154.18 10.8
-4 -3 6 160.68 10.3
-4 -3 6 141.39 9.1
4 3 -5 198.08 11.6
-4 3 5 204.38 13.1
-4 -3 5 189.38 10.9
4 -3 -5 187.88 12.4
-4 3 4 436.76 21.9
-4 -3 4 454.15 19.3
-4 -3 4 419.56 19.8
4 -3 -4 429.76 21.5
4 3 -3 171.58 10.2
-4 3 3 141.89 11.1
4 3 -3 173.68 9.2
-4 -3 3 160.58 10.1
-4 -3 3 165.18 9.1
4 -3 -3 176.48 11.6
4 3 -2 229.18 12.7
-4 3 2 224.78 13.5
4 3 -2 236.78 11
-4 -3 2 217.48 12.4
-4 -3 2 237.78 10.9
4 -3 -2 228.28 13.7
-4 3 1 38.7 5.9
4 3 -1 37.3 5.8
4 3 -1 37.9 3.7
-4 -3 1 37.3 5.5
-4 -3 1 36.2 3.8
4 -3 -1 46.1 6.3
4 3 0 48.6 4.7
-4 3 0 52.59 4.3
4 3 0 60.19 7.2
4 -3 0 53.19 6.4
-4 -3 0 54.69 6.8
-4 -3 0 65.49 5.3
4 3 1 716.43 33.2
-4 3 -1 773.02 28.7
4 3 1 742.03 30.6
-4 -3 -1 794.32 31.5
4 -3 1 766.82 32.8
4 -3 1 764.82 29.1
-4 -3 -1 778.02 32.8
4 3 2 205.38 13.3
4 3 2 185.08 10.9
-4 3 -2 197.28 8.6
-4 -3 -2 198.28 12.5
4 -3 2 209.38 8.6
-4 3 -3 0.4 1.8
4 3 3 0 4.1
4 -3 3 2 1.7
-4 -3 -3 -3.8 3.1
4 3 4 4.9 4.9
-4 3 -4 11.6 3.2
-4 -3 -4 17.8 5
4 -3 4 9.8 2.6
4 3 5 98.09 11.5
-4 3 -5 101.09 7.5
-4 -3 -5 65.99 7.3
4 -3 5 84.89 6.1
4 3 6 6.4 4.8
4 -3 6 2.6 3
-4 -3 -6 3.8 3.6
4 3 7 9.3 5.5
4 -3 7 -2.8 2.6
-4 -3 -7 -2 3.1
4 -3 7 0.3 3.2
4 3 8 94.09 12.2
4 -3 8 84.89 8.7
-4 -3 -8 93.69 8.2
4 3 9 96.29 12.5
-4 -3 -9 96.29 8.5
4 -3 9 91.69 7.7
4 -3 9 80.19 8.9
4 3 10 11.1 6.6
4 3 10 4.2 5.3
4 -3 10 -0.9 3.4
-4 -3 -10 1.5 3.5
4 -3 10 5.2 4.9
4 3 11 23.3 9.3
4 3 11 18.6 8.9
4 -3 11 23.4 5.4
-4 -3 -11 12.5 4.2
4 -3 11 16.9 6.3
4 3 12 6.9 7.1
4 3 12 5.6 7.6
4 -3 12 1 4.2
4 -3 12 2.1 5.5
-4 -3 -12 -1.4 3.2
-4 4 12 -2.1 5.3
4 -4 -12 2.7 3.4
-4 -4 12 11.7 6.6
-4 4 11 11.4 7.7
4 -4 -11 11.4 4.2
-4 -4 11 14.7 6.6
-4 4 10 2.5 7
-4 4 10 10.1 6.7
-4 -4 10 6.9 2.9
4 -4 -10 -0.4 3.9
-4 4 9 104.19 13.9
4 4 -9 86.19 11.6
-4 4 9 98.99 13.9
4 -4 -9 82.39 9.2
-4 -4 9 81.19 5.9
-4 -4 9 102.39 10.5
-4 4 8 -1.1 4.1
4 4 -8 -2.1 3.8
4 -4 -8 -4.6 3.5
-4 -4 8 9.3 4.8
-4 -4 8 4 4.8
-4 4 7 13.8 6
4 4 -7 8.7 4.5
-4 -4 7 10.3 4.1
-4 -4 7 12.6 4.6
4 -4 -7 -3.8 4.6
4 4 -6 19.2 4.8
-4 4 6 22.7 6.2
-4 -4 6 18.5 4.8
4 -4 -6 26.5 6.1
-4 -4 6 13.3 4.4
4 4 -5 -0.6 2.6
-4 -4 5 3.1 2.7
4 -4 -5 0.7 3.8
-4 -4 5 -2.1 3.2
4 4 -4 544.35 24.1
-4 4 4 570.14 27.9
4 -4 -4 578.04 27.8
-4 -4 4 561.84 24.1
-4 -4 4 555.54 25.8
4 4 -3 391.86 19.7
-4 4 3 381.66 21.3
4 4 -3 399.46 21.5
4 -4 -3 397.56 21.4
-4 -4 3 409.86 17.7
-4 -4 3 374.26 19.7
4 4 -2 245.98 13
-4 4 2 277.37 16.8
4 4 -2 267.17 16
4 -4 -2 274.77 17
-4 -4 2 283.17 15.8
-4 -4 2 266.37 12.8
4 4 -1 362.96 15.8
-4 4 1 343.07 19.4
4 4 -1 336.97 18.9
-4 4 1 359.26 16.4
-4 -4 1 346.67 18.9
-4 -4 1 348.97 16.1
4 4 0 14.7 3.3
-4 4 0 13.5 3.1
4 4 0 9.1 5.7
-4 -4 0 11.9 5.1
-4 -4 0 13.5 4.1
-4 4 -1 211.18 9.6
4 4 1 201.28 14.6
4 4 1 208.88 12.5
-4 -4 -1 202.98 12.1
-4 -4 -1 201.18 15
4 -4 1 211.68 10.3
4 4 2 533.15 23.9
-4 4 -2 534.35 21.1
4 4 2 536.85 27.2
-4 -4 -2 539.05 26.2
4 -4 2 532.85 21.3
4 -4 2 512.55 28
4 4 3 1006.5 42.5
-4 4 -3 1002.6 39.2
-4 -4 -3 1025.3 44.2
4 -4 3 1014.8 44
4 -4 3 1083.79 39.2
4 4 4 226.28 15.8
-4 4 -4 209.48 10.5
4 -4 4 207.18 10
-4 -4 -4 195.38 13.9
4 4 5 153.98 13.6
-4 4 -5 166.28 10
-4 -4 -5 166.48 12.2
4 -4 5 145.29 8.8
4 4 6 12.4 5.7
-4 4 -6 15.4 4.3
-4 -4 -6 8.4 4.6
4 -4 6 19.9 3.9
4 4 7 99.29 11.5
4 -4 7 98.39 8.3
-4 -4 -7 108.09 9.9
4 4 8 35.4 8.4
-4 -4 -8 27 6.4
4 -4 8 26.6 4.9
4 -4 8 29.3 5.6
4 4 9 24.5 8.2
4 -4 9 18 5.6
4 -4 9 17.3 4.5
-4 -4 -9 12.7 5
4 4 10 104.19 14.6
4 -4 10 121.49 10.9
4 -4 10 97.49 8.5
-4 -4 -10 94.89 9.8
4 4 11 -2.2 6.6
4 4 11 0.6 7.4
4 -4 11 0.3 4.1
-4 -4 -11 2.1 4.3
4 -4 11 -3.6 4.8
4 4 12 2.8 6.2
4 -4 12 17.9 6.7
-4 -4 -12 13.4 5.8
4 -4 12 10.4 4.9
-4 5 12 27.7 11.1
4 -5 -12 31.1 6.6
-4 -5 12 31.8 8.7
-4 5 11 49 11.7
-4 -5 11 18.9 4.1
-4 -5 11 18.5 7
-4 5 10 5.9 7
-4 5 10 12.9 7.9
-4 -5 10 8.2 5.9
-4 -5 10 3 2.8
4 -5 -10 4.4 4.6
-4 5 9 19.4 8.3
4 5 -9 10.9 6.4
-4 -5 9 22.6 6.7
4 -5 -9 20.8 6.8
-4 5 8 4.7 6.1
4 5 -8 5.7 5.4
-4 -5 8 7.7 5.2
4 -5 -8 1.2 4.8
4 5 -7 123.19 11.2
-4 5 7 149.49 14.1
-4 -5 7 127.99 10.8
-4 -5 7 134.19 12.6
4 -5 -7 104.39 13.5
-4 5 6 18.8 7
4 5 -6 13.7 4.7
-4 -5 6 14.5 5.5
4 -5 -6 10.7 6.1
-4 -5 6 27.2 5.4
-4 5 5 12.7 6.3
4 5 -5 12.3 4
-4 -5 5 9.4 4.9
-4 -5 5 24.6 4.8
4 -5 -5 22.1 6.5
-4 5 4 13.2 6.2
4 5 -4 0.6 2.6
4 -5 -4 0.4 5
-4 -5 4 7 3.4
-4 -5 4 1.7 4.4
4 5 -3 128.19 11.3
4 5 -3 119.09 8.2
-4 5 3 132.09 12.4
4 -5 -3 107.69 11.4
-4 -5 3 117.19 10.6
4 5 -2 115.29 7.8
4 5 -2 114.29 11.1
-4 5 2 117.79 11.7
-4 -5 2 102.79 10.5
4 -5 -2 111.89 11.6
-4 -5 2 93.29 8
-4 5 1 82.49 11.1
4 5 -1 89.79 7.1
-4 5 1 86.99 7.3
-4 -5 1 93.89 7.8
4 -5 -1 85.69 11.1
-4 -5 1 98.59 10.3
4 5 0 6.4 6.1
4 5 0 5.1 3.4
-4 5 0 6.6 3
4 -5 0 1.4 4.6
-4 -5 0 5.9 4.2
-4 -5 0 0.9 4.9
4 5 1 166.48 10.9
-4 5 -1 182.48 9.4
4 5 1 195.58 15.3
-4 -5 -1 175.08 14.1
4 -5 1 179.18 14.2
4 -5 1 191.48 10.6
4 5 2 51.79 9
4 5 2 61.79 6.7
-4 5 -2 55.19 4.7
4 -5 2 51.49 5.3
-4 -5 -2 58.69 8.9
4 -5 2 66.09 9.2
4 5 3 127.39 10.3
4 5 3 148.69 13.6
-4 5 -3 117.59 7.2
4 -5 3 132.39 11.9
-4 -5 -3 119.49 11.7
4 -5 3 139.09 7.7
-4 5 -4 53.59 5.3
4 5 4 72.69 10.8
4 5 4 68.09 8.7
4 -5 4 65.09 5.5
4 -5 4 64.19 9.2
-4 -5 -4 69.79 9.9
4 5 5 136.39 13.8
-4 5 -5 129.09 9
-4 -5 -5 144.59 11.8
4 -5 5 147.39 12.3
4 -5 5 120.39 8
4 5 6 -0.3 5.7
-4 5 -6 -0.9 3.3
-4 -5 -6 10.3 4.8
4 -5 6 4.4 3.3
4 -5 6 8.8 5.6
-4 5 -7 235.38 15
4 5 7 224.48 18.3
4 -5 7 203.78 17.1
-4 -5 -7 240.68 16.1
4 -5 7 231.48 12.9
4 5 8 10.5 7.5
4 -5 8 18.5 5.3
4 -5 8 10.4 6.4
-4 -5 -8 16.2 6.3
4 5 9 6.6 7
-4 -5 -9 0.9 4.1
4 -5 9 0.7 3.9
4 -5 9 -1.9 6.1
4 -5 9 3.6 4.7
4 5 10 73.49 15.8
4 -5 10 57.29 7.1
4 -5 10 57.19 8.8
4 -5 10 76.69 12.6
-4 -5 -10 56.29 9
4 5 11 -3.6 8
4 -5 11 0.2 4.7
4 -5 11 8.7 4.4
4 5 12 10.5 9.1
4 5 12 8.1 8.1
4 -5 12 10.8 5
4 -5 12 4.8 5.9
-4 6 11 10.8 9.3
-4 -6 11 2.9 3.9
-4 -6 11 18.5 6.9
-4 6 10 8.6 8.5
4 -6 -10 -4.7 4.5
-4 -6 10 -9.9 4.5
-4 6 9 -2.3 7
-4 -6 9 -6.1 4.2
4 -6 -9 -6.3 5
-4 6 8 79.19 12.1
4 6 -8 63.99 9.7
-4 -6 8 59.79 8.8
4 -6 -8 69.29 11.5
4 6 -7 230.28 16.6
-4 6 7 259.67 19.4
-4 -6 7 267.27 19.9
4 -6 -7 229.48 21.6
-4 -6 7 241.58 15.2
4 6 -6 76.99 9.3
-4 -6 6 105.69 11.2
-4 -6 6 79.39 9
4 6 -5 4.5 3.6
-4 6 5 -1.9 5.6
4 -6 -5 0.2 6.1
-4 -6 5 5.7 5.2
-4 -6 5 1.4 4
-4 6 4 21.8 7.8
4 6 -4 17.5 4.4
-4 -6 4 17.8 6.1
4 -6 -4 21.3 7.1
-4 -6 4 16.8 4.6
4 6 -3 386.56 22.4
-4 6 3 383.46 20
4 6 -3 330.17 17.7
-4 6 3 396.16 23.9
4 -6 -3 398.36 24.1
-4 -6 3 388.66 18.5
-4 -6 3 384.56 22.2
4 6 -2 1.8 5.3
-4 6 2 2.2 5.2
-4 6 2 5.1 3.7
4 6 -2 -1 2.9
4 -6 -2 -5.6 4.4
-4 -6 2 -0.6 4.6
-4 -6 2 1.7 3.6
-4 6 1 59.59 6.9
4 6 -1 61.29 6.3
-4 6 1 65.99 10.5
4 6 -1 74.59 10.5
-4 -6 1 59.79 7.7
-4 -6 1 48.4 8.9
4 -6 -1 76.29 10.9
4 6 0 11.8 6.5
4 6 0 12.2 3.8
-4 6 0 4.4 5.4
-4 -6 0 7.4 5.5
-4 -6 0 8.5 4.8
4 -6 0 29.3 7.5
4 6 1 78.39 11.4
4 6 1 68.39 7.3
-4 6 -1 61.39 6.1
-4 -6 -1 67.79 10.3
4 6 2 4.4 5.8
4 6 2 -2.1 2.9
-4 6 -2 0.7 2.2
4 -6 2 -11.3 3.7
-4 -6 -2 1.3 4.5
4 -6 2 -1.8 2.9
-4 6 -3 40.1 4.7
4 6 3 35.6 6.3
4 6 3 40.3 9.3
4 -6 3 29.3 7.8
-4 -6 -3 51.39 9
4 -6 3 39.9 5.2
4 6 4 365.96 20
4 6 4 398.26 24.6
-4 6 -4 310.37 18.1
4 -6 4 390.26 23.2
4 -6 4 344.67 16.9
-4 -6 -4 371.36 22.4
4 6 5 58.89 8.6
4 6 5 59.09 11.6
-4 6 -5 50.99 5.8
4 -6 5 53.29 6.1
-4 -6 -5 60.89 10.3
4 -6 5 77.79 12.5
-4 6 -6 166.88 12.1
4 6 6 212.78 15.8
4 6 6 218.98 19.1
-4 -6 -6 192.18 15.7
4 -6 6 181.28 17.5
4 -6 6 174.48 11.3
-4 6 -7 -3.6 3.5
4 6 7 -13.1 5.4
4 -6 7 2.3 3.7
4 -6 7 -0.2 5.2
-4 -6 -7 9 6.1
-4 6 -8 98.29 13.6
4 6 8 93.39 16.2
4 -6 8 92.79 8.8
-4 -6 -8 59.99 11.3
4 -6 8 98.09 14.5
4 6 9 15.1 9.8
4 -6 9 24.8 5.7
4 6 10 24.1 11.6
4 -6 10 25.3 5.4
4 -6 10 25.4 6.4
4 6 11 26.3 11.7
4 -6 11 8.2 4.6
-4 7 11 -1.4 8.1
-4 -7 11 6.9 6.3
-4 -7 11 3.4 4
-4 -7 10 24.3 7.1
-4 -7 9 45.8 9.6
4 7 -8 121.19 13
-4 7 8 100.59 18.4
-4 -7 8 100.19 10.6
4 7 -7 10.4 5.2
-4 7 7 8.1 11.5
-4 -7 7 34.1 8.7
-4 -7 7 21.1 5.9
4 -7 -7 27.9 10.4
4 7 -6 27.9 6.3
-4 7 6 43.3 10.3
-4 -7 6 35.7 7
4 -7 -6 52.19 11
-4 -7 6 42.8 9.9
4 7 -5 376.86 20.1
-4 7 5 443.06 27.4
-4 -7 5 420.66 23.9
4 -7 -5 360.76 26.1
-4 -7 5 364.66 20.1
-4 7 4 25.6 8.5
-4 7 4 17.5 6.2
4 7 -4 17 4.9
-4 -7 4 16.6 7.3
4 -7 -4 17.1 8.3
-4 -7 4 7.8 4.7
4 7 -3 1.7 3.4
-4 7 3 2.8 6.7
-4 7 3 6.8 4.6
-4 -7 3 2.5 4.1
-4 -7 3 -9.7 4.4
-4 7 2 54.39 7.7
4 7 -2 66.69 10.8
4 7 -2 44.5 6.2
-4 7 2 42.1 10.1
-4 -7 2 62.29 10.5
4 -7 -2 52.09 9.6
-4 -7 2 52.59 7.6
-4 7 1 3.2 3.8
4 7 -1 4 6.2
-4 7 1 9.9 7
4 7 -1 8.2 4
-4 -7 1 7.3 4.9
-4 -7 1 7 6.7
4 -7 -1 -2.2 5.9
-4 7 0 7.1 3.9
4 7 0 16.7 7.9
4 7 0 4.8 3.6
-4 -7 0 29.8 7.9
4 -7 0 32.4 9.1
-4 -7 0 18.9 5.9
-4 7 -1 41.1 5.4
4 7 1 37.2 9.4
4 7 1 30.7 6
-4 -7 -1 35.8 9.5
4 -7 1 32.6 9.3
4 7 2 53.29 7.5
-4 7 -2 43.3 5.4
4 7 2 26.6 8.6
-4 -7 -2 45.8 14.1
4 -7 2 52.39 10.6
4 -7 2 57.09 7.5
4 7 3 -2.3 3.7
4 7 3 3.4 6.6
-4 7 -3 -1.5 2.6
-4 -7 -3 -4.9 5.5
4 -7 3 -6 3.5
4 -7 3 1.7 6.2
-4 7 -4 3.9 3
4 7 4 -0.2 5.1
4 7 4 11.9 8.5
-4 -7 -4 -1.2 5.6
4 -7 4 5.8 5.1
4 -7 4 7.7 6.9
4 7 5 4.2 5.6
4 7 5 14.7 9.2
-4 7 -5 -1.1 3
4 -7 5 4.3 6.9
4 -7 5 -8.4 3.2
-4 -7 -5 4.3 6.8
-4 7 -6 38 6.8
4 7 6 33.9 10.5
4 -7 6 30 5.7
-4 7 -7 44.1 8.3
4 -7 7 68.49 8.3
4 -7 7 84.49 15.8
-4 7 -8 10.3 6.2
4 7 8 3.7 8
4 -7 8 0.5 4.1
4 7 9 2.7 10.7
4 -7 9 3.6 4.5
4 7 10 57.89 18.6
4 -7 10 68.79 9.1
-4 -8 10 -0.5 6
-4 -8 9 4.8 5.8
-4 8 8 -3.8 7.8
4 8 -7 68.39 10.1
-4 8 7 56.49 13.4
-4 -8 7 51.99 8.5
-4 -8 7 88.69 16.7
-4 8 6 17.4 11
4 8 -6 16.6 5
-4 -8 6 16.7 6.1
-4 8 5 26 10.5
4 8 -5 13.3 5.3
-4 -8 5 9.7 5.6
-4 -8 5 34.4 12.1
-4 8 4 5.6 5.6
-4 8 4 -4.5 6.5
4 8 -4 2.1 4
-4 -8 4 9.1 9
-4 -8 4 6.5 5.2
4 8 -3 4.1 4.4
-4 8 3 9.9 8.2
-4 8 3 17.7 7.6
-4 -8 3 5.8 5.2
4 -8 -3 16.8 7.6
-4 -8 3 26.9 8.5
4 8 -2 49.6 11.5
4 8 -2 31.4 6.4
-4 8 2 22.5 6.2
-4 -8 2 33.6 7.7
4 -8 -2 50.09 11.8
-4 -8 2 24.7 9.8
4 8 -1 46.8 7.2
-4 8 1 45.2 7.2
4 8 -1 36.9 9.8
-4 -8 1 34.5 8.2
4 -8 -1 43.9 10.4
4 8 0 -0.9 3.9
4 8 0 28.4 10.7
-4 8 0 7.3 4.1
4 -8 0 0.7 6.7
-4 -8 0 -0.9 6.9
-4 8 -1 25.7 5.2
4 8 1 42.1 12.3
4 -8 1 18.1 9.4
-4 -8 -1 28.7 8.9
-4 8 -2 0.4 3.3
4 8 2 11.9 7.7
4 8 2 5.3 4.9
4 -8 2 -2 8
-4 -8 -2 3.4 6.4
4 8 3 20.1 6.8
-4 8 -3 18.5 4.4
4 8 3 22 9.5
4 -8 3 28.8 6.8
4 -8 3 32 11
-4 8 -4 43.2 6.2
4 8 4 47 14.2
4 -8 4 60.09 13.8
4 -8 4 55.19 8.3
-4 8 -5 229.58 14.6
4 8 5 288.07 26.3
4 -8 5 237.88 16
4 -8 5 283.77 24.5
-4 8 -6 10 4.8
4 8 6 13.4 8.6
4 -8 6 8.8 4.8
4 -8 6 10.7 9.2
4 8 7 5.5 8.3
-4 8 -7 -1.5 4.6
4 -8 7 8.1 4.8
-4 8 -8 19 6.9
4 8 8 27.1 11.4
4 -8 8 19.8 5.8
4 8 9 19.7 10.5
4 -8 9 12.4 5.6
4 8 10 4.8 9.9
4 -8 10 -8.6 5.3
-4 -9 9 -2.3 5.8
-4 -9 8 5.7 5.8
-4 9 6 18.9 13.1
-4 -9 6 8.4 6
4 9 -5 19.8 5.7
-4 9 5 -6 8.3
-4 -9 5 -3.7 4.5
-4 9 4 22.9 11.4
4 9 -4 34.1 6.4
-4 -9 4 16.1 6.8
-4 9 3 129.09 13
-4 9 3 174.58 20.7
4 9 -3 165.68 12.5
-4 -9 3 172.98 14.8
4 9 -2 5.5 5
-4 9 2 18.2 6.1
4 9 -2 18.4 10.1
-4 -9 2 11.4 6.4
-4 9 1 12.6 5.2
4 9 -1 15 5.4
4 9 -1 13.7 10.5
-4 -9 1 16.5 8.1
-4 9 0 33.3 6.1
4 9 0 38.8 7.2
4 9 1 -1.3 9.1
4 9 1 21.8 5.9
-4 9 -1 15.5 4.6
-4 9 -2 8 4.1
4 9 2 -8.5 8.4
4 9 3 17.5 11.4
-4 9 -3 30.7 5.8
4 9 4 7.8 9.4
-4 9 -4 -0.3 3.5
4 -9 4 4.9 5
-4 9 -5 9.7 4.1
4 9 5 0.8 9.9
4 -9 5 2.4 5.4
-4 9 -6 5.3 4.8
4 9 6 4.5 9.7
4 -9 6 3 5.8
-4 9 -7 7.1 5.6
4 9 7 -16.9 11.8
4 -9 7 7.2 5.5
4 9 8 10.5 12
4 -9 8 3.3 5.2
4 -9 9 17 7.3
-4 -10 7 7.2 7.1
-4 10 6 -0.7 10.5
-4 -10 6 -3.7 5.5
-4 10 5 -8.8 13.8
-4 10 4 30.7 16.9
-4 -10 4 32.7 9.6
-4 -10 3 43.6 9.9
-4 10 2 11.9 7.6
-4 -10 2 4.5 7.3
-4 10 1 107.59 11.4
4 10 -1 128.89 21.2
-4 10 0 10.7 5.6
4 10 0 14.6 11.8
-4 10 -1 6.7 6.1
4 10 1 4.7 10.5
4 10 2 -3.8 9.3
-4 10 -2 -1.6 3.8
-4 10 -3 139.69 11.3
4 10 3 169.08 20.7
4 10 4 39.1 14.1
-4 10 -4 24.2 5.7
4 10 5 6.2 11
-4 10 -5 -3.2 4.4
4 10 6 -9.9 11
4 -10 6 -6.1 5.7
4 10 7 9.9 12.4
4 -10 7 1.2 6
-4 -11 5 16 9.6
-4 -11 4 28.4 10.1
-4 -11 3 18.4 10
4 11 0 65.29 19
-4 11 -1 8.5 5.3
4 11 1 14.6 13
4 11 2 18.9 12
-4 11 -2 23 6.5
-4 11 -3 0.5 4.5
4 11 3 -1.7 13.3
-4 11 -4 -1 4.6
4 11 4 7 12.8
-4 11 -5 6.2 5.8
4 12 1 28.1 18.6
4 12 2 9.6 11.9
-5 0 13 5.6 6.7
-5 0 12 -2.4 4.6
-5 0 11 -4.3 4.9
-5 0 9 1.7 5.1
-5 0 8 15.4 5.2
-5 0 8 20.6 3.2
-5 0 7 -0.2 3.1
-5 0 7 2.5 1.7
-5 0 6 112.19 8.6
-5 0 6 88.19 5.1
-5 0 5 4.1 3.3
-5 0 4 104.69 7.7
5 0 -4 106.89 8.2
-5 0 3 -4 1.9
5 0 -3 -0.6 2.4
5 0 -2 528.45 21.9
-5 0 2 546.15 21.7
-5 0 1 1.4 1.6
5 0 -1 -0.7 1
5 0 -1 -1.2 1.3
-5 0 0 233.18 9.3
-5 0 0 228.58 9.1
5 0 0 230.68 9.1
5 0 1 0.1 1.8
-5 0 -1 -0.1 1.4
5 0 1 -2.5 1.5
5 0 2 334.77 14.3
-5 0 -2 342.37 14
-5 0 -3 0.3 1.5
5 0 3 -3 1.8
5 0 4 5.5 2.6
-5 0 -4 10.4 2.4
-5 0 -5 -0.9 2
5 0 5 -2.4 2.4
-5 0 -6 -1.8 1.9
5 0 6 -2.3 2.6
5 0 7 -2.4 3.5
5 0 7 -0.6 2.8
5 0 8 6.7 4.9
5 0 9 -6.9 4.1
5 0 9 3.1 4.1
5 0 10 499.05 25.6
5 0 10 466.75 27.1
5 0 11 0.2 5.6
5 0 11 -1.3 4.1
5 0 12 42.4 8.2
5 0 12 29.5 8.4
5 0 13 -2.3 5.5
5 0 13 1 5.7
-5 1 13 28.1 9.2
-5 -1 13 23.6 8.8
-5 1 12 -6.5 5.6
-5 -1 12 -3.3 4.4
-5 1 11 15.5 7.5
-5 -1 11 9.2 6.3
-5 1 10 86.79 12.4
-5 -1 10 73.69 12
-5 1 9 212.18 16.5
-5 1 9 216.58 13.1
-5 -1 9 202.08 15.2
-5 1 8 55.09 5.6
-5 1 8 51.49 8.6
5 -1 -8 53.89 3.8
-5 -1 8 47.5 7.4
-5 1 7 198.98 13.7
-5 1 7 181.68 10.6
5 -1 -7 208.88 9.2
-5 -1 7 221.98 13.4
-5 1 6 28.4 4.2
-5 1 6 34.2 6.1
5 1 -6 41.9 7
-5 -1 6 29.1 5.1
5 -1 -6 29.7 3.3
-5 1 5 48.2 5
5 1 -5 63.29 7.5
-5 -1 5 49 6.3
5 -1 -5 56.59 4.6
-5 1 4 1.4 2.3
-5 1 4 -0.1 3
5 1 -4 -0.3 2.2
5 -1 -4 -4.3 1.9
-5 -1 4 -1.6 2.1
-5 1 3 54.69 4.6
5 1 -3 67.59 5.3
-5 1 3 52.99 5.6
5 -1 -3 54.19 4.8
-5 -1 3 60.99 4.8
5 1 -2 63.39 4.5
-5 1 2 65.79 5.9
5 1 -2 71.29 4.9
-5 -1 2 70.19 4.1
-5 -1 2 71.49 5.3
5 -1 -2 67.89 5.9
-5 1 1 8.7 2.5
5 1 -1 6.3 2.5
5 1 -1 7.4 2.7
-5 -1 1 7.5 2.3
-5 -1 1 7 2.5
5 1 0 80.69 4.7
5 1 0 59.69 5
-5 1 0 79.09 3.5
5 -1 0 70.09 3.7
-5 -1 0 62.99 4.7
-5 -1 0 80.39 4.5
5 1 1 251.77 11.4
5 1 1 250.97 12
-5 -1 -1 255.87 11.8
-5 -1 -1 243.18 11.5
5 1 2 -0.4 2.9
-5 -1 -2 0.6 2.5
5 1 3 59.49 5.6
5 -1 3 67.49 4.9
5 -1 3 66.69 4.4
-5 -1 -3 72.59 5.2
5 1 4 -1.4 2.7
5 -1 4 -3.1 1.8
-5 -1 -4 2.5 2.5
5 -1 4 2.2 2.5
5 1 5 140.69 10.1
-5 -1 -5 146.09 8.5
5 -1 5 154.48 9.8
5 -1 5 157.78 8.4
5 1 6 73.99 7.4
5 -1 6 72.99 7.2
5 -1 6 74.89 6
5 1 7 60.89 7.7
5 -1 7 51.89 7.6
-5 -1 -7 50.09 5
5 -1 7 60.79 6
5 1 8 45.9 7.4
5 1 8 61.09 9.2
-5 -1 -8 58.69 5.5
5 -1 8 57.09 6.9
5 -1 8 53.49 8.1
5 1 9 11 5.8
5 1 9 2.8 5.4
5 -1 9 15.5 5.5
-5 -1 -9 10.4 3.3
5 -1 9 15.2 4.8
5 1 10 81.49 10.5
5 1 10 57.99 9.9
5 -1 10 49.8 8.9
5 -1 10 69.09 8.9
5 1 11 96.29 13
5 1 11 127.09 12.4
5 -1 11 113.19 11.4
5 1 12 3.1 5.9
5 1 12 -4.9 4.4
5 -1 12 8.1 5.6
5 -1 12 -2.7 4.3
5 1 13 8.7 7.7
5 1 13 11 7.1
5 -1 13 5 7
5 -1 13 6 6
-5 -2 13 2.2 6.4
-5 2 12 3 6.1
-5 -2 12 6.1 6.1
-5 2 11 2.4 5.7
-5 -2 11 3.9 5.9
-5 2 10 -2.7 4.7
5 -2 -10 9.1 2.5
-5 -2 10 11.7 6.6
-5 2 9 70.89 8.7
-5 2 9 72.99 10.8
-5 -2 9 57.99 8.9
5 -2 -9 60.59 5.2
5 2 -8 -2.7 4
-5 2 8 -1.4 4.2
-5 2 8 -1.3 3.2
-5 -2 8 -0.5 4.1
5 -2 -8 0.3 2.5
5 2 -7 259.87 16
-5 2 7 227.18 13.3
-5 2 7 252.07 16.2
-5 -2 7 231.28 10.4
-5 -2 7 237.58 14
5 -2 -7 240.68 12.3
5 2 -6 50.99 7
-5 2 6 41 6.9
-5 2 6 42.5 6.1
-5 -2 6 39.2 3.7
-5 -2 6 40.1 2.7
-5 -2 6 43.6 6.1
5 -2 -6 51.49 5.9
5 2 -5 212.78 12.4
-5 2 5 189.58 13
-5 2 5 191.28 11.7
5 -2 -5 211.68 11.6
-5 -2 5 205.28 9.6
-5 -2 5 212.68 13.1
5 2 -4 877.71 35.5
-5 2 4 854.21 35.7
-5 -2 4 921.21 35
-5 -2 4 833.02 33.5
5 -2 -4 879.11 35.7
5 2 -3 3 2.2
5 2 -3 -2.7 1.9
-5 2 3 0.4 2.8
5 -2 -3 -1.9 2.7
-5 -2 3 -1.3 2
-5 -2 3 -1.5 2
5 2 -2 189.38 10.4
-5 2 2 204.18 11.2
5 2 -2 208.18 9.7
-5 -2 2 201.08 10.2
-5 -2 2 203.58 9.6
5 -2 -2 197.08 11.3
5 2 -1 271.97 13.9
5 2 -1 294.77 12.4
-5 -2 1 270.37 13.3
-5 -2 1 293.37 12.4
5 -2 -1 253.87 13.7
5 2 0 108.09 6.2
5 2 0 98.59 8.5
-5 -2 0 98.89 6.4
-5 -2 0 115.99 8.2
5 2 1 624.24 27.1
-5 2 -1 679.53 23.1
5 2 1 624.34 25.2
-5 -2 -1 618.24 26.4
5 -2 1 616.74 23.2
-5 -2 -1 594.14 25.5
5 2 2 1338.47 51.09
5 2 2 1243.78 51.99
-5 2 -2 1277.67 48.6
5 -2 2 1354.46 48.3
-5 -2 -2 1384.36 51.69
5 2 3 123.49 9.4
-5 -2 -3 128.59 8.6
5 -2 3 135.29 6.5
5 2 4 1394.26 56.59
-5 -2 -4 1409.06 55.19
5 -2 4 1435.66 53.49
5 2 5 56.29 7.7
5 -2 5 47.9 4.7
5 -2 5 53.69 5.3
-5 -2 -5 61.89 7.4
5 2 6 185.08 12.8
5 -2 6 184.98 9.6
-5 -2 -6 164.38 10.2
5 -2 6 177.48 10.8
5 2 7 29.4 6.3
5 -2 7 22.9 4.2
5 -2 7 19.3 4.8
-5 -2 -7 22.9 4.3
5 2 8 52.89 8.8
5 -2 8 47.2 7.2
-5 -2 -8 49.8 6.3
5 2 9 92.69 11.7
5 -2 9 90.59 9.8
-5 -2 -9 84.99 7.1
5 -2 9 88.89 8.3
5 2 10 -1.3 4.5
5 2 10 -6.8 4.1
5 -2 10 -0.3 4.6
-5 -2 -10 1.5 2.8
5 -2 10 5.5 4
5 2 11 7.9 5.9
5 2 11 -2.7 4.7
5 -2 11 14.8 6.2
5 -2 11 4.7 4.1
-5 -2 -11 8.5 3.4
5 2 12 37.9 9.5
5 2 12 41.5 11.6
5 -2 12 45.4 8.3
5 -2 12 31 8.1
5 2 13 60.09 12.2
5 -2 13 75.09 12.1
5 -2 13 50.19 10.1
-5 3 13 47.8 13.3
-5 -3 13 23 7.8
-5 3 12 -1.6 5.2
-5 -3 12 0.9 5.9
5 -3 -12 0.1 2.3
-5 3 11 -11.7 5
5 -3 -11 3 2.6
-5 -3 11 5.9 6.4
-5 3 10 37 8.6
-5 -3 10 19.8 8.8
5 -3 -10 34.4 5.1
-5 3 9 25.5 8
-5 3 9 15.8 6.7
5 3 -9 10.9 5.6
-5 -3 9 25.2 4.1
-5 -3 9 22.5 6.7
5 -3 -9 26.1 4.8
-5 3 8 113.69 12.2
-5 3 8 107.89 10
5 3 -8 121.39 11.9
-5 -3 8 122.19 10.6
-5 -3 8 118.29 8.7
5 -3 -8 130.59 9.2
-5 -3 8 111.19 6
5 3 -7 417.16 21.8
-5 3 7 374.26 20.4
-5 3 7 388.66 22.7
-5 -3 7 390.36 17.6
-5 -3 7 408.66 20.3
-5 3 6 -0.3 3.5
5 3 -6 1.7 3.6
5 -3 -6 5 3.9
-5 -3 6 1.5 2.6
-5 -3 6 -0.1 2.8
5 3 -5 262.77 14.2
-5 3 5 268.17 15.5
5 -3 -5 271.47 15.2
-5 -3 5 259.97 13.1
-5 -3 5 245.38 13.6
-5 3 4 539.45 25.9
5 3 -4 550.94 24
-5 -3 4 564.54 23.6
-5 -3 4 529.05 23.7
5 -3 -4 578.44 26
-5 3 3 322.97 16.9
5 3 -3 306.77 15.5
5 3 -3 319.17 14.6
-5 -3 3 290.77 15.2
-5 -3 3 311.07 14.4
5 -3 -3 317.17 17
-5 3 2 4 3.6
5 3 -2 2.6 3.4
5 3 -2 1.1 2.2
-5 -3 2 1.9 2.2
-5 -3 2 0.7 2.9
5 -3 -2 3.3 3.8
5 3 -1 153.78 10.5
5 3 -1 156.38 8.2
-5 -3 1 163.48 10.2
5 -3 -1 155.48 10.7
-5 -3 1 160.88 8.4
-5 3 0 7.6 2.2
5 3 0 6.3 4.3
5 3 0 7.4 2.7
5 -3 0 3.9 3.4
-5 -3 0 7.1 3.7
-5 -3 0 9.9 3.2
5 3 1 40 4.9
-5 3 -1 29.6 2.6
5 3 1 26.7 5.4
5 -3 1 33.6 3.1
-5 -3 -1 27.2 4.5
-5 -3 -1 25.2 5.2
5 3 2 598.14 28.3
-5 3 -2 609.94 23.3
5 3 2 622.84 26.4
-5 -3 -2 586.94 27.3
5 -3 2 647.14 23.3
5 3 3 109.69 10.4
-5 3 -3 110.09 6.1
5 -3 3 103.69 5.6
5 3 4 289.17 17.4
-5 3 -4 272.97 13.4
5 -3 4 289.07 12.6
-5 -3 -4 298.17 15.9
5 3 5 7.9 5
-5 3 -5 6.7 3
5 -3 5 4.3 2.3
-5 -3 -5 -0.6 3
5 3 6 48.5 8.3
-5 -3 -6 55.29 7.1
5 -3 6 47.6 5.6
5 3 7 4 4.7
5 -3 7 14.9 4.2
-5 -3 -7 11.9 4.3
5 3 8 44.1 8.6
5 -3 8 36.8 6.4
-5 -3 -8 43.6 6.6
5 -3 8 42.4 5.8
5 3 9 12.2 6.7
5 -3 9 8 4.9
5 -3 9 19.4 4.7
-5 -3 -9 8.5 3.8
5 3 10 5.1 6.2
5 -3 10 3.7 4
-5 -3 -10 2.6 3.4
5 -3 10 2.8 4.6
5 3 11 65.79 12.3
5 3 11 42.7 12.9
5 -3 11 50.39 8.5
-5 -3 -11 54.69 7.7
5 -3 11 57.19 8
5 3 12 26 9.7
5 3 12 24.1 9.5
5 -3 12 28.2 7.4
-5 -3 -12 42.2 6.4
5 -3 12 36.8 7.5
-5 4 12 0.8 6.1
5 -4 -12 3.6 3.6
-5 -4 12 0.1 6
-5 4 11 0.3 6.3
5 -4 -11 3.2 3.6
-5 -4 11 3.6 5.5
-5 4 10 8.7 6.8
5 -4 -10 18.2 5.1
-5 -4 10 12.5 7.3
-5 4 9 -4 5.2
-5 4 9 5.1 5.9
5 4 -9 -4.3 4.9
5 -4 -9 3.4 4
-5 -4 9 1.4 2.3
-5 -4 9 1.2 4.3
-5 4 8 68.59 10.4
-5 4 8 65.39 11.3
5 -4 -8 64.49 8.8
-5 -4 8 60.69 8.3
-5 -4 8 58.19 7.1
5 4 -7 411.46 22.2
-5 4 7 410.06 22.5
-5 -4 7 396.36 20.7
-5 -4 7 399.96 19.5
5 -4 -7 398.16 22.6
-5 4 6 40.1 7.4
5 4 -6 40.8 6.4
-5 -4 6 33.9 5.8
-5 -4 6 52.49 6.8
5 -4 -6 46.7 7.8
5 4 -5 78.29 7.1
-5 4 5 54.59 11.4
-5 -4 5 65.39 7.1
-5 -4 5 87.49 7.2
5 -4 -5 73.19 8.9
-5 4 4 38.4 7.4
5 4 -4 39.6 5.2
5 -4 -4 47.6 7.7
-5 -4 4 44.8 6.3
5 4 -3 414.86 20.8
-5 4 3 423.26 22.3
5 4 -3 393.36 18.8
-5 -4 3 410.76 20.8
5 -4 -3 408.56 22.3
-5 -4 3 453.25 18.8
5 4 -2 477.25 23.9
5 4 -2 512.85 22.9
-5 4 2 492.85 24.7
-5 -4 2 482.15 21.2
-5 -4 2 500.45 24
5 -4 -2 484.75 25.1
5 4 -1 590.04 24.8
5 4 -1 613.74 28.8
-5 -4 1 613.64 25.4
-5 -4 1 573.54 27.9
5 -4 -1 640.94 31.9
5 4 0 1.7 2.9
-5 4 0 4.6 2.6
5 4 0 4.3 4.8
5 -4 0 4.6 4.9
-5 -4 0 6.4 4.9
-5 -4 0 3.5 3.2
5 4 1 169.58 13.2
-5 4 -1 162.78 7.8
5 4 1 153.78 11.3
-5 -4 -1 160.78 11
-5 -4 -1 166.88 11.9
5 -4 1 145.69 12.2
5 4 2 12.7 4
-5 4 -2 13.7 2.4
5 4 2 14.7 6
5 -4 2 14.6 2.7
-5 -4 -2 11.7 5.3
5 -4 2 12.6 5.4
5 4 3 4.6 5.4
-5 4 -3 15.8 2.7
5 4 3 24.1 5.3
5 -4 3 17.6 2.7
-5 -4 -3 23.6 6.3
5 4 4 41.8 8.3
-5 4 -4 38.7 4.4
-5 -4 -4 41.1 7.4
5 -4 4 39.2 4
-5 4 -5 215.78 11.7
5 4 5 219.08 16
5 -4 5 198.88 10.5
-5 -4 -5 203.48 13.9
-5 4 -6 -1.4 3.2
5 4 6 -1.9 4.9
5 -4 6 2.4 2.8
-5 -4 -6 -5.5 3.2
5 4 7 20.8 7.4
-5 -4 -7 23.2 5.6
5 -4 7 21.4 4.6
5 4 8 27.4 8.3
5 -4 8 21.7 4.8
-5 -4 -8 19.5 6.1
5 -4 8 28.7 5.4
5 4 9 8 6.6
5 -4 9 19.7 5.4
5 -4 9 22.4 5
-5 -4 -9 13.8 6
5 4 10 38.2 9.4
5 -4 10 53.29 7.1
5 -4 10 60.09 8.7
-5 -4 -10 51.69 8
5 4 11 -2.3 7
5 -4 11 7.3 5.1
-5 -4 -11 -8.1 3.6
5 -4 11 -6.5 3.7
5 4 12 26.7 8.9
5 -4 12 21.9 5.8
5 -4 12 16.8 6.9
-5 5 12 2.1 7.9
5 -5 -12 -0.3 5.3
-5 -5 12 6 6.7
-5 5 11 17.2 10
-5 -5 11 31.7 8.2
5 -5 -11 19.8 7.7
-5 5 10 -1.1 5.9
-5 -5 10 6.8 5.3
-5 -5 10 -1.4 2.5
5 -5 -10 6.2 4.7
5 5 -9 14.7 8
-5 5 9 38.5 10.4
5 -5 -9 21.1 6.6
-5 -5 9 39 7.8
-5 5 8 -1.1 5.3
5 5 -8 5.4 5.2
-5 -5 8 3 4.6
5 -5 -8 -10.7 3.9
-5 5 7 8.5 6
5 5 -7 5.8 4.8
-5 -5 7 13.2 5.1
5 -5 -7 4.1 5.8
-5 5 6 198.58 15.8
5 5 -6 175.88 12.4
5 -5 -6 181.78 15
-5 -5 6 203.98 12.7
-5 -5 6 195.98 14.1
-5 5 5 133.09 12.4
5 5 -5 115.59 8.9
-5 -5 5 98.99 9.6
5 -5 -5 121.89 11.9
-5 -5 5 111.89 8.8
5 5 -4 43.4 5.9
-5 5 4 37.3 8
5 -5 -4 44 8.2
-5 -5 4 42.1 7
-5 -5 4 33.6 5.5
5 5 -3 18.7 4
-5 5 3 14.7 6.4
5 5 -3 26 6.3
-5 -5 3 15.3 5.5
-5 -5 3 16 4.5
5 -5 -3 21.3 6.3
5 5 -2 133.69 12.1
5 5 -2 143.99 8.9
-5 5 2 128.69 12.4
5 -5 -2 147.99 12.6
-5 -5 2 148.19 12
-5 5 1 41.9 5.5
5 5 -1 26.3 4.3
5 -5 -1 28.8 7.5
-5 -5 1 38.2 7.2
-5 -5 1 34.9 7.1
-5 5 0 42.4 4.9
5 5 0 51.99 6
5 5 0 40.8 8.4
5 -5 0 36.8 8
-5 -5 0 24 6.7
5 5 1 29.9 7.8
5 5 1 39.6 5.3
-5 5 -1 35 4.1
-5 -5 -1 31.9 6.1
5 -5 1 28.5 6.7
-5 -5 -1 39 8
5 5 2 13.2 4.3
-5 5 -2 9.1 2.4
5 5 2 11.8 6.2
-5 -5 -2 0.2 4.8
5 -5 2 18.8 6.2
5 -5 2 12.9 3.3
-5 5 -3 174.48 9
5 5 3 173.48 12.2
5 5 3 202.98 15.4
5 -5 3 190.28 14
-5 -5 -3 163.98 13.5
5 -5 3 177.98 9.2
5 5 4 318.77 18
5 5 4 337.87 21.9
-5 5 -4 341.97 15.1
-5 -5 -4 327.87 19.8
5 -5 4 303.97 19.6
5 -5 4 338.17 14.7
5 5 5 94.89 12.8
-5 5 -5 77.49 6.9
5 5 5 77.69 9
-5 -5 -5 86.79 9.8
5 -5 5 75.79 10.9
5 -5 5 80.39 6.2
5 5 6 45.4 10
-5 5 -6 40.5 6.3
5 -5 6 47.9 5.7
-5 -5 -6 51.19 8.3
-5 5 -7 44.9 7.4
5 5 7 45.6 10.3
-5 -5 -7 41.1 7.6
5 -5 7 47.8 6
5 5 8 -0.6 5.8
5 -5 8 1.7 4.2
-5 -5 -8 2.3 4.5
5 5 9 16.6 7.8
5 -5 9 14.8 4.6
-5 -5 -9 11.4 5.3
5 -5 9 24.9 5.8
5 5 10 1.5 6.2
5 -5 10 4.4 3.8
5 -5 10 3.6 4.6
5 5 11 56.99 12.9
5 -5 11 71.19 9.6
5 -5 11 51.89 7.6
5 5 12 15.3 9.8
5 -5 12 3.3 5
5 -5 12 6.7 5.8
-5 6 11 41.4 12.6
-5 -6 11 31.9 8.3
-5 -6 11 29.9 4.8
5 -6 -11 36.7 11.1
-5 6 10 16.1 9.2
-5 6 10 -2.1 8.1
-5 -6 10 -0.1 4
5 -6 -10 -4.4 4.8
-5 -6 10 10.1 6.5
-5 6 9 15.8 8.9
5 -6 -9 16.5 7.5
-5 -6 9 15.2 6
5 6 -8 14.5 5.7
-5 6 8 11.3 7.9
5 -6 -8 2.2 6.4
-5 -6 8 7.7 5.3
-5 -6 7 11.1 6.1
5 -6 -7 0.9 7
-5 -6 7 -6.3 3.6
5 6 -6 246.88 15.3
-5 6 6 242.68 18.6
-5 -6 6 239.48 14.5
-5 -6 6 244.98 17.5
5 -6 -6 162.28 18.9
5 6 -5 -3.1 2.8
-5 6 5 7.7 6.7
-5 -6 5 -6 4.2
-5 -6 5 1.8 3.9
5 -6 -5 9.9 6.7
-5 6 4 68.99 10.9
5 6 -4 72.79 7.3
5 -6 -4 83.29 11.8
-5 -6 4 78.29 9.5
-5 -6 4 71.09 8.1
-5 6 3 86.09 10.8
5 6 -3 77.19 7.3
5 6 -3 89.69 10.5
5 -6 -3 115.39 12.4
-5 -6 3 102.29 10.8
-5 -6 3 79.89 7.9
5 6 -2 17.3 6.8
-5 6 2 13.8 6.7
5 6 -2 19.8 4.5
-5 6 2 14.9 4.8
-5 -6 2 28.8 5.6
5 -6 -2 27.2 8
-5 -6 2 25.3 7.3
5 6 -1 27.1 7.5
-5 6 1 28.5 5.2
5 6 -1 33.3 5
-5 -6 1 33.9 6.2
5 -6 -1 30.8 7.9
-5 -6 1 39.8 8.1
5 6 0 103.79 8.2
-5 6 0 104.89 8
5 6 0 126.49 13.2
-5 -6 0 123.89 12
5 -6 0 101.09 11.7
-5 -6 0 109.89 10
5 6 1 152.18 10.6
5 6 1 167.18 15.5
-5 6 -1 146.09 8.8
5 -6 1 152.18 14.1
-5 -6 -1 172.48 14.1
5 6 2 35.5 8.7
-5 6 -2 41.2 4.6
5 6 2 39.5 6.6
5 -6 2 41 8.2
-5 -6 -2 30.1 7.4
5 -6 2 38.7 5.3
5 6 3 3.7 4.4
-5 6 -3 -3.3 2.1
5 6 3 3.7 6.6
5 -6 3 1 5.7
5 -6 3 3.7 2.9
-5 -6 -3 8.6 5.6
5 6 4 527.65 27.7
-5 6 -4 498.65 23.2
5 6 4 601.44 32.4
5 -6 4 548.15 30.2
5 -6 4 579.74 23.8
-5 -6 -4 561.24 30.2
5 6 5 31.6 7.4
5 6 5 36.9 9.4
-5 6 -5 45.4 6.4
5 -6 5 46.6 5.6
5 -6 5 45.6 10
-5 -6 -5 54.29 14.4
5 6 6 276.97 22.3
-5 6 -6 293.87 16
5 6 6 270.47 18.4
5 -6 6 203.58 21.3
-5 -6 -6 246.98 18.5
-5 6 -7 12.3 5.7
5 6 7 8 7.7
5 -6 7 10.7 8.1
5 -6 7 13.6 4.2
-5 -6 -7 16.8 6.1
-5 6 -8 57.09 10.5
5 6 8 43.1 12.3
5 -6 8 59.69 12.1
5 -6 8 57.39 7.3
5 -6 9 0.1 3.9
5 6 10 -0.2 7.6
5 -6 10 -3.4 3.8
5 -6 10 6.9 4.9
5 6 11 23 12.5
5 -6 11 24.2 5.8
5 -6 11 29.5 7.1
-5 7 11 4.7 7.6
-5 -7 11 2.3 4.2
-5 -7 11 -1.4 6.1
-5 -7 10 6.1 6
-5 -7 9 92.99 10.9
-5 7 8 91.79 19.3
-5 -7 8 94.29 10.5
5 7 -7 77.79 9.1
-5 7 7 84.39 18.2
5 -7 -7 50.79 12.5
-5 -7 7 64.79 14.7
-5 -7 7 50.49 8.4
-5 7 6 11.7 8
-5 -7 6 8.8 5.3
-5 -7 6 27.5 7.5
5 -7 -6 7.6 7.7
5 7 -5 71.49 8.7
-5 -7 5 58.79 8
5 -7 -5 85.89 13.6
-5 -7 5 47.8 9.2
-5 7 4 147.69 15.7
-5 7 4 121.79 12.3
5 7 -4 119.69 9.9
5 -7 -4 134.09 13.9
-5 -7 4 128.69 13.2
-5 -7 4 109.99 10.2
5 7 -3 -1.5 6.4
-5 7 3 8 7.5
-5 7 3 7.4 4.4
5 7 -3 3.2 3.5
-5 -7 3 9.8 6.1
-5 -7 3 1 4.4
-5 7 2 4.9 4.3
5 7 -2 4.5 6.3
-5 7 2 2.4 6
5 7 -2 8.2 3.9
-5 -7 2 9.4 6.2
5 -7 -2 15.1 7.9
-5 -7 2 10 4.7
-5 7 1 9.4 4.1
5 7 -1 11.9 4.2
5 7 -1 11.4 7.4
-5 -7 1 6.7 5
-5 -7 1 25.1 7.4
5 -7 -1 6.7 6.6
5 7 0 2.1 6.4
-5 7 0 -0.8 3.1
5 7 0 2.8 3.9
-5 -7 0 20.5 7.2
-5 -7 0 3 4.8
5 -7 0 4.4 6.3
-5 7 -1 21.2 4.3
5 7 1 23.5 5.5
5 7 1 24.4 8.5
5 -7 1 28.9 8.9
-5 -7 -1 28.3 8.2
5 7 2 22.2 9.4
5 7 2 36.4 6.6
-5 7 -2 28.3 4.5
5 -7 2 46.6 10.2
-5 7 -3 35.5 4.8
5 7 3 25.1 10
5 -7 3 43.4 6.4
5 -7 3 43.3 9.9
-5 -7 -3 28.6 9.1
-5 7 -4 9.5 3.4
5 7 4 11 6
5 7 4 6.2 7.6
5 -7 4 8 4.1
-5 -7 -4 2.7 7.1
5 -7 4 -5.4 6.1
5 7 5 152.38 17.9
5 7 5 161.08 13.4
-5 7 -5 132.69 9.6
-5 -7 -5 124.69 14.6
5 7 6 289.37 25.1
-5 7 -6 297.97 16.9
5 -7 6 329.17 24
5 -7 6 273.07 15.7
-5 7 -7 42.2 7.8
5 -7 7 37.9 6
5 -7 7 32.3 14.1
5 7 8 0.3 7.5
-5 7 -8 18.5 7.1
5 -7 8 -0.8 4
5 -7 8 -11.2 7.1
5 7 9 12.1 9.1
5 -7 9 7.4 4.6
5 -7 9 20 10.7
5 7 10 15 10
5 -7 10 11.2 5.2
-5 -8 10 34.3 8.3
-5 -8 9 14.1 6.8
-5 8 8 13.5 8.8
-5 -8 8 3 5.7
-5 8 7 126.99 17.3
-5 -8 7 75.39 10.1
5 8 -6 18.9 5.3
-5 8 6 5.2 9.2
-5 -8 6 16.7 5.9
-5 8 5 123.19 17.4
5 8 -5 88.99 9.5
-5 -8 5 91.69 13.8
-5 -8 5 77.69 10
-5 8 4 48.4 11.9
-5 8 4 45.9 8.8
-5 -8 4 24.9 6.4
-5 -8 4 42.7 9.4
5 8 -3 42.8 7
-5 8 3 41.3 10.8
-5 8 3 41 7.9
-5 -8 3 33.7 9.4
5 -8 -3 38.1 11.1
-5 -8 3 41.6 7.7
5 8 -2 31.8 6.5
-5 8 2 8.1 5.4
5 8 -2 30.4 9.5
-5 -8 2 19.4 7
-5 -8 2 29.6 9.2
5 -8 -2 25 10.2
5 8 -1 -2.6 3.6
5 8 -1 -2.2 7.2
-5 8 1 -1.8 4
-5 -8 1 6.4 6
5 -8 -1 -7.1 7.2
-5 -8 1 -2.8 7.1
-5 8 0 -1.3 3.6
5 8 0 6.1 8.1
5 8 0 2.6 4.5
-5 -8 0 4.5 7
5 -8 0 -0.3 6.6
-5 -8 0 8.5 6
5 8 1 5.5 8.4
-5 8 -1 2.6 3.5
5 8 1 4.4 4.5
-5 -8 -1 14.7 6.9
5 -8 1 7.8 8.1
5 8 2 1.7 8.4
5 8 2 8.4 5
-5 8 -2 9.4 3.9
-5 -8 -2 12.3 7.4
5 -8 2 11.4 7.4
5 8 3 -4.5 3.7
5 8 3 13.3 10.1
-5 8 -3 1.4 3.2
5 -8 3 5.1 5.2
5 -8 3 8.9 9.1
5 8 4 346.17 36.5
-5 8 -4 278.77 15
5 -8 4 253.57 17
5 -8 4 278.37 25.3
5 8 5 92.69 15.3
-5 8 -5 87.99 8.6
5 -8 5 86.89 16.5
5 -8 5 92.69 10
5 8 6 -3.2 9.1
-5 8 -6 8.8 4.2
5 -8 6 -1.2 3.9
5 8 7 31.4 12.2
-5 8 -7 12.6 6
5 -8 7 11.4 4.9
5 8 8 65.49 17.1
5 -8 8 53.19 8.2
5 8 9 38 13.2
5 -8 9 44.4 7.8
5 -8 10 10.2 6
-5 -9 9 2.5 6
-5 9 8 8 9.6
-5 -9 8 -7.9 4.9
-5 9 7 77.39 16.9
-5 -9 7 70.19 10.7
-5 9 6 -8.5 8.2
-5 -9 6 6.5 5.6
-5 9 5 44.9 13.5
5 9 -5 41.5 8.7
-5 -9 5 52.89 8.6
5 9 -4 -1.2 4.1
-5 9 4 25.5 11.6
-5 -9 4 5.1 5.5
-5 9 3 50.79 8.3
5 9 -3 43.2 7.3
-5 -9 3 61.59 10.4
-5 9 2 4 6
5 9 -2 23.2 9.8
5 9 -2 13.1 5.5
-5 -9 2 10 6.7
5 9 -1 84.49 10
-5 9 1 100.69 9.8
5 9 -1 73.49 18.7
-5 -9 1 99.79 13.2
-5 9 0 10.8 4.6
5 9 0 1 14.1
5 9 0 1.4 5
-5 9 -1 2.3 4.2
5 9 1 19.4 10.8
5 9 1 9.4 5.5
-5 9 -2 11.9 4.5
5 9 2 14.3 8.8
5 9 3 62.09 15.6
-5 9 -3 67.79 7.4
5 9 4 2.4 9.4
-5 9 -4 -1 3.3
5 -9 4 2.6 5.5
-5 9 -5 -3.1 3.4
5 9 5 3.9 8.4
5 -9 5 13.3 5.8
-5 9 -6 30.3 7.4
5 9 6 26.3 14.6
5 -9 6 34 8.6
-5 9 -7 49.8 8.8
5 9 7 52.99 16.5
5 -9 7 46.8 9.4
5 9 8 -7.9 10.6
5 -9 8 -4.1 4.6
-5 -10 7 7.7 6.5
-5 -10 6 1.9 6.1
-5 -10 5 -0.6 5.6
-5 -10 4 34.9 11.7
-5 10 2 8.8 6.2
5 10 -1 57.09 14.8
-5 10 1 58.59 8.5
-5 10 0 38.6 8.1
5 10 0 68.89 14.1
5 10 1 52.89 17.8
-5 10 -1 51.89 7.4
5 10 2 -8.1 11.5
-5 10 -2 13.7 4.7
5 10 3 122.39 23
-5 10 -3 115.29 10.4
5 10 4 83.89 23.7
-5 10 -4 72.19 9.1
5 10 5 -8.8 9.6
-5 10 -5 0.3 4.7
-5 10 -6 17.8 7.4
5 10 6 4.2 11.5
5 -10 6 8.6 6.9
5 10 7 28.7 15.3
-5 -11 5 -5.7 6.9
-5 -11 4 8.7 7.9
-5 -11 3 64.69 13.7
5 11 -1 31 14.7
5 11 0 44.6 16.5
-5 11 0 65.39 9.5
5 11 1 -11.7 12
-5 11 -1 3.3 5.3
-5 11 -2 13 5.3
5 11 2 18.8 15.3
-5 11 -3 17.9 5.4
5 11 3 23.2 15.4
5 11 4 12.2 12.5
-5 11 -4 11.6 5.3
-5 11 -5 -9 5.5
5 12 2 39.2 17.4
-6 0 13 3.6 6.4
-6 0 12 2.6 5.5
-6 0 11 8.9 6
-6 0 10 20.9 8.5
-6 0 9 -0.4 5
-6 0 8 10.1 5.4
-6 0 7 -2.3 3.5
-6 0 6 19.9 4.7
-6 0 5 3.1 3.7
6 0 -5 -2.8 3
-6 0 4 545.65 23.1
6 0 -4 498.35 23.2
-6 0 3 0.8 2.1
6 0 -3 -3 1.9
6 0 -1 -0.1 1.4
-6 0 1 0.2 1.9
6 0 -1 3.4 1.9
-6 0 0 201.68 8.5
6 0 0 204.88 8.8
6 0 0 211.58 8.6
-6 0 0 211.48 8.8
-6 0 -1 2 1.9
6 0 1 2.8 1.9
-6 0 -1 3.3 2.3
6 0 1 3.8 2.1
-6 0 -2 1280.87 47.8
6 0 2 1275.27 48.1
-6 0 -3 -2.1 1.4
6 0 3 -0.5 1.9
6 0 4 200.48 10.4
-6 0 -4 195.88 9.5
6 0 5 -0.1 2.9
-6 0 -5 0.2 2
6 0 6 366.66 17.5
6 0 7 1.6 3.2
6 0 7 -1.6 3.2
6 0 8 131.29 11.5
6 0 8 111.49 9.4
6 0 9 -2.3 3.9
6 0 9 8.4 5.6
6 0 10 80.59 11.6
6 0 10 83.19 9.8
6 0 11 1.1 5.2
6 0 11 -1.3 5.2
6 0 12 286.17 20.6
6 0 12 244.78 19.4
6 0 13 -1 6.1
6 0 13 -5.3 4.9
-6 1 13 78.59 14
-6 -1 13 61.79 11.4
-6 1 12 9 6.9
-6 -1 12 -2.8 5.2
-6 1 11 8.9 6.9
-6 -1 11 5.9 6.7
-6 1 10 104.89 13.3
-6 1 9 0.8 4.5
-6 1 9 6.1 3.8
-6 -1 9 1 4.7
-6 1 8 46.3 5.3
-6 1 8 35.8 7.2
-6 -1 8 49.4 7.5
6 -1 -8 43.7 3.3
-6 1 7 154.78 12.3
6 1 -7 173.08 13
-6 1 7 153.58 8.8
-6 -1 7 173.58 11.5
6 -1 -7 154.98 7.5
-6 1 6 321.47 17.4
-6 1 6 304.57 14.2
6 1 -6 311.47 17.4
6 -1 -6 308.37 13.3
-6 -1 6 328.97 16.7
-6 1 5 322.27 14.7
6 1 -5 345.17 17.5
-6 1 5 362.86 19.8
6 -1 -5 333.37 14.4
-6 -1 5 311.47 19.3
6 1 -4 73.59 6.4
-6 1 4 66.39 6.6
6 -1 -4 82.69 5.6
-6 -1 4 85.89 6.4
6 1 -3 912.51 35.5
-6 1 3 874.81 35.9
6 1 -3 872.51 33.1
6 -1 -3 914.51 35
-6 -1 3 920.21 35.2
6 1 -2 3028.1 111.29
-6 1 2 3122.39 112.59
6 1 -2 3088.89 112.09
-6 -1 2 3049.5 110.79
-6 -1 2 3047.09 111.89
6 -1 -2 3043.5 112.29
6 -1 -2 3001.8 112.79
-6 1 1 62.39 4.9
6 1 -1 62.89 5.2
6 1 -1 64.89 4.7
6 -1 -1 54.99 5
-6 -1 1 66.49 4.7
-6 -1 1 63.99 4.8
6 1 0 578.94 21.8
6 1 0 571.64 22.7
-6 1 0 559.54 20.9
-6 -1 0 570.24 21.9
-6 -1 0 565.94 22.4
6 -1 0 527.85 21.1
6 1 1 57.09 4.9
6 1 1 58.49 5.6
-6 -1 -1 71.29 5.9
6 -1 1 57.29 2.7
-6 -1 -1 62.39 5.7
6 1 2 284.27 13.4
6 1 2 281.37 13.8
-6 -1 -2 304.87 13.3
6 1 3 2 2.8
-6 -1 -3 4 2.3
6 -1 3 3.4 2
6 1 4 820.52 32.9
6 -1 4 771.42 31.8
-6 -1 -4 787.02 31.5
6 -1 4 783.02 30.9
6 1 5 230.48 13.5
6 -1 5 254.97 11.9
-6 -1 -5 245.48 12.2
6 -1 5 232.88 13
6 1 6 1.8 3.5
6 -1 6 -0.6 2.5
6 -1 6 2 3
-6 -1 -6 -3.5 2
6 1 7 49.7 8.4
6 -1 7 36.1 6.2
6 -1 7 45.8 5.8
-6 -1 -7 34.2 4.3
6 1 8 22.1 6
-6 -1 -8 23.5 4.3
6 -1 8 26.2 5.6
6 -1 8 19.1 6.2
6 1 9 0.1 4.9
6 1 9 0.8 4.5
-6 -1 -9 2.1 3
6 -1 9 10.2 5.6
6 -1 9 10 4.5
6 1 10 80.29 10.9
6 1 10 63.49 10.4
6 -1 10 83.79 8.8
6 -1 10 73.49 10.3
6 1 11 9.6 5.3
6 1 11 12.8 7.1
6 -1 11 7.8 4.5
6 1 12 22.7 7.6
6 1 12 36.1 10
6 -1 12 26.2 7.4
6 -1 12 17.7 6.9
6 1 13 7.2 6.3
6 1 13 -5.8 6.6
6 -1 13 2 5.6
6 -1 13 4.8 6.5
-6 2 13 42.9 14.4
-6 -2 13 69.99 11.7
-6 2 12 25.8 9.2
-6 -2 12 23.6 7.9
-6 2 11 -7.6 5
-6 -2 11 5.7 5.5
-6 2 10 16.6 6.3
6 -2 -10 11.8 2.6
-6 2 9 1.9 4.9
-6 -2 9 2.9 5
6 -2 -9 -0.7 2.1
6 2 -8 21.4 5.8
-6 2 8 4.1 5
-6 2 8 0.2 3.3
6 -2 -8 1.9 2.4
-6 -2 8 -2.4 4.1
-6 2 7 -3.3 3
6 2 -7 -3.3 3.4
-6 2 7 10.4 5.1
-6 -2 7 3.7 3.9
6 -2 -7 1.3 2.5
-6 2 6 6 3.9
-6 2 6 8.3 3.7
6 2 -6 4 3.8
6 -2 -6 10.5 3.5
-6 -2 6 12.4 3.7
-6 2 5 3.7 3.6
6 2 -5 4.6 3.6
-6 2 5 2.5 3.3
6 -2 -5 0.3 3.1
-6 -2 5 -2.2 2.9
-6 -2 5 1 1.8
-6 2 4 335.77 16.3
-6 2 4 334.67 17.2
6 2 -4 329.17 20.1
-6 -2 4 346.17 15.6
-6 -2 4 311.97 13.9
6 -2 -4 333.67 16.3
6 2 -3 334.27 15.2
6 2 -3 377.16 16
-6 2 3 352.56 16.7
-6 -2 3 338.57 15
-6 -2 3 366.76 15.7
6 -2 -3 352.76 17
6 2 -2 150.98 8
6 2 -2 139.39 8.4
6 -2 -2 155.38 9.5
-6 -2 2 147.09 8.2
-6 -2 2 144.89 7.7
6 2 -1 -0.9 3.1
6 2 -1 6.7 2.3
-6 -2 1 0.9 2.1
-6 -2 1 -6 2.4
6 2 0 391.36 16.4
6 2 0 399.26 18.5
-6 -2 0 397.56 18
-6 -2 0 402.46 16.8
6 2 1 40.4 4.8
6 2 1 36.3 5.5
-6 -2 -1 45.2 5.2
-6 -2 -1 39.9 5.3
6 2 2 32.9 4.6
6 2 2 37 5.6
6 -2 2 29.8 2.1
-6 -2 -2 36.1 4.7
6 2 3 305.97 16.2
-6 -2 -3 301.57 15.2
6 -2 3 310.77 12.7
6 2 4 4898.81 186.88
6 -2 4 5174.98 183.58
-6 -2 -4 5026.7 185.48
6 2 5 121.59 10.4
6 -2 5 138.39 8.6
-6 -2 -5 136.39 9
6 -2 5 140.79 8.1
6 2 6 126.79 12.1
6 -2 6 136.59 9.2
-6 -2 -6 142.19 9.1
6 -2 6 132.29 8.2
6 2 7 8.5 4.7
6 -2 7 10.8 3.7
6 -2 7 5.2 3.6
-6 -2 -7 2.4 3
6 2 8 14.2 5.5
6 -2 8 0.2 4
6 -2 8 11.7 4
-6 -2 -8 6 3.6
6 2 9 58.09 9.8
6 -2 9 56.19 8.1
6 -2 9 65.79 7.8
-6 -2 -9 47.6 5.8
6 2 10 15.4 6.7
6 2 10 31.6 8.1
6 -2 10 23.1 6.3
-6 -2 -10 17.9 4.4
6 -2 10 22.2 5.7
6 2 11 84.99 12.9
6 2 11 89.39 13.3
6 -2 11 62.69 9.9
-6 -2 -11 76.69 7.3
6 -2 11 85.09 9.3
6 2 12 8.2 6.7
6 2 12 2.4 7.4
6 -2 12 21.4 6.3
6 -2 12 10.9 6
6 2 13 88.09 15.9
6 2 13 89.99 14.9
6 -2 13 64.59 11.9
6 -2 13 57.69 10.5
-6 3 13 91.59 14.7
-6 -3 13 100.29 14.1
-6 3 12 3.3 5.9
-6 -3 12 4.6 6
6 -3 -12 3.8 2.1
-6 3 11 -2.7 6
6 -3 -11 5.2 2.7
-6 -3 11 10.4 5.8
-6 3 10 2 4.9
6 -3 -10 -1.9 2.6
-6 3 9 -5.4 7.6
-6 3 9 3.6 5.4
6 3 -9 9.4 6
-6 -3 9 -1.7 4.4
6 -3 -9 0 3.2
-6 3 8 62.89 8.3
-6 3 8 59.79 9.3
6 3 -8 54.49 10.5
-6 -3 8 58.69 5
6 -3 -8 59.79 7.3
-6 -3 8 60.39 7.9
-6 -3 8 54.29 3.7
6 3 -7 2.4 4
-6 3 7 2.1 4
-6 3 7 6.1 5.2
-6 -3 7 0.8 3.9
-6 -3 7 4.1 2.4
-6 3 6 123.69 10.3
6 3 -6 152.28 10.8
-6 3 6 145.49 12
6 -3 -6 143.69 10.6
-6 -3 6 139.49 9.6
-6 -3 6 139.79 8.2
-6 3 5 525.55 25.7
6 3 -5 588.14 25.2
-6 -3 5 567.64 24.4
6 -3 -5 546.65 26
-6 -3 5 543.75 23.4
6 3 -4 103.09 7.5
-6 3 4 99.89 8.8
6 -3 -4 78.99 8.4
-6 -3 4 96.19 7.4
-6 -3 4 100.99 7.4
6 3 -3 127.39 8.8
-6 3 3 153.28 10.8
6 3 -3 151.18 9.6
6 -3 -3 137.59 10.7
-6 -3 3 134.19 9.2
-6 -3 3 146.69 8.7
6 3 -2 60.79 5.2
6 3 -2 51.69 6.2
6 -3 -2 52.59 7
-6 -3 2 50.09 4.9
-6 -3 2 48.1 5.7
6 3 -1 247.28 14.1
6 3 -1 265.07 11.9
-6 -3 1 258.77 12
-6 -3 1 236.78 13.4
6 -3 -1 237.68 14
-6 3 0 2.2 1.9
6 3 0 3.8 2.5
6 3 0 2.2 4
6 -3 0 9.1 4.3
-6 -3 0 2.7 2.8
-6 -3 0 4.2 3.6
-6 3 -1 157.18 6.6
6 3 1 150.98 8.6
6 3 1 145.89 11.1
-6 -3 -1 146.99 9.2
-6 -3 -1 153.88 10.5
6 3 2 108.39 7.8
6 3 2 94.99 9.1
-6 3 -2 98.89 4.9
-6 -3 -2 100.29 8.7
6 -3 2 112.89 5
-6 3 -3 295.47 12.7
6 3 3 276.07 15.3
6 3 3 273.27 16.9
6 -3 3 307.67 12.1
-6 -3 -3 313.97 16.6
-6 3 -4 3.6 2.6
6 3 4 7.8 4.9
-6 -3 -4 10.7 4.3
6 -3 4 11.7 2.5
6 3 5 28.7 6.7
-6 -3 -5 33.9 5.7
6 -3 5 32.9 4.1
6 3 6 56.49 8.9
-6 -3 -6 50.49 6.9
6 -3 6 51.99 5.7
6 3 7 49.9 8.6
6 -3 7 34.1 5.7
-6 -3 -7 35.9 6.2
6 -3 7 42.9 5.3
6 3 8 1.5 5.3
-6 -3 -8 8.4 4.5
6 -3 8 7.7 3.9
6 -3 8 19.5 5
6 3 9 29.4 8
6 -3 9 31.6 5.6
-6 -3 -9 27.5 5.4
6 -3 9 28.8 6.3
6 3 10 11.5 6.5
6 -3 10 3.7 4.7
6 -3 10 11.5 4.8
-6 -3 -10 13.9 4.6
6 3 11 -4.3 5.4
6 3 11 2.5 5.6
6 -3 11 0.4 4.1
6 -3 11 -2.9 4.9
-6 -3 -11 -1.8 3.1
6 3 12 8.5 6.6
6 3 12 9.6 8.1
6 -3 12 14.1 6.4
-6 -3 -12 11.8 4.2
6 -3 12 5.4 4.9
-6 4 12 8.6 6.8
6 -4 -12 1.9 3.2
-6 -4 12 -2.4 5.6
-6 4 11 10.6 8
6 -4 -11 3.1 3.5
-6 -4 11 7 6.6
-6 4 10 15.8 8.7
-6 4 10 15.6 7.8
6 -4 -10 22.8 5.1
-6 -4 10 6.5 5.7
-6 4 9 12.1 6.5
-6 4 9 11.3 6.4
6 4 -9 6.1 5.9
-6 -4 9 12.4 2.6
6 -4 -9 14 4.9
-6 -4 9 11.8 6.3
-6 4 8 26.6 6.8
-6 4 8 21.4 7
6 4 -8 14.9 6.1
6 -4 -8 34 7.4
-6 -4 8 42.2 7.3
6 4 -7 127.19 11.4
-6 4 7 135.79 12.1
-6 -4 7 140.39 9.5
-6 -4 7 154.18 11.2
6 -4 -7 134.19 11.8
-6 4 6 7 4.9
6 4 -6 3.2 3.6
-6 -4 6 5.1 3.2
-6 -4 6 4.9 3.8
6 -4 -6 1.7 4.3
-6 4 5 137.89 14.1
6 4 -5 159.18 10.4
-6 -4 5 157.78 10
6 -4 -5 158.78 12.5
-6 -4 5 144.99 10.2
-6 4 4 115.99 10.9
6 4 -4 120.09 8.3
-6 -4 4 108.09 9
-6 -4 4 109.59 8.1
6 -4 -4 107.29 10.7
-6 4 3 93.99 10.2
6 4 -3 95.79 7.3
6 4 -3 96.29 9.2
-6 -4 3 92.79 8.7
-6 -4 3 88.29 7.3
6 -4 -3 89.09 10
6 4 -2 324.37 17.9
-6 4 2 333.17 18.8
6 4 -2 286.17 15
-6 -4 2 319.07 17.4
6 -4 -2 332.47 18.9
-6 -4 2 338.07 15.4
6 4 -1 153.58 12.2
6 -4 -1 154.48 12.5
-6 -4 1 149.19 11.5
-6 -4 1 165.38 9.7
6 4 0 28.3 6.4
-6 4 0 20.1 3.4
6 4 0 21.4 6.9
-6 -4 0 23.6 4.8
6 -4 0 17.5 5.6
6 4 1 38.1 7.6
-6 4 -1 37.5 3.5
6 4 1 27.8 4.6
6 -4 1 28.8 6.3
-6 -4 -1 48.8 6.7
-6 -4 -1 43.3 7.3
6 4 2 61.29 10.3
6 4 2 66.29 6.7
-6 4 -2 67.59 4.3
-6 -4 -2 71.59 9
6 -4 2 61.19 4.6
6 4 3 282.57 16
-6 4 -3 302.37 12.8
6 4 3 295.57 18.9
6 -4 3 311.57 12.5
-6 -4 -3 272.37 17
6 4 4 399.56 22.5
6 4 4 366.86 19.5
-6 4 -4 372.86 16.5
-6 -4 -4 379.06 20.2
6 -4 4 366.96 15.6
6 4 5 152.88 14
-6 4 -5 204.58 10.7
6 -4 5 177.88 9.3
-6 -4 -5 171.28 12.5
6 4 6 42.4 9.1
-6 -4 -6 46.1 7.3
6 -4 6 49.3 5.5
6 4 7 28.9 8.1
-6 -4 -7 18.5 5.5
6 -4 7 15 4.8
6 4 8 6.1 6.1
-6 -4 -8 -0.6 4
6 -4 8 11.2 4.3
6 -4 8 1.1 3.8
6 4 9 5.2 6.4
-6 -4 -9 3.7 4.1
6 -4 9 5.1 4.2
6 -4 9 7.5 4.1
6 4 10 45.7 11.4
6 -4 10 46.4 7.6
6 -4 10 41.4 6.8
-6 -4 -10 53.69 8.1
6 4 11 38.6 14.1
-6 -4 -11 54.89 9.1
6 -4 11 51.29 8.4
6 -4 11 46.7 7.3
6 4 12 11.7 8.3
6 -4 12 5.9 5.1
6 -4 12 8.8 6.3
-6 5 12 5.4 9.4
-6 -5 12 2.4 6
-6 5 11 -8.5 5.5
-6 -5 11 8.9 6.3
6 -5 -11 -5.1 4.3
-6 5 10 5.2 6.5
6 -5 -10 1.8 4.2
-6 -5 10 5.9 5.7
-6 -5 10 0.9 2.3
-6 5 9 33.3 8.7
6 -5 -9 35.2 8.2
-6 -5 9 43.3 8.6
6 5 -8 12.4 6.2
-6 5 8 6.6 6.7
-6 -5 8 7.7 6
6 -5 -8 6.8 5.5
-6 -5 8 6.5 5.1
-6 5 7 437.76 24.4
6 5 -7 424.06 22.8
-6 -5 7 410.26 21.4
-6 -5 7 425.96 22.7
6 -5 -7 394.46 24
6 5 -6 362.56 19.7
-6 5 6 374.26 22.4
-6 -5 6 374.76 18.9
6 -5 -6 364.46 22.3
6 5 -5 98.29 8.7
-6 5 5 108.89 11.6
-6 -5 5 106.69 10.1
-6 -5 5 120.29 9
6 -5 -5 112.09 11.6
6 5 -4 6.3 3.3
-6 5 4 11.7 5.7
-6 -5 4 8.2 3.9
-6 -5 4 5.4 4.2
6 -5 -4 7.1 5.4
-6 5 3 153.08 13.2
6 5 -3 158.88 12.5
6 5 -3 147.59 9.7
-6 -5 3 162.68 12.3
-6 -5 3 147.09 9.7
6 -5 -3 154.98 13.5
6 5 -2 548.15 23.9
6 5 -2 542.65 27.9
-6 5 2 602.24 29
6 -5 -2 544.15 28.6
-6 -5 2 491.85 26.6
-6 -5 2 562.64 24.4
-6 5 1 2.6 3.1
6 5 -1 12.1 7.3
6 5 -1 8.9 3.2
-6 -5 1 6.1 3.8
-6 -5 1 4.9 4.9
6 -5 -1 5.3 4.7
-6 5 0 49.2 5.3
6 5 0 54.49 6.1
6 5 0 60.79 9.5
6 -5 0 36.6 7.5
-6 -5 0 52.69 7.3
-6 -5 0 55.39 8.6
-6 5 -1 161.58 8
6 5 1 161.08 13.5
6 5 1 143.39 10
-6 -5 -1 133.79 12.3
-6 -5 -1 150.78 11.5
6 -5 1 148.09 13.1
-6 5 -2 36.3 3.6
6 5 2 41.4 7.9
6 5 2 42.6 6.4
-6 -5 -2 44.4 7.7
6 -5 2 36.2 4.3
6 -5 2 32.1 6.8
6 5 3 6.1 4
6 5 3 10 6.3
-6 5 -3 9.7 2.5
6 -5 3 17.9 6.2
-6 -5 -3 5.2 5.1
6 -5 3 13.7 3
-6 5 -4 373.56 16.9
6 5 4 373.36 20.5
6 5 4 400.16 24.4
-6 -5 -4 429.56 22.7
6 -5 4 379.46 22.5
6 -5 4 389.86 16.7
-6 5 -5 516.05 23.6
6 5 5 524.15 26.7
6 5 5 514.85 30
6 -5 5 547.95 22.4
-6 -5 -5 558.44 27.9
6 5 6 98.59 14
-6 5 -6 130.79 11
-6 -5 -6 130.99 11.6
6 -5 6 131.59 8.4
6 5 7 -6.2 4.9
6 -5 7 -5.9 2.7
6 5 8 2.2 6.1
6 -5 8 8.1 4.3
-6 -5 -8 -2.7 4.3
6 5 9 42.5 10.8
6 -5 9 35.3 6.5
6 -5 9 31 5.9
-6 -5 -9 42.5 7.9
6 5 10 26.2 10.4
6 -5 10 13.4 5.6
6 -5 10 18.6 5.1
6 5 11 41.2 12.7
6 -5 11 48.3 7.4
6 -5 11 57.39 8.7
6 5 12 5.3 8.6
6 5 12 0.5 8.5
6 -5 12 -0.4 4.3
6 -5 12 6.2 6
-6 6 11 5.1 8.9
-6 -6 11 5.7 6.6
6 -6 -11 5 5.9
-6 -6 11 1.7 2.9
-6 6 10 9 9.4
-6 6 10 1.9 7.4
-6 -6 10 -2.8 5.6
6 -6 -10 6.7 6.3
-6 -6 10 5.1 3.1
-6 6 9 3.9 7.7
6 -6 -9 -3.6 5.2
-6 6 8 51.89 10
6 6 -8 38.4 8.2
6 -6 -8 35.5 9.9
-6 -6 8 47.1 8
-6 6 7 46.1 10
6 6 -7 31.8 7.1
6 -6 -7 20.4 7.9
-6 -6 7 32.6 6.9
-6 -6 7 40.2 7.7
6 6 -6 229.38 14.8
-6 6 6 261.47 18.9
-6 -6 6 256.37 18.8
6 -6 -6 234.08 19
-6 -6 6 216.58 14.1
-6 6 5 8.3 6.3
6 6 -5 -0.8 3.2
6 -6 -5 4 6
-6 -6 5 0.6 4
-6 -6 5 1.7 4.9
-6 6 4 128.69 13.7
6 6 -4 114.39 9.2
-6 -6 4 122.89 12
-6 -6 4 129.79 9.7
6 -6 -4 120.29 13.5
-6 6 3 7.6 6.4
6 6 -3 10.4 6
6 6 -3 4.8 3.3
-6 -6 3 9.6 5.7
6 -6 -3 9.5 6.9
-6 -6 3 16.5 5
6 6 -2 348.47 17.8
6 6 -2 369.26 22.4
-6 6 2 385.46 19.1
-6 -6 2 349.07 21.6
6 -6 -2 360.06 23.3
-6 -6 2 393.56 18.9
6 6 -1 53.79 6.4
6 6 -1 63.29 10.2
-6 6 1 56.79 6.5
-6 -6 1 67.39 9.7
6 -6 -1 53.59 9.3
-6 -6 1 62.89 7.9
6 6 0 27.6 5
6 6 0 25.6 7.8
-6 6 0 38.5 5.1
-6 -6 0 44.4 7.3
-6 -6 0 32.5 7
6 -6 0 27.1 7.7
6 6 1 84.59 12.4
-6 6 -1 90.19 6.3
6 6 1 88.39 8
-6 -6 -1 75.69 8.6
6 -6 1 113.69 11.5
-6 -6 -1 82.49 11
6 6 2 36.6 6.5
-6 6 -2 40 4.3
6 6 2 39.5 9.3
-6 -6 -2 42.1 8.3
6 -6 2 36.3 5.3
6 -6 2 36 7.8
-6 6 -3 5 2.5
6 6 3 3.4 4.6
6 6 3 4.4 6.8
6 -6 3 0.5 5.2
-6 -6 -3 10.3 6.4
6 -6 3 1.5 2.9
6 6 4 1133.79 52.09
-6 6 -4 1010.5 42.5
6 -6 4 1050.19 42.5
6 -6 4 1092.59 50.99
-6 -6 -4 1164.48 50.19
6 6 5 8.6 7.9
-6 6 -5 23.8 4.7
6 6 5 16.1 5.7
6 -6 5 26.2 4.4
6 -6 5 12.9 6.9
-6 -6 -5 13.2 10.5
6 6 6 153.68 16.2
6 6 6 140.29 12.2
-6 6 -6 125.79 10.2
6 -6 6 122.39 15.2
-6 -6 -6 135.19 13.4
6 -6 6 93.29 8.5
6 6 7 19.8 8.7
-6 6 -7 28.6 6.8
6 -6 7 28.5 7.9
6 -6 7 31.8 5.2
-6 -6 -7 12.8 6.9
6 6 8 29.6 9.9
6 -6 8 37.1 5.8
6 -6 8 16.8 10.3
6 6 9 17.3 8.8
6 -6 9 5.2 4.3
6 -6 9 25.3 10.6
6 6 10 11.7 9.6
6 -6 10 13.1 5.5
6 -6 10 15.4 5
6 6 11 -7.8 6.9
6 -6 11 0.8 4.4
6 -6 11 2 5.1
-6 7 11 9 9
-6 -7 11 12.4 6.8
-6 7 10 14.1 7.8
-6 -7 10 5.4 6.4
-6 -7 9 12.2 6
-6 7 8 162.48 16.1
-6 -7 8 140.49 12.7
6 7 -7 21.7 6.1
-6 7 7 14.2 7.9
6 -7 -7 29.6 8.6
-6 -7 7 6.9 4.9
6 7 -6 58.19 8.4
-6 7 6 57.39 11.2
6 -7 -6 72.79 12.6
-6 -7 6 65.19 8.8
-6 -7 6 60.09 9.6
6 7 -5 99.49 9.5
-6 7 5 122.19 14.7
-6 -7 5 122.19 13.1
-6 -7 5 102.09 10.1
6 -7 -5 118.09 14.4
-6 7 4 222.48 17.9
6 7 -4 183.38 12.4
-6 -7 4 171.98 13.1
6 -7 -4 162.78 17.7
-6 -7 4 225.38 17
-6 7 3 -5.3 3.6
-6 7 3 4 6.8
6 7 -3 -8.4 4.9
6 7 -3 -1 3.2
-6 -7 3 -6.5 4.9
-6 -7 3 1.9 4.3
6 7 -2 102.19 13.6
-6 7 2 103.69 9.8
6 7 -2 102.99 9.1
-6 -7 2 95.19 10.3
-6 -7 2 134.09 13.6
6 -7 -2 147.29 17.4
6 7 -1 10.9 4.4
6 7 -1 13.8 7.4
-6 7 1 17.8 4.8
6 -7 -1 12 8
-6 -7 1 11.6 7
-6 -7 1 19.5 5.9
-6 7 0 40.6 5.5
6 7 0 42.5 6.6
6 7 0 30.4 9.4
-6 -7 0 38.2 8.1
6 -7 0 28 9.1
-6 -7 0 38.1 8
6 7 1 4.9 6.3
-6 7 -1 2.5 2.9
6 7 1 13.3 4.9
6 -7 1 -2.4 6.3
-6 -7 -1 -4.2 5
6 7 2 3.6 3.9
6 7 2 -2.9 6.6
6 -7 2 2.5 5.3
6 7 3 1.7 7.4
6 7 3 -5.3 4.1
-6 7 -3 8.7 4.4
-6 -7 -3 13.2 7.3
6 -7 3 0.6 6.7
6 -7 3 -2.4 3.5
6 7 4 -0.3 4.6
6 7 4 11.6 6.9
-6 -7 -4 14 7.3
6 -7 4 8 4
6 7 5 58.89 13
-6 7 -5 49.5 6.7
6 -7 5 42 6.2
6 -7 5 56.69 11.8
-6 -7 -5 60.59 10.8
6 7 6 151.98 18.2
-6 7 -6 110.29 11.2
6 -7 6 87.19 14.2
6 -7 6 137.99 10.9
-6 7 -7 11.2 6.9
6 7 7 17.2 9.5
6 -7 7 23.4 4.8
6 -7 7 31.7 9.4
6 7 8 0.7 8.9
6 -7 8 20.2 11.4
6 -7 8 16.2 5.1
6 7 9 3.6 9.4
6 -7 9 -0.1 4.2
6 7 10 13.6 11.3
6 -7 10 15.1 6.2
6 -7 10 12.7 5.4
-6 -8 10 48.8 9.6
-6 -8 9 21.6 7.2
-6 8 8 9.3 8.2
-6 -8 8 5 5.6
-6 8 7 133.79 19.1
-6 -8 7 116.79 11.5
6 8 -6 30.6 6.8
-6 8 6 35.6 12.3
-6 -8 6 25.1 6.8
6 8 -5 123.19 11.1
-6 8 5 124.79 17.4
-6 8 5 160.08 17.7
-6 -8 5 109.59 11.5
-6 -8 5 147.39 22.8
-6 8 4 110.79 11.7
-6 8 4 110.29 15.8
6 8 -4 89.89 9.3
-6 -8 4 83.39 10.1
-6 -8 4 89.19 13.1
-6 8 3 8.9 5.7
6 8 -3 11.7 8.2
-6 -8 3 26.2 8.7
6 -8 -3 25.9 11.2
-6 -8 3 13.6 6.1
6 8 -2 4.5 7.9
-6 8 2 0.4 4.7
6 8 -2 2.4 5
6 -8 -2 4.3 6.8
-6 -8 2 0.5 6.6
-6 -8 2 -6.5 4.5
6 8 -1 9.3 8.7
-6 8 1 24.4 5.7
-6 -8 1 5.4 7.9
-6 -8 1 19.3 6.6
6 -8 -1 12.4 9.1
6 8 0 11.1 7.9
6 8 0 1.2 6.8
-6 8 0 9.4 4.3
-6 -8 0 4.6 6
-6 -8 0 -0.9 7
6 -8 0 8.2 8.7
6 8 1 -7.7 6
-6 8 -1 0.7 3.3
6 8 1 5.5 4.6
6 -8 1 13.4 9
-6 -8 -1 -5.4 5
6 8 2 -2.9 3.7
-6 8 -2 8.2 3.3
6 8 2 8 8.6
-6 -8 -2 3.6 7.4
6 -8 2 1.4 8.2
6 8 3 11 5
-6 8 -3 16.9 4.1
6 8 3 7.3 9.1
6 -8 3 18.4 10
-6 8 -4 183.38 11.5
6 -8 4 171.28 20.9
6 8 5 14.3 10.5
-6 8 -5 14.2 4.3
6 -8 5 11.9 5.2
-6 8 -6 81.79 8.8
6 8 6 95.79 15.4
6 -8 6 78.19 8.7
6 8 7 35.4 11.7
6 -8 7 39.2 6.9
-6 8 -8 36.8 10.4
6 8 8 25.4 12.9
6 -8 8 30.2 6.6
6 8 9 30.1 16
6 -8 9 31.5 6.8
-6 -9 9 2.1 6.4
-6 9 8 20.3 13.4
-6 -9 8 24.4 7.3
-6 9 7 41.8 13.8
-6 -9 7 -2.5 5.8
-6 9 6 7.9 9.4
-6 9 5 43.6 14.2
-6 -9 5 15.3 6.5
6 9 -4 44.7 7.7
-6 -9 4 31.4 8.1
-6 9 3 5 5.2
6 9 -3 11.5 5.2
-6 -9 3 14 6.8
6 9 -2 144.59 19.6
6 9 -2 161.28 13.1
-6 -9 2 209.18 16.6
6 9 -1 16.3 6
-6 9 1 28.3 6.3
6 9 -1 68.79 21.2
-6 -9 1 36.9 9
-6 9 0 55.79 7.6
6 9 0 67.79 17
6 9 0 66.49 9.3
6 9 1 0.4 9.1
-6 9 -1 10.5 4.1
6 9 2 5.2 8.4
-6 9 -2 1.9 3.4
-6 9 -3 28 5.2
6 9 3 38.6 12.2
-6 9 -4 5.2 3.7
6 9 4 5.3 9.7
6 -9 4 0.1 5
-6 9 -5 1.6 3.6
6 9 5 2.4 9.8
6 -9 5 -1.3 5.1
6 9 6 6.5 10.1
-6 9 -6 5.5 5.5
6 -9 6 4.8 5.6
6 9 7 23.9 12.4
6 -9 7 26.1 7.4
6 9 8 1.6 10.4
6 -9 8 16.3 7.3
-6 -10 7 8.6 7
-6 -10 6 5 6.7
-6 -10 5 7.7 6.6
-6 -10 4 -2.2 5.8
-6 -10 3 -4.9 6.3
6 10 -2 48.2 13
-6 10 2 13.4 6.7
-6 -10 2 23.8 9.5
-6 10 1 18.2 5.8
6 10 -1 30.4 13.3
-6 10 0 57.89 8.5
6 10 0 107.49 21.8
-6 10 -1 76.39 8.5
6 10 1 80.19 19.3
-6 10 -2 7.8 4.3
6 10 2 5.7 8.8
-6 10 -3 16.9 4.7
6 10 3 11.9 12.7
-6 10 -4 23.5 5.6
6 10 4 9 12.1
-6 10 -5 -3.4 3.9
6 10 5 2.5 12.2
-6 10 -6 -2.2 5.2
6 10 6 -3.6 10.2
6 -10 6 3.8 6.4
6 -10 7 -4.2 7
-6 -11 5 -6.6 7.5
-6 -11 4 6.2 8.3
-6 -11 3 16.9 8.9
6 11 -1 9.9 11.2
-6 11 0 9.6 5.4
6 11 0 18.2 12.2
6 11 1 27.9 13.9
-6 11 -1 6.7 4.9
-6 11 -2 8.9 5
6 11 2 6 12.6
6 11 3 14.6 11.9
6 11 5 12 12
6 12 1 -9.1 16.2
6 12 2 94.69 26.6
-7 0 13 1.6 6.5
-7 0 12 -0.5 5.9
-7 0 11 2.8 5.7
-7 0 10 32.7 7.3
-7 0 9 4.3 5
-7 0 8 121.59 11.2
-7 0 7 4.9 3.8
-7 0 6 476.65 22.8
-7 0 5 -2.6 3.5
7 0 -5 -0.1 2.9
7 0 -4 1502.85 59.79
-7 0 4 1539.75 58.79
-7 0 3 -0.6 2
7 0 -3 1.5 2.2
7 0 -2 9999 352.96
-7 0 2 9848.21 354.36
7 0 -2 9549.94 354.56
-7 0 1 5.9 2.3
7 0 -1 1.8 1.9
7 0 -1 1.3 1.6
7 0 0 259.57 10.7
7 0 0 242.98 10.3
-7 0 0 244.08 10.6
-7 0 0 257.57 10.4
-7 0 -1 1.6 2.3
7 0 1 2.2 2.3
7 0 1 2.4 1.9
-7 0 -1 1.6 2.1
-7 0 -2 91.79 5.3
7 0 2 83.39 5.5
-7 0 -3 -0.4 1.6
7 0 3 -1.5 2
7 0 4 486.05 20.8
-7 0 -4 479.35 20
7 0 5 2.2 3.2
-7 0 -5 -0.4 2.2
-7 0 -6 868.71 35.2
7 0 6 908.51 36.9
7 0 7 -0.5 3.5
7 0 7 2.2 3.7
7 0 8 258.07 15
7 0 8 239.58 16.2
7 0 9 -7.1 3.6
7 0 9 -6.5 3.9
7 0 10 77.29 9.7
7 0 10 84.29 11.5
7 0 11 3.9 4.9
7 0 11 -1.2 5.4
7 0 12 261.97 18.7
7 0 12 227.78 19.3
7 0 13 0.5 6.1
7 0 13 -3.5 4.9
-7 -1 13 1.4 5.2
-7 1 12 3.5 6.2
-7 -1 12 4.6 5.9
-7 1 11 10.6 7.3
-7 -1 11 6.6 6.7
-7 1 10 11.1 6
-7 -1 10 5.6 6.8
-7 1 9 128.59 11.9
-7 -1 9 118.49 11.7
-7 1 8 96.19 10.6
-7 -1 8 108.89 10.2
7 -1 -8 94.69 4.9
-7 1 7 15.5 5.2
7 1 -7 11.4 4.9
7 -1 -7 20.5 2.5
-7 -1 7 21.2 5.4
-7 1 6 171.78 11.9
7 1 -6 172.38 12.2
-7 -1 6 170.38 11.4
7 -1 -6 178.98 8.3
-7 1 5 177.18 11.6
7 1 -5 160.98 11
-7 -1 5 185.28 10.9
7 -1 -5 164.08 8.6
-7 1 4 341.47 16.6
-7 -1 4 354.26 15.8
7 -1 -4 311.57 14.6
7 1 -3 23.9 3.7
-7 1 3 33.4 4.7
7 1 -3 19.5 2.4
7 -1 -3 29.8 3.9
-7 -1 3 19.5 1.6
-7 -1 3 24.8 3.7
7 1 -2 772.52 29.8
-7 1 2 732.33 30
7 1 -2 772.92 29.2
-7 -1 2 782.72 29.8
7 -1 -2 750.22 30.5
-7 -1 2 758.72 28.5
7 1 -1 356.76 15.2
7 1 -1 388.56 15.2
-7 1 1 362.06 14.9
7 -1 -1 327.87 15
-7 -1 1 376.66 15.2
-7 -1 1 362.96 14.9
7 1 0 191.88 10.1
-7 1 0 198.98 7.9
7 1 0 189.58 8.8
-7 -1 0 185.38 9
-7 -1 0 204.48 9.6
7 -1 0 185.58 8.1
7 1 1 105.39 7.3
7 1 1 104.99 6.2
-7 -1 -1 98.89 6.8
-7 -1 -1 91.89 6.2
7 -1 1 98.19 4.2
7 1 2 519.55 21.4
7 1 2 506.85 21.9
-7 -1 -2 513.95 21.3
7 1 3 15.4 3.8
7 -1 3 12.8 2.7
-7 -1 -3 12 2.7
7 1 4 60.69 6.7
-7 -1 -4 74.19 5.8
7 -1 4 70.99 5.4
7 -1 4 72.29 6
7 1 5 105.59 8.6
7 -1 5 118.89 8.3
7 -1 5 119.59 7.4
7 1 6 66.89 7.6
7 -1 6 71.09 7.3
-7 -1 -6 71.49 5.8
7 -1 6 72.99 6.3
7 1 7 61.79 8.2
-7 -1 -7 57.39 5.5
7 -1 7 49.9 7.2
7 1 8 108.49 10.3
7 -1 8 111.39 9.3
7 -1 8 109.79 10.3
-7 -1 -8 109.99 7.9
7 1 9 37.6 7.8
7 1 9 38.5 8.5
7 -1 9 37.3 7.5
7 -1 9 24.9 6.1
-7 -1 -9 34.2 4.9
7 1 10 20.4 6.8
7 1 10 -1.4 4.8
7 -1 10 7.8 4.6
7 -1 10 0.8 4.5
7 1 11 -9.3 4.8
7 1 11 4.7 5.7
7 -1 11 13.7 5.6
7 1 12 -6.5 4.6
7 1 12 10.9 6.5
7 -1 12 1.8 5.8
7 -1 12 -2.7 4.3
7 1 13 13.1 7.1
7 1 13 2.1 6.6
7 -1 13 -10.1 5.2
7 -1 13 -0.8 6.5
-7 2 13 22.6 9.7
-7 -2 13 8.6 6
-7 2 12 21.1 8.4
-7 -2 12 4.2 6
-7 2 11 2.3 5.8
-7 -2 11 -2.8 4.1
-7 2 10 8 6.4
-7 -2 10 -0.8 5.7
7 -2 -10 6.2 2.1
-7 2 9 70.79 10.5
-7 2 9 71.89 9
-7 -2 9 77.59 9.8
7 -2 -9 65.69 5.2
7 2 -8 44.5 13.3
-7 2 8 35.2 5.6
-7 2 8 41.2 7.6
7 -2 -8 43.7 4.6
-7 -2 8 35.1 7.1
7 2 -7 2 3.7
-7 2 7 7.8 3.5
-7 2 7 0.7 3.8
7 -2 -7 3.9 3
-7 -2 7 2.9 3.8
-7 2 6 -3.2 3.2
-7 2 6 4.3 3.2
7 2 -6 1.6 3.6
-7 -2 6 -5.8 2.6
7 -2 -6 4.9 3
-7 2 5 420.46 19.9
-7 2 5 457.05 21.9
7 2 -5 449.76 20.9
7 -2 -5 437.66 20.1
-7 -2 5 422.96 16.9
-7 -2 5 446.56 20.1
-7 2 4 40.3 6.5
7 2 -4 46.5 5.7
-7 -2 4 53.39 4.1
7 -2 -4 56.59 6.6
-7 -2 4 58.69 6.2
7 2 -3 620.34 24.7
-7 2 3 590.84 25.5
7 2 -3 589.34 24.1
-7 -2 3 599.94 24.4
-7 -2 3 570.44 23.5
7 -2 -3 586.04 25.7
-7 2 2 301.47 14.3
7 2 -2 325.37 13.9
7 2 -2 291.77 14.3
7 -2 -2 306.97 15.3
-7 -2 2 315.97 13.8
-7 -2 2 305.17 13.8
7 2 -1 41 3.9
-7 2 1 34.6 3.8
7 2 -1 33.4 4.9
-7 -2 1 36.1 4.6
-7 -2 1 38.7 4.3
7 2 0 160.98 7.9
7 2 0 150.68 9.8
-7 -2 0 151.28 8.4
-7 -2 0 157.78 9.2
7 2 1 76.39 6.8
7 2 1 79.89 5.5
-7 -2 -1 79.19 6.5
-7 -2 -1 75.59 6.4
7 2 2 577.84 24.3
7 2 2 564.24 25.6
-7 -2 -2 575.74 24.8
7 -2 2 588.04 21.3
7 2 3 346.47 17.5
-7 -2 -3 333.17 16.3
7 -2 3 339.67 13.8
7 2 4 29.9 6.4
7 -2 4 28 3.7
-7 -2 -4 33 7.8
7 2 5 159.38 12.1
7 -2 5 181.38 9.8
7 -2 5 175.68 9.4
-7 -2 -5 167.08 10.3
7 2 6 71.59 9
7 -2 6 59.49 5.7
7 -2 6 67.99 6.5
-7 -2 -6 56.69 6.3
7 2 7 89.79 9.9
7 -2 7 119.49 8
7 -2 7 89.49 8.5
-7 -2 -7 101.39 8
7 2 8 4.6 5.3
7 -2 8 13.8 4.5
-7 -2 -8 2.6 3.2
7 -2 8 5.9 4.4
7 2 9 137.39 13.3
-7 -2 -9 132.29 9.3
7 -2 9 147.19 10.8
7 -2 9 146.59 11.6
7 2 10 -4.1 4.7
7 2 10 1.2 5.3
-7 -2 -10 6.2 3.5
7 -2 10 7.4 4.6
7 -2 10 9.4 5.4
7 2 11 20.5 6.9
7 2 11 10.7 6.7
7 -2 11 22.4 6.6
7 -2 11 24.8 6.3
7 2 12 -8.3 5.7
7 2 12 1 6.7
7 -2 12 -1 4.1
7 -2 12 7 5.9
7 2 13 48.5 11.5
7 2 13 74.79 13.4
7 -2 13 65.49 9.9
7 -2 13 52.89 9.8
-7 3 13 -7.3 7.8
-7 -3 13 6 6.7
-7 3 12 6.5 6.6
-7 -3 12 17.5 8
-7 3 11 14.6 8.4
-7 -3 11 10.7 6
7 -3 -11 6 3
-7 3 10 -2.1 5.9
-7 3 10 8.1 5.9
-7 -3 10 6.1 5.4
7 -3 -10 6.5 3.2
-7 3 9 12.6 5.2
7 3 -9 0.3 5.5
7 -3 -9 11.4 4
-7 -3 9 4.2 4.9
7 3 -8 53.99 10.1
-7 3 8 57.99 10.1
-7 3 8 54.49 7.6
-7 -3 8 41.2 7.1
7 3 -7 28 6.3
-7 3 7 25.9 5.9
-7 3 7 21.8 6.1
-7 -3 7 32.3 3.7
-7 -3 7 22.6 5.7
7 -3 -7 44.9 6.8
7 3 -6 1.3 3.4
-7 3 6 3.3 4.5
-7 3 6 -4.6 3.4
-7 -3 6 -4 1.9
7 -3 -6 -2.5 3.1
-7 -3 6 0.7 3.1
-7 3 5 70.69 7.6
7 3 -5 77.19 6.9
-7 -3 5 65.39 5.6
-7 -3 5 69.89 6.9
7 -3 -5 76.29 7.9
-7 3 4 219.98 13.5
7 3 -4 217.58 11.9
7 -3 -4 213.68 13.5
-7 -3 4 214.68 11.4
-7 -3 4 219.38 13.2
7 3 -3 1116.59 43.6
7 3 -3 1060.69 44.1
-7 -3 3 1056.59 42.9
-7 -3 3 1092.69 42.5
7 -3 -3 1103.29 45.4
7 3 -2 269.47 14.1
7 3 -2 255.37 12.3
-7 -3 2 242.78 13.1
7 -3 -2 226.68 14.4
-7 -3 2 256.37 12.2
7 3 -1 261.97 12.1
7 3 -1 253.77 14.3
-7 -3 1 269.07 12.2
7 -3 -1 234.28 14.3
-7 -3 1 231.48 13.3
7 3 0 26.4 5.7
7 3 0 33.5 4
-7 -3 0 43.6 5.9
-7 -3 0 35.3 4.5
7 3 1 13.3 3.4
-7 3 -1 14.6 1.6
7 3 1 6.9 4.5
-7 -3 -1 9.7 3.7
-7 -3 -1 17.4 4.7
7 3 2 27.7 6.4
7 3 2 30.5 5
-7 3 -2 24.6 2.2
7 -3 2 26.5 2.3
-7 -3 -2 31.1 5.5
7 3 3 172.48 13
-7 3 -3 166.98 8.3
7 3 3 169.98 11.4
7 -3 3 183.68 7.8
-7 -3 -3 190.78 12
7 -3 4 535.35 21.1
-7 -3 -4 522.65 24.7
7 3 5 161.28 12.9
-7 -3 -5 150.08 10.7
7 -3 5 157.38 8.5
7 3 6 12.3 5.9
7 -3 6 9.1 3.3
-7 -3 -6 9.3 4
7 3 7 58.39 9.3
-7 -3 -7 48.9 6.9
7 -3 7 60.29 6.2
7 3 8 9.8 5.8
7 -3 8 11.6 4.5
7 -3 8 17.4 5.3
-7 -3 -8 17.3 4.7
7 3 9 46.7 9.3
-7 -3 -9 36.5 6.1
7 -3 9 37.5 6.6
7 -3 9 45 6.5
7 3 10 9.9 7.2
7 -3 10 8.3 4.5
-7 -3 -10 0.9 3.6
7 -3 10 15.2 5.6
7 3 11 -2.9 6.2
7 3 11 21.5 9.6
7 -3 11 17.3 5.6
7 -3 11 4.3 5.1
-7 -3 -11 11.6 4.2
7 3 12 12.4 8
7 3 12 -3.2 6.3
7 -3 12 3.5 5.3
7 -3 12 -4 4.2
-7 -3 -12 -0.6 4.7
-7 4 12 -0.4 5.8
-7 -4 12 3.7 6.6
7 -4 -12 1.4 2.8
-7 4 11 46.4 11.1
-7 -4 11 42.9 8.7
7 -4 -11 48.8 6.4
-7 4 10 63.99 10.8
7 -4 -10 73.29 8
-7 -4 10 88.79 11.3
-7 4 9 45.8 9.4
-7 4 9 38 9.7
7 -4 -9 20.8 6.4
-7 -4 9 34.1 7.1
7 4 -8 66.89 10.2
-7 4 8 56.09 8.6
-7 4 8 66.39 11.6
-7 -4 8 67.49 9.3
-7 -4 8 65.29 7.9
7 -4 -8 69.89 9.5
-7 4 7 57.49 9.4
-7 4 7 59.39 8.7
7 4 -7 54.89 8.4
-7 -4 7 41.5 5.5
7 -4 -7 39.9 7.6
-7 -4 7 44 7.5
7 4 -6 35.1 6
-7 4 6 32.6 7.1
-7 -4 6 33.5 6
-7 -4 6 34.8 5.1
7 -4 -6 34.4 7.2
-7 4 5 -2.1 4.6
7 4 -5 1.4 3
7 -4 -5 4.5 4
-7 -4 5 -0.1 3
-7 -4 5 6.7 3.5
7 4 -4 192.48 12.1
-7 4 4 174.78 13.1
7 4 -4 191.28 11.1
7 -4 -4 160.88 12.9
-7 -4 4 199.38 11
-7 -4 4 189.48 11.8
7 4 -3 80.39 8.5
-7 4 3 91.49 9.7
7 4 -3 75.59 6.4
-7 -4 3 74.59 7.9
7 -4 -3 76.99 9.4
7 4 -2 344.47 16.2
7 4 -2 353.76 19.3
-7 -4 2 321.17 18.1
7 -4 -2 345.57 19.7
-7 -4 2 357.86 16.3
7 4 -1 117.29 8.2
7 4 -1 119.29 11
-7 -4 1 124.39 8.3
7 -4 -1 116.29 11.1
-7 -4 1 129.29 10.4
7 4 0 38.4 5.1
7 4 0 35.2 7.3
-7 4 0 37 4.2
-7 -4 0 40.9 5.9
7 -4 0 36.9 7.3
-7 -4 0 37.9 7.8
7 4 1 37.8 8
7 4 1 52.39 5.6
-7 4 -1 46 3.8
-7 -4 -1 48.8 7.6
7 -4 1 59.69 8.6
-7 -4 -1 48.9 6.9
7 4 2 172.28 10.7
7 4 2 177.58 16.3
-7 4 -2 171.08 7.5
-7 -4 -2 147.49 11.8
7 -4 2 165.78 8
7 4 3 337.27 17.8
-7 4 -3 320.97 14.1
7 4 3 350.66 20.9
7 -4 3 346.77 13.9
-7 -4 -3 350.36 19.1
-7 4 -4 275.17 12.9
7 4 4 272.67 18.6
7 4 4 276.47 15.9
7 -4 4 288.17 12.2
-7 -4 -4 286.07 16.9
7 4 5 442.26 25.3
-7 4 -5 471.85 20.4
7 -4 5 447.56 18.8
-7 -4 -5 420.76 22.5
7 4 6 1.2 4.7
7 -4 6 1.1 2.5
-7 -4 -6 -3.7 3.3
7 4 7 59.49 10.3
-7 -4 -7 50.59 8.1
7 -4 7 53.29 7.9
7 4 8 2.1 6
7 -4 8 8.8 4.2
-7 -4 -8 5.5 5.1
7 -4 8 8.5 4.1
7 4 9 18.7 7.5
7 -4 9 1.9 4.1
7 -4 9 6.8 4.1
-7 -4 -9 8.4 4.5
7 4 10 44.3 10
7 -4 10 32.5 6.8
7 -4 10 28.9 6.3
7 4 11 26 8.7
7 -4 11 31.1 6.7
7 -4 11 20 5.7
7 4 12 -2.6 7.1
7 -4 12 4 6
7 -4 12 -5.6 4.4
-7 5 12 0.1 8.5
-7 -5 12 -2.5 6
7 -5 -12 8.5 4.5
-7 5 11 5.7 7.3
-7 -5 11 8.7 5.9
7 -5 -11 -5.7 4.3
-7 5 10 6.9 6.2
-7 -5 10 5.6 2.2
7 -5 -10 10.2 5.2
-7 -5 10 8.6 5.5
-7 5 9 29.6 9.6
-7 5 9 36.3 11
-7 -5 9 21.7 7.4
7 -5 -9 22.1 7.3
-7 5 8 201.08 22.9
7 5 -8 180.98 14.9
7 -5 -8 156.88 15
-7 -5 8 195.58 13.6
-7 5 7 9.8 5.9
-7 -5 7 8.8 5
7 -5 -7 10.4 6.4
-7 -5 7 15.2 4.9
-7 5 6 7.6 5.6
7 5 -6 -4.4 3.4
-7 -5 6 -3.4 3.5
7 -5 -6 5.7 5.7
-7 -5 6 2.5 4.6
-7 5 5 23.6 6.9
7 5 -5 10.3 4
-7 -5 5 24.7 6.6
-7 -5 5 24.8 5
7 -5 -5 25.2 6.9
-7 5 4 15.6 6.2
7 5 -4 10.3 5.1
7 5 -4 13.6 4
-7 -5 4 11.2 4
-7 -5 4 8.7 4.5
7 5 -3 258.27 14.2
7 5 -3 264.27 16.9
-7 5 3 282.27 18.3
-7 -5 3 282.47 14.4
7 -5 -3 286.97 18.2
-7 -5 3 262.67 16.2
7 5 -2 2 3
7 5 -2 9.4 5.9
-7 -5 2 -2.3 2.8
-7 -5 2 -3.6 4.1
7 -5 -2 6.2 4.9
-7 5 1 58.39 6.2
7 5 -1 69.09 9.9
7 5 -1 53.69 6
7 -5 -1 64.99 9.9
-7 -5 1 54.69 6.7
-7 -5 1 48.6 8.1
-7 5 0 47.8 5
7 5 0 37.1 8.3
7 5 0 52.49 6.1
-7 -5 0 36.9 7.2
7 -5 0 43.2 8.8
-7 -5 0 46.8 7
7 5 1 14.6 6.5
7 5 1 9.9 3.7
-7 5 -1 17.1 2.9
7 -5 1 10.7 5.7
-7 -5 -1 18.3 5.6
-7 -5 -1 14.9 6.1
7 5 2 25.8 7.8
7 5 2 15.7 4.3
-7 5 -2 21.3 2.8
-7 -5 -2 17.6 5.6
7 -5 2 12.5 5.9
7 -5 2 25 3.7
7 5 3 204.48 16.5
7 5 3 193.38 13
-7 5 -3 177.28 8.9
7 -5 3 189.18 9.3
-7 -5 -3 198.18 14.2
7 -5 3 191.18 14.8
7 5 4 27.9 6.3
7 5 4 23.8 7.4
-7 5 -4 16.6 3.2
-7 -5 -4 17.9 5.7
7 -5 4 19.5 3.2
7 5 5 25.4 6.5
7 5 5 23.8 8.2
-7 5 -5 33.2 4.9
-7 -5 -5 37.7 7.5
7 -5 5 29 3.9
7 5 6 1.8 6.2
7 5 6 18.8 6.6
-7 5 -6 20.5 4.8
-7 -5 -6 26.5 6.6
7 -5 6 16.7 3.8
7 5 7 4.2 6.3
-7 -5 -7 1 4.7
7 5 8 30.7 9.1
7 -5 8 49.4 6.8
-7 -5 -8 32.8 7.3
7 5 9 1.7 6.2
7 -5 9 1.8 4
-7 -5 -9 3.3 4.5
7 -5 9 -0.7 4
7 -5 10 9.4 4.9
7 -5 10 4 4.3
7 5 11 5.3 8.4
7 -5 11 -1.9 4.6
7 -5 11 7.5 5.1
7 5 12 19.8 11.2
7 -5 12 23.5 7.5
7 -5 12 18.3 6
-7 6 11 2 7.9
7 -6 -11 -8.5 5
-7 -6 11 2.3 6.3
-7 6 10 10.5 7.5
-7 -6 10 7 3.2
7 -6 -10 17.1 6.7
-7 -6 10 9.2 6.3
-7 6 9 21.9 8.5
7 -6 -9 18.5 7.7
-7 -6 9 26.1 7.1
7 6 -8 22.6 7.3
-7 6 8 31.7 9.4
-7 -6 8 15.2 6
7 6 -7 7.6 5
-7 6 7 10.6 7
-7 -6 7 10.6 5
7 -6 -7 2.1 5.9
-7 -6 7 5.5 5.3
7 6 -6 34.4 6.6
-7 6 6 30.5 8.4
-7 -6 6 34.6 8.8
7 -6 -6 24.5 8.6
-7 -6 6 31.7 6.6
7 6 -5 8.3 4
-7 6 5 7.6 6.5
-7 -6 5 2.6 4.5
-7 -6 5 4 5.2
7 -6 -5 3.8 5.9
7 6 -4 54.19 7.1
-7 6 4 74.19 10.9
7 6 -4 64.39 9.8
-7 -6 4 63.89 9.5
7 -6 -4 72.39 11.4
-7 -6 4 58.19 6.8
7 6 -3 3.2 5
7 6 -3 0.1 3
-7 -6 3 2.2 3.7
7 -6 -3 11.5 6.4
-7 -6 3 2.3 4.7
7 6 -2 56.69 6.9
-7 6 2 60.89 7.7
7 6 -2 63.39 10.1
-7 -6 2 61.79 7.3
7 -6 -2 85.09 12.3
-7 -6 2 62.59 9.6
-7 6 1 -0.3 3
7 6 -1 18.3 6.8
7 6 -1 -0.2 3
-7 -6 1 2.1 3.8
-7 -6 1 2.3 4.7
7 -6 -1 3.5 6
-7 6 0 38.9 5.1
7 6 0 39.7 9.1
7 6 0 40.6 5.8
-7 -6 0 42.9 8.1
-7 -6 0 37.7 6.8
7 -6 0 37 8.5
7 6 1 1 3
7 6 1 4.5 6.1
-7 6 -1 2.9 2.5
-7 -6 -1 10.2 4.4
-7 -6 -1 -2.4 4.9
7 -6 1 -1.7 4.2
7 6 2 -2.6 2.9
-7 6 -2 0.3 1.9
7 6 2 2.8 6.5
7 -6 2 -2 4.8
-7 -6 -2 -3.7 4.5
7 6 3 3 6.6
-7 6 -3 9.8 2.7
7 6 3 12.2 4.8
7 -6 3 2.7 5.5
-7 -6 -3 12.4 6.6
7 -6 3 10 3.4
7 6 4 25.2 8.6
7 6 4 26.7 7.7
-7 6 -4 22.6 3.9
7 -6 4 30.9 8.2
7 -6 4 17.5 3.8
7 6 5 181.18 18.4
-7 6 -5 190.68 11.7
7 6 5 193.98 15.5
7 -6 5 214.98 17.9
7 -6 5 187.48 10.6
-7 -6 -5 201.58 16.5
-7 6 -6 -2.3 3.5
7 6 6 -5.3 5.4
7 6 6 -0.6 6.3
-7 -6 -6 0.9 5.4
7 -6 6 2.1 3.2
7 -6 6 3.7 6.6
-7 6 -7 9.5 5.1
7 6 7 -5.4 6
-7 -6 -7 2.7 5
7 -6 7 12.7 4.4
7 -6 7 -2.3 6.1
7 6 8 31.9 12.5
7 -6 8 31.3 5.3
7 -6 8 44.9 11.4
7 6 9 0.1 7.7
7 -6 9 7.9 4.2
7 6 10 -0.7 8
7 -6 10 10.3 9.3
7 -6 10 -6.9 4.1
7 -6 10 -7.4 3.9
7 6 11 -2.5 8.9
7 -6 11 4.2 4.9
7 -6 11 3.8 4.8
-7 7 11 -4 6
-7 7 10 12.9 7.3
-7 -7 10 17.2 7.1
-7 -7 9 93.29 11.7
-7 7 8 138.49 14.9
7 7 -7 -2 4.7
-7 7 7 -1.4 6
-7 -7 7 -3.3 4.5
7 -7 -7 22.6 9.2
7 7 -6 33.8 6.8
-7 7 6 39.9 11.7
7 -7 -6 30.6 10
-7 -7 6 45.6 8.4
-7 -7 6 39.3 7.6
-7 7 5 191.58 18.1
-7 -7 5 193.88 13.8
7 -7 -5 214.28 18.8
-7 -7 5 213.88 16.3
-7 7 4 5.3 7.3
7 7 -4 6.7 4.4
7 -7 -4 -1.8 6.8
-7 -7 4 16.6 7
-7 -7 4 -3.3 4.6
7 7 -3 -1.2 5.7
7 7 -3 16.3 4.3
-7 7 3 10.2 5.1
-7 -7 3 5.9 6.1
7 -7 -3 8 7.9
-7 -7 3 11.2 5
7 7 -2 240.18 14.8
-7 7 2 263.77 15.7
7 7 -2 255.17 20.1
-7 -7 2 300.37 19.9
-7 -7 2 263.17 16.5
-7 7 1 17.2 4.8
7 7 -1 17.4 8.1
7 7 -1 10.5 4.2
7 -7 -1 19.8 9
-7 -7 1 4.1 5.6
-7 -7 1 6.2 4.6
7 7 0 28.9 5.9
-7 7 0 36.5 5.2
7 7 0 44.5 10.1
-7 -7 0 34.4 8.9
-7 -7 0 37.1 7.7
7 -7 0 29.1 8
7 7 1 6.3 7.8
7 7 1 0.8 4.1
-7 -7 -1 5.5 6
7 -7 1 1.4 5.9
7 7 2 14.7 8.2
7 7 2 18.2 5.3
-7 7 -2 26.5 4.1
7 -7 2 35 10
-7 -7 -2 21.4 7.3
7 7 3 75.29 10
7 7 3 99.09 15.2
-7 7 -3 76.79 6.4
7 -7 3 83.99 8.3
-7 -7 -3 107.59 13.9
7 7 4 194.28 14.5
7 7 4 229.68 21.8
-7 7 -4 202.68 11.2
-7 -7 -4 231.98 18.7
7 -7 4 182.98 18.3
7 -7 4 204.88 12.5
7 7 5 153.68 18.7
-7 7 -5 151.08 12.6
7 -7 5 142.09 10
7 -7 5 137.69 17
-7 -7 -5 158.18 18.4
7 7 6 8.7 9.1
-7 7 -6 0.6 4.1
7 -7 6 1.8 3.3
7 -7 6 -13.5 7.3
7 7 7 18 9.9
-7 7 -7 24.7 7.2
7 -7 7 13.2 4.5
7 -7 7 5 10
7 7 8 2.5 8.4
7 -7 8 2.8 4
7 -7 8 0 9
7 7 9 30.2 13.4
7 -7 9 23.3 5.7
7 7 10 -0.9 8.9
7 -7 10 5.4 4.7
7 -7 10 6.3 6.3
-7 8 10 7.2 9.2
-7 -8 10 14 6.8
-7 -8 9 43.4 9
-7 8 8 0.9 8.1
-7 -8 8 -2.2 5.3
-7 8 7 43.7 12.2
-7 -8 7 24.5 9.9
-7 8 6 83.69 17.2
-7 -8 6 98.39 11
-7 8 5 17.7 7.4
7 8 -5 8.4 5.4
-7 8 5 31.1 11.2
-7 -8 5 13.8 6
-7 8 4 28.3 8.1
7 8 -4 36.2 6.6
-7 -8 4 39.9 7.9
-7 -8 4 49.5 12.4
-7 8 3 9.7 5.2
7 8 -3 5.5 7.6
7 8 -3 6.4 4.8
-7 -8 3 7 5.3
7 -8 -3 19.3 11
-7 -8 3 -0.9 6.3
7 8 -2 19.1 5.5
7 8 -2 21.1 8.7
-7 8 2 25 6.6
7 -8 -2 26 9.8
-7 -8 2 35.2 8
-7 -8 2 45.8 9.8
7 8 -1 12.6 8.5
-7 8 1 15.7 5.1
7 8 -1 8.7 4.8
-7 -8 1 -3.1 6.3
-7 -8 1 6.2 6.6
7 -8 -1 9.2 7.6
7 8 0 1.1 7.9
-7 8 0 9 4.3
7 8 0 9.9 4.9
-7 -8 0 23.3 8.9
7 -8 0 2.9 8
-7 -8 0 11.2 6.2
-7 8 -1 7 3.6
7 8 1 -3.2 4.3
7 8 1 4.6 9
-7 -8 -1 5.5 6
7 -8 1 5.7 7.2
7 8 2 47.1 12
7 8 2 55.39 7.9
-7 8 -2 56.59 6.3
-7 -8 -2 30.8 13.5
7 -8 2 61.29 13
7 8 3 68.99 14.4
7 8 3 36.2 8.6
-7 8 -3 46 5.6
7 -8 3 51.79 13.6
-7 8 -4 10 3.5
7 8 4 5.9 7.8
7 -8 4 7.8 5
7 8 5 -0.1 6.5
-7 8 -5 0.6 3.3
-7 8 -6 66.89 9.2
7 8 6 56.69 15.7
7 -8 6 78.39 9
7 8 7 0.6 10.3
-7 8 -7 15.5 6.3
7 -8 7 15.1 4.9
7 8 8 -4.8 7.7
7 -8 8 0.8 3.8
7 8 9 -12 8.7
7 -8 9 15 5.6
-7 -9 9 8.4 6.5
-7 -9 8 13.5 6.4
-7 -9 7 20.9 7.5
-7 -9 6 12.4 6.6
-7 -9 5 0.9 6
-7 -9 4 110.19 12.2
7 9 -3 -3.4 8.1
7 9 -3 7.2 5.1
-7 9 3 -13.7 4.5
-7 -9 3 2.5 6.1
7 9 -2 21.1 6.6
-7 9 2 35.6 7.6
7 9 -2 39.1 11.6
-7 -9 2 37.8 9.3
-7 9 1 6.5 4.6
7 9 -1 6.1 5.6
-7 -9 1 9.1 6.5
7 9 0 33.9 12.3
-7 9 0 24.5 5.6
-7 9 -1 49.5 6.8
7 9 1 61.29 15.8
-7 9 -2 -1.3 3.4
7 9 2 4.3 7.8
-7 9 -3 131.29 9.7
7 9 3 106.39 20.2
7 9 4 8.8 9.6
-7 9 -4 7 3.8
-7 9 -5 2.1 3.6
7 9 5 8.3 10.1
7 -9 5 6.3 5.7
7 9 6 69.99 17.6
7 -9 6 56.69 10.3
7 9 7 9 12
7 -9 7 17.6 6.7
7 9 8 8 11.2
-7 -10 7 1.9 6.5
-7 -10 6 17.9 7.3
-7 -10 5 9.5 7
-7 -10 4 77.29 12.1
-7 -10 3 3.3 6.8
7 10 -2 105.09 21.9
-7 10 2 115.39 11.6
-7 -10 2 142.29 15.6
7 10 -1 54.19 15
-7 10 1 67.79 8.9
-7 -10 1 105.79 14.6
-7 10 0 12.9 5.3
7 10 0 21.7 13
7 10 1 5 10
-7 10 -1 9.3 4.5
7 10 2 -0.3 9.8
-7 10 -2 -5 3.4
-7 10 -3 1.5 3.6
7 10 3 6.1 10.4
7 10 4 8.2 11.2
-7 10 -4 32.2 5.7
7 10 5 17.3 11.9
7 10 6 62.89 24.5
-7 10 -6 8.9 6.5
7 -10 6 8.4 7.4
-7 -11 5 11.4 8
-7 -11 4 -6.3 7.2
-7 -11 3 10 8.4
-7 -11 2 -8 7.4
7 11 -1 25.9 14.1
7 11 0 -6.4 10.3
-7 11 0 -10.9 4.4
7 11 1 49.1 18
-7 11 -1 41.2 7.7
7 11 2 24.9 14.5
-7 11 -3 4.8 4.5
7 11 3 1.8 11.9
-7 11 -4 7.8 4.9
7 11 5 10.2 12
-8 0 13 -2 6.9
-8 0 12 8.9 7.1
-8 0 11 4.2 5.2
-8 0 10 5.3 4.9
-8 0 9 5.1 4.6
-8 0 8 36.4 6.8
-8 0 7 -0.6 3.9
-8 0 6 559.54 26.2
8 0 -6 571.34 27.5
8 0 -5 -1.5 3.3
-8 0 5 -1.1 3.3
-8 0 4 27.5 4.4
8 0 -3 -1.7 2
-8 0 3 -1.6 1.9
8 0 -3 0.2 0.9
-8 0 2 4961.5 178.98
8 0 -2 4812.12 179.08
8 0 -2 4967.7 177.58
-8 0 1 -0.6 2.1
8 0 -1 0.8 1.9
8 0 -1 1.8 2.1
8 0 0 23.7 2.7
-8 0 0 21.1 2.9
-8 0 0 24.5 3.1
8 0 0 22.5 3
8 0 1 2.6 2.4
-8 0 -1 0.4 1.8
8 0 1 -2.1 1.7
-8 0 -1 -0.9 2.2
-8 0 -2 496.95 20
8 0 2 487.35 20.3
8 0 2 496.15 19.9
-8 0 -3 -1.2 1.4
8 0 3 -0.7 2.2
-8 0 -4 1065.59 40.2
8 0 4 1005.8 40.8
-8 0 -5 1.1 2.5
8 0 5 -1.6 2.8
8 0 6 365.06 18.2
-8 0 -6 363.06 16.6
8 0 7 -4.5 2.9
8 0 8 16 5.1
8 0 8 12.5 5.5
8 0 9 -2.9 4.4
8 0 9 -5.7 3.6
8 0 10 4.8 5.4
8 0 10 0.8 4.4
8 0 11 0.4 5.3
8 0 11 -4.2 4.3
8 0 12 7.4 6.4
8 0 12 14.7 7
8 0 13 -0.8 6.2
8 0 13 1.7 6.3
-8 -1 13 0.7 6.1
-8 1 12 -4.8 5.2
-8 -1 12 -11.5 5.3
-8 1 11 9.5 6.4
-8 -1 11 1.9 5.8
-8 1 10 22.4 6.9
-8 -1 10 23 7.6
-8 1 9 32.9 7.7
-8 -1 9 24.2 6.3
-8 1 8 176.88 13.3
8 -1 -8 177.98 7.5
-8 -1 8 168.08 13.1
-8 1 7 47.7 7.2
8 1 -7 57.69 8.4
-8 -1 7 49.99 6.8
8 -1 -7 47.9 3.4
-8 1 6 140.39 10.4
8 1 -6 118.89 10.1
8 -1 -6 133.49 6.8
-8 -1 6 137.29 9.8
-8 1 5 177.28 11.8
8 1 -5 181.78 11.9
-8 -1 5 187.98 11
8 -1 -5 178.68 9.1
-8 1 4 466.75 21.2
8 1 -4 451.65 20.8
8 -1 -4 443.26 19.2
-8 -1 4 470.15 20.3
8 1 -3 270.37 12.9
-8 1 3 268.87 13.1
8 1 -3 259.37 11
-8 -1 3 266.87 10.2
8 -1 -3 258.97 12.4
8 -1 -3 260.57 13.4
-8 -1 3 266.17 12.6
8 1 -2 249.08 11.2
-8 1 2 258.57 12
8 1 -2 263.67 11.8
8 -1 -2 259.17 12.4
-8 -1 2 259.17 10.5
-8 -1 2 254.87 11.8
8 1 -1 137.19 7.1
-8 1 1 122.19 6.6
8 1 -1 144.59 7.6
8 -1 -1 129.99 7
-8 -1 1 133.49 6.8
-8 -1 1 136.79 7.3
-8 1 0 27.6 2.6
8 1 0 32.4 4.3
8 1 0 36.1 3.8
-8 -1 0 28.4 3.7
-8 -1 0 38.7 4
8 -1 0 27.5 2.8
-8 1 -1 239.18 9.3
8 1 1 221.98 10.4
8 1 1 231.18 11.6
-8 -1 -1 214.48 10.8
-8 -1 -1 235.08 11.1
8 -1 1 237.68 8.9
8 1 2 124.19 7.4
8 1 2 134.69 8.3
-8 -1 -2 116.09 7.2
8 1 3 29.4 4.8
8 -1 3 36.9 3.9
-8 -1 -3 34.5 4.1
8 1 4 66.09 6.9
-8 -1 -4 61.19 5.7
8 -1 4 60.29 5.5
8 1 5 6.8 4.2
-8 -1 -5 6 2.9
8 -1 5 11.1 3.6
8 -1 5 11.1 3.3
8 1 6 333.17 18.2
8 -1 6 349.57 17.8
-8 -1 -6 353.46 16.2
8 -1 6 347.47 16.4
8 1 7 104.69 9.8
-8 -1 -7 117.29 7.9
8 -1 7 123.29 8.8
8 -1 7 125.19 10.1
8 1 8 3.7 4.7
-8 -1 -8 2.1 3
8 -1 8 -1.5 3.6
8 -1 8 -3.6 3.7
8 1 9 1 5
8 1 9 -1.4 4.7
-8 -1 -9 -2.5 2.6
8 -1 9 4.6 4.9
8 -1 9 -0.7 3.6
8 1 10 -2.8 4
8 1 10 6.9 5.4
8 -1 10 5 4.5
8 -1 10 5.5 5.3
8 1 11 1.3 5.4
8 1 11 8.7 6.7
8 -1 11 13.3 5.8
8 1 12 4.5 6.2
8 1 12 2 6.2
8 -1 12 5.5 6.2
8 -1 12 3.5 5.3
8 1 13 -1.1 6.7
8 1 13 -3.1 4.9
8 -1 13 -1.2 5.4
8 -1 13 5.8 5.7
-8 2 13 3.2 7.2
-8 -2 13 -4.6 6.1
-8 2 12 16.4 8.2
-8 -2 12 22.3 7.6
-8 2 11 29.2 8.8
-8 -2 11 27.7 7.7
-8 2 10 4.2 5.9
-8 -2 10 8.4 6
8 -2 -10 0.1 1.7
-8 2 9 9.7 6.3
8 2 -9 11.6 6
-8 -2 9 26.7 7
8 -2 -9 20.2 3.3
-8 2 8 8.2 5.6
8 2 -8 14.3 6.7
8 -2 -8 9.6 2.9
-8 -2 8 5.6 5.2
8 2 -7 4.6 4.4
-8 2 7 3.2 3.8
8 -2 -7 1.7 2.6
-8 -2 7 6.8 4.3
-8 2 6 12.3 4.7
8 2 -6 7 4.1
8 -2 -6 0.3 2.8
-8 -2 6 5.8 3.6
-8 2 5 588.44 27.8
8 2 -5 611.04 27.2
8 -2 -5 606.44 26.3
-8 -2 5 619.14 26.5
-8 2 4 550.34 25.3
8 2 -4 551.14 24.3
8 2 -4 563.24 22.3
8 -2 -4 582.24 24.9
-8 -2 4 546.05 21.7
-8 -2 4 567.94 24
8 2 -3 26.5 4
-8 2 3 22 4.4
8 -2 -3 22.5 4.7
-8 -2 3 28.1 4.3
-8 -2 3 20.6 3
-8 2 2 57.79 5.3
8 2 -2 72.89 6.1
8 2 -2 72.69 5.5
-8 -2 2 77.19 5.3
-8 -2 2 68.79 5.3
8 -2 -2 64.49 6.4
8 2 -1 42.1 4.3
8 2 -1 43.3 5.3
-8 2 1 43.9 3.9
-8 -2 1 44.6 4.6
-8 -2 1 45 4.6
8 2 0 225.68 12.1
8 2 0 209.88 10.1
-8 2 0 209.88 8.9
-8 -2 0 210.08 11.1
-8 -2 0 218.18 10.4
8 2 1 128.99 9.3
8 2 1 148.59 8
-8 -2 -1 158.28 9.2
-8 -2 -1 158.28 8.7
8 2 2 174.58 9.8
8 2 2 170.68 11.1
-8 -2 -2 174.88 10.2
8 2 3 60.99 6.8
8 2 3 83.69 7.8
-8 -2 -3 66.39 6.6
8 -2 3 70.19 4.2
8 2 4 29.5 6.4
8 -2 4 41.7 4.1
-8 -2 -4 41.7 5.7
8 2 5 566.44 28.6
8 -2 5 510.25 22.5
-8 -2 -5 525.95 23.7
8 -2 5 542.15 22.7
8 2 6 50.79 8
-8 -2 -6 48.2 5.6
8 -2 6 50.79 5.9
8 -2 6 59.89 7
8 2 7 253.97 16.5
8 -2 7 212.88 15.3
-8 -2 -7 224.98 13.1
8 -2 7 253.87 12.9
8 2 8 23.4 6.8
-8 -2 -8 23.4 4.6
8 -2 8 19.4 5.5
8 -2 8 29.9 5.6
8 2 9 358.56 22.4
8 -2 9 341.37 19.6
8 -2 9 345.47 18.3
-8 -2 -9 329.07 17.2
8 2 10 13.7 6.7
8 2 10 27.4 8.4
8 -2 10 15.2 5.4
-8 -2 -10 11.8 4.1
8 -2 10 6.9 4.8
8 2 11 2.1 5.6
8 2 11 -6.9 4.6
8 -2 11 5.8 4.9
8 -2 11 5.4 5
8 2 12 52.49 13.7
8 2 12 61.19 11.5
8 -2 12 31.9 7.6
8 -2 12 45.2 9.3
-8 3 12 6.8 6.4
8 -3 -12 -3.2 1.5
-8 -3 12 -5.4 5.8
-8 3 11 9.8 7.7
-8 -3 11 2.3 5.6
-8 3 10 10.4 6.9
-8 -3 10 6.2 6.1
8 3 -9 15.5 6.9
-8 -3 9 -1.6 4.5
-8 3 8 21.4 5.5
-8 3 8 22.9 6.9
8 3 -8 10.7 6.3
-8 -3 8 21.9 6
8 3 -7 78.19 9.1
-8 3 7 78.69 8.1
-8 3 7 76.59 10.1
8 -3 -7 61.69 7.5
-8 -3 7 75.19 8.6
8 3 -6 188.08 12.5
-8 3 6 185.48 13.4
-8 3 6 173.28 11.9
-8 -3 6 173.08 8.8
-8 -3 6 184.08 11.5
8 -3 -6 186.78 12.3
-8 3 5 2 3.6
-8 3 5 17.6 4.9
8 3 -5 8.9 3.5
8 -3 -5 11.1 4.7
-8 -3 5 16.9 4.2
-8 -3 5 6.8 2.7
8 3 -4 188.58 11.2
8 3 -4 210.68 11.3
8 -3 -4 207.68 13
-8 -3 4 184.08 10.4
-8 -3 4 195.78 11.5
8 3 -3 395.56 19
8 3 -3 428.26 19.9
-8 -3 3 420.36 19.1
-8 -3 3 441.06 19
8 -3 -3 421.96 21.4
8 3 -2 5.6 4
8 3 -2 3 2.7
8 -3 -2 4 4.2
-8 -3 2 5.3 3
-8 -3 2 0.9 3.3
8 3 -1 -1.6 3.3
8 3 -1 3.3 2.5
-8 -3 1 2.3 2.5
8 -3 -1 5.4 4.1
-8 -3 1 0.8 3.4
8 3 0 353.46 15.7
8 3 0 343.47 18.4
-8 -3 0 354.16 17.5
-8 -3 0 350.16 16.1
8 3 1 2.5 4.4
8 3 1 1.7 2.8
-8 3 -1 2.6 1
-8 -3 -1 2.4 3
-8 -3 -1 1.6 3.2
8 3 2 9.9 5.2
-8 3 -2 7.2 1.3
8 3 2 7 5.3
-8 -3 -2 12.8 5
8 3 3 13.4 4.3
8 3 3 12.1 5.8
-8 -3 -3 20.7 4.7
8 -3 3 15.5 2
8 3 4 214.48 13.5
8 3 4 231.48 15.4
8 -3 4 222.08 9.9
-8 -3 -4 220.98 13.3
8 3 5 -2.6 4.1
8 -3 5 3.8 2.3
-8 -3 -5 -1.6 3.2
8 3 6 3.5 5.2
8 -3 6 11.4 3.6
-8 -3 -6 8.2 4.1
8 -3 6 12.6 3.4
8 3 7 84.89 11.7
-8 -3 -7 71.99 7.4
8 -3 7 68.19 7
8 -3 7 77.59 7.4
8 3 8 4.2 5.5
8 -3 8 8.8 4.2
8 -3 8 6.7 4.1
-8 -3 -8 8.3 4.3
8 3 9 42.8 10
-8 -3 -9 37.8 6.4
8 -3 9 36.9 6.4
8 -3 9 35.9 6.6
8 3 10 1.9 5.6
8 -3 10 2.3 4.2
-8 -3 -10 3.7 3.6
8 -3 10 -7.7 4
8 3 11 9.6 6.8
8 3 11 18.5 8.3
-8 -3 -11 12.7 4.5
8 -3 11 15.2 5.6
8 -3 11 6.6 5.4
8 3 12 -3.1 5.5
8 3 12 -4.7 5.2
8 -3 12 5.6 4.6
8 -3 12 1.2 5
-8 4 12 -10 5.5
8 -4 -12 -1 2.4
-8 -4 12 13 7.6
-8 4 11 1.4 7.4
8 -4 -11 10.7 3.9
-8 -4 11 12.1 7
-8 4 10 11 8
-8 4 10 2.5 6
8 -4 -10 -2.6 3.5
-8 -4 10 2.2 5.2
-8 4 9 29.4 8.5
8 -4 -9 42.6 6.9
-8 -4 9 36.1 7.8
-8 4 8 116.89 12.3
8 4 -8 105.49 12.7
-8 4 8 95.59 10.2
-8 -4 8 108.89 9.1
8 -4 -8 100.69 10.6
-8 -4 8 118.09 11.1
-8 4 7 10.1 6.3
-8 4 7 11.5 5.3
8 4 -7 7 4.7
-8 -4 7 4.8 3.3
8 -4 -7 8.7 5.9
-8 -4 7 12.6 5.3
8 4 -6 -4.1 2.8
-8 4 6 2 5.3
8 -4 -6 5.2 4.5
-8 -4 6 7.7 3.2
-8 -4 6 2.7 3.9
8 4 -5 104.89 8.7
-8 4 5 115.99 12.8
8 -4 -5 106.29 10.3
-8 -4 5 121.29 9
-8 -4 5 119.29 8.6
8 4 -4 110.49 8.3
8 4 -4 106.79 9
8 -4 -4 107.29 10.3
-8 -4 4 108.09 8.2
-8 -4 4 107.09 8.3
8 4 -3 86.79 8.5
8 4 -3 78.79 6.8
8 -4 -3 94.89 9.8
-8 -4 3 75.89 7.8
-8 -4 3 67.29 6.9
8 4 -2 122.39 8
8 4 -2 95.09 9.6
8 -4 -2 108.19 10.8
-8 -4 2 99.69 9.4
-8 -4 2 106.39 8
8 4 -1 0.7 4.7
8 4 -1 6.1 3.2
8 -4 -1 -1.8 4.4
-8 -4 1 -2.2 3.5
-8 -4 1 0.4 4.1
-8 4 0 128.29 7.4
8 4 0 127.09 8.4
8 4 0 137.59 11.5
-8 -4 0 125.19 9.4
-8 -4 0 130.29 10.9
8 -4 0 113.39 11.1
8 4 1 15 4.2
8 4 1 18.9 6.1
-8 4 -1 14 2.3
-8 -4 -1 8.5 4.4
-8 -4 -1 10.2 4.8
8 4 2 153.78 12.9
8 4 2 156.58 10.3
-8 4 -2 154.68 6.9
-8 -4 -2 163.58 12.1
8 4 3 3106.39 120.49
8 4 3 3132.89 116.79
-8 4 -3 2935.21 112.49
8 -4 3 3193.48 112.19
-8 -4 -3 3049.2 117.99
8 4 4 235.78 16.8
8 4 4 221.58 14
-8 4 -4 225.68 11.1
8 -4 4 249.97 10.4
-8 -4 -4 225.38 14.8
8 4 5 99.49 9.2
8 4 5 97.69 10.9
-8 -4 -5 94.99 9.3
8 -4 5 90.79 6.1
8 4 6 69.89 11.2
-8 -4 -6 77.79 8.5
8 -4 6 76.79 6.2
8 4 7 18.5 7.7
8 -4 7 23.3 4.4
-8 -4 -7 13.4 5.3
8 4 8 16.8 7.4
8 -4 8 21.6 5.2
8 -4 8 14.4 4.7
8 4 9 6.6 6.3
-8 -4 -9 -3.8 3.9
8 -4 9 0.8 4.1
8 -4 9 4.3 4.1
8 4 10 2.6 6.4
-8 -4 -10 5.8 4.7
8 -4 10 6.7 4.8
8 -4 10 13.8 5.1
8 -4 11 14.3 5.7
8 -4 11 1.3 4.9
8 4 12 6.8 7.8
8 4 12 9.4 6.8
8 -4 12 -2.4 4.5
8 -4 12 12.5 6
-8 5 12 7.1 9.4
8 -5 -12 2 4
-8 -5 12 4.8 6.8
-8 5 11 11.7 6.8
-8 -5 11 -2.7 5.5
8 -5 -11 -0.6 4.6
-8 5 10 11.6 8
-8 -5 10 21.7 7.3
8 -5 -10 3.2 5
-8 5 9 132.69 16.9
-8 5 9 130.99 16.1
8 -5 -9 90.79 11.3
8 5 -8 50.89 9.4
8 -5 -8 44.7 10.2
-8 -5 8 52.39 8.4
-8 5 7 128.39 13.3
8 5 -7 106.39 11.3
-8 -5 7 119.79 10.8
8 -5 -7 131.59 13.4
-8 -5 7 109.99 9.2
8 5 -6 76.79 8.5
-8 5 6 80.09 10.7
-8 -5 6 70.49 8.4
8 -5 -6 83.89 11.6
-8 -5 6 64.59 8.2
-8 5 5 20 6.9
8 5 -5 28 5.7
8 -5 -5 24.9 7
-8 -5 5 33.9 5.8
8 5 -4 313.27 18
8 5 -4 315.87 16.2
-8 -5 4 315.97 16
-8 -5 4 309.87 17.4
8 -5 -4 282.47 19.8
8 5 -3 90.89 10.1
8 5 -3 90.59 7.6
8 -5 -3 88.39 10.9
-8 -5 3 76.29 8.6
-8 -5 3 84.39 7.6
8 5 -2 19.8 4.1
8 -5 -2 29.2 7.3
-8 -5 2 23.2 5
-8 -5 2 31.5 6.6
8 5 -1 51.49 6.1
-8 5 1 54.39 6
8 5 -1 35.3 7.7
-8 -5 1 63.49 8.8
8 -5 -1 69.79 10.1
-8 -5 1 50.09 6.3
8 5 0 11 3.6
8 5 0 8.2 5.5
-8 5 0 15.4 3.4
8 -5 0 13.5 5.9
-8 -5 0 20.4 5.4
-8 -5 0 12.1 5.1
-8 5 -1 76.99 5.1
8 5 1 77.59 7.3
8 5 1 61.19 10.2
-8 -5 -1 80.59 9.7
8 -5 1 75.19 9.3
-8 -5 -1 78.39 8.9
8 5 2 33.2 5.9
8 5 2 28.6 8.2
-8 5 -2 26.9 3
-8 -5 -2 36.6 7.6
8 -5 2 27.5 7
-8 5 -3 381.76 16.2
8 5 3 413.66 24.8
8 5 3 400.26 20.3
8 -5 3 385.06 16.5
-8 -5 -3 404.56 22.4
8 5 4 29.9 8.4
-8 5 -4 33.7 4.1
8 5 4 27.7 5.7
8 -5 4 36.2 3.8
-8 -5 -4 34.9 7
8 5 5 13.2 6.7
-8 5 -5 5.1 3
8 5 5 -0.2 3.7
-8 -5 -5 7.8 4.9
8 -5 5 3.1 2.4
8 5 6 1.8 4.6
8 5 6 11.5 7.4
8 -5 6 8.6 3.2
-8 -5 -6 5.3 5.1
8 5 7 24.7 8.8
8 -5 7 9.3 3.6
-8 -5 -7 8 5.4
8 5 8 42.9 9.9
8 -5 8 52.49 6.8
-8 -5 -8 50.29 8.7
8 5 9 27.8 8.9
8 -5 9 19.9 5.4
8 -5 9 28.9 5.9
8 5 10 5.4 7.5
8 -5 10 -7.9 4.3
8 -5 10 2.1 4.2
8 5 11 23 10.5
8 -5 11 25.3 6.7
8 -5 11 25.4 6.1
-8 6 11 13.3 9.5
-8 -6 11 2.6 6.1
8 -6 -11 1.6 5.4
-8 6 10 25 8.8
8 -6 -10 15.3 6.8
-8 -6 10 33 7.9
-8 -6 10 22.5 3.6
-8 6 9 -3.2 5.6
-8 6 9 -0.8 6.7
-8 -6 9 -1.9 4.7
8 -6 -9 9 6.3
-8 6 8 108.09 12.5
-8 -6 8 94.39 11.2
-8 6 7 7.3 6.2
8 6 -7 2.6 4.7
8 -6 -7 -3.7 5.9
-8 -6 7 6 5.1
-8 -6 7 0 4.4
-8 6 6 3 6.4
-8 -6 6 0.6 4.3
8 -6 -6 5.5 6.3
-8 -6 6 1.3 4.9
8 6 -5 13.8 4.8
-8 6 5 11.5 7.2
-8 -6 5 9.4 5.5
-8 -6 5 9.1 4.8
8 -6 -5 14.4 7.1
8 6 -4 -4.6 2.9
8 6 -4 -8 4
-8 -6 4 -6.3 4.4
-8 -6 4 -2.3 3.6
8 -6 -4 0.4 5.6
8 6 -3 6.9 5.8
8 6 -3 -2 3
-8 -6 3 -1.2 4
-8 -6 3 -1.1 3.6
8 -6 -3 0.1 5.7
-8 6 2 84.49 8.2
8 6 -2 79.59 11.2
8 6 -2 63.49 7.3
-8 -6 2 96.59 10.4
-8 -6 2 74.29 8
8 -6 -2 68.89 11
8 6 -1 64.09 6.5
-8 6 1 68.79 8
8 6 -1 73.89 10.8
8 -6 -1 76.29 11.5
-8 -6 1 83.69 10.2
-8 -6 1 60.89 7.8
8 6 0 70.89 11.2
-8 6 0 45.1 5.4
8 6 0 43 6.2
-8 -6 0 43.7 7.7
-8 -6 0 56.29 9.4
8 -6 0 59.09 10.1
8 6 1 2.8 3.4
8 6 1 5.8 6.8
-8 6 -1 -0.1 2.3
-8 -6 -1 2.1 4.1
8 -6 1 -4.1 4.2
-8 -6 -1 2.2 5
8 6 2 19 7.9
8 6 2 18.3 5.2
-8 6 -2 21 3.1
8 -6 2 22.8 6.7
-8 -6 -2 16.3 6.6
8 6 3 27.3 6.2
8 6 3 15 7.7
-8 6 -3 19.7 3.2
-8 -6 -3 21.4 7
8 -6 3 12.1 6.7
8 -6 3 23.7 4.2
-8 6 -4 34.4 4.4
8 6 4 21.7 9.2
8 -6 4 37.7 4.8
-8 -6 -4 31.5 10
8 -6 4 37.7 9.2
8 6 5 110.19 10.5
8 6 5 101.19 15.2
-8 6 -5 110.39 7.9
-8 -6 -5 87.19 10.5
8 -6 5 107.19 13.1
8 -6 5 95.69 7.3
-8 6 -6 35.8 8
8 6 6 29.2 10.7
-8 -6 -6 14.4 7.2
8 -6 6 26 8.4
8 -6 6 33.6 4.9
8 6 7 6.2 7.5
8 -6 7 9.3 9.2
8 -6 7 0.9 3.6
8 -6 8 14 8.9
8 -6 8 17.1 4.5
8 6 9 9.3 8.6
8 -6 9 21.6 5
8 -6 9 23.7 11.2
8 6 10 4.3 8.3
8 -6 10 -1 4
8 -6 10 2.7 9
8 -6 10 2.3 4.7
8 6 11 12.9 9.5
8 -6 11 1.5 4.7
8 -6 11 6.7 5.5
-8 7 10 -4.7 6.3
-8 -7 10 11.7 6.6
-8 7 9 102.19 17.4
-8 7 9 76.49 15.8
-8 -7 9 70.29 10.3
-8 7 8 39 12.9
8 -7 -8 25.2 12.2
-8 -7 8 19.7 6.6
-8 7 7 11 10
-8 -7 7 10.7 5.4
-8 -7 7 12.3 7.8
8 -7 -7 18.1 7.9
8 7 -6 9.8 4.8
-8 7 6 0.7 6.7
8 -7 -6 9.6 8.8
-8 -7 6 7.3 5.6
-8 -7 6 -3.9 4.6
8 7 -5 49.7 7.9
-8 -7 5 38.9 7.6
8 -7 -5 46.2 11.1
-8 -7 5 75.49 10.5
8 7 -4 10.3 6.9
8 7 -4 6.9 4.4
-8 -7 4 9.1 6.4
-8 -7 4 16.3 5.8
8 -7 -4 20.3 8.6
8 7 -3 78.49 12
-8 7 3 77.29 9.5
8 7 -3 71.29 8
-8 -7 3 64.49 8.6
8 -7 -3 73.29 11.7
-8 -7 3 89.69 11
8 7 -2 46.8 9.6
-8 7 2 57.59 7.9
8 7 -2 43 6.5
-8 -7 2 54.49 9.8
-8 -7 2 39.8 7.3
8 7 -1 -12.6 5.1
-8 7 1 -4.8 3.2
8 7 -1 -0.2 3.6
-8 -7 1 3.9 5.8
-8 -7 1 1.1 5
8 7 0 8 7.6
-8 7 0 12.6 3.9
8 7 0 2.5 3.9
8 -7 0 2.2 10.2
-8 -7 0 3.9 5.2
-8 -7 0 6.5 5.8
-8 7 -1 30.7 4.4
8 7 1 38.3 11.4
8 7 1 25.7 5.6
-8 -7 -1 16.2 11.7
8 7 2 17.1 8.4
-8 7 -2 32.7 4.2
-8 -7 -2 19.9 7.4
8 -7 2 10.6 11.3
8 7 3 -1.9 6.9
8 7 3 3.9 4.2
-8 7 -3 -4.2 2.1
8 -7 3 -5.5 5.7
-8 -7 -3 -1.8 5.9
-8 7 -4 0.7 2.5
8 7 4 6.2 8.1
8 7 4 -0.1 5
8 -7 4 2.4 3.8
-8 -7 -4 -3.6 5.7
8 -7 4 -3.5 6.6
-8 7 -5 220.38 12.7
8 7 5 237.78 21
8 -7 5 219.18 20.7
8 -7 5 212.88 12.9
-8 7 -6 7.8 4.3
8 -7 6 5.4 3.8
8 -7 6 5.7 7.5
-8 7 -7 5.2 5.6
8 7 7 2.6 8.1
8 -7 7 12.6 9.7
8 7 8 0.6 8.1
8 -7 8 7.6 4.2
8 7 9 10.6 11.3
8 -7 9 1.4 4.1
8 7 10 -7.7 8.8
8 -7 10 1.3 5.2
8 -7 10 3.3 4.7
-8 8 10 6.7 6.9
-8 -8 10 31.1 7.9
-8 -8 9 9.9 6.4
-8 -8 8 4.2 5.7
-8 -8 7 0.6 4.9
-8 -8 6 22.4 9.6
-8 -8 6 -4.6 4.4
8 8 -5 42.3 7.6
-8 -8 5 41.7 8
-8 8 4 11.8 6.5
8 8 -4 16.6 5.5
-8 -8 4 9.8 6
-8 -8 4 15.8 7.3
-8 8 3 9.4 5.3
8 8 -3 4.8 4.5
8 8 -3 13.3 7.6
-8 -8 3 4.1 6.6
-8 -8 3 3.7 5.6
-8 8 2 199.68 13.7
8 8 -2 212.68 19.5
8 8 -2 169.48 13.3
8 -8 -2 196.38 20.7
-8 -8 2 189.58 15.4
-8 -8 2 229.88 18.6
8 8 -1 -4.4 4.2
8 8 -1 11.1 8.5
-8 8 1 -0.3 3.9
8 -8 -1 6.9 8.6
-8 -8 1 -1.7 6.1
-8 -8 1 11.7 7.8
8 8 0 -2.6 7.4
-8 8 0 3.7 3.9
8 8 0 -4.7 4.8
-8 -8 0 -5.3 5.5
8 -8 0 19.5 9.9
-8 -8 0 8.5 7.4
8 8 1 56.39 12.9
8 8 1 65.79 9.1
-8 8 -1 54.89 6.5
-8 -8 -1 54.69 10.5
8 -8 1 81.99 15.9
-8 8 -2 11.2 3.7
8 8 2 14.8 5.6
8 8 2 9.9 9.9
8 -8 2 19.7 9.1
8 8 3 138.29 20.7
-8 8 -3 127.79 9.3
8 8 4 2.3 9.3
-8 8 -4 4.4 3.3
8 -8 4 -0.5 4.1
-8 8 -5 1.6 3.1
8 8 5 1.6 8.2
8 -8 5 5 4.5
-8 8 -6 12.1 4.8
8 8 6 2.8 9.6
8 8 7 6.2 10
8 -8 7 11.5 5.4
8 8 8 28.2 15.7
8 -8 8 34.4 6.7
8 8 9 10.5 10
8 -8 9 24.4 6.4
-8 -9 8 -0.2 5.4
-8 -9 7 2.1 6
-8 -9 6 27.7 7.9
-8 -9 5 0.4 6
-8 9 4 11.5 8.5
-8 -9 4 46.1 9.2
-8 9 3 17.8 6.2
8 9 -3 53.89 12.6
-8 -9 3 38 8.1
8 9 -2 102.39 17.9
-8 9 2 76.79 9.5
-8 -9 2 82.29 12.1
-8 9 1 47.9 7.4
-8 -9 1 54.99 10.3
-8 9 0 -0.2 3.8
8 9 0 -11.3 7.7
-8 9 -1 18.3 4.8
8 9 1 46 12.8
-8 9 -2 10 3.8
8 9 2 25.9 12
8 9 3 11.3 9
-8 9 -3 9.4 3.6
-8 9 -4 31.4 5.8
8 9 4 56.99 14.8
8 9 5 3.1 7.9
-8 9 -5 -0.2 3.8
8 -9 5 -1.6 4.6
8 9 6 33.1 15
8 -9 6 38.1 7.6
8 9 7 60.79 20.7
8 9 8 69.39 20.4
8 -9 8 52.29 10.4
-8 -10 7 8 6.7
-8 -10 6 -7.9 5.4
-8 -10 5 -0.3 5.9
-8 -10 4 45.9 9.8
-8 -10 3 1 6.5
8 10 -2 14.4 10.9
-8 10 2 18.4 6.2
-8 -10 2 9.6 8.3
8 10 -1 3.9 11.1
-8 -10 1 -4.8 7
-8 10 0 9 5.1
8 10 0 10.9 9.2
-8 10 -1 18.6 4.9
8 10 1 23.6 13.5
-8 10 -2 1.2 3.6
8 10 2 -14.4 8.4
8 10 3 10 8.6
-8 10 -3 -0.7 3.5
8 10 4 59.09 19.3
-8 10 -4 31.4 6.2
8 10 5 5.6 10.7
-8 10 -5 16 5.5
8 10 6 -3.4 12.7
-8 -11 5 3.2 7.2
-8 -11 4 3.3 7.9
-8 -11 3 0.6 8
8 11 -2 32.6 17.4
-8 -11 2 56.89 13
8 11 -1 24.4 12.3
-8 11 1 38.5 8.8
8 11 0 14.4 12.2
-8 11 0 8.9 5.1
8 11 1 4.9 9.8
-8 11 -2 24.6 5.8
8 11 2 41.6 17.4
-8 11 -3 41.8 7
8 11 3 32.2 16.5
-8 11 -4 30.6 6.3
8 11 5 3.1 14.5
8 12 1 -6.6 13.4
-8 12 -1 12.7 6.3
-9 0 12 20.3 8.1
-9 0 11 1.2 5.5
-9 0 10 -3.6 4.1
-9 0 9 3.4 4.7
-9 0 8 78.89 10.2
-9 0 7 0.6 3.5
-9 0 6 38.4 6.3
9 0 -6 46.7 7.3
-9 0 5 -0.3 3.3
9 0 -5 0.9 3.2
9 0 -4 106.79 5.3
-9 0 4 105.69 8
9 0 -4 113.29 8.7
9 0 -4 104.29 4.4
9 0 -3 1 1
9 0 -3 -0.7 2.2
-9 0 3 -2.3 2.1
-9 0 2 403.16 17.4
9 0 -2 432.76 16.3
9 0 -2 418.36 17.8
-9 0 1 0.2 2
9 0 -1 0.8 1.7
9 0 -1 2.9 1.9
-9 0 0 9.8 2.4
9 0 0 9.2 2.6
9 0 0 7.5 2.1
-9 0 -1 0.7 1.8
9 0 1 -0.7 1.6
-9 0 -1 -0.2 2
9 0 1 -3.5 2
9 0 2 149.29 8.2
-9 0 -2 159.48 8
9 0 2 158.98 7.8
-9 0 -3 0.7 2
9 0 3 -0.1 2.3
9 0 4 1324.37 51.79
-9 0 -4 1342.77 51.19
-9 0 -5 1.5 2.2
9 0 5 -2.3 2.7
9 0 6 28.5 5.6
9 0 7 -6.1 2.7
9 0 8 295.87 18.3
9 0 8 283.87 16.8
9 0 9 1.3 4.4
9 0 9 0.6 4.5
9 0 10 3.3 4.6
9 0 10 7 6
9 0 11 -6.2 4.4
9 0 11 6.3 5.5
9 0 12 56.89 10.7
9 0 12 65.19 11.9
9 0 13 -10.7 5.1
9 0 13 -11.7 4.7
-9 -1 13 2.8 7.5
-9 1 12 1.5 6.1
-9 -1 12 13.5 7.5
-9 1 11 0.9 5.4
-9 -1 11 14.2 7.2
-9 1 10 11.2 5.9
-9 -1 10 8.9 6
-9 1 9 39.8 8.1
-9 -1 9 22.6 6.2
-9 1 8 40.6 7.8
9 1 -8 39.7 8
-9 -1 8 32.6 6.4
-9 1 7 37.2 6.8
9 1 -7 32.3 7
-9 -1 7 31.7 6.1
9 -1 -7 31.9 2.7
-9 1 6 144.89 10.4
9 1 -6 136.89 10.8
-9 -1 6 144.79 10.4
9 -1 -6 140.49 7.2
-9 1 5 877.21 37.6
9 1 -5 919.51 38.3
9 -1 -5 882.71 34.9
-9 -1 5 919.11 37.3
9 1 -4 71.29 7
-9 1 4 67.79 6.9
9 -1 -4 60.49 5.7
-9 -1 4 74.99 6.3
9 -1 -4 70.99 7.6
9 1 -3 2.4 2.2
-9 1 3 2.7 2.7
9 1 -3 1.9 1.8
-9 -1 3 0.7 2.4
9 -1 -3 2.2 2.9
-9 -1 3 0.9 1.1
9 1 -2 22.8 3.4
-9 1 2 20 3.3
9 1 -2 23.6 2.9
9 -1 -2 19.8 3.6
-9 -1 2 20.8 3.3
-9 -1 2 20.5 2.4
9 1 -1 157.48 8.3
-9 1 1 164.88 7.6
9 1 -1 155.38 7.9
9 -1 -1 150.98 7.9
-9 -1 1 155.38 7.6
-9 -1 1 162.98 8.1
9 1 0 2.1 2.1
9 1 0 3.8 2.8
-9 1 0 0.3 1.3
-9 -1 0 1.3 2.2
-9 -1 0 1.2 2.3
9 -1 0 0.1 1.3
-9 1 -1 0.1 1.3
9 1 1 1.2 2.7
9 1 1 1 1.9
9 -1 1 2.3 1.1
-9 -1 -1 -1.5 2.2
-9 -1 -1 0.6 2.3
9 1 2 73.49 5.5
9 1 2 69.69 6
-9 -1 -2 72.59 5.4
9 -1 2 71.39 5
9 -1 2 76.19 4.1
9 1 3 166.68 10.5
9 1 3 177.88 10.2
9 -1 3 177.38 9.2
-9 -1 -3 176.98 9.6
9 1 4 141.19 10
9 -1 4 147.59 8.4
-9 -1 -4 139.69 9.6
9 1 5 6.5 4.3
9 -1 5 18 3.8
-9 -1 -5 13.5 3.4
9 1 6 40.8 6.5
9 -1 6 42.9 5.5
-9 -1 -6 40.7 4.8
9 -1 6 42.9 6.3
9 1 7 48.5 7.8
9 -1 7 39.4 6.4
9 -1 7 59.19 7
-9 -1 -7 47.6 5.8
9 1 8 2.4 4.3
-9 -1 -8 -0.7 2.8
9 -1 8 3.4 4.5
9 -1 8 2.6 4.1
9 1 9 21 6.7
9 1 9 25.1 7.1
9 -1 9 25.1 5.8
-9 -1 -9 16.2 4.1
9 -1 9 37.5 7.5
9 1 10 122.79 13.4
9 1 10 101.89 11.6
9 -1 10 111.49 10.6
9 -1 10 113.79 12.1
9 1 11 5.4 6.1
9 1 11 5.1 5.5
9 -1 11 6.7 6.1
9 -1 11 7.2 5
9 1 12 -5.6 5.5
9 1 12 4.8 6.4
9 -1 12 6.3 5.5
9 -1 12 12.2 6.6
9 1 13 17.6 7.7
9 -1 13 -6.7 4.8
-9 2 13 11.1 7.6
-9 -2 13 6.1 8.2
-9 2 12 59.79 12.9
-9 -2 12 44.1 10.2
-9 2 11 10.1 6.8
-9 -2 11 3.8 6.2
-9 2 10 10.4 6.2
-9 -2 10 -2.5 4.8
9 -2 -10 1.7 1.6
-9 2 9 17.2 6.1
9 2 -9 18.9 6.8
-9 -2 9 24.4 7
9 -2 -9 29 3.5
9 2 -8 16.8 6.5
-9 2 8 24.4 6.6
9 -2 -8 29.5 4.2
9 2 -7 43.5 7.6
-9 2 7 48.2 8.2
9 -2 -7 42.3 5.1
-9 -2 7 40.9 6.3
9 2 -6 11.5 4.2
-9 2 6 7.2 4.5
-9 -2 6 4.2 3.5
9 -2 -6 2.7 3
-9 2 5 -3 2.7
9 2 -5 -0.4 3
9 -2 -5 2.1 3.1
-9 -2 5 -0.8 2.9
9 2 -4 539.45 23.8
-9 2 4 554.54 24.8
9 2 -4 520.55 21.8
9 -2 -4 553.34 24.3
-9 -2 4 525.35 21
-9 -2 4 573.54 25.1
9 2 -3 1173.68 45.5
-9 2 3 1143.09 46.4
9 -2 -3 1171.68 47.1
-9 -2 3 1175.28 44.4
-9 -2 3 1226.78 45.9
9 2 -2 56.99 5.7
9 2 -2 59.89 5
-9 2 2 50.99 5.1
-9 -2 2 60.79 4.9
-9 -2 2 48.5 4.6
9 2 -1 128.89 8.6
-9 2 1 116.79 6.6
9 2 -1 119.69 7
-9 -2 1 131.49 7.6
-9 -2 1 129.99 7.4
9 2 0 110.39 8.3
-9 2 0 114.59 5.3
9 2 0 109.19 6.7
-9 -2 0 111.59 7.5
-9 -2 0 116.39 6.9
9 2 1 50.39 6.4
9 2 1 54.89 5
-9 -2 -1 62.09 5.8
-9 -2 -1 61.89 5.8
9 2 2 6 3.9
9 2 2 4.1 2.8
-9 -2 -2 5.2 3.2
9 2 3 19.3 4.5
9 2 3 20 4.9
-9 -2 -3 14.2 5.4
9 -2 3 12.9 2.2
9 2 4 0.6 4.1
9 -2 4 1.5 2.2
-9 -2 -4 5.1 3.2
9 2 5 650.33 31.3
-9 -2 -5 693.33 29.2
9 -2 5 686.53 28
9 -2 5 676.63 29.6
9 2 6 22.4 6.2
-9 -2 -6 25.1 4.6
9 -2 6 18 4.2
9 -2 6 22.5 4.3
9 2 7 26.2 6.6
9 -2 7 23.6 4.8
-9 -2 -7 15.3 4.3
9 2 8 -1.5 4.5
-9 -2 -8 4.7 3.1
9 -2 8 -1.7 3.6
9 -2 8 3.2 4.1
9 2 9 470.95 27.5
-9 -2 -9 475.45 22.6
9 -2 9 505.15 23.9
9 -2 9 459.75 24.4
9 2 10 14.4 6.7
9 -2 10 1.6 4.5
9 -2 10 9.3 4.9
9 2 11 9.2 6.8
9 2 11 -3.2 5.6
9 -2 11 -3.6 4
9 -2 11 0.9 4.9
-9 -2 -11 0.2 3.3
9 2 12 75.19 13.3
9 2 12 61.29 12
9 -2 12 64.59 10
9 -2 12 81.79 11
-9 3 12 14.8 7
-9 -3 12 -0.2 6.3
9 -3 -12 0 1.3
-9 3 11 17.2 7.3
9 -3 -11 30.6 4.1
-9 -3 11 31.9 8.8
-9 3 10 0.7 5.6
-9 -3 10 6.7 6.4
9 -3 -10 8 4.6
-9 3 9 7.6 7
-9 -3 9 -4.2 4.5
9 -3 -9 2.1 4.5
-9 3 8 96.89 12.4
9 3 -8 82.59 11.6
-9 -3 8 86.19 10
9 -3 -8 98.69 8.6
-9 3 7 35.4 7.8
9 3 -7 43.1 7.7
9 -3 -7 42.4 6.9
-9 -3 7 49.7 7.6
9 3 -6 2.8 3.5
-9 3 6 7.7 4.6
-9 -3 6 4.7 3.3
9 -3 -6 5.1 3.8
-9 -3 6 5.2 2.1
-9 3 5 67.99 8.5
9 3 -5 60.89 6.9
-9 -3 5 62.69 6.8
-9 -3 5 58.79 5
9 -3 -5 66.79 7.6
9 3 -4 199.28 11.2
9 3 -4 207.28 11.3
-9 -3 4 190.58 11.2
-9 -3 4 180.58 10.1
9 -3 -4 197.98 12.8
-9 3 3 575.64 26.3
9 3 -3 651.33 25.9
9 3 -3 576.64 26.1
9 -3 -3 605.44 27.9
-9 -3 3 608.24 25.6
-9 -3 3 592.14 25.4
9 3 -2 27.1 4.7
9 3 -2 35 5.9
-9 -3 2 30.5 4.3
9 -3 -2 33.6 6.3
-9 -3 2 35.4 5.3
9 3 -1 27.4 4.1
9 3 -1 31.8 5.9
-9 -3 1 30.7 4.9
-9 -3 1 36.5 4.8
9 3 0 60.89 7.6
9 3 0 54.29 5.1
-9 -3 0 52.89 6.5
-9 -3 0 60.09 6
9 3 1 121.29 8.1
9 3 1 119.79 10.4
-9 -3 -1 123.69 9
-9 -3 -1 109.29 9.1
9 3 2 281.37 16.7
9 3 2 267.47 14.1
-9 -3 -2 257.77 14.5
9 3 3 7.3 4
-9 -3 -3 4.6 4
9 -3 3 3.9 1.3
9 3 4 74.89 9.8
9 3 4 69.79 7.3
9 -3 4 65.89 4.3
-9 -3 -4 72.89 7.6
9 3 5 24.1 6.7
-9 -3 -5 24 5
9 -3 5 20.4 3.3
9 3 6 47.4 8.7
9 -3 6 41.5 5
-9 -3 -6 38.3 6.1
9 -3 6 41.9 5.5
9 3 7 3.8 5.4
-9 -3 -7 3.3 3.3
9 -3 7 1.5 3.3
9 -3 7 -0.3 3
9 3 8 10.5 6.7
9 -3 8 14 4.5
-9 -3 -8 19.5 5
9 -3 8 16.7 5
9 3 9 12.8 6.9
9 -3 9 12.3 4.8
9 -3 9 11.4 4.8
-9 -3 -9 14.9 5.7
9 3 10 -6 4.8
9 -3 10 3.9 4.6
9 -3 10 -3 4.2
-9 -3 -10 7.8 4
9 3 11 20.8 8.3
-9 -3 -11 30.4 7.2
9 -3 11 19.8 6.6
9 -3 11 27.2 6.8
9 3 12 9.9 7.3
9 -3 12 0.1 5.3
9 -3 12 4.3 4.8
9 -4 -12 19.3 3.8
-9 -4 12 0.3 5.9
-9 4 11 -7.5 5.9
-9 -4 11 -8.4 5.1
9 -4 -11 2.5 3.4
-9 4 10 43 10.2
9 -4 -10 32.5 5.8
-9 -4 10 47.6 9.3
-9 4 9 73.09 11.3
9 -4 -9 104.39 9.8
-9 -4 9 99.09 11.7
9 4 -8 96.29 10.8
-9 4 8 66.49 10.7
-9 -4 8 57.49 8.6
-9 -4 8 64.59 6.5
9 -4 -8 65.19 9.5
-9 4 7 12.3 6.1
9 4 -7 11.7 6.1
-9 -4 7 1 2.7
-9 -4 7 3.1 4.1
9 -4 -7 -2.5 4.4
-9 4 6 4.2 5.1
9 4 -6 7.2 4.1
9 -4 -6 13 6.3
-9 -4 6 9.5 3.4
-9 -4 6 6.2 3.9
9 4 -5 -0.2 2.7
-9 -4 5 2.3 3
-9 -4 5 2.3 3
9 -4 -5 3 4.6
9 4 -4 -3.1 3
9 4 -4 3.8 2.9
-9 -4 4 2.7 3.2
-9 -4 4 3.2 3.2
9 -4 -4 0.7 4.3
9 4 -3 2.5 2.9
9 4 -3 -4 3.5
-9 -4 3 -1.6 3.4
9 -4 -3 2.5 4.6
-9 -4 3 -5.1 2.4
9 4 -2 107.69 7.8
9 4 -2 96.39 9.9
-9 -4 2 99.09 9.2
-9 -4 2 117.39 9.3
9 -4 -2 113.49 11
9 4 -1 324.47 18.7
9 4 -1 320.47 15.4
9 -4 -1 306.67 18.4
-9 -4 1 323.57 17
-9 4 0 228.38 10.7
9 4 0 224.38 11.8
9 4 0 234.48 15.8
-9 -4 0 229.68 14
-9 -4 0 205.78 14
9 -4 0 229.58 15.5
9 4 1 0.5 3.2
-9 4 -1 4.6 1.7
-9 -4 -1 2.4 4.5
-9 -4 -1 -0.3 3.6
9 4 2 100.19 10.5
-9 4 -2 72.99 3.8
9 4 2 83.89 7.4
-9 -4 -2 73.49 8.7
9 4 3 2046.3 79.09
9 4 3 2108.29 83.39
-9 4 -3 1955.2 74.69
9 -4 3 2074.49 74.49
-9 -4 -3 2010 80.49
9 4 4 17.9 5
9 4 4 8.6 5.9
-9 -4 -4 27.1 5.6
9 -4 4 15 2.4
9 4 5 57.99 8.2
9 4 5 58.79 10.2
9 -4 5 53.39 4.5
-9 -4 -5 61.49 8.3
9 4 6 93.59 12.8
-9 -4 -6 112.19 10.1
9 -4 6 99.49 6.9
9 4 7 3.7 6.2
9 -4 7 6.2 3.3
-9 -4 -7 0.7 4.3
9 4 8 16.6 7.3
9 -4 8 -2.1 3.3
9 -4 8 6.6 4.4
-9 -4 -8 2.3 4.2
9 4 9 32 9.1
-9 -4 -9 39.6 6.7
9 -4 9 31.4 5.9
9 -4 9 33.3 6.4
9 4 10 12.7 7.7
9 -4 10 12.5 5.6
9 -4 10 19.4 5.3
9 4 11 5.8 7.2
9 -4 11 0.2 4.8
9 -4 11 0.5 4.3
9 4 12 -4.9 7.9
9 -4 12 -7.4 4.5
9 -4 12 -1.6 4.7
-9 5 12 6.2 10.1
-9 -5 12 -4.3 5.9
9 -5 -12 -6.5 3.7
-9 5 11 -4.4 5.4
-9 -5 11 0.2 5.6
9 -5 -11 4.8 4.8
-9 5 10 -2.2 7
9 -5 -10 10 5.6
-9 -5 10 7.4 5.7
-9 5 9 17.4 7.2
9 -5 -9 23.7 7.1
-9 -5 9 14.1 6.5
9 5 -8 26 7.2
9 -5 -8 26.8 7.8
-9 -5 8 43.1 7.7
-9 5 7 11.1 6.8
9 5 -7 8.8 5.2
9 -5 -7 13.7 6.6
-9 -5 7 16.1 5.7
-9 -5 7 24 6.3
9 5 -6 16.7 5.1
-9 -5 6 34.8 6.4
-9 -5 6 20.8 5.4
9 -5 -6 27.9 7.9
9 5 -5 5.6 3.4
9 -5 -5 5.2 5.3
-9 -5 5 7.8 4.3
9 5 -4 219.28 12.7
9 5 -4 231.48 14.8
-9 -5 4 212.78 12.8
9 -5 -4 225.98 16.5
-9 -5 4 208.08 13.7
9 5 -3 19.9 4.5
9 5 -3 18.3 5.7
9 -5 -3 12.1 6.5
-9 -5 3 22.5 4.8
-9 -5 3 12.3 5.3
9 5 -2 26.3 4.8
-9 -5 2 24.7 6.4
9 -5 -2 18.3 6.7
-9 -5 2 21 5.1
9 5 -1 17.7 7
9 5 -1 22.8 4.2
9 -5 -1 31.9 7.2
-9 -5 1 32.4 5.9
-9 -5 1 25.1 6.4
-9 5 0 8.5 3
9 5 0 6.9 3.2
9 5 0 6.7 5.8
-9 -5 0 1.7 3.7
9 -5 0 -3.1 4.3
-9 -5 0 14.6 5.2
9 5 1 14.5 6.5
-9 5 -1 16.1 2.6
9 5 1 16.2 4.4
9 -5 1 1.5 4.6
-9 -5 -1 10.6 4.9
-9 -5 -1 22.5 6
9 5 2 84.89 7.8
9 5 2 100.79 11.8
-9 -5 -2 67.29 9.5
9 5 3 136.49 14.1
9 5 3 114.09 9.4
-9 5 -3 106.99 6
9 -5 3 125.49 6.6
-9 -5 -3 115.19 11.3
-9 5 -4 76.49 5.5
9 5 4 73.79 11.6
9 5 4 75.19 8.9
-9 -5 -4 65.19 9.8
9 -5 4 69.39 4.8
9 5 5 0.2 4.8
9 5 5 -0.9 6
-9 -5 -5 3.3 4.5
9 -5 5 -1.9 2
9 5 6 5.6 7.1
9 5 6 5.4 5.5
9 -5 6 1.2 2.6
9 5 7 5 6.7
9 -5 7 10.2 3.6
-9 -5 -7 12 5.5
9 5 8 1.6 6
-9 -5 -8 -0.4 5
9 -5 8 -5.4 3.1
9 5 9 13 8.6
9 -5 9 9.9 5
9 -5 9 23.8 5.5
9 5 10 12.7 7.7
9 -5 10 25.4 5.9
9 -5 10 14.7 5.4
9 5 11 13.8 10.6
9 -5 11 9.3 5.2
9 -5 11 4.5 4.7
-9 6 11 3.3 8.9
-9 -6 11 -2.1 5.9
9 -6 -11 -0.9 5.8
-9 6 10 23.6 9.5
-9 -6 10 -1.1 5.5
9 -6 -10 12.4 6.1
-9 6 9 4.6 7.1
-9 -6 9 3.6 5.6
9 -6 -9 5.5 7.3
-9 6 8 240.58 19.6
-9 -6 8 226.18 16.4
9 6 -7 29.3 6.7
9 -6 -7 9.2 7.6
-9 -6 7 37.6 7.3
-9 -6 7 36.3 8.4
9 6 -6 42.2 7
-9 -6 6 34.6 6.9
-9 -6 6 54.09 8
9 -6 -6 32.5 8.7
9 6 -5 0.9 3.3
-9 -6 5 0.5 4.2
-9 -6 5 9.4 4.9
9 -6 -5 0.7 6.1
9 6 -4 69.79 10.1
9 6 -4 67.19 7.5
-9 -6 4 63.29 9.2
-9 -6 4 73.49 8
9 -6 -4 82.59 12.2
9 6 -3 -0.4 5.8
9 6 -3 3.9 3.7
9 -6 -3 8.4 6.6
-9 -6 3 11 5.2
-9 -6 3 12.4 4.8
9 6 -2 57.69 6.6
9 6 -2 74.59 11.2
-9 -6 2 69.39 9.6
-9 -6 2 68.19 8.1
9 -6 -2 72.69 11.8
9 6 -1 23.8 7.7
9 6 -1 22.8 4.7
-9 -6 1 35.5 7.9
-9 -6 1 29.6 6.2
9 -6 -1 23 7.7
-9 6 0 4.9 2.9
9 6 0 -1.5 5.8
9 6 0 -0.1 3.3
-9 -6 0 9.2 5.5
-9 -6 0 3.2 4.7
9 -6 0 13.6 6.8
-9 6 -1 18.2 3.3
9 6 1 26.8 8.4
9 6 1 15.1 4.8
9 -6 1 22.1 7.4
-9 -6 -1 18 6.7
-9 -6 -1 23.1 6.1
9 6 2 64.39 11
9 6 2 65.49 8
-9 6 -2 58.39 4.5
-9 -6 -2 59.69 10.1
9 -6 2 63.69 10.8
9 6 3 435.46 27
-9 6 -3 385.06 17.1
9 -6 3 406.66 25.7
-9 -6 -3 449.16 24.6
9 6 4 21.3 6.5
9 6 4 7.6 6.9
-9 6 -4 4.6 2.6
9 -6 4 10.8 3.3
9 -6 4 5.7 6.6
-9 -6 -4 15.6 10.4
-9 6 -5 1.4 2.9
9 6 5 -2.2 6.5
9 6 5 -1.5 4.8
-9 -6 -5 6.9 5.8
9 -6 5 2.4 2.7
9 -6 5 -1 6.4
9 6 6 69.49 12.3
-9 -6 -6 68.89 10.2
9 -6 6 71.09 6.4
9 6 7 16 9.2
9 -6 7 6.3 3.5
9 6 8 9.7 8.4
9 -6 8 -3.1 3.2
9 6 9 12 8.8
9 -6 9 -4.4 4.1
9 -6 9 1.9 3.6
9 6 10 13.9 10
9 -6 10 33.8 6.2
9 -6 10 34.7 7.4
9 6 11 4.7 8.3
9 -6 11 -1.3 4.9
-9 7 10 66.49 14.8
-9 -7 10 38.4 9.1
-9 7 9 6.7 7.3
-9 -7 9 3 5.5
9 -7 -8 70.29 18.2
-9 -7 8 74.99 9.9
-9 -7 7 -2.8 4.5
-9 -7 7 8.6 6
9 -7 -7 1.2 7.7
9 7 -6 4 5.1
9 -7 -6 3.8 7.8
-9 -7 6 -2.6 4.7
-9 -7 6 15.9 6
9 7 -5 20.8 5.2
9 -7 -5 3.6 8.2
-9 -7 5 31.5 7.2
-9 -7 5 1.7 5.5
9 7 -4 8 5.4
9 7 -4 7.5 6.5
-9 -7 4 0.2 5
9 -7 -4 11.5 6.4
-9 -7 4 -3.8 4.1
-9 7 3 60.29 8.7
9 7 -3 44.3 7
9 7 -3 47 9.8
-9 -7 3 64.09 8.9
9 -7 -3 86.19 13.7
-9 -7 3 65.99 10
9 7 -2 5.7 7.4
-9 7 2 8.6 5
9 7 -2 -2.7 3.6
-9 -7 2 -0.8 5
9 -7 -2 4.4 6.4
-9 -7 2 10.1 6.1
9 7 -1 -7.7 6
-9 7 1 -2.4 3.5
9 7 -1 -1.5 2.9
9 -7 -1 7.4 8.3
-9 -7 1 4.3 5.6
-9 -7 1 1.6 5.2
9 7 0 26.1 5.5
9 7 0 20.7 8.8
-9 7 0 26.9 5.4
9 -7 0 26.3 13.8
-9 -7 0 48.5 9.2
-9 -7 0 20.2 6.3
9 7 1 86.59 9.1
9 7 1 70.69 12.8
-9 7 -1 65.69 5.8
9 -7 1 47.1 12.4
-9 -7 -1 69.39 10.8
9 7 2 93.59 10.3
-9 7 -2 97.79 6.7
9 7 2 116.99 16.5
9 -7 2 101.39 14.9
-9 -7 -2 112.39 12.9
9 7 3 16.7 5.7
9 7 3 22.2 10.1
-9 7 -3 15.4 3.2
-9 -7 -3 18.1 7.1
9 -7 3 9.1 7.9
9 7 4 60.69 9.9
9 7 4 58.09 12.9
-9 7 -4 55.49 5.7
-9 -7 -4 68.59 12.1
9 -7 4 62.89 7
9 -7 4 60.39 12.3
9 7 5 8.2 8.1
-9 7 -5 4.5 3.7
9 -7 5 3.6 3.6
9 -7 5 12.3 8.7
9 7 6 8.6 9.5
9 -7 6 8.7 3.8
9 -7 6 4.6 9.3
9 7 7 24 10.5
9 -7 7 26.1 5.3
9 7 8 2.9 7.4
9 -7 8 0.7 3.8
9 7 9 15.3 10.4
9 -7 9 4.2 4.3
9 7 10 -2.7 9.7
9 -7 10 7.8 5.7
9 -7 10 10.2 4.8
-9 8 10 22.2 9.4
-9 -8 10 23.5 8.1
-9 8 9 1.4 7.9
-9 -8 9 17 7.3
-9 -8 8 5.2 5.7
-9 -8 7 3.9 5.4
-9 -8 6 62.69 12.4
-9 -8 6 82.99 12.7
-9 -8 5 88.09 10.4
9 8 -4 -11.6 5.4
-9 8 4 -8.4 4.8
9 8 -4 4.8 4.7
-9 -8 4 24.8 8
-9 -8 4 1.7 4.9
-9 8 3 41.7 7.8
9 8 -3 39.2 10.3
9 8 -3 42 7.2
-9 -8 3 32.8 7.5
9 8 -2 57.39 8.2
9 8 -2 50.59 11.5
-9 8 2 49.7 7.9
-9 -8 2 37.4 8.4
9 8 -1 27.1 10.1
9 8 -1 26 5.8
-9 8 1 39.6 6.4
-9 -8 1 38.5 9
9 -8 -1 18.7 11.6
9 8 0 4.8 8
9 8 0 3.7 5.1
-9 8 0 5.8 3.6
-9 -8 0 -1.3 6
9 -8 0 -7.6 7.5
-9 -8 0 0.5 7.1
9 8 1 8.1 5.6
9 8 1 8.5 9.6
9 -8 1 26.2 9.4
-9 -8 -1 11.9 7.1
9 8 2 89.39 14.8
9 8 2 81.39 9.7
-9 8 -3 345.97 17.8
9 8 4 10.3 8.3
-9 8 -4 1.8 3.5
9 8 5 78.69 16.6
9 -8 5 69.19 9.2
-9 8 -6 73.89 10.7
9 8 6 83.59 15.5
9 -8 6 66.49 9.1
9 8 7 21.6 11.5
9 8 8 13.5 11.6
9 -8 8 30.5 6.5
9 8 9 -1.6 11.7
9 -8 9 1.5 4.8
-9 -9 8 14.3 6.7
-9 -9 7 -4.1 5.3
-9 -9 6 9.1 6.3
-9 -9 5 5.2 5.7
-9 9 4 7.9 6.7
9 9 -3 14.2 10.3
-9 9 3 1.8 5.1
-9 -9 3 17.5 6.9
-9 9 2 51.39 8.7
9 9 -2 50.29 14
-9 -9 2 57.59 11.2
-9 9 1 26 6.1
-9 -9 1 40.3 9.7
9 9 0 -5.2 6.1
-9 9 0 -3.3 3.5
-9 -9 0 -15.9 5.9
9 9 1 10.5 10.8
-9 9 -1 5.3 3.8
9 9 2 3.9 10.3
-9 9 -2 4.7 3.3
-9 9 -3 12.8 4
9 9 3 19.4 11.3
-9 9 -4 143.99 10.8
9 9 4 174.88 25.8
-9 9 -5 12.9 5.1
9 9 5 6.9 11
9 9 6 10.1 11.6
9 9 7 32.5 14.6
9 9 8 65.99 23.2
-9 -10 7 -6.6 5.6
-9 -10 6 25.1 7.7
-9 -10 5 9.3 6.9
-9 -10 4 0.1 6.4
9 10 -3 75.29 15.8
-9 -10 3 85.99 13.7
9 10 -2 14 10.4
-9 10 2 5.2 5.3
-9 -10 2 -8.4 5.8
9 10 -1 54.39 15.4
-9 10 1 35.2 8.8
-9 -10 1 28.6 10.1
9 10 0 -1.7 9.8
-9 10 0 4.4 4.5
-9 10 -1 5.7 4.1
9 10 1 8 12.4
9 10 2 8.2 11.7
-9 10 -2 17.7 4.7
9 10 3 74.99 18.6
-9 10 -3 66.79 7.7
-9 10 -4 13.9 5.5
9 10 4 -2.8 11.4
9 10 5 2.5 12.8
9 10 6 19.8 15.7
-9 -11 5 -6 7.4
-9 -11 4 8.4 8.8
-9 -11 3 35.7 10.5
9 11 -2 4.6 10.9
-9 -11 2 11.3 8.9
-9 11 1 30 7
9 11 -1 32.8 14
-9 11 0 7.8 5.3
9 11 0 -10.2 11.3
-9 11 -1 14.4 5.6
9 11 1 28.1 15.7
9 11 2 15.5 11.1
-9 11 -2 16.1 5.3
-9 11 -3 27.5 6.5
9 11 3 19.7 19.8
-9 11 -4 -1.4 4
9 12 0 11 15.1
-10 0 12 -4.6 5.7
-10 0 11 -1 5.7
-10 0 10 9.5 5.9
-10 0 9 3.5 5.2
-10 0 8 14.2 5.4
-10 0 7 1.7 4
10 0 -6 106.29 9.4
-10 0 6 100.29 8.6
10 0 -5 4.4 4.1
-10 0 5 2.7 3.2
10 0 -4 46.9 3.7
10 0 -4 36 5.8
10 0 -4 40.3 2.5
-10 0 4 46.9 5.5
10 0 -3 0.7 1.2
10 0 -3 0.3 2.7
-10 0 3 -2.1 2
10 0 -2 239.78 9.9
10 0 -2 238.38 11.3
-10 0 2 229.38 11
10 0 -1 -0.4 1.6
-10 0 1 0.1 1.7
10 0 -1 -1.2 1.6
-10 0 0 28.3 3.4
10 0 0 32.5 3.6
10 0 0 27.9 3.1
-10 0 -1 1 1.7
-10 0 -1 0.5 1.9
10 0 1 0.7 1.8
10 0 1 -0.7 1.4
10 0 2 211.48 10.5
-10 0 -2 214.28 10.2
10 0 2 204.68 9.6
10 0 3 1.8 2.4
-10 0 -3 -0.3 2.3
10 0 3 0.5 2.6
10 0 4 705.13 29.4
-10 0 -4 701.93 28.6
-10 0 -5 -1.4 2.2
10 0 5 -0.3 3.5
10 0 6 53.49 7
10 0 7 -1.7 3.6
10 0 8 206.28 14.9
10 0 8 197.88 13.9
10 0 9 9.5 5.2
10 0 9 -3 3.9
10 0 10 81.49 10
10 0 10 73.49 10.9
10 0 11 0.4 4.7
10 0 11 -2.2 4.4
10 0 12 21.8 7.8
10 0 12 14.6 7.5
-10 1 13 -5.3 4.5
-10 1 12 -3.7 5.5
-10 -1 12 -2.9 5.3
-10 1 11 37.5 9.3
-10 -1 11 47 9.9
-10 1 10 17.4 6.9
-10 -1 10 4.9 5.9
-10 1 9 67.19 9.4
-10 -1 9 65.19 9.4
-10 1 8 0.7 4.3
10 1 -8 10 5.6
-10 -1 8 6.3 4.9
-10 1 7 4.4 4.3
10 1 -7 -5.5 3.5
10 -1 -7 -0.5 1.3
-10 -1 7 -2.6 3.3
-10 1 6 3.7 3.6
10 1 -6 2.6 3.7
-10 -1 6 4.6 3.4
10 -1 -6 3.5 2.1
10 1 -5 70.29 7.2
-10 1 5 72.99 7.2
10 -1 -5 67.09 5.4
-10 -1 5 73.39 6.8
-10 1 4 294.27 15
10 1 -4 275.37 15
10 1 -4 292.27 11.8
10 -1 -4 286.37 13.8
-10 -1 4 320.57 14.7
10 -1 -4 291.67 15.7
10 1 -3 1054.29 42.4
-10 1 3 1080.69 42.4
10 1 -3 1114.69 40.8
-10 -1 3 1086.59 42.1
10 -1 -3 1061.99 43.2
-10 -1 3 1075.79 39.8
10 1 -2 2 2.1
10 1 -2 0.1 1.9
-10 1 2 2.7 2.1
-10 -1 2 -0.6 1.9
10 -1 -2 3.4 2.6
-10 -1 2 -1.1 1.3
-10 1 1 240.88 10.3
10 1 -1 228.78 10.8
10 1 -1 230.58 11
10 -1 -1 227.78 10.6
-10 -1 1 231.38 10.4
-10 -1 1 235.18 10.8
10 1 0 88.89 5.4
-10 1 0 83.39 4.4
10 1 0 83.99 6.3
10 -1 0 85.89 4.6
-10 -1 0 94.39 5.6
-10 -1 0 80.99 5.5
-10 1 -1 94.09 4.6
10 1 1 97.39 6.9
10 1 1 87.69 5.4
-10 -1 -1 78.29 5.6
-10 -1 -1 91.29 6.1
10 -1 1 86.79 4.2
10 1 2 1.1 2.1
10 1 2 -2.6 2.2
-10 -1 -2 2.3 2.2
10 -1 2 -2.8 1.1
10 -1 2 1.2 2.1
10 1 3 109.49 8.3
10 1 3 89.49 7.2
-10 -1 -3 101.79 7
10 -1 3 97.89 6.5
10 1 4 87.89 8.2
-10 -1 -4 81.49 6.6
10 -1 4 87.49 6.6
10 1 5 22.3 5.6
-10 -1 -5 22.2 3.9
10 1 6 88.19 8.7
10 -1 6 93.69 7.5
10 -1 6 97.49 8.3
-10 -1 -6 85.09 6.8
10 1 7 8.8 4.7
10 -1 7 6.7 4.1
10 -1 7 2.2 3.9
-10 -1 -7 6.8 3.3
10 1 8 -1.2 4.7
10 -1 8 -1.2 4
10 -1 8 -0.7 4.1
-10 -1 -8 2 3.2
10 1 9 1.3 4.9
10 -1 9 -7.2 4.1
10 -1 9 -2.9 4
-10 -1 -9 3.3 3.1
10 1 10 91.69 11.9
10 1 10 88.09 12.8
10 -1 10 79.69 10.3
10 -1 10 82.19 10.8
10 1 11 88.59 12.7
10 1 11 103.69 12
10 -1 11 87.29 11.3
10 -1 11 87.59 10.5
10 1 12 31.5 8.4
10 1 12 22.2 7.5
10 -1 12 34.9 8.5
10 -1 12 11.7 6.8
-10 2 13 -9.3 5.6
-10 2 12 8.2 8
-10 -2 12 12.8 7
-10 2 11 20.3 8.2
-10 -2 11 18.7 7.7
-10 2 10 -4.5 5
-10 -2 10 19.7 6.9
10 -2 -10 2.4 1.4
-10 2 9 103.79 13.1
-10 -2 9 106.19 10.9
10 -2 -9 97.39 6
10 2 -8 -0.3 4.7
-10 2 8 6.9 5.6
10 -2 -8 8.1 2.9
-10 -2 8 3.8 4.4
10 2 -7 76.19 9.9
-10 2 7 69.19 9.6
-10 -2 7 61.69 7.5
10 -2 -7 74.19 6.5
-10 2 6 32 6.4
10 2 -6 33 6.1
-10 -2 6 34.5 5.4
10 -2 -6 38.4 5.6
10 2 -5 148.99 10.5
-10 2 5 152.08 11.1
10 -2 -5 157.08 9.9
-10 -2 5 149.79 9.8
10 2 -4 41.1 4.6
10 2 -4 43.5 5.5
-10 2 4 37.3 5.7
-10 -2 4 34.3 5.7
10 -2 -4 40.1 6
-10 -2 4 38.1 3.2
-10 2 3 1644.64 61.19
10 2 -3 1560.44 60.09
10 2 -3 1500.75 60.59
-10 -2 3 1633.94 60.49
-10 -2 3 1583.64 58.89
10 -2 -3 1561.44 61.59
10 2 -2 305.07 15.2
10 2 -2 323.67 14.7
-10 2 2 315.07 14.7
-10 -2 2 323.37 14.2
-10 -2 2 333.17 14.8
10 2 -1 -0.5 1.7
10 2 -1 -1.3 2.7
-10 2 1 1.2 1.7
-10 -2 1 -0.2 2.1
-10 -2 1 0.3 2.3
10 2 0 16.2 3.1
10 2 0 10.1 3.4
-10 2 0 12.9 1.7
-10 -2 0 18 3.4
-10 -2 0 17.3 3.3
10 2 1 247.58 11.8
10 2 1 270.77 14.1
-10 -2 -1 235.08 12.6
-10 -2 -1 251.87 12.6
10 2 2 2 3.9
10 2 2 -3 2.2
-10 -2 -2 -0.3 2.9
-10 -2 -2 -0.6 2.7
10 2 3 474.25 26.1
10 2 3 456.05 22.7
10 -2 3 466.65 18.3
-10 -2 -3 468.35 21.1
10 2 4 24.3 5.5
10 2 4 23.2 6.5
10 -2 4 26.5 4.4
-10 -2 -4 22.3 4.6
10 -2 4 24 3.4
10 2 5 137.19 10.9
10 -2 5 132.89 8.1
-10 -2 -5 126.09 8.8
10 -2 5 95.09 8.3
10 2 6 0.9 4.5
10 -2 6 4.1 3
10 -2 6 1.2 3.1
-10 -2 -6 5.5 3.3
10 2 7 82.89 10.3
-10 -2 -7 93.69 7.6
10 -2 7 85.09 9.3
10 -2 7 97.79 8
10 2 8 85.49 11.6
10 -2 8 99.39 9.3
-10 -2 -8 88.29 7.7
10 -2 8 87.59 8.5
10 2 9 13 6.9
10 -2 9 21.6 6.1
-10 -2 -9 21.3 4.8
10 -2 9 27.1 6.1
10 2 10 6.4 6
-10 -2 -10 4.9 3.8
10 -2 10 1.5 4.6
10 -2 10 6.2 4.9
10 2 11 22.2 7.4
10 2 11 5.7 6.7
-10 -2 -11 2.5 3.6
10 -2 11 2.8 4.6
10 -2 11 1.4 4.9
10 2 12 1.7 5.9
10 2 12 5.6 7.5
10 -2 12 14.1 5.7
10 -2 12 9.1 5.8
-10 3 12 11.9 7.3
-10 -3 12 11.1 7.6
-10 3 11 4.4 5.7
-10 -3 11 -7.5 4.4
10 -3 -11 1.2 2.2
-10 3 10 2.9 5.3
-10 -3 10 7.6 6
10 -3 -10 4.3 2.7
-10 3 9 5.2 5.2
-10 -3 9 5.2 5.9
10 -3 -9 2.5 3.2
-10 3 8 7 5.3
10 3 -8 -2.8 4.1
-10 -3 8 6.9 5.3
10 -3 -8 7.9 4.2
-10 3 7 125.99 12.2
10 3 -7 115.19 11.3
10 -3 -7 131.49 10.6
-10 -3 7 130.89 11
10 3 -6 49 7.5
-10 3 6 54.49 8.6
-10 -3 6 44.2 3.3
-10 -3 6 37.8 5.9
10 -3 -6 62.09 7.5
10 3 -5 -3.1 2.9
-10 3 5 -0.2 2.9
10 -3 -5 2.4 3.7
-10 -3 5 2 3.3
-10 -3 5 -0.6 1.9
10 3 -4 176.68 10.3
10 3 -4 186.98 10.9
-10 3 4 166.78 13.1
10 -3 -4 176.68 12.3
-10 -3 4 161.98 9.2
-10 -3 4 168.58 10.4
10 3 -3 70.29 6.7
10 3 -3 85.89 7.8
-10 3 3 73.39 7.1
10 -3 -3 70.69 8.2
-10 -3 3 72.99 6.2
-10 3 2 83.79 7
10 3 -2 86.79 8.3
10 3 -2 84.59 6.5
-10 -3 2 76.89 7.1
10 -3 -2 93.89 9
-10 -3 2 90.49 7.1
10 3 -1 40.3 6.3
10 3 -1 27.5 4.7
-10 3 1 30.3 3.9
-10 -3 1 35.6 5.1
-10 -3 1 33.4 5.2
10 3 0 120.19 13.1
-10 3 0 97.89 5.5
10 3 0 101.69 9.5
-10 -3 0 98.09 8.3
-10 -3 0 97.29 7.3
10 3 1 35.8 5.8
10 3 1 26.5 6.2
-10 -3 -1 32 5.6
10 3 2 2.6 3.4
10 3 2 8.5 5.5
-10 -3 -2 0.6 3.7
-10 -3 -2 4.7 4.2
10 3 3 32.1 5.7
10 3 3 19.9 6.3
-10 -3 -3 26.4 5.1
10 -3 3 24.6 1.9
10 3 4 2.5 4.4
10 3 4 -1.7 3.2
10 -3 4 2.2 1.5
-10 -3 -4 3.2 3.6
10 3 5 67.09 8.7
-10 -3 -5 80.29 7.8
10 -3 5 76.79 5.4
10 3 6 12.3 6.2
10 -3 6 21.4 3.9
-10 -3 -6 26.1 5.1
10 -3 6 19.4 4.4
10 3 7 94.49 12.2
-10 -3 -7 89.79 8.4
10 -3 7 82.49 7.8
10 -3 7 81.49 7.4
10 3 8 25 8
-10 -3 -8 23.9 5.5
10 -3 8 28.1 5.6
10 -3 8 26.6 5.5
10 3 9 166.78 16
10 -3 9 144.49 11.1
-10 -3 -9 134.59 10.7
10 -3 9 134.79 10.9
10 3 10 26.9 8.6
10 -3 10 29 6.5
-10 -3 -10 26.5 5.5
10 -3 10 28.8 6.8
10 3 11 -4.5 5.8
10 -3 11 -3.6 4.9
10 -3 11 0.4 4.6
10 3 12 -6 5.9
10 3 12 -0.1 5.9
10 -3 12 -6.6 4.3
10 -3 12 -1.6 5.1
10 -4 -12 -1 2.2
-10 -4 12 -1.9 5.7
-10 4 11 2.6 5.7
-10 -4 11 2.4 5.4
10 -4 -11 2.1 3.5
-10 4 10 8.9 6.8
-10 -4 10 7.1 6
10 -4 -10 7.8 4.1
-10 4 9 2.3 6.2
10 -4 -9 -1.6 3.8
10 4 -8 -1.7 4.8
-10 4 8 -2.7 5.6
10 -4 -8 5.5 5
-10 -4 8 3.7 5.2
10 4 -7 5.1 4.4
-10 4 7 5.3 5
10 -4 -7 17 5.8
-10 -4 7 26.5 6.6
-10 -4 7 18.3 3.8
-10 4 6 -1.4 4.1
10 4 -6 1.1 3.7
-10 -4 6 5.7 4.3
-10 -4 6 6 3.3
10 -4 -6 2.2 4.7
-10 4 5 170.58 12.9
10 4 -5 208.38 12.4
10 -4 -5 181.58 14
-10 -4 5 183.78 11.9
-10 -4 5 196.78 11
10 4 -4 109.89 8.7
10 4 -4 130.29 10
-10 -4 4 118.09 8.9
-10 -4 4 120.99 8.7
10 -4 -4 131.69 11.9
10 4 -3 3.8 4.2
10 4 -3 6.6 3.3
-10 -4 3 0.6 2.8
-10 -4 3 2 3.4
10 -4 -3 4.6 5
10 4 -2 11.8 5.3
10 4 -2 3.1 2.8
-10 -4 2 1.5 3.6
-10 -4 2 0.3 3.4
10 -4 -2 6.6 4.6
10 4 -1 94.59 7
10 4 -1 88.19 9.8
10 -4 -1 78.29 9.5
-10 -4 1 82.49 8.2
-10 -4 1 92.39 8.8
10 4 0 53.29 6.1
10 4 0 51.59 8.5
-10 4 0 46.7 4.7
-10 -4 0 43.8 7.1
-10 -4 0 43 6.8
-10 4 -1 14.8 2
10 4 1 12.9 3.7
10 4 1 11.2 6.3
-10 -4 -1 8.6 4.5
-10 -4 -1 1.6 4.1
10 4 2 76.09 9.6
10 4 2 78.79 7.7
-10 -4 -2 79.19 8.9
10 4 3 342.47 20.6
10 4 3 302.27 16.9
-10 -4 -3 325.97 18
10 -4 3 311.17 12.4
10 4 4 55.79 7.4
10 4 4 52.39 9.5
10 -4 4 59.19 3.7
-10 -4 -4 60.69 7.4
10 4 5 19.4 5.3
10 4 5 17.7 6.8
10 -4 5 23.8 3
-10 -4 -5 24.7 5.9
10 4 6 6.7 5.4
10 4 6 11.5 6.8
10 -4 6 13.2 3.2
-10 -4 -6 11.4 5.1
10 4 7 22.8 8.2
-10 -4 -7 24.5 7.8
10 -4 7 5 4.4
10 -4 7 14.1 3.9
10 4 8 -2.5 5.4
-10 -4 -8 8.6 4.7
10 -4 8 6 3.9
10 -4 8 -2.7 4
10 4 9 6.5 7
-10 -4 -9 4.7 4.6
10 -4 9 5.9 4.5
10 -4 9 11.8 4.3
10 4 10 -10.9 5.2
10 -4 10 0.7 3.9
10 -4 10 8.9 5.3
10 4 11 10 7.9
10 -4 11 11.5 5.5
10 -4 11 2.2 4.7
10 4 12 12.6 8.4
10 -4 12 -0.8 6
10 -4 12 14.9 6
-10 5 12 9.8 9.9
-10 -5 12 -7.6 6.9
-10 5 11 6.1 8.5
-10 -5 11 6.9 7
10 -5 -11 11 5.2
-10 5 10 -3.5 6.4
-10 -5 10 -5.4 5.5
10 -5 -10 -2 4.1
-10 5 9 130.99 16.7
10 -5 -9 92.49 13.1
-10 -5 9 106.29 12
-10 5 8 14.7 11.1
-10 -5 8 14.2 6.2
10 -5 -8 9.4 6.2
10 5 -7 37.5 7.3
-10 5 7 37.1 8.8
10 -5 -7 36 8.1
-10 -5 7 34 5.9
-10 -5 7 35.2 7
10 5 -6 99.29 12
-10 -5 6 103.49 9.2
-10 -5 6 92.49 9.6
10 -5 -6 91.09 11.3
10 5 -5 70.79 8.5
10 -5 -5 59.09 9.7
-10 -5 5 49.8 6.8
10 5 -4 -3.6 2.8
10 5 -4 2.2 4.2
-10 -5 4 -2.9 2.8
-10 -5 4 5.1 4.1
10 -5 -4 4.8 5.2
10 5 -3 294.77 15.6
10 5 -3 276.57 18.1
-10 -5 3 315.67 15.8
-10 -5 3 309.37 17.3
10 -5 -3 278.17 19.3
10 5 -2 48.6 8.7
10 5 -2 48.2 6.3
10 -5 -2 48.4 8.8
-10 -5 2 43.5 6.1
-10 -5 2 46.5 7.3
10 5 -1 148.79 9.7
10 5 -1 151.78 13.4
10 -5 -1 147.99 13
-10 -5 1 141.19 10.2
-10 -5 1 167.88 12.4
10 5 0 1.7 3
-10 5 0 6.6 2.7
10 5 0 5.5 5.8
10 -5 0 2 4.9
-10 -5 0 4.7 4.1
-10 -5 0 1.2 3.8
10 5 1 56.89 9.8
10 5 1 50.59 6
-10 5 -1 47.8 3.8
-10 -5 -1 48.3 7.8
10 -5 1 50.79 8.8
-10 -5 -1 47.7 8
-10 5 -2 1.3 1.4
10 5 2 3.4 3.6
10 5 2 -2.3 5
-10 -5 -2 2.9 4.7
-10 5 -3 8.5 2
10 5 3 14.3 6.5
10 5 3 5.4 4.4
-10 -5 -3 11.4 4.9
10 5 4 28.4 6.6
10 5 4 23.7 7.5
-10 5 -4 27.9 3.6
-10 -5 -4 22.6 6.7
10 -5 4 24.1 3
10 5 5 68.79 11.8
10 -5 5 63.29 4.9
-10 -5 -5 74.69 8.6
10 5 6 19.9 8.8
10 5 6 30.4 6.5
10 -5 6 38.9 4.4
-10 -5 -6 42.8 7.9
10 5 7 10.7 7.7
10 -5 7 9.8 3.4
-10 -5 -7 7 5.2
10 5 8 41.5 10.8
10 -5 8 32.4 6.6
10 -5 8 48 6.3
10 -5 9 -3.5 3.4
10 -5 9 -2.7 4.1
10 5 10 -5.7 6.7
10 -5 10 1.7 4.2
10 -5 10 2.3 5
10 5 11 24.9 11.9
10 -5 11 8.2 5.4
10 -5 11 3.9 5.1
10 -6 -11 18.2 7
-10 -6 11 30 9.3
-10 6 10 28.8 10.5
-10 -6 10 31.8 8.4
10 -6 -10 22.5 8.7
-10 6 9 -3.9 4.5
-10 -6 9 1.1 5.1
10 -6 -9 2 7.5
-10 6 8 21.3 8.7
10 6 -7 46.7 8.4
-10 -6 7 87.09 11.2
10 -6 -7 53.49 10
-10 -6 7 53.29 8.8
10 6 -6 131.09 11
-10 -6 6 115.99 10.8
10 -6 -6 100.49 15.1
-10 -6 6 138.29 12.3
10 -6 -5 3 6.1
-10 -6 5 2.8 4.7
-10 -6 5 1.1 4.3
10 6 -4 42.6 6.6
10 6 -4 48.2 9.1
10 -6 -4 60.89 10.9
-10 -6 4 59.09 8.7
-10 -6 4 44.5 7.1
10 6 -3 121.09 12.9
10 6 -3 104.19 9.2
10 -6 -3 126.09 13.7
-10 -6 3 103.79 9.7
-10 -6 3 135.09 11.9
10 6 -2 6.8 3.8
10 6 -2 3.9 5.8
-10 -6 2 2.8 5.3
10 -6 -2 11.3 6.8
-10 -6 2 12.6 4.8
10 6 -1 36.3 8.7
-10 6 1 28.9 5.2
10 6 -1 28.6 5.5
10 -6 -1 23.3 7.1
-10 -6 1 27.8 7.3
-10 -6 1 27.1 6.2
-10 6 0 5.5 2.9
10 6 0 -1 5.6
10 6 0 -1.3 3.4
10 -6 0 -8 3.8
-10 -6 0 7.6 4.7
-10 -6 0 -1 4.8
-10 6 -1 26.5 3.5
10 6 1 30.7 5.9
10 6 1 25 8.5
-10 -6 -1 25.8 6.3
10 -6 1 36.5 8.9
-10 -6 -1 36 7.5
-10 6 -2 2.4 1.9
10 6 2 7.5 3.9
10 6 2 5 6.9
-10 -6 -2 6.7 5.4
10 -6 2 5.8 5.9
10 6 3 -5.4 5.9
-10 6 -3 1.6 1.8
10 6 3 0.8 4.5
10 -6 3 3.9 5.4
-10 -6 -3 -8.1 3.6
10 6 4 248.98 20.7
-10 6 -4 195.28 10.4
10 6 4 183.78 14.3
-10 -6 -4 224.28 16.7
10 -6 4 212.68 10.8
10 -6 4 213.58 18.3
10 6 5 13.1 7.8
10 6 5 7.1 5.1
-10 6 -5 11.5 3.5
-10 -6 -5 10.9 6.4
10 -6 5 5.6 2.8
10 6 6 85.89 14.8
-10 -6 -6 106.49 11.8
10 -6 6 85.99 6.9
10 6 7 1.5 6.7
10 -6 7 -1.9 2.8
10 6 8 1.9 8
10 -6 8 1.6 4.3
10 6 9 3.9 7.1
10 -6 9 0.8 4.7
10 -6 9 -2.4 3.2
10 6 10 -7.2 8.2
10 -6 10 6.3 4.2
10 -6 10 8.6 6.3
10 6 11 43.8 14.6
10 -6 11 29.9 6.8
10 -6 11 23.7 6.7
-10 7 10 18.8 10.2
-10 -7 10 16 7
-10 7 9 -7.5 5.6
-10 -7 9 -7.6 4.6
-10 7 8 114.69 16.3
-10 -7 8 83.29 11.1
10 -7 -7 -2.8 6.7
-10 -7 7 16.6 9.3
10 7 -6 78.39 10.7
10 -7 -6 58.79 12.9
-10 -7 6 72.39 12.5
-10 -7 6 65.99 9.4
10 7 -5 77.19 9
10 -7 -5 60.19 12.8
-10 -7 5 82.89 10.8
-10 -7 5 83.49 9.8
10 7 -4 -8.1 3.4
10 7 -4 4.9 5.9
10 -7 -4 1 7.3
-10 -7 4 3.4 4.9
-10 -7 4 -3.6 3.9
10 7 -3 17.4 7.8
-10 -7 3 11.7 6.2
10 -7 -3 5.1 7.6
-10 -7 3 7.2 5.5
10 7 -2 66.49 11.7
10 7 -2 44.6 6.6
-10 7 2 63.99 8.2
-10 -7 2 47.9 7.9
10 -7 -2 51.59 11.8
-10 -7 2 51.49 9.7
10 7 -1 20 8.8
-10 7 1 19.4 5.2
10 7 -1 14.2 5.3
10 -7 -1 29.2 9.6
-10 -7 1 43.4 8.9
-10 -7 1 25.8 6.6
-10 7 0 7.4 5.8
10 7 0 10.2 5.1
10 7 0 3.2 6.4
-10 -7 0 18.8 7.5
10 -7 0 3.3 5.5
-10 -7 0 7.8 6
10 7 1 0.8 7.2
-10 7 -1 4.6 2.7
10 7 1 3.5 6.5
-10 -7 -1 6 6.6
-10 -7 -1 1.3 5.9
10 -7 1 3.9 6.9
-10 7 -2 27.4 3.7
10 7 2 28.4 10.8
10 7 2 47.2 8
10 -7 2 42.1 10.1
-10 -7 -2 54.69 10.1
10 7 3 1.1 4.9
-10 7 -3 1.1 2.2
10 7 3 6.2 7.3
-10 -7 -3 -5.8 4.4
10 -7 3 4.3 6.4
-10 7 -4 9.2 3.3
10 7 4 14.9 8.7
10 7 4 -2.8 4.7
-10 -7 -4 17.2 7.5
10 -7 4 5.2 7.9
10 7 5 46.1 13.1
-10 7 -5 46.7 6.5
10 -7 5 41.6 6.1
10 -7 5 39.1 10.9
10 7 6 16.4 9.3
10 -7 6 -2.1 8.1
10 -7 6 10.2 4.1
10 7 7 52.09 13
10 -7 7 58.69 6.7
10 7 8 4.8 8.3
10 7 9 -7.7 6.8
10 -7 9 -0.6 3.7
10 7 10 5 9.3
10 -7 10 18.6 6.7
10 -7 10 -0.7 4.3
-10 8 9 4.5 7.3
-10 -8 9 -4.1 5.8
-10 -8 8 8.4 6.5
-10 -8 7 61.49 9.3
-10 -8 6 17.3 7.3
-10 -8 5 60.09 9.4
-10 8 4 52.29 9
10 8 -4 44.6 7.8
10 8 -4 42.8 11.7
-10 -8 4 52.99 8.8
-10 -8 4 75.19 10.6
10 8 -3 184.58 18.3
10 8 -3 172.68 12.7
-10 8 3 183.28 14
-10 -8 3 192.68 16.3
-10 -8 3 174.98 14.4
-10 8 2 180.18 13.8
10 8 -2 206.98 20.1
10 8 -2 203.18 14.4
-10 -8 2 211.18 16.4
-10 -8 2 238.98 18.4
-10 8 1 58.29 7.3
10 8 -1 38.7 7.7
10 8 -1 36.6 11
-10 -8 1 52.89 9.4
10 8 0 1.5 8
-10 8 0 -3.4 3.3
10 8 0 2.5 4.6
-10 -8 0 4.7 6.7
-10 -8 0 -2.7 6.5
-10 8 -1 21.6 4.3
10 8 1 25.2 10.8
10 8 1 16.9 6
-10 -8 -1 19.1 9.5
10 8 2 80.49 15.8
-10 8 -2 72.19 6.4
10 8 3 116.99 18.9
-10 8 -3 106.99 7.6
-10 8 -4 4.4 3
10 8 4 -4.3 7.9
10 8 5 189.18 20.9
-10 8 -5 190.28 13
10 8 6 -0.2 8.5
10 -8 6 7.3 5.8
10 8 7 7 10.3
10 -8 7 -2.8 3.9
10 8 8 0.5 8.6
10 8 9 12.4 10.5
10 -8 9 4.5 5.1
-10 -9 8 -1 6.2
-10 -9 7 11.5 6.8
-10 -9 6 0.8 5.8
-10 -9 5 7.4 6.1
10 9 -4 34.7 11
-10 9 4 41.9 8.5
-10 -9 4 48.3 9.2
-10 9 3 -0.2 5.5
10 9 -3 0.4 7.6
-10 -9 3 7.3 9.1
-10 9 2 -0.1 4.9
-10 9 1 5.4 4.6
10 9 -1 0.9 8.7
-10 9 0 57.09 7.1
10 9 0 57.69 13.2
-10 -9 0 38.7 13.6
10 9 1 9.5 10.9
-10 9 -1 1.1 3.3
-10 9 -2 50.29 6
10 9 2 38 11.7
10 9 3 48.7 14.8
-10 9 -3 46 6
10 9 4 3.6 11.1
10 9 5 32.6 14.9
10 9 6 16 10.8
10 9 7 2.6 11.1
10 9 8 5.1 10
-10 -10 7 5.3 6.7
-10 -10 6 11.1 7
-10 -10 5 1.8 6
-10 -10 4 38.7 9.2
10 10 -3 5 10.5
-10 10 3 17.6 8.3
-10 -10 3 10 8
10 10 -2 14.8 11.6
-10 10 2 -4.1 4.7
-10 -10 2 -1 6.5
10 10 -1 17.3 11
-10 10 1 23.9 6
-10 -10 1 28.2 10.5
-10 10 0 -0.2 4
10 10 0 -1.5 10.8
-10 10 -1 36.6 5.9
10 10 1 33.8 11.6
-10 10 -2 2.2 3.5
10 10 2 8.7 12.3
10 10 3 66.79 20.5
-10 10 -3 59.59 7
-10 10 -4 131.39 11
10 10 4 95.39 24.7
10 10 5 27.6 16.5
10 10 6 16.1 16.1
10 10 7 4.2 13.8
-10 -11 5 21.6 9.1
-10 -11 4 10.9 8.2
-10 -11 3 32.2 10.4
10 11 -2 119.99 21.2
-10 -11 2 102.29 15.9
10 11 -1 8.3 12.8
-10 11 1 3.4 5.4
10 11 0 139.59 23.4
10 11 1 8.6 13.4
10 11 2 15 14
-10 11 -2 10.4 4.5
-10 11 -3 10.5 4.8
-11 0 13 4.7 7.3
-11 0 12 40 10.5
-11 0 11 -0.9 6
-11 0 10 120.39 14.4
-11 0 9 1.7 5
-11 0 8 10.6 5.5
11 0 -7 -0.3 3.5
-11 0 7 3.6 4
-11 0 6 13.5 4.2
11 0 -6 16.5 4.9
11 0 -5 -1.6 3.2
-11 0 5 -1.9 3
11 0 -4 54.69 6.3
-11 0 4 54.29 5.9
11 0 -4 59.99 3.4
-11 0 3 -4.9 2.1
11 0 -3 -0.3 1.3
11 0 -3 -0.8 2.6
-11 0 2 354.46 15.1
11 0 -2 342.87 15.3
11 0 -2 339.37 14
11 0 -1 0.2 1.6
-11 0 1 -1.1 1.7
11 0 -1 -0.5 1.7
11 0 0 400.86 16
11 0 0 369.46 16.3
-11 0 0 410.66 16.1
11 0 1 0.2 2.2
11 0 1 -2 1.4
-11 0 -1 -0.1 1.9
-11 0 -1 -0.9 1.7
-11 0 -2 14.3 2.9
11 0 2 16.9 2.8
11 0 2 15 3.1
11 0 3 -1.7 2.3
11 0 3 0.8 2.5
-11 0 -4 4.9 2.6
11 0 4 -3.8 3.5
11 0 5 -3.1 2.8
-11 0 -5 -2.5 2.3
11 0 6 106.09 8.8
11 0 7 -1.7 3.8
11 0 8 1074.69 45.9
11 0 8 1040.2 46.6
11 0 9 -1.1 4.4
11 0 10 20.2 7.2
11 0 10 14.6 5.8
11 0 11 -6 4.3
11 0 11 4.9 5.5
11 0 12 57.19 11.1
11 0 12 52.29 10.7
-11 1 13 8.2 6.1
-11 1 12 7.1 7.1
-11 -1 12 3.3 5
-11 1 11 11.3 6.1
-11 -1 11 18.3 7.4
-11 1 10 9.6 6.4
-11 -1 10 14.1 6.6
-11 1 9 8.5 5.8
-11 -1 9 11 6.1
-11 1 8 4.6 5
11 1 -8 4.1 4.4
-11 -1 8 3.4 4.9
-11 1 7 56.19 8
11 1 -7 83.09 9.7
11 -1 -7 71.89 3.8
-11 -1 7 53.29 7.5
-11 1 6 28.6 5.7
11 1 -6 30.6 6.6
-11 -1 6 21.1 5.3
11 -1 -6 29.8 3.7
-11 1 5 359.76 18.1
11 1 -5 343.67 18.1
11 -1 -5 355.46 15.8
-11 -1 5 348.47 17.2
11 1 -4 193.38 8.5
-11 1 4 185.58 11.1
11 1 -4 177.78 11.1
11 -1 -4 173.68 11.8
11 -1 -4 184.48 10.2
-11 1 3 252.17 12.6
11 1 -3 245.28 11.1
11 -1 -3 236.78 13
-11 -1 3 243.98 10.1
-11 -1 3 255.47 12.6
-11 1 2 2.2 2.1
11 1 -2 2.3 2.3
11 1 -2 0.8 2.1
-11 -1 2 4.1 1.7
-11 -1 2 1.4 2.4
11 -1 -2 2.6 2.5
11 1 -1 5.3 2.6
-11 1 1 6.1 1.9
11 1 -1 7.2 2.3
-11 -1 1 7.7 2
11 -1 -1 7.2 2.2
-11 -1 1 5.9 2.4
-11 1 0 6.8 1.7
11 1 0 10.6 2.4
11 1 0 9.5 3.1
-11 -1 0 11.7 2.7
-11 -1 0 4.1 2.3
11 -1 0 8.8 1.7
11 1 1 50.19 4.3
11 1 1 50.79 5.4
-11 1 -1 50.09 3.4
-11 -1 -1 62.69 5
11 -1 1 53.59 3.1
-11 -1 -1 54.09 4.9
11 1 2 177.58 9.2
11 1 2 164.58 10.1
11 -1 2 178.38 9.2
-11 -1 -2 162.58 9.4
11 -1 2 184.48 7.6
11 1 3 4.7 3.1
11 1 3 6.1 3.9
11 -1 3 4.9 2.3
11 -1 3 0.9 2.3
-11 -1 -3 1.5 2.8
11 1 4 9.2 5.1
11 1 4 18.4 4.4
11 -1 4 13.4 3.5
-11 -1 -4 19.2 3.6
11 1 5 59.39 7.4
-11 -1 -5 58.59 5.7
11 -1 5 51.39 5.8
11 1 6 -0.7 3.8
11 -1 6 2 3.2
11 -1 6 6.4 3.4
-11 -1 -6 -3.7 2.2
11 1 7 32.9 6.9
-11 -1 -7 35.4 5.2
11 -1 7 33.4 6.1
11 -1 7 45.8 6.9
11 1 8 9 5.6
-11 -1 -8 5.6 3.3
11 -1 8 8.9 4.8
11 -1 8 5.4 4.8
11 1 9 12.2 5.9
11 -1 9 0.5 4.7
11 -1 9 13.5 5.8
11 1 10 94.59 11.3
11 1 10 113.99 14.2
11 -1 10 90.69 10.8
11 -1 10 98.99 11.2
11 1 11 37 9
11 1 11 30.5 8.7
11 -1 11 19.9 6.8
11 -1 11 25.3 7.3
11 1 12 -4.9 5.6
11 1 12 -4 5.9
11 -1 12 7.8 6.1
11 -1 12 9.5 6
-11 2 13 48.8 13
-11 -2 13 35.4 11.7
-11 2 12 8 7.5
-11 -2 12 -0.4 4.9
-11 2 11 5.4 6.4
-11 -2 11 -2.6 6
-11 2 10 39.9 8.5
-11 -2 10 20.7 7.1
11 -2 -9 23.6 3.1
-11 -2 9 17.4 6.5
-11 2 8 -4.2 4.6
11 2 -8 -3 4.4
-11 -2 8 1.6 4.3
11 -2 -8 -1 2.2
-11 2 7 2.2 4.1
11 2 -7 6.6 5.1
11 -2 -7 3.7 3
-11 -2 7 10.7 4.8
11 2 -6 7.9 4.4
-11 2 6 9.7 4.6
11 -2 -6 9.7 3.8
-11 -2 6 12.9 4.4
-11 2 5 12.6 4.5
11 2 -5 7.5 3.4
11 -2 -5 12.4 4.1
-11 -2 5 7.9 3.9
-11 2 4 193.48 12.4
11 2 -4 191.48 11.8
11 2 -4 214.48 10.6
-11 -2 4 223.78 11.8
-11 -2 4 216.98 9.1
11 -2 -4 209.68 12.6
11 2 -3 443.26 19.5
11 2 -3 436.36 19.6
-11 2 3 422.36 19.9
-11 -2 3 437.96 18
11 -2 -3 449.56 21
-11 -2 3 455.15 19.6
11 2 -2 406.56 17.7
11 2 -2 391.06 17.9
-11 2 2 367.86 16.9
-11 -2 2 393.76 17.3
-11 -2 2 380.36 16.6
11 2 -1 362.86 17.7
-11 2 1 386.36 15.7
11 2 -1 384.86 16.5
-11 -2 1 357.46 16.4
-11 -2 1 377.66 16.6
11 2 0 118.39 9
-11 2 0 128.09 5.9
11 2 0 129.09 7.5
-11 -2 0 134.89 8.2
-11 -2 0 136.89 8
11 2 1 6.2 2.5
11 2 1 1.1 3.7
-11 -2 -1 1.4 2.9
-11 -2 -1 6.1 3.2
11 2 2 47.8 6.9
11 2 2 52.09 5.6
-11 -2 -2 53.29 7.1
-11 -2 -2 62.09 7
11 2 3 50.79 7.6
11 2 3 23.7 6
-11 -2 -3 36.5 5.1
11 -2 3 30.3 3
11 2 4 6.7 3.9
11 2 4 8.4 4.9
11 -2 4 2.9 2.3
11 -2 4 4.5 3.6
-11 -2 -4 4.3 3.4
11 2 5 63.59 8.5
-11 -2 -5 51.89 5.9
11 -2 5 55.29 5.7
11 -2 5 55.39 5.5
11 2 6 0 4.5
-11 -2 -6 2 3
11 -2 6 0.9 3
11 -2 6 3.4 3.1
11 2 7 10.3 5.5
-11 -2 -7 4.8 3.5
11 -2 7 1.3 3.8
11 -2 7 4.7 3.9
11 2 8 -0.8 5.6
11 -2 8 3.6 4.2
11 -2 8 5.4 4.7
-11 -2 -8 3.7 3.4
11 2 9 123.19 13.4
11 -2 9 83.79 9.6
11 -2 9 99.99 9.9
11 2 10 -0.3 5.9
-11 -2 -10 3.8 3.6
11 -2 10 6 4.8
11 -2 10 -4.5 4.3
11 2 11 6 6.8
11 2 11 1 5.9
11 -2 11 3.3 5.1
11 -2 11 -3.7 4.2
11 2 12 14.9 9.1
11 2 12 6.6 7
11 -2 12 4.6 5.8
11 -2 12 7.3 5.4
-11 3 12 6.8 7.7
-11 -3 12 1.3 5.8
-11 3 11 10.7 7.2
-11 -3 11 1.8 6.2
-11 3 10 29.4 8.4
11 -3 -10 12 3.3
-11 -3 10 16.7 6.1
-11 3 9 329.77 22.1
11 -3 -9 321.17 16.3
11 3 -8 128.89 12.5
-11 3 8 155.58 13.7
11 -3 -8 130.99 10.4
-11 -3 8 137.99 12.1
-11 3 7 61.39 8.9
-11 -3 7 78.99 9.2
11 -3 -7 82.79 8.9
-11 3 6 28.4 6.5
11 3 -6 30.4 5.9
-11 -3 6 17.6 4.7
-11 -3 6 19.7 2.5
11 -3 -6 13.4 5
11 3 -5 42 5
11 3 -5 28 5.1
-11 3 5 40.6 6.6
11 -3 -5 43.6 7
-11 -3 5 47.1 6.5
-11 -3 5 34.2 3.7
11 3 -4 85.19 7.4
-11 3 4 86.79 8.3
11 3 -4 91.89 7.4
-11 -3 4 82.19 6
-11 -3 4 84.69 7.5
11 -3 -4 94.49 9.3
-11 3 3 251.17 13.9
11 3 -3 262.97 13.7
11 3 -3 273.17 14.6
-11 -3 3 259.57 13
-11 -3 3 262.87 13.5
11 -3 -3 271.77 15.8
11 3 -2 339.57 15.7
-11 3 2 333.07 15.5
11 3 -2 342.67 17.3
-11 -3 2 322.47 15.6
11 -3 -2 297.37 17.7
-11 -3 2 302.37 15.6
-11 3 1 47.3 4.6
11 3 -1 40.6 4.9
11 3 -1 44.3 7
-11 -3 1 36.6 5.4
-11 -3 1 45.3 5.7
11 3 0 74.99 6.2
-11 3 0 78.49 4.6
11 3 0 71.19 8.8
-11 -3 0 73.69 7
-11 -3 0 81.59 7.4
11 3 1 -1.7 4.5
11 3 1 10 3.7
-11 -3 -1 13.9 4.5
-11 -3 -1 15.5 4.6
11 3 2 95.99 7.4
-11 -3 -2 76.69 9.5
-11 -3 -2 86.49 8.4
11 3 3 78.09 9.7
11 3 3 79.09 7.3
-11 -3 -3 74.19 7.8
11 3 4 140.19 12.1
11 3 4 124.79 9.9
-11 -3 -4 130.49 9.9
11 -3 4 121.59 6
11 3 5 78.09 10.4
11 3 5 65.09 7.5
-11 -3 -5 64.59 7.2
11 -3 5 71.89 5
11 3 6 15.7 6.6
11 -3 6 31 4.2
11 -3 6 17.6 4.6
-11 -3 -6 17.9 4.9
11 3 7 32.5 8.7
11 -3 7 30 5.1
-11 -3 -7 27.6 5.5
11 -3 7 27.3 5.3
11 3 8 16.3 7
11 -3 8 19.6 5.4
11 -3 8 7.6 4
11 3 9 8.3 7.1
-11 -3 -9 7.3 4.2
11 -3 9 13.9 4.9
11 -3 9 8.4 4.8
11 3 10 -2.4 5.9
11 -3 10 6 5.1
-11 -3 -10 0 3.6
11 -3 10 8.5 4.8
11 -3 11 1.5 4.8
11 -3 11 3.8 4.9
11 3 12 18.2 8.7
11 3 12 -7.5 5.1
11 -3 12 -4.2 4.6
11 -3 12 -0.1 4.9
-11 -4 12 18.9 8.4
-11 4 11 4.5 6.2
11 -4 -11 10.6 3.7
-11 -4 11 9.3 6.7
-11 4 10 17 6.8
-11 -4 10 11.6 6.5
11 -4 -10 13.4 4.4
-11 4 9 139.79 13.7
11 -4 -9 125.19 11.7
-11 -4 9 128.19 12.7
11 4 -8 0.9 4.4
-11 4 8 -0.1 5.3
-11 -4 8 0.1 4.8
11 -4 -8 3.7 4.7
-11 4 7 7.9 5.7
11 4 -7 3.7 4.7
-11 -4 7 1.5 2.5
11 -4 -7 -0.7 4.5
-11 -4 7 1.1 4.8
-11 4 6 7 4.9
11 4 -6 8.1 3.9
-11 -4 6 1.5 4.2
11 -4 -6 0.6 4.9
-11 -4 6 2.4 3.1
11 4 -5 29.3 5.3
11 4 -5 30 5.3
-11 4 5 16.8 5.5
11 -4 -5 24.9 6.4
-11 -4 5 25 4.4
-11 -4 5 25.5 5.4
-11 4 4 26.1 5.5
11 4 -4 27.1 5.6
11 4 -4 37 5.6
-11 -4 4 39.2 5.8
-11 -4 4 25.1 4.7
11 -4 -4 44.5 7.7
11 4 -3 74.99 8.4
11 4 -3 62.99 6.4
-11 -4 3 78.39 7.2
-11 -4 3 64.09 6.9
11 -4 -3 68.19 9.5
11 4 -2 174.08 12.9
11 4 -2 160.88 10.1
-11 -4 2 167.68 12.7
11 -4 -2 172.18 13.3
-11 -4 2 158.18 10.1
11 4 -1 150.78 12.3
11 4 -1 161.38 9.5
11 -4 -1 143.99 12.5
-11 -4 1 136.89 10.7
-11 -4 1 154.38 10.2
11 4 0 201.58 16.7
11 4 0 192.68 11
-11 -4 0 180.98 11.8
-11 -4 0 177.08 12.5
11 4 1 138.39 12.5
-11 4 -1 127.79 5.5
11 4 1 113.49 8.7
-11 -4 -1 112.19 9.8
-11 -4 -1 119.29 9.7
11 4 2 1.3 4.3
11 4 2 -1.6 3.2
-11 -4 -2 3.7 4.5
-11 -4 -2 6.8 4.3
11 4 3 425.36 24.3
11 4 3 443.06 21.1
-11 -4 -3 399.16 21.4
11 4 4 17.7 4.6
11 4 4 17.4 6.9
11 -4 4 28.1 2.5
-11 -4 -4 28.7 6
11 4 5 25.7 5.9
11 4 5 21.2 7.5
-11 -4 -5 15.8 5
11 -4 5 13.6 2.5
11 4 6 32 8.9
11 4 6 40.9 12.5
11 -4 6 35.6 4.2
-11 -4 -6 37.3 6.6
11 4 7 20.4 8.4
11 4 7 35.5 8.3
11 -4 7 32.2 4.7
-11 -4 -7 28.1 6.5
11 -4 7 27 5.7
11 4 8 182.48 18.6
11 -4 8 161.08 11.3
-11 -4 -8 206.38 14.2
11 -4 8 167.88 12.1
11 4 9 16 7.8
11 -4 9 -1.1 4.4
11 -4 9 2.9 3.7
11 4 10 12.8 8.6
11 -4 10 2.5 4
11 -4 10 2.4 4.9
11 4 11 16.3 8.6
11 -4 11 9.6 4.8
11 -4 11 10.8 5.5
11 4 12 14.9 10
11 -4 12 21.5 7.4
-11 5 12 -3.9 6.3
11 -5 -12 -10.9 4
-11 -5 12 -1.4 6.2
-11 5 11 -3.1 7
-11 -5 11 2.5 6.1
11 -5 -11 6.1 4.9
-11 5 10 -0.3 6.1
-11 -5 10 1.8 5.6
11 -5 -10 4.6 4.9
-11 5 9 49.2 11
-11 -5 9 69.79 10
11 -5 -9 73.99 11.1
-11 5 8 38.1 10.3
-11 -5 8 26.1 7.3
11 -5 -8 43.3 8.2
-11 -5 8 50.59 7.6
11 5 -7 152.98 12.9
-11 5 7 138.39 13.7
11 -5 -7 114.49 13.1
-11 -5 7 144.09 12.8
-11 -5 7 138.29 12
-11 5 6 -3.2 4.3
11 5 -6 8.1 4.7
-11 -5 6 -1.8 3.6
-11 -5 6 1.4 4.5
11 -5 -6 -9.4 4.4
11 5 -5 7.6 4.2
11 5 -5 -3.6 4
11 -5 -5 6.6 5.9
-11 -5 5 7.4 4.4
11 5 -4 78.69 9.5
11 5 -4 65.39 7.9
-11 -5 4 65.79 7.8
-11 -5 4 67.49 7.9
11 -5 -4 74.19 11
11 5 -3 69.49 7.4
11 5 -3 61.59 10.9
11 -5 -3 89.89 11.5
-11 -5 3 82.39 8.4
-11 -5 3 88.29 7.9
11 5 -2 30.3 7.3
11 5 -2 26.9 4.9
11 -5 -2 15 6.1
-11 -5 2 30.6 6.5
-11 -5 2 16.9 4.5
11 5 -1 23.4 7.2
11 5 -1 29.5 5.3
11 -5 -1 21.5 6.8
-11 -5 1 42.2 7.1
-11 -5 1 40.6 6.4
11 5 0 19.3 4.4
11 5 0 11.2 6.4
-11 5 0 7.3 2.9
-11 -5 0 6.4 4.8
-11 -5 0 8.5 5.1
11 -5 0 16.8 6.4
11 5 1 -2 5.1
-11 5 -1 2.3 1.7
11 5 1 2.9 3.2
-11 -5 -1 5.4 4.8
-11 -5 -1 -4.9 3.7
11 5 2 79.99 8.2
-11 5 -2 81.69 4.1
11 5 2 88.49 12
-11 -5 -2 74.69 9.3
-11 5 -3 46.7 3.3
11 5 3 51.59 7.2
11 5 3 60.49 10.9
-11 -5 -3 61.99 9.3
11 5 4 -2.9 5.4
11 5 4 4.8 4.5
-11 -5 -4 10.5 5.1
11 -5 4 2.9 1.8
11 5 5 51.19 10.7
11 5 5 43.6 7.4
-11 -5 -5 59.89 10.5
11 -5 5 55.99 4.3
11 5 6 14.1 5.7
11 5 6 -6.3 5.9
11 -5 6 3.4 2.4
-11 -5 -6 3.4 4.8
11 5 7 -2.9 6.1
11 -5 7 0.2 2.7
-11 -5 -7 0.2 4.5
11 5 8 27.7 10.6
11 -5 8 14.7 5.4
11 5 9 1 6.8
11 -5 9 3.2 4.7
11 -5 9 -0.9 3.6
11 5 10 3.7 7.4
11 -5 10 15.3 5.9
11 -5 10 24.3 5.7
11 5 11 24 9.3
11 -5 11 36.3 7
11 -5 11 22.9 9.1
-11 -6 11 52.49 10.3
11 -6 -11 43.4 9
-11 6 10 18.6 9.1
11 -6 -10 -5.8 6
-11 -6 10 17.4 7.1
-11 6 9 6.8 7.3
11 -6 -9 12.9 7.7
-11 -6 9 18.7 7.2
-11 6 8 18.4 6.7
-11 -6 8 20.3 6.8
-11 6 7 18.7 7.5
-11 -6 7 20.4 6.1
-11 -6 7 25.3 7.5
11 -6 -7 -1 6.6
11 6 -6 64.49 8.9
11 -6 -6 61.99 12.6
-11 -6 6 80.59 9.1
11 6 -5 15.2 5.5
11 6 -5 28.6 7.3
11 -6 -5 15 7.9
-11 -6 5 28.9 7.6
-11 -6 5 22.2 5.7
11 6 -4 83.59 8.5
11 6 -4 86.39 11.1
-11 -6 4 83.29 9.8
-11 -6 4 63.39 8.2
11 -6 -4 67.49 11.6
11 6 -3 117.69 12.4
11 6 -3 106.89 9.3
-11 -6 3 165.48 12.7
-11 -6 3 116.09 10.3
11 -6 -3 114.49 14.2
11 6 -2 22.3 7.7
11 6 -2 27.6 5.1
11 -6 -2 35.5 9
-11 -6 2 32.6 6.3
-11 -6 2 40.7 7.8
-11 6 1 144.59 9.7
11 6 -1 147.79 14.4
11 6 -1 136.29 9.8
11 -6 -1 136.19 14.4
-11 -6 1 126.59 11.1
-11 -6 1 128.89 12.3
11 6 0 0.7 3.7
11 6 0 -2.2 4.6
-11 6 0 2.4 2.9
-11 -6 0 3.5 4.8
11 -6 0 0.9 5.5
-11 -6 0 10.4 5.5
11 6 1 -7.2 4.6
-11 6 -1 3.1 2.3
11 6 1 1.2 3.7
11 -6 1 1.3 5.3
-11 -6 -1 -2.5 4.6
-11 -6 -1 1.3 4.9
11 6 2 347.27 24.4
-11 6 -2 332.77 14.3
11 6 2 353.46 19.1
-11 -6 -2 382.96 22
11 -6 2 338.07 22.4
11 6 3 7.7 6.1
11 6 3 4.1 6
-11 6 -3 0.2 1.7
-11 -6 -3 14.5 8
11 -6 3 -1.5 5.4
11 6 4 42.7 7.4
-11 6 -4 53.59 4.6
11 6 4 57.49 11.4
-11 -6 -4 40.6 8
11 6 5 2.1 7.2
11 6 5 1 5.4
-11 -6 -5 5.9 5.7
11 -6 5 -4.3 2.1
11 6 6 9 8.2
11 -6 6 8.8 3
-11 -6 -6 -1.9 8.2
11 -6 7 13.2 3.7
11 6 8 4.5 7.7
11 -6 8 4.1 3.3
11 6 9 36.1 11.1
11 -6 9 29.5 5.1
11 -6 9 21.6 6.2
11 6 10 17.5 10.7
11 -6 10 26.3 5.7
11 -6 10 13.4 6
11 6 11 0.9 9.3
11 -6 11 11.2 5.3
11 -6 11 1.4 5.6
-11 7 10 13.6 6.9
-11 -7 10 20.1 7.3
-11 7 9 30.9 11.5
-11 -7 9 49.8 9.2
-11 7 8 13.3 8.1
-11 -7 8 11.6 6.2
11 -7 -8 11.7 10.5
11 -7 -7 12 9
-11 -7 7 21.5 6.7
11 -7 -6 66.29 12.7
-11 -7 6 67.49 9.9
-11 -7 6 100.19 15.9
11 7 -5 23.6 5.9
-11 -7 5 6.5 5.9
-11 -7 5 12.9 6.2
11 -7 -5 30.4 9.5
11 7 -4 4.8 6.7
11 7 -4 17 5.3
-11 -7 4 7.5 5.5
11 -7 -4 -1.6 7.9
-11 -7 4 20.7 6.9
11 7 -3 39.3 9.8
11 7 -3 41.2 7.3
-11 -7 3 37.5 7.2
-11 -7 3 35.5 8.6
11 -7 -3 58.29 12
-11 7 2 -3.7 4
11 7 -2 -9.5 5.4
11 7 -2 1.7 6.4
11 -7 -2 0.8 7
-11 -7 2 6.4 5.9
-11 -7 2 -0.6 5.3
11 7 -1 60.69 11.5
-11 7 1 69.19 7.4
-11 -7 1 72.79 11.2
-11 -7 1 79.19 10.2
11 -7 -1 55.19 11.7
11 7 0 13.7 7.9
11 7 0 2.5 7.7
-11 7 0 1.7 3.1
11 -7 0 -8.7 5.2
-11 -7 0 2.5 5.7
11 7 1 10.1 8.9
11 7 1 20.8 6.1
-11 7 -1 12.1 3.1
11 -7 1 22.8 8.8
-11 -7 -1 17.6 6.8
-11 -7 -1 20.6 7.2
11 7 2 126.19 17.7
11 7 2 105.09 11.2
-11 7 -2 105.19 6.7
11 -7 2 125.19 16.7
-11 -7 -2 124.39 14
11 7 3 11.9 9.3
11 7 3 16.8 6.5
-11 7 -3 15.9 2.9
-11 -7 -3 14.5 6.5
11 -7 3 32 9.8
11 7 4 52.09 12.8
-11 7 -4 45.5 5.4
11 -7 4 52.09 10.8
-11 7 -5 28.9 5.7
11 -7 5 35.6 10.4
11 -7 5 28.6 5.1
11 7 6 18.3 10.8
11 -7 6 27.6 4.8
11 7 7 29.7 10.9
11 -7 7 40 5.7
11 7 8 22.7 11.5
11 -7 8 8.7 4.2
11 7 9 -10.8 6.9
11 -7 9 -1.4 4
11 7 10 50.59 14.9
11 -7 10 33 6.4
11 -7 10 31.3 7.5
-11 8 9 28.4 9.9
-11 -8 9 44.8 9.6
-11 8 8 -10.3 6.2
-11 -8 8 7.4 6.6
-11 -8 7 45.9 8.7
-11 -8 6 17.7 7
-11 -8 5 22.1 9.2
-11 -8 5 39.5 14.4
11 8 -4 113.89 15.8
-11 8 4 113.69 12.2
-11 -8 4 157.28 14.4
-11 -8 4 102.29 11.8
11 8 -3 5.6 4.5
-11 8 3 1.8 4.9
11 8 -3 7.7 9.1
-11 -8 3 9 6.2
-11 -8 3 25.4 8.4
-11 8 2 5.5 4.5
11 8 -2 -0.4 4
11 8 -2 0.5 7.1
-11 -8 2 6 5.7
-11 8 1 1.4 3.9
11 8 -1 -1.4 7.2
11 8 -1 -2.1 3.6
-11 -8 1 7.3 6.9
-11 -8 1 -3.9 6.3
11 8 0 4.2 8.3
-11 8 0 -4.8 3.2
11 8 0 3.6 4.6
-11 -8 0 -1.8 5.2
-11 -8 0 5.1 7.3
11 8 1 2.7 9.4
11 8 1 0.1 5.3
11 8 2 -8.7 8.9
-11 8 -2 6.5 2.8
11 8 3 158.88 22
-11 8 -3 144.89 8.7
11 8 4 17.4 11.5
-11 8 -4 39.4 5.5
-11 8 -5 52.59 7.3
11 8 5 49.9 14
11 8 6 6.5 10.4
11 8 7 21.6 12.5
11 -8 7 26.6 6.5
11 8 8 53.19 15.7
11 -8 8 65.09 9.3
11 8 9 38.8 13.5
11 -8 9 18.9 6.1
-11 -9 8 1.5 6.2
-11 -9 7 -1.9 5.2
-11 -9 6 5.3 6.3
-11 -9 6 -15.1 6.8
-11 -9 5 3.8 6.5
11 9 -4 2.5 8.5
-11 9 4 7.6 6.1
-11 -9 4 0 6
-11 9 3 134.79 13.1
11 9 -3 138.79 19.4
-11 -9 3 157.28 14.4
-11 9 2 35.2 7
-11 -9 2 38.1 10.1
11 9 -1 10.5 9
-11 9 1 8.2 5.1
-11 -9 1 14.5 7.8
11 9 0 17 10.4
-11 9 0 18.5 4.7
-11 -9 0 27.9 9.4
-11 9 -1 48.3 5.9
11 9 1 68.09 15.5
11 9 2 23.6 12.5
-11 9 -2 8.3 3.4
11 9 3 39.2 14.4
-11 9 -4 11.5 4.1
11 9 4 10.4 9.4
11 9 5 -0.7 10.6
11 9 6 -12.5 6.3
11 9 7 13.7 12.9
11 9 8 -3.4 9.3
-11 -10 7 1.7 6.6
-11 -10 6 0.6 6.1
-11 -10 5 6.1 7
-11 -10 4 -4 6.6
11 10 -3 108.59 18.2
-11 10 3 124.89 12.4
-11 -10 3 123.39 15.9
-11 10 2 5.3 5.3
11 10 -2 13.4 11.6
-11 -10 2 4 7.2
-11 10 1 12.8 5.4
11 10 -1 11.8 10.4
-11 -10 1 10.5 7.7
11 10 0 -5 9.3
-11 10 0 0 4
11 10 1 31.4 12.9
-11 10 -2 197.38 12.4
11 10 2 207.48 23.1
-11 10 -3 3.3 3.7
11 10 3 0.8 14.8
11 10 4 84.19 20.4
-11 10 -4 89.19 9.2
11 10 5 49 21.6
-11 -11 5 21.8 9.4
-11 -11 4 20.7 9.9
11 11 -3 45.4 17
-11 -11 3 25 10.4
11 11 -2 64.39 17.3
-11 -11 2 62.89 13.8
11 11 -1 -7 10.3
-11 11 1 -3 4.9
11 11 0 12.3 11.7
-11 11 0 15.4 7
11 11 1 33.4 15.8
11 11 2 21.6 15.1
-11 11 -3 -2.3 3.3
11 11 4 -14.9 11.5
-12 0 13 -1.4 6.3
-12 0 12 11.9 7.8
-12 0 11 2.7 5.7
-12 0 10 18.2 7.1
-12 0 9 -0.2 4.3
-12 0 8 5 5.2
12 0 -7 -1.2 3.5
-12 0 7 2.2 3.9
-12 0 6 61.89 7.9
12 0 -6 74.49 8.3
-12 0 5 0.3 3.1
12 0 -5 -2.5 3
-12 0 4 80.09 11.3
12 0 -4 88.29 4.6
12 0 -4 88.49 7.7
12 0 -3 -0.4 1.5
12 0 -3 -1.1 2.7
-12 0 3 -2.7 2
12 0 -2 -0.7 1.6
-12 0 2 -0.3 2.2
12 0 -2 2.9 2.3
12 0 -1 -2.6 1.5
12 0 -1 0 1.8
-12 0 1 0.6 1.8
12 0 0 144.99 7.1
-12 0 0 132.19 7
12 0 0 139.79 7.5
-12 0 -1 2.7 2.1
12 0 1 -1.4 1.4
-12 0 -1 1.6 2.1
12 0 1 -4.1 2
12 0 2 203.08 10.8
-12 0 -2 220.58 10.5
12 0 2 196.48 9.5
12 0 3 -0.4 2.4
12 0 3 5.2 3.2
-12 0 -3 -0.1 2.2
12 0 4 224.48 12.3
-12 0 -4 238.28 12
-12 0 -5 2.1 2.8
12 0 5 0.2 3.4
12 0 6 15.3 5.1
12 0 7 -1.1 4
12 0 8 584.54 28.9
12 0 9 4.6 5.3
12 0 9 2.4 4.8
12 0 10 48.1 8.5
12 0 10 44 8.8
12 0 11 8.5 5.5
12 0 11 5.4 5.9
12 0 12 28 8.8
12 0 12 46.3 9.9
-12 1 13 0.3 5.8
-12 -1 13 -9.4 4.9
-12 1 12 -2.3 7.1
-12 -1 12 3 5.2
-12 1 11 22.4 6.9
-12 -1 11 36.5 8.6
-12 1 10 -0.7 5.2
-12 -1 10 10 6.2
-12 1 9 4.2 6
-12 -1 9 -5 4.7
-12 1 8 -0.4 3.7
12 1 -8 2.4 4.8
-12 -1 8 4.1 4.6
-12 1 7 139.19 11.6
12 1 -7 159.18 13.1
-12 -1 7 143.49 11.5
12 1 -6 40.9 6.9
-12 1 6 31.8 6.2
12 -1 -6 44 4.4
-12 -1 6 27.9 5.3
12 1 -5 67.69 7.1
-12 1 5 64.09 7.3
-12 -1 5 67.69 7.1
12 -1 -5 66.29 5.8
12 -1 -5 62.19 7.4
12 1 -4 47.9 6.3
-12 1 4 43.8 5.7
12 1 -4 49.7 4.1
12 -1 -4 46.4 6.3
-12 -1 4 45.1 5.9
12 -1 -4 54.19 5.9
-12 1 3 23.3 4.3
12 1 -3 13.3 4.2
12 1 -3 26.4 3.4
12 -1 -3 25.3 5
-12 -1 3 23.4 4
12 1 -2 3.9 2.3
12 1 -2 3.5 2.3
-12 1 2 1.3 2.1
-12 -1 2 1.5 1.7
12 -1 -2 5.6 2.8
-12 -1 2 1.7 2.5
-12 1 1 2.8 1.8
12 1 -1 1.6 2.5
12 1 -1 2.4 1.9
-12 -1 1 2.7 1.9
-12 -1 1 0.5 2.3
12 -1 -1 4.1 2.1
12 1 0 207.98 9.7
-12 1 0 207.68 8.8
12 1 0 205.88 10.7
-12 -1 0 201.98 9.9
-12 -1 0 191.38 9.7
12 -1 0 192.08 8.8
12 1 1 107.79 6.5
-12 1 -1 117.69 5.8
12 1 1 112.69 8
-12 -1 -1 110.89 7.3
-12 -1 -1 119.69 7.2
12 -1 1 119.29 5.5
12 -1 1 120.49 7
12 1 2 936.11 36.9
12 1 2 945.61 38.5
12 -1 2 950.4 35.3
-12 -1 -2 965.6 38.1
-12 -1 -2 953.3 38.9
12 -1 2 937.11 37.1
12 1 3 10.8 3.6
12 1 3 2.8 3.6
12 -1 3 12.2 2.6
12 -1 3 10.6 3.3
-12 -1 -3 6.9 3.1
12 1 4 19.4 4.9
12 1 4 8 6.4
12 -1 4 11.7 4.2
-12 -1 -4 16.3 3.7
12 1 5 181.78 12.3
12 -1 5 198.48 11.4
-12 -1 -5 194.38 11
12 1 6 22.6 6
12 -1 6 25.6 5.1
-12 -1 -6 31.8 4.8
12 1 7 15.1 5.6
-12 -1 -7 10.5 3.7
12 -1 7 13.6 5.1
12 -1 7 19.4 5.3
12 1 8 20.1 6.9
12 -1 8 18.5 5.6
-12 -1 -8 20.6 4.8
12 -1 8 25 6.3
12 1 9 33.5 7.8
12 -1 9 40.7 7.6
12 -1 9 22.7 6.3
12 1 10 130.29 14.6
12 1 10 155.58 14.5
12 -1 10 171.28 13.8
12 -1 10 158.08 13.9
12 1 11 13.2 6.7
12 1 11 15.6 7.2
12 -1 11 14.4 6.3
12 -1 11 14.6 6
12 1 12 95.29 14.4
12 -1 12 95.29 13
12 -1 12 96.29 13.3
-12 2 12 8.2 7
-12 -2 12 -3.3 5.8
-12 2 11 15 6.1
-12 -2 11 34.8 8.9
-12 2 10 32.5 8.8
-12 -2 10 19.5 6.3
-12 2 9 105.49 18.9
12 -2 -9 117.19 6.3
-12 -2 9 126.69 14
-12 2 8 6.9 5
12 2 -8 2.3 4.8
-12 -2 8 2.7 4.1
12 -2 -8 1.8 2.4
-12 2 7 11.7 5
12 2 -7 19.8 5.7
12 -2 -7 21.2 4.6
-12 -2 7 16.7 5.7
12 2 -6 113.89 10.1
-12 2 6 128.39 10.4
12 -2 -6 123.89 8.9
-12 -2 6 105.19 9.4
12 2 -5 112.69 5.9
-12 2 5 108.49 8.9
12 2 -5 102.59 8.6
-12 -2 5 105.99 8.7
12 -2 -5 110.09 8.8
12 2 -4 19.1 3.6
12 2 -4 12.6 3.5
12 -2 -4 20.8 5
-12 -2 4 14.4 2.2
-12 -2 4 15.2 3.8
-12 2 3 214.18 11.7
12 2 -3 198.08 11.2
12 2 -3 204.58 11.5
-12 -2 3 217.58 12.2
-12 -2 3 213.58 9.8
12 2 -2 31.6 4.7
12 2 -2 31.8 5
-12 2 2 29 4.1
-12 -2 2 33.9 4.7
-12 -2 2 33.3 3.9
12 2 -1 24.7 4.8
-12 2 1 28.6 3.4
-12 -2 1 33.8 4.3
12 -2 -1 27 3.8
-12 -2 1 28.8 4.1
-12 2 0 1.1 1.4
12 2 0 -1.8 2.1
12 2 0 -0.3 3.2
-12 -2 0 3.1 2.6
12 -2 0 1.7 1.7
-12 -2 0 0.7 2.6
-12 2 -1 19.8 1.9
12 2 1 23.4 3.8
12 2 1 20.3 5.1
-12 -2 -1 23.4 4.5
-12 -2 -1 22.8 4.3
12 -2 1 18 1.8
12 2 2 1587.14 61.19
12 2 2 1629.14 63.59
-12 -2 -2 1555.14 61.69
-12 -2 -2 1631.44 62.59
12 2 3 462.05 21.3
12 2 3 457.75 25.4
12 -2 3 464.05 18.4
-12 -2 -3 473.95 21.4
12 -2 3 480.25 18.2
12 2 4 114.99 8.9
12 2 4 130.49 10.9
-12 -2 -4 127.99 9
12 -2 4 117.49 8.2
12 -2 4 121.29 7.1
12 2 5 121.69 10.1
12 2 5 128.19 11.4
12 -2 5 131.59 8.1
-12 -2 -5 122.59 8.7
12 -2 5 131.39 8.8
12 2 6 48.9 8.4
12 -2 6 29.2 5
12 -2 6 41.4 5.7
-12 -2 -6 30.1 5.3
12 2 7 48.3 9.2
-12 -2 -7 54.49 6.9
12 -2 7 63.49 7.7
12 -2 7 55.59 7
12 2 8 14.7 7
12 -2 8 14.3 5.1
-12 -2 -8 13.1 4.3
12 -2 8 19.9 5.7
12 2 9 32.8 8.3
12 -2 9 22.5 6.3
12 -2 9 28.1 6.4
-12 -2 -9 20 5
12 2 10 -9.2 3.9
12 -2 10 -5.1 4.2
-12 -2 -10 2.2 3.4
12 -2 10 1.1 4.7
12 2 11 -1.6 5.9
12 2 11 -4.3 5.8
12 -2 11 4.7 4.7
12 -2 11 -3.9 4.9
12 2 12 -7 5.3
12 2 12 -3.4 6.2
12 -2 12 -0.7 4.9
12 -2 12 -0.4 5.3
-12 3 12 12.8 8
-12 -3 12 0.8 6.5
-12 3 11 -1.5 6.2
12 -3 -11 3.3 1.8
-12 -3 11 3 6.3
-12 3 10 6.3 6
-12 -3 10 4.3 6.3
12 -3 -10 0.5 2.5
-12 3 9 29.8 7.2
-12 -3 9 10.3 8.2
12 -3 -9 20.6 4.6
12 3 -8 20 6.8
-12 3 8 19.1 7.1
12 -3 -8 18.5 5.1
-12 -3 8 18.9 6.3
12 3 -7 -3.6 3.5
-12 3 7 3 4.7
-12 -3 7 2 4.4
12 -3 -7 12 4.6
12 3 -6 78.69 8.1
-12 3 6 83.99 9.4
-12 -3 6 81.79 4.4
12 -3 -6 89.79 8.8
-12 -3 6 75.59 7.9
-12 3 5 151.78 11.6
12 3 -5 155.08 11.1
12 3 -5 172.08 9.6
-12 -3 5 163.68 8.1
12 -3 -5 173.38 12.6
-12 -3 5 160.18 11.1
12 3 -4 4.7 3.2
12 3 -4 1.8 3.3
-12 3 4 3.6 3.5
-12 -3 4 6.4 3.8
-12 -3 4 3.6 2.3
12 -3 -4 6.7 4.5
12 3 -3 51.29 6.1
12 3 -3 59.29 7.1
-12 3 3 42.9 5.8
-12 -3 3 51.89 5.1
12 -3 -3 48 7.7
-12 -3 3 57.49 6.3
12 3 -2 464.85 20.8
-12 3 2 485.25 20.7
12 3 -2 482.45 22.5
-12 -3 2 441.66 20.5
12 3 -1 77.69 6.7
-12 3 1 72.99 5.5
12 3 -1 73.59 8.3
-12 -3 1 68.29 7
-12 -3 1 72.79 6.8
12 3 0 13.1 5.3
-12 3 0 16.1 2.3
12 3 0 11.8 3.5
-12 -3 0 7 3.7
12 3 1 2.7 4.8
12 3 1 -1.9 2.7
-12 -3 -1 2.7 3.7
-12 -3 -1 -3.6 3.2
12 3 2 650.63 27.4
12 3 2 651.93 30.6
-12 -3 -2 624.64 28.4
12 3 3 78.39 10.2
12 3 3 82.69 7.8
-12 -3 -3 83.79 8.1
12 3 4 -2.7 4.3
12 3 4 3.1 3.2
-12 -3 -4 -3.5 3.2
12 -3 4 2.1 1.4
12 3 5 51.29 8.9
12 3 5 50.09 7.1
12 -3 5 43.5 4.1
-12 -3 -5 45.4 6.4
12 3 6 2.6 4.4
12 3 6 3 5.1
-12 -3 -6 -1.4 3.2
12 -3 6 2 3.6
12 -3 6 -0.6 2.4
12 3 7 58.29 10.8
-12 -3 -7 41.5 6.6
12 -3 7 42 5.7
12 -3 7 56.39 7.1
12 3 8 88.29 12.6
12 -3 8 81.09 8.6
-12 -3 -8 73.19 8.5
12 -3 8 79.79 8.1
12 3 9 201.48 17.8
12 -3 9 190.18 12.9
-12 -3 -9 198.88 13.3
12 -3 9 191.88 13.6
12 3 10 52.99 10.5
12 -3 10 36.7 7.4
12 -3 10 45.3 7.2
12 3 11 -0.7 5.6
12 -3 11 -2.1 4.9
12 -3 11 -3.3 4.5
12 3 12 12.7 7.7
12 3 12 4.1 9.2
12 -3 12 8.4 6
12 -3 12 19.6 6.9
-12 4 12 54.89 15.9
-12 -4 12 59.99 11.4
-12 4 11 48 11
-12 -4 11 34.2 9.2
12 -4 -11 49.1 5.9
-12 4 10 13 7.3
-12 -4 10 6.3 6.4
12 -4 -10 9.3 4.4
-12 4 9 1.7 5.7
12 -4 -9 0.1 4.3
-12 -4 9 -0.6 5.2
-12 4 8 7.7 6.2
-12 -4 8 19.1 5.7
12 -4 -8 18 6.6
12 4 -7 7.3 5.1
-12 4 7 12.4 6
-12 -4 7 7 5
12 -4 -7 -1.4 4.6
-12 -4 7 3.4 2.2
-12 4 6 14.5 5.5
12 4 -6 22.8 6
-12 -4 6 6.5 4.1
12 -4 -6 8.6 5.4
-12 -4 6 13.1 3.6
12 4 -5 6.8 4
-12 4 5 6.3 4.3
12 4 -5 12.4 4.4
-12 -4 5 10.1 4.2
12 -4 -5 4 4.8
-12 -4 5 8.5 3.3
12 4 -4 72.79 7
12 4 -4 53.89 7.5
-12 4 4 70.09 7.7
12 -4 -4 72.69 10
-12 -4 4 66.79 6.4
-12 -4 4 59.79 7
-12 4 3 77.69 7.5
12 4 -3 74.69 8.7
12 4 -3 75.29 6.9
-12 -4 3 67.99 7.1
-12 -4 3 87.89 7.3
12 -4 -3 93.69 9.9
12 4 -2 97.29 9.8
12 4 -2 101.69 7.6
-12 4 2 93.29 7.5
-12 -4 2 96.19 10
-12 -4 2 104.59 8
12 -4 -2 118.89 11.1
-12 4 1 15.6 3.3
12 4 -1 7.1 5.3
12 4 -1 17 3.8
-12 -4 1 14.8 4.6
-12 -4 1 15.2 4.6
-12 4 0 16.5 2.8
12 4 0 17.3 6.6
12 4 0 13.2 4
-12 -4 0 20 4.9
-12 -4 0 16 4.9
-12 4 -1 313.87 11.8
12 4 1 293.47 15.2
12 4 1 322.47 19.6
-12 -4 -1 298.67 16.8
-12 -4 -1 308.27 17.1
12 4 2 166.98 10.6
12 4 2 168.58 14.2
-12 -4 -2 155.58 12.4
-12 -4 -2 174.28 12.2
12 4 3 25.4 5.6
12 4 3 40.5 8.4
-12 -4 -3 26.1 5.7
12 4 4 17 4.9
12 4 4 14.2 7
-12 -4 -4 22.5 5.4
12 4 5 22.9 6
12 4 5 21 7.7
12 -4 5 18.9 2.5
-12 -4 -5 20.8 5.7
12 4 6 22.7 7.9
12 4 6 19.9 7
12 -4 6 24.4 3.6
-12 -4 -6 38.8 7
12 4 7 20 6.8
12 4 7 22.5 8.9
-12 -4 -7 13.7 5.1
12 -4 7 12.4 3.6
12 -4 7 17.2 5.1
12 4 8 345.67 24.7
-12 -4 -8 371.26 21.1
12 4 9 -3.8 6
12 -4 9 -10.2 3.6
12 -4 9 1.9 3.6
12 4 10 2 6.3
12 -4 10 6 5.3
12 -4 10 5.3 4.1
12 4 11 61.19 13.3
12 -4 11 55.29 9
12 -4 11 52.39 7.6
-12 5 11 -5.3 6.3
-12 -5 11 -10.9 5.3
12 -5 -11 1.6 4.5
-12 5 10 16.4 8.7
12 -5 -10 12.7 6
-12 -5 10 11.9 6.9
-12 5 9 76.09 12.5
-12 -5 9 66.99 10.2
12 -5 -9 69.59 11.2
-12 5 8 13.6 7.2
-12 -5 8 12.6 4.9
12 -5 -8 18.9 7.7
12 5 -7 41.7 8.1
-12 5 7 49.6 8.8
12 -5 -7 62.69 10.4
-12 -5 7 60.09 8.8
-12 -5 7 62.59 7.9
12 5 -6 31.5 6.6
-12 5 6 23.6 6.6
-12 -5 6 22.4 5.8
-12 -5 6 36 5.9
12 -5 -6 29.6 8.1
-12 5 5 116.39 10.9
12 5 -5 110.99 10.5
12 5 -5 96.79 9
12 -5 -5 96.89 12.2
-12 -5 5 118.59 12.3
-12 -5 5 97.99 9.4
12 5 -4 179.18 12.4
12 5 -4 188.28 14
12 -5 -4 191.08 15.9
-12 -5 4 228.28 13.1
-12 -5 4 209.08 12.8
12 5 -3 141.89 10.1
12 -5 -3 154.38 14.2
-12 -5 3 157.98 11.4
-12 -5 3 156.98 10.7
12 5 -2 5.7 3.6
12 5 -2 5 5.7
-12 -5 2 2.8 3.5
-12 -5 2 2.2 4.6
12 -5 -2 1.8 4.9
12 5 -1 5.2 5.4
12 5 -1 3.4 3.3
12 -5 -1 7.2 5.2
-12 -5 1 3.8 4.3
-12 -5 1 7.8 4.7
12 5 0 95.49 8.3
-12 5 0 90.19 6.4
12 5 0 95.89 11.5
-12 -5 0 103.69 9.9
12 -5 0 104.69 11.6
-12 -5 0 97.89 9
-12 5 -1 40.8 3.2
12 5 1 40.3 8.8
12 5 1 48.9 6.4
-12 -5 -1 25.4 6
-12 -5 -1 42.2 7.3
12 5 2 10.4 6.8
12 5 2 -1.1 3.4
-12 -5 -2 9.8 5.2
-12 -5 -2 9.1 5.2
12 5 3 82.99 12.1
12 5 3 102.89 8.9
-12 -5 -3 101.19 10.5
12 5 4 4.9 6
12 5 4 12.8 5.1
-12 -5 -4 3.6 5.2
12 5 5 61.59 11.2
12 5 5 52.19 9.1
-12 -5 -5 50.79 9.1
12 -5 5 53.89 4
12 5 6 1.3 5
12 5 6 8.3 6.8
-12 -5 -6 17 6
12 -5 6 7.6 2.6
12 5 7 17.2 9
-12 -5 -7 22.1 7.1
12 -5 7 27.2 4.2
12 -5 8 1.4 3
12 -5 8 -0.9 4.3
12 5 9 1.8 7.1
12 -5 9 5.6 5
12 -5 9 5.3 3.8
12 5 10 18.7 9.2
12 -5 10 7.7 4.2
12 -5 10 6.3 5.1
12 5 11 17.3 10.5
12 -5 11 11.1 5.2
12 -5 11 17.6 7.1
12 -6 -11 2.7 6.3
-12 -6 11 18.9 8.2
-12 6 10 16.2 8.7
12 -6 -10 18.9 8.6
-12 -6 10 37 9.2
-12 6 9 47.1 10.9
-12 -6 9 60.49 10
12 -6 -9 48 9.8
-12 6 8 19.2 7.9
-12 -6 8 13.1 6.5
-12 6 7 -5.2 4.5
-12 -6 7 6.1 6
12 -6 -7 -9.5 5.5
-12 -6 7 6.5 5.3
12 6 -6 -0.7 3.9
-12 6 6 -11.5 3.9
-12 -6 6 -0.3 4.7
-12 -6 6 13 5.5
12 -6 -6 16.9 7.4
12 6 -5 71.99 8.5
12 6 -5 82.89 11.2
-12 -6 5 65.89 9.1
12 -6 -5 72.49 11.9
-12 -6 5 94.59 10.2
12 6 -4 147.59 13.8
12 -6 -4 134.49 15.4
-12 -6 4 135.29 10.6
-12 -6 4 144.39 11.9
12 6 -3 11 6.3
12 6 -3 8 4.1
12 -6 -3 13.9 7.6
-12 -6 3 9 5.2
-12 -6 3 19.4 6.2
12 6 -2 28.4 8.3
12 6 -2 24.4 5.6
-12 -6 2 30 6.3
-12 -6 2 30.5 6.9
12 -6 -2 42.6 8.5
12 6 -1 25.8 7.9
12 6 -1 19.2 4.5
-12 6 1 19.4 4.6
-12 -6 1 22.3 5.9
12 -6 -1 27 8.3
-12 -6 1 39.6 7.6
12 6 0 -7.5 5.5
-12 6 0 2.8 2.8
12 6 0 3.9 4
-12 -6 0 9.3 5.4
12 -6 0 -1.7 5.3
-12 -6 0 8.6 5.4
12 6 1 -3.3 5.9
12 6 1 9.6 4.3
-12 6 -1 0.9 2
-12 -6 -1 2.4 5.2
12 -6 1 2.3 6.1
-12 -6 -1 11.1 5.9
12 6 2 523.25 25.9
12 6 2 578.64 32
-12 6 -2 516.55 20.6
12 -6 2 472.05 30.1
-12 -6 -2 580.94 29.2
12 6 3 6.1 4.5
-12 6 -3 -1.2 1.5
12 6 3 3.1 7.8
-12 -6 -3 4.5 4.9
12 6 4 47.3 11.6
12 6 4 45.9 8
-12 -6 -4 53.39 8.8
12 6 5 7.1 7.1
12 6 5 -0.5 5
-12 -6 -5 1.4 4.6
12 -6 5 6.6 2.7
12 6 6 266.57 22.3
12 -6 6 262.87 12.6
12 6 7 0.7 7.5
12 -6 7 -4.1 2.6
12 6 8 5.2 8
12 -6 8 5.8 3.4
12 6 9 15.5 9.2
12 -6 9 5.8 3.7
12 6 10 15.1 9.1
12 -6 10 5 5
12 -6 10 1 3.8
-12 7 10 -8.6 6.2
-12 -7 10 10.4 6.3
-12 7 9 3.6 7.1
-12 -7 9 0.9 6.1
-12 7 8 4.7 6.5
-12 -7 8 -1.2 5
12 -7 -8 -0.4 7.6
-12 7 7 9.3 6.6
-12 -7 7 19.3 8.8
-12 -7 7 5.4 6
12 -7 -7 11.7 7.7
-12 -7 6 -1.5 5.4
12 -7 -6 -3.3 8.3
-12 -7 6 -3.3 6.5
12 7 -5 8.1 6.6
12 7 -5 14.9 5.5
-12 -7 5 11.3 6.3
12 -7 -5 20.1 9.5
-12 -7 5 11.3 6.2
12 7 -4 43.5 10.2
12 7 -4 52.09 8
12 -7 -4 54.99 12.1
-12 -7 4 51.69 9
-12 -7 4 34.9 7.6
12 7 -3 9.8 6.9
12 7 -3 12.7 5.1
-12 -7 3 14.2 6.5
-12 -7 3 20.7 6.5
12 -7 -3 27.7 9.5
12 7 -2 7.7 4.2
12 7 -2 4.3 6.9
-12 7 2 14.8 5.3
12 -7 -2 -3.9 6.9
-12 -7 2 12.1 6
-12 -7 2 14.2 6.7
12 7 -1 5.7 4.2
-12 7 1 9.5 4.4
12 7 -1 7.5 7.7
12 -7 -1 20.6 9.2
-12 -7 1 6.7 6
-12 -7 1 0.1 4.9
12 7 0 38.9 10.8
12 7 0 39.1 7
-12 7 0 44.9 5.3
12 -7 0 45.5 10.2
-12 -7 0 40.9 8.2
-12 -7 0 36.4 12.4
-12 7 -1 6 2.7
12 7 1 -10.6 5.6
12 7 1 4.1 4.7
-12 -7 -1 3.6 5.4
12 -7 1 6.9 6.5
-12 -7 -1 -8.9 5.2
12 7 2 720.63 34.3
-12 7 -2 667.83 28.6
12 7 2 816.12 42.8
-12 -7 -2 811.92 38.6
12 -7 2 707.53 40.8
12 7 3 -5.4 7.3
-12 7 -3 0.7 1.9
12 7 3 3.8 5.2
-12 -7 -3 -5.8 5.3
12 -7 3 -2 7
12 7 4 -6.2 7.9
-12 7 -4 1 2.6
12 -7 4 16.4 8.7
12 7 5 8.5 9.6
12 7 6 16.8 10.2
12 -7 6 32.2 5.2
12 7 7 -18.4 6.3
12 -7 7 -0.9 3.1
12 7 8 17 10.6
12 -7 8 31.8 5.6
12 7 9 7 8.4
12 7 10 25.4 11.2
12 -7 10 3.1 5.6
12 -7 10 18 5.9
-12 8 9 39.5 13
-12 -8 9 32.1 8.8
-12 8 8 0.4 6.8
-12 -8 8 19.1 8
-12 -8 7 5.8 5.7
-12 -8 6 15.4 6.5
-12 -8 6 15.9 7.7
-12 -8 5 -0.3 5.2
12 8 -4 1.1 7.6
-12 -8 4 -8.2 5
-12 -8 4 14.4 6.4
12 8 -3 -0.9 7.1
-12 8 3 -0.3 4.4
-12 -8 3 -14.3 6.7
-12 -8 3 2.8 5.6
-12 8 2 105.19 10
12 8 -2 62.19 12.6
12 8 -2 67.69 9.7
-12 -8 2 114.09 15.4
-12 -8 2 82.99 11.4
12 8 -1 57.49 9.1
-12 8 1 41.2 6.5
12 8 -1 50.19 12
-12 -8 1 73.09 12.1
-12 -8 1 50.09 9.2
12 8 0 26.1 10.4
12 8 0 5.9 6.3
-12 8 0 7 3.8
-12 -8 0 3.9 7.7
-12 -8 0 6.9 7.1
-12 8 -1 9 3.3
12 8 1 0.9 7.4
-12 -8 -1 7.5 6.6
-12 8 -2 12.8 3.3
-12 8 -3 23.9 3.6
12 8 3 9.1 10.8
-12 8 -4 133.99 9.1
12 8 4 132.59 21.2
12 8 5 47.4 15
12 8 6 -3.4 9.6
12 8 7 55.89 18.1
12 8 8 34.8 13
12 8 9 13.9 11.8
-12 -9 8 7.2 6.5
-12 -9 7 13.3 6.7
-12 -9 6 -5.2 5.4
-12 -9 5 2.9 6.1
12 9 -4 12.2 8.5
-12 9 4 8.3 6.2
-12 -9 4 14.7 7.2
12 9 -3 2.9 8.5
-12 9 3 5.5 6.3
-12 -9 3 2.4 6
-12 9 2 14.1 5.4
12 9 -2 33.2 16.4
-12 -9 2 15.8 7.7
12 9 -1 -14.1 6.9
-12 9 1 6.3 4.4
-12 -9 1 5.8 7.1
-12 9 0 -0.2 3.3
12 9 0 -8.7 8.2
-12 -9 0 -1.7 7.2
12 9 1 9.1 10
-12 9 -1 13.1 4
12 9 2 8 11.1
12 9 3 52.19 12.9
-12 9 -3 41.8 5.1
12 9 4 -0.8 7.4
-12 9 -4 2.3 3.2
12 9 5 -4.8 10
12 9 6 -16.8 7.8
12 9 7 20.7 14
-12 -10 7 -4.7 6.3
-12 -10 6 -2 6.2
-12 -10 5 1.2 6.8
12 10 -4 19.6 12.2
-12 -10 4 9.4 7.2
12 10 -3 72.89 17.2
-12 10 3 69.09 10.1
-12 -10 3 72.29 12.4
-12 10 2 7.2 5.5
12 10 -2 -7.1 8.9
-12 -10 2 -11.3 5.9
12 10 -1 40.2 14.5
-12 10 1 45.7 7.3
-12 -10 1 44.6 11.1
-12 10 0 67.59 7.8
12 10 0 58.79 16.1
12 10 1 23.5 13.2
-12 10 -1 14.3 4.4
12 10 2 26.5 13.3
12 10 3 7 14
-12 10 -3 18.6 5.3
12 10 4 6 12.1
12 10 5 3.2 15.2
-12 -11 4 32.1 11
12 11 -3 13 13.2
-12 -11 3 4.9 8.6
12 11 -2 30.4 15.3
-12 11 2 37.7 8.6
-12 -11 2 34.4 10.9
12 11 -1 11.8 12.8
-12 11 1 0.9 4.8
-12 11 0 15.4 5.3
12 11 0 1.8 11.8
-12 11 -1 6 4.6
12 11 1 12.4 13.1
12 11 2 68.79 20.1
-12 11 -2 34.3 5.8
-12 11 -3 6.2 3.6
12 11 4 5.8 15.8
-13 0 13 0.2 6.2
-13 0 12 73.89 13.1
-13 0 11 8.6 6.9
-13 0 10 65.09 10.8
-13 0 9 -6 5.1
-13 0 8 2.7 4.5
-13 0 7 3.1 4.4
13 0 -7 -1.8 2.9
-13 0 6 8.9 4.3
13 0 -6 15.9 4.9
13 0 -5 -0.3 1.2
13 0 -5 0.6 3.2
-13 0 5 -2.5 2.5
13 0 -5 1.1 2
13 0 -4 1142.49 48.2
13 0 -4 1181.98 44.3
-13 0 4 1262.07 47.9
13 0 -3 0.9 1.7
-13 0 3 3.2 2.6
13 0 -3 -1.4 4.4
13 0 -2 0 2.3
13 0 -2 0.1 1.7
-13 0 2 1.2 2.4
13 0 -1 -2.6 1.6
-13 0 1 -0.8 1.8
13 0 -1 -3.4 1.7
-13 0 0 4.4 2.1
13 0 0 6.6 2.5
13 0 0 6.3 2.1
-13 0 -1 -1.3 2
13 0 1 -2.8 1.5
13 0 1 0.3 2.4
13 0 2 1.3 3
13 0 2 -0.3 2
-13 0 -2 0.2 2.3
13 0 3 -1.3 2.4
13 0 3 2.4 3.3
-13 0 -3 0.4 2.4
13 0 4 30.3 6
-13 0 -4 40.1 5
13 0 4 47.2 5.6
13 0 5 -1.3 3.3
13 0 6 213.38 13.6
13 0 7 -1.7 4.4
13 0 8 210.18 14.9
13 0 9 1 4.7
13 0 9 -7.5 3.7
13 0 10 11.9 5.7
13 0 10 5 5.1
13 0 11 3.2 5.4
13 0 11 -5.8 4.9
13 0 12 23.9 8.3
13 0 12 20 8.2
-13 1 13 -10.6 5.7
-13 -1 13 4.6 7.2
-13 1 12 8.3 7.9
-13 -1 12 2.7 5.9
-13 1 11 34.1 7.6
-13 -1 11 23.3 7.8
-13 1 10 -2.9 4.6
-13 -1 10 11.3 6.2
-13 -1 9 13.1 9.6
-13 1 8 1.4 5
13 1 -8 12.9 5.9
-13 -1 8 5.3 4.5
-13 1 7 13.4 5.1
13 1 -7 2.2 4.6
-13 -1 7 5.6 4.3
13 1 -6 1.9 3.4
-13 1 6 4.2 4.1
-13 -1 6 -1.4 3.5
13 -1 -6 1.2 2.5
13 1 -5 111.79 9.2
-13 1 5 86.89 8.4
13 -1 -5 113.79 7.5
-13 -1 5 98.79 8
13 -1 -5 98.59 9.3
13 1 -4 33.5 3.8
13 1 -4 20.4 4.4
-13 -1 4 29.1 4.7
13 -1 -4 33.5 5.8
-13 1 3 3.7 3
13 1 -3 4.8 2.9
13 1 -3 3.7 2.4
-13 -1 3 4.7 3.2
13 -1 -3 7.2 3.4
-13 1 2 48.4 4.8
13 1 -2 37.1 5
13 1 -2 56.09 5
-13 -1 2 49.7 3.9
13 -1 -2 45.2 5.3
-13 -1 2 55.89 5.2
13 1 -1 32.9 4.4
-13 1 1 33.3 3.6
13 1 -1 31.7 4.1
-13 -1 1 30.6 3.7
-13 -1 1 32.8 4.2
13 -1 -1 33.9 3.8
13 1 0 82.09 6.8
13 1 0 112.19 6.5
-13 1 0 107.49 5.6
-13 -1 0 105.69 6.5
-13 -1 0 106.29 6.7
13 -1 0 106.59 5.6
13 1 1 113.29 6.7
13 1 1 103.89 7.7
-13 1 -1 109.19 5.7
13 -1 1 104.79 6.7
-13 -1 -1 96.49 6.6
13 -1 1 113.39 5.4
-13 -1 -1 109.59 7.2
13 1 2 -1 2.8
13 1 2 1.4 2.5
13 -1 2 0.8 2.6
13 -1 2 1.6 1.6
-13 -1 -2 -1.1 2.6
-13 -1 -2 3.3 3.4
13 1 3 4.4 3.3
13 -1 3 5.3 3.6
13 -1 3 5.7 2.3
13 1 4 146.79 10.5
13 1 4 140.09 11.1
13 -1 4 149.09 9.2
13 -1 4 130.49 8.1
-13 -1 -4 140.49 8.9
13 1 5 0.8 3.8
13 1 5 -2.3 3.2
13 -1 5 4.9 3.6
-13 -1 -5 0.2 2.7
13 1 6 82.79 9.4
13 -1 6 91.89 8.2
-13 -1 -6 108.59 7.8
13 1 7 19.1 6.4
13 -1 7 18.6 5.5
-13 -1 -7 15 4.4
13 -1 7 20.6 5.2
13 1 8 203.88 15.7
-13 -1 -8 210.58 12.8
13 -1 8 233.38 15
13 -1 8 212.48 14.6
13 1 9 37.7 8.1
13 -1 9 22.8 6.5
13 -1 9 33.8 7.3
13 1 10 5.5 6.1
13 1 10 6.2 5.8
13 -1 10 1 4.6
13 -1 10 1.8 5
13 1 11 13.6 6.6
13 1 11 15.5 7.1
13 -1 11 12.1 6
13 -1 11 13.4 5.9
13 1 12 24.9 8.3
13 1 12 26.8 9.7
13 -1 12 19 7.7
-13 2 12 15.5 8.1
-13 -2 12 4.7 6.7
-13 2 11 -1 5
-13 -2 11 0.7 5.4
-13 2 10 5 5.8
-13 -2 10 11.5 5.4
-13 2 9 173.78 15.2
13 -2 -9 168.28 8
-13 2 8 -2.7 5
13 2 -8 -0.8 4.1
13 -2 -8 -0.7 2.4
-13 -2 8 -8.3 3.5
-13 2 7 2.1 4.6
13 2 -7 3.1 6.7
13 -2 -7 11.2 3.8
-13 -2 7 10.8 5.2
13 2 -6 1.6 3.5
-13 2 6 -0.3 3.8
-13 -2 6 4.6 3.8
13 -2 -6 5.2 3.5
13 2 -5 10.3 2.5
13 2 -5 14.5 4.3
-13 2 5 3.5 3.7
-13 -2 5 10.3 3.9
13 -2 -5 7.7 4.1
-13 2 4 29.8 5.9
13 2 -4 37.1 4.7
13 2 -4 31.9 5.3
-13 -2 4 32.5 5.3
13 -2 -4 36.9 6
-13 -2 4 34.6 3.1
13 2 -3 37.8 5.2
13 2 -3 35.1 5.1
-13 2 3 40.1 5.2
-13 -2 3 43.3 5.8
-13 -2 3 37.1 3.9
13 2 -2 155.48 9.2
-13 2 2 165.38 8.9
13 2 -2 147.99 9.9
-13 -2 2 163.48 8.5
-13 -2 2 147.79 9.4
13 -2 -2 151.18 9.5
13 2 -1 991.8 40.7
-13 2 1 1023.9 38.2
13 -2 -1 1002.9 39.1
-13 -2 1 935.81 39
-13 -2 1 1050.29 39.6
13 2 0 18 3.7
13 2 0 20.3 4.8
-13 2 0 16.1 2.2
-13 -2 0 13.9 3.6
-13 -2 0 15.2 3.6
13 -2 0 20.3 2.9
13 2 1 11.1 4.3
-13 2 -1 8.8 1.6
13 2 1 9.8 3.2
13 -2 1 8.5 1.6
-13 -2 -1 15.5 4.3
-13 -2 -1 12.4 4.1
13 2 2 1567.54 61.19
-13 -2 -2 1465.35 59.09
-13 -2 -2 1539.75 59.79
13 2 3 172.58 10.7
13 2 3 173.98 12.6
-13 -2 -3 174.48 10.5
13 -2 3 170.28 7.4
13 2 4 67.89 8.7
13 2 4 63.59 7.4
13 -2 4 57.19 4.7
13 -2 4 51.19 5.8
-13 -2 -4 62.39 6.2
13 2 5 -1.7 3.4
13 2 5 -4.7 3.8
13 -2 5 1.7 3
13 -2 5 4.8 2.8
-13 -2 -5 -0.2 2.9
13 2 6 77.89 10.4
13 2 6 78.79 8.6
13 -2 6 71.09 7
13 -2 6 81.69 7.4
-13 -2 -6 70.59 7.1
13 2 7 15.7 6.6
13 -2 7 15.1 4.6
-13 -2 -7 13.9 4.5
13 -2 7 14.6 5.2
13 2 8 11.1 6.7
13 -2 8 13.9 5.3
13 -2 8 35.7 6.5
13 2 9 -0.9 5.5
13 -2 9 2.8 4.8
-13 -2 -9 0.3 3.2
13 -2 9 -2.9 3.8
13 2 10 5.2 5.9
13 -2 10 4 5.3
13 -2 10 1.3 4.7
-13 -2 -10 -0.7 4.4
13 2 11 8.7 6.8
13 2 11 4.1 7.1
13 -2 11 1.4 4.4
13 -2 11 7.1 5.7
13 2 12 38.2 10.4
13 2 12 39 10.2
13 -2 12 35.1 7.9
-13 -3 12 8 7.8
-13 3 11 -3.4 6.4
-13 -3 11 -0.1 6.4
13 -3 -11 0.8 1.5
-13 3 10 17.5 6.5
-13 -3 10 15.9 7.7
13 -3 -10 19.6 3.7
-13 3 9 0.5 5.3
-13 -3 9 4.9 5.7
13 -3 -9 -3.2 3
-13 3 8 36.7 7.8
13 3 -8 51.39 9.5
-13 -3 8 43.4 8.3
13 -3 -8 40.1 6.5
13 3 -7 12.3 5.4
-13 3 7 8.1 5.6
13 -3 -7 11.4 4.9
-13 -3 7 10.4 5.2
-13 3 6 54.49 8.3
13 3 -6 65.09 8.5
13 -3 -6 67.29 8.5
-13 -3 6 56.19 3.5
-13 -3 6 63.09 7.4
13 3 -5 373.36 19
-13 3 5 344.37 19.1
13 3 -5 393.96 17.5
-13 -3 5 382.06 15.6
-13 -3 5 345.57 18.7
13 -3 -5 374.56 20.8
13 3 -4 178.18 11.4
-13 3 4 189.18 12
13 3 -4 174.08 11.1
-13 -3 4 187.18 9.4
-13 -3 4 184.58 11.2
13 -3 -4 199.08 15.4
13 3 -3 43 5.8
13 3 -3 56.59 7
-13 3 3 49.4 6.1
-13 -3 3 46.2 5.8
-13 -3 3 40.1 4.8
13 3 -2 6.4 4.5
13 3 -2 2 2.9
-13 3 2 2.1 2.8
-13 -3 2 -2.1 2.7
13 3 -1 62.29 8.1
13 3 -1 57.39 6.2
-13 3 1 59.79 4.9
-13 -3 1 61.89 6.4
13 3 0 7.3 3.4
13 3 0 4.8 4.9
-13 3 0 5.5 1.7
-13 -3 0 9.5 4.3
-13 -3 0 6.7 4
13 3 1 23.6 4.4
-13 -3 -1 6.2 4
-13 -3 -1 6.6 5.6
13 3 2 0 4.5
13 3 2 0.4 2.8
-13 -3 -2 -1.7 3.4
13 3 3 20.1 5.9
13 3 3 11.5 4.4
-13 -3 -3 7.4 4
13 3 4 63.39 9.1
13 3 4 58.69 7.7
13 -3 4 64.89 3.6
-13 -3 -4 68.89 7.5
13 3 5 31.1 7.8
13 3 5 25.5 5.8
-13 -3 -5 21 4.6
13 -3 5 28.4 3.3
13 -3 5 28.8 5
13 3 6 91.69 12
13 3 6 98.99 11.1
-13 -3 -6 102.39 9
13 -3 6 96.09 6.7
13 -3 6 82.39 8.4
13 3 7 72.89 12
13 3 7 62.09 9.6
13 -3 7 67.39 6.7
13 -3 7 69.39 8.1
13 3 8 26.8 8
13 -3 8 12.3 5.5
13 -3 8 16.3 4.8
-13 -3 -8 10.5 4.8
13 3 9 -5.7 5
13 -3 9 5.4 3.9
-13 -3 -9 4.6 3.9
13 -3 9 5.4 5.4
13 -3 10 -0.3 4
13 -3 10 0.6 5.1
13 3 11 4.2 6.8
13 -3 11 12.3 6.4
13 -3 11 3.2 5.2
13 3 12 3.4 7.8
13 3 12 -0.2 7.6
13 -3 12 2.3 6.3
-13 4 12 21.6 10.1
-13 -4 12 17.9 8.2
-13 4 11 3.3 8.2
13 -4 -11 5.7 3.3
-13 -4 11 4.3 6.2
-13 4 10 11.2 8
-13 -4 10 7.5 6.3
13 -4 -10 4.4 3.9
-13 4 9 -8.7 4.4
13 -4 -9 1.7 4.4
-13 -4 9 0.9 5.7
-13 4 8 -4.3 3.9
13 -4 -8 -4.5 4.8
-13 -4 8 -4.9 4.5
-13 4 7 24 7.1
13 4 -7 8.2 4.8
13 -4 -7 5.1 5.2
-13 -4 7 18.9 2.8
-13 -4 7 19.8 5.8
-13 4 6 -2.4 4.2
-13 -4 6 -3.9 4
-13 -4 6 0.7 2.4
13 -4 -6 9.8 5.7
13 4 -5 8.9 4.2
-13 4 5 8.8 4.9
13 4 -5 12.4 4.7
-13 -4 5 11.7 3.4
-13 -4 5 9.1 4.7
13 -4 -5 13.8 6.1
-13 4 4 31.4 5.9
13 4 -4 42.1 6.8
13 4 -4 35.4 5.6
-13 -4 4 40.6 6.1
-13 -4 4 36.3 5.2
13 -4 -4 35 7.7
13 4 -3 128.89 9.1
13 4 -3 126.99 10.9
-13 4 3 149.79 9.9
-13 -4 3 128.79 9.5
-13 -4 3 122.99 9.2
13 -4 -3 124.59 11.6
13 4 -2 106.59 8.3
13 4 -2 114.69 10.8
-13 4 2 119.09 8.1
13 -4 -2 107.49 10.9
-13 -4 2 114.19 9.3
-13 -4 2 112.69 8.4
13 4 -1 46.2 9.1
13 4 -1 44.4 5.7
-13 4 1 47.1 4.8
-13 -4 1 43 6.5
-13 -4 1 48.9 6.2
13 4 0 54.99 6
-13 4 0 59.79 4.4
13 4 0 72.79 9.8
-13 -4 0 57.39 6.8
-13 -4 0 67.39 7.5
13 4 1 129.69 12.1
13 4 1 114.09 8.5
-13 -4 -1 95.69 9.1
-13 -4 -1 95.69 9
13 4 2 408.26 19.3
13 4 2 394.56 22.9
-13 -4 -2 381.66 20.7
-13 -4 -2 395.86 21.2
13 4 3 31.3 8
13 4 3 28.1 5.5
-13 -4 -3 31.4 6.5
13 4 4 7.3 6.4
13 4 4 9.7 4.5
-13 -4 -4 5.6 4.1
13 4 5 5.2 6.3
13 4 5 6.8 4.6
13 -4 5 4.5 1.7
-13 -4 -5 -1 3.5
13 4 6 45.1 10.1
13 4 6 50.59 8.4
13 -4 6 42.6 4.3
-13 -4 -6 38.1 10.7
13 4 7 4.2 5.5
13 4 7 9.8 6.6
-13 -4 -7 0.5 4.2
13 -4 7 5.7 3.1
13 -4 7 1.8 4.3
13 4 8 104.99 15.1
-13 -4 -8 110.79 10.4
13 -4 8 101.89 9.7
13 -4 8 97.09 8.2
13 -4 9 86.79 8
13 -4 9 73.09 9.6
13 4 10 9.2 7
13 -4 10 -1.1 3.5
13 -4 10 3.8 5.4
13 4 11 19.9 10.5
13 -4 11 16.1 5.7
-13 5 11 17.5 8.8
-13 -5 11 18.7 8.2
13 -5 -11 17.4 5.7
-13 5 10 5 6.6
-13 -5 10 8.3 5.7
13 -5 -10 6.8 5.1
-13 5 9 9.8 7.1
-13 -5 9 0.8 5.6
13 -5 -9 17.8 7.2
-13 5 8 33.8 8.8
-13 -5 8 12.9 6
13 -5 -8 30.6 8.8
13 5 -7 24.6 7.8
-13 5 7 29.3 7.6
13 -5 -7 28.5 8.1
-13 -5 7 25.8 6.1
-13 -5 7 20.3 6.6
-13 5 6 12.1 5.6
13 5 -6 33.7 6.8
13 -5 -6 18.1 7.2
-13 -5 6 12.8 5.9
-13 -5 6 29.9 5.7
13 5 -5 13.5 6
-13 5 5 6 4.8
13 -5 -5 24.3 7.6
-13 -5 5 10.4 4.7
-13 -5 5 16.3 5.5
-13 5 4 235.98 14.9
13 5 -4 221.38 15.7
13 5 -4 241.38 14.2
-13 -5 4 228.38 14
13 -5 -4 241.98 18.1
-13 -5 4 248.08 14
13 5 -3 -0.3 4.8
13 5 -3 -0.7 2.6
-13 5 3 -2.1 3.1
13 -5 -3 -2.9 4.5
-13 -5 3 1.8 3.8
-13 -5 3 -3.7 3.1
13 5 -2 -1.5 4.9
13 5 -2 -0.2 3
-13 -5 2 2.1 3.9
13 -5 -2 7 5.6
-13 -5 2 4.9 3.7
13 5 -1 2.6 3.3
13 5 -1 14.8 6.5
-13 -5 1 13.3 5.5
-13 -5 1 9.7 4.3
13 -5 -1 -0.5 5.3
13 5 0 63.09 7.1
-13 5 0 71.19 5.5
13 5 0 73.29 10.8
-13 -5 0 74.09 8.6
13 -5 0 66.29 9.9
-13 -5 0 72.69 8.5
13 5 1 309.17 21.2
-13 5 -1 351.26 13.6
13 5 1 344.87 17.5
-13 -5 -1 342.17 19.3
-13 -5 -1 360.26 20
13 5 2 160.68 15.1
13 5 2 169.58 11.2
-13 -5 -2 125.29 11.4
-13 -5 -2 138.99 11.8
13 5 3 12.8 5
13 5 3 15.5 7.6
-13 -5 -3 4.7 4.6
13 5 4 11.2 5.2
13 5 4 25.7 8.9
-13 -5 -4 27.7 6.9
13 5 5 46.7 11.1
13 5 5 31.7 7.6
13 -5 5 42.5 3.2
-13 -5 -5 41.9 7.9
13 5 6 1.5 7.2
13 5 6 2.6 4.8
13 -5 6 3.6 2.1
-13 -5 -6 -1.4 4.7
13 5 7 93.89 14.9
13 -5 7 89.99 6.5
13 5 8 5.8 8.7
13 -5 8 2 3.1
13 -5 8 2.7 5
13 5 9 11 8.6
13 -5 9 18.8 5.8
13 -5 9 15.4 4.6
13 5 10 0.8 6.5
13 -5 10 -3.4 3.7
13 -5 10 6.6 6.3
13 5 11 10.1 9.5
13 -5 11 3.9 4.8
13 -5 11 14.2 7.3
13 -6 -11 -6.1 5.7
-13 -6 11 0.4 6.5
-13 6 10 65.89 15.3
13 -6 -10 48.7 10.5
-13 -6 10 40.3 9.4
-13 6 9 5.6 6.4
13 -6 -9 5 7.8
-13 -6 9 5.7 6.1
-13 6 8 5.2 5.8
-13 -6 8 6.1 5.6
-13 6 7 9.8 5.9
-13 -6 7 0.1 5
13 -6 -7 13.4 7.4
13 6 -6 16.6 5.7
-13 6 6 6.7 5.8
-13 -6 6 21.3 6.1
13 -6 -6 2.7 7.5
-13 -6 6 8.4 5.4
13 6 -5 21.8 7.6
13 6 -5 27.5 6
-13 6 5 30 7.1
-13 -6 5 31 6.8
-13 -6 5 39.1 7.9
13 -6 -5 21.4 8.6
13 6 -4 136.09 14
13 6 -4 134.59 10.9
-13 -6 4 127.19 10.5
-13 -6 4 139.79 11.5
13 -6 -4 148.19 15.6
13 6 -3 13.1 4.8
13 6 -3 13.9 7
-13 -6 3 12.6 5.9
13 -6 -3 6 7
-13 -6 3 7.9 5.1
13 6 -2 0.7 3.6
13 6 -2 -2.6 5.5
13 -6 -2 6.7 6.3
-13 -6 2 -5.6 4.2
-13 -6 2 -1.7 3.8
13 6 -1 66.09 8.2
-13 6 1 78.49 7.2
13 6 -1 75.59 12.4
-13 -6 1 58.99 8.8
-13 -6 1 75.49 10.2
13 -6 -1 80.39 11.7
13 6 0 14.6 8.1
13 6 0 1.8 4.1
-13 6 0 10.8 3.2
13 -6 0 5.8 6.2
-13 -6 0 1.1 4.6
-13 -6 0 8.5 5.5
-13 6 -1 2.5 1.9
13 6 1 4.7 7
13 6 1 0.7 3.4
-13 -6 -1 6 4.8
13 -6 1 7.8 5.5
-13 -6 -1 -0.8 4.5
13 6 2 583.94 32.9
-13 6 -2 485.45 20.2
13 6 2 576.74 32.3
13 -6 2 471.55 29.7
-13 -6 -2 589.54 30.8
13 6 3 16.9 8.3
13 6 3 12.3 5.8
-13 -6 -3 19.8 6.2
13 6 4 143.59 11.8
13 6 4 124.39 17
-13 -6 -4 135.99 13.3
13 6 5 5.7 7.6
-13 -6 -5 6.4 6.5
13 6 6 249.18 24
13 -6 6 179.38 9.4
13 6 7 1.9 7.8
13 -6 7 4.3 2.9
13 6 8 7 9
13 -6 8 8.6 3.6
13 6 9 -4 6.6
13 -6 9 6.6 6
13 6 10 46.9 12.6
13 -6 10 37.2 6.2
13 -6 10 23.8 7.3
-13 7 10 -2.5 9.8
-13 -7 10 14.5 7.3
-13 7 9 4.1 7.4
-13 -7 9 7.8 6.7
-13 7 8 16.8 7
-13 -7 8 7.7 5.9
-13 7 7 -9.3 5.5
-13 -7 7 3.3 5.6
13 -7 -7 15.6 9
-13 7 6 15.3 7
13 -7 -6 22 8.8
13 7 -5 3.5 6.1
-13 -7 5 9.4 5.6
-13 -7 5 6.5 5.5
13 -7 -5 9.2 8.1
13 7 -4 1.8 4.3
13 7 -4 11.3 7.9
-13 -7 4 -3 5.3
-13 -7 4 14.3 6.1
13 -7 -4 9.4 8.2
13 7 -3 8.6 4.5
13 7 -3 0.3 6.8
-13 -7 3 8 6
-13 -7 3 3.3 5.6
13 -7 -3 11.3 7.8
13 7 -2 -0.3 6.5
13 7 -2 3.2 4.4
-13 7 2 8.8 4.8
-13 -7 2 12 5.6
-13 -7 2 12.6 6.5
13 -7 -2 19.2 8.9
13 7 -1 3.4 4.5
13 7 -1 13.9 8.4
-13 7 1 -1.6 3.6
-13 -7 1 1.2 5.7
13 -7 -1 11.8 6.7
-13 -7 1 -4.3 6
13 7 0 109.99 16.4
-13 7 0 107.69 7.5
13 7 0 104.79 10.1
-13 -7 0 103.99 12.7
-13 -7 0 98.69 12.5
13 -7 0 90.89 14.8
-13 7 -1 -0.3 2.3
13 7 1 1.4 8.6
13 7 1 3.2 4.6
-13 -7 -1 -2.4 4.9
13 -7 1 8.9 8.3
-13 -7 -1 7.8 6.8
-13 7 -2 93.29 5.8
13 7 2 85.79 15.3
13 7 2 88.79 10.5
-13 -7 -2 145.49 14.4
13 -7 2 102.99 14.3
13 7 3 37.3 11.1
13 7 3 30.7 7.4
-13 7 -3 28.6 3.4
-13 -7 -3 39.5 11.9
13 -7 3 26.7 8.6
13 7 4 0.6 7.5
13 7 5 6 8.5
13 7 6 0.8 8.9
13 7 7 10.9 10.6
13 -7 7 21.4 4.8
13 7 8 0.4 7.8
13 -7 8 8.4 3.9
13 7 9 -0.4 11
13 -7 9 -2.4 3.9
13 7 10 1.8 7.8
13 -7 10 1.2 5.7
13 -7 10 -3.1 4.5
-13 8 9 0.9 6.8
-13 -8 9 0.6 6
-13 8 8 13.7 8.8
-13 -8 8 1.1 6.1
-13 8 7 -1.6 5.3
-13 -8 7 -1.1 5.4
-13 -8 6 -4.1 5
-13 -8 6 -5.1 5.8
13 8 -5 13.6 7.9
-13 -8 5 13 5.8
-13 -8 5 21.8 9.6
13 8 -4 95.69 15.7
-13 -8 4 119.99 13.4
13 8 -3 44.7 12.6
-13 8 3 44.8 8
-13 -8 3 44.1 8.8
-13 -8 3 41.1 9.1
13 8 -2 -5 6.5
-13 8 2 2.3 4.3
-13 -8 2 3 6.3
-13 -8 2 10.3 6.6
13 8 -1 -5.4 6.9
-13 8 1 6.4 4.4
-13 -8 1 0.3 6.6
-13 -8 1 6.8 7
13 8 0 8.6 9
-13 8 0 12.1 4.1
-13 -8 0 4.8 6.2
-13 -8 0 0.8 8.9
13 8 1 5.4 8.8
-13 8 -1 -2.3 2.6
-13 -8 -1 -7.7 6.2
13 8 2 328.27 29.5
-13 8 -2 322.07 14.8
13 8 3 69.99 16.6
-13 8 -3 49 5
13 8 4 33.6 12.6
13 8 5 98.79 21.4
13 8 6 43 14.2
13 8 7 24.8 14.5
13 8 8 34.1 13
13 8 9 -0.2 9.8
-13 9 8 19.2 10.7
-13 -9 8 16.7 7.5
-13 -9 7 19.2 7.3
-13 -9 6 -6.3 5.4
-13 -9 5 16.4 7
-13 9 4 30.1 7.8
13 9 -4 48.9 12.5
-13 -9 4 41.7 8.8
-13 9 3 -5.3 7.1
-13 -9 3 -3.6 5.9
-13 9 2 0.4 4.7
13 9 -2 1.8 8.6
-13 -9 2 -4.2 6.8
13 9 -1 -4 7.3
-13 9 1 -1.1 4
-13 -9 1 -1.6 6.6
13 9 0 0.5 8.9
-13 9 0 3.5 3.5
-13 -9 0 2.2 6.9
13 9 1 64.19 16.8
-13 9 -1 85.29 7.3
-13 9 -2 6.6 3.2
13 9 2 0.7 9
13 9 3 28.8 11.4
-13 9 -3 14.4 3.7
13 9 4 18.8 11.2
13 9 5 4.8 10.9
13 9 6 1.5 9.6
13 9 7 5.8 10.1
13 9 8 22.8 16
-13 -10 6 10.6 6.7
-13 -10 5 8.3 7.3
13 10 -4 32.4 12.8
-13 -10 4 50.59 10.2
13 10 -3 99.29 18.5
-13 10 3 109.29 11.7
-13 -10 3 96.89 14.3
-13 10 2 29 9.9
13 10 -2 4.2 11.6
-13 -10 2 41.1 10.2
13 10 -1 11.1 10.9
-13 10 1 7.9 4.7
-13 -10 1 0.8 6.6
13 10 0 29.5 11.9
-13 10 0 30.6 5.8
13 10 1 8.1 11.4
-13 10 -1 3 3.7
13 10 2 40 16.5
-13 10 -2 21.3 4.6
13 10 3 24.9 15.5
13 10 4 0 10.7
13 10 5 18.1 17.4
13 10 6 -1.6 11.3
-13 -11 4 23.9 10.9
13 11 -3 2.6 11
-13 -11 3 6.8 9
13 11 -2 5.5 11.4
-13 11 2 -1.8 5.5
-13 -11 2 1.7 8.2
-13 11 1 17 6.5
13 11 -1 17.9 12.6
-13 -11 1 24.8 11.1
-13 11 0 9.8 4.7
13 11 0 -17.3 8.3
-13 11 -1 20.3 5
13 11 1 -4.9 11.7
13 11 2 25.6 17
13 11 3 -5.9 12.7
13 11 4 -7.8 13.9
-14 0 12 -3.2 6.1
-14 0 11 9.2 7.1
-14 0 10 -0.2 5
-14 0 8 76.89 10.3
-14 0 7 -4.6 3.2
-14 0 6 198.58 12.6
14 0 -6 206.18 14
14 0 -5 0.8 1.5
-14 0 5 -0.7 2.8
14 0 -5 0.5 3.3
14 0 -4 1402.46 51.49
-14 0 4 1390.36 54.39
14 0 -4 1361.26 55.19
14 0 -3 3.1 2
-14 0 3 0.3 3
14 0 -3 1.6 2.7
14 0 -2 113.39 6.3
14 0 -2 105.89 7.2
-14 0 2 99.19 7
14 0 -1 -0.7 2
-14 0 1 -0.6 2.2
14 0 -1 -0.7 1.9
14 0 0 44.4 4.1
14 0 0 49 4.8
-14 0 0 43.6 4.1
14 0 1 -0.8 1.8
-14 0 -1 5.6 2.6
14 0 1 1.7 2.8
-14 0 -2 82.39 6.6
-14 0 -2 69.19 5.8
14 0 2 71.09 6.4
14 0 2 77.99 5.2
14 0 3 1.6 2.5
14 0 3 -4.1 3.1
-14 0 -3 -0.9 2.6
14 0 4 352.96 17.7
14 0 4 347.47 16.5
-14 0 -4 363.16 16.8
14 0 5 -0.5 3.4
14 0 6 2.6 4.1
14 0 7 -0.5 4.7
14 0 8 52.89 8.6
14 0 9 1.8 4.6
14 0 9 -6.9 4.1
14 0 10 92.29 11.1
14 0 10 74.59 11.1
14 0 11 -3.1 5.2
14 0 11 -9.5 4.5
14 0 12 53.39 10.6
14 0 12 47.5 10.4
-14 1 12 10.3 8.1
-14 -1 12 5.6 6.6
-14 1 11 3.6 6.2
-14 -1 11 2.5 6.1
-14 1 10 10.4 5.8
-14 -1 10 3.4 5.7
-14 1 9 37.7 9.4
-14 -1 9 26.5 9.3
-14 1 8 10.5 5.2
-14 -1 8 11.8 5.6
-14 1 7 28.9 6.1
14 1 -7 34.6 10.8
-14 -1 7 31.5 6.5
-14 1 6 15.2 5.1
14 1 -6 11.3 4.7
-14 -1 6 12.8 4.3
14 -1 -6 20 3.5
14 1 -5 47.7 7.1
14 1 -5 39.2 3.5
-14 1 5 43.4 6.5
-14 -1 5 35.8 6
14 -1 -5 50.49 5.8
14 -1 -5 47.3 7.2
-14 1 4 1370.96 52.89
14 1 -4 1296.57 52.99
14 1 -4 1321.87 50.49
-14 -1 4 1355.86 52.59
14 -1 -4 1330.77 54.09
-14 1 3 7.7 3.3
14 1 -3 4.6 3.3
14 1 -3 4.4 2.7
-14 -1 3 4.9 3.4
14 1 -2 165.98 9.5
-14 1 2 191.08 9.5
-14 -1 2 173.08 9.6
14 -1 -2 174.08 10.1
-14 -1 2 182.58 8.6
14 1 -1 1.6 2.5
14 1 -1 0.3 2
-14 1 1 3.5 2.2
14 -1 -1 6.7 2.4
-14 -1 1 8.3 3.1
-14 -1 1 1.7 2.1
14 1 0 6.9 2.7
-14 1 0 8.4 2.2
14 1 0 6 3.4
14 -1 0 10.2 2.3
-14 -1 0 10.7 3.2
14 -1 0 9.4 2.9
-14 -1 0 15.2 3
14 1 1 123.89 8.8
-14 1 -1 114.29 6.2
14 1 1 117.09 7
14 -1 1 116.99 7.5
14 -1 1 113.99 5.9
-14 -1 -1 116.09 7.8
14 1 2 5.4 3.9
14 1 2 0.1 2.5
-14 -1 -2 -4.1 2.4
14 -1 2 1 1.6
-14 -1 -2 1.9 3.6
14 -1 2 -0.5 2.9
14 1 3 60.49 7.3
14 1 3 65.79 5.9
-14 -1 -3 52.69 5.5
14 -1 3 47.6 5.7
14 -1 3 54.59 4.3
14 1 4 1 3.1
14 1 4 -0.3 3.6
14 -1 4 2 2.6
14 -1 4 0.3 2.2
-14 -1 -4 7.2 3.1
14 1 5 71.09 7.5
14 1 5 71.89 8.3
14 -1 5 71.79 7.3
-14 -1 -5 81.19 6.8
14 1 6 79.49 9.3
14 -1 6 84.19 8.1
-14 -1 -6 82.99 7.2
14 1 7 7 5.2
-14 -1 -7 7.1 3.7
14 -1 7 6.2 4.7
14 -1 7 2.2 3.8
14 1 8 29.6 7.4
14 -1 8 39.9 7.6
14 -1 8 20.3 6
14 1 9 65.19 10.5
14 -1 9 88.99 10.6
14 -1 9 62.49 9.2
14 1 10 61.49 11.4
14 1 10 60.79 10.7
14 -1 10 74.09 10.3
14 -1 10 63.09 9.7
14 1 11 -4.1 5.5
14 -1 11 3.1 5.2
14 -1 11 9.1 5.6
14 1 12 24.3 8.8
14 1 12 34.5 10
14 -1 12 24.2 7.6
14 -1 12 18.3 7.7
-14 2 12 3.3 6.6
-14 -2 12 -0.9 6.4
-14 2 11 27.2 9
-14 -2 11 33.1 7.7
-14 2 10 38.5 8.1
-14 -2 10 44.3 7.9
-14 2 9 7.3 5.4
-14 -2 9 15.5 7
14 2 -8 25.2 7.6
-14 2 8 15 5.7
14 -2 -8 20.2 3.9
-14 -2 8 20.7 6.4
-14 2 7 1.1 4.6
14 2 -7 2.9 4.6
-14 -2 7 3.8 4.7
14 -2 -7 0 3.1
14 2 -6 116.09 9.8
-14 2 6 115.89 10.3
14 -2 -6 130.99 9.3
-14 -2 6 98.39 9.1
-14 2 5 63.59 7.3
14 2 -5 53.39 7
14 2 -5 59.89 5
-14 -2 5 57.49 6.6
14 -2 -5 70.29 7.8
14 2 -4 100.09 7.4
-14 2 4 119.89 8.7
14 2 -4 109.19 8.3
-14 -2 4 110.29 5.8
-14 -2 4 106.09 8.5
14 -2 -4 126.99 9.4
14 2 -3 93.79 7.3
14 2 -3 89.69 7.5
-14 2 3 97.09 7.4
-14 -2 3 96.19 7.8
-14 -2 3 101.39 6
14 2 -2 1.9 3.4
14 2 -2 -0.1 2.5
-14 2 2 -1.7 2.4
-14 -2 2 -0.3 2.3
14 -2 -2 3.1 2.8
-14 -2 2 5.8 3.4
-14 2 1 16.4 2.8
14 2 -1 12 4.5
-14 -2 1 13.9 3.7
-14 -2 1 15.8 3.8
14 -2 -1 11.2 3.2
14 2 0 54.29 6.9
-14 2 0 58.29 3.8
-14 -2 0 44.4 5.4
-14 -2 0 49.9 5.6
14 -2 0 52.09 4.3
14 2 1 26 7.9
14 2 1 36.6 6.4
-14 2 -1 40.2 3
-14 -2 -1 41.5 5.7
-14 -2 -1 40.6 5.3
14 -2 1 41.9 3
14 2 2 799.72 34.8
14 2 2 787.52 31.9
-14 -2 -2 759.12 32.6
-14 -2 -2 789.22 33.4
14 -2 2 787.42 28.8
14 2 3 173.88 10.9
14 2 3 176.58 12.7
14 -2 3 183.78 7.6
-14 -2 -3 173.28 10.8
14 -2 3 188.28 10.6
14 2 4 1.9 3.4
14 2 4 -5.4 3.6
14 -2 4 -0.6 2.9
-14 -2 -4 -1.3 2.9
14 -2 4 -0.3 1.8
14 -2 4 3.2 2
14 2 5 33.3 6.7
14 2 5 34.4 6.3
-14 -2 -5 38.6 5.6
14 -2 5 38 5.5
14 -2 5 29.9 4.4
14 2 6 4.6 5.3
14 2 6 -1.8 3.5
14 -2 6 2.3 3.7
-14 -2 -6 5 3.1
14 -2 6 2.8 3.2
14 2 7 732.13 36.4
14 -2 7 767.72 32.6
14 -2 7 780.32 33.5
-14 -2 -7 709.13 32.8
14 2 8 12.8 6.4
14 -2 8 6.7 4.6
14 -2 8 5.4 4.5
-14 -2 -8 12.7 4.5
14 2 9 6.4 6.2
-14 -2 -9 11.5 4.2
14 -2 9 5.5 5.2
14 -2 9 5.9 4.5
14 2 10 5.5 6
14 -2 10 -1.6 4.3
14 -2 10 -0.4 4.5
14 2 11 7.6 7.1
14 -2 11 4.8 5.8
14 -2 11 6.6 5
14 2 12 -0.9 5.5
14 2 12 -7.3 6.4
14 -2 12 2.2 5.4
14 -2 12 -8.6 4.5
-14 -3 12 13.6 8.4
-14 3 11 18.3 8.2
-14 -3 11 13.5 7.7
-14 3 10 -1.1 6.1
14 -3 -10 6.3 2.9
-14 -3 10 18.6 7.5
-14 3 9 124.59 13.1
14 -3 -9 108.49 8.6
-14 -3 9 107.89 11.1
-14 3 8 -1.5 4.7
-14 -3 8 -4.4 4.5
14 -3 -8 -2.9 3.8
-14 3 7 89.39 10.8
14 3 -7 116.29 11.3
14 -3 -7 124.89 10.8
-14 -3 7 139.29 11.5
14 3 -6 202.38 13.7
-14 3 6 244.68 15
-14 -3 6 205.58 13.2
14 -3 -6 212.58 14.9
-14 -3 6 195.98 8.7
14 3 -5 88.09 7.3
-14 3 5 83.29 8.8
14 3 -5 85.29 8.6
-14 -3 5 96.19 8.7
-14 -3 5 93.29 5.6
-14 3 4 2.6 3.7
14 3 -4 17.9 4.2
14 3 -4 7.5 3.7
-14 -3 4 8.9 2.8
14 -3 -4 5.7 5
-14 -3 4 3.9 3.3
14 3 -3 -4.1 3.3
-14 3 3 1.6 3
14 3 -3 1.5 3
14 -3 -3 3 4.1
-14 -3 3 -1.1 2.3
-14 -3 3 4.7 3.2
14 3 -2 415.86 20.6
14 3 -2 385.36 18.5
-14 3 2 395.46 17.8
-14 -3 2 397.76 18.7
-14 -3 2 390.26 18.1
-14 3 1 5.6 2.4
14 3 -1 -1.9 4.3
14 3 -1 0.4 2.8
-14 -3 1 0.8 3.3
14 3 0 1.1 4.6
14 3 0 2.7 2.9
-14 3 0 3.2 1.6
-14 -3 0 7 3.7
-14 -3 0 0.4 3.8
14 3 1 57.89 8.6
14 3 1 54.89 6.1
-14 -3 -1 54.59 6.8
-14 -3 -1 50.59 6.9
14 3 2 137.89 11.7
14 3 2 125.19 8.7
-14 -3 -2 132.09 9.9
-14 -3 -2 128.19 10.1
14 3 3 90.29 10.2
14 3 3 75.59 7.5
-14 -3 -3 60.29 7.6
14 3 4 0.8 3.7
14 3 4 4 4.6
14 -3 4 -0.2 1
-14 -3 -4 -0.2 3
14 -3 4 0.7 1.2
14 3 5 8.6 5.8
14 3 5 24.1 5.9
14 -3 5 17.7 2.7
14 -3 5 22.9 4.7
-14 -3 -5 18.3 5.1
14 3 6 5 4.7
14 3 6 5.1 6
-14 -3 -6 0.9 3.5
14 -3 6 3.3 2.6
14 -3 6 2.7 4
14 3 7 8.7 6.5
14 3 7 -4.7 4.5
14 -3 7 6.9 3.6
14 -3 7 6.3 4.5
-14 -3 -7 5.7 4.4
14 3 8 30.5 8.7
14 3 8 42.6 8.6
14 -3 8 37.3 7.7
-14 -3 -8 22.5 6.4
14 -3 8 12.6 5.9
14 3 9 38.7 10.1
14 -3 9 35.1 7.5
14 -3 9 37.8 6.2
14 3 10 85.89 14.6
14 -3 10 85.19 10.2
14 -3 10 69.39 8.7
14 3 11 10.6 7.6
14 -3 11 0.1 4.7
14 3 12 -2.8 6.9
14 3 12 4.4 7.2
14 -3 12 3.8 6.6
-14 4 12 17 9.6
-14 -4 12 7.7 10
-14 4 11 20 8.2
14 -4 -11 16.9 4.5
-14 -4 11 17.7 8.5
-14 4 10 41.1 9
-14 -4 10 41.2 8.8
14 -4 -10 45.4 7.1
-14 4 9 4.8 6.2
-14 -4 9 2 4.9
14 -4 -9 1.2 4.5
-14 4 8 37.5 9.4
14 -4 -8 29.6 7.9
14 4 -7 45.2 8.3
-14 4 7 34.2 7.9
-14 -4 7 41.1 3.6
-14 -4 7 50.19 8.3
14 -4 -7 54.09 9.1
14 4 -6 1.4 4.5
-14 4 6 -0.8 3.8
-14 -4 6 1.6 4.7
-14 -4 6 3.8 2.8
14 -4 -6 2.2 5.4
-14 4 5 4.5 4.1
14 4 -5 -5.9 3.3
14 4 -5 4 3.4
-14 -4 5 5.1 4.4
-14 -4 5 12.2 3.5
14 -4 -5 3.2 4.6
14 4 -4 263.77 15.8
-14 4 4 265.57 15.1
14 4 -4 246.48 14.4
-14 -4 4 252.17 14.4
14 -4 -4 283.07 17.9
-14 -4 4 259.77 13.3
14 4 -3 2.1 3
14 4 -3 -5.1 3.8
-14 4 3 2.6 3.1
-14 -4 3 0 3.5
14 -4 -3 5.5 5.1
-14 4 2 75.49 6.5
14 4 -2 78.79 9.1
14 4 -2 63.29 6.5
14 -4 -2 81.49 9.8
-14 -4 2 78.99 7.5
-14 -4 2 80.49 7.7
-14 4 1 89.79 6.2
14 4 -1 88.69 7.7
14 4 -1 90.29 12.3
-14 -4 1 91.09 8.2
-14 -4 1 87.89 7.7
-14 4 0 55.49 3.9
14 4 0 56.29 8.8
14 4 0 37.9 5.4
-14 -4 0 48.5 7.2
-14 -4 0 51.59 7
14 4 1 558.94 24.4
14 4 1 552.94 28.9
-14 -4 -1 545.15 26.2
-14 -4 -1 537.75 26.1
14 4 2 5.1 5.5
14 4 2 -0.8 2.8
-14 -4 -2 -0.6 3.2
-14 -4 -2 -3.2 3.7
14 4 3 13 6.7
14 4 3 14 3.9
-14 -4 -3 9.4 4.6
14 4 4 16.3 5.2
14 4 4 10.8 6.5
-14 -4 -4 1.9 4.2
14 4 5 1.5 6.3
14 4 5 -2.5 4.4
14 -4 5 0.5 1.3
-14 -4 -5 2.2 3.9
14 4 6 97.09 10.9
14 4 6 115.89 14
14 -4 6 89.99 5.8
-14 -4 -6 99.59 10
14 4 7 31.8 9.5
14 4 7 37.1 8
-14 -4 -7 41.8 7.6
14 -4 7 55.29 7.7
14 -4 7 39.3 4.8
14 4 8 7.3 6.4
14 -4 8 5.1 5
14 -4 8 -0.2 3
14 4 9 30 9.4
14 -4 9 27.7 6.5
14 -4 9 21.6 4.9
14 4 10 5.8 7.2
14 -4 10 2 5.6
14 -4 10 -6.5 3.5
14 4 11 0.8 8.2
14 -4 11 8.3 4.6
14 -4 11 -4.8 5.3
-14 5 11 1.4 7
14 -5 -11 4.1 4.5
-14 -5 11 8.8 7
-14 5 10 88.89 14.1
-14 -5 10 104.39 13.4
14 -5 -10 75.09 10
-14 5 9 32 9.4
-14 -5 9 33.7 8.3
14 -5 -9 28.9 8.5
-14 5 8 9.4 5.7
14 -5 -8 9.7 6.8
-14 -5 8 0.3 2.5
-14 -5 8 -1.7 5.3
-14 5 7 20.6 7.2
14 -5 -7 11.3 7.7
-14 -5 7 7.6 5.2
-14 -5 7 10.9 5.3
14 5 -6 35.9 7.2
-14 5 6 47.3 8.4
-14 -5 6 61.49 6.4
14 -5 -6 45.4 9.4
-14 -5 6 40.3 7.2
14 5 -5 51.59 7.9
-14 5 5 35.5 7.2
14 5 -5 40 7.7
-14 -5 5 54.39 6.5
14 -5 -5 49.2 10.5
-14 -5 5 50.49 7.6
14 5 -4 -6.6 3.6
-14 5 4 6.5 4.5
14 5 -4 0.4 5.4
14 -5 -4 24.5 7.5
-14 -5 4 13.6 4.4
-14 -5 4 7.5 4.6
-14 5 3 3.3 3.6
14 5 -3 5.1 5.3
14 5 -3 1 3.3
-14 -5 3 4.5 4
14 -5 -3 1.4 5.7
-14 -5 3 5.8 4.2
14 5 -2 20.3 4.7
-14 5 2 16.8 4.2
14 5 -2 16.3 6.6
-14 -5 2 16.4 4.6
-14 -5 2 13.7 4.6
14 -5 -2 12.6 6.2
-14 5 1 12.9 3.4
14 5 -1 9.4 3.8
14 5 -1 13.4 6.6
14 -5 -1 0.8 5
-14 -5 1 18.9 4.9
-14 -5 1 10.3 4.9
-14 5 0 1.1 2.3
14 5 0 4.1 3.4
14 5 0 -3.6 4.1
-14 5 0 0.8 2
-14 -5 0 0.8 4.3
-14 -5 0 3.8 4
-14 5 -1 84.39 4.2
-14 5 -1 80.39 4.5
14 5 1 77.99 8.1
14 5 1 103.89 12.4
-14 -5 -1 80.29 9.2
-14 -5 -1 111.69 10.1
14 5 2 -0.9 3.6
14 5 2 4.1 6
-14 -5 -2 -0.7 5
-14 -5 -2 1.9 3.8
14 5 3 2.8 3.7
14 5 3 -6.1 4.6
-14 -5 -3 3 4.6
14 5 4 16 8.4
-14 -5 -4 31.6 10.1
14 5 5 93.19 14.5
14 5 5 80.39 10.1
-14 -5 -5 91.89 10
14 5 6 36.6 10.4
14 5 6 28.8 8.1
-14 -5 -6 11.9 5.6
14 -5 6 24 3
14 5 7 2.7 7.4
14 -5 7 5.7 2.6
14 5 8 37.1 11.3
14 -5 8 39 4.9
14 -5 8 25 6.6
14 5 9 5.9 8.2
14 -5 9 4.2 4.8
14 5 10 0.9 6.7
14 -5 10 4 4
14 -5 10 3.6 5.2
14 5 11 4.2 8.2
14 -5 11 19.4 7.4
14 -5 11 13.2 5.5
-14 6 11 -0.3 7.7
-14 -6 11 -1.6 6.5
14 -6 -11 -3.8 6.3
-14 6 10 -6.4 6.6
14 -6 -10 7.2 6.8
-14 -6 10 8.8 6.6
-14 6 9 20.5 8.4
14 -6 -9 9 9
-14 -6 9 6.7 6.5
-14 6 8 6.8 6.8
-14 -6 8 -0.9 5.4
-14 6 7 14.2 6.9
-14 -6 7 9.1 5.4
-14 -6 7 17.9 6
14 -6 -7 37.7 10.3
-14 6 6 7.9 5.3
-14 -6 6 -7.3 3.6
14 -6 -6 -9.8 6.4
-14 -6 6 -1.2 5.8
14 6 -5 2.3 5.9
14 6 -5 -0.5 3.7
-14 6 5 -5.4 4
14 -6 -5 -12.7 6.4
-14 -6 5 1.1 4.5
-14 -6 5 0.8 4.4
14 6 -4 68.59 10.5
-14 6 4 50.09 8.2
14 6 -4 46.6 7.7
14 -6 -4 47.9 11.8
-14 -6 4 55.79 8.2
-14 -6 4 77.69 8.5
14 6 -3 28 8.3
14 6 -3 26.9 6.7
-14 -6 3 25.2 6.3
-14 -6 3 10.7 5.6
14 -6 -3 30.1 8.7
14 6 -2 25.9 6
14 6 -2 36.1 9.6
-14 -6 2 24.1 5.7
-14 -6 2 38.4 6.9
14 -6 -2 58.89 10.9
14 6 -1 39.4 9.7
-14 6 1 49.1 6.2
14 6 -1 57.49 7.5
-14 -6 1 41.4 7.6
-14 -6 1 36.9 7.7
14 -6 -1 29.5 9.5
14 6 0 4.2 4.2
-14 6 0 6.6 3.1
14 6 0 4.9 6
-14 -6 0 9 5.6
14 -6 0 8.8 6.7
-14 -6 0 6.3 5.6
14 6 1 39.9 6.4
-14 6 -1 41.8 3.5
14 6 1 43.5 10.8
14 -6 1 44.5 10.5
-14 -6 -1 45.2 8.9
-14 -6 -1 39.1 7.9
14 6 2 264.07 16.3
14 6 2 212.78 20
-14 -6 -2 216.68 16.6
-14 -6 -2 247.58 23.9
14 6 3 3.1 4.4
14 6 3 8 8
-14 -6 -3 8.1 5.7
14 6 4 29.4 9.7
14 6 4 30.2 7.4
-14 -6 -4 44.3 8.3
14 6 5 23.1 9.8
14 6 6 2.5 9.4
14 6 7 -1 7.6
14 -6 7 1.2 2.5
14 6 8 15.8 9.9
14 -6 8 18.9 4.3
14 6 9 4.9 8.4
14 -6 9 1.2 5.3
14 -6 9 8.6 4
14 6 10 11.7 8.9
14 -6 10 17.1 4.9
14 -6 10 2.3 6
-14 7 10 90.79 15.9
-14 -7 10 99.79 13.2
-14 7 9 3.7 6.9
-14 -7 9 7.5 6.6
-14 7 8 60.69 11.9
-14 -7 8 34.2 8.5
-14 7 7 -0.8 5.8
-14 -7 7 -1.5 4.9
14 -7 -7 2.3 7.9
-14 7 6 11.9 6.5
-14 -7 6 5 7.1
-14 -7 6 7 5.7
14 -7 -6 18.9 9.4
14 7 -5 47.9 10.3
-14 7 5 55.39 9.3
-14 -7 5 47.4 8.5
-14 -7 5 67.29 9.3
14 -7 -5 55.19 13.7
14 7 -4 44.5 8
14 7 -4 47.2 10.2
-14 -7 4 60.59 9.4
14 -7 -4 38.9 11.6
-14 -7 4 40.6 7.7
14 7 -3 2.9 4.5
14 7 -3 5.6 7
-14 -7 3 9.2 6.4
-14 -7 3 13.9 6.2
14 -7 -3 3.3 8.8
14 7 -2 19.5 5.8
-14 7 2 25.2 6
14 7 -2 13.6 8.5
14 -7 -2 18.8 9.3
-14 -7 2 21.2 7.4
-14 -7 2 21.5 6.9
14 7 -1 -2.8 4
-14 7 1 0.3 3.8
14 7 -1 -2.3 7.1
-14 -7 1 -0.9 5.2
14 -7 -1 3.9 7.4
14 7 0 122.29 17
14 7 0 118.39 10.6
-14 7 0 121.59 8.1
-14 -7 0 167.98 14.5
14 -7 0 115.89 16.3
-14 -7 0 131.79 12.8
14 7 1 41.2 7.6
14 7 1 26.4 10.5
-14 7 -1 51.59 4.4
-14 -7 -1 35 8.4
-14 -7 -1 53.29 10.1
14 -7 1 63.49 12.2
-14 7 -2 23.2 2.7
14 7 2 15.5 5.2
14 7 2 46.1 12.1
-14 -7 -2 16.2 7.6
14 -7 2 -2.1 8.1
14 7 3 9.4 8.9
14 -7 3 -9.3 7.1
14 7 5 -1.4 7.8
14 7 6 -10.3 7.1
14 7 7 1.9 8.5
14 7 8 37.2 12.5
14 7 9 21.8 12.9
14 -7 9 2.7 3.9
14 -7 9 -2.6 5.2
-14 8 9 -6 7.4
-14 -8 9 10.5 7.3
-14 -8 8 15.8 7.8
-14 8 7 9.4 7.6
-14 -8 7 0.7 5.7
-14 8 6 8.1 6.5
-14 -8 6 -5.1 5.2
14 8 -5 -3.6 7.4
-14 -8 5 13.2 8.1
-14 -8 5 1.3 4.8
14 8 -4 20.8 8.7
-14 -8 4 12.7 6.7
-14 -8 4 15.2 6.8
14 8 -3 17.4 8.5
-14 8 3 5 5
-14 -8 3 19.9 6.9
-14 8 2 16.4 5.6
14 8 -2 22.1 9.6
-14 -8 2 12.9 7.3
-14 -8 2 20.5 8.4
14 8 -1 75.29 14.2
-14 8 1 80.59 8.3
-14 -8 1 62.19 10.9
-14 -8 1 93.29 12.6
14 8 0 0.3 7.1
-14 -8 0 -1.5 7.2
-14 8 -1 21.7 3.8
14 8 2 6.8 10.3
-14 8 -3 -2.5 2.1
14 8 3 6.7 8
14 8 4 5.1 8.5
14 8 5 13.8 11.2
14 8 6 82.09 16.8
14 8 7 21.3 12.5
14 8 8 20.8 10.7
-14 -9 8 1 6.2
-14 9 7 45.5 13.1
-14 -9 7 50.09 10.1
-14 -9 6 18.1 7.1
14 9 -5 -5 7
-14 -9 5 -2.3 5.7
-14 9 4 26.9 7.8
14 9 -4 8.4 9.7
-14 -9 4 34.8 8
-14 -9 3 -2.3 5.6
14 9 -2 -10.5 7.7
-14 9 2 9.1 5.1
-14 -9 2 11.4 7.8
14 9 -1 -1.2 9.3
-14 9 1 1.3 3.9
-14 -9 1 2.7 6.4
14 9 0 15.2 10.6
-14 9 0 6.7 3.7
-14 -9 0 -1.8 7
14 9 1 116.89 20.4
14 9 2 75.89 18.6
-14 9 -2 45.1 5.2
-14 9 -3 3.6 2.5
14 9 3 5.8 10.2
14 9 4 11.3 11.5
14 9 5 17.7 12.1
14 9 6 21.8 12.5
14 9 7 2.7 11.1
-14 -10 6 1.8 6.3
-14 -10 5 14 7.8
14 10 -4 39.8 13.6
-14 -10 4 49.3 10.2
14 10 -3 20.3 11.5
-14 10 3 48.1 8.7
-14 -10 3 34.2 10.4
14 10 -2 16.4 10.8
-14 10 2 6 6.7
-14 -10 2 7.4 8.1
14 10 -1 14 11.1
-14 10 1 36.1 6.7
-14 -10 1 43.9 11.4
-14 10 0 40.4 6.3
14 10 0 55.39 14.9
-14 -10 0 68.79 12.3
14 10 1 -14.9 8.8
-14 10 -1 0.6 3.6
14 10 2 36.1 15.8
14 10 3 3.4 12.1
14 10 4 -25.3 8.7
14 10 6 15.6 13.9
-14 -11 4 -3.1 8
14 11 -3 -0.3 11.7
-14 -11 3 2.4 8.6
-14 11 2 8.8 5.6
14 11 -2 36.3 16.4
-14 -11 2 15.2 9.5
14 11 -1 10.7 13.4
-14 -11 1 11.5 8.6
14 11 0 15.9 11.6
14 11 1 5.2 12.2
-14 11 -1 -1.7 3.1
-14 11 -2 -3.4 2.9
14 11 3 22 18.1
-15 0 12 139.39 15.8
-15 0 11 -4.7 5.6
-15 0 9 1.2 5.3
-15 0 8 59.49 8.5
15 0 -8 72.89 10.2
15 0 -7 0.7 5.4
-15 0 7 -2.9 3.9
-15 0 6 14.2 4.8
15 0 -6 22.1 5.5
-15 0 5 2 3.1
15 0 -5 -1.3 3.6
15 0 -5 -0.5 1.6
15 0 -4 7.3 2.2
15 0 -4 3.3 3
-15 0 4 6 3.5
15 0 -3 0.3 2
15 0 -3 0.8 2.8
-15 0 3 -3.8 2.5
15 0 -2 166.78 9.9
-15 0 2 173.28 9.6
15 0 -2 179.38 8.9
-15 0 1 1 2.4
15 0 -1 1.4 2.5
15 0 -1 -2.7 2.1
15 0 0 1373.76 52.79
-15 0 0 1424.16 52.99
15 0 0 1413.96 53.69
-15 0 -1 -2.4 2.4
15 0 1 0.2 2.1
15 0 1 -2.8 2.3
15 0 2 0.6 2.2
-15 0 -2 2.8 3.1
15 0 3 0.2 2.2
15 0 3 3.2 3.5
15 0 4 364.36 17.1
15 0 4 367.86 18.4
15 0 5 -1.9 3.4
15 0 5 1.2 3.1
15 0 6 4.1 4.6
15 0 7 -2.4 4.8
15 0 8 121.29 11.7
15 0 9 3.6 5
15 0 9 2.4 5.1
15 0 10 108.99 12.4
15 0 10 88.79 11.8
15 0 11 8.8 6.3
15 0 11 9.1 6.3
15 0 12 7.5 7.1
15 0 12 1.7 5.8
-15 1 12 2.9 7
-15 -1 12 1 6.3
-15 1 11 0.2 5.9
-15 -1 11 0.8 5.4
-15 1 10 31.1 8.4
-15 -1 10 23.2 6.8
-15 1 9 -0.2 5.2
-15 -1 9 -4 4.2
15 1 -8 50.49 9.8
-15 1 8 66.29 10
-15 -1 8 48.3 8.7
-15 1 7 9.6 5.1
15 1 -7 0.7 4.6
15 -1 -7 5 2.2
-15 -1 7 11.3 5.2
-15 1 6 1 3.9
15 1 -6 -0.1 3.9
-15 -1 6 2.7 4.1
15 -1 -6 3.2 4.2
15 -1 -6 6.3 3.1
15 1 -5 109.89 6.4
-15 1 5 107.29 9.1
15 1 -5 120.99 9.5
15 -1 -5 113.49 8.3
-15 -1 5 123.69 9
15 -1 -5 114.09 10.3
15 1 -4 315.47 14.4
-15 1 4 336.27 16.5
15 1 -4 326.57 16.8
15 -1 -4 314.57 17.5
-15 -1 4 334.97 16.3
15 1 -3 13 3.9
15 1 -3 13.4 3.3
-15 1 3 12.3 3.5
-15 -1 3 16.5 4.6
15 -1 -3 9.8 3.7
15 1 -2 3 3.3
-15 1 2 7.6 3
15 1 -2 12.3 3.5
15 -1 -2 7 3.1
-15 -1 2 9 2.5
-15 -1 2 11.4 3.7
-15 1 1 412.76 17.7
15 1 -1 438.16 19.2
15 -1 -1 410.56 18
-15 -1 1 425.16 17.9
-15 -1 1 433.26 18.6
15 1 0 5.1 2.8
15 1 0 6.8 3.7
-15 1 0 8.2 2.4
-15 -1 0 5.4 2.7
15 -1 0 5.2 2.8
-15 -1 0 0.2 2.8
15 -1 0 3.1 2.1
15 1 1 207.98 12.3
-15 1 -1 209.18 9.7
15 1 1 217.48 10.6
15 -1 1 210.28 9.4
-15 -1 -1 213.08 11.3
-15 -1 -1 221.18 11.3
15 -1 1 200.38 11.2
15 1 2 76.99 6
15 1 2 68.89 8.3
-15 -1 -2 66.29 5.8
15 -1 2 69.39 4.4
15 -1 2 78.39 7.5
-15 -1 -2 69.09 7.3
15 1 3 159.38 9.5
15 1 3 172.08 11.5
15 -1 3 161.08 8
15 -1 3 159.98 9.7
-15 -1 -3 180.28 10.1
15 1 4 198.48 11.6
15 1 4 202.08 13.3
15 -1 4 196.98 10.3
-15 -1 -4 213.18 11.5
15 -1 4 198.78 11.7
15 1 5 29.4 6.4
15 1 5 27.1 5.2
-15 -1 -5 26.6 4.7
15 -1 5 27.7 4.6
15 -1 5 27.6 5.4
15 1 6 161.68 11.7
15 1 6 187.68 13.8
15 -1 6 185.88 12.2
-15 -1 -6 181.38 11.3
15 1 7 62.59 9.5
15 -1 7 70.39 8.9
-15 -1 -7 64.69 7.1
15 1 8 181.08 14.6
-15 -1 -8 188.08 12.6
15 -1 8 193.88 14.1
15 -1 8 202.18 14.4
15 1 9 3.5 5.7
15 -1 9 1.3 5.2
15 -1 9 -5.3 3.9
15 1 10 9.1 7
15 -1 10 12.7 6.3
15 -1 10 11.6 5.8
15 1 11 4.4 6.7
15 1 11 12.1 6.6
15 -1 11 6.2 6.4
15 -1 11 -9.3 4.2
15 1 12 16.9 8.8
15 1 12 -8.5 5.9
15 -1 12 5.9 6.5
15 -1 12 4.5 6.1
-15 2 12 4.8 6
-15 -2 12 9.8 7.2
-15 2 11 14.7 8
-15 -2 11 5.6 5.8
-15 2 10 13.1 6.4
-15 -2 10 5.3 5.6
-15 2 9 2.1 5
-15 -2 9 -3.9 5.2
-15 2 8 23.8 7.1
15 2 -8 31 12.1
15 -2 -8 29 4.5
-15 -2 8 27.3 7.1
-15 2 7 9 5.2
15 2 -7 4.1 4.5
15 -2 -7 4.5 3.9
-15 -2 7 9.9 4.6
15 2 -6 24.2 6
-15 2 6 12.2 4.8
-15 -2 6 7.3 4.4
15 -2 -6 21 5
15 2 -5 7.1 3
-15 2 5 12.7 4
15 2 -5 -0.5 3.2
15 -2 -5 11.6 4.4
-15 -2 5 6.3 4.1
-15 2 4 1.8 3.3
15 2 -4 3 3
15 2 -4 1.5 2.8
-15 -2 4 3.8 1.8
15 -2 -4 0.5 3.7
-15 -2 4 -4 3.1
15 2 -3 27.7 4.9
15 2 -3 14.7 3.8
-15 2 3 22.2 4.2
-15 -2 3 23.2 3.1
15 -2 -3 13.5 4.4
-15 -2 3 22.3 4.7
15 2 -2 2.3 3
-15 2 2 -1.8 2.1
15 2 -2 4.2 3.7
-15 -2 2 -0.6 3.3
-15 -2 2 0.4 2.3
15 -2 -2 0.2 2.9
15 2 -1 1037.1 40.3
15 2 -1 1054.19 41.9
-15 2 1 1056.19 38.9
-15 -2 1 1009.3 39.9
15 -2 -1 975.9 39.8
-15 -2 1 969.3 40.7
15 2 0 10.4 3.6
15 2 0 7.8 4
-15 2 0 6 2
-15 -2 0 5.8 3.2
15 -2 0 5.8 2.4
-15 -2 0 10.3 4.1
15 2 1 170.58 13.4
15 2 1 200.28 10.6
-15 2 -1 199.68 8.3
-15 -2 -1 167.18 10.5
-15 -2 -1 205.18 11.6
15 -2 1 189.58 8.3
15 2 2 52.59 7.4
15 2 2 57.79 5.9
15 -2 2 47.1 2.8
-15 -2 -2 46.7 5.6
-15 -2 -2 51.09 7.2
15 2 3 87.09 8.8
15 2 3 83.79 7.3
15 -2 3 82.59 4.3
15 -2 3 81.19 7
-15 -2 -3 85.99 7.4
15 2 4 11.2 4.3
15 2 4 6.3 4.3
15 -2 4 18.1 2.7
-15 -2 -4 15 4
15 -2 4 9.8 3.9
15 2 5 -1.7 4.3
15 2 5 2.9 3.6
15 -2 5 -2.6 2.3
15 -2 5 1.4 3.3
-15 -2 -5 -2.2 2.8
15 -2 5 4.2 2.8
15 2 6 115.59 12
15 2 6 98.99 9.6
15 -2 6 101.39 8.3
15 -2 6 109.59 9.3
-15 -2 -6 128.29 9.3
15 2 7 1041.3 47.1
15 2 7 985.8 45.1
15 -2 7 1003.8 42.5
15 -2 7 1069.69 44
15 2 8 2.8 5.8
-15 -2 -8 4.1 3.7
15 -2 8 4.3 4.1
15 -2 8 13.1 5.4
15 2 9 40.3 9.4
15 -2 9 26.3 6.2
15 -2 9 41 8
-15 -2 -9 38.3 7.2
15 2 10 -0.3 7.1
15 -2 10 -5.8 4.4
15 -2 10 2.1 4.7
15 2 11 20.2 8.8
15 -2 11 41.3 9
15 -2 11 46.8 7.8
15 2 12 61.89 12.4
15 2 12 77.99 14
15 -2 12 74.39 11.5
15 -2 12 56.89 9.2
-15 -3 12 13.7 7.3
-15 3 11 14.2 6.4
-15 -3 11 25.2 7.5
-15 3 10 166.58 17.7
15 -3 -10 150.08 8.9
-15 -3 10 162.48 15.6
-15 3 9 13.6 6.7
-15 -3 9 3.8 4.9
15 -3 -9 4.2 3.4
-15 3 8 53.19 9.1
-15 -3 8 44 8.4
15 -3 -8 57.99 8.1
-15 3 7 3.8 5
15 3 -7 -3 4.3
15 -3 -7 6.7 4.6
-15 -3 7 -0.7 4
-15 3 6 1.5 4
-15 -3 6 12.1 4.9
-15 -3 6 10.5 1.8
-15 3 5 206.08 13.3
15 3 -5 212.48 12.1
15 3 -5 194.88 13.2
-15 -3 5 207.58 13.1
-15 -3 5 211.58 9.7
15 -3 -5 224.28 15.7
-15 3 4 5.6 3.5
15 3 -4 4.9 3.2
15 3 -4 3.9 3.9
15 -3 -4 8.2 4.6
-15 -3 4 1.3 3.1
-15 -3 4 5.6 2.4
15 3 -3 151.68 9.8
-15 3 3 136.89 9.3
15 3 -3 132.99 10.3
-15 -3 3 138.79 8.4
-15 -3 3 141.79 9.7
-15 3 2 61.79 5.7
15 3 -2 66.09 8.2
15 3 -2 64.59 6.3
-15 -3 2 70.99 6.6
-15 -3 2 77.09 6.5
15 3 -1 181.38 10.6
15 3 -1 200.58 13.2
-15 3 1 181.48 9.2
-15 -3 1 168.28 10.6
-15 -3 1 187.18 10.9
-15 3 0 91.09 4.9
15 3 0 93.59 7
-15 -3 0 89.49 8.1
-15 -3 0 91.29 7.8
15 3 1 377.36 17.1
15 3 1 341.17 19.7
-15 -3 -1 385.36 18.6
-15 -3 -1 340.77 17.9
15 3 2 187.48 13.8
15 3 2 184.18 11.2
-15 -3 -2 191.38 12.1
-15 -3 -2 199.38 13
15 3 3 7.9 3.9
15 3 3 7.9 5.2
-15 -3 -3 6.4 3.7
15 3 4 28.5 5.9
15 3 4 22.9 6.7
-15 -3 -4 33.1 5.9
15 3 5 15.5 5.5
15 3 5 16.7 6.5
-15 -3 -5 14.7 4.3
15 -3 5 17.5 4.6
15 -3 5 10.6 2.2
15 3 6 244.88 16.5
15 3 6 262.77 19.2
-15 -3 -6 256.47 20.5
15 -3 6 270.57 15.3
15 -3 6 274.27 12.7
15 3 7 76.89 10.3
15 3 7 76.39 12.3
15 -3 7 77.09 6.9
15 -3 7 81.79 8.7
-15 -3 -7 87.19 8.8
15 3 8 39.6 9.8
15 3 8 42.8 8.6
-15 -3 -8 25.7 6.1
15 -3 8 29.7 6.6
15 -3 9 64.39 7.6
15 -3 9 63.39 9.1
15 3 10 23.3 8.9
15 -3 10 20.3 6.8
15 -3 10 31.3 6.2
15 3 11 -3.2 6.4
15 -3 11 -6.6 5
15 -3 11 -2.2 4.3
-15 4 12 6.2 8.3
15 -4 -12 -2 2.3
-15 4 11 -10.1 4.7
-15 -4 11 -3.1 5.6
-15 4 10 62.19 11.5
-15 -4 10 70.89 11.9
15 -4 -10 48.3 7.2
-15 4 9 13.3 7.1
-15 -4 9 15.5 6.7
15 -4 -9 15.1 6.2
15 -4 -8 -2.6 5.1
-15 -4 8 3.6 6
15 4 -7 42.6 7.8
-15 4 7 33.3 7.1
15 -4 -7 49.3 9.8
-15 -4 7 40.3 3.4
-15 -4 7 33.5 7.5
15 4 -6 1.1 4.5
-15 4 6 11.9 5.2
-15 -4 6 14.8 5.5
-15 -4 6 10.7 3.2
15 -4 -6 7.9 6
15 4 -5 76.89 8
-15 4 5 86.09 9.1
15 4 -5 75.69 8.4
-15 -4 5 82.59 6.3
15 -4 -5 85.09 11.5
-15 -4 5 77.99 8.1
15 4 -4 18.4 4.6
-15 4 4 30.7 5.8
15 4 -4 30.5 6.7
-15 -4 4 28.9 5.8
-15 -4 4 30.2 4.6
15 -4 -4 37 7.7
-15 4 3 17.4 4.1
15 4 -3 12.8 5.1
15 4 -3 14.8 4.4
15 -4 -3 21.8 6
-15 -4 3 7.1 3.9
-15 -4 3 13.2 3.9
15 4 -2 76.29 9.6
15 4 -2 90.99 7.9
-15 4 2 92.39 7.1
-15 -4 2 92.29 8.2
-15 -4 2 88.49 7.8
15 4 -1 353.96 17.6
-15 4 1 364.96 15.9
15 4 -1 365.16 20.9
-15 -4 1 369.16 18
-15 -4 1 325.27 18
-15 4 0 77.29 4.7
15 4 0 88.69 10.4
15 4 0 70.69 7
-15 -4 0 84.79 8.4
-15 -4 0 102.09 8.6
15 4 1 283.57 19.1
15 4 1 293.07 15.3
-15 -4 -1 287.97 16.6
-15 -4 -1 292.77 16.5
15 4 2 15.2 6.9
15 4 2 8.2 3.7
-15 -4 -2 0.5 4.7
-15 -4 -2 8.5 4.3
15 4 3 14.4 7
15 4 3 24.6 4.9
-15 -4 -3 16.7 5.3
15 4 4 -7 4.4
15 4 4 1.5 4
-15 -4 -4 -1.3 3.8
15 4 5 11.5 4.8
15 4 5 16.2 8
15 4 6 22 8.5
15 4 6 11.7 6.4
15 -4 6 16.6 2.7
15 -4 6 10.3 5
-15 -4 -6 21.6 5.7
15 4 7 -3.2 6.2
15 4 7 5.8 5.5
15 -4 7 2.1 2.7
15 -4 7 -9 3.9
-15 -4 -7 2.6 4.1
15 4 8 49.4 13.5
15 -4 8 23.2 6.4
15 -4 8 42.1 5.4
15 4 9 0.6 7
15 -4 9 22.1 4.9
15 -4 9 26 7
15 4 10 1.4 6.9
15 -4 10 5.6 3.9
15 -4 10 9.3 6
15 4 11 8.2 7.9
15 -4 11 -11.9 5.1
15 -4 11 -7 3.7
-15 5 11 17.3 11.1
15 -5 -11 15.9 5.4
-15 -5 11 36 9.8
-15 5 10 2.4 7.3
15 -5 -10 -6.5 4.5
-15 -5 10 -0.5 5.9
-15 5 9 25.2 8.3
15 -5 -9 21.3 8.3
-15 -5 9 17.7 8
-15 5 8 65.09 9.9
-15 -5 8 68.59 9.9
-15 -5 8 51.69 4.7
15 -5 -8 56.49 10.6
-15 5 7 89.39 11.8
-15 -5 7 80.69 10.8
-15 -5 7 85.79 7.5
15 -5 -7 74.69 13.8
15 5 -6 11.4 5.1
-15 5 6 12.5 5.6
15 5 -6 18.6 6
-15 -5 6 13 6
15 -5 -6 31.4 8.8
-15 -5 6 22.5 4.5
-15 5 5 21.9 6.1
15 5 -5 34.6 6.9
15 5 -5 15.2 5.8
-15 -5 5 18.4 4.6
15 -5 -5 35.4 9.1
-15 -5 5 16.1 5.9
15 5 -4 191.18 16.5
-15 5 4 194.98 13.4
-15 -5 4 182.08 12.9
-15 -5 4 195.88 12.4
15 -5 -4 196.48 17
-15 5 3 -6 2.6
15 5 -3 2 3.8
15 5 -3 7.5 5.3
-15 -5 3 2.9 4
-15 -5 3 -3.2 3.4
15 -5 -3 8.1 6.1
-15 5 2 17 4.3
15 5 -2 12.1 4.3
15 5 -2 21.1 6.7
-15 -5 2 20.5 5.5
15 -5 -2 11.4 6.5
-15 -5 2 18.4 5
15 5 -1 15 4.5
-15 5 1 29.6 4.3
15 5 -1 18.8 7.5
-15 -5 1 32 6.4
15 -5 -1 23.9 7.8
-15 -5 1 15.4 5.2
-15 5 0 26.2 3.7
-15 5 0 27.4 3.5
15 5 0 18.5 7.2
15 5 0 20.8 4.9
-15 -5 0 18.5 5.4
-15 -5 0 34.6 6.7
15 5 1 393.76 24.8
15 5 1 400.76 20.5
-15 -5 -1 427.56 22.8
-15 -5 -1 436.86 22.5
15 5 2 0.4 3.3
15 5 2 -3.5 4.8
-15 -5 -2 -0.3 4.1
-15 -5 -2 -4.6 4.3
15 5 3 13.9 6.7
15 5 3 9 4.8
-15 -5 -3 13.5 5.3
15 5 4 156.58 16.7
15 5 4 157.98 12.9
-15 -5 -4 148.79 12.5
15 5 5 111.99 15.3
15 5 5 105.49 12.2
-15 -5 -5 110.59 11.4
15 5 6 15.9 8.3
15 5 6 21.8 11.4
-15 -5 -6 40.8 12.4
15 -5 7 -0.9 2.1
15 5 8 27.7 10.6
15 -5 8 19.5 3.7
15 -5 8 8.7 5.6
15 5 9 3.3 7.7
15 -5 9 -8 4.1
15 5 10 19.1 9.2
15 -5 10 1.3 3.8
15 -5 10 4.9 5.9
15 5 11 4.2 7.6
15 -5 11 -2.8 5.6
15 -5 11 15.1 5.1
-15 6 11 16.5 8.6
15 -6 -11 10.9 7.6
-15 -6 11 13.6 8.9
-15 6 10 38.8 11
15 -6 -10 27.6 9.3
-15 -6 10 35.5 9.2
-15 6 9 19.8 8.7
-15 -6 9 22.8 7.1
15 -6 -9 12.3 8.5
-15 -6 9 22.4 4.4
-15 6 8 22.2 9.1
-15 -6 8 10.7 5.8
-15 6 7 3.4 6
-15 -6 7 2.6 5.4
-15 -6 7 1.6 5.6
-15 6 6 37.9 8.2
15 -6 -6 43.6 10.4
-15 -6 6 41.7 8.3
-15 -6 6 23.5 6.9
15 6 -5 5.5 4.5
-15 6 5 6.3 5.2
15 6 -5 16.6 7.1
15 -6 -5 25.3 9.2
-15 -6 5 18.4 6
15 6 -4 0.3 3.8
15 6 -4 -1.5 6
-15 6 4 -1.9 4.2
-15 -6 4 11.8 4.9
-15 -6 4 -2.8 4.9
15 6 -3 7.4 6.6
15 6 -3 1.1 3.6
-15 6 3 5.3 4.1
-15 -6 3 5.1 5.2
-15 -6 3 -2.7 4.3
-15 6 2 54.19 7
15 6 -2 45.4 9.8
15 6 -2 29.2 6.8
-15 -6 2 62.59 8.7
-15 -6 2 37.9 7
15 -6 -2 53.19 10.8
-15 6 1 4.9 3.3
-15 6 1 5.1 3.4
15 6 -1 -5.8 5.7
-15 -6 1 8 5.2
-15 -6 1 6.9 4.9
15 -6 -1 12.8 6.9
-15 6 0 -1.2 2.3
15 6 0 -7.6 5.7
-15 6 0 3.4 2.7
15 -6 0 0.7 8.9
-15 -6 0 -7.1 4.1
-15 -6 0 5.5 5.7
15 6 1 98.59 10.9
-15 6 -1 103.69 5.3
-15 6 -1 111.29 6.4
15 6 1 96.09 14.3
15 -6 1 102.99 16.3
-15 -6 -1 89.79 10.8
-15 -6 -1 117.69 11.7
15 6 2 2.1 6.5
15 6 2 -4.6 4.2
-15 -6 -2 7.9 5.1
-15 -6 -2 10.4 6.6
15 6 3 23.8 6.4
15 6 3 9.5 8.6
-15 -6 -3 28.3 7.1
15 6 4 44.6 8.1
15 6 4 86.79 14.3
-15 -6 -4 70.89 10.5
15 6 5 51.49 12
15 6 6 8.7 8.2
15 6 7 -1.7 6.9
15 -6 7 0.8 2.1
15 6 8 3 6.6
15 -6 8 5.1 5
15 -6 8 6.6 3.2
15 6 9 13.7 8.8
15 -6 9 7.7 3.7
15 -6 9 11.9 6.2
15 6 10 -3.4 7.3
15 -6 10 -2.4 5
-15 7 10 7.2 8.5
-15 -7 10 25.8 8.3
-15 7 9 19.2 8.6
-15 -7 9 14.5 7.9
-15 7 8 30 8.7
-15 -7 8 24.7 8
-15 7 7 11 6.7
-15 -7 7 -3.7 4.9
15 -7 -7 -6.1 8.2
-15 7 6 9.5 5.9
-15 -7 6 22.5 8.3
15 -7 -6 16.5 9
-15 -7 6 9.4 6.2
15 7 -5 0.7 6.7
-15 7 5 1.1 4.6
-15 -7 5 10.1 5.8
15 -7 -5 -1.8 8.2
15 7 -4 83.69 13.2
-15 7 4 78.19 10.3
-15 -7 4 43.8 8.3
-15 -7 4 77.09 11
15 -7 -4 89.09 14.8
15 7 -3 -8.6 3.7
15 7 -3 0.3 6.6
-15 -7 3 5.1 5.1
15 -7 -3 -0.5 7
-15 -7 3 -8.9 4.9
-15 7 2 12.2 4.9
15 7 -2 1.4 4.4
15 7 -2 -1.1 6.7
-15 -7 2 7.9 5.8
-15 -7 2 5.6 5.4
15 -7 -2 -7.2 5.5
-15 7 1 23.1 6.8
15 7 -1 2.6 7.2
15 7 -1 9.9 4.3
-15 -7 1 9.1 5.9
-15 -7 1 4.3 5.2
15 -7 -1 27.6 9.5
-15 7 0 46.7 5.3
15 7 0 34.5 10.8
15 7 0 35.8 6.7
-15 -7 0 36.4 8.7
15 -7 0 56.39 10.8
-15 -7 0 42.1 9.1
15 7 1 32.5 10.4
-15 7 -1 25.7 3.3
15 7 1 15.2 5.8
-15 -7 -1 20 8.1
15 -7 1 18.1 8.4
-15 -7 -1 19.2 7.7
15 7 2 0.6 6.5
15 7 2 4.6 7.1
15 -7 2 4.2 7.5
-15 -7 -2 1.9 5.9
15 7 3 2 8.6
15 7 4 19.3 10.8
15 7 5 4.6 8.7
15 7 6 4.4 8.1
15 7 7 20.1 11.2
15 7 8 1.5 8.6
15 7 9 0.5 8.4
15 -7 9 0.7 6
-15 8 9 48.4 12.5
-15 -8 9 46.4 10.2
-15 8 8 8.2 8
-15 -8 8 9.3 6.9
-15 8 7 0 6.5
-15 -8 7 -1.2 5.4
-15 8 6 36.8 8.9
-15 -8 6 23.6 7.8
15 8 -5 -0.4 6.8
-15 8 5 -2.3 4.6
-15 -8 5 1.3 5.2
-15 -8 5 -0.7 7.1
15 8 -4 12.9 9.2
-15 -8 4 12.3 6.6
-15 -8 4 24.7 7.8
-15 8 3 35.4 7.7
15 8 -3 34.3 10.7
-15 -8 3 35.6 8.1
-15 -8 3 50.69 11.5
15 8 -2 5.1 7.8
-15 8 2 17.8 5.9
-15 -8 2 1.5 6.5
-15 -8 2 25.6 7.8
15 8 -1 106.29 16.8
-15 8 1 89.89 8.8
-15 -8 1 127.39 19.4
-15 8 0 -4.3 3.2
15 8 0 4.4 9
-15 -8 0 3.3 9.1
-15 8 -1 147.19 8.2
-15 -8 -1 131.99 15.9
-15 8 -2 183.58 9
15 8 2 214.08 23.2
15 8 3 68.79 14.2
15 8 4 24.1 10.2
15 8 5 -10.5 8.1
15 8 6 14.4 10
15 8 7 86.89 19.7
15 8 8 4.1 9.1
-15 9 8 6.1 8.9
-15 -9 8 -9.6 5.6
-15 9 7 15.8 8.6
-15 -9 7 11.1 7
-15 9 6 4.1 6.6
-15 -9 6 5.3 6.4
15 9 -5 -6.7 8.1
-15 -9 5 5.4 6.3
-15 9 4 7.5 6.5
-15 -9 4 18.5 7.1
-15 9 3 10.6 6.4
15 9 -3 5.6 10.3
-15 -9 3 14.7 7.5
15 9 -2 5.9 8.5
-15 9 2 4.5 4.8
-15 -9 2 5.2 6.5
15 9 -1 9.7 9.4
-15 9 1 8.7 4.2
-15 -9 1 -3.6 7.2
15 9 0 77.39 17.4
-15 9 0 90.89 7.6
-15 -9 0 86.99 13.2
-15 9 -1 109.39 7.9
15 9 1 125.19 20.5
15 9 2 0.1 10.3
-15 9 -2 9.4 3
15 9 3 15.5 10.9
15 9 4 17.8 12.3
15 9 5 -2.4 10.2
15 9 6 1.9 9.4
-15 -10 6 0 5.8
-15 -10 5 17.7 8.2
15 10 -4 7.1 10.1
-15 -10 4 2.7 8.1
-15 10 3 12.3 6.6
15 10 -3 10.2 10.3
-15 -10 3 18.6 8.2
-15 10 2 85.59 9.8
15 10 -2 86.59 17.2
-15 -10 2 72.89 12.4
-15 10 1 42.2 6.4
15 10 -1 52.99 18.3
-15 -10 1 55.09 11.6
-15 10 0 63.39 7.4
15 10 0 64.69 15.5
-15 -10 0 51.29 12.3
15 10 1 12.7 12.7
-15 10 -1 2.7 3.3
15 10 2 30.2 14.3
15 10 3 5.6 11.9
15 10 4 9.8 13.5
15 10 6 26.3 16.2
15 11 -4 -16.4 10.1
-15 -11 4 0.9 7.9
15 11 -3 -9.6 9.8
-15 -11 3 1.2 8.3
-15 11 2 9.5 6
15 11 -2 2.9 13.7
-15 -11 2 8.4 8.9
-15 11 1 -10.1 4.6
15 11 -1 -8.2 11.6
-15 -11 1 -9.9 7.3
-15 11 0 -8.5 3.5
15 11 0 -2.5 9.6
-15 11 -1 1.2 2.9
15 11 1 11.6 13.2
15 11 3 6.1 16.9
-16 0 12 112.09 15.6
-16 0 11 -2.9 5.4
-16 0 10 63.49 10.2
-16 0 9 -5.4 3.9
-16 0 8 18.7 6.2
16 0 -8 4.9 6.1
-16 0 7 -3.6 3.4
16 0 -7 -3.6 4.3
16 0 -6 279.87 17.8
-16 0 6 295.97 16.6
16 0 -5 6.2 4
16 0 -5 0.6 1.8
-16 0 5 2.2 3.4
16 0 -4 26.7 3.2
-16 0 4 22.8 4.4
16 0 -4 22 5.1
16 0 -3 -1.3 2
-16 0 3 0.7 3.3
16 0 -3 -3.6 2.4
16 0 -2 162.18 13.4
-16 0 2 183.18 10
16 0 -2 185.18 9.4
16 0 -1 0.1 2.3
-16 0 1 1.3 2.6
16 0 -1 0.3 2.6
-16 0 0 3690.53 133.49
16 0 0 3640.84 133.39
16 0 0 3586.14 134.19
16 0 1 -1.8 2
16 0 1 1.4 3.2
-16 0 -1 -0.1 2.7
-16 0 -2 93.79 7.5
16 0 2 90.39 7.7
16 0 2 95.39 6.1
16 0 3 1.3 3
16 0 3 2.7 2.4
16 0 4 126.29 9.7
16 0 4 130.19 8.3
16 0 5 -2.7 2.6
16 0 5 -2.4 3.6
16 0 6 149.88 10.7
16 0 6 153.58 12.2
16 0 7 1.4 5.2
16 0 8 31.5 7.7
16 0 9 4.3 5.7
16 0 9 -6.8 4.3
16 0 10 0.3 4.9
16 0 10 5.1 5
16 0 11 7.5 6.2
16 0 11 -3.7 5.4
16 0 12 2.4 6.1
16 0 12 6.7 7.8
-16 1 12 22.6 9.3
-16 -1 12 18.2 8.2
-16 1 11 8.9 6.9
-16 -1 11 8.1 6.1
-16 1 10 90.09 12.1
-16 -1 10 92.29 10.8
-16 1 9 6 5.7
-16 -1 9 -1.2 4.3
16 1 -8 -14.5 5.8
-16 1 8 3.5 4.7
-16 -1 8 4.9 5.3
-16 1 7 17.9 5.9
16 1 -7 27.6 7.2
16 -1 -7 35.9 3.9
16 -1 -7 30.8 2.4
-16 -1 7 34.8 6.4
16 1 -6 56.59 8.2
-16 1 6 49.1 6.9
16 -1 -6 68.09 9.5
16 -1 -6 61.59 6.1
-16 -1 6 52.39 7.4
16 1 -5 270.07 12.3
16 1 -5 269.77 15.8
-16 1 5 276.37 15.3
-16 -1 5 250.87 14.8
16 -1 -5 283.77 14.4
16 -1 -5 270.77 16.6
-16 1 4 17.9 4.5
16 1 -4 17.5 4.5
16 1 -4 13.2 3
16 -1 -4 13.4 4.6
-16 -1 4 12 4.3
16 1 -3 108.09 8.1
-16 1 3 117.39 7.9
16 1 -3 105.29 7.3
16 -1 -3 114.29 8.7
-16 -1 3 113.69 8.4
16 1 -2 91.69 7
-16 1 2 87.29 6.3
16 1 -2 93.99 7.1
-16 -1 2 91.09 5.8
16 -1 -2 84.69 7.1
-16 -1 2 75.59 6.9
16 1 -1 1384.16 53.69
-16 1 1 1363.96 52.09
16 -1 -1 1359.26 52.49
-16 -1 1 1393.56 52.49
16 -1 -1 1340.37 52.49
-16 -1 1 1431.46 52.89
-16 1 0 68.39 5
16 1 0 67.49 5.9
16 1 0 56.89 6.8
-16 -1 0 60.19 6.3
16 -1 0 73.29 5.1
16 -1 0 74.69 6
-16 -1 0 71.29 5.8
-16 1 -1 1289.57 47.6
16 1 1 1362.76 48.6
16 1 1 1127.09 50.19
-16 -1 -1 1307.97 49.4
16 -1 1 1324.77 47.3
-16 -1 -1 1328.97 49.2
16 -1 1 1085.19 50.09
16 1 2 102.69 8.8
16 1 2 118.49 7.5
16 -1 2 113.69 8
-16 -1 -2 117.59 9
-16 -1 -2 112.99 7.9
16 -1 2 119.89 6.1
16 1 3 14.9 4.9
16 -1 3 10.5 2.3
16 -1 3 9 3.6
-16 -1 -3 12.3 3.4
16 1 4 41.2 6.9
16 1 4 44.1 5.9
16 -1 4 43.3 5.8
-16 -1 -4 44.4 5.7
16 1 5 3.5 3.7
16 1 5 9.6 4.6
-16 -1 -5 11.1 3.9
16 -1 5 5.9 4.2
16 -1 5 11.6 3.4
16 1 6 91.39 10.2
16 1 6 78.39 8.7
16 -1 6 67.59 7.4
16 -1 6 77.79 8
-16 -1 -6 81.69 7.6
16 1 7 2.3 5.1
16 1 7 9.3 4.8
16 -1 7 14 5.6
16 1 8 11.2 6
16 -1 8 6.3 5.7
16 -1 8 10.7 5.5
-16 -1 -8 11.6 4.3
16 1 9 16 6.7
16 -1 9 5.8 4.8
16 -1 9 7.9 5.8
16 -1 10 100.39 11.9
16 -1 10 87.99 12.1
16 1 11 14.4 7.2
16 1 11 9 7.6
16 -1 11 17.1 6.6
16 -1 11 7.8 5.9
16 1 12 6.4 7
16 1 12 2.5 5.7
16 -1 12 -5.1 5.5
16 -1 12 9.7 6.5
-16 -2 12 3.7 6.4
-16 2 11 5.7 6.3
-16 -2 11 16.2 7.3
-16 2 10 58.69 10.9
-16 -2 10 47.3 8.7
-16 2 9 5.2 5.7
-16 -2 9 10.3 6.7
-16 2 8 4.8 4.8
16 -2 -8 2.2 3.2
-16 -2 8 6 5.5
-16 2 7 2.8 4.2
16 2 -7 2.4 4.8
-16 -2 7 -0.8 4.2
16 -2 -7 -1.7 3.1
16 2 -6 41.5 6.8
-16 2 6 42.6 7.1
16 -2 -6 54.19 7.3
-16 -2 6 45.5 7.1
-16 2 5 146.99 10.4
16 2 -5 165.98 9.2
16 2 -5 138.59 10.6
16 -2 -5 135.49 10.9
-16 -2 5 142.89 10.6
16 2 -4 37.9 5.4
-16 2 4 40.8 5.8
16 2 -4 47.8 6.6
-16 -2 4 37.5 5.5
-16 -2 4 41.2 3.6
-16 2 3 252.77 12.7
16 2 -3 226.58 12.9
16 2 -3 228.48 12.7
-16 -2 3 239.18 13.1
-16 -2 3 233.68 10.9
16 -2 -3 222.68 13.6
-16 2 2 8.5 2.9
16 2 -2 7.7 3.4
16 2 -2 8.2 4.1
16 -2 -2 11.9 3.7
-16 -2 2 13.3 3.1
-16 -2 2 7.5 3.5
16 2 -1 768.32 31
-16 2 1 776.32 29.5
16 2 -1 733.53 32.3
16 -2 -1 762.82 30.6
-16 -2 1 712.63 32.8
16 2 0 221.58 11.7
-16 2 0 226.58 9.8
16 2 0 227.38 13.6
-16 -2 0 208.98 12.1
16 -2 0 216.88 10.4
-16 -2 0 215.88 11.7
16 2 1 209.28 11
-16 2 -1 211.18 8.8
16 2 1 178.58 12.5
-16 -2 -1 169.28 10.8
16 -2 1 213.58 8.8
-16 -2 -1 200.08 12
16 2 2 623.14 29.9
16 2 2 647.94 27.5
16 -2 2 668.23 24.6
-16 -2 -2 663.13 29.4
-16 -2 -2 677.13 28.5
16 2 3 34.5 5.1
16 2 3 41.6 7.3
-16 -2 -3 40.4 5.6
16 -2 3 33 5
16 -2 3 36.3 2.7
16 2 4 71.79 8.9
16 2 4 63.39 7.4
16 -2 4 66.49 6.8
-16 -2 -4 62.79 6.7
16 -2 4 52.59 4.2
16 2 5 13.4 5.9
16 2 5 8.2 4.4
-16 -2 -5 8.7 3.9
16 -2 5 15.6 3.4
16 -2 5 7.8 3
16 -2 5 15.9 4.5
16 2 6 19.2 5.4
16 2 6 27.2 7.7
-16 -2 -6 19.3 4.9
16 -2 6 28.5 4.9
16 -2 6 31.8 6
16 2 7 48 8.2
16 2 7 59.59 10.3
16 -2 7 57.99 7.3
16 -2 7 55.19 8.3
-16 -2 -7 38.8 7.4
16 2 8 47.3 9.8
16 2 8 32.7 7.7
16 -2 8 52.49 8.4
16 -2 8 48.6 7.3
-16 -2 -8 36.2 6.5
16 2 9 66.49 11.4
16 -2 9 67.09 8.3
16 -2 9 61.79 9.6
16 2 10 15.9 8.3
16 -2 10 32 9.3
16 -2 10 21 6.2
16 2 11 6.6 7.3
16 -2 11 4.1 6.1
16 -2 11 0.6 5
16 2 12 29.2 10.4
16 2 12 20.5 8.1
16 -2 12 8.3 6.9
16 -2 12 35.7 7.7
-16 3 12 9.1 7.7
-16 3 11 -0.1 6.4
-16 -3 11 13.6 7.7
-16 3 10 18.6 6.9
-16 -3 10 2.4 5.6
16 -3 -10 19.5 3.4
-16 3 9 56.49 10.4
16 -3 -9 66.99 7.5
-16 -3 9 57.89 8.9
-16 3 8 5.5 5.7
16 -3 -8 12.2 5.4
16 3 -7 98.29 11.1
-16 3 7 105.29 11.3
-16 -3 7 90.79 9.6
16 3 -6 106.69 7.3
-16 3 6 93.29 9.8
16 3 -6 102.19 9.7
-16 -3 6 92.59 5
-16 -3 6 87.79 9.8
16 -3 -6 99.59 11.6
-16 3 5 220.78 13.8
16 3 -5 206.98 12.6
16 3 -5 193.38 13.1
-16 -3 5 206.68 9.8
16 -3 -5 231.48 15.7
-16 -3 5 215.78 13.6
-16 3 4 52.79 6.8
16 3 -4 49 6.5
16 3 -4 58.69 7
-16 -3 4 50.09 6.5
16 -3 -4 49.1 7.8
-16 -3 4 50.69 4.8
16 3 -3 42.2 6
16 3 -3 38.1 6.4
-16 3 3 34.2 5.1
-16 -3 3 47.3 6.4
-16 -3 3 37.3 4.5
16 3 -2 106.69 8.4
-16 3 2 121.69 7.6
16 3 -2 112.59 10
-16 -3 2 117.69 8.9
16 3 -1 340.87 19.3
16 3 -1 336.27 16.8
-16 3 1 373.36 15.4
-16 -3 1 358.56 17.2
-16 -3 1 356.66 17.3
16 3 0 741.73 35.9
-16 3 0 829.72 30.3
16 3 0 836.82 33.2
-16 -3 0 816.32 33.8
-16 -3 0 770.72 33.5
16 3 1 237.48 12.5
16 3 1 216.68 14.8
-16 -3 -1 211.88 12.8
-16 -3 -1 213.88 13.1
16 3 2 14.9 4.3
16 3 2 8 4.7
-16 -3 -2 12.5 4.2
-16 -3 -2 13.7 5.1
16 3 3 32.5 7.6
16 3 3 37.7 5.9
-16 -3 -3 39.4 6.3
16 3 4 9.4 5.5
16 3 4 16.8 5.1
-16 -3 -4 18.6 4.9
16 3 5 71.29 10.6
16 3 5 82.19 9.5
16 -3 5 68.09 7.6
-16 -3 -5 70.49 7.8
16 -3 5 63.29 4.5
16 -3 5 72.99 4.9
16 3 6 91.39 12.5
16 3 6 80.29 9.5
16 -3 6 80.89 8.6
-16 -3 -6 80.09 8.1
16 -3 6 74.59 5.9
16 3 7 6.4 6.6
16 3 7 8 5.2
16 -3 7 10 3.7
16 -3 7 3.6 4.7
-16 -3 -7 11.3 4.6
16 3 8 33.2 9.2
16 3 8 27.2 11.2
16 -3 8 41.9 7.6
16 -3 8 31.7 6
16 3 9 145.89 16.1
16 -3 9 144.59 10.6
16 -3 9 133.69 12.5
16 3 10 54.89 12
16 -3 10 46.1 9.9
16 -3 10 61.39 8
16 3 11 -1.5 6.2
16 -3 11 -9.7 4.1
16 -3 11 -3.9 5.4
-16 4 12 2.4 6.2
-16 4 11 3.5 7.1
-16 -4 11 20.9 8.5
-16 4 10 5.3 7.2
-16 -4 10 8.3 7.3
16 -4 -10 6.4 4.6
-16 4 9 46.3 9.9
-16 -4 9 57.39 10.6
16 -4 -9 42.2 8.4
-16 4 8 2.6 7.5
16 -4 -8 8.5 5.9
-16 -4 8 -0.5 5
-16 4 7 49.5 8.8
-16 -4 7 50.39 8.2
-16 -4 7 52.89 3.7
16 -4 -7 49 9.2
16 4 -6 5.5 4.1
16 4 -6 6.2 4.1
-16 4 6 15.2 5.8
-16 -4 6 5 4.8
16 -4 -6 9.9 6.1
-16 -4 6 6.3 2.7
-16 4 5 -4.2 3.5
16 4 -5 7.5 4.7
-16 -4 5 -2.3 2.5
16 -4 -5 3.6 5.8
-16 -4 5 -0.5 4.1
-16 4 4 2.6 3.5
16 4 -4 -3.5 4
16 4 -4 0.3 2.9
-16 -4 4 1.3 3
-16 -4 4 -1.7 3.3
16 -4 -4 1.2 4.7
-16 4 3 -0.8 3
16 4 -3 3.3 3.4
16 4 -3 7 5
-16 -4 3 9.3 4.6
-16 -4 3 -0.7 3
16 -4 -3 -1.3 4.5
16 4 -2 497.55 28.5
-16 4 2 496.75 21.1
16 4 -2 449.06 22
-16 -4 2 467.95 22.3
-16 -4 2 481.75 22.4
16 4 -1 10.5 5.6
16 4 -1 -2.8 2.8
-16 4 1 1.7 2.1
-16 -4 1 1.7 3.6
-16 -4 1 -0.2 3.3
-16 4 0 0.2 1.5
16 4 0 5.9 5.2
16 4 0 0.3 2.9
-16 -4 0 -1.1 3.8
-16 -4 0 0.1 3.4
16 4 1 400.06 19.3
16 4 1 404.56 23.7
-16 -4 -1 394.26 21
-16 -4 -1 416.66 20.9
16 4 2 14.6 6.1
16 4 2 24.1 4.7
-16 -4 -2 23.1 5.5
-16 -4 -2 21.4 6
16 4 3 113.19 9.3
16 4 3 110.69 12.6
-16 -4 -3 75.49 8.6
16 4 4 5.2 4.7
16 4 4 12 6.7
-16 -4 -4 26.9 5.9
16 4 5 6.8 7.9
16 4 5 3 7
-16 -4 -5 0.5 4
16 4 6 163.68 13.9
16 4 6 166.18 17.1
16 -4 6 163.18 12.1
16 -4 6 155.28 7.6
-16 -4 -6 154.08 12.8
16 4 7 -8 5.8
16 4 7 -20.3 6.7
16 -4 7 -5.9 3.8
16 -4 7 -2.5 2.3
16 4 8 176.78 18
16 -4 8 157.08 9.7
16 -4 8 168.28 13.1
16 4 9 15.1 8.2
16 -4 9 15.5 4.5
16 4 10 75.19 14.8
16 -4 10 41.7 8.7
16 -4 10 64.39 7.5
16 4 11 15.9 9.9
16 -4 11 16.9 7.1
16 -4 11 8.2 4.7
-16 5 11 2.9 9.4
-16 -5 11 4.4 6.9
16 -5 -11 -1.6 4.1
-16 5 10 6.4 6.7
-16 -5 10 18.7 7.6
16 -5 -10 6.5 6.1
-16 5 9 -5.6 5.4
-16 -5 9 8.7 6
16 -5 -9 8.7 6.7
-16 5 8 27.9 8.2
16 -5 -8 15.9 7.5
-16 -5 8 20.8 6.8
-16 -5 8 10.9 2.6
-16 5 7 24.7 7.2
-16 -5 7 43.4 11.1
16 -5 -7 31.7 8.7
-16 -5 7 41.8 5.1
-16 5 6 42.1 7.8
16 5 -6 55.39 9.2
16 5 -6 33.7 7.1
16 -5 -6 36.9 9.1
-16 -5 6 29.9 6.6
-16 -5 6 43.5 6.2
-16 5 5 28.3 6.3
16 5 -5 15.6 6.8
16 5 -5 22.3 6.3
-16 -5 5 17.5 6.2
-16 -5 5 26.4 5.2
16 -5 -5 28.9 9
-16 5 4 40.4 6.9
16 5 -4 36.4 8.1
16 5 -4 20.3 5.5
16 -5 -4 26.6 8.5
-16 -5 4 26.4 6
-16 -5 4 31.6 5.4
16 5 -3 7.7 4
16 5 -3 14.4 6.3
-16 5 3 19.7 4.7
-16 -5 3 8.3 5.1
-16 -5 3 12.9 4.8
16 -5 -3 14.3 7.3
16 5 -2 38.4 5.9
16 5 -2 39.3 9
-16 5 2 35.2 5.4
16 -5 -2 50.99 9.5
-16 -5 2 49.9 6.8
-16 -5 2 42.3 7
16 5 -1 11.4 7
-16 5 1 15.5 3.5
16 5 -1 7.5 4.2
-16 -5 1 14.9 5.4
-16 -5 1 2.1 4.2
16 -5 -1 8.8 5.6
16 5 0 -2.3 4.5
-16 5 0 1.8 2
-16 5 0 0.5 2.3
16 5 0 2.2 3.7
-16 -5 0 0.7 4.1
-16 -5 0 6.4 4.3
16 5 1 342.07 18.3
16 5 1 376.36 23.6
-16 -5 -1 342.27 19.8
-16 -5 -1 338.37 19.8
16 5 2 55.89 7.8
16 5 2 52.49 10.4
-16 -5 -2 55.99 8.5
-16 -5 -2 56.59 9.5
16 5 3 8.7 4.6
16 5 3 6.1 7.2
16 5 4 6.3 4.6
16 5 4 21 9.2
-16 -5 -4 16.6 6.2
16 5 5 7.1 7.9
16 5 5 8.9 5.2
-16 -5 -5 13.1 5.9
16 5 6 30.6 10
16 5 7 16.2 9.1
16 -5 7 4.5 2.1
16 -5 7 4 4.7
16 5 8 263.37 22.9
16 -5 8 201.78 10.9
16 5 9 -3.8 6.9
16 -5 9 11 6
16 -5 9 -8.3 2.7
16 5 10 -14.6 5.6
16 -5 10 3.2 3.9
16 -5 10 5.2 6.3
-16 6 10 31 10.9
-16 -6 10 32.8 8.5
16 -6 -10 18.4 9.1
-16 6 9 -9 5.6
16 -6 -9 1.6 7.4
-16 -6 9 7.1 6.9
-16 6 8 26.6 7.3
-16 -6 8 16.8 7.3
-16 -6 7 6.8 6.1
-16 -6 7 4.2 4.7
16 6 -6 -6.3 4.5
-16 6 6 -10.7 3.6
-16 -6 6 3.2 4.3
-16 6 5 63.29 9.2
16 6 -5 56.19 10.3
-16 -6 5 53.69 9.1
-16 -6 5 76.29 9.6
16 -6 -5 59.09 13.7
16 6 -4 11 7.1
16 6 -4 26.5 6.2
-16 6 4 21.9 5.7
-16 -6 4 12.2 5.1
-16 -6 4 19.5 6.4
16 -6 -4 31.1 9.7
16 6 -3 4.2 6.8
16 6 -3 6.5 4.4
-16 6 3 5.4 4.2
16 -6 -3 0.2 7.4
-16 -6 3 -3.1 5
-16 -6 3 17 5.4
16 6 -2 2.9 4.4
16 6 -2 17.1 7.6
-16 6 2 10.5 4.2
-16 -6 2 14.5 5.7
-16 -6 2 6.5 5.4
16 -6 -2 -1.7 6.4
16 6 -1 48.3 10.4
16 6 -1 24.3 5.3
-16 6 1 48.9 6
-16 -6 1 30 7.2
-16 -6 1 19.5 6.1
16 6 0 72.89 12.8
-16 6 0 77.89 6
16 6 0 72.79 8.6
-16 6 0 89.39 6.4
-16 -6 0 77.79 10
-16 -6 0 71.09 9.9
16 -6 0 72.09 13.2
16 6 1 188.78 18.7
16 6 1 161.38 12.7
-16 6 -1 175.48 7.4
-16 -6 -1 160.98 14.6
16 6 2 130.79 16.8
16 6 2 113.99 10.7
-16 -6 -2 107.19 12.3
-16 -6 -2 117.29 12
16 6 3 1.5 7.6
16 6 3 -2 4.6
-16 -6 -3 6.3 5.7
16 6 4 100.49 15.8
16 6 4 69.59 12
16 6 6 5.6 8.2
16 6 7 -1.6 7.5
16 6 8 32.7 10.8
16 -6 8 37.8 4.2
16 -6 8 33.1 7.9
16 6 9 59.29 14.3
16 -6 9 36.1 5.2
16 -6 9 26.2 8
16 6 10 2 7.3
16 -6 10 -4.1 5.4
-16 -7 10 119.79 15.4
-16 7 9 3.1 7
-16 -7 9 5 5.9
-16 7 8 7.4 7
-16 -7 8 8.8 5.4
-16 7 7 20.9 8.8
-16 -7 7 5 5.7
16 7 -6 -7.1 5.6
-16 7 6 3.3 5
-16 -7 6 0.1 5.7
16 -7 -6 -0.8 7.7
-16 -7 6 -1.4 5.9
-16 7 5 7.1 6
16 7 -5 2.6 6.6
-16 -7 5 3.2 5.1
16 -7 -5 8.9 8.6
-16 -7 5 3.1 4.6
-16 7 4 10.8 5.7
16 7 -4 4.9 6.7
16 -7 -4 -7.2 7.1
-16 -7 4 3.6 5.7
-16 -7 4 6.6 5.4
-16 7 3 92.99 9.4
16 7 -3 75.69 13.1
-16 -7 3 79.39 10.6
-16 -7 3 82.29 10.1
16 -7 -3 78.49 14.2
16 7 -2 1.1 4.2
16 7 -2 2.6 7.2
-16 7 2 11.6 4.7
16 -7 -2 8.3 8.4
-16 -7 2 10.1 6.3
16 7 -1 64.19 8.7
16 7 -1 59.19 13.1
-16 -7 1 80.89 10.7
-16 -7 1 55.89 9.2
16 -7 -1 72.59 12.4
16 7 0 -5.8 7.8
-16 7 0 3 2.9
16 7 0 -0.8 3.7
16 -7 0 7 7.5
-16 -7 0 10.1 6.4
-16 -7 0 0.4 6.7
-16 7 -1 4.1 2
-16 7 -1 -0.5 3
16 7 1 -2.9 7.4
16 7 1 0.7 6
-16 -7 -1 4.9 7
-16 -7 -1 0.4 5.7
16 7 2 -9.6 7.3
16 7 4 11.2 9.4
16 7 5 8.3 9.1
16 7 6 11.2 9.5
16 7 7 37.5 13
16 7 8 -14.5 8
16 7 9 0.9 8.3
16 -7 9 2.5 6
-16 8 9 18.5 9.3
-16 -8 9 11.7 7.6
-16 8 8 -7 6.9
-16 -8 8 5.9 6.9
-16 8 7 0.4 6
-16 -8 7 7.5 6
-16 8 6 -1.2 5.2
-16 -8 6 3.8 5.8
16 8 -5 51.29 10.9
-16 8 5 76.79 13.4
-16 -8 5 89.69 12.7
-16 -8 5 55.19 9.6
16 8 -4 6.4 8.9
-16 8 4 13.1 5.9
-16 -8 4 11.3 6.6
-16 8 3 54.09 8.6
16 8 -3 41.4 11.3
-16 -8 3 31.7 7.8
-16 -8 3 39.4 8.3
16 8 -2 6.6 8.4
-16 8 2 3.4 4.8
-16 -8 2 11.7 7
-16 -8 2 -1.3 5.9
16 8 -1 8 8.3
-16 8 1 3.3 3.9
-16 -8 1 6.3 6.8
-16 8 0 164.98 9.8
-16 -8 0 182.38 16.4
-16 8 -1 38.4 4.3
16 8 1 39.8 12.8
-16 -8 -1 32.9 9.5
16 8 2 47.9 13.4
16 8 3 21.5 10.9
16 8 4 25.9 10.8
16 8 5 -9.8 8.8
16 8 6 6.6 10.5
16 8 7 5.4 10.7
16 8 8 5.4 11.3
-16 -9 7 1.7 6.7
-16 -9 6 -2.1 6.5
16 9 -5 3.3 8.9
-16 -9 5 2 6.2
-16 9 4 18.8 7.4
-16 -9 4 18.1 7.4
16 9 -3 18.9 10.2
-16 9 3 18.7 6.5
-16 -9 3 -0.5 6.4
-16 9 2 23.3 5.8
16 9 -2 17.6 10.2
-16 -9 2 13.9 7.6
-16 9 1 45.6 6.6
16 9 -1 27.7 11.5
-16 -9 1 45.6 10.6
16 9 0 27.5 12.3
-16 9 0 50.19 5.9
-16 -9 0 44.5 10.5
-16 9 -1 3.5 2.9
16 9 1 10.6 9
16 9 2 29.2 13
-16 9 -2 18.8 3.3
16 9 3 -8.4 9.8
16 9 4 20.8 11.7
16 9 5 22.2 12.6
16 9 6 8.4 9.6
-16 10 6 7.5 7.6
-16 -10 6 3 6.3
-16 -10 5 -4.9 6
16 10 -4 6.4 10.3
-16 -10 4 7.7 7.3
-16 10 3 -2.4 5.2
16 10 -3 5.3 9.9
-16 -10 3 -2.6 6.5
-16 10 2 59.19 8.3
16 10 -2 83.59 18.1
-16 -10 2 58.29 12.1
16 10 -1 6.5 11.3
-16 10 1 11.3 4.8
-16 -10 1 -9.8 6.8
-16 10 0 18.5 4.5
16 10 0 9.1 10.2
-16 -10 0 8.5 8.2
16 10 1 45.9 19.1
-16 10 -2 -1 1.9
16 10 2 -10.2 10.5
16 10 3 1.1 11.8
16 10 4 14.1 13.5
16 10 5 13.8 12.6
16 11 -3 -3.2 10.7
-16 -11 3 9.4 8.2
16 11 -2 12.2 11.3
-16 11 2 -1.6 5.2
-16 -11 2 -8.2 8.1
16 11 -1 -5.3 12.8
-16 11 1 5.6 5
-16 -11 1 -1.6 8.7
-16 11 0 1.6 3.3
16 11 0 15.3 12
-16 11 -1 1.8 3
16 11 2 12.5 9.8
16 11 3 27.2 18.9
-17 0 12 -0.4 7.3
-17 0 11 -1.5 5.8
-17 0 10 104.39 13.3
-17 0 9 -7.4 4.4
-17 0 8 78.29 10.5
-17 0 7 -1.2 4.4
17 0 -7 -2.3 3.9
-17 0 6 6.7 3.6
17 0 -6 -0.7 3.7
17 0 -6 -2.6 1.5
17 0 -6 -2.6 2.1
17 0 -5 -0.6 1.8
17 0 -5 1.4 3.4
-17 0 5 1.4 3.7
-17 0 4 11.1 3.8
17 0 -4 14.8 4.3
17 0 -4 13.9 2.7
-17 0 3 -6.5 2.3
17 0 -3 -0.5 2
17 0 -3 -2.7 2.6
17 0 -2 345.37 16.7
-17 0 2 347.77 16.3
17 0 -2 374.16 16
17 0 -1 -2.9 2.6
17 0 -1 1.8 2.4
-17 0 1 1.7 2.7
17 0 0 339.37 15.9
-17 0 0 341.67 15.2
17 0 0 324.27 14.8
17 0 1 3.5 3.9
-17 0 -1 0.2 2.8
17 0 1 -1.3 2
17 0 2 91.89 7.4
17 0 2 84.09 5.9
-17 0 -2 94.69 7.2
17 0 3 -1 2.1
17 0 3 -0.8 2.9
17 0 4 490.85 23.3
17 0 4 479.05 21
17 0 5 8.3 3.4
17 0 5 0.1 4.1
17 0 6 615.54 28.3
17 0 6 524.75 25.6
17 0 7 3.9 4.3
17 0 7 1.2 5
17 0 8 3 5.4
17 0 9 -7.8 4.7
17 0 10 27.6 7.5
17 0 10 29 8
17 0 11 -1.6 5.7
17 0 11 0.3 6
17 0 12 46.9 10
17 0 12 62.49 11.7
-17 -1 12 11.5 9.7
-17 1 11 65.79 11.5
-17 -1 11 53.29 11.1
-17 1 10 49.5 8.9
-17 -1 10 39 8.1
-17 1 9 59.69 10.1
-17 -1 9 71.19 10.4
-17 1 8 2.7 5.5
-17 -1 8 12.8 5.3
-17 1 7 12.8 5.1
17 1 -7 12.9 5.6
17 -1 -7 20.7 3.7
17 -1 -7 21.2 2.3
-17 -1 7 13.9 5.7
-17 1 6 13.3 5.2
17 1 -6 38.2 7.1
17 -1 -6 28.9 3
17 -1 -6 30.8 5.1
17 -1 -6 29.8 6.7
-17 -1 6 27.9 5.8
-17 1 5 99.59 8.7
17 1 -5 80.29 8.2
17 1 -5 94.39 6.3
17 -1 -5 98.49 5.6
-17 -1 5 100.19 8.5
17 -1 -5 88.69 9
17 1 -4 166.88 9.1
17 1 -4 155.98 10.6
-17 1 4 157.58 10.4
17 -1 -4 166.38 11.7
-17 -1 4 176.08 10.9
17 1 -3 24.7 4.1
-17 1 3 20 4
17 1 -3 26.1 4.4
-17 -1 3 14.6 4.1
17 1 -2 14.1 3.7
17 1 -2 5.5 2.9
-17 1 2 7.5 3.2
17 -1 -2 13.5 3.8
17 -1 -2 13.7 3.1
-17 -1 2 19.2 3.2
-17 -1 2 10.3 4.1
-17 1 1 1072.59 40.3
17 1 -1 1082.79 42
17 1 -1 942.01 41.3
-17 -1 1 1028.3 41.9
17 -1 -1 1019.1 40.7
17 -1 -1 1080.19 40.9
-17 -1 1 1091.59 41.4
-17 1 0 274.47 11.9
17 1 0 251.17 14.4
17 1 0 247.88 13.8
17 -1 0 272.97 13.1
-17 -1 0 261.57 13.1
17 -1 0 254.67 11.9
-17 -1 0 277.17 13
17 1 1 716.33 27.1
17 1 1 594.54 28.5
-17 1 -1 703.53 26.2
17 -1 1 683.83 25.8
-17 -1 -1 701.93 28
-17 -1 -1 622.44 27.3
17 -1 1 588.24 27.4
17 1 2 131.79 10.1
17 1 2 142.59 8.8
-17 -1 -2 148.19 9.2
17 -1 2 146.19 7.3
17 -1 2 152.98 9.4
-17 -1 -2 152.88 10.1
17 1 3 103.89 9.1
17 1 3 97.99 7.5
17 -1 3 121.69 8.5
17 -1 3 114.39 6.2
-17 -1 -3 87.89 7.3
17 1 4 48.6 7.7
17 1 4 49.8 6.1
17 -1 4 43 6.2
-17 -1 -4 47.2 5.6
17 -1 4 53.99 4.8
17 1 5 4.7 3.7
17 1 5 -1.3 4
-17 -1 -5 1.4 3.2
17 -1 5 2 2.8
17 -1 5 2.5 3.8
17 1 6 312.67 17.6
17 1 6 292.47 18.6
17 -1 6 302.67 17.5
17 -1 6 323.27 16.6
-17 -1 -6 319.17 16.5
17 1 7 20.5 5.6
17 1 7 25 7.2
-17 -1 -7 19.9 5.1
17 -1 7 28.9 6.6
17 1 8 106.59 11.6
17 1 8 91.19 11.4
17 -1 8 114.29 11.2
17 -1 8 96.49 10.5
17 1 9 46.9 9.4
17 -1 9 34.7 7.2
17 -1 9 43.3 8.6
17 1 10 -2 5.4
17 -1 10 -0.7 4.6
17 -1 10 2.3 6.3
17 1 11 19.9 8.4
17 1 11 6.9 6.4
17 -1 11 14.9 6.7
17 -1 11 9.3 6.2
17 1 12 28.5 9.7
17 1 12 35.2 9.3
17 -1 12 35.9 9.3
17 -1 12 14.5 6.8
-17 2 12 38.6 12.1
-17 2 11 148.99 14
-17 -2 11 110.19 14.5
-17 2 10 6.8 5.8
-17 -2 10 4.8 5.7
-17 2 9 5.5 5.6
-17 -2 9 9.2 6.1
-17 2 8 5.3 5.3
-17 -2 8 4 5.9
17 -2 -8 0.4 3.2
17 2 -7 0.8 4.2
-17 2 7 0.3 4.5
-17 -2 7 8.2 4.8
17 -2 -7 2 3.8
-17 2 6 -1.2 3.5
-17 -2 6 3 4.4
17 -2 -6 -7.6 3.4
17 2 -5 287.17 13.9
17 2 -5 264.47 15.6
-17 2 5 264.57 15.4
17 -2 -5 297.77 16.7
-17 -2 5 248.38 15.1
-17 2 4 -4.7 2.6
17 2 -4 1 3
17 2 -4 0.9 3
-17 -2 4 5.3 2
17 -2 -4 0.2 3.3
-17 -2 4 2.9 3.2
17 2 -3 453.45 21.7
-17 2 3 487.95 21.6
17 2 -3 474.65 22.1
-17 -2 3 490.65 22
17 -2 -3 471.45 22.7
-17 -2 3 499.15 19.9
17 2 -2 14.3 3.7
-17 2 2 16.1 3.3
17 2 -2 13.7 4.5
-17 -2 2 13.5 3.1
17 -2 -2 10.9 3.8
-17 -2 2 12 3.7
-17 2 1 163.88 8.2
17 2 -1 166.08 10.9
17 2 -1 141.59 9.4
-17 -2 1 157.08 9.4
17 -2 -1 157.08 9.1
-17 2 0 3.5 1.9
17 2 0 2.4 2.9
-17 -2 0 3.3 6.7
17 -2 0 3 2.2
-17 -2 0 10.5 3.5
17 2 1 274.47 15.7
-17 2 -1 268.17 11
17 2 1 263.77 13.2
-17 -2 -1 233.88 13.2
17 -2 1 255.97 10.9
-17 -2 -1 251.47 15.9
17 2 2 208.78 11.2
17 2 2 209.48 13.8
17 -2 2 197.68 8.3
17 -2 2 196.68 11.4
-17 -2 -2 205.28 11.9
-17 -2 -2 142.79 17.4
17 2 3 0.9 3.9
17 2 3 0.6 3.3
17 -2 3 1.5 1.4
-17 -2 -3 -1 2.8
17 -2 3 2.4 3.3
17 2 4 -5.4 3
17 2 4 10.6 5.7
17 -2 4 2.1 1.7
17 -2 4 0.3 3.3
-17 -2 -4 2.2 2.7
17 2 5 -0.4 3.4
17 2 5 -6.7 4.1
17 -2 5 3.6 3.3
-17 -2 -5 -1.2 3.2
17 -2 5 -2.6 2.3
17 2 6 0.3 4
17 2 6 0.5 5.2
17 -2 6 -0.3 3.3
17 -2 6 2.6 2.8
17 -2 6 4.8 4.5
17 2 7 40.6 9.2
17 2 7 37.7 7.3
-17 -2 -7 29.6 5.5
17 -2 7 47.4 6.7
17 -2 7 53.49 8
17 2 8 99.99 13.2
17 2 8 66.89 10.1
17 -2 8 50.79 7.5
17 -2 8 78.99 10
-17 -2 -8 54.79 8
17 -2 9 35.4 6.5
17 -2 9 33.7 7.7
17 2 10 96.99 14.5
17 -2 10 98.59 10.6
17 -2 10 117.79 12.7
17 2 11 4.5 6.8
17 -2 11 9.3 6.8
17 -2 11 6.3 5.3
-17 3 12 1.9 5.6
-17 -3 12 9.1 9.1
-17 3 11 20.1 8.9
-17 -3 11 44.5 10.8
-17 3 10 2.8 6.1
17 -3 -10 2.4 2.6
-17 -3 10 3.2 5.4
-17 3 9 2.9 5.5
17 -3 -9 2.6 3.9
-17 -3 9 4.5 5.3
-17 3 8 307.57 21.6
-17 -3 8 305.87 19
17 -3 -8 308.47 18.9
-17 3 7 4.3 4.8
17 3 -7 10.9 5.9
-17 -3 7 10.1 5.2
17 3 -6 15.4 5.4
17 3 -6 17.6 4.1
-17 3 6 15.3 5.6
17 -3 -6 35.1 7.5
-17 -3 6 12.2 5.8
-17 3 5 214.78 13.8
17 3 -5 237.48 13.2
17 3 -5 217.78 13.9
-17 -3 5 222.68 10.1
17 -3 -5 220.08 15.7
-17 -3 5 191.78 13.5
17 3 -4 17.9 4.5
-17 3 4 10 4.1
17 3 -4 25.6 5.5
-17 -3 4 12.8 4.5
17 -3 -4 9.3 5.2
-17 -3 4 22.3 3.3
17 3 -3 12 3.9
17 3 -3 16.5 5
-17 3 3 18.3 4.1
-17 -3 3 11 4.3
-17 -3 3 17.2 3.5
17 3 -2 245.78 15.3
-17 3 2 265.47 12.9
17 3 -2 247.58 13.7
-17 -3 2 271.77 14.2
-17 -3 2 268.37 13.5
17 3 -1 137.89 8.9
-17 3 1 144.89 7.5
-17 -3 1 130.69 9.5
-17 -3 1 109.29 8.5
-17 3 0 98.19 5.3
17 3 0 105.29 8
17 3 0 98.89 10.1
-17 -3 0 97.89 8.7
-17 -3 0 86.19 7.7
17 3 1 312.37 19.4
17 3 1 353.96 16.9
-17 -3 -1 346.87 18.1
-17 -3 -1 359.46 17.7
17 3 2 35.8 7.6
17 3 2 34.8 5.6
-17 -3 -2 33.4 5.8
-17 -3 -2 39.6 6.6
17 3 3 35.6 7.4
17 3 3 35.3 5.9
-17 -3 -3 34 5.7
17 3 4 49 7
17 3 4 38.9 8.8
-17 -3 -4 39.6 6.3
17 -3 4 46.3 6.3
17 3 5 1.4 4.6
17 3 5 8.3 6.2
17 -3 5 6.4 4.1
-17 -3 -5 5 4.3
17 -3 5 4.2 1.8
17 -3 5 5.6 2.1
17 3 6 0.6 6.4
17 3 6 4.6 4.9
17 -3 6 -1.5 2.2
-17 -3 -6 -0.4 4
17 -3 6 -1.7 4.1
17 -3 6 1.3 2.8
17 3 7 242.08 19
17 3 7 212.68 15.4
17 -3 7 221.78 12
-17 -3 -7 238.28 15
17 -3 7 218.48 14.8
17 3 8 73.89 12.2
17 -3 8 55.69 8.9
17 -3 8 57.09 6.8
17 3 9 16.2 7.9
17 -3 9 8.1 4.1
17 -3 9 -6.7 5.7
17 3 10 63.99 12.3
17 -3 10 77.49 10.7
17 -3 10 58.39 7.9
17 3 11 1.4 7
17 -3 11 -0.4 4.2
17 -3 11 -6.8 5.7
-17 4 11 7 8.8
-17 -4 11 9.5 7.5
-17 4 10 46.4 9
-17 -4 10 31.8 8.9
17 -4 -10 17.9 5.4
-17 4 9 60.89 10.2
-17 -4 9 45.8 9.7
17 -4 -9 48.8 8.9
-17 4 8 18.6 7
-17 -4 8 14.6 6.2
17 -4 -8 20.2 6.8
-17 4 7 -0.7 4.5
-17 -4 7 2.7 5
-17 -4 7 1.6 1.8
17 -4 -7 4.3 5.4
-17 4 6 -3.1 3.9
17 4 -6 -0.9 3.8
17 4 -6 0.8 3.6
17 -4 -6 5.1 5.6
-17 -4 6 4.9 4.9
-17 -4 6 0.9 2.4
-17 4 5 86.29 9.4
17 4 -5 83.89 9.8
17 4 -5 92.99 9.6
-17 -4 5 66.39 8.9
-17 -4 5 71.49 6.5
17 -4 -5 79.89 11.7
17 4 -4 13.8 5.5
-17 4 4 11.4 4.4
17 4 -4 7.6 3.9
-17 -4 4 15.5 4.5
-17 -4 4 18.1 5.3
17 -4 -4 13.7 6.1
17 4 -3 1.1 5
17 4 -3 2.8 3.3
17 -4 -3 2.6 5.1
-17 -4 3 -1.5 2.9
-17 -4 3 6.2 4
-17 4 2 143.69 8.8
17 4 -2 147.09 13
17 4 -2 139.49 10.1
-17 -4 2 138.29 9.8
-17 -4 2 136.69 10.5
17 4 -1 170.28 11
-17 4 1 190.48 9.4
17 4 -1 189.98 14.5
-17 -4 1 167.98 11.6
-17 -4 1 172.88 11.8
-17 4 0 10.1 2
17 4 0 8.4 3.8
17 4 0 9.8 6.1
-17 -4 0 9 4.3
-17 -4 0 5.2 4
17 4 1 379.96 23
17 4 1 384.06 18.9
-17 -4 -1 376.66 20.4
-17 -4 -1 383.46 20
17 4 2 34.1 5.8
17 4 2 26.9 7.5
-17 -4 -2 28.7 6.2
-17 -4 -2 34.5 7.8
17 4 3 7.5 4.4
17 4 3 6.7 6.4
-17 -4 -3 8.6 4.3
17 4 4 9.6 6.9
17 4 4 7.2 4.2
17 4 5 17.1 6.9
17 4 5 16 8.3
-17 -4 -5 19.4 6.1
17 4 6 153.88 12.6
17 4 6 176.18 17.1
17 -4 6 144.59 11.7
17 -4 6 145.89 6.9
17 -4 6 146.19 7.5
-17 -4 -6 148.49 12.3
17 4 7 18.9 8.9
17 -4 7 28 3.6
17 -4 7 26 6.6
17 4 8 212.48 20.1
17 -4 8 192.68 14.9
17 -4 8 195.58 10.8
17 4 9 2.5 6.8
17 -4 9 0 5
17 4 10 30.1 10
17 -4 10 32.1 8
17 -4 10 35.8 5.8
17 4 11 10 8.5
17 -4 11 -2.1 6.2
17 -4 11 -2 4.2
17 -5 -11 -1.1 4.1
-17 -5 11 23.9 9.4
-17 5 10 169.38 17.5
-17 -5 10 161.28 16.4
17 -5 -10 134.29 14.5
-17 5 9 2.7 5.8
17 -5 -9 -0.3 6
-17 -5 9 5.6 6.9
-17 5 8 11 7.1
17 -5 -8 10.7 8
-17 -5 8 10.9 7
-17 -5 8 9.4 2.1
-17 5 7 83.79 11.1
-17 -5 7 82.49 7.1
-17 -5 7 88.29 10.8
17 -5 -7 81.09 12
17 5 -6 24.8 6.4
-17 5 6 13.8 6
-17 -5 6 12.4 6
17 -5 -6 22.7 8.4
17 5 -5 6.1 5.5
17 5 -5 6 4.5
-17 5 5 13.4 5.2
17 -5 -5 0.8 7.2
-17 -5 5 9.6 4
-17 -5 5 9.6 5.5
17 5 -4 92.59 11.3
-17 5 4 98.29 9
17 5 -4 75.39 8.4
-17 -5 4 82.39 9.4
17 -5 -4 88.69 12.9
-17 -5 4 84.19 7.9
-17 5 3 55.89 7.1
17 5 -3 46.9 9.2
17 -5 -3 44.4 9.4
-17 -5 3 58.89 8
-17 -5 3 46.5 6.8
17 5 -2 19 5.2
-17 5 2 15.4 4.2
17 5 -2 19 7.1
-17 -5 2 9.2 4.6
17 -5 -2 17.9 6.9
-17 -5 2 10.2 5.5
-17 5 1 194.18 10.1
17 5 -1 181.68 15.7
17 5 -1 173.48 12
-17 -5 1 190.78 12.9
-17 -5 1 174.08 12.5
-17 5 0 38.6 3.8
17 5 0 26.1 6
17 5 0 32.4 8.8
-17 -5 0 53.69 7.9
-17 -5 0 28.6 6.5
17 5 1 20 8
17 5 1 1.9 3.6
-17 -5 -1 12.6 6.1
-17 -5 -1 18.1 5.6
17 5 2 13.6 4.6
17 5 2 24.3 8.8
-17 -5 -2 34.2 7
-17 -5 -2 21.4 6.6
17 5 3 -0.1 6.6
17 5 3 13.5 6.4
-17 -5 -3 14.5 6.2
17 5 4 21.3 9.5
17 5 4 17.6 6.3
-17 -5 -4 13.4 6.4
17 5 5 73.99 13.7
17 5 5 67.99 10.3
-17 -5 -5 91.79 11.5
17 5 6 194.98 31
17 5 7 -5.9 6.6
17 -5 7 -3.9 5.1
17 5 8 130.19 18.3
17 -5 8 70.79 10.3
17 -5 8 97.09 6.4
17 5 9 -1.1 7.2
17 -5 9 3.6 3.2
17 -5 9 -0.3 5.6
17 5 10 7.9 8.7
17 -5 10 1.3 4.5
17 -5 10 0.4 6.6
-17 6 10 44.5 11.5
-17 -6 10 37 9.2
17 -6 -10 46.2 11.2
-17 6 9 50.59 10.8
-17 -6 9 48.8 9.4
17 -6 -9 19.2 10.2
-17 6 8 -3.2 5.6
-17 -6 8 6.5 4.3
-17 -6 8 5.4 5.7
17 -6 -8 3.7 9
17 -6 -7 14.7 9.8
-17 -6 7 5.2 6
-17 -6 7 8.9 5
17 6 -6 86.19 11.3
-17 6 6 81.49 11.4
-17 -6 6 74.89 10.2
-17 -6 6 77.59 10.6
17 6 -5 38.8 8.7
-17 6 5 34.6 7.7
-17 -6 5 33.2 6.5
-17 -6 5 30.6 7.4
17 6 -4 -2.7 3.5
17 6 -4 -6.8 5.8
-17 6 4 -0.2 4.3
-17 -6 4 -5.2 4.1
-17 -6 4 -3.9 3.7
17 6 -3 22.8 6.3
-17 6 3 38 6.4
17 6 -3 18.8 7.9
-17 -6 3 16 6.4
-17 -6 3 26.1 5.9
-17 6 2 30.9 5.4
17 6 -2 19.3 5
17 6 -2 6.7 7.4
-17 -6 2 12.8 5.8
17 -6 -2 19 9.5
-17 -6 2 24.5 6.3
17 6 -1 9.6 4.9
-17 6 1 14.1 3.9
17 6 -1 7.6 7.4
-17 -6 1 8.7 5.7
-17 -6 1 8.5 5.1
17 -6 -1 13.5 7.6
-17 6 0 144.49 8
17 6 0 148.19 15.9
17 6 0 139.99 11.5
-17 6 0 144.59 8.5
-17 -6 0 124.29 12
-17 -6 0 149.88 12.5
17 -6 0 125.09 14.2
17 6 1 10.8 8.5
17 6 1 8.1 5.2
-17 -6 -1 6.3 5.4
-17 -6 -1 9.2 6.7
17 6 2 58.29 7.9
17 6 2 56.29 12
-17 -6 -2 65.39 11
-17 -6 -2 63.89 9.5
17 6 3 133.39 18.3
17 6 3 153.88 12
-17 -6 -3 161.98 14.2
17 6 4 21.2 9.9
17 6 5 8.2 9.1
17 6 6 16.8 9.3
17 6 7 2.4 8.6
17 6 8 6.7 7.9
17 -6 8 6.3 6.2
17 6 9 16.2 11.1
17 -6 9 22.5 7.6
17 -6 9 18.3 4.2
17 6 10 0.7 9.1
17 -6 10 1 6.6
17 -6 10 15.4 4.4
-17 7 9 5.3 7.1
-17 -7 9 -4.3 5.7
-17 7 8 10 7.2
-17 -7 8 -9.1 5.5
-17 7 7 20.8 10
-17 -7 7 30.4 8
17 7 -6 5.3 7
-17 7 6 -9.5 4.2
-17 -7 6 -5 5.4
-17 -7 6 1.1 6.1
-17 7 5 29.1 7.5
17 7 -5 17.4 7.4
-17 -7 5 29.1 6.5
17 -7 -5 31.8 12.2
-17 -7 5 25.8 7.4
-17 7 4 54.99 8.4
17 7 -4 67.99 11.9
-17 -7 4 50.79 9.6
17 -7 -4 71.39 14.1
-17 -7 4 50.19 8.5
17 7 -3 92.39 13.6
-17 7 3 93.59 9.3
17 -7 -3 77.09 15.2
-17 -7 3 85.49 9.6
-17 -7 3 94.79 11.5
-17 7 2 9.2 4.8
17 7 -2 5.7 7.6
17 -7 -2 0.5 8
-17 -7 2 -1.3 4.6
-17 -7 2 4.1 5.8
17 7 -1 6.2 8.1
-17 7 1 2.4 4.6
-17 7 1 10.4 5.3
-17 -7 1 7.9 6.6
17 -7 -1 0.3 7.9
-17 -7 1 10.5 5.7
17 7 0 6.1 8.5
-17 7 0 3.2 3
-17 7 0 4.9 3
-17 -7 0 4.5 6.1
-17 -7 0 1.3 6.4
-17 7 -1 113.49 7.3
-17 7 -1 106.89 5.7
17 7 1 124.39 18.2
-17 -7 -1 133.99 14.1
-17 -7 -1 138.09 13.6
17 7 2 -7.5 7.4
17 7 3 17.5 10
17 7 4 27.6 12.3
17 7 5 -8.6 7.5
17 7 6 23.9 11.3
17 7 7 15.7 10.5
17 7 8 9.8 10.1
17 7 9 -5 9.1
17 -7 9 -3.2 5.7
-17 8 9 10.2 10.9
-17 -8 9 9 8.9
-17 8 8 0.6 6.5
-17 -8 8 -1.5 6.1
-17 8 7 -1.2 7.6
-17 8 6 13.2 5.9
-17 -8 6 -4.1 5.5
17 8 -5 52.59 12.5
-17 8 5 58.89 10.2
-17 -8 5 60.39 10.3
-17 8 4 139.39 13.3
17 8 -4 113.79 17.3
-17 -8 4 159.78 15.8
-17 -8 4 109.69 12.1
17 8 -3 -5.8 7.5
-17 8 3 -1.2 5.2
-17 8 3 1.7 5.2
-17 -8 3 1.2 4.9
-17 -8 3 -0.1 5.7
-17 8 2 8 5.2
-17 8 2 1.8 4.5
17 8 -2 13 10.3
-17 -8 2 14.1 6.9
-17 -8 2 -1.6 7.7
17 8 -1 76.89 15.4
-17 8 1 89.29 8.2
-17 -8 1 86.39 12.5
17 8 0 34.6 18.1
-17 8 0 38.1 5
-17 8 0 46 7.1
-17 -8 0 30.1 9.6
-17 8 -1 422.36 18.1
17 8 1 476.95 32.6
-17 -8 -1 470.35 28.8
17 8 2 83.39 16.6
17 8 3 46.7 12.9
17 8 4 6.1 9.1
17 8 5 6.6 10.4
17 8 6 18.3 11.3
17 8 7 1.1 10.1
17 8 8 15.8 14.4
-17 -9 7 2.7 6.6
-17 -9 6 11.5 7
17 9 -5 -10.5 7.2
-17 -9 5 -0.5 6
17 9 -4 26.5 12.2
-17 9 4 5.2 6.4
-17 9 4 31.5 9.2
-17 -9 4 13.8 7.4
17 9 -3 18.1 9.6
-17 9 3 4 5
-17 9 3 2 4.7
-17 -9 3 -11.1 5.9
17 9 -2 12 10.3
-17 -9 2 -6.5 6.4
-17 9 1 14.8 4.8
17 9 -1 -4.1 8.3
-17 -9 1 21.8 8.3
17 9 0 1.7 9.8
-17 -9 0 -0.4 7.2
-17 9 -1 8.6 2.8
17 9 1 9.4 9.2
17 9 2 -0.9 11
17 9 3 -11.8 8.7
17 9 4 -3.5 8.6
17 9 5 -0.3 10.9
17 9 6 116.29 22.9
17 9 7 -4.9 11.2
-17 10 6 2.8 6.8
-17 -10 6 -14.2 5.8
17 10 -5 10.3 11.7
-17 -10 5 -4.9 6.3
17 10 -4 -2 9.3
-17 -10 4 -4.5 6
17 10 -3 17.2 11.9
-17 10 3 -6.9 5.1
-17 -10 3 2.2 8.4
-17 10 2 26.9 6.3
17 10 -2 25.9 12.3
-17 -10 2 30.9 10.2
-17 10 1 3 4.3
17 10 -1 2 9.8
-17 -10 1 6.3 8.1
17 10 0 64.29 17.1
-17 10 0 47.5 5.9
-17 -10 0 35.4 11.1
17 10 1 0.8 10.9
-17 10 -1 3.2 2.3
17 10 2 0.3 10.4
17 10 3 25.1 15
17 10 5 -7.3 11.9
17 11 -3 11.2 12.6
17 11 -2 -12.4 9.8
-17 11 2 -9 5.2
-17 -11 2 15.9 9.7
-17 11 1 25.5 5.5
17 11 -1 27.7 14.5
-17 -11 1 21 9.6
17 11 0 13 12.9
17 11 2 17.1 16.1
-18 0 11 -3.3 5.2
-18 0 10 101.99 13.4
-18 0 9 2.5 5.5
-18 0 8 18.3 6.1
18 0 -7 -7.1 4.3
-18 0 7 2 4.1
-18 0 6 107.89 10.2
18 0 -6 106.79 6
18 0 -6 117.89 7.6
18 0 -6 103.89 10.2
18 0 -5 -2.9 3.3
-18 0 5 -1.6 3
18 0 -5 2.5 2.3
18 0 -4 76.19 5.4
18 0 -4 77.89 7.9
-18 0 4 76.69 7.3
18 0 -3 2.3 3
-18 0 3 2 2.7
18 0 -3 -0.4 2.2
18 0 -2 174.48 10.5
18 0 -2 199.18 10.1
-18 0 2 188.08 10.4
-18 0 1 0.1 2.6
18 0 -1 2.2 2.8
18 0 -1 -2.5 2.1
18 0 0 638.34 26.2
-18 0 0 661.33 26.4
18 0 0 647.44 31.9
18 0 1 1.1 3.2
18 0 1 0 2
-18 0 -1 -0.3 2.8
-18 0 -2 242.58 12.9
18 0 2 238.38 13.4
18 0 2 249.48 11.5
18 0 3 0.6 2.2
18 0 3 -0.8 3.4
18 0 4 16.2 5
18 0 4 22 3.9
18 0 5 0.2 3
18 0 5 4.5 4.6
18 0 6 839.02 38.1
18 0 6 844.92 36.4
18 0 7 -0.7 3.7
18 0 7 3.4 5.3
18 0 8 24.6 6.8
18 0 8 32.8 7.9
18 0 9 -0.5 5.1
18 0 10 45.7 9.3
18 0 10 49.99 9.3
18 0 11 6.8 6.2
18 0 11 6.9 6.2
-18 1 11 5.2 6.6
-18 -1 11 8.2 7.1
-18 1 10 26.1 8.1
-18 -1 10 37.3 8
-18 1 9 71.39 10
-18 -1 9 90.89 12
-18 1 8 0.2 4.4
-18 -1 8 2.7 4.5
-18 1 7 18.8 6.6
18 1 -7 16.9 6.7
-18 -1 7 17.7 6.7
18 -1 -7 26.6 4.5
18 -1 -7 16.8 2.2
-18 1 6 35.2 6.7
18 1 -6 27.2 7.3
18 -1 -6 40.9 5.8
-18 -1 6 22.4 6.1
18 -1 -6 23.4 5.9
18 -1 -6 28.8 3.2
18 1 -5 287.47 17
18 1 -5 297.27 14
-18 1 5 288.27 16.3
-18 -1 5 303.47 16.6
18 -1 -5 313.37 13.1
18 -1 -5 301.47 18
18 1 -4 62.99 7
18 1 -4 71.89 5.9
-18 1 4 54.29 6.4
-18 -1 4 55.69 7.1
18 -1 -4 59.29 4.7
18 -1 -4 65.29 7.7
18 1 -3 46.2 5.2
18 1 -3 32.1 5.1
18 -1 -3 40 4.2
-18 -1 3 39.6 5.4
18 -1 -3 51.09 6.6
18 1 -2 -0.8 2.9
18 1 -2 -0.6 2.7
-18 1 2 1.7 2.6
-18 -1 2 -1.3 2.9
18 -1 -2 1.4 2.5
18 1 -1 32.7 4.7
18 1 -1 32.4 5.4
-18 1 1 33.4 4.1
18 -1 -1 30.1 4.3
18 -1 -1 31.5 4.5
-18 -1 1 33.8 5
-18 1 0 275.77 12.2
18 1 0 271.67 13.1
18 -1 0 267.37 12.1
-18 -1 0 273.17 13.3
-18 -1 0 279.27 13.2
18 -1 0 215.38 12.7
-18 1 -1 9.6 2.9
18 1 1 13.1 4.3
18 -1 1 14.6 2.6
18 -1 1 9.4 3.2
-18 -1 -1 7.6 3.2
-18 -1 -1 11.4 3.9
-18 1 -2 104.49 7.1
18 1 2 104.49 9.3
18 1 2 103.59 7.7
-18 -1 -2 80.19 7
18 -1 2 106.39 7.9
-18 -1 -2 105.19 8.8
18 -1 2 113.89 6
18 1 3 17.1 4.7
18 1 3 12.9 3.6
18 -1 3 18.6 4.5
18 -1 3 14.2 2.7
-18 -1 -3 17.1 3.9
18 1 4 -1.7 2.8
18 1 4 4.4 4.9
18 -1 4 5.5 4
-18 -1 -4 4.5 3.1
18 -1 4 4.5 2.4
18 1 5 41.4 7.5
18 1 5 41 6.2
18 -1 5 45.4 7.1
-18 -1 -5 33.8 5.5
18 -1 5 31.2 4.8
18 1 6 125.39 10.4
18 1 6 130.99 12.7
18 -1 6 140.89 11.5
18 -1 6 147.29 10.8
18 1 7 1.7 5.2
18 1 7 13.5 5.2
-18 -1 -7 3.9 3.9
18 -1 7 -0.1 4.2
18 -1 7 5.6 5.1
18 1 8 -3.3 5.2
18 1 8 5 5.4
18 -1 8 -2 4
18 -1 8 4.2 5.3
18 -1 8 -1.9 3.7
18 1 9 64.69 8.9
18 -1 9 39 7.8
18 -1 9 25.2 7.9
18 1 10 85.79 12.5
18 -1 10 75.19 11.1
18 -1 10 71.29 10.3
18 1 11 2.9 5.9
18 1 11 0.8 6.6
18 -1 11 -3.7 5.3
18 -1 11 3.9 6
-18 2 12 17.1 8.7
-18 -2 12 13.6 9.4
-18 2 11 44.9 9
-18 -2 11 63.19 11.4
-18 2 10 2.7 6
-18 -2 10 7.2 5.6
-18 2 9 58.69 9.8
-18 -2 9 56.69 10.1
-18 2 8 5.7 5.2
18 -2 -8 6.1 3.7
-18 2 7 126.19 11.8
18 2 -7 128.39 12.7
-18 -2 7 127.69 11.6
18 -2 -7 129.19 10.1
18 2 -6 25.2 6
18 2 -6 39.5 4.6
-18 2 6 23.8 5.4
-18 -2 6 30.8 6.9
18 -2 -6 23.8 5.8
18 2 -5 20.3 4.3
18 2 -5 20.9 5.7
-18 2 5 10.4 4.5
18 -2 -5 19.3 5.4
-18 -2 5 17.9 4.9
18 2 -4 -3.4 2.8
-18 2 4 9.9 3.9
18 2 -4 2.4 3.3
-18 -2 4 5.3 2.2
18 -2 -4 -0.4 3.6
-18 -2 4 -1.7 3.3
18 2 -3 58.79 6.6
18 2 -3 55.89 6.3
-18 2 3 61.09 6.2
-18 -2 3 57.59 4.7
18 -2 -3 57.99 6.9
-18 -2 3 62.19 6.5
-18 2 2 28.6 4.2
18 2 -2 32.4 5.2
18 2 -2 37.7 5.9
18 -2 -2 28.7 4.9
-18 -2 2 25 4.9
18 2 -1 133.89 8.9
-18 2 1 155.78 8.1
18 2 -1 159.78 10.9
-18 -2 1 153.88 9.8
-18 -2 1 151.68 9
18 -2 -1 131.79 8.8
18 2 0 80.99 6.7
18 2 0 70.49 8.2
-18 2 0 68.19 4.7
18 -2 0 77.29 5.5
-18 -2 0 61.89 6.1
-18 -2 0 68.39 7.1
18 2 1 97.79 7.3
-18 2 -1 100.79 5.5
18 2 1 77.79 8.6
18 -2 1 105.89 5.5
-18 -2 -1 93.99 7.5
-18 -2 -1 84.29 8.7
18 2 2 120.69 10.2
18 2 2 102.89 7.8
-18 -2 -2 85.59 9.4
18 -2 2 106.79 8.1
18 -2 2 110.49 5.2
-18 -2 -2 92.99 7.7
18 2 3 80.29 9.6
18 2 3 83.19 7.2
18 -2 3 81.39 7.1
-18 -2 -3 72.09 6.9
18 -2 3 84.99 4.5
18 2 4 164.58 11.1
18 2 4 151.68 13.2
18 -2 4 166.48 7.8
-18 -2 -4 172.38 11.1
18 -2 4 156.78 10.9
18 2 5 10.8 5.7
18 2 5 -3.1 3.4
18 -2 5 8.8 4.4
-18 -2 -5 7.5 3.7
18 -2 5 1.2 2.6
18 2 6 73.19 9.2
18 2 6 54.99 9.9
-18 -2 -6 59.59 7.1
18 -2 6 49.9 7.6
18 -2 6 52.39 6.4
18 2 7 70.69 9.6
18 2 7 65.19 11.3
-18 -2 -7 71.19 8
18 -2 7 101.69 9.8
18 -2 7 77.59 8.1
18 -2 7 84.39 9.8
18 2 8 1.5 4.5
18 2 8 4.9 6.7
18 -2 8 -0.9 5.1
18 -2 8 5.8 4.3
18 2 9 4.8 6.8
18 -2 9 16.3 5
18 2 10 36.8 9.7
18 -2 10 52.19 8
18 -2 10 52.99 9.7
18 2 11 -0.4 6.3
18 -2 11 5.8 6.4
18 -2 11 -5.7 4.5
-18 3 12 -0.3 5
-18 -3 12 9.2 7.8
-18 3 11 -2.4 6.3
-18 -3 11 -2.8 7.2
-18 3 10 40.1 10.2
-18 -3 10 44.1 9.1
18 -3 -10 40.2 4.4
-18 3 9 12.7 6.5
-18 -3 9 13.3 6.8
18 -3 -9 11.5 4.6
18 -3 -8 162.08 15.1
-18 -3 8 162.28 13.3
-18 3 7 4.6 5.1
18 -3 -7 2.1 5.2
-18 -3 7 4.7 4.7
18 3 -6 3.3 4.6
18 3 -6 9 3.5
-18 3 6 1 4.2
-18 -3 6 6.3 5.4
18 -3 -6 4.1 5.1
-18 3 5 61.29 7.9
18 3 -5 68.09 7.6
18 3 -5 50.59 11.4
18 -3 -5 64.79 9.4
-18 -3 5 46.2 7.2
-18 -3 5 58.59 4.6
18 3 -4 77.09 8.8
-18 3 4 114.39 8.6
18 3 -4 79.69 8.3
-18 -3 4 87.29 6
-18 -3 4 82.29 8.5
18 -3 -4 92.09 10.2
18 3 -3 69.99 7.5
18 3 -3 87.89 8.8
-18 3 3 90.09 8.3
-18 -3 3 86.99 7.8
18 3 -2 204.28 13.8
18 3 -2 181.08 11.6
-18 3 2 208.08 10.6
-18 -3 2 190.18 12
-18 -3 2 195.08 11
18 3 -1 -3.2 4.4
-18 3 1 6.9 2.4
18 3 -1 5.5 3.2
-18 -3 1 5.3 3.2
-18 -3 1 3.6 3.5
18 3 0 412.96 19.7
18 3 0 448.86 23.1
-18 3 0 411.86 16.9
-18 -3 0 430.16 20.5
18 3 1 1.2 3
18 3 1 -0.7 4.7
-18 3 -1 0.7 1.3
-18 -3 -1 -1.6 4
-18 -3 -1 -1.7 3.1
18 3 2 19.5 6.6
18 3 2 28.2 5.1
-18 -3 -2 21.4 6
-18 -3 -2 29.3 5.3
18 3 3 -0.6 5
18 3 3 -1.1 3.7
-18 -3 -3 -4.5 3
18 3 4 33.7 8.6
18 3 4 25.4 5.7
18 -3 4 25 5.4
-18 -3 -4 23.1 5.4
18 3 5 30.7 6.3
18 3 5 28.7 8.8
18 -3 5 30.4 3
-18 -3 -5 49.7 7.3
18 -3 5 22.6 2.6
18 -3 5 30.3 5.7
18 3 6 -2.2 6.2
18 -3 6 17.9 3.6
18 -3 6 12.7 5.3
18 -3 6 12.6 3
-18 -3 -6 15.1 5
18 3 7 88.29 13.1
18 3 7 92.59 10.7
18 -3 7 81.29 6.7
18 -3 7 85.79 9.1
18 -3 7 75.39 9.7
18 3 8 199.88 19.6
18 -3 8 203.88 11.8
18 -3 8 177.18 14.6
18 3 9 -7.8 5.5
18 -3 9 9.2 6
18 -3 9 1.3 3.9
18 3 10 0.2 6.5
18 -3 10 2.8 5.8
18 -3 10 6.2 4.2
18 3 11 2.1 7.6
18 -3 11 2.8 6.5
18 -3 11 0.6 4.6
-18 4 11 -1.2 6.5
-18 -4 11 13.1 9.2
-18 4 10 57.69 11.8
-18 -4 10 40.7 8.9
18 -4 -10 36.1 6.3
-18 4 9 3.2 5.8
18 -4 -9 1.1 5.2
-18 -4 9 0.7 5.2
-18 4 8 65.29 10.6
18 -4 -8 73.99 10.5
-18 -4 8 60.29 10
-18 4 7 193.08 14.8
18 -4 -7 172.18 15.7
18 4 -6 29.1 5.5
-18 4 6 25.9 6.8
18 4 -6 34.1 7.3
18 -4 -6 19.9 7.4
-18 -4 6 15.8 6.4
-18 -4 6 29.1 3.9
-18 4 5 20.2 5.6
18 4 -5 34.1 6.8
18 4 -5 30.6 6.5
18 -4 -5 36.1 9.1
-18 -4 5 35.6 4.6
-18 -4 5 19.3 5.7
-18 4 4 18.7 4.9
18 4 -4 15.6 6.1
18 -4 -4 12.1 6.5
-18 -4 4 9.3 3.3
-18 -4 4 9.9 5.4
-18 4 3 132.99 11.3
18 4 -3 145.59 10.9
-18 -4 3 152.18 11.4
-18 -4 3 170.28 10.2
18 -4 -3 170.08 14.3
18 4 -2 6.7 5.4
-18 4 2 3.7 2.9
18 4 -2 14.8 4.3
-18 -4 2 10.7 4
-18 -4 2 3.8 4.1
18 4 -1 34.7 5.5
18 4 -1 50.89 8.8
-18 4 1 45.8 4.5
-18 -4 1 46 6.4
-18 -4 1 37.7 6.3
-18 4 0 34.4 3.2
18 4 0 32.4 8
18 4 0 37 5.9
-18 -4 0 35 6
-18 -4 0 36.9 6.3
18 4 1 3.8 3.5
18 4 1 -1.3 5.3
-18 -4 -1 0.2 4.3
-18 -4 -1 -5.9 3.2
18 4 2 7.7 3.6
18 4 2 8.7 5.8
-18 -4 -2 3 3.5
-18 -4 -2 5.1 4.8
18 4 3 4.1 3.8
18 4 3 7 6.6
-18 -4 -3 -2.9 3.9
18 4 4 14.3 5.2
18 4 4 10.1 7.1
-18 -4 -4 15.2 5.3
18 4 5 28 9.1
18 4 5 33.7 7
-18 -4 -5 25.3 6.4
18 4 6 419.56 27.2
18 4 6 395.66 22.1
18 -4 6 386.06 21.4
18 4 7 -4.3 8.2
18 -4 7 8.1 5.4
18 -4 7 1.2 2.1
18 -4 7 1.9 3.1
18 4 8 41.9 11.8
18 -4 8 26.8 9
18 -4 8 44.7 5.1
18 4 9 -11.1 6.5
18 -4 9 -2.6 3.6
18 -4 9 -0.2 5.6
18 4 10 9.6 8.6
18 -4 10 2.9 6.2
18 -4 10 3.4 3.9
18 4 11 27.8 10.7
18 -4 11 28.8 6.2
18 -4 11 29.6 8.4
18 -5 -11 2.6 4.7
-18 5 10 31.8 10.2
-18 -5 10 19.2 7.4
18 -5 -10 42.6 9
-18 5 9 33.9 9.7
-18 -5 9 38.3 8.8
18 -5 -9 25.1 8.2
-18 5 8 1.8 5
-18 -5 8 -5.6 4.5
-18 -5 8 0.8 1.6
18 -5 -8 -13.2 5.7
-18 5 7 11.9 5.7
-18 -5 7 18.3 3.8
-18 -5 7 17.8 6.7
18 -5 -7 21.3 8.6
18 5 -6 43.1 7.8
-18 5 6 39.7 7.9
18 -5 -6 31.3 9.4
-18 -5 6 35.7 7.7
18 5 -5 -4.4 3.8
-18 5 5 1.3 4.6
-18 -5 5 4.5 5
-18 -5 5 5.7 3.8
18 -5 -5 8.1 6.6
-18 5 4 88.29 9
18 5 -4 73.99 10.9
18 5 -4 75.49 9.5
-18 -5 4 49.5 7.6
18 -5 -4 77.19 13
-18 -5 4 76.59 7.5
-18 5 3 265.87 14.5
18 5 -3 242.48 17.8
18 5 -3 211.68 14.4
-18 -5 3 261.17 14.7
-18 -5 3 230.68 14.6
18 -5 -3 232.38 18.8
-18 5 2 2.5 3
18 5 -2 5.5 5.8
-18 -5 2 6.4 4.2
-18 -5 2 -0.4 4.4
18 -5 -2 8.5 5.8
18 5 -1 20.5 5.2
-18 5 1 28.2 4.2
18 5 -1 15.1 7.4
-18 -5 1 34.6 6.4
-18 -5 1 20.2 5.7
18 5 0 45.8 7.6
-18 5 0 51.79 4
18 5 0 58.09 10.9
-18 -5 0 62.09 9
-18 -5 0 60.89 8.1
18 5 1 6.2 4.8
18 5 1 17.5 8.2
-18 -5 -1 11.1 5.1
-18 -5 -1 12.1 6.8
18 5 2 34.4 9.9
-18 -5 -2 17.9 7.4
18 5 3 17.8 8.3
18 5 3 12.4 4.8
-18 -5 -3 19.7 5.8
18 5 4 -3.1 6.9
18 5 4 9 5.6
-18 -5 -4 2.7 4.8
18 5 5 11 6.3
18 5 5 13.4 8.7
18 5 6 162.28 17
18 5 7 -7.3 6.2
18 -5 7 11.2 6
18 5 8 -7.5 6.2
18 -5 8 3.5 6.1
18 -5 8 5.6 2.5
18 5 9 12.1 9
18 -5 9 37.6 7.7
18 -5 9 9.1 3.2
18 5 10 15.1 9.4
18 -5 10 0.3 6
-18 6 10 19.7 11.8
-18 -6 10 29.4 9.2
18 -6 -10 4.7 8.7
-18 6 9 119.09 16.7
18 -6 -9 92.99 16.5
-18 -6 9 118.89 14.1
-18 6 8 -6.9 6
18 -6 -8 2.9 7.5
-18 -6 8 2 6.2
-18 6 7 3.7 6.2
-18 -6 7 7.7 5.9
18 -6 -7 -0.3 8
-18 6 6 7 6.1
18 6 -6 -9.7 4.9
18 -6 -6 4 7.3
-18 -6 6 10.6 5.6
-18 -6 6 11.5 5.8
18 6 -5 4.2 5.8
-18 6 5 2.7 4.6
18 -6 -5 7.2 8.1
-18 -6 5 -3.8 4.1
18 6 -4 27.2 8.5
-18 6 4 10.4 5.2
18 -6 -4 33.8 10.1
-18 -6 4 19.2 6.7
-18 -6 4 21 5.6
18 6 -3 37 6.8
-18 6 3 54.99 7.3
18 6 -3 45.4 9.8
18 -6 -3 40 10.3
-18 -6 3 39.3 7.1
-18 -6 3 55.19 7.8
18 6 -2 27.7 9
-18 6 2 25.8 5.3
18 6 -2 17.8 5.6
-18 -6 2 8.8 5.6
18 -6 -2 36.3 10
-18 -6 2 23.4 6.8
-18 6 1 19.9 4.6
18 6 -1 9.8 7.9
18 6 -1 14.4 5.5
-18 -6 1 17.7 6
-18 -6 1 5 5.7
18 -6 -1 5.3 7.3
-18 6 0 -4.8 2.4
18 6 0 13.7 8.1
-18 6 0 -3 2.1
18 6 0 1.7 4.7
18 -6 0 12.7 6.9
-18 -6 0 3.6 5.4
18 6 1 164.58 13.1
18 6 1 195.78 18.9
-18 -6 -1 172.38 14.3
-18 -6 -1 175.58 14.6
18 6 2 6 7.8
18 6 2 0.5 4.2
-18 -6 -2 12.4 7.6
-18 -6 -2 6.4 5.8
18 6 3 54.69 8.9
18 6 3 72.89 14.1
-18 -6 -3 60.79 12.7
18 6 4 90.59 22.2
18 6 5 61.39 13.8
18 6 6 38.9 11
18 6 7 11.7 10
18 6 8 14.6 10.2
18 -6 8 9.1 6.6
18 6 9 -6.5 7.5
18 -6 9 2.3 6.2
18 6 10 27.4 11.2
18 -6 10 27.3 8.4
18 -6 10 28.2 5.6
-18 7 9 0.1 6.9
-18 -7 9 0.3 6.2
-18 7 8 3.9 6.8
-18 -7 8 1.6 6.1
-18 7 7 -1.2 5.7
-18 -7 7 -5.8 5.1
-18 7 6 3.5 5.1
18 7 -6 2.4 6.4
-18 -7 6 -1.1 4.8
-18 -7 6 2 5.9
18 7 -5 33.5 10
-18 7 5 45.1 8
-18 -7 5 33.4 8.2
-18 -7 5 50.59 10.2
18 7 -4 14.3 8
-18 7 4 38.2 7.9
-18 -7 4 21.4 7
-18 -7 4 12.9 7
18 7 -3 20 9
-18 7 3 25 6.6
-18 7 2 4.6 3.9
18 7 -2 3.4 7.8
-18 -7 2 -3 6.6
-18 -7 2 11.6 5.4
-18 7 1 357.06 18.6
18 7 -1 378.66 27.2
-18 7 1 439.56 21.6
-18 -7 1 332.47 22.6
-18 -7 1 398.66 22.8
-18 7 0 85.49 6.4
-18 7 0 94.39 8.3
18 7 0 82.19 14.9
-18 -7 0 99.09 11.9
-18 -7 0 48.6 11.1
18 7 1 73.39 15.2
-18 -7 -1 70.89 12.8
18 7 2 4.5 14
18 7 3 17.7 10.4
18 7 4 17.4 10.3
18 7 5 13.4 10.6
18 7 6 3.7 9.6
18 7 7 -0.2 8.9
18 7 8 9 9.3
18 7 9 8.2 10.8
18 -7 9 -3.1 6.2
-18 8 8 33.9 11.5
-18 -8 7 9.3 7.1
-18 8 6 2.2 5.1
18 8 -6 3.9 7.3
-18 -8 6 11.3 6.2
-18 8 5 16.2 7.5
18 8 -5 9.8 8.3
-18 -8 5 21.4 7.6
-18 -8 5 13.4 7.6
-18 8 4 31.9 7.8
18 8 -4 10.9 9.2
-18 -8 4 22.7 8.9
-18 -8 4 31.2 7.5
-18 8 3 15.1 6.7
18 8 -3 6.1 9.1
-18 8 3 24.5 6.6
-18 -8 3 12.9 6.7
-18 -8 3 36.3 10.4
-18 8 2 1.2 3.8
-18 8 2 -0.5 4.5
18 8 -2 -9.1 7.3
-18 -8 2 0.4 6.3
-18 8 1 194.88 12.5
18 8 -1 201.28 24.6
-18 8 1 264.47 15.1
-18 -8 1 216.98 18
18 8 0 109.99 18.6
-18 8 0 144.39 8.6
-18 -8 0 158.18 15.9
18 8 1 43.7 11.8
-18 -8 -1 6.2 8.2
18 8 2 54.29 14.7
18 8 3 11 9.4
18 8 4 23.8 12.1
18 8 5 10.1 10.9
18 8 6 172.78 26.2
18 8 7 6.9 10.1
-18 -9 7 -4.1 6.2
-18 -9 6 21.9 8.5
-18 -9 5 30.7 8.5
18 9 -4 -7.1 8.5
-18 9 4 7.5 5.9
-18 9 4 5.9 6.2
-18 -9 4 16.9 7.4
-18 9 3 0.9 5
18 9 -3 23.5 10.9
-18 9 3 -0.7 6.1
-18 -9 3 4.8 6.9
-18 9 2 31.2 7.5
18 9 -2 4 9.5
-18 9 2 29.7 6.3
-18 -9 2 48.3 10.8
-18 9 1 5.1 4.2
18 9 -1 3.1 10.3
-18 -9 1 -3.4 6.8
18 9 0 7.4 10.6
-18 9 0 20.7 5.3
-18 -9 0 10 8.5
18 9 1 61.59 15.8
-18 9 -1 63.49 5.3
-18 -9 -1 52.49 11.3
18 9 2 19.6 13
18 9 3 6.4 8.9
18 9 4 1.9 8.4
18 9 5 23.5 15.6
18 10 -5 7.2 11.8
-18 -10 5 -0.1 7.1
18 10 -4 -9 9.6
-18 10 4 10.3 8
-18 -10 4 -2.6 7.6
18 10 -3 0.3 9.1
-18 10 3 13.9 6.3
-18 -10 3 11.2 9
-18 10 2 107.39 10.9
18 10 -2 103.39 19.4
-18 -10 2 176.18 17.7
18 10 -1 5 9.2
-18 10 1 1.8 4.2
-18 -10 1 -0.3 8.3
18 10 0 2.6 10.5
-18 10 0 3.9 3.3
-18 -10 0 12.7 9.4
-18 10 -1 -2.7 1.7
18 10 1 -9.5 10.5
18 10 2 13.4 11
18 10 3 16.3 13
18 10 4 9 16.2
18 10 5 14 15.1
-18 11 2 -2.3 7.4
18 11 -2 -0.9 11.9
-18 -11 2 -5 12.2
18 11 -1 26.3 13.6
-18 11 0 -2.3 3.1
18 11 1 2.6 12
-19 0 12 9.9 9
-19 0 11 3.5 4.8
-19 0 10 58.69 10.3
-19 0 9 -0.5 5.1
-19 0 8 91.59 13.2
-19 0 7 0.2 5
19 0 -6 1.8 2.1
19 0 -6 1.6 4.9
-19 0 6 9.1 4.6
19 0 -5 -2.2 2.1
-19 0 5 -2.3 3.5
19 0 -5 -1.9 3.2
19 0 -4 1.4 3
19 0 -4 1.5 2.3
-19 0 4 4.3 3.7
19 0 -3 -1.3 2.6
19 0 -3 -1.8 2.3
-19 0 3 -1.6 2.9
19 0 -2 19.3 3.9
-19 0 2 17.2 3.9
19 0 -2 18.3 3.8
-19 0 1 1.6 2.7
19 0 -1 4.6 3.1
-19 0 0 166.08 9
19 0 0 154.68 8.6
19 0 0 126.09 9.7
19 0 1 -3.7 3
19 0 1 -2.8 1.9
-19 0 -1 0.8 2.8
19 0 2 32.6 5.4
-19 0 -2 35.4 5.5
19 0 2 33.2 4
19 0 3 1.8 3.3
19 0 3 0.4 2.4
19 0 4 305.47 17
19 0 5 -0.1 3.2
19 0 5 -1.9 4.6
19 0 6 1901.41 75.29
19 0 6 1936.81 77.49
19 0 7 5 4
19 0 7 6.1 5.5
19 0 8 42.3 7.1
19 0 8 33.9 8
19 0 9 -0.1 5.1
19 0 9 1.4 6.4
19 0 10 10.9 6.3
19 0 10 10.8 6.9
19 0 10 3.4 5.7
19 0 11 5.4 6.7
19 0 11 3.4 5.8
-19 1 12 8.6 7
-19 -1 12 3 8
-19 1 11 21.8 7.1
-19 -1 11 18.8 8
-19 1 10 19.1 8
-19 -1 10 10.5 6.6
-19 1 9 8.7 6.3
-19 -1 9 0.5 5.4
-19 1 8 8 6.6
19 1 -7 12.9 5.6
-19 1 7 13 5.1
-19 -1 7 9.6 5.2
19 -1 -7 16 2.4
19 -1 -7 18.3 6.5
19 -1 -7 14.7 4
19 1 -6 107.99 6.6
-19 1 6 109.69 10
19 1 -6 98.49 11.3
-19 -1 6 96.89 9.4
19 -1 -6 92.89 5.8
19 -1 -6 103.69 12.5
19 -1 -6 97.69 8.5
-19 1 5 16.9 5
19 1 -5 15 3.5
19 1 -5 12.6 4.6
19 -1 -5 15.7 2.9
-19 -1 5 12.4 4.4
19 -1 -5 11.8 5.3
19 1 -4 36.1 5.8
-19 1 4 28.6 5.2
19 1 -4 24.9 4.4
-19 -1 4 31 5.3
19 -1 -4 34.6 3.9
19 -1 -4 31.2 6.1
-19 1 3 4.4 3.2
19 1 -3 2.7 2.8
19 1 -3 9.3 3.4
19 -1 -3 9.2 2.8
-19 -1 3 8.1 3.7
19 -1 -3 11.5 3.9
19 1 -2 48.9 5.9
-19 1 2 32.7 4.7
19 1 -2 37.7 5.4
19 -1 -2 44.8 4.6
-19 -1 2 39.1 5.4
19 -1 -2 43.4 5.7
19 1 -1 179.28 11
-19 1 1 182.78 9.5
19 1 -1 160.78 9.9
19 -1 -1 165.68 9.5
-19 -1 1 176.08 9.8
-19 1 0 368.16 15.4
19 1 0 344.97 16.2
19 1 0 334.87 18
19 -1 0 354.86 16.6
-19 -1 0 372.76 16.7
-19 -1 0 345.97 16.3
19 -1 0 329.57 15.2
-19 1 -1 426.46 17.6
19 1 1 368.86 19.9
19 1 1 424.56 18.4
-19 -1 -1 408.26 18.8
19 -1 1 408.46 18.9
19 -1 1 412.16 17.1
-19 -1 -1 412.06 19.2
19 1 2 210.38 13.7
19 1 2 202.18 11.1
-19 1 -2 230.88 11.4
-19 -1 -2 224.68 12.2
19 -1 2 221.08 12.3
19 -1 2 219.28 10.1
-19 -1 -2 204.28 12.8
19 1 3 109.09 9.6
19 1 3 114.59 7.6
19 -1 3 111.49 6.4
19 -1 3 102.39 8.3
-19 -1 -3 111.99 8.4
19 1 4 48.8 5.7
19 1 4 47.3 8
19 -1 4 41.9 4.5
-19 -1 -4 53.99 6
19 -1 4 49 6.9
19 1 5 9.2 4.4
19 1 5 6.6 5.5
-19 -1 -5 1.9 3.3
19 -1 5 10.1 4.9
19 -1 5 8.4 3.1
19 1 6 1.6 4.4
19 1 6 8.5 5.9
-19 -1 -6 -1.2 3.7
19 -1 6 2.8 4.6
19 -1 6 6 3.7
19 1 7 94.89 9.2
19 1 7 84.39 10.4
19 -1 7 96.99 10.5
19 -1 7 86.39 8.6
-19 -1 -7 68.69 7.9
19 1 8 61.59 10.4
19 1 8 61.09 13.4
19 -1 8 52.79 9.6
19 -1 8 54.29 7.2
19 -1 8 44.3 7.7
19 1 9 -4.1 5.4
19 1 9 13.8 6
19 -1 9 11.2 4.4
19 -1 9 -0.3 6.1
19 -1 9 1.4 4.1
19 1 10 11.2 6.6
19 -1 10 11 6.4
19 -1 10 2.6 4.9
19 1 11 9.6 7.6
19 1 11 4.6 6.1
19 -1 11 1.6 6.3
19 -1 11 5.5 5.8
-19 2 12 8.1 7.1
-19 -2 12 2.4 7.4
-19 2 11 216.18 19.2
-19 -2 11 167.48 18.5
-19 2 10 -5.2 5.6
-19 -2 10 2.2 5.1
-19 2 9 97.99 10.9
-19 -2 9 86.29 12
19 -2 -8 85.19 8
-19 -2 8 70.59 10
-19 2 7 35 6.9
19 2 -7 46.7 8.5
-19 -2 7 41.8 8
19 -2 -7 52.89 7.6
19 2 -6 3.9 4.3
-19 2 6 5.6 4.9
19 2 -6 -3.1 2.6
19 -2 -6 -1.5 4
-19 -2 6 0.5 4.1
19 2 -5 3.1 4
19 2 -5 2.4 3.3
-19 2 5 7.3 4.3
19 -2 -5 7.3 5
-19 -2 5 6.4 4.2
19 2 -4 21.3 4.9
19 2 -4 30.1 5.4
-19 2 4 28.1 5.1
-19 -2 4 32 5.9
19 -2 -4 42.4 7
19 2 -3 -3.3 2.2
19 2 -3 5.2 3.9
-19 2 3 0.4 3.3
19 -2 -3 5.7 3.7
-19 -2 3 1.2 2.1
-19 -2 3 -2.3 2.8
-19 2 2 21.2 3.8
19 2 -2 6.6 3.9
19 2 -2 14.4 3.6
19 -2 -2 17.2 5
-19 -2 2 21.1 3.7
-19 -2 2 23.2 4.7
19 2 -1 101.79 11
-19 2 1 125.39 7.2
19 2 -1 122.29 8.5
-19 -2 1 111.89 8.5
19 -2 -1 121.99 8.1
-19 -2 1 119.49 7.9
19 2 0 42.6 5.6
-19 2 0 46.3 4.1
19 2 0 37.5 6.7
19 -2 0 50.79 4.7
-19 -2 0 49 6.2
-19 -2 0 44.2 5.2
19 2 1 -1 2.9
-19 2 -1 4.2 2.1
19 2 1 11.5 5.2
-19 -2 -1 5.2 3.9
19 -2 1 2.5 2.7
-19 -2 -1 6.3 3.2
19 -2 1 4 1.9
19 2 2 200.18 14.3
19 2 2 220.68 11.8
19 -2 2 198.68 11.7
19 -2 2 204.88 9
-19 -2 -2 219.38 12.3
-19 -2 -2 212.28 13.5
19 2 3 44.8 7.8
19 2 3 39.3 5.6
19 -2 3 43.4 5.9
19 -2 3 37.1 3.1
-19 -2 -3 43.9 6.2
19 2 4 46.1 8.2
19 2 4 51.39 6.5
19 -2 4 45.4 3.9
19 -2 4 60.29 7.1
-19 -2 -4 44.7 6.3
19 2 5 37.5 8
19 2 5 24.5 6.1
-19 -2 -5 40.9 8.7
19 -2 5 30.1 6.2
19 -2 5 38.5 4.2
19 2 6 3.4 4.9
19 2 6 12 6.1
19 -2 6 2.5 4.3
19 -2 6 10.8 3.8
19 -2 6 1.9 3.6
-19 -2 -6 9.1 4.5
19 2 7 25.8 8.2
19 -2 7 39.3 7.6
19 -2 7 28.6 6.1
19 -2 7 22.1 5
-19 -2 -7 28.3 5.8
19 2 8 86.09 10.4
19 -2 8 110.99 11.2
19 -2 8 105.79 9.3
19 -2 8 98.39 9.1
19 2 9 -5.9 5.8
19 -2 9 -0.1 5.7
19 -2 9 6.4 4.7
19 2 10 0.5 6.1
19 -2 10 1.6 4.6
19 -2 10 -5.1 5.5
19 2 11 11.4 8.7
19 -2 11 7.1 5.4
19 -2 11 6.5 7
-19 3 11 28.2 7.2
-19 -3 11 23.9 8.5
-19 3 10 20.3 6.7
-19 -3 10 33.9 9.2
19 -3 -10 19.4 3.2
-19 3 9 16.9 7.3
-19 -3 9 2.7 5.9
19 -3 -9 5.9 4.2
-19 3 8 30.1 8.9
-19 -3 8 21 6.7
-19 3 7 66.99 9.6
19 -3 -7 80.49 10.7
-19 -3 7 65.19 9.3
19 3 -6 33.7 7.4
19 3 -6 44 6.2
-19 3 6 33.2 6.5
19 -3 -6 31.1 7.4
-19 -3 6 33.7 7.3
-19 3 5 37.2 6.6
19 3 -5 52.99 7
19 3 -5 46.4 7.8
19 -3 -5 49.9 8.3
-19 -3 5 31.6 6.6
-19 -3 5 43.5 4.1
19 3 -4 2.4 3.8
-19 3 4 14.6 4.3
19 3 -4 11.5 5.1
-19 -3 4 6.2 2.7
-19 -3 4 9.1 4.9
19 3 -3 42.3 7.1
19 3 -3 55.59 7.2
-19 -3 3 41.8 6.1
-19 -3 3 45.7 5
-19 3 2 44.3 5
19 3 -2 34.2 8
19 3 -2 47.7 6.1
-19 -3 2 35.8 5.8
-19 -3 2 40.6 5
-19 3 1 23.4 3.4
19 3 -1 25.3 4.8
19 3 -1 29 6.5
-19 -3 1 16.1 5
-19 -3 1 30.9 5
19 3 0 3.3 3.2
-19 3 0 1.1 1.8
19 3 0 0.2 4.6
-19 -3 0 11.4 3.8
-19 -3 0 3.9 4
19 3 1 8.5 3.5
-19 3 -1 9.9 1.9
19 3 1 15.8 6.1
-19 -3 -1 7.6 4.6
-19 -3 -1 6.3 3.7
19 3 2 -0.7 3
19 3 2 -1.1 4.9
-19 -3 -2 -1.9 2.7
-19 -3 -2 -2.4 4.5
19 3 3 95.09 8.3
19 3 3 72.99 10.5
-19 -3 -3 85.59 8.3
19 3 4 67.39 10.7
19 3 4 76.29 8.4
19 -3 4 71.49 8
-19 -3 -4 103.59 14.6
19 3 5 11.2 6.3
19 3 5 1 4.5
19 -3 5 4.1 3.9
-19 -3 -5 8.4 4.6
19 3 6 115.09 14.2
19 3 6 139.69 11.9
19 -3 6 111.09 10.8
19 -3 6 113.59 6.9
-19 -3 -6 123.89 10.4
19 -3 6 121.89 8.2
19 3 7 4.3 6.6
19 3 7 16.4 6.2
19 -3 7 5.8 2.9
19 -3 7 5.9 5.1
19 -3 7 0.2 3.5
19 3 8 25.4 9.2
19 -3 8 37.1 5.5
19 3 9 10 7.2
19 -3 9 -7.2 4.9
19 -3 9 11.2 4.3
19 3 10 16.2 8.6
19 -3 10 11.2 6.8
19 -3 10 9.9 4.6
19 3 11 17.3 9
19 -3 11 22 8.3
19 -3 11 5.2 4.8
-19 4 11 21.3 7.1
-19 -4 11 26.4 8.5
19 -4 -11 8.9 3.5
-19 4 10 57.49 10.4
-19 -4 10 68.99 11.9
-19 4 9 75.69 11.9
19 -4 -9 81.59 11
-19 -4 9 73.89 11.2
-19 4 8 33.6 7.2
19 -4 -8 47 9.7
-19 -4 8 42.4 9.1
-19 4 7 123.89 12.3
-19 -4 7 97.19 12.1
19 -4 -7 109.59 12.9
19 4 -6 64.69 7.9
-19 4 6 86.79 9.8
19 -4 -6 68.49 11
-19 -4 6 72.89 9.8
-19 -4 6 72.89 5.5
19 4 -5 28.9 6.7
19 4 -5 29 6.4
-19 4 5 33.5 6.6
-19 -4 5 19.2 5.8
-19 -4 5 32.9 5.2
19 -4 -5 38.5 8.8
19 4 -4 -2.4 4.7
-19 4 4 1.3 3.7
19 4 -4 -2.2 3.6
-19 -4 4 1.8 2.8
-19 -4 4 0.9 4.1
19 -4 -4 2.4 5.7
19 4 -3 43.8 6.5
-19 4 3 40 5.8
19 4 -3 50.89 8.7
-19 -4 3 48.7 5.8
-19 -4 3 40.3 6.9
19 4 -2 61.59 9.8
19 4 -2 68.39 7.2
-19 4 2 69.69 6.2
-19 -4 2 60.59 7.9
-19 -4 2 71.09 7.1
19 4 -1 5.9 5.8
-19 4 1 4.1 2.5
19 4 -1 0.9 2.9
-19 -4 1 7.3 4
-19 -4 1 2 3.8
19 4 0 420.16 21.6
19 4 0 481.65 26.2
-19 4 0 467.85 18.3
-19 -4 0 486.35 22.9
-19 -4 0 457.75 23
19 4 1 5.9 3.6
19 4 1 6.8 6.4
-19 -4 -1 5.2 5
-19 -4 -1 8.4 4.4
19 4 2 -2.8 3.7
19 4 2 5.7 6.5
-19 -4 -2 10.5 4.1
-19 -4 -2 -0.5 4.7
19 4 3 251.87 19.8
19 4 3 274.27 15.9
19 4 4 57.39 11.8
19 4 4 77.79 12.6
-19 -4 -4 71.39 9.1
19 4 5 5.6 6.5
19 4 5 1.1 4.7
19 -4 5 -1.8 4.4
19 4 6 12.2 5.6
19 4 6 -1.3 5.8
19 -4 6 -0.3 4.8
19 4 7 60.79 12.3
19 -4 7 52.59 9
19 -4 7 50.49 4.1
19 4 8 25.6 10.4
19 -4 8 26.7 7.3
19 -4 8 26.2 3.8
19 4 9 0 7.4
19 -4 9 -5.4 2.9
19 -4 9 0 5.3
19 4 10 3.7 7.5
19 -4 10 15.7 4.6
19 -4 10 6.6 6.8
-19 5 11 72.19 17.8
-19 -5 11 66.99 12.7
-19 5 10 -4.7 5.8
19 -5 -10 -3.2 5.9
-19 -5 10 -5 6.2
-19 5 9 45.6 10.1
-19 -5 9 47.9 8.9
19 -5 -9 45.2 9.8
-19 5 8 4.8 5.9
-19 -5 8 1.3 5.8
19 -5 -8 3.4 6.3
-19 5 7 96.69 11
19 -5 -7 75.49 14
-19 -5 7 83.69 6.7
-19 -5 7 59.19 9
-19 5 6 5.5 5
19 5 -6 6.4 5.2
-19 -5 6 9.4 3.6
-19 -5 6 6.2 5.6
19 -5 -6 7.9 6.9
-19 5 5 2.2 4.1
19 5 -5 -8.4 5.2
-19 -5 5 3.7 3.7
-19 -5 5 1.7 5
19 -5 -5 9.8 7.6
-19 5 4 80.79 8.7
19 5 -4 60.69 9.1
19 5 -4 74.39 11
-19 -5 4 75.89 7.3
-19 -5 4 52.39 8.6
19 -5 -4 64.19 11.5
-19 5 3 1 3.5
19 5 -3 3.3 3.9
19 5 -3 -3.9 5.4
-19 -5 3 5.8 4
19 -5 -3 19.4 7.3
-19 -5 3 8 5.7
19 5 -2 108.49 13
19 5 -2 85.09 9.2
-19 5 2 109.89 8.1
19 -5 -2 86.99 12.8
-19 -5 2 105.29 9.6
-19 -5 2 113.19 9.9
-19 5 1 59.99 5.6
19 5 -1 52.69 10.5
-19 -5 1 76.39 8.4
-19 -5 1 58.99 8.3
19 5 0 458.65 27.4
-19 5 0 435.66 17.9
-19 -5 0 436.66 23.6
-19 -5 0 446.86 23.1
19 5 1 370.06 24.5
-19 -5 -1 365.56 21.5
-19 -5 -1 345.97 20.2
19 5 2 206.68 18.7
19 5 2 233.68 14.1
-19 -5 -2 200.68 14.3
-19 -5 -2 185.38 16.1
19 5 3 14.6 8.3
19 5 3 46.6 7.8
-19 -5 -3 24.6 7
19 5 4 4.6 7.9
19 5 4 -3.6 4.7
-19 -5 -4 2.6 5
19 5 5 22.5 10.2
19 5 6 9.7 8.4
19 5 7 2.2 7.6
19 -5 7 1.7 5.4
19 5 8 7.4 8.5
19 -5 8 10.2 6.5
19 5 9 -9.5 7.4
19 -5 9 -6.2 5.5
19 5 10 -10.5 6.5
19 -5 10 0.5 3.2
19 -5 10 5.5 6.2
-19 6 10 -4.5 6
-19 -6 10 3.7 7
19 -6 -10 -14.5 8.3
-19 6 9 25.5 8.9
-19 -6 9 7.2 6.8
19 -6 -9 1.7 8.2
-19 6 8 2 5.5
-19 -6 8 0.6 3.5
-19 -6 8 -2 4.7
19 -6 -8 2.9 7.8
-19 6 7 15 8.4
-19 -6 7 23.5 7.3
-19 -6 7 17 5.7
19 -6 -7 10.6 10.1
-19 6 6 139.29 13.6
19 6 -6 146.09 14.2
-19 -6 6 139.89 12.7
19 -6 -6 138.49 18.7
-19 -6 6 132.59 12.7
-19 6 5 47.8 7.9
19 6 -5 32.4 8.9
19 -6 -5 25.7 10.5
-19 -6 5 30.6 8.3
-19 -6 5 60.99 8.8
19 6 -4 92.59 13.4
-19 6 4 103.19 10.4
-19 -6 4 99.49 9.5
-19 -6 4 79.79 10.6
19 -6 -4 80.79 14.4
-19 6 3 0.1 3.9
19 6 -3 -0.6 6.4
19 6 -3 -0.5 6.4
19 -6 -3 6.9 6.9
-19 -6 3 -3.2 4.7
-19 -6 3 0.7 4.1
-19 6 2 9.6 4.1
19 6 -2 4.3 4.5
19 6 -2 5.6 6.9
-19 -6 2 11.6 6.5
-19 -6 2 12 5.2
19 -6 -2 2.4 7.6
-19 6 1 5.3 3.3
19 6 -1 2.5 4.1
19 6 -1 -5.4 6.7
-19 -6 1 5 5
19 -6 -1 -5.8 6.3
-19 -6 1 3.5 5.6
19 6 0 198.38 18.8
19 6 0 171.98 13
-19 6 0 182.18 9.3
-19 6 0 190.88 9.7
-19 -6 0 167.88 14
-19 -6 0 184.28 15.1
19 6 1 135.09 12.2
19 6 1 170.88 18.1
-19 -6 -1 169.08 14.7
-19 -6 -1 180.48 14.6
19 6 2 92.49 11.3
19 6 2 142.69 17.4
-19 -6 -2 113.89 13
-19 -6 -2 128.99 12.6
19 6 3 57.49 13.2
19 6 4 -0.6 6.8
19 6 5 -7.4 6.5
19 6 6 13.3 9.6
19 6 7 25.9 11.6
19 6 8 -1.6 7.6
19 -6 8 -4.1 6.2
19 6 9 3.9 7.7
19 -6 9 7.3 6.2
-19 7 9 4.9 9
-19 -7 9 4.5 7
-19 7 8 4.8 9
-19 -7 8 3.8 6.2
-19 7 7 15.9 7.1
-19 -7 7 34.3 8.3
-19 7 6 0.2 4.8
19 7 -6 6.4 6.8
-19 -7 6 0.8 5.4
-19 -7 6 6.6 6.2
-19 7 5 18.5 6.7
19 7 -5 15.7 7.8
-19 -7 5 11.1 5.3
-19 -7 5 10.7 6.7
19 7 -4 10.1 7.8
-19 7 4 7.1 5
-19 -7 4 18.7 6.1
-19 -7 4 8.2 6.5
19 7 -3 42.1 11.1
-19 7 3 49.4 8.4
-19 -7 3 31.5 7.9
-19 -7 3 43.5 8.1
-19 7 2 46.3 6.6
19 7 -2 29.6 10
-19 -7 2 37.2 7.5
-19 -7 2 14.5 11.1
-19 7 1 259.47 14.1
-19 7 1 283.67 15.9
19 7 -1 227.88 21.8
-19 -7 1 252.27 18.5
-19 7 0 644.54 26.7
19 7 0 619.74 39
-19 7 0 708.73 29.2
-19 -7 0 703.63 34.6
19 7 1 6.8 9
19 7 2 11.4 10.1
-19 -7 -2 -4 5.7
19 7 3 23 11.7
19 7 4 14.2 9.4
19 7 5 12.9 10.4
19 7 6 -2 8.4
19 7 7 7.8 9.3
19 7 8 11.3 10.1
19 -7 8 -2.8 6.1
19 -7 9 6.5 7.4
-19 8 8 -5.2 8.5
-19 -8 8 1.5 6.6
-19 8 7 21 10.7
-19 -8 7 16.9 8.1
-19 8 6 -1.5 5
19 8 -6 3 7.9
-19 -8 6 1.7 6.2
19 8 -5 54.49 12.7
-19 8 5 67.39 11.4
-19 -8 5 66.29 11.5
-19 8 4 -0.2 4.7
19 8 -4 1.1 7.2
-19 -8 4 -0.1 5.5
-19 -8 4 5.8 6.3
19 8 -3 21.1 10.1
-19 8 3 45.4 9.7
-19 -8 3 51.09 13.3
-19 -8 3 8.9 6.8
19 8 -2 -13.5 6.4
-19 8 2 -7 4.1
-19 -8 2 -2.2 6.3
-19 8 1 49.6 6.8
19 8 -1 22 16.2
-19 -8 1 32.3 8.6
19 8 0 230.48 23.1
-19 8 0 175.38 9.6
-19 -8 0 185.18 16.8
19 8 1 105.19 16.8
-19 -8 -1 102.19 13.7
19 8 2 16.1 11.4
19 8 3 3.1 9.1
19 8 4 -8.2 7.3
19 8 5 10.7 11.1
19 8 6 12.7 10.1
19 8 7 19.4 9.9
-19 9 7 -8.2 6.1
-19 -9 7 -3.8 7.2
-19 -9 6 20.5 8.7
-19 -9 5 40.7 9.9
-19 9 4 1.7 5.9
19 9 -4 3.3 8.9
-19 9 4 12.2 6.5
-19 -9 4 -2.3 6.5
-19 9 3 4.5 5
19 9 -3 8.1 10.1
-19 -9 3 7.1 7.1
19 9 -2 89.89 17.1
-19 9 2 71.69 8.7
-19 -9 2 74.69 12.7
19 9 -1 106.29 19.6
-19 9 1 85.79 8
-19 -9 1 95.19 14
19 9 0 13.4 12.3
-19 9 0 18.1 3.7
-19 -9 0 9.3 7.6
19 9 1 6.4 9.8
-19 -9 -1 13.1 8.8
19 9 2 23.2 14.2
19 9 3 37.7 14
19 9 4 11.4 11.7
19 9 5 40.8 14.9
19 9 6 2.6 11.5
19 10 -5 -4.4 11
-19 -10 5 4.1 8.2
19 10 -4 2.9 9.7
-19 -10 4 25.2 8.7
-19 10 3 9.2 6.4
19 10 -3 9.9 10.1
-19 -10 3 -2.7 7.7
-19 10 2 24.1 6.1
19 10 -2 -5.5 10.3
-19 -10 2 22.2 9.6
19 10 -1 17.3 12.3
-19 10 1 43.4 6
-19 -10 1 52.79 11.1
19 10 0 4.4 10.1
-19 -10 0 9.9 9.3
19 10 1 36.3 15.4
19 10 2 2.8 10.8
19 10 3 2.3 11.8
19 10 4 10.2 10.6
-19 -11 1 12.9 10.4
-20 0 12 32.6 11.3
-20 0 11 3.3 5.2
-20 0 10 31.7 7.5
-20 0 9 -3.2 4.3
-20 0 8 154.08 15.5
-20 0 7 2.8 5
20 0 -7 -7.7 4.5
20 0 -6 343.37 22.1
20 0 -6 340.37 14.8
-20 0 6 330.67 18.9
20 0 -5 5.6 2.8
20 0 -5 6.2 4.5
-20 0 5 2.4 3.9
20 0 -4 197.88 13.2
20 0 -4 207.58 10.7
-20 0 4 223.78 12.7
20 0 -3 2.5 2.5
-20 0 3 3.1 3.3
20 0 -3 -2.2 2.9
20 0 -2 53.99 5.8
20 0 -2 56.49 5.5
-20 0 2 45.7 5.8
20 0 -1 2.1 3.2
20 0 -1 1.9 2.4
-20 0 1 -1.4 2.9
-20 0 0 1.4 2.9
20 0 0 3.5 2.6
20 0 0 -4.1 3
20 0 1 -1 2.8
-20 0 -1 -5.8 2.5
20 0 1 2.1 2.3
-20 0 -2 129.19 9.2
20 0 2 141.69 10
20 0 2 132.49 7.8
20 0 3 3.3 2.7
20 0 3 0.8 3.7
20 0 4 28 6.4
20 0 4 31.7 4.5
20 0 5 -6 2.9
20 0 5 -3.1 4.4
20 0 6 75.69 10.7
20 0 6 89.89 9
20 0 7 4.5 4.3
20 0 7 -0.9 5.4
20 0 8 -5 4.1
20 0 8 3.3 6.2
20 0 9 5.9 4.9
20 0 9 -7.4 4.8
20 0 10 20.9 7.5
20 0 10 6.6 5.7
20 0 10 13.5 7.1
20 0 11 9.5 6.2
20 0 11 2.3 6.2
-20 1 12 16.7 8.1
-20 -1 12 11.1 10.6
-20 1 11 -2 5.9
-20 -1 11 2.4 6.6
-20 1 10 72.69 11.2
-20 -1 10 58.99 10.6
-20 1 9 47.9 9.9
-20 -1 9 62.69 10.5
-20 -1 8 -2.3 4.8
20 1 -7 -11.7 4.3
-20 1 7 -1.2 4.6
-20 -1 7 0 4.5
20 -1 -7 2.6 1.9
20 -1 -7 -3.3 4.9
20 -1 -7 0.3 3.6
20 1 -6 256.87 16.6
-20 1 6 243.88 15.2
20 1 -6 254.97 12.3
20 -1 -6 277.57 14.9
-20 -1 6 240.38 15.9
20 -1 -6 247.38 11.4
20 1 -5 -5.9 2.7
-20 1 5 1.8 3.8
20 1 -5 1.2 3
20 -1 -5 6.3 2.4
20 -1 -5 5 4.9
-20 -1 5 1 4.2
-20 1 4 8.2 4
20 1 -4 16.4 4.2
20 1 -4 14.2 4.6
-20 -1 4 17.5 5
20 -1 -4 13.4 4.6
20 -1 -4 14.8 3.1
20 1 -3 79.39 7.2
-20 1 3 78.79 7
20 1 -3 77.89 7.3
-20 -1 3 89.29 7.2
20 -1 -3 87.99 6.2
20 -1 -3 83.89 7.8
20 1 -2 44.1 5.9
-20 1 2 35.8 5
20 -1 -2 36.2 5.4
-20 -1 2 35.3 5.3
20 -1 -2 39.2 5.5
-20 1 1 6.8 2.8
20 1 -1 7.4 3.1
20 1 -1 10.4 4.1
20 -1 -1 4.5 2.8
20 -1 -1 5.1 3.5
-20 -1 1 3 3.9
-20 -1 1 6.7 2.9
-20 1 0 7.6 2.9
20 1 0 5.5 3
20 1 0 11.6 4.3
-20 -1 0 8.8 3.9
-20 -1 0 6 2.8
20 -1 0 9.1 2.6
20 -1 0 11.7 3.7
20 1 1 361.06 16.4
20 1 1 341.47 18.4
-20 1 -1 346.17 15.6
20 -1 1 355.06 17.1
-20 -1 -1 351.36 17.3
20 -1 1 354.76 15.2
-20 -1 -1 363.16 17.1
20 1 2 6.2 4
-20 1 -2 3.8 3
20 1 2 5 2.7
20 -1 2 -2 2.8
-20 -1 -2 0.3 3.8
-20 -1 -2 -0.8 2.7
20 -1 2 0.2 1.8
20 1 3 77.69 8.5
20 1 3 81.99 6.9
20 -1 3 84.09 5.6
20 -1 3 85.59 8.1
-20 -1 -3 88.89 7.6
20 1 4 3 5
20 1 4 7.5 3.5
20 -1 4 -3.3 3.8
20 -1 4 -3.3 2
-20 -1 -4 9 3.5
20 1 5 58.79 9.5
20 1 5 71.89 7.6
20 -1 5 71.89 8.5
-20 -1 -5 58.09 10.3
20 -1 5 50.89 5.7
20 1 6 56.69 9.6
20 1 6 47.7 6.9
20 -1 6 49.3 6.2
-20 -1 -6 42.4 6.7
20 -1 6 50.09 8.2
20 1 7 19.7 6.7
20 1 7 22.3 6.5
20 -1 7 20.2 6.8
20 -1 7 20.1 5.7
20 1 8 19.3 8.9
20 -1 8 18.6 8
20 -1 8 13.4 5.3
20 -1 8 12.6 6.1
20 1 9 21.8 6.8
20 1 9 15.6 7.1
20 -1 9 24.7 7.8
20 -1 9 46.9 9
20 -1 9 34.3 7.2
20 1 10 4.2 6.4
20 -1 10 11.5 5.6
20 -1 10 6 6.3
20 1 11 118.89 16.2
20 1 11 88.09 12.8
20 -1 11 97.69 13.9
20 -1 11 108.79 12.5
-20 2 12 -11 6.2
-20 -2 12 -16.9 5.6
-20 2 11 -4 6.6
-20 -2 11 0 6.8
-20 2 10 5.7 6.1
-20 -2 10 8.6 6.2
-20 2 9 68.29 11.2
-20 -2 9 73.79 11.7
-20 2 8 23.3 7.8
20 -2 -8 27.3 5.3
20 -2 -8 25.9 3.2
-20 -2 8 13.3 6.3
-20 2 7 114.09 11.2
-20 -2 7 93.29 11.1
20 -2 -7 115.49 11.2
20 2 -6 9.1 3.4
-20 2 6 2.8 4.3
20 2 -6 1.2 4
-20 -2 6 7.9 4.6
20 -2 -6 -4.3 4.1
20 2 -5 130.49 15.6
20 2 -5 150.98 10.2
-20 2 5 141.99 10.9
-20 -2 5 151.48 11.6
20 2 -4 -1.6 3.5
20 2 -4 -1.5 2.9
-20 2 4 -1.3 3.1
-20 -2 4 0.5 3.9
20 -2 -4 -1.6 3.4
-20 2 3 2.2 2.7
20 2 -3 -1.8 2.7
20 2 -3 -3.9 3.4
20 -2 -3 6.6 4.1
-20 -2 3 2.4 2.7
-20 -2 3 4.5 3.5
-20 2 2 6.7 3
20 2 -2 3.1 4.3
20 2 -2 1.5 3.3
-20 -2 2 10.6 3.1
20 -2 -2 7.6 4.1
-20 -2 2 8 4.2
20 2 -1 59.49 7.8
-20 2 1 52.49 4.9
20 2 -1 55.09 6.1
20 -2 -1 48 5.5
-20 -2 1 54.29 5.5
-20 -2 1 60.49 6.7
20 2 0 660.23 28
20 2 0 630.54 30.1
-20 2 0 652.03 25.8
-20 -2 0 655.73 28.4
20 -2 0 642.54 26.5
-20 -2 0 685.73 28
20 2 1 2.3 4.7
20 2 1 4.3 3.2
-20 2 -1 2.8 2.2
20 -2 1 0 1.7
-20 -2 -1 -0.6 2.3
-20 -2 -1 3 4
20 -2 1 0.9 3
20 2 2 147.09 12.3
20 2 2 155.48 9.7
-20 -2 -2 149.59 11.3
20 -2 2 146.69 9.7
20 -2 2 149.79 7
-20 -2 -2 129.09 9.3
20 2 3 5.9 5.3
20 2 3 0.1 3.2
-20 -2 -3 3.9 3.5
20 -2 3 3 3.4
20 -2 3 0.9 1.5
20 2 4 61.89 9.6
20 2 4 67.19 7.1
-20 -2 -4 69.49 7.4
20 -2 4 67.69 7.2
20 -2 4 61.59 4.4
20 2 5 321.07 17.4
20 2 5 286.77 19.1
20 -2 5 299.27 13.4
-20 -2 -5 285.37 16.6
20 -2 5 298.87 17.2
20 2 6 44 7.1
20 2 6 25.7 8.1
-20 -2 -6 38.7 6.7
20 -2 6 41 5.4
20 -2 6 21.9 6.7
20 -2 6 31.5 5
20 2 7 66.39 11
20 2 7 51.79 10.1
20 -2 7 48 8.2
20 -2 7 38.4 6
20 -2 7 48.5 8
20 2 8 94.39 10.5
20 2 8 92.59 13.5
20 -2 8 101.99 9.3
20 -2 8 93.19 10.7
20 2 9 6.1 7.1
20 -2 9 3.9 5.8
20 -2 9 8.5 4.5
20 -2 9 -6.1 4.5
20 2 10 69.29 12.6
20 -2 10 95.49 12.5
20 -2 10 58.79 8.5
20 2 11 2.7 7
20 -2 11 6 5.2
20 -2 11 11.3 7
-20 3 11 40 9.7
-20 -3 11 27.5 8.3
-20 3 10 16.2 7.2
-20 -3 10 9.2 8.2
-20 3 9 2 6
-20 -3 9 5.3 6.6
20 -3 -9 -4.3 3.8
-20 3 8 194.28 16.3
-20 -3 8 187.28 14.7
-20 3 7 194.98 14.9
20 -3 -7 181.18 15.3
-20 3 6 130.29 10.8
20 3 -6 118.79 9.6
20 3 -6 116.79 11.5
20 -3 -6 128.99 12.6
-20 -3 6 91.99 10.8
20 3 -5 47.1 7.3
-20 3 5 34.5 6.4
-20 -3 5 38.9 6.8
20 -3 -5 38.8 7.9
-20 -3 5 44 4.4
20 3 -4 5.2 3.9
20 3 -4 5.8 4.7
-20 3 4 6.9 3.7
-20 -3 4 6.9 4.7
20 3 -3 8.7 4.8
20 3 -3 9.9 4
-20 3 3 16.2 4
-20 -3 3 15.1 5
-20 -3 3 12.8 3.4
20 3 -2 5.7 2.9
-20 3 2 -6.2 1.9
20 3 -2 1.4 4.1
-20 -3 2 2.1 4.1
-20 -3 2 -6.1 2.3
20 3 -1 96.59 8.3
20 3 -1 109.59 10.8
-20 3 1 115.69 6.8
-20 -3 1 118.49 8.9
-20 -3 1 113.89 8.2
20 3 0 2.1 4.8
-20 3 0 0.7 1.8
20 3 0 -0.1 2.9
-20 -3 0 0.5 3.4
-20 -3 0 0.2 3.1
-20 3 -1 25.4 2.8
20 3 1 25.6 4.9
20 3 1 21.7 6.6
-20 -3 -1 14.9 5.5
-20 -3 -1 32.7 5.2
20 3 2 103.59 8.8
20 3 2 101.49 11.7
-20 -3 -2 121.29 9.4
-20 -3 -2 102.19 10.3
20 3 3 345.97 21
20 3 3 325.67 16.6
20 -3 3 296.87 16.3
-20 -3 -3 270.57 16.5
20 3 4 8.3 4.6
20 3 4 8.7 6.8
20 -3 4 3.6 4.1
-20 -3 -4 2.6 4.1
20 3 5 19.2 5.3
20 3 5 24.3 8.8
-20 -3 -5 11 4.6
20 -3 5 24.3 6.2
20 3 6 -4 6.3
20 3 6 -4.4 4.3
-20 -3 -6 -0.5 5.2
20 -3 6 11.1 5.6
20 -3 6 -3 2.1
20 -3 6 3.7 2.6
20 3 7 10.3 12.3
20 3 7 1.5 5.4
20 -3 7 -0.4 2.6
20 -3 7 -2 4.9
20 3 8 4.7 6.8
20 -3 8 0.7 3.3
20 -3 8 2.8 5.6
20 3 9 -4 6.4
20 -3 9 1.1 5.9
20 -3 9 0.9 3.5
20 3 10 5.8 7.3
20 -3 10 6.9 4.2
20 -3 10 -0.3 5.8
20 3 11 1.1 8.4
20 -3 11 22.5 6
20 -3 11 14 7.8
20 -4 -11 1.2 2.7
-20 4 10 20.4 7.6
-20 -4 10 32 9.6
20 -4 -10 25.5 6
-20 4 9 54.29 10.7
-20 -4 9 43.9 10
20 -4 -9 54.09 8.8
-20 4 8 3.2 5.2
-20 -4 8 -5.8 5
20 -4 -8 -4.6 5
-20 4 7 41.8 8.2
20 -4 -7 42.2 9.5
-20 -4 7 56.19 9.6
-20 4 6 16.1 5.5
20 4 -6 19.1 5.7
-20 -4 6 6.7 5.2
20 -4 -6 11.4 6.9
-20 -4 6 14.9 3.1
-20 4 5 11 5
20 4 -5 11.6 4.9
20 4 -5 5.1 5.1
20 -4 -5 6.5 6.7
-20 -4 5 6.7 5.5
20 4 -4 2.7 4.2
-20 4 4 4.4 3.8
-20 -4 4 3.6 4.3
-20 -4 4 6.9 3.4
20 -4 -4 8.5 6.6
-20 4 3 1.2 3.4
20 4 -3 -1.9 4.8
-20 -4 3 3.2 3.1
-20 -4 3 2.5 4.4
-20 4 2 55.49 5.9
20 4 -2 58.59 9.2
20 4 -2 56.69 7.5
-20 -4 2 47.9 7.7
-20 -4 2 59.59 6.8
-20 4 1 39.2 4.2
20 4 -1 23.2 5.3
20 4 -1 32.1 7.6
-20 -4 1 33 6.3
-20 -4 1 40.1 5.8
20 4 0 62.19 6.8
-20 4 0 57.69 4.1
20 4 0 67.49 10.5
-20 -4 0 74.99 7.8
-20 -4 0 50.99 7.9
20 4 1 41 9.4
20 4 1 27 5.4
-20 -4 -1 33 7.6
-20 -4 -1 34 6
20 4 2 5.9 3.6
20 4 2 4.2 6.4
-20 -4 -2 3.9 3.8
-20 -4 -2 -4.1 5
20 4 3 126.99 13.8
20 4 3 136.99 10.8
-20 -4 -3 121.09 10.8
20 4 4 4.2 4.8
20 4 4 19.4 8
-20 -4 -4 12.1 5.2
20 4 5 21.3 6.1
20 4 5 26.1 9.3
20 -4 5 19.2 6.2
-20 -4 -5 24.7 9.3
20 4 6 -1.2 5.3
20 -4 6 0.8 4.8
20 4 7 19.4 9.1
20 -4 7 15.5 6.1
20 4 8 39.6 11
20 -4 8 53.29 4.9
20 -4 8 52.39 9.5
20 4 9 9 7.9
20 -4 9 2 5.4
20 -4 9 -3.8 2.8
20 4 10 16.4 8.6
20 -4 10 6.4 4.8
20 -4 10 -0.6 6.5
-20 5 10 2.2 7.3
20 -5 -10 6.7 6.6
-20 -5 10 9.4 8.6
-20 5 9 9.9 7.5
20 -5 -9 -0.1 6.6
-20 -5 9 3.8 6.2
-20 5 8 40.2 8.7
-20 -5 8 40.2 9
20 -5 -8 47.1 10.2
-20 5 7 8.9 5.5
20 -5 -7 -2.1 6.7
-20 -5 7 3.1 3.1
-20 -5 7 3.7 5.4
20 5 -6 2.6 5
-20 5 6 -4.9 4.2
-20 -5 6 -0.6 5.3
-20 -5 6 0.4 3
20 -5 -6 -6.3 6.8
20 5 -5 5.5 5.8
-20 5 5 8.9 4.9
-20 -5 5 2.9 4.7
-20 -5 5 12.2 4.1
20 -5 -5 9.3 7.2
-20 5 4 50.19 7.2
20 5 -4 49.6 9.5
20 5 -4 37.4 7
20 -5 -4 46.4 10.9
-20 -5 4 35 7.1
-20 -5 4 46.9 6.3
-20 5 3 294.37 15
20 5 -3 217.18 18.1
20 5 -3 232.78 15.1
-20 -5 3 244.88 14.7
20 -5 -3 221.28 18.5
-20 -5 3 220.28 15.4
-20 5 2 376.66 16.8
20 5 -2 333.37 22.4
20 5 -2 316.07 18.4
-20 -5 2 316.37 17.9
-20 -5 2 329.67 18.7
-20 5 1 22 3.6
20 5 -1 27.7 8.2
20 5 -1 13 4.8
-20 -5 1 29.9 6.2
-20 -5 1 13 5.8
20 5 0 153.08 16
20 5 0 153.98 11.9
-20 5 0 159.38 7.7
-20 -5 0 179.38 12.7
-20 -5 0 166.18 13.8
20 5 1 134.89 11
20 5 1 142.99 15.5
-20 -5 -1 100.89 12.4
20 5 2 141.29 10.8
20 5 2 153.48 15.8
-20 -5 -2 134.49 13.3
-20 -5 -2 140.19 11.7
20 5 3 70.79 13.2
20 5 3 56.19 7.7
-20 -5 -3 57.49 9.4
20 5 4 102.59 15
20 5 4 103.99 11.6
20 5 5 108.39 16.8
20 5 6 1.8 8.2
20 -5 6 0.4 5
20 5 7 5 8.6
20 -5 7 1.1 5.2
20 5 8 21.8 10.4
20 -5 8 13 7.1
20 5 9 15.9 9.8
20 -5 9 -0.8 5.5
20 -5 9 4.3 2.6
20 5 10 1.5 7.7
20 -5 10 2 7
20 -5 10 5.4 3.5
-20 6 10 10 7.7
20 -6 -10 -1.5 8.5
-20 6 9 4.2 6.4
20 -6 -9 1.1 7.8
-20 -6 9 -5.6 5.6
-20 6 8 -0.5 5.8
-20 -6 8 -3.1 5.8
-20 -6 8 -0.9 3.3
20 -6 -8 -11.9 6.9
-20 6 7 59.19 12.2
-20 -6 7 53.49 9.3
-20 -6 7 72.99 8.4
20 -6 -7 44.6 10.6
20 6 -6 11.8 7.2
-20 6 6 29.4 7
20 -6 -6 48.2 11.5
-20 -6 6 8.2 6.1
-20 -6 6 28.6 6.5
20 6 -5 16.5 6.9
-20 6 5 3.9 5.2
-20 -6 5 3.1 4.7
-20 -6 5 1.9 5.4
20 -6 -5 7.4 7.4
20 6 -4 80.89 12.4
-20 6 4 91.69 10.5
20 -6 -4 105.09 15.1
-20 -6 4 67.69 13.8
-20 -6 4 103.79 9.6
-20 6 3 20 5.6
20 6 -3 16.4 8
20 -6 -3 16.5 8.5
-20 -6 3 17.2 6.6
-20 -6 3 24.7 6.1
20 6 -2 64.59 12.4
-20 6 2 88.79 8.7
20 6 -2 44 8.1
-20 -6 2 60.89 8.6
-20 -6 2 59.69 9.8
20 -6 -2 42.9 11
-20 6 1 22.2 4.3
20 6 -1 4.6 4.5
20 6 -1 16.9 8.5
-20 -6 1 17.3 6.4
20 -6 -1 12 8
-20 6 0 442.36 18.2
20 6 0 378.66 22.2
-20 6 0 441.96 18
20 6 0 470.05 30
-20 -6 0 450.15 24.9
-20 -6 0 446.06 24.4
20 6 1 28.2 7
20 6 1 30.2 10.4
-20 -6 -1 29.6 7.4
-20 -6 -1 26.3 8.4
20 6 2 102.09 16.1
-20 -6 -2 76.89 11.7
-20 -6 -2 83.59 12.4
20 6 3 107.49 24.6
20 6 4 35.3 11.4
20 6 5 22.2 10.7
20 6 6 24.8 11.6
20 6 7 6.5 8.5
20 -6 7 2.3 5.5
20 6 8 70.29 14.9
20 -6 8 30.1 8.3
20 6 9 10.3 9.6
20 -6 9 3.1 6.8
-20 -7 9 18.2 9
-20 7 8 12.8 7.8
-20 -7 8 -9.2 6.3
-20 7 7 3.7 5.6
-20 -7 7 -0.1 5.7
20 7 -6 5.9 7.5
-20 7 6 3 5.4
-20 -7 6 3 5.2
-20 -7 6 0.6 5.7
20 7 -5 17.2 8.4
-20 7 5 20.6 7.7
-20 -7 5 20.4 6.6
-20 -7 5 26.3 6.9
-20 7 4 110.09 10.6
20 7 -4 96.49 14.2
-20 -7 4 92.89 12.1
-20 -7 4 89.19 13.8
-20 7 3 134.49 12
20 7 -3 101.99 15.1
-20 -7 3 77.99 11
-20 -7 3 117.69 12.2
20 7 -2 54.19 13
-20 7 2 75.19 11.6
-20 -7 2 69.79 9.4
-20 -7 2 66.69 10.7
20 7 -1 2.9 8.7
-20 7 1 5.7 3.8
-20 -7 1 6.1 6.7
-20 -7 1 -13 6.5
20 7 0 71.09 13.8
-20 7 0 54.09 4.9
-20 7 0 68.19 6
-20 -7 0 21.4 10.9
20 7 1 1.3 12.3
-20 -7 -1 9.2 7.5
20 7 2 83.19 15.8
-20 -7 -2 102.19 14
20 7 3 19.8 10.8
20 7 4 26.6 10.3
20 7 5 13.1 10.5
20 7 6 4.2 8.7
20 7 7 21.4 11.5
20 7 8 -0.5 9.5
20 -7 8 3.1 6.5
-20 -8 8 14.9 9.7
-20 8 7 24.1 9.7
-20 -8 7 6 7.2
-20 8 6 3.9 6.3
20 8 -6 13.7 9.6
-20 -8 6 12.9 7.9
-20 8 5 16.8 7.2
20 8 -5 17.9 9.6
-20 -8 5 12.8 8.1
-20 -8 5 6.4 6.8
20 8 -4 -1.5 6.8
-20 -8 4 8.5 6.6
-20 -8 4 4.1 6.8
-20 8 3 47.9 9.8
20 8 -3 40.1 12.2
-20 -8 3 30.1 8.1
-20 8 2 12.6 5
20 8 -2 18.1 11.5
-20 -8 2 15.2 7.9
20 8 -1 23.2 11.1
-20 -8 1 2.6 6.1
20 8 0 52.59 13.9
-20 8 0 49.8 4.8
-20 -8 0 26.5 9.4
20 8 1 34.3 12.9
-20 -8 -1 17.8 8.5
20 8 2 0.2 10.5
20 8 3 9.1 10.3
20 8 4 -6.9 7.8
20 8 5 12.1 10.6
20 8 6 -11.7 7.1
-20 9 7 1 5.9
20 9 -6 34.9 12
-20 -9 6 49 10.8
20 9 -5 -2.1 9.3
-20 -9 5 2.1 6.8
-20 9 4 3 5.6
-20 9 4 5.8 6.3
20 9 -4 -6.5 8.3
-20 -9 4 6 6.7
-20 9 3 3.1 4.9
20 9 -3 -3.1 8.6
-20 -9 3 9.2 7.2
20 9 -2 8.4 10.4
-20 9 2 14.1 5.4
-20 -9 2 8.4 7.6
20 9 -1 -22.5 8
-20 9 1 1.7 3.7
-20 -9 1 2.6 8.2
-20 9 0 23.6 3.8
20 9 0 53.59 14.8
-20 -9 0 23.2 8.7
20 9 1 20.6 12
-20 -9 -1 -3.7 7.8
20 9 2 1.1 10.5
20 9 3 22.7 13
20 9 4 18.6 12.4
20 9 5 -5.8 8.6
20 9 6 1.9 10.8
20 10 -5 -17.3 9.4
-20 -10 5 10.7 9.9
20 10 -4 7.3 9.9
-20 -10 4 -3.3 6.3
-20 10 3 -0.1 6
20 10 -3 -8.6 8.8
-20 -10 3 -3.3 7.3
-20 10 2 1.9 5
20 10 -2 -0.6 11.6
-20 -10 2 -1.7 6.4
-20 10 1 1.9 3.5
20 10 -1 6.9 11.5
-20 -10 1 -1.2 7.8
20 10 0 24.4 12.3
-20 -10 0 17.8 9.6
20 10 1 51.89 14.3
20 10 2 -5 11.7
20 10 4 -3.5 12.7
-21 0 12 102.69 18.1
-21 0 11 7.3 7.1
-21 0 10 57.19 9.3
-21 0 9 4.8 5.8
-21 0 8 1.1 4.2
21 0 -7 10.7 5.7
-21 0 7 4.7 5.6
21 0 -6 12.9 3.3
-21 0 6 9.1 5.5
21 0 -6 15.6 6.1
-21 0 5 0.7 3.5
21 0 -5 -6.8 3.7
21 0 -5 0.3 2.7
21 0 -4 14.7 4.8
-21 0 4 17.7 4.6
21 0 -4 10.7 3.3
21 0 -3 1.2 2.8
-21 0 3 2.7 3.3
21 0 -3 5.4 3.4
-21 0 2 28.9 4.8
21 0 -2 35 5.2
-21 0 1 2.2 2.8
21 0 -1 -2.5 2.1
21 0 -1 2.8 3.1
21 0 0 22.5 4.7
21 0 0 22.9 4.6
-21 0 0 21.7 4.3
-21 0 -1 0.2 3
21 0 1 -0.7 2
21 0 1 0.2 3.5
21 0 2 52.19 5
-21 0 -2 45.3 6.1
21 0 2 41.5 6.3
21 0 3 -7.6 3.4
21 0 4 25.3 6.6
21 0 4 33.3 4.5
21 0 5 -3 4.2
21 0 5 4 3.4
21 0 6 303.17 19.4
21 0 6 308.27 17
21 0 7 6.9 6.2
21 0 7 0.7 4.6
21 0 8 16.7 5.2
21 0 8 16.1 7.1
21 0 9 -7.2 4.4
21 0 9 4 6.2
21 0 10 18.8 6.7
21 0 10 7.8 6.7
21 0 10 16.6 7.2
21 0 11 -0.7 4.9
21 0 11 -0.2 6.8
-21 1 12 8.2 6.1
-21 -1 12 26.5 10.7
-21 1 11 7.7 7.7
-21 -1 11 4.9 7.1
-21 1 10 15 5.9
-21 -1 10 38.8 9.6
-21 1 9 15.2 6.3
-21 -1 9 25.7 7.1
-21 1 8 4.1 5.5
-21 -1 8 -0.4 4.4
-21 1 7 77.29 10
21 -1 -7 80.29 11.1
21 -1 -7 93.89 8.2
21 -1 -7 79.49 5.2
-21 -1 7 64.19 10
21 1 -6 111.99 7.4
-21 1 6 89.09 9.7
21 1 -6 92.89 10.1
-21 -1 6 111.39 10.7
21 -1 -6 98.19 11.8
21 -1 -6 123.59 9.9
21 -1 -6 96.19 6.3
21 1 -5 8.3 4.4
21 1 -5 3.2 3.3
-21 1 5 4.8 4.1
21 -1 -5 1.2 2.5
21 -1 -5 0.2 4.3
-21 -1 5 7.8 4.6
21 1 -4 0.7 3.2
21 1 -4 -0.1 3.1
-21 1 4 6.6 3.8
21 -1 -4 2.2 2.5
21 -1 -4 6.2 4.1
-21 -1 4 0.7 3.4
21 1 -3 143.79 9.6
-21 1 3 131.79 9.1
21 1 -3 137.29 9.8
21 -1 -3 124.89 8.1
21 -1 -3 137.09 10.2
-21 -1 3 129.09 9.6
21 1 -2 38.5 5.4
-21 1 2 32.2 4.8
-21 -1 2 28.4 4.9
21 -1 -2 33 5.3
21 -1 -2 29 4.5
21 1 -1 81.99 7.8
-21 1 1 76.59 6.1
21 1 -1 72.09 6.6
21 -1 -1 69.49 6.3
-21 -1 1 79.69 7.1
21 -1 -1 71.59 7.1
21 1 0 65.49 7.6
21 1 0 65.29 6.4
-21 1 0 76.79 5.9
-21 -1 0 63.39 6.8
21 -1 0 74.09 5.6
-21 -1 0 77.39 6.6
21 -1 0 75.09 6.7
21 1 1 -1.4 4
21 1 1 -0.4 2.5
-21 1 -1 3.3 2.6
21 -1 1 -0.6 1.9
21 -1 1 -2.4 2.8
-21 -1 -1 1.2 5.3
-21 -1 -1 -0.7 2.3
21 1 2 68.99 6.1
-21 1 -2 71.99 6.5
21 1 2 73.19 8
21 -1 2 84.39 5.5
21 -1 2 70.19 7.2
-21 -1 -2 82.19 7.2
21 1 3 17.5 4
21 1 3 26.3 6.2
21 -1 3 22.1 5.2
-21 -1 -3 20.4 4.6
21 -1 3 14.6 2.8
21 1 4 1.7 3.3
21 1 4 14.5 6.1
21 -1 4 3 4
-21 -1 -4 4.6 3.4
21 -1 4 0.8 2.4
21 1 5 401.76 19.4
21 1 5 356.46 22
21 -1 5 416.46 21.4
-21 -1 -5 395.36 20
21 -1 5 375.36 17.4
21 1 6 48.2 9.4
21 1 6 54.39 7.7
-21 -1 -6 38.6 6.6
21 -1 6 48.5 8.2
21 -1 6 47.6 6.3
21 1 7 2.5 5.7
21 1 7 -2.4 4.4
21 -1 7 -8.1 4.9
21 -1 7 2.6 4
21 1 8 70.79 9.4
21 1 8 69.19 11.5
21 -1 8 74.39 11.2
21 -1 8 88.89 9.6
21 1 9 15.5 7.5
21 1 9 10.3 6.7
21 -1 9 8.9 6.5
21 -1 9 5.7 6.6
21 -1 9 7.7 5.2
21 1 10 7.9 6.8
21 -1 10 1.4 5
21 -1 10 -4.8 5.7
21 -1 10 9.9 5.3
21 1 11 -1.8 5.5
21 1 11 2.3 6.6
21 -1 11 4.9 7
21 -1 11 11.4 6
-21 2 11 53.69 11.5
-21 -2 11 59.49 12
-21 2 10 5.7 6.2
-21 -2 10 0.7 6.3
-21 2 9 19.1 6.5
-21 -2 9 32.5 8.3
-21 2 8 47.2 8.1
21 -2 -8 50.39 7
-21 -2 8 48.5 8.4
21 -2 -8 58.89 4.5
-21 2 7 66.59 9.5
21 -2 -7 80.09 9.3
-21 -2 7 76.39 10.6
21 2 -6 272.27 13.6
-21 2 6 247.38 16
21 2 -6 232.88 16.4
-21 -2 6 235.98 15.6
21 2 -5 39.8 7.2
21 2 -5 48 6.4
-21 2 5 37.6 6.6
21 -2 -5 37.1 7.3
-21 -2 5 49.3 7.7
-21 2 4 112.09 8.6
21 2 -4 81.99 8.6
21 2 -4 112.39 9.1
21 -2 -4 103.79 9.7
-21 -2 4 87.79 9.1
-21 2 3 11.9 3.9
21 2 -3 14.6 5.1
21 2 -3 8.8 3.6
-21 -2 3 13.9 3.2
21 -2 -3 4.8 4
-21 -2 3 19.8 4.7
-21 2 2 21.3 4
21 2 -2 22.2 4.5
21 2 -2 21 5.6
-21 -2 2 22.9 3.7
-21 -2 2 14.3 4.7
21 -2 -2 24.8 5
21 2 -1 22.3 4.6
21 2 -1 16.3 5.4
-21 2 1 17.8 3.4
21 -2 -1 19.3 4.1
-21 -2 1 10.7 4.2
-21 -2 1 14.2 3.8
21 2 0 25.7 4.7
21 2 0 21.5 6
-21 2 0 21.7 3.3
-21 -2 0 26.3 4.5
21 -2 0 23.5 3.8
-21 -2 0 32.1 5.3
21 -2 0 22.5 4.5
21 2 1 139.29 11.9
21 2 1 168.68 10.2
-21 2 -1 168.18 8.3
-21 -2 -1 152.68 11.1
21 -2 1 153.78 10.3
21 -2 1 161.38 8.2
-21 -2 -1 166.18 10.3
21 2 2 128.69 11.4
21 2 2 134.99 9.3
-21 -2 -2 127.09 10.7
-21 -2 -2 134.79 9.6
21 -2 2 131.39 6.6
21 -2 2 133.99 9.7
21 2 3 19.2 4.7
21 2 3 21.2 6.7
-21 -2 -3 24.8 4.9
21 -2 3 18 4.5
21 -2 3 21.2 2.6
21 2 4 9.3 4.3
21 2 4 10.8 6.3
21 -2 4 11 4.4
-21 -2 -4 12.1 4.6
21 -2 4 11.1 2.4
21 2 5 315.47 17.8
21 2 5 356.06 21.7
21 -2 5 311.87 14.5
21 -2 5 337.27 18.5
-21 -2 -5 361.36 18.6
21 2 6 -7.1 5.3
21 2 6 -2.4 4.3
21 -2 6 4.9 5.4
21 -2 6 5 3.4
-21 -2 -6 6.3 4.4
21 -2 6 -3.3 2.5
21 2 7 -5.4 4
21 -2 7 8.1 5.6
21 -2 7 5 3.7
21 2 8 -3.8 5.1
21 2 8 9.7 7.2
21 -2 8 -2.3 3.7
21 -2 8 -2.1 5.6
21 -2 8 -4.2 4.2
21 2 9 8.3 7.4
21 -2 9 4.7 4.5
21 -2 9 6.3 6.3
21 2 10 1.9 6.6
21 -2 10 0.9 4.4
21 -2 10 -1.2 6.2
21 2 11 -6.7 6.6
21 -2 11 3.8 5
21 -2 11 -1.4 6.1
-21 3 11 53.99 12.7
-21 -3 11 85.99 16.8
-21 3 10 43.4 10
-21 -3 10 66.19 12.6
-21 3 9 20.6 7.1
-21 -3 9 21.4 8
21 -3 -9 14.6 5.2
-21 3 8 59.09 8.6
-21 -3 8 58.49 9.4
21 -3 -8 73.69 11.9
-21 3 7 0.3 4.4
-21 -3 7 2.1 4.8
21 -3 -7 0.3 5.4
-21 3 6 6.8 5.1
21 3 -6 11.3 4.4
21 -3 -6 23 7.3
-21 -3 6 7.6 5.8
21 3 -5 29.5 6.8
-21 3 5 22.7 5.6
21 3 -5 14.9 5.5
21 -3 -5 20.6 7.2
-21 -3 5 19.3 5.9
-21 -3 5 20.4 3.4
-21 3 4 25.7 5.2
21 3 -4 16.1 5.8
-21 -3 4 27.2 6.2
-21 -3 4 30.4 4.1
21 3 -3 43.3 6.6
-21 3 3 31.6 5.1
21 3 -3 54.39 9.6
-21 -3 3 35.8 6.5
-21 -3 3 43.6 5.1
-21 3 2 85.19 6.6
21 3 -2 78.09 7.8
21 3 -2 80.29 9.3
-21 -3 2 81.69 8.4
-21 -3 2 76.99 6.7
21 3 -1 339.37 20.5
21 3 -1 336.27 18
-21 3 1 387.66 16.2
-21 -3 1 374.56 18.8
-21 -3 1 375.26 17.8
-21 3 0 72.89 4.9
21 3 0 82.99 10.1
21 3 0 68.69 7.2
-21 -3 0 65.19 7.1
-21 -3 0 70.99 8.1
21 3 1 65.39 6.6
21 3 1 64.99 9.8
-21 3 -1 61.19 4.2
-21 -3 -1 49.6 6.6
-21 -3 -1 65.59 8.4
21 3 2 30.3 5.6
21 3 2 35.8 8.3
-21 -3 -2 26.8 6.2
-21 -3 -2 30 5.7
21 3 3 205.78 12.8
21 3 3 202.58 16.7
21 -3 3 193.38 12.8
21 3 4 -3.3 5.8
21 3 4 -1.8 4
21 -3 4 0.7 4.4
-21 -3 -4 11.6 4.8
21 3 5 290.47 18.1
21 3 5 222.08 18.7
21 -3 5 262.07 16.2
-21 -3 -5 257.77 16.2
21 3 6 16.5 5.8
21 3 6 10.6 7.8
21 -3 6 9.6 2.6
21 -3 6 13.7 2.7
21 -3 6 11.2 5.7
21 3 7 3.5 6.7
21 3 7 -1.6 5
21 -3 7 2.1 2.6
21 3 8 -9.8 5.7
21 -3 8 0.1 3.1
21 -3 8 -4.4 5.4
21 3 9 2.4 6.9
21 -3 9 -0.8 4
21 -3 9 0.4 5.7
21 3 10 10 8.5
21 -3 10 17.9 7.4
21 -3 10 4.6 4.1
21 -4 -11 -3.2 3
-21 -4 11 -1.5 6.9
-21 4 10 -1.1 6.2
21 -4 -10 5 4.2
-21 -4 10 5 6.4
-21 4 9 5.4 6.3
-21 -4 9 11.4 7.3
21 -4 -9 10.7 6.2
-21 4 8 28.2 7.8
21 -4 -8 30.9 8.4
-21 -4 8 37.1 7.9
-21 4 7 40.1 7.6
-21 -4 7 29.6 7.8
21 -4 -7 35.3 9
21 4 -6 12.6 5.4
-21 4 6 11.3 5.4
21 -4 -6 20.6 7.5
-21 -4 6 13.8 3
21 4 -5 3 5.5
-21 4 5 1.2 4.1
21 4 -5 1.6 3.8
-21 -4 5 0.2 4.8
21 -4 -5 -2.8 5.9
-21 -4 5 -2.1 2.5
21 4 -4 -3 3.2
-21 4 4 -0.7 3.7
21 4 -4 -1.6 5.5
-21 -4 4 -1 4.8
-21 -4 4 -1.5 2.9
21 -4 -4 4.4 5.7
21 4 -3 39.2 6.8
-21 4 3 39.4 5.7
21 4 -3 46.8 8.8
-21 -4 3 38.4 5.6
-21 -4 3 30.1 6.9
-21 4 2 30.4 4.6
21 4 -2 36.1 6.9
21 4 -2 25.8 7.7
-21 -4 2 31.1 6.2
-21 -4 2 37 5.6
21 4 -1 45.1 8.9
21 4 -1 45.3 6.9
-21 4 1 53.69 4.8
-21 -4 1 56.39 7
-21 -4 1 42.6 7.9
-21 4 0 42.2 3.6
21 4 0 30.8 5.5
21 4 0 47.3 9.4
-21 -4 0 51.39 8.2
-21 -4 0 34.5 6.2
21 4 1 60.29 10.6
21 4 1 65.49 7.5
-21 -4 -1 66.49 7.9
-21 -4 -1 72.79 9.7
21 4 2 17.7 8
21 4 2 7.6 4.7
-21 -4 -2 4.8 6.1
21 4 3 59.09 11.6
21 4 3 60.09 11.7
-21 -4 -3 83.39 9.1
21 4 4 37.4 6.5
21 4 4 36.7 9.9
-21 -4 -4 43.7 7.3
21 4 5 126.19 14.7
21 4 5 122.89 11.6
21 -4 5 113.99 11.2
21 4 6 3.3 6.7
21 4 7 4.8 6.4
21 -4 7 -0.5 5.4
21 4 8 -1.9 6.6
21 -4 8 -2.3 4.8
21 -4 8 3.3 2.2
21 4 9 2.1 7.6
21 -4 9 3.2 3
21 -4 9 -3.5 5.7
21 4 10 6.1 8.5
21 -4 10 -6.7 6.7
-21 5 10 -2.1 5.3
-21 -5 10 5.4 5.7
21 -5 -10 -6.8 6.7
-21 5 9 23.5 7.5
-21 -5 9 35.6 9.5
21 -5 -9 37 10.3
-21 5 8 61.89 10.5
-21 -5 8 55.79 9.5
21 -5 -8 45.4 10.5
21 5 -7 12.6 5.4
-21 -5 7 2.4 6.1
-21 -5 7 3.9 3
21 -5 -7 10 7.7
-21 5 6 153.68 12.9
21 5 -6 155.48 13.9
-21 -5 6 147.69 12.5
-21 -5 6 146.19 9.3
21 -5 -6 133.59 16.8
-21 5 5 -2 4.3
21 5 -5 -8.3 5
-21 -5 5 -1.5 3.5
21 -5 -5 9.8 7
-21 5 4 58.49 7.8
21 5 -4 67.09 11.1
-21 -5 4 38.3 8.2
-21 -5 4 59.29 7.3
21 -5 -4 56.79 11.8
-21 5 3 48 7.1
21 5 -3 61.29 10.4
21 5 -3 50.99 7.5
-21 -5 3 47.6 7
21 -5 -3 35.7 9.3
-21 -5 3 51.89 8.6
-21 5 2 137.49 10
21 5 -2 114.69 13.5
21 5 -2 125.59 10.5
-21 -5 2 149.99 11.5
-21 -5 2 119.79 11.7
21 5 -1 94.09 13.4
21 5 -1 86.79 9.2
-21 5 1 101.19 6.9
-21 -5 1 96.89 11
-21 -5 1 94.89 9.4
-21 5 0 9.3 2.1
21 5 0 3.9 4.2
21 5 0 8 7.3
-21 -5 0 6.4 5.1
-21 -5 0 5.3 6
21 5 1 50.49 11.1
21 5 1 52.89 7.4
-21 -5 -1 49.7 8.1
-21 -5 -1 35.4 8.1
21 5 2 33.8 10.3
21 5 2 29.9 6.9
-21 -5 -2 32.4 7.1
-21 -5 -2 20.8 7.9
21 5 3 -1.8 7.5
21 5 3 -8.3 4.4
-21 -5 -3 0.1 4.1
21 5 4 81.79 14.7
21 5 4 65.99 10.4
21 5 5 13.6 9.5
21 5 6 -1.5 6.3
21 -5 6 0.8 5.7
21 5 7 -6.5 6.2
21 -5 7 5.2 5.7
21 5 8 6.4 8.2
21 -5 8 -3.5 5.8
21 5 9 17.1 10.7
21 -5 9 10.6 7.4
21 5 10 -7.9 7.8
21 -5 10 -0.8 3.1
21 -5 10 2.3 6.8
-21 6 10 20.4 10.4
21 -6 -10 10.3 10.2
-21 -6 10 20.6 8.2
-21 6 9 -3.3 7
21 -6 -9 -1.1 8.6
-21 -6 9 -3.1 6.1
-21 6 8 4.2 6.1
21 -6 -8 6 7.7
-21 -6 8 -0.7 5.4
-21 6 7 4.2 5.3
-21 -6 7 -10.2 5.2
-21 -6 7 -9.8 3.8
21 -6 -7 6.9 8.2
-21 6 6 211.18 14.9
21 6 -6 160.08 16.3
21 -6 -6 147.79 19.9
-21 -6 6 202.68 13.9
-21 -6 6 178.88 15.2
-21 6 5 11.1 5.3
21 6 -5 10.3 6.6
21 -6 -5 28.4 9.2
-21 -6 5 19.3 7
-21 -6 5 6.6 4.4
-21 6 4 8.8 4.8
21 6 -4 3.7 6.9
21 -6 -4 -0.5 7.2
-21 -6 4 1.9 6.4
-21 -6 4 3.3 4.4
21 6 -3 6.1 7.2
-21 6 3 5 4.6
21 -6 -3 -10.2 5.9
-21 -6 3 -0.4 4.6
-21 -6 3 -4.9 8.6
21 6 -2 102.69 14.4
-21 6 2 140.69 10.3
21 -6 -2 110.19 15.7
-21 -6 2 116.89 11.3
-21 -6 2 100.89 11.8
21 6 -1 8.4 7.9
21 -6 -1 4.7 8.3
-21 -6 1 -4.5 4.2
-21 -6 1 -5.2 4.7
21 6 0 0.4 7.3
-21 6 0 4.7 2.5
-21 6 0 5.5 2.1
-21 -6 0 -2.3 5.7
-21 -6 0 10.2 5.2
21 6 1 158.28 18.2
-21 -6 -1 159.58 15.5
-21 -6 -1 173.68 14.2
21 6 2 -3.7 6.9
-21 -6 -2 6 7.7
21 6 3 4.4 7.9
21 6 4 3.8 8.3
21 6 5 8.6 9.4
21 6 6 86.79 16.4
21 6 7 21 10.6
21 -6 7 2.6 6
21 6 8 14.8 10.9
21 -6 8 19.5 8
21 6 9 2.9 9.2
21 -6 9 9.2 7.4
-21 7 9 -2.6 7.3
-21 7 8 31.4 9.2
-21 -7 8 25.1 7.9
-21 7 7 34.8 8.4
-21 -7 7 35.5 9.2
-21 7 6 -4 5.9
21 7 -6 -7.6 6.5
-21 -7 6 1.7 5.1
21 7 -5 7.1 7
-21 7 5 13.1 5.4
-21 -7 5 20.2 7.3
-21 -7 5 11.1 7.1
-21 7 4 16.3 5.7
21 7 -4 26 9
-21 -7 4 11.1 6.5
-21 -7 4 12.9 6.3
21 7 -3 3 8
-21 7 3 2.8 4.9
-21 -7 3 -3.9 5
-21 -7 3 -4.5 5
21 7 -2 17.8 10
-21 -7 2 14.5 7.2
-21 -7 2 6.2 6.3
-21 7 1 12.7 4.7
-21 7 1 5.4 3.9
21 7 -1 17.2 9.6
-21 -7 1 3.9 7
-21 -7 1 10.4 8.2
-21 7 0 10.5 2.9
21 7 0 14.1 8.9
-21 7 0 12.1 2.6
-21 -7 0 3 6.8
21 7 1 57.59 14.5
-21 -7 -1 44.5 9.5
21 7 2 36 11.4
-21 -7 -2 48.6 11.6
21 7 3 4.1 8.1
21 7 4 13 9.4
21 7 5 23.3 10.5
21 7 6 1.6 9.5
21 7 7 50.59 15.2
21 7 8 13.5 15.1
21 -7 8 -2 6.9
-21 8 8 40.4 11.7
-21 8 7 12.8 7.8
-21 -8 7 6.5 7.4
21 8 -6 -0.6 8
-21 -8 6 22.6 7.7
-21 8 5 7.5 7
21 8 -5 -1.3 7.9
-21 -8 5 -7.3 5.2
-21 8 4 41.8 8.6
21 8 -4 43.3 11.3
-21 -8 4 41.6 10.8
-21 -8 4 25.2 8.7
21 8 -3 26.2 11.1
-21 -8 3 16.7 7.2
-21 8 2 4.9 4.2
21 8 -2 4.8 12.7
-21 8 2 0 4.9
-21 -8 2 -8.4 5.9
21 8 -1 -5.2 9.3
-21 -8 1 0.3 6.3
-21 8 0 36.8 4.1
21 8 0 54.09 14.6
-21 -8 0 56.39 11.2
21 8 1 6.7 10.3
-21 -8 -1 -5.8 7.2
21 8 2 18 11.7
21 8 3 -10.4 9.4
21 8 4 6.6 9.7
21 8 5 72.39 17.3
21 8 6 21.3 13
21 8 7 21.1 15.7
-21 9 6 25.4 12.3
21 9 -6 55.49 15.4
-21 -9 6 27.1 10.8
21 9 -5 -2.7 9
-21 -9 5 7.3 7.9
21 9 -4 -1.3 9.3
-21 9 4 6.4 6.3
-21 -9 4 8.1 6.9
21 9 -3 30.9 13.5
-21 9 3 13 5.8
-21 -9 3 9.1 8
21 9 -2 -0.6 9.3
-21 9 2 -6.1 4.3
-21 -9 2 -0.1 7.2
-21 9 1 210.78 12.8
21 9 -1 214.28 23.4
-21 -9 1 214.08 19.9
-21 9 0 0.7 2.1
21 9 0 4.2 9.5
-21 -9 0 -3.8 7.6
21 9 1 14 13
-21 -9 -1 16.4 9.5
21 9 2 11.8 11.3
21 9 3 -10.1 8
21 9 4 -21.3 8.1
21 9 6 0.5 10.6
21 10 -4 8.8 9.8
21 10 -3 15.3 10.9
-21 -10 3 18.7 9.4
-21 10 2 2.4 4.7
21 10 -2 -2.1 9.1
-21 -10 2 -5.9 6.5
21 10 -1 60.69 16.7
-21 -10 1 67.39 13.6
21 10 0 24.7 12.1
-21 -10 0 6.6 9.1
21 10 1 -8.5 11
21 10 2 -19.3 11.3
21 10 3 -0.3 10.9
-22 0 11 8.1 7.2
-22 0 10 2.2 5.9
-22 0 9 -7.4 5.1
-22 0 8 3.5 5.8
22 0 -7 2.7 3.1
-22 0 7 -3.8 5
22 0 -7 -2.3 2.2
-22 0 6 166.18 13
22 0 -6 173.98 9.4
22 0 -6 145.79 13.8
-22 0 5 1.2 4.3
22 0 -5 0.3 2.8
22 0 -5 1 3.8
-22 0 4 418.36 20.5
22 0 -4 418.36 18.7
22 0 -4 406.36 21.3
22 0 -3 2.9 2.9
-22 0 3 -1.3 3.1
22 0 -3 -1.2 3.1
22 0 -2 91.09 7.5
-22 0 2 83.99 7.3
22 0 -2 84.89 7.2
22 0 -1 0.7 2.4
22 0 -1 -2.8 2.9
22 0 0 16.2 4.4
22 0 0 12.1 3.3
-22 0 0 13.7 3.6
-22 0 -1 1.9 3.3
22 0 1 4 3.5
22 0 1 1.2 2.9
-22 0 -2 122.39 9.5
22 0 2 134.09 10.2
22 0 3 -1.4 3.5
22 0 3 -4.6 2.3
22 0 4 85.79 6.8
22 0 4 70.69 9.1
22 0 5 -4.8 3.1
22 0 5 4.5 5.4
22 0 6 10.8 4.5
22 0 6 19 7.1
22 0 7 5.3 6.8
22 0 7 -2.2 3.8
22 0 8 -2 5.8
22 0 8 -7.3 5.8
22 0 9 2.2 5.2
22 0 9 5.8 6.1
22 0 10 8.3 5.8
22 0 10 12 7.3
22 0 11 -0.5 5.9
22 0 11 3.2 5.4
-22 1 11 10.9 8.2
-22 -1 11 2.9 6.1
-22 1 10 -0.7 5.5
-22 -1 10 2.5 6.9
-22 1 9 6.3 6.1
-22 -1 9 3.5 5.3
-22 1 8 -2.6 4.8
-22 -1 8 -2 4.6
-22 1 7 45.5 8.1
22 -1 -7 54.19 4.5
-22 -1 7 44.9 8.7
22 -1 -7 64.39 7.8
22 -1 -7 21.9 12.1
22 1 -6 327.37 15.3
-22 1 6 295.07 18.1
22 1 -6 322.07 19.8
22 -1 -6 312.57 14.2
22 -1 -6 321.87 19.9
22 -1 -6 329.57 17.8
-22 -1 6 308.57 18
-22 1 5 79.59 8.1
22 1 -5 77.99 7.3
22 -1 -5 72.19 5.9
22 -1 -5 86.19 10.8
-22 -1 5 77.09 8.5
-22 1 4 72.19 7.8
22 1 -4 79.69 8.4
22 1 -4 90.39 7.7
22 -1 -4 79.79 8.7
-22 -1 4 91.89 8.6
22 -1 -4 63.79 6
-22 1 3 121.99 8.7
22 1 -3 114.49 9.1
22 1 -3 96.39 8.8
22 -1 -3 120.09 9.6
22 -1 -3 121.19 7.9
-22 -1 3 119.29 9.4
22 1 -2 78.99 7.7
22 1 -2 65.99 6.9
-22 1 2 66.59 6.7
22 -1 -2 72.09 6.5
-22 -1 2 71.69 7.2
22 -1 -2 80.29 7.3
22 1 -1 -2 3.5
22 1 -1 2 2.8
-22 1 1 4.5 2.9
22 -1 -1 0.8 2.6
-22 -1 1 1 3.5
22 -1 -1 2.7 3
-22 1 0 13.8 3.4
22 1 0 17 4
22 1 0 10.6 4.7
-22 -1 0 12 4.4
22 -1 0 11.7 3.9
22 -1 0 12.7 3.1
-22 -1 0 15.3 3.9
22 1 1 59.69 5.8
22 1 1 64.69 7.9
-22 1 -1 62.29 5.8
22 -1 1 53.29 6.2
-22 -1 -1 49.4 5.6
-22 -1 -1 59.89 6.6
22 -1 1 52.89 4.9
-22 1 -2 179.48 10.3
22 1 2 158.18 9.8
22 1 2 135.19 11.4
22 -1 2 140.39 10.3
-22 -1 -2 181.88 10.9
-22 -1 -2 165.08 11.8
22 -1 2 167.38 8.6
22 1 3 200.98 14.3
22 1 3 186.48 11.3
22 -1 3 174.88 12.5
-22 -1 -3 195.28 12.4
22 -1 3 209.78 9.9
22 1 4 325.27 20
22 1 4 345.07 16.5
-22 -1 -4 320.97 17.3
22 -1 4 303.87 18.2
22 -1 4 312.87 14.8
22 1 5 58.89 10
22 1 5 51.69 6.8
22 -1 5 68.19 9.1
-22 -1 -5 59.09 7.8
22 -1 5 44.6 5.9
22 1 6 6.1 4.4
22 1 6 1.7 6.2
22 -1 6 5.6 4.9
22 -1 6 8.4 3.6
-22 -1 -6 2 3.9
22 1 7 36.1 7
22 -1 7 38.4 9
22 -1 7 59.69 9.5
22 1 8 31.9 8.5
22 1 8 8.1 6.3
22 -1 8 18.8 7.2
22 -1 8 13.7 6.4
22 1 9 7.8 6.1
22 1 9 -8.6 5.3
22 -1 9 1.6 6.3
22 -1 9 0.6 4.5
22 -1 9 9.9 5.9
22 1 10 2.8 6.9
22 -1 10 9.5 6.9
22 -1 10 3.7 5.4
22 1 11 8.4 6.8
22 1 11 -0.2 6.6
22 -1 11 -5.4 4.8
22 -1 11 0.9 7.3
-22 2 11 6 5.7
-22 -2 11 -2.2 8.1
-22 2 10 -5 5.5
-22 -2 10 2.4 5.9
-22 2 9 -1.3 6
-22 -2 9 3.9 6
-22 2 8 78.59 11
22 -2 -8 67.99 4.9
-22 -2 8 72.79 10.1
22 -2 -8 75.79 8.6
-22 2 7 10.5 5.7
22 -2 -7 3.7 5.4
22 -2 -7 8.6 2.8
-22 2 6 68.39 8.9
22 2 -6 70.19 7.1
22 2 -6 75.19 10.3
-22 -2 6 51.89 8.9
22 -2 -6 49.6 8.8
-22 2 5 23.2 5.7
22 2 -5 39.5 7.2
22 2 -5 47.6 6.7
-22 -2 5 39.5 7.2
22 -2 -5 36.1 7.3
-22 2 4 234.48 13.1
22 2 -4 191.18 13.6
22 2 -4 224.18 13.5
22 -2 -4 191.98 14
-22 -2 4 210.48 13.7
22 2 -3 3.6 3.9
22 2 -3 8 5.6
-22 2 3 9.7 3.7
-22 -2 3 6.7 3
-22 -2 3 6.8 4
22 -2 -3 2.1 4
22 2 -2 36 5.9
-22 2 2 36.9 5
22 2 -2 37.7 6.6
-22 -2 2 41.4 5
22 -2 -2 45.1 6.3
-22 -2 2 36.2 6.1
22 2 -1 208.58 13.9
-22 2 1 215.98 10.8
22 2 -1 203.48 12.1
22 -2 -1 200.08 11.6
-22 -2 1 224.98 12.8
22 -2 -1 204.18 11.6
-22 -2 1 190.18 11.2
22 2 0 65.29 8.8
-22 2 0 74.49 5.6
22 2 0 75.29 6.9
-22 -2 0 68.09 7.5
22 -2 0 70.99 5.9
-22 -2 0 80.79 6.9
22 -2 0 72.19 6.6
22 2 1 122.19 11.3
-22 2 -1 116.89 6.9
22 2 1 113.59 8.4
-22 -2 -1 115.19 9.5
22 -2 1 106.09 6.5
22 -2 1 102.69 8.1
-22 -2 -1 105.29 8.2
22 2 2 -1.2 3
22 2 2 0.1 4.4
22 -2 2 0.6 3.6
-22 -2 -2 4.3 3.4
22 -2 2 3.4 1.9
-22 -2 -2 -3.7 4.3
22 2 3 -1.4 5.6
22 2 3 2.9 3.6
22 -2 3 4.7 1.9
22 -2 3 5.5 3.7
-22 -2 -3 12.1 4.5
22 2 4 157.68 14.6
22 2 4 174.88 11.2
22 -2 4 161.88 8
-22 -2 -4 152.88 11.1
22 -2 4 172.18 12.2
22 2 5 488.25 26.6
22 2 5 444.56 22.2
22 -2 5 455.95 23.7
-22 -2 -5 438.76 22.9
22 -2 5 452.45 19.1
22 2 6 12.3 7
22 2 6 4.6 4.9
22 -2 6 7 3.4
22 -2 6 -2.6 5
22 2 7 3.2 6
22 2 7 10.6 4.8
22 -2 7 4.8 3.9
22 -2 7 14.5 9.4
22 2 8 45.8 10
22 2 8 14 8.1
22 -2 8 43.2 8.5
22 -2 8 50.89 8
22 -2 8 30 5.9
22 2 9 4.4 7.7
22 -2 9 -2.3 3.9
22 -2 9 2 6.3
22 2 10 79.99 13.5
22 -2 10 60.29 10.5
22 -2 10 62.39 8.4
22 -2 11 2 5.3
-22 -3 11 11 9.6
-22 3 10 17.5 7.5
-22 -3 10 11.3 7.6
-22 3 9 3.3 6.2
-22 -3 9 5.7 7
22 -3 -9 1.8 4.4
-22 3 8 47.5 9.3
22 -3 -8 50.09 8.3
-22 -3 8 23.9 7.3
-22 3 7 46.7 8.3
-22 -3 7 24.9 6.7
22 -3 -7 35.6 8.1
-22 3 6 8.8 5.3
22 3 -6 4.8 4.1
-22 -3 6 4.8 5.8
22 -3 -6 6.8 6.1
22 3 -5 20.5 6
22 3 -5 30.6 6.5
-22 3 5 26.3 5.8
22 -3 -5 15.1 6.3
-22 -3 5 26 4
-22 -3 5 21.1 5.9
22 3 -4 28.1 5.9
-22 3 4 32.4 5.6
22 3 -4 31.2 7.2
-22 -3 4 38.4 4.7
-22 -3 4 30.4 6.1
22 3 -3 4.9 4
22 3 -3 1.6 5
-22 3 3 1.8 3.3
-22 -3 3 7.7 3.2
-22 -3 3 6.3 4.6
22 3 -2 229.88 16
22 3 -2 234.48 13.9
-22 3 2 249.18 12.4
-22 -3 2 257.47 14.4
-22 -3 2 244.08 13
22 3 -1 53.49 9
22 3 -1 72.49 7.3
-22 3 1 62.19 5.5
-22 -3 1 47.7 6.9
-22 -3 1 46.1 5.9
22 3 0 4.4 3.8
22 3 0 3.6 5.5
-22 3 0 5.1 2.3
-22 -3 0 17 5.4
-22 -3 0 20.2 4.7
22 3 1 6.6 4.1
22 3 1 3.6 5.9
-22 3 -1 -0.5 2
-22 -3 -1 -2.4 3.3
-22 -3 -1 -0.9 4.7
22 3 2 10.2 7
22 3 2 23.3 5.2
-22 -3 -2 29.8 6.7
-22 -3 -2 27.3 5.2
22 3 3 12.4 7
22 3 3 8.4 4.5
-22 -3 -3 8.8 4.7
22 -3 3 12 4.9
22 3 4 66.19 11.1
22 3 4 55.79 7.8
22 -3 4 71.89 8.5
-22 -3 -4 55.69 7.7
22 3 5 98.29 13.7
22 -3 5 83.89 9.7
22 3 6 50.79 8.3
22 -3 6 51.29 4.2
22 -3 6 71.79 9.3
22 -3 6 53.49 4.3
22 3 7 0.5 6.7
22 3 7 -3.1 6.6
22 -3 7 -0.6 2.5
22 -3 7 -5.1 4.9
22 3 8 -8.3 5.7
22 -3 8 -5.3 2.6
22 -3 8 4.6 6.1
22 3 9 4.4 7.2
22 -3 9 -0.4 6.1
22 3 10 5.7 8.4
22 -3 10 0.2 5.9
22 -3 10 3.6 3.8
-22 4 11 4.1 6.1
-22 -4 11 9.7 7.6
-22 4 10 -13.2 4.6
22 -4 -10 -10.3 3.4
-22 -4 10 -9.8 4.4
-22 4 9 52.89 10.8
-22 -4 9 40.7 9.7
22 -4 -9 58.29 9.7
-22 4 8 32.6 8.2
22 -4 -8 22.1 7.9
-22 -4 8 15.7 7.1
-22 4 7 0.4 4.5
22 4 -7 -0.5 3.5
-22 -4 7 4.5 5
22 -4 -7 2.2 6
-22 4 6 128.19 11.2
22 4 -6 139.19 11.5
22 -4 -6 83.29 12.3
-22 -4 6 120.69 7.4
-22 -4 6 111.19 11.6
22 4 -5 -4.7 4.6
-22 4 5 -0.4 3.8
-22 -4 5 2.6 3.1
22 -4 -5 3 5.8
-22 -4 5 -3.3 4.2
22 4 -4 19.1 5.9
-22 4 4 38.8 6.2
22 4 -4 43 8.9
-22 -4 4 29.4 5
22 -4 -4 25.1 8
-22 -4 4 31.7 6.9
22 4 -3 97.99 11.6
-22 4 3 98.19 8.2
22 4 -3 86.99 8.5
-22 -4 3 92.59 9.5
-22 -4 3 87.49 7.6
-22 4 2 129.99 8.6
22 4 -2 116.89 9.6
22 4 -2 101.49 12.5
-22 -4 2 118.39 10.9
-22 -4 2 121.59 9.4
22 4 -1 8.5 6.8
22 4 -1 6.7 4.5
-22 4 1 6.2 2.7
-22 -4 1 10.1 4.4
-22 -4 1 8.2 5.6
-22 4 0 18.1 2.7
22 4 0 12.6 4.3
22 4 0 29.5 8.5
-22 -4 0 18.8 6.3
-22 -4 0 23.2 5.3
22 4 1 4.8 6.7
22 4 1 9.1 4.4
-22 -4 -1 4.7 5.5
-22 -4 -1 12 4.9
22 4 2 3.7 4.9
22 4 2 3.4 6.7
-22 -4 -2 1 5.7
-22 -4 -2 9.3 4.7
22 4 3 231.38 19.2
22 4 3 240.78 15.9
-22 -4 -3 277.97 16.6
22 4 4 0.2 4.4
22 4 4 -1.8 5.8
-22 -4 -4 -11.6 5.5
22 -4 4 -1.1 4.1
22 4 5 65.09 9.3
22 -4 5 67.09 9.2
22 4 6 9.9 7.9
22 -4 6 6.8 4.9
22 4 7 3 7.5
22 -4 7 -9.3 4.7
22 4 8 13.1 7.9
22 -4 8 28.9 8
22 4 9 8.5 7.9
22 -4 9 1.7 2.9
22 -4 9 0.9 6.4
22 4 10 -0.5 8.3
22 -4 10 4.4 6.3
22 -4 10 2.4 5
-22 5 10 -1.1 7.5
22 -5 -10 6.4 6.7
-22 5 9 3.3 6.6
-22 -5 9 1.5 5.6
22 -5 -9 2.2 7.2
-22 5 8 6.6 5.9
22 -5 -8 -2.7 7.8
-22 -5 8 4.5 6.6
22 5 -7 -0.2 5
22 -5 -7 -1.2 8
-22 -5 7 3 2.9
-22 -5 7 11.6 6
-22 5 6 0.6 4.5
-22 -5 6 0 5.4
22 -5 -6 7.6 8.1
-22 -5 6 2.8 3.4
-22 5 5 -0.8 3.8
22 5 -5 1.9 5.7
-22 -5 5 -4.8 3.2
22 -5 -5 9.3 7.9
-22 -5 5 7 5.4
-22 5 4 15.4 5.4
22 5 -4 4.4 6.3
-22 -5 4 3.8 5.4
22 -5 -4 8 8.7
-22 -5 4 19.2 4.7
-22 5 3 190.48 11.6
22 5 -3 140.89 12.6
22 5 -3 167.58 16
-22 -5 3 179.88 11.9
-22 -5 3 157.78 13.3
-22 5 2 8.7 3.6
22 5 -2 6.8 4.6
22 5 -2 2.6 6.1
-22 -5 2 9.1 4.9
-22 -5 2 5.1 5.4
22 5 -1 354.86 23.5
-22 5 1 373.16 15.7
22 5 -1 332.47 19
-22 -5 1 325.47 18.8
-22 -5 1 324.37 20.1
22 5 0 28.6 9.4
22 5 0 35.6 6.9
-22 5 0 35.9 3.3
-22 -5 0 27 7.9
-22 -5 0 43.9 9.5
22 5 1 97.49 9.2
22 5 1 103.29 14.8
-22 -5 -1 84.39 11.1
-22 -5 -1 107.29 10.6
22 5 2 8.3 8.6
22 5 2 1.3 5.1
-22 -5 -2 2.1 5.1
-22 -5 -2 3.6 6.8
22 5 3 31.8 10.7
22 5 3 17.2 6.3
22 5 4 -6.5 6.7
22 5 5 -1.1 7.8
22 5 6 4.7 8.4
22 -5 6 0.6 5.5
22 5 7 -4.3 7.3
22 -5 7 5.1 5.9
22 5 8 6.2 9.2
22 -5 8 6.8 6.2
22 5 9 29.9 11.5
22 -5 9 17.8 8.5
-22 6 9 5.8 6.7
22 -6 -9 5.8 8.6
-22 -6 9 7.3 6.6
-22 6 8 4 7
-22 -6 8 -0.9 6.3
22 -6 -8 -3.4 9.6
-22 6 7 20.6 7.7
-22 -6 7 15.3 6.5
22 -6 -7 31.8 12.1
-22 -6 7 26 6.1
22 6 -6 78.49 11.9
-22 6 6 121.39 11.4
22 -6 -6 74.89 14.5
-22 -6 6 70.49 10.8
-22 -6 6 82.49 10
22 6 -5 59.29 10.7
-22 6 5 125.19 13.7
-22 -6 5 108.69 9.5
22 -6 -5 68.19 13.3
-22 -6 5 98.89 10.6
-22 6 4 0 4
22 6 -4 -11.4 6.2
-22 -6 4 0.6 5.8
22 -6 -4 -3.8 7.4
-22 -6 4 0.4 3.9
-22 6 3 9.5 4.2
22 6 -3 10.6 8
-22 -6 3 6.1 4.9
-22 -6 3 9.3 5.8
22 -6 -3 12.3 8.1
22 6 -2 28.8 9
-22 6 2 28.8 5.6
-22 -6 2 42.8 11
22 -6 -2 39.8 11
-22 -6 2 39.6 11.5
-22 6 1 87.19 7.4
22 6 -1 61.99 12.8
-22 -6 1 58.39 9.9
-22 -6 1 89.29 10
-22 6 0 0.1 1.6
-22 6 0 -1.5 2.1
22 6 0 8.5 8.2
-22 -6 0 1.3 6.3
-22 -6 0 -0.1 5
22 6 1 6.9 8.1
-22 -6 -1 -11.8 6.3
-22 -6 -1 -1.2 6.7
22 6 2 32.6 14.4
22 6 3 5.4 8.3
22 6 4 -1.3 6.9
22 6 5 90.19 16.7
22 6 6 29 11.3
22 6 7 12.1 10.4
22 -6 7 -2.9 5.9
22 6 8 -11.4 7.5
22 -6 8 0.5 6.8
22 -6 9 11.7 7.7
-22 7 9 1.6 6.8
-22 -7 9 8.6 7.6
-22 -7 8 32.4 9.5
-22 7 7 2.5 6.4
-22 -7 7 2.1 6.6
22 7 -6 26.1 9.3
-22 -7 6 41.4 9.3
-22 -7 6 39.4 9.3
-22 7 5 51.39 10.2
22 7 -5 26.5 9.7
-22 -7 5 39.9 7.5
-22 -7 5 37.6 8.7
22 7 -4 7.7 7.8
-22 -7 4 23.9 7.9
-22 -7 4 16.2 6.4
22 7 -3 13 9.9
-22 7 3 24.2 6.3
-22 -7 3 28.9 7.7
-22 -7 3 14.2 7.5
22 7 -2 25.5 11
-22 -7 2 41.5 9.3
-22 -7 2 28.1 7.9
22 7 -1 26.6 10.9
-22 7 1 25 4.8
-22 7 1 22.1 5.1
-22 -7 1 21.4 8.4
-22 7 0 -3 2
-22 7 0 4.1 2
-22 -7 0 7.7 7.6
22 7 1 119.39 18.1
-22 -7 -1 81.59 12.1
22 7 2 31 11.9
-22 -7 -2 38.9 10.5
22 7 3 56.59 14.2
22 7 4 4.6 9.1
22 7 5 3 9.6
22 7 6 -5.8 8.1
22 7 7 9.9 9.2
22 7 8 6 12.4
22 -7 8 -3.8 6.6
-22 8 7 72.39 11.7
-22 -8 7 45.1 10.3
22 8 -6 -8.9 8
-22 -8 6 5.1 6.7
-22 8 5 0.6 5.5
-22 -8 5 10.1 7.3
-22 -8 5 3.6 6.4
22 8 -4 33 11.1
-22 8 4 31.8 8.8
-22 -8 4 25.7 8.5
-22 -8 3 -8.3 5.5
22 8 -2 48 13.7
-22 8 2 62.29 7.9
-22 -8 2 59.19 11.2
-22 8 1 19.8 4.7
22 8 -1 22.8 11.2
-22 -8 1 12.9 7.1
-22 8 0 -2.3 2.1
22 8 0 9.9 9.8
-22 8 0 0.6 1.9
-22 -8 0 -5.8 6.9
22 8 1 22.5 11.7
-22 -8 -1 5.9 8.1
22 8 2 75.59 16.2
22 8 3 6.6 10.3
22 8 4 -2.4 8.2
22 8 5 34.2 13.8
22 8 6 47.6 15.2
22 8 7 22.4 12
-22 9 6 2.4 6.5
22 9 -5 -11.9 8
-22 -9 5 4.3 7.5
22 9 -4 -1.1 8.5
-22 9 4 6.5 6.2
-22 -9 4 -1 6
22 9 -3 4.5 9.1
-22 9 3 7 5.4
-22 -9 3 6.5 7.7
22 9 -2 13.4 10.3
-22 9 2 11.8 5
-22 -9 2 23.6 9.1
22 9 -1 8.8 10.5
-22 -9 1 -6.1 7.9
22 9 0 32.1 12.6
-22 -9 0 25.2 9.8
22 9 1 17.8 11.6
-22 -9 -1 22.4 9.6
22 9 2 12.1 9.9
22 9 3 6.7 10.8
22 9 4 2.3 9.4
22 9 5 6.7 12.1
22 10 -4 -7.9 9.9
-22 -10 4 -0.9 6.4
22 10 -3 -1.1 9.4
-22 10 2 -4.2 3.9
22 10 -2 1.7 11.7
-22 -10 2 -8.7 11.7
22 10 -1 9.6 12.5
-22 10 1 -0.7 2.6
-22 -10 1 3.5 9.8
22 10 0 -9.8 10.6
-22 -10 0 22.4 15.3
22 10 1 37.2 14.9
22 10 3 -10.7 11.8
-23 0 11 2.3 7.5
-23 0 10 89.89 14.3
-23 0 9 10.4 6.8
-23 0 8 1.8 5.9
-23 0 7 -6.4 3.6
23 0 -7 0.4 2.6
23 0 -7 1.1 3.4
-23 0 6 643.64 30.9
23 0 -6 654.73 32.6
23 0 -6 644.14 26.8
-23 0 5 3.4 4.4
23 0 -5 -1.4 3.1
23 0 -5 -5.8 4
23 0 -4 355.96 19.8
23 0 -4 373.86 17.5
-23 0 4 387.86 19.4
23 0 -3 2.7 3.3
-23 0 3 -1.4 3.4
23 0 -3 0.8 3.2
-23 0 2 13.3 3.9
23 0 -2 15.8 4.3
23 0 -2 12.4 3.7
-23 0 1 0 3.2
23 0 -1 -4.5 2.8
23 0 -1 -6.3 1.9
23 0 0 395.46 19.4
-23 0 0 376.56 18.3
23 0 0 407.76 18.1
23 0 1 5.2 4
-23 0 -1 -0.2 3.3
23 0 1 3.8 2.5
23 0 2 2.3 3.9
23 0 2 10.5 3.3
-23 0 -2 9.3 4.5
23 0 3 -0.7 2.5
23 0 3 -6.9 4
23 0 4 178.18 13.5
23 0 4 162.98 10
23 0 5 5.2 3.6
23 0 5 -4.8 4.8
23 0 6 90.29 12
23 0 6 91.29 8.6
23 0 7 -2.6 5.8
23 0 7 -3.4 4.2
23 0 8 14.4 5.4
23 0 8 3.9 6.4
23 0 9 -2.8 5.7
23 0 10 0.1 5.4
23 0 11 9.3 6
-23 1 11 17.8 9.4
-23 -1 11 4.4 7.9
-23 1 10 8.4 7.5
-23 -1 10 4.5 6.6
-23 1 9 -1.8 5.2
-23 -1 9 7.1 6.4
-23 1 8 12.5 5.9
-23 -1 8 19.3 7.2
-23 1 7 254.27 17.3
23 -1 -7 273.57 15.8
23 -1 -7 247.18 11.8
23 1 -6 38.4 8.5
23 1 -6 29.4 4.8
-23 1 6 40.4 7.2
-23 -1 6 35 7.7
23 -1 -6 31.3 4.2
23 -1 -6 23.2 7
23 1 -5 360.46 20.9
23 1 -5 390.46 18.2
-23 1 5 372.76 20.1
-23 -1 5 370.66 20.4
23 -1 -5 371.96 16.8
23 -1 -5 381.76 21.8
23 1 -4 397.16 19.2
23 1 -4 383.36 20.6
-23 1 4 391.66 19.7
23 -1 -4 403.66 21.3
-23 -1 4 380.06 20
23 1 -3 125.69 11.7
23 1 -3 126.89 9.9
-23 1 3 127.19 9.3
23 -1 -3 134.49 8.5
-23 -1 3 131.59 9.9
23 -1 -3 142.89 10.4
-23 1 2 0.2 3.1
23 1 -2 -2.7 2.6
23 1 -2 1.3 3.6
-23 -1 2 0.3 3.6
23 -1 -2 1.5 3.1
23 -1 -2 -2.9 2.8
-23 1 1 67.09 6.3
23 1 -1 79.99 8.5
23 1 -1 73.49 7
23 -1 -1 72.89 6.8
-23 -1 1 80.69 7.4
23 -1 -1 76.99 6.6
23 1 0 30.2 6.2
-23 1 0 23.6 4.1
23 1 0 25.3 4.6
-23 -1 0 35.3 5.7
23 -1 0 22.8 3.9
23 -1 0 30.8 5.2
23 1 1 -3 3.8
-23 1 -1 1.7 3.1
23 1 1 -0.8 2.7
23 -1 1 5 2.4
-23 -1 -1 -1.2 3.5
-23 -1 -1 4.5 2.9
23 -1 1 -0.9 3.2
23 1 2 184.38 13.7
-23 1 -2 192.48 11.4
23 1 2 201.08 11.2
-23 -1 -2 208.88 13.2
23 -1 2 168.68 11.8
-23 -1 -2 212.38 12.3
23 -1 2 189.68 9.8
23 1 3 421.96 18.9
23 1 3 412.46 22.5
23 -1 3 400.06 17.4
23 -1 3 392.56 20.5
-23 -1 -3 389.76 25.4
23 1 4 129.39 12.8
23 1 4 119.79 8.9
23 -1 4 104.89 7.2
-23 -1 -4 100.99 9.1
23 -1 4 120.49 10.9
23 1 5 795.42 34.4
23 1 5 809.02 38.7
-23 -1 -5 824.72 36
23 -1 5 791.22 36.7
23 1 6 59.29 10.7
23 1 6 74.39 8.4
23 -1 6 65.09 7
23 -1 6 59.39 9.6
23 1 7 233.38 18.9
23 1 7 245.38 16.3
23 -1 7 255.47 17.4
23 -1 7 290.17 18.7
23 1 8 62.39 11.1
23 1 8 70.39 9.5
23 -1 8 81.09 12
23 -1 8 71.99 9.5
23 1 9 15.4 7.8
23 -1 9 2.1 6.6
23 -1 9 -0.6 6.4
23 -1 9 5.2 5
23 1 10 38.4 10
23 -1 10 14.7 7.9
23 -1 10 18.3 6.8
-23 2 11 9.2 8.4
-23 2 10 6.4 5.9
-23 -2 10 -7.5 5.2
-23 2 9 2.5 5.6
-23 -2 9 17.3 7.4
-23 2 8 2.4 4.6
-23 -2 8 4.5 5.1
23 -2 -8 18.9 5.3
23 -2 -8 6.6 2.4
-23 2 7 91.69 10.1
23 -2 -7 77.09 6
-23 -2 7 89.69 10.3
23 2 -6 6.6 3.8
-23 2 6 -1.4 4.1
23 -2 -6 0.9 2.6
-23 -2 6 5.6 5.7
23 -2 -6 -0.5 4.4
-23 2 5 157.88 11.7
23 2 -5 177.88 11.8
23 2 -5 155.58 12.9
-23 -2 5 156.08 12.6
23 -2 -5 168.88 9.5
23 -2 -5 157.28 13.3
23 2 -4 187.38 13
-23 2 4 219.98 13.2
-23 -2 4 180.18 12.6
23 -2 -4 198.38 14.3
-23 2 3 -0.7 3.3
23 2 -3 7.2 4.1
23 2 -3 -0.6 4.4
23 -2 -3 0.3 3.9
-23 -2 3 -2.5 2.5
-23 -2 3 0.4 3.8
23 2 -2 395.56 19.7
-23 2 2 367.96 22.5
23 2 -2 389.36 20.6
23 -2 -2 384.46 18.5
-23 -2 2 427.76 20.3
23 -2 -2 410.86 20
-23 -2 2 415.56 18.4
23 2 -1 195.68 13.6
-23 2 1 182.58 10.1
23 2 -1 184.78 11.5
-23 -2 1 202.08 12.4
-23 -2 1 199.68 11.1
23 -2 -1 169.68 11.1
23 -2 -1 181.78 11.2
-23 2 0 5.8 2.8
23 2 0 5.1 3.2
23 2 0 1.6 4.7
-23 -2 0 3.1 4.2
23 -2 0 -5 2.9
23 -2 0 0 2.6
-23 -2 0 1.9 3
23 2 1 -3.6 4.7
-23 2 -1 1.5 2.6
23 2 1 -1.4 2.7
23 -2 1 6.9 2.4
-23 -2 -1 -0.7 4.1
23 -2 1 0.1 3.5
-23 -2 -1 -0.7 3
23 2 2 256.77 13.8
23 2 2 274.67 17.8
-23 -2 -2 221.18 13.7
23 -2 2 256.57 11.3
23 -2 2 267.17 14.7
-23 -2 -2 250.17 16.2
23 2 3 5.4 4.1
23 2 3 3.6 6
23 -2 3 -4.3 3.2
23 -2 3 2.5 1.9
-23 -2 -3 6.9 4.1
23 2 4 33.7 6.1
23 2 4 27.5 8.1
23 -2 4 16.7 3
23 -2 4 28.9 6.6
-23 -2 -4 28.5 5.6
23 2 5 439.26 21.8
23 2 5 450.45 26.2
-23 -2 -5 471.65 24.3
23 -2 5 413.46 18.5
23 -2 5 445.06 23.6
23 2 6 16.5 6
23 -2 6 9.9 3.4
23 -2 6 15.9 6.6
23 2 7 11 7
23 2 7 9 5.5
23 -2 7 2 3.7
23 -2 7 9.8 6.2
23 2 8 24.7 8.9
23 -2 8 5.3 5.6
23 -2 8 7.4 4.7
23 -2 8 -1.5 5.7
23 2 9 0.3 6.6
23 -2 9 1.4 6.2
23 -2 9 2 4.3
23 2 10 33.2 9.6
23 -2 10 29.2 6.2
23 -2 10 24.5 8.5
-23 -3 11 28.4 10.1
-23 3 10 2.4 6.8
23 -3 -10 -4.3 1.7
23 -3 -10 0.8 1.1
-23 -3 10 -7.6 6.2
-23 3 9 -3.4 4.6
-23 -3 9 -12.2 5.1
-23 3 8 26.4 7.4
-23 -3 8 8.5 5.9
23 -3 -8 22.4 7
-23 3 7 28.3 7.4
23 3 -7 35.2 4.6
23 -3 -7 39.3 8.6
-23 -3 7 30.3 7.5
-23 3 6 90.59 9.9
23 3 -6 101.99 9.5
23 -3 -6 112.79 12.9
23 3 -5 36.9 7.2
23 3 -5 25.3 6.5
-23 3 5 34.2 6.4
23 -3 -5 26 7.9
-23 -3 5 32.3 6.6
23 3 -4 91.59 9.4
23 3 -4 125.59 18.3
-23 3 4 118.69 9.2
-23 -3 4 106.59 7.5
-23 -3 4 106.99 9.9
-23 3 3 74.59 7.3
23 3 -3 49.2 11.2
23 3 -3 83.39 9.7
-23 -3 3 55.29 5.9
-23 -3 3 58.79 8.1
23 3 -2 9.8 5.9
-23 3 2 -0.3 2.8
23 3 -2 2.7 3.7
-23 -3 2 0.7 3
-23 -3 2 -2.6 4.4
23 3 -1 122.99 11.9
-23 3 1 115.99 7.3
23 3 -1 111.39 9.1
-23 -3 1 114.49 10
-23 -3 1 98.29 8.1
-23 3 0 9.4 2.7
23 3 0 1.9 3.7
23 3 0 8.4 6.1
-23 -3 0 9 5
-23 -3 0 7 3.9
-23 3 -1 6.1 2.4
23 3 1 3.5 6.3
23 3 1 5.8 3.7
-23 -3 -1 3.6 3.8
-23 -3 -1 8.2 5.6
23 3 2 18.5 6.9
23 3 2 25.6 5.5
-23 -3 -2 21.5 7.8
23 -3 2 19.2 4.8
-23 -3 -2 7.4 6.2
23 3 3 80.09 11.8
23 3 3 100.59 9.1
23 -3 3 90.39 9.3
-23 -3 -3 108.09 9.9
23 3 4 509.25 24.7
23 3 4 485.85 29.3
-23 -3 -4 531.55 25.8
23 -3 4 511.65 25.8
23 3 5 4 4.3
23 3 5 9.8 7.8
23 -3 5 6.1 5.3
23 3 6 232.48 15.6
23 3 6 243.68 20.2
23 -3 6 245.38 16.8
23 -3 6 217.88 10
23 3 7 7.4 7.5
23 -3 7 0.6 2.5
23 -3 7 0.3 2.4
23 -3 7 9.2 6.4
23 3 8 16.7 8.5
23 -3 8 1.7 2.9
23 -3 8 3.6 3.6
23 -3 8 12.1 6.6
23 3 9 12.1 7.9
23 -3 9 1.3 6
23 3 10 70.19 14.3
23 -3 10 75.49 7.7
23 -3 10 75.19 11.8
-23 4 10 11.6 8.3
23 -4 -10 -3.9 3.5
-23 -4 10 -0.2 6.6
-23 4 9 5.9 5.9
23 -4 -9 16.8 7.3
-23 -4 9 7.1 6.4
-23 4 8 5.7 5.6
-23 -4 8 9.8 6.4
23 -4 -8 2.7 6.7
23 4 -7 109.49 10
-23 4 7 117.89 13.8
23 -4 -7 98.19 13.5
-23 -4 7 107.59 12.2
23 4 -6 6.5 4.9
-23 4 6 -2 4.4
23 -4 -6 -3.1 6
-23 -4 6 -3.1 4.9
-23 4 5 8 5
-23 -4 5 4.6 5.6
23 -4 -5 2.6 6.2
-23 -4 5 2.1 2.7
23 4 -4 63.59 10.4
23 4 -4 59.19 8.6
-23 4 4 59.29 7.8
-23 -4 4 58.29 5.8
-23 -4 4 40.6 7.3
23 -4 -4 60.09 10.9
23 4 -3 23.7 7.7
-23 4 3 21.9 4.8
23 4 -3 20.5 5.6
-23 -4 3 23.3 4.8
-23 -4 3 17.4 6.2
23 4 -2 56.69 8.1
-23 4 2 63.19 6.4
23 4 -2 55.49 9.8
-23 -4 2 57.69 8.1
-23 -4 2 56.99 6.6
-23 4 1 123.89 7.8
23 4 -1 109.69 12.8
23 4 -1 111.99 9.9
-23 -4 1 94.89 10.9
-23 -4 1 120.19 9.4
-23 4 0 10.2 2.5
23 4 0 13.9 7.5
23 4 0 3.5 6.2
-23 -4 0 18.2 5.1
-23 -4 0 7 5.6
23 4 1 38.8 9.5
23 4 1 48.9 10.3
-23 -4 -1 63.49 8.8
-23 -4 -1 57.19 9
23 4 2 9.5 7.8
23 4 2 14.8 5
-23 -4 -2 9.6 6.2
-23 -4 -2 4.3 4.4
23 4 3 168.68 16.8
23 4 3 141.29 11.1
-23 -4 -3 151.98 12.3
23 4 4 45.9 7.8
23 4 4 61.69 12
23 -4 4 31.4 7.3
23 4 5 3.4 5.1
23 4 5 -10.8 5.5
23 -4 5 0.5 5.3
23 4 6 -0.3 5.8
23 -4 6 6.2 5.8
23 4 7 16.1 8.3
23 -4 7 9.1 6.2
23 4 8 -5.3 6.9
23 -4 8 -9.1 5.6
23 4 9 12 8.8
23 -4 9 5.7 2.8
23 -4 9 1 7
23 4 10 86.59 16.8
23 -4 10 47.9 6.1
23 -4 10 47.3 10.3
-23 5 10 7.5 7.2
23 -5 -10 -5.6 5.7
-23 -5 10 19.3 9
-23 5 9 11.4 6.6
23 -5 -9 7 8.3
-23 -5 9 1.5 6.4
-23 5 8 3.3 5.7
-23 -5 8 -2 6.5
23 -5 -8 1.8 7.2
23 5 -7 15.2 6.5
-23 5 7 5.3 5.5
23 -5 -7 -2.9 6.6
-23 -5 7 -3.2 5.4
23 5 -6 6.4 7.9
-23 5 6 15.2 7
23 -5 -6 -0.5 7.3
-23 -5 6 11 3.9
-23 -5 6 2.6 5.5
23 5 -5 89.29 11.1
-23 5 5 101.69 10.7
-23 -5 5 76.39 10.4
-23 -5 5 75.69 7.5
23 5 -4 9.2 7.2
-23 5 4 20.7 5.6
23 -5 -4 16 9.6
-23 -5 4 15.9 5.2
-23 5 3 213.18 12.3
23 5 -3 159.38 16.5
23 -5 -3 187.78 18
-23 -5 3 200.38 12.8
-23 -5 3 164.78 13.3
-23 5 2 -1.7 2.7
23 5 -2 -1.5 6.6
-23 -5 2 -2.4 5.6
-23 -5 2 7.4 4.6
23 5 -1 229.38 19.4
23 5 -1 219.58 15
-23 5 1 252.67 12.4
-23 -5 1 242.78 16
-23 -5 1 239.48 16.8
-23 5 0 0.3 1.7
23 5 0 2.4 4.1
23 5 0 2.3 6.3
-23 -5 0 2.1 6.1
-23 -5 0 1.9 4.6
23 5 1 -1.1 4.6
23 5 1 3 6.5
-23 -5 -1 -3.3 4.1
-23 -5 -1 4 6.2
23 5 2 38.6 6.9
23 5 2 15.4 8.2
-23 -5 -2 25.1 6.4
-23 -5 -2 28.8 9.3
23 5 3 -0.6 7.8
23 5 4 73.69 13.5
23 5 5 33.9 11.7
23 5 6 8.8 8
23 -5 6 -3.6 5.7
23 5 7 28.2 11.3
23 -5 7 20.3 6.9
23 5 8 11 8.8
23 -5 8 6.1 6.4
23 5 9 4.2 9.4
23 -5 9 3.3 7.2
-23 6 9 9 8.5
23 -6 -9 17.8 11
23 -6 -8 4.4 10.5
-23 -6 8 13.7 7
-23 6 7 1.3 5.5
23 6 -7 3.7 6.1
-23 -6 7 5.4 4.2
23 -6 -7 2.6 8.8
-23 -6 7 3.3 6.6
23 6 -6 10.1 6.4
-23 6 6 14.2 7.5
23 -6 -6 -6.1 8.1
-23 -6 6 9.2 6.6
-23 -6 6 9.7 5.1
23 6 -5 36.3 9.8
-23 6 5 39.7 8.3
-23 -6 5 44.4 9.1
-23 -6 5 61.79 8.4
23 -6 -5 52.19 12
23 6 -4 3.6 6.9
-23 6 4 1.6 4.1
23 -6 -4 6.6 8.8
-23 -6 4 -13.2 4.7
-23 -6 4 -0.5 4
-23 6 3 62.09 8.3
23 6 -3 67.79 12.6
-23 -6 3 74.29 9.8
-23 -6 3 62.89 9.9
23 -6 -3 56.09 12.4
23 6 -2 7.5 8.3
-23 6 2 8.4 4
-23 -6 2 -3.8 5.3
-23 -6 2 -4.9 3.8
-23 6 1 53.69 5.7
23 6 -1 23.2 9.9
-23 -6 1 67.09 9.2
-23 6 0 2.3 2
23 6 0 2.8 7.6
-23 -6 0 6.6 5.5
23 6 1 14 9.1
23 6 2 0.3 7.9
-23 -6 -2 -6.2 6.8
23 6 3 14.5 9.6
23 6 4 16.8 9.6
23 6 5 71.09 15.2
23 6 6 16.7 11.1
23 6 7 8.3 10.5
23 -6 7 -0.7 6.5
23 6 8 2.7 8.7
23 -6 8 8 6.6
-23 -7 8 -2.1 6.1
-23 7 7 49.6 9.9
23 7 -7 43.3 9.7
-23 -7 7 50.39 9.8
23 7 -6 -2.1 6.5
-23 -7 6 0.2 5.9
-23 7 5 3.2 6.5
23 7 -5 -11.2 6.1
-23 -7 5 3.6 5.3
23 7 -4 7.5 7.9
-23 -7 4 6.2 4.8
-23 -7 4 12.4 7
-23 7 3 32.8 7.4
23 7 -3 32 11.5
-23 -7 3 16.5 7.9
-23 -7 3 18.3 5.9
23 7 -2 6.6 8.9
-23 -7 2 7.1 8.2
-23 -7 2 1.3 5.6
-23 7 1 65.89 7.3
-23 7 1 80.99 7
23 7 -1 62.09 14.2
-23 -7 1 84.39 12.1
23 7 0 9.4 9.2
-23 -7 0 11.9 8
23 7 1 28.4 10.4
-23 -7 -1 14.1 7.7
23 7 2 23.3 11.2
-23 -7 -2 21.2 9.5
23 7 3 12.2 9.6
23 7 4 0.8 8.2
23 7 5 -15 7.9
23 7 6 0.3 8.1
23 7 7 -3.7 9.7
23 -7 7 20.4 8.7
23 7 8 30.4 13.9
23 -7 8 16.1 8.4
-23 8 7 20.8 7.2
23 8 -6 21.8 10
-23 -8 6 3.8 6.8
23 8 -5 -5.7 6.7
-23 -8 5 -6.1 6.5
-23 -8 5 -5.3 6.8
23 8 -4 7.3 9.6
-23 -8 4 7.7 7.2
23 8 -3 -3.5 8.1
-23 -8 3 -8.5 5.6
23 8 -2 -4.6 9
-23 8 2 9.8 5.1
-23 -8 2 0.1 7.1
-23 8 1 87.39 7.4
23 8 -1 101.89 17.2
-23 -8 1 88.09 12.4
23 8 0 2.1 8.6
-23 -8 0 -0.9 7.4
23 8 1 -6.8 8.3
-23 -8 -1 -16.8 6.8
23 8 2 -21.5 7.2
23 8 3 7.2 9.6
23 8 4 1.8 10.6
23 8 5 -7 7.6
23 9 -6 -2.8 9.4
-23 9 6 -0.6 7.3
-23 -9 6 -1.2 7.2
23 9 -5 43.9 13.5
-23 -9 5 49.7 15.3
23 9 -4 13.8 9.7
-23 9 4 -1.3 5.9
-23 -9 4 -3.5 5.4
-23 9 3 -1 5.2
23 9 -3 -3.1 8
-23 -9 3 5.8 7.8
23 9 -2 14.7 10.8
-23 9 2 -11.1 4.2
-23 -9 2 -4.7 6.9
23 9 -1 136.49 21.5
-23 -9 1 116.09 15.7
23 9 0 20.4 10.9
-23 -9 0 -11.5 7.9
23 9 1 15.4 10.9
-23 -9 -1 9.3 8.5
23 9 2 9.3 10.4
23 9 3 17.7 12.8
23 9 5 -3.4 9.9
23 10 -3 25.3 11.5
-23 -10 3 36.4 10.3
-23 10 2 -3.2 3.6
23 10 -2 10.5 12.5
-23 -10 2 2 8.5
23 10 -1 39.5 14.7
-23 -10 1 4 14.1
23 10 0 -21.7 7.7
-23 -10 0 -3.2 12.1
23 10 1 3.2 13.2
23 10 2 -3.4 11.5
-24 0 10 65.09 12.7
-24 0 9 18.8 6.8
-24 0 8 -0.2 4.5
24 0 -7 6.7 3.1
24 0 -7 3.8 3.8
-24 0 6 129.99 12.2
24 0 -6 118.59 12.2
24 0 -6 133.69 8.8
24 0 -5 0.4 3.3
-24 0 5 -1.8 4.4
24 0 -5 0.5 5.4
-24 0 4 43.8 6.9
24 0 -4 33.6 6.3
24 0 -3 -4.5 2.8
-24 0 3 0.6 3.8
24 0 -3 -4.3 2.9
-24 0 2 58.99 6.7
24 0 -2 59.29 6.5
24 0 -2 73.99 7.2
24 0 -1 -0.1 3.3
-24 0 1 5.4 3.7
24 0 -1 -0.6 2.8
-24 0 0 14 5.5
24 0 0 35.9 6
24 0 0 34.2 4.7
24 0 1 -3.5 2.3
24 0 1 1.9 4
-24 0 -1 3.6 3.6
-24 0 -2 -9.6 4.2
24 0 2 4.6 2.8
24 0 2 7 4.8
24 0 3 1.4 4.2
24 0 3 4.7 3.1
24 0 4 129.09 12.5
24 0 4 121.99 8.9
24 0 5 -2.1 3.4
24 0 5 -0.3 5.4
24 0 6 5.6 4.9
24 0 7 -0.1 6.2
24 0 7 -0.6 4.3
24 0 8 -5.3 4.6
24 0 8 8.5 7.1
24 0 9 -5.5 6.1
24 0 9 6.7 7.5
24 0 10 7.4 5.3
24 0 10 -5.3 6
-24 1 10 -2.5 5.7
-24 -1 10 2.2 6.7
-24 1 9 7.8 5.3
-24 -1 9 8.8 7.2
-24 1 8 3.9 6
24 -1 -8 -1.2 2
24 -1 -8 -2.4 3
-24 -1 8 -4.4 5.5
-24 1 7 0.2 4.7
24 1 -7 2.5 2.8
24 -1 -7 5.9 4.5
-24 -1 7 -2.9 5.5
24 -1 -7 4.3 2.7
24 1 -6 372.96 23.3
-24 1 6 408.56 21.8
24 1 -6 399.86 19
24 -1 -6 379.46 23.4
24 -1 -6 421.86 18
-24 -1 6 394.16 22.5
24 1 -5 653.43 27.3
-24 1 5 624.84 28.9
24 1 -5 586.24 30
-24 -1 5 609.24 29.4
24 -1 -5 604.94 26
24 -1 -5 637.84 32.9
24 1 -4 202.18 13.8
24 1 -4 201.38 12.8
-24 1 4 189.58 12.8
24 -1 -4 212.38 14.4
24 -1 -4 194.48 11.5
-24 -1 4 228.08 13.9
-24 1 3 78.79 7.6
24 1 -3 82.69 8.2
24 1 -3 65.49 7.6
24 -1 -3 71.39 7.9
-24 -1 3 65.59 7.8
24 -1 -3 67.79 6.4
24 1 -2 0.9 3.2
-24 1 2 4.7 3.4
24 1 -2 7.1 4.4
24 -1 -2 3.6 3.3
-24 -1 2 0.9 4
24 -1 -2 6.5 3.8
24 1 -1 60.99 6.8
-24 1 1 73.39 7.3
24 1 -1 85.09 8.5
24 -1 -1 70.39 6.7
-24 -1 1 73.09 7.4
24 -1 -1 87.69 7.3
-24 1 0 5.1 3.2
24 1 0 1.2 2.9
24 1 0 4.6 4.7
-24 -1 0 -1.2 3.2
24 -1 0 2 3.4
24 -1 0 -2.9 4.4
24 1 1 55.89 7.9
-24 1 -1 64.29 6.3
24 1 1 56.89 6
-24 -1 -1 51.69 6.9
24 -1 1 53.59 6.5
24 -1 1 48.8 5
24 1 2 44.4 5.8
-24 1 -2 49.1 6.4
24 1 2 42.4 7.8
-24 -1 -2 43.5 6.1
-24 -1 -2 52.89 7.8
24 -1 2 43.3 6.7
24 -1 2 57.89 5.1
24 1 3 232.48 16.3
24 1 3 234.98 12.5
24 -1 3 231.98 14.9
24 -1 3 218.18 11.2
-24 -1 -3 218.38 13.7
24 1 4 356.26 17.6
24 1 4 323.97 21.1
24 -1 4 380.86 20.4
-24 -1 -4 370.16 19.4
24 -1 4 340.87 16
24 1 5 523.45 24.9
24 1 5 533.35 29
24 -1 5 564.54 27.8
24 1 6 574.54 26.6
24 1 6 511.65 38.4
24 -1 6 542.15 24.6
24 1 7 121.39 11.2
24 1 7 115.99 13.7
24 -1 7 118.79 12.9
24 -1 7 110.29 9.7
24 1 8 5.3 6.9
24 1 8 16.1 6.4
24 -1 8 13.5 7.1
24 1 9 -8.7 5.1
24 -1 9 1.9 6.9
24 -1 9 -6.5 4.1
24 1 10 10.5 7.4
24 -1 10 18.6 8.3
24 -1 10 8.7 5.5
-24 -2 11 -0.8 7.2
-24 2 10 -8.4 6.1
-24 -2 10 -0.4 5.5
-24 2 9 8 6
-24 -2 9 13.8 7.6
-24 2 8 31.6 8
24 -2 -8 31.7 3.8
24 -2 -8 31.3 6.3
-24 -2 8 25.3 7.5
-24 2 7 91.59 11
24 2 -7 107.99 7.3
-24 -2 7 94.39 10.9
24 -2 -7 100.69 6.8
24 2 -6 95.19 8.8
-24 2 6 104.69 10.4
24 -2 -6 99.99 11.5
-24 -2 6 102.49 11.2
-24 2 5 38.4 7.1
24 2 -5 54.79 8.9
24 2 -5 69.39 8
-24 -2 5 42.3 7.5
24 -2 -5 61.69 5.8
24 -2 -5 67.99 9.7
-24 2 4 89.29 8.7
24 2 -4 66.89 8.8
24 -2 -4 82.39 6.8
24 -2 -4 80.59 9.3
-24 -2 4 61.79 8.1
24 2 -3 10.8 5.2
24 2 -3 6.6 3.9
-24 2 3 13.5 4.3
24 -2 -3 8.8 3.6
-24 -2 3 4.9 4.5
-24 2 2 41.4 5.8
24 2 -2 54.19 7.9
24 2 -2 41.6 6.6
24 -2 -2 53.19 6
-24 -2 2 41.5 6.6
24 -2 -2 41.5 6.5
-24 -2 2 60.29 6
-24 2 1 29.9 4.4
24 2 -1 26 6.7
24 2 -1 24.3 4.8
-24 -2 1 23.1 4.4
-24 -2 1 27.1 5.9
24 -2 -1 23.5 6.8
24 -2 -1 27.8 5.1
-24 2 0 26.4 4
24 2 0 33.4 7.4
24 2 0 27.2 5
24 -2 0 29.8 4.6
-24 -2 0 36.2 5.5
-24 -2 0 17.1 5.4
24 -2 0 36 5.7
24 2 1 0.4 5.3
24 2 1 -0.9 3.2
-24 2 -1 3.3 3
-24 -2 -1 4.2 4.6
-24 -2 -1 0.6 3.4
24 -2 1 6.3 2.6
24 -2 1 2.4 4
24 2 2 111.89 12
24 2 2 76.49 7.6
24 -2 2 80.49 5.3
-24 -2 -2 53.19 8.6
24 -2 2 82.19 8.4
24 2 3 41.2 8.9
24 2 3 30.3 5.7
-24 -2 -3 40.2 6.5
24 -2 3 34.7 6.1
24 -2 3 37.9 3.8
24 2 4 160.48 12
24 2 4 187.98 15.8
-24 -2 -4 167.38 12.2
24 -2 4 158.58 8.3
24 -2 4 177.18 13
24 2 5 311.67 16.9
24 2 5 325.27 21.4
24 -2 5 281.67 13.6
24 -2 5 298.27 17.9
24 2 6 27.2 7.8
24 -2 6 33.2 7.3
24 -2 6 17.2 4.1
24 2 7 -3.5 5.1
24 2 7 5.2 6.8
24 -2 7 -8.4 4.3
24 -2 7 1.1 3.4
24 2 8 15.2 8.1
24 -2 8 10.3 6.7
24 2 9 -2.3 6.8
24 -2 9 7.1 4.6
24 -2 9 6.7 6.6
24 2 10 80.39 13.8
24 -2 10 86.49 9.3
-24 3 11 11.3 10
-24 -3 11 -1.6 8.5
-24 3 10 -7.1 4.9
24 -3 -10 0.2 2
24 -3 -10 -0.4 1
-24 -3 10 10 7.4
-24 3 9 2.9 6.2
-24 -3 9 -3.4 6.3
24 -3 -9 5.8 2.8
-24 3 8 40.3 8.6
24 -3 -8 42.5 8.5
-24 -3 8 35.1 8.8
24 3 -7 98.49 8.3
-24 3 7 74.39 11.9
24 -3 -7 84.69 11.6
-24 -3 7 63.09 9.2
24 3 -6 97.69 9.7
-24 3 6 91.19 9.9
-24 -3 6 69.29 10.6
24 -3 -6 105.79 12.5
24 3 -5 25.7 6.5
-24 3 5 28 6
24 -3 -5 24.3 7.8
-24 -3 5 18.8 6.2
-24 3 4 203.88 12.9
24 3 -4 182.58 14.2
24 3 -4 156.78 12.8
-24 -3 4 183.68 10.3
-24 -3 4 171.08 12.9
24 3 -3 26.8 6.3
24 3 -3 23.3 7
-24 3 3 17.4 4.6
-24 -3 3 18.5 4
-24 -3 3 17.6 6.1
24 3 -2 6.2 5.1
-24 3 2 18.8 4.4
24 3 -2 11.3 5.3
-24 -3 2 21.8 4.2
-24 -3 2 3.7 4.9
24 3 -1 198.98 15.7
-24 3 1 226.48 11.4
-24 -3 1 204.38 13.4
-24 -3 1 223.48 12.8
-24 3 0 5.1 2.7
24 3 0 10 6.8
24 3 0 10.5 4.6
-24 -3 0 4.8 3.7
-24 -3 0 8.9 5.6
-24 3 -1 40 4.2
24 3 1 38.1 6.1
24 3 1 35.7 8.9
-24 -3 -1 51.29 8.2
-24 -3 -1 45.6 6.5
24 -3 1 39.6 6.2
24 3 2 39.8 9.4
24 3 2 27.8 5.4
-24 -3 -2 41.6 6.4
-24 -3 -2 22.2 7.1
24 -3 2 36.5 6.6
24 3 3 1.7 4.1
24 3 3 0.3 6.6
24 -3 3 -0.2 4.2
-24 -3 -3 5.2 4.8
24 3 4 544.95 31.6
24 -3 4 560.94 27.4
24 3 5 7.4 8.3
24 3 5 10 5
24 3 6 90.69 14
24 3 6 82.59 9.7
24 -3 6 77.49 10.4
24 3 7 8.4 7.8
24 -3 7 -1 5.6
24 -3 7 7.9 2.7
24 -3 7 7.2 2.8
24 3 8 -2.6 6.8
24 -3 8 -0.9 2.8
24 -3 8 4.8 6
24 3 9 16.4 8.7
24 -3 9 10.3 4.1
24 -3 9 -6.8 5.8
24 3 10 32.3 11.3
24 -3 10 16.7 8
24 -3 10 19.6 5
-24 4 10 11.6 7.2
24 -4 -10 -6 4.2
-24 4 9 -7.1 5.3
-24 -4 9 -1.6 6.3
24 -4 -9 -11.4 5.8
-24 4 8 85.59 11.6
-24 -4 8 69.49 11.9
24 -4 -8 70.59 11.6
24 4 -7 163.48 12.2
24 -4 -7 127.39 16.7
-24 -4 7 125.79 13.5
-24 4 6 84.09 9.9
24 4 -6 99.19 11
-24 -4 6 65.49 6.2
24 -4 -6 91.59 13.5
-24 -4 6 91.39 10.7
-24 4 5 -2 4.6
24 4 -5 2.2 5.3
-24 -4 5 -1.9 2.8
24 -4 -5 4.2 6.1
-24 -4 5 7.7 6.8
24 4 -4 0.3 5.7
-24 4 4 1 4.1
-24 -4 4 -1.2 5.4
24 -4 -4 14.3 7.2
-24 -4 4 1.9 2.8
24 4 -3 56.59 10.2
-24 4 3 81.59 7.7
24 4 -3 76.09 8.9
-24 -4 3 79.49 7.2
-24 -4 3 60.79 9.1
-24 4 2 0.9 3.1
24 4 -2 3.9 4.2
24 4 -2 -0.2 5.7
-24 -4 2 5.3 5.6
-24 -4 2 11.9 4.4
24 4 -1 26.2 8.4
24 4 -1 22 5.6
-24 4 1 27.1 4
-24 -4 1 23.4 5.2
-24 -4 1 29.6 7.5
24 4 0 16.3 5.1
24 4 0 14.8 7.5
-24 4 0 6 2.4
-24 -4 0 -0.3 5
-24 -4 0 11 5.4
24 4 1 9.1 7
24 4 1 4.2 4.4
-24 -4 -1 -5.5 3.7
-24 -4 -1 9 5.6
24 4 2 -0.8 7.2
24 4 2 0.5 4.4
-24 -4 -2 0.2 5.5
-24 -4 -2 15.8 5.6
24 4 3 4.1 5.1
24 4 3 11.2 7
24 4 4 39 17
24 4 4 35.7 6.8
24 4 5 22.7 9.5
24 -4 5 26.6 7.2
24 4 6 20.5 9.5
24 -4 6 14.2 6.5
24 4 7 45.7 12
24 -4 7 55.59 9.9
24 4 8 17.9 9.3
24 -4 8 23.8 8.2
24 4 9 -3.9 7.6
24 -4 9 13.5 7.8
24 -5 -10 4.3 7.1
-24 -5 10 0.5 5.9
-24 5 9 15.4 7.9
24 -5 -9 18.6 8.9
-24 -5 9 14.6 8.2
-24 5 8 2.7 5.9
24 -5 -8 15.5 9.3
-24 -5 8 4.6 6.6
-24 5 7 -2.4 5
24 5 -7 4.4 5.3
-24 -5 7 1.6 6.2
24 -5 -7 13.4 9.3
-24 5 6 2 5.8
24 5 -6 5.4 6.2
-24 -5 6 0.5 3.5
-24 -5 6 -5.6 4.4
24 5 -5 7.8 6.6
-24 5 5 18.4 6.1
-24 -5 5 19.2 7.3
-24 -5 5 19 4.8
24 -5 -5 25.9 9.5
24 5 -4 27.7 8.6
-24 5 4 21.6 5.7
24 -5 -4 7.1 8
-24 -5 4 23.2 4.8
-24 -5 4 11.3 6.3
24 5 -3 -0.6 6.4
-24 5 3 4.5 3.7
-24 -5 3 -4 3.5
24 -5 -3 -5.6 6.7
-24 -5 3 -3.1 6
-24 5 2 2.2 3
24 5 -2 11.1 7.4
-24 -5 2 4.3 6.4
-24 -5 2 -3.4 3.7
24 5 -1 17.9 8.1
-24 5 1 8.4 3.1
24 5 -1 1.6 4.9
-24 -5 1 11.4 5.2
-24 -5 1 0.9 5.4
24 5 0 29.4 9.4
-24 5 0 27.7 3.1
24 5 0 21.7 6.5
-24 -5 0 32.3 6.8
-24 -5 0 13.8 6.6
24 5 1 47.5 8.3
24 5 1 56.19 12.4
-24 -5 -1 54.39 8.2
-24 -5 -1 55.19 9.7
24 5 2 177.38 18.6
-24 -5 -2 157.48 15.8
24 5 3 65.59 14.3
24 5 4 154.38 18.1
24 5 5 44.9 12.2
24 -5 5 32.9 7.4
24 5 6 5.7 8.6
24 -5 6 4.2 6
24 5 7 -1.7 8
24 -5 7 1.1 5.3
24 5 8 0.5 10.1
24 -5 8 -7 6.4
24 5 9 -11 7.8
24 -5 9 -5.8 6.9
-24 6 9 6.9 9.4
24 -6 -9 -12.7 9
-24 -6 9 0.6 6.4
-24 6 8 14.7 7.7
-24 -6 8 9.4 7.1
24 -6 -8 50.69 13
24 6 -7 16.8 6.7
-24 6 7 14.7 6.5
-24 -6 7 12.2 6.4
24 -6 -7 6.9 9.8
-24 6 6 -8.6 4.6
24 6 -6 -4.6 5.8
-24 -6 6 2.7 6.5
-24 -6 6 -6.1 3.2
24 -6 -6 21.8 10.6
-24 6 5 -1.4 4.4
24 6 -5 10 7.2
-24 -6 5 8 4.1
-24 -6 5 9.1 5.5
24 -6 -5 8.8 9.7
-24 6 4 27.1 7.8
24 6 -4 23 8.5
-24 -6 4 24.3 5.6
-24 -6 4 13.3 6.9
-24 6 3 -0.7 3.9
24 6 -3 7.1 7.6
-24 -6 3 6.1 6.2
-24 -6 3 3.7 4.9
24 6 -2 21 9.2
-24 6 2 5.2 3.7
-24 -6 2 28.3 8.1
-24 -6 2 17.2 5.4
24 6 -1 9.1 7.9
-24 6 1 1.8 2.9
-24 -6 1 -1.3 4.9
-24 -6 1 -0.3 6.7
24 6 0 2.5 8.7
-24 -6 0 -9.6 5
-24 -6 -1 -9.5 6
24 6 2 1.6 7
-24 -6 -2 14 8.4
24 6 3 19.2 9.3
24 6 4 97.39 17.4
24 6 5 26.2 11
24 6 6 63.99 15.3
24 -6 6 50.39 9.5
24 6 7 -0.7 9.5
24 -6 7 3.3 7.4
24 6 8 29.2 13.1
24 -6 8 10 8.6
-24 7 8 2.8 7.1
-24 7 7 11 7
24 7 -7 3.1 6.9
-24 -7 7 -2.3 6.3
24 7 -6 7.7 8.1
-24 -7 6 1.6 7.4
24 7 -5 5.1 7.8
-24 7 5 0.3 5.3
-24 -7 5 1.6 6.2
-24 7 4 25 6.2
24 7 -4 43.3 10.7
-24 -7 4 13.1 6.6
-24 -7 4 29.9 7.7
-24 7 3 101.69 10.8
24 7 -3 75.89 14.7
-24 -7 3 77.49 8.7
24 7 -2 28.5 11.2
-24 -7 2 10.9 6.9
-24 7 1 5.7 3.4
-24 7 1 0.6 2.9
-24 -7 1 -2.4 5.8
24 7 0 3.9 8.4
-24 -7 0 -5.1 6.8
24 7 1 20.4 11.3
-24 -7 -1 15.8 8
24 7 2 23.4 10.6
-24 -7 -2 30.5 9.7
24 7 3 21.4 10.2
24 7 4 -2.5 9.4
24 7 5 -5.2 9.2
24 7 6 9.2 10.9
24 -7 7 -3.7 7.7
-24 8 7 11.4 7.1
-24 -8 7 33.5 9.8
24 8 -6 3.2 8.6
-24 8 6 25.4 11
-24 -8 6 -5 6.2
24 8 -5 -9.6 8
-24 -8 5 8.5 7.4
24 8 -4 -4.2 8.9
-24 -8 4 -6 5.7
24 8 -3 -1.1 8.3
-24 -8 3 8.7 7.4
-24 8 2 12.6 5.1
24 8 -2 -4.2 9.5
-24 -8 2 15.1 8.3
-24 8 1 13.6 3.8
24 8 -1 17.5 10.3
-24 -8 1 9.1 7.7
24 8 0 -15.9 8.1
-24 -8 0 -18.6 6.3
24 8 1 13.1 9.3
-24 -8 -1 5.5 8.3
24 8 2 18.3 11
24 8 3 43.6 14.3
24 8 4 31.2 13.3
24 8 5 19.2 11.3
24 8 6 18.6 12.3
24 9 -5 8.4 9.5
-24 -9 5 19.7 8.3
-24 9 4 2.6 6.2
24 9 -4 -1.1 9.3
-24 -9 4 -6.9 6.2
-24 9 3 6.7 5.5
24 9 -3 14.4 10.4
-24 -9 3 12.4 8.3
24 9 -2 12.5 10.6
-24 9 2 18.5 5
-24 -9 2 -5.5 7.1
24 9 -1 80.49 17.4
-24 -9 1 60.69 12.5
24 9 0 47.1 14.8
-24 -9 0 49.3 12.2
24 9 1 0.4 8.7
-24 -9 -1 -2.8 7.1
24 9 2 -12 8.4
24 9 3 -8.5 10.1
24 9 4 115.49 23.7
-24 10 2 -2.7 4.9
24 10 -2 -5.8 9.7
-24 -10 2 10.5 8.7
24 10 -1 -7.2 10.3
-24 -10 1 20.7 10.3
24 10 0 18.8 15.2
-24 -10 0 15.1 10.2
-25 0 11 1.3 9.3
-25 0 10 35.3 9.7
-25 0 9 3.4 6.2
-25 0 8 22.4 8.1
25 0 -7 7.2 4
-25 0 7 0 4.6
25 0 -7 -0.1 3
25 0 -6 47.7 5.9
25 0 -6 48 9.4
-25 0 6 59.79 8.6
25 0 -5 -3.4 4.3
-25 0 5 1.5 4.5
25 0 -5 3.5 3.4
25 0 -4 369.96 18.1
-25 0 4 376.46 19.4
25 0 -4 362.26 20.2
25 0 -3 0.1 3.5
25 0 -3 -6.7 2.7
-25 0 3 -1.4 3.6
25 0 -2 66.49 6.9
25 0 -2 53.69 6.7
-25 0 2 71.49 7.5
25 0 -1 -3.3 3.6
-25 0 1 -3.9 3
25 0 -1 2.7 3.2
-25 0 0 90.39 8
25 0 0 98.69 9.1
25 0 0 94.59 7.5
25 0 1 1.9 3.9
25 0 1 1.6 2.6
25 0 2 348.67 16
25 0 2 287.67 18.1
-25 0 -2 367.66 20.2
25 0 3 7.5 3.4
25 0 3 -7.5 4.6
25 0 4 1713.33 70.69
25 0 4 1737.33 66.49
25 0 5 -2.1 5.5
25 0 5 -0.2 3.7
25 0 6 7.5 4.1
25 0 6 9.6 6.7
25 0 7 2.8 6.9
25 0 7 0.3 5.3
25 0 8 30.2 8.1
25 0 8 29.4 9
25 0 9 8.8 6.9
25 0 10 -6.2 6.3
25 0 10 -9.3 4.1
-25 1 11 11.1 7.2
-25 -1 11 -0.6 8.9
-25 1 10 0.7 5
-25 -1 10 16.9 7.8
-25 1 9 -2.1 5.7
-25 -1 9 -4.5 6.1
-25 1 8 5.4 6
25 -1 -8 -1 3.4
25 -1 -8 6.5 2.4
-25 -1 8 -2 5.4
25 -1 -7 264.77 12.9
25 -1 -7 287.77 16.8
-25 -1 7 255.67 18.3
-25 1 6 175.68 13.8
25 1 -6 169.68 11
-25 -1 6 162.48 13
25 -1 -6 186.68 14.5
25 -1 -6 169.58 9.8
25 1 -5 435.86 19.9
25 1 -5 407.36 22.3
-25 1 5 370.36 20.9
25 -1 -5 381.96 19.1
25 -1 -5 389.46 25.6
-25 -1 5 382.76 21.2
25 1 -4 -4.2 3.9
-25 1 4 5.7 4
25 -1 -4 0.4 3.1
25 -1 -4 3.5 4.5
-25 -1 4 -8.5 3.8
-25 1 3 46.6 6.4
25 1 -3 44.8 6.5
25 1 -3 60.09 7.6
25 -1 -3 44.8 7.2
25 -1 -3 47.2 5.9
-25 -1 3 51.89 7.3
25 1 -2 3.6 4.6
25 1 -2 3.7 3.3
-25 1 2 -1 3.3
25 -1 -2 5.7 3.5
-25 -1 2 6.7 4.4
25 -1 -2 2.4 3.6
25 1 -1 -6.6 3.1
-25 1 1 5.7 3.7
25 1 -1 6.3 4.6
25 -1 -1 7.2 4
25 -1 -1 5.3 3.2
-25 -1 1 4.7 4
25 1 0 74.19 6.9
-25 1 0 66.79 6.8
25 1 0 80.99 9.1
25 -1 0 96.59 8.4
25 -1 0 75.59 6.3
-25 -1 0 92.59 8.5
-25 1 -1 11.3 4.1
25 1 1 11.3 5.6
25 1 1 14.5 4
25 -1 1 9.6 4.1
-25 -1 -1 7.4 4.5
25 -1 1 9.8 3.1
-25 1 -2 45 6.4
25 1 2 36.7 5.5
25 1 2 39.9 7.7
25 -1 2 31.2 4.2
25 -1 2 40.9 6.8
-25 -1 -2 32.3 6.7
25 1 3 -0.9 5.2
25 1 3 3.3 3.2
25 -1 3 1.3 2.5
25 -1 3 -0.5 4.4
25 1 4 954.6 38.8
25 1 4 852.21 42.4
25 -1 4 925.71 37.8
25 -1 4 968.3 41.5
25 1 5 76.19 8
25 1 5 85.99 11.9
25 -1 5 55.49 6.4
25 -1 5 75.49 10.3
25 1 6 75.29 12.1
25 1 6 68.29 8
25 -1 6 67.79 11.2
25 -1 6 73.39 8
25 1 7 1.1 4.9
25 1 7 35.2 9.2
25 -1 7 3.9 4.7
25 -1 7 12.3 6.3
25 1 8 71.09 12.1
25 1 8 104.89 12
25 -1 8 80.29 12.1
25 1 9 1.9 7.2
25 -1 9 5 5
25 -1 9 9.2 7.6
25 1 10 17.3 8.3
25 -1 10 -9.5 4.6
25 -1 10 -1.6 7
-25 2 11 14.2 8.1
-25 -2 11 -10.2 6.7
-25 2 10 0.4 6.8
-25 -2 10 -3.8 6.1
-25 2 9 18.7 7.4
-25 -2 9 19.8 7.4
-25 2 8 4.3 5.9
-25 -2 8 3.1 6.4
25 -2 -8 0.6 4.6
25 -2 -8 6.5 2.8
25 2 -7 118.39 8.3
25 -2 -7 102.89 7.2
-25 -2 7 97.09 10.9
25 -2 -7 102.59 11.5
25 2 -6 65.99 7.8
-25 2 6 64.39 8.7
25 -2 -6 67.39 9.5
25 -2 -6 63.09 6.2
25 2 -5 0.3 4.5
25 2 -5 0.1 4.7
-25 2 5 6.5 5.1
25 -2 -5 4.1 3.3
-25 -2 5 13 5.3
25 2 -4 2.7 4.8
-25 2 4 -3 3.7
25 2 -4 -1.2 3.8
25 -2 -4 9 4.9
-25 -2 4 6.1 4.6
25 -2 -4 3.4 3.5
25 2 -3 37.5 7.2
25 2 -3 32.8 9.4
-25 2 3 34.1 5.8
25 -2 -3 36.3 6.8
-25 -2 3 30.6 6.4
25 -2 -3 31.5 4.8
25 2 -2 77.69 8.4
-25 2 2 80.09 7.3
25 2 -2 87.89 9.8
25 -2 -2 92.49 8.7
-25 -2 2 96.69 9.2
-25 -2 2 87.19 7.1
25 -2 -2 85.79 7.7
25 2 -1 0.6 3.1
25 2 -1 3.9 5.4
-25 2 1 2.2 3
25 -2 -1 1.6 3.6
-25 -2 1 1.9 4.2
25 -2 -1 4.8 3.5
-25 -2 1 -0.6 3
25 2 0 21.7 5
25 2 0 36.2 7.6
-25 2 0 29.4 4.5
-25 -2 0 35.8 5.5
25 -2 0 30.1 5.7
-25 -2 0 29.4 6.2
25 -2 0 37.7 5.2
-25 2 -1 3.1 3.2
25 2 1 6.5 5.7
25 2 1 2.7 3.5
-25 -2 -1 10.3 5.2
25 -2 1 4.5 4.3
-25 -2 -1 5.4 3.9
25 -2 1 3.1 2.7
25 2 2 58.69 10.1
25 2 2 75.29 7.5
-25 -2 -2 90.39 8.4
25 -2 2 69.09 8.3
25 -2 2 78.99 5.6
-25 -2 -2 80.29 9.9
25 2 3 355.46 18.3
25 2 3 374.86 23
25 -2 3 354.36 15.5
25 -2 3 362.26 19.8
-25 -2 -3 396.16 20.2
25 2 4 40.2 9.3
25 2 4 24.9 5.8
25 -2 4 38.8 7.5
-25 -2 -4 46 11
25 -2 4 38.2 4.2
25 2 5 23 6
25 -2 5 30.1 10.9
25 2 6 -7.9 5.4
25 2 6 -0.5 4.1
25 -2 6 1.6 5.4
25 -2 6 5.3 3.1
25 2 7 15.4 8.8
25 2 7 19.7 7.4
25 -2 7 19.7 4.8
25 -2 7 19.3 7.4
25 2 8 9.7 8.1
25 -2 8 7.2 6.5
25 2 9 15 8
25 -2 9 3.6 4.3
25 -2 9 5 6.6
25 2 10 40.5 11.2
25 -2 10 28.1 8.6
25 -2 10 45.8 7.4
-25 3 10 1.5 6.5
-25 -3 10 -2 5.8
25 -3 -10 -2.1 2.1
25 -3 -10 1.2 1.2
-25 3 9 -3.7 5.1
-25 -3 9 7.9 6.8
25 -3 -9 5.4 2.6
-25 3 8 39.8 8.5
-25 -3 8 61.49 10.7
25 -3 -8 58.49 9.3
25 -3 -8 54.59 6.3
25 3 -7 29 5.3
-25 -3 7 23.9 7.8
25 -3 -7 13.1 6.9
25 3 -6 45.5 7.6
-25 3 6 34 7.5
25 -3 -6 43.9 9.5
-25 -3 6 35.9 8.2
-25 3 5 6.7 4.5
-25 -3 5 6.4 5.9
-25 3 4 63.19 7.9
25 3 -4 63.99 8.9
25 3 -4 68.29 9.3
-25 -3 4 57.89 5.8
-25 -3 4 55.09 8.4
-25 3 3 61.79 7
25 3 -3 57.49 9.1
25 3 -3 60.59 8
-25 -3 3 45.9 7.9
-25 -3 3 45.3 5.7
25 3 -2 106.99 9.5
25 3 -2 100.89 11.7
-25 -3 2 109.09 8.1
-25 -3 2 110.19 10.6
25 3 -1 14.6 4.4
-25 3 1 7 3.3
25 3 -1 12.9 6.3
-25 -3 1 11.4 4.1
-25 -3 1 8.1 5.6
-25 3 0 9.3 3
25 3 0 6.6 6.2
25 3 0 6.6 4.4
-25 -3 0 5.1 4
-25 -3 0 8.6 5.7
25 3 1 66.59 7.7
-25 3 -1 65.79 5.2
25 3 1 43.5 9.6
-25 -3 -1 57.99 8.6
25 -3 1 62.99 7.9
-25 -3 -1 61.09 7.6
25 3 2 198.68 12.9
25 3 2 215.58 17.8
25 -3 2 202.78 13.6
-25 -3 -2 197.98 13.3
-25 -3 -2 201.88 15.4
25 3 3 4.5 4.7
25 3 3 7.5 7.6
-25 -3 -3 4.9 4.1
25 -3 3 0.7 4
25 3 4 247.48 20.1
25 3 4 265.87 16.3
25 -3 4 283.07 17.5
25 3 5 12.3 7.5
25 3 5 27.2 6
25 -3 5 26.5 7.1
25 3 6 10.9 5.4
25 3 6 5.7 8.2
25 -3 6 9.9 6
25 3 7 -0.2 7.5
25 -3 7 0 6.4
25 -3 7 -1.1 2.4
25 -3 7 -0.1 2.2
25 3 8 3.1 7.7
25 -3 8 -0.4 2.7
25 -3 8 1.7 6.4
25 3 9 59.79 13.1
25 -3 9 63.69 10.9
25 -3 9 54.39 6.4
25 3 10 -11.1 7.7
25 -3 10 -4.6 3.9
25 -3 10 -1.3 6.5
-25 4 10 -1 7.2
-25 -4 10 2.4 8.8
25 -4 -10 -1.2 4.7
-25 4 9 4.5 5.8
25 -4 -9 9.7 7
-25 -4 9 -6.2 5.9
-25 4 8 117.29 13.2
-25 -4 8 75.29 11.5
25 -4 -8 83.29 13.4
25 4 -7 24.6 6
-25 4 7 26.1 7.5
25 -4 -7 35.2 9.4
-25 -4 7 26 8.1
25 4 -6 89.49 10.9
-25 4 6 73.09 9.7
-25 -4 6 71.79 10
25 -4 -6 67.09 11.9
-25 4 5 25.2 6
25 4 -5 21.8 7.7
25 -4 -5 46.9 9.9
-25 -4 5 33.3 4.7
-25 -4 5 23.7 7.4
-25 4 4 131.79 10.8
25 4 -4 133.99 13
-25 -4 4 120.89 8.5
-25 -4 4 126.39 12.4
-25 4 3 72.89 7.6
25 4 -3 51.09 9.9
25 4 -3 45.5 8.6
-25 -4 3 47.5 7.9
-25 -4 3 59.89 6.7
-25 4 2 106.99 8.4
25 4 -2 98.49 12.9
25 4 -2 100.39 9.6
-25 -4 2 105.29 11.2
-25 -4 2 118.59 9.1
-25 4 1 43.7 5
25 4 -1 32.7 6.1
25 4 -1 23.7 8.6
-25 -4 1 25.1 7
-25 -4 1 24.2 6.1
25 4 0 -1.6 6.5
-25 4 0 3.4 2.4
-25 -4 0 7.3 4.5
-25 -4 0 11.9 6.5
25 4 1 20.8 5.8
25 4 1 3.2 7.1
-25 -4 -1 25.8 6.4
-25 -4 -1 3.9 5.5
25 4 2 9.8 4.8
25 4 2 11.2 7.6
-25 -4 -2 3.2 4.8
-25 -4 -2 6.6 5.9
25 4 3 240.68 16.1
25 4 3 266.07 21.7
25 -4 3 262.37 17.8
25 4 4 593.74 30.5
25 4 4 673.93 37.1
25 -4 4 634.64 31.3
25 4 5 46.3 11.2
25 -4 6 5.8 6.1
25 4 7 42 11.7
25 -4 7 32.5 8
25 4 8 -6.4 7.3
25 -4 8 -9.3 5.7
25 4 9 31.2 11.2
25 -4 9 43.7 10.2
-25 5 9 1.8 7.6
-25 -5 9 3.7 7.3
25 -5 -9 -13.8 7.4
-25 5 8 2.6 5.7
-25 -5 8 12.7 6.8
25 -5 -8 -13.1 8.2
25 5 -7 7.6 5.9
-25 5 7 15.1 6.9
-25 -5 7 3.7 5.7
25 5 -6 22.3 8.2
-25 5 6 26.5 8
-25 -5 6 12 6.7
25 -5 -6 9.6 7.8
-25 -5 6 17.8 4.5
-25 5 5 16.8 5.5
25 5 -5 31.8 8.6
-25 -5 5 15 6.4
25 -5 -5 26.2 9.5
-25 5 4 9.2 4.8
25 5 -4 13.6 7.2
-25 -5 4 -4.1 4.7
25 -5 -4 2.7 7.3
-25 -5 4 5.9 4
-25 5 3 -2.8 3.1
25 5 -3 -1.8 6.8
-25 -5 3 -1.9 3.6
-25 -5 3 -4.3 5.1
-25 5 2 2.8 3.6
25 5 -2 0.3 6.8
-25 -5 2 3.9 5.9
25 5 -1 45.2 10.5
-25 5 1 36.3 4.6
-25 -5 1 25.8 5.9
-25 -5 1 26.7 7.9
25 5 0 13.9 8.8
-25 5 0 17.1 2.5
-25 -5 0 27.3 6.3
-25 -5 0 18.3 7.8
25 5 1 41.4 10.7
-25 -5 -1 45.9 10.9
-25 -5 -1 33.4 8.9
25 5 2 56.69 18.2
-25 -5 -2 48.9 10.5
25 5 3 126.29 17.5
25 5 4 10.5 9.1
25 5 5 59.69 13.5
25 -5 5 37.7 8.4
25 5 6 8.8 8.6
25 -5 6 11.5 7.1
25 5 7 30.8 10.9
25 -5 7 13.9 7.5
25 5 8 -12.1 7.8
25 -5 8 6.7 7.2
25 5 9 6.1 14.6
25 -5 9 3.1 8.2
-25 -6 9 10 7.6
25 -6 -9 3.9 10
-25 6 8 12.2 7.8
-25 -6 8 11 7.8
25 -6 -8 4.4 10.2
-25 6 7 20.9 7
25 6 -7 6.6 6.9
-25 -6 7 14.8 4.8
-25 -6 7 6.7 6.9
-25 6 6 27.9 8
25 6 -6 31.1 8.4
-25 -6 6 31.1 6.7
-25 -6 6 15.3 8.1
-25 6 5 69.59 10.6
25 6 -5 56.39 11.5
-25 -6 5 66.19 7.7
-25 -6 5 61.49 10.5
-25 6 4 66.89 8.9
25 6 -4 51.49 11.3
-25 -6 4 65.39 8.2
-25 -6 4 48 8.6
-25 6 3 92.99 9.1
25 6 -3 83.39 13.7
-25 -6 3 83.39 8.3
-25 -6 3 68.69 10.8
25 6 -2 57.89 12.7
-25 -6 2 62.99 8
-25 -6 2 42.5 9.1
-25 6 1 -3.1 2.3
25 6 -1 -2.9 7.5
-25 -6 1 5 6.6
-25 -6 1 1.1 4.3
25 6 0 4.9 8.8
-25 -6 0 5.1 6.5
25 6 1 30.3 11.1
-25 -6 -1 26.9 9.3
25 6 2 5.1 9
-25 -6 -2 3.2 8.3
25 6 3 29.1 11.5
25 6 4 2.2 9.4
25 6 5 30.2 12.2
25 6 6 16.9 11.2
25 -6 6 2.6 5.3
25 6 7 18 11.6
25 -6 7 7.1 7.4
25 6 8 -20 12.4
25 -6 8 -1.6 5.9
-25 7 8 -5.3 5.5
-25 -7 8 -6.6 5.7
25 7 -7 11 8
-25 -7 7 13.8 7.4
-25 7 6 1 4.2
25 7 -6 26 8.3
-25 -7 6 8.8 7.1
25 7 -5 10.7 8.8
-25 7 5 32.2 8.8
-25 -7 5 0.2 6.9
-25 -7 5 28.8 6.3
-25 7 4 7 5.7
25 7 -4 11.2 9
-25 -7 4 29 8.5
-25 -7 4 -1.7 6.3
25 7 -3 11.8 9.3
-25 -7 3 -3 5.7
25 7 -2 146.99 20.9
-25 -7 2 157.78 15.3
-25 7 1 -0.3 3.3
-25 7 1 0.3 2.9
25 7 -1 5.6 8.4
-25 -7 1 -0.7 5.8
25 7 0 -9.8 7.7
-25 -7 0 -6.3 6.7
25 7 1 93.49 16.6
-25 -7 -1 93.69 13.3
25 7 2 49.2 13.3
-25 -7 -2 67.29 12.2
25 7 3 49.4 15.2
25 7 4 57.39 14.2
25 7 5 16.9 10.9
25 7 6 -5.3 7.1
25 7 7 11.1 12
25 -7 7 20.6 10.8
-25 8 6 18.9 8.1
25 8 -6 -6.2 7.9
25 8 -5 14.2 8.7
-25 -8 5 1.2 6.1
25 8 -4 14 11.5
-25 -8 4 5.5 7.4
25 8 -3 49.9 13
-25 -8 3 49.1 10
-25 8 2 5.4 4.6
25 8 -2 5.8 9.7
-25 -8 2 -0.3 6.5
-25 8 1 45.2 5.2
25 8 -1 43.1 13
-25 -8 1 24.1 9.7
25 8 0 5.5 9.5
-25 -8 0 16 8.6
25 8 1 -2.7 8.7
-25 -8 -1 12.7 8.9
25 8 2 -14.2 7.5
25 8 3 15.2 11.1
25 8 4 13.2 11.9
25 8 6 13.8 10.7
25 9 -5 13.2 10
-25 -9 5 10.3 7.3
25 9 -4 8.4 10.4
-25 9 4 -3.5 6.3
25 9 -3 24.5 11.9
-25 9 3 6.7 5.8
-25 -9 3 9.3 8.5
25 9 -2 5.2 10.8
-25 -9 2 9.3 8.2
25 9 -1 2.5 11.3
-25 9 1 0 1.8
-25 -9 1 0.7 8.5
25 9 0 27.4 13
-25 -9 0 35.9 10.8
25 9 1 -4.7 9.5
-25 -9 -1 10.9 8.6
25 9 2 7.1 11.7
25 9 4 103.49 22.7
-26 0 11 3.1 7.1
-26 0 10 76.39 11.1
-26 0 9 9.6 7.5
-26 0 8 81.49 12.6
-26 0 7 -3.5 5.1
26 0 -7 -6.6 2.7
-26 0 6 39.6 8.3
26 0 -6 53.29 6.3
-26 0 5 7.8 5.3
26 0 -5 2.5 5.3
26 0 -4 38.5 6
26 0 -4 31.8 6.6
-26 0 4 38.6 6.8
26 0 -3 1.3 4
-26 0 3 -1.1 3.9
26 0 -3 7.7 4.2
26 0 -2 1045.7 43
26 0 -2 1013.8 42.9
-26 0 2 1057.39 42.6
26 0 -1 1.3 4.1
-26 0 1 -4.2 3.5
26 0 -1 -4.1 2.7
26 0 0 11.6 4.8
-26 0 0 9.8 4.3
26 0 0 11.6 3.6
-26 0 -1 0.8 4.1
26 0 1 1.4 2.8
26 0 1 -3.7 4.3
-26 0 -2 264.87 17.6
26 0 2 319.87 15.1
26 0 2 314.37 18.2
26 0 3 0.8 4.6
26 0 3 -7.3 2.6
26 0 4 219.48 12.5
26 0 4 223.88 16.3
26 0 5 -1.6 3.7
26 0 6 77.29 7.9
26 0 6 94.79 12.3
26 0 7 2.8 6
26 0 7 1.3 4.9
26 0 8 36.6 10
26 0 9 -0.3 7.1
26 0 10 5.3 5.1
26 0 10 14.1 8.4
-26 1 11 4.9 7.3
-26 -1 11 9.4 9.8
-26 1 10 -1.1 5.8
-26 -1 10 6.4 6.5
-26 1 9 7.7 6.7
-26 -1 9 -7.6 5.5
-26 1 8 22.5 8.2
26 -1 -8 10.5 4.2
-26 -1 8 21.6 6.5
26 -1 -8 11.4 3.1
-26 1 7 1.1 4.4
26 1 -7 6.7 3.5
26 -1 -7 4.1 2.9
-26 -1 7 -1.1 5.2
26 -1 -7 4.4 4.8
-26 1 6 13.7 6
26 1 -6 9.1 4.4
26 -1 -6 9 3.7
-26 -1 6 7.4 5.6
26 -1 -6 6.8 6.1
26 1 -5 0.6 4.8
26 1 -5 13.8 4.7
-26 1 5 18.5 5.5
26 -1 -5 9.6 3.8
-26 -1 5 13.5 6.4
26 -1 -5 11.4 6
26 1 -4 38.8 7.1
-26 1 4 53.69 7.3
26 1 -4 38.7 6.7
-26 -1 4 45.8 7.5
26 -1 -4 64.09 6.3
26 -1 -4 59.49 9
-26 1 3 101.69 9.4
26 1 -3 90.49 9.1
26 1 -3 133.89 10.4
26 -1 -3 124.49 10.5
-26 -1 3 120.29 10.1
26 -1 -3 108.79 8.6
-26 1 2 137.99 9.7
26 1 -2 158.38 10.7
26 1 -2 133.39 11.2
26 -1 -2 131.89 10
26 -1 -2 145.49 9.9
-26 -1 2 144.59 10.7
26 1 -1 78.89 9.2
26 1 -1 65.19 7.3
-26 1 1 73.69 7.1
26 -1 -1 84.49 7.5
-26 -1 1 75.29 8
26 -1 -1 87.79 8.2
26 1 0 13.6 5.6
-26 1 0 17 4.6
26 1 0 20.9 4.5
26 -1 0 15.9 3.9
26 -1 0 16.6 5
-26 -1 0 19.6 5.3
26 1 1 22.5 6.5
-26 1 -1 14.4 4.6
26 1 1 26.5 4.8
-26 -1 -1 23.2 5.8
26 -1 1 18.8 5.6
26 -1 1 13.3 4.3
26 1 2 103.79 8.4
-26 1 -2 99.69 9.1
26 1 2 110.39 11.4
26 -1 2 94.19 7.2
-26 -1 -2 107.29 10.6
26 -1 2 117.29 10.3
26 1 3 6.4 3.7
26 1 3 2.9 5.5
26 -1 3 -2.3 2.6
26 -1 3 -1.2 4.1
26 1 4 127.19 13.6
26 1 4 123.99 9.6
26 -1 4 123.59 11.4
26 1 5 25.8 8.9
26 1 5 19.8 5
26 -1 5 20.6 4.2
26 -1 5 16.9 10.1
26 1 6 120.89 13.7
26 1 6 123.89 12.5
26 -1 6 154.48 13.6
26 -1 6 125.59 9.5
26 1 7 144.49 14.9
26 -1 7 121.09 10.8
26 -1 7 115.59 13.5
26 1 8 3.2 5.7
26 1 8 7.3 6.4
26 -1 8 1.1 6.3
26 1 9 41.7 10.3
26 -1 9 31.2 6.9
26 -1 9 30.1 9.1
26 1 10 15.5 9
26 -1 10 3.2 5
26 -1 10 -8.3 6.2
-26 2 10 14 7.3
-26 -2 10 5.3 6.9
-26 2 9 -3 5.4
26 -2 -9 -2.3 1.4
-26 -2 9 4.3 6.5
26 -2 -9 -4.6 2.6
-26 2 8 0.3 5.3
-26 -2 8 4 6.4
26 -2 -8 1.5 2.6
26 -2 -8 -2.5 5.8
26 2 -7 21.9 4.8
-26 2 7 8.3 5.5
26 -2 -7 17.1 6.7
-26 -2 7 21.3 7.2
-26 2 6 3.8 5
26 2 -6 13.7 5.2
26 -2 -6 15.4 6.7
26 -2 -6 4.9 3.1
-26 -2 6 2.3 5.4
26 2 -5 1.8 5.9
-26 2 5 6.5 4.8
26 -2 -5 6.7 3.7
-26 -2 5 0.7 5.1
26 -2 -5 9 5.1
-26 2 4 111.09 10
26 2 -4 106.19 10.4
26 2 -4 102.29 10.1
26 -2 -4 94.79 10.3
26 -2 -4 91.69 8
-26 -2 4 117.39 11
26 2 -3 31.7 7.2
-26 2 3 36.5 6.1
26 2 -3 23.5 5.5
-26 -2 3 27.3 6.3
26 -2 -3 35.8 7
26 -2 -3 34.3 5.3
26 2 -2 51.39 7.1
-26 2 2 57.99 6.7
26 2 -2 57.69 8.8
-26 -2 2 50.09 7.2
26 -2 -2 56.69 7.7
26 -2 -2 64.49 6.7
26 2 -1 0.6 5.2
-26 2 1 0.2 3.3
26 2 -1 -1.3 3.5
-26 -2 1 9.9 4
26 -2 -1 0.2 3.5
-26 -2 1 14.1 5.4
26 -2 -1 11.9 4.5
26 2 0 118.59 12.1
26 2 0 131.49 9.7
-26 2 0 125.99 8.2
-26 -2 0 125.69 9.5
-26 -2 0 133.89 10.9
26 -2 0 116.79 8.6
26 -2 0 132.39 10.2
26 2 1 0 3.5
-26 2 -1 2.1 3.3
26 2 1 2.8 5.8
26 -2 1 -3 2.4
26 -2 1 -9.8 3.2
-26 -2 -1 -2.8 3.9
-26 -2 -1 -3.5 4.3
26 2 2 37.5 8.7
26 2 2 36.8 5.9
26 -2 2 37.7 4.5
-26 -2 -2 26.4 7.5
-26 -2 -2 37.9 6.3
26 -2 2 37 6.6
26 2 3 224.08 13
26 2 3 207.08 17.1
26 -2 3 225.68 14.6
-26 -2 -3 189.28 13.1
26 -2 3 200.58 9.9
26 2 4 3.8 4.3
26 2 4 -6.7 5.5
26 -2 4 -1.3 2.1
26 -2 4 1.4 4.4
26 2 5 12.1 5.7
26 2 5 13.5 7.9
26 -2 5 8.4 6
26 -2 5 13.1 3.1
26 2 6 20 7.9
26 2 6 18.4 5.6
26 -2 6 3 5.5
26 -2 6 10.3 3.6
26 2 7 4.8 5.6
26 2 7 19.7 9
26 -2 7 13 6.4
26 -2 7 3.2 3.6
26 2 8 9.5 8.1
26 -2 8 5.9 6.5
26 2 9 22.3 9.3
26 -2 9 18.1 5.3
26 -2 9 6.5 6.8
26 2 10 -5.9 7.4
26 -2 10 8.4 6.8
26 -2 10 -4.2 4.4
-26 3 10 9.9 9.6
26 -3 -10 2.4 2.5
-26 3 9 16.5 8.6
26 -3 -9 9.7 2.7
-26 -3 9 16 6.8
-26 3 8 -4.8 5.2
26 -3 -8 -0.8 2.8
-26 -3 8 -0.4 6.1
26 -3 -8 -7.4 5.6
26 3 -7 10.9 4.6
-26 3 7 9.7 6.6
-26 -3 7 14.2 7.1
26 -3 -7 15.9 7.4
-26 3 6 13.9 5.6
26 3 -6 25.7 6.4
-26 -3 6 21.2 7.5
26 -3 -6 8.8 7.2
26 3 -5 51.39 8
-26 3 5 29.9 7.6
26 3 -4 25.1 7
-26 3 4 22.2 5.7
26 3 -4 22.4 6.7
-26 -3 4 15.7 6.3
-26 -3 4 14.6 3.9
26 3 -3 25.1 7.5
26 3 -3 8.9 5
-26 3 3 10.5 4.4
-26 -3 3 4.3 5.8
-26 -3 3 16.7 4
-26 3 2 157.88 10.3
26 3 -2 143.69 13.2
26 3 -2 122.09 10.9
-26 -3 2 164.68 10.3
-26 -3 2 148.19 11.7
-26 3 1 1.6 3
26 3 -1 -7.2 5.6
26 3 -1 -2.8 3.6
-26 -3 1 -3.4 4.7
-26 -3 1 2.7 3.5
26 3 0 23.5 8.3
-26 3 0 34.3 4.2
26 3 0 38.1 8.9
26 -3 0 29.1 4.7
26 -3 0 25.9 5.7
-26 -3 0 34.6 6.7
-26 3 -1 24.7 3.7
26 3 1 25.6 8.4
26 3 1 17.9 5.3
-26 -3 -1 13.4 6.5
26 -3 1 25.4 6.1
-26 -3 -1 20.4 5.3
26 3 2 124.99 14.5
26 3 2 117.79 15.1
-26 -3 -2 114.79 12.5
26 -3 2 133.79 11.1
-26 -3 -2 129.29 10.6
26 3 3 2.1 5
26 3 3 -6.3 6.4
26 -3 3 4.2 4.7
26 3 4 33.6 9
26 3 4 27.2 6.3
26 -3 4 48.6 8.8
26 3 5 155.28 16.5
26 3 5 136.89 12.2
26 -3 5 137.09 12.8
26 3 6 -5.8 6.3
26 -3 6 -0.3 5.4
26 3 7 17.7 9.5
26 -3 7 18.3 7.7
26 3 8 10.2 8.3
26 -3 8 12.9 3.2
26 -3 8 4.9 7
26 3 9 -8.1 8.5
26 -3 9 8.5 3.7
26 -3 9 15.7 7.9
-26 4 10 2.9 6.2
-26 -4 10 2.6 7.8
26 -4 -10 -9.9 5.1
-26 4 9 15.1 8.3
-26 -4 9 11.8 7.9
26 -4 -9 10.8 7.3
-26 4 8 2.5 6.1
26 -4 -8 13.5 7.1
-26 -4 8 -0.7 6.3
-26 4 7 5.8 5.9
26 4 -7 32.1 6.4
-26 -4 7 25.6 8
26 -4 -7 20.1 9
-26 4 6 7.2 5.4
26 -4 -6 10.1 7.6
-26 -4 6 -1.3 4.7
26 4 -5 79.99 11.2
-26 4 5 86.59 8.9
-26 -4 5 77.49 6.7
26 -4 -5 70.89 11.6
-26 -4 5 83.79 10.8
-26 4 4 77.49 8.3
26 4 -4 53.39 9.5
-26 -4 4 61.79 6.2
-26 -4 4 46.6 9.4
-26 4 3 34.6 6.2
26 4 -3 31.6 9.1
-26 -4 3 29.8 7.8
-26 -4 3 55.09 6.4
26 4 -2 0.4 4.2
26 4 -2 -9.2 5.3
-26 -4 2 -1.2 5.7
-26 -4 2 5.1 3.7
26 4 -1 14.1 7.9
26 4 -1 2.5 3.9
-26 4 1 8 3.2
-26 -4 1 11.5 6.8
26 4 0 -0.5 4.3
26 4 0 18 7.9
-26 4 0 10.3 2.8
-26 -4 0 -0.6 4
-26 -4 0 12.6 7
26 4 1 8 7.8
26 4 1 -2.2 4
-26 -4 -1 2.5 4.5
-26 -4 -1 -0.7 5.8
26 4 2 160.58 17
26 4 2 145.39 11.9
-26 -4 -2 143.79 14.2
26 4 3 207.38 21
26 4 3 217.98 15.4
26 -4 3 209.28 14.4
26 4 4 12.1 8.4
26 -4 4 10.3 5.9
26 4 5 29 9.8
26 -4 5 10.7 6.5
26 4 6 0.9 6.8
26 -4 6 -3.6 5.5
26 4 7 -2 7.7
26 -4 7 12 6.7
26 4 8 26.6 11.2
26 -4 8 13.6 8
26 4 9 63.29 15.2
26 -4 9 77.49 13.8
26 -5 -9 15 9.4
-26 5 8 13.2 9.2
-26 -5 8 5.1 7.1
-26 5 7 -0.2 6
26 5 -7 -6.3 4.9
-26 -5 7 -1.1 6.1
26 -5 -7 -8.1 6.8
26 5 -6 59.89 10
-26 5 6 61.49 11.5
-26 -5 6 56.89 6.4
-26 -5 6 43.7 9.2
26 -5 -6 40.3 10.7
-26 5 5 -2 4.4
26 5 -5 -1.7 6.2
-26 -5 5 -3.4 5.6
-26 -5 5 6.4 3.9
26 -5 -5 -2.2 7.5
26 5 -4 7.9 7.5
-26 5 4 6.4 5.4
-26 -5 4 -1.8 5.7
-26 -5 4 1.4 3.6
26 -5 -4 11.6 7.7
-26 5 3 54.49 7.9
26 5 -3 59.69 11.6
-26 -5 3 42.8 8.6
-26 -5 3 56.99 7.6
26 5 -2 355.06 24.8
-26 5 2 338.27 18.2
-26 -5 2 306.17 22.7
-26 -5 2 404.36 20.2
26 5 -1 38.5 10
-26 5 1 12.9 3.4
-26 -5 1 31.9 6.1
-26 -5 1 4.1 9.1
-26 5 0 6.7 2.2
26 5 0 3.7 7.7
-26 -5 0 9.6 5
-26 -5 0 2.2 6.8
26 5 1 5.7 8.1
-26 -5 -1 -9.2 5.7
26 5 2 4.7 8.9
-26 -5 -2 6.4 11.4
26 5 3 72.89 13.7
26 5 4 97.39 15.9
26 -5 4 70.39 10.3
26 5 5 7.4 8
26 -5 5 -3.7 5.2
26 5 6 17.2 10.2
26 -5 6 0.8 6.2
26 5 7 -5.2 8.6
26 -5 7 -3.6 5.9
26 5 8 -7.5 9.2
26 -5 8 -5.8 6.3
-26 6 8 143.19 17.1
26 6 -7 13.2 6.8
-26 6 7 5.6 5.8
-26 -6 7 -6.3 6.3
-26 -6 7 1.9 3.8
26 6 -6 4.2 6.4
-26 6 6 5.6 7.5
-26 -6 6 -3.8 4.7
-26 -6 6 1.7 6
-26 6 5 55.69 10
26 6 -5 65.89 11.8
-26 -6 5 44.6 9.2
-26 -6 5 82.09 9.4
-26 6 4 57.29 8.1
26 6 -4 29.3 10.2
-26 -6 4 33.7 8.5
-26 6 3 -6.1 3.3
26 6 -3 -7.4 6.6
-26 -6 3 -5.9 4.2
-26 -6 3 -4.1 6.3
26 6 -2 -7.5 7.4
-26 6 2 -1.8 3.6
-26 -6 2 -0.2 5.2
-26 -6 2 1.6 4.2
26 6 -1 20.4 9.8
-26 6 1 9.9 3.1
-26 -6 1 17.7 7.2
-26 -6 0 18.1 8
26 6 1 141.89 17.2
-26 -6 -1 126.99 15.6
26 6 2 6.5 8.9
-26 -6 -2 -3.1 7.2
26 6 3 -1.9 7.7
26 6 4 3.1 8.8
26 6 5 37.8 12.5
26 6 6 74.69 15.7
26 -6 6 67.59 10.8
26 6 7 12.9 9.9
26 -6 7 7.5 7.5
26 6 8 -4.6 8.4
26 7 -7 2 7.2
26 7 -6 9 7.9
-26 7 6 -3.7 6.5
-26 -7 6 5 7.3
26 7 -5 10.4 8.7
-26 7 5 -0.6 6.2
-26 -7 5 0.2 6.8
26 7 -4 12.5 9
-26 7 4 8.9 6.6
-26 -7 4 7.1 5.4
-26 -7 4 1.4 7.1
26 7 -3 35.9 11.5
-26 -7 3 42.9 10
26 7 -2 135.29 26.7
-26 -7 2 118.59 14.2
26 7 -1 18.5 9.7
-26 7 1 -0.2 3.2
-26 -7 1 9.6 7.5
26 7 0 2.9 9.4
-26 -7 0 5 7
26 7 1 66.19 14
-26 -7 -1 55.09 10.8
26 7 2 -4.7 8.1
-26 -7 -2 2.3 7
26 7 3 37.6 12.9
26 7 4 11.4 10.8
26 7 5 35.4 14.7
26 -7 6 4.4 6.5
26 7 7 -1.2 9.2
26 8 -6 7.4 9
-26 -8 6 17 9.2
26 8 -5 9.8 8.6
-26 -8 5 -0.2 7.4
26 8 -4 17.7 10.3
-26 -8 4 29.5 9.4
26 8 -3 39.6 13.2
-26 -8 3 45.1 10.5
26 8 -2 5.8 10.4
-26 8 2 12.2 4.4
-26 -8 2 -1.3 6.7
26 8 -1 38.6 14.3
-26 8 1 33.4 3.9
-26 -8 1 60.19 11.4
26 8 0 6.8 9.9
-26 -8 0 -4 7.6
26 8 1 -2.4 9.4
-26 -8 -1 -1.2 8.5
26 8 2 -8.5 8.8
26 8 3 -0.9 10.7
26 8 4 7.2 10.8
26 8 5 11.2 12.4
26 9 -4 -7.1 9.4
-26 9 4 17.5 7.4
-26 -9 4 8.5 7.8
-26 9 3 38.5 6.8
26 9 -3 0.4 11.4
-26 -9 3 19 12.4
26 9 -2 13.5 9.8
-26 -9 2 10.7 13.1
26 9 -1 10.7 10.9
-26 9 1 2.4 1.7
-26 -9 1 -7.2 7.9
26 9 0 -13.4 8.6
-26 -9 0 1.2 8.1
26 9 1 -8.2 8.5
-26 -9 -1 14 13.4
26 9 2 4 12.3
26 9 3 13 11.9
-27 0 10 0.8 6.7
-27 0 9 1.3 6.2
-27 0 8 9.7 5.9
27 0 -7 -4.3 2.9
-27 0 7 -3.9 5
-27 0 6 49.8 8.3
27 0 -6 57.99 6.8
27 0 -5 -3.3 5.4
27 0 -5 -1.2 3.3
-27 0 5 -6.5 3.9
27 0 -4 133.39 19.9
27 0 -4 165.78 11
-27 0 4 155.28 12
-27 0 3 1.8 4.2
27 0 -3 -0.2 3.9
27 0 -3 -1.2 3.9
27 0 -2 5.9 4.5
-27 0 2 12.3 4.8
27 0 -2 7.4 4
27 0 -1 -5.2 3.7
-27 0 1 3.1 4.2
27 0 -1 0.9 3.4
27 0 0 86.69 9.2
-27 0 0 76.29 8.1
27 0 0 80.19 7.3
27 0 1 2 3
-27 0 -1 4.4 4.6
27 0 1 9.3 5.1
-27 0 -2 42.5 7.9
27 0 2 65.59 9.2
27 0 2 68.69 6.5
27 0 3 -5.7 2.8
27 0 3 3.5 5.8
27 0 4 1.2 3.4
27 0 4 -4.2 5.1
27 0 5 1.6 3.6
27 0 5 1.1 5.2
27 0 6 45.3 6.7
27 0 6 27.2 7.9
27 0 7 0 4.1
27 0 7 5.4 6.6
27 0 8 50.59 10.5
27 0 9 -3.2 6.2
27 0 10 12.8 5.8
27 0 10 5.3 7.4
-27 1 10 -0.2 6.8
-27 -1 10 -0.1 5.3
-27 1 9 -1.7 5.4
-27 -1 9 10.6 7.6
-27 1 8 23.5 6.4
27 -1 -8 33.1 6
-27 -1 8 30.6 7.4
27 -1 -8 31 4.1
27 1 -7 2.1 3.4
-27 1 7 0.9 5
-27 -1 7 4.4 5.1
27 -1 -7 -2.9 2.8
-27 1 6 2.9 5.4
27 1 -6 -0.6 3.9
-27 -1 6 8 9.1
27 -1 -6 0.3 3.5
27 1 -5 26.9 6.6
-27 1 5 35.4 7.1
27 1 -5 33.1 6.7
-27 -1 5 29.9 7.4
27 -1 -5 42.6 5.6
27 -1 -5 24.6 7.5
27 1 -4 12.6 5.4
27 1 -4 3.9 4.6
-27 1 4 11.7 5.1
27 -1 -4 3 4.9
27 -1 -4 0.6 3.8
-27 -1 4 5.2 5.3
-27 1 3 3.9 4.2
27 1 -3 -1.3 3.8
27 1 -3 -2 4.4
27 -1 -3 0.2 3.7
-27 -1 3 1.8 4.2
27 -1 -3 -1.9 3.9
-27 1 2 1.3 3.9
27 1 -2 -1.2 4.3
27 1 -2 -1.9 3.5
27 -1 -2 -2 3.5
27 -1 -2 3 3.6
-27 -1 2 2 4.6
27 1 -1 25.8 6.3
-27 1 1 4 4
27 1 -1 8.6 4.1
27 -1 -1 9.7 4.4
27 -1 -1 17.5 4.4
-27 -1 1 15.6 5.2
27 1 0 116.49 11.3
27 1 0 114.39 9
27 -1 0 113.99 9.9
-27 -1 0 130.19 10
27 -1 0 133.09 8.9
27 1 1 45.3 6.1
27 1 1 26.4 6.7
-27 1 -1 36.9 5.8
-27 -1 -1 40.4 7.1
27 -1 1 43.8 5.3
27 -1 1 41 7
27 1 2 -1.1 3.2
-27 1 -2 4 4.6
27 1 2 -1.7 5.3
-27 -1 -2 1.3 5.2
27 -1 2 -7.5 4.1
27 1 3 285.27 19.5
27 1 3 280.47 15.2
27 -1 3 300.77 18.4
27 1 4 8.8 10.8
27 1 4 5.3 4.2
27 -1 4 4.2 6
27 1 5 75.19 11.4
27 1 5 78.89 8.2
27 -1 5 74.09 10.2
27 -1 5 73.39 6.9
27 1 6 41.4 9.5
27 1 6 41 6.4
27 -1 6 27.4 5.1
27 -1 6 42.1 9.1
27 1 7 143.29 12.7
27 1 7 152.38 15.5
27 -1 7 151.78 11.8
27 -1 7 143.39 15
27 1 8 34.9 9.9
27 -1 8 24.5 8.3
27 1 9 0.3 7
27 -1 9 4.2 7.7
27 -1 9 3.3 5
-27 2 10 -7 5.7
-27 2 9 8 7.2
-27 -2 9 8.7 6.6
-27 2 8 139.89 14.5
27 -2 -8 143.39 8.6
-27 -2 8 123.69 14.3
27 2 -7 -0.6 3.9
-27 2 7 4 5.6
-27 -2 7 -13.5 4.9
27 -2 -7 -8.8 5.1
27 -2 -7 0.4 2.8
27 2 -6 28.8 6.3
-27 2 6 25.1 7
-27 -2 6 29.6 7.4
27 -2 -6 32.5 4.6
-27 2 5 54.39 7.8
27 2 -5 46.2 7.4
27 -2 -5 39.5 8.1
-27 -2 5 35.5 8
27 -2 -5 52.29 6.1
-27 2 4 45.4 7.1
27 2 -4 39.6 7.9
27 2 -4 46.9 7.9
27 -2 -4 47.3 6.1
27 -2 -4 52.09 8.2
-27 -2 4 36.7 7.6
27 2 -3 184.08 14
-27 2 3 199.78 12.7
27 2 -3 184.18 13.2
-27 -2 3 174.68 13
27 -2 -3 178.68 11.4
27 -2 -3 205.48 14
-27 2 2 -0.8 3.4
27 2 -2 8.4 5.7
-27 -2 2 8.7 5.2
27 -2 -2 -3.8 3.4
27 -2 -2 2.2 4.1
27 2 -1 3.5 3.8
27 2 -1 -1.3 4.9
27 -2 -1 -2.8 3.5
-27 -2 1 5.5 3.8
27 -2 -1 5.5 4.2
-27 -2 1 3.7 5
27 2 0 138.79 10.3
27 2 0 151.98 13.6
-27 2 0 144.89 9.1
27 -2 0 144.09 10.7
-27 -2 0 129.29 11.6
27 2 1 34.5 8.2
27 2 1 26 5.5
-27 2 -1 19.7 4.3
27 -2 1 20.1 5.2
-27 -2 -1 20.5 5.4
-27 -2 -1 18.4 6.2
27 -2 1 27.3 4.2
27 2 2 51.19 10
27 2 2 70.49 8
-27 -2 -2 71.69 7.6
-27 -2 -2 78.99 10.7
27 -2 2 77.19 5.9
27 -2 2 84.19 9.1
27 2 3 0.5 4.1
27 2 3 -8.9 5.7
27 -2 3 4.6 2.5
27 2 4 4.1 4.1
27 2 4 -3.6 6.8
27 -2 4 2.5 2.3
27 -2 4 2.1 6.3
27 2 5 24.5 8.9
27 -2 5 45.2 8.7
27 -2 5 32.1 4
27 2 6 -0.9 4.2
27 2 6 4.1 6.6
27 -2 6 1.4 5.8
27 -2 6 -4.6 2.4
27 2 7 -6.7 6.5
27 2 7 3.9 5.6
27 -2 7 1.8 6.7
27 -2 7 1 3.4
27 2 8 17.3 8.8
27 -2 8 25.5 8.6
27 2 9 -20.2 6.5
27 -2 9 -1.6 4.3
27 -2 9 -0.4 7
-27 3 10 10.9 7.5
-27 -3 10 6.5 6.6
-27 3 9 -3.8 5.6
27 -3 -9 -5.9 2
-27 -3 9 -2.4 5.6
-27 3 8 81.39 12.4
-27 -3 8 84.99 12.5
27 -3 -8 91.79 7.5
27 -3 -8 114.99 13.5
-27 3 7 -4.9 5.2
27 3 -7 2.3 4.2
-27 -3 7 5.8 6.6
27 -3 -7 2.6 3.2
27 -3 -7 6.5 6.1
-27 3 6 5.3 5
27 3 -6 3.5 5.3
-27 -3 6 2.7 6.3
27 -3 -6 -5.5 6.2
-27 3 5 15.5 6.3
27 3 -5 24.5 7.2
-27 -3 5 21.9 7.2
27 3 -4 32.5 7.5
-27 3 4 38.6 6.3
-27 -3 4 30.6 7.9
27 3 -3 81.29 11
-27 3 3 99.79 8.8
27 3 -3 77.29 9
-27 -3 3 68.49 9.4
-27 -3 3 78.29 7.1
27 3 -2 24.2 7.6
-27 3 2 21.7 5
27 3 -2 29.7 6.4
-27 -3 2 36.3 7.5
-27 -3 2 28 5
27 3 -1 12.2 7.1
27 3 -1 4.8 4.4
-27 -3 1 9.8 6.2
27 -3 -1 5.2 4
27 -3 -1 1 3.9
-27 -3 1 3 3.6
-27 3 0 3.8 3
27 3 0 4.8 3.9
27 3 0 -1.5 6.2
27 -3 0 4 4.4
-27 -3 0 -3.4 3.5
27 -3 0 -1.3 2.8
-27 -3 0 -1.7 5
-27 3 -1 225.68 11.2
27 3 1 219.48 15.1
27 3 1 216.88 18.1
27 -3 1 216.88 13.9
-27 -3 -1 237.38 16.1
-27 -3 -1 243.98 14.4
27 3 2 1.1 4.1
27 3 2 1.2 6.9
27 -3 2 1.8 4.7
-27 -3 -2 1.6 3.9
-27 -3 -2 10.7 6.3
27 3 3 23.9 11.4
27 3 3 8.4 5
27 3 4 27.6 9.6
27 3 4 33.4 6.5
27 -3 4 16.3 6.2
27 3 5 35 10.1
27 3 5 18.3 6.4
27 -3 5 23.7 6.4
27 3 6 -5.4 7
27 -3 6 -8.9 4.8
27 3 7 26 9.6
27 -3 7 13.8 7.7
27 3 8 33.8 11
27 -3 8 34.6 4.6
27 -3 8 39.5 4.1
27 -3 8 41.3 9.5
27 3 9 4.4 8.1
27 -3 9 6.3 3.5
27 -3 9 8.3 7.6
-27 4 9 30.2 9.2
27 -4 -9 24.1 8.3
-27 -4 9 36.3 9.6
-27 4 8 16.2 7.5
27 -4 -8 0 7.1
-27 -4 8 7.8 6.6
-27 4 7 13.7 6.9
27 4 -7 2.2 5
27 -4 -7 4.6 7.3
-27 -4 7 11.4 6.9
-27 4 6 12.1 5.6
27 4 -6 11 7
-27 -4 6 1.2 5.7
27 -4 -6 1 7.4
27 4 -5 8.8 6.8
-27 4 5 25.1 7
-27 -4 5 28.3 4.7
-27 -4 5 26.8 6.8
27 -4 -5 15.7 9.5
-27 4 4 -3.1 3.9
27 4 -4 4.9 5.7
-27 -4 4 -4.3 5
-27 -4 4 3.9 3.3
-27 4 3 54.99 7
27 4 -3 65.09 11.1
-27 -4 3 57.99 6.6
-27 -4 3 49.5 12.8
-27 4 2 415.36 20.3
27 4 -2 338.67 23.5
-27 -4 2 413.46 20.2
-27 -4 2 366.66 21.7
27 4 -1 28.2 6.4
-27 4 1 31.9 4.4
27 4 -1 27.4 8.9
-27 -4 1 22.4 6.4
-27 -4 1 24.8 5.7
27 4 0 4.6 4.7
-27 4 0 4 2.6
27 4 0 -0.5 6.2
-27 -4 0 -5.4 4.6
-27 -4 0 5.8 4.6
27 4 1 11.7 4.8
27 4 1 17 7.7
-27 -4 -1 14.7 5.9
-27 -4 -1 8.6 6.8
27 4 2 79.39 17
27 4 2 68.09 9.1
27 -4 2 82.39 11.9
-27 -4 -2 108.09 12.4
27 4 3 21 8.8
27 -4 3 16.5 6.6
27 4 4 8.5 8.7
27 -4 4 3.2 5.8
27 4 5 45.2 11.2
27 -4 5 52.49 9
27 4 6 5 8.6
27 -4 6 21.3 7.8
27 4 7 10.7 9
27 -4 7 6.6 7.4
27 4 8 7.7 9.5
27 -4 8 -3.9 6.5
27 4 9 95.69 20.3
27 -4 9 73.79 13.8
-27 5 9 3.9 9.8
-27 -5 9 -0.3 7.2
27 -5 -9 8.2 11.1
-27 5 8 11.9 7.3
27 -5 -8 24.6 10.6
-27 -5 8 6.8 7.2
27 -5 -7 7.2 8.7
-27 -5 7 -1.8 6.5
27 5 -6 47.1 8.9
-27 5 6 43 11.1
27 -5 -6 31.9 10.2
-27 -5 6 46.4 9.2
-27 -5 6 29.4 5.6
27 5 -5 64.69 10.8
-27 5 5 58.59 9.6
-27 -5 5 57.49 6.9
27 -5 -5 53.19 11.7
-27 -5 5 48.8 10
-27 5 4 51.39 7.6
27 5 -4 49.8 10.7
-27 -5 4 66.39 7.3
-27 -5 4 38.7 8.1
27 -5 -4 31.1 9.6
-27 5 3 18.8 6
27 5 -3 32.4 9.5
-27 -5 3 20.8 7.5
27 5 -2 28.4 9
-27 -5 2 1.5 5.7
-27 -5 2 13.8 5.4
27 5 -1 28.4 9
-27 5 1 28.5 4.4
-27 -5 1 35.2 8.5
-27 -5 1 28 6
27 5 0 7.4 8.1
-27 -5 0 4.9 8.6
-27 -5 -1 -3.1 11.2
27 5 2 34.2 10.3
-27 -5 -2 32.4 9.4
27 5 3 -9.3 6.9
27 5 4 57.59 13.1
27 -5 4 36.4 8.5
27 -5 5 13.9 7.1
27 5 6 34.2 12.4
27 -5 6 63.39 11.7
27 5 7 46.3 12.9
27 -5 7 32.8 9.4
27 -5 8 23.4 9.1
-27 -6 8 27.3 9.9
27 6 -7 4.6 5.8
-27 6 7 -3.1 4.9
-27 -6 7 6.2 4.2
-27 -6 7 7.6 6.5
27 6 -6 10.8 7.8
-27 -6 6 9 7.8
27 6 -5 3.1 7.9
-27 6 5 8.8 8.1
-27 -6 5 9 5
-27 -6 5 4.7 6.7
-27 6 4 8.7 6.4
27 6 -4 2.5 8.1
-27 -6 4 12.5 5.9
-27 -6 4 8.5 5.9
-27 6 3 26.7 7.3
27 6 -3 26.3 9.4
-27 -6 3 35.7 7.8
-27 -6 3 20.2 7.5
27 6 -2 8.6 8.6
-27 -6 2 4.2 5.2
-27 -6 2 3 7.2
-27 6 1 79.39 6.5
27 6 -1 109.49 17.7
-27 -6 1 70.39 11.3
27 6 0 25.3 10.6
-27 -6 0 39.2 10
27 6 1 1.6 7.8
-27 -6 -1 -0.3 7.5
27 6 2 10 9.6
-27 -6 -2 17.1 9.1
27 6 3 8.5 9.2
27 6 4 47.9 13.2
27 6 5 23.5 12.5
27 -6 5 36 7.9
27 6 6 32.1 12.3
27 -6 6 12.5 6.1
27 -6 7 0.8 6.9
27 7 -7 22.6 8.3
-27 -7 7 17.3 8.7
27 7 -6 -5.1 7.4
-27 -7 6 7.7 6.8
27 7 -5 6.7 8.3
-27 -7 5 15.7 8
-27 -7 5 26.1 7.3
27 7 -4 28.1 10.8
-27 -7 4 18.5 7.9
27 7 -3 3.7 9.9
-27 -7 3 15.3 7.3
27 7 -2 154.98 18.6
-27 -7 2 143.19 14.5
-27 7 1 14.8 3.8
27 7 -1 22.3 10.6
-27 7 1 23.3 3.8
-27 -7 1 7.7 7.6
27 7 0 7.3 9.4
-27 -7 0 17.3 8.7
27 7 1 7.6 9
-27 -7 -1 7.1 7.8
27 7 2 21.4 11.1
-27 -7 -2 9.1 8.4
27 7 3 24.3 12.1
27 7 4 -4.1 7.8
27 7 5 0.5 8.9
27 7 6 22.5 11.5
27 8 -6 4.3 9.5
-27 -8 6 -8 6.6
27 8 -4 3 8.7
-27 -8 4 -6.7 6
27 8 -3 14.6 11
-27 -8 3 19.6 8.6
-27 8 2 1.3 4.1
27 8 -2 8.7 10.1
-27 -8 2 0 7.8
27 8 -1 4.2 10.1
-27 -8 1 10.9 8.5
27 8 0 -1.6 10
-27 -8 0 4.9 7.9
27 8 1 6.4 9.8
-27 -8 -1 -2.1 8.1
27 8 3 8.4 10.7
27 8 5 -18.4 8
27 9 -3 25.8 12.6
-27 -9 3 33.3 9.7
27 9 -2 -4.7 8.8
-27 9 2 -5 3.2
-27 -9 2 10.8 9.6
27 9 -1 1.9 9.6
27 9 0 -4.6 9.1
27 9 1 -1.1 10.2
-27 -9 -1 18.2 11.7
27 9 3 20.8 12.9
-28 0 10 4.8 9.6
-28 0 9 2.3 5.2
-28 0 8 16 7.3
28 0 -7 3.2 3.6
-28 0 7 4.6 5
28 0 -5 3 3.9
28 0 -5 11.5 5.9
-28 0 5 -7.7 4.2
28 0 -4 274.77 15.2
28 0 -4 248.68 16.7
-28 0 4 276.47 16.5
-28 0 3 1.2 4.1
28 0 -3 17.3 5.6
28 0 -3 0.1 4.3
-28 0 2 200.58 12.3
28 0 -2 195.08 13
28 0 -2 184.88 12.3
28 0 -1 -5.5 3
-28 0 1 -1.9 4.1
28 0 -1 2.2 4.4
28 0 0 59.49 6.5
-28 0 0 46 6.9
28 0 0 50.79 8.1
-28 0 -1 -3.6 4.2
28 0 1 -0.8 4.7
28 0 1 3.3 3.3
28 0 2 137.59 12.3
28 0 2 117.69 8.6
-28 0 -2 105.19 10.6
28 0 3 5.7 3.4
28 0 3 2.6 5.3
28 0 4 26.1 8.1
28 0 4 28.8 4.9
28 0 5 4.8 7
28 0 5 -5.3 3.2
28 0 6 49 7.4
28 0 6 60.09 10.6
28 0 7 -5.7 6.2
28 0 7 3.7 5.6
28 0 8 -3.1 6.3
28 0 9 9.9 6.7
-28 1 10 8.2 7.1
-28 -1 10 7.2 9.6
-28 1 9 -1.7 7.1
-28 -1 9 -3.5 4.9
-28 1 8 10.2 7.2
-28 -1 8 17.6 7.2
28 -1 -8 9.2 3.5
-28 1 7 -3.3 4.4
28 1 -7 -8 3.2
-28 -1 7 -3.5 5.3
28 -1 -7 -0.1 3.1
28 -1 -7 -4.3 4.7
28 1 -6 7.1 4.5
-28 1 6 9.4 5.5
28 -1 -6 -0.7 3.2
-28 -1 6 4.6 5.4
28 1 -5 13.6 5.1
-28 1 5 10.6 5.3
28 -1 -5 20.6 6.6
-28 -1 5 12 5.5
28 -1 -5 14.5 4.4
28 1 -4 23.4 6.5
-28 1 4 17.3 5.8
28 1 -4 15.8 5.7
28 -1 -4 33.7 11.1
-28 -1 4 19.9 5.8
28 -1 -4 22 4.9
28 1 -3 209.28 15.4
-28 1 3 203.58 13.2
28 1 -3 231.38 14.5
-28 -1 3 212.78 14
28 -1 -3 199.28 13.9
28 -1 -3 208.78 12.6
28 1 -2 17.6 5.1
-28 1 2 6.1 4.5
28 1 -2 21.2 6.4
-28 -1 2 6.5 5.3
28 -1 -2 15.2 4.9
28 -1 -2 15.8 4.9
-28 1 1 31.4 5.5
28 1 -1 25.9 6.6
28 1 -1 20.7 5
28 -1 -1 24.1 5
28 -1 -1 21.7 5.3
-28 -1 1 19.7 5.9
28 1 0 122.19 9.3
28 1 0 116.99 11.6
-28 1 0 116.69 9
28 -1 0 119.59 8.6
-28 -1 0 117.69 10.4
28 -1 0 116.79 10.2
28 1 1 36.9 5.8
28 1 1 16.2 6.6
-28 1 -1 28.4 5.7
28 -1 1 37.7 5
28 -1 1 27.1 6.6
-28 -1 -1 27.7 6.6
28 1 2 43.3 8.8
28 1 2 27.3 5.2
-28 1 -2 27.4 6.1
28 -1 2 24.2 4.4
28 -1 2 37 7.2
-28 -1 -2 23.9 7
28 1 3 41.4 9.2
28 1 3 26.9 5.2
28 -1 3 30 5.4
28 -1 3 22.9 7.3
28 1 4 85.89 12.1
28 1 4 93.39 8.3
28 -1 4 92.19 7.7
28 -1 4 65.89 10
28 1 5 19.4 8.1
28 1 5 8.8 4.8
28 -1 5 11.9 3.6
28 -1 5 16.8 7.1
28 1 6 5.5 4.5
28 1 6 7.2 6.2
28 -1 6 2.3 3.6
28 -1 6 -1.1 6.1
28 1 7 17.6 7.7
28 1 7 14.7 5.8
28 -1 7 11.6 5.1
28 -1 7 26.8 8.6
28 1 8 14.6 8.3
28 1 8 7.7 6.6
28 -1 8 7.4 7.1
28 -1 9 10.8 5.5
28 -1 9 6 8
-28 2 10 -12.2 7.1
-28 -2 10 -1.1 7.3
-28 2 9 16.6 7.3
-28 -2 9 19.4 7.5
-28 2 8 5.2 6.1
28 -2 -8 5.7 7.6
28 -2 -8 5.7 3.2
-28 -2 8 10 7.1
28 2 -7 6.3 4.4
-28 2 7 4 5.4
28 -2 -7 6.4 3.5
28 -2 -7 10.4 5.9
-28 -2 7 2.8 6.3
28 2 -6 15 5.6
-28 2 6 22.8 6.9
-28 -2 6 19.4 6.4
28 -2 -6 23.3 4.6
-28 2 5 199.98 14.8
28 2 -5 159.28 12.6
28 -2 -5 185.08 14.7
28 -2 -5 170.78 10.5
-28 2 4 16.9 6.1
28 2 -4 16.9 6.2
28 2 -4 13.8 5.5
28 -2 -4 16.9 6.6
28 -2 -4 14.3 4.4
-28 -2 4 17 6.7
-28 2 3 38.4 6.5
28 2 -3 41.4 7.1
28 2 -3 41.3 8
28 -2 -3 39.1 6.1
-28 -2 3 32.4 6.9
28 -2 -3 37.9 7.3
28 2 -2 6.2 4.4
28 2 -2 0.6 5.7
-28 2 2 8 4.1
28 -2 -2 8.8 4.2
-28 -2 2 7.3 5.3
28 -2 -2 18.9 5.4
28 2 -1 12.7 5
-28 2 1 10.9 4.2
28 2 -1 22.4 7
28 -2 -1 15.6 4.9
-28 -2 1 14.8 5.7
28 -2 -1 17.8 5
28 2 0 69.39 8.2
-28 2 0 100.49 7.4
28 2 0 101.39 11.7
-28 -2 0 85.99 9.7
28 -2 0 90.39 8.1
28 -2 0 107.09 9.6
-28 -2 0 89.59 8.4
28 2 1 9.1 3.9
-28 2 -1 -6.6 2.8
28 2 1 -0.8 4.9
28 -2 1 -1 3.6
28 -2 1 -0.3 2.7
-28 -2 -1 1.7 4.1
-28 -2 -1 4.3 5.1
28 2 2 35.4 8.5
28 2 2 46.4 6.5
-28 -2 -2 46.6 7.5
-28 -2 -2 43.3 9
28 -2 2 39.2 4.6
28 -2 2 35.7 7.2
28 2 3 608.14 28.1
28 2 3 619.24 41.6
28 -2 3 589.94 24.4
28 2 4 18 7.3
28 2 4 15.6 5.2
28 -2 4 6 5.7
28 -2 4 12.9 2.8
28 2 5 6.8 4.7
28 2 5 1.5 6.8
28 -2 5 -0.1 2.4
28 -2 5 13.2 6.4
28 2 6 -0.2 4.9
28 2 6 -5.3 4.6
28 -2 6 5.8 3
28 -2 6 2.3 5.8
28 2 7 2.8 7.5
28 -2 7 9.6 4
28 -2 7 5.4 6.9
28 2 8 4.6 8.4
28 -2 8 3.8 6.7
28 2 9 8.2 8.9
28 -2 9 17.2 5.4
28 -2 9 5.9 7.9
-28 -3 10 14.9 9.1
-28 3 9 3.2 6.1
-28 -3 9 10.4 6.6
-28 3 8 19.8 7.6
-28 -3 8 1.8 6.8
28 -3 -8 0.1 7.1
28 -3 -8 6.9 3.5
28 3 -7 2.4 4.4
-28 3 7 8.9 6.7
28 -3 -7 -4.6 3.2
28 -3 -7 -0.4 5.7
-28 -3 7 -2.2 5.1
-28 3 6 4.9 5.4
-28 -3 6 9.5 7
28 -3 -6 13.3 4.1
28 -3 -6 14 8
-28 3 5 62.09 9.6
28 3 -5 58.79 9.2
28 -3 -5 75.59 7.8
-28 -3 5 59.29 9.8
-28 3 4 21.9 6.1
28 3 -4 15.9 6.7
28 -3 -4 8.7 4.2
28 3 -3 191.88 15.5
-28 3 3 198.88 12.5
-28 -3 3 160.48 13.8
-28 -3 3 184.08 11.6
28 -3 -3 200.18 12.6
28 3 -2 119.59 10.9
-28 3 2 143.19 10
28 3 -2 138.49 13.9
-28 -3 2 124.79 9.5
-28 -3 2 105.99 11.5
28 -3 -2 138.49 10.1
-28 3 1 0.6 3.1
28 3 -1 4.3 4.7
28 3 -1 4.7 6.5
28 -3 -1 8 4
28 -3 -1 12.9 4.7
-28 -3 1 9.3 4.8
-28 -3 1 13 6.7
28 3 0 0.9 3.9
28 3 0 13.9 7.3
-28 3 0 12.1 3.5
28 -3 0 10.8 5.2
28 -3 0 4.2 3.5
-28 -3 0 2.7 5.4
-28 -3 0 13.5 5.1
28 3 1 148.79 15.2
28 3 1 139.79 11.5
-28 3 -1 155.38 8.8
28 -3 1 150.78 12
-28 -3 -1 160.68 13.4
28 -3 1 137.69 8.7
-28 -3 -1 151.68 11.5
28 3 2 -3.6 6.8
28 3 2 3.4 4.4
-28 -3 -2 -5.4 5.5
28 -3 2 0.8 4.5
28 3 3 413.56 27.6
28 3 3 432.76 22.4
28 -3 3 472.15 23.7
28 3 4 3.4 7.7
28 3 4 5.2 5.2
28 -3 4 17.8 6.2
28 3 5 14.8 6.8
28 3 5 20.3 9.3
28 -3 5 15 6.1
28 3 6 7.2 8.3
28 -3 6 4.7 6.4
28 3 7 52.69 12.4
28 -3 7 52.29 10.8
28 3 8 18.4 9.4
28 -3 8 11.9 7.6
28 -3 9 49 5.5
28 -3 9 69.69 12.2
-28 4 9 -6.2 5.4
28 -4 -9 -4.8 2.9
28 -4 -9 10.3 6.8
-28 4 8 15.4 7.2
28 -4 -8 17 9.2
-28 -4 8 15 7.1
28 4 -7 10.6 5.7
-28 4 7 10.8 7.9
-28 -4 7 8.6 5.9
28 -4 -7 -1.2 7.2
28 4 -6 6.8 5.8
-28 4 6 1.5 4.7
28 -4 -6 0.1 8
-28 -4 6 2.8 6.4
28 4 -5 25.6 8
-28 4 5 33.5 7
-28 -4 5 16.4 6.4
-28 -4 5 13 4
28 -4 -5 26.6 8.7
28 4 -4 -10.3 4.6
-28 4 4 7.1 5.7
-28 -4 4 6.7 6.5
-28 -4 4 -2.1 3.4
-28 4 3 31.6 6.3
28 4 -3 36.1 9.1
-28 -4 3 35.1 5.7
-28 -4 3 30.7 7.8
-28 4 2 3.2 3.6
28 4 -2 -3.9 6.9
-28 -4 2 4.4 3.8
-28 -4 2 9 5.4
-28 4 1 100.39 7.5
28 4 -1 121.99 14
-28 -4 1 130.69 10.4
-28 -4 1 103.09 11.8
-28 4 0 0.6 2.6
28 4 0 3.2 6.8
-28 -4 0 2.2 6.1
-28 -4 0 3.1 4.4
28 4 1 1.2 7.1
28 4 1 2 5.2
28 -4 1 8 6.7
-28 -4 -1 5.1 6.1
28 4 2 94.29 14.6
-28 -4 -2 112.49 13.8
28 -4 2 95.09 9.7
28 4 3 5 7.4
28 -4 3 8.1 5.6
28 4 4 15.4 8.7
28 -4 4 15.4 6.4
28 4 5 -6 7.1
28 -4 5 -0.4 5.4
28 4 6 11.9 9.3
28 -4 6 1.4 6.1
28 4 7 5.6 8.2
28 -4 7 1.4 6.4
28 4 8 -0.7 8.6
28 -4 8 6.1 8.3
-28 5 9 6.3 6.3
-28 -5 9 8.8 8.1
-28 5 8 18.3 8.2
-28 -5 8 5.7 6.7
28 -5 -8 6.4 9.8
-28 5 7 2.8 7.5
-28 -5 7 1.7 6.9
28 -5 -7 0.5 9.8
28 5 -6 19.1 7.7
-28 5 6 13.8 5.9
-28 -5 6 16.6 6.9
28 -5 -6 0.1 7.6
-28 -5 6 6.6 3.8
-28 5 5 4.7 4.4
28 5 -5 -5 6.1
-28 -5 5 1.3 3.8
28 -5 -5 3.8 8.1
-28 -5 5 2.8 5.4
-28 5 4 7.6 4.8
28 5 -4 20.7 8.4
-28 -5 4 19.7 7.9
-28 -5 4 8.1 4.2
-28 5 3 192.58 12.8
28 5 -3 159.88 16.8
-28 -5 3 167.78 11
-28 -5 3 137.49 14.1
28 5 -2 61.69 12.1
-28 -5 2 54.69 7.9
-28 -5 2 47.6 9.8
-28 5 1 4.4 3
28 5 -1 7.5 8.2
-28 -5 1 13.6 7.1
-28 -5 1 10.5 5.9
28 5 0 1.6 8.8
-28 -5 0 -2.6 5.3
28 5 1 16.4 9.3
-28 -5 -1 8 7.6
28 5 2 59.69 13
-28 -5 -2 48.9 10.7
28 5 3 21.9 10.5
28 -5 3 9.6 6.2
28 5 4 21.1 9.5
28 -5 4 1.6 6.2
28 5 5 20.3 11.1
28 -5 5 12.5 7.1
28 5 6 30.7 11.2
28 -5 6 16.9 7.9
28 5 7 20.1 9.7
28 -5 7 2.5 7.5
28 5 8 11.1 11.6
-28 -6 8 32.9 10.2
28 6 -7 -8.6 5.4
-28 6 7 4.4 5.7
-28 -6 7 -8.2 5.9
28 6 -6 13.6 7.8
-28 -6 6 8.6 5
-28 -6 6 9.2 6.6
28 6 -5 22.1 10.4
-28 -6 5 33.8 8.9
28 6 -4 49.4 11.8
-28 6 4 61.99 10.7
-28 -6 4 38.9 9.7
28 6 -3 -0.3 7.9
-28 -6 3 1.6 7
-28 -6 3 3.6 4.6
28 6 -2 23.3 9.5
-28 -6 2 11.4 7
28 6 -1 7.6 8.1
-28 6 1 3 2.6
-28 -6 1 2.1 7
28 6 0 3.1 7.7
-28 -6 0 -1.4 6.6
28 6 1 140.49 18.3
-28 -6 -1 78.99 12.5
28 6 2 -3.5 6.8
-28 -6 -2 35.7 11.9
28 6 3 12.1 10.3
28 6 4 12.7 9.3
28 6 5 1.9 9.5
28 -6 5 1.5 4.6
28 6 6 3.9 9.7
28 -6 6 7.8 6.1
28 6 7 4 10.2
28 7 -7 1.4 6.5
-28 -7 7 13.9 8.6
28 7 -6 -10.2 7.3
28 7 -5 -5 7.6
-28 7 5 5.4 6.7
-28 -7 5 -5.7 5.8
28 7 -4 -11.5 8.2
-28 -7 4 7.2 7.9
28 7 -3 7.2 9.2
-28 -7 3 0 6.4
28 7 -2 0.3 9.2
-28 -7 2 23.9 8.2
28 7 -1 -5.5 9.1
-28 7 1 -0.2 2.6
-28 7 1 4.3 2.5
-28 -7 1 -5.4 6.3
28 7 0 -6.5 8
-28 -7 0 12.1 9.1
28 7 1 -0.1 8.3
-28 -7 -1 1.2 7.1
28 7 2 11.7 10.8
-28 -7 -2 2.2 8
28 7 3 5.7 9.9
28 7 4 8.9 11
28 7 5 17.8 16.3
28 7 6 -6.1 10
28 -7 6 -5.2 7.2
28 8 -5 9.1 9
-28 -8 5 9 8
28 8 -4 -10.6 8.9
-28 -8 4 -4.3 9.1
28 8 -3 26.3 12.7
-28 -8 3 6.1 8.4
28 8 -2 -12.6 8.4
-28 8 2 6.3 3.9
-28 -8 2 3.5 7.3
28 8 -1 10.6 10.6
-28 -8 1 13.7 9
28 8 0 11.1 10.2
-28 -8 0 -4.9 6.9
28 8 1 0.7 10.9
-28 -8 -1 2.3 9
28 8 2 19 11.5
28 8 3 52.79 15.2
28 8 4 -4.6 10.1
28 9 -3 5.5 10.8
-28 9 3 -14.5 5.4
-28 -9 3 -1.4 8.6
28 9 -2 -25.8 8.9
-28 -9 2 1.6 7.6
28 9 -1 0.7 11.6
-28 -9 1 27 9.9
28 9 0 -5 9.9
-28 -9 0 24.1 10.1
28 9 1 0 11.1
-28 -9 -1 -8.2 7.8
28 9 2 14.5 13.1
-29 0 9 -7.4 6
29 0 -8 -3.9 2.5
29 0 -8 5.7 3.4
-29 0 8 -1.1 6.1
29 0 -7 -1.4 3.6
-29 0 7 -12.8 4.6
29 0 -6 -0.8 4
-29 0 6 0.3 5.3
29 0 -5 -2.1 3.7
-29 0 5 -3.5 4.6
29 0 -5 -4.9 5.1
29 0 -4 122.19 10.3
29 0 -4 120.89 11.3
-29 0 4 127.09 11.1
29 0 -3 -2.3 4.1
-29 0 3 0.3 4.6
29 0 -3 -2.8 3.8
29 0 -2 46.5 7
29 0 -2 54.19 7.7
-29 0 2 66.69 7.8
-29 0 1 7.1 4.7
29 0 -1 3.4 5.2
29 0 -1 1.3 3.2
29 0 0 181.48 11.4
29 0 0 178.38 13.5
-29 0 0 179.68 12
29 0 1 -1.3 4.9
-29 0 -1 8.7 5
29 0 1 3.2 3.3
29 0 2 87.09 7.9
-29 0 -2 91.19 10.3
29 0 2 85.09 11.1
29 0 3 1.9 3.3
29 0 4 -3.2 5
29 0 4 -2.2 3.3
29 0 5 2.1 6.7
29 0 5 10.1 4.1
29 0 6 275.57 15.9
29 0 6 271.27 20.4
29 0 7 -2.1 5.1
29 0 7 -1.5 6.8
29 0 9 15 7.9
-29 -1 10 15.8 10
-29 1 9 -0.5 5.9
-29 -1 9 2.9 5.7
-29 1 8 35.8 8.5
-29 -1 8 22.8 8.7
29 -1 -8 28.1 6.2
29 -1 -8 25.5 4.2
29 1 -7 0.7 3.8
-29 1 7 -4.6 5.2
29 -1 -7 -5.2 4.7
-29 -1 7 10 6.4
29 -1 -6 5.6 3.7
-29 -1 6 2.4 5
-29 1 5 35.7 7
29 1 -5 31.2 6.1
29 -1 -5 16.8 6.5
29 -1 -5 12.8 4.2
-29 -1 5 24.9 7.1
-29 1 4 29.8 6.9
29 1 -4 30.1 6.6
29 1 -4 32.2 7.5
29 -1 -4 25.6 5.4
-29 -1 4 34.3 7.4
29 -1 -4 39.6 7.8
29 1 -3 63.09 8.8
29 1 -3 54.39 8.5
-29 1 3 55.69 7.6
29 -1 -3 60.19 7.4
29 -1 -3 64.09 8.7
-29 -1 3 58.89 8.4
29 1 -2 49.4 8.1
-29 1 2 52.19 7.1
29 1 -2 34.6 6.6
29 -1 -2 44.4 7.1
29 -1 -2 35 6.5
-29 -1 2 40 7.2
29 1 -1 7 5.7
-29 1 1 8.2 4.7
29 1 -1 4.6 3.9
29 -1 -1 2.9 4.3
29 -1 -1 9.9 4
-29 -1 1 3.3 5
29 1 0 26.1 7.3
29 1 0 25 5.3
-29 1 0 26.3 5.2
-29 -1 0 23.6 6.4
29 -1 0 16.1 4.3
29 -1 0 26 6.4
29 1 1 58.19 9.5
-29 1 -1 31.7 9.8
29 1 1 55.69 6.5
29 -1 1 56.99 8.4
-29 -1 -1 56.79 8.3
29 -1 1 57.29 6.3
29 1 2 12.9 7.2
-29 1 -2 13.9 5.2
29 1 2 14.2 4.5
29 -1 2 11.9 6.1
29 -1 2 25 4.4
-29 -1 -2 20.8 7.2
29 1 3 278.37 15
29 1 3 208.18 24.2
29 -1 3 256.77 23.2
29 -1 3 261.97 13.7
29 1 4 3.4 6.7
29 1 4 8 4.3
29 -1 4 12.7 5.7
29 -1 4 7.8 3.3
29 1 5 10.5 4.9
29 1 5 20.6 8.4
29 -1 5 6 3.9
29 -1 5 -5.4 5
29 1 6 -3.1 5.8
29 -1 6 2.6 6.1
29 -1 6 7 3.8
29 1 7 20.1 8.3
29 -1 7 19.1 7.7
29 -1 7 18.5 5.1
29 1 8 -2.7 7.2
29 1 8 4.7 5.5
29 -1 8 8.6 7.3
29 1 9 11.5 9
29 -1 9 16.3 8.8
-29 -2 10 -4.9 7
-29 2 9 3.8 7.9
29 -2 -9 4.5 3.5
29 -2 -9 7.3 2.2
-29 -2 9 8.9 6.5
-29 2 8 5.1 6.7
29 -2 -8 9.2 6.5
-29 -2 8 -1.7 6.5
-29 2 7 -1 5.4
29 2 -7 5.5 4.5
29 -2 -7 -0.3 3.1
-29 -2 7 1.6 5.9
29 -2 -7 -14.9 5.4
-29 2 6 3.6 5.8
-29 -2 6 2.2 6
29 -2 -6 10.3 3.7
29 2 -5 28.8 6.7
-29 2 5 45.3 7.7
29 -2 -5 37.3 8.4
-29 -2 5 20 7.4
29 -2 -5 36.9 5.5
29 2 -4 20.7 6.6
-29 2 4 6.6 5.2
29 -2 -4 9.3 4.1
29 -2 -4 17.4 7.2
-29 -2 4 16.7 6.7
29 2 -3 267.57 17.3
-29 2 3 252.07 15.4
29 2 -3 236.58 15.9
29 -2 -3 276.07 14.7
-29 -2 3 260.67 16.4
29 -2 -3 256.97 16.7
29 2 -2 42.3 8.4
29 2 -2 37 6.6
-29 2 2 34.2 5.9
-29 -2 2 60.69 8.5
29 -2 -2 47.8 6.9
29 -2 -2 63.39 8.3
29 2 -1 -2.8 5.3
-29 2 1 3.3 3.9
29 2 -1 -2.3 3.6
29 -2 -1 7.7 4.7
29 -2 -1 -2.2 3.9
-29 -2 1 0.1 4.9
29 2 0 237.08 17.5
29 2 0 230.88 15.4
-29 2 0 260.07 13.2
29 -2 0 263.07 13.9
-29 -2 0 247.58 14.6
-29 -2 0 236.88 15.5
29 -2 0 231.48 14.9
-29 2 -1 93.79 7.9
29 2 1 92.59 12.2
29 2 1 105.09 9.3
29 -2 1 109.59 10.3
-29 -2 -1 104.59 10.8
-29 -2 -1 120.29 9.9
29 -2 1 98.69 7.8
29 2 2 58.59 10.4
29 2 2 43.5 6.8
29 -2 2 45.7 5.2
-29 -2 -2 44.3 8.8
29 -2 2 46.6 7.9
29 2 3 93.09 9.2
29 2 3 98.79 13.7
29 -2 3 93.89 11.5
29 -2 3 100.79 6.8
29 2 4 83.29 9.9
29 2 4 89.49 12.9
29 -2 4 78.09 5.7
29 -2 4 88.39 10.7
29 2 5 84.39 12.3
29 2 5 47 8.6
29 -2 5 46.1 9
29 -2 5 53.49 5.1
29 2 6 -2.5 5
29 2 6 -6.4 5
29 -2 6 -0.1 2.7
29 -2 6 3.9 5.3
29 2 7 10 8
29 -2 7 0.8 6.8
29 -2 7 -3.5 3.5
29 2 8 59.69 12.6
29 -2 8 61.69 11.3
29 -2 8 60.29 10.4
29 -2 9 19.9 5.7
29 -2 9 18.2 9.9
-29 3 9 -2.3 6.2
29 -3 -9 -7.4 4.5
-29 -3 9 4.3 7
-29 3 8 10.8 6.4
-29 -3 8 12.8 8.1
29 -3 -8 10.2 3.7
29 -3 -8 10.4 7.6
29 3 -7 -0.2 4.7
-29 3 7 6.6 5.9
29 -3 -7 1.7 3.9
29 -3 -7 0 6.5
-29 -3 7 3.7 6.1
29 3 -6 3.4 5.7
-29 3 6 8.3 6.4
29 -3 -6 6.8 7.1
29 -3 -6 8.9 4.3
-29 -3 6 14.9 7.3
29 3 -5 47 8.7
-29 3 5 45.2 9.3
-29 -3 5 49.9 9.5
29 -3 -5 58.19 6.8
-29 3 4 289.47 16.9
29 3 -4 248.38 17.6
29 -3 -4 250.07 14.2
-29 -3 4 227.18 16.5
29 3 -3 5.3 6.3
-29 3 3 0.9 4
-29 -3 3 -5.6 3.2
-29 -3 3 -1.2 5
29 -3 -3 1.5 3.8
29 3 -2 33.9 8.5
29 3 -2 32.8 6.9
-29 3 2 21.2 5
-29 -3 2 36.5 7.4
29 -3 -2 41.4 6.4
29 3 -1 24.1 8.4
29 3 -1 25 6.1
-29 3 1 17.2 4.5
29 -3 -1 23 5.6
-29 -3 1 26.2 6.9
29 -3 -1 34.6 6.3
-29 -3 1 42.6 6.2
29 3 0 13.8 5
29 3 0 2.8 6.8
-29 3 0 3.3 3.4
29 -3 0 5.8 3.6
-29 -3 0 2.2 5.9
-29 -3 0 7 4.6
29 -3 0 12.5 5.2
29 3 1 4.7 4.2
29 3 1 -13.8 5.3
-29 3 -1 5.7 3.4
-29 -3 -1 6.9 6
29 -3 1 3.7 4.9
29 -3 1 -0.2 2.8
29 3 2 13.7 5.3
29 3 2 3.7 12.1
-29 -3 -2 8.6 7.2
29 -3 2 15.6 5.5
29 3 3 44.4 7.5
29 3 3 45.2 11.1
29 -3 3 37.1 7.4
29 3 4 -0.6 4.1
29 3 4 10.6 8.6
29 -3 4 9.1 6.1
29 3 5 22.6 9.4
29 -3 5 23 7.5
29 3 6 13.3 8.6
29 -3 6 -3.5 5.6
29 3 7 45.8 11.9
29 -3 7 31.9 9.3
29 3 8 91.89 15.8
29 -3 8 83.89 13
-29 4 9 40.4 11.5
29 -4 -9 3.5 3.9
-29 -4 9 18.3 7.6
29 -4 -8 -1.6 3.5
29 -4 -8 4.8 8.5
-29 -4 8 13.4 7.5
-29 4 7 5.5 7
29 4 -7 1.1 5.2
-29 -4 7 -3.5 5.1
29 -4 -7 0 7.8
-29 4 6 13.6 6.2
29 4 -6 18.7 7.1
29 -4 -6 5.1 7.4
-29 -4 6 11.9 7.2
29 4 -5 29.9 8.4
-29 4 5 18.6 7
-29 -4 5 14 6.9
29 -4 -5 18.9 8.5
-29 4 4 2 4.6
29 4 -4 -7.1 5.3
-29 -4 4 9.8 6.7
-29 -4 4 -2.8 3.5
-29 4 3 109.79 10.1
29 4 -3 81.49 12.3
-29 -4 3 113.89 12.3
-29 -4 3 95.89 10
29 4 -2 31.2 9.4
-29 4 2 18.3 4.8
-29 -4 2 30.3 9
-29 -4 2 27.3 5.7
-29 4 1 60.09 6.3
29 4 -1 46.9 10.6
-29 -4 1 58.99 7.1
-29 -4 1 46.1 9.5
-29 4 0 76.09 5.9
29 4 0 80.19 12.4
-29 -4 0 52.19 9.7
-29 -4 -1 81.09 11.3
29 -4 1 99.99 10.6
29 4 2 265.77 21.9
29 -4 2 330.67 19.5
-29 -4 -2 277.27 20.3
29 4 3 28.2 9.9
29 -4 3 27.2 7.3
29 4 4 10.9 7.3
29 -4 4 9.8 6.3
29 4 5 79.09 14.3
29 -4 5 43.5 9.3
29 4 6 6 8.6
29 -4 6 -1.9 5.3
29 4 7 -2.4 8.2
29 -4 7 -6.5 5.8
29 -4 8 7.6 9.1
29 -5 -8 -4.6 9.4
29 5 -7 21.3 6.7
29 -5 -7 25.2 10.7
-29 -5 7 13.5 6.7
29 5 -6 1.5 6.7
-29 -5 6 -3.9 3.3
29 -5 -6 9 9.5
-29 -5 6 -3.4 6.4
-29 5 5 14.4 6.8
29 5 -5 19.2 8.2
-29 -5 5 21.8 8
-29 -5 5 18.8 5.1
29 5 -4 -4.8 6.5
-29 -5 4 17 8
29 5 -3 203.08 18.8
-29 5 3 250.97 14.6
-29 -5 3 156.98 15.7
-29 -5 3 211.28 14.1
29 5 -2 52.19 11.3
-29 -5 2 46 7.4
-29 -5 2 35.9 8.1
29 5 -1 35.1 10.5
-29 5 1 51.99 5.5
-29 -5 1 43 8.7
29 5 0 10.7 9.1
-29 -5 0 -0.2 6.8
29 5 1 70.99 13.8
-29 -5 -1 57.69 10.4
29 5 2 6.4 8.1
-29 -5 -2 1.7 7
29 5 3 3 7.5
29 -5 3 1.4 5
29 5 4 -9.7 6.5
29 -5 4 5.3 6.3
29 5 5 30 12.1
29 -5 5 36.9 9.6
29 5 6 -12.9 5.7
29 -5 6 -0.5 6.4
29 -5 7 6.3 8
-29 6 7 3.3 5.7
29 6 -7 -6.3 5.6
-29 -6 7 -1 3.9
29 6 -6 3 8
-29 -6 6 -4 6.4
-29 -6 6 -1.3 4.4
29 6 -5 23.2 9.6
-29 6 5 5.7 7
-29 -6 5 6.1 7.7
-29 -6 5 14.1 5.9
29 6 -4 14 8.4
-29 6 4 3 5.3
-29 -6 4 -2.5 6.2
-29 -6 4 -1.1 6.2
29 6 -3 34.1 10.7
-29 -6 3 18.4 7.6
-29 -6 2 5.7 6.7
29 6 -1 196.38 20.2
-29 6 1 168.98 9.5
-29 -6 1 177.08 16
29 6 0 1.8 7.7
-29 -6 0 15.1 7.8
29 6 1 167.88 19.3
-29 -6 -1 137.19 15.3
29 6 2 -6.3 8.6
-29 -6 -2 -9.5 7.1
29 6 3 -6 7
29 6 4 24.8 11.1
29 -6 4 14.7 8.2
29 6 5 8.7 9.7
29 -6 5 -3 6.3
29 -6 6 4.8 6.6
29 7 -6 6.4 8
-29 -7 6 5.9 7.8
29 7 -5 18.7 9.9
-29 -7 5 45 10.2
-29 -7 4 8.6 6.7
29 7 -3 13.3 9.5
-29 -7 3 10.6 8.1
29 7 -2 3.4 8.1
-29 -7 2 -3.7 6.8
-29 7 1 3.2 1.8
-29 7 1 1.6 2.6
29 7 -1 19.1 10.5
-29 -7 1 0.3 6.5
29 7 0 31.1 10.7
-29 -7 0 38 10.6
29 7 1 29.4 12.3
-29 -7 -1 3.8 8.2
29 7 2 6.6 10.2
-29 -7 -2 3.1 7.2
29 7 3 33.5 13.1
29 7 4 28.2 13.2
29 7 5 12.8 11.9
29 8 -5 0.4 8.8
-29 -8 5 -11.6 7.3
29 8 -4 2.4 10.8
-29 -8 4 13.4 8.4
29 8 -3 5.8 10.1
29 8 -2 12.8 10.8
-29 -8 2 -5.6 6.3
29 8 -1 -13 9.1
-29 -8 1 -15.1 6
29 8 0 14.3 10.8
-29 -8 0 13.3 9.4
29 8 1 21.5 11.6
-29 -8 -1 29.8 12
29 8 2 16.4 11.4
29 8 4 13 12.2
29 9 -1 8.7 12
-29 -9 1 7.5 8.8
29 9 0 -0.5 9.6
-29 -9 0 -9.2 7.5
-30 0 10 17.9 8.5
-30 0 9 -1.1 7
-30 0 8 2.7 5.8
30 0 -8 -0.5 3.3
30 0 -8 -3.4 2.4
30 0 -7 4.6 4.2
-30 0 7 4.2 5.9
30 0 -6 42 6.4
-30 0 6 49.6 8.8
30 0 -5 5.2 4.2
-30 0 5 -4.9 4.5
30 0 -4 46.8 6.8
30 0 -4 49.4 8
-30 0 4 25.3 6.4
30 0 -3 -0.8 4.4
30 0 -3 4.2 5.5
-30 0 3 5.8 4.9
30 0 -2 272.17 16.9
30 0 -2 283.17 16.2
-30 0 2 276.47 16.2
-30 0 1 4.7 5
30 0 -1 4 3.7
30 0 -1 6 5
30 0 0 6.8 5.6
30 0 0 1.7 3.2
-30 0 0 7.6 4.8
30 0 1 1.9 3.4
-30 0 -1 -9.2 4.4
30 0 1 -6.1 4.5
-30 0 -2 49 7.9
30 0 2 55.89 6.6
30 0 2 50.09 8.9
30 0 3 6.9 5.4
30 0 3 1.4 3.3
30 0 4 -5.7 5.8
30 0 4 2.1 3.5
30 0 5 3.5 6.6
30 0 5 -7.2 3.3
30 0 6 195.58 16.8
30 0 7 3.4 7.3
30 0 7 6.5 4.2
30 0 8 -7.2 7.5
-30 -1 10 27.8 10.5
-30 1 9 3.6 6.6
-30 -1 9 5.5 6.9
-30 1 8 -2 5.6
30 -1 -8 1.6 4.9
30 -1 -8 7.4 3.3
-30 -1 8 17.1 8
-30 1 7 2.3 5.3
30 1 -7 1.4 4.3
30 -1 -7 15.4 6.2
-30 -1 7 -2 6.1
30 -1 -7 -2.2 3.6
-30 1 6 17.5 5.9
30 1 -6 15 5.5
-30 -1 6 12.6 6.5
30 -1 -6 9.3 4.2
-30 1 5 82.09 10.6
30 1 -5 72.09 8.8
30 -1 -5 80.29 10.9
30 -1 -5 85.39 7.6
-30 1 4 26.3 6.5
30 1 -4 18 5.8
30 1 -4 22.5 6
30 -1 -4 15.3 6.2
-30 -1 4 10.2 6
30 -1 -4 12.7 4.7
30 1 -3 13.3 5
30 1 -3 17 6.2
-30 1 3 18.4 5.6
-30 -1 3 8.6 5.5
30 -1 -3 20.7 5.7
30 -1 -3 11 5.1
30 1 -2 27.4 7
-30 1 2 30.6 5.8
30 1 -2 22 6.3
-30 -1 2 22.7 6.2
30 -1 -2 21.6 5.9
30 -1 -2 28.5 5.9
30 1 -1 9.1 4.4
30 1 -1 9.3 6.4
-30 1 1 -0.1 4.4
30 -1 -1 11.3 5.2
30 -1 -1 7.3 4.3
-30 -1 1 12.9 5.5
30 1 0 174.78 14.2
-30 1 0 180.08 11.6
30 1 0 165.98 11.6
30 -1 0 182.38 11.5
30 -1 0 181.88 13.3
-30 -1 0 158.48 12.6
-30 1 -1 43.4 6.7
30 1 1 30.9 5.8
30 1 1 32.4 8.2
30 -1 1 40.4 5.5
-30 -1 -1 45.9 7.7
30 -1 1 29.9 7
30 1 2 26.9 9
30 1 2 16.2 4.8
30 -1 2 29.3 11.2
30 -1 2 13.5 3.7
-30 -1 -2 9.1 6.5
30 1 3 3.5 7.3
30 1 3 7.2 4.3
30 -1 3 9.7 3.5
30 -1 3 4.8 5.5
30 1 4 13.2 4.5
30 1 4 14 7.9
30 -1 4 5.7 6.3
30 -1 4 15 4
30 1 5 4.4 7.1
30 1 5 -2.1 3.7
30 -1 5 3.8 3.7
30 -1 5 0.6 6.3
30 1 6 0.6 6.5
30 -1 6 -1.9 6.1
30 -1 6 -2.1 3.7
30 1 7 66.49 11.9
30 -1 7 50.59 8
30 -1 7 56.29 10.8
30 1 8 133.89 16.7
30 -1 8 146.49 16.5
30 1 9 48.7 15.6
30 -1 9 75.99 9.3
-30 2 9 9.9 8.4
30 -2 -9 2.6 3.6
-30 -2 9 15.1 6.7
-30 2 8 3.8 6
30 -2 -8 6.4 6.6
-30 -2 8 6.6 7.9
30 2 -7 -1 4.3
-30 2 7 -6.2 5.4
-30 -2 7 0 6.3
30 -2 -7 -0.5 3.4
30 -2 -7 5.4 6.3
30 2 -6 0.4 4.9
-30 -2 6 7.2 6.1
30 -2 -6 0.2 3.4
30 2 -5 -6.5 5.1
-30 2 5 10.8 5.6
-30 -2 5 -6.9 5.2
30 -2 -5 4.4 5.3
30 -2 -5 -0.1 3.2
-30 2 4 27 6.3
30 2 -4 18 6.4
30 -2 -4 28 5.2
-30 -2 4 20.3 10.2
30 -2 -4 22.9 7.8
30 2 -3 337.07 20.4
30 2 -3 325.37 19.7
-30 2 3 336.77 18.3
30 -2 -3 355.36 20.3
-30 -2 3 315.57 19.1
30 -2 -3 349.67 18
-30 2 2 228.58 13.4
30 2 -2 226.28 14.7
30 2 -2 219.88 16.3
-30 -2 2 192.68 14.8
30 -2 -2 211.48 13.4
30 -2 -2 233.28 14.8
-30 2 1 20.3 4.8
30 2 -1 20.4 7.4
30 2 -1 18.4 5.5
30 -2 -1 22 5.6
30 -2 -1 28.9 6.2
-30 -2 1 22.4 6.4
30 2 0 -1.4 3.6
30 2 0 -3.5 5.2
30 -2 0 3.4 4.1
30 -2 0 -10 3.1
-30 -2 0 2.7 5.5
30 2 1 10.1 6.7
30 -2 1 8.5 5.4
-30 -2 -1 9.5 6.3
30 2 2 15.4 11
30 -2 2 6 5.6
30 -2 2 10.5 3.4
-30 -2 -2 7.1 6.3
30 2 3 4.1 5.3
30 -2 3 15.4 6.2
30 -2 3 13.8 3.3
30 2 4 37 9.5
30 2 4 19.2 5.7
30 -2 4 14 3.1
30 -2 4 24.8 7.2
30 2 5 30.9 6.9
30 2 5 32.9 9.5
30 -2 5 39.9 8.6
30 -2 5 41.1 4.8
30 2 6 3.7 5.4
30 2 6 9.3 7.2
30 -2 6 0.8 2.6
30 -2 6 9 7.1
30 2 7 5.1 8.2
30 -2 7 3 6.5
30 -2 7 11.1 4
30 2 8 -13.9 7.2
30 -2 8 3.3 7.2
30 -2 8 -3 4.5
-30 3 9 22.7 11.1
-30 -3 9 2.9 7.1
30 -3 -9 11.7 5.9
30 -3 -9 1.4 3.2
-30 3 8 25.8 10
30 -3 -8 15.6 4.2
30 -3 -8 39 9.5
-30 -3 8 -0.4 7.3
-30 3 7 3.7 7.2
30 3 -7 -2.2 4.9
30 -3 -7 -11.9 6.4
-30 -3 7 -5.4 6
30 -3 -7 5.2 4.2
30 3 -6 12.2 6.1
30 -3 -6 8.4 4.2
-30 -3 6 -1.1 5.9
30 -3 -6 12.5 6.9
-30 3 5 55.19 10
30 3 -5 55.49 9.4
30 -3 -5 55.69 6.6
-30 -3 5 39.4 8.7
-30 3 4 18.5 5.6
30 3 -4 1.8 5.8
30 -3 -4 5.3 4.3
-30 -3 4 7.1 6.8
-30 3 3 180.38 12.2
30 3 -3 176.98 15.5
30 -3 -3 194.68 12.9
30 3 -2 273.87 19.7
-30 3 2 287.27 15
-30 -3 2 250.27 16.7
30 -3 -2 268.97 15.9
-30 -3 2 281.07 15.5
30 3 -1 24.4 8.6
30 3 -1 33.5 6.7
30 -3 -1 43.4 6.7
30 -3 -1 27.2 6.1
-30 -3 1 33.1 7.8
-30 -3 1 32.5 6.1
30 3 0 24 5.9
30 3 0 49.9 10.5
-30 3 0 32.8 5
30 -3 0 50.39 7.8
-30 -3 0 24.8 7.3
-30 -3 0 36.7 7
30 -3 0 37.2 5.7
30 3 1 8.8 8.1
-30 3 -1 17.3 4.1
30 3 1 16.4 5.2
30 -3 1 9.4 5.5
30 -3 1 14.2 3.6
-30 -3 -1 -3 6
30 3 2 23.1 6.2
30 3 2 14.8 8.6
-30 -3 -2 16.2 7.6
30 -3 2 22.8 6.8
30 3 3 3 4.8
30 3 3 0.4 7.6
30 -3 3 4.8 5
30 3 4 3.1 7.4
30 -3 4 0.2 5.4
30 3 5 1.3 7.8
30 -3 5 -6.9 5.7
30 -3 6 1.5 6.7
30 3 7 9.8 8.7
30 -3 7 -6.2 6.1
30 -3 8 10.5 8.7
30 -4 -9 -19.9 7.9
30 -4 -9 -1.1 2.8
-30 -4 9 17.3 9.7
-30 4 8 3.1 7.8
-30 -4 8 -2 6.3
30 -4 -8 -7.2 7.8
30 -4 -8 6.3 4.5
-30 4 7 -3.5 5.4
-30 -4 7 -3.5 6
30 4 -6 13.9 6.8
30 -4 -6 8.2 9.1
-30 -4 6 10.9 7.2
30 4 -5 -1 6.2
-30 4 5 7.2 5.9
30 -4 -5 10.8 8
-30 -4 5 4.8 6.4
-30 4 4 4 4.5
30 4 -4 15.4 7.5
-30 -4 4 3.9 6
-30 -4 4 -6.4 3
-30 4 3 80.69 9
30 4 -3 76.19 11.9
-30 -4 3 43.9 9.5
-30 -4 3 79.49 7.8
30 4 -2 9.1 7.1
-30 4 2 7.3 3.8
-30 -4 2 15.5 4.5
-30 -4 2 25.4 7.6
-30 4 1 15.5 4.1
30 4 -1 30.4 9.2
-30 -4 1 22.1 7.8
-30 -4 1 13 5.1
-30 4 0 173.28 9.7
30 4 0 200.48 19.5
30 -4 0 191.88 14
30 4 1 84.49 13.7
30 -4 1 100.59 10.6
-30 -4 -1 125.19 21.7
30 4 2 30.3 9.9
30 -4 2 26.4 7.3
30 4 3 7.8 8.4
30 -4 3 4.8 5.9
30 4 4 1 7.2
30 -4 4 15 6.8
30 4 5 -4.2 7.7
30 -4 5 3.2 6.2
30 4 6 0.4 8.4
30 -4 6 -1.2 6.2
30 4 7 11.5 9.1
30 -4 7 10.6 8
30 4 8 25.1 11.6
30 -4 8 29.9 12.7
-30 -5 8 -11.2 6.1
30 -5 -8 -20 9.4
30 5 -7 -6.6 5.1
30 -5 -7 6.5 10.5
-30 -5 7 -7.4 5.8
-30 5 6 25.8 6.8
30 5 -6 22.6 8.4
-30 -5 6 12.2 8
-30 5 5 4.8 6
30 5 -5 1.5 6.7
-30 -5 5 3.9 4
-30 -5 5 6 7
-30 5 4 10.4 7
30 5 -4 8.4 7.9
-30 -5 4 4.8 5.9
-30 -5 4 -1.6 3.6
30 5 -3 60.29 11.7
-30 5 3 66.59 8.9
-30 -5 3 64.79 7.5
-30 -5 3 36.4 8.6
30 5 -2 13.1 9
-30 5 2 5.7 4.2
-30 -5 2 -5.2 6.2
-30 5 1 62.59 5.9
-30 -5 1 69.89 11.3
30 5 0 76.99 13.9
-30 -5 0 68.29 11.6
30 5 1 66.89 13.5
-30 -5 -1 56.19 11.8
30 5 2 -11.2 7.4
-30 -5 -2 -0.8 7
30 -5 2 -4.1 5.1
30 5 3 70.69 14
30 -5 3 38.1 8.6
30 5 4 -2.2 7.8
30 -5 4 -2.9 5.5
30 5 5 2.1 7.9
30 -5 5 1.9 6.6
30 5 6 -1.8 9
30 -5 6 -5.5 5.8
30 5 7 0.6 9.2
30 6 -7 -5 5
-30 6 7 17.8 8.1
-30 -6 7 9.3 8.1
30 6 -6 3.1 7.3
-30 -6 6 5.9 7.3
-30 6 5 9.8 7.2
30 6 -5 16.2 9.9
-30 -6 5 5.4 7.7
30 6 -4 29 10.3
-30 6 4 33.2 8.6
-30 -6 4 38.6 9.8
30 6 -3 -0.2 7.9
-30 -6 3 1 6.8
30 6 -2 19.3 9.9
-30 -6 2 3.2 7.5
-30 6 1 136.49 8.4
30 6 -1 171.58 19.6
-30 -6 1 152.18 15.3
30 6 0 2.4 8
-30 -6 0 -4 6.7
30 6 1 42.9 11.6
-30 -6 -1 50.59 10.6
30 6 2 45 13.1
-30 -6 -2 65.99 12.7
30 6 3 58.79 14
30 6 4 15.7 10.7
30 -6 4 -6.6 7.5
30 6 5 3.4 10.3
30 -6 5 11.1 7.5
30 6 6 -8.4 7
30 -6 6 -3.8 7.8
30 7 -6 -7.5 8.1
-30 -7 6 -7.3 7
30 7 -5 23.7 9.5
30 7 -4 -17.1 8.9
-30 -7 4 -2 7.5
30 7 -3 4.5 9.4
-30 -7 3 5.8 6.6
30 7 -2 1.1 8.5
-30 -7 2 3 6.8
30 7 -1 -3.5 9.6
-30 -7 1 -2.8 6.8
30 7 0 20.3 11.2
-30 -7 0 30.7 10.3
30 7 1 45.9 13.5
-30 -7 -1 62.49 12.7
30 7 2 -8.9 7.6
-30 -7 -2 -17.6 7.1
30 7 3 30.7 13.1
30 7 4 89.39 26.5
30 7 5 6.5 11.7
30 -7 5 16.7 8.8
30 8 -4 7.1 10.6
-30 -8 4 -2.5 7
30 8 -3 3.5 10.9
-30 -8 3 11.4 10.1
30 8 -2 -12.3 7.4
30 8 -1 -1.5 9.7
-30 -8 1 21.1 11
30 8 0 13.4 11.8
-30 -8 0 -0.6 8.3
30 8 1 44.6 13.5
-30 -8 -1 28.8 17
30 8 2 9.2 11.6
30 8 3 -2.9 10.9
-31 0 9 15.8 7.9
-31 0 8 -7 5.6
31 0 -8 -2.8 3.1
31 0 -8 -6.3 2.1
-31 0 7 -2.5 5.8
31 0 -6 1.2 4.2
-31 0 6 1.4 5.1
-31 0 5 -2.9 7.1
31 0 -5 -5.4 4
-31 0 4 8.7 5.7
31 0 -4 -12.4 4.9
31 0 -4 4.8 4.6
-31 0 3 1.2 5
31 0 -3 -7.7 3.5
31 0 -3 4.1 5
31 0 -2 70.09 9.2
31 0 -2 83.39 9.2
-31 0 2 61.39 8.5
-31 0 1 8.9 5
31 0 -1 -6 3.3
31 0 -1 2.9 5.3
31 0 0 82.59 8.2
-31 0 0 77.09 8.8
31 0 0 97.79 10.5
31 0 1 4.2 3.6
-31 0 -1 -6.8 4.2
31 0 1 3 5.6
31 0 2 30.2 8.1
-31 0 -2 27 6.7
31 0 2 22.2 5
31 0 3 1.9 6.4
31 0 3 -1.5 3.3
31 0 4 12 6.8
31 0 4 3.6 3.6
31 0 5 -0.4 3.5
31 0 5 -1.9 6.5
31 0 6 -0.5 7.5
31 0 6 -2 4
31 0 7 -7.2 6.2
31 0 8 3.3 7.6
-31 1 9 130.09 19.2
-31 -1 9 198.58 20.6
-31 1 8 3.8 7.3
-31 -1 8 4.6 6.4
31 -1 -8 -1.8 2.9
31 1 -7 9.9 4.9
-31 1 7 -3.7 6.1
-31 -1 7 14.5 6.6
31 -1 -7 8.4 4.1
-31 1 6 -0.3 5
31 1 -6 -0.6 4.3
31 -1 -6 -0.1 3.8
-31 -1 6 5.4 6.4
31 1 -5 -3.5 4.2
-31 1 5 -1.7 5.4
-31 -1 5 -0.4 5.1
31 -1 -5 3.6 4.2
-31 1 4 -4 4.9
31 1 -4 6.9 5.3
31 -1 -4 -2.2 4.8
-31 -1 4 -1.7 4.8
31 -1 -4 -1.3 3.8
31 1 -3 58.09 8.6
-31 1 3 46.6 7.1
31 1 -3 54.99 8.8
31 -1 -3 60.39 9.4
31 -1 -3 68.49 8.2
-31 -1 3 40.7 7.8
31 1 -2 23.8 6
-31 1 2 24.3 6
31 1 -2 28.4 7.7
31 -1 -2 25.5 6.4
31 -1 -2 33.6 6.4
-31 -1 2 28.8 7.1
31 1 -1 21.6 6.7
-31 1 1 16.1 5.4
31 1 -1 27.7 7.8
-31 -1 1 12.8 6.1
31 -1 -1 14.6 5.7
31 -1 -1 10 4.8
-31 1 0 34.4 6.1
31 1 0 44.1 6.8
31 1 0 45.5 8.8
31 -1 0 33.1 5.6
-31 -1 0 37.8 7.4
31 -1 0 52.29 8.3
31 1 1 19.9 5.2
-31 1 -1 31.7 6.1
31 1 1 26.6 8.2
31 -1 1 29.3 7.1
-31 -1 -1 31.4 7.2
31 -1 1 29.6 5.2
31 1 2 504.15 23.4
-31 1 -2 455.55 24.1
31 1 2 412.96 26.2
-31 -1 -2 502.95 25.6
31 -1 2 476.85 21.7
31 -1 2 513.45 26
31 1 3 -5.6 3.5
31 1 3 14.6 7.6
31 -1 3 7 3.6
31 -1 3 -3.6 5.4
31 1 4 14.9 5.1
31 1 4 18.2 8.3
31 -1 4 12.7 4.1
31 -1 4 21.8 7.3
31 1 5 3.5 4.4
31 1 5 0.2 6.5
31 -1 5 -8.5 5.5
31 -1 5 9.7 3.4
31 1 6 95.19 13.9
31 1 6 49.2 7.7
31 -1 6 62.39 10.8
31 -1 6 56.09 8.1
31 1 7 18.6 9.2
31 1 7 54.99 10.2
31 -1 7 30 7
31 -1 7 50.09 11.4
31 1 8 1.7 7.6
31 -1 8 3.4 6.9
-31 2 9 3.9 7.2
31 -2 -9 6.5 4.7
-31 2 8 -1.8 8.5
31 -2 -8 11.5 3.6
-31 -2 8 17 8.1
31 -2 -8 -2 6.2
-31 2 7 8.8 5.9
31 2 -7 2.1 5
31 -2 -7 11.2 4.2
31 -2 -7 -0.5 5.9
-31 -2 7 -3 5.5
31 2 -6 -1.7 5.2
-31 2 6 9.7 5.9
31 -2 -6 -1 3.6
-31 -2 6 -8.5 5.3
31 2 -5 2.4 5.3
-31 2 5 7.3 5.3
31 -2 -5 2.9 4
31 -2 -5 6.2 6.2
-31 -2 5 3.6 5.9
-31 2 4 -1.2 4.4
31 2 -4 10 5.9
31 -2 -4 3.4 3.9
-31 -2 4 3.4 5.7
31 -2 -4 8.6 5
31 2 -3 5.2 5.9
-31 2 3 -2.3 4.1
-31 -2 3 -1.3 5.5
31 -2 -3 4.2 4.3
31 -2 -3 6.6 5.1
31 2 -2 13.2 4.9
31 2 -2 16.2 6.7
-31 2 2 18.7 4.9
31 -2 -2 14.7 5.2
-31 -2 2 11.7 6.4
31 -2 -2 13 5.2
31 2 -1 12.2 6.4
-31 2 1 21 5
31 2 -1 19.3 5.5
-31 -2 1 4.9 5.9
31 -2 -1 7.3 4.9
31 -2 -1 18.4 5.4
31 2 0 36.6 8.6
-31 2 0 32.4 6.2
31 2 0 28.7 6
-31 -2 0 33.3 7.3
31 -2 0 32.7 5.6
31 -2 0 23 6.2
31 2 1 54.59 7.6
31 2 1 72.39 13.1
-31 2 -1 72.09 7.3
31 -2 1 64.89 9.4
-31 -2 -1 53.39 8.9
31 -2 1 65.39 7.7
31 2 2 137.29 14.6
31 2 2 125.59 11
31 -2 2 124.29 8.4
31 -2 2 160.28 12.7
-31 -2 -2 128.29 12.7
31 2 3 -3.2 4.6
31 2 3 13.2 4.9
31 -2 3 11.6 5.8
31 -2 3 2.6 2.8
31 2 4 4 4.7
31 2 4 18 8
31 -2 4 8 2.8
31 -2 4 6.3 5.4
31 2 5 6.4 5.5
31 2 5 3.1 6.4
31 -2 5 5.2 5.4
31 -2 5 1.5 2.6
31 2 6 -1.6 8.2
31 -2 6 -2.7 6.2
31 -2 6 -0.9 2.8
31 2 7 4.9 8
31 -2 7 7.2 7.1
31 -2 7 0.1 3.7
31 -2 8 143.39 10.8
31 -2 8 195.08 19.9
-31 3 9 -6.3 6.4
31 -3 -9 -1.9 2.2
31 -3 -9 5.6 7.1
-31 -3 9 17.3 8
-31 3 8 20.6 8.2
31 -3 -8 14.1 4.1
31 -3 -8 24.8 9.3
-31 -3 8 5.5 7.4
31 3 -7 39.2 7.4
-31 3 7 28.6 9.4
31 -3 -7 31.8 9.6
31 -3 -7 28.7 5
-31 -3 7 18.9 8.6
-31 3 6 2.9 5.6
31 3 -6 -1 5.6
31 -3 -6 -12.7 6.4
-31 -3 6 2.2 6.6
31 -3 -6 7.3 4.8
-31 3 5 20.4 6.9
31 3 -5 30.6 7.9
31 -3 -5 30.6 5.9
-31 -3 5 22.4 8
31 3 -4 152.88 14.1
-31 3 4 166.48 13.3
31 -3 -4 165.38 11.6
-31 -3 4 133.09 13.7
31 3 -3 10 6.6
-31 3 3 -0.1 4.2
-31 -3 3 -1.5 6.2
31 -3 -3 -0.3 4.1
31 3 -2 42.1 9.1
-31 3 2 50.19 6.8
-31 -3 2 49 6.6
-31 -3 2 62.69 13.1
31 -3 -2 47.1 7.2
31 3 -1 40.9 9.4
-31 3 1 20.1 4.8
31 -3 -1 18.6 5.8
-31 -3 1 18.7 5.1
31 -3 -1 13.2 5.1
-31 -3 1 20.4 7.4
31 3 0 81.59 12.6
-31 3 0 108.49 7.9
31 3 0 89.99 10.3
-31 -3 0 101.69 11.4
31 -3 0 104.59 11.4
31 3 1 4.3 4.7
31 3 1 2.8 7
-31 3 -1 10.4 4
-31 -3 -1 6 6.4
31 -3 1 12.6 3.6
31 -3 1 9 5.6
31 3 2 183.98 17.8
31 3 2 155.48 13.5
31 -3 2 203.88 14.5
-31 -3 -2 168.58 15.8
31 3 3 -1.4 6.9
31 -3 3 8.1 5.3
31 3 4 5 7.8
31 -3 4 -6.4 4.8
31 3 5 -13.4 6.8
31 -3 5 8.8 7.3
31 3 6 1.4 8.1
31 -3 6 7.6 6.8
31 3 7 21.9 9.9
31 -3 7 -4.2 7.4
31 3 8 207.58 21.8
-31 4 8 35 10.4
31 -4 -8 22.2 5.7
31 -4 -8 -0.3 12.4
-31 4 7 -0.3 6.7
31 -4 -7 -0.9 4.5
-31 -4 7 -2.7 6.9
31 -4 -7 0.6 7.5
31 4 -6 1.2 6.3
-31 4 6 -4.6 5.1
-31 -4 6 4.4 6.7
31 -4 -6 1.4 7.8
31 -4 -6 -2.1 3.8
-31 4 5 -4 5.3
31 4 -5 -3 6.9
31 -4 -5 -14.7 6.4
-31 -4 5 -4.9 6.2
31 4 -4 23.5 8.6
-31 4 4 8.9 6.7
-31 -4 4 -4.3 4.8
31 4 -3 -7.2 5.8
-31 4 3 6.4 4.4
-31 -4 3 -0.1 4
-31 -4 3 0.9 5.5
-31 4 2 1.2 3.9
31 4 -2 4.4 7.4
-31 -4 2 10.1 5
-31 -4 2 2.9 6.6
-31 4 1 3 3.7
31 4 -1 -0.7 7.3
31 -4 -1 7 5
-31 -4 1 -5.3 5.7
-31 4 0 15.7 3.6
31 4 0 17.4 8.3
-31 -4 0 -1.1 6.5
31 -4 0 16.2 6
31 4 1 6.8 7.3
-31 -4 -1 0.9 7.1
31 -4 1 6.5 5.4
31 4 2 61.89 12.5
-31 -4 -2 39 10
31 -4 2 55.39 9.2
31 4 3 46.5 11.6
31 -4 3 36.6 8.3
31 4 4 -12 6.5
31 -4 4 -10.6 5
31 4 5 28.2 10.4
31 -4 5 26.6 8.9
31 4 6 3.6 8.3
31 -4 6 -1.9 6.4
31 -4 7 16.5 10.9
-31 5 8 0.2 7.9
31 5 -8 3 4
31 -5 -8 31.7 12.5
-31 -5 8 13.3 8
31 5 -7 -6.3 4.5
31 5 -6 5 7.2
-31 -5 6 7.8 7.8
-31 5 5 47 10.5
31 5 -5 25.8 9.4
-31 -5 5 38.3 9.2
31 5 -4 2.8 8.1
-31 5 4 13.6 6.4
-31 -5 4 3.8 7
-31 -5 4 7.1 5.6
31 5 -3 29.8 9.7
-31 5 3 43.3 8.5
-31 -5 3 37.8 9.2
-31 -5 3 29.5 6.2
31 5 -2 5.8 7.6
-31 5 2 23.5 5.3
-31 -5 2 10 6.9
31 5 -1 31.5 11
-31 5 1 53.99 5.7
-31 -5 1 43.9 9.4
31 5 0 61.39 13
-31 -5 0 45.8 9.7
31 5 1 -0.1 7.6
-31 -5 -1 1.7 7
31 5 2 3.5 6.7
31 -5 2 9.6 6.4
-31 -5 -2 16.2 8.4
31 5 3 -2.2 8.5
31 -5 3 22 8.2
31 5 4 3.9 8.4
31 -5 4 6.6 5.2
31 5 5 1.2 6.8
31 -5 5 -2.3 6.1
31 -5 6 -11.4 5.7
-31 6 7 38.3 9.1
31 6 -7 -5.6 5.1
-31 -6 7 13.7 9.2
31 6 -6 15.8 8.6
31 6 -5 -15.9 7.6
-31 -6 5 -5.2 5.5
-31 -6 5 -3.3 5.6
31 6 -4 34.5 9.8
-31 6 4 38.2 8.7
-31 -6 4 19.2 8.7
31 6 -3 4.7 11.1
-31 -6 3 -4.9 5.8
31 6 -2 23.6 10.7
-31 -6 2 46.8 9.8
-31 6 1 3.9 2.7
31 6 -1 11.1 9.3
-31 -6 1 -14.2 5.4
31 6 0 -5.4 8.4
-31 -6 0 2.6 7.9
31 6 1 6.3 9
-31 -6 -1 -8.9 6.9
31 6 2 113.69 17.1
-31 -6 -2 75.39 13.1
31 6 3 3.5 8.9
31 -6 3 8.3 6.9
31 6 4 3.2 10.1
31 -6 4 7.8 7.6
31 6 6 18.6 11.2
31 -6 6 4.9 7.2
31 7 -5 5.9 9.7
-31 -7 5 13.3 8.2
31 7 -4 26.2 11.6
-31 -7 4 21.8 8.7
31 7 -3 0.9 9.6
-31 -7 3 -11.6 6.9
31 7 -2 4.1 10
-31 -7 2 45.8 10.8
31 7 -1 25.6 11.4
-31 -7 1 -1.9 7.1
31 7 0 18.6 10.5
-31 -7 0 3.8 8.1
31 7 1 38.5 12.1
-31 -7 -1 24.6 9.7
31 7 2 -2.3 9.2
-31 -7 -2 -4.5 7.9
31 7 3 -2.1 9
31 7 4 21 11.2
31 -7 4 18.7 6.8
31 8 -3 62.59 15.8
-31 -8 3 37.5 10.5
31 8 -2 7.9 9.9
-31 -8 2 5.4 7.9
31 8 -1 3.5 8.9
-31 -8 1 -5.6 12.4
31 8 0 11.9 11
31 8 1 6.4 9.9
-31 -8 -1 11.8 12.4
31 8 2 -8.2 16.2
-32 0 9 -9.1 6
32 0 -8 -6.5 3.3
-32 0 8 13 8.1
32 0 -8 -5.2 2.5
-32 0 7 -3.4 5.5
32 0 -7 6.4 5.2
32 0 -6 73.89 8.8
-32 0 6 59.59 10.7
32 0 -5 7.2 5
-32 0 5 7.8 6
32 0 -4 399.96 30.3
-32 0 4 353.26 20.8
32 0 -4 374.16 20.4
32 0 -3 -1.1 4.9
32 0 -3 2.6 4.4
-32 0 3 0.9 4.6
32 0 -2 251.37 16.2
-32 0 2 245.08 15.4
32 0 -1 10.2 5.7
-32 0 1 7.7 5.3
32 0 0 4.2 3.8
32 0 0 0.7 5.4
-32 0 0 0.8 4.6
32 0 1 -0.5 3.1
32 0 1 5.2 8.9
-32 0 -1 6.8 4.9
32 0 2 290.97 16.4
-32 0 -2 341.87 18.9
32 0 2 316.17 20.6
32 0 3 1.3 3.4
32 0 3 1.5 6.3
32 0 4 1.8 3.7
32 0 4 11.8 7.7
32 0 5 6.1 6.3
32 0 5 3.5 4.6
32 0 6 61.39 11.9
32 0 7 -8 6.7
32 0 7 -6.7 4.4
-32 1 9 13.7 7.6
-32 1 8 2.9 6.9
32 1 -8 -6.1 2.6
32 1 -8 0.3 2.5
32 -1 -8 -2.3 3
-32 -1 8 0 6.5
-32 1 7 19.9 6.9
32 -1 -7 20.5 4.9
-32 -1 7 6.1 7.1
32 1 -6 5.5 5.3
-32 1 6 1.9 6.1
-32 -1 6 -2.8 5.7
32 -1 -6 0.5 4
-32 1 5 144.89 14.6
32 1 -5 171.58 12.9
32 -1 -5 177.28 11.9
-32 -1 5 144.59 13.4
-32 1 4 0.8 5.4
32 1 -4 -7.4 4.7
32 -1 -4 -4.5 3.8
32 -1 -4 -2.6 5.7
-32 1 3 28.3 6.5
32 1 -3 26.2 7.1
32 1 -3 16.3 6.1
32 -1 -3 35.1 7.4
32 -1 -3 29.8 6.6
-32 -1 3 16.5 6.3
-32 1 2 28.7 5.8
32 1 -2 33.2 7.6
32 1 -2 41.3 6.7
32 -1 -2 28.3 6.1
-32 -1 2 31.4 7.1
32 -1 -2 34.5 7
-32 1 1 9.1 5.2
32 1 -1 14.3 4.7
32 1 -1 11.9 6.8
32 -1 -1 19.5 6.5
-32 -1 1 9.7 6
32 -1 -1 15.7 5
32 1 0 2.6 3.9
32 1 0 3.2 5.7
-32 1 0 -4.2 4
-32 -1 0 1.4 4.9
32 -1 0 2.5 3.6
32 -1 0 1.2 5
32 1 1 85.19 18.3
32 1 1 86.59 8.4
-32 1 -1 82.69 8.7
-32 -1 -1 67.09 9.4
32 -1 1 74.39 7.7
32 -1 1 62.69 9.6
32 1 2 139.49 10.7
-32 1 -2 141.19 11.7
32 1 2 147.39 14.9
-32 -1 -2 169.48 13.5
32 -1 2 133.69 9.5
32 -1 2 133.59 13.2
32 1 3 -2.7 4
32 1 3 0.1 6.5
32 -1 3 -3.5 2.8
32 -1 3 -11 5
32 1 4 20.4 5.4
32 1 4 32.2 9.4
32 -1 4 28.8 7.7
32 -1 4 27.5 5
32 1 5 7.2 7.5
32 -1 5 -0.4 3.5
32 -1 5 13.4 7.4
32 1 6 17.1 7.1
32 1 6 27.6 8.6
32 -1 6 11.4 5.5
32 -1 6 19 7.9
32 1 7 26.3 10
32 -1 7 17.4 7.9
32 -1 7 31.7 6.7
32 1 8 3.2 10.6
-32 2 9 24.7 11.6
32 -2 -9 1.8 2.5
-32 -2 9 3.4 7.7
-32 2 8 17.5 7.6
32 -2 -8 2.4 7.3
32 -2 -8 6.5 3.5
-32 -2 8 2.4 7.3
32 2 -7 1.9 5.5
-32 2 7 -4.9 5.4
32 -2 -7 -8.4 6.3
-32 -2 7 -2.6 5.7
32 -2 -7 2 3.8
32 2 -6 -1.2 5.3
-32 2 6 6.4 7.2
-32 -2 6 12.4 7.3
32 -2 -6 -1 4.1
32 2 -5 17.4 6.5
-32 2 5 -7 4.7
32 -2 -5 -2.2 4
-32 -2 5 1.3 6.1
32 2 -4 103.49 11.6
-32 2 4 119.59 12
-32 -2 4 93.29 11.7
32 -2 -4 130.89 10.4
32 -2 -4 84.39 11.4
-32 2 3 9.5 5.1
32 2 -3 1 5.5
32 -2 -3 1.2 4.9
32 -2 -3 7 4.4
32 2 -2 90.09 10.8
-32 2 2 85.59 8.9
32 -2 -2 85.99 9.6
-32 -2 2 82.99 10.4
32 -2 -2 86.09 9
32 2 -1 15.6 7.3
32 2 -1 2.1 4.6
-32 2 1 7.2 4.3
-32 -2 1 2.1 6
32 -2 -1 7.2 5.1
32 -2 -1 14.4 5.5
32 2 0 13.5 7.3
32 2 0 8.3 4.5
-32 2 0 8.7 4.3
32 -2 0 13.5 4.9
-32 -2 0 1.2 5.5
-32 2 -1 9.8 4.6
32 2 1 10.4 6.8
32 2 1 2.3 3.9
32 -2 1 3.1 5
-32 -2 -1 0.1 5.5
32 -2 1 0.8 3.1
32 2 2 -1.7 6.1
32 2 2 4.3 4.2
32 -2 2 14.5 6.3
32 -2 2 10.9 3.7
-32 -2 -2 3.3 6.5
32 2 3 19.1 5.3
32 2 3 14.8 8.1
32 -2 3 16.8 3.7
32 -2 3 6.3 5.5
32 2 4 10 5.4
32 2 4 10.3 6.6
32 -2 4 7.7 3.3
32 -2 4 10.6 6.5
32 2 5 12 6
32 2 5 6.9 7.6
32 -2 5 4.7 2.9
32 -2 5 3.4 6.4
32 2 6 11.4 8.6
32 -2 6 5.4 6.2
32 -2 6 2.3 2.8
32 2 7 12.8 8.1
32 -2 7 24 8.8
32 -2 7 18 4.6
32 2 8 38.9 11.7
32 -2 8 30.3 10
32 -2 8 16.1 5.3
-32 3 8 1.5 7.7
32 -3 -8 -3.6 8.2
-32 -3 8 0.3 8.4
32 -3 -8 -1.9 3.7
-32 3 7 61.49 12.3
32 -3 -7 52.39 12.1
-32 -3 7 35.9 10.4
32 -3 -7 72.19 7.4
-32 3 6 19.7 7.1
32 3 -6 27.5 7.9
32 -3 -6 15.6 5.1
-32 -3 6 21.5 8.2
32 -3 -6 33.7 10.4
32 3 -5 63.09 10.3
-32 3 5 70.09 9.5
-32 -3 5 59.69 10.7
32 -3 -5 84.09 8.2
-32 3 4 11.4 5.4
32 3 -4 12.6 6.6
-32 -3 4 9.9 6.8
32 -3 -4 5.7 4.4
32 3 -3 7.4 6.8
-32 3 3 7 4.8
-32 -3 3 5.7 6.6
32 -3 -3 11 5.3
32 3 -2 10.3 6.9
-32 3 2 10.4 4.4
32 -3 -2 0.5 4.8
-32 -3 2 6 6.6
32 3 -1 19.7 8.9
-32 3 1 31.6 5.1
32 -3 -1 34.1 6.3
-32 -3 1 25.6 8.9
32 -3 -1 25.3 8.1
32 3 0 32.1 13.7
-32 3 0 21 4.7
32 -3 0 29 6.6
-32 -3 0 12.6 6.5
-32 3 -1 20.1 4.2
32 3 1 13.1 8.2
32 -3 1 11.1 5.9
32 -3 1 7.8 3.6
-32 -3 -1 19.2 8
32 3 2 2.7 7.3
32 -3 2 2.7 5.4
-32 -3 -2 0.2 6.3
32 3 3 5.8 8.1
32 -3 3 14.9 6
32 3 4 -2.7 6.2
32 -3 4 2.4 5.4
32 3 5 -5.6 7.9
32 -3 5 11.6 7.4
32 3 6 2.3 8.3
32 -3 6 4.7 7.2
32 -3 7 17.3 8.3
-32 -4 8 46.1 11.6
32 -4 -8 49.99 6.8
32 4 -7 -10 4.5
-32 4 7 12.6 7.3
32 -4 -7 6.1 4.8
-32 -4 7 9.1 7.5
32 -4 -7 12.3 10
32 4 -6 29.5 8.4
-32 4 6 6.2 6.1
32 -4 -6 19.7 5.3
-32 -4 6 11.6 6.6
32 -4 -6 -2.5 8.8
-32 4 5 -0.3 5.7
32 4 -5 3.7 6.7
-32 -4 5 -2.8 6
32 -4 -5 0.1 4.6
32 4 -4 14 7.3
-32 4 4 5.5 6.1
-32 -4 4 4.2 6.6
32 -4 -4 2.1 4.1
32 4 -3 0.8 7.4
-32 4 3 1.5 4.3
-32 -4 3 1.5 4
-32 -4 3 7.6 5.8
32 -4 -3 4.2 5.2
-32 4 2 6.7 4.1
32 4 -2 7.2 7.4
32 -4 -2 2.1 4.4
-32 -4 2 -1.7 6.4
-32 4 1 16.9 4.5
-32 -4 1 27 7.6
32 -4 -1 24.2 6.5
-32 4 0 82.79 6.7
32 4 0 96.99 14.4
32 -4 0 101.49 10.7
-32 -4 0 68.49 10.8
32 4 1 -17.4 6.2
-32 -4 -1 -9.2 5.9
32 -4 1 -2.5 4.7
32 4 2 45.8 11.8
32 -4 2 53.59 9
-32 -4 -2 58.29 11.3
32 4 3 54.59 12.4
32 -4 3 50.69 9.4
32 4 4 2.5 7.7
32 -4 4 1.9 6.1
32 4 5 -0.3 7.5
32 -4 5 4.7 6.4
32 4 6 -1.9 8.1
32 -4 6 8.6 7.5
32 -4 7 21.8 10.3
32 5 -7 -1.6 5
-32 -5 7 25 10.7
32 5 -6 16.8 8.6
-32 -5 6 30.1 8.7
32 5 -5 12.1 7.9
-32 -5 5 2.7 6.6
-32 -5 5 0.3 3.9
32 5 -4 19.6 9.5
-32 5 4 28.2 8.8
-32 -5 4 27 9.2
-32 -5 4 31.7 6.1
-32 5 3 0 4.1
32 5 -3 0.4 7.2
-32 -5 3 -1.8 6.2
32 5 -2 34.4 12
-32 5 2 35.4 5.7
-32 -5 2 36 9.1
-32 5 1 11.7 3.8
32 5 -1 11.5 9.2
-32 -5 1 16.3 8.1
32 5 0 -7.7 7
-32 -5 0 -10.2 6
32 5 1 -1.1 8.1
-32 -5 -1 -11.6 6.6
32 -5 1 -0.1 5.1
32 5 2 69.79 14.3
-32 -5 -2 86.09 13.2
32 -5 2 66.69 10.3
32 5 3 3.1 8.9
32 -5 3 -4 5.8
32 5 4 2.2 8.8
32 -5 4 -7.7 4.1
32 5 5 -17.7 6.4
32 -5 5 6.4 8.6
32 5 6 22.9 11.1
32 -5 6 3.3 6.2
32 6 -6 4.9 7.2
-32 -6 6 1.5 5.1
-32 -6 6 13.3 8.7
32 6 -5 15.7 9.2
-32 -6 5 13.2 5.8
-32 -6 5 8.4 8
32 6 -4 15.5 8.9
-32 -6 4 36.2 8.7
32 6 -3 -8.3 7.7
-32 -6 3 9.1 7.3
32 6 -2 -3.8 8.6
-32 -6 2 -6.5 6.2
32 6 -1 12.9 10.5
-32 6 1 -0.4 2.2
-32 -6 1 5.5 6.8
32 6 0 23.3 10.6
-32 -6 0 23.4 9.5
32 6 1 6 9.4
-32 -6 -1 1.9 7.4
32 6 2 14 10.5
-32 -6 -2 -11.9 6.2
32 6 3 -8.1 8.4
32 -6 3 -5.4 7
32 6 4 16.5 9.6
32 -6 4 2.1 7.5
32 6 5 -6.2 9.8
32 -6 5 -2.5 7
32 7 -5 -15.3 8.3
-32 -7 5 -13.8 7
32 7 -4 4.1 9.3
-32 -7 4 7.1 9.4
32 7 -3 16.1 10.7
-32 -7 3 -1.5 7
32 7 -2 -3.8 10
-32 -7 2 -0.7 7.5
32 7 -1 5.3 9.8
-32 -7 1 13.3 8.2
32 7 0 24.1 11.6
-32 -7 0 27.8 10.4
32 7 1 8 9.7
-32 -7 -1 5.2 8.1
32 7 2 21 11.5
-32 -7 -2 25.9 10.9
32 7 4 9.2 11.3
32 -7 4 -1.9 7.1
32 8 -2 -9.2 8.9
-32 -8 2 -10.7 6.6
32 8 -1 11.4 10.6
-32 -8 1 51.99 11.6
32 8 0 -9.7 8.9
-32 -8 0 -2.6 8.5
-32 -8 -1 12.5 9.7
33 0 -8 -0.5 2.9
-33 0 8 -4.5 5.7
33 0 -8 -1.2 5.1
-33 0 7 1.6 5.9
33 0 -7 -7.9 4.1
-33 0 6 3.6 6.4
33 0 -6 10.4 5.3
33 0 -5 -1.5 4.7
-33 0 5 9.1 6
-33 0 4 265.77 17.8
33 0 -4 293.97 17.9
-33 0 3 -6.9 4.4
33 0 -3 -1.9 5.1
33 0 -3 0.9 4.5
33 0 -2 230.18 15.1
-33 0 2 219.98 14.7
33 0 -2 207.38 14.9
-33 0 1 -5.1 4.5
33 0 -1 -1.2 3.5
33 0 -1 0.6 5.2
33 0 0 73.49 8.3
-33 0 0 87.09 9.2
33 0 0 93.09 15.5
33 0 1 -2.9 5.4
33 0 1 -6.1 2.9
-33 0 -1 -4.6 4.2
33 0 2 31.5 8.3
-33 0 -2 9.3 6.1
33 0 2 19.2 4.6
33 0 3 -2.2 3.3
33 0 3 -5.7 6.1
33 0 4 11.9 6.9
33 0 4 17 4.4
33 0 5 0 6.4
33 0 5 -0.3 5.2
33 0 6 46 8.2
33 0 6 63.39 12
33 0 7 -0.7 6.9
33 0 8 -2 7.5
-33 -1 9 -3.2 7.9
-33 1 8 10.6 8.5
33 1 -8 1.3 2.9
-33 -1 8 20.5 8.6
33 -1 -8 -6.2 4.6
33 1 -7 15.8 8.2
-33 1 7 6.4 7.5
-33 -1 7 13 8.1
33 -1 -7 8.5 4.7
-33 1 6 -4.4 5.1
33 1 -6 5.9 5.2
33 -1 -6 2.5 4.2
-33 -1 6 7 6.1
-33 1 5 14.8 8.1
33 1 -5 8.5 5.6
33 -1 -5 14 5.4
-33 -1 5 4.1 6
33 1 -4 19.3 6.7
-33 1 4 15.7 6.1
-33 -1 4 7.6 5.7
33 -1 -4 13.2 5.4
33 -1 -4 24.9 6.6
-33 1 3 3.6 4.8
33 1 -3 6.5 5.6
-33 -1 3 6.6 6
33 -1 -3 0.5 4.7
33 -1 -3 2.7 4.6
33 1 -2 -0.8 5.8
33 1 -2 3 4.2
-33 1 2 6.3 5
33 -1 -2 6.5 5.4
-33 -1 2 5 5.8
33 1 -1 25.1 8
-33 1 1 9.3 4.9
33 1 -1 16.1 5.1
33 -1 -1 13.9 6.2
33 -1 -1 12 5
-33 -1 1 27.2 6.8
33 1 0 4.4 4
-33 1 0 10.7 4.8
33 -1 0 -0.1 3.9
33 -1 0 5.9 6.2
-33 -1 0 1.6 5.3
33 1 1 2.4 4.2
-33 1 -1 -3.2 4.6
33 1 1 14.3 7.6
33 -1 1 13.5 6
-33 -1 -1 8.2 6.1
33 -1 1 13.3 4.1
33 1 2 27 8.6
-33 1 -2 19.1 6.1
33 1 2 37.3 6.5
-33 -1 -2 17.6 7
33 -1 2 19.6 4.7
33 -1 2 19.7 6.9
33 1 3 18.3 8.4
33 1 3 16.5 4.8
33 -1 3 29.3 8.3
33 -1 3 24 4.7
33 1 4 5.3 7
33 -1 4 6.7 3.5
33 -1 4 -3 5.9
33 1 5 7.3 7.1
33 1 5 12.1 5.4
33 -1 5 -3.1 3.3
33 -1 5 2 7
33 1 6 6.7 6.6
33 1 6 -0.5 7.4
33 -1 6 1.7 7.1
33 -1 6 0.4 4.6
33 1 7 38.6 11.6
33 -1 7 15.5 8.7
-33 2 8 -8.3 7.5
33 -2 -8 -9.2 5.7
33 -2 -8 -2.1 2.7
-33 -2 8 4.7 6.7
-33 2 7 12.8 8.7
-33 -2 7 13.7 6.4
33 -2 -7 -2 3.7
33 -2 -7 5.3 7.3
-33 2 6 1 5.5
33 2 -6 -2.6 5.3
-33 -2 6 -2.7 6.2
33 -2 -6 4.6 4.6
-33 2 5 7.9 7
33 2 -5 -5 5.3
33 -2 -5 5.8 4.5
-33 -2 5 3 6.1
33 2 -4 12.1 6.7
-33 2 4 12.2 6.2
33 -2 -4 6.3 5.5
33 -2 -4 7.2 4.2
-33 -2 4 19.3 7.3
33 2 -3 21.9 7.3
-33 2 3 6.3 5.1
33 -2 -3 9.3 6.4
-33 -2 3 10.8 5.8
33 -2 -3 5.3 4.9
33 2 -2 8.2 6.5
-33 2 2 4.8 4.7
-33 -2 2 8.1 6.2
33 -2 -2 10.8 5.2
33 -2 -2 15.8 5.5
33 2 -1 8.1 5.5
-33 2 1 13.3 5.1
33 2 -1 15 7.3
33 -2 -1 30.3 6.4
-33 -2 1 27.4 7.3
33 2 0 75.99 13.7
-33 2 0 70.39 7.3
33 2 0 53.69 8.2
33 -2 0 86.79 9.7
33 -2 0 74.89 8
-33 -2 0 63.59 9.3
33 2 1 91.29 13
-33 2 -1 97.19 12.4
33 2 1 66.69 8.7
33 -2 1 87.69 10.6
33 -2 1 81.49 7.8
-33 -2 -1 81.59 10.7
33 2 2 12.3 4.9
33 2 2 5.2 7.1
-33 -2 -2 10.5 6.8
33 -2 2 19.6 7.3
33 2 3 4.2 5
33 2 3 -4.2 6.9
33 -2 3 -1 5.4
33 -2 3 -5.2 2.7
33 2 4 3.3 4.3
33 2 4 -5.3 7.1
33 -2 4 6.8 6.4
33 -2 4 10.6 3.2
33 2 5 14.8 8.6
33 -2 5 1.7 2.9
33 -2 5 12 7.3
33 2 6 -0.6 7.9
33 -2 6 -15.4 5.6
33 -2 6 -1.9 2.7
33 -2 7 30 11.8
-33 3 8 -2.1 7.1
33 -3 -8 17.4 8.9
33 -3 -8 13.1 4.3
-33 3 7 6.2 7.6
33 -3 -7 -2.2 4.1
-33 -3 7 -10.3 6.2
33 3 -6 32.7 8.2
-33 3 6 25.9 7.9
33 -3 -6 36 9.6
-33 -3 6 12.9 7.8
33 -3 -6 33.4 6.4
33 3 -5 9.1 6.9
-33 3 5 12.2 5.7
-33 -3 5 26.9 8.3
33 -3 -5 41.9 6.7
-33 3 4 0.6 5.1
33 3 -4 5.4 6.3
-33 -3 4 -4.1 5.8
33 -3 -4 1.4 4.3
-33 3 3 35.7 7.3
33 3 -3 33 8.9
33 -3 -3 40.4 6.6
-33 -3 3 42.9 8.9
33 3 -2 7.3 7.3
-33 3 2 3.6 4.3
-33 -3 2 2.9 6.1
33 -3 -2 10 5.8
-33 3 1 17.8 4.8
33 3 -1 26.2 12.7
33 -3 -1 28.6 7.3
33 -3 -1 10.4 5
-33 -3 1 18.1 7.1
-33 3 0 3.1 4
33 3 0 -3.6 6.8
33 -3 0 -5.8 3.2
33 -3 0 6.9 5.1
33 3 1 0.1 7.3
-33 3 -1 -3.1 3.4
33 -3 1 -2.8 3.8
-33 -3 -1 6.1 7
33 3 2 3.5 7.7
33 -3 2 16 6.7
-33 -3 -2 21.9 8.4
33 3 3 21.5 9.6
33 -3 3 17.6 6.1
33 3 4 2 8.2
33 -3 4 -2.2 4.6
33 3 5 -3.1 7.4
33 -3 5 -9.5 5
33 3 6 3 7.4
33 -3 6 -8 6.1
33 3 7 90.29 16.1
33 -3 7 84.99 13.9
33 4 -7 3.3 5
33 -4 -7 12.1 5.6
33 -4 -7 20.9 10.6
-33 4 6 2.8 7.7
33 4 -6 0.7 6.9
-33 -4 6 8.9 6.1
33 -4 -6 0.6 5.1
33 4 -5 19.4 8.6
33 -4 -5 18.5 6.8
-33 -4 5 26.2 8
33 4 -4 57.69 11
-33 4 4 55.59 9
33 -4 -4 50.09 8.6
-33 -4 4 49.2 10.2
-33 4 3 -0.9 4.5
33 4 -3 9.9 7.5
33 -4 -3 11 5.8
-33 -4 3 -2.1 6.3
-33 -4 3 3.1 4.1
-33 4 2 0.3 4
33 4 -2 -9 7.3
-33 -4 2 9.4 6.9
33 -4 -2 4.1 4.6
33 4 -1 18.4 8.5
33 -4 -1 40.3 9.7
-33 -4 1 19 7.6
33 4 0 20 9.1
-33 4 0 12.1 3.6
-33 -4 0 7.3 6.7
33 -4 0 12.7 4.9
33 4 1 26.6 9.5
-33 -4 -1 32.6 9.7
33 -4 1 10.9 6.2
33 4 2 -15.4 6.4
33 -4 2 -0.5 4.7
-33 -4 -2 -13.8 6.4
33 4 3 -8.4 6.7
33 -4 3 5.4 6.1
33 4 4 10.3 9
33 -4 4 1 6.3
33 4 5 3.2 8.4
33 -4 5 2.3 5.5
33 4 6 12.4 14
33 5 -7 -3.4 5.5
-33 5 7 4.1 7.5
-33 -5 7 4.4 7.8
33 5 -6 66.69 12.2
-33 -5 6 52.69 12.3
-33 5 5 65.49 10.4
33 5 -5 57.69 11.8
-33 -5 5 40 10.7
-33 5 4 53.79 10
33 5 -4 40.2 10.6
-33 -5 4 24.6 7
-33 -5 4 27.5 8.4
-33 -5 3 8 6.5
-33 5 2 -1.3 4.1
33 5 -2 4.3 8.3
-33 -5 2 0.4 7
33 5 -1 200.48 19.6
-33 5 1 131.49 9.2
-33 -5 1 148.99 15.1
33 5 0 -7.9 8.1
33 -5 0 9.1 6.2
-33 -5 0 4.2 6.8
33 5 1 21.7 9.7
-33 -5 -1 0.8 7.5
33 -5 1 2.1 6
33 5 2 19.6 10.4
33 -5 2 13.2 5.9
-33 -5 -2 21.7 8.8
33 5 3 18.3 10.5
33 -5 3 12.2 5.8
33 5 4 -5.6 8.2
33 -5 4 6.2 5.6
33 5 6 4.5 10.8
33 -5 6 6.9 7.4
33 6 -6 -4.5 7.9
-33 -6 6 -4 7.8
-33 -6 6 -5.9 3.6
33 6 -5 8.9 8.8
33 6 -4 -3.9 9.5
-33 6 4 4.4 6.7
-33 -6 4 12.1 8.3
33 6 -3 2.2 9
-33 6 3 1.4 5
-33 -6 3 -9.1 6.6
33 6 -2 8.1 9
-33 -6 2 -7 6.4
33 6 -1 0.4 10.2
-33 -6 1 7.5 7.4
33 6 0 7.3 9.8
-33 -6 0 9.5 8.5
33 6 1 12.2 10.2
-33 -6 -1 5.4 7.9
33 6 2 48.3 13.3
-33 -6 -2 68.79 12.7
33 -6 2 36.3 10
33 6 3 -21.9 7.3
33 -6 3 -1.8 6.6
33 -6 4 6.9 8.6
33 7 -4 0.6 10.8
-33 -7 4 27.2 9.9
33 7 -3 -1.8 9.2
-33 -7 3 10.4 13.3
33 7 -2 42.6 12.6
-33 -7 2 27.5 11.9
33 7 -1 12.7 9.1
-33 -7 1 -5.5 7.3
33 7 0 -10.8 8.2
-33 -7 0 4.7 8.9
33 7 1 69.59 15.8
-33 -7 -1 65.39 13.4
33 7 2 -1.8 10.7
-33 -7 -2 -12.1 7.6
33 7 3 50.29 15.7
-34 0 8 -2.4 6.3
34 0 -8 2.6 3.3
34 0 -7 16.2 5.3
-34 0 7 2.9 6.3
34 0 -6 28.9 6.5
-34 0 6 23.2 8.7
34 0 -5 6.3 5.3
-34 0 5 -4.5 5.8
34 0 -4 41.3 7.6
-34 0 3 7 5.8
34 0 -3 4.8 5.4
34 0 -3 1 4.5
34 0 -2 -1.8 5.3
34 0 -2 -2.6 4.1
-34 0 2 3.4 5.2
-34 0 1 -0.9 4.7
34 0 -1 -0.6 5.6
34 0 0 25.1 5.7
-34 0 0 23 6.4
34 0 0 14.7 6.8
-34 0 -1 -9.8 4.4
34 0 1 -5.5 5.7
34 0 1 0.3 3.3
34 0 2 4.4 3.9
34 0 2 -8.3 5.4
-34 0 -2 -0.7 4.9
34 0 3 -6.4 3
34 0 3 4.4 6.6
34 0 4 -0.3 3.6
34 0 4 0 6.5
34 0 5 -4.5 5.2
34 0 5 18 4.5
34 0 6 0.9 7.3
34 1 -8 0 3.2
-34 1 8 13.2 7.5
-34 -1 8 -8.7 6.9
34 -1 -8 -0.6 5.2
34 -1 -8 1.1 4.2
-34 1 7 -3.8 6.1
34 1 -7 4.1 5
34 -1 -7 -7.4 4.1
-34 -1 7 10.3 6.8
-34 1 6 4.7 6.6
34 1 -6 5.8 5.4
34 -1 -6 2.2 4.6
-34 -1 6 -0.6 5.8
-34 1 5 30.6 8.1
34 1 -5 23 6.8
-34 -1 5 33.3 8.3
34 -1 -5 18.3 6.1
34 1 -4 4.9 5.9
-34 1 4 4 6.3
-34 -1 4 -6.2 5.1
34 -1 -4 5.9 5.2
-34 1 3 -6.2 4.5
-34 -1 3 6.4 7.2
34 -1 -3 4.9 5.2
34 -1 -3 -4.7 4.5
34 1 -2 -0.4 4
34 1 -2 -0.3 5.8
-34 1 2 -9.8 4.4
34 -1 -2 -1.2 5
-34 -1 2 -3 5.3
34 1 -1 8.5 4.8
-34 1 1 11 5
34 1 -1 8.8 6.6
-34 -1 1 5.6 5.9
34 -1 -1 13.7 4.8
34 1 0 -8.4 5.5
-34 1 0 -8.1 4
34 1 0 2.5 3.9
34 -1 0 1.9 3.7
34 -1 0 -2.7 4.9
-34 -1 0 1.3 5.2
34 1 1 135.29 11.1
-34 1 -1 142.69 12.1
34 1 1 155.18 15.4
34 -1 1 147.39 10.9
-34 -1 -1 166.88 13.8
34 -1 1 185.28 14.6
34 1 2 1.3 6.7
-34 1 -2 4 4.9
34 -1 2 0 3.5
-34 -1 -2 -1.1 5.7
34 -1 2 3 6
34 1 3 15.1 7.6
34 -1 3 -3.6 5.7
34 -1 3 12.7 3.9
34 1 4 11.3 7.5
34 1 4 -1 4.9
34 -1 4 0.9 3.7
34 -1 4 11.3 7.5
34 1 5 2.6 7.5
34 1 5 6 5.6
34 -1 5 2 4
34 -1 5 1.1 6.2
34 1 6 -6.6 5.6
34 1 6 5.5 7.8
34 -1 6 7.1 4.6
34 -1 6 2.4 7.4
34 1 7 20.7 13.2
34 -1 7 -2.4 7.4
-34 2 8 0.5 6.9
34 2 -8 -9 3.3
34 -2 -8 1.3 6.9
34 -2 -8 -2.8 3.1
34 2 -7 -11.7 4.1
-34 2 7 -1.3 6.8
34 -2 -7 -1.1 4.3
-34 -2 7 0.3 5.5
34 -2 -7 6.7 7.5
-34 2 6 8.8 7.7
34 2 -6 17.9 7
-34 -2 6 12 7.9
34 -2 -6 13.4 5.2
-34 2 5 5.3 6.7
34 2 -5 2.5 5.8
34 -2 -5 -2.5 4.6
-34 -2 5 10.8 6.6
-34 2 4 5.7 6.2
34 2 -4 4.8 6.3
34 -2 -4 -6.4 5.4
-34 -2 4 -2.9 6.2
34 -2 -4 4.2 4.5
34 2 -3 3.4 6.6
-34 2 3 2.9 5.2
-34 -2 3 2.2 5.6
34 -2 -3 5.7 5.3
34 -2 -3 -1.4 4.6
-34 2 2 25.3 5.9
34 2 -2 34.8 8.7
34 -2 -2 40.1 7.1
-34 -2 2 21.7 11.5
-34 2 1 31.2 6.1
-34 -2 1 40.6 8.3
34 -2 -1 34.2 7.2
34 -2 -1 33.8 7
-34 2 0 10.2 4.8
34 2 0 13.4 6.6
34 2 0 6.5 5.3
34 -2 0 15.4 5.3
34 -2 0 8.5 5.4
-34 -2 0 11.5 6.4
34 2 1 12.5 5
34 2 1 14 7.8
34 -2 1 9.1 4.6
-34 -2 -1 18.1 7.2
34 -2 1 9.5 6.1
34 2 2 5.9 4.4
34 2 2 -4.1 6.7
34 -2 2 3 6
-34 -2 -2 -1.6 6.1
34 2 3 14.6 8.1
34 2 3 3.6 4.9
34 -2 3 6.1 6.4
34 -2 3 11 3.6
34 2 4 17.9 8.6
34 2 4 7.6 6.6
34 -2 4 16.4 3.7
34 -2 4 15.4 7.3
34 2 5 9.7 7.8
34 -2 5 0.6 6.5
34 -2 5 6.4 3.2
34 2 6 6.4 8.8
34 -2 6 9.8 7.4
34 -2 6 5.7 3.1
34 2 7 -2.1 8.5
34 -2 7 12.6 8.3
34 -2 7 3.1 3.6
34 3 -8 6.9 3.9
34 -3 -8 1.7 8.3
-34 -3 8 10.3 8.9
34 -3 -8 -0.5 3.2
-34 3 7 58.49 11.8
-34 -3 7 38.6 11.7
34 -3 -7 69.49 7.8
34 -3 -7 45.4 11.5
-34 3 6 23.7 8.3
34 3 -6 20.5 7.4
34 -3 -6 2.2 8.6
-34 -3 6 10.4 7.4
34 -3 -6 9 4.7
34 3 -5 4 6.5
-34 3 5 20.2 8.6
-34 -3 5 -0.8 6.4
34 -3 -5 12.6 5.2
34 3 -4 124.59 14.2
-34 3 4 142.49 13.8
34 -3 -4 135.79 11.5
-34 -3 4 105.89 12.2
34 3 -3 6.3 7.2
-34 3 3 -2 4.9
34 -3 -3 -0.8 5.6
-34 -3 3 5.3 6.6
-34 3 2 8.8 4.8
34 3 -2 5.6 7.5
34 -3 -2 11.3 5.2
-34 -3 2 10.8 6.7
-34 3 1 33.6 6.4
34 3 -1 23.7 9.3
-34 -3 1 30.8 8.4
34 -3 -1 48.3 7.6
-34 3 0 5.1 5
34 3 0 14.3 8.3
34 -3 0 4.9 3.9
34 -3 0 7.5 5.6
-34 -3 0 13.7 7.4
-34 3 -1 102.59 8.2
34 3 1 71.39 12.7
-34 -3 -1 85.59 15.2
34 -3 1 95.39 11.4
34 3 2 -1.9 7.4
-34 -3 -2 -9.2 7.7
34 -3 2 7.3 6.2
34 3 3 -0.4 7.7
34 -3 3 15.9 6.1
34 3 4 -0.3 7.9
34 -3 4 -0.5 6
34 3 5 23.1 10.1
34 -3 5 8.8 8
34 4 -7 0.6 4.8
34 -4 -7 7.2 12.7
-34 -4 7 17.6 9.9
34 -4 -7 20 6.1
34 4 -6 23.7 8.6
-34 -4 6 13.5 7.8
34 4 -5 -0.6 7.5
34 -4 -5 8.2 5.4
-34 -4 5 9.7 7.6
34 4 -4 50.59 11
-34 4 4 44.5 9.6
34 -4 -4 45.5 7.2
-34 -4 4 37.1 9.4
34 4 -3 -11.4 7.1
-34 4 3 4.6 5.3
34 -4 -3 5.5 4.9
-34 -4 3 4.8 7.2
-34 4 2 5 4.5
34 4 -2 1 7.5
-34 -4 2 10.7 7
34 -4 -2 -1.8 4.5
34 4 -1 -6.6 6.5
34 -4 -1 7.6 5.3
-34 -4 1 12.7 6.8
34 4 0 33.4 10.6
-34 4 0 41.6 5.1
-34 -4 0 27.9 8.6
34 -4 0 49.3 8.2
34 4 1 43.9 11.3
-34 -4 -1 25.2 9
34 -4 1 47.6 8.7
34 4 2 22.5 9.6
34 -4 2 6.1 5.1
-34 -4 -2 14.5 8.3
34 4 3 2.9 8.7
34 -4 3 15.9 7.4
34 4 4 2.5 8.7
34 -4 4 -1.7 6.8
34 4 5 -6.3 8.2
34 -4 5 1.3 7
34 4 6 -1.7 9.6
34 -4 6 3.9 7.9
34 5 -6 -1.6 7.5
34 -5 -6 -0.4 4.7
-34 -5 6 16 9.7
34 5 -5 -1.6 7.6
-34 -5 5 -5 7.3
34 5 -4 3.2 9.3
-34 5 4 16.3 7.6
-34 -5 4 9.3 8.1
34 5 -3 17.8 9.2
-34 -5 3 3 7.3
-34 5 2 8.6 5
34 5 -2 15.8 9.1
-34 -5 2 1.7 7
34 -5 -2 9.4 6
34 5 -1 18.7 10.2
-34 5 1 14 4
-34 -5 1 15.6 8.6
34 -5 -1 8.3 6.3
34 5 0 31.9 10.2
-34 -5 0 30.1 9.1
34 -5 0 33.3 8.4
34 5 1 -4.3 8.2
-34 -5 -1 -6 7.9
34 -5 1 -0.8 5.9
34 5 2 -2.2 8
34 -5 2 8.1 7.3
-34 -5 -2 -1.7 7.9
34 5 3 10.4 9.4
34 -5 3 -3.8 4.4
34 5 4 16.1 10
34 -5 4 -0.8 6.9
34 5 5 11.3 11.3
34 -5 5 7.6 8.5
34 6 -5 -2.7 8.8
-34 -6 5 -11.8 6.9
34 6 -4 6.4 8.8
34 6 -3 29.9 10.5
-34 6 3 13.5 5.4
-34 -6 3 4.4 7.8
34 6 -2 17 10.4
-34 -6 2 26.3 9.4
34 6 -1 -8.7 8.2
-34 -6 1 8.2 7
34 6 0 14.8 10.6
-34 -6 0 23.1 10.2
34 6 1 6.2 9.8
-34 -6 -1 9.2 9.2
34 -6 1 16.6 8.2
34 6 2 5.4 9.7
-34 -6 -2 -3 8.3
34 -6 2 27 6.9
34 6 3 3.6 11.3
34 6 4 -1.1 10
34 -6 4 2.2 5.6
34 7 -3 -10.4 8.4
-34 -7 3 -10.7 6.3
34 7 -2 2.4 9.5
-34 -7 2 7.9 9.5
34 7 -1 12.5 9.7
34 7 0 -21.9 8.2
34 7 1 41.1 14
34 7 2 17.4 14.7
-35 0 8 2.4 8.9
35 0 -7 -2 4.5
-35 0 7 -0.5 6.9
35 0 -6 -3.8 4.9
-35 0 6 -5.4 6.7
35 0 -5 -12.9 4.6
-35 0 5 2.5 6.3
35 0 -4 15.9 6.7
-35 0 4 12.7 6.6
-35 0 3 -4.5 5.2
35 0 -3 -6.2 4.8
35 0 -2 28.1 6.2
35 0 -2 54.09 9
-35 0 2 34.8 7.8
35 0 -1 -6.5 3.4
35 0 -1 0.7 5.6
-35 0 1 -4.7 4.9
-35 0 0 20.3 6.1
35 0 0 4.7 6.4
35 0 0 16.6 5.2
-35 0 -1 -4.5 5
35 0 1 5.4 6.7
35 0 1 2.4 3.6
35 0 2 2.7 4
35 0 2 0.3 5.6
-35 0 -2 1.3 5.8
35 0 3 -12.5 4.4
35 0 3 3 3.7
35 0 4 13.4 4.2
35 0 4 7.6 7
35 0 5 1.5 7.5
35 0 5 -3.3 3.5
35 0 6 6.3 8
35 0 7 -1.3 6.2
-35 1 8 -1.7 7
35 1 -8 1.5 3.7
35 -1 -8 -1.5 6.3
35 -1 -8 -2.3 3.4
-35 1 7 16.6 7.9
35 1 -7 16.2 5.4
-35 -1 7 11.8 7
35 -1 -7 27.5 6
-35 1 6 -2.6 6
35 1 -6 12.6 6.2
35 -1 -6 19.7 5.9
-35 -1 6 -0.6 6.1
-35 1 5 2 7.3
35 1 -5 -10 5.2
-35 -1 5 9.4 7.2
35 -1 -5 -3.4 4.9
35 1 -4 33.6 7.7
-35 1 4 28 7.3
-35 -1 4 47.1 9.2
35 -1 -4 22.1 6.4
35 1 -3 -2 5.7
-35 1 3 3.9 5.6
35 -1 -3 -6.3 4.2
-35 -1 3 7.9 6
35 -1 -3 3.4 5.4
-35 1 2 9.6 5.7
35 1 -2 8.5 6.7
35 -1 -2 8.5 5.1
-35 -1 2 0.6 5.6
35 1 -1 3.1 7
35 1 -1 3.8 4.3
-35 1 1 -2.6 4.5
35 -1 -1 0.5 3.9
35 -1 -1 1.2 5
-35 -1 1 7.9 6
-35 1 0 31.1 6.4
35 1 0 40.4 9
35 1 0 25.5 5.8
35 -1 0 26 7
-35 -1 0 13 6.6
35 -1 0 11.5 4.9
35 1 1 119.69 10.5
35 1 1 110.09 13.4
-35 1 -1 120.79 11.4
-35 -1 -1 115.49 12.3
35 -1 1 125.89 13
35 -1 1 116.69 9.5
35 1 2 15.4 5.1
35 1 2 3.7 6.8
35 -1 2 23.5 5
35 -1 2 12.3 6.9
-35 -1 -2 9.8 7
35 1 3 -3.5 3.7
35 1 3 0.7 7.3
35 -1 3 5.9 7.1
35 -1 3 3.9 4
35 1 4 -3.7 6.6
35 1 4 0.1 4
35 -1 4 -3.9 5.4
35 1 5 -1.6 7.1
35 1 5 6.5 5.8
35 -1 5 14.8 7.9
35 -1 5 -4.7 3.9
35 1 6 -4.5 6.2
35 -1 6 10.1 9
35 1 7 4.8 8.8
35 -1 7 14.3 8.6
-35 2 8 -5.5 5.9
35 2 -8 1.4 4.1
-35 -2 8 1.7 5.7
35 -2 -8 3 3.7
35 2 -7 1.2 4.3
-35 2 7 6.8 9.1
35 -2 -7 5.2 4.5
-35 -2 7 -0.8 6.8
35 -2 -7 -2.3 7.9
35 2 -6 -1.5 5.9
-35 2 6 3.5 7.2
35 -2 -6 11.9 5.7
-35 -2 6 9 7.4
35 2 -5 107.29 12.1
-35 2 5 76.39 11.8
35 -2 -5 98.79 10.4
-35 -2 5 61.49 10.4
-35 2 4 5.5 5.1
35 2 -4 11.7 7.7
-35 -2 4 0.2 6.4
35 -2 -4 10.3 6.9
35 -2 -4 0.7 4.8
35 2 -3 10.5 6.7
-35 2 3 0.4 4.8
35 -2 -3 1.8 5.3
-35 -2 3 13.3 7
-35 2 2 9 5.5
35 2 -2 4.9 6.7
35 -2 -2 11.8 6.2
35 -2 -2 15.1 6
-35 -2 2 8.7 6.8
35 2 -1 72.59 11.8
-35 2 1 94.69 9
35 -2 -1 92.69 10.2
35 -2 -1 79.29 9.2
35 2 0 11.3 7
-35 2 0 1 4.7
35 -2 0 5.7 5.5
-35 -2 0 9.1 6.5
35 -2 0 7.5 4.6
35 2 1 14.4 7.7
-35 2 -1 17.7 5.7
35 -2 1 25.4 7.7
35 -2 1 27.6 5.9
-35 -2 -1 14.1 7.3
35 2 2 3.3 6.9
35 -2 2 2 4.2
35 -2 2 5 6.1
-35 -2 -2 18.1 7.1
35 2 3 -1.6 6.7
35 -2 3 -9 3.8
35 -2 3 5.1 6.2
35 2 4 14.1 8.1
35 -2 4 -0.8 6.7
35 -2 4 -7.4 2.7
35 2 5 -5.4 6.7
35 -2 5 -1.7 5.5
35 -2 5 -5.2 2.9
35 -2 6 -7.5 2.6
35 3 -7 7.3 5
-35 3 7 -7.3 7
35 -3 -7 -5.1 8.5
35 -3 -7 -2.2 5
35 3 -6 20.2 8.3
35 -3 -6 34.9 10.2
35 -3 -6 30.3 6.3
-35 -3 6 19.8 8.4
-35 3 5 -1.1 7.5
35 3 -5 -3 6.5
-35 -3 5 -7.7 6.6
35 -3 -5 -0.2 4.6
-35 3 4 5.5 5.7
35 3 -4 9.6 7.3
35 -3 -4 4.7 6
-35 -3 4 17.5 6.9
-35 3 3 29.2 7.3
35 3 -3 22.7 8.6
35 -3 -3 37.3 7.8
-35 -3 3 21.7 7.2
35 3 -2 7.8 9
-35 3 2 4.3 5.1
35 -3 -2 9.4 5.8
-35 -3 2 7.1 6.8
35 3 -1 2.5 8.5
-35 3 1 12.6 5.2
-35 -3 1 -0.5 6.8
35 -3 -1 -3.7 4.4
35 3 0 -11.6 6.3
-35 -3 0 -4.4 6.5
35 -3 0 -4.2 5.1
-35 3 -1 127.59 9.8
35 3 1 154.48 16.7
-35 -3 -1 140.89 15.6
35 -3 1 149.79 13.6
35 3 2 10.8 8.1
-35 -3 -2 15.9 8.1
35 -3 2 3.7 6.3
35 3 3 42.6 11
35 -3 3 40.7 7.9
35 3 4 1.8 8.3
35 -3 4 14.8 8.1
35 3 5 2.1 9
35 -3 5 -4.7 6.8
35 3 6 -6.5 8.5
35 -3 6 -0.8 7.1
35 4 -6 5.9 8.1
35 -4 -6 11 5.4
-35 -4 6 21 9
35 4 -5 18.3 8.3
35 -4 -5 12.5 6.4
-35 -4 5 11.2 7.9
-35 4 4 10.8 7.5
35 4 -4 -9.7 5.9
-35 -4 4 -5.1 6.1
35 -4 -4 3.2 6.1
-35 4 3 -3.2 5.3
35 -4 -3 -2 5.6
-35 -4 3 -2.3 6.3
35 4 -2 23.5 9.9
-35 4 2 16.4 5.6
-35 -4 2 16 7.6
35 -4 -2 16.6 8.2
35 4 -1 23.9 9.5
-35 -4 1 12.2 7.7
35 -4 -1 22.9 6.9
35 4 0 -2 7.3
-35 4 0 1.6 3.2
35 -4 0 -6.2 4.9
-35 -4 0 3.2 6.7
35 4 1 55.19 12.7
-35 -4 -1 57.49 11.7
35 -4 1 51.99 9.5
35 4 2 16.2 8.9
-35 -4 -2 31.7 10.3
35 -4 2 14.4 7.2
35 4 3 -9.5 7.7
35 -4 3 9.8 7.1
35 4 4 8.8 8.7
35 -4 4 -6.1 6.1
35 4 5 -3.5 8.5
35 -4 5 13.5 8.9
35 5 -6 2.2 7.7
35 -5 -6 11.4 6.6
-35 -5 6 4.7 8
35 5 -5 96.99 15
35 -5 -5 121.19 13.1
-35 -5 5 55.89 13.5
-35 5 4 14.8 7.5
35 -5 -4 21.6 6.4
-35 -5 4 1.3 7.8
35 5 -3 -2.1 7.3
35 -5 -3 -5.6 4.5
-35 -5 3 0.1 7
35 5 -2 3 7.3
-35 -5 2 15.4 8.1
35 -5 -2 6.5 6
35 5 -1 23.2 10.7
35 -5 -1 50.19 10.6
-35 -5 1 27.2 7.9
35 5 0 15.2 9.6
35 -5 0 -1 5.7
-35 -5 0 -2.9 6.5
35 5 1 2.8 8.6
35 -5 1 0 6.2
-35 -5 -1 1.8 7.4
35 5 2 -1.6 8
-35 -5 -2 10.1 10.1
35 -5 2 -0.9 7.3
35 5 3 6 9.8
35 -5 3 9.5 7.4
35 5 4 -18.8 12.2
35 -5 4 6.1 7.1
35 6 -4 17 10.3
-35 -6 4 15.2 9.9
35 6 -3 11.8 9.6
-35 -6 3 21.3 11.9
35 6 -2 18.7 10.4
-35 -6 2 3.1 7.6
35 6 -1 3 9.7
-35 -6 1 16.9 9.1
35 6 0 31.5 11.7
35 -6 0 19.7 8.2
-35 -6 0 0.1 7.9
35 6 1 1.7 9.8
35 -6 1 -3 6.3
-35 -6 -1 6.5 8.8
35 6 2 69.59 15.2
-35 -6 -2 33 9.9
35 6 3 -1.5 10.2
35 -6 3 8.7 5.9
35 7 -1 -16.5 7.7
-35 -7 1 -0.4 8.1
35 7 0 41.9 12.8
-35 -7 0 22.1 10.9
36 0 -7 2.9 4.9
-36 0 7 -1.5 7.1
-36 0 6 15.2 7.9
36 0 -6 16.3 6.2
-36 0 5 -5.7 5.4
36 0 -5 1 5.7
-36 0 4 0.7 6.2
36 0 -4 1 5.8
36 0 -3 13.4 6.6
-36 0 3 0.2 6.7
-36 0 2 1.7 5.2
36 0 -2 14.2 6.8
36 0 -2 -1.2 4.8
36 0 -1 13.9 7.1
36 0 -1 7.7 4.6
-36 0 1 7.8 6
-36 0 0 0.2 5
36 0 0 -3.2 4.6
36 0 0 5.6 6.2
36 0 1 10.9 7.2
-36 0 -1 5.8 5.9
36 0 1 -6.3 3.2
-36 0 -2 2.1 6.1
36 0 2 -4 6.1
36 0 2 6.9 4.5
36 0 3 4.5 4
36 0 3 5.3 6.5
36 0 4 -2.3 6.9
36 0 5 4.9 6.7
36 0 5 -12.6 4.4
36 0 6 23.2 9.4
-36 1 7 13.2 10.4
36 -1 -7 13.8 5.5
-36 -1 7 12.5 7.6
36 1 -6 3 6.1
-36 1 6 13.4 8.1
-36 -1 6 13.9 8.4
36 -1 -6 22 6.4
36 1 -5 1.4 5.6
-36 1 5 10.9 6.8
-36 -1 5 11.7 7.6
36 -1 -5 9.6 6.2
-36 1 4 -6.8 6.7
36 1 -4 9.7 6
36 -1 -4 2.5 5.7
-36 -1 4 0 6.5
-36 1 3 0.3 5.4
36 1 -3 7.5 6.3
36 -1 -3 7.4 5.1
36 -1 -3 7.4 8
-36 -1 3 2 5.7
-36 1 2 -3 4.8
36 1 -2 -9.2 5.6
36 -1 -2 1.2 5.7
36 -1 -2 -2.3 4.2
36 1 -1 2.9 6.3
-36 1 1 13.7 6
36 1 -1 4.6 6.7
36 -1 -1 12.8 5.1
-36 -1 1 -4.7 5.3
36 -1 -1 10.9 6.1
36 1 0 -1.4 3.7
36 1 0 -2.5 5.9
-36 1 0 -0.5 4.9
36 -1 0 -5 5.2
-36 -1 0 -1.2 5.5
36 -1 0 -3 4.1
36 1 1 21.2 8.4
-36 1 -1 25.6 6.8
36 1 1 28.8 6.6
-36 -1 -1 27.1 7.9
36 -1 1 16.9 7.3
36 -1 1 39.2 6.3
36 1 2 5.2 4.4
36 1 2 3 7.3
36 -1 2 10 6.7
36 -1 2 10.9 4.1
-36 -1 -2 7.7 7
36 1 3 -10.6 3.4
36 1 3 -0.5 5.9
36 -1 3 3.8 4.1
36 -1 3 -2.1 6.4
36 1 4 -9 6.1
36 1 4 3.9 5.2
36 -1 4 5.7 7.3
36 -1 4 5.7 4.1
36 1 5 0.2 5.1
36 1 5 4.2 6.8
36 -1 5 0.5 6.7
36 -1 5 0.4 4.2
36 1 6 -9.4 6.5
36 -1 6 0 6.5
36 -1 6 1.7 5
-36 2 7 32.2 10.9
36 -2 -7 36.3 6.6
-36 -2 7 26.3 9.3
36 2 -6 46.3 9.3
-36 2 6 47.8 9.3
36 -2 -6 84.09 9.3
-36 -2 6 42.7 9.8
36 2 -5 68.49 10.9
-36 2 5 65.09 12
36 -2 -5 90.89 9.7
-36 -2 5 62.49 10.5
36 2 -4 1.6 6.9
-36 2 4 3.8 6.5
-36 -2 4 9.1 6.9
36 -2 -4 -3.9 4.8
36 2 -3 -1.8 6.7
-36 2 3 1.5 5.8
36 -2 -3 6.1 5.7
36 -2 -3 -0.1 5.5
-36 -2 3 2.5 6.7
-36 2 2 -0.4 5.1
36 2 -2 -5.2 6.5
36 -2 -2 -8.9 5.7
-36 -2 2 -8.6 5.9
36 -2 -2 4.4 4.8
-36 2 1 -3.3 4.3
36 2 -1 0.8 6.3
36 -2 -1 28.9 6.1
-36 -2 1 7.9 6.9
36 -2 -1 8.9 6.4
36 2 0 -0.6 6.9
-36 2 0 -5.7 4.1
36 -2 0 4.3 5.5
36 -2 0 -6.7 4.4
36 2 1 12 7.9
-36 2 -1 8 4.9
36 -2 1 0.4 5.8
-36 -2 -1 5.5 6.9
36 -2 1 3.7 4.7
36 2 2 9.3 7.2
36 -2 2 -6.6 5.4
36 -2 2 -3 3.7
-36 -2 -2 -8.3 6.4
36 2 3 4.9 7.3
36 -2 3 4.6 6.8
36 2 4 10.7 8.2
36 -2 4 7.5 3.2
36 -2 4 6.2 6
36 2 5 6 8.5
36 -2 5 -8 6.6
36 -2 5 13.4 3.7
36 2 6 6.4 9.6
36 -2 6 2.9 3
36 -2 6 0.5 7.1
36 3 -7 2.5 5.2
-36 -3 7 -0.2 8.4
36 -3 -7 9.3 10
36 -3 -7 17.5 5.7
36 3 -6 38.9 9.3
-36 3 6 21.6 8.6
-36 -3 6 18.8 8.8
36 -3 -6 38.4 6.6
36 3 -5 3.5 7.4
-36 3 5 13.3 8.2
-36 -3 5 22.9 8.6
36 -3 -5 1.1 5.8
36 3 -4 7.8 7.5
-36 3 4 12.8 7.8
36 -3 -4 2.2 5.2
-36 -3 4 1.1 6.8
-36 3 3 7.8 6.5
-36 -3 3 0.7 5.7
36 -3 -3 7.3 5
36 3 -2 20.7 9
-36 3 2 2.4 4.9
-36 -3 2 2.5 6.8
36 -3 -2 -4.8 4.7
36 3 -1 5.5 9
-36 3 1 6.4 4.8
36 -3 -1 5.7 5.6
-36 -3 1 13.3 7.5
36 3 0 3.1 8.1
-36 -3 0 1.2 6.8
36 -3 0 8.5 5.8
36 3 1 50.29 11.3
-36 -3 -1 34.4 9.9
36 -3 1 21.5 7.8
36 3 2 -1.6 7.6
36 -3 2 -4.1 5.7
-36 -3 -2 -12.2 7
36 3 3 -0.7 8.9
36 -3 3 5 6.5
36 3 4 -1.3 8.5
36 -3 4 -2.9 7.1
36 3 5 -0.8 12.8
36 4 -6 -3.6 7.4
-36 4 6 -2.8 7.6
36 -4 -6 3.4 6.4
36 4 -5 14.8 8.9
36 -4 -5 23.9 7.1
-36 -4 5 13.3 9
-36 4 4 -2.7 6.6
36 4 -4 -6.1 7.3
36 -4 -4 -0.6 4.4
-36 -4 4 -0.6 6.6
36 4 -3 -4.8 6.8
-36 4 3 13.6 5.7
-36 -4 3 0.3 5.8
36 -4 -3 3.5 5.1
36 4 -2 15.3 9.7
-36 4 2 18.5 6.5
-36 -4 2 28.2 8.8
36 -4 -2 15.3 6.5
-36 4 1 -0.7 4.8
36 4 -1 7.8 8.2
36 -4 -1 -9.1 4.7
-36 -4 1 -1.7 6.5
36 4 0 3.3 8.2
36 -4 0 1.1 5.3
-36 -4 0 -2.8 7.3
36 4 1 18.7 9.4
-36 -4 -1 8.8 8.7
36 -4 1 20.1 7.6
36 4 2 3.8 7.6
-36 -4 -2 14.7 8.7
36 -4 2 10.2 8
36 4 3 9.2 9.1
36 -4 3 11.7 7.7
36 4 5 1.2 8.7
36 -4 5 6.3 7.5
36 5 -5 8.5 9.2
36 -5 -5 13.6 7.2
-36 -5 5 6.7 9.4
36 5 -4 12.4 9.8
-36 -5 4 13.7 8
36 -5 -4 16.1 8
36 5 -3 12.8 8.8
-36 -5 3 3.2 6.5
-36 5 2 10.5 4.7
36 5 -2 5.5 8.2
-36 -5 2 -1 6.9
36 -5 -2 5.9 6.3
36 5 -1 -2.5 9.3
-36 5 1 2.5 2.2
36 -5 -1 -0.3 5.5
-36 -5 1 -3.5 7
36 5 0 -2.5 8.5
-36 -5 0 -19.9 6.4
36 -5 0 -2.7 5.7
36 5 1 -2.1 8.2
-36 -5 -1 12.2 9.3
36 -5 1 2.8 6.6
36 5 2 -3.1 8.4
-36 -5 -2 15.6 8.8
36 -5 2 7.6 7.9
36 5 3 -11.2 11.8
36 5 4 -13.9 8.9
36 -5 4 -4.7 6.5
36 6 -3 41.6 12.1
-36 -6 3 25.3 10.3
36 6 -2 -1.5 8.7
-36 -6 2 -22.5 9.1
36 6 -1 -13 8.6
36 -6 -1 17.4 10.1
-36 -6 1 2.5 7.3
36 6 0 3.2 10.8
-36 -6 0 1.6 8.8
36 -6 0 3.2 7.5
36 6 1 -13.9 9.2
-36 -6 -1 -9.7 7.8
36 -6 2 10.3 9.4
-36 -6 -2 19.4 9.4
-37 0 7 1.8 8.8
37 0 -7 2.1 4.7
-37 0 6 -11 6.1
37 0 -6 -3 5.5
-37 0 5 4.6 7.9
37 0 -5 -13.3 5.2
37 0 -4 -8.4 5.8
-37 0 4 -0.7 6.3
-37 0 3 -11.3 5.1
37 0 -2 4.7 5.8
-37 0 2 -3.5 5.4
37 0 -1 0 5.9
-37 0 1 1.1 5.7
37 0 -1 -2.1 4.9
37 0 0 -3.2 4
-37 0 0 1.8 5.6
37 0 0 2 6.3
37 0 1 -1.1 6.7
-37 0 -1 3.1 6.1
37 0 2 12.8 7.8
-37 0 -2 13.6 6.9
37 0 2 3.1 4.3
37 0 3 -1.8 6.2
37 0 3 -1.5 4.3
37 0 4 -0.9 7.4
37 0 4 1.7 4
37 0 6 91.59 15.4
37 1 -7 5 4.7
-37 1 7 6.8 9.7
-37 -1 7 14.1 8.3
37 -1 -7 1.5 4.8
37 1 -6 11.2 7
-37 1 6 5.1 8.2
37 -1 -6 8.1 5.9
-37 -1 6 15 8.1
37 1 -5 12.2 6.8
-37 1 5 18.6 9.8
37 -1 -5 21.6 7
-37 -1 5 11.4 8
37 1 -4 2.3 5.9
-37 1 4 3.4 5.7
37 -1 -4 7.8 5.9
-37 -1 4 16.4 8
-37 1 3 2.9 5.7
37 -1 -3 1.1 5.7
-37 -1 3 5 6.3
-37 1 2 5.5 5.8
37 1 -2 2.5 6.7
37 -1 -2 1.2 6.4
-37 -1 2 4.4 5.9
37 -1 -2 6.6 5.4
-37 1 1 -0.8 5.5
37 1 -1 11.9 6.9
37 -1 -1 -4 5.8
-37 -1 1 5.3 6.1
37 1 0 44.6 7.8
37 1 0 35.5 9.6
-37 1 0 55.39 8.3
37 -1 0 37.2 8.6
-37 -1 0 36.2 8
37 -1 0 66.49 8.4
-37 1 -1 17 6.7
37 1 1 27.7 8.7
37 1 1 20.6 5.4
37 -1 1 4.1 6.3
-37 -1 -1 18.5 7.8
37 -1 1 6 4.8
37 1 2 11 4.7
37 1 2 19.3 8.4
37 -1 2 3.2 3.9
37 -1 2 9.5 6.1
-37 -1 -2 2.6 6.8
37 1 3 5 4.7
37 1 3 -5.3 6.7
37 -1 3 -0.4 3.6
37 -1 3 -2.2 5.4
37 1 4 -6.4 4.7
37 1 4 -1.9 7
37 -1 4 0.1 3.9
37 -1 4 -0.3 6.6
37 1 5 2.2 5.6
37 -1 5 3.9 4.5
37 1 6 59.69 12.8
37 -1 6 38.5 11.2
-37 2 7 2 7.4
37 2 -7 -2.5 4.8
37 -2 -7 -2.5 9.8
37 -2 -7 1.9 5.1
37 2 -6 -0.5 6.5
-37 2 6 -1 8.1
-37 -2 6 8.1 8.1
37 -2 -6 5.1 5
-37 2 5 79.69 11.2
37 2 -5 104.29 12.6
37 -2 -5 76.69 9.3
-37 -2 5 49.7 10.4
37 2 -4 0.8 6.9
37 -2 -4 11.7 6
-37 -2 4 -5.4 5.8
37 2 -3 24.4 11.9
-37 2 3 17.2 6.8
37 -2 -3 21 6.8
37 -2 -3 22.3 6.9
-37 -2 3 18.6 8.4
-37 2 2 -6.3 4.7
37 2 -2 6.8 7.7
37 -2 -2 8.8 6.9
-37 -2 2 7.5 6.5
-37 2 1 8.3 5.1
37 2 -1 15.3 7.9
-37 -2 1 10.2 7.2
37 -2 -1 4.4 5.5
37 -2 -1 16.8 7.4
37 2 0 -1.9 6.7
-37 2 0 2.5 4.8
37 -2 0 -8.4 4.9
-37 -2 0 -4.2 5.8
37 -2 0 3.4 4.8
-37 2 -1 -5.8 4.7
37 2 1 -4.7 6.7
37 -2 1 -0.3 5.7
37 -2 1 -4.6 4.6
-37 -2 -1 -1.2 8.8
37 2 2 -3.5 6.9
37 -2 2 2.5 4.9
37 -2 2 1.2 4.2
37 2 3 -7.1 6.6
37 -2 3 14.3 7.8
37 2 4 4.3 8.3
37 -2 4 4.5 3.4
37 -2 4 1 7
37 2 5 1.4 8.3
37 -2 5 -5.9 7.5
37 -2 5 -0.7 3.2
37 3 -6 16 8.2
-37 -3 6 12.3 9
-37 3 5 8 8.7
37 3 -5 8.1 7.7
37 -3 -5 11.3 6.4
-37 -3 5 8.3 7.9
-37 3 4 10.6 8.1
37 3 -4 -6.1 6.8
37 -3 -4 -3.4 5
-37 -3 4 -3.1 6.2
37 3 -3 0.6 7
-37 3 3 0.5 5.4
-37 -3 3 10.4 7.7
37 -3 -3 5.4 4.8
37 3 -2 10.2 8.8
-37 3 2 -10.5 4.4
37 -3 -2 0.3 5.1
-37 -3 2 8.5 7.4
37 3 -1 11.2 8.8
-37 3 1 0.6 4.5
-37 -3 1 -6 6.3
37 -3 -1 4.9 5.2
37 3 0 -2.8 7.1
-37 3 0 2.3 4.5
-37 -3 0 4.5 7.1
37 -3 0 16.4 6.8
37 3 1 30.4 10
37 -3 1 9.5 6.9
-37 -3 -1 9.2 7.8
37 3 2 13.2 8.9
-37 -3 -2 -0.1 7.6
37 -3 2 5.8 6.9
37 3 3 13.6 9.7
37 -3 3 11.6 7.7
37 3 4 16.1 13.8
37 3 5 3.6 9.9
37 -3 5 -1.1 7.6
37 4 -5 5.7 9
37 -4 -5 -2.3 5.4
-37 -4 5 9.6 10
37 4 -4 17.6 9
-37 4 4 4.6 6.8
37 -4 -4 6.2 6.5
-37 -4 4 9.8 7.9
37 4 -3 1.6 8
-37 4 3 -5.6 5
37 -4 -3 3.7 4.9
-37 -4 3 -11.2 5.7
-37 4 2 -4.1 4.3
37 4 -2 -0.2 7.9
-37 -4 2 2 6.7
37 -4 -2 -0.9 5.6
37 4 -1 14.2 9.4
-37 4 1 8.2 4.3
-37 -4 1 3.9 7.3
37 -4 -1 -0.2 5.1
37 4 0 10.1 9.4
-37 -4 0 5.7 7.9
37 -4 0 5.6 6.5
37 4 1 9.4 8.7
-37 -4 -1 13.2 8.8
37 -4 1 11.2 5.7
37 4 2 17.9 9.2
37 -4 2 11.7 7.1
-37 -4 -2 9.2 8.9
37 4 3 13.6 9.1
37 4 4 -20.4 7.7
37 -4 4 14.7 8.9
37 5 -4 3.2 9.6
37 -5 -4 -1.6 4.9
-37 5 3 -5.7 5.4
37 5 -3 0.4 8.7
37 -5 -3 -4.8 5.7
-37 -5 3 -2.1 7.7
-37 5 2 -0.6 3.2
37 5 -2 10.7 9.5
37 -5 -2 -2.1 5.7
-37 -5 2 10.2 8
-37 5 1 0.2 2.4
37 5 -1 14.6 10.7
-37 -5 1 4.1 7.1
37 -5 -1 -0.7 6
37 5 0 -6.8 8.4
37 -5 0 4.7 6.2
-37 -5 0 9.4 8.2
37 5 1 1.2 9.5
-37 -5 -1 -9.2 8.1
37 -5 1 3.2 6.7
37 5 2 1.9 9.1
-37 -5 -2 10 8.7
37 5 3 28.1 12.3
37 -5 3 33.2 10.7
37 6 -2 10.7 10.4
-37 -6 2 6.2 8.3
37 6 -1 -6.4 9
37 -6 -1 -1.7 6.2
37 6 0 22.8 11.1
37 -6 0 25.5 10.7
-37 -6 0 31.5 14.7
-38 0 6 -2.8 7.6
38 0 -6 9.6 6.5
-38 0 5 2.3 6.6
38 0 -5 -8.3 4.9
-38 0 4 14.3 7.1
38 0 -3 -0.6 5.5
-38 0 3 6 6.7
38 0 -2 -4.1 6.1
-38 0 2 0.6 6.1
38 0 -1 -5.5 4.9
-38 0 1 -5 5.5
38 0 -1 -1.5 5
38 0 0 34.6 7.2
38 0 0 33 8.9
-38 0 0 35.3 7.6
38 0 1 -3.4 4
38 0 1 4.7 6.6
-38 0 -1 1.1 6.3
-38 0 -2 1.4 6.2
38 0 2 8.2 6.8
38 0 3 -0.2 6.7
38 0 3 2.5 4.6
38 0 4 24.9 9.9
38 0 5 2.2 7.7
-38 1 6 9.8 7.4
38 1 -6 16.5 7.2
-38 -1 6 -13.2 7.5
38 -1 -6 -9.1 5.7
38 1 -5 32.4 7.9
-38 1 5 14.8 8.3
-38 -1 5 30.9 9.1
38 -1 -5 21.6 7.4
-38 1 4 2.1 6.5
38 1 -4 6.5 6.4
-38 -1 4 8.3 6.7
38 -1 -4 -2 5.7
38 1 -3 6 6.8
-38 1 3 -2 6.6
-38 -1 3 -7.2 5.8
38 -1 -3 13.4 6.4
-38 1 2 4.8 5.9
38 1 -2 12.9 7.9
-38 -1 2 5.3 6.7
38 -1 -2 23.3 6.6
38 -1 -2 20.2 7.8
-38 1 1 14.7 6.7
38 1 -1 28.3 8.7
38 -1 -1 15.7 5.8
-38 -1 1 24.6 9.9
38 -1 -1 9.3 6.8
-38 1 0 43.5 7.9
38 1 0 60.79 11.2
-38 -1 0 42.4 9
38 -1 0 44.6 7.4
38 -1 0 39.9 9.5
38 1 1 9.1 7.2
38 1 1 3.7 4.8
-38 1 -1 -2.2 5.4
-38 -1 -1 -5.4 6.2
38 -1 1 12.7 4.4
38 -1 1 -1.5 5.9
38 1 2 15.5 8.2
38 1 2 8.2 5.6
38 -1 2 17.4 8.2
-38 -1 -2 11.9 8
38 -1 2 7.6 4.7
38 1 3 -3.3 4.1
38 1 3 -3.3 6.2
38 -1 3 2.4 3.8
38 -1 3 -5.3 6
38 1 4 14.9 6.9
38 1 4 43.8 11.1
38 -1 4 35.6 9.3
38 -1 4 46.2 7.2
38 1 5 4.4 8.3
38 -1 5 6.3 9.4
38 -1 5 -3.4 4.8
38 2 -6 6.4 7
-38 2 6 9.3 8.9
38 -2 -6 19.5 6.5
-38 -2 6 17.9 8.2
-38 2 5 12.4 9.1
38 2 -5 21 8
38 -2 -5 33.3 7.6
-38 -2 5 17.7 8.6
38 2 -4 10.6 8.3
-38 -2 4 -4.2 6.8
38 -2 -4 1.6 5.8
-38 2 3 5 6
38 2 -3 2.5 7.1
38 -2 -3 -5.6 5.5
-38 -2 3 16.9 7.3
38 -2 -3 5.2 5.4
-38 2 2 5.7 5.9
38 2 -2 5.2 7.2
38 -2 -2 -1.9 6.2
-38 -2 2 -4 6.6
38 -2 -2 1.2 5.1
-38 2 1 7.5 5.5
38 2 -1 11.8 7.9
38 -2 -1 39.2 9
-38 -2 1 18.2 7.7
-38 2 0 67.79 8.6
38 2 0 77.69 12.7
38 -2 0 102.59 11.5
38 -2 0 69.69 9.2
-38 -2 0 60.59 10.6
38 2 1 14.6 8.1
-38 2 -1 9.1 5.9
38 -2 1 3.3 6.1
38 -2 1 12.2 5.6
-38 -2 -1 13.3 7.7
38 2 2 8.2 7.6
38 -2 2 25.4 6.1
-38 -2 -2 0.8 7.4
38 -2 2 13.7 7.6
38 2 3 7.6 8.6
38 -2 3 8 7.1
38 -2 4 12 4.7
38 2 5 6.8 9.9
38 -2 5 3.4 8.4
-38 3 5 3.1 7.2
38 3 -5 4.1 8
38 -3 -5 -1.7 5.3
-38 -3 5 4.9 8
-38 3 4 -7.3 6.3
38 3 -4 1.9 8.1
-38 -3 4 -3.1 6.4
38 -3 -4 -4.3 5.9
-38 3 3 8.1 6.6
38 3 -3 7.5 8
38 -3 -3 1.4 5.9
-38 -3 3 11.4 7.8
38 3 -2 11 8.7
-38 3 2 12.2 5.5
38 -3 -2 4.4 5.4
-38 -3 2 10.5 7.4
38 3 -1 22.3 9.7
-38 3 1 15.1 5.5
38 -3 -1 8.9 7.6
-38 -3 1 12.2 7.4
-38 3 0 80.59 8
38 3 0 72.79 14
-38 -3 0 32.1 10
38 -3 0 66.59 10.6
38 3 1 3.5 8.3
38 -3 1 3.3 6
-38 -3 -1 -5.1 7.1
38 3 2 -8.6 7.7
-38 -3 -2 -8.2 7.7
38 -3 2 -7.3 5.8
38 3 3 24.1 10.8
38 -3 3 -0.3 6.8
38 3 4 -16.8 7.5
38 -3 4 -7.1 7.5
38 4 -4 8.5 8.6
-38 -4 4 10.1 7.7
38 -4 -4 9.9 5.6
-38 4 3 -8.2 4.9
38 4 -3 -4.7 7.7
-38 -4 3 -0.3 7.6
38 -4 -3 -4.6 6.6
-38 4 2 4.6 4.7
38 4 -2 17.1 9.7
38 -4 -2 -1.2 7.3
-38 -4 2 6.8 7.7
38 4 -1 23.1 10.6
38 -4 -1 24.6 7.7
-38 -4 1 28.5 8.9
38 4 0 37.4 11.5
38 -4 0 28.5 8.6
-38 -4 0 13.5 9
38 4 1 -11.5 7.3
-38 -4 -1 6.1 8.3
38 -4 1 17.5 8.2
38 4 2 -0.5 9.2
38 -4 2 -9.7 7.1
-38 -4 -2 6.7 8.5
38 4 3 8 12.5
38 -4 3 13.5 8.3
38 5 -3 31.2 11.1
38 -5 -3 12.8 6.6
38 5 -2 -4.8 9.1
-38 5 2 -1.9 3.1
-38 -5 2 -8 6.8
38 5 -1 -8.5 8.8
-38 5 1 -1.7 2.5
38 -5 -1 -13.2 5.9
-38 -5 1 -3.2 7.6
38 5 0 -0.2 9.9
-38 -5 0 0.8 8.1
38 -5 0 6.4 6.9
38 5 1 13.7 10.5
-38 -5 -1 -8.5 8.8
38 -5 2 8.2 7.7
-38 -5 -2 -13.9 7.5
-39 0 6 60.29 12.7
39 0 -6 96.49 11.2
39 0 -5 8.9 6.2
-39 0 5 7.5 7.4
-39 0 4 -9 6.9
39 0 -4 -0.8 6
-39 0 3 0.8 6.1
39 0 -3 -2.7 6.6
39 0 -2 3.4 6.8
-39 0 2 19.3 7.9
-39 0 1 4.4 5.8
39 0 -1 0.2 6.3
-39 0 0 11.2 6.8
39 0 0 16.8 5.9
39 0 0 8.2 7.8
39 0 1 2.6 4
-39 0 -1 -10 5.9
39 0 1 -2.4 5.8
39 0 2 -6.9 6.5
39 0 2 1.6 4.2
39 0 3 -13.7 6.6
39 0 4 -0.8 10.6
-39 1 6 -3.3 7.1
39 1 -6 -16.2 6.6
-39 -1 6 2.6 8
39 -1 -6 0.4 6.4
-39 1 5 55.99 12.3
39 1 -5 62.19 10.6
39 -1 -5 77.79 13.9
-39 -1 5 52.59 11.9
39 1 -4 -5.2 6.2
-39 1 4 14 8.7
-39 -1 4 9 7
39 -1 -4 11.5 6.8
-39 1 3 5.5 6.9
39 1 -3 4.7 7.1
39 -1 -3 0.4 6.3
-39 -1 3 0.9 6.8
-39 1 2 -9 5.8
39 1 -2 6.9 6.8
-39 -1 2 -2.2 6.4
39 -1 -2 8.5 5.9
39 -1 -2 -7.5 6.4
39 1 -1 3.8 6.8
-39 1 1 13.3 6.8
-39 -1 1 -3.1 6.1
39 -1 -1 10.4 7.2
39 -1 -1 10.5 4.9
-39 1 0 50.39 8.6
39 1 0 66.39 11.5
39 -1 0 58.69 11
-39 1 -1 -3.7 5.8
39 1 1 6.5 7.3
-39 -1 -1 17.2 7.5
39 -1 1 2.3 4.5
39 -1 1 7.8 6.9
39 1 2 12.3 8.3
39 -1 2 3.3 4.7
39 -1 2 3.3 7.3
-39 -1 -2 16.9 8
39 1 3 2.2 7.6
39 -1 3 3 4.6
39 -1 3 25.7 9.5
39 1 4 19.4 9.4
39 -1 4 5.6 8.7
39 -1 4 0.9 4.7
-39 2 5 7.9 9
39 2 -5 18.1 8.8
39 -2 -5 26.9 8.1
-39 -2 5 11.9 9.5
39 2 -4 12 8.5
-39 2 4 2.5 7.1
-39 -2 4 2.3 8.4
39 -2 -4 12 7.3
-39 2 3 5 7.4
39 2 -3 11.8 8.4
-39 -2 3 6.6 7
39 -2 -3 6.6 6.4
39 2 -2 -2.2 7.1
-39 2 2 -3.2 5.6
39 -2 -2 8.2 6
-39 -2 2 -6.9 6.7
39 -2 -2 20.1 7.5
-39 2 1 -1.6 5
39 2 -1 -1.8 6.3
39 -2 -1 -4 5.2
39 -2 -1 -1.6 6.6
-39 -2 1 14.4 6.8
39 2 0 -2 7.2
-39 2 0 13.2 5.5
39 -2 0 15.6 6.8
-39 -2 0 6.7 6.8
39 -2 0 19.7 5.9
39 2 1 3 7.1
-39 2 -1 9.1 5.4
39 -2 1 6.9 6.8
-39 -2 -1 -0.2 7.3
39 -2 1 11.3 5.5
39 2 2 12.7 8.4
39 -2 2 1 5.1
-39 -2 -2 6.4 8.5
39 -2 2 6.4 7.3
39 2 3 11.4 9.2
39 2 4 12.6 10.2
39 -2 4 29.8 10.4
39 3 -5 0.1 8
39 -3 -5 4 6.1
-39 -3 5 27.3 9.8
39 3 -4 16.9 9.1
-39 -3 4 7.7 7.6
39 -3 -4 -0.8 6
-39 3 3 12 7.8
39 3 -3 0 8.2
-39 -3 3 2 7.6
39 -3 -3 24.4 7.7
-39 3 2 -2.7 5.5
39 3 -2 4.7 7.8
-39 -3 2 12.4 7.7
39 -3 -2 7.6 7.2
-39 3 1 6.8 5.3
39 3 -1 -2.8 8.8
39 -3 -1 -1.3 7.6
-39 -3 1 -3.8 6.7
39 3 0 18.1 8.9
-39 3 0 5.4 4.2
-39 -3 0 17.5 8.3
39 -3 0 27.8 8.1
39 3 1 13.6 9.3
-39 -3 -1 12.3 8.4
39 -3 1 5 6.4
39 3 2 -4.6 7.7
39 -3 2 7.8 8.4
-39 -3 -2 0.3 8.2
39 3 3 -7.5 11.4
39 -3 3 -0.5 7.2
39 4 -4 5.8 8.7
39 -4 -4 -5.2 6.5
39 4 -3 -11.7 8.2
-39 -4 3 -1.5 8.6
39 -4 -3 -0.1 4.9
-39 4 2 10 5.4
39 4 -2 -3.9 8.2
-39 -4 2 -8.8 6.8
39 -4 -2 3.9 6.1
39 4 -1 20.1 11.2
-39 4 1 2.9 3.1
39 -4 -1 13.4 7.3
-39 -4 1 -1.8 7.5
-39 4 0 -0.4 2.8
39 4 0 -8.6 8.2
39 -4 0 16.9 7.5
-39 -4 0 17 8.8
39 4 1 1.3 9.5
-39 -4 -1 -4.5 7.8
39 -4 1 7 7.1
39 -4 2 20.2 10.3
-39 -4 -2 4 8.4
39 5 -1 -0.2 9.8
-39 -5 1 11.5 8.8
39 -5 -1 19 7.7
39 5 0 14.8 10.1
-39 -5 0 5.3 9.2
40 0 -5 -5.9 6.3
-40 0 5 -1.3 7.5
-40 0 4 42.3 11.3
40 0 -4 62.29 11
40 0 -3 7.4 8
-40 0 3 -4.3 7.4
40 0 -2 -5.5 6.7
-40 0 2 -4.9 6.5
40 0 -1 -3.3 6.9
-40 0 1 -8.7 5.9
-40 0 0 33.6 8.3
40 0 0 54.39 10.7
40 0 0 49.99 8.7
40 0 1 -0.2 4.3
40 0 1 19.7 8.3
-40 0 -1 8 7.1
40 0 2 17.8 6
40 0 2 17.3 8.6
40 0 3 -2 5
40 0 4 -1.1 6.8
-40 1 5 24.3 8.6
40 -1 -5 44.2 9.1
-40 -1 5 27.7 10.2
-40 1 4 -2.4 6.8
40 1 -4 -2.1 6.4
-40 -1 4 2 6.6
40 -1 -4 -0.3 6.7
40 1 -3 18.5 8.6
-40 1 3 20.8 7.7
40 -1 -3 9.8 7.2
-40 -1 3 15.8 7.9
-40 1 2 17.6 7.4
40 1 -2 15.7 8.6
-40 -1 2 16.1 8.1
40 -1 -2 19.7 8.3
40 1 -1 34.7 10.2
-40 1 1 22.2 7.7
-40 -1 1 9 7.5
40 -1 -1 19.8 7.9
40 -1 -1 18.2 6.1
-40 1 0 5.1 6.9
40 1 0 29.8 8.9
40 -1 0 11.9 5.4
-40 -1 0 17.3 7.8
40 -1 0 18.2 7.9
40 1 1 -4.4 5.9
-40 1 -1 2.5 6
-40 -1 -1 -6.7 11.4
40 -1 1 3.2 4.5
40 -1 1 -3 6.5
40 1 2 -5.5 7.1
40 -1 2 5 5
40 -1 2 6.6 7.3
-40 -1 -2 -6 7.2
40 -1 3 10 5.4
40 2 -4 1.8 8.3
-40 2 4 4.4 7.9
40 -2 -4 -1.8 6.4
-40 -2 4 7 8.3
40 2 -3 4.6 8
-40 2 3 7.2 7.7
40 -2 -3 0.5 6
-40 -2 3 -1.1 6.7
-40 2 2 41.9 8.6
40 2 -2 50.69 11
40 -2 -2 39.5 8.9
40 -2 -2 27.9 7.4
-40 -2 2 34.5 9.8
-40 2 1 4.6 6.3
40 2 -1 24.7 9.9
-40 -2 1 5.9 7.6
40 -2 -1 27.2 8.9
-40 2 0 11.5 5.8
40 2 0 7.5 8.3
-40 -2 0 28.5 9.3
40 -2 0 8 5.8
40 -2 0 16.6 7.2
-40 2 -1 20.3 5.7
40 2 1 3.4 8.3
40 -2 1 34.8 7.3
-40 -2 -1 17.4 9.4
40 -2 1 15.3 7.8
40 2 2 -3 7.5
40 -2 2 -0.2 7.2
-40 -2 -2 -12.8 7.8
40 -2 2 2.7 5
40 2 3 5.5 9.7
40 -2 3 11 7.9
-40 3 4 10.1 7.8
40 3 -4 5 8.2
-40 -3 4 11.6 8.5
40 -3 -4 29.3 8.8
40 3 -3 -2.6 7.8
-40 3 3 -7.8 6.6
40 -3 -3 -3.1 5.2
-40 -3 3 -3.4 7.4
40 3 -2 13.7 8.9
-40 3 2 11 6.9
-40 -3 2 0.2 6.5
40 -3 -2 6 7.7
40 3 -1 -4.3 8.1
-40 3 1 13.8 5.7
-40 -3 1 11.7 7.7
40 -3 -1 3.1 6.5
-40 3 0 3 3.2
40 3 0 -17 7
40 -3 0 -2.9 5.4
-40 -3 0 4.2 7.5
40 -3 1 1.4 6.8
-40 -3 -1 1.5 7.8
40 -3 2 6.9 7.9
-40 -3 -2 10.1 8.6
40 4 -2 -4.8 8.3
-40 4 2 7.7 4.4
-40 -4 2 3.1 7.8
40 -4 -2 6 6.2
40 4 -1 48.1 12.4
-40 -4 1 25.2 10
40 -4 -1 56.79 10.3
40 4 0 33.8 11.7
-40 4 0 3.8 3.3
-40 -4 0 -3.3 8.2
40 -4 0 6.3 8.8
40 4 1 40.5 13.1
40 -4 1 50.49 10.8
-40 -4 -1 34.4 10.3
-41 0 4 124.89 14.1
41 0 -4 128.79 14.4
41 0 -3 -5.9 7.3
-41 0 3 -0.6 7.9
41 0 -2 16.7 8
-41 0 2 7.9 8.2
41 0 -1 -1 6.6
-41 0 1 6 6.6
41 0 0 63.19 11.7
-41 0 0 32 9
41 0 1 2.4 7.3
41 0 1 6.3 5.3
-41 0 -1 24.9 7.9
41 0 2 60.19 15.9
41 0 2 45 8.5
41 0 3 -17.3 6.3
41 1 -4 1.6 7.6
-41 1 4 6.6 9
41 -1 -4 2.9 7
-41 -1 4 8.4 8.7
-41 1 3 3.5 7.3
41 1 -3 -0.6 7.6
41 -1 -3 2.1 6.6
-41 -1 3 0.2 8.1
41 1 -2 28.4 8.3
-41 -1 2 5.5 8
41 -1 -2 19.3 7.2
41 1 -1 31.7 9.6
-41 1 1 25.5 8
41 -1 -1 32.7 8.8
-41 -1 1 26.9 9
41 -1 -1 35.1 7.6
41 1 0 13 8.9
-41 1 0 7 6.5
41 -1 0 17.1 5.9
41 -1 0 15.2 7.9
-41 -1 0 15.8 8.2
41 1 1 -9.4 6
-41 1 -1 0.7 5.9
-41 -1 -1 -7.4 6
41 -1 1 -3.8 6.5
41 -1 1 7.8 8.1
41 -1 2 -3.9 4.9
-41 2 3 7.3 7.1
41 2 -3 9.1 8.8
41 -2 -3 -1 7.7
-41 -2 3 -6.8 6.7
-41 2 2 -5 6.1
41 2 -2 -8.3 7.4
41 -2 -2 3.6 6.5
-41 -2 2 -7.4 7.2
41 -2 -2 2 6.2
-41 2 1 15.3 7
41 2 -1 12.7 7.8
41 -2 -1 6.1 7.3
-41 -2 1 3.9 7.4
41 -2 -1 19.5 8
-41 2 0 -3.2 5.9
41 2 0 -4.9 8.1
41 -2 0 4.4 5.5
41 -2 0 -7.1 6.1
-41 -2 0 15.9 8.4
41 2 1 21 10.3
-41 -2 -1 12.9 9.1
41 -2 1 15.1 6.8
41 -2 1 30.6 9.7
41 -2 2 14.8 8.7
-41 -2 -2 -2.3 7.9
-41 3 2 -1.2 6.2
41 3 -2 -9.5 8
41 -3 -2 0.2 6.2
-41 -3 2 -1.7 7.7
41 3 -1 10.3 8.8
-41 3 1 -0.4 4.3
-41 -3 1 6.7 8
41 -3 -1 13.9 8.2
-41 3 0 -5 3.4
41 3 0 3.1 8.1
-41 -3 0 -3.1 6.9
41 -3 0 -0.7 7.1
41 3 1 6 9.6
-41 -3 -1 13.6 9.3
42 0 -3 1.3 6.6
-42 0 3 -0.4 6.5
-42 0 2 -0.8 7.3
42 0 -2 -13.9 5.2
42 0 -1 0.4 7
-42 0 1 7.3 6.7
42 0 0 0.3 7.6
42 0 1 3.7 7.5
-42 0 -1 -6.3 6.1
42 1 -2 -0.6 7.8
-42 1 2 12.9 8.1
42 -1 -2 22.5 7.3
-42 -1 2 -6.8 6.7
42 1 -1 4.9 7.9
-42 1 1 12.6 7.3
42 -1 -1 8.7 8.2
-42 -1 1 9.3 8.7
-42 1 0 17.2 7.4
42 1 0 -0.5 8.3
42 -1 0 16.7 7
-42 -1 0 -0.2 7.7
42 -1 0 16.1 8.8
42 1 1 7.8 8.7
-42 1 -1 0.4 6
-42 -1 -1 5.5 6.9
-42 2 1 -0.9 5.9
42 2 -1 -5.7 7.9
-42 -2 1 14.1 8.8
42 -2 -1 12.3 7
42 -2 -1 -8.7 7.2
-42 2 0 6.4 5.2
42 2 0 22 9.9
42 -2 0 12.3 7.1
42 -2 0 6.8 6
-42 -2 0 7.4 8.1
