#------------------------------------------------------------------------------
#$Date: 2024-02-04 14:18:02 +0200 (Sun, 04 Feb 2024) $
#$Revision: 289573 $
#$URL: file:///home/coder/svn-repositories/cod/cif/1/57/06/1570612.cif $
#------------------------------------------------------------------------------
#
# This file is available in the Crystallography Open Database (COD),
# http://www.crystallography.net/
#
# All data on this site have been placed in the public domain by the
# contributors.
#
data_1570612
loop_
_publ_author_name
'Ren, Zhen'
'Sun, Jun-Jun'
'Xu, Long'
'Luo, Peng'
'Ma, Zi-Wei'
'Li, Si'
'Si, Yu-Bing'
'Dong, Xi-Yan'
'Pan, Fangfang'
_publ_section_title
;
 X-ray-triggered through-space charge transfer and photochromism in silver
 nanoclusters.
;
_journal_issue                   5
_journal_name_full               Nanoscale
_journal_page_first              2662
_journal_page_last               2671
_journal_paper_doi               10.1039/d3nr05409h
_journal_volume                  16
_journal_year                    2024
_chemical_formula_moiety         'C70.293 H102.879 Ag14, Cl'
_chemical_formula_sum            'C72 H109 Ag14 Cl O'
_chemical_formula_weight         2536.22
_space_group_crystal_system      trigonal
_space_group_IT_number           148
_space_group_name_Hall           '-R 3'
_space_group_name_H-M_alt        'R -3 :H'
_atom_sites_solution_hydrogens   mixed
_audit_block_doi                 10.5517/ccdc.csd.cc2gp1qy
_audit_creation_date             2023-07-25
_audit_creation_method
;
Olex2 1.5
(compiled 2023.03.06 svn.rbb2c1857 for OlexSys, GUI svn.r6748)
;
_audit_update_record
;
2023-07-25 deposited with the CCDC.	2023-12-28 downloaded from the CCDC.
;
_cell_angle_alpha                90
_cell_angle_beta                 90
_cell_angle_gamma                120
_cell_formula_units_Z            3
_cell_length_a                   16.3356(8)
_cell_length_b                   16.3356(8)
_cell_length_c                   29.4449(14)
_cell_measurement_reflns_used    4231
_cell_measurement_temperature    200.00(10)
_cell_measurement_theta_max      26.2960
_cell_measurement_theta_min      2.0770
_cell_volume                     6804.7(6)
_computing_cell_refinement       'CrysAlisPro 1.171.39.28b (Rigaku OD, 2015)'
_computing_data_collection       'CrysAlisPro 1.171.39.28b (Rigaku OD, 2015)'
_computing_data_reduction        'CrysAlisPro 1.171.39.28b (Rigaku OD, 2015)'
_computing_molecular_graphics    'Olex2 1.5 (Dolomanov et al., 2009)'
_computing_publication_material  'Olex2 1.5 (Dolomanov et al., 2009)'
_computing_structure_refinement  'SHELXL 2018/3 (Sheldrick, 2015)'
_computing_structure_solution    'SHELXT 2014/5 (Sheldrick, 2014)'
_diffrn_ambient_temperature      200.15
_diffrn_measured_fraction_theta_full 0.998
_diffrn_measured_fraction_theta_max 0.902
_diffrn_measurement_details
;
List of Runs (angles in degrees, time in seconds):

  # Type    Start    End  Width  t~exp~   \w     \q     \k     \f   Frames
#--------------------------------------------------------------------------
  1  \w    -54.00  42.00   0.50   16.00    --  -13.50  38.00   0.00  192
  2  \w    -26.00  46.00   0.50   16.00    --   13.60  77.00 120.00  144
;
_diffrn_measurement_device       'four-circle diffractometer'
_diffrn_measurement_device_type  'XtaLAB AFC12 (RINC): Kappa single'
_diffrn_measurement_method       '\w scans'
_diffrn_radiation_type           MoK\a
_diffrn_radiation_wavelength     0.71073
_diffrn_reflns_av_R_equivalents  0.0232
_diffrn_reflns_av_unetI/netI     0.0366
_diffrn_reflns_Laue_measured_fraction_full 0.998
_diffrn_reflns_Laue_measured_fraction_max 0.902
_diffrn_reflns_limit_h_max       16
_diffrn_reflns_limit_h_min       -18
_diffrn_reflns_limit_k_max       21
_diffrn_reflns_limit_k_min       -21
_diffrn_reflns_limit_l_max       39
_diffrn_reflns_limit_l_min       -25
_diffrn_reflns_number            8136
_diffrn_reflns_point_group_measured_fraction_full 0.998
_diffrn_reflns_point_group_measured_fraction_max 0.902
_diffrn_reflns_theta_full        25.242
_diffrn_reflns_theta_max         28.298
_diffrn_reflns_theta_min         2.075
_exptl_absorpt_coefficient_mu    3.009
_exptl_absorpt_correction_T_max  1.00000
_exptl_absorpt_correction_T_min  0.51248
_exptl_absorpt_correction_type   multi-scan
_exptl_absorpt_process_details
;
CrysAlisPro 1.171.39.27b (Rigaku Oxford Diffraction, 2015)
Empirical absorption correction using spherical harmonics,
 implemented in SCALE3 ABSPACK scaling algorithm.
;
_exptl_crystal_colour            'clear colourless'
_exptl_crystal_colour_lustre     clear
_exptl_crystal_colour_primary    colourless
_exptl_crystal_density_diffrn    1.857
_exptl_crystal_description       rhombohedral
_exptl_crystal_F_000             3672
_exptl_crystal_size_max          0.12
_exptl_crystal_size_mid          0.11
_exptl_crystal_size_min          0.1
_refine_diff_density_max         0.835
_refine_diff_density_min         -0.628
_refine_diff_density_rms         0.108
_refine_ls_extinction_method     none
_refine_ls_goodness_of_fit_ref   1.043
_refine_ls_hydrogen_treatment    constr
_refine_ls_matrix_type           full
_refine_ls_number_parameters     178
_refine_ls_number_reflns         3403
_refine_ls_number_restraints     129
_refine_ls_restrained_S_all      1.112
_refine_ls_R_factor_all          0.0701
_refine_ls_R_factor_gt           0.0439
_refine_ls_shift/su_max          0.002
_refine_ls_shift/su_mean         0.000
_refine_ls_structure_factor_coef Fsqd
_refine_ls_weighting_details
'w=1/[\s^2^(Fo^2^)+(0.0776P)^2^] where P=(Fo^2^+2Fc^2^)/3'
_refine_ls_weighting_scheme      calc
_refine_ls_wR_factor_gt          0.1284
_refine_ls_wR_factor_ref         0.1395
_reflns_Friedel_coverage         0.000
_reflns_number_gt                2246
_reflns_number_total             3403
_reflns_threshold_expression     'I > 2\s(I)'
_cod_data_source_file            d3nr05409h2.cif
_cod_data_source_block           cl@ag14-mo-ray_sq
_cod_depositor_comments
'Adding full bibliography for 1570610--1570618.cif.'
_cod_original_cell_volume        6804.7(7)
_cod_original_sg_symbol_H-M      'R -3'
_cod_database_code               1570612
_shelx_shelxl_version_number     2018/3
_shelx_space_group_comment
;
The symmetry employed for this shelxl refinement is uniquely defined
by the following loop, which should always be used as a source of
symmetry information in preference to the above space-group names.
They are only intended as comments.
;
_shelx_estimated_absorpt_t_max   0.753
_shelx_estimated_absorpt_t_min   0.714
_olex2_refinement_description
;
1. Fixed Uiso
 At 1.5 times of:
  All C(H,H,H) groups
2. Restrained distances
 C11-C9 = C12-C9 = C10-C9
 1.53 with sigma of 0.01
 C6-C3 = C3-C5A = C4-C3 = C6A-C3 = C5-C3 = C4A-C3
 1.53 with sigma of 0.02
 C10-C11 \\sim C10-C12 \\sim C11-C12
 with sigma of 0.02
3. Uiso/Uaniso restraints and constraints
C9: within 2A with sigma of 0.04 and sigma for terminal atoms of 0.08 within 2A
C10 \\sim C9 \\sim C11 \\sim C12: within 2A with sigma of 0.04 and sigma for
terminal atoms of 0.08 within 2A
Uanis(C4A) \\sim Ueq, Uanis(C5A) \\sim Ueq, Uanis(C5) \\sim Ueq, Uanis(C11)
\\sim Ueq, Uanis(C9) \\sim Ueq, Uanis(C10) \\sim Ueq, Uanis(C12) \\sim Ueq,
Uanis(C2) \\sim Ueq, Uanis(C1) \\sim Ueq, Uanis(C6A) \\sim Ueq, Uanis(C3) \\sim
Ueq, Uanis(C6) \\sim Ueq, Uanis(C4) \\sim Ueq: with sigma of 0.01 and sigma for
terminal atoms of 0.02
4. Rigid body (RIGU) restrains
 C4A, C3
 with sigma for 1-2 distances of 0.005 and sigma for 1-3 distances of 0.005
 C10, C11, C9, C12
 with sigma for 1-2 distances of 0.003 and sigma for 1-3 distances of 0.003
 C10, C11, C12
 with sigma for 1-2 distances of 0.004 and sigma for 1-3 distances of 0.004
5. Others
 Sof(Ag3A)=1-FVAR(1)
 Sof(Ag3)=FVAR(1)
 Sof(C5A)=Sof(H5AA)=Sof(H5AB)=Sof(H5AC)=Sof(C6A)=Sof(H6AA)=Sof(H6AB)=Sof(H6AC)=
 Sof(C4A)=Sof(H4AA)=Sof(H4AB)=Sof(H4AC)=1-FVAR(2)
 Sof(C6)=Sof(H6A)=Sof(H6B)=Sof(H6C)=Sof(C4)=Sof(H4A)=Sof(H4B)=Sof(H4C)=Sof(C5)=
 Sof(H5A)=Sof(H5B)=Sof(H5C)=FVAR(2)
 Sof(C10)=Sof(H10A)=Sof(H10B)=Sof(H10C)=Sof(C11)=Sof(H11A)=Sof(H11B)=Sof(H11C)=
 Sof(C12)=Sof(H12A)=Sof(H12B)=Sof(H12C)=FVAR(3)
6.a Riding coordinates:
 C4(H4A,H4B,H4C), C4A(H4AA,H4AB,H4AC)
6.b Idealised Me refined as rotating group:
 C6(H6A,H6B,H6C), C5(H5A,H5B,H5C), C5A(H5AA,H5AB,H5AC), C6A(H6AA,H6AB,H6AC),
 C10(H10A,H10B,H10C), C11(H11A,H11B,H11C), C12(H12A,H12B,H12C)
;
_shelx_res_file
;
TITL hy_a.res in R-3
    cl@ag14-mo-ray_sq.res
    created by SHELXL-2018/3 at 19:06:43 on 25-Jul-2023
REM Old TITL hy in R-3
REM SHELXT solution in R-3
REM R1 0.181, Rweak 0.012, Alpha 0.017, Orientation as input
REM Formula found by SHELXT: C24 O7 Ag14
CELL 0.71073 16.3356 16.3356 29.4449 90 90 120
ZERR 3 0.0008 0.0008 0.0014 0 0 0
LATT 3
SYMM -Y,+X-Y,+Z
SYMM +Y-X,-X,+Z
SFAC C H Ag Cl O
UNIT 216 327 42 3 3
DFIX 1.53 0.01 C11 C9 C12 C9 C10 C9
ISOR 0.01 0.02 C4A C5A C5 C11 C9 C10 C12 C2 C1 C6A C3 C6 C4
DFIX 1.53 C6 C3 C3 C5A C4 C3 C6A C3 C5 C3 C4A C3
SADI C10 C11 C10 C12 C11 C12
RIGU 0.005 0.005 C4A C3
RIGU 0.003 0.003 C10 C11 C9 C12
RIGU C10 C11 C12
SIMU C9
SIMU C10 C9 C11 C12

L.S. 10 0 6
PLAN  20
SIZE 0.1 0.11 0.12
TEMP -73
CONF
MORE -1
BOND $H
ABIN
fmap 2
acta
OMIT -2 4 3
REM <olex2.extras>
REM <HklSrc "%.\\cl@ag14-mo-ray_sq.hkl">
REM </olex2.extras>

WGHT    0.077600
FVAR       0.08376   0.72685   0.56637   0.90516
AG1   3    0.635978    0.479672    0.396852    11.00000    0.07190    0.07383 =
         0.06825   -0.01628   -0.01569    0.04687
AG2   3    0.666667    0.333333    0.438505    10.33333    0.07181    0.07181 =
         0.05463    0.00000    0.00000    0.03590
PART 2
AG3A  3    0.846145    0.552667    0.371615   -21.00000    0.06360    0.06796 =
         0.09608    0.01538    0.00223    0.03427
PART 1
AG3   3    0.825181    0.521346    0.370035    21.00000    0.05829    0.04932 =
         0.07043   -0.00252   -0.00390    0.02652
PART 0
C3    1    0.399691    0.495707    0.315431    11.00000    0.14786    0.16049 =
         0.16382   -0.04937   -0.05178    0.11727
PART 1
C6    1    0.391267    0.477281    0.265326    31.00000    0.14231    0.17847 =
         0.10215   -0.02181   -0.05580    0.10632
AFIX 137
H6A   2    0.336922    0.480604    0.253506    31.00000   -1.50000
H6B   2    0.382353    0.414259    0.259519    31.00000   -1.50000
H6C   2    0.449016    0.524927    0.250180    31.00000   -1.50000
AFIX   0
C4    1    0.304075    0.409372    0.330831    31.00000    0.22118    0.23489 =
         0.27354   -0.00560   -0.00776    0.15126
AFIX   3
H4A   2    0.300395    0.403622    0.364011    31.00000   -1.50000
H4B   2    0.299225    0.352082    0.317561    31.00000   -1.50000
H4C   2    0.252095    0.417502    0.319611    31.00000   -1.50000
AFIX   0
C5    1    0.385850    0.566516    0.338102    31.00000    0.11339    0.08594 =
         0.17465   -0.01431   -0.02115    0.07941
AFIX 137
H5A   2    0.327964    0.535360    0.356342    31.00000   -1.50000
H5B   2    0.380254    0.607297    0.315387    31.00000   -1.50000
H5C   2    0.439964    0.604821    0.357921    31.00000   -1.50000
AFIX   0
PART 2
C5A   1    0.328249    0.407024    0.290649   -31.00000    0.11604    0.13548 =
         0.14743   -0.04696   -0.07508    0.08007
AFIX 137
H5AA  2    0.266939    0.379965    0.306013   -31.00000   -1.50000
H5AB  2    0.349894    0.360859    0.290660   -31.00000   -1.50000
H5AC  2    0.321773    0.422972    0.259268   -31.00000   -1.50000
AFIX   0
C6A   1    0.347868    0.510812    0.354836   -31.00000    0.15715    0.17778 =
         0.21542   -0.03972   -0.03763    0.13947
AFIX 137
H6AA  2    0.302021    0.527357    0.342876   -31.00000   -1.50000
H6AB  2    0.393606    0.562190    0.374192   -31.00000   -1.50000
H6AC  2    0.314724    0.452581    0.372724   -31.00000   -1.50000
AFIX   0
PART 0
C7    1    0.746199    0.501085    0.439652    11.00000    0.08415    0.06950 =
         0.05481   -0.02138   -0.01613    0.04394
C8    1    0.801914    0.528032    0.469018    11.00000    0.11623    0.12005 =
         0.06659   -0.04270   -0.02677    0.07234
C9    1    0.864204    0.552993    0.509836    11.00000    0.13623    0.16311 =
         0.13699   -0.05383   -0.06086    0.05937
PART 1
C10   1    0.829002    0.600884    0.543589    41.00000    0.26331    0.35786 =
         0.17548   -0.16819   -0.08667    0.13637
AFIX 137
H10A  2    0.838543    0.660211    0.530526    41.00000   -1.50000
H10B  2    0.864521    0.614139    0.572053    41.00000   -1.50000
H10C  2    0.761581    0.558724    0.549625    41.00000   -1.50000
AFIX   0
C11   1    0.859174    0.466350    0.531751    41.00000    0.19945    0.26064 =
         0.18504    0.05137   -0.09380    0.08039
AFIX 137
H11A  2    0.793074    0.419580    0.538169    41.00000   -1.50000
H11B  2    0.895239    0.484698    0.560167    41.00000   -1.50000
H11C  2    0.885967    0.438906    0.511047    41.00000   -1.50000
AFIX   0
C12   1    0.961724    0.620353    0.492330    41.00000    0.14963    0.22351 =
         0.15603    0.00313   -0.07810    0.03187
AFIX 137
H12A  2    0.981131    0.587287    0.470934    41.00000   -1.50000
H12B  2    1.006250    0.644411    0.517807    41.00000   -1.50000
H12C  2    0.961343    0.673259    0.476839    41.00000   -1.50000
AFIX   0

PART 0
CL1   4    0.666667    0.333333    0.333333    10.16667    0.03983    0.03983 =
         0.04083    0.00000    0.00000    0.01992

PART 2
C4A   1    0.468437    0.593700    0.290662   -31.00000    0.22810    0.21069 =
         0.21414    0.01602   -0.06880    0.16159
AFIX   3
H4AA  2    0.432687    0.608830    0.268802   -31.00000   -1.50000
H4AB  2    0.517427    0.587170    0.274622   -31.00000   -1.50000
H4AC  2    0.498077    0.644570    0.313102   -31.00000   -1.50000
AFIX   0
PART 0
C2    1    0.468137    0.475869    0.338271    11.00000    0.08297    0.08145 =
         0.10187   -0.03765   -0.02252    0.05809
C1    1    0.524087    0.462694    0.357491    11.00000    0.05803    0.06088 =
         0.07207   -0.00470   -0.00188    0.04016
HKLF 4




REM  hy_a.res in R-3
REM wR2 = 0.1395, GooF = S = 1.043, Restrained GooF = 1.112 for all data
REM R1 = 0.0439 for 2246 Fo > 4sig(Fo) and 0.0701 for all 3403 data
REM 178 parameters refined using 129 restraints

END

WGHT      0.0775      0.0000

REM Highest difference peak  0.835,  deepest hole -0.628,  1-sigma level  0.108
Q1    1   0.6026  0.6433  0.2660  11.00000  0.05    0.84
Q2    1   0.5892  0.4294  0.3992  11.00000  0.05    0.74
Q3    1   0.9190  0.6913  0.5045  11.00000  0.05    0.70
Q4    1   0.5293  0.6437  0.2856  11.00000  0.05    0.65
Q5    1   0.8478  0.5242  0.5470  11.00000  0.05    0.59
Q6    1   0.8188  0.5395  0.5541  11.00000  0.05    0.57
Q7    1   0.7871  0.5329  0.3822  11.00000  0.05    0.52
Q8    1   0.6619  0.4756  0.3731  11.00000  0.05    0.50
Q9    1   0.2781  0.3838  0.3793  11.00000  0.05    0.45
Q10   1   0.2783  0.3402  0.3609  11.00000  0.05    0.44
Q11   1   0.4180  0.5917  0.3156  11.00000  0.05    0.42
Q12   1   0.8977  0.6186  0.4947  11.00000  0.05    0.41
Q13   1   0.6114  0.4925  0.3760  11.00000  0.05    0.40
Q14   1   0.9982  0.6233  0.4641  11.00000  0.05    0.37
Q15   1   0.8326  0.5416  0.3520  11.00000  0.05    0.36
Q16   1   0.5007  0.4394  0.3395  11.00000  0.05    0.33
Q17   1   0.9459  0.5139  0.4936  11.00000  0.05    0.33
Q18   1   0.3643  0.4518  0.3402  11.00000  0.05    0.32
Q19   1   0.5994  0.7039  0.3025  11.00000  0.05    0.32
Q20   1   0.9702  0.6324  0.5483  11.00000  0.05    0.30
;
_shelx_res_checksum              35992
_shelx_hkl_file
;
   0   0   3 4172.21   99.18
   0   0  -6   28.70    1.80
   0   0  -6   31.34    1.43
   0   0   6   33.39    1.54
   0   0   6   32.92    1.91
   0   0  -9 2116.26   51.26
   0   0  -9 2139.53   52.28
   0   0   9 2101.81   51.65
   0   0   9 2174.15   52.59
   0   0  12 1413.91   35.61
   0   0  12 1314.24   34.28
   0   0 -12 1358.49   33.62
   0   0 -12 1410.09   35.05
   0   0  15   30.38    2.90
   0   0 -15   26.50    1.83
   0   0 -15   34.79    2.93
   0   0  15   28.85    2.38
   0   0  18  242.37    8.86
   0   0 -18  248.18    7.57
   0   0  18  237.20    9.77
   0   0 -18  232.85    9.04
   0   0  21   22.32    3.01
   0   0 -21   22.51    2.06
   0   0  21   22.89    3.54
   0   0 -24  131.05    5.17
   0   0  24  129.69    7.95
   0   0  24  119.61    6.93
   0   0  27  139.60    8.95
   0   0  30  247.13   12.82
   0   0  33   10.43    5.02
   0   0  36    9.86    5.79
   0   0  39   11.98    6.32
   1  -1  38    5.41    5.54
  -1   0  38    2.59    5.15
   0   1  38    6.54    5.59
   0   1  35   -1.78    3.90
  -1   0  35    0.94    4.01
   1  -1  35    1.77    4.39
   1  -1  32   18.33    4.88
   0   1  32   19.57    4.82
  -1   0  32   16.73    5.09
   1  -1  29  194.73   11.15
   0   1  29  189.08   11.29
  -1   0  29  210.13   10.24
  -1   0  29  222.58   12.20
   1  -1  26    1.08    2.83
  -1   0  26    8.38    3.25
   0   1  26    5.27    2.99
   1  -1  26    2.97    2.83
  -1   0  26    6.72    2.58
  -1   0  23  132.37    8.04
  -1   1 -23  141.64    5.65
   1  -1  23  145.44    7.59
   1  -1  23  138.30    7.94
   1   0 -23  141.15    5.20
   0   1  23  141.75    8.10
  -1   0  23  140.31    6.79
   0  -1 -23  139.82    5.40
   0   1  20   16.97    3.08
   1  -1  20   14.67    2.90
  -1   0  20   20.17    3.25
   0  -1 -20   19.34    1.89
  -1   1 -20   17.72    2.74
   0  -1 -20   17.59    2.76
   1  -1  20   18.78    2.89
  -1   0  20   16.08    2.27
   1   0 -20   16.48    1.77
  -1   1 -20   14.08    1.87
  -1   1 -17   70.91    4.17
   0   1  17   70.98    4.55
  -1   0  17   74.57    5.11
   1  -1  17   61.58    4.45
  -1   0  17   72.36    3.67
   1   0 -17   68.54    2.93
   1   0 -17   64.33    4.27
   0  -1 -17   71.02    4.22
   0  -1 -17   71.00    3.18
   1  -1  17   71.57    4.19
  -1   1 -17   65.58    3.31
   1  -1  14  239.22    8.39
  -1   1 -14  249.99    7.64
  -1   0  14  246.32    9.67
   0  -1 -14  247.68    8.50
  -1   0  14  237.37    7.64
   1  -1  14  246.21    9.06
   1   0 -14  236.44    8.75
   1   0 -14  250.82    7.08
   0   1  14  235.92    8.92
  -1   1 -14  251.65    8.47
   0  -1 -14  251.99    7.40
   1   0 -11  476.78   12.47
   0   1  11  490.69   14.11
  -1   0  11  494.74   14.67
   1   0 -11  487.82   14.18
   0  -1 -11  487.97   12.82
  -1   1 -11  496.52   13.73
   1  -1  11  486.93   13.63
  -1   1 -11  485.72   13.03
   0  -1 -11  473.53   13.73
   1  -1  11  498.65   14.24
  -1   0  11  469.52   12.85
  -1   1  -8  981.65   24.70
   1  -1   8  952.43   24.95
   0   1   8  990.06   25.02
   1  -1   8  938.04   24.59
   0  -1  -8  961.63   24.70
   1   0  -8  942.13   25.12
   0  -1  -8  981.23   24.11
   1   0  -8 1042.00   23.87
  -1   0   8  943.56   23.90
  -1   0   8  976.19   25.52
  -1   1  -8  958.32   24.25
   1  -1   5  315.26    8.55
   1   0  -5  313.84    7.93
   0   1   5  318.40    8.65
   0  -1  -5  312.94    8.52
  -1   0   5  321.34    7.98
   1  -1   5  326.71    8.63
  -1   1  -5  297.16    8.36
  -1   1  -5  320.08    8.45
   1   0   4    2.51    0.50
  -1   0  -4    0.48    0.38
   0   1  -4    0.35    0.57
   0   1  -4    1.33    0.44
   0  -1   4    0.03    0.26
  -1   0  -4    0.67    0.71
   1  -1  -7 2116.53   50.69
   0   1  -7 2137.62   51.07
  -1   0  -7 2159.98   51.50
   0  -1   7 2125.24   51.27
   1   0   7 2169.89   51.71
   1   0   7 2117.03   52.02
  -1   1   7 2119.70   50.90
   1  -1  -7 1933.70   51.86
  -1   0  -7 2124.67   51.51
   0  -1   7 2207.34   52.34
   0   1  -7 2133.24   52.09
  -1   1   7 2194.89   52.27
   0   1 -10  353.88    9.57
  -1   1  10  367.70   11.16
  -1   1  10  358.00    9.68
   0  -1  10  345.84    9.90
  -1   0 -10  363.16    9.96
   0  -1  10  350.17   11.00
  -1   0 -10  359.36   10.31
   1  -1 -10  366.42   10.82
   1  -1 -10  343.42    9.19
   1   0  10  342.03   10.55
   1   0  10  354.26   10.65
   0   1 -10  361.29   10.73
   0  -1  13  431.48   12.97
   0  -1  13  466.97   14.38
  -1   1  13  456.59   12.81
  -1   0 -13  479.30   12.84
   1  -1 -13  466.54   12.08
   0   1 -13  457.26   13.87
   0   1 -13  460.69   12.42
   1   0  13  494.27   14.08
  -1   0 -13  473.21   13.48
   1  -1 -13  491.01   14.01
   1   0  13  424.56   13.70
  -1   1  13  451.01   14.25
   0  -1  16   12.84    2.24
   1  -1 -16   12.34    1.19
  -1   0 -16   12.43    1.55
  -1   1  16   11.54    1.68
   0   1 -16   13.20    1.39
   1   0  16   11.41    2.05
   0  -1  16   14.03    1.74
   1  -1 -16   14.43    2.31
   1   0  16   15.10    2.20
   0   1 -16   11.43    2.07
  -1   0 -16   13.02    1.96
  -1   1  16   13.43    2.38
  -1   1  19  190.80    7.50
   1   0  19  193.85    8.53
   0   1 -19  183.84    6.37
   1   0  19  193.59    8.41
   1  -1 -19  189.32    6.09
  -1   1  19  204.09    9.13
  -1   0 -19  206.46    6.83
   0  -1  19  197.66    7.68
  -1   0 -19  194.45    7.78
   0   1 -19  178.14    7.91
   1  -1 -19  200.14    8.28
   0  -1  19  183.59    8.67
   0   1 -22   46.55    2.92
   0  -1  22   45.47    4.61
  -1   1  22   49.99    4.91
   0  -1  22   48.30    4.02
   1   0  22   50.62    4.75
  -1   1  22   51.64    4.12
   1  -1 -22   52.04    2.79
  -1   0 -22   49.37    3.10
  -1   1  25   32.80    4.60
   1   0  25   38.59    4.72
  -1   0 -25   32.13    2.69
   0  -1  25   31.97    3.87
   0  -1  25   36.28    4.78
   1   0  28  174.63   10.10
   0  -1  28  179.71    9.31
  -1   1  28  170.52   10.40
   0  -1  28  166.33   10.47
  -1   1  31   50.51    6.33
   0  -1  31   61.01    6.90
   1   0  31   63.02    6.56
   0  -1  34    4.40    4.15
   1   0  34   -0.42    3.90
  -1   1  34    4.46    4.46
  -1   1  37    4.98    5.32
   1   0  37   23.09    6.98
   1   1  36   10.79    5.79
  -2   1  36   11.95    5.86
   1  -2  33   13.74    5.36
   1   1  33    2.78    4.54
  -2   1  33    2.24    5.07
  -2   1  30   56.90    6.80
   1   1  30   50.07    6.14
   1  -2  30   51.67    6.22
   1  -2  30   51.46    6.36
   1  -2  27   54.30    5.19
  -2   1  27   47.20    6.47
   1   1  27   34.72    5.40
  -2   1  27   51.20    4.80
  -1  -1 -24   98.75    4.59
  -2   1  24  104.68    5.66
   1   1  24   92.86    6.34
   2  -1 -24   91.35    3.74
   1  -2  24  106.99    6.38
   1  -2  24   90.03    6.75
  -2   1  24   96.33    7.05
  -1   2 -21   82.74    5.13
   1   1  21   77.23    5.37
   1  -2  21   73.93    4.96
   1  -2  21   68.74    5.47
  -2   1  21   88.69    4.57
   2  -1 -21   77.22    3.18
  -1  -1 -21   82.72    3.99
  -2   1  21   75.20    6.05
  -1   2 -21   71.08    3.86
  -1  -1 -18    1.58    1.65
   1  -2  18   -0.80    1.95
  -1   2 -18    0.15    1.70
  -2   1  18    0.51    1.18
  -1   2 -18   -1.94    1.31
   2  -1 -18   -0.35    1.96
   1  -2  18    0.74    1.50
  -1  -1 -18   -0.10    1.24
   2  -1 -18    0.31    0.78
   1   1  18    1.28    1.58
  -2   1  18    1.15    2.15
  -1  -1 -15   25.36    2.05
  -2   1  15   25.04    1.81
  -1   2 -15   22.00    1.77
   1  -2  15   23.68    2.79
  -1  -1 -15   22.18    2.15
  -1   2 -15   24.33    2.51
   1   1  15   20.71    2.33
   2  -1 -15   21.79    1.34
   1  -2  15   21.60    2.15
  -2   1  15   25.12    3.02
   2  -1 -15   21.06    2.54
  -1   2 -12  156.75    5.98
   2  -1 -12  137.15    4.22
  -2   1  12  147.54    4.74
   2  -1 -12  146.36    6.15
  -1  -1 -12  148.96    5.35
   1  -2  12  146.15    6.15
   1  -2  12  144.15    5.48
   1   1  12  160.27    6.01
  -2   1  12  152.44    6.55
  -1   2 -12  149.24    5.04
  -1  -1 -12  153.45    5.55
  -1  -1  -9 1241.12   30.41
   1  -2   9 1204.22   30.27
  -2   1   9 1218.46   29.26
  -1  -1  -9 1224.20   30.16
  -1   2  -9 1217.82   30.72
   1  -2   9 1193.54   31.00
   1   1   9 1199.39   30.57
   2  -1  -9 1229.66   29.06
  -1   2  -9 1224.63   29.91
   1  -2   6  205.32    6.10
   2  -1  -6  211.77    5.26
  -1   2  -6  205.35    5.97
   1   1   6  205.65    6.14
  -1   2  -6  214.43    6.53
  -2   1   6  204.37    5.30
  -2   1   3   48.28    2.25
   2  -1  -3   55.46    2.30
   1  -2   0  250.15   11.92
  -1   2   0 1393.92   12.65
   1   1  -3    3.22    0.43
  -1  -1   3    1.07    0.29
  -2   1  -6  963.37   23.17
   1   1  -6  844.86   24.27
   2  -1   6  940.78   23.31
  -1  -1   6  955.70   23.11
  -2   1  -6  930.23   23.79
   2  -1   6  967.79   24.33
   1   1  -6  949.39   23.02
  -2   1  -9   41.71    2.21
   1   1  -9   44.03    2.92
   1  -2  -9   42.64    2.57
  -1  -1   9   38.26    1.87
   1  -2  -9   40.93    1.72
   2  -1   9   40.51    2.63
  -1   2   9   40.04    2.63
   1   1  -9   39.58    1.78
  -2   1  -9   39.29    2.33
   2  -1   9   41.69    2.31
  -1  -1   9   39.61    2.89
  -2   1 -12  321.92    9.42
  -1   2  12  310.78   10.23
  -2   1 -12  312.21    9.28
   1  -2 -12  307.54    8.35
   1  -2 -12  310.73    9.82
  -1  -1  12  306.72   10.69
   2  -1  12  297.23   10.10
   2  -1  12  298.03    9.68
   1   1 -12  313.86   10.27
   1   1 -12  295.98    8.41
  -1  -1  12  308.43    8.89
  -2   1 -15   19.56    1.97
  -1   2  15   18.08    2.48
  -1  -1  15   16.94    1.75
   2  -1  15   14.59    2.28
   1   1 -15   16.72    1.42
   2  -1  15   19.38    2.32
  -2   1 -15   22.39    2.22
   1  -2 -15   19.39    1.43
   1  -2 -15   17.67    2.23
   1   1 -15   20.85    2.64
  -1  -1  15   20.57    2.78
   1  -2 -18  560.38   14.79
  -1  -1  18  550.69   15.95
   1   1 -18  542.78   14.87
   1  -2 -18  560.47   16.93
  -2   1 -18  583.79   16.60
  -2   1 -18  568.78   15.75
   2  -1  18  575.58   17.52
   1   1 -18  559.19   17.39
  -1   2  18  550.97   17.89
   2  -1  18  537.79   17.52
  -1  -1  18  555.80   18.37
  -2   1 -21  166.13    6.43
   2  -1  21  157.85    8.12
  -1   2  21  163.39    8.36
   2  -1  21  166.55    8.37
  -2   1 -21  165.79    7.24
  -1  -1  21  165.31    8.68
  -1  -1  21  175.66    7.00
   1  -2 -21  166.81    5.65
   1   1 -21  149.37    5.52
  -1  -1  24   35.39    4.76
   1  -2 -24   32.88    2.25
   2  -1  24   33.29    4.14
  -1   2  24   30.11    4.07
   1   1 -24   22.23    1.87
  -1  -1  24   34.80    3.40
  -1  -1  27    3.09    2.53
   2  -1  27   17.99    5.25
  -1   2  27   -2.01    4.98
  -1  -1  27   18.59    6.04
   2  -1  30    4.11    3.97
  -1  -1  30    4.47    3.22
  -1  -1  30    3.98    4.42
  -1   2  30    2.73    4.23
  -1   2  33    0.43    4.18
  -1  -1  33   12.82    5.04
   2  -1  33   14.88    5.31
   2  -1  36   34.28    7.34
  -1   2  36   -3.34    4.80
  -2   0  37   22.42    7.28
   0   2  37    1.93    5.30
   0   2  34    3.47    4.22
   2  -2  34    3.74    4.14
  -2   0  34    6.60    4.56
   0   2  31   -0.39    4.04
   2  -2  31    1.85    3.98
  -2   0  31    3.80    4.22
  -2   0  28   44.81    4.48
   0   2  28   40.89    5.68
   2  -2  28   53.80    5.85
   2  -2  28   47.22    5.69
  -2   0  28   56.39    6.93
   2  -2  25   13.95    3.61
  -2   0  25   10.94    2.44
   2  -2  25    6.82    2.92
  -2   0  25   16.82    3.92
   0   2  25   10.39    3.15
   2  -2  22   64.06    5.14
   2  -2  22   56.54    5.13
  -2   2 -22   61.41    4.61
   0  -2 -22   70.13    3.54
  -2   0  22   66.88    4.08
  -2   0  22   58.89    5.56
   0   2  22   66.39    5.24
   2   0 -22   60.24    2.96
  -2   0  19    7.08    2.55
  -2   0  19    9.51    1.71
  -2   2 -19    5.70    2.11
   2  -2  19    6.94    2.26
   0   2  19    6.79    2.39
   0  -2 -19    7.35    1.54
  -2   2 -19    4.93    1.74
   0  -2 -19    7.13    2.11
   2  -2  19    7.99    2.35
   2   0 -19    8.50    1.26
   0  -2 -16   55.35    3.49
   2  -2  16   85.84    4.85
   2  -2  16   53.62    3.72
   0  -2 -16   53.52    2.75
  -2   0  16   55.76    4.58
   2   0 -16   49.18    3.87
  -2   2 -16   53.17    3.45
  -2   2 -16   51.45    2.98
   2   0 -16   49.09    2.32
  -2   0  16   54.41    2.89
   0   2  16   52.93    3.76
   0  -2 -13    3.51    1.26
   2   0 -13    4.29    1.87
  -2   0  13    3.47    0.90
  -2   2 -13    2.81    1.41
   0  -2 -13    2.50    1.39
  -2   0  13    4.75    1.94
   2   0 -13    4.16    0.78
   2  -2  13    5.34    1.49
   0   2  13    4.86    1.59
  -2   2 -13    3.93    1.32
   2  -2  13    2.92    1.50
   0  -2 -10 1013.66   25.58
  -2   0  10 1013.94   26.93
  -2   2 -10 1003.17   25.43
  -2   0  10  987.67   24.54
  -2   2 -10 1004.29   25.27
   0  -2 -10  982.35   25.08
   2   0 -10  991.63   24.33
   0   2  10  982.34   25.98
   2   0 -10  987.38   26.35
   2  -2  10  948.68   25.85
   2  -2  10 1015.96   25.80
   0   2   7    2.10    0.93
   2  -2   7    4.36    1.05
  -2   2  -7    2.90    1.00
  -2   0   7    1.98    0.48
  -2   2  -7    2.53    0.98
   2   0  -7    2.04    0.52
  -2   0   4  413.48   10.08
  -2   2  -4  405.68   10.33
   2   0  -4  375.46   11.20
   2  -2   1   13.98    0.99
  -2   2  -1   47.04    1.51
   2  -2  -2    0.50    0.53
  -2   2   2    1.50    0.47
   0  -2   5 1374.25   32.12
   2   0   5 1339.32   31.87
   2  -2  -5 1200.47   32.48
   0   2  -5 1310.33   31.88
   0   2  -8   90.20    4.07
   2   0   8   81.66    3.33
   0  -2   8   77.28    3.12
  -2   0  -8   84.13    3.73
  -2   2   8   81.85    2.60
  -2   0  -8   84.98    3.13
   2  -2  -8   92.79    2.42
   0   2  -8   84.58    3.07
   2   0  11    2.43    1.12
   2  -2 -11    2.30    0.52
   0  -2  11    3.29    1.64
  -2   2  11    1.89    0.79
  -2   0 -11    2.86    1.40
   0   2 -11    4.98    1.73
   0  -2  11    1.52    0.90
  -2   0 -11    3.65    1.08
   2  -2 -11    3.72    1.59
  -2   2  11    2.26    1.32
   0   2 -11    3.71    1.10
   0   2 -14   59.99    3.84
  -2   0 -14   54.32    3.14
   2  -2 -14   53.78    2.17
   0  -2  14   55.20    3.06
  -2   0 -14   61.33    3.23
   2  -2 -14   62.40    3.89
  -2   2  14   56.54    4.03
  -2   2  14   59.57    2.84
   0   2 -14   64.22    2.95
   2   0  14   63.14    3.63
   0  -2  14   61.75    4.79
   2  -2 -17  245.67    9.53
  -2   0 -17  266.74    8.87
   2  -2 -17  257.08    7.24
   0  -2  17  248.29   10.27
   0   2 -17  242.66    9.56
   0   2 -17  289.33    8.37
   0  -2  17  242.74    8.70
   2   0  17  260.94    9.56
  -2   2  17  270.74    8.61
  -2   0 -17  246.38    8.42
  -2   2  17  263.56   10.39
   0   2 -20  312.24    9.61
   2   0  20  304.04   11.58
  -2   0 -20  313.80   10.06
  -2   0 -20  305.00   10.55
   0  -2  20  309.12   10.69
   0  -2  20  295.49   12.34
   2  -2 -20  318.52    8.90
  -2   2  20  305.03   12.46
   0   2 -20  311.59   11.52
   2   0  23   12.10    3.17
   2  -2 -23   12.80    1.47
  -2   2  23   11.78    3.36
   0   2 -23   12.49    1.77
  -2   0 -23   15.23    2.25
   0  -2  23   10.65    2.51
   2   0  26    2.28    2.73
   0  -2  26    1.80    2.15
  -2   2  26    2.72    2.82
   0  -2  26    3.94    3.10
   0  -2  29    2.44    3.21
   0  -2  29    4.85    4.27
   2   0  29    2.95    3.59
  -2   2  29    3.06    4.35
  -2   2  32    6.30    4.20
   2   0  32    4.04    3.98
   0  -2  32    4.12    3.75
  -2   2  35    1.43    4.51
   2   0  35    0.84    4.22
  -2   2  38    4.80    5.53
  -3   2  37   11.12    5.89
   2   1  37    2.75    5.49
   2   1  34    0.81    3.87
  -3   2  34   -0.95    4.47
  -3   2  31    5.07    4.41
   2   1  31   -1.83    3.91
   1  -3  31   -4.22    3.83
   2   1  28   21.86    4.48
  -3   2  28   20.79    5.37
   1  -3  28   28.13    4.21
  -3   2  25    4.45    3.30
   2   1  25    4.77    2.65
   1  -3  25    3.44    2.25
   2   1  22  120.41    6.79
   3  -2 -22  113.94    3.96
   1  -3  22  110.95    6.08
  -2  -1 -22  106.13    5.13
  -3   2  22  101.50    7.21
   1  -3  22  106.54    7.00
  -3   2  22  115.64    5.38
  -1   3 -19   14.61    2.77
   1  -3  19   19.67    2.53
   1  -3  19   17.40    2.92
  -3   2  19   14.94    3.12
   2   1  19   11.43    2.53
  -1   3 -19   12.65    1.85
   3  -2 -19   11.99    1.22
  -3   2  19   15.71    1.95
  -2  -1 -19   25.43    2.67
  -2  -1 -19   14.59    2.06
   3  -2 -16   46.23    3.75
  -2  -1 -16   43.67    2.94
  -3   2  16   52.88    4.40
   2   1  16   42.59    3.28
  -1   3 -16   45.90    3.45
   1  -3  16   49.31    3.24
  -1   3 -16   51.58    2.76
  -3   2  16   46.63    2.44
  -2  -1 -16   49.60    3.07
   3  -2 -16   47.76    1.92
   3  -2 -13  293.78    7.65
   2   1  13  310.13    9.77
  -3   2  13  286.13   10.63
  -1   3 -13  290.06    8.72
   1  -3  13  288.83    9.29
  -2  -1 -13  289.18    9.48
  -3   2  13  311.47    8.17
  -1   3 -13  278.89    9.89
  -1   3 -10 3436.26   82.66
   2   1  10 3478.17   83.25
   1  -3  10 3437.99   83.16
   3  -2 -10 3434.39   81.45
  -2  -1 -10 3489.41   83.98
  -3   2  10 3406.69   81.71
  -1   3 -10 3471.10   83.93
   1  -3   7 1583.36   40.46
   3  -2  -7 1635.56   41.23
  -3   2   7 1630.84   39.25
   2   1   7 1732.94   40.44
  -1   3  -7 1730.31   40.34
  -3   2   4 1075.44   27.02
   3  -2  -4 1058.50   26.75
   1  -3   1  375.13    9.89
   3  -2  -1  406.63   10.11
  -3   2   1  399.01   10.19
  -1   3  -1  380.08    9.86
   1  -3  -2  557.07   13.36
  -1   3   2  541.06   13.27
  -3   2  -2  522.72   14.19
   3  -2   2  526.54   14.53
  -2  -1   5  920.95   22.59
   3  -2   8   24.40    2.23
  -3   2  -8   32.57    2.18
   2   1  -8   27.07    1.42
  -1   3   8   29.12    2.16
  -2  -1   8   27.56    1.49
   3  -2   8   27.65    1.73
  -3   2  -8   30.58    1.60
  -3   2 -11    9.63    1.69
  -2  -1  11   10.16    2.02
   1  -3 -11   13.89    1.32
   3  -2  11   12.55    2.04
  -1   3  11   16.82    2.12
  -3   2 -11   15.13    1.59
  -2  -1  11   11.48    1.12
   3  -2  11   13.28    1.70
   1  -3 -11   16.62    1.89
   2   1 -11   20.69    1.35
   2   1 -11   17.27    2.47
   3  -2  14  220.43    8.72
   2   1 -14  226.75    8.72
  -2  -1  14  234.00    9.61
  -3   2 -14  233.18    7.57
  -3   2 -14  228.62    7.70
   1  -3 -14  226.71    7.99
  -1   3  14  232.50    8.69
   3  -2  14  208.85    7.97
  -2  -1  14  216.08    7.00
   1  -3 -14  220.73    6.67
   2   1 -14  227.36    6.63
   1  -3 -17  175.36    5.61
  -2  -1  17  164.77    8.27
  -2  -1  17  171.94    6.18
  -3   2 -17  170.33    6.67
  -3   2 -17  171.22    6.47
   3  -2  17  159.53    7.10
   1  -3 -17  174.31    7.11
   3  -2  17  162.48    7.79
   2   1 -17  170.91    7.79
   2   1 -17  175.01    5.54
  -1   3  17  164.35    7.62
   3  -2  20  617.14   20.22
  -3   2 -20  606.36   17.65
   3  -2  20  621.78   19.38
  -2  -1  20  633.85   17.77
   1  -3 -20  628.27   16.52
  -1   3  20  618.97   20.00
  -2  -1  20  620.16   20.94
  -3   2 -20  622.95   18.17
   2   1 -20  610.99   16.41
  -1   3  23   21.69    3.65
   3  -2  23   28.98    4.58
  -2  -1  23   26.33    4.71
  -2  -1  23   23.96    2.70
   3  -2  23   19.40    3.90
  -3   2 -23   17.95    2.80
   2   1 -23   21.14    1.93
   1  -3 -23   21.31    1.97
   3  -2  26    4.43    3.00
  -2  -1  26    6.09    3.49
  -2  -1  26    5.68    2.22
  -1   3  26    4.70    2.74
  -1   3  29    3.63    3.77
   3  -2  29   14.17    4.37
  -2  -1  29   10.24    3.17
  -2  -1  29   10.82    4.61
   3  -2  32   33.13    5.96
  -1   3  32   23.56    5.37
  -2  -1  32   30.87    6.26
  -1   3  35    1.41    4.41
  -1   3  38   13.95    6.14
   1   2  38   12.28    5.99
   1   2  35   -4.01    4.48
  -3   1  35    0.50    4.81
   1   2  32   -2.76    3.92
   2  -3  32   -0.77    4.30
  -3   1  32    5.40    4.45
   1   2  29   57.90    6.10
   2  -3  29   58.94    6.22
  -3   1  29   63.51    7.12
   2  -3  26   18.89    3.92
  -3   1  26   16.67    2.72
  -3   1  26   10.25    3.81
   1   2  26   12.65    3.28
   2  -3  26   17.89    3.67
   2  -3  23  221.42    9.99
   1   2  23  228.66   10.34
  -3   1  23  235.91    8.52
  -1  -2 -23  230.10    8.09
  -3   1  23  238.46   11.54
   3  -1 -23  222.98    6.99
   2  -3  23  268.82   11.38
  -3   1  20  454.10   12.61
   3  -1 -20  417.18   11.31
  -2   3 -20  404.05   12.53
   1   2  20  415.97   14.55
  -1  -2 -20  431.05   12.56
  -3   1  20  421.30   15.91
   2  -3  20  424.23   14.32
  -1  -2 -20  421.52   13.34
   2  -3  20  413.47   14.84
  -2   3 -20  390.49   13.57
  -2   3 -17  419.54   13.37
   2  -3  17  430.24   14.20
  -1  -2 -17  417.96   12.93
  -3   1  17  424.48   11.97
  -2   3 -17  428.64   12.37
   3  -1 -17  420.06   11.14
   2  -3  17  438.88   13.72
   1   2  17  412.39   13.82
  -1  -2 -17  431.92   12.46
   3  -1 -17  412.37   13.98
  -3   1  17  403.05   15.02
  -1  -2 -14   95.01    4.31
  -2   3 -14   98.34    4.08
   3  -1 -14   94.82    3.13
   3  -1 -14   84.24    4.89
  -2   3 -14   90.01    4.51
  -1  -2 -14   92.64    4.23
   2  -3  14   89.82    4.54
   1   2  14   98.58    4.88
  -3   1  14   94.63    5.82
  -3   1  14   95.95    3.52
   2  -3  14   94.63    5.06
  -3   1  11 6057.69  144.89
   2  -3  11 6074.09  146.53
   3  -1 -11 6137.99  144.61
  -1  -2 -11 6054.54  146.51
  -2   3 -11 6155.12  145.86
  -2   3 -11 6109.41  146.46
   1   2  11 6081.39  146.63
   2  -3   8 5853.50  141.34
  -3   1   8 5883.91  139.93
  -2   3  -8 6004.80  140.91
  -2   3  -8 5868.66  141.30
   1   2   8 5939.77  141.20
  -3   1   5  426.18   12.18
   3  -1  -5  418.16   11.92
  -2   3  -2   29.08    1.44
   2  -3   2   30.50    1.56
  -3   1   2   29.26    1.81
   3  -1  -2   31.96    1.88
   2  -3  -1  725.19   18.70
  -2   3   1  811.54   18.74
  -2   3   4   61.25    2.61
  -1  -2   4   59.26    2.24
   1   2  -4   60.62    2.19
  -1  -2   7   22.74    1.39
   3  -1   7   24.05    1.44
   1   2  -7   24.61    1.39
   1   2  -7   26.99    2.46
  -3   1  -7   25.62    2.16
  -1  -2  10   12.21    1.22
   1   2 -10   20.89    2.39
   2  -3 -10   12.06    0.78
   1   2 -10   14.38    1.21
   3  -1  10   13.27    1.43
  -3   1 -10   13.56    1.30
  -3   1 -10   11.87    1.74
   3  -1  13  299.99    9.50
   2  -3 -13  308.64    9.99
  -3   1 -13  302.30    8.96
  -2   3  13  293.76   10.43
   2  -3 -13  297.77    7.87
   1   2 -13  305.14   10.64
  -1  -2  13  280.55    8.87
  -3   1 -13  306.20    9.51
   1   2 -13  303.04    8.55
   1   2 -16  190.99    6.03
   2  -3 -16  182.36    7.45
  -3   1 -16  191.37    6.91
   3  -1  16  190.46    7.36
   1   2 -16  190.68    8.05
  -3   1 -16  190.55    6.74
  -1  -2  16  181.75    6.58
  -2   3  16  177.20    8.07
  -1  -2  16  216.09    9.27
   2  -3 -16  181.22    5.44
  -3   1 -19 1865.58   47.73
   1   2 -19 1839.30   49.50
   1   2 -19 1890.11   46.53
  -3   1 -19 1905.67   47.78
  -1  -2  19 1872.48   50.87
  -1  -2  19 1954.74   47.97
   3  -1  19 1855.08   49.01
   2  -3 -19 1883.11   45.89
  -2   3  19 1921.50   50.46
  -3   1 -22  403.73   13.05
   2  -3 -22  411.63   11.21
  -1  -2  22  410.37   15.90
  -1  -2  22  417.53   13.33
   1   2 -22  418.25   11.87
   3  -1  22  404.41   14.55
  -2   3  22  384.67   15.14
  -1  -2  25   28.69    4.87
  -1  -2  25   18.15    2.85
   3  -1  25   23.14    3.90
  -2   3  25   20.03    3.96
  -2   3  28   47.61    6.46
  -1  -2  28   60.40    5.20
   3  -1  28   48.93    5.57
   3  -1  31   67.36    6.89
  -1  -2  31   80.03    6.49
  -2   3  31   72.00    7.60
  -2   3  34    6.45    4.55
   3  -1  34    1.98    4.00
  -2   3  37    6.11    5.42
   0   3  36   -5.31    5.95
  -3   0  33   25.67    5.92
   0   3  33   12.34    4.81
   0   3  30    5.15    3.59
  -3   0  30    1.29    4.28
   3  -3  30    3.13    3.96
   0   3  27   23.47    4.30
  -3   0  27   28.64    6.76
   3  -3  27   15.93    4.20
  -3   0  27   14.18    2.69
   3  -3  24    4.16    3.03
  -3   0  24    3.71    3.07
   0   3  24    1.65    2.37
   0  -3 -24    3.06    1.48
   3   0 -24    2.42    1.02
   3  -3  24    2.20    2.63
  -3   0  24    4.60    1.77
   0   3  21   54.87    4.66
  -3   3 -21   39.78    3.91
  -3   0  21   51.08    3.31
   0  -3 -21   49.16    3.06
  -3   0  21   50.97    5.26
   3  -3  21   50.71    4.69
   3  -3  21   48.59    4.56
   3   0 -21   51.03    2.56
   0  -3 -18   99.85    5.15
   0  -3 -18  107.92    4.39
   3  -3  18   99.03    5.64
  -3   3 -18  102.58    5.14
  -3   0  18   97.78    4.28
  -3   0  18  111.65    6.92
   3   0 -18  102.01    3.72
   0   3  18  100.13    5.74
   3  -3  18  105.10    6.00
  -3   3 -18   96.46    4.65
  -3   3 -15  204.75    7.10
   0  -3 -15  199.50    6.70
  -3   0  15  192.89    6.36
   0   3  15  202.45    8.08
   3  -3  15  192.30    7.95
   3   0 -15  200.75    5.93
  -3   3 -15  203.70    7.26
   3   0 -15  207.03    8.57
   3  -3  15  223.45    8.22
  -3   0  15  188.87    8.79
   0  -3 -15  209.61    7.45
   3  -3  12 1071.39   28.45
   0  -3 -12 1047.33   27.33
   3   0 -12 1104.78   26.12
   0   3  12 1058.92   28.19
  -3   0  12  986.99   29.24
   3  -3  12 1055.39   27.78
  -3   3 -12 1089.17   27.37
  -3   3 -12 1050.46   27.37
  -3   0  12 1035.46   26.39
   3  -3   9 3194.71   78.58
  -3   3  -9 3174.30   77.87
   0   3   9 3270.74   78.33
   3   0  -9 3223.82   76.71
  -3   0   9 3183.54   76.89
  -3   3  -9 3269.89   77.58
  -3   3  -6   13.81    1.14
  -3   0   6   13.07    0.83
   3   0  -6   14.78    1.85
   3  -3   3 2055.56   49.39
   3   0  -3 2036.52   49.93
  -3   3  -3 1994.78   49.10
  -3   3   0  750.66   18.66
  -3   3   0  765.13   18.86
   0  -3   0  753.68   18.69
   3  -3   0  771.71   19.06
   3  -3  -3  692.28   17.23
   3  -3  -3  690.58   17.71
  -3   3   3  717.68   17.95
  -3   3   3  696.25   16.95
   0   3  -6   84.46    2.96
   3  -3  -6   81.71    3.55
  -3   3   6   77.16    3.63
   0  -3   6   79.94    3.13
   0   3  -9  105.45    5.02
   3   0   9  107.79    3.95
  -3   0  -9  111.05    4.98
   0   3  -9  111.81    3.80
   0  -3   9   98.01    3.94
   0   3 -12    0.06    0.87
   3  -3 -12    1.67    0.34
   0   3 -12    0.29    1.84
   0  -3  12    1.87    0.94
  -3   0 -12    2.30    1.73
   3   0  12    3.57    1.16
   3  -3 -15   61.89    2.07
   0  -3  15   60.89    3.33
  -3   0 -15   61.04    3.65
   0   3 -15   59.30    2.89
   3   0  15   69.71    3.80
   3  -3 -15   63.94    4.10
  -3   0 -15   62.84    3.27
  -3   3  15   60.00    4.43
   0   3 -15   59.59    4.22
   3   0  18  711.67   20.37
   0  -3  18  713.93   19.72
  -3   0 -18  745.24   19.35
  -3   3  18  711.25   21.71
  -3   0 -18  723.34   19.54
   0   3 -18  689.39   18.40
   3  -3 -18  658.92   17.17
   0   3 -18  700.20   20.74
  -3   0 -21  339.52   11.12
   3  -3 -21  337.67    9.11
  -3   0 -21  339.64   11.13
   0   3 -21  313.22    9.92
   0  -3  21  359.12   11.84
   3   0  21  334.03   12.21
  -3   3  21  364.26   14.03
  -3   3  24    0.94    2.64
   0  -3  24    4.06    2.13
   3   0  24    5.25    2.50
   0  -3  27   10.80    3.13
   3   0  27    0.29    4.60
  -3   3  27   -6.93    5.48
   3   0  30   32.33    5.32
  -3   3  30   35.92    5.81
   0  -3  30   29.91    4.62
  -3   3  33   12.70    5.03
   3   0  33   17.45    4.79
  -3   3  36   -1.01    4.85
   3   1  35   -5.00    5.24
  -4   3  35   -2.03    5.08
   3   1  32   -4.49    4.91
  -4   3  32    4.53    4.69
   1  -4  32    7.76    4.07
   3   1  29   17.33    4.23
   1  -4  29   14.55    3.77
  -4   3  29   17.30    4.70
   3   1  26    3.46    2.63
  -4   3  26    4.84    3.91
   1  -4  26    2.63    2.24
  -4   3  23   31.69    4.41
   3   1  23   30.70    3.77
   1  -4  23   34.75    3.62
   1  -4  20    0.66    1.85
  -1   4 -20    4.97    2.54
  -4   3  20    1.92    2.55
  -3  -1 -20    7.34    2.09
  -4   3  20    4.08    1.48
   4  -3 -20    3.56    0.81
   3   1  20    1.31    2.12
   1  -4  17   10.66    1.82
  -4   3  17    8.18    1.22
   4  -3 -17    9.35    0.75
  -4   3  17    9.34    2.50
  -1   4 -17    7.19    1.42
   3   1  17    5.44    1.87
  -1   4 -17    6.25    2.25
  -3  -1 -17    6.90    2.03
  -3  -1 -14  120.98    5.68
  -1   4 -14  119.69    4.63
   1  -4  14  111.34    5.00
   3   1  14  128.96    5.41
  -4   3  14  120.51    3.75
  -1   4 -14  115.49    5.86
  -1   4 -11  665.48   19.31
   1  -4  11  652.23   18.23
  -1   4 -11  682.61   17.78
  -4   3  11  679.51   16.43
   3   1  11  666.99   18.16
   4  -3 -11  682.45   19.20
   4  -3  -8  954.49   24.62
  -4   3   8  943.46   25.05
  -1   4  -8  894.99   23.30
   1  -4   8  944.84   23.86
   4  -3  -5   11.18    1.46
  -4   3   5   16.21    1.63
  -4   3   2  217.20    6.15
   1  -4   2  187.85    5.77
  -4   3   2  219.94    6.34
   4  -3  -2  216.12    6.16
  -1   4  -2  203.27    5.83
   1  -4  -1   28.62    1.35
  -1   4   1   26.61    1.29
  -4   3  -1   27.42    1.28
  -4   3  -1   27.65    1.88
   1  -4  -4   38.89    1.51
  -4   3  -4   39.97    2.36
   4  -3   4   45.06    2.79
  -3  -1   7    0.87    0.58
  -4   3  -7    1.16    0.52
   3   1 -10  254.50    7.19
  -3  -1  10  252.41    7.43
   4  -3  10  264.60    7.82
  -4   3 -10  266.98    7.47
  -1   4  10  272.00    8.77
  -4   3 -10  255.29    8.39
   4  -3  10  252.27    9.20
  -4   3 -13  237.31    7.16
   4  -3  13  220.85    7.55
  -3  -1  13  197.65    9.43
  -3  -1  13  218.72    6.82
  -1   4  13  222.15    8.33
   4  -3  13  227.11    8.87
   3   1 -13  217.18    6.39
   1  -4 -13  211.81    6.92
   3   1 -13  220.22    8.86
  -4   3 -13  215.88    7.63
  -3  -1  16   78.34    3.63
   3   1 -16   78.98    5.18
  -4   3 -16   79.90    3.96
  -4   3 -16   84.74    4.26
   1  -4 -16   80.35    3.47
   4  -3  16   80.69    5.29
   3   1 -16   81.90    3.23
   4  -3  16   85.23    4.57
  -1   4  16   91.52    5.29
  -3  -1  16   74.39    5.59
  -3  -1  19  334.70   10.33
  -4   3 -19  323.54   10.68
   1  -4 -19  321.27    9.59
  -1   4  19  320.99   12.36
  -3  -1  19  315.62   13.39
   4  -3  19  312.52   12.62
   4  -3  19  328.70   11.80
   3   1 -19  325.46    9.31
  -3  -1  22   90.50    4.73
   3   1 -22   88.57    3.76
   4  -3  22  131.35    7.83
  -4   3 -22   83.41    4.98
  -3  -1  22   92.87    7.21
   4  -3  22   88.66    6.63
   1  -4 -22   91.27    3.97
  -1   4  22   91.25    6.25
  -1   4  25    0.61    2.68
  -3  -1  25    0.47    1.73
   4  -3  25    2.85    2.82
  -3  -1  25    2.91    3.33
  -3  -1  28    0.19    2.35
  -1   4  28    2.70    3.20
   4  -3  28    3.04    3.73
  -3  -1  28    9.78    5.65
   4  -3  31    7.00    4.28
  -1   4  31    9.57    4.63
  -1   4  34    6.40    4.55
  -1   4  37    2.09    5.25
   2   2  36   -4.57    5.87
  -4   2  36    8.50    5.81
   2  -4  33    5.03    4.15
   2   2  33   12.46    4.40
  -4   2  33    2.41    4.25
  -4   2  30   10.29    4.61
   2   2  30   23.10    4.42
   2  -4  30   13.57    4.26
   2   2  27   60.68    5.56
   2  -4  27   68.60    5.84
  -4   2  27   63.37    6.93
   2   2  24   30.93    4.05
  -4   2  24   36.74    4.79
  -2  -2 -24   34.68    3.00
  -4   2  24   30.96    2.99
   2  -4  24   33.66    3.79
  -2   4 -21  479.19   15.50
   2  -4  21  492.97   15.77
  -4   2  21  452.88   13.46
  -4   2  21  496.81   17.85
   2   2  21  454.55   15.82
  -2  -2 -21  467.05   14.14
   4  -2 -21  467.02   12.28
   2  -4  18  551.97   16.87
  -4   2  18  571.63   14.89
  -2   4 -18  556.29   15.52
   2   2  18  556.28   17.16
  -4   2  18  521.28   18.71
  -2  -2 -18  542.62   16.00
   4  -2 -18  549.52   13.99
  -2   4 -18  534.58   16.81
  -2  -2 -15   79.97    4.35
   2   2  15   85.88    4.53
  -2   4 -15   83.61    3.77
   4  -2 -15   77.01    2.60
  -4   2  15   81.77    3.05
   2  -4  15   84.06    4.40
  -2   4 -15   85.29    4.67
  -4   2  12 3424.88   80.80
  -2   4 -12 3431.02   83.13
  -2   4 -12 3370.89   82.00
   2   2  12 3341.59   82.72
   2  -4  12 3303.10   82.76
   2   2   9 8549.68  207.44
  -2   4  -9 8709.75  207.08
   4  -2  -9 8828.98  208.42
  -2   4  -9 8745.45  208.06
  -4   2   9 8671.87  205.90
   2  -4   9 8768.16  207.64
  -4   2   9 8886.31  209.06
  -4   2   6  548.53   15.61
   4  -2  -6  550.47   15.29
  -4   2   3 1751.80   43.35
   2  -4   3 1658.45   42.60
   4  -2  -3 1721.36   43.01
  -2   4   0  959.85   23.97
   4  -2   0  982.10   24.16
  -4   2   0  969.42   24.33
   2  -4   0 1023.84   24.18
   2  -4  -3   98.02    2.91
  -4   2  -3   96.16    4.28
  -2   4   3  104.08    2.85
  -2  -2   3   89.45    3.16
   2  -4  -6   28.49    1.04
   2   2  -6   28.40    1.51
  -2  -2   6   29.41    1.57
   4  -2   9   14.69    1.24
   2   2  -9   15.21    2.33
  -4   2  -9   14.86    1.86
  -4   2  -9   15.78    1.07
  -2  -2   9   14.19    1.23
   2   2  -9   14.35    1.17
  -2  -2  12  544.39   14.58
  -4   2 -12  557.01   14.33
   4  -2  12  528.92   14.83
   2   2 -12  524.53   16.72
  -2   4  12  539.52   16.24
  -4   2 -12  525.52   15.37
   2  -4 -12  530.42   13.75
   2   2 -12  562.73   14.22
   2  -4 -12  526.69   15.46
   4  -2  15   46.48    4.33
  -2   4  15   68.69    4.61
   2  -4 -15   71.75    2.74
  -2  -2  15   77.59    3.54
  -4   2 -15   74.44    3.99
  -4   2 -15   77.58    3.49
   2   2 -15   76.39    5.15
   2  -4 -15   79.23    4.28
   2   2 -15   76.07    3.15
   4  -2  18 1261.40   33.58
   2  -4 -18 1251.58   30.80
  -4   2 -18 1187.46   32.11
  -4   2 -18 1247.42   32.76
  -2  -2  18 1284.06   32.43
  -2   4  18 1237.08   34.76
   2   2 -18 1270.06   31.37
   4  -2  21 1136.20   31.39
  -4   2 -21 1077.33   29.52
   2  -4 -21 1126.90   27.85
   2   2 -21 1106.41   28.39
  -2  -2  21 1134.95   29.83
  -2   4  21 1111.53   32.53
   4  -2  24    6.02    2.81
  -2  -2  24    6.28    2.07
  -2   4  24    6.49    2.79
  -2   4  27   50.61    5.68
  -2  -2  27   47.72    4.27
   4  -2  27   53.60    5.94
  -2   4  30   96.90    8.35
  -2  -2  30   98.37    6.49
   4  -2  30   90.90    7.40
  -2   4  33   18.60    5.30
  -2   4  36    5.59    4.89
   1   3  37    2.99    4.90
  -4   1  34    7.58    4.67
   1   3  34    7.82    4.53
   1   3  31   -3.38    3.80
  -4   1  31    1.36    4.01
   3  -4  31   -1.94    4.16
   3  -4  28   66.16    6.45
  -4   1  28   85.51    8.56
   1   3  28   57.98    5.88
   3  -4  25    0.28    2.53
  -4   1  25    2.17    3.04
  -4   1  25    2.20    1.69
   1   3  25    1.13    2.51
  -4   1  22  280.99    9.05
  -3   4 -22  271.52   10.30
  -1  -3 -22  270.36    9.17
  -4   1  22  288.14   12.82
   3  -4  22  283.87   11.49
   1   3  22  258.77   11.12
   4  -1 -22  264.36    7.83
   4  -1 -19  512.34   13.70
  -3   4 -19  534.51   16.19
  -1  -3 -19  529.52   15.27
  -4   1  19  566.92   18.94
   1   3  19  498.22   16.88
  -4   1  19  555.48   14.73
   3  -4  19  538.03   17.14
  -4   1  16  422.86   11.51
   3  -4  16  414.74   13.51
   4  -1 -16  387.96   13.79
   1   3  16  433.41   13.81
  -3   4 -16  414.83   12.99
   4  -1 -16  417.96   10.88
  -3   4 -16  425.05   12.42
  -1  -3 -16  416.14   12.60
  -4   1  16  392.87   14.83
  -4   1  13  824.38   20.61
  -3   4 -13  792.74   22.03
  -3   4 -13  817.15   21.70
   1   3  13  834.65   22.65
   3  -4  13  830.65   22.70
  -3   4 -10 9008.42  214.97
   1   3  10 8952.96  215.41
  -3   4 -10 9091.95  215.15
   4  -1 -10 8992.16  216.52
   3  -4  10 8999.32  215.72
  -4   1  10 9054.15  213.81
  -4   1   7 1805.70   43.87
  -4   1   7 1846.87   46.61
   4  -1  -7 1911.99   46.19
  -3   4  -4 1385.34   32.84
   3  -4   4 1367.49   33.22
  -4   1   4 1412.32   34.08
   3  -4   1 1596.54   39.34
  -3   4  -1 1613.95   39.15
   4  -1  -1 1643.91   39.86
  -3   4   2  572.35   14.08
   3  -4  -2  566.26   14.25
   3  -4  -5   50.27    1.62
  -3   4   5   55.99    2.77
   1   3  -5   51.89    2.18
  -1  -3   5   49.82    2.25
  -3   4   5   54.39    1.53
  -1  -3   8   84.83    3.39
  -4   1  -8   91.55    4.59
   1   3  -8   97.82    3.41
   4  -1   8   92.86    3.22
   3  -4  -8   97.93    4.08
  -1  -3  11  409.52   11.68
   1   3 -11  420.18   11.34
  -4   1 -11  405.71   12.68
   1   3 -11  405.87   13.35
   4  -1  11  421.23   11.63
  -3   4  14  409.69   14.35
   4  -1  14  426.61   13.09
   1   3 -14  460.25   12.31
   1   3 -14  472.37   14.94
  -1  -3  14  452.04   12.88
   3  -4 -14  446.73   11.00
  -4   1 -14  440.46   13.54
   1   3 -17  626.98   16.83
  -1  -3  17  637.31   17.85
   4  -1  17  611.38   18.20
   3  -4 -17  648.49   15.73
  -4   1 -17  627.09   18.10
   1   3 -17  608.30   19.44
  -4   1 -17  619.31   17.25
  -3   4  17  616.25   19.77
   1   3 -20 1694.81   41.73
   3  -4 -20 1705.25   40.53
  -4   1 -20 1669.96   42.48
  -1  -3  20 1688.81   43.17
   4  -1  20 1690.38   44.08
  -3   4  23   83.93    6.34
   4  -1  23   80.96    5.70
  -1  -3  23   92.92    5.34
  -4   1 -23   88.96    4.72
  -3   4  26   31.81    4.79
  -1  -3  26   32.23    3.56
   4  -1  26   27.12    4.74
  -1  -3  29   94.55    6.49
   4  -1  29   89.67    7.08
  -3   4  29   97.61    8.20
  -3   4  32   42.51    6.84
   4  -1  32   40.18    6.03
  -1  -3  32   34.31    4.80
  -3   4  35    1.99    4.97
   0   4  35   -0.47    4.89
  -4   0  32    3.86    5.16
   0   4  32   -0.82    3.74
  -4   0  29   55.12    6.78
   4  -4  29   43.28    6.29
   0   4  29   58.99    6.29
   4  -4  26   12.95    3.83
  -4   0  26   22.62    6.76
   0   4  26   12.10    3.38
  -4   0  26   15.62    2.34
   0   4  23    9.41    2.70
  -4   0  23    3.39    1.73
   4  -4  23    2.54    2.84
   4   0 -23    5.02    1.08
   0  -4 -23    5.09    1.67
  -4   0  23    4.16    3.15
  -4   4 -23    4.67    2.27
   4  -4  20   21.48    3.37
  -4   4 -20   26.67    2.94
   4   0 -20   19.57    1.59
   0  -4 -20   25.56    2.30
  -4   0  20   28.04    2.31
  -4   0  20   16.24    3.71
   0   4  20   13.99    2.92
  -4   4 -17  155.38    6.19
   4  -4  17  149.38    7.36
  -4   0  17  146.42    8.09
   4   0 -17  153.71    4.81
  -4   0  17  146.60    5.38
  -4   4 -17  158.30    6.19
   0  -4 -17  141.99    5.70
   0   4  17  146.45    7.04
  -4   4 -14   90.19    4.27
   0   4  14   85.20    4.79
  -4   4 -14   94.92    4.21
   4   0 -14   91.08    3.19
  -4   0  14   90.81    3.61
   4  -4  14   93.65    5.17
   4  -4  11  930.01   26.08
  -4   4 -11  934.64   24.46
   0   4  11  969.43   25.55
  -4   0  11  984.92   23.92
  -4   4 -11  941.03   25.01
  -4   0   8  949.88   24.03
   4   0  -8 1031.02   26.74
  -4   4  -8  987.98   24.39
   4   0  -5   53.67    3.33
   4  -4   5   56.43    2.98
  -4   4  -5   51.98    2.70
   0  -4  -2   50.72    2.00
   4  -4   2   54.44    2.65
  -4   4  -2   54.33    2.49
  -4   4   1  132.27    4.18
   4  -4  -1  125.52    4.30
   0   4  -1  128.44    3.95
   0  -4   1  126.37    4.05
  -4   4   1  123.59    3.99
   4  -4  -4   83.77    3.47
  -4   4   4   95.16    3.79
  -4   4   4   91.86    2.73
  -4   4   7   13.70    1.73
   0  -4   7   14.21    1.35
   0   4  -7   12.27    1.20
   4  -4  -7   11.35    1.56
   0   4 -10  235.35    7.08
   4   0  10  235.06    7.18
   0  -4  10  235.05    7.52
   4  -4 -10  232.53    8.16
  -4   4  10  225.06    8.48
   4   0  13  636.76   18.32
  -4   0 -13  684.10   19.62
   0   4 -13  700.55   17.85
   0   4 -13  654.78   19.95
   0  -4  13  686.61   18.52
  -4   0 -16    6.50    1.92
   0   4 -16    5.59    2.33
   0   4 -16    4.15    1.17
   4  -4 -16    3.61    0.40
   0  -4  16    3.66    1.37
   4   0  16    3.86    1.59
   0   4 -19  494.57   13.95
   4  -4 -19  494.29   12.28
  -4   4  19  492.95   17.25
  -4   0 -19  489.06   15.06
   4   0  19  498.98   15.63
   0  -4  19  486.91   15.14
  -4   4  22   59.31    5.69
   0  -4  22   60.28    4.40
   4   0  22   60.85    4.62
  -4   4  25    1.71    2.87
   0  -4  25    3.74    2.09
   4   0  25    3.64    2.41
  -4   4  28   -2.76    4.82
   0  -4  28    5.24    3.08
   4   0  28   -0.87    3.41
  -4   4  31    1.36    4.09
   0  -4  31   11.42    3.86
   4   0  31    1.02    3.83
  -4   4  34   -4.88    4.53
   1  -5  33   -2.12    3.95
   4   1  33    1.53    3.83
  -5   4  33   -1.45    4.56
   1  -5  30   67.01    6.15
  -5   4  30   49.54    6.65
   4   1  30   52.86    5.97
  -5   4  27   51.73    6.94
   1  -5  27   69.99    5.55
   4   1  27   60.71    5.42
   4   1  24   10.85    2.89
  -5   4  24   10.73    3.59
   1  -5  24    8.75    2.48
   4   1  21    1.73    2.36
  -5   4  21   -0.60    2.53
   1  -5  21   -0.73    1.96
  -4  -1 -18   24.13    3.18
  -1   5 -18   25.94    3.51
   4   1  18   23.10    2.91
   1  -5  18   26.59    2.70
   5  -4 -15  159.13    7.17
   1  -5  15  172.77    6.64
   4   1  15  166.24    6.56
  -1   5 -15  142.85    5.44
  -1   5 -15  176.71    7.71
  -4  -1 -15  172.41    7.56
   5  -4 -12  418.29   13.37
  -1   5 -12  423.36   13.98
   1  -5  12  423.06   12.61
   4   1  12  437.16   12.37
  -1   5 -12  409.56   11.80
  -5   4  12  432.50   14.11
  -1   5  -9  197.25    6.43
   1  -5   9  198.38    6.91
   5  -4  -9  222.52    7.68
  -5   4   9  209.42    7.97
   5  -4  -6  165.96    5.89
  -5   4   6  153.93    6.11
  -5   4   6  159.25    4.63
  -5   4   3  469.49   11.86
  -1   5  -3  449.65   11.79
   1  -5   3  391.10   11.72
   5  -4  -3  468.17   12.23
  -5   4   3  467.79   12.54
  -5   4   0 6030.68  143.84
  -1   5   0 6020.89  143.18
   5  -4   0 6010.03  143.12
  -5   4   0 6011.26  143.41
   1  -5   0 6075.30  143.43
   5  -4   3 1044.71   27.96
  -5   4  -3 1064.98   25.72
   1  -5  -3 1064.94   26.15
  -5   4  -3 1088.14   27.16
   5  -4   6  201.61    7.49
  -4  -1   6  193.46    5.78
  -5   4  -6  199.41    6.69
   4   1  -6  193.22    7.60
   4   1  -9  108.20    5.92
  -1   5   9  127.77    5.34
  -5   4  -9  141.36    4.10
  -4  -1   9  132.38    4.42
  -5   4 -12  303.95    8.49
  -1   5  12  285.59   10.03
   5  -4  12  280.34   10.79
  -4  -1  12  295.24    8.60
  -5   4 -12  294.72    9.64
   4   1 -15  207.46    9.36
  -5   4 -15  228.39    8.04
  -1   5  15  228.58    8.96
   4   1 -15  220.31    6.61
  -5   4 -15  222.36    7.25
   1  -5 -15  208.89    7.39
  -4  -1  15  238.46    7.42
   5  -4  15  223.44    9.56
  -1   5  18   70.44    4.89
   5  -4  18   60.66    5.08
   4   1 -18   56.16    2.71
   1  -5 -18   60.40    3.17
  -5   4 -18   57.98    3.46
  -4  -1  18   60.04    3.38
   4   1 -21   12.55    1.51
   5  -4  21   15.73    3.54
   1  -5 -21   10.84    1.76
  -4  -1  21   15.16    2.07
  -1   5  21    6.41    2.67
  -5   4 -21   12.46    2.17
   5  -4  24    2.75    3.25
  -5   4 -24    0.44    1.82
  -1   5  24    0.87    2.45
  -4  -1  24    0.85    1.48
  -1   5  27   43.72    5.35
  -4  -1  27   37.60    3.49
  -1   5  30   48.46    6.23
  -1   5  33   -2.64    4.27
  -1   5  36   -7.01    5.76
   3   2  34    2.90    4.48
   2  -5  34    2.38    4.13
  -5   3  34    1.03    4.41
   3   2  31   12.43    4.31
  -5   3  31    5.95    4.80
   2  -5  31    2.41    3.49
   2  -5  28  100.90    7.16
  -5   3  28   83.68    8.11
   3   2  28   93.89    6.98
  -5   3  25    0.37    3.12
   3   2  25   -0.26    2.33
   2  -5  25    1.71    2.24
  -5   3  22   67.59    6.39
   2  -5  22   75.15    5.15
  -5   3  22   77.45    3.79
   3   2  22   70.21    5.21
  -3  -2 -22   67.95    4.50
   3   2  19   74.43    4.91
  -2   5 -19   75.38    5.15
  -3  -2 -19   78.76    4.74
   2  -5  19   76.08    4.79
  -5   3  19   80.13    3.30
   3   2  16  124.84    5.85
  -5   3  16  127.55    4.09
  -2   5 -16  121.72    6.22
   2  -5  16  126.50    5.84
  -2   5 -16  138.37    5.47
  -3  -2 -16  126.49    6.22
  -5   3  13    2.97    0.55
  -2   5 -13    1.38    1.18
  -2   5 -13    5.66    2.12
  -5   3  13    0.60    1.77
   2  -5  13    1.81    1.14
   5  -3 -13    4.82    1.86
   3   2  13    2.74    1.32
  -5   3  10 1289.89   31.17
   2  -5  10 1240.16   33.22
   5  -3 -10 1291.70   33.97
  -5   3  10 1288.76   34.74
  -2   5 -10 1399.74   32.93
   5  -3  -7   98.15    4.53
  -5   3   7  101.72    4.86
   5  -3  -4  320.11    9.24
   2  -5   4  331.06    9.02
  -5   3   4  326.12    9.62
  -2   5  -4  279.98    8.36
   2  -5   1  287.71    7.81
  -5   3   1  269.09    7.77
   5  -3  -1  255.93    7.48
  -2   5  -1  253.13    7.24
  -5   3  -2  867.05   21.63
   5  -3   2  900.20   21.42
  -5   3  -2  886.64   23.16
   2  -5  -2  905.30   21.88
  -2   5   2  861.76   21.69
  -5   3  -5    8.45    1.58
  -3  -2   5    8.16    0.88
   2  -5  -5    7.64    0.68
  -3  -2   8   42.61    2.10
   2  -5  -8   41.50    1.50
   5  -3  11  319.91    8.66
  -5   3 -11  285.18    7.89
  -3  -2  11  289.22    8.53
   3   2 -11  285.19    8.18
  -5   3 -11  273.23    9.36
   5  -3  14  386.88   14.21
  -2   5  14  399.93   13.35
   5  -3  14  444.96   12.23
   3   2 -14  393.57   14.09
   3   2 -14  394.77   10.97
  -5   3 -14  393.47   12.40
  -5   3 -14  402.21   11.14
   2  -5 -14  388.69   10.90
  -3  -2  14  417.62   11.73
  -5   3 -17   83.43    4.54
   2  -5 -17   84.80    3.20
  -5   3 -17   85.03    3.78
  -3  -2  17   76.37    3.91
  -2   5  17   67.53    5.07
   5  -3  17   78.36    4.36
   3   2 -17   77.97    3.36
   5  -3  20  453.70   14.67
  -2   5  20  444.09   15.95
  -3  -2  20  463.05   13.70
  -5   3 -20  430.03   13.14
   2  -5 -20  443.53   12.07
   3   2 -20  448.41   12.48
  -3  -2  23   10.57    2.26
  -5   3 -23   11.92    2.17
  -2   5  23   13.96    3.38
   5  -3  23   13.77    3.12
   3   2 -23   15.61    1.76
  -2   5  26   -0.33    2.79
  -3  -2  26    0.53    1.97
  -3  -2  29    3.02    2.68
  -2   5  29    5.50    3.78
   5  -3  29    4.58    3.93
  -2   5  32    6.46    4.59
  -2   5  35   -5.40    5.26
   3  -5  35   -0.92    4.55
   2   3  35   -0.45    4.76
  -5   2  35    5.40    5.69
  -5   2  32   17.91    5.85
   2   3  32    9.31    4.42
   3  -5  32    4.31    4.11
  -5   2  29   22.31    5.44
   3  -5  29   20.07    4.72
   2   3  29   22.87    4.26
   3  -5  26   15.92    3.61
   2   3  26   13.04    3.40
  -5   2  23   46.27    5.28
   3  -5  23   47.17    4.53
  -5   2  23   54.37    3.21
   2   3  23   56.95    4.93
  -2  -3 -23   40.03    3.50
  -3   5 -20  144.20    7.08
  -2  -3 -20  151.51    6.62
   3  -5  20  157.63    7.51
  -5   2  20  166.36    9.07
  -5   2  20  153.64    5.53
   2   3  20  144.22    7.37
  -3   5 -17  193.87    7.87
   2   3  17  200.44    8.16
  -3   5 -17  192.26    6.99
   3  -5  17  193.81    8.03
  -2  -3 -17  186.00    7.62
  -5   2  17  193.20    6.00
  -3   5 -14    8.76    1.54
   3  -5  14   11.33    1.88
   5  -2 -14    9.94    2.27
   2   3  14   10.82    1.75
  -5   2  14   10.61    0.97
  -3   5 -14    7.24    2.34
   5  -2 -11 3779.45   92.81
  -3   5 -11 3732.47   91.20
   3  -5  11 3701.64   92.03
  -5   2  11 3797.48   93.82
  -3   5 -11 3857.08   92.05
   2   3  11 3830.37   91.69
  -5   2  11 3753.88   89.82
  -5   2   8 2602.26   65.00
   5  -2  -8 2581.35   64.36
   3  -5   5  316.63    9.85
  -3   5  -5  353.14    9.62
  -5   2   5  355.29   10.83
   5  -2  -5  347.80   10.42
  -5   2   2 1014.62   26.77
  -3   5  -2 1067.05   25.97
   5  -2  -2 1039.54   26.54
   3  -5   2 1049.49   26.25
   3  -5  -1   61.16    2.33
  -3   5   1   52.70    2.05
   5  -2   1   60.87    2.44
   3  -5  -4  125.66    3.64
  -2  -3   4  112.62    3.97
  -3   5   4  126.47    3.50
   3  -5  -7  387.36    9.63
  -3   5   7  386.56   11.57
   5  -2   7  384.56    9.85
   2   3  -7  397.09   10.50
  -2  -3   7  398.19   10.75
   5  -2  10   60.70    2.41
  -2  -3  10   52.57    2.49
  -5   2 -10   59.21    3.66
   2   3 -10   57.81    2.43
   2   3 -10   58.12    4.13
   3  -5 -13  386.69    9.90
   2   3 -13  375.06   13.39
  -2  -3  13  414.80   11.62
   2   3 -13  413.78   11.07
  -5   2 -13  397.54   12.49
   5  -2  13  402.18   11.47
  -2  -3  16    1.18    1.19
   5  -2  16    2.13    1.44
   3  -5 -16    2.74    0.58
  -3   5  16    3.99    1.79
   2   3 -16    0.86    2.15
  -5   2 -16    4.60    1.75
   3  -5 -16    3.45    1.92
  -5   2 -16    3.77    1.17
   2   3 -16    3.88    1.12
   5  -2  19  879.78   24.37
  -5   2 -19  846.19   22.78
   2   3 -19  883.10   22.46
   3  -5 -19  849.45   21.19
  -3   5  19  849.27   25.94
  -2  -3  19  882.35   23.67
  -2  -3  22  138.15    6.34
  -3   5  22  135.35    8.09
  -5   2 -22  137.10    5.77
   5  -2  22  130.74    7.32
   5  -2  25   14.95    3.27
  -3   5  25   21.63    3.93
  -2  -3  25   17.82    2.84
  -3   5  28   32.32    5.30
   5  -2  28   39.69    4.95
  -2  -3  28   41.19    4.29
  -3   5  31   30.63    5.86
  -2  -3  31   35.26    4.42
  -3   5  34   -2.42    4.41
   1   4  36   -5.75    5.83
  -5   1  33   16.33    5.65
   1   4  33    9.70    4.62
   4  -5  30    8.66    4.65
  -5   1  30    9.28    4.87
   1   4  30    6.15    3.98
  -5   1  27   42.54    7.56
   4  -5  27   27.52    4.80
   1   4  27   28.01    4.54
  -5   1  24    3.69    3.50
   1   4  24    4.06    2.46
   4  -5  24    3.74    2.69
  -5   1  24    2.31    1.55
  -5   1  21   14.98    3.77
   1   4  21   20.71    3.35
  -4   5 -21   20.32    2.91
   4  -5  21   20.64    3.43
  -5   1  21   19.56    2.13
  -1  -4 -21   18.01    2.48
  -1  -4 -18   31.72    3.06
  -5   1  18   37.15    2.33
   1   4  18   33.09    3.53
   4  -5  18   43.38    3.91
  -4   5 -18   41.48    3.39
   1   4  15   83.14    4.77
  -4   5 -15   79.32    4.21
  -5   1  15   88.90    3.39
   4  -5  15   79.55    4.89
  -4   5 -15   85.55    4.15
   5  -1 -12  456.45   14.75
  -4   5 -12  460.00   13.30
  -5   1  12  459.88   12.01
  -4   5 -12  462.20   13.21
   4  -5  12  446.49   14.07
  -5   1  12  398.68   14.98
   1   4  12  482.66   13.88
  -5   1   9 1554.23   37.90
  -5   1   9 1562.89   41.27
  -4   5  -9 1542.07   39.06
   5  -1  -9 1643.66   40.85
   5  -1  -6  191.04    7.34
  -4   5  -6  187.58    6.22
  -5   1   6  194.37    7.47
   4  -5   6  184.92    6.57
   5  -1  -3  356.92   10.91
  -4   5  -3  362.05   10.00
   4  -5   3  358.80   10.36
  -1  -4   0    3.51    0.65
  -4   5   0    8.20    0.96
   4  -5   0    3.27    0.83
  -4   5   3    8.21    0.68
  -4   5   3    7.76    1.04
   4  -5  -3    8.66    0.87
   4  -5  -6  103.91    3.07
  -4   5   6  106.83    4.47
  -4   5   6  104.01    2.82
   1   4  -6  104.95    3.69
  -1  -4   6   99.01    3.84
  -1  -4   9    1.54    0.89
   1   4  -9    1.37    0.96
   4  -5  -9    2.50    1.45
   5  -1   9    1.25    0.76
  -4   5   9    0.66    1.39
  -5   1  -9    1.30    2.04
   5  -1  12  335.18    9.86
  -1  -4  12  336.07   10.18
   4  -5 -12  337.19   10.98
   1   4 -12  334.15   12.06
  -5   1 -12  332.95   11.47
   1   4 -12  339.13    9.71
  -5   1 -15  240.51    9.15
   5  -1  15  243.22    8.29
   1   4 -15  240.42    9.99
  -1  -4  15  254.62    8.51
   1   4 -15  256.09    7.82
   1   4 -18  377.16   10.91
  -4   5  18  334.10   13.50
  -1  -4  18  378.97   11.98
   5  -1  18  376.18   12.16
   5  -1  21  213.05    8.80
   4  -5 -21  209.32    5.56
  -4   5  21  223.01   10.51
  -1  -4  21  216.34    8.48
  -4   5  24    5.66    2.90
   5  -1  24    3.27    2.48
  -1  -4  24    0.19    2.11
  -4   5  27   11.88    3.89
   5  -1  27    5.90    3.35
  -1  -4  27    6.21    2.62
   5  -1  30    6.40    4.00
  -1  -4  30    6.22    3.26
  -4   5  30   11.33    4.35
  -4   5  33    1.46    4.55
  -4   5  36   11.68    6.02
   0   5  37   -3.59    5.68
   0   5  34   -1.82    4.25
   0   5  31   25.45    5.36
  -5   0  28  101.90    8.87
   0   5  28  103.42    7.93
   5  -5  28  101.85    8.60
  -5   0  25   -0.27    1.66
   0   5  25    2.38    2.66
  -5   0  25    6.73    4.15
   5  -5  25   -0.33    2.93
  -5   0  22    7.73    3.45
   5  -5  22    6.05    2.87
  -5   0  22    4.67    1.64
   0   5  22    8.17    2.59
  -5   5 -22    6.61    2.11
   0  -5 -22    3.65    1.71
  -5   5 -19   16.10    2.30
  -5   0  19   16.77    1.90
   0   5  19   17.26    3.05
  -5   0  19   11.74    3.35
   5  -5  19   14.98    3.16
   0  -5 -19   19.29    2.37
  -5   5 -16   36.62    2.70
   5  -5  16   45.90    4.05
  -5   0  16   42.42    2.49
   0   5  16   34.23    3.30
  -5   5 -13  132.64    5.44
  -5   0  13  130.88    4.52
   5   0 -13  122.95    6.69
  -5   5 -13  125.14    4.87
   0   5  13  123.45    5.74
   5  -5  13  129.86    6.36
   5   0 -10   16.81    4.61
  -5   5 -10    4.61    2.80
  -5   0  10   18.54    1.33
   5  -5   7  325.16   10.58
   5   0  -7  329.36   11.13
  -5   5  -7  322.22    9.84
  -5   5  -4   11.46    1.52
   5   0  -4    8.73    1.92
   5  -5   4    9.79    1.49
  -5   5  -1 3399.57   81.72
  -5   5  -1 3432.01   82.20
   5  -5   1 3412.36   82.80
   0  -5  -1 3425.65   81.85
   0   5  -2 2165.70   52.81
  -5   5   2 2170.88   53.34
   5  -5  -2 2255.60   53.43
  -5   5   2 2164.81   52.74
   0  -5   2 2187.46   53.10
  -5   5   5    2.60    1.03
  -5   5   5    0.34    0.44
   5  -5  -5    0.08    1.11
   0  -5   8  459.84   13.16
   5  -5  -8  472.94   13.65
   0   5  -8  459.92   12.70
  -5   5   8  490.34   14.26
   5   0  11  575.79   15.55
   0  -5  11  587.34   16.16
  -5   5  11  572.43   17.48
   5  -5 -11  583.80   16.83
   0   5 -11  569.44   15.47
   0   5 -14  545.67   17.82
  -5   5  14  525.63   17.57
   5  -5 -14  528.36   16.74
   0  -5  14  576.19   16.20
   5   0  14  554.20   15.80
  -5   0 -14  576.82   17.71
   0   5 -14  579.52   15.32
   0   5 -17   55.86    3.10
   0   5 -17   60.84    4.92
   5   0  17   61.23    3.83
   0  -5  17   57.49    3.70
  -5   0 -17   59.58    4.43
   5   0  20   89.25    5.18
   0  -5  20   92.87    5.20
  -5   5  23    6.15    3.01
   5   0  23    6.99    2.40
   0  -5  23    4.68    2.12
   5   0  26    4.99    2.84
  -5   5  26    7.80    3.53
   0  -5  26    4.11    2.46
   0  -5  29   67.25    5.83
  -5   5  29   65.25    7.13
   5   0  29   68.26    6.38
   0  -5  32   20.98    4.46
  -5   5  32   14.08    5.16
  -5   5  35   -0.52    4.94
   1  -6  34   -0.74    3.75
  -6   5  34    0.52    4.90
  -6   5  31   69.92    8.20
   1  -6  31   91.95    7.26
   5   1  31   83.79    7.36
  -6   5  28  147.91   10.66
   1  -6  28  183.12    9.36
   5   1  28  168.25    9.22
  -6   5  25   -2.25    4.38
   1  -6  25    5.15    2.55
   5   1  25    5.62    2.81
   5   1  22   32.74    3.60
   1  -6  22   25.13    3.23
   5   1  19   60.34    4.25
   1  -6  19   58.79    4.17
  -5  -1 -16   10.52    3.08
   1  -6  16   12.40    1.97
  -1   6 -16   15.80    3.18
   5   1  16   10.13    1.87
  -6   5  16   12.72    2.62
   5   1  13  431.04   12.58
  -1   6 -13  418.94   12.12
  -6   5  13  418.74   14.57
   6  -5 -13  406.71   13.54
  -1   6 -13  433.55   15.01
   1  -6  13  439.23   13.17
  -6   5  10  954.43   26.24
   1  -6  10  916.30   24.73
   6  -5 -10  935.43   25.35
  -1   6 -10  934.85   24.02
   6  -5  -7  949.29   25.41
  -6   5   7  966.92   23.63
  -6   5   7  972.61   26.12
   1  -6   4  213.40    6.92
  -6   5   4  221.62    7.54
  -6   5   4  228.80    6.64
  -1   6  -4  230.31    6.82
   6  -5  -4  235.00    7.25
   1  -6   1 9695.43  233.57
  -6   5   1 9999.00  233.70
  -6   5   1 9888.24  233.71
  -1   6  -1 9784.33  233.22
   6  -5   2 5673.43  138.54
  -6   5  -2 5708.08  136.18
  -6   5  -2 5733.73  137.22
   1  -6  -2 5771.57  136.49
   6  -5   5  105.87    5.24
   1  -6  -5  100.58    3.46
  -6   5  -5  108.14    4.48
   5   1  -8 1258.83   32.33
  -6   5  -8 1213.58   30.34
   6  -5   8 1184.26   31.87
  -6   5  -8 1137.19   28.16
  -5  -1   8 1187.62   29.11
  -6   5 -11  605.28   15.54
   5   1 -11  628.19   19.22
  -1   6  11  626.52   17.83
  -5  -1  11  607.72   16.12
  -1   6  14  142.73    6.65
  -6   5 -14  138.35    6.01
  -5  -1  14  144.73    5.19
  -6   5 -14  150.02    5.02
   6  -5  14  138.85    7.43
  -5  -1  17   91.75    4.13
   6  -5  17   84.62    5.96
  -1   6  17   87.23    5.48
   1  -6 -17   77.18    4.20
  -6   5 -17   79.06    3.74
  -5  -1  20   10.12    1.81
   6  -5  20   10.19    3.34
  -1   6  20   10.81    2.93
   1  -6 -20   12.58    1.85
  -6   5 -20   12.63    1.97
  -1   6  23   46.62    4.80
   6  -5  23   39.22    5.26
  -5  -1  23   46.64    3.33
  -1   6  26    4.54    3.31
  -5  -1  26    8.66    2.28
  -1   6  29  186.39   11.11
  -1   6  32   21.51    5.26
  -1   6  35    2.43    4.52
  -6   4  35    4.37    5.46
   2  -6  35    0.42    4.21
  -6   4  32    5.85    4.88
   4   2  32    8.08    4.20
   2  -6  32    3.95    3.66
   4   2  29   98.66    7.52
   2  -6  29  112.35    7.77
  -6   4  29   97.51    8.68
   4   2  26   13.07    3.34
  -6   4  26    8.76    4.25
   2  -6  26   13.91    3.12
  -6   4  23   16.04    4.33
   4   2  23   35.23    3.97
   2  -6  23   25.84    3.32
  -6   4  20    8.23    1.26
   2  -6  20   11.23    2.44
   4   2  20   11.61    2.54
  -6   4  17   27.39    3.77
  -4  -2 -17   23.61    3.57
  -2   6 -17   25.59    3.41
   4   2  17   24.09    2.77
   2  -6  17   23.14    2.56
  -6   4  17   24.61    1.33
  -2   6 -14   63.09    4.59
  -6   4  14   58.08    4.59
   2  -6  14   63.57    3.81
   4   2  14   63.11    3.61
   6  -4 -14   59.30    4.25
  -2   6 -14   55.14    3.05
  -6   4  14   58.72    1.94
   6  -4 -11  273.42    9.92
  -2   6 -11  254.00    8.34
  -6   4  11  277.97   10.53
   2  -6  11  284.66    9.38
  -6   4  11  287.99    7.11
  -6   4   8  223.62    8.44
   6  -4  -8  222.64    7.98
   6  -4  -5  309.92    9.35
  -6   4   5  284.01    9.53
   2  -6   5  312.08    9.07
  -2   6  -5  285.61    8.47
   6  -4  -2 1733.31   43.01
  -6   4   2 1722.14   43.36
   2  -6   2 1847.35   43.22
  -6   4   2 1749.77   43.46
  -2   6  -2 1717.02   42.62
   2  -6  -1 4579.05  110.93
  -2   6   1 4661.55  110.66
   6  -4   1 4699.73  110.46
  -6   4  -1 4660.96  110.85
  -6   4  -1 4555.43  111.96
  -6   4  -4    1.71    1.38
   2  -6  -4    0.41    0.57
  -6   4  -7  512.69   15.07
  -4  -2   7  529.97   13.93
   2  -6  -7  528.10   13.28
  -4  -2  10  305.90    8.92
  -6   4 -13  296.60   10.00
   6  -4  13  284.03   11.80
  -6   4 -13  295.64    8.19
  -2   6  13  304.09   10.67
  -4  -2  13  308.73    9.05
   2  -6 -16    4.51    1.25
   6  -4  16    5.86    2.35
  -2   6  16    5.96    2.04
  -6   4 -16    4.37    1.10
  -4  -2  16    7.68    1.44
   4   2 -16    1.32    1.07
  -6   4 -19   45.58    2.78
  -2   6  19   40.00    4.41
  -4  -2  19   46.33    3.27
   2  -6 -19   46.38    2.51
   6  -4  19   47.23    3.60
   4   2 -19   43.88    2.55
  -6   4 -22    6.55    1.72
   6  -4  22    9.44    2.84
  -4  -2  22    8.37    2.06
   4   2 -22    6.53    1.40
  -2   6  22    7.08    2.79
  -2   6  25   13.99    3.62
  -4  -2  25   17.23    2.61
  -4  -2  28   98.49    5.83
  -2   6  28   92.80    7.81
  -2   6  31   34.83    5.99
  -2   6  34   -1.42    3.96
   3  -6  33   14.75    5.10
   3   3  33   10.87    4.79
  -6   3  33   21.68    5.80
  -6   3  30   -0.46    4.44
   3  -6  30   -1.75    3.60
   3   3  30    1.03    3.38
   3  -6  27   11.86    3.52
   3   3  27   14.18    3.78
  -6   3  24    8.04    3.50
   3  -6  24    7.27    2.68
   3   3  24    6.89    2.80
   3  -6  21   42.53    3.94
  -3   6 -21   31.06    3.78
   3   3  21   34.64    4.00
  -6   3  21   32.59    2.18
  -3  -3 -21   25.43    3.42
   3  -6  18   57.08    4.18
  -6   3  18   60.87    2.61
  -3  -3 -18   64.57    4.73
  -3   6 -18   59.26    4.48
   3   3  18   63.01    4.44
   3  -6  15   13.35    2.12
  -6   3  15   13.81    1.05
  -3   6 -15   11.50    2.29
  -3   6 -15   13.16    1.69
   3   3  15   12.67    2.01
  -6   3  15   15.51    2.91
  -6   3  12    7.76    2.50
   6  -3 -12   10.74    2.26
  -3   6 -12   22.99    3.23
   3  -6  12   11.64    1.87
   3   3  12    8.81    1.63
  -3   6 -12   13.23    1.70
   6  -3  -9  334.62   11.22
  -6   3   9  354.50   12.13
  -3   6  -6  422.29   11.78
  -6   3   6  430.76   13.25
   3  -6   6  425.07   12.29
   6  -3  -6  421.43   12.64
  -3   6  -3  474.86   13.21
   3  -6   3  545.55   13.92
   6  -3  -3  508.80   14.02
  -6   3   3  513.18   14.38
  -3   6   0  180.28    5.41
   3  -6   0  189.72    5.75
   6  -3   0  186.40    5.71
  -6   3   0  183.53    5.95
  -6   3  -3   33.00    2.90
   6  -3   3   35.67    1.44
  -3   6   3   35.70    1.61
   3  -6  -3   40.53    1.91
  -3  -3   6   20.94    1.51
   3  -6  -6   21.15    1.11
  -6   3  -6   18.68    2.42
  -3   6   6   21.73    1.94
   6  -3   9  487.24   12.38
  -3   6   9  420.60   14.13
   3  -6  -9  497.72   12.12
  -3  -3   9  502.94   13.43
   3   3 -12    9.25    1.28
   6  -3  12    6.14    1.56
   3   3 -12    3.15    2.70
   3  -6 -12    6.90    0.57
  -3  -3  12    6.57    1.26
  -6   3 -12    7.18    2.06
   6  -3  15  126.49    5.01
   3   3 -15  101.47    6.40
  -3  -3  15  124.89    5.08
  -6   3 -15  113.35    5.55
   3  -6 -15  116.48    3.71
   3   3 -15  120.60    4.39
  -3   6  15  107.45    6.15
  -3   6  18   12.57    2.80
  -3  -3  18    4.99    1.78
   6  -3  18    9.85    2.08
   3   3 -18   10.80    1.54
   3  -6 -18    8.41    0.96
  -3  -3  21    4.50    2.01
  -6   3 -21    4.76    1.57
  -3   6  21    3.49    2.42
  -3   6  24   56.15    5.57
   6  -3  24   60.11    4.95
  -3  -3  24   65.30    4.43
  -3   6  27    1.80    3.18
   6  -3  27    5.72    3.39
  -3  -3  27    1.00    2.24
  -3  -3  30    5.34    2.91
  -3   6  30    3.21    3.94
  -3   6  33    2.78    4.33
   2   4  37   -4.47    5.87
   2   4  34    5.68    4.71
   4  -6  34    8.47    5.15
  -6   2  34   14.65    6.09
  -6   2  31   23.76    6.36
   4  -6  31   12.40    4.81
   2   4  31   21.04    4.99
   2   4  28    0.66    3.05
  -6   2  28    1.33    4.17
   4  -6  28    0.69    3.29
   4  -6  25    3.19    2.64
   2   4  25    1.69    2.43
  -2  -4 -22   33.89    3.48
   2   4  22   41.36    4.30
  -6   2  22   35.36    5.01
   4  -6  22   38.48    4.22
  -4   6 -22   41.33    4.09
  -6   2  22   27.22    2.48
   2   4  19  220.65    9.33
  -6   2  19  203.39    6.65
   4  -6  19  202.87    9.02
  -4   6 -19  208.04    8.44
  -2  -4 -19  214.62    8.64
  -6   2  16    2.11    2.36
  -4   6 -16    3.46    1.76
   2   4  16    2.49    1.65
   4  -6  16    1.78    1.44
  -6   2  16    2.81    0.82
   4  -6  13    2.88    1.44
  -6   2  13    5.07    0.80
  -4   6 -13    5.62    2.00
   6  -2 -13    3.42    1.98
   2   4  13    4.76    1.45
  -4   6 -13    2.67    1.22
  -6   2  10  419.93   11.09
   6  -2 -10  438.46   13.85
  -6   2  10  467.30   14.89
  -6   2   7   77.80    4.68
   6  -2  -7   88.61    4.59
   4  -6   7   82.43    4.06
  -4   6  -7   87.86    3.72
  -4   6  -4 1583.96   39.05
  -6   2   4 1556.01   40.50
   6  -2  -4 1599.93   40.12
   4  -6   4 1586.78   39.57
   6  -2  -1  406.31   11.67
  -4   6  -1  408.10   10.95
   4  -6   1  408.52   11.34
   4  -6  -2   57.38    2.38
   6  -2   2   58.18    2.61
  -4   6   2   48.32    2.00
  -2  -4   5   14.36    1.32
   4  -6  -5   15.84    1.08
  -4   6   5   13.61    0.83
  -4   6   5   14.58    1.62
   6  -2   8 1710.43   41.20
  -4   6   8 1685.10   43.49
   4  -6  -8 1680.37   40.90
   2   4  -8 1761.78   42.00
  -2  -4   8 1775.89   42.45
  -4   6  11  969.15   26.70
   6  -2  11  963.45   24.21
   2   4 -11 1026.90   24.62
   2   4 -11  926.56   27.35
  -6   2 -11  982.43   26.85
  -2  -4  11  899.68   24.78
   6  -2  14   35.29    2.41
   2   4 -14   32.37    2.22
  -6   2 -14   44.76    3.63
   2   4 -14   33.92    3.89
  -2  -4  14   36.49    2.64
  -2  -4  17    3.39    1.54
   2   4 -17    3.67    1.29
   6  -2  17    5.22    1.56
  -4   6  20    2.65    2.69
  -2  -4  20    1.63    1.71
   6  -2  20    3.77    2.09
  -4   6  23   65.79    5.98
   6  -2  23   63.74    5.15
  -2  -4  23   75.92    4.82
  -2  -4  26    3.53    2.26
   6  -2  26    5.93    3.04
  -4   6  26    2.45    3.09
  -4   6  29    6.03    3.84
  -2  -4  29    0.71    2.69
  -4   6  32    3.66    4.22
  -2  -4  32    4.02    3.06
  -4   6  35   -5.21    5.90
   1   5  35   -0.94    4.65
   1   5  32    1.63    4.31
   5  -6  32    6.53    5.07
   1   5  29    9.35    4.02
  -6   1  29    3.77    4.54
   5  -6  29    5.93    4.41
   5  -6  26    1.70    2.90
   1   5  26   -1.23    2.99
  -6   1  26    8.89    5.02
  -6   1  23    7.58    3.88
   1   5  23    2.66    2.17
  -6   1  23    1.97    1.43
   5  -6  23    2.06    2.76
  -5   6 -23   -1.20    2.50
   1   5  20  226.09    9.97
  -5   6 -20  220.03    8.59
  -6   1  20  224.60    7.32
   5  -6  20  221.93   10.14
  -1  -5 -20  197.31    8.23
   1   5  17   66.33    4.56
  -6   1  17   60.36    2.97
   5  -6  17   64.71    4.71
  -5   6 -17   59.27    3.79
   1   5  14  131.00    6.00
  -5   6 -14  130.89    5.49
   6  -1 -14  126.74    6.75
   5  -6  14  126.91    6.42
  -5   6 -14  128.23    5.38
  -6   1  14  122.94    7.36
  -6   1  14  129.56    4.46
  -6   1  11   10.86    2.58
   6  -1 -11   14.43    2.71
  -6   1  11   12.00    1.11
  -5   6 -11   16.32    2.03
   6  -1  -8   69.34    5.08
  -5   6  -8   69.31    3.54
   5  -6   8   72.47    3.95
   6  -1  -5  456.95   13.67
  -5   6  -5  443.77   12.38
   5  -6   5  423.15   12.90
   5  -6   2   15.96    1.75
  -5   6  -2   17.95    1.61
   6  -1  -2   18.22    2.15
  -5   6   1  390.90   10.26
   5  -6  -1  365.79   10.54
  -5   6   1  375.97   10.58
  -1  -5   1  377.57   10.43
  -5   6   4   17.12    1.61
  -5   6   4   17.42    1.03
   5  -6  -4   15.55    1.27
  -5   6   7   56.88    3.45
   1   5  -7   55.99    2.67
   5  -6  -7   55.04    2.17
  -1  -5   7   59.95    2.93
  -5   6   7   53.42    1.71
  -1  -5  10  610.27   16.98
  -5   6  10  624.64   18.43
   1   5 -10  616.10   16.52
   6  -1  10  624.54   16.18
   5  -6 -10  633.03   17.70
  -6   1 -13   50.01    4.35
   6  -1  13   45.44    2.70
  -1  -5  13   45.21    3.03
  -5   6  13   43.49    3.75
   5  -6 -13   45.78    3.40
   1   5 -13   43.94    4.33
   1   5 -13   40.08    2.56
   1   5 -16    1.67    1.14
  -1  -5  16    0.53    1.22
   6  -1  16   -0.56    1.21
  -1  -5  19   17.88    2.44
   6  -1  19   20.47    2.57
   6  -1  22   30.94    3.25
  -5   6  22   27.99    4.27
  -1  -5  22   27.60    3.20
   6  -1  25    8.71    3.08
  -5   6  25    5.12    3.37
  -1  -5  25    5.32    2.46
  -5   6  28   18.87    4.33
   6  -1  28   19.14    3.98
  -1  -5  28   26.96    3.97
  -5   6  31    0.45    4.83
  -1  -5  31    9.62    3.66
  -5   6  34    0.52    5.35
   0   6  36    0.50    4.96
   0   6  33    3.06    4.17
   0   6  30   61.80    6.76
   6  -6  30   49.75    7.01
   0   6  27   22.47    4.49
   6  -6  27   25.76    5.24
   0   6  24   50.82    5.23
  -6   0  24   58.63    3.65
   6  -6  24   46.21    5.41
   6  -6  21    0.30    3.01
  -6   0  21    2.53    1.39
  -6   6 -21   -1.60    2.05
   0   6  21    5.88    2.65
   0  -6 -21    0.13    1.80
  -6   6 -18  137.46    5.74
  -6   0  18  150.59    5.59
   0   6  18  134.69    7.19
   6  -6  18  141.57    8.01
  -6   0  15    4.95    1.05
  -6   6 -15    5.89    1.40
   6  -6  15    5.77    2.04
   0   6  15    8.33    2.03
   6   0 -12  181.63    8.36
  -6   6 -12  171.38    5.85
   0   6  12  181.00    7.21
  -6   0  12  169.66    5.60
   6  -6   9  286.93   10.08
   6   0  -9  264.49   10.27
  -6   6  -9  264.67    7.79
  -6   6  -9  273.09    8.83
  -6   0   9  265.45    7.74
   6  -6   6  170.58    7.05
  -6   6  -6  161.77    6.21
   0  -6  -3  816.27   20.98
  -6   6  -3  842.53   21.66
   6  -6   3  832.75   22.49
  -6   6   0 5531.48  131.38
   6  -6   0 5476.51  132.36
  -6   6   0 5572.67  131.47
   0  -6   0 5414.28  131.40
  -6   6   3  625.21   17.81
   0   6  -3  647.54   17.17
   6  -6  -3  679.72   17.91
  -6   6   3  681.30   17.00
   0  -6   3  680.17   17.59
  -6   6   6  492.60   12.49
   6  -6  -6  497.21   14.02
  -6   6   6  499.96   14.66
   6  -6  -9  293.12    9.60
  -6   6   9  302.01   10.30
   0   6  -9  281.68    8.66
   0  -6   9  287.78    9.32
   0   6 -12  256.97    8.08
  -6   6  12  257.50    9.97
   0  -6  12  258.80    8.83
   6   0  12  248.13    8.08
   6  -6 -12  254.70    9.18
   0  -6  15    0.56    1.10
  -6   0 -15   -1.15    2.66
   0   6 -15   -0.73    2.68
  -6   6  15   -0.22    1.60
   6   0  15    1.15    1.15
  -6   6  18   77.25    5.95
   0  -6  18   78.75    4.63
   6   0  18   80.38    4.54
   6   0  21    1.94    2.02
   0  -6  21   -0.93    2.04
  -6   6  24   27.44    4.76
   6   0  24   27.40    3.60
   0  -6  24   32.86    3.76
  -6   6  27   33.69    5.44
   0  -6  27   38.77    4.39
   6   0  27   38.70    4.68
   0  -6  30   85.19    6.73
  -6   6  30   70.81    7.92
   0  -6  33    6.44    3.97
  -6   6  33    0.52    4.43
   1  -7  35    2.01    3.99
  -7   6  32   24.90    5.95
   1  -7  32   22.65    4.76
  -7   6  29  116.55    9.45
   1  -7  29  114.69    7.74
   1  -7  26    0.26    2.70
   6   1  26    1.79    2.84
   1  -7  23   89.72    6.04
   6   1  23   98.80    6.01
   1  -7  20   12.34    2.58
  -7   6  20    9.54    3.35
   6   1  20   16.76    2.73
  -7   6  17   99.23    6.59
   6   1  17  104.52    5.31
   1  -7  17   95.14    5.34
   1  -7  14    3.09    1.43
  -7   6  14   -0.23    1.68
   6   1  14    0.69    1.23
   1  -7  11  339.44   10.82
   7  -6 -11  330.61   11.13
  -7   6  11  323.24   11.91
  -1   7 -11  328.90    9.94
  -7   6   8  890.64   24.61
   7  -6  -8  860.85   23.65
  -7   6   8  883.06   21.64
   1  -7   5  328.69    9.92
  -1   7  -5  322.05    9.42
  -7   6   5  332.83    9.11
  -7   6   5  323.25   10.48
   7  -6  -5  326.96    9.93
  -1   7  -2 2775.19   67.93
   1  -7   2 2863.46   68.45
  -7   6   2 2807.63   68.68
  -7   6   2 2818.40   68.22
  -7   6  -1 5566.25  133.34
   7  -6   1 5371.20  134.84
  -7   6  -1 5627.54  132.76
   1  -7  -1 5569.69  132.88
  -7   6  -4   74.60    3.79
   1  -7  -4   76.85    3.10
  -7   6  -4   80.42    2.73
   7  -6   4   78.60    4.65
   6   1  -7  495.65   16.14
   7  -6   7  504.52   16.19
  -7   6  -7  514.16   14.79
   1  -7  -7  511.35   13.33
  -7   6 -10  342.33    9.01
   6   1 -10  354.70   12.91
   7  -6  10  355.39   12.82
  -6  -1  10  363.95   10.06
  -7   6 -10  364.32   11.30
  -6  -1  13   72.45    3.39
  -1   7  13   72.54    4.49
  -7   6 -13   78.66    2.92
   7  -6  16   92.56    6.32
  -6  -1  16   83.75    3.78
  -7   6 -16   79.88    3.43
  -1   7  16   78.03    5.12
  -7   6 -19   60.64    3.19
  -1   7  19   55.42    4.94
   7  -6  19   53.38    5.75
  -6  -1  19   63.35    3.61
   1  -7 -19   52.50    3.77
  -6  -1  22   73.81    4.17
  -1   7  22   68.16    5.77
   7  -6  22   69.33    6.66
  -6  -1  25   24.88    2.80
  -1   7  25   23.47    4.15
   7  -6  25   26.57    5.13
  -1   7  28   93.65    7.83
  -1   7  31   59.95    7.08
  -1   7  34    0.93    4.33
   2  -7  36   -0.89    4.35
  -7   5  33   -5.19    5.03
   2  -7  33    1.53    3.65
  -7   5  30   92.05    8.99
   5   2  30   89.64    7.45
   2  -7  30  111.29    7.92
   5   2  27   44.52    5.19
   2  -7  27   37.73    4.70
  -7   5  27   38.65    5.96
   2  -7  24   92.21    6.34
   5   2  24   90.53    6.20
  -7   5  21    1.99    3.24
   5   2  21   18.61    3.08
   2  -7  21   11.57    2.67
  -7   5  18   99.18    6.82
  -2   7 -18   96.79    6.36
   5   2  18   99.70    5.51
   2  -7  18  104.89    5.67
  -7   5  15    6.35    2.29
   2  -7  15    5.65    1.62
  -2   7 -15    6.01    2.98
   5   2  15    8.64    1.77
  -2   7 -12   92.91    4.06
  -7   5  12   83.36    5.44
   2  -7  12   87.09    4.61
   7  -5 -12   92.33    5.08
  -7   5  12   91.37    2.54
  -7   5  12   92.96    2.97
  -7   5   9  255.56    9.44
   7  -5  -9  242.51    8.81
  -7   5   9  248.73    7.16
  -7   5   6  533.10   15.73
   7  -5  -6  534.96   15.19
   2  -7   6  555.27   15.07
  -2   7  -6  514.04   14.28
  -7   5   6  529.86   14.33
   2  -7   3  830.69   21.16
  -7   5   3  780.19   21.33
  -7   5   3  799.65   21.00
   7  -5  -3  806.84   20.91
  -2   7  -3  785.88   20.44
   7  -5   0 6091.75  143.68
   2  -7   0 5889.38  144.08
  -7   5   0 6079.27  144.86
  -2   7   0 6010.10  143.74
  -7   5   0 6126.50  144.19
  -7   5  -3  360.69   11.16
  -7   5  -3  368.86    9.61
   2  -7  -3  364.93   10.06
  -7   5  -6  758.17   20.50
   2  -7  -6  740.20   18.81
  -7   5  -9  523.43   15.69
  -5  -2   9  548.36   14.55
   5   2  -9  517.17   17.07
   2  -7  -9  541.92   13.73
   5   2 -12  137.22    7.22
  -5  -2  12  141.42    5.15
   7  -5  15    7.83    2.69
  -5  -2  15    7.85    1.26
  -2   7  15    4.05    1.63
  -7   5 -15    7.20    0.94
   2  -7 -18  101.74    4.46
  -2   7  18  111.72    6.53
  -7   5 -18   99.62    3.98
  -5  -2  18  118.13    5.11
  -5  -2  21    3.39    1.70
  -2   7  21    4.90    2.57
  -2   7  24   73.63    6.13
  -5  -2  24   83.68    4.86
  -2   7  27   50.21    5.77
  -5  -2  27   56.11    4.34
  -2   7  30   99.13    8.51
  -2   7  33    1.80    4.21
  -7   4  34    7.68    5.72
   3  -7  34    6.03    4.42
  -7   4  31    4.94    4.97
   3  -7  31    4.40    4.16
   4   3  31    2.88    3.58
  -7   4  28   23.77    5.06
   3  -7  28   16.49    3.96
   4   3  28   24.00    4.45
   4   3  25    7.23    2.92
   3  -7  25    6.89    2.86
   3  -7  22    8.62    2.55
   4   3  22    7.42    2.71
  -7   4  19  276.52    7.81
   3  -7  19  294.94   11.12
  -7   4  19  280.91   12.87
  -3   7 -19  295.45   11.56
   4   3  19  305.36   11.18
   3  -7  16   34.75    3.16
  -3   7 -16   29.55    3.53
  -7   4  16   31.09    4.07
  -7   4  16   31.64    1.47
   4   3  16   31.40    2.90
   4   3  13   66.20    3.76
   7  -4 -13   67.30    4.48
  -3   7 -13   62.66    3.36
  -7   4  13   62.12    4.98
   3  -7  13   62.84    3.98
  -7   4  10   15.43    2.58
   7  -4 -10   15.81    2.34
  -7   4   7  111.92    5.60
   3  -7   7  106.79    4.57
  -3   7  -7   89.84    3.71
   7  -4  -7  114.02    5.01
  -3   7  -4  228.79    7.08
   7  -4  -4  239.23    7.74
  -7   4   4  225.23    8.19
   3  -7   4  242.97    7.67
  -7   4   1  617.65   17.08
   3  -7   1  652.85   16.90
   7  -4  -1  637.79   16.73
  -3   7  -1  632.81   16.38
   7  -4   2   45.78    1.92
  -7   4  -2   42.67    3.37
  -3   7   2   45.06    2.05
   3  -7  -2   47.09    2.30
   3  -7  -5  591.02   15.20
  -4  -3   5  600.64   15.83
  -7   4  -5  608.41   17.35
  -3   7   8   95.24    4.45
  -7   4  -8   84.57    4.64
  -4  -3   8   77.96    3.50
   3  -7  -8   84.29    2.85
   3  -7 -11  266.77    7.03
  -4  -3  11  260.35    8.25
   3  -7 -14    2.37    0.50
   7  -4  17   -0.11    1.39
   3  -7 -17    1.56    0.90
  -3   7  17    1.80    1.87
  -4  -3  17    1.95    1.28
   4   3 -17   -1.60    1.36
  -4  -3  20   19.42    2.45
  -3   7  20   20.10    3.64
   7  -4  20   32.78    4.11
   7  -4  23  136.23    7.09
  -3   7  23  141.05    8.41
  -4  -3  23  131.73    6.41
  -3   7  26    2.43    3.07
  -4  -3  26    1.50    2.12
  -3   7  29   74.00    7.38
  -4  -3  29   72.59    5.37
  -3   7  32    1.30    3.80
  -3   7  35   -4.03    5.34
   3   4  35   -0.46    4.73
   4  -7  35   -1.92    4.73
   3   4  32   41.19    6.18
  -7   3  32   40.34    7.12
   4  -7  32   42.04    6.48
  -7   3  29   24.54    5.77
   3   4  29   23.86    4.75
   4  -7  29   18.45    4.51
   4  -7  26   -0.91    2.88
   3   4  26    4.72    2.97
   3   4  23   50.54    4.77
   4  -7  23   42.53    4.55
  -7   3  20  822.11   21.31
  -7   3  20  753.91   26.83
   4  -7  20  845.81   25.19
  -4   7 -20  826.90   24.37
   3   4  20  893.17   25.30
  -3  -4 -20  882.24   24.98
  -7   3  17  316.65   13.44
   4  -7  17  325.83   11.79
   3   4  17  312.17   11.43
  -4   7 -17  328.23   11.65
  -7   3  17  323.13    8.91
  -7   3  14  127.93    7.41
   3   4  14  142.49    6.14
  -7   3  14  145.05    4.40
   4  -7  14  129.79    6.48
  -4   7 -14  137.75    6.52
   7  -3 -11    7.34    1.98
  -7   3  11    8.29    0.80
  -7   3  11   17.79    3.16
   7  -3  -8   -0.56    1.49
  -7   3   8    2.74    2.15
   4  -7   8    0.84    1.10
  -4   7  -8    0.43    1.00
   7  -3  -5  339.92   10.97
  -4   7  -5  366.72   10.36
  -7   3   5  343.00   11.46
   4  -7   5  354.60   10.78
   7  -3  -2  329.73    9.92
  -4   7  -2  324.09    9.27
   4  -7   2  346.94    9.93
  -4   7   1  144.55    4.53
   4  -7  -1  140.34    4.86
   7  -3   1  144.73    4.83
   7  -3   4  448.78   11.60
   4  -7  -4  480.68   12.03
  -3  -4   4  403.20   12.29
  -4   7   4  468.03   11.68
  -4   7   7 1130.70   30.95
   4  -7  -7 1217.87   29.08
  -7   3  -7 1160.42   32.06
  -3  -4   7 1195.87   30.16
   4  -7 -10 4062.30   94.27
  -4   7  10 4026.27   97.58
   7  -3  10 3826.82   94.39
  -3  -4  10 4032.86   95.98
   3   4 -13  464.32   16.10
  -7   3 -13  469.31   14.92
  -3  -4  13  432.19   13.19
   4  -7 -13  461.93   11.38
   7  -3  13  482.41   12.68
   3   4 -13  496.96   13.02
   7  -3  16   77.63    3.93
  -3  -4  16   85.89    4.30
   3   4 -16   83.91    3.67
   7  -3  19  131.43    5.96
  -3  -4  19  130.28    5.97
  -4   7  19  113.85    7.10
  -4   7  22  207.20   10.51
  -3  -4  22  228.44    8.93
   7  -3  22  228.76    9.25
  -4   7  25    5.83    3.31
   7  -3  25    9.35    3.27
  -4   7  28   46.95    5.89
  -3  -4  28   48.32    4.65
  -3  -4  31   -0.25    2.82
  -4   7  31   -0.44    4.11
  -4   7  34   -3.47    4.74
   2   5  36    3.41    4.91
   5  -7  36    3.82    5.22
   5  -7  33   15.63    5.78
  -7   2  33   15.39    5.77
   2   5  33   15.27    5.00
   2   5  30   40.12    5.67
  -7   2  30   30.99    7.06
   5  -7  30   37.94    6.11
  -7   2  27   25.86    5.98
   2   5  27   19.00    4.08
   5  -7  27   18.87    4.17
   5  -7  24    0.30    2.60
   2   5  24    2.23    2.71
  -2  -5 -21  594.53   18.62
   5  -7  21  600.94   20.19
  -7   2  21  592.80   16.29
  -5   7 -21  627.68   18.81
   2   5  21  615.79   19.99
  -7   2  18  736.00   25.08
  -5   7 -18  736.24   21.85
   5  -7  18  768.91   23.40
   2   5  18  743.51   22.82
  -7   2  18  796.73   19.96
  -7   2  15   24.76    1.72
  -7   2  15   25.29    3.78
  -5   7 -15   24.10    2.72
   5  -7  15   31.78    3.19
   2   5  15   29.68    2.94
  -5   7 -12  250.37    8.89
  -7   2  12  259.05   10.88
   7  -2 -12  281.14   10.34
  -7   2  12  251.45    7.30
   7  -2  -9   11.82    2.32
  -5   7  -9   13.07    1.69
   5  -7   9    9.20    1.74
  -7   2   9   13.96    2.57
   5  -7   6  205.89    7.43
   7  -2  -6  215.67    8.07
  -5   7  -6  198.49    6.77
  -5   7  -3  403.81   11.28
   7  -2  -3  405.65   12.38
   5  -7   3  401.27   11.89
  -5   7   0  344.56    9.55
   7  -2   0  342.61   10.37
  -2  -5   0  343.63    9.77
   5  -7   0  343.90   10.01
  -5   7   3  605.13   15.99
  -5   7   3  676.65   17.38
   5  -7  -3  668.32   16.65
  -5   7   6   92.31    4.25
  -2  -5   6   71.99    3.48
  -5   7   6   79.08    2.58
   5  -7  -6   79.19    2.91
   5  -7  -9 4225.33  100.61
   7  -2   9 4222.53  100.98
  -2  -5   9 4301.10  102.39
  -5   7   9 4180.49  103.74
   2   5  -9 4272.28  101.84
   7  -2  12 1387.98   34.46
  -5   7  12 1388.60   37.47
   2   5 -12 1386.91   34.85
  -7   2 -12 1414.06   37.94
  -2  -5  12 1388.57   35.53
   7  -2  15   40.22    2.57
  -2  -5  15   38.79    2.95
  -5   7  15   32.50    3.55
   2   5 -15   38.94    2.45
  -2  -5  18  156.24    6.66
   7  -2  18  147.28    6.06
   7  -2  21  206.68    8.38
  -2  -5  21  211.17    8.59
   7  -2  24   20.62    4.17
  -5   7  24   31.92    4.59
  -2  -5  24   34.25    3.66
  -5   7  27   22.39    4.57
  -2  -5  27   23.20    3.62
  -5   7  30    3.92    3.99
  -2  -5  30    6.62    3.20
  -5   7  33    2.94    4.38
   1   6  34   -1.81    4.53
   1   6  31   -0.81    3.89
   6  -7  31   -3.79    4.97
   1   6  28    0.35    3.20
   6  -7  28    2.01    3.81
  -7   1  25   37.83    6.17
   6  -7  25   25.60    4.68
   1   6  25   28.80    4.34
  -7   1  22    3.13    1.46
   1   6  22    1.33    2.61
   6  -7  22   -1.83    3.29
  -6   7 -19  373.60   12.35
   1   6  19  382.31   13.89
   6  -7  19  367.07   14.53
  -7   1  19  392.11   11.27
   6  -7  16   10.23    2.60
  -7   1  16    5.06    2.87
  -6   7 -16    8.11    1.84
  -7   1  16    8.72    1.30
   1   6  16    5.84    1.86
   1   6  13  127.87    5.97
  -6   7 -13  120.00    5.08
  -7   1  13  124.64    4.42
  -6   7 -10   12.73    1.82
   7  -1 -10    7.00    2.65
   6  -7  10    9.67    1.98
  -7   1  10    9.43    1.09
  -6   7  -7    0.29    1.21
   7  -1  -7   -0.34    2.03
   6  -7   7   -0.14    1.20
  -6   7  -4    1.00    1.15
   6  -7   4    1.05    1.15
   6  -7   1  133.82    5.25
   7  -1  -1  128.11    5.76
  -6   7  -1  130.53    4.70
  -1  -6  -1  129.79    4.59
  -6   7   2    8.16    1.13
  -1  -6   2   11.33    1.35
  -6   7   2    9.91    1.38
   6  -7  -2    8.77    1.36
  -6   7   5  466.56   11.81
   6  -7  -5  450.58   12.44
  -6   7   5  433.38   13.37
  -1  -6   8  131.23    5.28
  -6   7   8  135.17    6.13
   1   6  -8  139.39    4.95
  -6   7   8  135.27    3.72
   6  -7 -11  485.15   14.22
   7  -1  11  453.01   12.56
  -1  -6  11  461.43   13.64
  -6   7  11  480.45   15.16
   1   6 -11  445.37   12.85
  -6   7  14    1.05    1.53
   7  -1  14    0.93    1.12
  -1  -6  14    0.78    1.33
  -1  -6  17    4.24    1.58
  -6   7  17    3.71    2.27
   7  -1  17    5.31    1.57
   7  -1  20    3.34    1.98
  -1  -6  20    3.83    2.01
  -1  -6  23   41.77    4.03
   7  -1  23   32.05    3.59
  -6   7  26    3.37    3.12
   7  -1  26   -0.92    2.77
  -1  -6  26    1.18    2.38
  -1  -6  29   23.77    4.21
  -6   7  29   16.82    4.67
  -6   7  32   -4.37    4.45
  -1  -6  32    3.11    3.34
   0   7  35   -1.93    4.58
   0   7  32    6.49    4.57
   7  -7  29   46.34    7.11
   0   7  29   34.63    5.53
   7  -7  26    4.09    3.64
   0   7  26    1.65    3.27
  -7   0  23  155.32    6.32
   7  -7  23  145.71    9.54
   0   7  23  151.23    8.79
   7  -7  20    0.93    3.37
   0   7  20    0.49    2.38
  -7   0  20    1.96    1.48
  -7   0  17   19.65    1.91
  -7   7 -17   23.54    2.20
   0   7  17   17.53    2.87
   7  -7  17   16.23    3.39
  -7   0  14   -0.87    1.02
  -7   7 -14    0.39    1.10
   0   7  14    1.39    1.54
   7  -7  11   19.12    2.95
  -7   7 -11   19.79    1.72
  -7   7 -11   20.02    2.30
   7   0 -11   21.35    3.40
  -7   0  11   20.20    1.59
   7  -7   8   23.36    2.83
  -7   7  -8   27.38    2.45
   0  -7  -5    1.51    0.77
   7   0  -5   -0.17    2.22
   7  -7   5    0.61    1.26
  -7   7  -5    0.98    1.18
  -7   7  -2  722.78   18.57
   7  -7   2  755.35   20.44
  -7   7  -2  717.53   19.17
   0  -7  -2  703.85   18.76
   7  -7  -1  687.59   19.89
  -7   7   1  716.96   19.21
  -7   7   1  750.31   18.96
   0  -7   1  726.01   19.13
   0  -7   4  159.61    5.76
  -7   7   4  160.95    6.21
  -7   7   4  158.94    5.03
   0   7  -4  153.10    5.30
  -7   7   7  616.65   18.36
  -7   7   7  637.68   15.85
   7  -7 -10   32.31    2.83
  -7   7  10   29.40    2.98
   0  -7  10   30.68    2.75
   0   7 -10   28.24    2.21
   7   0  13    2.31    1.12
  -7   7  13    2.93    1.86
   0  -7  13   -0.27    1.31
   7   0  16   56.91    3.50
   0  -7  16   51.46    3.72
  -7   7  16   41.89    4.45
   0  -7  19  184.76    7.99
  -7   7  19  185.80    9.71
   7   0  19  177.38    7.53
  -7   7  22   -1.30    2.89
   7   0  22    1.48    2.28
   0  -7  22    0.63    2.15
   7   0  25   14.94    3.13
   0  -7  25   11.30    2.98
   0  -7  28   11.31    3.48
  -7   7  28    6.04    4.24
  -7   7  31    2.45    4.14
   0  -7  31    6.45    3.71
   0  -7  34    1.48    3.71
   1  -8  36    0.44    4.54
  -8   7  33   -6.46    5.52
   1  -8  33    3.02    3.73
   1  -8  30   17.04    4.33
   1  -8  27    2.87    3.02
   7   1  24   50.89    4.66
  -8   7  24   47.91    5.98
   1  -8  24   44.54    4.60
  -8   7  21    8.77    3.83
   1  -8  21    5.63    2.50
  -8   7  18  194.93    9.82
   7   1  18  181.81    7.70
   1  -8  18  180.28    8.13
   1  -8  15   16.87    2.52
   7   1  15   20.01    2.27
  -8   7  15   22.49    3.33
   1  -8  12   12.99    2.13
  -8   7  12   12.16    2.47
  -8   7   9   26.95    2.93
  -8   7   9   23.92    1.29
   8  -7  -9   24.68    2.49
  -8   7   6  290.21   10.17
   1  -8   6  317.18    9.76
   8  -7  -6  296.69    9.51
  -8   7   6  297.14    8.47
  -1   8  -6  299.64    8.96
  -1   8  -3    7.56    1.24
   1  -8   3    9.04    1.33
  -8   7   3    5.22    1.24
  -8   7   3    4.82    1.31
  -8   7   0  411.08   11.90
  -8   7   0  428.29   12.18
   1  -8   0  420.41   11.97
  -8   7  -3    4.98    1.59
   1  -8  -3    2.23    0.91
   8  -7   3    0.72    1.58
  -8   7  -3    1.26    0.80
   8  -7   6   93.13    5.60
   7   1  -6   93.26    6.13
  -8   7  -6   91.58    2.87
   1  -8  -6   84.62    3.45
  -8   7  -6   92.45    4.50
   7   1  -9   58.48    4.81
   8  -7   9   56.65    4.69
  -7  -1   9   67.47    3.10
   1  -8  -9   62.73    2.74
  -8   7  -9   56.69    3.70
  -7  -1  12   12.82    1.52
  -8   7 -12   10.02    0.87
   8  -7  12    9.75    2.69
  -1   8  12   10.58    2.00
  -7  -1  15    0.38    1.02
  -8   7 -15   -0.05    0.73
  -1   8  15   -0.20    1.74
   8  -7  18   16.25    3.94
  -7  -1  18   18.33    2.03
  -1   8  18   16.85    3.14
  -7  -1  21   38.19    3.12
  -1   8  21   33.14    4.40
   8  -7  21   22.74    4.96
  -7  -1  24   44.17    3.47
  -1   8  24   37.17    4.87
   8  -7  24   39.71    6.05
  -1   8  27    4.27    3.73
  -1   8  30   14.13    4.50
  -1   8  33   -0.93    3.95
   2  -8  34    2.07    4.22
  -8   6  31   21.42    5.70
   2  -8  31   30.80    5.27
   6   2  28   49.78    5.47
   2  -8  28   51.15    5.61
   2  -8  25   34.04    4.46
   6   2  25   52.24    5.11
   6   2  22  146.19    7.51
  -8   6  22  127.84    8.82
   2  -8  22  128.89    7.29
   6   2  19    0.18    2.03
   2  -8  19   -2.21    2.37
  -8   6  19    2.18    2.79
   6   2  16   13.52    2.17
  -8   6  16   13.44    3.21
   2  -8  16    8.36    2.08
  -8   6  13   54.15    4.53
   2  -8  13   55.84    3.79
  -8   6  10   61.44    4.37
  -8   6  10   61.66    2.46
   8  -6 -10   66.19    4.10
  -8   6   7   26.66    2.61
   8  -6  -7   27.84    2.61
   2  -8   7   31.23    2.49
  -8   6   7   30.92    1.89
  -2   8  -7   31.35    2.13
  -8   6   4    7.78    1.38
  -2   8  -4    4.45    1.04
  -8   6   4    6.02    1.44
   8  -6  -4    9.77    1.52
   2  -8   4    8.98    1.47
   2  -8   1  868.25   24.20
   8  -6  -1  964.46   24.13
  -8   6   1  996.94   25.00
  -2   8  -1  963.76   24.09
  -8   6   1  987.22   24.82
  -8   6  -2  228.07    6.86
   2  -8  -2  228.55    7.09
  -8   6  -2  235.48    7.92
  -8   6  -5  865.48   23.12
   2  -8  -5  846.33   21.69
   6   2  -8  417.32   14.89
  -6  -2   8  457.07   12.66
  -8   6  -8  456.08   13.78
   2  -8  -8  454.98   12.03
   2  -8 -11  102.69    3.55
  -6  -2  11  101.31    4.20
  -6  -2  14   -0.10    0.88
  -2   8  14    0.19    1.56
  -6  -2  17  156.47    5.93
  -8   6 -17  159.97    4.94
  -2   8  17  174.31    8.28
  -2   8  20   78.33    6.06
  -6  -2  20   75.52    4.37
  -2   8  23   40.65    4.80
  -6  -2  23   35.55    3.26
  -6  -2  26   -1.38    2.19
  -2   8  26   -3.10    3.15
  -2   8  29   25.27    5.22
  -2   8  32    0.45    4.00
   3  -8  35   -0.92    4.59
  -8   5  32   -1.57    4.51
   3  -8  32    2.74    4.00
   5   3  29   26.60    4.79
   3  -8  29   29.98    4.98
   5   3  26    3.40    3.11
   3  -8  26    2.58    2.74
   5   3  23   96.17    6.28
  -8   5  23   72.65    7.25
   3  -8  23   69.92    5.66
   5   3  20    0.62    2.14
   3  -8  20    1.77    2.22
  -8   5  20   -0.34    3.41
  -3   8 -17   21.10    3.74
  -8   5  17   20.13    3.92
   5   3  17   24.36    2.88
  -8   5  17   23.27    1.07
   3  -8  17   23.58    3.07
  -8   5  14   -1.51    2.11
  -8   5  14    0.70    0.44
   5   3  14    1.62    1.37
   3  -8  14   -0.34    1.51
   8  -5 -11  138.73    6.57
  -8   5  11  148.49    7.45
  -8   5   8  121.41    6.18
   8  -5  -8  119.66    5.54
   3  -8   8  109.99    5.15
  -3   8  -8  120.03    4.63
  -8   5   5   79.48    4.40
   8  -5  -5   84.84    4.15
  -8   5   5   76.37    3.98
   3  -8   5   92.51    4.17
  -3   8  -5   83.95    3.53
  -8   5   2  214.29    7.80
   8  -5  -2  208.92    6.92
   3  -8   2  220.18    7.16
  -8   5   2  218.09    7.76
  -3   8  -2  212.87    6.62
   8  -5   1  142.93    4.68
   3  -8  -1  143.80    5.20
  -3   8   1  138.99    4.79
  -8   5  -1  146.07    6.20
   3  -8  -4  707.80   18.32
  -8   5  -4  743.58   20.28
   3  -8  -7  381.02   10.21
  -8   5  -7  370.13   12.17
  -5  -3   7  383.93   10.97
   5   3 -10   20.10    3.18
  -3   8  10   25.01    2.74
  -8   5 -10   21.72    2.70
  -5  -3  10   28.50    2.09
   3  -8 -10   29.84    1.54
  -5  -3  13   15.99    1.73
   3  -8 -13   11.75    0.94
  -5  -3  16   94.90    4.39
  -3   8  16   88.87    5.89
   3  -8 -16  105.49    3.26
  -3   8  19   97.72    6.55
  -5  -3  19   96.78    5.02
  -5  -3  22   12.80    2.41
  -3   8  22   11.53    3.16
  -5  -3  25   13.90    2.69
  -3   8  25   15.15    3.92
  -3   8  28   36.95    5.39
  -5  -3  28   33.88    3.90
  -3   8  31    3.08    4.04
  -3   8  34    0.48    4.30
   4  -8  36   -0.50    4.74
  -8   4  33   11.59    6.35
   4   4  33   11.10    4.88
   4  -8  33   13.20    5.06
  -8   4  30   15.03    6.03
   4  -8  30   12.29    4.41
   4   4  30   13.08    4.41
   4  -8  27    0.96    3.16
   4   4  27   11.81    3.80
   4   4  24    3.26    2.68
   4  -8  24   -2.46    2.65
   4  -8  21  244.19   10.69
   4   4  21  254.26   10.71
  -8   4  21  255.12   12.86
  -4   8 -18  366.34   13.27
   4  -8  18  365.15   13.25
  -8   4  18  358.82    9.74
   4   4  18  378.25   13.04
  -8   4  18  385.22   15.33
  -8   4  15   46.40    2.02
  -4   8 -15   52.23    4.72
  -8   4  15   49.35    4.90
   4   4  15   49.82    3.63
   4  -8  15   46.41    3.81
   8  -4 -12   65.87    4.59
  -8   4  12   69.64    5.13
  -8   4  12   74.42    2.60
   4  -8   9   92.95    4.78
   8  -4  -9   91.36    4.94
  -8   4   9   98.60    5.74
  -4   8  -9   89.46    4.05
  -8   4   6    5.00    1.71
   4  -8   6    6.46    1.42
   8  -4  -6    6.25    1.67
  -4   8  -6    3.89    1.01
  -4   8  -3   21.75    1.69
  -8   4   3   24.80    3.18
   8  -4  -3   23.14    2.11
   4  -8   3   24.39    2.01
   4  -8   0    1.04    0.92
   8  -4   0   -0.48    1.03
  -4   8   0    0.63    0.79
   8  -4   3  575.28   14.28
   4  -8  -3  521.62   14.84
  -8   4  -3  584.27   17.31
  -4   8   3  573.21   14.54
  -4  -4   6    2.02    0.95
  -8   4  -6    1.28    1.96
   4  -8  -6    3.24    0.84
   4  -8  -9 1914.80   45.62
  -4   8   9 1873.60   48.24
  -8   4  -9 1811.46   48.65
  -4  -4   9 1885.82   46.94
  -4  -4  12 1007.80   23.85
  -4   8  12 1006.02   25.84
   8  -4  15    1.76    1.15
   4  -8 -15    1.09    0.44
  -4  -4  15    1.21    1.15
   8  -4  18   19.76    2.82
  -4  -4  18   13.30    2.13
   4  -8 -18   10.61    0.84
   4  -8 -18   10.75    0.66
  -4   8  21   68.51    5.80
   8  -4  21   78.09    4.91
  -4  -4  21   75.96    4.66
  -4   8  24   41.78    4.91
  -4   8  27   47.04    5.90
  -4  -4  27   38.09    4.12
  -4   8  30   18.00    4.92
  -4  -4  30   18.19    3.72
  -4   8  33   13.20    5.03
   3   5  34    3.99    4.64
   5  -8  34    1.45    4.63
   5  -8  31   53.19    7.07
  -8   3  31   52.88    7.66
   3   5  31   47.56    6.59
   5  -8  28   35.62    5.14
   3   5  28   34.17    5.03
   5  -8  25    2.81    3.03
   3   5  25   -0.29    2.76
  -8   3  22  277.24   13.89
   5  -8  22  291.46   12.40
   3   5  22  278.38   11.92
   3   5  19 1145.59   32.22
   5  -8  19 1163.20   32.80
  -8   3  19 1131.38   28.58
  -5   8 -19 1134.76   31.57
  -8   3  19 1163.79   35.12
  -8   3  16   13.30    3.47
  -5   8 -16   11.97    2.73
   5  -8  16   11.38    2.43
  -8   3  16   11.82    1.35
   3   5  16   10.47    2.38
  -8   3  13  569.33   19.11
  -8   3  13  553.86   14.40
   5  -8  10   18.80    2.41
  -8   3  10   17.92    2.91
  -5   8 -10   19.75    2.06
   8  -3 -10   22.14    2.96
  -8   3   7    6.69    1.98
   8  -3  -7    6.34    1.94
  -5   8  -7    7.92    1.35
   5  -8   7    6.66    1.58
   8  -3  -4   26.93    2.48
  -5   8  -4   25.54    1.99
   5  -8   4   23.90    2.17
   8  -3  -1  113.95    4.74
  -5   8  -1  113.29    4.10
   5  -8   1  113.43    4.56
  -5   8   2  562.09   14.54
   8  -3   2  548.13   15.11
   5  -8  -2  574.04   15.15
   8  -3   5  181.36    5.47
  -5   8   5  181.25    6.79
   5  -8  -5  191.75    5.78
  -5   8   5  183.96    5.36
   8  -3   8 3005.72   71.91
  -8   3  -8 3039.85   76.76
  -5   8   8 3046.83   75.00
   5  -8  -8 3032.69   72.45
  -3  -5   8 3071.49   73.89
   8  -3  11 3200.94   76.91
  -5   8  11 3275.62   80.59
  -3  -5  11 3299.02   78.75
   5  -8 -11 3205.24   76.62
  -3  -5  14   24.42    2.28
   8  -3  14   16.07    1.55
  -5   8  14   18.57    2.95
   8  -3  17  246.34    8.31
  -3  -5  17  259.69    9.13
   8  -3  20  251.59    9.03
  -3  -5  20  234.31    9.18
  -5   8  23   71.27    6.30
  -3  -5  23   78.82    5.12
  -5   8  26   29.41    4.77
  -3  -5  26   30.93    3.90
  -5   8  29   39.10    6.04
  -3  -5  29   37.11    4.59
  -5   8  32    7.06    4.71
   2   6  35    3.31    4.88
   6  -8  35    2.24    5.73
   2   6  32   14.77    4.94
   6  -8  32    5.27    4.70
  -8   2  29   21.25    6.02
   2   6  29   18.99    4.43
   6  -8  29   18.67    5.15
   6  -8  26   21.25    4.44
   2   6  26   15.28    3.90
   2   6  23    4.45    2.97
   6  -8  23    5.28    3.09
   6  -8  20  566.98   19.63
   2   6  20  576.64   19.06
  -8   2  20  577.04   15.68
  -8   2  20  574.24   21.60
  -6   8 -20  574.03   17.64
  -8   2  17  150.72    9.23
   6  -8  17  163.10    8.33
  -6   8 -17  156.05    6.96
  -8   2  17  160.11    5.45
   2   6  17  150.38    7.39
  -6   8 -14  228.23    8.55
   2   6  14  244.99    9.22
  -8   2  14  239.97    7.17
  -8   2  14  237.34   11.16
   6  -8  11   58.87    4.14
  -8   2  11   49.46    2.35
   8  -2 -11   46.21    4.03
   8  -2  -8   48.90    3.88
   6  -8   8   50.67    3.58
  -6   8  -8   51.25    3.08
  -6   8  -5    4.20    1.23
   8  -2  -5    3.61    2.21
   6  -8   5    4.46    1.38
   8  -2  -2   60.04    3.72
  -6   8  -2   59.04    2.89
   6  -8   2   56.61    3.22
   6  -8  -1  382.97   11.48
  -2  -6   1  384.62   11.31
  -6   8   1  427.52   11.08
   8  -2   1  385.97   11.93
  -6   8   4  856.52   21.47
   6  -8  -4  826.63   20.43
  -6   8   4  739.91   19.52
   6  -8  -7  248.13    7.07
  -6   8   7  252.29    8.85
  -6   8   7  238.99    6.49
  -2  -6   7  220.74    7.77
  -2  -6  10 2283.81   56.92
   8  -2  10 2266.18   55.32
   2   6 -10 2303.03   56.22
  -6   8  10 2336.07   58.59
   6  -8 -10 2295.74   54.99
   8  -2  13   84.67    3.56
  -6   8  13   90.72    5.59
  -2  -6  13   88.38    4.46
  -2  -6  16  150.93    6.45
  -6   8  16  152.38    7.93
   8  -2  16  140.90    5.51
   8  -2  19   70.88    4.11
  -6   8  19   73.27    5.92
  -2  -6  19   79.43    4.69
  -2  -6  22   27.61    3.34
   8  -2  22   22.60    3.16
  -6   8  25    4.45    3.55
  -2  -6  25    8.85    2.80
  -6   8  28   21.42    4.99
  -2  -6  28   26.45    4.06
  -2  -6  31    3.28    3.36
  -6   8  31    8.45    4.40
   1   7  33    3.15    4.42
   7  -8  33    4.90    5.65
   1   7  30    1.57    4.01
   7  -8  30   -0.48    4.72
   7  -8  27   -0.41    3.61
   1   7  27   -0.34    3.42
   1   7  24   48.21    5.22
   7  -8  24   42.48    5.50
  -8   1  21   22.29    2.22
   1   7  21   16.95    3.33
   7  -8  21   12.39    3.80
  -7   8 -18   18.76    2.53
  -8   1  18   14.66    1.73
   1   7  18   23.71    3.44
   7  -8  18   16.56    3.75
  -8   1  15   14.62    1.56
  -7   8 -15   13.54    2.03
   1   7  15   14.60    2.57
  -7   8 -12   81.87    4.00
   7  -8  12   83.45    5.37
  -8   1  12   89.09    3.53
   8  -1  -9  769.10   22.76
  -7   8  -9  746.66   20.52
   7  -8   9  733.78   21.95
   8  -1  -6  159.79    7.46
   7  -8   6  147.46    6.62
  -7   8  -6  144.05    5.68
  -1  -7  -3    7.38    1.09
  -7   8  -3   12.11    1.56
   8  -1  -3   17.56    3.68
   7  -8   3    8.30    1.66
  -7   8   0   32.26    2.18
   7  -8   0   28.22    2.44
  -7   8   0   31.20    2.09
  -1  -7   0   31.70    2.08
  -7   8   3  411.95   12.19
  -7   8   3  403.93   11.02
   7  -8  -3  399.91   11.90
  -1  -7   3  405.23   11.83
   7  -8  -6  326.17    9.73
  -7   8   6  319.26   10.76
  -7   8   6  322.82    8.66
  -1  -7   9  150.25    6.22
  -7   8   9  176.13    7.57
   1   7  -9  174.32    6.02
  -7   8   9  174.36    4.61
  -7   8  12   15.05    2.56
  -1  -7  12   11.85    2.00
   8  -1  12   13.87    1.55
  -7   8  15   13.25    2.70
   8  -1  15   18.24    1.96
  -1  -7  15   13.90    2.10
  -7   8  18   72.08    5.89
   8  -1  18   76.11    4.26
  -1  -7  18   79.93    4.88
  -7   8  21   64.85    6.08
   8  -1  21   73.65    4.69
  -1  -7  21   65.72    4.81
  -1  -7  24    4.84    2.47
  -1  -7  27    1.85    2.66
  -1  -7  30    7.99    3.65
  -7   8  30    5.11    4.10
  -1  -7  33   13.79    4.26
  -7   8  33    9.95    5.62
   0   8  34   -0.96    4.74
   0   8  31    0.84    3.97
   0   8  28   17.73    4.55
   8  -8  25   17.33    4.70
   0   8  25    8.92    3.77
  -8   0  22  169.24    6.71
   0   8  22  165.58    9.06
   8  -8  22  166.23   10.09
   8  -8  19   69.71    6.40
  -8   0  19   65.65    3.56
   0   8  19   61.63    5.09
  -8   8 -16   25.00    2.12
   0   8  16   24.60    3.13
  -8   0  16   28.84    2.30
  -8   8 -13  190.18    6.09
   8  -8  13  181.89    9.22
  -8   0  13  180.55    6.32
  -8   8 -10 1440.96   36.33
   8   0 -10 1469.57   40.35
  -8   0  10 1492.21   36.80
   8  -8  10 1516.34   40.38
   8   0  -7  614.75   19.23
  -8   8  -7  614.18   17.35
   8  -8   7  607.38   18.99
   0  -8  -7  609.97   16.24
   8   0  -4   59.20    4.56
  -8   8  -4   62.20    2.64
  -8   8  -4   60.83    3.38
   8  -8   4   57.43    4.11
   0  -8  -4   54.52    2.77
  -8   8  -1   61.26    3.03
  -8   8  -1   64.55    3.30
   0  -8  -1   55.42    2.93
   8  -8   1   58.82    3.89
  -8   8   2   69.70    3.72
   8  -8  -2   79.74    4.36
  -8   8   2   77.59    3.40
   0  -8   2   72.68    3.57
  -8   8   5  270.82    9.41
  -8   8   5  268.47    7.73
   0  -8   5  276.17    8.88
   0   8  -5  261.29    8.22
  -8   8   8   50.65    1.99
  -8   8   8   46.34    3.55
  -8   8  11    6.20    2.11
   8  -8 -11    4.22    1.84
   0  -8  11    7.32    1.86
   8   0  14   30.05    2.44
  -8   8  14   34.44    3.85
   0  -8  14   26.29    2.76
  -8   8  17  153.15    8.91
   8   0  17  191.83    7.40
   0  -8  17  186.44    8.06
   8   0  20  398.50   13.06
   0  -8  20  373.25   13.51
  -8   8  20  373.73   15.57
  -8   8  23   15.36    4.11
   8   0  23   18.63    3.18
   0  -8  23   17.66    3.46
  -8   8  26    6.60    3.64
   0  -8  26   10.99    3.20
   0  -8  29   11.25    3.79
   0  -8  32   11.01    4.24
  -8   8  32   13.71    5.95
   0  -8  35    0.40    4.28
   1  -9  34    2.48    4.05
   1  -9  31    3.95    3.83
  -9   8  28   -0.94    4.26
   1  -9  28   -1.58    3.25
  -9   8  25    7.85    3.90
   1  -9  25    6.57    3.05
  -9   8  22   21.57    4.57
   8   1  22   35.84    3.90
   1  -9  22   25.44    3.96
  -9   8  19  210.60   11.05
   1  -9  19  214.33    9.64
   8   1  19  239.90    9.31
   1  -9  16    2.30    2.17
  -9   8  16    4.12    2.81
   8   1  16    4.22    2.10
  -9   8  13   14.19    3.01
   1  -9  13   22.12    2.72
  -9   8  10    9.60    0.88
  -9   8  10   13.93    2.54
   9  -8 -10    7.52    2.13
  -9   8   7   -0.33    1.45
  -9   8   7    1.32    0.76
   1  -9   7   -0.79    1.13
   9  -8  -7   -1.07    1.73
   1  -9   4   64.58    3.48
  -9   8   4   62.90    3.83
  -1   9  -4   67.48    3.22
  -9   8   4   70.89    3.19
   1  -9   1   26.30    2.10
  -9   8   1   26.55    2.17
  -9   8   1   25.35    2.18
  -9   8  -2  159.72    6.09
   1  -9  -2  156.45    5.59
  -9   8  -2  148.26    5.28
  -9   8  -5   29.40    1.64
   9  -8   5   31.98    3.56
   1  -9  -5   34.58    2.18
  -9   8  -5   25.84    2.58
  -9   8  -8  465.59   11.99
   9  -8   8  528.71   17.38
   8   1  -8  512.90   16.79
   1  -9  -8  532.46   13.46
   9  -8  11  530.61   18.32
   1  -9 -11  498.95   13.81
  -8  -1  11  523.98   14.43
  -9   8 -14   13.55    0.85
   9  -8  14   16.14    3.90
  -8  -1  14   18.17    1.98
  -1   9  14   17.56    2.74
  -8  -1  17   22.80    2.35
  -1   9  17   26.51    3.70
   9  -8  20   22.31    4.80
  -8  -1  20   25.95    2.74
  -1   9  20   27.52    4.24
   9  -8  23    2.62    3.89
  -1   9  23    4.38    3.22
  -8  -1  23    3.89    1.92
  -1   9  26    5.73    3.78
  -1   9  29   -0.40    4.06
  -1   9  32    4.05    4.50
   2  -9  35   -0.45    4.48
   2  -9  29   26.82    4.73
  -9   7  26    2.22    3.72
   7   2  26   -0.27    2.94
   2  -9  26   -0.88    2.69
   7   2  23   73.74    5.60
  -9   7  23   54.71    6.69
   2  -9  23   58.98    5.42
  -9   7  20   -0.68    3.59
   7   2  20    9.26    2.65
   2  -9  20    3.84    2.60
   2  -9  17   -1.41    2.03
   7   2  17    1.27    1.87
  -9   7  17    1.76    2.65
   2  -9  14   11.58    2.40
  -9   7  14   16.62    3.14
  -9   7  11  479.99   16.76
   9  -7 -11  506.14   15.89
  -9   7  11  525.78   13.17
  -9   7   8  271.39   10.25
   2  -9   8  287.86    9.66
   9  -7  -8  274.60    9.44
  -9   7   8  270.33    8.01
  -9   7   5   81.69    4.47
  -9   7   5   83.07    3.64
   2  -9   5   90.43    4.42
   9  -7  -5   81.53    3.96
  -2   9  -5   74.06    3.53
   2  -9   2   29.99    2.21
  -9   7   2   30.67    2.37
  -9   7   2   29.91    2.43
  -2   9  -2   33.67    2.06
   2  -9  -1   16.02    1.58
  -9   7  -1   14.70    1.55
  -9   7  -1   16.98    2.01
  -9   7  -4  167.25    5.16
  -9   7  -4  179.60    6.79
   2  -9  -4  174.72    5.79
   2  -9  -7    7.13    1.09
  -9   7  -7    4.08    1.84
  -7  -2  10   35.16    2.36
   2  -9 -10   32.17    1.93
  -7  -2  13   17.89    1.90
   2  -9 -13   18.33    1.42
  -2   9  16   22.84    3.43
  -7  -2  16   27.36    2.45
   2  -9 -16   26.81    1.74
  -2   9  19  196.24    9.83
  -7  -2  19  219.26    7.93
  -7  -2  22   37.44    3.40
  -2   9  22   34.47    4.56
  -7  -2  25   -0.17    2.05
  -2   9  25    3.44    3.08
  -2   9  28    4.24    3.83
  -2   9  31    8.72    4.55
   3  -9  33    2.11    4.06
   3  -9  30   17.93    4.42
  -9   6  27    9.00    4.22
   6   3  27   10.52    3.83
   3  -9  27   16.51    4.02
   6   3  24   68.35    5.63
  -9   6  24   66.47    7.27
   3  -9  24   59.50    5.59
  -9   6  21  148.94    9.71
   6   3  21  160.82    8.04
   3  -9  21  153.38    8.24
   6   3  18   61.53    4.50
  -9   6  18   66.99    6.08
   3  -9  18   56.53    4.68
  -9   6  15    2.79    0.71
  -9   6  15    2.20    2.54
   3  -9  15    1.90    1.86
  -9   6  15    1.64    0.44
   6   3  15    2.53    1.73
  -9   6  12  688.77   22.03
  -9   6  12  710.49   18.27
  -9   6   9 1613.69   44.34
   3  -9   9 1756.25   43.48
   9  -6  -9 1642.11   43.24
  -9   6   9 1679.95   41.71
  -9   6   6   40.02    3.32
   3  -9   6   48.49    3.17
   9  -6  -6   36.58    2.94
  -9   6   6   43.47    2.82
  -3   9  -6   39.63    2.51
  -9   6   3   69.48    4.20
   9  -6  -3   82.67    3.75
   3  -9   3   79.45    3.90
  -9   6   3   80.87    4.15
  -3   9  -3   76.28    3.37
   3  -9   0   15.35    1.66
  -9   6   0   17.01    2.32
  -9   6   0   12.13    1.99
   9  -6   0   16.07    1.41
  -3   9   0   16.24    1.42
  -9   6  -3  265.20    7.47
   3  -9  -3  246.26    7.64
  -9   6  -3  256.87    9.05
   3  -9  -6  364.37   10.24
  -9   6  -6  374.20   12.00
  -6  -3   9    3.93    1.07
   3  -9  -9    4.12    0.83
  -6  -3  12   16.53    1.79
   3  -9 -12   16.59    1.30
  -6  -3  15   23.37    2.20
   3  -9 -15   22.30    1.45
  -3   9  18  449.65   16.41
  -6  -3  18  446.27   13.89
   3  -9 -18  471.16   12.10
  -6  -3  21  270.50    9.80
  -3   9  21  255.46   11.87
  -6  -3  24    2.68    2.05
  -3   9  24    5.31    3.15
  -6  -3  27    3.40    2.61
  -3   9  27   -0.37    3.25
  -3   9  30   17.89    5.03
  -3   9  33    8.21    4.95
   4  -9  34   -0.46    4.26
   4  -9  31    0.40    3.74
   5   4  31    1.53    4.10
   5   4  28    1.64    3.29
   4  -9  28    3.41    3.37
   5   4  25    2.30    2.87
  -9   5  25    5.11    4.10
   4  -9  25    3.55    2.59
  -9   5  22   13.58    4.71
   4  -9  22   19.22    3.58
   5   4  22   25.55    3.74
   4  -9  19    5.58    2.59
  -9   5  19    4.34    3.36
   5   4  19    4.84    2.38
  -9   5  16   29.52    1.45
   5   4  16   35.18    3.39
  -4   9 -16   38.60    4.89
  -9   5  16   41.24    4.77
   4  -9  16   36.82    3.69
  -9   5  13    3.64    0.73
  -9   5  13    1.53    2.60
   9  -5 -10  939.83   26.21
  -9   5  10  906.19   27.26
   4  -9  10  963.90   26.20
  -4   9  -7  355.13   10.60
   9  -5  -7  358.17   11.63
  -9   5   7  338.37   12.28
   4  -9   7  371.13   11.65
   9  -5  -4   66.12    3.70
   4  -9   4   65.62    3.65
  -9   5   4   71.05    4.38
  -4   9  -4   69.09    3.20
   4  -9   1    5.04    1.19
  -9   5   1    4.16    1.57
  -9   5   1    4.64    1.96
   9  -5  -1    3.99    1.22
  -4   9  -1    2.48    0.89
  -9   5  -2  385.38   12.57
   9  -5   2  378.63   10.13
  -4   9   2  367.72   10.33
   4  -9  -2  386.10   10.88
   4  -9  -5  489.47   12.96
  -5  -4   5  461.35   13.36
  -9   5  -5  450.73   14.75
  -5  -4   8   14.15    1.65
   4  -9  -8   12.38    1.16
  -9   5  -8   14.98    2.54
  -4   9   8    7.67    2.00
   4  -9 -11   80.87    2.88
  -4   9  11   78.72    4.86
  -5  -4  11   89.82    4.10
  -5  -4  14    5.78    1.43
   4  -9 -14    4.86    0.72
  -5  -4  17   33.59    2.85
   4  -9 -17   29.78    1.44
  -5  -4  20  106.26    5.45
  -4   9  20   86.70    6.63
  -5  -4  23    7.45    2.35
  -4   9  23    6.76    2.97
  -5  -4  26   -0.21    2.29
  -4   9  26   -1.10    2.96
  -4   9  29    2.09    3.83
  -5  -4  29    0.46    2.72
  -4   9  32   10.79    4.67
   5  -9  35   -1.54    5.01
  -9   4  32    6.16    6.19
   4   5  32    6.62    4.26
   5  -9  32    8.90    4.72
   5  -9  29    3.03    3.52
   4   5  29    1.78    3.94
   5  -9  26   -0.66    2.79
   4   5  26    1.87    2.96
  -9   4  23   13.49    4.44
   4   5  23   17.62    3.53
   5  -9  23   16.94    3.44
  -9   4  20  246.09   12.81
   5  -9  20  266.27   11.45
   4   5  20  278.68   11.18
  -5   9 -20  266.35   11.04
  -9   4  17   16.37    1.35
  -5   9 -17   18.21    3.89
  -9   4  17   22.93    5.05
   5  -9  17   21.83    3.36
   4   5  17   20.92    3.19
  -9   4  14  420.84   16.26
  -9   4  14  439.27   11.57
  -9   4  11   14.50    2.93
   9  -4 -11   16.87    2.86
   5  -9  11   13.46    2.42
   9  -4  -8  118.21    5.84
  -5   9  -8  121.99    4.99
  -9   4   8  127.31    6.63
   5  -9   8  130.00    5.91
   9  -4  -5   19.26    2.33
   5  -9   5   14.36    1.91
  -5   9  -5   13.91    1.55
  -9   4   5   16.16    2.56
   9  -4  -2   47.91    3.00
   5  -9   2   48.38    2.97
  -5   9  -2   46.16    2.48
   5  -9  -1   25.59    2.04
   9  -4   1   23.61    1.91
  -5   9   1   26.43    1.72
   9  -4   4  387.85   10.21
  -9   4  -4  398.78   13.75
   5  -9  -4  384.65   10.90
  -5   9   4  380.64   10.38
  -9   4  -7  111.79    6.19
   5  -9  -7  101.73    3.68
  -5   9   7   86.26    4.80
  -4  -5   7  101.33    4.44
   5  -9 -10  962.80   23.90
  -5   9  10  978.84   26.94
  -4  -5  10  957.66   25.52
   5  -9 -13    6.49    0.72
  -4  -5  13    7.66    1.51
  -4  -5  16  128.15    5.68
  -5   9  16  116.85    6.95
   9  -4  16  123.83    4.45
   9  -4  19   39.01    3.09
  -4  -5  19   41.34    3.42
  -4  -5  22   44.27    3.83
  -4  -5  25    0.43    2.28
  -5   9  25    0.36    2.92
  -5   9  28   46.30    6.34
  -4  -5  28   48.42    4.88
  -4  -5  31   -0.27    2.91
  -5   9  31   -1.82    4.02
   3   6  33    1.77    4.64
   6  -9  33    1.97    4.58
   3   6  30    4.99    3.91
   6  -9  30    5.61    4.18
   3   6  27    4.02    3.53
   6  -9  27    1.11    3.03
   6  -9  24    3.59    3.08
   3   6  24   -0.29    2.56
  -9   3  21  190.27   11.28
   6  -9  21  181.50    9.56
   3   6  21  205.17    9.57
  -9   3  18  214.43   11.45
   6  -9  18  221.24   10.09
  -6   9 -18  219.61    9.08
   3   6  18  226.92    9.59
  -9   3  18  210.79    6.67
  -9   3  15  242.72   11.67
  -6   9 -15  228.85    9.38
   3   6  15  241.44    9.47
  -9   3  15  248.34    7.34
  -9   3  12  373.63   14.54
   6  -9  12  385.62   13.50
  -9   3  12  386.86   10.55
   9  -3  -9    2.11    2.11
   6  -9   9    3.86    1.91
   9  -3  -6   46.81    3.57
  -6   9  -6   46.11    2.83
   6  -9   6   42.67    3.26
   9  -3  -3   81.40    4.46
  -6   9  -3   88.84    3.85
   6  -9   3   81.14    4.17
   9  -3   0   37.62    3.42
  -6   9   0   45.97    2.34
  -3  -6   0   41.22    2.52
   6  -9   0   40.58    2.67
   9  -3   3  242.43    7.92
  -6   9   3  257.81    7.35
   6  -9  -3  261.18    7.98
  -6   9   6    0.17    0.66
   9  -3   6    0.65    0.90
   6  -9  -6    0.26    0.86
   9  -3   9 1033.18   25.20
  -6   9   9 1008.42   28.49
  -3  -6   9 1067.79   27.35
   6  -9  -9 1028.48   25.69
  -3  -6  12  201.13    7.42
  -6   9  12  204.05    8.75
   6  -9 -12  201.25    5.41
   9  -3  12  189.50    5.69
  -3  -6  15  171.11    6.99
   9  -3  15  167.34    5.58
  -6   9  15  179.81    8.65
  -6   9  18   86.85    6.32
   9  -3  18   94.25    4.36
  -3  -6  18   89.75    4.97
  -3  -6  21   28.41    3.31
  -3  -6  24    1.50    2.20
  -6   9  27   72.39    7.23
  -3  -6  27   72.35    5.70
  -6   9  30    4.89    4.31
  -3  -6  30    8.20    3.42
   7  -9  34   -6.80    6.04
   2   7  34    2.35    4.53
   2   7  31    0.41    4.10
   7  -9  31   -0.48    4.40
   7  -9  28    6.76    4.17
   2   7  28   -1.08    3.50
   2   7  25    6.40    3.41
   7  -9  25    5.59    3.32
   7  -9  22    0.32    2.74
   2   7  22   -0.27    2.51
  -9   2  19   49.19    2.84
   7  -9  19   45.19    5.06
   2   7  19   43.42    4.30
   2   7  16   15.27    2.72
  -7   9 -16   15.62    2.94
  -9   2  16   19.64    1.77
  -7   9 -13   21.70    2.63
  -9   2  13   23.98    1.78
   7  -9  13   24.08    3.45
   7  -9  10  246.75    9.79
   9  -2 -10  240.25   10.10
   7  -9   7  233.97    9.26
  -7   9  -7  251.32    8.36
   9  -2  -7  252.95    9.83
  -7   9  -4    0.65    1.06
   9  -2  -4    1.13    2.01
   7  -9   4    3.88    1.44
   9  -2  -1    4.06    2.04
   7  -9   1    3.17    1.32
  -2  -7  -1    1.59    0.91
  -7   9  -1    1.09    1.11
   9  -2   2  122.21    5.32
  -7   9   2  110.43    4.83
   7  -9  -2  114.53    4.83
  -7   9   2  125.78    4.43
  -2  -7   2  111.87    4.68
  -7   9   5  197.78    5.88
  -7   9   5  195.24    7.51
   7  -9  -5  208.54    6.76
   7  -9  -8  176.95    5.75
  -7   9   8  168.94    4.87
  -7   9   8  189.06    7.50
  -2  -7   8  149.78    6.30
  -2  -7  11  113.03    5.18
   9  -2  11  131.39    4.36
  -7   9  11  112.28    6.24
  -7   9  14   69.02    5.10
   9  -2  14   70.96    3.32
  -2  -7  14   70.64    4.17
   9  -2  17    2.39    1.43
  -7   9  17    1.32    2.40
  -2  -7  17    0.16    1.69
   9  -2  20   51.96    3.68
  -2  -7  20   57.60    4.26
  -7   9  20   43.28    5.02
  -2  -7  23   29.10    3.68
  -7   9  23   34.22    5.00
  -2  -7  26   18.32    3.53
  -7   9  29   -2.20    4.12
  -2  -7  29   -0.58    3.27
  -2  -7  32   13.98    4.56
  -7   9  32    3.00    4.62
   8  -9  32    0.56    4.99
   1   8  32   -0.44    4.08
   8  -9  29   10.22    4.84
   1   8  29    6.93    3.88
   1   8  26   -2.41    3.20
   8  -9  26    2.13    3.67
   1   8  23   53.37    5.28
   8  -9  23   69.00    6.73
   1   8  20   88.84    6.34
  -9   1  20   96.98    4.46
   8  -9  20   94.87    7.37
   1   8  17   51.74    4.41
  -9   1  17   54.73    3.11
  -8   9 -14   34.57    2.84
   8  -9  14   34.50    4.21
  -9   1  14   33.06    2.29
   8  -9  11 1380.76   37.26
  -9   1  11 1321.42   33.59
   9  -1  -8 1482.54   40.06
   8  -9   8 1450.74   39.50
  -1  -8  -5    3.04    1.06
   8  -9   5    4.60    1.90
  -8   9  -5    2.96    1.53
   9  -1  -5    3.35    2.40
   9  -1  -2  343.40   12.01
  -8   9  -2  340.82   10.12
  -8   9  -2  349.86   10.45
   8  -9   2  334.46   11.42
  -1  -8  -2  352.55   10.33
  -8   9   1  228.06    7.75
  -8   9   1  225.29    7.18
   8  -9  -1  222.16    8.20
  -1  -8   1  228.35    7.61
  -8   9   4  162.97    6.50
  -8   9   4  150.74    5.03
   8  -9  -4  161.53    6.25
  -1  -8   4  147.41    5.90
  -8   9   7    3.20    0.64
  -8   9   7    2.29    1.47
  -8   9  10    2.73    0.47
  -8   9  10    2.15    1.82
  -1  -8  10    2.95    1.32
  -8   9  13  116.93    6.74
  -1  -8  13  139.56    6.42
   9  -1  13  113.55    4.73
  -8   9  16    4.49    2.46
   9  -1  16    9.41    1.86
  -1  -8  16    6.15    1.94
  -8   9  19  446.53   17.15
  -1  -8  19  467.57   15.27
   9  -1  19  439.00   13.88
  -8   9  22  206.75   11.42
  -1  -8  22  216.02    9.61
  -8   9  25   -0.39    3.40
  -1  -8  25   -2.06    2.70
  -1  -8  28   19.97    4.09
  -1  -8  31   29.02    5.27
  -1  -8  34    3.04    3.94
   0   9  33    2.79    4.23
   0   9  30    4.10    4.03
   0   9  27   23.31    4.69
   9  -9  27   15.88    5.16
   9  -9  24    3.50    3.64
   0   9  24    3.23    3.31
  -9   0  21  130.42    5.73
   9  -9  21  129.63    9.14
   0   9  21  126.94    7.80
  -9   0  18  146.54    5.88
   0   9  18  142.20    7.83
  -9   0  15   19.38    2.03
   9  -9  15   23.26    4.17
   0   9  15   16.88    3.03
  -9   9 -12  759.71   19.21
  -9   0  12  722.20   19.74
   9  -9  12  711.96   23.58
   0  -9  -9 1821.66   45.85
   9  -9   9 1953.67   50.15
  -9   9  -6   41.01    2.13
   9   0  -6   36.32    4.17
  -9   9  -6   41.25    3.12
   0  -9  -6   47.45    2.61
   9  -9   6   41.84    3.92
  -9   9  -3  585.96   15.88
   9  -9   3  580.83   18.28
   9   0  -3  557.72   18.39
  -9   9  -3  616.42   16.69
   0  -9  -3  587.21   16.20
   9  -9   0  234.42    9.16
  -9   9   0  232.31    7.82
  -9   9   0  227.17    7.56
   0  -9   0  225.78    7.69
  -9   9   3   23.45    1.84
  -9   9   3   19.42    2.27
   0  -9   3   23.36    2.13
  -9   9   6    2.09    0.77
  -9   9   6    1.12    1.40
   0  -9   6    0.74    1.12
  -9   9   9   -0.38    1.86
  -9   9   9    0.04    0.55
   0  -9  12  138.67    6.55
  -9   9  12  147.25    7.54
  -9   9  15   55.36    5.12
   9   0  15   57.43    3.65
   0  -9  15   51.55    4.10
   9   0  18  393.64   12.72
  -9   9  18  361.50   15.12
   0  -9  18  382.47   13.64
  -9   9  21  374.56   16.27
   0  -9  21  412.26   14.72
  -9   9  24   -0.78    3.07
   0  -9  24    3.41    2.73
  -9   9  27   26.21    5.33
   0  -9  27   25.55    4.38
   0  -9  30   29.68    5.23
   0  -9  33   12.06    4.74
   1 -10  32    5.88    4.02
 -10   9  29    0.50    4.12
   1 -10  29   -0.70    3.63
 -10   9  26    5.32    3.72
   1 -10  26    2.12    3.23
 -10   9  23    3.57    3.50
   1 -10  23    5.38    2.79
 -10   9  20  175.45   10.56
   9   1  20  207.42    8.78
   1 -10  20  190.61    9.21
   1 -10  17   13.62    2.96
 -10   9  17   18.04    3.84
   9   1  17   13.87    2.67
 -10   9  14  235.35   10.76
   1 -10  14  234.50    9.61
 -10   9  11   38.02    1.63
 -10   9  11   32.91    3.82
 -10   9   8    5.94    1.09
 -10   9   8    4.96    1.96
   1 -10   8    5.74    1.87
 -10   9   5   38.88    3.23
   1 -10   5   34.55    2.76
 -10   9   5   38.84    2.36
   1 -10   2   28.12    2.40
 -10   9   2   29.27    2.56
 -10   9   2   32.66    2.41
   1 -10  -1    2.49    1.06
 -10   9  -1    1.96    1.13
 -10   9  -1    1.96    1.36
 -10   9  -4  105.00    3.99
  10  -9   4  115.64    6.89
 -10   9  -4  112.33    5.16
   1 -10  -4  109.20    4.55
 -10   9  -7   83.23    2.86
  10  -9   7   89.81    6.39
   1 -10  -7   88.60    3.90
  10  -9  10  452.15   17.10
  -9  -1  10  470.24   13.41
   1 -10 -10  448.31   12.82
   1 -10 -13   10.00    1.48
  -9  -1  13    7.36    1.64
  10  -9  13   15.62    3.85
  10  -9  16  127.15    9.10
  -1  10  16  139.71    7.49
   1 -10 -16  135.29    5.05
  -9  -1  16  136.18    5.61
  -9  -1  19   36.32    3.08
  -1  10  19   50.19    4.94
  -1  10  22   -0.31    2.94
  -9  -1  22    0.91    1.77
  10  -9  22   -0.45    3.87
  -1  10  25   11.31    3.95
  -1  10  28   33.18    5.45
  -1  10  31    2.20    4.18
   2 -10  33    1.25    4.06
 -10   8  30    2.07    4.78
   2 -10  30    5.79    3.86
 -10   8  27    7.16    4.50
 -10   8  24    2.94    3.61
   2 -10  24    3.10    2.67
 -10   8  21   -1.46    3.61
   8   2  21    1.93    2.41
   2 -10  21   -1.76    2.64
 -10   8  18   -0.32    2.97
   2 -10  18    0.23    2.17
   8   2  18    1.05    2.09
 -10   8  15   39.69    4.71
   2 -10  15   44.13    4.10
 -10   8  12   57.05    4.77
 -10   8  12   54.42    2.02
 -10   8   9  333.30   12.17
   2 -10   9  338.90   11.54
 -10   8   9  338.41    9.38
  10  -8  -9  314.55   11.02
 -10   8   6   33.25    2.21
  10  -8  -6   28.76    2.63
 -10   8   6   25.12    2.80
   2 -10   6   34.13    2.96
 -10   8   3   43.95    2.78
 -10   8   3   40.06    3.04
   2 -10   3   42.42    2.90
  -2  10  -3   34.81    2.40
   2 -10   0    0.80    0.93
 -10   8   0    0.34    1.44
 -10   8   0    1.08    1.08
 -10   8  -3    5.39    1.73
 -10   8  -3    8.81    1.20
   2 -10  -3    9.01    1.28
   2 -10  -6    7.62    1.29
  -8  -2   9  154.43    5.78
   2 -10  -9  142.21    5.15
  -8  -2  12   13.69    1.85
   2 -10 -12   15.68    1.54
  -2  10  15   84.11    5.72
   2 -10 -15   91.11    3.68
  -8  -2  15   94.78    4.52
  -8  -2  18   35.41    3.11
  -2  10  18   32.09    4.07
   2 -10 -18   41.65    2.38
  -8  -2  21   96.87    5.21
  -2  10  21   92.91    6.79
  -2  10  24   20.25    4.27
  -8  -2  24   20.15    2.84
  -2  10  27    4.96    3.75
  -2  10  30    7.69    4.35
 -10   7  31    5.30    5.33
   3 -10  31    0.39    3.90
 -10   7  28   32.62    6.19
   3 -10  28   43.91    5.36
   3 -10  25   -0.61    2.78
 -10   7  25    4.39    3.65
   7   3  25   -3.07    3.22
 -10   7  22   94.22    8.32
   7   3  22  100.18    6.50
   3 -10  22   95.95    6.66
 -10   7  19  119.98    8.35
   3 -10  19  121.53    7.19
   7   3  19  121.37    6.54
 -10   7  16   64.95    5.91
   7   3  16   72.53    4.73
   3 -10  16   78.06    5.46
 -10   7  13  215.89   10.34
 -10   7  13  239.19    6.73
 -10   7  10 1722.54   47.89
  10  -7 -10 1749.97   46.54
 -10   7  10 1826.21   44.47
   3 -10  10 1872.54   47.03
  10  -7  -7  402.63   13.09
   3 -10   7  442.98   13.60
 -10   7   7  402.77   14.05
 -10   7   7  446.42   12.50
 -10   7   4  305.06   10.87
  10  -7  -4  327.20   10.12
   3 -10   4  336.55   10.59
 -10   7   4  328.98   10.34
  -3  10  -4  323.19    9.71
  10  -7  -1  273.59    8.18
 -10   7   1  268.48    9.18
 -10   7   1  251.65    8.96
   3 -10   1  291.64    9.11
  -3  10  -1  265.01    8.14
 -10   7  -2   40.15    3.13
   3 -10  -2   38.50    2.39
 -10   7  -2   37.45    2.32
   3 -10  -5    1.48    0.85
 -10   7  -5    1.98    1.76
   3 -10  -8   24.61    1.76
  -7  -3   8   23.98    2.11
  -3  10  11   33.06    3.29
  -7  -3  11   29.55    2.38
   3 -10 -11   31.48    1.94
   3 -10 -14   89.56    3.47
  -7  -3  14   90.15    4.41
  -7  -3  17  177.75    7.02
  -3  10  17  149.73    8.35
   3 -10 -17  180.06    5.63
  -3  10  20  565.33   19.87
  -3  10  23   66.26    6.39
  -7  -3  23   84.46    5.11
  -7  -3  26    6.68    2.70
  -3  10  26    5.91    3.34
  -3  10  29   26.19    4.99
  -3  10  32   17.87    5.57
   4 -10  32    5.94    4.24
 -10   6  29   11.15    4.88
   4 -10  29   13.55    4.08
 -10   6  26    4.99    4.13
   6   4  26    4.89    3.53
   4 -10  26    7.37    3.07
 -10   6  23   39.15    5.84
   6   4  23   47.51    4.91
   4 -10  23   35.92    4.61
 -10   6  20  142.84    9.49
   6   4  20  143.99    7.52
   4 -10  20  142.31    7.96
   6   4  17  124.68    6.35
 -10   6  17  119.31    8.03
   4 -10  17  115.51    6.74
 -10   6  14    5.71    0.81
 -10   6  14    4.48    3.03
 -10   6  11 1452.03   41.14
   4 -10  11 1526.33   39.87
  10  -6  -8 1289.66   34.25
 -10   6   8 1284.76   33.49
   4 -10   8 1324.22   34.40
 -10   6   8 1249.01   35.31
 -10   6   5   64.70    4.31
 -10   6   5   66.07    4.12
   4 -10   5   77.03    4.15
  10  -6  -5   75.21    4.10
  -4  10  -5   68.95    3.42
 -10   6   2  421.68   13.19
 -10   6   2  408.03   13.38
  10  -6  -2  437.15   12.39
   4 -10   2  445.47   12.90
  -4  10  -2  421.24   11.97
  10  -6   1   99.72    3.66
   4 -10  -1  100.72    4.28
  -4  10   1  100.96    3.84
 -10   6  -1   92.28    5.12
   4 -10  -4   29.77    2.16
 -10   6  -4   25.35    2.94
  -6  -4   7    0.93    1.03
   4 -10  -7    1.36    0.80
  -6  -4  10    0.11    1.03
   4 -10 -10    0.77    0.59
  -4  10  10    1.41    1.45
   4 -10 -13  137.91    4.53
  -4  10  13  145.44    7.17
  -6  -4  13  138.51    5.76
   4 -10 -16   10.44    1.12
  -6  -4  16   11.92    1.97
  -6  -4  19  551.07   16.71
  -4  10  22  114.56    7.89
  -6  -4  22  114.09    6.09
  -6  -4  25    7.76    2.71
  -4  10  25    3.23    3.17
  -6  -4  28   23.27    3.65
  -4  10  28   28.76    5.43
  -4  10  31   20.22    5.42
   5 -10  33    2.35    4.79
   5 -10  30    5.68    4.11
 -10   5  30   -2.14    4.83
   5   5  30   -0.38    4.06
 -10   5  27    7.27    4.54
   5   5  27    9.91    3.77
   5 -10  27   12.39    3.88
 -10   5  24   -0.44    3.35
   5   5  24   -0.29    3.32
   5 -10  24    0.92    2.72
 -10   5  21    2.33    4.02
   5 -10  21    3.28    2.73
   5   5  21    4.79    2.58
   5 -10  18    6.15    2.51
  -5  10 -18    1.91    3.30
 -10   5  18    1.36    3.38
   5   5  18    2.55    2.13
 -10   5  15  146.45    9.09
 -10   5  15  135.81    4.38
 -10   5  12    5.41    2.75
   5 -10  12    3.03    2.16
 -10   5   9  405.33   14.69
  10  -5  -9  401.73   13.53
   5 -10   9  428.04   13.78
 -10   5   6   12.19    2.35
   5 -10   6   12.11    2.00
  -5  10  -6   15.81    1.83
  10  -5  -6   16.73    2.42
 -10   5   3    0.15    1.47
   5 -10   3    2.69    1.35
  -5  10  -3    1.60    1.04
  10  -5  -3    0.44    1.48
  10  -5   0   78.41    3.60
 -10   5   0   77.42    5.08
   5 -10   0   86.23    4.02
  -5  10   0   81.46    3.44
   5 -10  -3   -1.65    1.21
  -5  10   3    2.76    0.97
 -10   5  -3   -0.76    2.28
  10  -5   3    1.11    0.76
   5 -10  -6    2.19    0.91
  -5  -5   6    1.45    1.04
 -10   5  -6    2.51    2.04
   5 -10  -9   21.50    1.55
  -5  10   9   16.09    2.34
  -5  -5   9   20.39    2.06
  -5  10  12   51.87    4.18
   5 -10 -12   48.57    2.20
  -5  -5  12   52.35    3.29
  -5  -5  15  116.34    5.35
  -5  10  15  116.83    6.81
   5 -10 -15  112.44    3.58
  -5  -5  18   45.66    3.57
  -5  -5  21   32.52    3.50
  -5  -5  24    4.74    2.38
  -5  10  24    1.05    3.06
  -5  -5  27   -0.71    2.71
  -5  10  27   -1.19    3.54
  -5  10  30    0.45    3.97
  -5  -5  30    3.92    3.14
   4   6  31   -0.40    4.04
   6 -10  31    4.09    4.58
   6 -10  28   12.86    4.45
   4   6  28   11.68    4.08
 -10   4  28   22.58    6.12
   6 -10  25    5.50    3.31
 -10   4  25   -3.26    3.98
   4   6  25   -0.31    3.38
   4   6  22   12.03    3.23
   6 -10  22    9.98    3.29
 -10   4  19   53.78    2.60
   6 -10  19   52.92    4.92
   4   6  19   46.32    4.48
 -10   4  19   55.57    6.42
  -6  10 -16   55.09    5.00
 -10   4  16   64.60    6.22
   4   6  16   60.48    4.58
 -10   4  16   64.05    2.82
 -10   4  13  413.09   16.11
   6 -10  13  446.61   15.04
 -10   4  13  423.01   11.51
 -10   4  10   36.52    4.59
  10  -4 -10   44.90    4.13
   6 -10  10   39.78    3.69
  10  -4  -7    1.27    1.92
   6 -10   7   -0.79    1.76
  10  -4  -4  121.41    5.47
  -6  10  -4  103.25    4.31
   6 -10   4  117.39    5.38
  -6  10  -1 1213.44   30.75
  10  -4  -1 1223.92   31.57
   6 -10   1 1226.28   31.75
  10  -4   2  310.93    9.28
   6 -10  -2  307.94    9.65
  -6  10   2  311.57    8.93
  10  -4   5    5.82    0.97
  -6  10   5    6.26    1.00
 -10   4  -5    4.59    2.83
   6 -10  -5    6.48    1.25
  -6  10   5    5.61    1.49
  -4  -6   8    5.15    1.28
   6 -10  -8    4.76    1.02
  -6  10   8    2.52    1.38
  -4  -6  11    4.22    1.38
  -6  10  11    3.06    1.90
   6 -10 -11    3.31    0.82
  -4  -6  14  206.21    7.43
   6 -10 -14  176.97    4.99
  -6  10  14  224.88    9.30
  -4  -6  17   30.77    2.94
  -6  10  17   23.92    3.78
  -6  10  20   -0.91    2.73
  -4  -6  20   -0.70    2.04
  -4  -6  23    3.32    2.37
  -4  -6  26   22.74    3.66
  -6  10  29   35.48    5.87
  -4  -6  29   46.46    5.32
   7 -10  32   -1.51    5.03
   3   7  32   -1.29    4.30
   3   7  29   25.26    5.15
   7 -10  29   17.28    5.14
   7 -10  26    2.71    3.39
   3   7  26    0.34    3.35
   7 -10  23   -0.34    2.90
 -10   3  23    1.77    3.58
   3   7  23    1.71    2.61
   7 -10  20   20.83    3.92
 -10   3  20   22.58    1.94
 -10   3  20   41.19    6.45
   3   7  20   23.46    3.60
 -10   3  17   -0.23    1.30
   3   7  17    0.60    2.00
   7 -10  14  173.78    8.61
 -10   3  14  170.30    5.70
  -7  10 -14  182.28    7.92
   7 -10  11   59.36    4.64
  10  -3  -8    4.28    2.45
   7 -10   8    6.04    2.07
   7 -10   5    2.92    1.67
  10  -3  -5    3.36    2.02
  -7  10  -5    1.70    1.35
   7 -10   2  484.15   14.82
  10  -3  -2  478.21   14.90
  -7  10  -2  514.08   13.99
   7 -10  -1  553.83   15.80
  10  -3   1  575.06   15.99
  -7  10   1  514.10   14.60
  -3  -7   1  595.47   15.73
   7 -10  -4   18.76    1.89
  10  -3   4   17.44    1.89
  -7  10   4   20.55    2.17
  -7  10   4   19.82    1.48
  10  -3   7   13.62    1.61
  -7  10   7   17.46    2.22
  -7  10   7   14.88    1.17
   7 -10  -7   17.88    1.61
  -3  -7  10    6.10    1.45
  -7  10  10    3.21    1.82
  10  -3  10    7.04    0.90
   7 -10 -10    5.57    1.06
  -3  -7  13  152.10    6.24
  10  -3  13  143.91    4.65
  -7  10  13  160.01    7.90
  10  -3  16   63.26    3.00
  -3  -7  16   62.93    4.26
  -7  10  16   62.80    5.42
  -7  10  19    0.89    2.75
  -3  -7  19    2.69    1.88
  -3  -7  22    1.88    2.15
  -7  10  22    1.01    2.89
  -3  -7  25   12.28    3.12
  -3  -7  28   50.76    5.37
  -7  10  31    2.83    4.12
  -3  -7  31    2.52    3.73
   2   8  33    2.28    4.66
   2   8  30   10.86    4.61
   8 -10  30    1.99    4.85
   8 -10  27    7.93    4.63
   2   8  27   12.24    3.87
   2   8  24   15.43    3.75
   8 -10  24   10.58    4.00
   8 -10  21    9.34    3.62
   2   8  21   14.48    3.28
 -10   2  18    2.73    1.27
   2   8  18    1.56    2.05
   8 -10  15    1.34    2.37
 -10   2  15    0.34    1.05
   8 -10  12   99.57    6.42
 -10   2  12  109.91    4.33
   8 -10   9  386.07   13.74
  10  -2  -6    3.30    2.63
   8 -10   6    5.13    2.07
  10  -2  -3   50.75    4.03
  -8  10  -3   47.06    3.08
  -2  -8  -3   49.70    2.88
   8 -10   3   48.70    3.64
  -8  10   0   26.42    2.23
  10  -2   0   28.90    3.14
  -8  10   0   24.33    2.09
   8 -10   0   27.69    2.62
  -2  -8   0   28.56    2.27
   8 -10  -3    3.22    1.35
  -2  -8   3    0.90    1.00
  10  -2   3   -1.08    2.08
  -8  10   3    1.01    0.91
  -8  10   3    1.89    1.27
   8 -10  -6    7.86    1.59
  -8  10   6    7.14    0.88
  -8  10   6    7.38    1.69
   8 -10  -9   11.96    1.70
  -2  -8   9    9.97    1.80
  -8  10   9    9.64    2.25
  -8  10   9   12.28    0.91
  -2  -8  12   68.39    4.11
  -8  10  12   81.25    5.42
  10  -2  12   77.91    3.33
  10  -2  15   44.63    2.72
  -2  -8  15   46.21    3.76
  -8  10  15   41.78    4.28
  -8  10  18   68.78    6.07
  -2  -8  18   74.58    4.79
  -8  10  21   82.18    7.07
  -2  -8  21   88.02    5.78
  -2  -8  24    3.40    2.66
  -8  10  24    2.31    3.39
  -8  10  27   -3.40    3.89
  -2  -8  27    2.26    3.15
  -2  -8  30   -0.64    3.85
  -2  -8  33    2.21    4.10
   1   9  31    9.81    4.60
   9 -10  31   -2.85    5.98
   9 -10  28   22.58    5.77
   1   9  28   23.47    5.12
   1   9  25   -3.03    3.60
   9 -10  25   -2.21    3.81
   9 -10  22   47.14    5.92
   1   9  22   36.30    4.59
 -10   1  19   59.13    3.57
   1   9  19   57.64    4.95
 -10   1  16    9.82    1.60
   9 -10  16    9.78    3.40
   1   9  16    9.27    2.63
  -9  10 -13  258.51    8.55
   9 -10  13  257.92   11.49
 -10   1  13  252.13    8.21
   9 -10  10 1271.84   36.08
  10  -1  -7  136.73    7.59
   9 -10   7  138.79    7.18
  -1  -9  -7  133.71    5.22
  10  -1  -4  506.13   16.50
  -9  10  -4  485.25   13.73
  -9  10  -4  502.57   14.46
   9 -10   4  507.09   16.12
  -1  -9  -4  488.02   14.05
  10  -1  -1  244.82   10.05
  -9  10  -1  266.66    8.58
  -9  10  -1  257.46    8.36
   9 -10   1  249.38    9.67
  -1  -9  -1  261.95    8.57
  -9  10   2   -1.37    1.24
   9 -10  -2   -1.07    1.77
  -1  -9   2   -0.12    1.13
  -9  10   2    0.13    1.38
  -9  10   5   30.71    1.91
   9 -10  -5   29.01    2.80
  -9  10   5   30.18    2.95
  -1  -9   5   31.43    2.61
  -9  10   8  137.26    4.31
  -9  10   8  146.07    7.03
  -9  10  11    2.63    2.06
  -1  -9  11    1.85    1.63
  -9  10  11    1.75    0.46
  -9  10  14   77.86    5.83
  10  -1  14   81.83    4.00
  -1  -9  14   88.91    5.25
  -9  10  17   77.87    6.36
  10  -1  17   85.90    4.51
  -1  -9  17   82.92    5.25
  -9  10  20  290.59   13.50
  -1  -9  20  284.35   11.47
  -1  -9  23   26.41    3.91
  -9  10  23   19.33    4.47
  -9  10  26   10.36    4.10
  -1  -9  26    9.12    3.50
  -9  10  29   14.37    5.03
  -1  -9  29   13.93    4.18
  -1  -9  32   10.53    4.88
   0  10  29   16.34    4.84
  10 -10  26   13.47    5.47
   0  10  26    7.67    4.05
   0  10  23    2.85    3.05
  10 -10  23    0.46    3.80
 -10   0  20   33.46    2.85
   0  10  20   24.54    3.75
  10 -10  17   70.10    6.68
   0  10  17   70.84    5.34
 -10   0  17   73.99    3.94
 -10   0  14    2.21    1.29
  10 -10  14    3.88    2.74
   0 -10 -14    5.47    1.31
 -10  10 -11  441.11   11.96
  10 -10  11  454.91   16.75
 -10   0  11  427.95   12.82
   0 -10 -11  432.43   12.57
  10 -10   8  255.90   11.05
 -10  10  -8  236.07    6.97
   0 -10  -8  245.02    7.96
  10 -10   5  252.06   10.51
 -10  10  -5  236.52    7.40
  10   0  -5  231.90   10.40
   0 -10  -5  235.39    7.97
 -10  10  -2  279.03    8.89
  10 -10   2  274.58   11.05
 -10  10  -2  283.70    9.21
  10   0  -2  258.06   11.03
   0 -10  -2  270.19    8.97
 -10  10   1    7.85    1.57
   0 -10   1    8.79    1.61
 -10  10   1    7.24    1.79
  10 -10  -1    7.27    2.48
   0 -10   4   68.50    3.85
 -10  10   4   63.87    4.16
 -10  10   4   61.35    3.07
   0 -10   7   84.97    4.48
 -10  10   7   91.90    5.34
 -10  10   7   93.36    3.48
 -10  10  10    0.66    0.60
 -10  10  10    0.44    1.89
 -10  10  13  148.29    8.20
   0 -10  13  156.99    7.28
   0 -10  16    3.30    2.26
 -10  10  16    2.66    2.80
  10   0  16    3.08    1.98
   0 -10  19  275.76   11.28
 -10  10  19  262.96   12.79
 -10  10  22   56.86    6.10
   0 -10  22   52.77    5.17
 -10  10  25    5.15    3.96
   0 -10  25    7.81    3.34
 -10  10  28    8.13    4.73
   0 -10  28    7.84    3.54
   0 -10  31    9.08    4.39
   1 -11  30    4.19    3.93
 -11  10  27   -0.48    3.92
   1 -11  27    2.66    3.44
 -11  10  24    4.29    4.13
   1 -11  24    6.24    3.05
   1 -11  21   35.32    4.25
 -11  10  21   28.33    5.14
  10   1  18   61.18    4.54
 -11  10  18   62.95    6.00
   1 -11  18   61.60    5.07
 -11  10  15   79.02    6.37
   1 -11  15   85.62    5.61
 -11  10  12  194.57    9.51
 -11  10   9   25.25    1.73
 -11  10   9   25.52    3.34
   1 -11   9   29.04    3.29
 -11  10   6    1.09    1.76
 -11  10   6    0.55    1.11
   1 -11   6    0.60    1.46
   1 -11   3  169.69    6.83
 -11  10   3  178.37    6.46
   1 -11   0  397.33   12.33
 -11  10   0  387.47   12.21
 -11  10   0  423.72   12.41
   1 -11  -3    2.52    1.34
 -11  10  -3    3.51    1.25
 -11  10  -6   15.48    1.38
  11 -10   6   14.53    3.53
   1 -11  -6   15.78    1.94
  11 -10   9   31.08    4.38
   1 -11  -9   32.80    2.50
 -10  -1  12    6.89    1.63
   1 -11 -12    8.38    1.49
  11 -10  12    9.43    3.63
  11 -10  15   90.63    7.84
  -1  11  15  105.16    6.56
   1 -11 -15  109.53    4.53
 -10  -1  15  105.39    4.96
   1 -11 -18   11.20    1.60
 -10  -1  18    8.38    1.97
  11 -10  18    4.73    3.58
  -1  11  18   10.09    2.96
 -10  -1  21    0.67    1.52
  -1  11  21   -1.83    3.05
  -1  11  24   -2.45    3.70
  -1  11  27   19.03    4.74
  -1  11  30    7.79    4.69
   2 -11  31    5.15    4.33
   2 -11  28   22.68    4.63
 -11   9  28   14.72    5.46
 -11   9  25   -0.91    3.64
   2 -11  25   -0.93    2.99
 -11   9  22   -1.99    3.37
   2 -11  22    2.80    2.75
 -11   9  19    7.04    3.61
   2 -11  19    9.09    2.89
   9   2  19    4.06    2.28
   9   2  16   63.56    4.30
 -11   9  16   40.37    5.11
   2 -11  16   49.94    4.56
 -11   9  13  152.03    8.32
 -11   9  10    3.08    2.13
 -11   9  10    1.12    0.97
   2 -11  10   -0.18    1.77
 -11   9   7    0.19    1.77
 -11   9   7    0.80    1.16
   2 -11   7    1.11    1.58
 -11   9   4   24.35    2.70
   2 -11   4   21.02    2.42
 -11   9   4   27.79    2.40
 -11   9   1  288.57    9.50
   2 -11   1  256.51    8.91
 -11   9   1  310.17    9.63
   2 -11  -2  180.34    6.60
 -11   9  -2  169.43    6.11
 -11   9  -2  181.60    7.13
 -11   9  -5    1.50    0.91
   2 -11  -5    0.29    0.99
   2 -11  -8    8.05    1.48
  -9  -2  11    9.69    1.72
   2 -11 -11    8.93    1.42
   2 -11 -14  195.30    6.64
  -9  -2  14  202.15    7.46
  -9  -2  17   10.76    2.24
   2 -11 -17   17.66    1.81
  -2  11  17   10.33    3.17
  -9  -2  20   14.91    2.35
  -2  11  20   15.18    3.70
  -2  11  23    7.11    3.35
  -9  -2  23    8.61    2.62
  -2  11  26    8.08    4.04
  -2  11  29    6.31    4.08
   3 -11  32    7.59    4.42
 -11   8  29   17.28    5.55
   3 -11  29   18.90    4.60
   3 -11  26   21.61    4.30
 -11   8  26   20.59    5.20
 -11   8  23    8.52    4.13
   8   3  23    6.68    3.09
   3 -11  23    6.48    3.23
 -11   8  20   18.49    4.63
   8   3  20   23.59    3.57
   3 -11  20   26.60    3.78
   8   3  17   53.33    4.10
 -11   8  17   42.26    5.17
   3 -11  17   48.52    4.73
 -11   8  14    9.31    3.11
 -11   8  11  317.10   12.92
 -11   8  11  328.45    9.48
   3 -11  11  360.66   12.37
 -11   8   8  308.59   11.99
 -11   8   8  331.89   10.01
  11  -8  -8  321.43   11.05
   3 -11   8  356.21   11.81
 -11   8   5   26.89    2.44
   3 -11   5   26.50    2.67
 -11   8   5   20.77    2.75
  11  -8  -5   20.93    2.31
 -11   8   2   69.69    4.25
   3 -11   2   90.62    4.68
 -11   8   2   85.46    4.41
   3 -11  -1   22.82    2.13
 -11   8  -1   23.59    2.57
 -11   8  -1   22.17    2.18
   3 -11  -4    9.57    1.35
   3 -11  -7   23.79    1.95
  -8  -3  10    1.74    1.32
   3 -11 -10    0.55    0.96
  -8  -3  13  217.89    7.87
   3 -11 -13  214.88    6.90
   3 -11 -16   14.33    1.63
  -8  -3  16   11.01    2.22
  -8  -3  19  152.99    6.64
  -3  11  19  144.93    8.47
  -3  11  22   76.77    6.69
  -8  -3  22   97.72    5.63
  -8  -3  25   -2.13    2.39
  -3  11  25   -1.87    3.57
  -3  11  28    4.10    3.70
 -11   7  30   12.93    6.33
   4 -11  30   -0.40    3.69
 -11   7  27   20.75    5.31
   4 -11  27   26.90    4.77
   4 -11  24    2.20    2.86
 -11   7  24    1.73    3.92
   7   4  24   -2.82    3.36
   7   4  21   50.81    4.75
 -11   7  21   48.42    6.08
   4 -11  21   53.33    5.26
 -11   7  18   65.12    6.45
   7   4  18   74.98    5.08
   4 -11  18   69.14    5.48
 -11   7  15    9.48    3.32
 -11   7  12  458.36   16.93
   4 -11  12  476.34   15.66
 -11   7  12  456.89   13.11
 -11   7   9 1089.32   32.05
  11  -7  -9 1086.25   30.58
   4 -11   9 1169.09   31.24
 -11   7   9 1156.01   29.55
   4 -11   6    5.65    2.05
 -11   7   6    3.53    2.21
  11  -7  -6    4.34    2.07
 -11   7   6    5.03    2.00
 -11   7   3  674.31   19.84
  11  -7  -3  679.40   18.70
   4 -11   3  691.37   19.49
 -11   7   3  696.19   19.65
 -11   7   0  167.86    6.50
  11  -7   0  166.84    5.59
   4 -11   0  172.48    6.39
 -11   7   0  170.46    7.14
  -4  11   0  159.91    5.66
 -11   7  -3    1.74    1.85
   4 -11  -3    4.10    1.25
   4 -11  -6   51.74    2.85
  -7  -4   6   56.01    3.32
   4 -11  -9   19.96    1.64
  -7  -4   9   23.48    2.22
   4 -11 -12  102.33    3.94
  -4  11  12  107.09    6.20
  -7  -4  12  111.16    5.03
   4 -11 -15   55.65    2.65
  -4  11  15   51.97    4.76
  -7  -4  15   56.05    3.60
  -7  -4  18  198.50    7.86
  -4  11  21  191.54   10.38
  -7  -4  21  209.29    8.64
  -4  11  24   -2.53    3.24
  -7  -4  24   -0.39    2.14
  -7  -4  27   23.94    3.57
  -4  11  27   35.51    5.52
  -4  11  30   20.09    5.39
   5 -11  31    1.73    3.99
 -11   6  28   13.86    5.42
   6   5  28   11.54    4.46
   5 -11  28   12.88    4.32
 -11   6  25   -1.85    3.49
   6   5  25   -3.98    3.94
   5 -11  25    3.68    2.93
 -11   6  22    9.07    4.15
   5 -11  22    8.70    3.34
   6   5  22    6.70    3.05
   5 -11  19   13.32    3.09
 -11   6  19   16.01    4.62
   6   5  19   17.22    3.02
 -11   6  16   14.72    3.70
 -11   6  16   16.27    1.22
 -11   6  13   60.09    5.95
   5 -11  13   18.91    3.22
 -11   6  10  541.07   18.62
   5 -11  10  571.91   17.79
 -11   6   7   14.66    3.20
   5 -11   7   17.09    2.56
  11  -6  -7   15.22    2.68
 -11   6   4  309.85   11.25
  11  -6  -4  324.16   10.39
 -11   6   4  304.67   11.08
   5 -11   4  302.71   10.50
   5 -11   1   25.82    2.49
  11  -6  -1   29.52    2.32
  -5  11  -1   27.93    2.13
 -11   6   1   28.18    3.34
  11  -6   2   61.93    2.67
   5 -11  -2   49.46    3.25
  -5  11   2   60.57    2.87
 -11   6  -2   60.29    4.51
   5 -11  -5   50.94    2.83
  -6  -5   5   49.16    3.10
   5 -11  -8   26.56    1.89
  -6  -5   8   22.52    2.21
  -5  11  11   36.92    3.65
   5 -11 -11   37.16    2.16
  -6  -5  11   37.80    2.90
  -5  11  14   90.23    5.98
   5 -11 -14  101.46    3.67
  -6  -5  14   96.69    4.90
  -6  -5  17   40.76    3.33
  -5  11  17   44.29    4.62
  -6  -5  20  193.73    8.32
  -6  -5  23   -0.79    2.20
  -6  -5  26   18.40    3.45
  -5  11  26   15.92    4.25
  -6  -5  29    4.11    3.15
  -5  11  29   -0.44    3.74
   6 -11  32    5.76    5.04
   6 -11  29   27.92    5.60
 -11   5  29   34.68    6.71
   5   6  29   28.02    5.30
 -11   5  26    9.85    4.81
   5   6  26    9.29    3.99
   6 -11  26   12.10    3.98
 -11   5  23    3.54    3.58
   5   6  23    0.28    3.05
   6 -11  23    4.21    2.83
 -11   5  20    3.92    3.26
   6 -11  20    4.36    2.78
   5   6  20    5.09    2.44
 -11   5  17    1.74    3.14
 -11   5  17   -0.89    0.94
   5   6  17   -2.53    2.24
 -11   5  14   70.42    6.25
 -11   5  14   77.78    3.12
   6 -11  14   88.72    5.83
 -11   5  11    6.97    2.92
   6 -11  11    8.10    2.42
 -11   5   8   18.78    3.40
  11  -5  -8   16.90    2.75
   6 -11   8   27.84    3.07
  11  -5  -5   36.42    3.25
   6 -11   5   38.47    3.37
  11  -5  -2  394.80   12.34
   6 -11   2  417.69   12.83
  -6  11  -2  407.91   11.72
  11  -5   1 1044.59   26.79
   6 -11  -1 1060.57   27.54
  -6  11   1 1028.42   26.48
  11  -5   4  120.20    4.01
   6 -11  -4  124.04    4.97
  -6  11   4  116.30    4.26
  -5  -6   7   14.23    1.88
   6 -11  -7   14.84    1.61
  -6  11   7   10.78    2.02
  -6  11  10   85.09    5.17
   6 -11 -10   90.18    3.61
  -5  -6  10   90.74    4.57
  -5  -6  13  156.24    6.49
  -6  11  13  155.58    7.72
   6 -11 -13  150.24    4.84
  -5  -6  16    1.28    1.32
  -6  11  16   -2.61    2.57
  -6  11  19   83.39    6.66
  -5  -6  19  105.59    5.82
  -5  -6  22   -0.20    2.13
  -5  -6  25    4.19    2.69
  -6  11  28   21.52    5.11
  -5  -6  28   22.50    4.16
   4   7  33    5.88    4.93
   4   7  30   45.02    6.45
   7 -11  30   58.84    7.84
 -11   4  27   28.96    6.14
   7 -11  27   28.01    5.37
   4   7  27   24.25    4.96
   7 -11  24   16.68    3.95
 -11   4  24    4.23    3.95
   4   7  24    9.91    3.66
 -11   4  21    7.17    4.47
   4   7  21    2.27    2.56
   7 -11  21    2.26    2.66
 -11   4  18    6.01    3.69
 -11   4  18    9.82    1.37
   4   7  18    8.28    2.63
 -11   4  15   31.56    4.81
   7 -11  15   30.87    4.00
 -11   4  15   30.82    1.99
   7 -11  12  177.23    8.56
   7 -11   9  205.69    8.90
  11  -4  -9  212.65    9.06
  11  -4  -6  115.69    6.07
   7 -11   6  123.42    6.20
  11  -4  -3  519.89   15.19
  -7  11  -3  457.34   13.51
   7 -11   3  532.88   15.35
  -7  11   0 2274.61   56.41
  11  -4   0 2259.30   57.23
  -4  -7   0 2372.73   57.34
   7 -11   0 2328.54   57.63
  11  -4   3  414.09   11.75
   7 -11  -3  400.13   12.14
  -7  11   3  402.77   11.27
  11  -4   6   88.65    3.36
  -7  11   6   84.68    4.74
  -7  11   6   90.49    3.37
   7 -11  -6   88.34    3.94
   7 -11  -9  229.50    7.21
  -7  11   9  215.09    9.07
  -4  -7   9  241.74    8.45
  -4  -7  12  179.10    7.27
  -7  11  12  181.54    8.60
   7 -11 -12  194.43    5.86
  -4  -7  15   20.91    2.34
  -7  11  15   18.41    3.29
  -7  11  18   30.87    4.34
  -4  -7  18   35.48    3.54
  -7  11  21   -0.66    2.69
  -4  -7  21    0.40    2.14
  -4  -7  24    6.30    2.68
  -7  11  24    7.09    3.35
  -4  -7  27   35.13    4.59
  -7  11  30   27.07    6.07
  -4  -7  30   38.51    5.24
   8 -11  31   23.22    6.64
   3   8  31   25.32    5.58
   3   8  28   53.33    6.58
   8 -11  28   42.56    6.76
   8 -11  25   -0.41    3.51
   3   8  25    1.31    3.33
   8 -11  22   14.42    3.90
   3   8  22   15.26    3.50
   3   8  19    4.19    2.36
 -11   3  16    2.75    1.09
   8 -11  16    3.72    2.40
   8 -11  13    4.75    2.43
 -11   3  13    7.57    1.28
   8 -11  10   26.31    3.61
  11  -3  -7  151.49    7.51
   8 -11   7  161.53    7.53
  11  -3  -4    0.51    2.22
   8 -11   4    2.80    1.89
  11  -3  -1  865.83   24.31
   8 -11   1  867.90   24.12
  -8  11  -1  873.83   22.88
  -3  -8  -1  877.68   23.42
  11  -3   2  507.38   14.75
  -8  11   2  479.06   13.38
   8 -11  -2  494.79   14.60
  -8  11   2  486.54   14.61
  -3  -8   2  497.69   14.55
  11  -3   5   26.97    2.48
  -8  11   5   26.48    2.65
   8 -11  -5   28.50    2.37
  -8  11   5   28.96    1.82
  11  -3   8   56.35    3.15
  -8  11   8   56.28    4.18
   8 -11  -8   56.08    3.12
  -8  11   8   57.32    2.34
   8 -11 -11   81.71    3.62
  -3  -8  11   83.48    4.60
  -8  11  11   83.81    5.52
  11  -3  11   83.08    3.06
  -3  -8  14   28.97    2.78
  -8  11  14   29.40    3.82
  -8  11  17    5.43    3.02
  -3  -8  17    9.26    2.43
  -8  11  20    1.95    2.98
  -3  -8  20    4.85    2.32
  -3  -8  23   17.61    3.32
  -8  11  23   12.20    3.85
  -3  -8  26    4.57    3.11
  -8  11  26    1.68    3.98
  -3  -8  29   21.66    4.46
  -3  -8  32    4.88    4.15
   2   9  32    3.12    4.51
   2   9  29   15.64    4.69
   9 -11  29   16.41    5.88
   9 -11  26    6.00    4.20
   2   9  26   -0.35    3.63
   2   9  23    0.91    2.86
   9 -11  23    2.89    3.49
   2   9  20   -0.26    2.47
 -11   2  17    2.66    1.28
   9 -11  17    3.57    2.86
   2   9  17    0.67    2.20
 -11   2  14   17.40    1.82
   9 -11  14   22.16    3.82
   9 -11  11   99.34    6.59
   9 -11   8    1.54    2.19
  11  -2  -5  291.78   11.59
   9 -11   5  312.06   11.34
  -2  -9  -5  289.93    9.50
   9 -11   2   27.06    3.17
  -9  11  -2   30.53    2.46
  11  -2  -2   30.25    3.60
  -9  11  -2   31.42    2.64
  -2  -9  -2   34.50    2.56
  11  -2   1   78.41    5.03
  -9  11   1   85.53    4.42
  -9  11   1   87.54    3.96
   9 -11  -1   80.96    4.68
  -2  -9   1   80.42    4.27
  11  -2   4    3.89    2.18
  -2  -9   4    1.96    1.50
   9 -11  -4    2.35    1.58
  -9  11   4    2.73    1.04
  -9  11   4    3.25    1.80
   9 -11  -7   71.87    4.05
  -9  11   7   70.33    4.65
  -9  11   7   66.82    2.75
  -9  11  10   35.10    3.77
  -9  11  10   32.61    1.53
  -9  11  13    4.24    2.48
  -2  -9  13    6.85    1.92
  11  -2  13    6.12    1.35
  -9  11  16   -0.28    2.51
  -2  -9  16    2.30    1.94
  -2  -9  19   15.13    2.97
  -9  11  19   15.14    3.89
  -2  -9  22    6.18    2.75
  -9  11  22    5.91    3.60
  -2  -9  25    8.66    3.38
  -9  11  25   12.46    4.38
  -9  11  28    3.60    4.47
  -2  -9  28    3.11    3.54
  -2  -9  31   -3.89    4.00
   1  10  30    3.39    4.23
   1  10  27    1.89    3.67
  10 -11  27    9.48    5.49
   1  10  24   -2.95    3.23
  10 -11  24   -0.47    4.20
   1  10  21    6.46    3.19
  10 -11  18    5.27    3.60
 -11   1  18    6.53    1.69
   1  10  18    6.85    2.54
 -11   1  15   -0.74    1.20
  10 -11  15    0.67    2.41
  -1 -10 -12   74.44    3.83
 -11   1  12   82.02    3.98
  10 -11  12   77.06    6.27
  10 -11   9  120.67    7.36
  -1 -10  -9  109.24    4.82
 -10  11  -6  159.68    5.86
  10 -11   6  169.90    8.40
  -1 -10  -6  175.40    6.39
 -10  11  -3  473.10   13.62
  11  -1  -3  461.00   16.13
  10 -11   3  446.95   15.67
  -1 -10  -3  472.19   13.86
 -10  11   0   17.00    2.15
  10 -11   0   21.26    3.09
  -1 -10   0   22.39    2.33
  11  -1   0   27.58    3.83
 -10  11   0   25.13    2.56
  10 -11  -3    1.80    2.07
  -1 -10   3    1.46    1.37
 -10  11   3    0.46    1.84
 -10  11   3    1.23    1.22
  -1 -10   6  112.43    5.42
 -10  11   6  110.51    6.14
 -10  11   6  110.28    4.12
 -10  11   9  265.58   10.33
 -10  11   9  228.98    6.58
 -10  11  12    6.65    2.86
  -1 -10  12    2.91    2.10
 -10  11  15   27.47    4.08
  -1 -10  15   29.29    3.28
  -1 -10  18   13.00    2.92
 -10  11  18   13.03    4.06
  -1 -10  21    3.19    2.46
 -10  11  21    1.11    3.34
  -1 -10  24   10.83    3.47
 -10  11  24    4.47    3.97
 -10  11  27    2.75    4.11
  -1 -10  27    0.31    3.08
  -1 -10  30   -0.35    3.90
   0  11  28    6.53    4.13
  11 -11  25   -3.77    5.35
   0  11  25    4.26    3.49
   0  11  22   -4.07    3.58
  11 -11  19   18.27    5.00
 -11   0  19   22.40    2.49
   0  11  19   17.38    3.51
   0 -11 -16    6.98    1.53
 -11   0  16    5.07    1.61
   0  11  16    5.11    2.53
  11 -11  16    7.72    3.61
   0 -11 -13    9.38    1.57
 -11   0  13    7.71    1.73
  11 -11  13    5.17    3.19
  11 -11  10   23.84    3.97
   0 -11 -10   21.82    2.13
   0 -11  -7    7.35    1.66
 -11  11  -7    6.31    1.24
  11 -11   7    7.29    3.10
 -11  11  -4   88.22    4.15
  11 -11   4   96.01    6.55
   0 -11  -4   97.87    4.56
 -11  11  -1   13.06    2.23
   0 -11  -1   16.60    2.07
 -11  11  -1   11.87    2.06
  11 -11   1   11.75    3.20
   0 -11   2   55.82    3.65
 -11  11   2   55.95    3.92
 -11  11   2   54.83    3.36
 -11  11   5    3.38    1.32
   0 -11   5    6.69    1.81
 -11  11   5    6.41    2.18
 -11  11   8   38.31    3.96
   0 -11   8   36.23    3.34
 -11  11  11    7.90    2.87
 -11  11  14   59.36    5.39
   0 -11  14   47.41    4.34
   0 -11  17    5.78    2.63
 -11  11  17    7.56    3.51
   0 -11  20   26.30    3.80
 -11  11  20   19.23    4.43
   0 -11  23    2.84    2.77
 -11  11  23   -2.04    4.03
 -11  11  26    0.92    4.24
   0 -11  26    0.95    3.31
   0 -11  29    1.43    3.59
 -12  11  28    5.73    5.25
   1 -12  28   14.13    4.61
 -12  11  25    0.92    4.22
   1 -12  25    0.65    3.24
 -12  11  22   -0.41    3.50
   1 -12  22   -1.77    2.68
   1 -12  19   40.72    4.59
 -12  11  19   45.52    5.80
   1 -12  16    5.32    2.60
 -12  11  16    0.63    3.11
 -12  11  13   41.76    4.90
 -12  11  10   22.28    3.56
   1 -12  10   23.69    3.26
 -12  11   7   65.72    4.96
   1 -12   7   71.38    4.69
 -12  11   4   10.64    1.86
 -12  11   4    7.72    2.29
   1 -12   4    8.93    1.90
   1 -12   1  709.20   20.02
 -12  11   1  665.87   19.82
 -12  11   1  723.25   19.58
   1 -12  -2  428.09   12.63
 -12  11  -2  376.37   11.82
   1 -12  -5   -0.36    1.44
 -12  11  -5   -0.14    1.07
   1 -12  -8   10.76    1.75
 -11  -1  11    9.15    1.85
   1 -12 -11   11.80    1.76
 -11  -1  14   20.11    2.37
  12 -11  14   22.69    4.73
   1 -12 -14   23.98    2.27
   1 -12 -17    8.09    1.68
 -11  -1  17    8.30    1.96
  -1  12  17    7.01    2.83
 -11  -1  20   12.50    2.37
  -1  12  20    5.69    3.13
  -1  12  23    3.43    3.41
  -1  12  26    5.41    3.77
   2 -12  29   32.17    5.58
 -12  10  26   -0.49    4.26
   2 -12  26    2.05    3.45
 -12  10  23    9.55    4.51
   2 -12  23   13.26    3.60
 -12  10  20    3.06    3.51
   2 -12  20    5.06    2.74
   2 -12  17    9.60    2.87
 -12  10  17    6.08    3.34
  10   2  17    4.41    2.28
 -12  10  14   69.14    6.03
 -12  10  11  131.32    7.60
   2 -12  11  139.77    7.12
 -12  10   8   99.89    6.05
   2 -12   8  107.10    5.77
 -12  10   5    1.21    1.87
 -12  10   5    2.48    1.55
   2 -12   5    2.68    1.84
 -12  10   2  679.13   20.02
   2 -12   2  703.98   20.03
 -12  10   2  726.59   19.68
 -12  10  -1 1015.61   27.29
   2 -12  -1 1073.63   27.75
   2 -12  -4   40.20    2.90
 -12  10  -4   34.54    2.65
   2 -12  -7   65.08    3.54
 -10  -2  10   69.92    3.95
   2 -12 -10   57.38    3.29
 -10  -2  13  106.01    5.04
   2 -12 -13  100.73    4.47
   2 -12 -16   12.29    1.70
 -10  -2  16   11.82    2.11
  -2  12  16   -0.53    2.84
 -10  -2  19    1.20    1.73
  -2  12  19    3.52    2.69
 -10  -2  22    3.40    1.99
  -2  12  22    1.68    3.19
  -2  12  25   -1.90    3.78
  -2  12  28   41.15    6.31
   3 -12  30   11.25    4.47
   3 -12  27   33.16    5.38
 -12   9  27   10.87    4.90
 -12   9  24    0.91    4.13
   3 -12  24    2.92    3.20
 -12   9  21    3.29    3.56
   9   3  21    4.00    2.75
   3 -12  21    2.92    2.81
 -12   9  18   -2.16    3.22
   3 -12  18    3.19    2.52
   9   3  18   -0.20    2.25
 -12   9  15   18.63    3.96
   3 -12  12   30.10    3.49
 -12   9  12   22.32    3.81
   3 -12   9    2.26    1.93
 -12   9   9    3.40    2.47
 -12   9   6   27.40    2.54
  12  -9  -6   29.11    2.74
   3 -12   6   30.74    3.09
 -12   9   6   26.50    3.25
 -12   9   3   22.53    2.80
 -12   9   3   24.54    2.76
   3 -12   3   20.00    2.68
 -12   9   0  421.82   12.89
 -12   9   0  422.47   13.15
   3 -12   0  401.67   12.77
 -12   9  -3  107.83    4.46
   3 -12  -3  103.15    4.68
   3 -12  -6    5.59    1.45
  -9  -3   9    3.78    1.64
   3 -12  -9    3.24    1.28
  -9  -3  12   82.92    4.40
   3 -12 -12   77.22    3.77
  -9  -3  15   51.45    3.59
   3 -12 -15   51.40    2.94
  -9  -3  18    1.80    1.80
  -3  12  18    2.02    2.74
  -9  -3  21    2.56    1.88
  -3  12  21    2.95    2.98
  -3  12  24    1.86    3.48
  -9  -3  24   -0.78    2.25
  -3  12  27    3.32    3.75
 -12   8  28    9.76    5.51
   4 -12  28   15.58    4.63
   4 -12  25    9.33    3.86
 -12   8  25    6.46    4.32
   4 -12  22    1.56    2.73
 -12   8  22   -1.66    3.62
   8   4  22   -1.54    2.83
 -12   8  19    2.99    3.37
   8   4  19    3.18    2.46
   4 -12  19    1.66    2.74
 -12   8  16    4.62    3.42
 -12   8  13    2.32    2.80
   4 -12  13    5.18    2.16
 -12   8  10  185.13    9.31
 -12   8  10  193.81    6.88
   4 -12  10  205.31    8.74
 -12   8   7    1.18    1.76
   4 -12   7    4.34    1.95
 -12   8   7    5.01    2.66
  12  -8  -7    7.24    2.26
 -12   8   4  258.08   10.12
  12  -8  -4  275.12    9.11
   4 -12   4  275.42    9.92
 -12   8   4  289.10    9.76
 -12   8   1   57.72    3.91
   4 -12   1   68.76    3.93
 -12   8   1   74.27    4.51
   4 -12  -2    4.51    1.49
   4 -12  -5   13.94    1.81
   4 -12  -8  115.53    4.70
  -8  -4   8  122.06    5.47
  -8  -4  11   12.21    2.12
   4 -12 -11    8.54    1.34
  -4  12  11   15.39    2.85
   4 -12 -14   33.91    2.30
  -4  12  14   34.00    4.13
  -8  -4  14   38.05    3.13
  -8  -4  17    0.45    1.75
  -8  -4  20   32.54    3.19
  -4  12  23   -0.72    3.36
  -8  -4  23    3.98    2.58
  -8  -4  26    6.59    2.77
  -4  12  26    8.04    4.10
  -4  12  29    0.88    4.04
 -12   7  29    7.05    5.55
   5 -12  29   -3.69    4.13
 -12   7  26    4.43    4.30
   5 -12  26    8.02    3.99
   7   5  26    5.27    3.91
 -12   7  23    4.39    4.05
   5 -12  23    1.65    2.86
   7   5  23    0.83    3.00
   5 -12  20   21.34    3.83
 -12   7  20   12.85    4.46
   7   5  20   20.05    3.42
 -12   7  17    5.85    4.62
 -12   7  14    4.83    2.92
   5 -12  14    1.42    1.96
 -12   7  11  124.68    7.56
   5 -12  11  136.61    7.13
 -12   7   8   54.43    3.93
 -12   7   8   79.91    5.78
  12  -7  -8   53.04    4.17
   5 -12   8   59.27    4.42
 -12   7   5  330.83   12.29
  12  -7  -5  339.71   11.27
   5 -12   5  362.12   11.91
 -12   7   5  345.44   11.82
 -12   7   2  360.66   12.27
  12  -7  -2  367.63   11.15
   5 -12   2  361.36   11.90
 -12   7   2  375.07   12.63
   5 -12  -1    6.77    1.85
  -5  12   1    5.52    1.44
  12  -7   1    8.91    1.38
   5 -12  -4   22.72    2.19
   5 -12  -7  160.34    5.90
  -7  -5   7  168.54    6.64
  -5  12  10  129.52    6.83
   5 -12 -10  126.63    4.85
  -7  -5  10  122.92    5.70
  -7  -5  13    1.85    1.62
  -5  12  13    3.71    2.06
   5 -12 -13    4.94    1.28
  -7  -5  16    0.15    1.67
  -5  12  16    2.41    2.65
  -7  -5  19   43.49    3.63
  -7  -5  22    1.47    2.24
  -7  -5  25   17.54    3.31
  -5  12  25   15.55    4.55
  -7  -5  28    0.75    2.71
  -5  12  28    4.31    3.95
   6 -12  30   13.02    5.29
 -12   6  27    5.72    4.55
   6   6  27    4.60    4.03
   6 -12  27    9.52    4.32
 -12   6  24    3.73    4.27
   6   6  24   -2.68    3.40
   6 -12  24    4.24    3.44
 -12   6  21   15.04    4.67
   6 -12  21    9.80    3.49
   6   6  21   13.58    3.39
 -12   6  18   31.99    5.24
   6   6  18   35.55    3.70
 -12   6  15    1.28    0.77
 -12   6  15    2.63    2.80
   6 -12  15   -0.78    1.93
 -12   6  12    2.02    2.86
   6 -12  12   -0.23    1.89
 -12   6   9   32.25    5.33
   6 -12   9   -0.20    2.06
 -12   6   6  159.05    7.86
  12  -6  -6  158.98    6.96
   6 -12   6  155.05    7.19
 -12   6   3   17.54    3.38
   6 -12   3   27.76    2.90
  12  -6  -3   27.93    2.77
  12  -6   0  159.85    5.97
   6 -12   0  167.74    6.74
  -6  12   0  161.32    5.77
  12  -6   3  111.57    3.94
   6 -12  -3  117.21    5.13
  -6  12   3  112.00    4.32
  -6  -6   6    3.24    1.51
   6 -12  -6    2.53    1.37
  -6  -6   9    3.60    1.59
   6 -12  -9    2.63    1.31
  -6  12   9    4.78    2.04
   6 -12 -12   10.99    1.42
  -6  -6  12    8.81    1.97
  -6  12  12   10.66    2.60
  -6  -6  15    8.22    1.85
  -6  12  15    9.52    2.82
  -6  -6  18   37.65    3.28
  -6  12  18   45.92    5.06
  -6  12  21    2.04    3.12
  -6  -6  21    0.63    2.08
  -6  -6  24   22.47    3.49
  -6  -6  27   -0.26    2.83
   7 -12  28   29.06    5.76
 -12   5  28   25.62    6.42
   5   7  28   33.12    5.74
   7 -12  25    5.42    3.60
 -12   5  25    4.95    4.67
   5   7  25    4.79    3.63
 -12   5  22    7.58    4.21
   5   7  22   13.19    3.28
   7 -12  22    8.25    3.59
 -12   5  19   24.76    5.49
   5   7  19   16.54    3.15
 -12   5  16    7.11    1.15
 -12   5  16    8.55    3.70
   7 -12  16   11.86    3.01
 -12   5  13   22.58    4.35
   7 -12  13   21.03    3.31
   7 -12  10   92.57    5.93
  12  -5  -7  182.65    7.93
   7 -12   7  186.36    8.29
  12  -5  -4    6.71    2.20
   7 -12   4    8.36    2.13
  12  -5  -1 1158.44   30.74
   7 -12   1 1200.92   31.37
  -7  12  -1 1168.17   29.99
  12  -5   2  715.43   19.10
   7 -12  -2  728.16   19.99
  -7  12   2  701.14   18.77
  12  -5   5   17.50    1.42
   7 -12  -5   18.05    2.01
  -7  12   5   17.67    2.35
  -7  12   5   18.13    1.64
  -7  12   8  210.15    8.61
   7 -12  -8  201.81    6.92
  -5  -7   8  207.69    7.89
  -7  12  11   85.51    5.53
   7 -12 -11   82.31    3.58
  -5  -7  11   80.64    4.57
  -5  -7  14    3.93    1.70
  -7  12  14    4.72    2.44
  -5  -7  17   82.32    4.85
  -7  12  17   72.72    6.05
  -7  12  20   19.83    4.02
  -5  -7  20   12.62    2.86
  -5  -7  23   36.03    4.03
  -7  12  23   26.70    4.76
  -5  -7  26   -0.52    2.81
  -5  -7  29   29.54    4.76
   4   8  32    6.21    4.98
   4   8  29   64.89    7.23
   8 -12  29   62.23    7.74
   8 -12  26    2.56    3.79
   4   8  26   -3.78    3.97
   8 -12  23   41.43    5.69
   4   8  23   47.57    5.21
   4   8  20    2.69    2.39
 -12   4  17   14.98    1.63
   8 -12  17   18.51    3.55
   8 -12  14   -0.81    2.10
 -12   4  14   -0.71    0.92
   8 -12  11   63.53    5.12
   8 -12   8  227.04    9.64
   8 -12   5   35.49    3.54
  12  -4  -5   33.79    3.53
   8 -12   2  823.72   23.60
  12  -4  -2  814.06   23.28
  -4  -8  -2  857.81   22.83
  -8  12   1 1162.95   29.89
   8 -12  -1 1175.72   31.30
  12  -4   1 1156.71   30.80
  -4  -8   1 1223.24   31.10
  -8  12   4    1.60    1.12
   8 -12  -4    1.78    1.49
  12  -4   4    0.56    1.49
  -8  12   4    1.64    1.46
  12  -4   7  281.52    8.25
   8 -12  -7  289.54    9.09
  -8  12   7  279.24   10.41
  -8  12   7  277.85    8.03
  -8  12  10  111.16    6.37
   8 -12 -10  111.45    4.63
  -4  -8  10  119.45    5.68
  -4  -8  13    0.98    1.42
  -8  12  13    2.44    2.16
  -8  12  16   93.12    6.79
  -4  -8  16   91.43    5.21
  -8  12  19   20.68    4.10
  -4  -8  19   29.46    3.61
  -4  -8  22   17.89    3.42
  -8  12  22   20.45    4.15
  -4  -8  25   12.85    3.31
  -8  12  25   12.18    4.31
  -4  -8  28   32.13    4.93
  -8  12  28   27.01    5.66
  -4  -8  31   17.52    4.54
   3   9  30   12.64    4.62
   9 -12  27    8.68    5.20
   3   9  27    6.22    3.94
   9 -12  24    9.06    4.32
   3   9  24    8.85    3.57
   3   9  21    1.06    2.52
   9 -12  18   36.77    4.95
   3   9  18   42.67    4.24
 -12   3  18   41.06    2.74
   9 -12  15    7.91    3.16
 -12   3  15    5.39    1.28
   9 -12  12    4.04    2.61
   9 -12   9   46.66    4.35
  12  -3  -6  195.50    9.03
   9 -12   6  217.67    9.19
  -3  -9  -6  208.31    7.53
  -3  -9  -3    1.83    1.46
  12  -3  -3    5.17    2.56
   9 -12   3    5.05    2.25
  12  -3   0  357.14   12.24
  -9  12   0  347.60   10.57
   9 -12   0  364.17   12.10
  -9  12   0  348.63   11.35
  -3  -9   0  363.02   11.41
  -3  -9   3    8.81    1.90
  12  -3   3   10.13    2.42
  -9  12   3    8.91    1.47
  -9  12   3   10.88    2.19
   9 -12  -3   11.29    2.14
  12  -3   6   43.40    3.59
   9 -12  -6   31.99    2.91
  -9  12   6   31.53    3.26
  -9  12   6   29.63    1.94
   9 -12  -9    4.45    1.81
  -9  12   9    5.87    2.49
  -3  -9  12   18.25    2.45
  -9  12  12   12.53    2.88
  -9  12  15   24.58    3.88
  -3  -9  15   25.32    3.05
  -9  12  18    6.57    3.21
  -3  -9  18    5.12    2.29
  -3  -9  21   21.43    3.50
  -9  12  21   28.75    4.65
  -3  -9  24   38.42    4.61
  -9  12  24   37.47    5.56
  -3  -9  27    6.25    3.53
  -9  12  27    9.08    4.54
  -3  -9  30   17.97    4.71
   2  10  28    1.18    3.95
  10 -12  28    2.15    5.11
  10 -12  25   -1.45    4.53
   2  10  25   -2.38    3.55
   2  10  22   19.54    3.83
   2  10  19  123.01    7.35
  10 -12  19  122.90    9.07
 -12   2  16   19.66    2.06
  10 -12  16   22.00    4.28
  10 -12  13    2.44    2.67
 -12   2  13    0.72    1.15
  10 -12  10    1.36    2.39
  -2 -10 -10   -0.12    1.23
  10 -12   7   63.45    5.18
  -2 -10  -7   68.08    3.79
  12  -2  -4  180.88    9.01
 -10  12  -4  177.89    6.65
  10 -12   4  178.46    8.42
  -2 -10  -4  183.58    6.95
  -2 -10  -1    3.54    1.51
  12  -2  -1    7.67    3.37
  10 -12   1    1.15    2.15
 -10  12  -1    3.68    1.72
 -10  12  -1    1.56    1.51
  -2 -10   2    2.09    1.59
 -10  12   2    4.16    1.95
  10 -12  -2    3.00    2.06
 -10  12   2    2.38    1.34
  -2 -10   5    0.59    1.49
  10 -12  -5    0.33    2.00
 -10  12   5    1.25    1.05
 -10  12   5    0.18    2.09
 -10  12   8  303.61   11.86
 -10  12  11  305.06   12.36
 -10  12  14    6.89    2.91
  -2 -10  14    6.88    2.30
 -10  12  17    7.83    3.27
  -2 -10  17   11.51    2.73
  -2 -10  20   34.45    4.04
 -10  12  20   35.87    5.07
 -10  12  23   43.84    6.05
  -2 -10  23   51.11    5.15
  -2 -10  26    0.30    2.95
 -10  12  26   -2.65    4.07
  -2 -10  29   11.54    4.19
   1  11  29    2.52    4.40
   1  11  26    1.48    3.64
  11 -12  26    0.55    4.96
   1  11  23    7.37    3.58
  11 -12  20  158.39   10.96
   1  11  20  145.10    8.40
   1  11  17   49.90    4.66
  11 -12  17   52.43    6.24
 -12   1  17   48.02    3.36
  -1 -11 -14   16.67    2.02
 -12   1  14   14.57    1.93
  11 -12  14   15.24    3.85
  -1 -11 -11    0.59    1.12
  11 -12  11    0.63    2.53
  11 -12   8   -0.57    2.29
  -1 -11  -8    0.83    1.23
 -11  12  -8    0.96    1.14
 -11  12  -5   55.31    3.31
  -1 -11  -5   57.85    3.55
  11 -12   5   56.75    4.97
  12  -1  -2   25.72    4.15
  11 -12   2   17.97    3.31
 -11  12  -2   24.09    2.57
  -1 -11  -2   24.40    2.47
  11 -12  -1   11.68    2.94
  12  -1   1   10.06    3.52
  -1 -11   1   12.55    2.09
 -11  12   1   13.91    2.43
 -11  12   1   13.24    1.88
 -11  12   4   22.29    2.16
  -1 -11   4   26.37    2.81
 -11  12   4   24.41    3.14
  -1 -11   7  129.41    6.30
 -11  12   7  129.54    6.93
 -11  12  10  452.66   16.06
 -11  12  13   22.16    3.83
  -1 -11  13   17.04    3.25
 -11  12  16   18.64    3.92
  -1 -11  16   17.47    3.08
  -1 -11  19   18.91    3.36
 -11  12  19   15.05    4.18
  -1 -11  22   23.33    3.92
 -11  12  22   19.10    4.64
  -1 -11  25    3.03    3.07
 -11  12  25   -0.86    4.10
  -1 -11  28    2.73    3.28
   0  12  27    3.15    3.77
   0  12  24    6.27    3.74
  12 -12  21   18.99    5.80
   0  12  21   14.56    3.74
   0  12  18   80.44    6.10
 -12   0  18   78.69    4.60
  12 -12  18   79.43    8.13
   0 -12 -15    2.60    1.50
 -12   0  15    0.79    1.47
  12 -12  15    0.42    3.64
 -12   0  12    9.26    1.83
   0 -12 -12    9.88    1.74
  12 -12  12    6.68    3.45
   0 -12  -9    2.47    1.39
  12 -12   9    1.69    2.94
   0 -12  -6    1.14    1.29
 -12  12  -6   -0.79    1.16
  12 -12   6    1.54    2.79
   0 -12  -3   16.05    2.11
  12 -12   3   19.90    3.75
 -12  12  -3   10.33    1.93
 -12  12   0   42.61    3.52
   0 -12   0   45.86    3.42
 -12  12   3   18.63    2.19
   0 -12   3   18.95    2.60
 -12  12   3   21.95    2.92
   0 -12   6   40.79    3.35
 -12  12   6   48.07    4.15
 -12  12   9   56.45    5.04
   0 -12   9   61.51    4.57
 -12  12  12    5.86    3.04
 -12  12  15   -2.55    2.97
   0 -12  15    2.07    2.29
   0 -12  18    3.58    2.36
 -12  12  18   -0.71    3.51
   0 -12  21   -0.84    2.59
 -12  12  21   -1.17    3.76
 -12  12  24   -1.79    4.49
   0 -12  24    1.87    3.06
 -12  12  27    4.46    4.90
   0 -12  27    5.54    3.79
 -13  12  26   -4.00    5.53
   1 -13  26    3.19    3.60
 -13  12  23   -0.45    4.28
   1 -13  23    2.92    3.16
   1 -13  20   16.42    3.70
 -13  12  20   14.94    4.91
   1 -13  17   29.68    4.36
 -13  12  17   34.77    5.22
 -13  12  14   -0.93    2.88
 -13  12  11    7.62    2.98
   1 -13  11    3.46    2.33
 -13  12   8   66.28    5.38
   1 -13   8   70.49    5.27
 -13  12   5  175.62    8.19
   1 -13   5  190.21    7.98
 -13  12   2   21.18    2.82
   1 -13   2   21.95    2.56
   1 -13  -1  203.48    7.75
 -13  12  -1  174.63    7.02
   1 -13  -4   10.85    2.08
   1 -13  -7    2.21    1.38
   1 -13 -10   -0.38    1.42
 -12  -1  13    1.43    1.58
   1 -13 -13   -0.50    1.44
 -12  -1  16   12.70    2.39
  -1  13  16   10.79    3.21
 -12  -1  19   29.31    3.15
  -1  13  19   33.95    4.47
  -1  13  22    9.84    3.80
  -1  13  25   12.50    4.28
 -13  11  27    0.53    5.03
   2 -13  27   14.94    4.72
 -13  11  24   20.31    5.32
   2 -13  24   19.87    4.48
 -13  11  21   -0.42    3.93
   2 -13  21    1.55    3.11
   2 -13  18   40.65    4.68
 -13  11  18   38.52    5.58
 -13  11  15    5.18    3.40
   2 -13  12   22.04    3.43
 -13  11  12   18.84    3.83
 -13  11   9   94.28    6.34
   2 -13   9   99.60    5.89
 -13  11   6  108.42    6.32
   2 -13   6  131.92    6.57
 -13  11   3  132.17    6.45
   2 -13   3  145.99    6.72
 -13  11   3  146.04    6.07
 -13  11   0  861.13   23.66
   2 -13   0  872.26   23.77
 -13  11  -3  146.03    5.72
   2 -13  -3  154.20    6.33
   2 -13  -6   77.94    4.15
   2 -13  -9   88.85    4.41
 -11  -2  12   30.47    2.86
   2 -13 -12   33.09    2.62
 -11  -2  15   -1.06    1.69
   2 -13 -15    0.46    1.34
 -11  -2  18   24.29    2.95
  -2  13  18   27.96    4.19
 -11  -2  21    3.91    2.03
  -2  13  21    1.68    3.19
  -2  13  24   19.08    4.59
   3 -13  28   14.68    4.68
 -13  10  25    5.80    4.86
   3 -13  25    3.55    3.44
 -13  10  22   14.67    5.07
   3 -13  22   12.22    3.83
 -13  10  19    6.27    3.92
   3 -13  19    3.25    2.99
 -13  10  16    1.71    3.33
   3 -13  13   14.11    2.78
 -13  10  13    1.47    3.46
 -13  10  10   37.29    4.21
   3 -13  10   43.77    3.95
 -13  10   7   45.75    4.21
   3 -13   7   46.23    3.85
 -13  10   4   17.03    2.56
 -13  10   4   16.38    2.71
   3 -13   4   15.17    2.57
 -13  10   1  739.47   21.51
   3 -13   1  784.84   21.88
   3 -13  -2  329.33   10.84
 -13  10  -2  329.64   10.43
   3 -13  -5   43.62    2.87
   3 -13  -8  104.29    4.71
 -10  -3   8  100.42    5.11
 -10  -3  11   23.90    2.62
   3 -13 -11   21.19    2.27
 -10  -3  14    1.07    1.56
   3 -13 -14   -0.10    1.35
 -10  -3  17   14.95    2.44
 -10  -3  20    0.17    1.81
  -3  13  20    0.33    2.92
  -3  13  23   17.59    4.16
 -10  -3  23   21.52    3.17
  -3  13  26    3.75    4.22
   4 -13  26   -2.65    3.52
 -13   9  26    2.46    4.83
   4 -13  23   -0.69    3.10
 -13   9  23   -0.44    4.39
 -13   9  20   20.00    4.71
   9   4  20   22.24    3.62
   4 -13  20   19.01    4.07
 -13   9  17    6.07    3.68
 -13   9  14    5.02    3.94
   4 -13  14   -0.50    2.27
   4 -13  11    1.77    1.69
 -13   9  11    1.90    2.52
   4 -13   8    3.93    1.99
 -13   9   8    2.30    2.42
   4 -13   5   24.70    3.11
 -13   9   5   22.01    2.96
 -13   9   5   26.15    2.80
  13  -9  -5   22.97    2.52
 -13   9   2   21.95    3.18
 -13   9   2   20.85    2.77
   4 -13   2   16.42    2.77
 -13   9  -1   70.51    4.38
   4 -13  -1   61.56    3.98
   4 -13  -4   10.70    2.07
   4 -13  -7    1.30    1.39
  -9  -4   7    0.86    1.59
   4 -13 -10   63.57    3.50
  -9  -4  10   74.24    4.29
  -9  -4  13   18.59    2.52
   4 -13 -13   16.87    1.85
  -4  13  13   17.09    3.31
  -9  -4  16   -1.11    1.76
  -4  13  16    0.57    2.71
  -9  -4  19    1.21    1.79
  -4  13  22   17.03    4.25
  -9  -4  22   19.04    3.05
  -4  13  25    8.16    4.18
  -9  -4  25    7.86    2.85
 -13   8  27   13.55    6.02
   5 -13  27   -0.40    3.67
 -13   8  24   11.73    4.90
   5 -13  24   10.46    3.99
   8   5  21   78.32    6.04
 -13   8  21   85.28    8.08
   5 -13  21   85.57    7.09
   8   5  18   95.87    6.01
 -13   8  18   94.21    7.74
 -13   8  15    9.40    3.93
   5 -13  15    0.79    2.29
 -13   8  12    1.99    2.68
   5 -13  12    1.18    1.68
 -13   8   9   14.81    3.35
   5 -13   9   13.17    2.60
  13  -8  -6   40.26    3.37
 -13   8   6   36.79    3.87
   5 -13   6   37.22    3.48
 -13   8   6   35.94    3.33
 -13   8   3  186.35    8.17
  13  -8  -3  157.35    6.31
   5 -13   3  168.41    7.21
 -13   8   3  160.87    7.21
   5 -13   0   48.12    3.54
   5 -13  -3   32.73    2.82
   5 -13  -6   29.85    2.58
  -8  -5   6   37.43    3.07
   5 -13  -9  444.43   13.08
  -8  -5   9  456.50   14.10
  -5  13  12  183.89    9.09
   5 -13 -12  200.64    6.83
  -8  -5  12  181.87    7.62
  -8  -5  15    0.32    1.70
  -5  13  15   -1.61    2.34
  -8  -5  18    8.26    2.22
  -5  13  18    7.11    3.12
  -8  -5  21   19.78    2.94
  -8  -5  24   17.77    3.39
  -8  -5  27    0.49    2.68
  -5  13  27   -0.43    3.63
 -13   7  28    0.55    5.37
   6 -13  28    2.14    4.43
 -13   7  25    2.96    4.49
   6 -13  25   -0.77    3.55
   7   6  25   -1.27    3.36
 -13   7  22   33.30    5.93
   6 -13  22   29.48    5.03
   7   6  22   38.12    4.75
 -13   7  19  162.27   10.49
   7   6  19  159.98    8.16
   6 -13  16   14.13    3.29
 -13   7  16   10.91    4.04
 -13   7  13   13.94    3.69
   6 -13  13   14.99    2.92
 -13   7  10    5.72    2.98
   6 -13  10    1.55    2.01
 -13   7   7   20.39    3.04
 -13   7   7   25.07    3.67
   6 -13   7   19.46    2.98
  13  -7  -7   21.79    2.93
 -13   7   4  142.73    7.07
  13  -7  -4  147.63    6.38
   6 -13   4  148.63    6.86
   6 -13   1   22.45    2.67
  13  -7  -1   23.80    2.34
  -6  13   2    8.67    1.56
   6 -13  -2    8.30    1.98
  -7  -6   5   -0.29    1.37
   6 -13  -5    1.73    1.54
  -6  13   8  255.71   10.17
   6 -13  -8  239.20    8.22
  -7  -6   8  248.19    9.03
  -6  13  11  244.24   10.29
   6 -13 -11  249.74    7.97
  -7  -6  11  219.45    8.79
  -7  -6  14    0.64    1.65
  -6  13  14    1.03    2.42
  -7  -6  17    7.43    2.17
  -6  13  17    5.93    3.06
  -6  13  20    9.79    3.60
  -7  -6  20   10.16    2.42
  -7  -6  23   14.39    3.06
  -7  -6  26   -2.01    2.87
 -13   6  26    1.57    4.57
   6   7  26    5.52    4.04
   7 -13  26    4.58    4.03
 -13   6  23    8.02    4.84
   6   7  23    2.61    3.22
   7 -13  23    8.90    3.82
 -13   6  20   39.40    6.25
   6   7  20   42.75    4.42
 -13   6  17   49.88    6.22
   7 -13  17   44.18    4.91
   7 -13  14    1.36    2.23
 -13   6  14   -0.67    3.96
   7 -13  11    3.13    2.30
   7 -13   8   18.20    2.86
  13  -6  -5   39.06    3.48
   7 -13   5   31.99    3.43
  13  -6  -2   53.43    3.70
   7 -13   2   58.23    4.02
  13  -6   1  126.86    5.01
   7 -13  -1  120.77    5.72
  -6  -7   1  107.11    5.40
  -7  13   4    6.53    1.36
   7 -13  -4    5.09    1.79
  -6  -7   7   14.72    2.26
   7 -13  -7   14.88    2.11
  -7  13   7   13.26    2.43
  -6  -7  10   14.10    2.44
   7 -13 -10   19.50    2.19
  -7  13  10   19.13    3.10
  -6  -7  13    0.98    1.71
  -7  13  13    0.50    2.52
  -6  -7  16    8.35    2.25
  -7  13  16    1.41    2.92
  -7  13  19    9.19    3.39
  -6  -7  19   11.07    2.53
  -7  13  22    8.81    3.76
  -6  -7  22    5.66    2.63
  -6  -7  25    4.98    2.83
  -7  13  25    5.27    3.90
  -6  -7  28    8.25    3.66
   5   8  30   24.34    5.57
   8 -13  27    2.73    4.10
   5   8  27   -1.82    3.88
   8 -13  24   39.54    5.77
   5   8  24   47.06    5.50
   5   8  21   12.15    3.21
   8 -13  18   18.05    3.96
   5   8  18   13.82    2.96
 -13   5  15    4.64    1.18
   8 -13  15    6.12    2.79
   8 -13  12    1.81    2.15
   8 -13   9    8.51    2.60
   8 -13   6   39.71    3.85
  13  -5  -6   42.72    3.81
  13  -5  -3   84.65    4.90
   8 -13   3   79.55    5.00
  13  -5   0  424.62   12.98
  -5  -8   0  408.23   13.06
   8 -13   0  424.99   13.62
   8 -13  -3    2.59    1.77
  -8  13   3    1.10    1.16
  -8  13   6  272.74   10.26
  -8  13   6  265.40    8.02
   8 -13  -6  279.16    9.27
   8 -13  -9   75.33    3.91
  -8  13   9   85.78    5.46
  -5  -8   9   81.80    4.80
  -5  -8  12    5.66    1.86
  -8  13  12    3.35    2.47
  -5  -8  15   38.55    3.57
  -8  13  15   34.54    4.43
  -8  13  18   74.19    6.53
  -5  -8  18   79.68    5.29
  -8  13  21    3.53    3.21
  -5  -8  21    3.04    2.57
  -5  -8  24   12.69    3.12
  -8  13  24   12.30    4.26
  -5  -8  27    3.13    3.32
  -8  13  27    4.90    3.90
  -5  -8  30   14.93    4.30
   4   9  31    6.58    4.78
   4   9  28    8.53    4.40
   9 -13  28   11.65    5.35
   9 -13  25   11.38    4.96
   4   9  25    9.94    3.75
   4   9  22   18.59    3.88
   9 -13  19   11.27    3.88
   4   9  19   11.54    3.00
 -13   4  16   10.49    1.57
   9 -13  16   13.61    3.57
   9 -13  13    8.60    3.18
   9 -13  10    2.27    2.10
   9 -13   7   24.22    3.34
  13  -4  -4   -0.18    2.06
   9 -13   4    0.78    1.88
  -4  -9  -4    0.40    1.33
  13  -4  -1  183.81    7.85
   9 -13   1  212.36    8.46
  -4  -9  -1  206.02    7.74
  -4  -9   2   18.22    2.38
  -9  13   2   12.19    1.69
   9 -13  -2   16.42    2.44
  -9  13   2   17.57    2.37
  -9  13   5  165.90    7.61
   9 -13  -5  190.78    7.28
  -9  13   5  178.50    5.95
  -9  13   8   57.54    4.58
   9 -13  -8   68.49    3.92
  -4  -9  11    0.34    1.57
  -9  13  11    1.42    2.26
  -4  -9  14   41.97    3.56
  -9  13  14   31.39    4.44
  -4  -9  17   52.29    4.33
  -9  13  17   50.00    5.36
  -9  13  20    3.11    3.28
  -4  -9  20    0.66    2.43
  -4  -9  23   25.19    4.06
  -9  13  23   35.78    5.49
  -4  -9  26   -0.28    3.03
  -9  13  26    3.52    3.85
  -4  -9  29   11.40    4.27
   3  10  29   -2.07    4.14
  10 -13  26   -3.55    5.16
   3  10  26   -0.35    3.51
   3  10  23   -0.30    3.00
   3  10  20   68.83    5.70
  10 -13  20   78.08    7.83
  10 -13  17   36.80    5.32
 -13   3  14    4.51    1.49
  10 -13  14    4.55    2.87
  10 -13  11    1.44    2.57
  10 -13   8    3.52    2.32
  -3 -10  -8    1.30    1.20
  -3 -10  -5   18.27    2.22
  10 -13   5   16.76    2.99
  10 -13   2    8.97    2.48
  -3 -10  -2   11.80    1.95
  13  -3  -2    8.98    2.72
 -10  13  -2   13.55    2.11
  10 -13  -1    2.52    1.86
  -3 -10   1    0.44    1.44
  13  -3   1    2.79    2.46
 -10  13   1    2.79    1.25
 -10  13   1    1.35    1.74
 -10  13   4   40.49    3.70
 -10  13   4   43.41    2.61
  10 -13  -4   43.39    3.74
  -3 -10   4   44.39    3.50
  10 -13  -7   17.79    2.75
 -10  13   7   13.99    2.73
 -10  13  10  226.09   10.14
  -3 -10  13   99.38    5.55
 -10  13  13  109.87    7.20
 -10  13  16   -0.31    3.07
  -3 -10  16   -1.50    2.04
 -10  13  19   15.82    4.16
  -3 -10  19   13.50    3.00
  -3 -10  22   46.11    4.83
 -10  13  22   45.26    6.04
  -3 -10  25    3.14    3.03
 -10  13  25   -0.44    3.87
  -3 -10  28   21.72    4.60
   2  11  27    0.76    3.65
   2  11  24    4.95    3.48
   2  11  21  115.59    7.54
  11 -13  21  125.77   10.10
   2  11  18  149.01    8.02
  11 -13  18  141.59   10.10
 -13   2  15    8.44    1.81
  11 -13  15   10.09    4.09
  11 -13  12   62.78    6.18
  -2 -11 -12   58.34    3.68
  -2 -11  -9    0.26    1.24
  11 -13   9    0.88    2.54
  -2 -11  -6   -0.27    1.29
  11 -13   6   -0.52    2.01
 -11  13  -6   -0.33    1.30
  -2 -11  -3   -0.28    1.37
  11 -13   3    0.24    2.22
 -11  13  -3    2.20    1.62
  -2 -11   0    4.76    1.72
  13  -2   0    3.26    3.36
 -11  13   0    0.47    1.67
  11 -13   0    2.42    2.24
  11 -13  -3   58.75    4.72
 -11  13   3   56.05    3.13
 -11  13   3   56.81    4.30
  -2 -11   3   58.52    3.93
  -2 -11   6   24.81    3.00
  11 -13  -6   20.55    3.24
 -11  13   6   24.66    3.35
 -11  13   9  646.86   20.95
 -11  13  12  322.09   13.36
 -11  13  15    0.61    2.83
  -2 -11  15    5.67    2.70
  -2 -11  18   65.85    5.21
 -11  13  18   52.02    5.92
  -2 -11  21   61.93    5.37
 -11  13  21   47.46    6.18
  -2 -11  24    3.77    3.02
 -11  13  24    8.66    4.46
  -2 -11  27   11.74    4.00
   1  12  25    6.74    3.93
  12 -13  22   23.05    6.16
   1  12  22   28.73    4.50
  12 -13  19  147.74   10.93
   1  12  19  135.05    7.96
  -1 -12 -16    2.77    1.79
 -13   1  16    2.23    1.82
  12 -13  16    1.26    4.02
  12 -13  13   59.30    6.68
 -13   1  13   60.83    3.76
  -1 -12 -13   60.61    3.82
  -1 -12 -10    1.99    1.53
  12 -13  10   -1.69    3.14
  -1 -12  -7   11.75    1.98
  12 -13   7   13.15    3.56
  -1 -12  -4    2.13    1.48
 -12  13  -4    0.60    1.40
  12 -13   4    0.84    2.46
  -1 -12  -1    5.27    1.63
  12 -13   1    4.30    2.82
 -12  13  -1    3.87    1.77
 -12  13   2  129.46    6.41
  -1 -12   2  107.43    5.71
  -1 -12   5   72.32    4.75
 -12  13   5   81.35    5.44
  -1 -12   8  133.17    6.63
 -12  13   8  198.09    8.92
 -12  13  11  271.52   11.95
 -12  13  14    2.17    2.96
  -1 -12  14    0.23    2.34
 -12  13  17   21.00    4.58
  -1 -12  17   23.50    3.51
  -1 -12  20   14.37    3.51
 -12  13  20   11.40    4.25
  -1 -12  23    0.59    2.78
 -12  13  23   -0.42    4.00
 -12  13  26    6.67    5.00
  -1 -12  26    6.99    3.61
   0  13  23   11.22    3.99
   0  13  20   15.62    3.74
  13 -13  20   27.35    6.49
  13 -13  17   19.65    5.71
 -13   0  17   16.71    2.71
   0  13  17   21.21    3.82
 -13   0  14    1.85    1.75
   0 -13 -14   -0.41    1.64
  13 -13  14   -3.10    4.72
   0 -13 -11   13.98    2.32
  13 -13  11    7.62    4.49
   0 -13  -8   55.78    3.73
  13 -13   8   46.97    6.12
   0 -13  -5   10.71    2.04
   0 -13  -2    1.07    1.59
 -13  13  -2    0.99    1.51
   0 -13   1   26.33    2.98
 -13  13   1   22.77    2.85
   0 -13   4  193.22    8.07
 -13  13   4  193.31    8.55
 -13  13   7   14.14    3.28
   0 -13   7   14.20    2.55
 -13  13  10   40.23    4.63
   0 -13  10   40.47    4.22
 -13  13  13   -0.31    2.84
   0 -13  16    2.33    2.57
 -13  13  16   -0.35    3.34
   0 -13  19   13.96    3.45
 -13  13  19   11.54    4.18
   0 -13  22    2.16    2.98
 -13  13  22    5.64    4.52
 -13  13  25   -0.96    4.41
   0 -13  25    0.68    3.39
 -14  13  24   -5.35    5.27
   1 -14  21   22.08    4.55
 -14  13  21   19.36    5.35
   1 -14  18   51.05    5.64
 -14  13  18   62.00    6.87
 -14  13  15    6.55    3.47
 -14  13  12   -0.60    2.73
   1 -14  12    1.69    2.26
 -14  13   9    0.26    2.42
   1 -14   9    0.22    2.06
 -14  13   6   71.37    5.36
   1 -14   6   71.30    4.94
 -14  13   3   38.18    3.78
   1 -14   3   43.76    3.76
   1 -14   0    2.40    1.74
   1 -14  -3    3.10    1.77
   1 -14  -6   10.91    2.13
   1 -14  -9   97.13    5.08
 -13  -1  12   33.56    3.24
   1 -14 -12   35.42    3.23
 -13  -1  15   -0.97    2.04
  -1  14  18    2.14    2.90
  -1  14  21    9.31    3.77
 -14  12  25   -2.57    5.56
 -14  12  22    1.37    4.28
   2 -14  22   10.52    4.01
   2 -14  19   20.12    4.19
 -14  12  19   16.97    4.96
 -14  12  16   24.98    4.56
   2 -14  13    3.03    2.45
 -14  12  13    0.93    2.90
 -14  12  10    2.94    2.55
   2 -14  10    1.80    2.18
 -14  12   7   69.70    5.31
   2 -14   7   71.46    5.04
   2 -14   4   37.66    3.56
 -14  12   4   24.77    3.24
 -14  12   1   85.85    4.91
   2 -14   1  102.74    5.37
   2 -14  -2   58.75    3.77
   2 -14  -5   21.89    2.52
   2 -14  -8   14.95    2.23
 -12  -2  11    2.38    1.65
   2 -14 -11    0.40    1.54
 -12  -2  14    1.13    1.74
 -12  -2  17   19.47    2.98
  -2  14  17   26.33    4.33
 -12  -2  20    4.37    2.28
  -2  14  20    4.69    3.39
  -2  14  23   20.97    4.68
 -14  11  26   -3.58    5.33
 -14  11  23   38.71    6.74
   3 -14  23   29.19    5.05
 -14  11  20   -1.28    4.30
   3 -14  20    0.98    3.09
 -14  11  17   16.90    4.53
   3 -14  14    6.34    2.88
 -14  11  14    5.52    3.37
   3 -14  11    3.30    2.24
 -14  11  11    0.28    2.74
   3 -14   8   13.17    2.88
 -14  11   8    6.59    3.23
 -14  11   5   14.60    2.90
   3 -14   5    9.69    2.29
 -14  11   2  119.43    6.16
   3 -14   2  134.58    6.50
   3 -14  -1  179.97    7.52
   3 -14  -4   46.87    3.37
   3 -14  -7  163.03    6.42
   3 -14 -10   36.18    2.92
 -11  -3  10   36.60    3.33
 -11  -3  13    0.98    1.67
   3 -14 -13   -1.11    1.51
 -11  -3  16   36.58    3.47
 -11  -3  19   33.07    3.47
  -3  14  19   23.57    4.39
 -11  -3  22    6.28    2.29
  -3  14  22    4.84    3.95
  -3  14  25    1.64    3.50
   4 -14  24   -1.13    3.84
 -14  10  24    2.37    4.21
 -14  10  21   -1.70    4.61
   4 -14  21   -4.04    3.63
 -14  10  18    6.87    3.94
  10   4  18   13.20    3.04
 -14  10  15   -1.69    2.98
   4 -14  15   -0.28    2.57
   4 -14  12   -0.74    2.23
 -14  10  12    2.94    2.88
   4 -14   9    0.66    1.73
 -14  10   9   -1.26    3.58
   4 -14   6    2.51    1.81
 -14  10   6    1.06    2.02
 -14  10   3   13.53    2.63
   4 -14   3   17.42    2.75
 -14  10   0   78.19    4.78
   4 -14   0   73.66    4.54
   4 -14  -3   53.48    3.81
   4 -14  -6  144.29    6.21
 -10  -4   9   -1.75    2.04
   4 -14  -9    2.51    1.50
   4 -14 -12   38.97    2.95
  -4  14  12   42.88    4.70
 -10  -4  12   38.73    3.52
  -4  14  15   43.90    4.81
 -10  -4  15   34.27    3.34
 -10  -4  18   19.60    2.88
 -10  -4  21    1.27    2.07
  -4  14  24    7.68    4.19
 -10  -4  24    4.30    2.77
 -14   9  25    6.52    5.31
   5 -14  25    0.79    3.94
   5 -14  22   33.49    5.41
 -14   9  22   24.98    5.76
 -14   9  19   90.44    8.15
   9   5  19   96.10    6.37
 -14   9  16    2.80    3.63
   5 -14  16    8.75    3.31
 -14   9  13   15.31    3.90
   5 -14  13   21.51    3.55
 -14   9  10   21.87    5.04
   5 -14  10    1.40    2.20
   5 -14   7    3.64    2.03
 -14   9   7    7.73    2.67
   5 -14   4    0.18    1.53
 -14   9   4    0.40    2.16
   5 -14   1    0.16    1.53
   5 -14  -2   62.50    4.00
   5 -14  -5   59.71    3.71
  -9  -5   5   55.63    3.94
   5 -14  -8  146.31    6.11
  -9  -5   8  154.34    6.85
  -5  14  11  351.02   14.05
   5 -14 -11  369.73   11.41
  -9  -5  11  365.56   12.46
  -5  14  14   51.13    5.04
  -9  -5  14   43.60    3.76
  -9  -5  17    6.77    2.17
  -5  14  17    4.72    3.11
  -9  -5  20   27.02    3.24
  -5  14  20   26.45    4.61
  -9  -5  23   19.41    3.49
  -5  14  26    3.50    4.19
  -9  -5  26    0.47    2.67
 -14   8  26    4.72    5.71
   6 -14  26    5.00    4.27
 -14   8  23   22.12    5.78
   6 -14  23   25.78    5.17
   8   6  23   26.95    4.57
 -14   8  20  161.67   11.29
   8   6  20  195.70    9.36
 -14   8  17   53.32    6.09
   6 -14  17   58.67    5.97
 -14   8  14   59.38    6.26
   6 -14  14   63.66    5.49
 -14   8  11   62.32    6.52
   6 -14  11   33.60    4.01
 -14   8   8    0.26    2.28
   6 -14   8   -0.22    1.84
   6 -14   5   -0.19    1.69
   6 -14   2    5.17    1.86
   6 -14  -1   37.77    3.21
   6 -14  -4   65.70    3.98
  -8  -6   4   65.10    4.20
   6 -14  -7  164.20    6.59
  -8  -6   7  170.35    7.29
  -6  14  10  670.86   21.44
   6 -14 -10  687.70   18.71
  -8  -6  10  639.92   19.68
  -6  14  13   98.80    6.66
  -8  -6  13   90.83    5.34
  -8  -6  16   36.44    3.53
  -6  14  16   27.58    4.32
  -8  -6  19   53.40    4.18
  -6  14  19   56.40    5.81
  -6  14  22   24.89    4.81
  -8  -6  22   34.24    3.90
  -8  -6  25   -1.20    2.75
 -14   7  27    9.34    6.14
 -14   7  24    2.49    4.63
   7   7  24    1.56    3.28
   7 -14  24    6.05    3.72
   7   7  21   53.26    5.16
 -14   7  21   48.02    6.91
 -14   7  18   70.31    7.35
   7 -14  18   85.91    7.10
   7 -14  15   14.41    3.70
 -14   7  15   13.96    4.20
 -14   7  12   23.24    4.77
   7 -14  12   25.14    3.66
   7 -14   9    3.46    2.35
   7 -14   6    2.43    1.91
   7 -14   3   -0.36    1.61
   7 -14   0    0.48    1.64
   7 -14  -3   52.63    3.72
  -7  -7   6    0.63    1.58
   7 -14  -6    1.80    1.73
  -7  14   9  246.97   10.58
   7 -14  -9  267.15    9.04
  -7  -7   9  265.95    9.97
  -7  14  12   70.99    5.55
  -7  -7  12   64.48    4.58
  -7  -7  15   19.92    2.96
  -7  14  15   14.31    3.49
  -7  -7  18   10.03    2.46
  -7  14  18   12.38    3.72
  -7  14  21    4.46    3.67
  -7  -7  21    6.80    2.62
  -7  14  24    2.85    3.67
  -7  -7  24    1.19    2.60
  -7  -7  27    1.93    3.12
   6   8  28    5.43    4.29
   8 -14  25   20.26    5.40
   6   8  25   16.29    4.47
   6   8  22   15.26    3.68
   8 -14  19    6.06    3.80
   6   8  19    8.65    2.79
   8 -14  16    2.53    2.99
   8 -14  13    8.51    3.00
   8 -14  10   80.89    5.91
   8 -14   7   19.40    3.09
   8 -14   4   -0.78    1.83
   8 -14   1    7.54    2.13
  -6  -8  -1    6.37    1.71
  -6  -8   2   12.79    2.20
   8 -14  -2   14.81    2.41
  -8  14   5  123.02    6.40
   8 -14  -5  126.34    5.83
  -6  -8   8    6.28    2.08
  -8  14   8    2.90    2.22
   8 -14  -8    0.12    1.97
  -6  -8  11    3.53    2.13
  -8  14  11    4.04    2.45
  -6  -8  14    1.10    1.85
  -8  14  14   -0.27    2.74
  -6  -8  17   15.38    2.74
  -8  14  17   17.59    3.92
  -8  14  20   38.45    5.44
  -6  -8  20   33.32    4.08
  -8  14  23    3.14    3.38
  -6  -8  23    1.67    2.38
  -8  14  26   -2.63    4.02
  -6  -8  29   -2.19    3.35
   5   9  29    9.01    4.71
   9 -14  26    1.44    4.44
   5   9  26    4.21    3.90
   5   9  23   33.16    4.65
   5   9  20    9.94    3.04
   9 -14  20    5.48    3.99
   9 -14  17   -5.23    3.72
   9 -14  14   15.13    3.71
   9 -14  11  180.04    9.34
   9 -14   8   94.90    6.06
   9 -14   5    0.21    1.86
  -5  -9  -2    1.78    1.33
   9 -14   2    0.19    1.79
  -5  -9   1    0.91    1.47
   9 -14  -1   -0.68    1.90
   9 -14  -4  143.99    6.14
  -9  14   4  133.20    6.29
   9 -14  -7   91.08    4.79
  -9  14   7   82.36    5.32
  -5  -9  10    2.68    1.91
  -9  14  10    4.43    2.53
  -5  -9  13   -0.19    1.90
  -9  14  13   -0.27    2.72
  -5  -9  16   31.79    3.41
  -9  14  16   39.90    5.03
  -9  14  19   84.63    7.12
  -5  -9  19  103.20    6.51
  -9  14  22   12.57    4.26
  -5  -9  22    9.58    3.27
  -5  -9  25    3.83    3.04
  -9  14  25   -2.13    4.11
   4  10  27    3.69    3.73
   4  10  24    2.85    3.25
  10 -14  21   -3.04    4.23
   4  10  21    2.66    2.57
  10 -14  18    3.89    3.91
  10 -14  15   -0.34    3.14
  10 -14  12   32.69    4.64
  10 -14   9  128.55    7.72
  -4 -10  -6    5.65    1.72
  10 -14   6    7.40    2.67
  -4 -10  -3    0.74    1.44
  10 -14   3    2.77    2.17
  -4 -10   0   -1.23    1.53
 -10  14   0    1.37    1.55
  10 -14   0    0.19    1.72
 -10  14   3   57.75    4.23
  10 -14  -3   59.80    4.32
  -4 -10   3   58.70    4.03
  10 -14  -6   35.23    3.41
 -10  14   6   32.07    3.57
 -10  14   9    9.26    2.56
  -4 -10  12   17.25    2.79
 -10  14  12   16.32    3.42
 -10  14  15   -1.52    2.78
  -4 -10  15    2.80    2.20
 -10  14  18   20.81    4.35
  -4 -10  18   13.68    3.19
 -10  14  21    5.27    3.88
  -4 -10  21    2.93    2.78
  -4 -10  24   -1.10    2.82
 -10  14  24    0.42    3.66
  -4 -10  27    1.24    3.20
   3  11  25   -2.05    3.47
  11 -14  22   32.23    6.41
   3  11  22   27.64    4.38
   3  11  19   60.76    5.20
  11 -14  19   53.51    7.04
  11 -14  16    5.83    4.05
  11 -14  13   59.62    6.41
  -3 -11 -10    2.88    1.78
  11 -14  10   -0.31    2.86
  -3 -11  -7   15.44    2.31
  11 -14   7   23.51    3.85
  -3 -11  -4    2.23    1.54
  11 -14   4    2.69    2.34
 -11  14  -4    3.13    1.69
  -3 -11  -1    4.93    1.77
  11 -14   1    5.12    2.40
 -11  14  -1    1.56    1.86
  -3 -11   2   25.01    2.78
  11 -14  -2   24.25    3.43
 -11  14   2   28.85    3.21
  11 -14  -5   10.62    2.65
  -3 -11   5   11.64    2.23
 -11  14   5   13.88    2.81
 -11  14   8   78.80    5.71
 -11  14  11  145.39    8.23
 -11  14  14    2.39    2.86
  -3 -11  14    3.61    2.11
 -11  14  17   10.72    3.92
  -3 -11  17   21.92    3.62
 -11  14  20   13.06    4.18
  -3 -11  20   10.78    3.05
  -3 -11  23    4.21    3.01
 -11  14  23    2.10    3.68
  -3 -11  26    5.01    3.32
   2  12  26    0.73    3.68
   2  12  23    6.85    3.52
  12 -14  23   17.26    5.94
  12 -14  20   96.41    9.08
   2  12  20   80.46    6.19
  12 -14  17   11.88    4.85
  -2 -12 -17   12.56    2.50
 -14   2  14   91.38    4.78
  -2 -12 -14  100.38    5.19
  12 -14  14   98.24    8.15
  12 -14  11   33.61    5.35
  -2 -12 -11   43.89    3.49
  12 -14   8    1.27    3.32
  -2 -12  -8    5.12    1.79
  12 -14   5   14.09    3.45
  -2 -12  -5    9.86    2.09
  -2 -12  -2    2.23    1.57
  12 -14   2    2.91    2.69
 -12  14  -2    2.19    1.87
  -2 -12   1   22.21    2.71
 -12  14   1   20.79    2.90
  12 -14  -1   18.02    3.42
 -12  14   4   63.75    4.86
  12 -14  -4   65.82    5.47
  -2 -12   4   50.85    4.03
  -2 -12   7   42.01    3.89
 -12  14   7   44.16    4.54
 -12  14  10  247.54   11.19
 -12  14  13   11.19    3.52
  -2 -12  16   48.01    4.73
 -12  14  16   42.52    5.33
  -2 -12  19   24.34    3.76
 -12  14  19   23.94    4.79
  -2 -12  22    5.49    3.21
 -12  14  22    0.85    3.92
  -2 -12  25    5.40    3.31
 -12  14  25    1.83    4.26
   1  13  24    2.72    3.32
  13 -14  21   10.12    6.06
   1  13  21    7.43    3.17
  13 -14  18   20.23    5.69
   1  13  18   19.92    3.50
 -14   1  15    7.40    2.18
  -1 -13 -15    6.30    2.19
  13 -14  15    6.28    4.29
  13 -14  12    2.04    4.15
  -1 -13 -12    2.39    1.97
 -14   1  12    5.52    2.00
  13 -14   9   25.42    5.20
  -1 -13  -9   36.77    3.32
  -1 -13  -6   27.95    3.01
  13 -14   6   26.40    4.84
  13 -14   3    2.56    3.20
  -1 -13  -3   -0.32    1.72
  -1 -13   0   11.59    2.27
 -13  14   0   10.76    2.38
  -1 -13   3   88.12    5.20
 -13  14   3   87.46    5.59
 -13  14   6    5.60    2.75
  -1 -13   6    3.77    2.06
 -13  14   9  120.91    7.40
  -1 -13   9  110.38    6.29
 -13  14  12   24.08    4.10
 -13  14  15   12.78    3.83
  -1 -13  18   -0.28    2.91
 -13  14  18    1.93    3.67
  -1 -13  21    2.40    2.96
 -13  14  21   -3.35    3.98
  -1 -13  24    7.50    3.80
 -13  14  24    2.29    4.41
   0  14  22   14.40    3.95
   0  14  19    1.48    2.84
 -14   0  16    0.32    1.96
 -14   0  13   22.16    2.90
   0 -14 -13   16.85    2.78
   0 -14 -10  174.35    7.49
   0 -14  -7   86.31    5.03
   0 -14  -4    1.97    1.67
   0 -14  -1   15.66    2.51
   0 -14   2   37.15    3.49
 -14  14   2   33.94    3.56
 -14  14   5   15.62    3.10
   0 -14   5   17.17    2.70
 -14  14   8   17.03    3.46
   0 -14   8   12.53    2.81
 -14  14  11    3.35    2.91
   0 -14  11    6.84    2.56
 -14  14  14   11.31    3.91
   0 -14  17    6.06    3.24
 -14  14  17    5.30    3.76
   0 -14  20   41.49    5.24
 -14  14  20   39.80    6.14
 -14  14  23   11.81    4.85
 -15  14  22   17.57    5.67
   1 -15  19   45.01    5.65
 -15  14  19   54.73    6.98
 -15  14  16    4.23    3.65
   1 -15  13   20.71    3.71
 -15  14  13   25.24    4.51
 -15  14  10   -1.12    2.62
   1 -15  10   -0.49    2.27
 -15  14   7    4.05    2.55
   1 -15   7   -1.53    2.53
   1 -15   4    3.68    2.02
   1 -15   1   10.50    2.19
   1 -15  -2   23.89    2.97
   1 -15  -5    2.69    1.83
   1 -15  -8  143.62    6.67
 -14  -1  11  140.85    6.80
   1 -15 -11  154.28    6.92
 -14  -1  14   -0.34    2.02
 -14  -1  17   13.17    2.73
  -1  15  17   11.11    3.49
  -1  15  20   14.92    4.05
 -15  13  23    2.50    5.21
 -15  13  20   15.50    5.18
   2 -15  20   18.05    4.56
 -15  13  17   13.60    4.56
   2 -15  14    0.56    2.71
 -15  13  14    2.73    3.22
   2 -15  11    7.58    2.72
 -15  13  11   -0.29    2.91
 -15  13   8   -0.25    2.46
   2 -15   8    0.90    2.08
 -15  13   5    3.46    2.42
   2 -15   5    6.39    2.47
   2 -15   2    0.19    1.84
   2 -15  -1    1.17    1.68
   2 -15  -4    1.90    1.61
   2 -15  -7   12.16    2.34
   2 -15 -10   47.39    3.66
 -13  -2  10   45.55    3.72
 -13  -2  13   -1.20    2.09
 -13  -2  16    1.09    2.23
 -13  -2  19    0.37    2.20
  -2  15  19    1.36    3.10
 -15  12  24    6.03    5.12
 -15  12  21    4.60    4.68
   3 -15  21    6.75    4.01
 -15  12  18    0.41    4.16
   3 -15  15    7.60    3.25
 -15  12  15    5.00    3.81
 -15  12  12   57.79    5.90
   3 -15  12   59.53    5.26
 -15  12   9   36.63    4.46
   3 -15   9   45.32    4.36
 -15  12   6   -0.22    2.35
   3 -15   6   -0.41    1.84
   3 -15   3    2.42    2.06
   3 -15   0   23.26    2.99
   3 -15  -3    3.78    1.77
   3 -15  -6   38.55    3.25
 -12  -3   9    7.24    2.20
   3 -15  -9    5.49    1.77
 -12  -3  12    6.24    2.15
 -12  -3  15    2.56    2.22
 -12  -3  18   41.93    3.97
 -12  -3  21   10.35    2.86
  -3  15  21    6.03    3.80
 -15  11  25    7.11    4.92
 -15  11  22   20.53    5.60
   4 -15  22   21.09    4.87
 -15  11  19    7.36    4.32
 -15  11  16    1.45    3.84
   4 -15  16   -0.92    3.23
   4 -15  13   32.22    4.28
 -15  11  13   30.40    4.92
 -15  11  10  105.99    7.05
   4 -15  10  111.68    6.93
   4 -15   7   10.77    2.59
 -15  11   7   13.54    3.21
   4 -15   4   -0.19    1.97
 -15  11   4    0.98    2.08
   4 -15   1   10.54    2.30
   4 -15  -2    8.85    2.07
   4 -15  -5  126.09    6.27
 -11  -4   8   22.91    3.03
   4 -15  -8   35.25    3.10
 -11  -4  11    0.70    1.91
   4 -15 -11    2.49    1.68
 -11  -4  14    4.79    2.21
  -4  15  14    3.21    3.11
  -4  15  17   54.80    5.80
 -11  -4  17   45.96    4.18
 -11  -4  20   31.78    3.68
  -4  15  23   -0.41    3.95
 -11  -4  23    2.95    2.59
   5 -15  23   -1.59    3.87
 -15  10  23   -3.35    4.88
 -15  10  20    3.83    4.54
 -15  10  17    0.75    3.56
   5 -15  17   -0.32    3.12
 -15  10  14    1.32    3.25
   5 -15  14    1.74    2.80
 -15  10  11   16.14    3.72
   5 -15  11   19.02    3.70
   5 -15   8   27.57    3.71
 -15  10   8   29.01    4.03
   5 -15   5   -0.40    2.08
 -15  10   5    5.10    2.94
   5 -15   2    1.42    1.88
   5 -15  -1   23.46    2.82
   5 -15  -4  128.40    6.01
 -10  -5   7    1.55    1.99
   5 -15  -7    3.59    1.79
   5 -15 -10   75.09    4.28
 -10  -5  10   68.73    4.78
 -10  -5  13   25.85    3.12
  -5  15  13   26.23    4.15
 -10  -5  16    3.43    2.16
  -5  15  16    6.22    3.17
 -10  -5  19    2.00    2.28
  -5  15  19    2.19    3.58
 -10  -5  22    1.47    2.40
 -15   9  24    5.51    5.36
   6 -15  24   -2.07    4.13
 -15   9  21   56.54    7.24
 -15   9  18   41.98    6.26
   6 -15  18   55.13    6.21
 -15   9  15   27.60    4.95
   6 -15  15   24.47    4.26
 -15   9  12   52.93    5.75
   6 -15  12   61.47    5.59
 -15   9   9    3.63    2.93
   6 -15   9   -1.44    2.39
 -15   9   6   18.30    4.42
   6 -15   6    6.15    2.41
   6 -15   3    6.71    2.15
   6 -15   0    1.68    1.79
   6 -15  -3   99.12    5.22
  -9  -6   6   -0.34    1.94
   6 -15  -6    2.71    1.72
  -6  15   9  281.40   12.03
   6 -15  -9  276.28    9.67
  -9  -6   9  263.49   10.19
  -6  15  12  133.72    7.98
  -9  -6  12  123.02    6.50
  -9  -6  15   10.52    2.47
  -6  15  15    5.87    3.10
  -9  -6  18   31.30    3.62
  -6  15  18   33.81    5.09
  -9  -6  21   16.19    3.04
  -6  15  21   16.27    4.49
  -9  -6  24   -1.04    3.05
 -15   8  25   12.59    6.52
 -15   8  22   14.21    5.54
   8   7  22   26.50    4.29
   7 -15  19   75.58    7.08
   8   7  19   78.70    5.81
 -15   8  19   65.94    7.44
   7 -15  16   10.19    3.77
 -15   8  16    7.96    4.22
 -15   8  13  111.42    8.20
   7 -15  13  124.66    7.94
   7 -15  10    6.06    2.78
   7 -15   7   15.75    3.05
   7 -15   4   12.85    2.50
   7 -15   1    9.66    2.23
   7 -15  -2   26.84    2.95
  -8  -7   5   11.82    2.36
   7 -15  -5   12.40    2.24
  -7  15   8  177.04    8.79
   7 -15  -8  171.81    7.21
  -8  -7   8  182.02    7.91
  -7  15  11  163.49    8.74
  -8  -7  11  172.09    7.83
  -8  -7  14   15.38    2.72
  -7  15  14   17.13    3.68
  -8  -7  17   65.67    4.86
  -7  15  17   59.48    5.92
  -7  15  20   11.48    4.21
  -8  -7  20   12.09    2.69
  -7  15  23   -3.74    4.28
  -8  -7  23   -1.91    2.89
  -8  -7  26   15.27    3.83
   7   8  23    5.90    3.47
   8 -15  20    8.52    4.11
   7   8  20    8.93    3.11
   8 -15  17    1.38    3.15
   8 -15  14   16.20    3.95
   8 -15  11   25.29    4.25
   8 -15   8   88.92    6.04
   8 -15   5   13.68    2.78
   8 -15   2    2.29    1.94
  -7  -8   1    3.46    1.79
   8 -15  -1    2.05    1.85
   8 -15  -4   30.41    3.09
  -7  -8   7   13.84    2.48
  -8  15   7   11.06    2.72
   8 -15  -7   14.41    2.52
  -8  15  10   86.52    6.06
  -7  -8  10   89.64    5.48
  -7  -8  13    8.37    2.52
  -8  15  13    6.37    2.93
  -7  -8  16   20.09    3.18
  -8  15  16   21.16    4.10
  -8  15  19    7.14    3.72
  -7  -8  19    2.32    2.47
  -8  15  22   12.39    4.29
  -7  -8  22    8.73    3.22
  -7  -8  25    6.39    3.27
  -7  -8  28    1.53    3.19
   6   9  27    0.37    3.74
   6   9  24   11.95    3.87
   6   9  21   18.22    3.66
   9 -15  21   16.36    4.49
   9 -15  18    5.24    3.86
   9 -15  15    4.01    3.41
   9 -15  12  139.97    8.55
   9 -15   9  358.06   14.03
   9 -15   6   22.05    3.42
   9 -15   3   30.74    3.51
  -6  -9  -3   24.22    2.67
  -6  -9   0   16.97    2.46
   9 -15   0   19.66    2.93
   9 -15  -3   29.69    3.18
  -9  15   3   30.09    3.28
  -6  -9   3   32.16    3.12
   9 -15  -6    2.16    2.19
  -9  15   6    4.05    2.05
  -6  -9   9   16.03    2.65
  -9  15   9   15.62    2.99
  -6  -9  12    8.50    2.48
  -9  15  12    6.11    3.01
  -6  -9  15    5.38    2.47
  -9  15  15    7.85    3.34
  -6  -9  18   55.55    4.76
  -9  15  18   50.13    5.95
  -6  -9  21   67.95    5.81
  -9  15  21   56.71    6.43
  -9  15  24    2.52    4.10
  -6  -9  24    4.52    3.07
  -6  -9  27   -0.30    2.98
   5  10  25   -0.67    3.48
  10 -15  22   20.82    5.36
   5  10  22   17.58    3.82
  10 -15  19   15.79    4.87
   5  10  19   11.33    3.04
  10 -15  16    4.79    3.50
  10 -15  13   41.71    5.28
  10 -15  10  375.29   15.05
  10 -15   7  100.09    6.74
  -5 -10  -7  106.91    5.44
  10 -15   4   39.71    4.12
  -5 -10  -4   39.31    3.29
  10 -15   1   43.36    4.01
  -5 -10  -1   50.29    3.73
  -5 -10   2   19.11    2.62
  10 -15  -2   19.52    2.82
 -10  15   2   16.82    2.61
  -5 -10   5   13.77    2.45
 -10  15   5    9.70    2.47
  10 -15  -5   10.13    2.37
 -10  15   8   -0.92    2.18
  -5 -10  11    2.79    2.08
 -10  15  11    0.52    2.31
  -5 -10  14   12.04    2.74
 -10  15  14   11.35    3.47
 -10  15  17   34.50    5.13
  -5 -10  17   31.48    3.73
 -10  15  20   75.97    7.15
  -5 -10  20   95.31    6.62
 -10  15  23    7.00    3.99
  -5 -10  23    5.37    3.23
  -5 -10  26    1.21    2.81
   4  11  26    2.12    3.34
   4  11  23   -0.30    2.91
  11 -15  23   -0.52    4.59
  11 -15  20   -0.92    3.95
   4  11  20    2.78    2.78
  11 -15  17    5.32    4.07
  11 -15  14   15.79    4.50
  11 -15  11   37.65    5.37
  -4 -11 -11   41.18    3.48
  11 -15   8   75.42    6.27
  -4 -11  -8   77.48    4.68
  11 -15   5    0.26    2.52
  -4 -11  -5   -0.16    1.68
  11 -15   2    5.43    2.64
  -4 -11  -2    5.79    1.95
 -11  15  -2    5.76    2.12
  11 -15  -1    1.30    2.17
  -4 -11   1   -0.89    1.63
 -11  15   1   -0.18    1.83
  -4 -11   4    1.67    1.65
  11 -15  -4    1.22    2.05
 -11  15   4    5.97    2.39
  -4 -11   7   -1.75    2.14
 -11  15   7    1.86    2.24
 -11  15  10    0.53    2.24
  -4 -11  13   14.10    2.65
 -11  15  13   16.72    3.72
 -11  15  16    8.86    3.63
  -4 -11  16    2.34    2.41
 -11  15  19   14.97    4.33
  -4 -11  19   18.41    3.56
  -4 -11  22    3.29    2.94
 -11  15  22    6.08    4.13
  -4 -11  25   -0.61    3.13
   3  12  24    4.78    3.26
  12 -15  21   16.52    5.83
   3  12  21   13.40    3.44
  12 -15  18    0.47    4.39
   3  12  18    2.15    2.47
  -3 -12 -18    2.97    2.13
  -3 -12 -15   53.48    4.06
  12 -15  15   61.29    6.88
  12 -15  12   48.85    6.24
  -3 -12 -12   51.98    3.92
  -3 -12  -9    5.98    2.12
  12 -15   9    0.33    3.42
  -3 -12  -6    8.26    2.16
  12 -15   6   11.90    3.52
  -3 -12  -3   23.77    2.88
  12 -15   3   18.15    3.80
 -12  15  -3   22.49    2.97
  -3 -12   0   27.36    3.05
 -12  15   0   28.23    3.42
  12 -15   0   22.14    3.80
  -3 -12   3   -1.31    2.02
  12 -15  -3    3.38    2.50
 -12  15   3    0.42    2.16
  -3 -12   6   -0.39    1.91
 -12  15   6   -0.97    2.31
  -3 -12   9   11.41    2.63
 -12  15   9   12.22    3.26
 -12  15  12    1.19    2.57
 -12  15  15   27.02    4.53
  -3 -12  15   26.29    3.87
 -12  15  18    2.93    3.64
  -3 -12  18    2.33    2.52
  -3 -12  21    1.69    2.82
 -12  15  21    0.41    3.76
  -3 -12  24    0.31    3.27
  13 -15  22    2.32    5.16
   2  13  22    1.19    2.74
   2  13  19    4.94    2.94
  13 -15  19   10.31    5.19
  -2 -13 -16    4.59    2.14
  13 -15  16    6.01    4.48
  13 -15  13   47.08    6.52
 -15   2  13   43.48    3.48
  -2 -13 -13   47.35    3.84
  -2 -13 -10   -0.16    2.04
  13 -15  10   -5.28    4.54
  -2 -13  -7    8.57    2.41
  13 -15   7    7.52    3.88
  -2 -13  -4    8.59    2.33
  13 -15   4    9.81    3.81
  13 -15   1   33.38    4.80
  -2 -13  -1   32.36    3.44
  -2 -13   2    3.60    2.06
 -13  15   2    1.50    2.41
  13 -15  -2    2.35    2.99
  -2 -13   5    0.60    1.85
 -13  15   5    5.11    2.69
 -13  15   8   15.88    3.43
  -2 -13   8   15.77    2.76
 -13  15  11    6.34    2.91
 -13  15  14   18.46    4.24
 -13  15  17   10.10    3.90
  -2 -13  17    7.73    3.03
  -2 -13  20   -0.89    2.95
 -13  15  20    0.42    4.05
 -13  15  23    3.60    4.39
  14 -15  20    4.71    5.11
   1  14  20    0.29    2.88
  14 -15  17    1.61    4.61
   1  14  17    4.47    2.57
 -15   1  14   -1.23    1.87
  14 -15  14   -2.42    5.07
  -1 -14 -14   -1.68    2.20
  14 -15  11   25.05    6.02
  -1 -14 -11   29.87    3.41
  -1 -14  -8   31.59    3.37
  14 -15   8   32.80    5.63
  -1 -14  -5   -0.17    1.97
  14 -15   5   -1.13    4.00
  -1 -14  -2    2.17    1.82
  -1 -14   1    2.26    1.88
  -1 -14   4    1.21    1.93
 -14  15   4    0.45    2.29
 -14  15   7    8.15    2.98
  -1 -14   7    5.61    2.24
 -14  15  10   10.87    3.35
  -1 -14  10   11.97    2.91
 -14  15  13    2.05    3.06
 -14  15  16    0.38    3.78
  -1 -14  19   15.18    3.81
 -14  15  19   12.46    4.53
 -14  15  22   17.36    5.52
   0  15  18    5.87    3.03
 -15   0  15    1.51    1.90
 -15   0  12   80.23    5.06
   0 -15 -12   88.76    5.33
   0 -15  -9  136.81    6.71
   0 -15  -6    4.98    2.21
   0 -15  -3   55.79    4.28
   0 -15   0   13.32    2.59
   0 -15   3    1.62    1.76
   0 -15   6    5.79    2.27
 -15  15   9    7.02    3.26
   0 -15   9    8.37    3.23
 -15  15  12    3.32    3.26
   0 -15  12    6.08    2.80
 -15  15  15    5.20    3.58
   0 -15  18   20.30    4.26
 -15  15  18   26.75    5.67
 -15  15  21   26.13    6.23
 -16  15  20   45.27    6.94
 -16  15  17   10.08    4.78
   1 -16  14   31.85    4.58
 -16  15  14   18.07    4.60
   1 -16  11   10.91    3.30
   1 -16   8    3.27    2.56
   1 -16   5    6.23    2.88
   1 -16   2   -0.84    2.35
   1 -16  -1   12.74    2.60
   1 -16  -4   21.09    2.96
   1 -16  -7   24.88    3.29
   1 -16 -10  123.57    6.46
 -15  -1  10  111.56    6.15
 -15  -1  13    9.84    2.60
 -15  -1  16    7.99    2.57
  -1  16  16   13.71    3.87
 -16  14  21   17.08    5.88
 -16  14  18   13.76    5.16
   2 -16  15   10.27    3.68
 -16  14  15    8.58    4.43
   2 -16  12   16.26    3.53
 -16  14  12   12.78    3.90
   2 -16   9    1.76    2.60
   2 -16   6    4.53    2.59
   2 -16   3   -0.71    2.35
   2 -16   0    0.78    2.03
   2 -16  -3    5.10    1.96
   2 -16  -6    4.30    1.92
   2 -16  -9   86.29    5.31
 -14  -2   9   86.19    5.33
 -14  -2  12    7.44    2.56
 -14  -2  15   19.56    3.13
 -14  -2  18   11.27    2.88
  -2  16  18   16.42    4.12
 -16  13  22    4.88    5.03
 -16  13  19   -2.64    4.68
   3 -16  16    4.49    3.49
 -16  13  16    0.78    3.91
   3 -16  13    0.29    2.86
 -16  13  13    1.34    3.32
 -16  13  10   42.60    5.08
   3 -16  10   64.15    5.52
   3 -16   7   13.94    2.97
   3 -16   4    0.62    2.10
   3 -16   1   -0.20    2.17
   3 -16  -2    1.14    1.93
   3 -16  -5   -1.53    2.00
   3 -16  -8   10.68    2.44
 -13  -3   8   12.11    2.44
 -13  -3  11    1.31    2.02
 -13  -3  14   18.63    3.18
  -3  16  14   24.76    4.69
 -13  -3  17   -1.41    2.47
 -13  -3  20   16.37    3.16
 -16  12  23    5.89    4.78
 -16  12  20   17.92    5.49
 -16  12  17   10.43    4.36
   4 -16  17   11.11    3.88
 -16  12  14   11.80    3.98
   4 -16  14   15.26    3.92
 -16  12  11  149.15    8.98
   4 -16  11  188.88    9.44
   4 -16   8  121.10    7.23
   4 -16   5    0.65    2.07
   4 -16   2    8.86    2.34
   4 -16  -1    2.29    1.88
   4 -16  -4    8.02    2.24
   4 -16  -7    0.92    2.03
 -12  -4   7    5.51    2.11
 -12  -4  10    2.44    2.06
 -12  -4  13   15.23    2.91
  -4  16  13   22.47    4.43
 -12  -4  16    2.03    2.39
  -4  16  16    5.80    3.65
 -12  -4  19   61.23    4.88
 -16  11  24    2.05    4.83
 -16  11  21    7.79    5.17
 -16  11  18    9.27    4.44
   5 -16  18    7.02    3.88
 -16  11  15    2.47    3.68
   5 -16  15    1.92    3.21
 -16  11  12   61.54    6.18
   5 -16  12   74.06    6.21
 -16  11   9  136.76    8.31
   5 -16   9  166.89    8.62
   5 -16   6    8.74    2.77
   5 -16   3    7.62    2.49
   5 -16   0    2.58    1.94
   5 -16  -3   15.55    2.65
   5 -16  -6    4.14    2.04
 -11  -5   6    5.14    2.01
 -11  -5   9    0.56    1.95
 -11  -5  12    3.38    2.28
  -5  16  12    2.37    3.18
 -11  -5  15    1.02    2.09
  -5  16  15    2.11    3.42
 -11  -5  18   39.76    4.13
  -5  16  18   50.92    6.20
 -11  -5  21   18.73    3.42
  -5  16  21   18.12    5.13
 -16  10  22    5.25    4.98
   6 -16  19    5.61    3.94
 -16  10  19    5.52    4.50
 -16  10  16    3.38    3.92
   6 -16  16    1.67    3.41
 -16  10  13    9.98    4.07
   6 -16  13    8.04    3.65
 -16  10  10   15.19    4.04
   6 -16  10   11.39    3.58
 -16  10   7    9.31    3.31
   6 -16   7    6.57    2.72
   6 -16   4    0.21    2.18
   6 -16   1    5.29    2.18
   6 -16  -2    0.35    1.86
 -10  -6   5    7.17    2.22
   6 -16  -5    9.87    2.22
 -10  -6   8    9.61    2.42
   6 -16  -8    9.19    2.24
 -10  -6  11    7.61    2.37
  -6  16  11    9.92    3.40
 -10  -6  14    5.54    2.48
  -6  16  14    2.65    3.17
 -10  -6  17   -0.21    2.32
  -6  16  17   -1.09    3.37
 -10  -6  20    3.72    2.75
  -6  16  20    2.39    3.74
 -10  -6  23   -1.94    2.80
 -16   9  23   10.51    5.59
 -16   9  20   22.87    5.63
   7 -16  20   29.33    5.41
   9   7  20   28.59    4.30
   7 -16  17    1.08    3.50
 -16   9  17    1.60    3.88
 -16   9  14   80.30    7.27
   7 -16  14   66.56    6.31
   7 -16  11   26.37    4.38
   7 -16   8   -0.74    2.57
   7 -16   5    9.13    2.71
   7 -16   2   64.42    4.80
   7 -16  -1   21.76    2.95
  -9  -7   4    7.86    2.15
   7 -16  -4    7.32    2.20
  -9  -7   7    2.64    2.06
   7 -16  -7    5.84    2.09
  -9  -7  10   28.41    3.34
  -7  16  10   20.48    3.77
  -9  -7  13    9.10    2.52
  -7  16  13    8.54    3.13
  -9  -7  16   28.65    3.63
  -7  16  16   30.74    4.76
  -9  -7  19    2.63    2.47
  -7  16  19   -1.51    3.58
  -7  16  22   -2.96    4.18
  -9  -7  22    0.24    2.73
  -9  -7  25    5.60    3.31
   8 -16  21   -0.42    3.38
   8   8  21    3.52    3.11
   8 -16  18   -4.16    3.78
   8 -16  15   37.42    5.47
   8 -16  12   24.60    4.51
   8 -16   9   11.38    3.23
   8 -16   6    4.01    2.56
   8 -16   3   21.65    3.26
   8 -16   0   37.33    3.76
  -8  -8   0   37.13    3.37
   8 -16  -3    0.71    1.96
  -8  -8   6   -0.57    1.72
   8 -16  -6    1.50    1.86
  -8  16   6    2.34    2.26
  -8  -8   9   34.95    3.63
  -8  16   9   37.17    4.27
  -8  -8  12   10.02    2.48
  -8  16  12    7.02    2.83
  -8  -8  15   47.63    4.34
  -8  16  15   56.48    5.81
  -8  -8  18   -0.44    2.30
  -8  16  18   -0.36    3.35
  -8  16  21    3.65    3.80
  -8  -8  21    8.03    3.05
  -8  -8  24    3.49    3.07
   7   9  25   -0.68    3.58
   7   9  22    3.39    3.17
   9 -16  22    4.96    4.16
   9 -16  19    4.46    4.03
   9 -16  16    2.54    3.27
   9 -16  13    1.29    3.39
   9 -16  10  120.60    7.86
   9 -16   7   32.67    4.32
   9 -16   4   16.69    3.30
  -7  -9  -1    6.99    2.06
   9 -16   1    4.43    2.55
  -7  -9   2    0.18    1.79
   9 -16  -2   -0.58    2.04
   9 -16  -5   -0.72    2.02
  -9  16   5    0.21    1.75
  -9  16   8   37.38    4.10
  -7  -9   8   42.28    3.89
  -7  -9  11    0.21    1.94
  -9  16  11   -0.27    2.61
  -7  -9  14   38.16    4.02
  -9  16  14   32.07    4.42
  -7  -9  17    0.86    2.31
  -9  16  17    1.71    3.22
  -9  16  20   30.86    5.30
  -7  -9  20   39.91    4.54
  -7  -9  23    9.32    3.21
   6  10  26   -2.50    3.95
   6  10  23    2.07    3.09
  10 -16  20   13.71    4.80
   6  10  20   11.44    3.20
  10 -16  17   13.91    4.32
  10 -16  14    8.04    3.85
  10 -16  11  208.15   10.83
  10 -16   8  128.66    7.93
  10 -16   5   38.86    4.50
  -6 -10  -5   43.59    3.80
  10 -16   2  136.75    7.42
  -6 -10  -2  136.50    6.67
  -6 -10   1   16.39    2.58
  10 -16  -1   13.23    2.89
 -10  16   1   14.98    2.71
  -6 -10   4   -0.20    2.02
  10 -16  -4   -0.77    2.10
 -10  16   4    1.82    1.87
 -10  16   7   26.21    3.48
  -6 -10  10    4.24    2.20
 -10  16  10    6.78    2.85
  -6 -10  13   29.46    3.69
 -10  16  13   25.11    4.12
  -6 -10  16    1.90    2.24
 -10  16  16    2.67    3.44
 -10  16  19   77.00    7.20
  -6 -10  19   68.20    5.54
 -10  16  22   26.43    5.45
  -6 -10  22   25.19    4.14
   5  11  24   -3.41    3.22
  11 -16  21    2.43    4.25
   5  11  21    4.74    2.90
  11 -16  18   10.05    4.64
  11 -16  15    5.45    3.97
  11 -16  12   41.93    5.57
  11 -16   9  140.00    8.72
  -5 -11  -9  137.20    6.56
  -5 -11  -6    1.20    2.15
  11 -16   6    2.50    2.95
 -11  16  -3   62.94    4.50
  11 -16   3   69.24    5.64
  -5 -11  -3   69.75    4.59
  -5 -11   0    3.35    2.07
 -11  16   0    4.02    2.23
  11 -16   0    5.32    2.60
  11 -16  -3    9.24    2.73
  -5 -11   3    7.85    2.30
 -11  16   3    7.47    2.43
  -5 -11   6   12.60    2.76
 -11  16   6   12.28    2.90
 -11  16   9   -1.55    2.31
  -5 -11  12   31.58    3.81
 -11  16  12   25.82    4.28
 -11  16  15   14.77    4.05
  -5 -11  15   10.92    2.76
 -11  16  18   25.10    4.78
  -5 -11  18   30.49    4.25
 -11  16  21   23.47    5.14
  -5 -11  21   29.41    4.30
   4  12  22    1.68    2.42
   4  12  19    2.88    2.42
  12 -16  19   -0.49    4.06
  12 -16  16   12.67    4.69
  -4 -12 -16   12.13    2.41
  -4 -12 -13   12.57    2.54
  12 -16  13   20.18    5.08
  -4 -12 -10    9.24    2.40
  12 -16  10    7.23    3.74
  -4 -12  -7    3.09    2.16
  12 -16   7    4.37    3.29
  -4 -12  -4   -0.72    2.26
  12 -16   4    1.42    2.89
 -12  16  -1   54.20    4.42
  12 -16   1   49.36    5.06
  -4 -12  -1   54.55    4.36
 -12  16   2   78.58    5.53
  12 -16  -2   82.32    6.14
  -4 -12   2   79.49    5.28
  -4 -12   5    5.39    2.33
 -12  16   5    5.46    2.70
  -4 -12   8    3.89    2.30
 -12  16   8    2.41    2.71
 -12  16  11   18.52    3.90
 -12  16  14   36.81    5.09
 -12  16  17    1.78    3.17
  -4 -12  17    1.13    2.73
 -12  16  20   14.63    4.29
  -4 -12  20   11.87    3.32
  13 -16  20   -1.62    4.60
   3  13  20   -0.52    2.34
  -3 -13 -17    0.69    1.86
  13 -16  17    3.41    4.08
  -3 -13 -14   27.03    3.19
  13 -16  14   31.20    6.04
  13 -16  11   17.01    4.86
  -3 -13 -11   22.93    3.04
  13 -16   8   -1.07    3.65
  -3 -13  -8    3.73    2.13
  13 -16   5    1.31    3.31
  -3 -13  -5    2.40    2.16
  13 -16   2  109.56    7.76
  -3 -13  -2  108.49    6.18
  13 -16  -1  198.69   10.31
 -13  16   1  191.98    9.09
  -3 -13   1  193.18    8.68
  -3 -13   4   13.38    2.73
 -13  16   4    7.42    3.19
  -3 -13   7   12.19    2.80
 -13  16   7    7.72    3.38
 -13  16  10   13.24    3.44
  -3 -13  10   11.80    2.78
 -13  16  13   13.83    3.83
 -13  16  16    0.73    3.57
  -3 -13  16    1.46    2.83
 -13  16  19    4.42    3.76
  -3 -13  19    6.56    2.87
 -13  16  22    0.44    4.30
  14 -16  18    0.55    4.60
   2  14  18    1.02    2.41
  -2 -14 -15   -0.53    1.97
  14 -16  15   -1.48    4.36
  -2 -14 -12    0.18    2.04
  14 -16  12   -2.22    4.21
  14 -16   9    0.41    3.84
  -2 -14  -9    1.29    1.89
  -2 -14  -6    8.59    2.51
  14 -16   6    9.14    4.32
  -2 -14  -3   10.58    2.73
  14 -16   3   14.03    4.58
  -2 -14   0   96.43    5.76
  -2 -14   3   21.54    3.27
  -2 -14   6    5.57    2.35
 -14  16   6    3.76    2.80
 -14  16   9    6.66    3.19
  -2 -14   9    0.68    2.13
 -14  16  12    4.37    3.30
  -2 -14  12    2.12    2.55
 -14  16  15    0.37    3.50
 -14  16  18    0.41    4.02
  -2 -14  18    5.94    3.13
 -14  16  21   -1.34    4.24
 -16   1  13   11.50    2.47
  -1 -15 -13   16.43    2.79
  -1 -15 -10   21.44    3.20
  -1 -15  -7    6.85    2.40
  -1 -15  -4   33.07    3.61
  -1 -15  -1    3.61    2.24
  -1 -15   2    5.76    2.43
  -1 -15   5    4.17    2.23
  -1 -15   8    3.67    2.45
 -15  16  11   -3.03    3.35
  -1 -15  11   -2.13    3.13
 -15  16  14    0.38    3.66
 -15  16  17    3.72    3.98
 -15  16  20    0.44    4.28
 -16   0  14    3.03    2.17
   0 -16 -11   38.16    3.86
 -16   0  11   33.71    3.53
   0 -16  -8    7.56    2.61
   0 -16  -5   31.10    3.66
   0 -16  -2   27.98    3.52
   0 -16   1   -1.13    2.19
   0 -16   4    6.19    2.69
   0 -16   7   12.52    3.27
   0 -16  10    4.39    3.05
   0 -16  13    5.28    3.06
 -16  16  16   -0.41    3.82
 -16  16  19   12.47    5.51
   1 -17  12    5.49    3.45
   1 -17   9   -1.37    2.75
   1 -17   6    5.21    3.04
   1 -17   3   10.32    3.06
   1 -17   0    3.99    2.60
   1 -17  -3    6.83    2.52
   1 -17  -6    3.80    2.41
   1 -17  -9    8.60    2.75
 -16  -1  12   -0.39    2.21
 -16  -1  15    1.40    2.35
 -17  15  19   17.94    5.44
   2 -17  13   33.30    4.83
   2 -17  10    9.34    3.53
   2 -17   7    0.76    2.62
   2 -17   4    9.91    3.07
   2 -17   1   20.13    3.49
   2 -17  -2    2.30    2.35
   2 -17  -5   -1.94    2.25
   2 -17  -8   15.12    2.73
 -15  -2  11   10.67    2.82
 -15  -2  14    9.93    2.82
 -15  -2  17   14.38    3.19
 -17  14  20   -3.27    4.31
 -17  14  17   12.84    4.92
   3 -17  14   24.23    4.33
   3 -17  11   -0.58    2.79
   3 -17   8    9.43    3.20
   3 -17   5    0.47    2.42
   3 -17   2    3.42    2.35
   3 -17  -1    4.21    2.45
   3 -17  -4    2.66    2.46
   3 -17  -7   17.02    3.04
 -14  -3  10    7.19    2.56
 -14  -3  13   15.91    3.13
 -14  -3  16   13.83    2.98
 -17  13  21    2.35    4.67
 -17  13  18   11.98    4.80
   4 -17  18   12.95    4.28
 -17  13  15    4.31    3.66
   4 -17  15   11.64    3.75
   4 -17  12   41.03    5.00
   4 -17   9   94.37    6.82
   4 -17   6    2.63    2.75
   4 -17   3   22.00    3.33
   4 -17   0    3.39    2.18
   4 -17  -3   -0.56    2.08
   4 -17  -6   10.15    2.64
 -13  -4   9    8.65    2.53
 -13  -4  12   14.64    3.12
 -13  -4  15   11.21    3.08
  -4  17  15   10.64    4.23
 -13  -4  18   14.40    3.31
 -17  12  22    0.49    4.69
 -17  12  19    7.78    4.73
 -17  12  16    6.44    4.19
   5 -17  16   10.08    3.85
   5 -17  13   25.89    4.53
   5 -17  10  158.32    8.97
   5 -17   7   20.51    3.64
   5 -17   4   35.99    4.12
   5 -17   1   30.92    3.70
   5 -17  -2    0.58    2.01
 -12  -5   5    4.65    2.10
   5 -17  -5   -1.28    2.30
 -12  -5   8    8.69    2.40
 -12  -5  11   10.60    2.68
  -5  17  11    8.08    3.81
 -12  -5  14   12.19    3.05
  -5  17  14   14.30    4.30
 -12  -5  17   14.35    3.30
  -5  17  17   23.22    5.01
 -12  -5  20   37.68    4.45
 -17  11  23    3.05    4.69
 -17  11  20    2.71    4.45
 -17  11  17    1.99    4.06
   6 -17  17   -0.37    3.49
 -17  11  14   -1.76    3.53
   6 -17  14    1.30    3.33
   6 -17  11   29.53    4.80
   6 -17   8   18.34    3.55
   6 -17   5    8.31    2.70
   6 -17   2    2.32    2.33
   6 -17  -1    4.94    2.52
   6 -17  -4    2.82    2.14
 -11  -6   4    5.21    2.11
 -11  -6   7    1.21    2.04
 -11  -6  10    0.21    2.12
  -6  17  10    1.41    3.53
 -11  -6  13   14.69    3.07
  -6  17  13   14.12    4.33
 -11  -6  16    0.90    2.37
  -6  17  16    0.38    3.41
 -11  -6  19   23.48    3.62
  -6  17  19   23.06    5.09
 -11  -6  22    4.93    2.93
 -17  10  21    2.84    4.90
   7 -17  18   -0.39    3.94
 -17  10  18    0.84    4.08
 -17  10  15    4.52    3.90
   7 -17  15    4.82    3.45
   7 -17  12    5.77    3.62
   7 -17   9   -1.91    2.93
   7 -17   6    0.25    2.52
   7 -17   3   22.89    3.51
   7 -17   0  122.99    6.85
 -10  -7   3   30.95    3.40
   7 -17  -3   26.06    3.44
 -10  -7   6    1.00    1.88
   7 -17  -6    2.23    2.26
 -10  -7   9    1.70    1.97
  -7  17   9    6.87    3.29
 -10  -7  12   21.45    3.35
  -7  17  12   19.15    4.35
 -10  -7  15   10.22    2.94
  -7  17  15    8.28    3.86
 -10  -7  18    2.10    2.49
  -7  17  18    3.96    3.93
 -10  -7  21    0.46    2.50
 -10  -7  24   -0.29    3.30
   8 -17  19    5.72    3.91
   8 -17  16   -0.74    3.54
   8 -17  13   25.84    4.86
   8 -17  10    6.95    3.44
   8 -17   7    2.85    2.91
   8 -17   4   20.70    3.66
   8 -17   1  199.97    9.12
   8 -17  -2   90.51    5.74
  -9  -8   5    2.79    2.11
   8 -17  -5    0.58    2.04
  -9  -8   8    7.53    2.44
  -8  17   8   12.65    3.21
  -9  -8  11   15.84    2.99
  -8  17  11   15.30    3.74
  -9  -8  14   19.17    3.44
  -8  17  14   23.96    4.42
  -9  -8  17   -0.71    2.44
  -8  17  17   -0.74    3.58
  -9  -8  20    1.83    2.51
  -8  17  20    2.87    3.84
  -9  -8  23   -0.29    3.15
   9 -17  20    0.44    3.63
   8   9  20   -2.06    2.80
   9 -17  17   -1.17    3.30
   9 -17  14    0.70    3.49
   9 -17  11   -2.19    3.63
   9 -17   8   -0.56    3.09
   9 -17   5    4.84    2.85
   9 -17   2   13.40    3.41
  -8  -9  -2   19.11    2.77
  -8  -9   1   51.50    4.19
   9 -17  -1   49.27    4.51
   9 -17  -4    1.02    2.21
  -9  17   4    0.92    2.00
  -8  -9   7    0.87    2.10
  -9  17   7   -1.24    2.39
  -8  -9  10    0.22    2.09
  -9  17  10   -0.27    2.66
  -8  -9  13   15.80    3.16
  -9  17  13    6.84    3.32
  -8  -9  16   -0.24    2.61
  -9  17  16    2.07    3.45
  -9  17  19    3.91    3.74
  -8  -9  19    6.67    2.88
  -8  -9  22   -1.15    3.09
   7  10  24   -4.10    3.42
   7  10  21    0.53    2.59
  10 -17  18   -0.42    3.70
  10 -17  15   -0.38    3.45
  10 -17  12   13.13    3.93
  10 -17   9   34.96    4.71
  10 -17   6   22.67    3.87
  -7 -10  -6   19.95    3.07
  10 -17   3   68.68    5.59
  -7 -10  -3   64.44    4.59
  -7 -10   0    1.53    2.04
  10 -17   0    0.92    2.70
  -7 -10   3    1.02    2.19
  10 -17  -3   -1.28    2.36
 -10  17   3    1.90    2.24
 -10  17   6   13.06    2.79
  -7 -10   9   22.64    3.41
 -10  17   9   20.64    3.50
  -7 -10  12    1.17    2.26
 -10  17  12    2.65    3.04
  -7 -10  15    2.19    2.48
 -10  17  15    0.99    3.19
 -10  17  18   14.25    4.28
  -7 -10  18   14.04    3.29
  -7 -10  21    8.29    3.55
   6  11  22    1.38    2.80
  11 -17  19    1.87    3.81
  11 -17  16    0.83    3.41
  11 -17  13    6.31    3.87
  -6 -11 -10   47.98    4.06
  11 -17  10   45.28    5.55
  -6 -11  -7   -0.18    2.25
  11 -17   7    2.96    3.00
  11 -17   4  111.36    7.20
  -6 -11  -4  101.44    5.98
  -6 -11  -1   24.54    3.30
  11 -17   1   28.28    4.17
 -11  17  -1   31.98    3.55
  -6 -11   2    2.49    2.20
 -11  17   2    3.32    2.45
  11 -17  -2    1.88    2.63
  -6 -11   5   26.74    3.65
 -11  17   5   26.88    3.76
 -11  17   8   34.98    4.18
  -6 -11  11    5.15    2.59
 -11  17  11    0.87    2.93
  -6 -11  14    9.79    2.73
 -11  17  14    6.84    3.68
 -11  17  17   11.56    4.20
  -6 -11  17    9.39    2.95
 -11  17  20   13.79    4.58
  -6 -11  20   29.61    4.76
   5  12  20    0.25    2.31
  12 -17  17   -2.31    4.16
  12 -17  14    2.05    3.43
  -5 -12 -14    0.90    1.95
  -5 -12 -11    2.73    2.11
  12 -17  11    8.50    3.94
  -5 -12  -8    0.56    2.01
  12 -17   8   -0.66    3.06
  -5 -12  -5   12.75    2.84
  -5 -12  -2    1.00    2.34
  12 -17   2    1.97    3.15
 -12  17   1   46.10    4.48
  12 -17  -1   45.74    5.02
  -5 -12   1   53.21    4.45
  -5 -12   4   27.79    3.61
 -12  17   4   30.45    4.11
  -5 -12   7    5.27    2.46
 -12  17   7    3.95    2.97
 -12  17  10    2.34    2.82
  -5 -12  13   12.81    3.01
 -12  17  13   11.40    3.82
 -12  17  16   -1.42    3.26
  -5 -12  16    0.53    2.55
 -12  17  19   20.51    4.83
  -5 -12  19   19.59    4.09
  13 -17  18    6.18    4.95
  -4 -13 -15   -0.18    1.81
  13 -17  15   -3.25    4.28
  -4 -13 -12    4.61    2.16
  13 -17  12    4.55    3.90
  -4 -13  -9    3.17    2.13
  13 -17   9    5.28    4.00
  -4 -13  -6    1.75    2.12
  13 -17   6    3.80    3.76
  -4 -13  -3   33.99    3.84
  13 -17   3   29.56    4.86
  -4 -13   0  181.21    8.54
  13 -17   0  185.70   10.09
 -13  17   3   65.16    5.62
  -4 -13   3   54.04    4.76
  -4 -13   6   12.12    2.91
 -13  17   6    3.59    3.28
  -4 -13   9   31.57    3.98
 -13  17   9   25.81    4.48
 -13  17  12   26.57    4.52
 -13  17  15    2.14    3.45
  -4 -13  15   -2.22    2.72
 -13  17  18   14.08    4.56
  -4 -13  18    9.47    3.47
  14 -17  16    0.51    4.44
  -3 -14 -13    0.19    1.86
  14 -17  13   -0.46    4.43
  -3 -14 -10    7.26    2.49
  14 -17  10    7.97    4.23
  -3 -14  -7   13.57    2.77
  14 -17   7   15.50    4.51
  -3 -14  -4    0.20    2.21
  14 -17   4    1.10    3.76
  14 -17   1  129.69    9.31
  -3 -14  -1  147.29    7.48
  -3 -14   2   93.37    6.04
  -3 -14   5    6.48    2.63
  -3 -14   8   47.55    4.51
 -14  17   8   44.20    5.21
 -14  17  11   15.02    3.83
  -3 -14  11   10.05    3.14
 -14  17  14   -1.83    3.59
 -14  17  17    6.02    4.26
 -14  17  20    2.19    4.13
  15 -17  14   -0.53    4.89
  15 -17  11    0.49    4.31
  -2 -15 -11    0.40    1.93
  -2 -15  -8   17.71    2.91
  15 -17   8   10.83    4.85
  -2 -15  -5   28.00    3.49
  15 -17   5   20.30    5.41
  -2 -15  -2   14.80    3.24
  -2 -15   1   46.58    4.42
  -2 -15   4   -1.17    2.29
  -2 -15   7    3.00    2.52
  -2 -15  10    0.27    2.74
 -15  17  13   -0.75    3.79
  -2 -15  13   -2.19    3.38
 -15  17  16   -0.41    3.84
 -15  17  19    4.02    4.65
 -17   1  12   -0.18    2.09
  -1 -16  -9    2.29    2.34
  -1 -16  -6   34.04    3.81
  -1 -16  -3   20.65    3.39
  -1 -16   0    2.26    2.66
  -1 -16   3   -0.22    2.23
  -1 -16   6    4.78    2.83
  -1 -16   9   11.95    3.63
  -1 -16  12    7.16    3.35
 -16  17  18    0.88    4.28
 -17   0  13   -0.95    2.26
   0 -17  -7    8.52    2.76
   0 -17  -4   16.99    3.25
   0 -17  -1    1.21    2.20
   0 -17   2   -0.96    2.59
   0 -17   5    3.50    3.02
   0 -17   8   22.15    4.18
   1 -18   7    3.38    3.26
   1 -18   4    3.04    2.98
   1 -18   1    8.79    3.11
   1 -18  -2    0.47    2.65
 -17  -1  11   -0.20    2.29
   2 -18   8    3.69    3.11
   2 -18   5    0.26    2.71
   2 -18   2   38.26    4.41
   2 -18  -1   50.07    5.11
   2 -18  -4   -1.36    2.50
   2 -18  -7    2.18    2.45
 -16  -2  10   -1.66    2.34
 -16  -2  13   -0.21    2.32
   3 -18  12   14.69    3.92
   3 -18   9    8.92    3.30
   3 -18   6    0.79    2.75
   3 -18   3   18.89    3.61
   3 -18   0   57.97    5.03
   3 -18  -3   13.17    3.17
   3 -18  -6   -0.46    2.57
 -15  -3   9   -0.21    2.22
 -15  -3  12    5.99    2.75
 -15  -3  15   11.53    3.11
   4 -18  13    5.90    3.40
   4 -18  10    5.59    3.27
   4 -18   7    3.48    2.91
   4 -18   4    2.20    2.55
   4 -18   1    4.52    2.63
   4 -18  -2    3.39    2.59
   4 -18  -5    0.83    2.29
 -14  -4   8    4.22    2.45
 -14  -4  11    1.30    2.39
 -14  -4  14   11.73    3.15
 -14  -4  17    1.41    2.59
   5 -18  14    1.71    3.39
   5 -18  11   36.10    4.80
   5 -18   8   26.51    4.20
   5 -18   5   16.49    3.51
   5 -18   2   22.73    3.57
   5 -18  -1    0.65    2.38
   5 -18  -4    1.47    2.54
 -13  -5   7   25.83    3.50
 -13  -5  10    6.34    2.61
 -13  -5  13    4.19    2.68
  -5  18  13    8.18    4.59
 -13  -5  16    0.48    2.57
 -13  -5  19   11.12    3.32
 -18  12  21    6.73    5.10
   6 -18  15   -1.41    3.42
   6 -18  12   10.54    3.64
   6 -18   9   24.85    4.27
   6 -18   6   20.99    3.78
   6 -18   3   47.23    4.59
   6 -18   0    1.10    2.50
   6 -18  -3   10.61    3.05
 -12  -6   3    8.11    2.41
 -12  -6   6   27.81    3.56
 -12  -6   9   14.33    3.01
 -12  -6  12    3.29    2.66
  -6  18  12    5.67    3.98
 -12  -6  15   -0.96    2.51
  -6  18  15    2.10    4.02
 -12  -6  18   19.35    3.85
 -12  -6  21    2.26    2.84
 -18  11  19   -1.33    4.15
   7 -18  16    1.13    3.58
   7 -18  13    0.33    3.22
   7 -18  10    0.59    3.06
   7 -18   7    8.36    3.19
   7 -18   4    8.59    3.04
   7 -18   1   22.56    3.63
   7 -18  -2   53.48    4.90
 -11  -7   2   54.25    4.47
 -11  -7   5    6.16    2.39
 -11  -7   8    5.11    2.54
  -7  18   8    2.48    3.54
 -11  -7  11    5.20    2.72
  -7  18  11    9.53    3.97
 -11  -7  14    1.46    2.45
  -7  18  14    1.55    3.73
 -11  -7  17   15.08    3.47
  -7  18  17   12.67    5.09
 -11  -7  20   11.68    3.56
   8 -18  17   -1.20    3.59
   8 -18  14   -2.51    3.39
   8 -18  11    1.57    3.09
   8 -18   8   15.59    3.85
   8 -18   5    0.51    2.68
   8 -18   2   89.73    6.22
   8 -18  -1  160.72    8.25
 -10  -8   4    4.21    2.31
 -10  -8   7   32.93    3.89
  -8  18   7   38.32    4.95
 -10  -8  10   36.29    4.13
  -8  18  10   33.49    4.90
 -10  -8  13   10.28    3.08
  -8  18  13   13.35    4.05
 -10  -8  16   -0.25    2.59
  -8  18  16    5.09    4.06
 -10  -8  19   10.48    3.36
   9 -18  15    1.13    3.68
   9 -18  12    0.34    3.44
   9 -18   9    4.89    3.24
   9 -18   6    8.33    3.41
  -9  -9  -3   24.57    3.22
   9 -18   3   27.67    4.31
  -9  -9   0  147.92    7.46
   9 -18   0  155.36    8.32
  -9  -9   6   31.28    3.85
  -9  18   6   26.77    3.98
  -9  -9   9   26.53    3.67
  -9  18   9   22.77    4.19
  -9  -9  12    4.68    2.81
  -9  18  12    8.08    3.58
  -9  -9  15    0.25    2.64
  -9  18  15   -0.36    3.30
  -9  -9  18    7.21    3.03
  -9  18  18    5.59    3.92
  10 -18  16    0.41    3.54
  10 -18  13   -2.17    3.22
  10 -18  10   -0.32    2.94
  10 -18   7    9.42    3.57
  -8 -10  -4    5.86    2.45
  10 -18   4    9.46    3.38
  -8 -10  -1   16.84    3.03
  10 -18   1   12.95    3.88
  -8 -10   2    7.19    2.58
 -10  18   2   11.15    3.01
 -10  18   5    1.95    2.40
 -10  18   8    1.34    2.67
  -8 -10  11    6.19    2.75
 -10  18  11    1.81    2.77
  -8 -10  14    2.54    2.61
 -10  18  14   -0.34    3.31
  -8 -10  17    1.80    2.60
 -10  18  17    1.51    3.42
   7  11  20   11.04    3.25
  11 -18  17    4.44    4.13
  11 -18  14   -1.57    3.18
  11 -18  11    0.35    3.33
  11 -18   8    4.46    3.32
  -7 -11  -8   -0.38    2.24
  -7 -11  -5   35.05    3.86
  11 -18   5   46.52    5.18
  -7 -11  -2   12.51    2.88
  11 -18   2   16.10    3.76
  -7 -11   1   -1.51    2.40
  11 -18  -1   -1.55    3.02
 -11  18   1   -0.65    2.40
  -7 -11   4   -3.43    2.82
 -11  18   4    4.47    2.85
 -11  18   7   25.79    3.88
 -11  18  10   33.79    4.69
  -7 -11  10   49.69    4.79
  -7 -11  13    1.80    2.59
 -11  18  13    3.89    3.42
  -7 -11  16    0.25    2.52
 -11  18  16   -0.73    3.71
  -6 -12 -15    0.19    1.93
  -6 -12 -12   -0.39    1.89
  12 -18  12    4.29    3.36
  -6 -12  -9   -0.98    2.01
  12 -18   9    2.82    3.59
  12 -18   6   18.06    4.13
  -6 -12  -6   14.44    2.95
  12 -18   3   17.08    3.95
  -6 -12  -3   12.97    2.87
  12 -18   0    0.29    3.17
  -6 -12   0   -1.97    2.39
  -6 -12   3    3.44    2.56
 -12  18   3    4.07    2.83
  -6 -12   6   14.70    3.23
 -12  18   6   15.90    3.66
 -12  18   9   34.34    4.69
  -6 -12  12    8.72    3.09
 -12  18  12    6.80    3.76
 -12  18  15    1.42    3.44
  -6 -12  15   -1.52    2.60
 -12  18  18   -0.38    3.72
  -5 -13 -16    3.31    2.15
  13 -18  16    1.47    4.48
  -5 -13 -13    0.79    1.94
  13 -18  13    3.06    3.76
  -5 -13 -10   -1.19    2.05
  13 -18  10    4.35    3.83
  -5 -13  -7    1.83    2.08
  13 -18   7    2.88    3.39
  -5 -13  -4   -1.92    2.34
  13 -18   4   -2.02    3.50
  -5 -13  -1   26.93    3.83
  13 -18   1   28.03    4.75
  -5 -13   2   19.85    3.41
  -5 -13   5    2.17    2.39
 -13  18   5   -0.28    2.98
  -5 -13   8    1.51    2.75
 -13  18   8    2.11    3.18
 -13  18  11   -2.31    3.53
 -13  18  14    1.77    3.31
  -5 -13  14   -0.27    2.71
 -13  18  17    7.27    4.17
  -4 -14 -14    1.20    1.97
  14 -18  14   -2.43    4.74
  -4 -14 -11   -0.82    2.09
  14 -18  11   -0.88    3.92
  14 -18   8    2.44    4.07
  -4 -14  -8    4.88    2.38
  -4 -14  -5   -0.65    2.14
  14 -18   5    1.14    3.68
  -4 -14  -2   51.60    4.73
  -4 -14   1   67.82    5.37
  -4 -14   4    0.73    2.45
  -4 -14   7   33.57    4.14
 -14  18  10    7.70    3.85
  -4 -14  10    9.42    3.04
 -14  18  13    3.25    3.78
 -14  18  16    7.06    4.25
  15 -18  15   -2.19    5.44
  -3 -15 -12   -1.07    2.10
  -3 -15  -9    1.29    2.19
  15 -18   9    1.39    4.58
  -3 -15  -6    9.70    2.60
  15 -18   6   17.01    5.07
  -3 -15  -3    6.33    2.63
  -3 -15   0   52.85    4.78
  -3 -15   3    2.18    2.56
  -3 -15   6   21.80    3.76
  -3 -15   9    4.43    2.76
 -15  18  15    5.69    4.21
  -2 -16 -10   -1.11    2.28
  -2 -16  -7   17.06    3.33
  -2 -16  -4    3.67    2.60
  -2 -16  -1   11.73    3.14
  -2 -16   2    1.98    2.63
  -2 -16   5    1.82    2.43
  -2 -16   8    1.39    2.78
 -18   1  11    1.48    2.27
  -1 -17  -8    3.43    2.62
  -1 -17  -5    2.10    2.54
  -1 -17  -2   -1.92    2.74
  -1 -17   1   -1.83    2.34
  -1 -17   4   -0.26    2.45
  -1 -17   7   15.03    3.97
   0 -18  -6   -1.64    2.71
   0 -18  -3   -0.46    2.60
   0 -18   0    1.53    2.59
   0 -18   3    6.65    3.01
   1 -19  -1    2.83    3.17
   1 -19  -4   -0.52    2.77
   2 -19   3    5.64    3.08
   2 -19  -3   15.43    3.98
   3 -19   7   14.52    3.58
   3 -19   4    4.86    2.97
   3 -19   1   88.28    6.41
   3 -19  -2   43.51    4.66
 -16  -3   8    4.83    2.56
 -16  -3  11    3.58    2.46
   4 -19   8    0.59    2.79
   4 -19   5    1.35    2.67
   4 -19   2   31.70    4.23
   4 -19  -1   32.54    4.28
   4 -19  -4    0.23    2.54
 -15  -4   7    4.86    2.59
 -15  -4  10   -0.90    2.37
 -15  -4  13    4.57    2.90
   5 -19   6    0.27    2.48
   5 -19   3    6.41    3.10
   5 -19   0    2.90    2.54
   5 -19  -3    2.13    2.59
 -14  -5   6   -1.55    2.47
 -14  -5   9    9.59    2.85
 -14  -5  12    0.98    2.54
 -14  -5  15   -1.01    2.57
   6 -19  13   -0.69    3.45
   6 -19  10    7.20    3.50
   6 -19   7    2.27    3.00
   6 -19   4   30.37    4.26
   6 -19   1   16.88    3.45
   6 -19  -2   -0.48    2.57
 -13  -6   5    0.88    2.28
 -13  -6   8   24.77    3.65
 -13  -6  11   18.48    3.64
  -6  19  11   20.90    5.69
 -13  -6  14   -0.51    2.61
   7 -19  11    1.29    3.15
   7 -19   8    2.65    2.87
   7 -19   5   29.79    4.27
   7 -19   2    6.32    2.96
   7 -19  -1    1.95    2.76
 -12  -7   1    2.53    2.41
 -12  -7   4    5.74    2.49
 -12  -7   7    6.66    2.56
 -12  -7  10   12.68    3.36
  -7  19  10   14.79    4.86
 -12  -7  13   -0.26    2.95
  -7  19  13   -1.72    4.07
 -12  -7  16    4.21    2.91
   8 -19  12    3.79    3.36
   8 -19   9    0.93    2.76
   8 -19   6    6.16    3.14
   8 -19   3    2.62    2.93
   8 -19   0   49.55    5.05
 -11  -8   3   15.93    3.16
 -11  -8   6    3.71    2.64
 -11  -8   9    6.25    2.84
  -8  19   9    8.61    4.01
 -11  -8  12    3.11    3.00
  -8  19  12   -0.38    3.44
 -11  -8  15    0.27    2.81
   9 -19  13   -1.10    3.46
   9 -19  10    0.99    3.21
   9 -19   7    3.63    3.17
   9 -19   4   -0.83    2.84
 -10  -9  -1   72.82    5.28
   9 -19   1   76.22    6.02
 -10  -9   5   18.11    3.40
  -9  19   5   15.86    3.92
 -10  -9   8   35.84    4.33
  -9  19   8   36.06    5.07
 -10  -9  11    4.96    2.99
  -9  19  11    4.42    3.66
 -10  -9  14    3.79    3.02
  -9  19  14    2.29    3.89
  10 -19  14    1.17    3.55
  10 -19  11   -1.75    3.27
  10 -19   8   -1.59    3.32
  -9 -10  -5    1.02    2.12
  -9 -10  -2   22.62    3.34
  10 -19   2   20.76    4.21
  -9 -10   1   22.79    3.31
 -10  19   4    9.10    3.09
  -9 -10   7   11.02    3.22
 -10  19   7    9.38    3.52
  -9 -10  10    2.10    2.75
 -10  19  10   -1.56    3.22
  -9 -10  13    6.78    3.07
 -10  19  13    1.40    3.43
  11 -19  15   -2.10    3.94
  11 -19  12    0.76    3.51
  11 -19   9    0.69    3.08
  -8 -11  -9    2.82    2.13
  -8 -11  -6    4.12    2.22
  11 -19   6    5.70    3.30
  -8 -11  -3   -0.64    2.17
  11 -19   3    4.18    3.07
  -8 -11   0    2.44    2.37
 -11  19   0    2.28    2.48
  -8 -11   3    2.63    2.59
 -11  19   3    2.45    2.54
 -11  19   6   -3.18    2.83
  -8 -11   9   33.42    4.32
 -11  19   9   18.16    3.93
  -8 -11  12   30.33    4.25
 -11  19  12   20.71    4.22
 -11  19  15    1.82    3.39
  12 -19  13    2.07    4.15
  -7 -12 -13    5.07    2.40
  -7 -12 -10    0.21    2.04
  12 -19  10    2.64    3.58
  -7 -12  -7   -1.47    2.03
  12 -19   7   -1.39    3.06
  -7 -12  -4   -0.21    2.20
  12 -19   4    2.61    3.47
  -7 -12  -1    1.14    2.26
  -7 -12   2    4.56    2.64
 -12  19   2    7.80    3.20
  -7 -12   5    0.25    2.44
 -12  19   5   -0.53    2.78
 -12  19   8   40.42    5.00
  -7 -12  11   54.63    5.28
 -12  19  11   54.21    5.87
 -12  19  14    1.07    3.37
  -6 -13 -17   10.64    3.07
  -6 -13 -14    0.83    2.16
  13 -19  14    0.46    4.33
  -6 -13 -11    3.15    2.20
  13 -19  11   -2.48    3.73
  -6 -13  -8    0.21    1.91
  13 -19   8   -0.38    3.79
  -6 -13  -5   -1.10    2.23
  13 -19   5    1.43    3.50
  -6 -13   1    4.34    2.51
  -6 -13   4    6.84    2.86
  -6 -13   7    4.25    2.85
 -13  19   7    4.84    3.31
 -13  19  10   22.68    4.51
 -13  19  13    6.41    3.86
 -13  19  16    1.52    3.61
  -5 -14 -15   -0.42    2.50
  -5 -14 -12    2.57    2.31
  14 -19  12    1.41    4.52
  -5 -14  -9   -0.22    2.20
  14 -19   9    3.45    4.28
  -5 -14  -6    0.69    2.27
  14 -19   6    2.03    3.77
  -5 -14  -3   -1.17    2.20
  -5 -14   0    3.41    2.60
  -5 -14   3   10.63    3.09
  -5 -14   6   16.11    3.54
  -5 -14   9    1.68    2.86
 -14  19  12   -3.60    3.80
 -14  19  15   -0.39    3.74
  -4 -15 -13    3.15    2.48
  15 -19  13   -1.55    5.36
  -4 -15 -10    4.58    2.72
  15 -19  10   -1.42    4.62
  -4 -15  -7   -0.93    2.41
  15 -19   7   -4.92    4.63
  -4 -15  -4   -0.24    2.18
  -4 -15  -1    4.67    2.59
  -4 -15   2    1.53    2.75
  -4 -15   5   25.28    4.14
  -3 -16 -11    2.11    2.61
  16 -19   8    3.57    5.13
  -3 -16  -8    0.48    2.54
  -3 -16  -5   -0.73    2.63
  -3 -16  -2   -0.25    2.41
  -3 -16   1   -1.28    2.60
  -3 -16   4    5.91    3.00
  -2 -17  -9    0.49    2.54
  -2 -17  -6   -1.72    2.92
  -2 -17  -3   -0.50    2.59
  -2 -17   0   -1.83    2.72
  -1 -18  -4    1.78    2.80
   3 -20  -1   24.05    4.22
   4 -20   3   13.81    3.94
   4 -20   0   39.57    4.80
   5 -20   7    0.60    3.05
   5 -20   4    2.83    2.85
   5 -20   1    8.90    3.37
   6 -20   8    0.31    3.20
   6 -20   5   -1.74    3.01
   6 -20   2    2.98    2.97
   6 -20  -1    0.26    2.81
   7 -20   9   -3.86    3.66
   7 -20   6    2.39    3.10
   7 -20   3    6.44    3.28
   7 -20   0    3.24    2.93
 -13  -7   3    3.44    2.51
   8 -20  10    1.67    3.13
   8 -20   7    1.22    2.94
   8 -20   4    1.44    2.98
   8 -20   1   -0.28    2.87
 -12  -8   2   -0.92    2.22
 -12  -8   5   -1.19    2.48
  -8  20   8    2.79    3.92
   9 -20  11    4.67    3.81
   9 -20   8   -1.97    3.44
   9 -20   5   -2.74    3.37
 -11  -9  -2    1.97    2.23
   9 -20   2   -0.58    3.06
 -11  -9   4    3.59    2.51
  -9  20   4    0.96    3.13
 -11  -9   7    7.56    3.16
  -9  20   7   11.64    3.98
  -9  20  10    0.37    3.67
  10 -20  12    6.02    3.90
  10 -20   9    4.83    3.74
  10 -20   6   -3.23    3.84
 -10 -10  -6   -0.64    2.05
 -10 -10  -3    3.74    2.25
  10 -20   3   -2.16    3.41
 -10 -10   0    5.92    2.55
 -10  20   3   -0.28    2.81
 -10 -10   6   24.07    3.97
 -10  20   6   15.65    3.88
 -10  20   9    1.64    3.42
 -10  20  12    0.74    3.59
  11 -20  10    0.74    3.62
  -9 -11 -10    2.76    2.36
  -9 -11  -7    0.65    2.01
  11 -20   7    6.14    3.52
  -9 -11  -4   -0.67    2.22
  11 -20   4   -1.29    2.96
  -9 -11  -1    1.14    2.21
  -9 -11   2    1.47    2.23
 -11  20   2    2.06    2.74
 -11  20   5    6.97    3.02
 -11  20   8   -0.31    2.98
 -11  20  11   12.57    3.99
  -8 -12 -11    1.30    2.19
  12 -20  11    2.82    4.00
  -8 -12  -8    0.66    2.23
  12 -20   8   -1.12    3.64
  -8 -12  -5    2.01    2.06
  12 -20   5    0.35    3.23
  -8 -12  -2    0.23    2.17
  -8 -12   1    0.75    2.48
  -8 -12   4    9.94    3.12
 -12  20   4    5.15    3.10
 -12  20   7    4.80    3.11
 -12  20  10   39.46    5.17
 -12  20  13    8.96    4.01
  -7 -13 -12    5.73    2.67
  13 -20  12    6.62    4.73
  -7 -13  -9    1.99    2.23
  13 -20   9    2.04    4.43
  -7 -13  -6    1.83    2.36
  13 -20   6    4.60    3.77
  -7 -13  -3    2.17    2.33
  -7 -13   0    0.75    2.40
  -7 -13   3   13.18    3.25
 -13  20   9   26.30    4.66
 -13  20  12   10.09    4.03
  -6 -14 -10    5.50    2.63
  14 -20  10    1.82    4.52
  -6 -14  -7    3.57    2.62
  14 -20   7    4.71    4.23
  -6 -14  -4    2.70    2.53
  -6 -14  -1    3.30    2.63
  -5 -15  -8   23.22    3.83
  15 -20   8   14.58    5.65
  -5 -15  -5   -0.50    2.51
  -5 -15  -2    1.29    2.67
  16 -20   9   26.58    7.19
   6 -21   3    0.31    3.09
   7 -21   4    1.24    3.22
   8 -21   5    2.21    3.43
   9 -21   6    1.99    3.31
  -9  21   6   -1.11    3.82
  10 -21   7    6.65    3.95
  10 -21   4   -3.36    3.58
 -10  21   2    1.19    2.75
 -10  21   5    9.37    3.72
  11 -21   8   14.02    4.54
  11 -21   5   -1.76    3.59
 -11  21   4    8.17    3.18
 -11  21   7   -0.95    2.81
  12 -21   9    3.58    4.38
  12 -21   6    0.76    4.16
 -12  21   9    6.72    3.66
  13 -21   7    2.07    4.31
   0   0   0    0.00    0.00


TITL hy in R-3
REM R-3 (#148 in standard setting)
CELL 0.71073  16.335602  16.335602  29.444916  90.0000  90.0000 120.0000
ZERR   30.00   0.000819   0.000819   0.001407   0.0000   0.0000   0.0000
LATT  3
SYMM -y, x-y, z
SYMM -x+y,-x, z
SFAC C H N O
UNIT 330.00 300.00 30.00 30.00
TREF
HKLF 4
END
_computing_structure_solution     'SHELXT 2014/5 (Sheldrick, 2014)'
;
_shelx_hkl_checksum              7870
_shelx_fab_file
;
   -1    2    0     78.02      0.00
    0    3    0     34.82      0.00
   -2    4    0     26.05      0.00
   -4    5    0     14.38      0.00
   -1    5    0     11.52      0.00
   -3    6    0      3.11      0.00
    0    6    0      7.10      0.00
   -5    7    0      2.19      0.00
   -2    7    0      0.17      0.00
   -7    8    0      4.50      0.00
   -4    8    0     -2.47      0.00
   -1    8    0      5.94      0.00
   -6    9    0      0.04      0.00
   -3    9    0     -0.34      0.00
    0    9    0      2.48      0.00
   -8   10    0      0.60      0.00
   -5   10    0     -3.93      0.00
   -2   10    0     -0.71      0.00
  -10   11    0      2.09      0.00
   -7   11    0     -3.02      0.00
   -4   11    0     -3.70      0.00
   -1   11    0      0.27      0.00
   -9   12    0      0.23      0.00
   -6   12    0     -3.62      0.00
   -3   12    0     -0.77      0.00
    0   12    0     -0.69      0.00
  -11   13    0     -1.55      0.00
   -8   13    0      1.21      0.00
   -5   13    0     -0.05      0.00
   -2   13    0     -2.03      0.00
  -13   14    0     -0.96      0.00
  -10   14    0      0.21      0.00
   -7   14    0     -0.18      0.00
   -4   14    0     -0.73      0.00
   -1   14    0     -0.68      0.00
  -12   15    0     -0.12      0.00
   -9   15    0      0.49      0.00
   -6   15    0      0.53      0.00
   -3   15    0     -1.60      0.00
    0   15    0      0.63      0.00
  -14   16    0     -0.79      0.00
  -11   16    0     -0.51      0.00
   -8   16    0     -0.36      0.00
   -5   16    0      2.53      0.00
   -2   16    0     -0.56      0.00
  -16   17    0     -0.27      0.00
  -13   17    0     -0.35      0.00
  -10   17    0      0.06      0.00
   -7   17    0      1.92      0.00
   -4   17    0      1.37      0.00
   -1   17    0     -2.65      0.00
  -15   18    0     -1.11      0.00
  -12   18    0      0.74      0.00
   -9   18    0      0.14      0.00
   -6   18    0      2.18      0.00
   -3   18    0     -1.25      0.00
    0   18    0     -3.09      0.00
  -17   19    0     -0.87      0.00
  -14   19    0      3.86      0.00
  -11   19    0     -0.91      0.00
   -8   19    0     -0.48      0.00
   -5   19    0      2.50      0.00
  -13   20    0      1.54      0.00
  -10   20    0     -1.31      0.00
   -7   20    0      1.34      0.00
   -4   20    0      0.32      0.00
   -3    2    1    -38.90      0.00
    0    2    1    -64.68      0.00
   -5    3    1     -7.78      0.00
   -2    3    1    -46.81      0.00
    1    3    1    -20.94      0.00
   -7    4    1      5.58      0.00
   -4    4    1    -19.01      0.00
   -1    4    1    -26.55      0.00
    2    4    1     -2.31      0.00
   -9    5    1      2.32      0.00
   -6    5    1     -3.18      0.00
   -3    5    1    -18.95      0.00
    0    5    1    -10.14      0.00
    3    5    1      2.07      0.00
  -11    6    1      5.39      0.00
   -8    6    1     -1.48      0.00
   -5    6    1     -9.42      0.00
   -2    6    1     -5.86      0.00
    1    6    1     -3.33      0.00
    4    6    1      2.83      0.00
  -13    7    1      1.05      0.00
  -10    7    1      1.68      0.00
   -7    7    1     -6.88      0.00
   -4    7    1     -1.56      0.00
   -1    7    1     -6.10      0.00
    2    7    1     -1.12      0.00
    5    7    1      2.15      0.00
  -15    8    1      0.72      0.00
  -12    8    1      1.12      0.00
   -9    8    1     -2.23      0.00
   -6    8    1     -3.55      0.00
   -3    8    1      0.09      0.00
    0    8    1     -5.07      0.00
    3    8    1      0.67      0.00
    6    8    1     -1.21      0.00
  -17    9    1     -0.67      0.00
  -14    9    1     -0.35      0.00
  -11    9    1      1.41      0.00
   -8    9    1     -2.33      0.00
   -5    9    1      0.74      0.00
   -2    9    1     -2.25      0.00
    1    9    1     -1.98      0.00
    4    9    1     -0.70      0.00
    7    9    1      0.52      0.00
  -19   10    1      1.10      0.00
  -16   10    1     -2.04      0.00
  -13   10    1      1.43      0.00
  -10   10    1     -1.81      0.00
   -7   10    1      1.21      0.00
   -4   10    1      3.65      0.00
   -1   10    1     -0.51      0.00
    2   10    1      0.11      0.00
    5   10    1      0.17      0.00
    8   10    1     -0.06      0.00
  -18   11    1     -0.93      0.00
  -15   11    1      0.75      0.00
  -12   11    1      0.86      0.00
   -9   11    1     -1.34      0.00
   -6   11    1      4.56      0.00
   -3   11    1      1.90      0.00
    0   11    1     -1.32      0.00
    3   11    1      0.97      0.00
    6   11    1      0.75      0.00
    9   11    1      1.85      0.00
  -20   12    1     -0.23      0.00
  -17   12    1     -2.89      0.00
  -14   12    1      2.35      0.00
  -11   12    1     -0.10      0.00
   -8   12    1      0.44      0.00
   -5   12    1      2.52      0.00
   -2   12    1      0.50      0.00
    1   12    1      1.62      0.00
    4   12    1      0.16      0.00
    7   12    1     -0.46      0.00
  -19   13    1     -2.03      0.00
  -16   13    1      0.17      0.00
  -13   13    1      1.51      0.00
  -10   13    1      0.36      0.00
   -7   13    1      0.20      0.00
   -4   13    1     -0.19      0.00
   -1   13    1      0.96      0.00
    2   13    1      0.35      0.00
    5   13    1     -1.49      0.00
  -18   14    1     -1.97      0.00
  -15   14    1     -0.10      0.00
  -12   14    1      1.30      0.00
   -9   14    1     -1.54      0.00
   -6   14    1      0.21      0.00
   -3   14    1      2.10      0.00
    0   14    1     -0.25      0.00
    3   14    1      1.67      0.00
    6   14    1     -4.38      0.00
  -20   15    1     -1.98      0.00
  -17   15    1      2.07      0.00
  -14   15    1      0.00      0.00
  -11   15    1     -0.04      0.00
   -8   15    1      0.30      0.00
   -5   15    1     -1.41      0.00
   -2   15    1      0.54      0.00
    1   15    1     -0.09      0.00
    4   15    1     -1.45      0.00
  -19   16    1      1.88      0.00
  -16   16    1      0.34      0.00
  -13   16    1      0.39      0.00
  -10   16    1      0.00      0.00
   -7   16    1     -0.76      0.00
   -4   16    1     -0.85      0.00
   -1   16    1      0.03      0.00
    2   16    1      1.20      0.00
  -18   17    1      4.80      0.00
  -15   17    1      0.97      0.00
  -12   17    1      0.12      0.00
   -9   17    1     -0.29      0.00
   -6   17    1     -3.32      0.00
   -3   17    1      0.64      0.00
    0   17    1      1.60      0.00
  -17   18    1      0.54      0.00
  -14   18    1     -0.63      0.00
  -11   18    1     -0.12      0.00
   -8   18    1     -0.17      0.00
   -5   18    1     -2.00      0.00
   -2   18    1      4.04      0.00
  -16   19    1      0.55      0.00
  -13   19    1     -2.85      0.00
  -10   19    1      1.09      0.00
   -7   19    1     -0.77      0.00
   -4   19    1     -0.86      0.00
   -1   19    1      4.47      0.00
  -12   20    1      1.55      0.00
   -6   20    1     -1.80      0.00
   -3   20    1      2.14      0.00
   -2    2    2     60.44      0.00
    1    2    2     33.35      0.00
   -4    3    2     14.36      0.00
   -1    3    2     46.92      0.00
    2    3    2      5.49      0.00
   -6    4    2     -4.28      0.00
   -3    4    2     29.85      0.00
    0    4    2     17.64      0.00
    3    4    2     -6.66      0.00
   -8    5    2     -4.19      0.00
   -5    5    2      9.50      0.00
   -2    5    2     20.97      0.00
    1    5    2      1.95      0.00
    4    5    2     -2.37      0.00
  -10    6    2     -2.93      0.00
   -7    6    2      2.63      0.00
   -4    6    2     12.05      0.00
   -1    6    2      7.24      0.00
    2    6    2     -0.81      0.00
    5    6    2     -4.73      0.00
  -12    7    2     -2.91      0.00
   -9    7    2      1.17      0.00
   -6    7    2      7.56      0.00
   -3    7    2      2.79      0.00
    0    7    2      5.25      0.00
    3    7    2     -0.79      0.00
    6    7    2      0.01      0.00
  -14    8    2     -0.14      0.00
  -11    8    2     -1.82      0.00
   -8    8    2      3.52      0.00
   -5    8    2      2.68      0.00
   -2    8    2      4.29      0.00
    1    8    2      2.12      0.00
    4    8    2     -0.43      0.00
    7    8    2     -0.77      0.00
  -16    9    2      0.16      0.00
  -13    9    2      0.18      0.00
  -10    9    2     -0.42      0.00
   -7    9    2      1.53      0.00
   -4    9    2     -1.17      0.00
   -1    9    2      2.44      0.00
    2    9    2      0.46      0.00
    5    9    2      0.83      0.00
    8    9    2      0.00      0.00
  -18   10    2     -0.23      0.00
  -15   10    2      0.29      0.00
  -12   10    2     -1.39      0.00
   -9   10    2      1.68      0.00
   -6   10    2     -1.97      0.00
   -3   10    2     -2.04      0.00
    0   10    2      1.49      0.00
    3   10    2     -1.10      0.00
    6   10    2     -1.37      0.00
    9   10    2     -1.37      0.00
  -20   11    2     -0.97      0.00
  -17   11    2      2.52      0.00
  -14   11    2     -2.53      0.00
  -11   11    2      1.12      0.00
   -8   11    2     -0.60      0.00
   -5   11    2     -4.46      0.00
   -2   11    2     -0.39      0.00
    1   11    2     -0.31      0.00
    4   11    2     -0.25      0.00
    7   11    2     -0.47      0.00
  -19   12    2      0.25      0.00
  -16   12    2      0.75      0.00
  -13   12    2     -2.10      0.00
  -10   12    2      0.80      0.00
   -7   12    2     -1.62      0.00
   -4   12    2     -0.62      0.00
   -1   12    2      0.48      0.00
    2   12    2     -1.16      0.00
    5   12    2     -0.56      0.00
    8   12    2     -1.31      0.00
  -18   13    2      3.07      0.00
  -15   13    2     -0.82      0.00
  -12   13    2     -1.83      0.00
   -9   13    2      0.73      0.00
   -6   13    2     -0.78      0.00
   -3   13    2     -0.81      0.00
    0   13    2     -0.75      0.00
    3   13    2     -0.56      0.00
  -20   14    2      1.73      0.00
  -17   14    2      0.38      0.00
  -14   14    2     -0.42      0.00
  -11   14    2     -0.66      0.00
   -8   14    2      1.02      0.00
   -5   14    2      0.49      0.00
   -2   14    2     -1.18      0.00
    1   14    2      0.09      0.00
    4   14    2      0.15      0.00
  -19   15    2      1.79      0.00
  -16   15    2     -0.92      0.00
  -13   15    2     -0.26      0.00
  -10   15    2      0.66      0.00
   -7   15    2     -0.68      0.00
   -4   15    2      0.18      0.00
   -1   15    2      1.01      0.00
    2   15    2     -1.58      0.00
    5   15    2      3.63      0.00
  -18   16    2     -3.80      0.00
  -15   16    2     -0.07      0.00
  -12   16    2     -0.04      0.00
   -9   16    2     -0.02      0.00
   -6   16    2      2.99      0.00
   -3   16    2     -0.33      0.00
    0   16    2      0.56      0.00
    3   16    2     -1.05      0.00
  -17   17    2     -1.59      0.00
  -14   17    2     -1.00      0.00
  -11   17    2      0.07      0.00
   -8   17    2      0.15      0.00
   -5   17    2      2.46      0.00
   -2   17    2     -1.73      0.00
    1   17    2     -1.19      0.00
  -16   18    2     -0.16      0.00
  -13   18    2      1.32      0.00
  -10   18    2     -0.04      0.00
   -7   18    2      1.27      0.00
   -4   18    2      0.46      0.00
   -1   18    2     -4.19      0.00
  -15   19    2      1.13      0.00
  -12   19    2      0.07      0.00
   -6   19    2      1.46      0.00
   -3   19    2     -1.97      0.00
  -11   20    2     -2.59      0.00
   -8   20    2      0.82      0.00
  -10   21    2     -0.76      0.00
    0    0    3   -103.22      0.00
    1    1    3    -57.04      0.00
   -1    2    3    -67.23      0.00
    2    2    3     -9.36      0.00
   -3    3    3    -28.36      0.00
    0    3    3    -28.70      0.00
    3    3    3      6.87      0.00
   -5    4    3     -1.28      0.00
    1    4    3     -4.71      0.00
    4    4    3      6.67      0.00
   -7    5    3      5.79      0.00
   -4    5    3    -18.46      0.00
   -1    5    3    -15.44      0.00
    2    5    3      5.61      0.00
    5    5    3      3.18      0.00
   -9    6    3      0.86      0.00
   -6    6    3     -5.82      0.00
   -3    6    3    -14.11      0.00
    0    6    3     -2.95      0.00
    3    6    3      1.21      0.00
    6    6    3      3.24      0.00
  -11    7    3      2.84      0.00
   -8    7    3     -2.46      0.00
   -5    7    3     -8.12      0.00
   -2    7    3     -5.52      0.00
    1    7    3     -1.13      0.00
    4    7    3      2.05      0.00
    7    7    3      0.00      0.00
  -13    8    3     -0.17      0.00
  -10    8    3      1.22      0.00
   -7    8    3     -4.06      0.00
   -4    8    3     -1.92      0.00
   -1    8    3     -4.73      0.00
    2    8    3     -0.37      0.00
    5    8    3     -0.89      0.00
    8    8    3      1.42      0.00
  -15    9    3      0.19      0.00
  -12    9    3      0.61      0.00
   -9    9    3     -0.02      0.00
   -6    9    3     -1.62      0.00
   -3    9    3     -0.18      0.00
    0    9    3     -0.90      0.00
    3    9    3      0.82      0.00
    6    9    3      1.22      0.00
    9    9    3      0.59      0.00
  -17   10    3     -0.79      0.00
  -14   10    3      0.81      0.00
  -11   10    3      0.19      0.00
   -8   10    3     -0.12      0.00
   -5   10    3      2.67      0.00
   -2   10    3      0.74      0.00
    1   10    3     -0.73      0.00
    4   10    3      0.64      0.00
    7   10    3      1.11      0.00
   10   10    3      1.72      0.00
  -19   11    3      1.59      0.00
  -16   11    3     -1.31      0.00
  -13   11    3      2.32      0.00
  -10   11    3     -2.21      0.00
   -7   11    3      1.56      0.00
   -4   11    3      2.73      0.00
   -1   11    3     -1.07      0.00
    2   11    3      1.70      0.00
    5   11    3      1.27      0.00
    8   11    3      1.53      0.00
  -18   12    3     -2.00      0.00
  -15   12    3      1.32      0.00
  -12   12    3      1.21      0.00
   -9   12    3     -0.33      0.00
   -6   12    3      2.22      0.00
   -3   12    3     -0.26      0.00
    0   12    3      0.11      0.00
    3   12    3     -0.13      0.00
    6   12    3      0.08      0.00
  -20   13    3     -0.50      0.00
  -17   13    3     -2.17      0.00
  -14   13    3      1.12      0.00
  -11   13    3      1.09      0.00
   -8   13    3     -0.80      0.00
   -5   13    3      0.04      0.00
   -2   13    3      0.66      0.00
    1   13    3      0.90      0.00
    4   13    3      0.84      0.00
    7   13    3     -1.08      0.00
  -19   14    3     -2.77      0.00
  -16   14    3      0.29      0.00
  -13   14    3      1.22      0.00
  -10   14    3     -0.30      0.00
   -7   14    3      0.31      0.00
   -4   14    3      0.33      0.00
   -1   14    3     -0.34      0.00
    2   14    3      0.95      0.00
    5   14    3     -3.45      0.00
  -21   15    3     -0.45      0.00
  -18   15    3      0.08      0.00
  -15   15    3      0.29      0.00
  -12   15    3     -0.20      0.00
   -9   15    3     -0.76      0.00
   -6   15    3     -0.85      0.00
   -3   15    3      0.40      0.00
    0   15    3     -1.50      0.00
    3   15    3      1.70      0.00
  -20   16    3     -1.17      0.00
  -17   16    3      2.61      0.00
  -14   16    3      0.47      0.00
  -11   16    3     -0.14      0.00
   -8   16    3      0.74      0.00
   -5   16    3     -3.02      0.00
   -2   16    3     -0.09      0.00
    1   16    3      0.12      0.00
  -19   17    3      4.00      0.00
  -16   17    3     -0.27      0.00
  -13   17    3      0.38      0.00
  -10   17    3     -0.41      0.00
   -7   17    3     -1.64      0.00
   -4   17    3     -0.27      0.00
   -1   17    3      1.49      0.00
    2   17    3      1.31      0.00
  -18   18    3      2.52      0.00
  -15   18    3      0.54      0.00
  -12   18    3     -0.56      0.00
   -6   18    3     -1.64      0.00
   -3   18    3      1.30      0.00
    0   18    3      2.78      0.00
  -14   19    3     -2.34      0.00
  -11   19    3      1.61      0.00
   -8   19    3      0.08      0.00
   -5   19    3     -1.26      0.00
   -2   19    3      3.56      0.00
  -13   20    3     -0.14      0.00
  -10   20    3      2.14      0.00
   -7   20    3     -1.33      0.00
   -1    1    4     71.27      0.00
   -3    2    4     20.50      0.00
    0    2    4     44.75      0.00
   -5    3    4     -3.83      0.00
   -2    3    4     41.87      0.00
    1    3    4      9.10      0.00
   -7    4    4    -10.65      0.00
   -4    4    4     12.03      0.00
   -1    4    4     27.78      0.00
    2    4    4     -6.23      0.00
   -9    5    4     -2.74      0.00
   -6    5    4     -3.07      0.00
   -3    5    4     26.98      0.00
    0    5    4      4.44      0.00
    3    5    4     -6.32      0.00
  -11    6    4     -3.87      0.00
   -8    6    4     -1.23      0.00
   -5    6    4     10.68      0.00
   -2    6    4     12.54      0.00
    1    6    4     -3.05      0.00
    4    6    4     -1.41      0.00
  -13    7    4     -0.32      0.00
  -10    7    4     -1.08      0.00
   -7    7    4      3.90      0.00
   -4    7    4      8.41      0.00
   -1    7    4      4.53      0.00
    2    7    4     -0.20      0.00
    5    7    4     -1.51      0.00
  -15    8    4     -1.44      0.00
  -12    8    4     -0.44      0.00
   -9    8    4     -1.05      0.00
   -6    8    4      4.77      0.00
   -3    8    4      2.93      0.00
    0    8    4      0.95      0.00
    3    8    4     -0.89      0.00
    6    8    4      0.11      0.00
  -17    9    4     -0.93      0.00
  -14    9    4      0.63      0.00
  -11    9    4     -1.12      0.00
   -8    9    4     -0.24      0.00
   -5    9    4      0.96      0.00
   -2    9    4      0.78      0.00
    1    9    4     -0.07      0.00
    4    9    4     -0.61      0.00
    7    9    4     -2.62      0.00
  -19   10    4     -2.26      0.00
  -16   10    4      0.58      0.00
  -13   10    4     -0.96      0.00
  -10   10    4      0.73      0.00
   -7   10    4      0.10      0.00
   -4   10    4     -2.44      0.00
   -1   10    4     -0.41      0.00
    2   10    4     -1.19      0.00
    5   10    4     -1.65      0.00
    8   10    4     -0.90      0.00
  -21   11    4     -0.09      0.00
  -18   11    4     -0.13      0.00
  -15   11    4     -0.79      0.00
  -12   11    4     -0.82      0.00
   -9   11    4      0.98      0.00
   -6   11    4     -2.05      0.00
   -3   11    4     -0.65      0.00
    0   11    4      1.11      0.00
    3   11    4     -0.81      0.00
    6   11    4     -1.77      0.00
    9   11    4     -2.25      0.00
  -20   12    4     -1.27      0.00
  -17   12    4      2.37      0.00
  -14   12    4     -1.70      0.00
  -11   12    4      0.13      0.00
   -8   12    4     -0.08      0.00
   -5   12    4     -1.54      0.00
   -2   12    4      0.63      0.00
    1   12    4     -1.51      0.00
    4   12    4     -0.37      0.00
    7   12    4     -0.83      0.00
  -19   13    4      1.40      0.00
  -16   13    4      0.50      0.00
  -13   13    4     -1.75      0.00
  -10   13    4     -0.55      0.00
   -7   13    4     -0.13      0.00
   -4   13    4      0.08      0.00
   -1   13    4     -0.17      0.00
    2   13    4     -0.35      0.00
    5   13    4      0.45      0.00
  -21   14    4      0.00      0.00
  -18   14    4      2.41      0.00
  -15   14    4     -0.29      0.00
  -12   14    4     -0.86      0.00
   -9   14    4      1.00      0.00
   -6   14    4     -0.40      0.00
   -3   14    4     -0.90      0.00
    0   14    4      0.58      0.00
    3   14    4     -1.85      0.00
    6   14    4      3.58      0.00
  -20   15    4      1.59      0.00
  -17   15    4     -1.17      0.00
  -14   15    4     -0.59      0.00
  -11   15    4      0.39      0.00
   -8   15    4     -0.29      0.00
   -5   15    4      1.64      0.00
   -2   15    4      0.80      0.00
    1   15    4      0.70      0.00
    4   15    4      1.08      0.00
  -19   16    4     -0.48      0.00
  -16   16    4     -0.66      0.00
  -13   16    4     -0.03      0.00
  -10   16    4      0.51      0.00
   -7   16    4      0.30      0.00
   -4   16    4      1.14      0.00
   -1   16    4      0.89      0.00
    2   16    4     -1.33      0.00
  -18   17    4     -3.60      0.00
  -15   17    4     -0.33      0.00
  -12   17    4     -0.21      0.00
   -9   17    4     -0.46      0.00
   -6   17    4      2.74      0.00
   -3   17    4     -0.90      0.00
    0   17    4     -0.91      0.00
  -17   18    4      0.27      0.00
  -14   18    4     -0.20      0.00
  -11   18    4      0.02      0.00
   -8   18    4     -0.59      0.00
   -5   18    4      0.57      0.00
   -2   18    4     -2.44      0.00
    1   18    4     -1.39      0.00
  -16   19    4     -0.49      0.00
  -13   19    4      1.15      0.00
  -10   19    4     -2.35      0.00
   -7   19    4      0.81      0.00
   -4   19    4      0.71      0.00
   -1   19    4     -3.14      0.00
  -12   20    4     -2.72      0.00
   -9   20    4     -0.59      0.00
  -11   21    4     -2.62      0.00
    0    1    5    -55.22      0.00
   -2    2    5    -35.63      0.00
    1    2    5    -16.49      0.00
   -4    3    5     -2.69      0.00
   -1    3    5    -36.25      0.00
    2    3    5      2.63      0.00
   -6    4    5      9.60      0.00
   -3    4    5    -26.84      0.00
    0    4    5    -10.88      0.00
    3    4    5     11.21      0.00
   -8    5    5      5.31      0.00
   -5    5    5     -3.91      0.00
   -2    5    5    -25.44      0.00
    1    5    5      5.07      0.00
    4    5    5      2.64      0.00
  -10    6    5      1.71      0.00
   -7    6    5      0.57      0.00
   -4    6    5    -16.51      0.00
   -1    6    5     -5.63      0.00
    2    6    5      4.42      0.00
    5    6    5      2.57      0.00
  -12    7    5      1.59      0.00
   -9    7    5      0.66      0.00
   -6    7    5     -5.88      0.00
   -3    7    5     -8.40      0.00
    0    7    5      0.42      0.00
    3    7    5      0.16      0.00
    6    7    5      0.03      0.00
  -14    8    5     -0.52      0.00
  -11    8    5      1.04      0.00
   -8    8    5      0.86      0.00
   -5    8    5     -4.61      0.00
   -2    8    5     -2.87      0.00
    1    8    5      1.28      0.00
    4    8    5      1.36      0.00
    7    8    5      2.71      0.00
  -16    9    5      1.62      0.00
  -13    9    5     -1.05      0.00
  -10    9    5      1.72      0.00
   -7    9    5     -0.90      0.00
   -4    9    5     -0.48      0.00
   -1    9    5      1.42      0.00
    2    9    5      1.14      0.00
    5    9    5      1.02      0.00
    8    9    5      1.92      0.00
  -18   10    5      1.86      0.00
  -15   10    5     -0.35      0.00
  -12   10    5      0.51      0.00
   -9   10    5      0.13      0.00
   -6   10    5     -0.47      0.00
   -3   10    5      1.26      0.00
    0   10    5      0.01      0.00
    3   10    5      1.69      0.00
    6   10    5      3.09      0.00
    9   10    5      2.01      0.00
  -20   11    5      2.32      0.00
  -17   11    5     -1.26      0.00
  -14   11    5      1.47      0.00
  -11   11    5     -1.04      0.00
   -8   11    5     -0.17      0.00
   -5   11    5      2.20      0.00
   -2   11    5     -0.27      0.00
    1   11    5      0.61      0.00
    4   11    5      0.58      0.00
    7   11    5      1.52      0.00
   10   11    5      0.30      0.00
  -19   12    5      1.11      0.00
  -16   12    5     -0.78      0.00
  -13   12    5      1.40      0.00
  -10   12    5     -0.02      0.00
   -7   12    5      0.48      0.00
   -4   12    5      0.07      0.00
   -1   12    5     -0.52      0.00
    2   12    5      0.99      0.00
    5   12    5      1.45      0.00
    8   12    5      2.52      0.00
  -21   13    5      0.81      0.00
  -18   13    5     -2.34      0.00
  -15   13    5     -0.02      0.00
  -12   13    5      1.57      0.00
   -9   13    5      0.04      0.00
   -6   13    5      1.02      0.00
   -3   13    5      0.53      0.00
    0   13    5      0.80      0.00
    3   13    5      0.63      0.00
    6   13    5     -1.08      0.00
  -20   14    5     -0.49      0.00
  -17   14    5     -0.88      0.00
  -14   14    5      0.94      0.00
  -11   14    5      0.47      0.00
   -8   14    5     -0.68      0.00
   -5   14    5     -0.03      0.00
   -2   14    5     -0.13      0.00
    1   14    5     -0.41      0.00
    4   14    5      0.40      0.00
  -19   15    5     -1.87      0.00
  -16   15    5      0.82      0.00
  -13   15    5      0.01      0.00
  -10   15    5     -0.52      0.00
   -7   15    5      0.70      0.00
   -4   15    5     -0.91      0.00
   -1   15    5     -1.69      0.00
    2   15    5      0.86      0.00
    5   15    5     -3.20      0.00
  -18   16    5      1.72      0.00
  -15   16    5      0.45      0.00
  -12   16    5     -0.10      0.00
   -9   16    5     -0.03      0.00
   -6   16    5     -2.16      0.00
   -3   16    5     -0.26      0.00
    0   16    5     -1.24      0.00
    3   16    5      0.80      0.00
  -17   17    5      0.69      0.00
  -14   17    5      0.79      0.00
  -11   17    5     -0.12      0.00
   -8   17    5      1.01      0.00
   -5   17    5     -1.45      0.00
   -2   17    5      1.14      0.00
    1   17    5      0.91      0.00
  -16   18    5     -0.29      0.00
  -13   18    5      0.22      0.00
  -10   18    5      0.80      0.00
   -7   18    5     -0.59      0.00
   -4   18    5      0.19      0.00
  -15   19    5      0.36      0.00
  -12   19    5      0.91      0.00
   -9   19    5      2.03      0.00
   -6   19    5     -0.54      0.00
  -11   20    5      3.92      0.00
   -8   20    5     -1.00      0.00
  -10   21    5      1.40      0.00
    0    0    6     46.90      0.00
    1    1    6     26.16      0.00
   -1    2    6     35.44      0.00
    2    2    6      1.74      0.00
   -3    3    6     15.42      0.00
    0    3    6     17.59      0.00
    3    3    6     -9.85      0.00
   -5    4    6     -4.56      0.00
   -2    4    6     31.41      0.00
    1    4    6     -1.09      0.00
    4    4    6     -7.47      0.00
   -7    5    6     -6.09      0.00
   -4    5    6     15.55      0.00
   -1    5    6     12.76      0.00
    2    5    6     -9.39      0.00
    5    5    6     -1.24      0.00
   -9    6    6     -1.01      0.00
   -6    6    6      2.06      0.00
   -3    6    6     18.78      0.00
    0    6    6     -2.16      0.00
    3    6    6     -1.53      0.00
    6    6    6     -1.93      0.00
  -11    7    6     -1.73      0.00
   -8    7    6     -0.68      0.00
   -5    7    6      7.97      0.00
   -2    7    6      5.42      0.00
    1    7    6     -3.41      0.00
    4    7    6     -1.30      0.00
    7    7    6     -0.57      0.00
  -13    8    6      1.57      0.00
  -10    8    6     -2.12      0.00
   -7    8    6      0.57      0.00
   -4    8    6      4.38      0.00
   -1    8    6     -0.99      0.00
    2    8    6     -1.36      0.00
    5    8    6     -0.93      0.00
    8    8    6     -3.86      0.00
  -15    9    6     -0.03      0.00
  -12    9    6      0.38      0.00
   -9    9    6     -2.74      0.00
   -6    9    6      2.30      0.00
   -3    9    6      0.46      0.00
    0    9    6     -2.79      0.00
    3    9    6     -2.29      0.00
    6    9    6     -3.22      0.00
    9    9    6     -1.72      0.00
  -17   10    6     -1.23      0.00
  -14   10    6      0.57      0.00
  -11   10    6      0.21      0.00
   -8   10    6     -0.27      0.00
   -5   10    6      0.11      0.00
   -2   10    6     -1.49      0.00
    1   10    6     -0.23      0.00
    4   10    6     -1.27      0.00
    7   10    6     -2.37      0.00
   10   10    6     -1.97      0.00
  -19   11    6     -3.31      0.00
  -16   11    6      1.24      0.00
  -13   11    6     -1.05      0.00
  -10   11    6      0.85      0.00
   -7   11    6      0.46      0.00
   -4   11    6     -0.88      0.00
   -1   11    6      0.51      0.00
    2   11    6     -1.54      0.00
    5   11    6     -2.17      0.00
    8   11    6     -2.16      0.00
  -21   12    6     -1.45      0.00
  -18   12    6      0.72      0.00
  -15   12    6     -0.19      0.00
  -12   12    6     -0.56      0.00
   -9   12    6     -0.57      0.00
   -6   12    6     -1.60      0.00
   -3   12    6      0.33      0.00
    0   12    6     -0.72      0.00
    3   12    6     -0.05      0.00
    6   12    6     -1.60      0.00
    9   12    6     -1.51      0.00
  -20   13    6     -1.39      0.00
  -17   13    6      1.54      0.00
  -14   13    6     -0.37      0.00
  -11   13    6     -1.46      0.00
   -8   13    6      0.45      0.00
   -5   13    6     -0.76      0.00
   -2   13    6     -0.71      0.00
    1   13    6     -0.91      0.00
    4   13    6     -1.35      0.00
    7   13    6     -0.92      0.00
  -19   14    6      1.63      0.00
  -16   14    6      0.24      0.00
  -13   14    6     -1.08      0.00
  -10   14    6     -0.32      0.00
   -7   14    6     -0.57      0.00
   -4   14    6     -0.28      0.00
   -1   14    6      0.90      0.00
    2   14    6     -0.20      0.00
    5   14    6      2.15      0.00
  -18   15    6      0.90      0.00
  -15   15    6     -0.87      0.00
  -12   15    6      0.51      0.00
   -9   15    6      0.62      0.00
   -6   15    6      0.31      0.00
   -3   15    6      0.83      0.00
    0   15    6      1.79      0.00
    3   15    6     -1.04      0.00
  -17   16    6     -0.84      0.00
  -14   16    6     -0.30      0.00
  -11   16    6     -0.25      0.00
   -8   16    6     -0.94      0.00
   -5   16    6      2.12      0.00
   -2   16    6      0.19      0.00
    1   16    6      0.61      0.00
  -16   17    6      0.45      0.00
  -13   17    6     -0.90      0.00
  -10   17    6      0.32      0.00
   -7   17    6      0.12      0.00
   -4   17    6     -0.22      0.00
   -1   17    6     -1.02      0.00
    2   17    6     -0.81      0.00
  -15   18    6     -0.92      0.00
  -12   18    6     -0.63      0.00
   -9   18    6     -1.90      0.00
   -6   18    6      0.52      0.00
   -3   18    6     -0.52      0.00
    0   18    6     -1.95      0.00
  -14   19    6     -0.06      0.00
  -11   19    6     -2.34      0.00
   -8   19    6     -0.52      0.00
   -5   19    6      0.52      0.00
  -10   20    6     -3.28      0.00
   -9   21    6      0.64      0.00
   -1    1    7    -27.33      0.00
   -3    2    7     -8.10      0.00
    0    2    7    -20.16      0.00
   -5    3    7      5.08      0.00
   -2    3    7    -23.45      0.00
    1    3    7     -4.94      0.00
   -7    4    7      9.37      0.00
   -4    4    7     -5.86      0.00
   -1    4    7    -20.11      0.00
    2    4    7      8.17      0.00
   -9    5    7      1.91      0.00
   -6    5    7      3.77      0.00
   -3    5    7    -24.44      0.00
    0    5    7     -0.71      0.00
    3    5    7      6.90      0.00
  -11    6    7      2.19      0.00
   -8    6    7      1.13      0.00
   -5    6    7     -7.18      0.00
   -2    6    7    -12.40      0.00
    1    6    7      6.34      0.00
    4    6    7     -0.06      0.00
  -13    7    7     -0.26      0.00
  -10    7    7      1.71      0.00
   -7    7    7     -0.12      0.00
   -4    7    7     -9.98      0.00
   -1    7    7      0.32      0.00
    2    7    7      2.35      0.00
    5    7    7      2.12      0.00
  -15    8    7      2.35      0.00
  -12    8    7     -0.67      0.00
   -9    8    7      3.37      0.00
   -6    8    7     -2.24      0.00
   -3    8    7     -3.40      0.00
    0    8    7      4.57      0.00
    3    8    7      2.17      0.00
    6    8    7      1.73      0.00
  -17    9    7      3.01      0.00
  -14    9    7     -2.46      0.00
  -11    9    7      0.83      0.00
   -8    9    7      2.31      0.00
   -5    9    7     -2.99      0.00
   -2    9    7      1.73      0.00
    1    9    7      1.91      0.00
    4    9    7      2.13      0.00
    7    9    7      4.09      0.00
  -19   10    7      2.77      0.00
  -16   10    7     -0.21      0.00
  -13   10    7     -0.25      0.00
  -10   10    7      0.29      0.00
   -7   10    7     -1.22      0.00
   -4   10    7     -0.41      0.00
   -1   10    7      1.89      0.00
    2   10    7      1.55      0.00
    5   10    7      2.25      0.00
    8   10    7      0.99      0.00
  -21   11    7      0.60      0.00
  -18   11    7      2.07      0.00
  -15   11    7     -0.88      0.00
  -12   11    7     -0.16      0.00
   -9   11    7      0.40      0.00
   -6   11    7      0.16      0.00
   -3   11    7      0.05      0.00
    0   11    7     -0.32      0.00
    3   11    7      0.76      0.00
    6   11    7      2.78      0.00
    9   11    7      2.02      0.00
  -20   12    7      3.50      0.00
  -17   12    7     -1.65      0.00
  -14   12    7      0.38      0.00
  -11   12    7      0.54      0.00
   -8   12    7      0.03      0.00
   -5   12    7      1.51      0.00
   -2   12    7      0.44      0.00
    1   12    7      1.77      0.00
    4   12    7      1.19      0.00
    7   12    7      2.30      0.00
  -19   13    7      0.17      0.00
  -16   13    7     -0.67      0.00
  -13   13    7      0.82      0.00
  -10   13    7      1.77      0.00
   -7   13    7      0.69      0.00
   -4   13    7      0.47      0.00
   -1   13    7      0.63      0.00
    2   13    7      0.15      0.00
    5   13    7      0.77      0.00
    8   13    7      1.99      0.00
  -18   14    7     -1.64      0.00
  -15   14    7      0.04      0.00
  -12   14    7      0.78      0.00
   -9   14    7     -0.54      0.00
   -6   14    7      0.94      0.00
   -3   14    7      0.43      0.00
    0   14    7     -0.94      0.00
    3   14    7      1.01      0.00
    6   14    7     -1.83      0.00
  -20   15    7     -0.67      0.00
  -17   15    7     -0.38      0.00
  -14   15    7      0.78      0.00
  -11   15    7      0.23      0.00
   -8   15    7      0.23      0.00
   -5   15    7     -1.02      0.00
   -2   15    7     -1.36      0.00
    1   15    7     -1.37      0.00
    4   15    7     -1.08      0.00
  -19   16    7     -0.68      0.00
  -16   16    7      0.13      0.00
  -13   16    7     -0.25      0.00
  -10   16    7     -0.04      0.00
   -7   16    7      0.61      0.00
   -4   16    7     -0.88      0.00
   -1   16    7     -0.06      0.00
    2   16    7      0.42      0.00
  -18   17    7      1.02      0.00
  -15   17    7      0.27      0.00
  -12   17    7      1.46      0.00
   -9   17    7      0.64      0.00
   -6   17    7     -0.87      0.00
   -3   17    7      1.12      0.00
    0   17    7      0.63      0.00
  -17   18    7     -0.64      0.00
  -14   18    7      1.49      0.00
  -11   18    7      0.56      0.00
   -8   18    7      1.72      0.00
   -5   18    7      0.18      0.00
   -2   18    7      1.33      0.00
  -13   19    7      0.74      0.00
  -10   19    7      3.05      0.00
   -7   19    7     -0.22      0.00
   -4   19    7     -1.33      0.00
  -12   20    7      2.58      0.00
   -9   20    7      0.98      0.00
  -11   21    7      3.15      0.00
    0    1    8     17.56      0.00
   -2    2    8     12.61      0.00
    1    2    8      8.21      0.00
   -4    3    8      0.98      0.00
   -1    3    8     18.15      0.00
    2    3    8     -1.74      0.00
   -6    4    8     -6.38      0.00
   -3    4    8     17.10      0.00
    0    4    8      7.40      0.00
    3    4    8     -9.95      0.00
   -8    5    8     -3.28      0.00
   -5    5    8      1.93      0.00
   -2    5    8     20.29      0.00
    1    5    8     -5.72      0.00
    4    5    8     -1.33      0.00
  -10    6    8     -1.55      0.00
   -7    6    8     -0.48      0.00
   -4    6    8     13.88      0.00
   -1    6    8      2.69      0.00
    2    6    8     -5.59      0.00
    5    6    8     -1.70      0.00
  -12    7    8     -0.59      0.00
   -9    7    8     -2.06      0.00
   -6    7    8      1.31      0.00
   -3    7    8      8.34      0.00
    0    7    8     -4.85      0.00
    3    7    8     -0.97      0.00
    6    7    8     -1.62      0.00
  -14    8    8      1.17      0.00
  -11    8    8     -1.22      0.00
   -8    8    8     -3.13      0.00
   -5    8    8      4.25      0.00
   -2    8    8     -0.23      0.00
    1    8    8     -4.32      0.00
    4    8    8     -3.13      0.00
    7    8    8     -3.52      0.00
  -16    9    8     -2.72      0.00
  -13    9    8      2.56      0.00
  -10    9    8     -2.37      0.00
   -7    9    8     -0.24      0.00
   -4    9    8      3.37      0.00
   -1    9    8     -4.33      0.00
    2    9    8     -1.85      0.00
    5    9    8     -1.83      0.00
    8    9    8     -2.20      0.00
  -18   10    8     -3.21      0.00
  -15   10    8      2.46      0.00
  -12   10    8     -0.13      0.00
   -9   10    8     -1.29      0.00
   -6   10    8      2.36      0.00
   -3   10    8     -0.08      0.00
    0   10    8     -0.51      0.00
    3   10    8     -1.89      0.00
    6   10    8     -3.13      0.00
    9   10    8     -0.87      0.00
  -20   11    8     -3.19      0.00
  -17   11    8      0.23      0.00
  -14   11    8      0.08      0.00
  -11   11    8      0.66      0.00
   -8   11    8     -0.11      0.00
   -5   11    8     -0.38      0.00
   -2   11    8     -0.72      0.00
    1   11    8     -0.99      0.00
    4   11    8     -0.89      0.00
    7   11    8     -1.82      0.00
   10   11    8     -0.13      0.00
  -19   12    8     -3.18      0.00
  -16   12    8      1.58      0.00
  -13   12    8     -0.25      0.00
  -10   12    8     -1.84      0.00
   -7   12    8     -0.54      0.00
   -4   12    8     -0.44      0.00
   -1   12    8     -0.91      0.00
    2   12    8     -1.03      0.00
    5   12    8     -2.61      0.00
    8   12    8     -2.81      0.00
  -18   13    8      1.20      0.00
  -15   13    8      0.46      0.00
  -12   13    8     -1.24      0.00
   -9   13    8     -0.64      0.00
   -6   13    8     -1.90      0.00
   -3   13    8     -1.24      0.00
    0   13    8     -0.72      0.00
    3   13    8     -0.55      0.00
    6   13    8     -0.43      0.00
  -20   14    8     -0.49      0.00
  -17   14    8      0.96      0.00
  -14   14    8     -0.51      0.00
  -11   14    8     -1.46      0.00
   -8   14    8      0.36      0.00
   -5   14    8     -0.20      0.00
   -2   14    8      0.42      0.00
    1   14    8      1.09      0.00
    4   14    8     -0.15      0.00
  -19   15    8      1.67      0.00
  -16   15    8      0.26      0.00
  -13   15    8      0.17      0.00
  -10   15    8     -0.31      0.00
   -7   15    8     -0.99      0.00
   -4   15    8      0.64      0.00
   -1   15    8      1.26      0.00
    2   15    8      0.21      0.00
    5   15    8      2.31      0.00
  -18   16    8      0.86      0.00
  -15   16    8     -0.37      0.00
  -12   16    8     -0.70      0.00
   -9   16    8     -0.03      0.00
   -6   16    8      0.54      0.00
   -3   16    8     -0.09      0.00
    0   16    8      0.25      0.00
    3   16    8     -0.22      0.00
  -17   17    8      0.74      0.00
  -14   17    8     -0.66      0.00
  -11   17    8     -1.14      0.00
   -8   17    8     -1.56      0.00
   -5   17    8      0.21      0.00
   -2   17    8     -2.14      0.00
    1   17    8     -0.49      0.00
  -16   18    8      0.06      0.00
  -13   18    8     -2.27      0.00
  -10   18    8     -0.77      0.00
   -7   18    8     -0.78      0.00
   -4   18    8     -0.12      0.00
  -12   19    8     -1.55      0.00
   -9   19    8     -2.45      0.00
   -6   19    8     -0.09      0.00
   -3   19    8      1.15      0.00
  -11   20    8     -3.56      0.00
   -8   20    8      0.90      0.00
    0    0    9    -11.91      0.00
    1    1    9     -7.82      0.00
   -1    2    9    -10.33      0.00
    2    2    9     -3.35      0.00
   -3    3    9     -6.92      0.00
    0    3    9     -9.81      0.00
    3    3    9      6.20      0.00
   -5    4    9      0.98      0.00
   -2    4    9    -18.21      0.00
    1    4    9     -0.34      0.00
    4    4    9      4.79      0.00
   -7    5    9      2.28      0.00
   -4    5    9    -10.83      0.00
   -1    5    9     -9.10      0.00
    2    5    9      7.95      0.00
    5    5    9      0.40      0.00
   -9    6    9      1.48      0.00
   -6    6    9     -0.48      0.00
   -3    6    9    -14.53      0.00
    0    6    9      3.25      0.00
    3    6    9      1.53      0.00
    6    6    9      2.57      0.00
  -11    7    9      1.76      0.00
   -8    7    9      1.55      0.00
   -5    7    9     -4.35      0.00
   -2    7    9     -2.55      0.00
    1    7    9      5.91      0.00
    4    7    9      2.17      0.00
    7    7    9      1.39      0.00
  -13    8    9     -2.46      0.00
  -10    8    9      3.17      0.00
   -7    8    9      1.98      0.00
   -4    8    9     -5.60      0.00
   -1    8    9      4.17      0.00
    2    8    9      2.64      0.00
    5    8    9      2.70      0.00
    8    8    9      3.48      0.00
  -15    9    9     -0.80      0.00
  -12    9    9     -0.50      0.00
   -9    9    9      3.02      0.00
   -6    9    9     -2.48      0.00
   -3    9    9     -1.76      0.00
    0    9    9      3.58      0.00
    3    9    9      2.76      0.00
    6    9    9      2.17      0.00
    9    9    9      0.71      0.00
  -17   10    9      2.52      0.00
  -14   10    9     -2.74      0.00
  -11   10    9      0.41      0.00
   -8   10    9      0.87      0.00
   -5   10    9     -3.17      0.00
   -2   10    9      1.88      0.00
    1   10    9     -0.04      0.00
    4   10    9      1.10      0.00
    7   10    9      1.36      0.00
   10   10    9      1.08      0.00
  -19   11    9      4.42      0.00
  -16   11    9     -2.67      0.00
  -13   11    9      0.74      0.00
  -10   11    9      0.63      0.00
   -7   11    9     -0.44      0.00
   -4   11    9     -0.14      0.00
   -1   11    9      0.48      0.00
    2   11    9      1.81      0.00
    5   11    9      2.40      0.00
    8   11    9      1.10      0.00
  -18   12    9      0.78      0.00
  -15   12    9     -0.92      0.00
  -12   12    9      0.13      0.00
   -9   12    9      1.79      0.00
   -6   12    9      1.82      0.00
   -3   12    9      0.99      0.00
    0   12    9      1.37      0.00
    3   12    9      0.29      0.00
    6   12    9      2.39      0.00
    9   12    9      1.05      0.00
  -20   13    9      2.78      0.00
  -17   13    9     -1.49      0.00
  -14   13    9     -0.11      0.00
  -11   13    9      2.62      0.00
   -8   13    9     -0.22      0.00
   -5   13    9      1.08      0.00
   -2   13    9      1.36      0.00
    1   13    9      0.15      0.00
    4   13    9      1.46      0.00
    7   13    9      1.41      0.00
  -16   14    9     -0.66      0.00
  -13   14    9      0.52      0.00
  -10   14    9      1.24      0.00
   -7   14    9      1.18      0.00
   -4   14    9      0.32      0.00
   -1   14    9     -1.30      0.00
    2   14    9     -0.63      0.00
    5   14    9     -1.54      0.00
  -18   15    9     -2.00      0.00
  -15   15    9      0.25      0.00
  -12   15    9      0.33      0.00
   -9   15    9     -0.18      0.00
   -6   15    9      0.17      0.00
   -3   15    9     -0.44      0.00
    0   15    9     -0.98      0.00
    3   15    9      0.24      0.00
  -17   16    9     -1.51      0.00
  -14   16    9     -0.14      0.00
  -11   16    9      1.70      0.00
   -8   16    9      1.06      0.00
   -5   16    9     -0.55      0.00
   -2   16    9      1.26      0.00
    1   16    9     -0.17      0.00
    4   16    9     -0.68      0.00
  -16   17    9     -0.57      0.00
  -13   17    9      1.72      0.00
  -10   17    9      0.07      0.00
   -7   17    9      1.12      0.00
   -4   17    9      0.67      0.00
   -1   17    9      2.60      0.00
    2   17    9      0.44      0.00
  -15   18    9      1.00      0.00
  -12   18    9      2.60      0.00
   -9   18    9      1.56      0.00
   -6   18    9      0.49      0.00
   -3   18    9      0.66      0.00
  -14   19    9      1.63      0.00
  -11   19    9      1.73      0.00
   -8   19    9      0.90      0.00
   -5   19    9     -0.49      0.00
  -13   20    9      0.42      0.00
  -10   20    9      2.81      0.00
  -12   21    9      1.73      0.00
   -1    1   10      5.74      0.00
   -3    2   10      4.13      0.00
    0    2   10      6.02      0.00
   -5    3   10      0.19      0.00
   -2    3   10      8.27      0.00
    1    3   10      5.60      0.00
   -7    4   10     -4.72      0.00
   -4    4   10      5.40      0.00
   -1    4   10     11.46      0.00
    2    4   10     -4.79      0.00
   -9    5   10     -1.09      0.00
   -6    5   10      0.10      0.00
   -3    5   10     15.04      0.00
    0    5   10      1.65      0.00
    3    5   10     -4.55      0.00
  -11    6   10     -2.40      0.00
   -8    6   10     -0.60      0.00
   -5    6   10      3.69      0.00
   -2    6   10      7.49      0.00
    1    6   10     -5.85      0.00
    4    6   10     -0.01      0.00
  -13    7   10     -0.76      0.00
  -10    7   10     -2.91      0.00
   -7    7   10     -1.27      0.00
   -4    7   10      7.05      0.00
   -1    7   10     -2.14      0.00
    2    7   10     -3.72      0.00
    5    7   10     -3.77      0.00
  -15    8   10     -1.80      0.00
  -12    8   10      0.96      0.00
   -9    8   10     -3.44      0.00
   -6    8   10      0.38      0.00
   -3    8   10      3.61      0.00
    0    8   10     -5.38      0.00
    3    8   10     -2.51      0.00
    6    8   10     -1.57      0.00
  -17    9   10     -1.99      0.00
  -14    9   10      3.52      0.00
  -11    9   10     -1.82      0.00
   -8    9   10     -2.29      0.00
   -5    9   10      5.42      0.00
   -2    9   10     -1.35      0.00
    1    9   10     -1.24      0.00
    4    9   10     -2.31      0.00
    7    9   10     -1.09      0.00
  -19   10   10     -1.44      0.00
  -16   10   10      0.66      0.00
  -13   10   10      0.54      0.00
  -10   10   10     -1.02      0.00
   -7   10   10      0.70      0.00
   -4   10   10      3.06      0.00
   -1   10   10     -1.63      0.00
    2   10   10     -1.31      0.00
    5   10   10     -0.84      0.00
    8   10   10      1.09      0.00
  -18   11   10     -3.40      0.00
  -15   11   10      3.21      0.00
  -12   11   10     -0.66      0.00
   -9   11   10     -1.65      0.00
   -6   11   10      0.46      0.00
   -3   11   10     -0.79      0.00
    0   11   10      0.05      0.00
    3   11   10     -0.99      0.00
    6   11   10     -2.30      0.00
    9   11   10     -0.62      0.00
  -20   12   10     -4.21      0.00
  -17   12   10      1.90      0.00
  -14   12   10     -0.33      0.00
  -11   12   10     -1.38      0.00
   -8   12   10     -0.62      0.00
   -5   12   10     -1.31      0.00
   -2   12   10     -1.61      0.00
    1   12   10     -1.72      0.00
    4   12   10     -1.36      0.00
    7   12   10     -1.73      0.00
  -19   13   10     -0.86      0.00
  -16   13   10      1.20      0.00
  -13   13   10     -0.18      0.00
  -10   13   10     -2.95      0.00
   -7   13   10     -1.10      0.00
   -4   13   10     -0.67      0.00
   -1   13   10     -0.29      0.00
    2   13   10      0.68      0.00
    5   13   10     -0.87      0.00
  -18   14   10      2.27      0.00
  -15   14   10      0.25      0.00
  -12   14   10     -1.42      0.00
   -9   14   10      0.29      0.00
   -6   14   10     -1.02      0.00
   -3   14   10     -0.62      0.00
    0   14   10      1.58      0.00
    3   14   10     -0.38      0.00
    6   14   10      1.28      0.00
  -17   15   10      2.05      0.00
  -14   15   10      0.01      0.00
  -11   15   10     -1.68      0.00
   -8   15   10     -0.82      0.00
   -5   15   10      0.39      0.00
   -2   15   10      0.64      0.00
    1   15   10      0.60      0.00
    4   15   10      0.93      0.00
  -16   16   10      0.96      0.00
  -13   16   10      0.01      0.00
  -10   16   10     -0.82      0.00
   -7   16   10     -1.01      0.00
   -4   16   10     -0.40      0.00
   -1   16   10     -2.28      0.00
    2   16   10     -0.46      0.00
  -15   17   10     -0.11      0.00
  -12   17   10     -3.26      0.00
   -9   17   10     -0.30      0.00
   -6   17   10     -0.48      0.00
   -3   17   10     -1.93      0.00
  -14   18   10     -2.00      0.00
  -11   18   10     -1.26      0.00
   -8   18   10     -1.60      0.00
   -5   18   10     -0.22      0.00
   -2   18   10     -2.18      0.00
  -13   19   10     -2.35      0.00
  -10   19   10     -1.62      0.00
   -7   19   10     -0.13      0.00
   -4   19   10      1.35      0.00
  -12   20   10     -1.19      0.00
   -9   20   10     -0.54      0.00
    0    1   11     -3.16      0.00
   -2    2   11     -2.37      0.00
    1    2   11     -4.41      0.00
   -4    3   11     -3.82      0.00
   -1    3   11     -5.94      0.00
    2    3   11     -1.55      0.00
   -6    4   11      0.68      0.00
   -3    4   11     -8.86      0.00
    0    4   11     -6.16      0.00
    3    4   11      5.39      0.00
   -8    5   11      1.55      0.00
   -5    5   11     -3.27      0.00
   -2    5   11    -10.54      0.00
    1    5   11      2.84      0.00
    4    5   11      0.19      0.00
  -10    6   11      2.28      0.00
   -7    6   11     -0.36      0.00
   -4    6   11     -7.27      0.00
   -1    6   11     -1.27      0.00
    2    6   11      4.84      0.00
    5    6   11      2.61      0.00
  -12    7   11      1.13      0.00
   -9    7   11      2.66      0.00
   -6    7   11      0.61      0.00
   -3    7   11     -4.90      0.00
    0    7   11      4.30      0.00
    3    7   11      1.41      0.00
    6    7   11      2.80      0.00
  -14    8   11     -0.40      0.00
  -11    8   11      1.71      0.00
   -8    8   11      2.44      0.00
   -5    8   11     -4.37      0.00
   -2    8   11     -0.40      0.00
    1    8   11      3.89      0.00
    4    8   11      3.17      0.00
    7    8   11      0.51      0.00
  -16    9   11      1.57      0.00
  -13    9   11     -2.65      0.00
  -10    9   11      2.82      0.00
   -7    9   11      0.48      0.00
   -4    9   11     -6.03      0.00
   -1    9   11      2.51      0.00
    2    9   11      0.63      0.00
    5    9   11      0.44      0.00
    8    9   11     -1.44      0.00
  -18   10   11      2.04      0.00
  -15   10   11     -3.63      0.00
  -12   10   11      1.62      0.00
   -9   10   11      1.48      0.00
   -6   10   11     -2.93      0.00
   -3   10   11     -0.86      0.00
    0   10   11     -0.45      0.00
    3   10   11      1.82      0.00
    6   10   11      0.09      0.00
    9   10   11     -1.34      0.00
  -20   11   11      2.25      0.00
  -17   11   11      0.08      0.00
  -14   11   11     -0.85      0.00
  -11   11   11      0.68      0.00
   -8   11   11      1.26      0.00
   -5   11   11     -0.88      0.00
   -2   11   11      1.53      0.00
    1   11   11      1.10      0.00
    4   11   11      0.47      0.00
    7   11   11      0.37      0.00
  -19   12   11      3.67      0.00
  -16   12   11     -3.17      0.00
  -13   12   11      0.93      0.00
  -10   12   11      2.78      0.00
   -7   12   11      0.69      0.00
   -4   12   11      0.82      0.00
   -1   12   11      0.69      0.00
    2   12   11      0.72      0.00
    5   12   11      2.12      0.00
    8   12   11      1.20      0.00
  -18   13   11     -1.60      0.00
  -15   13   11     -0.26      0.00
  -12   13   11      1.28      0.00
   -9   13   11      0.90      0.00
   -6   13   11      1.55      0.00
   -3   13   11      1.27      0.00
    0   13   11     -0.41      0.00
    3   13   11     -0.19      0.00
    6   13   11     -0.17      0.00
  -17   14   11     -2.24      0.00
  -14   14   11     -0.10      0.00
  -11   14   11      2.86      0.00
   -8   14   11      0.09      0.00
   -5   14   11     -0.05      0.00
   -2   14   11     -0.66      0.00
    1   14   11     -1.52      0.00
    4   14   11     -0.07      0.00
  -16   15   11     -1.34      0.00
  -13   15   11     -0.21      0.00
  -10   15   11      1.00      0.00
   -7   15   11      1.36      0.00
   -4   15   11      0.47      0.00
   -1   15   11     -0.31      0.00
    2   15   11      0.44      0.00
  -15   16   11     -0.21      0.00
  -12   16   11      1.98      0.00
   -9   16   11      0.42      0.00
   -6   16   11      0.07      0.00
   -3   16   11      1.23      0.00
    0   16   11      2.13      0.00
    3   16   11      0.44      0.00
  -14   17   11      0.59      0.00
  -11   17   11      2.43      0.00
   -8   17   11      0.98      0.00
   -5   17   11      0.56      0.00
   -2   17   11      3.79      0.00
    1   17   11      0.99      0.00
  -13   18   11      3.79      0.00
  -10   18   11      0.01      0.00
   -7   18   11      0.86      0.00
   -4   18   11     -0.05      0.00
   -1   18   11      2.63      0.00
  -12   19   11      2.03      0.00
   -9   19   11      0.95      0.00
   -6   19   11     -0.10      0.00
   -3   19   11     -0.49      0.00
  -11   20   11      1.40      0.00
    0    0   12      2.44      0.00
    1    1   12      0.96      0.00
   -1    2   12      0.88      0.00
    2    2   12      3.87      0.00
   -3    3   12      3.59      0.00
    0    3   12      4.38      0.00
    3    3   12     -1.55      0.00
   -5    4   12      3.33      0.00
   -2    4   12      7.16      0.00
    1    4   12      2.03      0.00
    4    4   12     -1.93      0.00
   -7    5   12     -0.14      0.00
   -4    5   12      5.92      0.00
   -1    5   12      4.71      0.00
    2    5   12     -4.59      0.00
    5    5   12     -1.10      0.00
   -9    6   12     -2.10      0.00
   -6    6   12      0.63      0.00
   -3    6   12      5.76      0.00
    0    6   12     -1.73      0.00
    3    6   12     -1.05      0.00
    6    6   12     -3.48      0.00
  -11    7   12     -1.92      0.00
   -8    7   12     -1.17      0.00
   -5    7   12      2.23      0.00
   -2    7   12      1.30      0.00
    1    7   12     -4.75      0.00
    4    7   12     -2.10      0.00
    7    7   12     -1.01      0.00
  -13    8   12      1.08      0.00
  -10    8   12     -3.21      0.00
   -7    8   12     -1.31      0.00
   -4    8   12      5.97      0.00
   -1    8   12     -1.06      0.00
    2    8   12     -1.42      0.00
    5    8   12     -1.97      0.00
    8    8   12      0.80      0.00
  -15    9   12      0.38      0.00
  -12    9   12     -0.26      0.00
   -9    9   12     -2.27      0.00
   -6    9   12      3.13      0.00
   -3    9   12      3.67      0.00
    0    9   12     -1.34      0.00
    3    9   12     -1.36      0.00
    6    9   12      1.81      0.00
    9    9   12      2.31      0.00
  -17   10   12     -1.43      0.00
  -14   10   12      3.00      0.00
  -11   10   12     -2.33      0.00
   -8   10   12     -1.33      0.00
   -5   10   12      4.46      0.00
   -2   10   12     -0.89      0.00
    1   10   12      0.85      0.00
    4   10   12     -0.56      0.00
    7   10   12      2.11      0.00
   10   10   12      0.17      0.00
  -19   11   12     -2.89      0.00
  -16   11   12      3.39      0.00
  -13   11   12     -1.79      0.00
  -10   11   12     -1.38      0.00
   -7   11   12     -0.23      0.00
   -4   11   12      0.39      0.00
   -1   11   12     -0.18      0.00
    2   11   12     -1.94      0.00
    5   11   12     -0.56      0.00
    8   11   12      0.71      0.00
  -18   12   12     -0.91      0.00
  -15   12   12      1.72      0.00
  -12   12   12     -1.04      0.00
   -9   12   12     -2.13      0.00
   -6   12   12     -0.74      0.00
   -3   12   12     -1.39      0.00
    0   12   12     -0.42      0.00
    3   12   12      0.39      0.00
    6   12   12     -0.96      0.00
  -17   13   12      2.95      0.00
  -14   13   12     -0.52      0.00
  -11   13   12     -3.19      0.00
   -8   13   12      0.24      0.00
   -5   13   12     -0.45      0.00
   -2   13   12     -0.12      0.00
    1   13   12      0.92      0.00
    4   13   12     -0.57      0.00
    7   13   12      0.15      0.00
  -16   14   12      1.34      0.00
  -13   14   12     -0.01      0.00
  -10   14   12     -1.85      0.00
   -7   14   12     -1.36      0.00
   -4   14   12     -0.49      0.00
   -1   14   12      1.90      0.00
    2   14   12      0.65      0.00
    5   14   12      1.57      0.00
  -18   15   12      3.67      0.00
  -15   15   12      0.44      0.00
  -12   15   12     -1.43      0.00
   -9   15   12     -0.22      0.00
   -6   15   12     -0.15      0.00
   -3   15   12     -0.52      0.00
    0   15   12     -0.27      0.00
    3   15   12     -0.84      0.00
  -17   16   12      2.44      0.00
  -14   16   12      0.34      0.00
  -11   16   12     -2.47      0.00
   -8   16   12     -1.03      0.00
   -5   16   12     -0.44      0.00
   -2   16   12     -2.30      0.00
    1   16   12     -1.64      0.00
  -16   17   12      0.16      0.00
  -13   17   12     -2.54      0.00
  -10   17   12     -0.32      0.00
   -7   17   12     -0.45      0.00
   -4   17   12     -0.80      0.00
   -1   17   12     -4.40      0.00
  -12   18   12     -3.96      0.00
   -9   18   12     -0.01      0.00
   -6   18   12     -0.27      0.00
   -3   18   12     -1.21      0.00
  -14   19   12     -2.00      0.00
  -11   19   12     -0.54      0.00
   -8   19   12      0.22      0.00
   -5   19   12      0.95      0.00
  -13   20   12     -0.77      0.00
  -10   20   12     -0.64      0.00
   -1    1   13     -0.11      0.00
   -3    2   13     -1.30      0.00
    0    2   13      0.07      0.00
   -5    3   13     -2.73      0.00
   -2    3   13     -1.87      0.00
    1    3   13     -3.28      0.00
   -7    4   13      1.59      0.00
   -4    4   13     -4.45      0.00
   -1    4   13     -4.08      0.00
    2    4   13      1.61      0.00
   -9    5   13      1.23      0.00
   -6    5   13     -1.57      0.00
   -3    5   13     -4.86      0.00
    0    5   13     -1.12      0.00
    3    5   13      1.83      0.00
  -11    6   13      2.78      0.00
   -8    6   13      0.81      0.00
   -5    6   13     -1.50      0.00
   -2    6   13     -1.74      0.00
    1    6   13      3.63      0.00
    4    6   13      0.32      0.00
  -13    7   13      1.80      0.00
  -10    7   13      2.54      0.00
   -7    7   13      0.41      0.00
   -4    7   13     -3.72      0.00
   -1    7   13     -0.28      0.00
    2    7   13      2.36      0.00
    5    7   13      2.89      0.00
  -15    8   13      0.44      0.00
  -12    8   13     -0.28      0.00
   -9    8   13      2.34      0.00
   -6    8   13     -1.62      0.00
   -3    8   13     -4.25      0.00
    0    8   13      1.77      0.00
    3    8   13      0.44      0.00
    6    8   13     -0.87      0.00
  -17    9   13     -1.79      0.00
  -14    9   13     -1.36      0.00
  -11    9   13      2.64      0.00
   -8    9   13      1.45      0.00
   -5    9   13     -6.15      0.00
   -2    9   13     -1.72      0.00
    1    9   13     -0.29      0.00
    4    9   13      1.00      0.00
    7    9   13     -3.92      0.00
  -19   10   13     -0.93      0.00
  -16   10   13     -0.59      0.00
  -13   10   13      0.08      0.00
  -10   10   13      1.95      0.00
   -7   10   13     -0.24      0.00
   -4   10   13     -3.34      0.00
   -1   10   13      0.43      0.00
    2   10   13      0.43      0.00
    5   10   13     -1.31      0.00
    8   10   13     -3.46      0.00
  -18   11   13      1.98      0.00
  -15   11   13     -3.61      0.00
  -12   11   13      2.52      0.00
   -9   11   13      1.76      0.00
   -6   11   13     -0.99      0.00
   -3   11   13      0.89      0.00
    0   11   13     -0.62      0.00
    3   11   13      0.97      0.00
    6   11   13     -0.43      0.00
  -17   12   13     -2.28      0.00
  -14   12   13      0.85      0.00
  -11   12   13      1.89      0.00
   -8   12   13      0.60      0.00
   -5   12   13      0.12      0.00
   -2   12   13      0.44      0.00
    1   12   13      0.87      0.00
    4   12   13     -0.29      0.00
    7   12   13     -0.19      0.00
  -19   13   13      0.01      0.00
  -16   13   13     -2.27      0.00
  -13   13   13      0.52      0.00
  -10   13   13      3.03      0.00
   -7   13   13      0.40      0.00
   -4   13   13      0.45      0.00
   -1   13   13     -1.57      0.00
    2   13   13     -1.46      0.00
    5   13   13     -0.33      0.00
  -18   14   13     -3.92      0.00
  -15   14   13     -0.19      0.00
  -12   14   13      1.61      0.00
   -9   14   13     -0.13      0.00
   -6   14   13      0.71      0.00
   -3   14   13      0.30      0.00
    0   14   13     -1.74      0.00
    3   14   13      0.50      0.00
  -17   15   13     -3.10      0.00
  -14   15   13     -0.58      0.00
  -11   15   13      2.30      0.00
   -8   15   13      1.14      0.00
   -5   15   13      0.16      0.00
   -2   15   13     -0.35      0.00
    1   15   13      0.80      0.00
    4   15   13     -0.35      0.00
  -16   16   13     -0.60      0.00
  -13   16   13      0.72      0.00
  -10   16   13      0.76      0.00
   -7   16   13      0.28      0.00
   -4   16   13      1.16      0.00
   -1   16   13      3.26      0.00
  -15   17   13      0.71      0.00
  -12   17   13      3.98      0.00
   -9   17   13     -0.18      0.00
   -6   17   13      0.03      0.00
   -3   17   13      1.63      0.00
    0   17   13      3.07      0.00
  -14   18   13      2.03      0.00
  -11   18   13      1.44      0.00
   -8   18   13     -0.21      0.00
   -5   18   13     -0.50      0.00
   -2   18   13      3.04      0.00
  -13   19   13      3.18      0.00
  -10   19   13     -0.57      0.00
   -7   19   13     -0.79      0.00
   -4   19   13     -1.16      0.00
  -12   20   13      0.38      0.00
    0    1   14     -1.05      0.00
   -2    2   14     -0.85      0.00
    1    2   14     -0.19      0.00
   -4    3   14      2.90      0.00
   -1    3   14      0.37      0.00
    2    3   14      1.57      0.00
   -6    4   14      0.81      0.00
   -3    4   14      2.79      0.00
    0    4   14      1.80      0.00
    3    4   14     -1.91      0.00
   -8    5   14     -1.43      0.00
   -5    5   14      1.95      0.00
   -2    5   14      1.51      0.00
    1    5   14     -1.76      0.00
    4    5   14      0.00      0.00
  -10    6   14     -2.22      0.00
   -7    6   14      0.39      0.00
   -4    6   14      1.59      0.00
   -1    6   14      0.06      0.00
    2    6   14     -2.27      0.00
    5    6   14     -2.14      0.00
  -12    7   14     -1.56      0.00
   -9    7   14     -1.54      0.00
   -6    7   14      0.62      0.00
   -3    7   14      2.28      0.00
    0    7   14     -0.65      0.00
    3    7   14      0.06      0.00
    6    7   14     -1.15      0.00
  -14    8   14     -1.49      0.00
  -11    8   14     -1.27      0.00
   -8    8   14     -0.97      0.00
   -5    8   14      4.95      0.00
   -2    8   14      3.43      0.00
    1    8   14     -1.35      0.00
    4    8   14     -0.66      0.00
    7    8   14      2.69      0.00
  -16    9   14      0.23      0.00
  -13    9   14      0.79      0.00
  -10    9   14     -2.81      0.00
   -7    9   14      0.37      0.00
   -4    9   14      5.37      0.00
   -1    9   14      0.73      0.00
    2    9   14      1.09      0.00
    5    9   14      1.30      0.00
    8    9   14      5.05      0.00
  -18   10   14      1.24      0.00
  -15   10   14      1.75      0.00
  -12   10   14     -2.56      0.00
   -9   10   14     -1.57      0.00
   -6   10   14      2.64      0.00
   -3   10   14      1.35      0.00
    0   10   14      0.46      0.00
    3   10   14     -1.09      0.00
    6   10   14      3.15      0.00
    9   10   14      2.43      0.00
  -17   11   14      0.26      0.00
  -14   11   14      0.83      0.00
  -11   11   14     -2.09      0.00
   -8   11   14     -1.03      0.00
   -5   11   14      1.28      0.00
   -2   11   14     -0.77      0.00
    1   11   14     -0.27      0.00
    4   11   14      0.47      0.00
    7   11   14      1.62      0.00
  -16   12   14      3.29      0.00
  -13   12   14     -1.87      0.00
  -10   12   14     -2.39      0.00
   -7   12   14      0.24      0.00
   -4   12   14     -0.23      0.00
   -1   12   14      1.20      0.00
    2   12   14     -0.19      0.00
    5   12   14      0.47      0.00
  -18   13   14      2.19      0.00
  -15   13   14      0.29      0.00
  -12   13   14     -1.28      0.00
   -9   13   14     -0.72      0.00
   -6   13   14     -0.38      0.00
   -3   13   14     -0.13      0.00
    0   13   14      1.45      0.00
    3   13   14      1.09      0.00
    6   13   14      1.42      0.00
  -17   14   14      3.55      0.00
  -14   14   14      0.25      0.00
  -11   14   14     -2.91      0.00
   -8   14   14     -0.14      0.00
   -5   14   14     -0.28      0.00
   -2   14   14      1.68      0.00
    1   14   14      1.15      0.00
    4   14   14      0.03      0.00
  -16   15   14      1.11      0.00
  -13   15   14      0.19      0.00
  -10   15   14     -0.66      0.00
   -7   15   14     -1.01      0.00
   -4   15   14     -1.06      0.00
   -1   15   14      0.19      0.00
    2   15   14     -1.53      0.00
  -15   16   14     -0.69      0.00
  -12   16   14     -2.52      0.00
   -9   16   14     -0.19      0.00
   -6   16   14      0.51      0.00
   -3   16   14     -0.84      0.00
    0   16   14     -2.97      0.00
  -14   17   14     -1.39      0.00
  -11   17   14     -2.20      0.00
   -8   17   14      0.34      0.00
   -5   17   14     -0.17      0.00
   -2   17   14     -3.24      0.00
  -13   18   14     -3.98      0.00
  -10   18   14      0.68      0.00
   -7   18   14      0.74      0.00
   -4   18   14      0.95      0.00
  -12   19   14     -2.11      0.00
   -9   19   14      1.39      0.00
   -6   19   14      1.11      0.00
    0    0   15      1.36      0.00
    1    1   15      2.52      0.00
   -1    2   15      1.67      0.00
    2    2   15     -1.09      0.00
   -3    3   15     -0.81      0.00
    0    3   15      0.77      0.00
    3    3   15      0.12      0.00
   -5    4   15     -1.82      0.00
   -2    4   15     -0.33      0.00
    1    4   15      0.14      0.00
    4    4   15      1.14      0.00
   -7    5   15      0.54      0.00
   -4    5   15     -0.61      0.00
   -1    5   15      0.76      0.00
    2    5   15      1.91      0.00
    5    5   15      1.27      0.00
   -9    6   15      1.51      0.00
   -6    6   15     -0.62      0.00
   -3    6   15     -0.01      0.00
    0    6   15      0.80      0.00
    3    6   15     -0.49      0.00
    6    6   15      1.74      0.00
  -11    7   15      1.27      0.00
   -8    7   15     -0.17      0.00
   -5    7   15     -2.36      0.00
   -2    7   15     -1.89      0.00
    1    7   15      1.08      0.00
    4    7   15      0.10      0.00
    7    7   15      0.19      0.00
  -13    8   15      1.16      0.00
  -10    8   15      1.66      0.00
   -7    8   15     -0.38      0.00
   -4    8   15     -4.93      0.00
   -1    8   15     -2.95      0.00
    2    8   15     -0.55      0.00
    5    8   15     -0.65      0.00
    8    8   15     -3.29      0.00
  -15    9   15      1.34      0.00
  -12    9   15      0.78      0.00
   -9    9   15      1.87      0.00
   -6    9   15     -3.42      0.00
   -3    9   15     -3.54      0.00
    0    9   15      0.36      0.00
    3    9   15     -0.68      0.00
    6    9   15     -3.57      0.00
    9    9   15     -4.30      0.00
  -17   10   15     -0.85      0.00
  -14   10   15     -1.20      0.00
  -11   10   15      2.98      0.00
   -8   10   15      0.94      0.00
   -5   10   15     -2.79      0.00
   -2   10   15     -0.40      0.00
    1   10   15     -0.88      0.00
    4   10   15      0.15      0.00
    7   10   15     -4.17      0.00
  -16   11   15     -1.87      0.00
  -13   11   15      1.71      0.00
  -10   11   15      1.67      0.00
   -7   11   15     -0.51      0.00
   -4   11   15     -0.60      0.00
   -1   11   15     -0.09      0.00
    2   11   15      0.87      0.00
    5   11   15     -1.62      0.00
    8   11   15     -1.35      0.00
  -18   12   15     -0.01      0.00
  -15   12   15     -1.59      0.00
  -12   12   15      1.75      0.00
   -9   12   15      1.24      0.00
   -6   12   15     -0.51      0.00
   -3   12   15      0.12      0.00
    0   12   15     -1.05      0.00
    3   12   15     -0.87      0.00
    6   12   15     -1.16      0.00
  -17   13   15     -2.87      0.00
  -14   13   15      0.55      0.00
  -11   13   15      2.62      0.00
   -8   13   15     -0.51      0.00
   -5   13   15      0.11      0.00
   -2   13   15     -1.86      0.00
    1   13   15     -0.90      0.00
    4   13   15     -0.80      0.00
  -16   14   15     -1.60      0.00
  -13   14   15     -0.49      0.00
  -10   14   15      1.40      0.00
   -7   14   15      0.92      0.00
   -4   14   15      0.75      0.00
   -1   14   15     -2.33      0.00
    2   14   15     -0.34      0.00
    5   14   15     -1.48      0.00
  -15   15   15      0.30      0.00
  -12   15   15      1.51      0.00
   -9   15   15     -0.25      0.00
   -6   15   15     -0.01      0.00
   -3   15   15     -0.05      0.00
    0   15   15      0.42      0.00
    3   15   15      1.26      0.00
  -14   16   15      0.80      0.00
  -11   16   15      1.79      0.00
   -8   16   15      0.26      0.00
   -5   16   15      0.32      0.00
   -2   16   15      0.95      0.00
  -13   17   15      3.03      0.00
  -10   17   15     -0.13      0.00
   -7   17   15     -1.14      0.00
   -4   17   15     -0.33      0.00
   -1   17   15      3.67      0.00
  -15   18   15      1.15      0.00
  -12   18   15      3.41      0.00
   -9   18   15     -1.27      0.00
   -6   18   15     -0.91      0.00
   -3   18   15      0.28      0.00
  -14   19   15      1.59      0.00
  -11   19   15     -0.24      0.00
   -8   19   15     -2.07      0.00
   -5   19   15     -1.87      0.00
   -1    1   16     -2.55      0.00
   -3    2   16     -1.10      0.00
    0    2   16     -2.89      0.00
   -5    3   16      1.11      0.00
   -2    3   16     -0.67      0.00
    1    3   16     -0.60      0.00
   -7    4   16     -1.56      0.00
   -4    4   16      0.31      0.00
   -1    4   16     -1.79      0.00
    2    4   16     -0.99      0.00
   -9    5   16     -1.43      0.00
   -6    5   16      0.18      0.00
   -3    5   16     -1.29      0.00
    0    5   16     -1.86      0.00
    3    5   16     -0.09      0.00
  -11    6   16     -1.42      0.00
   -8    6   16     -0.09      0.00
   -5    6   16      0.29      0.00
   -2    6   16     -0.79      0.00
    1    6   16     -0.83      0.00
    4    6   16      0.47      0.00
  -13    7   16     -1.36      0.00
  -10    7   16     -0.82      0.00
   -7    7   16      1.05      0.00
   -4    7   16      2.73      0.00
   -1    7   16      2.38      0.00
    2    7   16      0.66      0.00
    5    7   16      0.26      0.00
  -15    8   16     -0.66      0.00
  -12    8   16     -0.64      0.00
   -9    8   16     -0.63      0.00
   -6    8   16      2.74      0.00
   -3    8   16      3.65      0.00
    0    8   16      0.98      0.00
    3    8   16      1.28      0.00
    6    8   16      2.08      0.00
  -17    9   16      3.68      0.00
  -14    9   16     -1.35      0.00
  -11    9   16     -1.85      0.00
   -8    9   16     -1.05      0.00
   -5    9   16      4.02      0.00
   -2    9   16      2.81      0.00
    1    9   16     -0.08      0.00
    4    9   16      0.64      0.00
    7    9   16      4.28      0.00
  -16   10   16     -0.08      0.00
  -13   10   16     -0.26      0.00
  -10   10   16     -2.11      0.00
   -7   10   16      0.95      0.00
   -4   10   16      1.27      0.00
   -1   10   16     -0.80      0.00
    2   10   16      0.88      0.00
    5   10   16      1.48      0.00
    8   10   16      3.68      0.00
  -18   11   16      0.69      0.00
  -15   11   16      1.76      0.00
  -12   11   16     -2.39      0.00
   -9   11   16     -1.03      0.00
   -6   11   16      1.05      0.00
   -3   11   16      0.43      0.00
    0   11   16      0.44      0.00
    3   11   16     -0.52      0.00
    6   11   16      2.22      0.00
  -17   12   16      0.94      0.00
  -14   12   16     -0.28      0.00
  -11   12   16     -1.97      0.00
   -8   12   16      0.48      0.00
   -5   12   16      0.51      0.00
   -2   12   16      0.87      0.00
    1   12   16      0.17      0.00
    4   12   16      1.42      0.00
  -16   13   16      1.68      0.00
  -13   13   16     -0.06      0.00
  -10   13   16     -2.05      0.00
   -7   13   16      0.04      0.00
   -4   13   16     -0.20      0.00
   -1   13   16      2.68      0.00
    2   13   16      0.87      0.00
    5   13   16      1.38      0.00
  -15   14   16      0.18      0.00
  -12   14   16     -0.83      0.00
   -9   14   16      0.47      0.00
   -6   14   16     -0.65      0.00
   -3   14   16      0.61      0.00
    0   14   16      1.28      0.00
    3   14   16     -0.20      0.00
  -14   15   16      0.02      0.00
  -11   15   16     -1.57      0.00
   -8   15   16     -0.42      0.00
   -5   15   16     -0.47      0.00
   -2   15   16      1.51      0.00
  -16   16   16     -1.78      0.00
  -13   16   16     -1.65      0.00
  -10   16   16      0.23      0.00
   -7   16   16      0.78      0.00
   -4   16   16     -0.23      0.00
   -1   16   16     -1.53      0.00
  -15   17   16     -2.65      0.00
  -12   17   16     -3.20      0.00
   -9   17   16      0.62      0.00
   -6   17   16      0.96      0.00
   -3   17   16      0.42      0.00
  -14   18   16     -1.94      0.00
  -11   18   16     -0.58      0.00
   -8   18   16      1.78      0.00
   -5   18   16      1.61      0.00
  -13   19   16     -2.56      0.00
   -7   19   16      1.93      0.00
    0    1   17      3.09      0.00
   -2    2   17      1.59      0.00
    1    2   17      2.12      0.00
   -4    3   17     -0.12      0.00
   -1    3   17      2.23      0.00
    2    3   17     -0.09      0.00
   -6    4   17      0.78      0.00
   -3    4   17      1.38      0.00
    0    4   17      2.65      0.00
    3    4   17      1.32      0.00
   -8    5   17      1.68      0.00
   -5    5   17      0.61      0.00
   -2    5   17      2.47      0.00
    1    5   17      1.52      0.00
    4    5   17     -0.15      0.00
  -10    6   17      1.05      0.00
   -7    6   17     -1.15      0.00
   -4    6   17      0.00      0.00
   -1    6   17      0.54      0.00
    2    6   17     -1.14      0.00
    5    6   17     -0.10      0.00
  -12    7   17      0.97      0.00
   -9    7   17     -0.51      0.00
   -6    7   17     -1.63      0.00
   -3    7   17     -2.35      0.00
    0    7   17     -1.81      0.00
    3    7   17     -1.43      0.00
    6    7   17     -1.00      0.00
  -14    8   17      2.42      0.00
  -11    8   17      0.66      0.00
   -8    8   17     -0.06      0.00
   -5    8   17     -4.05      0.00
   -2    8   17     -3.46      0.00
    1    8   17     -0.19      0.00
    4    8   17     -1.28      0.00
    7    8   17     -1.46      0.00
  -16    9   17     -0.32      0.00
  -13    9   17      0.58      0.00
  -10    9   17      1.40      0.00
   -7    9   17     -0.65      0.00
   -4    9   17     -1.95      0.00
   -1    9   17     -0.74      0.00
    2    9   17     -1.03      0.00
    5    9   17     -1.39      0.00
    8    9   17     -4.24      0.00
  -18   10   17     -3.11      0.00
  -15   10   17      0.21      0.00
  -12   10   17      1.49      0.00
   -9   10   17      1.33      0.00
   -6   10   17     -1.86      0.00
   -3   10   17     -1.01      0.00
    0   10   17      1.53      0.00
    3   10   17     -0.50      0.00
    6   10   17     -2.23      0.00
  -17   11   17     -0.21      0.00
  -14   11   17     -0.73      0.00
  -11   11   17      1.97      0.00
   -8   11   17     -0.54      0.00
   -5   11   17     -0.33      0.00
   -2   11   17      0.07      0.00
    1   11   17     -0.82      0.00
    4   11   17     -0.16      0.00
    7   11   17     -1.75      0.00
  -16   12   17     -0.77      0.00
  -13   12   17      0.67      0.00
  -10   12   17      1.79      0.00
   -7   12   17     -0.80      0.00
   -4   12   17     -0.84      0.00
   -1   12   17     -1.29      0.00
    2   12   17      0.15      0.00
    5   12   17     -1.62      0.00
  -15   13   17     -0.47      0.00
  -12   13   17      0.50      0.00
   -9   13   17     -0.07      0.00
   -6   13   17      0.40      0.00
   -3   13   17     -0.65      0.00
    0   13   17     -1.47      0.00
    3   13   17     -0.85      0.00
    6   13   17     -1.26      0.00
  -17   14   17     -1.94      0.00
  -14   14   17     -0.80      0.00
  -11   14   17      1.68      0.00
   -8   14   17     -0.11      0.00
   -5   14   17      0.67      0.00
   -2   14   17     -2.66      0.00
    1   14   17     -0.57      0.00
  -16   15   17      0.23      0.00
  -13   15   17      0.13      0.00
  -10   15   17     -0.32      0.00
   -7   15   17      0.19      0.00
   -4   15   17      0.45      0.00
   -1   15   17     -1.18      0.00
  -15   16   17      2.94      0.00
  -12   16   17      2.35      0.00
   -9   16   17     -0.47      0.00
   -6   16   17     -0.94      0.00
   -3   16   17     -1.15      0.00
  -14   17   17      2.51      0.00
  -11   17   17      0.85      0.00
   -8   17   17     -1.06      0.00
   -5   17   17     -0.68      0.00
   -2   17   17      0.70      0.00
  -13   18   17      2.75      0.00
  -10   18   17     -1.07      0.00
   -7   18   17     -1.84      0.00
   -4   18   17     -2.28      0.00
    0    0   18     -3.05      0.00
    1    1   18     -2.17      0.00
   -1    2   18     -1.93      0.00
    2    2   18      0.00      0.00
   -3    3   18     -0.79      0.00
    0    3   18     -2.81      0.00
    3    3   18     -1.17      0.00
   -5    4   18     -0.78      0.00
   -2    4   18     -2.54      0.00
    1    4   18     -1.48      0.00
    4    4   18     -1.77      0.00
   -7    5   18     -0.77      0.00
   -4    5   18     -1.60      0.00
   -1    5   18     -2.80      0.00
    2    5   18      0.01      0.00
    5    5   18      0.01      0.00
   -9    6   18     -0.53      0.00
   -6    6   18      1.17      0.00
   -3    6   18      0.37      0.00
    0    6   18      0.13      0.00
    3    6   18      2.04      0.00
    6    6   18      0.53      0.00
  -11    7   18     -0.62      0.00
   -8    7   18      1.72      0.00
   -5    7   18      2.35      0.00
   -2    7   18      2.28      0.00
    1    7   18      1.99      0.00
    4    7   18      0.95      0.00
    7    7   18     -0.55      0.00
  -13    8   18     -1.50      0.00
  -10    8   18     -0.04      0.00
   -7    8   18      0.43      0.00
   -4    8   18      3.14      0.00
   -1    8   18      2.29      0.00
    2    8   18      0.55      0.00
    5    8   18      1.84      0.00
    8    8   18      1.27      0.00
  -15    9   18     -1.67      0.00
  -12    9   18     -0.66      0.00
   -9    9   18     -0.77      0.00
   -6    9   18      2.18      0.00
   -3    9   18      0.94      0.00
    0    9   18     -1.55      0.00
    3    9   18      1.35      0.00
    6    9   18      0.99      0.00
  -17   10   18      1.38      0.00
  -14   10   18      0.54      0.00
  -11   10   18     -1.41      0.00
   -8   10   18     -0.09      0.00
   -5   10   18      0.26      0.00
   -2   10   18      0.24      0.00
    1   10   18     -0.14      0.00
    4   10   18      0.16      0.00
    7   10   18      2.14      0.00
  -16   11   18     -0.15      0.00
  -13   11   18     -0.33      0.00
  -10   11   18     -1.44      0.00
   -7   11   18      1.56      0.00
   -4   11   18      0.76      0.00
   -1   11   18     -1.34      0.00
    2   11   18      0.88      0.00
    5   11   18      0.42      0.00
  -15   12   18      0.39      0.00
  -12   12   18     -0.70      0.00
   -9   12   18     -0.14      0.00
   -6   12   18     -0.12      0.00
   -3   12   18      1.06      0.00
    0   12   18      1.11      0.00
    3   12   18     -0.27      0.00
  -17   13   18     -0.25      0.00
  -14   13   18      0.97      0.00
  -11   13   18     -1.59      0.00
   -8   13   18      0.67      0.00
   -5   13   18     -0.05      0.00
   -2   13   18      1.86      0.00
    1   13   18      0.23      0.00
    4   13   18      1.06      0.00
  -16   14   18      0.45      0.00
  -13   14   18      1.30      0.00
  -10   14   18     -0.19      0.00
   -7   14   18     -0.71      0.00
   -4   14   18     -0.44      0.00
   -1   14   18      2.57      0.00
    2   14   18      0.41      0.00
  -15   15   18     -1.21      0.00
  -12   15   18     -1.29      0.00
   -9   15   18      0.77      0.00
   -6   15   18      0.30      0.00
   -3   15   18      1.57      0.00
    0   15   18      0.65      0.00
  -14   16   18     -2.35      0.00
  -11   16   18     -0.83      0.00
   -8   16   18      0.33      0.00
   -5   16   18      0.07      0.00
   -2   16   18      1.29      0.00
  -16   17   18     -4.03      0.00
  -13   17   18     -2.73      0.00
  -10   17   18      0.71      0.00
   -7   17   18      1.58      0.00
   -4   17   18      1.68      0.00
  -12   18   18     -1.42      0.00
   -9   18   18      1.32      0.00
   -6   18   18      1.40      0.00
   -1    1   19      1.67      0.00
   -3    2   19      0.10      0.00
    0    2   19      1.91      0.00
   -5    3   19      0.51      0.00
   -2    3   19      1.25      0.00
    1    3   19      0.89      0.00
   -7    4   19      2.73      0.00
   -4    4   19      1.39      0.00
   -1    4   19      3.31      0.00
    2    4   19      0.69      0.00
   -9    5   19      1.18      0.00
   -6    5   19     -0.26      0.00
   -3    5   19      1.35      0.00
    0    5   19      1.47      0.00
    3    5   19     -0.53      0.00
  -11    6   19     -0.31      0.00
   -8    6   19     -0.67      0.00
   -5    6   19     -0.73      0.00
   -2    6   19     -0.69      0.00
    1    6   19     -1.86      0.00
    4    6   19     -1.33      0.00
  -13    7   19      0.54      0.00
  -10    7   19      0.22      0.00
   -7    7   19     -1.70      0.00
   -4    7   19     -3.13      0.00
   -1    7   19     -1.77      0.00
    2    7   19     -2.23      0.00
    5    7   19     -1.34      0.00
  -15    8   19      1.42      0.00
  -12    8   19      0.72      0.00
   -9    8   19     -0.83      0.00
   -6    8   19     -1.19      0.00
   -3    8   19     -1.78      0.00
    0    8   19     -0.79      0.00
    3    8   19     -0.23      0.00
    6    8   19     -0.73      0.00
  -17    9   19     -2.27      0.00
  -14    9   19      0.50      0.00
  -11    9   19      0.56      0.00
   -8    9   19      0.59      0.00
   -5    9   19     -1.40      0.00
   -2    9   19     -0.33      0.00
    1    9   19      1.43      0.00
    4    9   19     -1.40      0.00
    7    9   19     -0.40      0.00
  -16   10   19      0.25      0.00
  -13   10   19     -0.28      0.00
  -10   10   19      0.60      0.00
   -7   10   19     -1.44      0.00
   -4   10   19      0.61      0.00
   -1   10   19      2.18      0.00
    2   10   19     -1.54      0.00
    5   10   19      0.72      0.00
  -18   11   19     -1.03      0.00
  -15   11   19     -0.51      0.00
  -12   11   19      0.78      0.00
   -9   11   19      0.36      0.00
   -6   11   19     -0.36      0.00
   -3   11   19     -1.42      0.00
    0   11   19      0.98      0.00
    3   11   19      0.01      0.00
    6   11   19     -0.05      0.00
  -17   12   19      1.35      0.00
  -14   12   19     -0.54      0.00
  -11   12   19      1.30      0.00
   -8   12   19     -1.32      0.00
   -5   12   19     -0.20      0.00
   -2   12   19     -0.14      0.00
    1   12   19     -0.85      0.00
    4   12   19      0.39      0.00
  -16   13   19      0.84      0.00
  -13   13   19     -1.83      0.00
  -10   13   19      0.89      0.00
   -7   13   19      0.60      0.00
   -4   13   19     -0.63      0.00
   -1   13   19     -2.06      0.00
    2   13   19      0.35      0.00
  -15   14   19     -0.54      0.00
  -12   14   19      0.06      0.00
   -9   14   19     -0.95      0.00
   -6   14   19      0.30      0.00
   -3   14   19     -1.16      0.00
    0   14   19     -1.32      0.00
  -17   15   19     -0.22      0.00
  -14   15   19      0.40      0.00
  -11   15   19      0.84      0.00
   -8   15   19      0.12      0.00
   -5   15   19      0.17      0.00
   -2   15   19     -2.80      0.00
  -16   16   19      3.09      0.00
  -13   16   19      2.31      0.00
  -10   16   19     -0.62      0.00
   -7   16   19     -1.06      0.00
   -4   16   19     -0.79      0.00
  -15   17   19      3.61      0.00
  -12   17   19      1.72      0.00
   -9   17   19     -0.46      0.00
   -6   17   19     -0.91      0.00
   -8   18   19     -1.63      0.00
   -5   18   19     -1.87      0.00
    0    1   20     -0.80      0.00
   -2    2   20      0.24      0.00
    1    2   20     -0.01      0.00
   -4    3   20     -0.29      0.00
   -1    3   20     -1.98      0.00
    2    3   20     -0.08      0.00
   -6    4   20     -1.54      0.00
   -3    4   20     -1.26      0.00
    0    4   20     -1.72      0.00
    3    4   20     -1.77      0.00
   -8    5   20     -2.08      0.00
   -5    5   20      0.29      0.00
   -2    5   20     -0.97      0.00
    1    5   20      0.91      0.00
    4    5   20      0.50      0.00
  -10    6   20     -0.26      0.00
   -7    6   20      1.97      0.00
   -4    6   20      1.61      0.00
   -1    6   20      0.76      0.00
    2    6   20      2.85      0.00
    5    6   20      1.19      0.00
  -12    7   20     -0.07      0.00
   -9    7   20      0.54      0.00
   -6    7   20      0.96      0.00
   -3    7   20      3.13      0.00
    0    7   20      1.92      0.00
    3    7   20      0.79      0.00
    6    7   20      0.72      0.00
  -14    8   20     -0.89      0.00
  -11    8   20     -0.55      0.00
   -8    8   20      0.61      0.00
   -5    8   20      1.89      0.00
   -2    8   20      0.30      0.00
    1    8   20      0.40      0.00
    4    8   20      0.50      0.00
    7    8   20     -0.86      0.00
  -16    9   20     -0.05      0.00
  -13    9   20      0.52      0.00
  -10    9   20      0.45      0.00
   -7    9   20     -0.05      0.00
   -4    9   20     -0.25      0.00
   -1    9   20     -1.15      0.00
    2    9   20     -0.41      0.00
    5    9   20      0.42      0.00
    8    9   20      1.41      0.00
  -15   10   20      0.86      0.00
  -12   10   20     -0.61      0.00
   -9   10   20     -0.06      0.00
   -6   10   20      1.14      0.00
   -3   10   20     -0.05      0.00
    0   10   20     -2.80      0.00
    3   10   20      1.78      0.00
    6   10   20     -1.75      0.00
  -17   11   20     -0.72      0.00
  -14   11   20      0.74      0.00
  -11   11   20     -0.67      0.00
   -8   11   20      1.34      0.00
   -5   11   20     -0.51      0.00
   -2   11   20     -0.40      0.00
    1   11   20      0.99      0.00
    4   11   20     -1.70      0.00
    7   11   20     -0.14      0.00
  -16   12   20     -1.47      0.00
  -13   12   20      0.87      0.00
  -10   12   20     -1.27      0.00
   -7   12   20      0.44      0.00
   -4   12   20      1.81      0.00
   -1   12   20     -0.47      0.00
    2   12   20     -0.07      0.00
    5   12   20     -0.64      0.00
  -15   13   20      0.05      0.00
  -12   13   20      0.91      0.00
   -9   13   20      0.86      0.00
   -6   13   20     -0.76      0.00
   -3   13   20      0.85      0.00
    0   13   20      1.51      0.00
    3   13   20     -0.39      0.00
  -17   14   20     -1.35      0.00
  -14   14   20      2.03      0.00
  -11   14   20     -0.83      0.00
   -8   14   20     -0.12      0.00
   -5   14   20      0.40      0.00
   -2   14   20      2.70      0.00
    1   14   20      0.68      0.00
  -16   15   20     -0.90      0.00
  -13   15   20     -0.58      0.00
  -10   15   20      0.57      0.00
   -7   15   20      0.23      0.00
   -4   15   20      0.14      0.00
   -1   15   20      2.18      0.00
  -15   16   20     -3.18      0.00
  -12   16   20     -2.02      0.00
   -9   16   20      0.03      0.00
   -6   16   20      0.77      0.00
   -3   16   20      2.19      0.00
  -14   17   20     -2.28      0.00
  -11   17   20      0.28      0.00
   -8   17   20      0.73      0.00
   -5   17   20      0.67      0.00
   -7   18   20      1.36      0.00
    0    0   21     -0.17      0.00
    1    1   21     -1.04      0.00
   -1    2   21     -0.09      0.00
    2    2   21     -0.46      0.00
   -3    3   21     -0.17      0.00
    0    3   21      0.93      0.00
    3    3   21      1.86      0.00
   -5    4   21      0.34      0.00
   -2    4   21      1.33      0.00
    1    4   21     -0.91      0.00
    4    4   21      2.17      0.00
   -7    5   21      0.66      0.00
   -4    5   21     -0.75      0.00
   -1    5   21      0.19      0.00
    2    5   21     -1.40      0.00
    5    5   21     -1.07      0.00
   -9    6   21      1.26      0.00
   -6    6   21     -1.96      0.00
   -3    6   21     -2.68      0.00
    0    6   21     -1.99      0.00
    3    6   21     -1.88      0.00
    6    6   21     -0.69      0.00
  -11    7   21      0.10      0.00
   -8    7   21     -1.19      0.00
   -5    7   21     -1.36      0.00
   -2    7   21     -1.47      0.00
    1    7   21     -2.63      0.00
    4    7   21      0.16      0.00
    7    7   21      0.39      0.00
  -13    8   21     -0.55      0.00
  -10    8   21      0.01      0.00
   -7    8   21      0.47      0.00
   -4    8   21     -1.84      0.00
   -1    8   21      0.52      0.00
    2    8   21      0.58      0.00
    5    8   21     -0.77      0.00
    8    8   21     -0.05      0.00
  -15    9   21     -0.66      0.00
  -12    9   21      0.12      0.00
   -9    9   21     -1.01      0.00
   -6    9   21     -0.55      0.00
   -3    9   21      1.37      0.00
    0    9   21      1.54      0.00
    3    9   21     -0.47      0.00
    6    9   21      1.42      0.00
  -17   10   21     -0.18      0.00
  -14   10   21     -2.06      0.00
  -11   10   21      0.26      0.00
   -8   10   21     -0.63      0.00
   -5   10   21      0.31      0.00
   -2   10   21      0.76      0.00
    1   10   21      0.90      0.00
    4   10   21     -0.13      0.00
    7   10   21      1.03      0.00
  -16   11   21      0.34      0.00
  -13   11   21      0.32      0.00
  -10   11   21      0.46      0.00
   -7   11   21     -1.60      0.00
   -4   11   21     -0.78      0.00
   -1   11   21      2.32      0.00
    2   11   21     -1.83      0.00
    5   11   21      3.34      0.00
  -18   12   21      1.07      0.00
  -15   12   21      0.50      0.00
  -12   12   21     -0.70      0.00
   -9   12   21     -0.29      0.00
   -6   12   21      0.72      0.00
   -3   12   21     -1.59      0.00
    0   12   21     -0.52      0.00
    3   12   21      1.63      0.00
  -17   13   21      2.67      0.00
  -14   13   21     -1.87      0.00
  -11   13   21      0.63      0.00
   -8   13   21     -0.68      0.00
   -5   13   21     -1.14      0.00
   -2   13   21     -0.94      0.00
    1   13   21     -0.67      0.00
  -16   14   21      1.07      0.00
  -13   14   21     -2.11      0.00
  -10   14   21     -0.36      0.00
   -7   14   21      0.73      0.00
   -4   14   21     -0.64      0.00
   -1   14   21     -2.82      0.00
  -15   15   21      0.39      0.00
  -12   15   21      1.55      0.00
   -9   15   21     -0.06      0.00
   -6   15   21     -0.99      0.00
   -3   15   21     -1.75      0.00
  -14   16   21      2.16      0.00
  -11   16   21      0.44      0.00
   -8   16   21      0.11      0.00
   -5   16   21      0.20      0.00
  -10   17   21     -0.44      0.00
   -7   17   21     -1.11      0.00
   -6   18   21     -0.72      0.00
   -1    1   22      1.36      0.00
   -3    2   22      1.03      0.00
    0    2   22      0.60      0.00
   -5    3   22     -1.06      0.00
   -2    3   22      0.10      0.00
    1    3   22      0.90      0.00
   -7    4   22     -2.76      0.00
   -4    4   22      0.56      0.00
   -1    4   22     -0.84      0.00
    2    4   22      0.66      0.00
   -9    5   22     -1.19      0.00
   -6    5   22      1.25      0.00
   -3    5   22      1.45      0.00
    0    5   22      2.18      0.00
    3    5   22      0.36      0.00
  -11    6   22      1.08      0.00
   -8    6   22     -0.85      0.00
   -5    6   22      1.76      0.00
   -2    6   22      2.03      0.00
    1    6   22      3.08      0.00
    4    6   22      1.04      0.00
  -13    7   22      0.49      0.00
  -10    7   22     -0.96      0.00
   -7    7   22      0.65      0.00
   -4    7   22      2.72      0.00
   -1    7   22      0.40      0.00
    2    7   22      1.46      0.00
    5    7   22     -0.05      0.00
  -15    8   22      0.71      0.00
  -12    8   22      0.82      0.00
   -9    8   22      0.63      0.00
   -6    8   22     -0.74      0.00
   -3    8   22      0.07      0.00
    0    8   22      0.49      0.00
    3    8   22     -1.59      0.00
    6    8   22      0.15      0.00
  -14    9   22      2.67      0.00
  -11    9   22     -0.39      0.00
   -8    9   22      0.55      0.00
   -5    9   22      0.61      0.00
   -2    9   22     -2.01      0.00
    1    9   22     -1.19      0.00
    4    9   22      0.85      0.00
    7    9   22     -0.97      0.00
  -16   10   22      0.50      0.00
  -13   10   22      0.49      0.00
  -10   10   22      0.82      0.00
   -7   10   22      1.21      0.00
   -4   10   22     -0.83      0.00
   -1   10   22     -1.75      0.00
    2   10   22      1.02      0.00
    5   10   22     -2.76      0.00
  -15   11   22      1.28      0.00
  -12   11   22     -0.91      0.00
   -9   11   22      0.25      0.00
   -6   11   22      0.34      0.00
   -3   11   22      1.23      0.00
    0   11   22     -1.42      0.00
    3   11   22      0.22      0.00
    6   11   22     -3.20      0.00
  -17   12   22     -1.98      0.00
  -14   12   22     -0.04      0.00
  -11   12   22     -0.12      0.00
   -8   12   22      1.39      0.00
   -5   12   22      0.72      0.00
   -2   12   22     -0.12      0.00
    1   12   22      1.47      0.00
    4   12   22     -2.97      0.00
  -16   13   22     -2.10      0.00
  -13   13   22      2.79      0.00
  -10   13   22     -0.32      0.00
   -7   13   22     -0.59      0.00
   -4   13   22      2.32      0.00
   -1   13   22      1.62      0.00
    2   13   22     -0.30      0.00
  -15   14   22      0.66      0.00
  -12   14   22      0.19      0.00
   -9   14   22      0.74      0.00
   -6   14   22      0.86      0.00
   -3   14   22      1.14      0.00
    0   14   22      2.06      0.00
  -14   15   22      0.43      0.00
  -11   15   22     -0.95      0.00
   -8   15   22     -0.89      0.00
   -5   15   22      0.40      0.00
  -13   16   22     -2.03      0.00
  -10   16   22     -0.05      0.00
   -7   16   22      1.01      0.00
   -9   17   22     -0.37      0.00
   -6   17   22      0.30      0.00
    0    1   23     -1.48      0.00
   -2    2   23     -1.22      0.00
    1    2   23     -0.94      0.00
   -4    3   23      0.36      0.00
   -1    3   23      0.11      0.00
    2    3   23     -0.19      0.00
   -6    4   23      1.04      0.00
   -3    4   23     -1.11      0.00
    0    4   23     -1.59      0.00
    3    4   23      1.04      0.00
   -8    5   23      2.55      0.00
   -5    5   23     -2.03      0.00
   -2    5   23     -1.06      0.00
    1    5   23     -3.34      0.00
    4    5   23     -0.30      0.00
  -10    6   23      0.22      0.00
   -7    6   23     -0.49      0.00
   -4    6   23     -2.58      0.00
   -1    6   23     -1.66      0.00
    2    6   23     -1.96      0.00
    5    6   23     -0.86      0.00
  -12    7   23     -1.49      0.00
   -9    7   23      1.58      0.00
   -6    7   23      0.37      0.00
   -3    7   23     -1.96      0.00
    0    7   23     -1.53      0.00
    3    7   23      0.56      0.00
    6    7   23     -0.37      0.00
  -14    8   23     -2.29      0.00
  -11    8   23     -0.06      0.00
   -8    8   23     -0.40      0.00
   -5    8   23     -0.55      0.00
   -2    8   23      1.88      0.00
    1    8   23     -0.77      0.00
    4    8   23      1.11      0.00
    7    8   23     -1.16      0.00
  -16    9   23     -1.45      0.00
  -13    9   23     -2.42      0.00
  -10    9   23     -0.51      0.00
   -7    9   23     -0.01      0.00
   -4    9   23      0.36      0.00
   -1    9   23      0.95      0.00
    2    9   23      1.27      0.00
    5    9   23      0.20      0.00
  -15   10   23     -2.86      0.00
  -12   10   23      1.57      0.00
   -9   10   23     -1.42      0.00
   -6   10   23     -1.02      0.00
   -3   10   23      1.00      0.00
    0   10   23      1.34      0.00
    3   10   23     -1.38      0.00
    6   10   23      3.59      0.00
  -17   11   23      1.22      0.00
  -14   11   23     -0.52      0.00
  -11   11   23      0.38      0.00
   -8   11   23     -1.31      0.00
   -5   11   23     -0.09      0.00
   -2   11   23      0.01      0.00
    1   11   23     -0.73      0.00
    4   11   23      3.05      0.00
  -16   12   23      0.80      0.00
  -13   12   23     -0.05      0.00
  -10   12   23      0.42      0.00
   -7   12   23     -0.76      0.00
   -4   12   23     -2.60      0.00
   -1   12   23      0.22      0.00
    2   12   23     -0.79      0.00
  -15   13   23      0.68      0.00
  -12   13   23     -1.78      0.00
   -9   13   23     -0.96      0.00
   -6   13   23     -0.39      0.00
   -3   13   23     -1.80      0.00
    0   13   23     -2.17      0.00
  -14   14   23     -2.33      0.00
  -11   14   23      0.86      0.00
   -8   14   23      0.45      0.00
   -5   14   23     -2.08      0.00
   -2   14   23     -2.13      0.00
  -13   15   23      0.43      0.00
  -10   15   23      0.08      0.00
   -7   15   23     -0.33      0.00
   -4   15   23      0.24      0.00
   -9   16   23      1.14      0.00
   -6   16   23     -0.75      0.00
   -8   17   23     -0.40      0.00
    0    0   24      1.17      0.00
    1    1   24      1.01      0.00
   -1    2   24      0.80      0.00
    2    2   24     -0.70      0.00
   -3    3   24      0.40      0.00
    0    3   24      0.84      0.00
    3    3   24     -0.97      0.00
   -5    4   24      0.20      0.00
   -2    4   24      0.55      0.00
    1    4   24      2.82      0.00
    4    4   24     -1.47      0.00
   -7    5   24     -0.98      0.00
   -4    5   24      2.43      0.00
   -1    5   24      1.50      0.00
    2    5   24      1.65      0.00
    5    5   24      0.99      0.00
   -9    6   24     -2.54      0.00
   -6    6   24      0.69      0.00
   -3    6   24      2.08      0.00
    0    6   24      2.57      0.00
    3    6   24      0.43      0.00
    6    6   24      1.18      0.00
  -11    7   24      1.38      0.00
   -8    7   24     -1.21      0.00
   -5    7   24      0.37      0.00
   -2    7   24     -0.32      0.00
    1    7   24      1.85      0.00
    4    7   24     -1.09      0.00
    7    7   24      2.54      0.00
  -13    8   24      3.10      0.00
  -10    8   24     -0.76      0.00
   -7    8   24     -0.70      0.00
   -4    8   24      0.91      0.00
   -1    8   24     -0.76      0.00
    2    8   24     -1.04      0.00
    5    8   24     -0.07      0.00
  -15    9   24      3.26      0.00
  -12    9   24      0.40      0.00
   -9    9   24      1.50      0.00
   -6    9   24      0.34      0.00
   -3    9   24     -2.08      0.00
    0    9   24      0.56      0.00
    3    9   24     -0.90      0.00
    6    9   24     -0.38      0.00
  -14   10   24      2.85      0.00
  -11   10   24     -1.52      0.00
   -8   10   24      1.59      0.00
   -5   10   24      0.30      0.00
   -2   10   24     -0.70      0.00
    1   10   24     -0.69      0.00
    4   10   24     -0.65      0.00
    7   10   24     -1.62      0.00
  -16   11   24      0.76      0.00
  -13   11   24     -1.90      0.00
  -10   11   24      0.37      0.00
   -7   11   24      1.53      0.00
   -4   11   24      0.71      0.00
   -1   11   24     -0.38      0.00
    2   11   24      1.68      0.00
    5   11   24     -4.83      0.00
  -15   12   24     -0.13      0.00
  -12   12   24      0.41      0.00
   -9   12   24      0.60      0.00
   -6   12   24      0.63      0.00
   -3   12   24      2.45      0.00
    0   12   24      1.12      0.00
    3   12   24     -1.38      0.00
  -14   13   24      0.59      0.00
  -11   13   24      0.10      0.00
   -8   13   24      0.99      0.00
   -5   13   24      2.71      0.00
   -2   13   24      1.70      0.00
    1   13   24      1.77      0.00
  -13   14   24      2.11      0.00
  -10   14   24     -0.12      0.00
   -7   14   24     -0.21      0.00
   -4   14   24      1.46      0.00
  -12   15   24     -1.55      0.00
   -9   15   24     -0.87      0.00
   -6   15   24      1.59      0.00
   -8   16   24     -0.52      0.00
   -7   17   24      1.12      0.00
   -1    1   25     -0.32      0.00
   -3    2   25      0.86      0.00
    0    2   25     -0.48      0.00
   -5    3   25      1.30      0.00
   -2    3   25     -0.39      0.00
    1    3   25     -0.98      0.00
   -7    4   25      0.94      0.00
   -4    4   25     -0.89      0.00
   -1    4   25     -0.69      0.00
    2    4   25     -1.50      0.00
   -9    5   25      1.19      0.00
   -6    5   25     -0.44      0.00
   -3    5   25     -1.57      0.00
    0    5   25     -2.86      0.00
    3    5   25     -0.05      0.00
  -11    6   25     -2.19      0.00
   -8    6   25      2.52      0.00
   -5    6   25     -0.80      0.00
   -2    6   25     -0.22      0.00
    1    6   25     -2.07      0.00
    4    6   25     -0.26      0.00
  -13    7   25     -3.10      0.00
  -10    7   25      0.75      0.00
   -7    7   25      1.35      0.00
   -4    7   25     -1.31      0.00
   -1    7   25      0.22      0.00
    2    7   25     -0.10      0.00
    5    7   25      0.10      0.00
  -15    8   25     -4.62      0.00
  -12    8   25     -2.88      0.00
   -9    8   25      0.58      0.00
   -6    8   25      0.68      0.00
   -3    8   25      1.15      0.00
    0    8   25     -1.57      0.00
    3    8   25      2.30      0.00
    6    8   25     -2.05      0.00
  -14    9   25     -3.74      0.00
  -11    9   25      1.19      0.00
   -8    9   25     -1.57      0.00
   -5    9   25     -0.65      0.00
   -2    9   25      1.73      0.00
    1    9   25      0.27      0.00
    4    9   25      0.64      0.00
    7    9   25     -1.32      0.00
  -13   10   25      0.13      0.00
  -10   10   25     -0.09      0.00
   -7   10   25     -1.51      0.00
   -4   10   25      0.92      0.00
   -1   10   25     -0.54      0.00
    2   10   25      0.11      0.00
    5   10   25      2.85      0.00
  -15   11   25     -1.99      0.00
  -12   11   25      2.68      0.00
   -9   11   25     -1.27      0.00
   -6   11   25     -1.07      0.00
   -3   11   25     -0.94      0.00
    0   11   25     -0.19      0.00
    3   11   25     -0.17      0.00
  -14   12   25      1.15      0.00
  -11   12   25     -0.42      0.00
   -8   12   25     -1.64      0.00
   -5   12   25     -1.85      0.00
   -2   12   25     -2.10      0.00
    1   12   25     -2.00      0.00
  -13   13   25     -1.53      0.00
  -10   13   25      0.14      0.00
   -7   13   25     -0.71      0.00
   -4   13   25     -3.28      0.00
   -1   13   25     -2.26      0.00
  -12   14   25     -0.29      0.00
   -9   14   25     -0.28      0.00
   -6   14   25     -1.67      0.00
   -3   14   25     -1.07      0.00
  -11   15   25      1.10      0.00
   -8   15   25      1.12      0.00
   -7   16   25     -1.29      0.00
    0    1   26     -0.49      0.00
   -2    2   26     -0.67      0.00
    1    2   26     -0.48      0.00
   -4    3   26     -1.47      0.00
   -1    3   26      0.32      0.00
    2    3   26      0.12      0.00
   -6    4   26      0.03      0.00
   -3    4   26      0.70      0.00
    0    4   26      1.81      0.00
    3    4   26      0.51      0.00
   -8    5   26     -1.60      0.00
   -5    5   26      0.60      0.00
   -2    5   26     -0.17      0.00
    1    5   26      2.25      0.00
    4    5   26     -0.15      0.00
  -10    6   26      0.45      0.00
   -7    6   26     -1.48      0.00
   -4    6   26      1.03      0.00
   -1    6   26      0.03      0.00
    2    6   26      0.29      0.00
    5    6   26      1.40      0.00
  -12    7   26      4.08      0.00
   -9    7   26     -2.06      0.00
   -6    7   26     -1.49      0.00
   -3    7   26     -0.26      0.00
    0    7   26      1.27      0.00
    3    7   26     -1.30      0.00
    6    7   26      2.64      0.00
  -14    8   26      4.63      0.00
  -11    8   26      1.09      0.00
   -8    8   26     -0.23      0.00
   -5    8   26      0.68      0.00
   -2    8   26     -1.84      0.00
    1    8   26      0.87      0.00
    4    8   26     -1.80      0.00
  -13    9   26      2.37      0.00
  -10    9   26     -1.04      0.00
   -7    9   26      1.13      0.00
   -4    9   26     -0.90      0.00
   -1    9   26      1.00      0.00
    2    9   26     -1.98      0.00
    5    9   26     -0.41      0.00
  -12   10   26     -2.83      0.00
   -9   10   26      1.84      0.00
   -6   10   26      1.04      0.00
   -3   10   26     -1.40      0.00
    0   10   26      0.55      0.00
    3   10   26     -0.16      0.00
    6   10   26     -2.03      0.00
  -14   11   26      0.11      0.00
  -11   11   26     -1.54      0.00
   -8   11   26      2.08      0.00
   -5   11   26      0.54      0.00
   -2   11   26      1.70      0.00
    1   11   26      0.83      0.00
    4   11   26     -2.58      0.00
  -13   12   26     -1.54      0.00
  -10   12   26      0.53      0.00
   -7   12   26      1.75      0.00
   -4   12   26      2.58      0.00
   -1   12   26      2.35      0.00
    2   12   26      1.45      0.00
  -12   13   26      1.34      0.00
   -9   13   26      0.89      0.00
   -6   13   26      1.63      0.00
   -3   13   26      2.96      0.00
  -11   14   26     -0.87      0.00
   -8   14   26     -0.06      0.00
   -5   14   26      2.05      0.00
  -10   15   26     -0.34      0.00
   -7   15   26      0.54      0.00
    0    0   27      1.49      0.00
    1    1   27      1.12      0.00
   -1    2   27      0.48      0.00
    2    2   27      1.41      0.00
   -3    3   27      0.92      0.00
    0    3   27     -0.69      0.00
    3    3   27     -0.80      0.00
   -5    4   27      0.21      0.00
   -2    4   27      0.36      0.00
    1    4   27     -1.58      0.00
    4    4   27      0.06      0.00
   -7    5   27      0.12      0.00
   -4    5   27     -0.27      0.00
   -1    5   27      0.32      0.00
    2    5   27     -0.61      0.00
    5    5   27     -1.07      0.00
   -9    6   27      1.40      0.00
   -6    6   27      1.51      0.00
   -3    6   27      0.40      0.00
    0    6   27     -0.54      0.00
    3    6   27      0.56      0.00
    6    6   27     -3.96      0.00
  -11    7   27     -3.22      0.00
   -8    7   27      1.66      0.00
   -5    7   27      0.04      0.00
   -2    7   27      1.64      0.00
    1    7   27     -0.83      0.00
    4    7   27      0.97      0.00
    7    7   27     -5.65      0.00
  -13    8   27     -4.10      0.00
  -10    8   27      0.71      0.00
   -7    8   27      0.53      0.00
   -4    8   27     -0.24      0.00
   -1    8   27     -0.58      0.00
    2    8   27      1.78      0.00
    5    8   27     -0.25      0.00
  -12    9   27     -0.07      0.00
   -9    9   27     -0.52      0.00
   -6    9   27     -1.07      0.00
   -3    9   27      2.39      0.00
    0    9   27     -1.53      0.00
    3    9   27      2.43      0.00
    6    9   27     -1.27      0.00
  -11   10   27      3.26      0.00
   -8   10   27     -2.70      0.00
   -5   10   27      0.41      0.00
   -2   10   27     -0.41      0.00
    1   10   27      0.80      0.00
    4   10   27      1.48      0.00
  -13   11   27      2.31      0.00
  -10   11   27     -0.36      0.00
   -7   11   27     -1.95      0.00
   -4   11   27     -0.10      0.00
   -1   11   27     -2.27      0.00
    2   11   27     -1.20      0.00
  -12   12   27      0.76      0.00
   -9   12   27     -1.55      0.00
   -6   12   27     -1.59      0.00
   -3   12   27     -3.08      0.00
    0   12   27     -2.07      0.00
  -11   13   27     -0.27      0.00
   -8   13   27     -1.41      0.00
   -5   13   27     -2.29      0.00
  -10   14   27      0.29      0.00
   -7   14   27     -0.39      0.00
   -9   15   27      0.50      0.00
   -1    1   28     -1.16      0.00
   -3    2   28     -1.41      0.00
    0    2   28     -0.04      0.00
   -5    3   28     -0.04      0.00
   -2    3   28     -0.48      0.00
    1    3   28      0.50      0.00
   -7    4   28      1.43      0.00
   -4    4   28     -0.55      0.00
   -1    4   28     -0.40      0.00
    2    4   28      0.98      0.00
   -9    5   28     -0.15      0.00
   -6    5   28      0.06      0.00
   -3    5   28     -1.11      0.00
    0    5   28      0.06      0.00
    3    5   28     -0.02      0.00
  -11    6   28      4.04      0.00
   -8    6   28     -0.65      0.00
   -5    6   28     -1.11      0.00
   -2    6   28     -1.79      0.00
    1    6   28     -0.11      0.00
    4    6   28      0.04      0.00
  -13    7   28      5.75      0.00
  -10    7   28      0.80      0.00
   -7    7   28     -1.84      0.00
   -4    7   28      0.77      0.00
   -1    7   28     -0.63      0.00
    2    7   28     -0.87      0.00
    5    7   28      1.47      0.00
  -12    8   28      3.07      0.00
   -9    8   28     -0.50      0.00
   -6    8   28      0.13      0.00
   -3    8   28     -1.60      0.00
    0    8   28      1.72      0.00
    3    8   28     -3.26      0.00
    6    8   28      3.31      0.00
  -11    9   28     -1.99      0.00
   -8    9   28      1.52      0.00
   -5    9   28      0.23      0.00
   -2    9   28     -0.68      0.00
    1    9   28     -1.26      0.00
    4    9   28     -2.00      0.00
  -13   10   28     -0.84      0.00
  -10   10   28     -1.26      0.00
   -7   10   28      2.27      0.00
   -4   10   28     -2.15      0.00
   -1   10   28      1.83      0.00
    2   10   28     -1.20      0.00
  -12   11   28     -3.02      0.00
   -9   11   28      2.38      0.00
   -6   11   28      0.77      0.00
   -3   11   28      0.96      0.00
    0   11   28      1.34      0.00
  -11   12   28     -0.07      0.00
   -8   12   28      2.25      0.00
   -5   12   28      1.30      0.00
   -2   12   28      3.86      0.00
  -10   13   28      0.29      0.00
   -7   13   28      1.23      0.00
   -8   15   28     -0.36      0.00
    0    1   29      0.09      0.00
   -2    2   29      0.15      0.00
    1    2   29     -0.26      0.00
   -4    3   29      0.36      0.00
   -1    3   29     -0.15      0.00
    2    3   29     -0.80      0.00
   -6    4   29     -1.93      0.00
   -3    4   29      1.14      0.00
    0    4   29     -0.20      0.00
    3    4   29     -1.17      0.00
   -8    5   29     -0.87      0.00
   -5    5   29      0.61      0.00
   -2    5   29      2.20      0.00
    1    5   29      0.52      0.00
    4    5   29     -0.09      0.00
  -10    6   29     -1.93      0.00
   -7    6   29      0.10      0.00
   -4    6   29      0.49      0.00
   -1    6   29      1.55      0.00
    2    6   29      0.67      0.00
    5    6   29     -2.69      0.00
  -12    7   29     -5.50      0.00
   -9    7   29     -0.39      0.00
   -6    7   29      1.56      0.00
   -3    7   29      0.27      0.00
    0    7   29     -0.14      0.00
    3    7   29      2.00      0.00
  -11    8   29     -0.74      0.00
   -8    8   29      0.13      0.00
   -5    8   29     -1.36      0.00
   -2    8   29      1.21      0.00
    1    8   29      0.48      0.00
    4    8   29      2.46      0.00
  -10    9   29      1.71      0.00
   -7    9   29     -1.45      0.00
   -4    9   29      1.92      0.00
   -1    9   29     -1.47      0.00
    2    9   29      3.63      0.00
    5    9   29      0.60      0.00
  -12   10   29      2.71      0.00
   -9   10   29     -1.56      0.00
   -6   10   29     -0.66      0.00
   -3   10   29      1.52      0.00
    0   10   29     -0.17      0.00
    3   10   29      1.06      0.00
  -11   11   29      2.04      0.00
   -8   11   29     -3.16      0.00
   -5   11   29      0.74      0.00
   -2   11   29     -2.61      0.00
    1   11   29     -0.65      0.00
  -10   12   29     -0.99      0.00
   -7   12   29     -1.59      0.00
   -4   12   29     -1.23      0.00
   -9   13   29     -1.29      0.00
   -8   14   29     -0.50      0.00
    0    0   30      1.45      0.00
    1    1   30      1.48      0.00
   -1    2   30      1.58      0.00
    2    2   30      0.91      0.00
   -3    3   30      0.35      0.00
    0    3   30      0.95      0.00
    3    3   30      2.10      0.00
   -5    4   30      1.30      0.00
   -2    4   30     -1.64      0.00
    1    4   30      0.26      0.00
    4    4   30      0.93      0.00
   -7    5   30      2.48      0.00
   -4    5   30     -1.15      0.00
   -1    5   30     -1.63      0.00
    2    5   30     -0.58      0.00
    5    5   30      2.02      0.00
   -9    6   30      1.36      0.00
   -6    6   30     -0.59      0.00
   -3    6   30     -0.72      0.00
    0    6   30     -1.45      0.00
    3    6   30     -0.65      0.00
    6    6   30      5.61      0.00
  -11    7   30      3.23      0.00
   -8    7   30      0.90      0.00
   -5    7   30      0.48      0.00
   -2    7   30     -0.78      0.00
    1    7   30     -0.53      0.00
    4    7   30     -1.25      0.00
  -10    8   30     -0.23      0.00
   -7    8   30     -0.59      0.00
   -4    8   30      0.87      0.00
   -1    8   30      0.34      0.00
    2    8   30     -3.42      0.00
    5    8   30      0.15      0.00
  -12    9   30     -1.23      0.00
   -9    9   30      0.20      0.00
   -6    9   30      1.21      0.00
   -3    9   30     -2.41      0.00
    0    9   30      0.08      0.00
    3    9   30     -3.71      0.00
  -11   10   30     -2.91      0.00
   -8   10   30      2.79      0.00
   -5   10   30     -1.72      0.00
   -2   10   30      0.88      0.00
    1   10   30     -1.89      0.00
  -10   11   30      0.33      0.00
   -7   11   30      1.91      0.00
   -4   11   30     -1.02      0.00
   -1   11   30      2.20      0.00
   -9   12   30      2.31      0.00
   -8   13   30      1.29      0.00
   -1    1   31     -3.97      0.00
   -3    2   31     -2.39      0.00
    0    2   31     -2.97      0.00
   -5    3   31     -2.32      0.00
   -2    3   31     -1.30      0.00
    1    3   31     -1.43      0.00
   -7    4   31     -2.48      0.00
   -4    4   31     -0.75      0.00
   -1    4   31      0.96      0.00
    2    4   31     -0.53      0.00
   -9    5   31     -1.35      0.00
   -6    5   31     -2.55      0.00
   -3    5   31      1.81      0.00
    0    5   31      1.02      0.00
    3    5   31      0.10      0.00
  -11    6   31     -4.58      0.00
   -8    6   31     -2.77      0.00
   -5    6   31      0.12      0.00
   -2    6   31      0.62      0.00
    1    6   31      1.60      0.00
    4    6   31     -0.30      0.00
  -10    7   31     -1.39      0.00
   -7    7   31     -0.09      0.00
   -4    7   31     -2.05      0.00
   -1    7   31      0.72      0.00
    2    7   31      1.64      0.00
   -9    8   31     -0.81      0.00
   -6    8   31     -0.29      0.00
   -3    8   31      0.22      0.00
    0    8   31      0.08      0.00
    3    8   31      4.60      0.00
  -11    9   31      2.29      0.00
   -8    9   31     -0.82      0.00
   -5    9   31     -0.22      0.00
   -2    9   31      0.55      0.00
    1    9   31      3.03      0.00
    4    9   31      2.14      0.00
  -10   10   31      0.71      0.00
   -7   10   31     -2.05      0.00
   -4   10   31      2.84      0.00
   -1   10   31     -1.02      0.00
   -9   11   31     -2.55      0.00
   -8   12   31     -2.13      0.00
    0    1   32      6.34      0.00
   -2    2   32      5.06      0.00
    1    2   32      3.33      0.00
   -4    3   32      2.76      0.00
   -1    3   32      1.96      0.00
    2    3   32      1.87      0.00
   -6    4   32      3.50      0.00
   -3    4   32      0.25      0.00
    0    4   32      0.23      0.00
    3    4   32      0.77      0.00
   -8    5   32      2.40      0.00
   -5    5   32      2.03      0.00
   -2    5   32     -1.57      0.00
    1    5   32     -0.94      0.00
    4    5   32      0.74      0.00
  -10    6   32      2.55      0.00
   -7    6   32      3.24      0.00
   -4    6   32      0.82      0.00
   -1    6   32     -0.35      0.00
    2    6   32     -1.13      0.00
    5    6   32      2.68      0.00
   -6    7   32      0.14      0.00
   -3    7   32      2.20      0.00
    0    7   32     -1.29      0.00
    3    7   32     -2.44      0.00
  -11    8   32     -0.97      0.00
   -8    8   32      0.65      0.00
   -5    8   32      2.01      0.00
   -2    8   32     -0.32      0.00
    1    8   32     -1.96      0.00
    4    8   32     -3.06      0.00
  -10    9   32     -0.76      0.00
   -7    9   32      0.51      0.00
   -4    9   32     -1.12      0.00
   -1    9   32      0.18      0.00
    2    9   32     -4.40      0.00
   -9   10   32      1.49      0.00
   -3   10   32     -1.30      0.00
   -8   11   32      2.67      0.00
    0    0   33     -9.26      0.00
    1    1   33     -6.92      0.00
   -1    2   33     -6.83      0.00
    2    2   33     -2.88      0.00
   -3    3   33     -4.01      0.00
    0    3   33     -2.14      0.00
    3    3   33     -2.10      0.00
   -5    4   33     -3.57      0.00
   -2    4   33      0.07      0.00
    1    4   33     -0.98      0.00
    4    4   33     -0.89      0.00
   -7    5   33     -3.96      0.00
   -4    5   33     -1.46      0.00
   -1    5   33      0.28      0.00
    2    5   33      0.71      0.00
    5    5   33     -2.56      0.00
   -9    6   33     -2.17      0.00
   -6    6   33     -2.98      0.00
   -3    6   33     -1.38      0.00
    0    6   33      0.92      0.00
    3    6   33      0.53      0.00
   -8    7   33     -2.60      0.00
   -5    7   33     -2.02      0.00
   -2    7   33     -1.67      0.00
    1    7   33      1.67      0.00
    4    7   33      1.64      0.00
  -10    8   33      0.48      0.00
   -7    8   33      0.30      0.00
   -4    8   33     -2.51      0.00
   -1    8   33      0.69      0.00
    2    8   33      3.59      0.00
   -9    9   33     -0.88      0.00
   -3    9   33      1.05      0.00
    0    9   33      1.22      0.00
   -8   10   33     -1.63      0.00
   -1    1   34     10.03      0.00
   -3    2   34      5.20      0.00
    0    2   34      6.22      0.00
   -5    3   34      2.51      0.00
   -2    3   34      4.86      0.00
    1    3   34      1.96      0.00
   -7    4   34      1.93      0.00
   -4    4   34      3.42      0.00
   -1    4   34      0.16      0.00
    2    4   34      1.01      0.00
   -9    5   34      1.63      0.00
   -6    5   34      4.67      0.00
   -3    5   34      0.76      0.00
    0    5   34      0.71      0.00
    3    5   34     -0.32      0.00
   -8    6   34      3.13      0.00
   -5    6   34      3.21      0.00
   -2    6   34      1.82      0.00
    1    6   34     -1.39      0.00
   -7    7   34      1.98      0.00
   -4    7   34      3.54      0.00
   -1    7   34      0.21      0.00
    2    7   34     -1.65      0.00
   -9    8   34      0.95      0.00
   -3    8   34      2.05      0.00
    0    8   34     -1.43      0.00
   -8    9   34      0.41      0.00
    0    1   35    -10.00      0.00
   -2    2   35     -8.03      0.00
    1    2   35     -3.85      0.00
   -4    3   35     -2.92      0.00
   -1    3   35     -3.89      0.00
    2    3   35     -1.52      0.00
   -6    4   35     -2.83      0.00
   -3    4   35     -3.20      0.00
    0    4   35     -0.99      0.00
    3    4   35     -0.50      0.00
   -8    5   35     -1.71      0.00
   -5    5   35     -4.49      0.00
   -2    5   35     -0.49      0.00
    1    5   35     -0.76      0.00
    4    5   35     -0.76      0.00
   -7    6   35     -3.90      0.00
   -4    6   35     -3.28      0.00
   -1    6   35     -1.66      0.00
    2    6   35      1.15      0.00
   -9    7   35     -0.73      0.00
   -3    7   35     -3.74      0.00
    0    7   35      1.27      0.00
   -8    8   35     -0.72      0.00
    0    0   36     10.27      0.00
    1    1   36      7.11      0.00
   -1    2   36      7.94      0.00
    2    2   36      1.14      0.00
   -3    3   36      4.56      0.00
    0    3   36      2.01      0.00
   -2    4   36      2.15      0.00
    1    4   36      1.68      0.00
    4    4   36      0.41      0.00
   -7    5   36      2.82      0.00
   -4    5   36      3.87      0.00
   -1    5   36      0.96      0.00
    2    5   36      0.10      0.00
    0    6   36      0.76      0.00
   -8    7   36      1.25      0.00
   -1    1   37     -7.93      0.00
   -3    2   37     -2.89      0.00
    0    2   37     -4.81      0.00
   -2    3   37     -5.05      0.00
    1    3   37     -0.64      0.00
   -1    4   37     -0.82      0.00
    2    4   37     -1.42      0.00
    0    5   37     -1.70      0.00
    0    1   38      5.47      0.00
   -2    2   38      4.66      0.00
    1    2   38      1.16      0.00
   -1    3   38      2.92      0.00
    0    0   39     -3.33      0.00
   -2   19    0     -4.94      0.00
  -16   20    0      0.30      0.00
  -15   21    0      2.30      0.00
  -12   21    0     -1.57      0.00
   -9   21    0      0.62      0.00
   -6   21    0      0.83      0.00
   -1    1    1   -107.52      0.00
  -21   11    1      0.09      0.00
    8   13    1      0.54      0.00
  -21   14    1     -0.98      0.00
    5   16    1     -0.74      0.00
    3   17    1      1.14      0.00
    1   18    1      1.44      0.00
  -19   19    1      2.32      0.00
  -15   20    1     -2.95      0.00
   -9   20    1      0.37      0.00
  -14   21    1     -1.27      0.00
  -11   21    1      1.48      0.00
   -8   21    1     -1.21      0.00
   -5   21    1     -0.35      0.00
    0    1    2     99.01      0.00
   10   11    2     -0.63      0.00
  -21   13    2      0.80      0.00
    6   13    2      2.93      0.00
    7   14    2      1.59      0.00
  -20   17    2     -1.39      0.00
  -19   18    2     -4.59      0.00
  -18   19    2     -0.87      0.00
   -9   19    2     -1.02      0.00
  -17   20    2     -0.84      0.00
  -14   20    2      3.07      0.00
   -5   20    2      1.38      0.00
  -13   21    2     -1.12      0.00
   -7   21    2      1.09      0.00
   -2    4    3    -36.53      0.00
  -21   12    3     -0.13      0.00
    9   12    3      1.32      0.00
    6   15    3     -2.52      0.00
    4   16    3     -0.59      0.00
   -9   18    3      0.80      0.00
  -17   19    3      0.11      0.00
  -16   20    3      0.12      0.00
   -4   20    3     -0.16      0.00
  -15   21    3     -1.31      0.00
  -12   21    3      2.53      0.00
   -9   21    3     -0.51      0.00
   -6   21    3     -0.52      0.00
    8   13    4     -1.22      0.00
    3   17    4     -0.63      0.00
  -15   20    4      1.30      0.00
   -6   20    4      1.01      0.00
   -3   20    4     -0.88      0.00
  -14   21    4      0.31      0.00
   -8   21    4      1.34      0.00
    7   14    5     -0.54      0.00
  -20   17    5      0.27      0.00
  -19   18    5      3.56      0.00
   -1   18    5      2.58      0.00
  -18   19    5      0.42      0.00
   -3   19    5      0.15      0.00
  -17   20    5      0.68      0.00
  -14   20    5     -1.22      0.00
   -5   20    5     -0.93      0.00
  -13   21    5      1.51      0.00
   -7   21    5     -0.91      0.00
  -21   15    6     -0.36      0.00
    6   15    6      1.83      0.00
  -20   16    6      1.03      0.00
    4   16    6      0.94      0.00
  -19   17    6     -1.93      0.00
  -18   18    6     -1.40      0.00
  -17   19    6      0.14      0.00
   -2   19    6     -1.18      0.00
  -16   20    6     -0.98      0.00
  -13   20    6     -0.61      0.00
   -7   20    6      0.98      0.00
   -4   20    6      1.23      0.00
  -15   21    6      0.60      0.00
  -12   21    6     -2.88      0.00
   -6   21    6      0.20      0.00
  -21   14    7      1.23      0.00
    3   17    7     -0.03      0.00
    1   18    7      0.91      0.00
  -16   19    7      0.96      0.00
   -1   19    7      1.69      0.00
  -15   20    7      0.21      0.00
   -6   20    7     -0.31      0.00
   -3   20    7     -1.03      0.00
  -14   21    7     -0.56      0.00
   -8   21    7     -1.56      0.00
  -21   13    8     -2.50      0.00
    7   14    8     -0.35      0.00
  -19   18    8     -1.71      0.00
   -1   18    8     -1.88      0.00
  -18   19    8      0.03      0.00
  -15   19    8     -1.43      0.00
  -14   20    8      0.23      0.00
   -5   20    8      0.90      0.00
  -13   21    8     -0.39      0.00
  -10   21    8     -1.65      0.00
   -7   21    8      0.74      0.00
  -21   12    9      2.47      0.00
  -19   14    9     -1.27      0.00
  -20   16    9     -0.55      0.00
  -19   17    9      0.08      0.00
  -18   18    9     -0.12      0.00
    0   18    9      1.48      0.00
  -17   19    9     -0.11      0.00
   -2   19    9      0.28      0.00
  -16   20    9      1.12      0.00
   -7   20    9     -0.71      0.00
   -4   20    9     -1.80      0.00
   -9   21    9     -0.70      0.00
  -21   11   10     -0.73      0.00
    8   13   10     -1.18      0.00
  -20   15   10      0.82      0.00
  -19   16   10      1.62      0.00
  -18   17   10      1.25      0.00
    0   17   10     -1.81      0.00
  -17   18   10      0.76      0.00
  -16   19   10     -0.69      0.00
  -15   20   10     -0.46      0.00
   -6   20   10      0.18      0.00
  -11   21   10     -2.36      0.00
   -8   21   10      1.49      0.00
   10   11   11     -0.01      0.00
  -20   14   11      0.11      0.00
  -19   15   11     -2.72      0.00
    5   15   11     -1.48      0.00
  -18   16   11     -2.65      0.00
  -17   17   11     -1.52      0.00
  -16   18   11      0.11      0.00
  -15   19   11      0.96      0.00
  -14   20   11      0.39      0.00
   -8   20   11     -1.12      0.00
   -5   20   11     -0.81      0.00
  -10   21   11      1.22      0.00
  -20   13   12     -2.02      0.00
  -19   14   12      2.39      0.00
  -19   17   12      0.84      0.00
    2   17   12     -0.67      0.00
  -18   18   12      0.88      0.00
  -15   18   12     -0.71      0.00
    0   18   12     -1.67      0.00
  -17   19   12      0.26      0.00
   -2   19   12     -0.99      0.00
   -7   20   12      0.96      0.00
    9   11   13     -0.40      0.00
  -20   12   13      2.11      0.00
    6   14   13     -1.63      0.00
  -19   16   13     -2.42      0.00
    2   16   13      1.49      0.00
  -18   17   13     -1.53      0.00
  -17   18   13     -0.21      0.00
  -16   19   13     -0.06      0.00
   -9   20   13     -1.02      0.00
   -6   20   13     -0.64      0.00
  -20   11   14     -0.20      0.00
  -19   12   14     -1.44      0.00
    8   12   14      0.22      0.00
  -20   14   14      0.72      0.00
  -19   15   14      3.52      0.00
  -18   16   14      2.82      0.00
    3   16   14     -0.69      0.00
  -17   17   14      0.24      0.00
    1   17   14     -1.60      0.00
  -16   18   14     -0.85      0.00
   -1   18   14     -2.98      0.00
  -15   19   14     -0.13      0.00
   -3   19   14     -0.24      0.00
  -14   20   14     -0.97      0.00
  -11   20   14      0.39      0.00
   -8   20   14      1.94      0.00
   10   10   15     -0.74      0.00
  -19   11   15     -0.36      0.00
  -20   13   15     -0.01      0.00
    7   13   15     -1.00      0.00
  -19   14   15     -2.52      0.00
  -18   15   15     -3.95      0.00
  -17   16   15     -1.11      0.00
    1   16   15      2.14      0.00
  -16   17   15      1.95      0.00
  -13   20   15      1.42      0.00
  -10   20   15     -1.27      0.00
   -7   20   15     -1.52      0.00
  -19   10   16      2.43      0.00
    9   11   16      0.38      0.00
    7   12   16      0.89      0.00
  -19   13   16      0.82      0.00
  -18   14   16      3.01      0.00
  -17   15   16      2.36      0.00
    1   15   16     -0.61      0.00
    4   15   16      0.35      0.00
    2   16   16     -1.35      0.00
    0   17   16     -2.40      0.00
   -2   18   16     -1.85      0.00
  -10   19   16      1.63      0.00
   -4   19   16      1.71      0.00
   -9   20   16      2.19      0.00
    9   10   17     -2.19      0.00
  -19   12   17     -0.85      0.00
  -18   13   17     -0.73      0.00
    4   14   17     -0.51      0.00
    2   15   17      0.68      0.00
  -18   16   17     -1.55      0.00
    0   16   17      1.20      0.00
  -17   17   17      1.95      0.00
  -16   18   17      2.25      0.00
  -12   19   17      1.16      0.00
   -9   19   17     -2.26      0.00
   -6   19   17     -1.80      0.00
    9    9   18      3.71      0.00
  -19   11   18      1.93      0.00
    8   11   18      0.76      0.00
  -18   12   18      0.02      0.00
    6   12   18      1.04      0.00
  -18   15   18      1.52      0.00
    3   15   18     -0.09      0.00
  -17   16   18     -0.68      0.00
    1   16   18     -0.49      0.00
   -1   17   18     -1.18      0.00
  -15   18   18     -1.67      0.00
   -3   18   18      1.34      0.00
  -11   19   18      0.73      0.00
   -8   19   18      2.36      0.00
  -19   10   19     -2.34      0.00
    8   10   19     -2.04      0.00
    7   12   19      0.04      0.00
    5   13   19     -1.04      0.00
  -18   14   19      0.39      0.00
    3   14   19     -0.65      0.00
    1   15   19     -0.78      0.00
   -1   16   19     -0.58      0.00
   -3   17   19     -1.99      0.00
  -14   18   19      1.20      0.00
  -11   18   19     -0.67      0.00
  -10   19   19     -1.24      0.00
   -7   19   19     -1.63      0.00
  -18   10   20      2.04      0.00
  -18   13   20     -1.43      0.00
    4   14   20      1.02      0.00
    2   15   20      0.87      0.00
    0   16   20      0.61      0.00
   -2   17   20      0.83      0.00
  -13   18   20     -0.97      0.00
  -10   18   20      0.90      0.00
   -4   18   20      2.39      0.00
    9    9   21     -2.07      0.00
    6   12   21      0.80      0.00
    4   13   21      0.12      0.00
    2   14   21     -0.60      0.00
    0   15   21     -1.48      0.00
   -2   16   21     -1.95      0.00
  -13   17   21      1.60      0.00
   -4   17   21     -1.63      0.00
  -12   18   21     -0.29      0.00
   -9   18   21     -0.46      0.00
  -17    9   22      1.13      0.00
    8   10   22      0.42      0.00
  -18   11   22     -0.54      0.00
    3   14   22      0.63      0.00
   -2   15   22      2.63      0.00
    1   15   22      1.21      0.00
   -4   16   22      0.27      0.00
   -1   16   22      0.99      0.00
  -12   17   22     -0.37      0.00
   -3   17   22      1.70      0.00
  -11   18   22      0.96      0.00
   -8   18   22      0.79      0.00
    8    9   23     -0.82      0.00
    5   12   23      2.82      0.00
    3   13   23      1.06      0.00
    1   14   23     -1.20      0.00
   -1   15   23     -2.13      0.00
  -12   16   23      1.49      0.00
   -3   16   23     -1.36      0.00
  -11   17   23     -0.55      0.00
   -5   17   23      0.07      0.00
    8    8   24      2.75      0.00
  -17   10   24     -0.10      0.00
  -16   14   24     -1.11      0.00
   -1   14   24      2.53      0.00
    2   14   24      0.36      0.00
  -15   15   24      0.90      0.00
   -3   15   24      0.49      0.00
    0   15   24      1.30      0.00
  -14   16   24     -0.47      0.00
  -11   16   24     -0.28      0.00
   -5   16   24     -0.70      0.00
   -2   16   24      1.27      0.00
  -10   17   24     -0.44      0.00
  -17    9   25     -1.68      0.00
  -16   10   25     -1.41      0.00
    4   12   25      3.00      0.00
  -16   13   25      0.78      0.00
    2   13   25     -0.51      0.00
  -15   14   25     -0.08      0.00
    0   14   25     -1.94      0.00
  -14   15   25     -1.19      0.00
   -5   15   25     -0.49      0.00
   -2   15   25     -1.33      0.00
  -13   16   25      1.02      0.00
  -10   16   25      0.53      0.00
   -4   16   25      0.71      0.00
   -9   17   25      0.99      0.00
    7    8   26      4.82      0.00
  -16    9   26      3.31      0.00
  -15   10   26      2.55      0.00
  -15   13   26     -0.86      0.00
    0   13   26      2.12      0.00
  -14   14   26      1.02      0.00
   -2   14   26      1.53      0.00
  -13   15   26      0.16      0.00
   -4   15   26     -0.76      0.00
   -9   16   26     -1.31      0.00
   -6   16   26      0.94      0.00
    8    8   27     -4.46      0.00
  -15    9   27     -3.48      0.00
  -14   10   27     -1.36      0.00
  -15   12   27     -0.38      0.00
    3   12   27      0.49      0.00
  -14   13   27      0.86      0.00
   -2   13   27     -3.10      0.00
    1   13   27     -1.39      0.00
  -13   14   27     -1.21      0.00
   -4   14   27     -1.07      0.00
   -1   14   27     -1.22      0.00
  -12   15   27      0.88      0.00
   -6   15   27     -1.30      0.00
   -3   15   27      0.28      0.00
   -8   16   27      0.23      0.00
  -15    8   28      5.39      0.00
  -14    9   28      2.08      0.00
    5   10   28     -1.72      0.00
    3   11   28      0.10      0.00
  -14   12   28     -0.99      0.00
    1   12   28      1.65      0.00
  -13   13   28      0.02      0.00
   -4   13   28      2.10      0.00
   -1   13   28      2.27      0.00
  -12   14   28      0.19      0.00
   -9   14   28      0.54      0.00
   -6   14   28      0.97      0.00
   -3   14   28      1.03      0.00
   -5   15   28      0.04      0.00
    6    7   29     -4.56      0.00
  -14    8   29     -4.27      0.00
  -13    9   29     -0.61      0.00
  -14   11   29      0.08      0.00
  -13   12   29      1.20      0.00
   -1   12   29     -3.16      0.00
  -12   13   29     -0.22      0.00
   -6   13   29     -0.87      0.00
   -3   13   29     -2.53      0.00
  -11   14   29      0.42      0.00
   -5   14   29     -0.38      0.00
    7    7   30      4.81      0.00
  -13    8   30      3.07      0.00
  -13   11   30     -0.96      0.00
    2   11   30      0.84      0.00
  -12   12   30     -0.95      0.00
   -6   12   30      0.28      0.00
   -3   12   30      2.19      0.00
    0   12   30      1.35      0.00
  -11   13   30     -0.08      0.00
   -5   13   30      0.22      0.00
   -2   13   30      2.59      0.00
   -7   14   30      0.22      0.00
  -13    7   31     -4.99      0.00
    5    7   31     -1.46      0.00
  -12    8   31     -1.08      0.00
  -13   10   31      0.93      0.00
    2   10   31      1.73      0.00
  -12   11   31      1.48      0.00
   -6   11   31      0.39      0.00
   -3   11   31     -0.59      0.00
    0   11   31     -0.27      0.00
  -11   12   31      0.51      0.00
   -5   12   31      0.61      0.00
   -2   12   31     -2.63      0.00
  -10   13   31     -0.73      0.00
   -7   13   31     -0.31      0.00
   -4   13   31     -0.17      0.00
  -12    7   32      3.83      0.00
   -9    7   32      2.07      0.00
  -12   10   32     -1.81      0.00
   -6   10   32      0.33      0.00
    0   10   32     -1.21      0.00
  -11   11   32     -0.91      0.00
   -5   11   32     -1.94      0.00
   -2   11   32      1.60      0.00
  -10   12   32      0.78      0.00
   -7   12   32      0.48      0.00
   -4   12   32     -0.29      0.00
    6    6   33     -3.48      0.00
  -11    7   33     -1.41      0.00
   -6    9   33     -0.81      0.00
   -5   10   33      1.36      0.00
   -2   10   33     -0.39      0.00
   -7   11   33     -1.12      0.00
   -4   11   33      1.44      0.00
   -6   12   33      0.97      0.00
  -11    6   34      2.92      0.00
    4    6   34      0.59      0.00
  -10    7   34      0.25      0.00
   -6    8   34      0.59      0.00
   -5    9   34      0.96      0.00
   -2    9   34     -0.39      0.00
    1    9   34     -2.52      0.00
   -7   10   34      0.95      0.00
   -4   10   34     -1.55      0.00
   -1   10   34     -0.09      0.00
   -6   11   34     -0.57      0.00
  -10    6   35     -1.50      0.00
   -6    7   35     -2.21      0.00
   -5    8   35     -2.26      0.00
   -2    8   35     -0.98      0.00
    1    8   35      1.56      0.00
   -7    9   35      0.00      0.00
   -4    9   35     -0.78      0.00
   -1    9   35      0.58      0.00
   -6   10   35     -0.37      0.00
    3    3   36      1.17      0.00
   -5    4   36      2.57      0.00
   -6    6   36      4.19      0.00
   -3    6   36      2.78      0.00
   -5    7   36      3.14      0.00
   -2    7   36      2.78      0.00
    1    7   36     -1.41      0.00
   -7    8   36      0.39      0.00
   -4    8   36      2.87      0.00
   -1    8   36     -0.48      0.00
   -5    3   37      0.01      0.00
   -7    4   37     -1.13      0.00
   -4    4   37     -2.68      0.00
   -6    5   37     -3.11      0.00
   -3    5   37     -2.72      0.00
   -5    6   37     -4.09      0.00
   -2    6   37     -2.09      0.00
    1    6   37      0.16      0.00
   -4    7   37     -3.28      0.00
   -1    7   37     -1.04      0.00
   -4    3   38     -0.29      0.00
    2    3   38      0.01      0.00
   -6    4   38      0.77      0.00
   -3    4   38      3.09      0.00
    0    4   38      0.60      0.00
   -5    5   38      2.61      0.00
   -2    5   38      1.20      0.00
   -4    6   38      3.45      0.00
    1    1   39     -2.33      0.00
   -1    2   39     -3.43      0.00
   -3    3   39     -1.45      0.00
    0    3   39     -0.54      0.00
    0    0    0      0.00      0.00
# SQUEEZE RESULTS (Version =  60618)
# Note: Data are Listed for all Voids in the P1 Unit Cell
# i.e. Centre of Gravity, Solvent Accessible Volume,
# Recovered number of Electrons in the Void and
# Details about the Squeezed Material
loop_
  _platon_squeeze_void_nr
  _platon_squeeze_void_average_x
  _platon_squeeze_void_average_y
  _platon_squeeze_void_average_z
  _platon_squeeze_void_volume
  _platon_squeeze_void_count_electrons
  _platon_squeeze_void_content
   1  0.000  0.000  0.500       233        34 ' '
   2  0.333  0.667  0.167       234        33 ' '
   3  0.667  0.333  0.833       234        33 ' '
# Missing Reflections Below sin(th)/lambda = 0.25
loop_
  _platon_missing_refln_index_h
  _platon_missing_refln_index_k
  _platon_missing_refln_index_l
  _platon_missing_refln_theta
   -1    1    1     1.597
    0    1    2     1.996
   -2    4    3     5.408
_platon_squeeze_void_probe_radius                  1.20
_platon_squeeze_details
)
TITL cl-ag14-mo-ray   R -3         R = 0.06
CELL   16.3356   16.3356   29.4449     90.00     90.00    120.00
SPGR R-3
# Solvent Accessible Volume =       701
# Electrons Found in S.A.V. =       100
# Note: Atoms in Void are Labelled as Cxxx and Qxxx for all Others
C101 0.016 1.000 0.500 !       2.31 eA-3
C102 0.038 0.040 0.479 !       1.66 eA-3
C103 0.029 0.978 0.527 !       1.66 eA-3
Q104 0.969 0.782 0.382 !       1.28 eA-3
Q105 0.189 0.968 0.617 !       1.28 eA-3
C106 0.896 0.974 0.470 !       1.21 eA-3
Q107 0.782 0.533 0.272 !       1.14 eA-3
Q108 0.261 0.764 0.733 !       1.13 eA-3
Q109 0.107 0.189 0.938 !       1.11 eA-3
Q110 0.245 0.812 0.034 !       1.07 eA-3
Q111 0.903 0.018 0.452 !       1.01 eA-3
C112 0.999 1.005 0.445 !       0.98 eA-3
Q113 0.595 0.642 0.264 !       0.98 eA-3
Q114 0.252 0.362 0.170 !       0.97 eA-3
C115 0.767 0.321 0.879 !       0.97 eA-3
Q116 0.107 0.752 0.172 !       0.97 eA-3
Q117 0.845 0.983 0.961 !       0.86 eA-3
Q118 1.002 0.268 0.372 !       0.82 eA-3
Q119 0.644 0.440 0.892 !       0.77 eA-3
Q120 0.919 0.838 0.352 !       0.75 eA-3
Q121 0.081 0.162 0.648 !       0.75 eA-3
Q122 0.686 0.175 0.260 !       0.73 eA-3
Q123 0.376 0.376 0.461 !       0.72 eA-3
Q124 0.731 0.959 0.158 !       0.71 eA-3
Q125 0.885 0.595 0.495 !       0.69 eA-3
Q126 0.466 0.315 0.549 !       0.68 eA-3
Q127 0.534 0.685 0.451 !       0.68 eA-3
Q128 0.531 0.130 0.273 !       0.67 eA-3
Q129 0.706 0.233 0.999 !       0.67 eA-3
Q130 0.870 0.797 0.947 !       0.66 eA-3
Q131 0.795 0.527 0.394 !       0.64 eA-3
C132 0.037 0.068 0.444 !       0.63 eA-3
Q133 0.720 0.173 0.288 !       0.63 eA-3
Q134 0.751 0.207 0.938 !       0.63 eA-3
Q135 0.459 0.277 0.555 !       0.60 eA-3
Q136 0.139 0.251 0.586 !       0.59 eA-3
Q137 0.107 0.406 0.306 !       0.57 eA-3
Q138 0.296 0.257 0.373 !       0.56 eA-3
Q139 0.674 0.580 0.124 !       0.56 eA-3
Q140 0.950 0.811 0.454 !       0.53 eA-3
Q141 0.923 0.300 0.907 !       0.52 eA-3
Q142 0.894 0.999 0.639 !       0.52 eA-3
Q143 1.000 0.998 0.211 !       0.51 eA-3
C144 0.515 0.840 0.142 !       0.51 eA-3
Q145 0.675 0.392 0.218 !       0.51 eA-3
Q146 0.736 0.947 0.038 !       0.51 eA-3
)
;
_shelx_fab_checksum              1818
_platon_squeeze_special_details
;
A solvent mask was calculated and 100 electrons were 
found in a volume of 701\%A^3^ in 2 voids per unit cell. 
This is consistent with the presence of 
1 OH, 10 MeOH per Unit Cell 
which account for 207 electrons 
per unit cell.
;
_platon_squeeze_void_probe_radius 1.20
_olex2_submission_special_instructions 'No special instructions were received'
_oxdiff_exptl_absorpt_empirical_details
;
Empirical correction (ABSPACK) includes:
- Absorption correction using spherical harmonics
- Frame scaling
;
loop_
_space_group_symop_operation_xyz
'x, y, z'
'-y, x-y, z'
'-x+y, -x, z'
'x+2/3, y+1/3, z+1/3'
'-y+2/3, x-y+1/3, z+1/3'
'-x+y+2/3, -x+1/3, z+1/3'
'x+1/3, y+2/3, z+2/3'
'-y+1/3, x-y+2/3, z+2/3'
'-x+y+1/3, -x+2/3, z+2/3'
'-x, -y, -z'
'y, -x+y, -z'
'x-y, x, -z'
'-x+2/3, -y+1/3, -z+1/3'
'y+2/3, -x+y+1/3, -z+1/3'
'x-y+2/3, x+1/3, -z+1/3'
'-x+1/3, -y+2/3, -z+2/3'
'y+1/3, -x+y+2/3, -z+2/3'
'x-y+1/3, x+2/3, -z+2/3'
loop_
_atom_site_label
_atom_site_type_symbol
_atom_site_fract_x
_atom_site_fract_y
_atom_site_fract_z
_atom_site_U_iso_or_equiv
_atom_site_adp_type
_atom_site_occupancy
_atom_site_site_symmetry_order
_atom_site_calc_flag
_atom_site_refinement_flags_posn
_atom_site_refinement_flags_adp
_atom_site_refinement_flags_occupancy
_atom_site_disorder_assembly
_atom_site_disorder_group
Ag1 Ag 0.63598(3) 0.47967(3) 0.39685(2) 0.0667(2) Uani 1 1 d . . . . .
Ag2 Ag 0.666667 0.333333 0.43851(2) 0.0661(2) Uani 1 3 d S T P A .
Ag3A Ag 0.8461(10) 0.5527(15) 0.3716(4) 0.0753(18) Uani 0.27(2) 1 d . . P A 2
Ag3 Ag 0.8252(3) 0.5213(4) 0.37004(9) 0.0595(6) Uani 0.73(2) 1 d . . P A 1
C3 C 0.3997(8) 0.4957(8) 0.3154(4) 0.140(3) Uani 1 1 d D U . . .
C6 C 0.3913(13) 0.4773(16) 0.2653(4) 0.129(7) Uani 0.566(16) 1 d D U P B 1
H6A H 0.336922 0.480604 0.253506 0.194 Uiso 0.566(16) 1 calc R U P B 1
H6B H 0.382353 0.414259 0.259519 0.194 Uiso 0.566(16) 1 calc R U P B 1
H6C H 0.449016 0.524927 0.250180 0.194 Uiso 0.566(16) 1 calc R U P B 1
C4 C 0.3041(15) 0.4094(18) 0.3308(12) 0.227(13) Uani 0.566(16) 1 d D U P B 1
H4A H 0.300395 0.403622 0.364011 0.340 Uiso 0.566(16) 1 d R U P B 1
H4B H 0.299225 0.352082 0.317561 0.340 Uiso 0.566(16) 1 d R U P B 1
H4C H 0.252095 0.417502 0.319611 0.340 Uiso 0.566(16) 1 d R U P B 1
C5 C 0.3858(13) 0.5665(11) 0.3381(7) 0.112(6) Uani 0.566(16) 1 d D U P B 1
H5A H 0.327964 0.535360 0.356342 0.167 Uiso 0.566(16) 1 calc R U P B 1
H5B H 0.380254 0.607297 0.315387 0.167 Uiso 0.566(16) 1 calc R U P B 1
H5C H 0.439964 0.604821 0.357921 0.167 Uiso 0.566(16) 1 calc R U P B 1
C5A C 0.3282(16) 0.4070(15) 0.2906(9) 0.125(8) Uani 0.434(16) 1 d D U P B 2
H5AA H 0.266939 0.379965 0.306013 0.188 Uiso 0.434(16) 1 calc R U P B 2
H5AB H 0.349894 0.360859 0.290660 0.188 Uiso 0.434(16) 1 calc R U P B 2
H5AC H 0.321773 0.422972 0.259268 0.188 Uiso 0.434(16) 1 calc R U P B 2
C6A C 0.348(2) 0.511(2) 0.3548(8) 0.159(12) Uani 0.434(16) 1 d D U P B 2
H6AA H 0.302021 0.527357 0.342876 0.238 Uiso 0.434(16) 1 calc R U P B 2
H6AB H 0.393606 0.562190 0.374192 0.238 Uiso 0.434(16) 1 calc R U P B 2
H6AC H 0.314724 0.452581 0.372724 0.238 Uiso 0.434(16) 1 calc R U P B 2
C7 C 0.7462(4) 0.5011(4) 0.43965(18) 0.0670(14) Uani 1 1 d . . . . .
C8 C 0.8019(6) 0.5280(5) 0.4690(2) 0.095(2) Uani 1 1 d . . . . .
C9 C 0.8642(7) 0.5530(7) 0.5098(3) 0.152(3) Uani 1 1 d D U . . .
C10 C 0.8290(11) 0.6009(12) 0.5436(4) 0.274(8) Uani 0.905(13) 1 d D U P C 1
H10A H 0.838543 0.660211 0.530526 0.411 Uiso 0.905(13) 1 calc R U P C 1
H10B H 0.864521 0.614139 0.572053 0.411 Uiso 0.905(13) 1 calc R U P C 1
H10C H 0.761581 0.558724 0.549625 0.411 Uiso 0.905(13) 1 calc R U P C 1
C11 C 0.8592(9) 0.4664(9) 0.5318(4) 0.230(7) Uani 0.905(13) 1 d D U P C 1
H11A H 0.793074 0.419580 0.538169 0.346 Uiso 0.905(13) 1 calc R U P C 1
H11B H 0.895239 0.484698 0.560167 0.346 Uiso 0.905(13) 1 calc R U P C 1
H11C H 0.885967 0.438906 0.511047 0.346 Uiso 0.905(13) 1 calc R U P C 1
C12 C 0.9617(8) 0.6204(9) 0.4923(4) 0.204(6) Uani 0.905(13) 1 d D U P C 1
H12A H 0.981131 0.587287 0.470934 0.306 Uiso 0.905(13) 1 calc R U P C 1
H12B H 1.006250 0.644411 0.517807 0.306 Uiso 0.905(13) 1 calc R U P C 1
H12C H 0.961343 0.673259 0.476839 0.306 Uiso 0.905(13) 1 calc R U P C 1
Cl1 Cl 0.666667 0.333333 0.333333 0.0402(6) Uani 1 6 d S T P . .
C4A C 0.4684(18) 0.5937(18) 0.2907(10) 0.195(12) Uani 0.434(16) 1 d D U P B 2
H4AA H 0.432687 0.608830 0.268802 0.292 Uiso 0.434(16) 1 d R U P B 2
H4AB H 0.517427 0.587170 0.274622 0.292 Uiso 0.434(16) 1 d R U P B 2
H4AC H 0.498077 0.644570 0.313102 0.292 Uiso 0.434(16) 1 d R U P B 2
C2 C 0.4681(5) 0.4759(5) 0.3383(2) 0.0812(18) Uani 1 1 d . U . . .
C1 C 0.5241(4) 0.4627(4) 0.35749(18) 0.0590(13) Uani 1 1 d . U . . .
loop_
_atom_site_aniso_label
_atom_site_aniso_U_11
_atom_site_aniso_U_22
_atom_site_aniso_U_33
_atom_site_aniso_U_23
_atom_site_aniso_U_13
_atom_site_aniso_U_12
Ag1 0.0719(3) 0.0738(3) 0.0682(3) -0.0163(2) -0.0157(2) 0.0469(2)
Ag2 0.0718(3) 0.0718(3) 0.0546(4) 0.000 0.000 0.03590(16)
Ag3A 0.064(3) 0.068(5) 0.096(2) 0.015(3) 0.002(2) 0.034(3)
Ag3 0.0583(10) 0.0493(11) 0.0704(7) -0.0025(7) -0.0039(6) 0.0265(9)
C3 0.148(7) 0.160(7) 0.164(7) -0.049(5) -0.052(5) 0.117(6)
C6 0.142(13) 0.178(15) 0.102(10) -0.022(9) -0.056(9) 0.106(12)
C4 0.221(19) 0.23(2) 0.27(2) -0.006(16) -0.008(16) 0.151(16)
C5 0.113(11) 0.086(9) 0.175(13) -0.014(9) -0.021(9) 0.079(9)
C5A 0.116(14) 0.135(14) 0.147(15) -0.047(12) -0.075(12) 0.080(11)
C6A 0.157(17) 0.178(19) 0.22(2) -0.040(14) -0.038(14) 0.139(16)
C7 0.084(4) 0.069(4) 0.055(3) -0.021(3) -0.016(3) 0.044(3)
C8 0.116(6) 0.120(6) 0.067(4) -0.043(4) -0.027(4) 0.072(5)
C9 0.136(6) 0.163(7) 0.137(6) -0.054(5) -0.061(5) 0.059(5)
C10 0.263(14) 0.358(16) 0.175(10) -0.168(11) -0.087(9) 0.136(11)
C11 0.199(12) 0.261(12) 0.185(10) 0.051(9) -0.094(9) 0.080(9)
C12 0.150(8) 0.224(12) 0.156(9) 0.003(8) -0.078(6) 0.032(8)
Cl1 0.0398(8) 0.0398(8) 0.0408(13) 0.000 0.000 0.0199(4)
C4A 0.228(19) 0.211(17) 0.214(19) 0.016(14) -0.069(13) 0.162(13)
C2 0.083(4) 0.081(4) 0.102(4) -0.038(3) -0.023(3) 0.058(3)
C1 0.058(3) 0.061(3) 0.072(3) -0.005(2) -0.002(3) 0.040(3)
loop_
_atom_type_symbol
_atom_type_description
_atom_type_scat_dispersion_real
_atom_type_scat_dispersion_imag
_atom_type_scat_source
C C 0.0033 0.0016 'International Tables Vol C Tables 4.2.6.8 and 6.1.1.4'
H H 0.0000 0.0000 'International Tables Vol C Tables 4.2.6.8 and 6.1.1.4'
Ag Ag -0.8971 1.1015 'International Tables Vol C Tables 4.2.6.8 and 6.1.1.4'
Cl Cl 0.1484 0.1585 'International Tables Vol C Tables 4.2.6.8 and 6.1.1.4'
O O 0.0106 0.0060 'International Tables Vol C Tables 4.2.6.8 and 6.1.1.4'
loop_
_geom_angle_atom_site_label_1
_geom_angle_atom_site_label_2
_geom_angle_atom_site_label_3
_geom_angle
_geom_angle_site_symmetry_1
_geom_angle_site_symmetry_3
_geom_angle_publ_flag
Ag2 Ag1 Ag3A 126.5(4) . 18_545 ?
Ag2 Ag1 Ag3A 78.22(16) . 2_655 ?
Ag2 Ag1 Ag3A 78.9(3) . . ?
Ag2 Ag1 Ag3 118.18(10) . 18_545 ?
Ag3A Ag1 Ag3A 80.2(3) 18_545 2_655 ?
Ag3A Ag1 Ag3A 132.3(7) . 2_655 ?
Ag3A Ag1 Ag3A 80.8(3) 18_545 . ?
Ag3 Ag1 Ag2 74.36(8) 2_655 . ?
Ag3 Ag1 Ag2 73.26(9) . . ?
Ag3 Ag1 Ag3A 78.5(3) 18_545 2_655 ?
Ag3 Ag1 Ag3A 80.4(3) . 18_545 ?
Ag3 Ag1 Ag3A 124.8(4) . 2_655 ?
Ag3 Ag1 Ag3A 8.4(3) 18_545 18_545 ?
Ag3 Ag1 Ag3A 6.4(3) 2_655 2_655 ?
Ag3 Ag1 Ag3A 78.90(17) 2_655 18_545 ?
Ag3 Ag1 Ag3 118.46(16) 2_655 . ?
Ag3 Ag1 Ag3 75.17(7) . 18_545 ?
Ag3 Ag1 Ag3 76.30(7) 2_655 18_545 ?
C7 Ag1 Ag2 53.09(16) . . ?
C7 Ag1 Ag3A 51.9(2) . . ?
C7 Ag1 Ag3A 132.7(3) . 18_545 ?
C7 Ag1 Ag3A 130.7(2) . 2_655 ?
C7 Ag1 Ag3 53.01(17) . . ?
C7 Ag1 Ag3 128.14(18) . 18_545 ?
C7 Ag1 Ag3 127.38(18) . 2_655 ?
C1 Ag1 Ag2 128.62(15) . . ?
C1 Ag1 Ag3A 130.7(2) . . ?
C1 Ag1 Ag3A 49.9(3) . 18_545 ?
C1 Ag1 Ag3A 50.5(2) . 2_655 ?
C1 Ag1 Ag3 54.82(16) . 18_545 ?
C1 Ag1 Ag3 129.98(16) . . ?
C1 Ag1 Ag3 54.27(17) . 2_655 ?
C1 Ag1 C7 176.3(2) . . ?
Ag1 Ag2 Ag1 103.870(18) 2_655 . ?
Ag1 Ag2 Ag1 103.869(18) 3_665 . ?
Ag1 Ag2 Ag1 103.870(18) 3_665 2_655 ?
C7 Ag2 Ag1 44.43(14) 3_665 3_665 ?
C7 Ag2 Ag1 147.83(14) . 2_655 ?
C7 Ag2 Ag1 147.83(14) 3_665 . ?
C7 Ag2 Ag1 83.42(14) . 3_665 ?
C7 Ag2 Ag1 44.43(14) 2_655 2_655 ?
C7 Ag2 Ag1 147.83(14) 2_655 3_665 ?
C7 Ag2 Ag1 44.43(14) . . ?
C7 Ag2 Ag1 83.42(15) 3_665 2_655 ?
C7 Ag2 Ag1 83.42(14) 2_655 . ?
C7 Ag2 C7 119.979(8) 3_665 . ?
C7 Ag2 C7 119.980(8) 3_665 2_655 ?
C7 Ag2 C7 119.980(7) . 2_655 ?
Ag1 Ag3A Ag1 95.6(5) . 3_665 ?
Ag1 Ag3A Ag1 95.5(5) 17 3_665 ?
Ag1 Ag3A Ag1 96.4(4) 17 . ?
C7 Ag3A Ag1 135.2(7) . 17 ?
C7 Ag3A Ag1 77.9(4) . 3_665 ?
C7 Ag3A Ag1 41.9(2) . . ?
C7 Ag3A C2 106.6(4) . 17 ?
C2 Ag3A Ag1 67.8(2) 17 17 ?
C2 Ag3A Ag1 160.6(8) 17 3_665 ?
C2 Ag3A Ag1 77.4(2) 17 . ?
C1 Ag3A Ag1 134.0(8) 3_665 . ?
C1 Ag3A Ag1 40.9(3) 3_665 3_665 ?
C1 Ag3A Ag1 78.9(3) 17 . ?
C1 Ag3A Ag1 78.6(4) 3_665 17 ?
C1 Ag3A Ag1 42.3(2) 17 17 ?
C1 Ag3A Ag1 135.0(8) 17 3_665 ?
C1 Ag3A C7 116.2(5) 3_665 . ?
C1 Ag3A C7 118.2(4) 17 . ?
C1 Ag3A C2 26.2(2) 17 17 ?
C1 Ag3A C2 137.0(4) 3_665 17 ?
C1 Ag3A C1 118.4(5) 17 3_665 ?
Ag1 Ag3 Ag1 107.00(17) 3_665 . ?
Ag1 Ag3 Ag1 104.86(9) 3_665 17 ?
Ag1 Ag3 Ag1 102.97(9) . 17 ?
C7 Ag3 Ag1 147.6(2) . 17 ?
C7 Ag3 Ag1 85.97(19) . 3_665 ?
C7 Ag3 Ag1 44.83(16) . . ?
C7 Ag3 C1 118.1(2) . 17 ?
C1 Ag3 Ag1 45.58(14) 3_665 3_665 ?
C1 Ag3 Ag1 81.30(15) 17 . ?
C1 Ag3 Ag1 43.62(13) 17 17 ?
C1 Ag3 Ag1 151.7(3) 3_665 . ?
C1 Ag3 Ag1 82.15(15) 3_665 17 ?
C1 Ag3 Ag1 148.08(16) 17 3_665 ?
C1 Ag3 C7 123.8(2) 3_665 . ?
C1 Ag3 C1 117.95(16) 3_665 17 ?
C6 C3 C4 98.9(17) . . ?
C5 C3 C6 125.4(13) . . ?
C5 C3 C4 95.9(15) . . ?
C5 C3 C2 113.8(9) . . ?
C5A C3 C6A 107.2(18) . . ?
C5A C3 C4A 123.8(17) . . ?
C6A C3 C4A 110.7(18) . . ?
C2 C3 C6 114.1(9) . . ?
C2 C3 C4 101.3(14) . . ?
C2 C3 C5A 108.4(10) . . ?
C2 C3 C6A 103.4(12) . . ?
C2 C3 C4A 101.4(11) . . ?
C3 C6 H6A 109.5 . . ?
C3 C6 H6B 109.5 . . ?
C3 C6 H6C 109.5 . . ?
H6A C6 H6B 109.5 . . ?
H6A C6 H6C 109.5 . . ?
H6B C6 H6C 109.5 . . ?
C3 C4 H4A 111.2 . . ?
C3 C4 H4B 108.3 . . ?
C3 C4 H4C 108.9 . . ?
H4A C4 H4B 109.5 . . ?
H4A C4 H4C 109.5 . . ?
H4B C4 H4C 109.5 . . ?
C3 C5 H5A 109.5 . . ?
C3 C5 H5B 109.5 . . ?
C3 C5 H5C 109.5 . . ?
H5A C5 H5B 109.5 . . ?
H5A C5 H5C 109.5 . . ?
H5B C5 H5C 109.5 . . ?
C3 C5A H5AA 109.5 . . ?
C3 C5A H5AB 109.5 . . ?
C3 C5A H5AC 109.5 . . ?
H5AA C5A H5AB 109.5 . . ?
H5AA C5A H5AC 109.5 . . ?
H5AB C5A H5AC 109.5 . . ?
C3 C6A H6AA 109.5 . . ?
C3 C6A H6AB 109.5 . . ?
C3 C6A H6AC 109.5 . . ?
H6AA C6A H6AB 109.5 . . ?
H6AA C6A H6AC 109.5 . . ?
H6AB C6A H6AC 109.5 . . ?
Ag1 C7 Ag2 82.5(2) . . ?
Ag1 C7 Ag3A 86.2(3) . . ?
Ag1 C7 Ag3 82.2(2) . . ?
Ag2 C7 Ag3A 105.7(5) . . ?
Ag3 C7 Ag2 95.4(2) . . ?
C8 C7 Ag1 163.0(5) . . ?
C8 C7 Ag2 108.6(5) . . ?
C8 C7 Ag3A 102.4(7) . . ?
C8 C7 Ag3 108.8(5) . . ?
C7 C8 C9 173.1(9) . . ?
C8 C9 C10 106.3(8) . . ?
C8 C9 C11 112.0(8) . . ?
C8 C9 C12 104.6(8) . . ?
C11 C9 C10 109.8(9) . . ?
C12 C9 C10 112.1(8) . . ?
C12 C9 C11 111.8(9) . . ?
C9 C10 H10A 109.5 . . ?
C9 C10 H10B 109.5 . . ?
C9 C10 H10C 109.5 . . ?
H10A C10 H10B 109.5 . . ?
H10A C10 H10C 109.5 . . ?
H10B C10 H10C 109.5 . . ?
C9 C11 H11A 109.5 . . ?
C9 C11 H11B 109.5 . . ?
C9 C11 H11C 109.5 . . ?
H11A C11 H11B 109.5 . . ?
H11A C11 H11C 109.5 . . ?
H11B C11 H11C 109.5 . . ?
C9 C12 H12A 109.5 . . ?
C9 C12 H12B 109.5 . . ?
C9 C12 H12C 109.5 . . ?
H12A C12 H12B 109.5 . . ?
H12A C12 H12C 109.5 . . ?
H12B C12 H12C 109.5 . . ?
C3 C4A H4AA 110.1 . . ?
C3 C4A H4AB 108.3 . . ?
C3 C4A H4AC 110.1 . . ?
H4AA C4A H4AB 109.4 . . ?
H4AA C4A H4AC 109.5 . . ?
H4AB C4A H4AC 109.5 . . ?
C3 C2 Ag3A 119.4(7) . 18_545 ?
C1 C2 Ag3A 61.2(6) . 18_545 ?
C1 C2 C3 177.7(7) . . ?
Ag1 C1 Ag3A 87.8(5) . 18_545 ?
Ag1 C1 Ag3A 88.6(4) . 2_655 ?
Ag1 C1 Ag3 80.2(2) . 2_655 ?
Ag1 C1 Ag3 81.55(18) . 18_545 ?
Ag3A C1 Ag3A 113.8(8) 18_545 2_655 ?
Ag3A C1 Ag3 106.6(5) 18_545 2_655 ?
Ag3 C1 Ag3A 10.7(4) 2_655 2_655 ?
Ag3 C1 Ag3 97.0(3) 2_655 18_545 ?
C2 C1 Ag1 163.3(5) . . ?
C2 C1 Ag3A 106.4(6) . 2_655 ?
C2 C1 Ag3A 92.6(7) . 18_545 ?
C2 C1 Ag3 101.0(5) . 18_545 ?
C2 C1 Ag3 115.5(5) . 2_655 ?
loop_
_geom_bond_atom_site_label_1
_geom_bond_atom_site_label_2
_geom_bond_distance
_geom_bond_site_symmetry_2
_geom_bond_publ_flag
Ag1 Ag2 2.9443(5) . ?
Ag1 Ag3A 3.151(16) 2_655 ?
Ag1 Ag3A 3.109(10) . ?
Ag1 Ag3A 3.063(14) 18_545 ?
Ag1 Ag3 2.922(4) . ?
Ag1 Ag3 2.846(4) 2_655 ?
Ag1 Ag3 2.957(3) 18_545 ?
Ag1 C7 2.079(6) . ?
Ag1 C1 2.063(5) . ?
Ag2 C7 2.374(6) . ?
Ag2 C7 2.375(6) 2_655 ?
Ag2 C7 2.375(6) 3_665 ?
Ag3A C7 2.452(9) . ?
Ag3A C2 2.672(13) 17 ?
Ag3A C1 2.344(10) 17 ?
Ag3A C1 2.433(12) 3_665 ?
Ag3 C7 2.356(7) . ?
Ag3 C1 2.443(6) 17 ?
Ag3 C1 2.344(6) 3_665 ?
C3 C6 1.498(13) . ?
C3 C4 1.559(17) . ?
C3 C5 1.448(13) . ?
C3 C5A 1.517(15) . ?
C3 C6A 1.527(17) . ?
C3 C4A 1.599(17) . ?
C3 C2 1.473(11) . ?
C6 H6A 0.9800 . ?
C6 H6B 0.9800 . ?
C6 H6C 0.9800 . ?
C4 H4A 0.9804 . ?
C4 H4B 0.9801 . ?
C4 H4C 0.9801 . ?
C5 H5A 0.9800 . ?
C5 H5B 0.9800 . ?
C5 H5C 0.9800 . ?
C5A H5AA 0.9800 . ?
C5A H5AB 0.9800 . ?
C5A H5AC 0.9800 . ?
C6A H6AA 0.9800 . ?
C6A H6AB 0.9800 . ?
C6A H6AC 0.9800 . ?
C7 C8 1.170(8) . ?
C8 C9 1.494(11) . ?
C9 C10 1.543(9) . ?
C9 C11 1.520(9) . ?
C9 C12 1.504(9) . ?
C10 H10A 0.9800 . ?
C10 H10B 0.9800 . ?
C10 H10C 0.9800 . ?
C11 H11A 0.9800 . ?
C11 H11B 0.9800 . ?
C11 H11C 0.9800 . ?
C12 H12A 0.9800 . ?
C12 H12B 0.9800 . ?
C12 H12C 0.9800 . ?
C4A H4AA 0.9802 . ?
C4A H4AB 0.9799 . ?
C4A H4AC 0.9794 . ?
C2 C1 1.183(7) . ?
loop_
_geom_torsion_atom_site_label_1
_geom_torsion_atom_site_label_2
_geom_torsion_atom_site_label_3
_geom_torsion_atom_site_label_4
_geom_torsion
_geom_torsion_site_symmetry_1
_geom_torsion_site_symmetry_2
_geom_torsion_site_symmetry_3
_geom_torsion_site_symmetry_4
_geom_torsion_publ_flag
Ag3A C2 C1 Ag1 91.0(19) 18_545 . . . ?
Ag3A C2 C1 Ag3A -115.7(7) 18_545 . . 2_655 ?
C5A C3 C2 Ag3A 91.9(16) . . . 18_545 ?
C6A C3 C2 Ag3A -154.5(15) . . . 18_545 ?
C4A C3 C2 Ag3A -39.8(14) . . . 18_545 ?
loop_
_platon_squeeze_void_nr
_platon_squeeze_void_average_x
_platon_squeeze_void_average_y
_platon_squeeze_void_average_z
_platon_squeeze_void_volume
_platon_squeeze_void_count_electrons
_platon_squeeze_void_content
1 0.000 0.000 0.500 233 34 '1 C3H13O4'
2 0.333 0.667 0.167 234 33 '0.5 C7H30O9'
3 0.667 0.333 0.833 234 33 '0.5 C7H30O9'
