#------------------------------------------------------------------------------
#$Date: 2024-02-05 14:09:55 +0200 (Mon, 05 Feb 2024) $
#$Revision: 289697 $
#$URL: file:///home/coder/svn-repositories/cod/cif/1/57/04/1570437.cif $
#------------------------------------------------------------------------------
#
# This file is available in the Crystallography Open Database (COD),
# http://www.crystallography.net/
#
# All data on this site have been placed in the public domain by the
# contributors.
#
data_1570437
loop_
_publ_author_name
'Sacharczuk, Natalia'
'Olejniczak, Anna'
'Bujak, Maciej'
'Dziubek, Kamil Filip'
'Katrusiak, Andrzej'
'Podsiad&#x142;o, Marcin'
_publ_section_title
;
 Conformation-aggregation interplay in the simplest aliphatic ethers
 probed under high pressure.
;
_journal_issue                   'Pt 1'
_journal_name_full               IUCrJ
_journal_page_first              57
_journal_page_last               61
_journal_paper_doi               10.1107/S2052252523009995
_journal_volume                  11
_journal_year                    2024
_chemical_formula_moiety         'C2 H6 O'
_chemical_formula_sum            'C2 H6 O'
_chemical_formula_weight         46.07
_chemical_name_systematic        'dimethyl ether'
_space_group_crystal_system      triclinic
_space_group_IT_number           2
_space_group_name_Hall           '-P 1'
_space_group_name_H-M_alt        'P -1'
_atom_sites_solution_hydrogens   geom
_atom_sites_solution_primary     direct
_audit_creation_method
;
Olex2 1.5
(compiled 2022.04.07 svn.rca3783a0 for OlexSys, GUI svn.r6498)
;
_cell_angle_alpha                90.249(12)
_cell_angle_beta                 93.92(2)
_cell_angle_gamma                90.14(3)
_cell_formula_units_Z            8
_cell_length_a                   4.2888(17)
_cell_length_b                   8.3045(18)
_cell_length_c                   12.7912(13)
_cell_measurement_reflns_used    1388
_cell_measurement_temperature    295(2)
_cell_measurement_theta_max      25.6310
_cell_measurement_theta_min      4.9210
_cell_volume                     454.5(2)
_computing_cell_refinement       'CrysAlisPro 1.171.42.49 (Rigaku OD, 2022)'
_computing_data_collection       'CrysAlisPro 1.171.42.49 (Rigaku OD, 2022)'
_computing_data_reduction        'CrysAlisPro 1.171.42.49 (Rigaku OD, 2022)'
_computing_molecular_graphics    'Olex2 1.5 (Dolomanov et al., 2009)'
_computing_publication_material  'Olex2 1.5 (Dolomanov et al., 2009)'
_computing_structure_refinement  'SHELXL 2018/3 (Sheldrick, 2015)'
_computing_structure_solution    'SHELXS  (Sheldrick, 2008)'
_diffrn_ambient_environment      'diamond-anvil cell'
_diffrn_ambient_pressure         5600000
_diffrn_ambient_temperature      295(2)
_diffrn_measured_fraction_theta_full 0.330
_diffrn_measured_fraction_theta_max 0.303
_diffrn_measurement_device_type  'KUMA KM4-CCD, Eos'
_diffrn_measurement_method       '\f- and \w-scans'
_diffrn_radiation_type           MoK\a
_diffrn_radiation_wavelength     0.71073
_diffrn_reflns_av_R_equivalents  0.0306
_diffrn_reflns_av_unetI/netI     0.0272
_diffrn_reflns_Laue_measured_fraction_full 0.330
_diffrn_reflns_Laue_measured_fraction_max 0.303
_diffrn_reflns_limit_h_max       2
_diffrn_reflns_limit_h_min       -2
_diffrn_reflns_limit_k_max       9
_diffrn_reflns_limit_k_min       -10
_diffrn_reflns_limit_l_max       15
_diffrn_reflns_limit_l_min       -15
_diffrn_reflns_number            2631
_diffrn_reflns_point_group_measured_fraction_full 0.330
_diffrn_reflns_point_group_measured_fraction_max 0.303
_diffrn_reflns_theta_full        25.242
_diffrn_reflns_theta_max         26.255
_diffrn_reflns_theta_min         4.792
_exptl_absorpt_coefficient_mu    0.104
_exptl_absorpt_correction_T_max  1.00000
_exptl_absorpt_correction_T_min  0.78843
_exptl_absorpt_correction_type   multi-scan
_exptl_absorpt_process_details
;
CrysAlisPro 1.171.42.49 (Rigaku Oxford Diffraction, 2022)
Empirical absorption correction using spherical harmonics,
implemented in SCALE3 ABSPACK scaling algorithm.
;
_exptl_crystal_colour            colourless
_exptl_crystal_density_diffrn    1.346
_exptl_crystal_description       disc
_exptl_crystal_F_000             208
_exptl_crystal_size_max          0.37
_exptl_crystal_size_mid          0.35
_exptl_crystal_size_min          0.21
_refine_diff_density_max         0.231
_refine_diff_density_min         -0.193
_refine_diff_density_rms         0.057
_refine_ls_extinction_coef       0.12(5)
_refine_ls_extinction_expression Fc^*^=kFc[1+0.001xFc^2^\l^3^/sin(2\q)]^-1/4^
_refine_ls_extinction_method     'SHELXL-2018/3 (Sheldrick 2018)'
_refine_ls_goodness_of_fit_ref   1.135
_refine_ls_hydrogen_treatment    constr
_refine_ls_matrix_type           full
_refine_ls_number_parameters     58
_refine_ls_number_reflns         559
_refine_ls_number_restraints     0
_refine_ls_restrained_S_all      1.135
_refine_ls_R_factor_all          0.1296
_refine_ls_R_factor_gt           0.1173
_refine_ls_shift/su_max          0.000
_refine_ls_shift/su_mean         0.000
_refine_ls_structure_factor_coef Fsqd
_refine_ls_weighting_details
'w=1/[\s^2^(Fo^2^)+(0.0699P)^2^+2.7136P] where P=(Fo^2^+2Fc^2^)/3'
_refine_ls_weighting_scheme      calc
_refine_ls_wR_factor_gt          0.2518
_refine_ls_wR_factor_ref         0.2604
_reflns_Friedel_coverage         0.000
_reflns_number_gt                486
_reflns_number_total             559
_reflns_threshold_expression     'I > 2\s(I)'
_cod_data_source_file            lq5055.cif
_cod_data_source_block           dimethyl_ether_phase_gamma_5_60GPa
_cod_depositor_comments
'Adding full bibliography for 1570433--1570452.cif.'
_cod_database_code               1570437
_shelx_shelxl_version_number     2018/3
_shelx_space_group_comment
;
The symmetry employed for this shelxl refinement is uniquely defined
by the following loop, which should always be used as a source of
symmetry information in preference to the above space-group names.
They are only intended as comments.
;
_exptl_absorpt_special_details
;
Data were collected at room temperature (295(2) K) and pressure of 5.60(2) GPa
(5600000 kPa).
;
_olex2_refinement_description
;
1. Fixed Uiso
 At 1.5 times of:
  All C(H,H,H) groups
2.a Idealised Me refined as rotating group:
 C1(H13,H11,H12), C2(H23,H21,H22), C3(H33,H31,H32), C4(H42,H43,H41), C5(H51,
 H52,H53), C6(H62,H63,H61), C7(H73,H71,H72), C8(H81,H82,H83)
;
_shelx_res_file
;
TITL 4edm in P-1 #2
    4edm.res
    created by SHELXL-2018/3 at 16:24:30 on 02-Jan-2023
REM reset to P-1 #2
CELL 0.71073 4.288764 8.304531 12.791161 90.249 93.9203 90.1368
ZERR 8 0.001689 0.001778 0.001341 0.0122 0.0211 0.0281
LATT 1
SFAC C H O
UNIT 16 48 8

L.S. 50
PLAN  10
CONF
BOND
MORE -1
BOND $H
fmap 2 53
acta
REM <olex2.extras>
REM <HklSrc "%.\\4edm.hkl">
REM </olex2.extras>

WGHT    0.069900    2.713600
EXTI    0.118391
FVAR      18.95534
O1    3    0.242319    0.824830   -0.002236    11.00000    0.03555
C1    1   -0.044172    0.733834   -0.009010    11.00000    0.04378
AFIX 137
H13   2   -0.090194    0.698647   -0.079991    11.00000   -1.50000
H11   2   -0.211365    0.800321    0.012419    11.00000   -1.50000
H12   2   -0.022179    0.641798    0.036022    11.00000   -1.50000
AFIX   0
C2    1    0.253152    0.910056    0.095588    11.00000    0.03544
AFIX 137
H23   2    0.401532    0.996640    0.094303    11.00000   -1.50000
H21   2    0.315057    0.837755    0.151533    11.00000   -1.50000
H22   2    0.050127    0.952873    0.106470    11.00000   -1.50000
AFIX   0

O2    3    0.839321    0.513089    0.196866    11.00000    0.03554
C3    1    0.583045    0.493113    0.140949    11.00000    0.04405
AFIX 137
H33   2    0.597037    0.397973    0.098645    11.00000   -1.50000
H31   2    0.545875    0.584812    0.096426    11.00000   -1.50000
H32   2    0.413976    0.481568    0.185831    11.00000   -1.50000
AFIX   0
C4    1    0.826070    0.664145    0.254452    11.00000    0.03320
AFIX 137
H42   2    0.736833    0.746038    0.208976    11.00000   -1.50000
H43   2    1.033412    0.695640    0.279589    11.00000   -1.50000
H41   2    0.699224    0.650412    0.312783    11.00000   -1.50000
AFIX   0

O3    3    0.711189    0.011930    0.291440    11.00000    0.03912
C5    1    0.423462   -0.011927    0.347154    11.00000    0.04819
AFIX 137
H51   2    0.261497    0.056876    0.317384    11.00000   -1.50000
H52   2    0.464730    0.014100    0.419992    11.00000   -1.50000
H53   2    0.357516   -0.122233    0.340226    11.00000   -1.50000
AFIX   0
C6    1    0.677664    0.166220    0.247908    11.00000    0.03830
AFIX 137
H62   2    0.509187    0.165541    0.194479    11.00000   -1.50000
H63   2    0.867947    0.196660    0.217750    11.00000   -1.50000
H61   2    0.632919    0.242027    0.301708    11.00000   -1.50000
AFIX   0

O4    3    0.274486    0.311634    0.498939    11.00000    0.03814
C7    1   -0.031909    0.215357    0.504815    11.00000    0.03841
AFIX 137
H73   2   -0.012530    0.143250    0.563344    11.00000   -1.50000
H71   2   -0.072304    0.154542    0.441314    11.00000   -1.50000
H72   2   -0.201529    0.288377    0.513443    11.00000   -1.50000
AFIX   0
C8    1    0.222466    0.412000    0.406056    11.00000    0.03325
AFIX 137
H81   2    0.111214    0.507395    0.423767    11.00000   -1.50000
H82   2    0.101913    0.353007    0.352648    11.00000   -1.50000
H83   2    0.420049    0.441628    0.380646    11.00000   -1.50000
AFIX   0
HKLF 4




REM  4edm in P-1 #2
REM wR2 = 0.2604, GooF = S = 1.135, Restrained GooF = 1.135 for all data
REM R1 = 0.1173 for 486 Fo > 4sig(Fo) and 0.1296 for all 559 data
REM 58 parameters refined using 0 restraints

END

WGHT      0.0699      2.7136

REM Highest difference peak  0.231,  deepest hole -0.193,  1-sigma level  0.057
Q1    1   0.8454  0.4828  0.2458  11.00000  0.05    0.23
Q2    1  -0.0837  0.3210  0.2775  11.00000  0.05    0.21
Q3    1   0.7335  0.0378  0.3508  11.00000  0.05    0.21
Q4    1   0.6607  0.0541  0.3509  11.00000  0.05    0.20
Q5    1   0.3666  0.3981  0.5035  11.00000  0.05    0.19
Q6    1   0.9865  0.4837  0.1579  11.00000  0.05    0.19
Q7    1   0.2589  0.7418  0.0223  11.00000  0.05    0.19
Q8    1   0.4884  0.3804  0.5127  11.00000  0.05    0.18
Q9    1   0.2019  0.7562  0.0232  11.00000  0.05    0.18
Q10   1   0.1973  0.1835  0.5946  11.00000  0.05    0.18
;
_shelx_res_checksum              4720
_shelx_hkl_file
;
   0   0   3 756.846 170.111   5
   0   0  -3 673.125 153.449   8
   0   0  -4 388156. 3514.62   9
   0   0  -4 393358. 3292.57   1
   0   0  -4 394976. 3618.87   8
   0   0  -4 396553. 3287.14   3
   0   0   4 397925. 3673.14   5
   0   0   4 394001. 3350.99   2
   0   0   4 395555. 3382.34   4
   0   0   5 3818.38 456.698   5
   0   0  -5 3726.70 438.219   9
   0   0   5 4245.00 446.303   4
   0   0  -5 4382.75 442.986   3
   0   0  -5 3674.75 436.854   8
   0   0   5 3922.18 415.521   2
   0   0   5 4081.69 429.662  12
   0   0  -5 4196.81 424.111   1
   0   0   6 83119.4 1940.31   4
   0   0   6 79889.6 2069.79   5
   0   0  -6 79862.3 1491.20  16
   0   0  -6 80763.8 1894.30   1
   0   0   6 85663.9 1558.70  13
   0   0   6 83733.0 1922.63   2
   0   0  -6 81034.1 1857.26   3
   0   0  -6 81340.8 2064.03   8
   0   0  -6 80015.6 1500.30  15
   0   0   6 82140.1 1957.92  12
   0   0  -6 80941.8 1999.97   9
   0   0   7 4916.06 588.802   4
   0   0  -7 5223.15 484.876  16
   0   0   7 4482.06 572.367  12
   0   0   7 6033.46 512.966  13
   0   0   7 5570.29 682.510   5
   0   0  -7 5662.74 516.601  15
   0   0   7 5049.22 600.953   2
   0   0  -7 4252.57 592.866   8
   0   0  -7 5392.38 636.862   9
   0   0   7 4616.62 449.130  14
   0   0  -7 5478.09 608.068   1
   0   0  -7 4796.20 591.017   3
   0   0  -8 118053. 2708.12   1
   0   0   8 121724. 3015.27   5
   0   0  -8 118617. 2735.39   3
   0   0  -8 127323. 2942.95   9
   0   0   8 124256. 2824.35   4
   0   0  -8 121603. 3004.63   8
   0   0   8 120778. 2739.15   2
   0   0   8 123595. 2811.29  12
   0   0  -9 637.725 537.971   9
   0   0  -9 191.346 499.608   3
   0   0   9 765.244 453.204   2
   0   0  -9 1151.89 491.081   1
   0   0   9 664.483 503.743   4
   0   0  -9 726.315 544.294   8
   0   0   9 556.807 467.043  12
   0   0   9 1258.34 585.085   5
   0   0  10 92357.6 2762.43   2
   0   0 -10 96549.2 2839.75   3
   0   0  10 98283.1 2880.28   4
   0   0  10 97965.8 2892.47  12
   0   0  10 95876.3 3132.80   5
   0   0 -10 100263. 2871.38   1
   0   0 -10 97064.1 3085.17   8
   0   0 -10 94060.6 2912.97   9
   0   0 -11 2319.04 811.664   9
   0   0  11 2670.89 789.765   2
   0   0 -11 2447.22 880.793   8
   0   0  11 2175.48 810.292   4
   0   0  11 3496.39 886.701  12
   0   0 -11 1834.05 819.080   3
   0   0  11 2628.58 922.311   5
   0   0 -11 3452.47 898.540   1
   0   0 -12 48768.3 2569.28   8
   0   0  12 50271.0 2403.03  12
   0   0  12 51411.4 2618.72   5
   0   0 -12 48922.3 2415.24   9
   0   0 -13 5308.03 1052.63   9
   0   0  13 4640.16 1065.41   5
   0   0 -13 6071.66 1213.17   8
   0   0  13 7155.84 1195.67  12
   0   0  14 9678.44 1506.06   5
   0   0 -14 10753.1 1555.44   8
   0   0  15 1023.42 1007.56   5
   0   0 -15 993.324 969.291   8
   0   1 -15 6701.02 1417.96   8
   0   1 -15 5123.32 1241.78   9
   0  -1  15 4005.96 1299.13  12
   0  -1  15 6466.63 1331.33   5
   0   1 -14 1201.74 932.400   9
   0   1 -14 2332.07 1055.57   8
   0  -1  14 2210.31 987.319   5
   0  -1  14 1961.11 1050.45  12
   0  -1  13 3250.68 948.996   5
   0  -1  13 3989.50 998.962  12
   0   1 -13 3342.36 1019.35   9
   0   1 -12 1226.51 815.805   8
   0  -1  12 1476.70 797.604   5
   0  -1  12 464.561 715.451  12
   0   1 -12 430.378 681.845   9
   0   1 -11 22585.6 1645.16   9
   0  -1  11 24112.5 1756.93   5
   0  -1  11 25734.7 1736.84  12
   0   1 -11 23535.4 1706.03   8
   0  -1  10 4250.61 848.752  12
   0   1 -10 4108.58 806.270   8
   0   1 -10 4497.03 867.836   9
   0  -1  10 4739.99 883.780   5
   0   1  -9 16221.2 1257.95   9
   0   1  -9 15141.0 1219.10   8
   0  -1   9 16593.9 1119.82   4
   0  -1   9 16936.4 1075.36   2
   0  -1   9 15856.4 1203.18  12
   0   1  -9 16554.9 1075.25   1
   0  -1   9 17318.2 1300.25   5
   0   1  -8 12316.0 877.703  15
   0  -1   8 12716.8 1000.21  12
   0   1  -8 12565.8 873.679   1
   0  -1   8 14148.8 916.854  13
   0   1  -8 11945.1 1014.42   8
   0  -1   8 12946.2 865.572   2
   0   1  -8 11463.1 872.101   3
   0  -1   8 13899.4 1100.32   5
   0   1  -8 12339.6 861.416  16
   0   1  -8 13070.7 1057.27   9
   0  -1   8 13579.1 923.004   4
   0   1  -7 8113.37 673.079   3
   0  -1   7 10324.6 763.082   2
   0   1  -7 8803.03 691.950   1
   0   1  -7 8921.37 694.948  15
   0   1  -7 9492.90 862.766   9
   0  -1   7 9588.01 835.094   5
   0   1  -7 9726.99 838.704   8
   0  -1   7 10028.6 746.938   4
   0   1  -7 8657.41 702.865  16
   0  -1   7 10309.4 738.830  13
   0  -1   6 8244.88 666.736   2
   0   1  -6 7628.94 834.423   9
   0   1  -6 9374.77 780.692  15
   0   1  -6 9851.87 791.199  16
   0   1  -6 7351.98 732.009   8
   0  -1   6 11055.2 830.188  13
   0   1  -6 11763.7 834.683   3
   0  -1   6 11699.2 993.190  12
   0  -1   6 11036.2 951.211   5
   0  -1   6 10856.2 791.852   4
   0   1  -6 8986.34 682.000   1
   0  -1   5 140332. 2208.69  13
   0  -1   5 142666. 2074.95   2
   0  -1   5 138536. 2452.66  12
   0  -1   5 139694. 2126.41   4
   0   1  -5 143666. 2193.54  15
   0   1  -5 145028. 2061.37   1
   0  -1   5 145013. 2515.71   5
   0   1  -5 141595. 2559.74   9
   0   1  -5 142057. 2061.40   3
   0   1  -5 142625. 2223.12  16
   0   1  -5 141542. 2453.96   8
   0   1  -4 3796.93 248.206   9
   0  -1   4 4125.03 236.218  12
   0  -1   4 3890.33 188.026  13
   0  -1   4 4087.53 359.911   5
   0   1  -4 4084.14 262.920  15
   0   1  -4 3757.75 171.946  16
   0   1  -4 3718.44 240.571   8
   0  -1   3 466801. 3585.97  12
   0   1  -3 460868. 3655.07   9
   0  -1  -3 461107. 3440.60   8
   0   1   3 458415. 3499.08   5
   0  -1  -3 458780. 3564.54   1
   0   1   3 455018. 3592.03   2
   0  -1  -3 456418. 3547.66   3
   0   1   3 458758. 3632.36   4
   0  -1  -4 19383.2 847.697   3
   0   1   4 20843.0 863.383   5
   0  -1  -4 20554.0 861.715   8
   0   1   4 19887.9 722.042   7
   0  -1  -4 19989.2 859.121   1
   0  -1  -4 20447.0 737.795   9
   0  -1  -4 20227.2 727.194   6
   0   1   4 20871.9 881.790   4
   0   1   4 20364.8 863.104   2
   0  -1  -5 167219. 2702.51   3
   0  -1  -5 166626. 2695.69   8
   0   1   5 169716. 2251.33   7
   0  -1  -5 171532. 2713.64   1
   0  -1  -5 170833. 2237.98   6
   0   1   5 161675. 2687.40   4
   0   1   5 170892. 2778.83   5
   0   1   5 169882. 2719.16   2
   0  -1  -5 171268. 2426.88   9
   0   1   6 12126.8 1063.52   5
   0   1   6 9437.03 833.821   2
   0  -1  -6 12520.0 980.130   1
   0   1   6 10300.0 739.125   7
   0   1   6 14618.6 1079.78   4
   0  -1  -7 7260.30 739.175   3
   0   1   7 6705.93 718.198   2
   0  -1  -7 6693.82 654.115   8
   0   1   7 6085.92 716.962   4
   0   1   7 6256.15 749.159   5
   0   1   7 6751.37 645.947  12
   0  -1  -8 10469.5 951.974   3
   0  -1  -8 8100.72 894.346   8
   0   1   8 7806.60 771.471  12
   0   1   8 7849.51 852.434   4
   0   1   8 8733.07 876.711   2
   0   1   8 8014.54 874.552   5
   0  -1  -9 13280.6 1183.99   8
   0   1   9 11733.4 1076.47   4
   0   1   9 11596.9 1050.79   2
   0  -1  -9 15769.4 1220.41   1
   0  -1  -9 12779.2 1099.07   3
   0  -1  -9 12961.2 1047.99   9
   0   1   9 11816.4 1118.30   5
   0   1   9 11248.0 961.189  12
   0   1  11 19111.5 1484.12   2
   0   1  11 17309.6 1381.34  12
   0  -1 -11 21314.4 1543.32   9
   0   1  11 17094.1 1475.90   4
   0  -1 -11 18424.6 1645.18   8
   0  -1 -11 21991.6 1656.84   1
   0  -1 -11 19533.9 1603.35   3
   0   1  11 15736.1 1486.16   5
   0  -1 -12-27.5256 769.050   3
   0   1  12 86.4301 691.836   4
   0  -1 -12-1276.89 800.246   1
   0  -1 -12-237.747 733.964   8
   0   1  12 603.163 653.839   2
   0   1  12-389.315 808.734   5
   0  -1 -13 2467.01 890.791   1
   0   1  13 1959.11 843.484   2
   0  -1 -13 4467.08 1144.57   3
   0   1  13 2010.42 937.336   5
   0  -1 -13 3255.16 1001.13   8
   0   1  13 2222.28 934.774   4
   0   1  14 1154.06 1038.07   5
   0  -1 -14 2433.93 1068.70   8
   0  -1 -15 6191.28 1392.62   8
   0   1  15 10392.5 1628.08   5
   0   2 -15 5762.88 1347.33   8
   0   2 -15 3388.69 1204.29   9
   0  -2  15 4156.14 1314.23  12
   0  -2  15 4632.72 1296.88   5
   0   2 -14-227.064 823.703   9
   0  -2  14 152.462 913.166  12
   0   2 -14-48.9766 917.412   8
   0  -2  14 579.116 902.578   5
   0  -2  13 1964.90 876.636   5
   0   2 -13 420.301 760.902   9
   0  -2  13 746.673 887.532  12
   0   2 -13 1792.93 954.716   8
   0  -2  12 30650.5 2174.75  12
   0   2 -12 30668.7 2130.20   9
   0   2 -12 32590.1 2119.12   8
   0  -2  12 30259.6 2095.54   5
   0  -2  11 3152.83 892.962   5
   0   2 -11 5336.53 977.774   8
   0  -2  11 2922.42 900.185  12
   0   2 -11 4077.03 926.826   9
   0  -2  10 1316.74 671.591  12
   0  -2  10 2144.01 733.794   5
   0   2 -10 1067.32 647.620   8
   0   2 -10 1161.01 690.852   9
   0   2  -9 13380.4 1052.30  16
   0   2  -9 12899.3 1189.48   9
   0   2  -9 13348.2 1156.08   8
   0  -2   9 12103.2 1142.15   5
   0   2  -9 14635.2 1153.21  15
   0  -2   9 12258.1 1190.26  12
   0  -2   9 14068.4 1136.78  13
   0   2  -8 129520. 2867.34  16
   0   2  -8 129282. 2983.01  15
   0   2  -8 129622. 3334.65   9
   0   2  -8 130992. 3107.04   8
   0  -2   8 126824. 3198.69  12
   0  -2   8 125756. 2961.42  13
   0  -2   8 118717. 3044.46   5
   0   2  -7 8706.10 793.583  15
   0  -2   7 9529.71 858.980   5
   0   2  -7 8902.72 821.119   8
   0   2  -7 9217.40 885.471   9
   0   2  -7 10793.3 862.621  16
   0  -2   7 9729.48 844.503  13
   0  -2   7 8102.47 827.304  12
   0   2  -6 37472.2 1434.60   8
   0   2  -6 35389.1 1389.66  15
   0   2  -6 37152.4 1094.05   1
   0   2  -6 37282.8 1422.77  16
   0  -2   6 36934.7 1520.30  12
   0  -2   6 36177.3 1098.77   2
   0  -2   6 36802.3 1443.35  13
   0  -2   6 33075.5 1401.18   5
   0   2  -6 37717.2 1568.76   9
   0  -2   5 47032.2 1498.82  13
   0   2  -5 46944.3 1454.67   8
   0  -2   5 45945.1 1549.44  12
   0   2  -5 47523.9 1600.17   9
   0   2  -5 47502.4 1512.38  16
   0   2  -5 45441.2 1448.85  15
   0  -2   5 47215.7 1483.82   5
   0   2  -4 601227. 5158.62   9
   0  -2   4 603878. 4984.90  13
   0   2  -4 592788. 4855.63  15
   0  -2   4 607210. 4738.59   5
   0  -2   4 602343. 5079.17  12
   0   2  -4 604407. 4430.42  10
   0   2  -4 599205. 4989.66  16
   0   2  -4 607916. 4523.42   8
   0   2  -3 358056. 3573.94   9
   0  -2   3 355509. 3544.87  12
   0   2  -3 346839. 3543.26  16
   0  -2   3 346732. 3527.89  13
   0   2  -3 342627. 3025.34   8
   0   2  -3 330874. 3220.94  10
   0  -2   3 344253. 3172.25   5
   0   2  -3 350460. 3506.12  15
   0  -2   2 582355. 4145.56  12
   0   2  -2 596894. 4115.34  10
   0   2  -2 582135. 4133.39   9
   0   2  -2 588423. 4303.34  16
   0   2  -2 597960. 4279.70  15
   0  -2   2 593647. 4327.45  13
   0   2  -1 29763.1 891.867  15
   0  -2   1 28821.7 901.009  13
   0   2  -1 30362.8 904.496  16
   0   2  -1 30699.1 912.091  10
   0   2   0 22723.7 775.034  10
   0   2   1 26542.1 879.161   7
   0   2   1 26557.5 846.837  10
   0  -2  -2 631598. 4470.15   6
   0  -2  -2 636831. 4384.14   1
   0   2   2 639724. 4448.91   4
   0  -2  -2 631896. 4358.43   3
   0   2   2 634541. 4426.28   7
   0   2   2 633674. 4332.56   2
   0  -2  -3 352833. 3289.56   8
   0   2   3 357103. 3653.60   4
   0  -2  -3 361250. 3536.19   6
   0   2   3 357071. 3594.32   2
   0  -2  -3 358287. 3633.17   3
   0   2   3 355122. 3263.88   5
   0   2   3 361931. 3543.83   7
   0  -2  -3 352995. 3613.63   1
   0   2   4 602369. 5216.26   4
   0   2   4 613058. 4760.45   5
   0  -2  -4 608503. 4830.29   8
   0  -2  -4 608127. 5181.64   1
   0  -2  -4 603599. 4799.41   6
   0   2   4 598371. 4815.29   7
   0   2   4 607721. 5122.72   2
   0  -2  -4 605861. 5158.20   3
   0  -2  -5 46425.9 1270.65   9
   0   2   5 47047.3 1598.26   2
   0  -2  -5 45622.0 1499.16   8
   0  -2  -5 46768.4 1412.59   6
   0   2   5 45424.5 1474.02   5
   0   2   5 45459.8 1576.93   4
   0  -2  -5 46473.1 1564.94   3
   0   2   5 47714.3 1449.36   7
   0  -2  -5 45558.9 1573.30   1
   0  -2  -6 39434.7 1365.57   6
   0  -2  -6 41834.5 1595.43   3
   0   2   6 40064.8 1561.69   2
   0   2   6 40716.1 1399.68   7
   0  -2  -6 40753.0 1589.55   1
   0  -2  -6 39294.0 1522.96   8
   0  -2  -6 37822.5 1258.17   9
   0   2   6 41598.3 1605.26   4
   0   2   6 41763.2 1566.15   5
   0   2   7 2007.85 799.355   2
   0   2   7 1978.52 745.964   7
   0   2   7 1983.51 807.955   5
   0  -2  -7 2002.52 752.123   6
   0  -2  -7 2011.12 659.909   9
   0  -2  -7 1963.28 816.363   8
   0  -2  -7 1958.79 845.442   1
   0  -2  -7 2032.57 862.120   3
   0   2   7 1995.04 832.220   4
   0   2   8 156230. 3429.18   5
   0   2   8 158399. 3478.15   4
   0  -2  -8 152713. 3468.20   8
   0   2   8 154591. 3423.55   2
   0   2   8 149853. 2948.15   7
   0  -2  -8 158528. 3507.54   1
   0  -2  -8 152484. 2865.64   6
   0  -2  -8 145610. 3343.79   3
   0   2   9 15576.0 1228.19   2
   0   2   9 15199.5 1234.02   4
   0  -2  -9 15512.6 1257.32   1
   0  -2  -9 14414.4 1244.35   3
   0  -2  -9 14878.7 1244.71   8
   0   2   9 17273.3 1305.84   5
   0   2  10 1409.97 661.056   5
   0  -2 -10 1684.64 743.675   8
   0  -2 -10 1487.79 740.417   3
   0   2  10 831.209 549.335   2
   0   2  10 1146.78 649.246   4
   0  -2 -10 1269.32 660.876   1
   0  -2 -11 5317.80 1078.15   3
   0   2  11 7665.30 1045.36   2
   0   2  11 6996.38 1009.03   5
   0   2  11 8398.39 1124.40   4
   0  -2 -11 7115.27 1066.87   1
   0  -2 -11 6428.37 1075.27   8
   0   2  12 34319.3 2135.41   4
   0  -2 -12 33921.3 2198.90   1
   0  -2 -12 34296.8 2299.53   8
   0  -2 -12 32958.8 2119.18   3
   0   2  12 38083.3 2286.78   5
   0   2  12 36583.6 2174.66   2
   0   2  13 792.830 901.339   5
   0   2  13 706.826 735.280   2
   0  -2 -13 403.325 942.960   3
   0  -2 -13 1513.24 995.103   1
   0   2  13 1534.37 842.675   4
   0  -2 -13 1493.44 989.887   8
   0   2  14 113.433 804.147   2
   0   2  14-521.819 977.788   5
   0  -2 -14 144.514 1150.48   3
   0  -2 -14 265.887 936.837   1
   0   2  14 1997.23 1102.26   4
   0  -2 -14-751.203 1127.90   8
   0   2  15 10515.4 1513.38   2
   0  -2 -15 8757.13 1615.01   8
   0  -2 -15 10668.7 1724.49   3
   0   2  15 10566.8 1690.25   5
   0   2  15 10688.6 1622.17   4
   0   3 -15 1436.17 1052.57   8
   0   3 -14 1374.00 976.342   9
   0  -3  14 1622.58 1069.46  12
   0   3 -14 2172.93 1077.14   8
   0   3 -13 4951.44 1068.42   8
   0  -3  13 6642.86 1222.71   5
   0   3 -13 5039.56 1157.70   9
   0  -3  13 6645.96 1319.27  12
   0   3 -12 8584.28 1297.60   9
   0   3 -12 9752.71 1276.08   8
   0  -3  12 11358.2 1467.68  12
   0  -3  12 9918.35 1329.54   5
   0  -3  11 889.036 739.389   5
   0   3 -11 1242.83 763.108   9
   0  -3  11 498.668 843.250  12
   0   3 -11 274.805 675.860   8
   0  -3  10 1442.81 875.613  12
   0   3 -10 893.991 706.827   9
   0   3 -10 1603.54 715.511  16
   0  -3  10 226.669 641.807   5
   0   3 -10 1723.29 771.488   8
   0  -3   9 28415.1 1698.97  13
   0   3  -9 22613.6 1657.16   9
   0   3  -9 23607.9 1510.48   8
   0   3  -9 23140.3 1519.85  15
   0   3  -9 22108.6 1435.87  16
   0  -3   9 22634.3 1576.53  12
   0  -3   9 23980.5 1545.76   5
   0   3  -8 17736.7 1397.21   9
   0   3  -8 15325.6 1143.03   8
   0  -3   8 16120.3 1268.57  12
   0   3  -8 16839.9 1218.18  16
   0  -3   8 17662.4 1289.04  13
   0  -3   8 17267.8 1238.12   5
   0   3  -8 16490.6 1248.84  15
   0  -3   7 7655.46 814.671   5
   0   3  -7 15712.7 1274.44   9
   0   3  -7 17844.9 1145.93   8
   0  -3   7 6903.71 812.011  12
   0  -3   7 8524.00 908.337  13
   0   3  -7 6266.52 818.657  15
   0   3  -6 7698.39 712.409   8
   0  -3   6 7772.58 737.868   5
   0   3  -6 7027.44 755.802  16
   0  -3   6 8168.24 829.981  13
   0   3  -6 6938.55 784.344   9
   0  -3   6 7719.27 799.561  12
   0   3  -6 7090.45 783.459  15
   0   3  -5 300530. 4255.14   9
   0   3  -5 290188. 3606.47   8
   0  -3   5 290824. 4214.34  13
   0   3  -5 287010. 4172.03  16
   0  -3   5 287802. 4167.45  12
   0   3  -5 279947. 4125.93  15
   0  -3   4 22015.2 1168.59  12
   0   3  -4 22936.0 1079.40  10
   0   3  -4 23620.4 1132.38   9
   0  -3   4 19242.6 1136.41  13
   0   3  -4 21551.2 1091.60  15
   0   3  -4 23662.1 955.537   8
   0   3  -4 19119.0 1061.94  16
   0   3  -3 86555.7 2356.05  10
   0   3  -3 86177.7 3853.82   8
   0  -3   3 87455.7 2362.24  12
   0   3  -3 87698.6 2357.44  16
   0   3  -3 87326.5 2411.89  15
   0   3  -3 86478.4 2293.96   9
   0  -3   3 85327.3 2424.27  13
   0  -3   2 122020. 3964.77  13
   0   3  -2 117467. 1870.62  10
   0   3  -2 115337. 1808.94   9
   0   3  -2 122583. 1924.57  16
   0   3  -2 121233. 2896.50  15
   0  -3   1 267554. 3360.09  13
   0   3  -1 283658. 3503.96  10
   0   3  -1 270002. 3298.22  15
   0   3  -1 263445. 3231.58  16
   0   3   0 6713.23 554.198  10
   0   3   0 7299.28 523.605  16
   0   3   0 7170.24 551.141   7
   0   3   1 264581. 3062.97   4
   0  -3  -1 260867. 2980.14   3
   0   3   1 264188. 3331.94   7
   0   3   1 267905. 3379.16  10
   0   3   1 267053. 2839.02  16
   0   3   1 260063. 3129.17   2
   0  -3  -2 55903.5 1766.12   3
   0  -3  -2 55126.5 1788.95   1
   0   3   2 53945.4 1744.30   2
   0  -3  -2 55561.0 1850.03   6
   0   3   2 50908.9 1728.91   4
   0   3   2 53584.9 1824.55   7
   0   3   2 52920.1 1755.10  10
   0   3   3 125400. 2416.24   2
   0  -3  -3 122061. 2401.91   3
   0  -3  -3 125808. 2460.70   1
   0  -3  -3 123512. 2498.95   6
   0   3   3 123510. 2446.00   7
   0   3   3 127129. 2443.47   4
   0   3   3 122524. 2268.16  10
   0  -3  -4 26554.3 1296.18   3
   0   3   4 28243.9 1106.80   5
   0  -3  -4 24603.1 1218.85   1
   0   3   4 28477.3 1089.75  10
   0   3   4 25641.4 1185.70   2
   0   3   4 25197.5 1154.24   7
   0  -3  -4 26982.9 1275.58   6
   0  -3  -4 28097.7 1177.19   8
   0   3   4 27889.8 1267.21   4
   0  -3  -5 315650. 4423.85   3
   0  -3  -5 308909. 4380.50   1
   0   3   5 308714. 4164.06   7
   0   3   5 306904. 3866.84   5
   0  -3  -5 311671. 4213.14   6
   0  -3  -5 302331. 4028.88   8
   0   3   5 307647. 4440.98   4
   0   3   5 311270. 4299.15   2
   0   3   6 7002.63 721.053   5
   0   3   6 7495.22 839.624   4
   0  -3  -6 7951.46 845.788   3
   0   3   6 7416.96 802.732   2
   0   3   6 7148.80 725.707   7
   0  -3  -6 6839.01 793.713   1
   0  -3  -6 7547.02 785.865   6
   0  -3  -6 7039.58 735.899   8
   0  -3  -7 4970.19 771.718   1
   0   3   7 5054.95 782.978   4
   0   3   7 5688.51 742.893   5
   0  -3  -7 5577.74 737.883   8
   0   3   7 5501.18 690.681   7
   0  -3  -7 7126.54 912.485   3
   0  -3  -7 6971.94 781.583   6
   0   3   7 5215.17 775.368   2
   0   3   8 19979.0 1375.25   4
   0   3   8 20994.0 1351.47   5
   0  -3  -8 19018.3 1363.25   1
   0  -3  -8 18313.5 1311.40   8
   0  -3  -8 20569.6 1434.93   3
   0   3   8 20301.0 1255.27   7
   0  -3  -8 19201.2 1244.20   6
   0   3   8 20348.5 1363.14   2
   0  -3  -9 22533.8 1628.76   3
   0   3   9 20848.2 1507.34   5
   0   3   9 19241.6 1456.80   2
   0  -3  -9 20962.9 1548.43   1
   0  -3  -9 18875.2 1497.93   8
   0   3   9 19490.3 1490.41   4
   0   3   9 19588.9 1350.38   7
   0  -3 -10 1751.55 841.375   1
   0  -3 -10 754.244 842.164   3
   0   3  10 1183.79 681.086   2
   0   3  10 911.948 701.142   4
   0  -3 -10 1641.01 827.265   8
   0   3  10 1668.38 808.674   5
   0   3  11 600.574 723.998   5
   0   3  11 509.628 705.828   4
   0  -3 -11 763.509 860.751   3
   0   3  11 33.1979 683.756   2
   0  -3 -11 883.128 761.736   8
   0  -3 -11 1239.51 812.670   1
   0  -3 -12 7936.23 1283.34   8
   0  -3 -12 7960.37 1292.67   1
   0  -3 -12 8270.57 1277.63   3
   0   3  12 9390.33 1264.32   2
   0   3  12 9922.05 1346.77   5
   0   3  12 8409.09 1288.99   4
   0  -3 -13 3901.93 1131.83   1
   0   3  13 3592.13 1153.45   5
   0   3  13 3119.38 1053.83   4
   0  -3 -13 4401.88 1224.14   3
   0  -3 -13 3045.20 1038.56   8
   0   3  13 3639.54 1039.76   2
   0  -3 -14 2105.99 1163.61   3
   0   3  14 931.476 969.682   5
   0   3  14 3554.39 1050.41   2
   0  -3 -14 610.469 989.560   8
   0   3  14 3256.73 1137.29   4
   0  -3 -14 2948.60 1132.35   1
   0  -3 -15 3588.08 1345.93   1
   0   3  15 4361.91 1301.58   4
   0   4 -14 11503.9 1665.43   9
   0  -4  13 8936.24 1487.91  12
   0   4 -13 7666.60 1386.64   9
   0   4 -12 8188.81 1313.08   9
   0  -4  12 8437.97 1391.20  12
   0   4 -11 8586.89 1336.64   9
   0  -4  11 9350.19 1424.50  12
   0   4 -11 7645.09 1157.87  16
   0   4 -10 4495.87 1082.64   9
   0  -4  10 2521.92 1037.35  12
   0   4 -10 5987.23 1056.43  16
   0   4  -9 7062.92 1061.24  16
   0   4  -9 5575.23 1049.04   9
   0  -4   9 6103.12 1079.02  12
   0  -4   8 5761.26 977.766  12
   0   4  -8 3579.23 836.571   9
   0   4  -8 5380.72 865.973  16
   0  -4   8 5518.78 935.908  13
   0   4  -8 6265.82 967.550  15
   0  -4   7 42778.2 2063.14  13
   0   4  -7 40862.4 1964.88   9
   0   4  -7 42161.2 1964.80  15
   0   4  -7 40418.6 1673.64   8
   0  -4   7 42101.8 2020.10  12
   0   4  -7 40273.7 1931.50  16
   0   4  -6 89293.9 2692.19  15
   0  -4   6 85255.8 2767.51  13
   0   4  -6 88837.6 2669.40   9
   0   4  -6 90494.9 2728.86  16
   0   4  -6 92809.2 2281.02   8
   0  -4   6 94814.4 2792.57  12
   0  -4   5 12671.7 1022.27  12
   0   4  -5 13473.1 825.625   8
   0   4  -5 13169.4 1012.09   9
   0   4  -5 13723.3 1063.35  15
   0  -4   5 13096.8 1062.61  13
   0   4  -5 12753.3 1038.89  16
   0  -4   4 2664.98 565.175  12
   0   4  -4 4000.55 648.765  15
   0   4  -4 3623.50 462.371   8
   0  -4   4 3676.87 676.076  13
   0   4  -4 3774.52 637.351  16
   0   4  -4 2950.89 555.176   9
   0  -4   3 7567.92 830.451  13
   0   4  -3 8846.30 798.914  10
   0   4  -3 8504.24 719.040   9
   0   4  -3 6469.44 499.118   8
   0   4  -3 8176.97 799.466  15
   0   4  -3 7927.47 776.875  16
   0   4  -2 26225.0 1182.38   9
   0  -4   2 24058.9 1348.06  13
   0   4  -2 28649.7 1371.66  15
   0   4  -2 27961.7 1372.21  10
   0   4  -2 28673.9 1372.04  16
   0   4  -1 50795.4 1693.07  16
   0   4  -1 50563.1 1775.65  10
   0  -4   0 151146. 2338.87   3
   0   4   0 151659. 2688.00  16
   0   4   0 143302. 2723.86   7
   0   4   0 136167. 2805.57  10
   0   4   0 143932. 2336.87   4
   0  -4  -1 57541.7 1891.16   6
   0  -4  -1 52123.6 1570.56   3
   0   4   1 50820.2 1533.45  16
   0   4   1 51036.9 1758.37  10
   0   4   1 53622.6 1765.34   7
   0   4   1 49696.9 1516.16   4
   0  -4  -2 28675.4 1359.47   6
   0   4   2 28146.2 1212.63   4
   0   4   2 31353.9 1361.43  10
   0   4   2 30710.9 1375.15   7
   0   4   2 34861.7 1192.35  16
   0  -4  -2 30228.6 1288.94   3
   0   4   2 30346.5 1317.34   2
   0   4   3 9582.70 810.854   4
   0   4   3 8576.83 768.736   7
   0   4   3 9340.46 799.237   2
   0  -4  -3 7894.11 800.065   1
   0   4   3 9988.27 599.485  16
   0  -4  -3 8777.53 866.315   6
   0   4   3 9538.63 787.935  10
   0  -4  -3 9418.14 850.257   3
   0  -4  -4 4501.34 711.217   6
   0  -4  -4 5148.81 733.413   3
   0   4   4 5830.74 684.678   4
   0   4   4 6392.59 572.885   5
   0  -4  -4 4629.17 683.454   1
   0   4   4 5260.59 651.176   7
   0   4   4 5869.06 687.795   2
   0  -4  -5 10672.1 995.527   6
   0   4   5 8604.75 883.585   4
   0  -4  -5 10479.6 989.184   3
   0   4   5 8242.22 760.520   5
   0   4   5 10052.4 942.316   7
   0   4   5 8806.79 903.532   2
   0  -4  -5 9750.30 935.916   1
   0   4   6 97044.3 2867.56   4
   0  -4  -6 89255.0 2792.55   1
   0   4   6 92802.0 2465.22   5
   0  -4  -6 102210. 2918.75   3
   0  -4  -6 103178. 2833.87   8
   0   4   6 107443. 2933.39   2
   0  -4  -6 99493.0 2789.52   6
   0   4   6 102089. 2795.19   7
   0  -4  -7 42191.0 1906.16   6
   0   4   7 41713.5 1880.90   7
   0  -4  -7 42209.7 2043.80   3
   0   4   7 40516.1 1765.59   5
   0  -4  -7 38391.1 1965.35   1
   0  -4  -7 39762.5 1867.77   8
   0   4   7 41299.9 2000.58   4
   0   4   7 43131.5 1977.99   2
   0  -4  -8 5436.48 970.917   1
   0   4   8 5832.55 875.025   2
   0  -4  -8 5821.42 939.668   6
   0  -4  -8 6418.16 1041.35   3
   0   4   8 6980.96 913.012   7
   0  -4  -8 5959.42 924.411   8
   0   4   8 5952.56 841.265   5
   0   4   8 6509.15 951.605   4
   0   4   9 484.666 175.925   5
   0   4   9 462.557 126.603   4
   0  -4  -9 457.852 154.012   8
   0   4   9 439.755 186.158   2
   0  -4  -9 491.369 169.272   1
   0  -4  -9 516.351 190.228   3
   0  -4  -9 518.434 178.423   6
   0   4   9 489.845 171.726   7
   0   4  10 9961.54 1234.63   4
   0  -4 -10 10371.0 1340.91   3
   0   4  10 6879.82 1057.10   2
   0  -4 -10 8382.60 1232.22   8
   0   4  10 9283.51 1146.68   5
   0  -4 -10 8153.53 1224.45   1
   0   4  11 11695.4 1403.19   5
   0  -4 -11 9994.57 1488.62   1
   0   4  11 9608.03 1327.79   2
   0  -4 -11 11205.9 1403.70   8
   0  -4 -11 13064.2 1614.91   3
   0   4  11 12491.8 1456.16   4
   0   4  12 6922.76 1279.01   2
   0  -4 -12 8535.24 1385.98   1
   0  -4 -12 7464.56 1304.89   8
   0   4  12 9384.52 1380.58   5
   0   4  12 6732.42 1290.95   4
   0  -4 -12 7829.65 1438.84   3
   0  -4 -13 6684.35 1466.91   1
   0   4  13 4356.21 1223.91   4
   0   4  13 4756.34 1178.94   2
   0   4  13 3487.13 1112.18   5
   0  -4 -13 5661.92 1351.54   8
   0  -4 -14 16113.7 2097.84   3
   0   4  14 16318.5 1937.70   5
   0  -4 -14 13556.2 1887.51   1
   0   4  14 14448.0 1792.48   2
   0   4  14 14597.6 1878.42   4
   0  -4 -14 11846.2 1837.52   8
   0   5 -13-1242.08 1195.16   9
   0   5 -12 892.230 861.148  16
   0   5 -12 2185.59 998.608   9
   0   5 -11 330.721 721.945  16
   0   5 -11 89.1570 776.005   9
   0   5 -10 684.564 794.937   9
   0   5 -10-320.552 771.880  16
   0   5  -9 352.731 657.034   9
   0   5  -9 1263.03 815.232  16
   0   5  -8 17702.4 1537.06   9
   0   5  -8 18765.1 1571.42  16
   0   5  -7 12001.6 1228.89   9
   0   5  -7 12128.2 1249.06  16
   0   5  -6 13098.0 1165.01   9
   0   5  -6 11280.8 1130.74  16
   0  -5   5 2402.36 700.451  13
   0   5  -5 3162.45 656.390   9
   0   5  -5 3498.71 756.847  16
   0   5  -4 8329.26 938.969  16
   0   5  -4 8579.14 854.009   9
   0  -5   4 8767.75 995.909  13
   0  -5   3 123448. 2589.60   6
   0   5  -3 121995. 2731.44   9
   0   5  -3 127323. 3171.70  16
   0   5  -2 16767.6 1144.41  10
   0   5  -2 16352.7 1122.18  16
   0   5  -2 15731.3 936.616   9
   0  -5   2 15812.2 1006.60   6
   0   5  -1 17049.7 935.666   9
   0   5  -1 19845.7 1276.98  10
   0   5  -1 18616.6 1174.49  16
   0  -5   1 19752.7 1174.78   6
   0  -5   0 546.020 377.645   3
   0   5   0 115.829 361.471  10
   0   5   0 619.871 395.369  16
   0   5   0 338.635 326.651   7
   0  -5   0 390.218 434.565   6
   0   5   0 296.731 284.600   4
   0   5   1 18857.2 1050.48   4
   0  -5  -1 20033.0 1099.19   3
   0   5   1 19112.1 1095.00  16
   0   5   1 18948.0 1195.65   7
   0  -5  -1 19519.4 1257.45   6
   0   5   1 18991.5 1240.59  10
   0   5   2 11251.7 925.896   4
   0   5   2 12383.4 1033.82  10
   0  -5  -2 14208.0 1134.42   6
   0   5   2 12048.9 1020.71   7
   0   5   2 11907.3 856.411  16
   0  -5  -3 118437. 2881.97   3
   0   5   3 124674. 3096.36   2
   0   5   3 124632. 2925.04   4
   0  -5  -3 119769. 3175.63   6
   0   5   3 125499. 3140.32   7
   0   5   4 6376.46 847.601   2
   0  -5  -4 6836.02 925.434   6
   0  -5  -4 5685.49 829.243   1
   0  -5  -4 7154.15 896.117   3
   0   5   4 5765.54 839.497   7
   0   5   4 6088.49 813.760   4
   0  -5  -5 2672.16 761.950   6
   0  -5  -5 3431.13 735.736   1
   0  -5  -5 3734.16 801.738   3
   0   5   5 3685.03 685.361   2
   0   5   5 3291.22 725.091   4
   0   5   5 3309.71 721.988   7
   0  -5  -6 1954.00 138.276  6
   0  -5  -6 2016.04 144.617  1
   0   5   6 2041.21 149.780   7
   0   5   6 2022.44 112.563   4
   0  -5  -6 2034.98 194.507   3
   0   5   6 1985.64 126.680   2
   0  -5  -7 15161.5 1420.02   6
   0  -5  -7 13510.5 1379.95   3
   0  -5  -7 14278.2 1388.16   1
   0   5   7 16120.0 1317.74   7
   0   5   7 18364.5 1482.56   4
   0   5   7 16905.2 1403.25   2
   0  -5  -8 16772.1 1500.86   6
   0  -5  -8 14646.0 1522.01   1
   0   5   8 16700.3 1543.16   4
   0  -5  -8 15738.1 1568.12   3
   0   5   8 15706.7 1408.47   7
   0   5   8 16185.5 1509.82   2
   0  -5  -9 298.066 723.756   1
   0  -5  -9 1035.55 878.856   3
   0   5   9 498.894 659.111   7
   0   5   9 664.054 655.190   2
   0   5   9 540.326 756.046   4
   0  -5  -9 273.116 876.375   6
   0   5  10 20.4174 816.581   4
   0  -5 -10-504.147 927.758   6
   0  -5 -10-665.083 1020.14   3
   0   5  10 76.5413 715.263   2
   0  -5 -10 305.537 785.355   1
   0   5  10 401.918 720.957   7
   0  -5 -11 1062.88 1070.30   3
   0   5  11 754.208 849.059   2
   0   5  11 226.498 829.863   4
   0  -5 -11 1053.84 952.938   1
   0  -5 -12 671.195 981.416   1
   0  -5 -12 1627.08 1254.00   3
   0   5  12 385.673 875.680   2
   0   5  12 1743.18 1080.43   4
   0  -5 -13 1479.96 1275.26   3
   0  -5 -13 512.411 990.365   1
   0   5  13 135.095 1003.40   4
   0   5  13-748.544 977.847   2
   0   6 -10-1509.91 1028.80   9
   0   6  -9 7284.14 1197.09   9
   0   6  -9 7856.57 1227.77  16
   0   6  -8 5038.23 987.011   9
   0   6  -8 4979.50 1029.53  16
   0   6  -7 786.514 721.637  16
   0   6  -7-102.707 638.122   9
   0   6  -6 16364.0 1437.24   9
   0   6  -6 14677.9 1433.74  16
   0   6  -5 587.159 629.629  16
   0   6  -5 498.773 552.150   9
   0   6  -4 45094.5 1958.23   9
   0   6  -4 46289.1 2241.57  16
   0   6  -3 2737.92 660.348  16
   0  -6   2 50333.9 1981.70   6
   0   6  -2 53525.9 2224.44  16
   0  -6   1 3003.84 684.892   6
   0   6  -1 3282.09 656.864  16
   0   6   0 116173. 3779.00  16
   0  -6   0 123070. 3822.76   6
   0  -6  -1 2390.32 709.761   6
   0   6   1 3671.03 660.944  16
   0  -6  -2 55485.3 2265.50   6
   0   6   2 56624.2 2008.61   4
   0   6   2 56376.6 2229.03   7
   0  -6  -2 54448.0 2038.82   3
   0   6   3 1845.93 585.044   4
   0  -6  -3 3207.30 746.391   3
   0  -6  -3 2172.58 760.128   6
   0   6   3 2342.50 661.026   7
   0  -6  -4 51360.3 2332.43   6
   0  -6  -4 51796.6 2269.70   3
   0   6   4 53782.2 2217.89   4
   0   6   4 54207.5 2311.91   7
   0  -6  -5-498.162 827.974   6
   0  -6  -5 89.6793 710.677   3
   0   6   5 970.050 618.441   4
   0   6   5 613.271 550.638   2
   0   6   5 357.363 527.763   7
   0   6   6 16644.3 1549.95   2
   0  -6  -6 16249.4 1507.57   3
   0   6   6 17344.9 1492.46   4
   0   6   6 16602.9 1486.29   7
   0  -6  -6 14359.2 1526.06   6
   0  -6  -7 2776.90 1043.26   6
   0   6   7 3323.91 878.280   2
   0  -6  -7 3089.76 1006.51   3
   0   6   7 2584.73 808.559   4
   0   6   7 3460.92 866.398   7
   0  -6  -8 5732.53 1157.89   1
   0  -6  -8 5811.85 1246.87   3
   0  -6  -8 6201.69 1312.03   6
   0   6   8 5452.03 1120.63   4
   0   6   8 4303.56 1006.56   7
   0   6   8 4947.22 1118.04   2
   0   6   9 9452.29 1285.98   7
   0  -6  -9 10110.7 1581.92   6
   0  -6  -9 9503.73 1532.97   3
   0  -6  -9 10977.8 1556.52   1
   0   6   9 11020.5 1472.98   4
   0   6   9 11872.0 1531.94   2
   0  -6 -10 2884.39 1077.96   1
   0   6  10 2544.53 1005.98   4
   0  -6 -10 3844.86 1241.70   6
   0  -6 -10 4436.65 1265.74   3
   0   6  10 2508.13 1004.76   2
   0  -6 -11 1521.50 1253.54   6
   0   6  11-388.262 869.644   2
   0   6  11-257.510 951.947   4
   0  -6 -11 2184.85 1199.86   3
   0  -6 -12 2062.79 1381.39   3
   0   6  12 567.542 1010.95   2
   0   6  12-20.0708 1034.36   4
   0  -7  -2 4990.37 1065.19   6
   0  -7  -3 22853.1 1817.35   6
   0   7   4 2291.30 768.078   4
   0  -7  -4 1342.84 897.195   6
   0  -7  -4 1777.37 795.381   3
   0  -7  -5 3377.56 978.065   3
   0  -7  -5 1453.16 948.931   6
   0   7   5 1901.69 762.503   4
   0  -7  -6 1829.88 1066.41   6
   0  -7  -6 3480.90 1026.30   3
   0  -7  -7 3503.41 1046.42   6
   0  -7  -7 5384.60 1226.61   3
   0  -7  -8 131.191 1069.60   6
   0  -7  -8-489.348 920.764   3
   0   7   8 1757.99 909.732   4
   0   7   9 305.965 911.288   4
   0  -7  -9 290.442 1040.82   3
   0  -7  -9 316.611 1106.78   6
   0   7  10 1668.60 1095.37   4
   0  -7 -10 512.415 1050.86   3
  -1   2  14 4755.35 1335.17   5
   1  -2 -13 5412.16 1222.86   8
   1  -2 -13 5571.17 1301.81   3
  -1   2  13 8026.71 1389.72   5
  -1   2  13 7652.91 1292.93   4
  -1   2  12 50412.3 2780.01   5
  -1   2  12 50082.9 2636.85   4
  -1   2  11 10357.1 1372.93   5
   1  -2 -11 8067.01 1293.02   3
   1  -2 -11 9044.14 1266.99   8
  -1   2  11 9500.92 1242.76   4
   1  -2 -10 2289.33 491.156   3
  -1   2  10 2050.53 440.289   4
  -1   2  10 2250.34 503.392   5
   1  -2 -10 1923.13 671.492   8
  -1   2   9 2595.28 762.347   5
  -1   2   9 2335.91 700.273   4
   1  -1 -15 5073.25 1401.69   8
  -1   1  15 7337.39 1516.33   5
   1  -1 -14 1445.40 1032.33   8
  -1   1  14 892.329 1030.27   5
  -1   1  13 997.530 334.646  12
   1  -1 -13 1058.38 461.636   8
  -1   1  13 994.356 497.833   5
   1  -1 -12 3696.08 974.771   8
  -1   1  12 2142.38 915.530   5
   1  -1 -11 51401.5 2359.19   3
  -1   1  11 55981.7 2422.43   4
  -1   1  11 52745.4 2543.66   5
   1  -1 -11 47652.8 2496.77   8
   1  -1 -10 1269.58 715.768   3
  -1   1  10 1499.44 732.015   5
   1  -1 -10 2097.76 775.891   8
  -1   1  10 1279.41 611.634   4
   1  -1  -9 24307.1 1603.59   8
  -1   1   9 25734.6 1609.65   5
  -1   1   9 26508.7 1550.28   4
   1  -1  -9 26378.8 1552.28   3
  -1   1   8 29256.7 1543.39   4
   1  -1  -8 27186.5 1464.74   3
  -1   1   8 26486.0 1571.11   5
   1  -1  -8 27332.7 1625.42   8
   1  -1  -7 8003.87 228.319   3
   1  -1  -7 8054.69 243.939  8
  -1   1  -9 56749.4 1997.31   9
  -1   1  -9 56355.8 2038.05   8
  -1   1 -10 1817.64 652.897   1
  -1   1 -10 1268.70 622.673   8
   1  -1  10 1596.78 595.905   2
  -1   1 -10 752.851 568.451   9
  -1   1 -11 11773.2 768.539   9
  -1   1 -11 12004.9 777.602   8
  -1   1 -12 1298.56 715.515   9
  -1   0  15 3570.04 1224.03  12
  -1   0  15 5814.19 1359.99   5
   1   0 -15 4445.02 1296.59   8
  -1   0  14 2358.25 1099.61  12
  -1   0  14 2647.83 1047.64   5
   1   0 -14 553.949 797.969   9
   1   0 -14 1874.95 1036.19   8
  -1   0  13 2096.40 903.213  12
   1   0 -13 1336.11 822.225   9
  -1   0  13 2936.69 982.758   5
   1   0 -13 2654.59 1006.21   8
   1   0 -12-302.159 697.760   9
  -1   0  12 649.958 754.725   5
   1   0 -12 13.6866 714.572   8
  -1   0  11-635.318 761.049   5
   1   0 -11-39.4901 649.980   9
   1   0 -11-398.530 722.181   8
  -1   0  10 34280.3 1925.70   5
   1   0 -10 33403.6 1913.70   8
   1   0 -10 33922.2 1868.83   9
   1   0  -9 3910.18 785.484   8
   1   0  -9 2993.91 659.453   9
   1   0  -9 3189.68 631.402   3
  -1   0   9 2472.93 696.612   5
  -1   0   9 3219.37 607.421   4
   1   0  -8 10904.2 787.171  15
  -1   0   8 10082.7 977.930   5
   1   0  -8 10603.9 970.304   9
  -1   0   8 10355.1 876.498   4
   1   0  -8 11719.1 1058.43   8
   1   0  -8 11063.1 909.771   3
  -1   0   7 8760.19 868.106   5
   1   0  -7 10008.3 891.584   9
   1   0  -7 10691.4 939.875   8
   1   0  -7 10668.8 826.531   3
  -1   0   7 10000.6 803.285   4
   1   0  -7 10446.1 764.286  15
   1   0  -6 4875.85 618.117   8
   1   0  -6 4885.14 613.077   9
   1   0  -6 3664.64 468.738   3
   1   0  -6 3857.14 453.413  15
  -1   0   6 4334.87 533.833   4
   1   0   6 1134.46 367.260   2
  -1   0  -6 811.347 351.529   1
  -1   0  -6 840.706 371.511   8
  -1   0  -7 1312.52 442.815   9
  -1   0  -7 1793.30 502.158   1
  -1   0  -7 2446.27 552.953   8
   1   0   7 3016.43 564.635   2
   1   0   7 1567.70 389.394   7
  -1   0  -8 17627.8 1226.09   1
   1   0   8 15964.1 1284.89   5
  -1   0  -8 14851.4 1109.90   9
  -1   0  -8 13418.3 1177.16   8
   1   0   8 16828.1 1216.52   2
  -1   0  -9 146.231 480.654   1
   1   0   9 656.228 516.738   2
   1   0   9-241.825 559.825   5
  -1   0  -9 580.795 473.486   9
  -1   0  -9 722.050 545.953   8
   1   0  10 10684.4 1237.61   5
  -1   0 -10 10459.0 1120.11   1
  -1   0 -10 8835.09 1059.94   9
  -1   0 -10 8694.77 1107.23   8
   1   0  10 9784.15 1086.76   2
   1   0  11 1594.64 725.885   2
  -1   0 -11 2038.51 742.049   1
   1   0  11 1272.20 862.525   5
  -1   0 -11 1785.96 698.566   9
  -1   0 -11 489.403 681.488   8
   1   0  12 7057.14 1105.32   2
  -1   0 -12 5511.89 1131.49   8
  -1   0 -12 4921.54 1031.79   1
  -1   0 -13 4045.53 1114.17   8
  -1   0 -14-1397.58 938.424   8
  -1  -1  15 2640.46 1156.29  12
  -1  -1  15 3753.58 1261.85   5
   1   1 -15 3964.73 1212.75   9
   1   1 -15 5047.51 1287.74   8
  -1  -1  14 737.360 908.070  12
  -1  -1  14 1513.14 902.305   5
   1   1 -14 2164.52 1043.27   8
   1   1 -14 1879.05 986.759   9
  -1  -1  13 15323.9 1625.83   5
   1   1 -13 16437.0 1674.91   9
   1   1 -13 13582.3 1560.62   8
  -1  -1  13 15701.9 1576.23  12
  -1  -1  12 4874.56 1067.55  12
   1   1 -12 2910.09 862.463   9
  -1  -1  12 4236.03 1008.91   5
   1   1 -12 4542.39 999.833   8
   1   1 -11 3666.31 207.518   9
   1   1 -11 3713.30 216.471   8
   1   1 -10 1123.06 612.674   9
  -1  -1  10 1193.80 674.196   5
   1   1 -10 2576.78 738.405   8
  -1  -1   9 20375.7 1413.21   5
   1   1  -9 23668.2 1497.57   8
   1   1  -9 22444.8 1481.15   9
   1   1  -9 22375.4 1238.79  15
   1   1  -8 21100.2 1143.84  15
  -1  -1   8 20951.9 1312.68   5
   1   1  -8 22307.4 1354.22   8
   1   1  -8 21191.0 1336.12   9
   1   1  -7 125626. 1904.01   3
  -1  -1   7 128142. 1974.83   4
  -1  -1   7 128340. 2376.53   5
   1   1  -7 128299. 2411.00   9
   1   1  -7 129042. 2455.26   8
   1   1  -7 128785. 2099.16  15
   1   1  -6 21978.1 838.697  10
  -1  -1   6 24711.6 987.199   4
   1   1  -6 25008.5 968.480   3
  -1  -1   6 23042.9 1174.56   5
   1   1  -6 22739.4 1218.47   9
   1   1  -6 25135.2 1256.68   8
   1   1  -6 24546.5 1113.12  15
   1   1  -5 71980.7 2000.05   9
   1   1  -5 73090.2 1990.96   8
   1   1  -5 72814.3 1839.11  15
   1   1  -4 27201.8 1146.47   9
   1   1  -4 25826.0 1060.28  15
   1   1   4 5020.44 590.398   2
   1   1   4 3849.36 463.556   7
   1   1   5 38753.4 1395.48   7
   1   1   5 38936.7 1560.74   2
  -1  -1  -5 39515.7 1585.04   1
  -1  -1  -5 39841.9 1607.67   3
   1   1   6 20475.4 1190.86   5
   1   1   6 20337.6 1036.22   7
  -1  -1  -6 19657.3 1012.58   9
  -1  -1  -6 18568.5 1120.17   8
   1   1   6 21669.4 1228.53   4
   1   1   6 21339.2 1196.78   2
  -1  -1  -6 19050.9 1119.89   3
   1   1   7 18653.8 1212.18   2
  -1  -1  -7 17726.8 1228.96   3
   1   1   7 20227.7 1251.61   5
  -1  -1  -7 16358.0 1014.18   9
  -1  -1  -7 15757.4 1124.78   8
   1   1   7 19064.0 1235.68   4
   1   1   7 21033.5 1097.69   7
  -1  -1  -7 17180.9 1172.05   1
   1   1   8 69073.6 2470.20   5
  -1  -1  -8 69974.3 2465.28   1
  -1  -1  -8 69220.0 2126.78   9
  -1  -1  -8 62455.3 2329.60   8
   1   1   8 70440.7 2479.26   4
   1   1   8 70958.2 2434.90   2
   1   1   8 68392.9 2053.01   7
  -1  -1  -8 71583.2 2434.29   3
   1   1   9 24874.8 1620.22   5
  -1  -1  -9 22185.4 1542.47   8
   1   1   9 24444.1 1632.57   4
   1   1   9 25523.6 1591.18   2
  -1  -1  -9 25479.3 1627.91   1
  -1  -1  -9 25963.8 1678.53   3
   1   1  10 3629.98 808.692   2
  -1  -1 -10 4630.16 961.761   3
   1   1  10 4084.67 909.504   5
  -1  -1 -10 2496.99 815.045   8
  -1  -1 -10 3002.83 821.314   1
   1   1  11 4834.12 1006.06   2
  -1  -1 -11 7675.68 1175.96   3
   1   1  11 3875.14 1001.46   5
  -1  -1 -11 7071.18 1148.91   8
  -1  -1 -11 7744.68 1138.12   1
   1   1  12 8682.55 1309.46   5
  -1  -1 -12 7074.12 1210.41   1
  -1  -1 -12 5295.36 1181.53   8
  -1  -1 -13 7216.63 1356.10   1
   1   1  13 12194.5 1434.22   2
   1   1  13 12896.7 1579.50   5
  -1  -1 -13 5753.63 1264.31   8
  -1  -1 -14 3265.77 1075.29   1
   1   1  14 591.174 902.784   2
  -1  -1 -14 1020.24 905.690   8
   1   2 -15 1942.53 1192.31   8
  -1  -2  15 1471.55 1134.46   5
   1   2 -15 560.085 987.015   9
  -1  -2  15-253.682 1066.72  12
  -1  -2  14 6337.33 1282.40  12
   1   2 -14 4162.26 1162.03   8
  -1  -2  14 3954.30 1075.38   5
   1   2 -14 4576.57 1230.86   9
  -1  -2  13 6007.10 1208.36  12
   1   2 -13 7468.75 1263.70   8
  -1  -2  13 7737.25 1311.28   5
   1   2 -13 6104.06 1246.33   9
  -1  -2  12 15442.6 1111.38   5
  -1  -2  12 15427.7 1141.50  12
   1   2 -12 14733.0 1346.01   9
   1   2 -12 14895.8 1204.29   8
  -1  -2  11 9273.26 1189.01   5
   1   2 -11 9252.62 1200.71   9
   1   2 -11 9994.56 1204.22   8
  -1  -2  11 9310.19 1224.68  12
   1   2 -10 33962.2 400.856  15
  -1  -2  10 36942.2 637.249   5
   1   2 -10 31702.3 646.338   9
   1   2 -10 33132.4 620.730   8
   1   2 -10 32251.3 487.735  16
  -1  -2  10 32721.2 574.401  14
   1   2  -9 5292.47 888.086   9
  -1  -2   9 5717.81 836.436   5
  -1  -2   9 6194.10 851.570  14
   1   2  -9 5050.91 808.239  16
   1   2  -9 5293.72 772.445  15
   1   2  -9 5321.60 817.917   8
   1   2  -8 861.430 21.7474  15
  -1  -2   8 770.435 22.4439   5
   1   2  -8 836.552 24.2943   9
  -1  -2   8 795.556 22.2345  14
   1   2  -8 759.437 23.2333   8
   1   2  -8 812.338 23.5645  16
   1   2  -7 57937.9 1963.55  16
  -1  -2   7 62573.5 2018.21   5
   1   2  -7 64240.4 2202.52   9
   1   2  -7 65107.0 2068.17   8
  -1  -2   7 63467.3 2063.62  14
   1   2  -7 61300.6 1957.83  15
   1   2  -6 6329.86 673.018  15
   1   2  -6 6760.22 562.353  10
  -1  -2   6 5513.09 617.600   5
   1   2  -6 6603.62 727.138   9
   1   2  -6 6722.34 697.414   8
   1   2  -6 6290.34 686.534  16
  -1  -2   6 6840.50 733.592  14
   1   2  -5 31497.2 1361.60  15
   1   2  -5 30264.4 1136.36  10
  -1  -2   5 29171.2 1178.05   5
   1   2  -5 28196.0 1323.92   9
   1   2  -5 34752.3 1360.88   8
  -1  -2   5 28726.7 1325.36  14
   1   2  -5 29976.5 1326.12  16
  -1  -2   4 91221.0 1665.25  11
   1   2  -4 91275.3 1670.66  10
  -1  -2   4 89160.8 1597.32   5
   1   2  -4 90979.3 1952.06   9
   1   2  -4 93041.0 1885.82  15
   1   2  -4 91958.4 1891.62  16
  -1  -2   4 94271.6 1932.93  14
  -1  -2   3 800.843 254.712  11
  -1  -2   3 830.506 306.837  14
   1   2  -3 964.605 299.102  16
   1   2  -3 716.349 229.804  10
   1   2  -3 825.147 252.767   9
   1   2  -3 687.975 253.341  15
  -1  -2   2 74305.7 1701.67  11
   1   2  -2 77687.5 1794.47  16
   1   2  -2 76677.7 1701.06  10
   1   2  -2 79586.8 1705.30   9
   1   2  -2 77870.4 1486.54   7
   1   2  -2 76661.8 1783.74  15
  -1  -2   2 78485.4 1792.24  14
  -1  -2   1 10292.2 948.952  11
   1   2  -1 10011.0 951.099  16
   1   2  -1 10528.2 938.134  10
   1   2  -1 10292.5 842.939   7
  -1  -2   0 194499. 1027.04  11
  -1  -2  -1 8484.42 637.216  11
  -1  -2  -1 7638.59 584.219   6
  -1  -2  -2 2050.45 248.287  11
   1   2   3 72448.0 1599.75  10
  -1  -2  -3 70206.6 1618.39   8
   1   2   3 66473.9 1873.53   2
   1   2   3 71454.6 1907.67   4
  -1  -2  -3 72628.8 1857.57   1
   1   2   3 68229.3 1821.57   7
  -1  -2  -3 72124.3 1859.11   6
  -1  -2  -3 72123.8 1849.28   3
   1   2   4 36135.7 1141.13  10
   1   2   4 31900.2 1300.48   5
   1   2   4 33503.8 1431.72   4
   1   2   4 32716.1 1381.22   7
  -1  -2  -4 35814.4 1361.97   6
  -1  -2  -4 35788.4 1412.89   3
   1   2   5 7087.38 672.714   5
  -1  -2  -5 6496.71 493.783   9
  -1  -2  -5 5974.73 623.819   8
   1   2   5 7493.95 771.250   4
   1   2   5 7736.73 745.232   2
  -1  -2  -5 5111.09 695.130   1
   1   2   5 6773.76 669.140   7
  -1  -2  -5 6371.02 698.133   6
  -1  -2  -5 5972.99 711.958   3
  -1  -2  -6 73132.7 1763.96   3
   1   2   6 76595.3 1753.15   5
   1   2   6 75289.3 1668.48   7
  -1  -2  -6 73046.4 1688.01   8
   1   2   6 75730.7 1849.59   4
   1   2   6 74153.7 1811.68   2
  -1  -2  -6 75841.3 1771.29   1
  -1  -2  -6 73827.0 1681.03   6
   1   2   7 13051.9 1040.32   5
  -1  -2  -7 11541.1 1021.30   8
   1   2   7 13601.1 1129.14   4
   1   2   7 11733.3 1046.59   2
   1   2   7 11718.0 934.563   7
  -1  -2  -7 11927.9 1061.92   1
  -1  -2  -7 11591.5 972.191   6
  -1  -2  -7 12174.8 1097.63   3
   1   2   9 6845.36 940.955   2
  -1  -2  -9 5907.79 952.647   3
   1   2   9 5205.18 882.098   5
  -1  -2  -9 4510.53 855.776   8
  -1  -2  -9 3645.51 844.817   1
   1   2   9 6011.11 956.075   4
   1   2  10 12098.0 1313.52   5
  -1  -2 -10 13275.9 1386.23   8
   1   2  10 12881.4 1374.01   4
   1   2  10 10956.9 1277.88   2
  -1  -2 -10 14095.7 1449.24   1
  -1  -2 -10 14319.2 1465.01   3
   1   2  11 23398.8 1779.78   5
  -1  -2 -11 17714.2 1652.54   8
   1   2  11 22942.7 1832.26   4
   1   2  11 22808.6 1753.42   2
  -1  -2 -11 19757.4 1797.53   3
   1   2  12 11110.7 1449.00   2
  -1  -2 -12 15293.4 1577.88   1
   1   2  12 10994.4 1468.17   5
  -1  -2 -12 13557.1 1559.01   8
   1   2  12 10069.2 1416.48   4
  -1  -2 -12 14214.1 1573.89   3
  -1  -2 -13 6165.23 1240.30   1
   1   2  13 8258.48 1357.94   2
  -1  -2 -13 6063.53 1331.43   3
   1   2  13 6430.96 1211.08   5
  -1  -2 -13 5730.32 1236.45   8
  -1  -2 -14 6660.85 1419.26   3
   1   2  14 5947.95 1258.73   2
  -1  -2 -14 7118.84 1448.58   1
   1   2  14 8439.71 1496.56   5
  -1  -2 -14 7292.16 1425.77   8
  -1  -2 -15 322.281 1088.09   1
  -1  -3  14 4315.98 1222.55  12
   1   3 -14 6638.37 1397.93   9
   1   3 -13 16315.4 1773.53   9
  -1  -3  13 13794.9 1645.17  12
  -1  -3  12-390.280 853.619  12
  -1  -3  12 640.223 781.431   5
   1   3 -12-350.666 759.856   9
  -1  -3  11-320.297 771.494  12
  -1  -3  11 314.518 723.102   5
   1   3 -11-213.338 705.449   9
   1   3 -11 1742.48 709.445   8
   1   3 -11 1625.96 813.077  16
   1   3 -11 711.894 671.643  15
  -1  -3  11 444.477 773.730  14
  -1  -3  11 135.472 711.819  13
  -1  -3  10 1712.08 801.007  12
   1   3 -10 2239.32 693.580   8
  -1  -3  10 2058.26 741.091  14
   1   3 -10 2312.85 786.855   9
  -1  -3  10 3506.70 823.436   5
   1   3 -10 3666.88 774.243  15
   1   3 -10 2042.92 697.197  16
  -1  -3  10 2864.65 789.454  13
  -1  -3   9 3250.12 830.874  12
  -1  -3   9 4623.23 942.312  14
   1   3  -9 3131.80 691.102  15
   1   3  -9 3313.06 780.037   9
  -1  -3   9 4236.86 833.118   5
   1   3  -9 3459.27 785.702  16
   1   3  -9 3703.40 776.497   8
  -1  -3   8 929.885 580.818  12
   1   3  -8 1189.87 556.671   8
   1   3  -8 705.435 557.666  16
   1   3  -8 1325.98 561.802   9
  -1  -3   8 505.245 471.964   5
   1   3  -8 548.657 534.086  15
  -1  -3   8 748.222 578.455  14
  -1  -3   7 15530.3 1803.73   5
   1   3  -7 15585.2 2056.80   9
   1   3  -7 15709.4 1892.29   8
  -1  -3   7 15100.9 2019.85  14
   1   3  -7 15392.4 1977.82  16
   1   3  -7 15654.0 1977.74  15
   1   3  -6 5833.91 605.416  10
  -1  -3   6 6398.92 643.541   5
   1   3  -6 5524.22 717.884   9
   1   3  -6 6316.56 652.549   8
  -1  -3   6 6623.16 775.150  14
   1   3  -6 6411.22 752.447  15
   1   3  -6 5559.00 702.297  16
  -1  -3   6 6447.00 674.142  11
  -1  -3   5 80629.6 2026.45  11
   1   3  -5 76936.0 1944.63  10
   1   3  -5 79205.8 2205.21  15
  -1  -3   5 75809.4 1820.87   5
   1   3  -5 77763.5 2185.03   9
   1   3  -5 83770.0 1958.15   8
  -1  -3   5 77203.1 2236.04  14
   1   3  -5 77969.5 2201.89  16
  -1  -3   4 58248.3 1705.65  11
   1   3  -4 54569.8 1232.67   7
   1   3  -4 56773.4 1676.13  10
  -1  -3   4 48522.8 1333.82   5
   1   3  -4 57094.4 1754.86   9
   1   3  -4 58801.9 1565.67   8
   1   3  -4 52905.6 1760.44  16
   1   3  -4 54589.3 1760.50  15
  -1  -3   4 54203.2 1790.40  14
   1   3  -3 2614.07 486.175  15
  -1  -3   3 4424.32 520.091   6
  -1  -3   3 4455.75 681.883  11
   1   3  -3 3160.53 507.854  10
   1   3  -3 4334.31 574.441   9
   1   3  -3 4159.73 463.638   7
   1   3  -3 3301.58 556.151  16
  -1  -3   3 3458.91 643.790  14
  -1  -3   2 1094.11 359.899   6
  -1  -3   2 1520.59 449.517  11
  -1  -3   2 2686.53 472.731  14
   1   3  -2 2174.39 387.043  10
   1   3  -2 1875.95 334.520   9
   1   3  -2 2358.75 366.361   7
   1   3  -2 1959.50 389.516  15
   1   3  -2 2261.87 414.800  16
   1   3  -1 180240. 9411.68  10
   1   3  -1 180541. 9965.04   9
   1   3  -1 176335. 8339.06  16
  -1  -3   1 175174. 9339.43  14
   1   3  -1 176406. 9305.43  15
   1   3   0 749.952 185.440  16
   1   3   0 818.926 118.921   7
  -1  -3   0 777.229 234.035   6
   1   3   1 127932. 15172.3  15
   1   3   1 125890. 16072.7   4
   1   3   1 126678. 16063.7   2
   1   3   1 127612. 15282.1  16
   1   3   1 126125. 18543.9   7
  -1  -3  -2 15038.2 1031.35  11
   1   3   3 11966.9 1031.38   7
   1   3   3 12348.3 924.683  10
  -1  -3  -3 11410.6 757.250   8
   1   3   3 10777.1 877.233   4
   1   3   3 13537.7 960.217   2
   1   3   3 13710.1 685.732  15
  -1  -3  -4 32989.0 1441.61   3
   1   3   4 36183.8 1305.24  10
   1   3   4 37388.4 1310.11   5
  -1  -3  -4 33642.9 1207.39   8
   1   3   4 37716.7 1526.60   4
   1   3   4 36589.2 1487.81   2
   1   3   4 34842.1 1478.16   7
  -1  -3  -4 35288.1 1516.11   6
  -1  -3  -5 32216.1 1534.98   3
  -1  -3  -5 31833.5 1256.38  11
   1   3   5 31003.8 1212.71  10
   1   3   5 14857.7 1340.50   5
  -1  -3  -5 14876.4 1276.70   8
   1   3   5 15026.1 1486.87   4
   1   3   5 14686.2 1428.07   2
   1   3   5 14981.3 1407.08   7
  -1  -3  -5 14600.2 1507.42   1
  -1  -3  -5 15140.4 1499.30   6
  -1  -3  -6 85465.5 2566.59   3
   1   3   6 81606.8 2349.46   5
  -1  -3  -6 85646.7 2309.34   8
   1   3   6 82184.9 2579.83   4
   1   3   6 78450.1 2564.93   2
   1   3   6 83758.0 2491.37   7
  -1  -3  -6 84069.3 2567.69   1
  -1  -3  -6 83290.2 2449.32   6
  -1  -3  -7 5636.42 840.579   6
   1   3   7 4074.59 780.152   2
   1   3   7 5019.26 845.401   4
   1   3   7 4825.53 748.056   5
  -1  -3  -7 5933.76 902.604   3
  -1  -3  -7 5270.29 747.305   8
  -1  -3  -7 5336.00 857.093   1
   1   3   7 4956.94 795.758   7
   1   3   8 61856.7 2290.41   5
   1   3   8 63504.9 2524.36   4
   1   3   8 62634.1 2475.47   2
  -1  -3  -9 1522.66 770.651   6
   1   3   9 742.071 626.459   2
  -1  -3  -9 2343.50 936.032   3
  -1  -3  -9 2777.89 800.775   1
   1   3   9 1004.15 685.561   5
  -1  -3  -9 1148.45 578.450   8
   1   3   9 344.848 664.896   4
   1   3   9 1096.06 585.531   7
   1   3  10 14574.2 1496.05   2
   1   3  10 15520.7 1514.26   5
  -1  -3 -10 18572.7 1524.95   8
   1   3  10 14019.1 1492.01   4
  -1  -3 -10 17553.4 1575.67   3
   1   3  11 3164.35 958.635   2
  -1  -3 -11 3875.27 1159.39   3
   1   3  11 2534.75 926.104   5
  -1  -3 -11 3313.60 981.079   8
  -1  -3 -11 3341.57 1001.51   1
   1   3  11 3118.73 998.751   4
   1   3  12-390.720 801.030   2
  -1  -3 -12 1823.87 959.388   1
  -1  -3 -12 1306.39 1055.50   3
   1   3  12-366.251 808.805   5
  -1  -3 -12 46.8028 790.658   8
   1   3  12 982.852 787.408   4
  -1  -3 -13 596.771 1020.24   3
   1   3  13 1531.57 863.796   2
  -1  -3 -13-356.704 894.722   1
   1   3  13 726.153 942.644   5
   1   3  13-909.989 946.574   4
  -1  -3 -13 296.928 892.442   8
  -1  -3 -14 346.112 1119.16   3
   1   3  14 1786.43 976.577   2
   1   3  14 2012.21 1096.09   5
  -1  -3 -14 1961.59 1028.65   1
  -1  -3 -14 2271.87 1157.90   8
   1   3  14-12.4510 987.942   4
  -1  -4  13 1314.30 992.625  12
   1   4 -13 1052.03 972.861   9
  -1  -4  12 6070.64 1246.78  12
   1   4 -12 6490.79 1259.62   9
   1   4 -12 4724.18 1061.82  16
  -1  -4  12 4980.62 1148.98  14
  -1  -4  12 4134.52 1069.59  13
  -1  -4  11 3937.64 1102.15  12
   1   4 -11 4131.82 1020.81   9
   1   4 -11 4871.43 1079.92  16
   1   4 -11 4107.81 953.366  15
  -1  -4  11 4314.88 1076.97  13
  -1  -4  11 4178.82 1016.71  14
   1   4 -10 32141.7 1962.67  15
   1   4 -10 33459.1 2095.22   9
   1   4 -10 32534.9 1959.70  16
  -1  -4  10 34332.9 2089.75  14
  -1  -4  10 30990.3 1969.21  13
  -1  -4  10 33811.5 2093.58  12
   1   4  -9 32046.1 1918.16   9
   1   4  -9 31007.1 1856.97  16
  -1  -4   9 29680.5 1897.44  12
   1   4  -9 32681.4 1885.43  15
  -1  -4   9 29898.7 1898.10  14
  -1  -4   9 31860.7 1974.66  13
   1   4  -8 82213.9 2735.13  15
  -1  -4   8 83631.1 2896.65  13
   1   4  -8 82622.1 2848.34   9
   1   4  -8 82067.1 2776.41  16
  -1  -4   8 84440.2 2899.37  14
  -1  -4   8 78618.4 2830.70  12
   1   4  -7 11191.4 1102.90   9
   1   4  -7 10408.7 1056.06  16
   1   4  -7 9334.34 1013.11  15
  -1  -4   7 8261.30 1027.04  14
  -1  -4   7 7806.58 1034.08  12
  -1  -4   7 7967.56 1087.15  13
  -1  -4   6 2937.50 184.433  12
   1   4  -6 3035.66 188.270  10
  -1  -4   6 3078.55 138.339  14
   1   4  -6 3360.56 139.826   9
   1   4  -6 3300.06 192.026  16
   1   4  -6 3205.97 197.946  15
  -1  -4   5 18201.9 1163.61  12
  -1  -4   5 18504.0 1159.17  11
  -1  -4   5 19571.1 1294.67  14
   1   4  -5 18163.7 1104.27  10
   1   4  -5 19641.0 1198.81   9
   1   4  -5 20347.0 1266.30  15
   1   4  -5 17158.7 1183.54  16
  -1  -4   4 29859.4 1802.07  11
   1   4  -4 29374.3 1822.83  10
   1   4  -4 29395.4 1753.47   9
   1   4  -4 29881.3 1910.68  16
   1   4  -4 29423.2 1875.32  15
  -1  -4   3 3972.99 548.768  12
  -1  -4   3 4073.60 662.351  11
   1   4  -3 3566.02 580.815  10
   1   4  -3 4500.96 563.078   9
   1   4  -3 4046.85 592.516  16
   1   4  -3 4092.92 497.413   7
   1   4  -3 3836.97 597.596  15
  -1  -4   3 3911.90 669.395  14
  -1  -4   3 3745.36 556.890   6
   1   4  -2 10812.2 879.364  15
   1   4  -2 10934.6 909.199  10
   1   4  -2 11460.7 755.062   9
   1   4  -2 11480.2 881.386  16
   1   4  -2 13068.2 835.882   7
   1   4  -1 19089.8 1156.20  10
   1   4  -1 18626.8 1104.73  15
   1   4  -1 16946.2 834.186   9
   1   4  -1 18021.8 1120.02  16
   1   4  -1 19337.4 1085.92   7
  -1  -4   0 38137.3 1490.51  11
   1   4   0 37872.0 1502.61  10
   1   4   0 39136.3 1436.63   7
   1   4   0 37872.9 1185.73   4
   1   4   0 40006.8 1382.21  16
   1   4   0 40384.2 1184.89   2
   1   4   0 35798.0 1289.24  15
  -1  -4   0 38080.6 1376.37  14
  -1  -4   0 35443.7 1159.97   3
  -1  -4   0 37888.5 1443.65   6
  -1  -4  -1 65807.5 1705.12   3
  -1  -4  -1 68175.5 2008.46  11
   1   4   1 62979.8 1949.92  10
   1   4   1 68644.4 1756.32   4
   1   4   1 66824.2 1731.87  16
   1   4   1 68277.8 1720.33   2
   1   4   1 65065.5 1993.18   7
   1   4   1 67991.6 1691.81  15
  -1  -4  -1 63511.1 1736.97  14
  -1  -4  -1 64078.9 1684.49   1
  -1  -4  -1 68530.6 2006.34   6
   1   4   2 777.668 13.4134  16
   1   4   2 814.761 16.6446   7
  -1  -4  -3 4029.35 716.217   6
  -1  -4  -3 4587.41 652.327  11
   1   4   3 4215.79 586.024  10
  -1  -4  -3 3122.82 610.629   3
   1   4   3 4455.41 605.315   4
   1   4   3 4732.71 608.815   2
  -1  -4  -3 2779.81 581.165   1
   1   4   3 4606.49 640.168   7
  -1  -4  -4 51781.2 1678.28   3
  -1  -4  -4 47239.3 1485.28  11
   1   4   4 54389.5 1453.77  10
   1   4   4 50046.4 1616.00   4
   1   4   4 51273.4 1627.32   2
   1   4   4 50021.4 1692.95   7
  -1  -4  -4 50593.4 1641.05   1
  -1  -4  -4 46292.5 1771.00   6
  -1  -4  -5 2918.67 720.831   6
  -1  -4  -5 1959.00 581.269  11
   1   4   5 4065.78 655.747   2
   1   4   5 3470.34 546.136  10
  -1  -4  -5 3517.77 736.715   3
   1   4   5 3691.93 651.146   7
  -1  -4  -5 2404.86 608.670   1
   1   4   5 3780.49 661.010   4
  -1  -4  -6 38565.0 1899.99   3
   1   4   6 39054.2 1876.54   4
   1   4   6 36546.5 1804.13   2
   1   4   6 37099.5 1784.71   7
  -1  -4  -6 37397.1 1885.61   6
  -1  -4  -7 3732.98 851.699   6
   1   4   7 5614.23 871.232   2
  -1  -4  -7 4493.91 910.993   3
   1   4   7 4588.90 812.427   4
   1   4   7 4945.98 787.675   7
  -1  -4  -7 3444.80 796.062   1
  -1  -4  -8 24614.8 1757.60   3
   1   4   8 22946.0 1683.62   4
   1   4   8 20886.2 1645.03   2
   1   4   8 21616.5 1565.86   7
  -1  -4  -8 20916.9 1675.88   1
  -1  -4  -8 24891.0 1671.62   6
  -1  -4  -9 22816.3 1839.02   3
  -1  -4  -9 21500.3 1571.85   8
   1   4   9 23703.8 1789.44   4
   1   4   9 24374.6 1664.88   7
   1   4   9 23301.4 1725.18   2
  -1  -4  -9 24182.7 1701.22   6
  -1  -4  -9 22228.1 1796.52   1
  -1  -4 -10 6786.19 1147.01   6
   1   4  10 9957.74 1244.31   2
  -1  -4 -10 6855.45 1240.88   1
  -1  -4 -10 7718.58 1259.19   3
   1   4  10 9082.77 1175.44   5
  -1  -4 -10 6255.92 1080.96   8
   1   4  10 10882.8 1312.38   4
   1   4  10 8930.93 1129.46   7
  -1  -4 -11 15225.1 1718.08   1
   1   4  11 15895.8 1565.31   5
  -1  -4 -11 11606.6 1379.04   8
   1   4  11 14688.2 1598.68   4
   1   4  11 13378.0 1517.46   2
  -1  -4 -11 13390.5 1666.54   3
  -1  -4 -12 12854.6 1693.07   3
   1   4  12 8155.52 1348.79   2
   1   4  12 9696.56 1417.70   5
  -1  -4 -12 11019.9 1566.09   1
  -1  -4 -12 11099.3 1504.98   8
   1   4  12 8966.02 1418.44   4
   1   4  13 5738.96 1350.44   4
  -1  -4 -13 6931.00 1499.08   3
   1   4  13 4167.23 1198.00   2
   1   4  13 4365.87 1177.44   5
  -1  -4 -13 2661.36 1143.83   1
  -1  -4 -13 3962.49 1161.13   8
  -1  -4 -14 2073.31 1171.87   8
   1   4  14 2840.13 1237.18   5
  -1  -5  13-457.161 1067.14  12
   1   5 -13 1030.73 1040.46   9
  -1  -5  12-5614.92 2208.34  12
   1   5 -12-44.7183 1143.37   9
  -1  -5  12-1809.16 1268.05  13
   1   5 -12-2960.98 2006.71  15
   1   5 -11 23368.4 1992.12   9
   1   5 -11 25457.3 1965.43  16
  -1  -5  11 31762.5 2308.54  14
  -1  -5  11 27702.1 2144.87  13
  -1  -5  11 27752.7 2185.02  12
  -1  -5  10 3881.78 1076.24  12
   1   5 -10 3573.05 1039.78   9
   1   5 -10 2711.17 925.757  16
   1   5 -10 2953.32 942.563  15
  -1  -5  10 2651.78 1037.26  14
  -1  -5  10 2926.99 1019.31  13
  -1  -5   9 8514.43 1262.50  12
  -1  -5   9 6678.41 1126.79  14
   1   5  -9 9076.82 1203.57   9
   1   5  -9 9003.64 1203.96  16
   1   5  -9 10275.2 1246.09  15
  -1  -5   9 6737.02 1159.46  13
  -1  -5   8 6418.41 1054.00  12
   1   5  -8 8266.67 1079.84   9
   1   5  -8 7341.21 1017.37  16
   1   5  -8 6688.01 1069.63  15
  -1  -5   8 7008.71 1160.88  14
  -1  -5   8 5997.96 1119.34  13
  -1  -5   7 2604.32 810.836  12
   1   5  -7 4445.80 822.540   9
   1   5  -7 4576.61 884.143  15
   1   5  -7 4849.22 906.021  16
  -1  -5   7 3699.25 902.100  14
  -1  -5   7 2262.57 858.914  13
  -1  -5   6 31906.8 1661.34  11
   1   5  -6 30643.7 1614.59  10
   1   5  -6 32668.2 1733.23   9
   1   5  -6 31544.5 1775.47  16
   1   5  -6 32948.9 1786.16  15
  -1  -5   6 32543.7 1833.28  14
  -1  -5   6 29802.5 1849.91  13
  -1  -5   6 29978.2 1667.11  12
  -1  -5   5 78265.6 2516.47  11
   1   5  -5 78347.1 2469.87  10
   1   5  -5 81446.5 2473.03   9
   1   5  -5 78422.1 2580.47  16
   1   5  -5 76991.4 2568.81  15
  -1  -5   5 79375.3 2673.37  14
  -1  -5   5 81299.4 2767.27  13
  -1  -5   4 44181.1 1909.87  11
   1   5  -4 43635.9 1898.11  16
   1   5  -4 43326.6 1850.31  10
   1   5  -4 43081.4 1714.76   9
   1   5  -4 44291.0 1900.87  15
  -1  -5   4 41541.7 1883.01  14
  -1  -5   4 39003.0 1917.52  13
  -1  -5   4 42344.4 1721.29  12
  -1  -5   3 47019.4 1247.20  11
   1   5  -3 46109.9 1160.97  10
   1   5  -3 47266.6 1028.53   9
   1   5  -3 47179.9 1186.90  16
   1   5  -3 46774.6 1151.55  15
  -1  -5   3 46729.5 1203.10  14
  -1  -5   3 46111.8 1218.85  13
   1   5  -2 3325.13 262.735  10
   1   5  -2 3138.52 183.723  16
   1   5  -2 3191.72 186.316  15
  -1  -5   1 21243.3 1381.00  11
   1   5  -1 27362.8 1453.74  10
   1   5  -1 26083.7 1337.62  16
   1   5  -1 27829.1 1371.68  15
   1   5  -1 27330.6 1360.15   7
  -1  -5   1 24171.7 1355.71  14
  -1  -5   1 22604.9 1347.85  13
  -1  -5   0 7960.22 894.180  11
   1   5   0 8804.50 846.851  10
   1   5   0 7723.77 727.979  16
   1   5   0 9253.53 773.364  15
   1   5   0 8038.52 764.118   7
  -1  -5   0 8658.35 821.787  14
  -1  -5   0 7454.16 784.623  13
  -1  -5   0 7330.41 832.228   6
  -1  -5  -1 37732.6 1764.59  11
   1   5   1 38424.6 1684.67  10
   1   5   1 42146.4 1524.78  16
   1   5   1 40271.4 1687.76   7
   1   5   1 41129.1 1498.70  15
  -1  -5  -1 40290.6 1545.80  14
  -1  -5  -1 35115.5 1516.53  13
  -1  -5  -1 36844.6 1709.77   6
  -1  -5  -2 15863.1 1044.17   3
  -1  -5  -2 13705.2 981.028   1
  -1  -5  -2 15524.0 1151.73  11
   1   5   2 14072.3 1085.51  10
   1   5   2 15311.1 1015.10   4
   1   5   2 15478.8 1159.83   7
   1   5   2 15115.4 1001.63   2
  -1  -5  -2 15425.8 1161.27   6
  -1  -5  -3 38743.6 1689.75   3
  -1  -5  -3 38725.6 1757.42  11
   1   5   3 35506.6 1647.57  10
   1   5   3 38213.9 1655.92   4
   1   5   3 39605.6 1654.59   2
   1   5   3 38738.6 1791.59   7
  -1  -5  -3 37929.6 1846.23   6
  -1  -5  -4 14182.2 1005.68   1
  -1  -5  -5 60991.5 2375.24   1
  -1  -5  -5 64631.5 2404.27   3
  -1  -5  -5 62871.4 2165.21  11
   1   5   5 68437.7 2254.15  10
   1   5   5 63143.2 2388.18   4
   1   5   5 64710.8 2442.58   7
   1   5   5 64821.4 2372.25   2
  -1  -5  -5 65615.7 2523.77   6
   1   5   6 18098.8 1407.86   4
   1   5   6 18814.2 1391.18   7
   1   5   6 19091.0 1381.48   2
  -1  -5  -6 18127.1 1452.13   6
  -1  -5  -7 2198.92 997.811   6
   1   5   7 1443.25 755.870   2
  -1  -5  -7 2912.20 918.818   1
  -1  -5  -7 3932.90 1105.84   3
   1   5   7 2056.83 838.796   4
   1   5   7 3088.86 893.726   7
  -1  -5  -8 2425.51 966.267   6
   1   5   8 1318.55 746.768   2
  -1  -5  -8 1396.60 962.115   3
  -1  -5  -8 1857.35 855.449   1
   1   5   8 1393.78 775.456   4
   1   5   8 754.327 626.108   7
  -1  -5  -9 20668.1 1806.43   3
  -1  -5  -9 19505.0 1775.99   1
   1   5   9 24239.2 1840.54   4
   1   5   9 22593.9 1703.39   7
   1   5   9 20837.5 1681.12   2
  -1  -5  -9 20921.6 1731.99   6
  -1  -5 -10 3527.68 1093.24   6
  -1  -5 -10 6212.59 1373.20   3
   1   5  10 6092.57 1140.81   2
  -1  -5 -10 5102.79 1178.01   1
   1   5  10 7103.70 1263.98   4
   1   5  10 6296.83 1111.18   7
  -1  -5 -11 2108.55 1203.28   3
   1   5  11 1789.53 890.454   2
  -1  -5 -11 2073.30 944.945   1
   1   5  11 3328.08 1136.32   4
  -1  -5 -12 4108.90 1395.13   3
   1   5  12 395.086 825.607   2
  -1  -5 -12 4779.39 1279.55   1
   1   5  12 2014.83 1093.56   4
  -1  -6  12 1133.26 1123.01  12
   1   6 -12 1276.47 1035.12   9
   1   6 -12 1978.25 1089.33  16
   1   6 -12 2057.97 1154.21  15
  -1  -6  12 1689.42 1257.99  14
  -1  -6  12 1467.18 1087.35  13
  -1  -6  11 185.664 941.891  12
   1   6 -11 873.592 934.198   9
   1   6 -11 466.233 874.250  16
   1   6 -11 1281.62 994.324  15
  -1  -6  11 1077.63 1070.61  14
  -1  -6  11 166.572 967.448  13
  -1  -6  10 5243.35 1214.41  12
   1   6 -10 3225.89 985.596   9
   1   6 -10 3880.23 1062.29  16
   1   6 -10 4784.86 1179.65  15
  -1  -6  10 5045.31 1246.33  14
  -1  -6  10 5806.65 1255.11  13
  -1  -6   9 1227.11 865.788  12
   1   6  -9 2622.02 912.790   9
   1   6  -9 2535.05 958.041  16
   1   6  -9 3312.91 1041.87  15
  -1  -6   9 2490.59 1049.85  14
  -1  -6   9 1110.90 1017.31  13
   1   6  -8 17341.8 1541.52   9
   1   6  -8 15593.2 1501.14  16
   1   6  -8 17444.7 1599.04  15
  -1  -6   8 16303.2 1646.63  14
  -1  -6   8 17898.1 1718.91  13
  -1  -6   8 16337.9 1492.86  12
  -1  -6   7 666.325 696.064  12
  -1  -6   7 1570.54 820.046  11
   1   6  -7 885.092 699.084   9
   1   6  -7 796.136 726.832  15
   1   6  -7 534.851 740.615  16
  -1  -6   7 373.488 804.582  14
  -1  -6   7 682.346 837.511  13
  -1  -6   6 8689.14 1244.85  11
   1   6  -6 13899.8 1305.49  10
   1   6  -6 14377.4 1286.57   9
   1   6  -6 13407.9 1357.57  16
   1   6  -6 15678.1 1459.91  15
  -1  -6   6 10602.9 1347.78  14
  -1  -6   6 8899.06 1309.12  13
  -1  -6   5 25052.9 1687.75  11
   1   6  -5 23817.3 1550.96  10
   1   6  -5 22256.1 1576.37  16
   1   6  -5 23939.8 1659.99  15
  -1  -6   5 24550.6 1738.77  13
  -1  -6   4 7117.85 1005.54  11
   1   6  -4 6392.81 903.703  10
   1   6  -4 6604.26 922.160  16
   1   6  -4 7186.98 975.094  15
  -1  -6   4 6659.42 1014.61  13
  -1  -6   3 3506.29 889.354  11
   1   6  -3 3099.74 742.664  10
   1   6  -3 2221.48 678.057  16
   1   6  -3 2862.19 752.433  15
  -1  -6   3 1680.05 687.261  13
  -1  -6   2 2604.75 753.115   6
  -1  -6   2 2465.31 865.797  11
   1   6  -2 2344.93 884.292  10
   1   6  -2 3544.71 713.587  16
   1   6  -2 846.991 1431.30  15
   1   6  -2 3499.90 717.297   7
  -1  -6   2 2939.80 1004.32  13
  -1  -6   1 68080.7 2547.15  11
   1   6  -1 69240.0 2551.01  10
   1   6  -1 75829.4 2454.46  16
   1   6  -1 73536.4 2420.59  15
   1   6  -1 69935.8 2396.28   7
  -1  -6   1 72097.4 2448.73  14
  -1  -6   1 68166.9 2453.25  13
  -1  -6   1 68100.4 2366.27   6
   1   6   0 812.673 123.749  16
  -1  -6  -1 41661.3 2414.64   6
   1   6   1 43521.1 2452.70  10
   1   6   1 47349.9 2469.81   7
  -1  -6  -2 515.213 662.774  11
  -1  -6  -2 1124.50 701.267   6
   1   6   2 14.7452 535.384  10
   1   6   2-166.155 557.276   7
  -1  -6  -3 12814.6 1303.41   6
  -1  -6  -3 13265.4 1253.42  11
   1   6   3 12500.2 1145.93  10
   1   6   3 14457.0 1247.02   7
  -1  -6  -4 11070.8 1159.67   3
  -1  -6  -4 9123.61 1101.94  11
  -1  -6  -4 10252.6 1236.18   6
   1   6   4 16598.0 1305.15  10
  -1  -6  -4 12038.7 1189.61   1
   1   6   4 14209.0 1181.16   4
   1   6   4 13618.2 1271.72   7
   1   6   4 15148.3 1241.64   2
  -1  -6  -5 21044.2 1610.90   3
  -1  -6  -5 15675.1 1432.06  11
  -1  -6  -5 15489.3 1469.72   1
   1   6   5 20775.3 1502.04  10
   1   6   5 19066.3 1482.09   4
   1   6   5 20078.4 1576.33   7
   1   6   5 19750.1 1488.47   2
  -1  -6  -5 20127.7 1688.73   6
  -1  -6  -6 787.867 278.614   3
  -1  -6  -6 777.767 251.823   6
  -1  -6  -6 816.187 190.338   1
   1   6   6 754.175 173.736   4
   1   6   6 794.365 155.642   2
   1   6   6 799.613 117.943   7
  -1  -6  -7 20507.7 1753.33   3
  -1  -6  -7 20685.0 1706.92   1
   1   6   7 22634.7 1758.29   4
   1   6   7 25341.0 1824.43   7
   1   6   7 22398.3 1658.86   2
  -1  -6  -7 20709.6 1824.15   6
  -1  -6  -8 635.675 942.420   6
   1   6   8 840.990 736.177   2
  -1  -6  -8 1164.30 1009.46   3
  -1  -6  -8 935.439 816.667   1
   1   6   8 756.757 781.685   4
   1   6   8 1728.41 877.002   7
  -1  -6  -9 1474.34 989.130   6
  -1  -6  -9 1524.49 1099.40   3
   1   6   9 1966.70 821.266   2
   1   6   9 3518.99 1039.08   4
   1   6   9 3346.43 941.495   7
  -1  -6  -9 2696.96 1004.81   1
  -1  -6 -10 1910.56 1149.95   6
  -1  -6 -10 1953.16 1148.45   3
   1   6  10 1439.29 826.576   2
   1   6  10 3495.13 1069.28   4
   1   6  10 4822.36 1127.28   7
  -1  -6 -10 2650.77 1046.64   1
  -1  -6 -11 5158.75 1417.75   6
  -1  -6 -11 4696.42 1252.02   1
  -1  -6 -11 2563.35 1291.14   3
   1   6  11 4818.49 1180.34   2
   1   6  11 4214.36 1070.93   7
   1   6  11 2583.33 1047.44   4
  -1  -7  11 163.226 1039.25  12
   1   7 -11-674.767 1061.20   9
  -1  -7  10 620.915 981.946  12
   1   7 -10 881.274 929.755   9
   1   7 -10 1086.51 959.266  16
   1   7 -10-568.340 967.290  15
  -1  -7  10 1173.79 1083.82  14
  -1  -7  10-1643.56 1227.93  13
  -1  -7   9 4183.26 1155.94  12
   1   7  -9 5107.85 1191.17  16
   1   7  -9 6993.21 1359.27  15
  -1  -7   9 5333.34 1265.73  14
  -1  -7   9 6144.76 1455.80  13
   1   7  -8 410.407 763.760  16
   1   7  -8 178.542 838.719  15
  -1  -7   8-133.773 996.740  14
  -1  -7   8 46.9967 968.182  13
  -1  -7   7 47271.1 2415.67  11
   1   7  -7 45419.7 2526.28  16
   1   7  -7 44693.8 2511.31  15
  -1  -7   7 48695.3 2681.96  14
  -1  -7   7 46375.7 2670.97  13
  -1  -7   6 3195.63 1086.15  11
   1   7  -6 3935.73 1063.02  10
   1   7  -6 3759.32 1031.88  16
   1   7  -6 3115.67 996.306  15
  -1  -7   6 2309.96 1058.65  14
  -1  -7   6 3163.16 1148.67  13
  -1  -7   5 4833.01 1086.52  11
   1   7  -5 4633.97 949.136  10
   1   7  -5 4361.58 991.803  16
   1   7  -5 4002.99 975.290  15
  -1  -7   5 4364.75 1070.83  14
  -1  -7   5 4467.72 1048.21  13
   1   7  -4 12542.2 1171.49  10
   1   7  -4 13316.7 1110.41  16
   1   7  -4 12801.7 1107.99  15
  -1  -7   3 44107.9 2298.10  11
   1   7  -3 45125.4 2285.63  10
   1   7  -3 44180.4 2182.37  16
   1   7  -3 43530.0 2167.09  15
  -1  -7   3 41836.0 2244.18  13
  -1  -7   2 2598.92 946.144  11
   1   7  -2 3652.47 901.563  10
   1   7  -2 4330.57 842.445  16
   1   7  -2 3856.16 889.557  15
  -1  -7   2 2147.75 836.740  13
  -1  -7   1 10976.8 1356.45  11
   1   7  -1 15881.6 1456.94  10
   1   7  -1 16546.4 1376.01  16
   1   7  -1 15818.3 1392.98  15
  -1  -7   1 12449.9 1286.31  14
   1   7  -1 15961.8 1352.17   7
  -1  -7   1 12632.6 1328.95  13
  -1  -7   1 14510.0 1380.92   6
  -1  -7   0 3485.65 954.175   6
  -1  -7   0 2336.65 920.945  11
   1   7   0 1562.83 734.985  10
   1   7   0 3098.27 822.571   7
  -1  -7  -1 19224.5 1581.79  11
   1   7   1 20274.9 1532.60  10
   1   7   1 20706.9 1519.51   7
  -1  -7  -2 1706.11 867.183  11
  -1  -7  -2 2089.95 962.246   6
   1   7   2 2615.10 799.844  10
   1   7   2 2458.79 774.499   7
  -1  -7  -3 14049.6 1431.03  11
   1   7   3 16719.1 1453.25  10
   1   7   3 16051.8 1465.75   7
  -1  -7  -3 14640.9 1493.23   6
  -1  -7  -4 1442.23 913.696  11
  -1  -7  -4 397.885 932.612   6
   1   7   4 1095.52 732.224  10
   1   7   4 576.181 697.364   7
  -1  -7  -5 34457.2 2138.11  11
   1   7   5 38823.3 2125.64  10
   1   7   5 36326.4 2171.17   7
  -1  -7  -5 34585.9 2216.33   6
  -1  -7  -6 4786.05 1226.27   6
  -1  -7  -6 4604.53 1167.49   3
   1   7   6 3623.89 951.334   2
  -1  -7  -6 3401.36 1001.99   1
   1   7   6 6031.10 1085.98   4
   1   7   6 4260.46 1021.15   7
  -1  -7  -7 25157.1 1984.60   3
   1   7   7 29131.4 2042.99   4
   1   7   7 29105.4 2057.33   7
   1   7   7 27790.2 1944.45   2
  -1  -7  -7 26803.1 2127.60   6
  -1  -7  -8 3171.27 1281.41   6
  -1  -7  -8 4015.42 1298.36   3
  -1  -7  -8 2281.43 1051.16   1
   1   7   8 5305.67 1192.19   4
   1   7   8 5157.28 1421.16   7
  -1  -7  -9 879.077 1142.06   6
  -1  -7  -9 1791.67 1129.01   3
   1   7   9 4363.72 1160.49   2
  -1  -7  -9 2524.93 1118.43   1
   1   7   9 3709.03 1141.15   4
   1   7   9 4800.89 1234.58   7
  -1  -7 -10 1627.43 1259.04   6
  -1  -7 -10 1790.46 1237.59   3
   1   7  10 1367.39 969.810   2
   1   7  10 2683.86 1176.41   4
  -1  -7 -10 2054.18 1134.77   1
   1   7  10 1241.46 1079.06   7
   1   8  -8 1212.62 987.699  16
   1   8  -8 1874.66 1080.37  15
  -1  -8   8-656.734 1067.18  14
  -1  -8   8-246.737 1090.35  13
  -1  -8   7 1719.47 1114.99  11
   1   8  -7 4111.26 1204.25  16
   1   8  -7 4779.73 1270.07  15
  -1  -8   7 2704.06 1299.24  13
  -1  -8   6 5125.63 1236.00  11
   1   8  -6 5385.62 1231.73  10
   1   8  -6 5534.63 1248.88  16
   1   8  -6 6405.09 1238.55  15
  -1  -8   6 6573.32 1321.15  14
  -1  -8   6 7603.30 1474.64  13
  -1  -8   5 6579.48 1328.09  11
   1   8  -5 6043.97 1204.22  10
   1   8  -5 5713.10 1153.20  16
   1   8  -5 5884.30 1222.29  15
  -1  -8   5 4894.74 1249.16  14
  -1  -8   5 5573.08 1227.98  13
  -1  -8   4 23822.0 2028.01  11
   1   8  -4 20377.1 1824.79  10
   1   8  -4 22094.2 1807.72  16
   1   8  -4 21737.7 1820.00  15
  -1  -8   4 24436.8 1935.40  14
  -1  -8   4 23111.9 1939.07  13
  -1  -8   3 3491.72 1144.69  11
   1   8  -3 2557.82 913.488  10
   1   8  -3 2231.19 871.897  16
   1   8  -3 3189.79 949.619  15
  -1  -8   3 2220.47 945.414  14
  -1  -8   3 2081.57 996.202  13
  -1  -8   2 10166.2 1507.89  11
   1   8  -2 12199.0 1470.55  10
   1   8  -2 11021.0 1286.89  16
   1   8  -2 13371.8 1459.37  15
  -1  -8   2 9070.33 1310.13  14
  -1  -8   2 8162.96 1316.08  13
  -1  -8   1 5237.64 1274.58  11
   1   8  -1 6456.56 1208.66  10
  -1  -8   0 5328.82 1184.96   6
  -1  -8   0 3581.74 1195.21  11
   1   8   0 5405.56 1190.01  10
   1   8   0 7915.70 1228.48   7
  -1  -8  -1 5661.38 1219.33   6
  -1  -8  -1 1932.91 1007.09  11
   1   8   1 4603.51 1096.33  10
   1   8   1 5366.96 1055.86   7
  -1  -8  -2 4331.14 1170.06  11
  -1  -8  -2 6030.51 1295.31   6
   1   8   2 6297.19 1226.38  10
   1   8   2 7056.68 1202.35   7
  -1  -8  -3 1596.56 1058.81  11
  -1  -8  -3 1232.52 1092.93   6
   1   8   3 1965.66 912.549  10
   1   8   3 1214.05 801.430   7
  -1  -8  -4 17223.0 1737.02  11
   1   8   4 16723.9 1660.14  10
   1   8   4 21424.1 1808.11   7
  -1  -8  -4 17177.6 1825.70   6
  -1  -8  -5 6191.58 1381.69   6
   1   8   5 5465.47 1117.74  10
   1   8   5 6330.11 1198.32   7
  -1  -8  -6 1057.69 1149.26   6
   1   8   6 1429.02 975.239   7
  -1  -8  -7 371.912 1196.41   6
   1   8   7 990.395 885.526   7
  -1  -8  -8 1203.17 1235.98   6
  -1  -8  -8-1311.56 1189.15   3
   1   8   8 129.721 932.955   4
  -1  -8  -8-470.797 998.365   1
   1   8   8-102.690 956.372   7
  -1  -8  -9 1801.51 1181.66   1
  -1  -8  -9 1171.24 1349.88   3
   1   8   9 2087.14 1005.48   2
   1   8   9 2435.81 1175.70   4
  -1  -9   7 819.028 1221.91  11
  -1  -9   6 3516.06 1282.57  11
   1   9  -6 1969.07 1002.55  16
  -1  -9   6 1477.55 1133.68  14
  -1  -9   5 9954.68 1610.30  11
   1   9  -5 9752.80 1433.09  16
  -1  -9   5 11649.3 1646.89  14
  -1  -9   4-1417.10 1183.74  11
   1   9  -4 1449.31 995.911  10
   1   9  -4 856.896 875.925  16
  -1  -9   4-1347.51 1096.57  14
  -1  -9   3 356.373 1143.98  11
   1   9  -3 3139.57 1102.01  10
   1   9  -3 2928.85 1037.73  16
  -1  -9   2 1465.02 1206.22  11
   1   9  -2 830.167 1006.25  10
  -1  -9   1 17210.8 1977.97  11
   1   9  -1 19638.7 1932.34  10
  -1  -9   0 806.305 1075.98   6
  -1  -9   0 2055.11 1210.00  11
   1   9   0 2252.53 1034.77  10
  -1  -9  -1 12454.4 1706.38   6
  -1  -9  -1 10809.3 1728.72  11
   1   9   1 12645.7 1687.53  10
   1   9   1 12867.3 1538.88   7
  -1  -9  -2 472.641 103.450   6
  -1  -9  -2 459.452 170.310  11
   1   9   2 473.764 165.150  10
   1   9   2 489.667 175.567   7
  -1  -9  -3 5391.84 1405.89   6
  -1  -9  -3 4952.53 1373.62  11
   1   9   3 7655.08 1401.03  10
   1   9   3 7428.68 1351.09   7
  -1  -9  -4 2421.80 1185.26   6
  -1  -9  -4-119.343 1171.72  11
   1   9   4 215.680 872.890  10
   1   9   4 795.576 876.798   7
  -1  -9  -5 1024.35 1249.84   6
   1   9   5 2846.55 1056.04   7
  -1 -10  -1 4806.60 1389.93   6
  -2  -3  13-1278.42 1068.83  12
   2   3 -11 47934.5 2463.76  15
   2   3 -10 6349.99 1074.48  15
   2   3  -9 1276.45 1038.04  15
   2   3  -8 4605.38 841.627  15
   2   3  -7 49467.9 2067.21  15
  -2  -4  13 5417.99 1492.55  12
  -2  -4  12 7370.19 1476.62  12
   2   4 -12 7338.83 1295.10  15
  -2  -4  11 1505.42 947.017  12
   2   4 -11 1070.20 847.956  15
   2   4 -10 3148.04 943.927  15
   2   4  -9 15315.0 1499.15  15
   2   4  -8 61375.9 2639.02  15
   2   4  -7 18438.5 1490.12  15
   2   4  -6 17677.3 860.984  10
   2   4  -6 18039.1 1013.34  15
   2   4  -5 29925.5 1619.79  10
   2   4  -5 27468.6 1650.21  15
   2   4  -4 1398.91 515.778  10
   2   4  -4 1999.54 654.640  15
   2   4  -3 2381.97 617.844  10
   2   4  -3 2229.18 665.606  15
   2   4  -3 1870.57 490.026   7
   2   4  -2 25201.6 1441.29  10
   2   4  -2 24272.0 1299.25   7
   2   4  -2 22946.4 1363.62  15
   2   4  -1 2935.40 617.809  10
   2   4  -1 1678.05 541.085  15
   2   4  -1 2208.58 543.916   7
   2   4   0 18886.8 1229.85  10
   2   4   0 20167.0 1251.48   7
   2   4   0 16769.6 1076.83  15
   2   4   1 3234.87 820.489  10
   2   4   1 3613.13 1125.25   7
   2   4   2 17681.0 1212.54  10
   2   4   2 15582.5 1082.24   2
   2   4   2 16438.4 1243.15   7
   2   4   3 12748.1 1063.13  10
   2   4   3 11778.8 1011.39   2
   2   4   3 12876.9 1141.88   7
   2   4   4 12948.2 1084.45  10
   2   4   4 14870.9 1163.42   2
   2   4   4 12756.0 1165.56   7
   2   4   5 2791.79 678.242   2
   2   4   5 1971.11 551.733  10
  -2  -4  -5 1303.30 581.939   1
   2   4   5 2121.90 662.379   7
   2   4   6 18306.4 1424.42   2
   2   4   6 17113.9 1391.26   7
   2   4   7 10603.7 1170.98   2
   2   4   7 9101.76 1128.51   7
   2   4   8 373.780 633.330   2
  -2  -4  -8 1113.63 738.845   1
   2   4   8 1565.69 715.014   7
   2   4   9 1048.84 751.671   2
  -2  -4  -9-69.4027 721.387   1
   2   4   9 410.642 670.910   7
   2   5 -13 8666.64 1588.30  15
  -2  -5  13 2301.00 1344.55  13
  -2  -5  12 5679.73 1352.91  12
   2   5 -12 5820.65 1271.58   9
   2   5 -12 5880.14 1309.19  15
  -2  -5  12 7831.79 1514.19  13
  -2  -5  11 1992.59 1124.10  12
   2   5 -11 375.140 830.069   9
   2   5 -11 1386.89 980.288  15
  -2  -5  11 2259.73 1151.91  13
  -2  -5  10 1539.77 996.196  12
   2   5 -10 2251.72 971.037   9
   2   5 -10 660.920 877.404  15
  -2  -5   9 5805.80 1194.68  12
   2   5  -9 8089.12 1243.90   9
   2   5  -9 7997.89 1240.81  16
   2   5  -9 7814.66 1251.93  15
  -2  -5   9 4882.21 1118.43  14
   2   5  -8 3615.61 912.855   9
   2   5  -8 4113.48 977.390  16
   2   5  -8 6081.95 1085.33  15
  -2  -5   8 5004.44 1078.21  14
   2   5  -7 94078.0 3350.52  16
   2   5  -7 91648.8 3362.73  15
   2   5  -6 5454.24 996.617  16
   2   5  -6 4146.87 861.614  10
   2   5  -6 4185.50 971.321  15
  -2  -5   6 1866.99 879.949  14
  -2  -5   5 7093.73 1088.55  11
   2   5  -5 7220.17 1016.76  10
   2   5  -5 8493.90 1126.03  16
   2   5  -5 6819.26 1030.91  15
  -2  -5   5 6770.89 1128.41  14
  -2  -5   4 62.6645 652.268  11
   2   5  -4 153.471 541.601  10
   2   5  -4 818.494 595.322  16
   2   5  -4 617.276 642.089  15
  -2  -5   4 1491.22 711.495  14
  -2  -5   3 122471. 2849.58  11
   2   5  -3 120199. 2762.22  10
   2   5  -3 121389. 2727.93  15
  -2  -5   3 122336. 2829.27  14
  -2  -5   2 11286.7 1191.58  11
   2   5  -2 13774.8 1212.00  10
   2   5  -2 13592.5 1164.66  15
   2   5  -2 11901.6 1030.45   7
  -2  -5   1 4728.93 986.310  11
   2   5  -1 5989.07 945.007  10
   2   5  -1 7057.51 964.520  15
  -2  -5   0 2596.34 778.233  11
   2   5   0 1659.46 560.680  10
   2   5   0 1326.00 535.874  15
   2   5   0 2569.76 632.238   7
  -2  -5  -1 51323.3 2207.94  11
   2   5   1 48565.4 2118.00  10
   2   5   1 49598.5 1829.94  15
  -2  -5  -1 44738.8 2148.54   6
   2   5   1 48000.3 2091.32   7
  -2  -5  -2 8717.33 1044.99  11
  -2  -5  -2 10669.0 1208.89   6
   2   5   3 16483.6 1253.57  10
   2   5   3 16315.4 1224.24   2
   2   5   3 16056.0 1338.57   7
  -2  -5  -3 13240.9 1174.18   1
  -2  -5  -3 15976.1 1429.72   6
  -2  -5  -4 5210.93 1026.61   6
   2   5   4 7251.53 902.462  10
  -2  -5  -4 4198.94 839.681   1
   2   5   4 7116.03 909.994   2
   2   5   4 6793.82 971.634   7
   2   5   5 58764.6 2305.14  10
   2   5   5 61372.0 2465.80   2
   2   5   5 57074.6 2500.35   7
   2   5   6 11435.6 1334.09   2
   2   5   7 59216.5 2690.16   2
   2   5   7 55869.2 2682.35   7
  -2  -5  -7 52791.5 2653.16   1
   2   5   8 2556.79 832.636   2
  -2  -5  -8 3008.20 939.021   1
   2   5   8 1780.84 799.237   7
   2   5   9 72.0710 735.866   2
  -2  -5  -9 1556.82 904.873   1
   2   5   9-566.225 756.982   7
   2   5  10 365.983 837.784   2
   2   5  10 2223.00 954.888   7
   2   5  11 4411.32 771.559   2
   2   5  11 3925.31 706.430   7
  -2  -6  11 2748.43 1236.84  12
   2   6 -11 2343.63 982.625   9
   2   6 -11 2270.69 1054.87  16
   2   6 -11 1757.39 1099.04  15
  -2  -6  11 3653.16 1364.17  14
  -2  -6  11 792.924 1092.01  13
  -2  -6  10 3397.98 1187.89  12
   2   6 -10 2903.40 1075.98   9
   2   6 -10 3312.11 1081.18  16
   2   6 -10 2745.98 1036.14  15
  -2  -6  10-587.640 1088.39  14
  -2  -6  10 892.146 1095.25  13
  -2  -6   9 926.440 957.636  12
   2   6  -9 2801.36 974.343   9
   2   6  -9 1517.12 903.981  16
   2   6  -9 253.863 887.717  15
  -2  -6   9 1293.97 1064.78  14
  -2  -6   9 1807.36 1056.97  13
   2   6  -8 3856.26 944.797  16
   2   6  -8 4384.79 1137.38  15
  -2  -6   8 4875.63 1219.15  14
  -2  -6   7 4873.33 1167.35  11
   2   6  -7 5233.80 1036.38  10
   2   6  -7 4767.90 1058.47  16
   2   6  -7 7385.64 1216.11  15
  -2  -6   7 4767.33 1154.73  14
  -2  -6   6 28879.7 1995.72  11
   2   6  -6 30499.2 2004.14  10
   2   6  -6 31160.6 2045.36  16
   2   6  -6 30820.6 2040.53  15
  -2  -6   6 26640.6 2003.76  14
  -2  -6   5 2065.46 919.843  11
   2   6  -5 3672.89 883.531  10
   2   6  -5 3746.79 958.935  16
   2   6  -5 3469.87 985.102  15
  -2  -6   5 474.321 829.485  14
  -2  -6   4 54881.1 2543.35  11
   2   6  -4 55283.3 2505.57  10
   2   6  -4 56723.5 2530.60  16
   2   6  -4 53086.4 2441.46  15
  -2  -6   4 55874.0 2554.57  14
  -2  -6   3 7402.37 1175.88  11
   2   6  -3 7121.66 1019.63  10
   2   6  -3 8168.75 1101.21  16
   2   6  -3 7630.25 1047.81  15
  -2  -6   3 8509.32 1168.29  14
  -2  -6   2-219.322 817.553  11
   2   6  -2 629.962 705.712  10
   2   6  -2 348.830 577.978  16
   2   6  -2 358.449 637.938  15
  -2  -6   2-1171.53 861.048  14
  -2  -6   1 6388.68 1066.60   6
  -2  -6   1 6440.98 1141.29  11
   2   6  -1 8212.87 1153.70  10
   2   6  -1 7634.29 1041.39   7
   2   6  -1 8097.12 1058.60  15
  -2  -6   0 11963.8 1365.45  11
   2   6   0 12100.4 1272.36  10
   2   6   0 13689.8 1275.97   7
   2   6   0 14668.8 1232.40  15
  -2  -6   0 13184.4 1349.92   6
  -2  -6  -1 13726.4 1428.51  11
   2   6   1 14143.8 1351.08  10
   2   6   1 16228.1 1405.09   7
  -2  -6  -1 12870.8 1359.28   6
  -2  -6  -2 613.856 804.115   6
  -2  -6  -2 1443.59 870.524  11
   2   6   2-183.993 604.775  10
   2   6   2 72.0990 602.240   7
  -2  -6  -3 5550.87 1095.55   6
  -2  -6  -3 6151.33 1124.80  11
   2   6   3 6185.63 953.028  10
   2   6   3 6772.82 1043.41   7
   2   6   4 80312.9 2994.02  10
   2   6   4 81144.5 3131.56   7
  -2  -6  -4 83289.5 3246.20   6
  -2  -6  -5 381.573 893.335   6
   2   6   5 1639.41 717.450   2
   2   6   5 847.778 706.077  10
   2   6   5 820.541 752.869   7
  -2  -6  -5 606.602 716.364   1
  -2  -6  -6-17.6861 936.758   6
   2   6   6-1010.38 701.145   2
   2   6   6-394.159 711.491   7
  -2  -6  -6 476.396 739.987   1
  -2  -6  -7-226.120 924.879   6
   2   6   7 181.249 724.464   2
   2   6   7-198.123 716.653   7
  -2  -6  -7-369.086 806.319   1
  -2  -6  -8 8026.39 1435.04   6
  -2  -6  -8 6913.28 1284.77   1
   2   6   8 7798.12 1315.11   2
   2   6   8 8181.51 1307.84   7
  -2  -6  -9 231.079 927.975   1
   2   6   9-1235.72 893.985   2
   2   6   9-462.942 831.090   7
  -2  -6 -10 2653.13 1087.66   1
   2   6  10 225.195 842.957   2
   2   6  10 1424.11 1001.17   7
   2   7  -9 2137.81 999.632  16
   2   7  -9 1915.87 1069.63  15
  -2  -7   9 272.435 1135.25  14
  -2  -7   9 522.858 1140.15  13
   2   7  -8 1853.64 916.450  16
   2   7  -8 1077.66 954.255  15
  -2  -7   8 175.967 1113.19  14
  -2  -7   8-403.494 1054.51  13
  -2  -7   7-140.746 1059.50  11
   2   7  -7-318.948 859.350  10
   2   7  -7 686.258 895.449  16
   2   7  -7 575.923 928.324  15
  -2  -7   7-2384.18 1232.42  14
  -2  -7   7-1161.30 1108.12  13
  -2  -7   6 692.921 961.811  11
   2   7  -6 2285.37 821.910  10
   2   7  -6 1294.16 907.213  16
   2   7  -6 1778.12 901.717  15
  -2  -7   6-891.263 1007.41  14
  -2  -7   6 1699.79 1049.40  13
  -2  -7   5 8188.46 1219.14  11
   2   7  -5 15951.0 1624.13  10
   2   7  -5 15090.7 1619.57  16
   2   7  -5 15297.9 1586.74  15
  -2  -7   5 6814.45 1193.73  14
  -2  -7   5 8452.60 1447.14  13
  -2  -7   4 21630.0 1789.77  11
   2   7  -4 19576.6 1694.48  10
   2   7  -4 21797.6 1738.73  16
   2   7  -4 18896.8 1613.99  15
  -2  -7   4 20994.3 1827.42  14
  -2  -7   4 19924.7 1813.96  13
  -2  -7   3 2023.99 1066.70  11
   2   7  -3 837.821 786.463  10
   2   7  -3 1163.93 812.349  16
   2   7  -3 1285.19 853.280  15
  -2  -7   3 460.786 892.152  14
  -2  -7   3-150.697 833.783  13
   2   7  -2 5855.42 1195.28  10
   2   7  -2 7481.36 1150.56  16
   2   7  -2 5631.65 1081.01  15
  -2  -7   2 5398.08 1160.84  14
  -2  -7   2 4372.82 1030.45  13
  -2  -7   1 13628.8 1547.65  11
   2   7  -1 16969.7 1640.15  10
   2   7  -1 19942.8 1563.92  15
   2   7  -1 19651.7 1630.19   7
  -2  -7   1 15430.7 1494.32  13
  -2  -7   1 16415.8 1538.97   6
  -2  -7   0 14003.8 1527.70  11
   2   7   0 15838.9 1476.45  10
   2   7   0 15871.8 1445.44   7
  -2  -7   0 13141.2 1459.52   6
  -2  -7  -1 3661.83 1054.14   6
  -2  -7  -1 4019.54 1095.20  11
   2   7   1 3956.12 939.445  10
   2   7   1 4781.39 953.889   7
  -2  -7  -2 6658.95 1329.01   6
  -2  -7  -2 6939.35 1250.79  11
   2   7   2 7114.06 1211.52  10
   2   7   2 7410.68 1230.19   7
  -2  -7  -3 12299.1 1516.08   6
  -2  -7  -3 9629.71 1353.80  11
   2   7   3 12746.5 1404.69  10
   2   7   3 14293.2 1501.47   7
  -2  -7  -4 2759.21 1122.91   6
   2   7   4 1393.25 836.390  10
   2   7   4 1115.53 890.917   7
  -2  -7  -5-293.571 946.172   6
  -2  -7  -5-147.925 896.618  11
   2   7   5 925.834 705.293  10
   2   7   5 587.357 823.442   7
  -2  -7  -6 1084.23 1125.27   6
   2   7   6 4258.95 1104.91   7
  -2  -7  -7-715.563 1090.92   6
  -2  -7  -7-829.532 886.414   1
   2   7   7 1216.23 871.040   7
  -2  -7  -8 6117.77 1393.85   6
   2   7   8 5707.15 1203.22   2
  -2  -7  -8 3633.42 1131.28   1
   2   7   8 6610.30 1325.00   7
  -2  -7  -9 13953.3 1862.09   1
   2   7   9 16810.6 1829.09   2
  -2  -8   7 1224.33 1169.23  11
   2   8  -7 162.814 959.543  10
   2   8  -7 1204.06 962.923  16
   2   8  -7 1169.15 993.834  15
  -2  -8   7 1817.04 1227.74  14
  -2  -8   7 2096.32 1138.33  13
  -2  -8   6 476.255 1052.15  11
   2   8  -6-31.2275 903.759  10
   2   8  -6 794.183 882.535  16
   2   8  -6-1052.01 980.187  15
  -2  -8   6 725.492 1138.23  14
  -2  -8   6 1224.96 1115.69  13
  -2  -8   5 1120.48 1096.70  11
   2   8  -5-71.4251 850.322  10
   2   8  -5 700.221 899.755  16
   2   8  -5 434.353 881.958  15
  -2  -8   5-1301.59 1077.24  14
  -2  -8   5 976.302 1041.61  13
  -2  -8   4 2761.64 1161.06  11
   2   8  -4 2399.99 1083.77  10
   2   8  -4 2035.30 901.122  16
   2   8  -4 2016.70 1074.48  15
  -2  -8   4 1706.31 1152.95  14
  -2  -8   4 1183.28 1007.09  13
  -2  -8   3 812.755 1063.70  11
   2   8  -3 1764.49 959.931  10
   2   8  -3 2590.50 1013.91  16
   2   8  -3 2998.05 1046.95  15
  -2  -8   3 2643.96 1138.07  14
  -2  -8   3 1222.96 983.641  13
  -2  -8   2 4111.88 1241.44  11
   2   8  -2 5840.88 1177.13  10
   2   8  -2 6981.88 1152.92  15
  -2  -8   1 2671.73 1110.28  11
   2   8  -1 6102.82 1261.87  10
  -2  -8   0 6918.34 1251.91   6
  -2  -8   0 5561.27 1273.99  11
   2   8   0 6288.51 1134.26  10
   2   8   0 8113.06 1225.85   7
  -2  -8  -1 18674.5 1884.69  11
   2   8   1 19877.6 1771.89  10
   2   8   1 20252.5 1732.20   7
  -2  -8  -1 17792.5 1817.98   6
  -2  -8  -2 1893.33 1100.39   6
  -2  -8  -2 1465.94 1034.70  11
   2   8   2 1988.91 929.535  10
   2   8   2 2437.38 953.867   7
  -2  -8  -3 5040.15 1616.31   6
  -2  -8  -3 5205.96 1603.67  11
   2   8   3 1450.04 1014.16  10
   2   8   3 4181.31 1269.08   7
  -2  -8  -4 63.3203 1079.59   6
  -2  -8  -4-1461.22 1210.78  11
   2   8   4 1263.11 933.708  10
   2   8   4 534.432 805.879   7
  -2  -8  -5 1725.47 1200.41   6
   2   8   5 641.537 824.953   7
  -2  -8  -6 6982.59 1613.46   6
   2   8   6 4544.79 1244.97   7
   2   9  -5 2616.99 1158.21  16
  -2  -9   5 870.916 1195.27  13
   2   9  -4 5871.40 1424.76  10
   2   9  -4 5426.55 1373.84  16
   2   9  -4 6734.29 1420.64  15
  -2  -9   4-802.062 1366.80  14
  -2  -9   4 1005.71 1246.02  13
  -2  -9   3-911.699 1248.33  11
   2   9  -3 560.850 1028.27  10
  -2  -9   2 2156.53 1329.62  11
   2   9  -2 2657.75 1095.80  10
  -2  -9   1 2253.73 1301.90  11
   2   9  -1 5231.42 1295.82  10
  -2  -9   0 1777.69 1190.29  11
   2   9   0 2346.65 1100.44  10
  -2  -9  -1-72.7759 1105.44   6
  -2  -9  -1 968.304 1211.26  11
   2   9   1 1353.19 973.972  10
   2   9   1 1538.40 1022.97   7
  -2  -9  -2 2977.65 1295.45   6
  -2  -9  -2 2889.96 1369.59  11
   2   9   2 2393.67 1052.94  10
   2   9   2 3271.81 1105.84   7
  -2  -9  -3-1253.70 1216.29   6
  -2  -9  -3 45.4122 1246.25  11
   2   9   3 381.266 984.426  10
   2   9   3-1037.34 964.836   7
  -2  -9  -4 5036.11 1532.97  11
   2   9   4 4974.83 1191.64  10
   0   0   0    0.00    0.00   0

TITL dimethyl_ether_phase_gamma_5_60GPa in P-1
REM P-1 (#2 in standard setting)
CELL 0.71073   4.288764   8.304531  12.791161  90.2490  93.9203  90.1368
ZERR    8.00   0.001689   0.001778   0.001341   0.0122   0.0211   0.0281
LATT  1
SFAC C H O
UNIT 16.00 48.00 8.00
TREF
HKLF 4
END
;
_shelx_hkl_checksum              85078
_olex2_submission_special_instructions 'No special instructions were received'
loop_
_space_group_symop_operation_xyz
'x, y, z'
'-x, -y, -z'
loop_
_atom_site_label
_atom_site_type_symbol
_atom_site_fract_x
_atom_site_fract_y
_atom_site_fract_z
_atom_site_U_iso_or_equiv
_atom_site_adp_type
_atom_site_occupancy
_atom_site_site_symmetry_order
_atom_site_calc_flag
_atom_site_refinement_flags_posn
_atom_site_refinement_flags_adp
_atom_site_refinement_flags_occupancy
_atom_site_disorder_assembly
_atom_site_disorder_group
O1 O 0.242(3) 0.8248(9) -0.0022(4) 0.0355(18) Uiso 1 1 d . . . . .
C1 C -0.044(6) 0.7338(16) -0.0090(7) 0.044(3) Uiso 1 1 d . . . . .
H13 H -0.090194 0.698647 -0.079991 0.066 Uiso 1 1 calc R U . . .
H11 H -0.211365 0.800321 0.012419 0.066 Uiso 1 1 calc R U . . .
H12 H -0.022179 0.641798 0.036022 0.066 Uiso 1 1 calc R U . . .
C2 C 0.253(5) 0.9101(16) 0.0956(7) 0.035(2) Uiso 1 1 d . . . . .
H23 H 0.401532 0.996640 0.094303 0.053 Uiso 1 1 calc R U . . .
H21 H 0.315057 0.837755 0.151533 0.053 Uiso 1 1 calc R U . . .
H22 H 0.050127 0.952873 0.106470 0.053 Uiso 1 1 calc R U . . .
O2 O 0.839(4) 0.5131(9) 0.1969(4) 0.0355(19) Uiso 1 1 d . . . . .
C3 C 0.583(6) 0.4931(16) 0.1409(8) 0.044(3) Uiso 1 1 d . . . . .
H33 H 0.597037 0.397973 0.098645 0.066 Uiso 1 1 calc R U . . .
H31 H 0.545875 0.584812 0.096426 0.066 Uiso 1 1 calc R U . . .
H32 H 0.413976 0.481568 0.185831 0.066 Uiso 1 1 calc R U . . .
C4 C 0.826(5) 0.6641(14) 0.2545(7) 0.033(2) Uiso 1 1 d . . . . .
H42 H 0.736833 0.746038 0.208976 0.050 Uiso 1 1 calc R U . . .
H43 H 1.033412 0.695640 0.279589 0.050 Uiso 1 1 calc R U . . .
H41 H 0.699224 0.650412 0.312783 0.050 Uiso 1 1 calc R U . . .
O3 O 0.711(4) 0.0119(9) 0.2914(4) 0.039(2) Uiso 1 1 d . . . . .
C5 C 0.423(6) -0.0119(17) 0.3472(8) 0.048(3) Uiso 1 1 d . . . . .
H51 H 0.261497 0.056876 0.317384 0.072 Uiso 1 1 calc R U . . .
H52 H 0.464730 0.014100 0.419992 0.072 Uiso 1 1 calc R U . . .
H53 H 0.357516 -0.122233 0.340226 0.072 Uiso 1 1 calc R U . . .
C6 C 0.678(6) 0.1662(14) 0.2479(7) 0.038(2) Uiso 1 1 d . . . . .
H62 H 0.509187 0.165541 0.194479 0.057 Uiso 1 1 calc R U . . .
H63 H 0.867947 0.196660 0.217750 0.057 Uiso 1 1 calc R U . . .
H61 H 0.632919 0.242027 0.301708 0.057 Uiso 1 1 calc R U . . .
O4 O 0.274(4) 0.3116(10) 0.4989(4) 0.0381(19) Uiso 1 1 d . . . . .
C7 C -0.032(6) 0.2154(16) 0.5048(7) 0.038(3) Uiso 1 1 d . . . . .
H73 H -0.012530 0.143250 0.563344 0.058 Uiso 1 1 calc R U . . .
H71 H -0.072304 0.154542 0.441314 0.058 Uiso 1 1 calc R U . . .
H72 H -0.201529 0.288377 0.513443 0.058 Uiso 1 1 calc R U . . .
C8 C 0.222(6) 0.4120(15) 0.4061(6) 0.033(2) Uiso 1 1 d . . . . .
H81 H 0.111214 0.507395 0.423767 0.050 Uiso 1 1 calc R U . . .
H82 H 0.101913 0.353007 0.352648 0.050 Uiso 1 1 calc R U . . .
H83 H 0.420049 0.441628 0.380646 0.050 Uiso 1 1 calc R U . . .
loop_
_atom_type_symbol
_atom_type_description
_atom_type_scat_dispersion_real
_atom_type_scat_dispersion_imag
_atom_type_scat_source
C C 0.0033 0.0016 'International Tables Vol C Tables 4.2.6.8 and 6.1.1.4'
H H 0.0000 0.0000 'International Tables Vol C Tables 4.2.6.8 and 6.1.1.4'
O O 0.0106 0.0060 'International Tables Vol C Tables 4.2.6.8 and 6.1.1.4'
loop_
_geom_angle_atom_site_label_1
_geom_angle_atom_site_label_2
_geom_angle_atom_site_label_3
_geom_angle
_geom_angle_site_symmetry_1
_geom_angle_site_symmetry_3
_geom_angle_publ_flag
C2 O1 C1 106.6(11) . . ?
O1 C1 H13 109.5 . . ?
O1 C1 H11 109.5 . . ?
O1 C1 H12 109.5 . . ?
H13 C1 H11 109.5 . . ?
H13 C1 H12 109.5 . . ?
H11 C1 H12 109.5 . . ?
O1 C2 H23 109.5 . . ?
O1 C2 H21 109.5 . . ?
O1 C2 H22 109.5 . . ?
H23 C2 H21 109.5 . . ?
H23 C2 H22 109.5 . . ?
H21 C2 H22 109.5 . . ?
C3 O2 C4 109.2(16) . . ?
O2 C3 H33 109.5 . . ?
O2 C3 H31 109.5 . . ?
O2 C3 H32 109.5 . . ?
H33 C3 H31 109.5 . . ?
H33 C3 H32 109.5 . . ?
H31 C3 H32 109.5 . . ?
O2 C4 H42 109.5 . . ?
O2 C4 H43 109.5 . . ?
O2 C4 H41 109.5 . . ?
H42 C4 H43 109.5 . . ?
H42 C4 H41 109.5 . . ?
H43 C4 H41 109.5 . . ?
C6 O3 C5 104.3(15) . . ?
O3 C5 H51 109.5 . . ?
O3 C5 H52 109.5 . . ?
O3 C5 H53 109.5 . . ?
H51 C5 H52 109.5 . . ?
H51 C5 H53 109.5 . . ?
H52 C5 H53 109.5 . . ?
O3 C6 H62 109.5 . . ?
O3 C6 H63 109.5 . . ?
O3 C6 H61 109.5 . . ?
H62 C6 H63 109.5 . . ?
H62 C6 H61 109.5 . . ?
H63 C6 H61 109.5 . . ?
C8 O4 C7 104.7(11) . . ?
O4 C7 H73 109.5 . . ?
O4 C7 H71 109.5 . . ?
O4 C7 H72 109.5 . . ?
H73 C7 H71 109.5 . . ?
H73 C7 H72 109.5 . . ?
H71 C7 H72 109.5 . . ?
O4 C8 H81 109.5 . . ?
O4 C8 H82 109.5 . . ?
O4 C8 H83 109.5 . . ?
H81 C8 H82 109.5 . . ?
H81 C8 H83 109.5 . . ?
H82 C8 H83 109.5 . . ?
loop_
_geom_bond_atom_site_label_1
_geom_bond_atom_site_label_2
_geom_bond_distance
_geom_bond_site_symmetry_2
_geom_bond_publ_flag
O1 C1 1.44(2) . ?
O1 C2 1.433(11) . ?
C1 H13 0.9600 . ?
C1 H11 0.9600 . ?
C1 H12 0.9600 . ?
C2 H23 0.9600 . ?
C2 H21 0.9600 . ?
C2 H22 0.9600 . ?
O2 C3 1.28(3) . ?
O2 C4 1.455(13) . ?
C3 H33 0.9600 . ?
C3 H31 0.9600 . ?
C3 H32 0.9600 . ?
C4 H42 0.9600 . ?
C4 H43 0.9600 . ?
C4 H41 0.9600 . ?
O3 C5 1.48(3) . ?
O3 C6 1.403(15) . ?
C5 H51 0.9600 . ?
C5 H52 0.9600 . ?
C5 H53 0.9600 . ?
C6 H62 0.9600 . ?
C6 H63 0.9600 . ?
C6 H61 0.9600 . ?
O4 C7 1.543(19) . ?
O4 C8 1.459(13) . ?
C7 H73 0.9600 . ?
C7 H71 0.9600 . ?
C7 H72 0.9600 . ?
C8 H81 0.9600 . ?
C8 H82 0.9600 . ?
C8 H83 0.9600 . ?
