#------------------------------------------------------------------------------
#$Date: 2024-02-04 13:34:59 +0200 (Sun, 04 Feb 2024) $
#$Revision: 289431 $
#$URL: file:///home/coder/svn-repositories/cod/cif/1/57/05/1570543.cif $
#------------------------------------------------------------------------------
#
# This file is available in the Crystallography Open Database (COD),
# http://www.crystallography.net/
#
# All data on this site have been placed in the public domain by the
# contributors.
#
data_1570543
loop_
_publ_author_name
'Hasebe, Shodai'
'Hagiwara, Yuki'
'Ueno, Takashi'
'Asahi, Toru'
'Koshima, Hideko'
_publ_section_title
;
 Negative to positive axial thermal expansion switching of an organic
 crystal: contribution to multistep photoactuation.
;
_journal_issue                   3
_journal_name_full               'Chemical science'
_journal_page_first              1088
_journal_page_last               1097
_journal_paper_doi               10.1039/d3sc04796b
_journal_volume                  15
_journal_year                    2024
_chemical_formula_moiety         'C21 H26 N2 O3'
_chemical_formula_sum            'C21 H26 N2 O3'
_chemical_formula_weight         354.44
_space_group_crystal_system      triclinic
_space_group_IT_number           2
_space_group_name_Hall           '-P 1'
_space_group_name_H-M_alt        'P -1'
_atom_sites_solution_hydrogens   geom
_atom_sites_solution_primary     dual
_audit_creation_date             2022-06-06
_audit_creation_method
;
Olex2 1.5
(compiled 2022.04.07 svn.rca3783a0 for OlexSys, GUI svn.r6498)
;
_audit_update_record
;
2023-08-31 deposited with the CCDC.	2023-12-11 downloaded from the CCDC.
;
_cell_angle_alpha                101.000(7)
_cell_angle_beta                 92.143(6)
_cell_angle_gamma                101.307(7)
_cell_formula_units_Z            2
_cell_length_a                   6.0467(10)
_cell_length_b                   10.3324(17)
_cell_length_c                   16.871(3)
_cell_measurement_reflns_used    6722
_cell_measurement_temperature    330.35
_cell_measurement_theta_max      68
_cell_measurement_theta_min      4
_cell_volume                     1011.5(3)
_computing_molecular_graphics    'Olex2 1.5 (Dolomanov et al., 2009)'
_computing_publication_material  'Olex2 1.5 (Dolomanov et al., 2009)'
_computing_structure_refinement  'SHELXL 2014/7 (Sheldrick, 2015)'
_computing_structure_solution    'SHELXT 2014/4 (Sheldrick, 2014)'
_diffrn_ambient_temperature      330.35
_diffrn_detector_area_resol_mean 10
_diffrn_measured_fraction_theta_full 0.977
_diffrn_measured_fraction_theta_max 0.973
_diffrn_measurement_device_type  RAPID
_diffrn_measurement_method       '\w scans'
_diffrn_radiation_type           CuK\a
_diffrn_radiation_wavelength     1.54187
_diffrn_reflns_av_R_equivalents  0.0684
_diffrn_reflns_av_unetI/netI     0.0730
_diffrn_reflns_Laue_measured_fraction_full 0.977
_diffrn_reflns_Laue_measured_fraction_max 0.973
_diffrn_reflns_limit_h_max       7
_diffrn_reflns_limit_h_min       -7
_diffrn_reflns_limit_k_max       12
_diffrn_reflns_limit_k_min       -12
_diffrn_reflns_limit_l_max       20
_diffrn_reflns_limit_l_min       -20
_diffrn_reflns_number            11190
_diffrn_reflns_point_group_measured_fraction_full 0.977
_diffrn_reflns_point_group_measured_fraction_max 0.973
_diffrn_reflns_theta_full        67.687
_diffrn_reflns_theta_max         68.170
_diffrn_reflns_theta_min         4.456
_exptl_absorpt_coefficient_mu    0.625
_exptl_absorpt_correction_T_max  1
_exptl_absorpt_correction_T_min  0.6409
_exptl_absorpt_correction_type   multi-scan
_exptl_absorpt_process_details   ABSCOR(Rigaku,1995)
_exptl_crystal_colour            'clear yellowish yellow'
_exptl_crystal_colour_lustre     clear
_exptl_crystal_colour_modifier   yellowish
_exptl_crystal_colour_primary    yellow
_exptl_crystal_density_diffrn    1.164
_exptl_crystal_description       prism
_exptl_crystal_F_000             380
_exptl_crystal_size_max          1
_exptl_crystal_size_mid          0.6
_exptl_crystal_size_min          0.3
_refine_diff_density_max         0.126
_refine_diff_density_min         -0.226
_refine_diff_density_rms         0.053
_refine_ls_extinction_method     none
_refine_ls_goodness_of_fit_ref   1.080
_refine_ls_hydrogen_treatment    constr
_refine_ls_matrix_type           full
_refine_ls_number_parameters     273
_refine_ls_number_reflns         3605
_refine_ls_number_restraints     72
_refine_ls_restrained_S_all      1.088
_refine_ls_R_factor_all          0.1427
_refine_ls_R_factor_gt           0.0865
_refine_ls_shift/su_max          0.000
_refine_ls_shift/su_mean         0.000
_refine_ls_structure_factor_coef Fsqd
_refine_ls_weighting_details
'w=1/[\s^2^(Fo^2^)+(0.1058P)^2^] where P=(Fo^2^+2Fc^2^)/3'
_refine_ls_weighting_scheme      calc
_refine_ls_wR_factor_gt          0.2088
_refine_ls_wR_factor_ref         0.2395
_reflns_Friedel_coverage         0.000
_reflns_number_gt                1754
_reflns_number_total             3605
_reflns_threshold_expression     'I > 2\s(I)'
_cod_data_source_file            d3sc04796b3.cif
_cod_data_source_block           57point2degC
_cod_depositor_comments
'Adding full bibliography for 1570536--1570543.cif.'
_cod_database_code               1570543
_shelx_shelxl_version_number     2014/7
_shelx_space_group_comment
;
The symmetry employed for this shelxl refinement is uniquely defined
by the following loop, which should always be used as a source of
symmetry information in preference to the above space-group names.
They are only intended as comments.
;
_olex2_refinement_description
;
1. Fixed Uiso
 At 1.2 times of:
  All C(H) groups
 At 1.5 times of:
  All C(H,H,H) groups, All O(H) groups
2. Uiso/Uaniso restraints and constraints
C2 \\sim C00I \\sim C00R \\sim C1: within 2A with sigma of 0.04 and sigma for
terminal atoms of 0.08 within 2A
C00Q \\sim C00I \\sim C00P \\sim C00O: within 2A with sigma of 0.04 and sigma
for terminal atoms of 0.08 within 2A
3. Rigid body (RIGU) restrains
 C00I, C2, C00R, C1
 with sigma for 1-2 distances of 0.004 and sigma for 1-3 distances of 0.004
 C00Q, C00I, C00P, C00O
 with sigma for 1-2 distances of 0.004 and sigma for 1-3 distances of 0.004
4. Others
 Sof(C00R)=Sof(H00Z)=Sof(H)=Sof(HA)=Sof(C1)=Sof(H1A)=Sof(H1B)=Sof(H1C)=Sof(C2)=
 Sof(H2A)=Sof(H2B)=Sof(H2C)=1-FVAR(1)
 Sof(C00O)=Sof(H00Q)=Sof(H00R)=Sof(H00S)=Sof(C00P)=Sof(H00T)=Sof(H00U)=
 Sof(H00V)=Sof(C00Q)=Sof(H00W)=Sof(H00X)=Sof(H00Y)=FVAR(1)
5.a Aromatic/amide H refined with riding coordinates:
 C00A(H00A), C00C(H00C), C00E(H00E), C00F(H00F), C00G(H00G), C00J(H00J),
 C00K(H00K)
5.b Idealised Me refined as rotating group:
 C00L(H00B,H00D,H00H), C00M(H00I,H00L,H00M), C00N(H00N,H00O,H00P), C00O(H00Q,
 H00R,H00S), C00P(H00T,H00U,H00V), C00Q(H00W,H00X,H00Y), C00R(H00Z,H,HA),
 C1(H1A,H1B,H1C), C2(H2A,H2B,H2C)
5.c Idealised tetrahedral OH refined as rotating group:
 O001(H001)
;
_shelx_res_file
;
    shelxt_a.res created by SHELXL-2014/7

TITL shelxt_a_a.res in P-1
REM Old TITL SHELXT_a.res in P-1
REM SHELXT solution in P-1
REM R1 0.281, Rweak 0.126, Alpha 0.071, Orientation as input
REM Formula found by SHELXT: C23 O2 N
CELL 1.54187 6.0467 10.3324 16.8709 101 92.143 101.307
ZERR 2 0.001 0.0017 0.0028 0.007 0.006 0.007
LATT 1
SFAC C H N O
UNIT 42 52 4 6
SIMU C2 C00I C00R C1
RIGU C00I C2 C00R C1
RIGU C00Q C00I C00P C00O
SIMU C00Q C00I C00P C00O

L.S. 10
PLAN  5
CONF
BOND $H
list 4
fmap 2
acta
MORE -1
OMIT -1 5 0
OMIT 7 -4 4
REM <olex2.extras>
REM <HklSrc "%.\\SHELXT_a.hkl">
REM </olex2.extras>

WGHT    0.105800
FVAR       0.93794   0.74801
O001  4    0.645688    0.600268    0.683215    11.00000    0.10903    0.08120 =
         0.09783    0.03571    0.03414    0.02013
AFIX 147
H001  2    0.732070    0.559327    0.657590    11.00000   -1.50000
AFIX   0
N002  3    0.808011    0.392305    0.618298    11.00000    0.09095    0.08205 =
         0.07753    0.02036    0.01767    0.01580
N3    3    0.843702    0.014066    0.399049    11.00000    0.13241    0.08580 =
         0.08628    0.02063    0.01154    0.02157
O8    4    0.643905   -0.027371    0.403238    11.00000    0.14393    0.11788 =
         0.12982   -0.00392    0.02285   -0.02018
C005  1    0.556034    0.388964    0.725203    11.00000    0.08370    0.06736 =
         0.06855    0.01738    0.01145    0.01639
C006  1    0.537137    0.524091    0.733166    11.00000    0.08401    0.06836 =
         0.07011    0.02565    0.00902    0.01076
O007  4    0.960247   -0.043082    0.353267    11.00000    0.16954    0.11695 =
         0.12053   -0.00986    0.01830    0.04639
C008  1    0.310775    0.361661    0.833485    11.00000    0.08693    0.06675 =
         0.07248    0.02086    0.01413    0.01518
C009  1    0.403695    0.580858    0.790182    11.00000    0.07918    0.07156 =
         0.07112    0.02096    0.00795    0.01788
C00A  1    0.829536    0.201614    0.510786    11.00000    0.08281    0.07772 =
         0.07706    0.02381    0.01184    0.01251
AFIX  43
H00A  2    0.681647    0.160081    0.516503    11.00000   -1.20000
AFIX   0
C00B  1    0.928117    0.323544    0.559714    11.00000    0.08473    0.07642 =
         0.07088    0.02163    0.01321    0.01714
C00C  1    0.692485    0.328376    0.666057    11.00000    0.09310    0.07335 =
         0.07709    0.01749    0.01004    0.01804
AFIX  43
H00C  2    0.696446    0.237947    0.662559    11.00000   -1.20000
AFIX   0
C00D  1    0.954279    0.142440    0.453245    11.00000    0.09921    0.07355 =
         0.06940    0.02002    0.00871    0.01634
C00E  1    0.296622    0.496910    0.838415    11.00000    0.09069    0.07302 =
         0.07271    0.02410    0.01581    0.02127
AFIX  43
H00E  2    0.208237    0.533158    0.877187    11.00000   -1.20000
AFIX   0
C00F  1    0.441306    0.311489    0.775545    11.00000    0.09697    0.06223 =
         0.07582    0.02157    0.01129    0.01473
AFIX  43
H00F  2    0.453712    0.221905    0.769632    11.00000   -1.20000
AFIX   0
C00G  1    1.148100    0.382662    0.549613    11.00000    0.09351    0.08685 =
         0.08162    0.02254    0.01313    0.00925
AFIX  43
H00G  2    1.214144    0.465881    0.581820    11.00000   -1.20000
AFIX   0
C00H  1    0.377269    0.727660    0.799123    11.00000    0.09312    0.06373 =
         0.09342    0.02504    0.01063    0.01662
C00I  1    0.184988    0.279296    0.889423    11.00000    0.09793    0.07237 =
         0.08076    0.02826    0.02001    0.01306
C00J  1    1.270734    0.320609    0.492841    11.00000    0.08836    0.10804 =
         0.09183    0.02663    0.01995    0.01699
AFIX  43
H00J  2    1.419681    0.360979    0.487714    11.00000   -1.20000
AFIX   0
C00K  1    1.173734    0.198503    0.443341    11.00000    0.10221    0.09470 =
         0.07762    0.02437    0.01936    0.02954
AFIX  43
H00K  2    1.254809    0.155621    0.404478    11.00000   -1.20000
AFIX   0
C00L  1    0.268594    0.748462    0.719730    11.00000    0.12861    0.10235 =
         0.11374    0.04547   -0.00198    0.04084
AFIX 137
H00B  2    0.366914    0.732926    0.677109    11.00000   -1.50000
H00D  2    0.245219    0.839084    0.726732    11.00000   -1.50000
H00H  2    0.125901    0.686343    0.705857    11.00000   -1.50000
AFIX   0
C00M  1    0.607349    0.824127    0.819909    11.00000    0.12079    0.07308 =
         0.13451    0.02040    0.01123    0.01433
AFIX 137
H00I  2    0.675429    0.811166    0.869346    11.00000   -1.50000
H00L  2    0.587437    0.915396    0.826526    11.00000   -1.50000
H00M  2    0.703624    0.806382    0.776903    11.00000   -1.50000
AFIX   0
C00N  1    0.222546    0.764498    0.866171    11.00000    0.14210    0.08806 =
         0.12906    0.03598    0.04941    0.05257
AFIX 137
H00N  2    0.076522    0.705443    0.853929    11.00000   -1.50000
H00O  2    0.206793    0.856004    0.869504    11.00000   -1.50000
H00P  2    0.287517    0.755094    0.917031    11.00000   -1.50000
AFIX   0
PART 1
C00O  1    0.234983    0.139166    0.878266    21.00000    0.19195    0.09112 =
         0.14109    0.06056    0.06335    0.03591
AFIX 137
H00Q  2    0.189147    0.091806    0.823626    21.00000   -1.50000
H00R  2    0.153212    0.091116    0.915101    21.00000   -1.50000
H00S  2    0.394272    0.145777    0.889001    21.00000   -1.50000
AFIX   0
C00P  1    0.257117    0.350221    0.977768    21.00000    0.17060    0.11840 =
         0.08417    0.04308    0.01937    0.01124
AFIX 137
H00T  2    0.416496    0.356935    0.988343    21.00000   -1.50000
H00U  2    0.175497    0.299171    1.013290    21.00000   -1.50000
H00V  2    0.224452    0.438896    0.986902    21.00000   -1.50000
AFIX   0
C00Q  1   -0.066461    0.267800    0.874371    21.00000    0.10360    0.15679 =
         0.16891    0.08539    0.01906    0.00368
AFIX 137
H00W  2   -0.099419    0.356319    0.881748    21.00000   -1.50000
H00X  2   -0.145006    0.219686    0.911820    21.00000   -1.50000
H00Y  2   -0.114856    0.220086    0.819973    21.00000   -1.50000
AFIX   0
PART 2
C00R  1    0.012088    0.147712    0.833261   -21.00000    0.11988    0.09031 =
         0.11499    0.03394    0.01297    0.00716
AFIX 137
H00Z  2   -0.081367    0.177467    0.796122   -21.00000   -1.50000
H     2   -0.081710    0.099975    0.867476   -21.00000   -1.50000
HA    2    0.098627    0.089048    0.803472   -21.00000   -1.50000
AFIX   0
C1    1    0.351689    0.219713    0.935526   -21.00000    0.12076    0.11731 =
         0.10410    0.05503    0.02262    0.01050
AFIX 137
H1A   2    0.422103    0.161988    0.897553   -21.00000   -1.50000
H1B   2    0.271470    0.168526    0.971268   -21.00000   -1.50000
H1C   2    0.465502    0.291450    0.966521   -21.00000   -1.50000
AFIX   0
C2    1    0.035557    0.350281    0.944229   -21.00000    0.15142    0.10007 =
         0.13450    0.03540    0.06479    0.02208
AFIX 137
H2A   2    0.124047    0.432600    0.975869   -21.00000   -1.50000
H2B   2   -0.029650    0.293173    0.979646   -21.00000   -1.50000
H2C   2   -0.082881    0.370271    0.912070   -21.00000   -1.50000
AFIX   0
HKLF 4

REM  shelxt_a_a.res in P-1
REM R1 =  0.0865 for    1754 Fo > 4sig(Fo)  and  0.1427 for all    3605 data
REM    273 parameters refined using     72 restraints

END

WGHT      0.1058      0.0000

REM Highest difference peak  0.126,  deepest hole -0.226,  1-sigma level  0.053
Q1    1   1.5066  0.3937  0.5062  11.00000  0.05    0.13
Q2    1   0.6747 -0.2351  0.3940  11.00000  0.05    0.12
Q3    1  -0.0921  0.4295  0.7827  11.00000  0.05    0.12
Q4    1   1.2726  0.3974  0.6262  11.00000  0.05    0.12
Q5    1   1.1524  0.4381  0.6820  11.00000  0.05    0.12
;
_shelx_res_checksum              6723
_shelx_hkl_file
;
   0   0   2  248.13    9.95
   0   0   2  253.34   10.13
   0   0   2  260.30    9.76
   0   0   2  277.37   11.19
   0   0   2  254.01   10.18
   0   0  -2  268.31   11.01
   0   0  -2  265.86   10.52
   0   0  -2  269.75   10.37
   0   0  -2  292.85   12.59
   0   0  -2  243.84   10.78
   0   0   3 1496.66  120.13
   0   0   3 1568.26  125.75
   0   0   3 1600.45  133.25
   0   0   3 1541.15  127.30
   0   0  -3 1593.25  128.82
   0   0  -3 1619.85  135.99
   0   0  -3 1519.54  123.88
   0   0  -3 1620.17  137.21
   0   0  -3 1608.52  137.59
   0   0   4  373.33   17.98
   0   0   4  400.32   19.21
   0   0   4  381.99   20.90
   0   0   4  370.66   19.69
   0   0  -4  417.66   20.29
   0   0  -4  402.78   23.01
   0   0  -4  361.97   18.45
   0   0  -4  387.60   20.88
   0   0  -4  400.60   21.77
   0   0   5   20.68    1.53
   0   0   5   22.07    1.75
   0   0   5   19.91    2.79
   0   0   5   19.69    2.46
   0   0  -5   21.99    1.56
   0   0  -5   17.94    1.88
   0   0  -5   19.06    1.67
   0   0  -5   19.92    1.81
   0   0   6  143.59    5.87
   0   0   6  152.38    6.34
   0   0   6  158.76   11.01
   0   0   6  151.42    9.75
   0   0  -6  172.38    8.28
   0   0  -6  161.00    9.49
   0   0  -6  163.97    8.65
   0   0  -6  162.93    8.95
   0   0   7  147.34    6.19
   0   0   7  162.29    7.12
   0   0   7  144.80    9.05
   0   0   7  152.68    8.49
   0   0  -7  163.27    8.79
   0   0  -7  148.23    8.00
   0   0  -7  160.18    9.28
   0   0  -7  163.46    9.66
   0   0   8    0.54    0.46
   0   0   8    1.51    0.49
   0   0   8    0.85    1.00
   0   0   8    0.48    0.87
   0   0  -8    1.26    0.89
   0   0  -8    1.19    0.71
   0   0  -8    1.10    1.00
   0   0  -8    0.39    1.04
   0   0   9    1.67    1.01
   0   0   9    1.81    1.30
   0   0   9    2.66    1.12
   0   0  -9    2.10    1.16
   0   0  -9    2.08    0.92
   0   0  -9    2.43    2.21
   0   0  10    1.97    1.20
   0   0  10    2.36    1.55
   0   0  10    3.88    1.35
   0   0 -10    3.84    2.21
   0   0 -10    2.79    1.95
   0   0 -10    4.19    2.82
   0   0  11    3.24    1.84
   0   0 -11    4.70    1.89
   0   0 -11    3.01    2.03
   0   0  12    3.17    3.73
   0   0 -12    4.77    2.27
   0   0 -12    4.84    2.38
   0   0  13    3.61    2.66
   0   0 -13    7.23    2.61
   0   0 -13    5.72    2.77
   0   0  14    0.69    1.48
   0   0 -14   -0.18    1.42
   0   0 -14   -0.26    1.53
   0   0  15    1.15    2.05
   0   0 -15    1.43    3.24
   0   0 -15    0.95    3.55
   0   0  16    0.95    2.41
   0   0 -16    3.44    4.05
   0   0 -16    2.23    2.45
   0   0  17   13.00    7.87
   0   0 -17   23.15    5.16
   0   0 -17   19.35    5.14
   0   0  18   31.41    6.28
   0   0 -18   41.57    6.34
   0   0 -18   39.08    6.91
   0   0  19    1.06    1.62
   0   0 -19    0.05    2.38
   0   1 -20   13.04    4.58
   0  -1  20    7.64    2.75
   0   1 -19   32.88    5.49
   0   1 -19   27.63    5.42
   0  -1  19   21.07    8.01
   0   1 -18    7.37    3.47
   0   1 -18    7.15    3.38
   0  -1  18    6.37    3.18
   0   1 -17   49.54    7.75
   0   1 -17   31.15   11.14
   0  -1  17   24.78    6.62
   0   1 -16    6.81    5.65
   0   1 -16    7.50    3.58
   0  -1  16    7.17    3.42
   0   1 -15    0.35    1.93
   0   1 -15    1.36    2.02
   0  -1  15    0.66    1.93
   0   1 -14    8.84    3.30
   0   1 -14    9.55    3.45
   0  -1  14    4.41    4.98
   0   1 -13   31.31    5.11
   0   1 -13   30.01    5.22
   0  -1  13   20.83    4.64
   0   1 -12    1.19    1.62
   0   1 -12    1.15    2.78
   0  -1  12    0.55    1.53
   0   1 -11    3.14    2.87
   0   1 -11    1.96    1.68
   0  -1  11    1.16    1.59
   0  -1  11    2.41    1.43
   0   1 -10   -0.68    1.28
   0   1 -10    0.49    0.69
   0   1 -10    0.26    0.92
   0  -1  10   -0.47    0.85
   0  -1  10   -0.74    0.90
   0  -1  10    1.21    1.29
   0   1  -9  159.31    9.94
   0   1  -9  156.91    9.01
   0   1  -9  115.40    7.58
   0   1  -9  175.54   11.36
   0  -1   9  160.65   14.11
   0  -1   9  143.87   10.04
   0  -1   9  148.53   12.20
   0   1  -8   99.37    5.20
   0   1  -8   98.58    6.07
   0   1  -8   94.56    5.44
   0   1  -8   77.60    4.61
   0   1  -8  105.41    6.80
   0  -1   8   92.62    4.41
   0  -1   8   93.91    6.57
   0  -1   8   85.24    6.15
   0  -1   8   90.39    7.83
   0   1  -7   35.50    3.20
   0   1  -7   39.20    2.78
   0   1  -7   37.46    2.48
   0   1  -7   32.45    2.05
   0   1  -7   39.70    4.82
   0  -1   7   34.88    1.56
   0  -1   7   36.62    2.39
   0  -1   7   34.41    3.05
   0  -1   7   32.32    2.96
   0  -1   7   34.20    2.61
   0   1  -6  488.94   26.83
   0   1  -6  489.33   27.67
   0   1  -6  479.55   26.33
   0   1  -6  413.57   22.90
   0   1  -6  431.78   25.58
   0  -1   6  413.30   21.02
   0  -1   6  463.49   23.26
   0  -1   6  448.00   26.93
   0  -1   6  416.79   25.56
   0  -1   6  410.51   23.96
   0   1  -5  296.87   15.69
   0   1  -5  314.36   15.26
   0   1  -5  300.13   14.29
   0   1  -5  286.55   13.28
   0   1  -5  300.80   15.13
   0  -1   5  270.26   11.77
   0  -1   5  271.09   12.64
   0  -1   5  315.16   18.80
   0  -1   5  280.89   14.93
   0  -1   5  276.68   13.87
   0   1  -4 2283.76  210.36
   0   1  -4 2050.26  196.71
   0   1  -4 1957.94  179.03
   0   1  -4 2226.38  207.23
   0  -1   4 1919.03  173.20
   0  -1   4 2173.76  194.75
   0  -1   4 2270.76  212.32
   0  -1   4 2025.35  192.23
   0  -1   4 1985.44  185.36
   0   1  -3 1166.97   81.37
   0   1  -3 1203.19   87.50
   0   1  -3 1105.08   77.28
   0   1  -3 1154.18   81.46
   0  -1   3 1193.26   81.22
   0  -1   3 1206.17   81.53
   0  -1   3 1249.66   88.56
   0  -1   3 1170.70   84.10
   0  -1   3 1180.51   85.99
   0   1  -2  670.93   37.79
   0   1  -2  658.17   36.50
   0   1  -2  671.54   36.54
   0   1  -2  744.72   41.74
   0   1  -2  714.88   39.37
   0  -1   2  792.74   42.46
   0  -1   2  715.92   39.40
   0  -1   2  748.03   43.69
   0  -1   2  720.01   39.87
   0   1  -1  707.01   37.13
   0   1  -1  704.40   35.31
   0   1  -1  634.13   33.31
   0   1  -1  638.45   34.07
   0  -1   1  628.75   31.99
   0  -1   1  599.17   31.35
   0  -1   1  636.77   33.52
   0  -1   1  616.65   32.13
   0   1   0 1178.68   74.70
   0   1   0 1104.60   70.12
   0   1   0 1150.66   74.83
   0   1   0 1099.03   72.21
   0  -1   0 1203.28   76.47
   0  -1   0 1214.34   77.56
   0  -1   0 1202.07   79.21
   0  -1   0 1131.37   73.05
   0   1   1  169.28    5.46
   0   1   1  168.62    6.26
   0   1   1  174.56    7.17
   0   1   1  175.51    7.03
   0  -1  -1  194.26    6.40
   0  -1  -1  160.34    4.69
   0  -1  -1  163.01    5.48
   0  -1  -1  178.68    6.33
   0  -1  -1  169.60    6.09
   0   1   2 1078.72   74.27
   0   1   2 1124.68   77.73
   0   1   2 1185.84   84.64
   0   1   2 1148.41   84.07
   0  -1  -2 1059.96   72.10
   0  -1  -2 1258.05   87.40
   0  -1  -2 1164.70   82.69
   0  -1  -2 1161.75   83.10
   0   1   3  966.68   62.04
   0   1   3  924.45   63.62
   0   1   3  871.89   57.62
   0   1   3  929.80   67.88
   0   1   3 1021.22   69.46
   0  -1  -3  868.02   57.19
   0  -1  -3  978.82   65.19
   0  -1  -3 1000.79   71.47
   0  -1  -3  936.61   65.22
   0   1   4  367.17   17.18
   0   1   4  399.26   19.91
   0   1   4  370.53   18.12
   0   1   4  369.64   22.53
   0   1   4  357.85   21.01
   0  -1  -4  380.43   18.82
   0  -1  -4  319.45   18.69
   0  -1  -4  410.97   21.80
   0  -1  -4  393.66   21.49
   0   1   5   89.95    3.52
   0   1   5   96.42    4.30
   0   1   5   93.98    4.03
   0   1   5   90.37    6.92
   0   1   5   92.19    4.79
   0  -1  -5   96.74    4.40
   0  -1  -5   99.78    4.94
   0  -1  -5   99.80    5.47
   0  -1  -5  101.58    5.61
   0   1   6   31.78    1.96
   0   1   6   30.51    2.63
   0   1   6   32.37    1.83
   0   1   6   27.29    4.10
   0   1   6   32.34    2.44
   0  -1  -6   32.04    2.18
   0  -1  -6   31.15    2.32
   0  -1  -6   31.62    4.21
   0  -1  -6   34.43    2.87
   0   1   7  265.23   13.22
   0   1   7  247.08   12.47
   0   1   7  298.85   15.24
   0   1   7  251.98   19.71
   0   1   7  287.07   16.73
   0  -1  -7  289.41   16.00
   0  -1  -7  279.92   16.13
   0  -1  -7  280.00   17.16
   0  -1  -7  296.18   18.54
   0   1   8    1.57    0.74
   0   1   8    4.56    1.29
   0   1   8    3.98    2.27
   0   1   8    2.94    1.87
   0  -1  -8    4.68    1.73
   0  -1  -8    3.74    1.72
   0  -1  -8    3.04    1.32
   0  -1  -8    4.27    1.45
   0   1   9   85.73    6.52
   0   1   9   81.51   10.32
   0   1   9   86.54    6.26
   0  -1  -9  104.62    9.99
   0  -1  -9   85.96    6.31
   0  -1  -9   80.18    6.84
   0  -1  -9   87.82    7.75
   0   1  10   26.86    2.35
   0   1  10   25.61    4.15
   0   1  10   26.34    3.32
   0  -1 -10   32.81    3.63
   0  -1 -10   24.87    3.16
   0  -1 -10   24.55    3.84
   0  -1 -10   28.30    4.08
   0   1  11   18.72    2.12
   0   1  11   19.61    3.83
   0  -1 -11   26.82    3.43
   0  -1 -11   17.84    2.97
   0  -1 -11   21.14    3.92
   0   1  12    2.32    1.88
   0  -1 -12    1.99    1.73
   0  -1 -12    1.45    1.96
   0   1  13    3.79    2.66
   0  -1 -13    5.93    2.45
   0  -1 -13    5.44    4.43
   0   1  14    1.17    1.86
   0  -1 -14    1.27    2.71
   0  -1 -14    0.06    1.93
   0   1  15    2.66    4.78
   0  -1 -15    6.99    4.74
   0  -1 -15    4.48    2.98
   0   1  16    2.16    5.02
   0  -1 -16    7.31    2.99
   0  -1 -16    4.38    3.09
   0   1  17    1.62    2.51
   0  -1 -17    3.52    2.29
   0  -1 -17    4.22    2.51
   0   1  18    5.97    2.75
   0  -1 -18    4.10    3.65
   0   1  19   16.09    2.79
   0   1  19    3.82    2.42
   0   2 -20    5.51    3.49
   0   2 -20   -3.55    2.01
   0  -2  20   -5.06    2.03
   0   2 -19   18.99    4.28
   0   2 -19   14.94    3.99
   0  -2  19   10.52    3.78
   0   2 -18    1.04    1.97
   0   2 -18    0.08    3.00
   0  -2  18    0.06    1.73
   0   2 -17   38.17   11.10
   0   2 -17   29.36    6.45
   0  -2  17   26.60    6.19
   0   2 -16    1.36    1.74
   0   2 -16   -0.68    1.81
   0  -2  16   -0.73    2.81
   0   2 -15    0.77    2.14
   0   2 -15   -1.11    2.21
   0  -2  15    3.24    1.93
   0   2 -14   24.74    5.24
   0   2 -14   29.32    8.42
   0  -2  14   21.67    4.76
   0   2 -13    0.08    2.00
   0   2 -13    1.65    3.14
   0  -2  13    2.46    1.81
   0   2 -12  269.73   21.61
   0   2 -12  243.37   20.56
   0  -2  12  212.25   18.77
   0   2 -11   30.56    6.82
   0   2 -11   25.06    4.07
   0  -2  11   21.92    5.98
   0   2 -10   21.69    3.05
   0   2 -10   20.56    2.57
   0   2 -10   22.36    3.36
   0  -2  10   19.11    3.30
   0  -2  10   18.01    4.99
   0  -2  10   19.57    2.95
   0   2  -9   64.77    6.46
   0   2  -9   77.87    5.63
   0   2  -9   72.57    4.90
   0   2  -9   86.02    9.15
   0  -2   9   62.56    2.99
   0  -2   9   72.82    6.06
   0  -2   9   71.82    8.38
   0  -2   9   75.93    5.48
   0   2  -8  201.37   11.26
   0   2  -8  193.05   11.39
   0   2  -8  192.33   10.43
   0   2  -8  144.68    8.82
   0   2  -8  184.06   11.19
   0  -2   8  180.42    7.91
   0  -2   8  187.47   11.94
   0  -2   8  164.20   14.49
   0  -2   8  178.37   10.84
   0   2  -7   53.51    4.51
   0   2  -7   55.70    3.64
   0   2  -7   52.24    3.25
   0   2  -7   46.74    3.18
   0   2  -7   54.11    3.60
   0  -2   7   47.95    2.85
   0  -2   7   52.22    2.57
   0  -2   7   52.90    5.91
   0  -2   7   49.64    5.74
   0  -2   7   51.66    3.54
   0   2  -6  292.83   14.81
   0   2  -6  267.06   13.93
   0   2  -6  257.34   13.00
   0   2  -6  224.19   11.31
   0   2  -6  275.27   14.37
   0  -2   6  235.73   11.86
   0  -2   6  252.40   10.78
   0  -2   6  268.66   14.75
   0  -2   6  241.32   17.07
   0  -2   6  253.04   13.64
   0   2  -5 2666.94  281.50
   0   2  -5 2642.22  278.72
   0   2  -5 2568.21  268.90
   0   2  -5 2480.31  252.61
   0   2  -5 2651.99  285.89
   0  -2   5 2360.74  246.19
   0  -2   5 2745.11  277.44
   0  -2   5 2826.20  300.75
   0  -2   5 2482.30  268.84
   0  -2   5 2583.25  274.56
   0   2  -4 2956.41  302.45
   0   2  -4 2336.15  245.89
   0   2  -4 2390.81  243.46
   0   2  -4 2604.84  261.55
   0   2  -4 2697.35  280.95
   0   2  -4 2617.26  268.84
   0  -2   4 2269.69  229.50
   0  -2   4 2742.86  273.57
   0  -2   4 2540.28  266.19
   0  -2   4 2529.51  261.00
   0   2  -3 4609.03  598.37
   0   2  -3 3781.30  499.05
   0   2  -3 3944.21  510.31
   0   2  -3 4384.98  561.30
   0   2  -3 4871.90  639.80
   0   2  -3 4874.26  640.11
   0  -2   3 4263.83  551.22
   0  -2   3 4488.30  579.82
   0  -2   3 4455.21  588.16
   0  -2   3 4726.77  617.95
   0   2  -2  406.08   19.51
   0   2  -2  366.14   17.66
   0   2  -2  370.85   16.32
   0   2  -2  396.61   19.69
   0   2  -2  369.40   18.06
   0  -2   2  390.61   18.27
   0  -2   2  384.19   18.19
   0  -2   2  377.94   19.15
   0  -2   2  354.80   17.76
   0   2  -1   16.42    1.55
   0   2  -1   17.70    0.73
   0   2  -1   18.93    0.81
   0   2  -1   17.28    1.23
   0   2  -1   16.27    1.04
   0  -2   1   17.04    1.56
   0  -2   1   18.59    1.09
   0  -2   1   18.41    1.25
   0  -2   1   16.47    1.11
   0   2   0 1400.87  100.71
   0   2   0 1257.77   90.77
   0   2   0 1393.16  103.38
   0   2   0 1293.45   95.51
   0  -2   0 1445.68  104.14
   0  -2   0 1393.76  103.25
   0  -2   0 1333.92   98.34
   0   2   1 1809.65  151.81
   0   2   1 1815.71  150.84
   0   2   1 1863.18  163.00
   0   2   1 1727.98  146.93
   0   2   1 1767.16  150.69
   0  -2  -1 1729.04  146.54
   0  -2  -1 1915.60  158.37
   0  -2  -1 1850.44  161.56
   0   2   2   13.51    1.38
   0   2   2   14.24    1.07
   0   2   2   14.28    1.32
   0   2   2   14.64    1.28
   0  -2  -2   15.90    1.08
   0  -2  -2   14.51    0.57
   0  -2  -2   13.98    1.60
   0  -2  -2   14.73    1.30
   0  -2  -2   13.90    1.27
   0   2   3  308.48   14.20
   0   2   3  318.71   17.15
   0   2   3  324.98   19.81
   0   2   3  317.98   18.91
   0  -2  -3  336.50   16.13
   0  -2  -3  337.71   16.73
   0  -2  -3  320.58   16.78
   0  -2  -3  311.42   16.72
   0   2   4   15.68    0.92
   0   2   4   16.14    1.35
   0   2   4   17.41    2.01
   0   2   4   16.26    1.69
   0   2   4   17.11    1.58
   0  -2  -4   14.59    1.38
   0  -2  -4   17.34    1.42
   0  -2  -4   16.00    1.62
   0  -2  -4   16.95    1.64
   0   2   5   69.30    2.98
   0   2   5   85.09    4.56
   0   2   5   81.90    5.25
   0   2   5   77.04    5.06
   0   2   5   83.03    6.69
   0  -2  -5   68.10    4.32
   0  -2  -5   74.44    4.09
   0  -2  -5   81.89    4.92
   0  -2  -5   78.57    6.93
   0   2   6    5.36    0.62
   0   2   6    6.56    1.64
   0   2   6    9.62    1.72
   0   2   6    6.50    1.50
   0   2   6    5.79    1.24
   0  -2  -6    7.63    1.84
   0  -2  -6   10.08    2.31
   0  -2  -6    6.80    1.45
   0  -2  -6    6.27    2.46
   0   2   7    0.69    0.60
   0   2   7    0.97    0.68
   0   2   7    2.10    0.73
   0   2   7    2.57    1.13
   0   2   7    1.41    0.93
   0  -2  -7    2.10    1.45
   0  -2  -7    1.66    0.99
   0  -2  -7    1.97    1.09
   0  -2  -7    1.45    1.86
   0   2   8   20.58    1.93
   0   2   8   15.54    2.87
   0   2   8   19.38    2.44
   0  -2  -8   20.12    2.27
   0  -2  -8   18.47    2.46
   0  -2  -8   15.11    4.22
   0  -2  -8   18.61    4.59
   0   2   9  355.15   21.95
   0   2   9  306.44   24.55
   0   2   9  336.19   27.67
   0  -2  -9  358.98   23.96
   0  -2  -9  342.49   27.92
   0  -2  -9  304.02   23.38
   0  -2  -9  334.40   31.27
   0   2  10    6.29    1.44
   0   2  10    7.81    2.40
   0  -2 -10    6.68    1.95
   0  -2 -10    8.27    2.12
   0  -2 -10    7.50    3.86
   0   2  11   18.48    2.55
   0   2  11   21.43    4.15
   0  -2 -11   26.87    3.43
   0  -2 -11   22.56    4.20
   0   2  12    6.80    4.62
   0  -2 -12    9.33    3.79
   0  -2 -12    5.40    2.91
   0   2  13   19.69    7.34
   0  -2 -13   21.52    6.86
   0  -2 -13   19.18    4.73
   0   2  14   46.24    8.57
   0  -2 -14   62.28    7.90
   0  -2 -14   62.50    9.09
   0   2  15   23.10    5.69
   0  -2 -15   31.08    6.13
   0   2  16   17.59    4.62
   0   2  17    8.46    3.18
   0   2  17    7.93    2.83
   0   2  18    2.24    2.89
   0   2  18    1.54    1.59
   0   3 -20   -2.19    1.83
   0   3 -20    2.34    1.66
   0  -3  20    5.38    2.67
   0   3 -19    2.80    2.22
   0   3 -19    0.65    3.35
   0  -3  19    1.17    1.93
   0   3 -18    1.60    2.07
   0   3 -18    0.12    1.87
   0  -3  18    0.39    1.83
   0   3 -17   -6.12    4.26
   0   3 -17   -0.04    2.37
   0  -3  17   -0.84    3.68
   0   3 -16   11.93    4.08
   0   3 -16   11.14    4.21
   0  -3  16   10.14    3.71
   0   3 -15    2.27    2.35
   0   3 -15    1.66    4.00
   0  -3  15    1.46    2.12
   0   3 -14    6.55    3.17
   0   3 -14    6.22    3.10
   0  -3  14    7.32    2.88
   0   3 -13   21.35    4.45
   0   3 -13   19.30    4.36
   0  -3  13   18.85    6.52
   0   3 -12   40.44    5.66
   0   3 -12   39.11    5.66
   0  -3  12   33.96    8.32
   0   3 -11   50.32    9.43
   0   3 -11   53.54    6.09
   0  -3  11   43.14    5.68
   0   3 -10  455.19   38.77
   0   3 -10  443.35   35.38
   0   3 -10  478.53   40.42
   0  -3  10  475.71   36.44
   0  -3  10  421.48   33.50
   0  -3  10  439.57   37.72
   0   3  -9    2.07    2.13
   0   3  -9    2.00    1.39
   0   3  -9    2.87    1.84
   0   3  -9    3.20    1.38
   0  -3   9    2.52    0.66
   0  -3   9    4.24    1.48
   0  -3   9    2.29    1.47
   0  -3   9    4.91    2.18
   0   3  -8  248.48   14.97
   0   3  -8  241.79   14.77
   0   3  -8  210.12   12.62
   0   3  -8  241.71   14.97
   0  -3   8  227.05   11.33
   0  -3   8  236.20   15.55
   0  -3   8  214.75   14.79
   0  -3   8  222.51   17.49
   0   3  -7   56.04    5.64
   0   3  -7   52.74    3.56
   0   3  -7   46.59    3.07
   0   3  -7   39.81    1.88
   0   3  -7   52.78    5.50
   0  -3   7   48.90    2.43
   0  -3   7   46.42    2.09
   0  -3   7   53.17    4.04
   0  -3   7   46.38    3.95
   0  -3   7   53.48    5.55
   0   3  -6   23.12    2.05
   0   3  -6   20.60    1.89
   0   3  -6   18.50    1.65
   0   3  -6   20.30    1.11
   0   3  -6   27.69    2.09
   0  -3   6   19.06    1.39
   0  -3   6   22.19    1.24
   0  -3   6   21.54    2.32
   0  -3   6   18.92    2.36
   0  -3   6   25.71    2.21
   0   3  -5  406.44   22.15
   0   3  -5  321.04   17.35
   0   3  -5  314.65   16.49
   0   3  -5  388.09   21.93
   0   3  -5  355.99   19.45
   0  -3   5  337.89   17.23
   0  -3   5  352.54   17.54
   0  -3   5  331.67   22.83
   0  -3   5  350.85   19.79
   0   3  -4    4.00    1.38
   0   3  -4    3.56    0.57
   0   3  -4    4.00    1.06
   0   3  -4    6.07    1.48
   0  -3   4    4.02    0.73
   0  -3   4    4.90    0.68
   0  -3   4    2.98    1.04
   0  -3   4    3.78    0.94
   0   3  -3  562.50   32.49
   0   3  -3  495.02   26.80
   0   3  -3  477.78   26.66
   0   3  -3  593.87   34.78
   0   3  -3  542.30   31.22
   0  -3   3  552.15   32.95
   0  -3   3  544.52   30.66
   0  -3   3  559.16   33.80
   0  -3   3  569.45   36.66
   0   3  -2  266.01   12.29
   0   3  -2  213.79    8.36
   0   3  -2  258.06   10.72
   0   3  -2  240.86   11.89
   0   3  -2  282.38   14.84
   0  -3   2  246.52   13.00
   0  -3   2  220.64   12.15
   0  -3   2  233.26   11.45
   0   3  -1 1311.32  104.59
   0   3  -1 1335.28   93.08
   0   3  -1 1196.85   85.01
   0   3  -1 1286.75  101.30
   0  -3   1 1400.78  108.32
   0  -3   1 1468.27  114.60
   0  -3   1 1538.54  121.38
   0  -3   1 1636.03  127.51
   0   3   0  913.80   60.18
   0   3   0  915.19   62.17
   0  -3   0  934.57   61.70
   0  -3   0  953.42   65.51
   0   3   1   54.89    2.48
   0   3   1   52.18    2.48
   0   3   1   59.25    3.32
   0   3   1   53.66    4.11
   0   3   1   53.98    3.01
   0  -3  -1   66.73    4.40
   0  -3  -1   59.51    4.62
   0   3   2   30.40    1.61
   0   3   2   29.68    1.83
   0   3   2   32.94    3.58
   0   3   2   28.77    2.07
   0   3   2   28.98    2.19
   0  -3  -2   33.15    2.01
   0  -3  -2   30.24    2.72
   0  -3  -2   31.96    2.31
   0   3   3 1536.12  131.33
   0   3   3 1576.30  137.89
   0   3   3 1598.62  145.86
   0   3   3 1521.31  137.43
   0   3   3 1706.16  152.82
   0  -3  -3 1578.19  126.98
   0  -3  -3 1801.54  158.37
   0  -3  -3 1617.57  150.59
   0   3   4  288.65   14.96
   0   3   4  353.11   20.11
   0   3   4  329.73   17.69
   0   3   4  318.45   19.75
   0   3   4  339.94   19.67
   0  -3  -4  308.78   15.60
   0  -3  -4  315.78   18.29
   0  -3  -4  326.57   19.69
   0   3   5   73.19    3.61
   0   3   5   80.61    6.68
   0   3   5   82.62    4.53
   0   3   5   80.90    5.85
   0   3   5   86.55    5.57
   0  -3  -5   76.92    3.62
   0  -3  -5   84.04    5.02
   0  -3  -5   81.75    7.64
   0  -3  -5   84.10    5.83
   0   3   6    0.61    0.40
   0   3   6    0.67    0.76
   0   3   6    1.12    0.72
   0   3   6    1.99    0.98
   0   3   6    1.14    1.47
   0  -3  -6    0.38    0.54
   0  -3  -6    0.21    1.36
   0  -3  -6    1.04    0.92
   0  -3  -6   -0.26    0.96
   0   3   7   90.53    5.46
   0   3   7   79.08    6.95
   0   3   7   82.55    6.01
   0  -3  -7   77.57    4.70
   0  -3  -7   93.75    6.86
   0  -3  -7   84.54    6.70
   0  -3  -7   86.02    7.03
   0   3   8  160.24    9.78
   0   3   8  134.02   11.47
   0   3   8  140.31   10.17
   0  -3  -8  138.19    8.69
   0  -3  -8  161.42   11.68
   0  -3  -8  145.20   11.13
   0  -3  -8  150.33   11.90
   0   3   9   61.55    4.87
   0   3   9   51.29    6.34
   0   3   9   57.88    5.41
   0  -3  -9   61.57    5.96
   0  -3  -9   53.89    6.48
   0   3  10    5.90    1.64
   0   3  10    5.91    2.43
   0  -3 -10    5.76    2.48
   0   3  11   34.13    6.05
   0  -3 -11   35.94    5.87
   0   3  12   16.67    4.62
   0  -3 -12   19.65    4.53
   0   3  13    2.72    2.85
   0  -3 -13    5.30    2.19
   0   3  14    0.44    1.81
   0   3  15    4.06    2.55
   0   3  15    1.70    2.16
   0   3  16   -0.48    2.83
   0   3  16    1.01    1.50
   0   3  17    0.23    1.47
   0   3  17    0.88    1.26
   0   3  18    0.80    1.10
   0   3  18   -0.85    1.45
   0   4 -20    1.60    2.51
   0  -4  20    0.15    1.30
   0   4 -19    0.72    1.55
   0   4 -19    1.99    2.35
   0  -4  19   -1.61    1.37
   0   4 -18    4.99    2.85
   0   4 -18    4.99    2.66
   0  -4  18    1.60    2.51
   0   4 -17   25.28    9.32
   0   4 -17   24.06    5.46
   0  -4  17   20.57    5.09
   0   4 -16   20.45    7.06
   0   4 -16   16.94    4.77
   0  -4  16   11.97    4.31
   0   4 -15   29.86    5.68
   0   4 -15   29.40    9.33
   0  -4  15   24.81    5.46
   0   4 -14    0.00    1.47
   0   4 -14    0.54    1.44
   0  -4  14   -1.51    2.22
   0   4 -13    5.43    2.65
   0   4 -13    5.12    2.68
   0  -4  13    3.57    4.19
   0   4 -12   11.85    3.34
   0   4 -12   13.86    3.37
   0  -4  12   11.39    3.23
   0   4 -11    3.28    2.00
   0   4 -11    3.50    2.97
   0  -4  11    3.63    1.98
   0   4 -10   68.87    9.09
   0   4 -10   81.36   11.18
   0   4 -10   83.14    7.14
   0   4 -10   76.60    6.84
   0  -4  10   65.63    4.38
   0  -4  10   76.45   10.67
   0  -4  10   73.15    6.96
   0   4  -9   23.62    3.09
   0   4  -9   20.34    4.45
   0   4  -9   24.17    4.97
   0   4  -9   24.95    3.17
   0  -4   9   21.87    3.03
   0  -4   9   22.26    3.35
   0  -4   9   20.22    5.50
   0  -4   9   23.59    3.23
   0   4  -8  443.82   30.47
   0   4  -8  355.96   28.28
   0   4  -8  421.79   32.91
   0   4  -8  417.44   28.04
   0  -4   8  395.55   26.54
   0  -4   8  403.42   28.76
   0  -4   8  358.07   32.06
   0  -4   8  389.74   27.32
   0   4  -7   35.48    3.22
   0   4  -7   30.61    2.74
   0   4  -7   35.89    4.66
   0   4  -7   34.86    3.04
   0  -4   7   34.68    3.58
   0  -4   7   35.05    3.56
   0  -4   7   34.30    3.50
   0  -4   7   35.64    3.35
   0   4  -6  118.57    7.19
   0   4  -6   95.17    5.42
   0   4  -6  108.58    8.11
   0   4  -6  116.10    7.38
   0   4  -6  110.12    6.31
   0  -4   6  102.97    7.19
   0  -4   6   98.29    4.98
   0  -4   6  105.03    7.00
   0  -4   6  106.69    6.55
   0   4  -5   11.63    1.72
   0   4  -5    8.51    1.06
   0   4  -5    9.01    1.83
   0   4  -5   10.96    1.70
   0   4  -5   10.61    1.39
   0  -4   5   10.22    2.02
   0  -4   5    9.02    1.74
   0  -4   5    8.83    1.71
   0  -4   5    9.94    2.61
   0   4  -4   49.70    3.26
   0   4  -4   41.22    2.90
   0   4  -4   52.84    2.53
   0   4  -4   54.01    5.36
   0   4  -4   51.08    3.07
   0  -4   4   51.65    2.96
   0  -4   4   54.14    4.34
   0  -4   4   49.77    5.32
   0  -4   4   52.09    3.45
   0   4  -3   89.50    4.92
   0   4  -3   91.27    4.33
   0   4  -3   82.05    3.19
   0   4  -3   91.58    5.22
   0   4  -3   84.50    4.43
   0  -4   3   89.55    4.49
   0  -4   3   87.14    4.55
   0  -4   3   85.46    5.44
   0  -4   3   82.60    4.76
   0   4  -2   12.87    1.45
   0   4  -2   10.00    0.70
   0   4  -2   13.69    1.64
   0  -4   2   12.39    1.36
   0  -4   2   13.72    2.04
   0   4  -1  804.56   55.91
   0   4  -1  734.39   49.61
   0   4  -1  685.69   45.32
   0  -4   1  739.18   47.57
   0  -4   1  765.31   50.30
   0  -4   1  730.48   49.67
   0  -4   1  701.42   47.06
   0   4   0    0.01    0.88
   0   4   0   -1.72    0.69
   0  -4   0    0.65    0.93
   0  -4   0    0.53    0.69
   0   4   1 1272.86  108.72
   0   4   1 1545.32  134.81
   0   4   1 1441.61  124.78
   0   4   1 1491.16  129.21
   0  -4  -1 1691.12  143.76
   0  -4  -1 1518.18  133.19
   0   4   2  134.46    7.06
   0   4   2  143.04    9.56
   0   4   2  133.27   10.80
   0   4   2  149.09    8.99
   0  -4  -2  162.98    9.23
   0  -4  -2  148.20    9.65
   0   4   3    3.04    0.80
   0   4   3    3.70    1.08
   0   4   3    3.96    1.41
   0   4   3    4.34    1.15
   0   4   3    3.89    1.23
   0  -4  -3    5.54    1.21
   0  -4  -3    4.75    2.04
   0   4   4  181.56    9.57
   0   4   4  211.76   13.25
   0   4   4  194.43   10.99
   0   4   4  212.42   17.21
   0   4   4  191.79   12.25
   0   4   4  213.14   12.66
   0  -4  -4  235.29   13.21
   0  -4  -4  207.18   12.89
   0   4   5    2.35    0.71
   0   4   5    2.17    1.18
   0   4   5    3.24    1.07
   0   4   5    2.80    2.24
   0   4   5    2.22    1.21
   0   4   5    2.37    1.19
   0  -4  -5    3.91    1.22
   0  -4  -5    2.83    1.28
   0   4   6   53.30    5.00
   0   4   6   56.52    4.15
   0   4   6   55.17    5.51
   0   4   6   50.98    4.91
   0   4   6   62.30    7.05
   0  -4  -6   57.78    6.82
   0  -4  -6   53.15    7.53
   0   4   7   22.86    2.48
   0   4   7   15.77    3.30
   0   4   7   15.54    2.94
   0   4   7   19.04    2.66
   0  -4  -7   24.93    3.38
   0  -4  -7   19.04    3.14
   0   4   8    1.81    1.60
   0   4   8    1.42    1.44
   0   4   9   18.79    3.97
   0   4   9   18.88    3.64
   0   4  10  101.81   11.45
   0   4  10   89.57   10.50
   0   4  11   45.64    7.71
   0   4  11   42.35    7.36
   0  -4 -11   74.66    7.99
   0   4  12   23.81    5.69
   0   4  12   23.70    5.27
   0  -4 -12   34.33    5.07
   0   4  13    9.63    6.46
   0   4  13    9.06    3.64
   0  -4 -13   18.52    3.47
   0   4  14    3.41    2.29
   0  -4 -14    3.66    1.99
   0   4  15    0.16    1.45
   0   4  15    0.14    1.22
   0   4  16    0.01    1.43
   0   4  16   -1.74    2.00
   0   4  17   -1.15    1.34
   0   5 -19    2.31    1.79
   0   5 -19    1.01    1.68
   0  -5  19    0.25    1.65
   0   5 -18   -0.17    1.71
   0   5 -18   -0.44    1.62
   0  -5  18   -0.39    2.39
   0   5 -17    7.87    3.44
   0   5 -17    6.74    3.32
   0  -5  17    6.98    3.00
   0   5 -16   22.50    8.22
   0   5 -16   18.43    7.51
   0  -5  16   15.78    4.64
   0   5 -15   19.25    6.99
   0   5 -15   18.53    4.56
   0  -5  15   14.12    4.36
   0   5 -14    4.74    2.74
   0   5 -14    6.23    2.81
   0  -5  14    1.49    4.40
   0   5 -13    7.16    2.76
   0   5 -13    5.06    2.97
   0  -5  13    6.61    2.80
   0   5 -12   -0.53    1.54
   0   5 -12   -0.54    2.74
   0  -5  12   -0.82    1.59
   0   5 -11    0.21    1.21
   0   5 -11    0.99    1.17
   0  -5  11   -0.80    1.28
   0   5 -10   43.00    5.20
   0   5 -10   41.70    4.86
   0   5 -10   45.50    4.72
   0  -5  10   33.25    3.22
   0  -5  10   40.55    7.81
   0   5  -9   56.92    5.88
   0   5  -9   46.80    5.00
   0   5  -9   48.55    4.78
   0   5  -9   55.07    5.20
   0  -5   9   51.83    3.97
   0  -5   9   53.28    5.66
   0  -5   9   49.29    7.93
   0   5  -8    9.22    3.26
   0   5  -8    7.56    1.79
   0   5  -8    6.80    1.66
   0   5  -8    9.34    2.98
   0  -5   8    8.18    1.46
   0  -5   8    8.01    2.26
   0  -5   8    9.23    3.53
   0   5  -7    8.91    1.99
   0   5  -7    8.21    1.58
   0   5  -7    7.50    1.46
   0   5  -7    9.43    1.72
   0  -5   7    8.38    1.42
   0  -5   7    6.58    2.09
   0  -5   7    9.15    2.01
   0   5  -6    3.32    1.44
   0   5  -6    2.42    0.93
   0   5  -6    2.30    0.85
   0   5  -6    1.57    1.41
   0   5  -6    3.07    1.12
   0  -5   6    5.68    1.05
   0  -5   6    2.12    0.89
   0  -5   6    3.12    2.27
   0  -5   6    3.58    1.35
   0   5  -5  112.66   10.58
   0   5  -5   80.06    4.65
   0   5  -5  105.11    7.04
   0   5  -5   96.86    7.82
   0  -5   5   99.46    5.72
   0  -5   5   93.25    5.59
   0  -5   5   98.99    7.12
   0  -5   5  100.17    6.78
   0   5  -4   19.15    3.53
   0   5  -4   17.10    1.24
   0   5  -4   18.11    1.96
   0   5  -4   23.52    3.93
   0   5  -4   22.18    2.06
   0  -5   4   21.19    2.02
   0  -5   4   19.09    2.89
   0  -5   4   19.31    2.53
   0  -5   4   19.79    3.65
   0   5  -3    0.53    0.88
   0   5  -3    0.54    0.43
   0   5  -3    0.71    0.40
   0   5  -3    0.81    0.71
   0  -5   3    0.34    0.76
   0  -5   3    1.65    0.75
   0  -5   3    0.67    0.92
   0   5  -2  172.98   10.12
   0   5  -2  171.63   10.44
   0   5  -2  168.78   12.15
   0  -5   2  168.67    9.35
   0  -5   2  176.28   13.03
   0  -5   2  165.11    9.91
   0   5  -1   13.40    1.94
   0  -5   1   13.82    2.89
   0  -5   1   11.99    1.90
   0   5   0  280.59   16.62
   0   5   0  244.23   18.51
   0   5   0  237.30   15.00
   0   5   0  240.58   16.74
   0  -5   0  316.96   19.15
   0  -5   0  287.14   17.86
   0  -5   0  244.76   22.53
   0   5   1 1181.40  101.49
   0   5   1 1133.93   98.51
   0   5   1 1033.95   86.76
   0   5   1 1060.09   96.57
   0  -5  -1 1194.92   99.15
   0  -5  -1 1254.16  104.96
   0  -5  -1 1144.48   97.52
   0   5   2   22.61    3.73
   0   5   2   21.88    4.87
   0   5   2   18.17    2.63
   0   5   2   21.42    2.68
   0  -5  -2   25.60    2.80
   0  -5  -2   27.96    3.11
   0  -5  -2   23.51    3.09
   0   5   3  293.71   21.09
   0   5   3  277.75   19.82
   0   5   3  250.10   17.47
   0   5   3  291.21   19.18
   0  -5  -3  307.66   18.88
   0  -5  -3  279.96   22.75
   0   5   4   11.75    2.65
   0   5   4   12.03    2.33
   0   5   4   11.29    2.42
   0   5   4   10.46    3.26
   0   5   4   10.25    2.04
   0  -5  -4   13.34    2.16
   0  -5  -4   11.47    2.22
   0   5   5    3.22    1.69
   0   5   5    2.78    1.51
   0   5   5    2.70    1.62
   0   5   5    2.59    2.26
   0   5   5    2.48    1.34
   0  -5  -5    3.75    1.47
   0  -5  -5    2.73    1.49
   0   5   6    0.23    0.68
   0   5   6    0.36    1.86
   0   5   6    0.15    1.16
   0   5   6   -0.13    1.02
   0   5   6    1.20    1.62
   0   5   7    0.46    1.17
   0   5   7   -0.19    1.02
   0   5   8   19.47    4.15
   0   5   8   14.05    3.65
   0  -5  -8   28.86    4.38
   0   5   9   12.68    3.59
   0   5   9    7.64    3.11
   0  -5  -9   17.45    4.15
   0   5  10    4.23    2.66
   0   5  10    1.94    2.35
   0  -5 -10    8.53    2.81
   0   5  11    1.04    1.84
   0   5  11   -0.32    1.59
   0  -5 -11    1.66    1.75
   0   5  12    2.97    2.46
   0   5  12    1.78    2.07
   0  -5 -12    3.80    2.23
   0   5  13   -0.38    3.00
   0   5  13    4.73    4.02
   0  -5 -13   11.02    2.61
   0   5  14    0.51    1.75
   0   5  14    1.44    2.31
   0  -5 -14    1.72    2.60
   0   5  15   -0.64    1.41
   0   5  15   -0.29    1.09
   0  -5 -15   -0.95    1.13
   0   5  16   -2.43    2.56
   0   6 -19    0.34    2.26
   0   6 -19   -0.50    1.42
   0  -6  19   -1.31    1.41
   0   6 -18    5.90    2.67
   0   6 -18    8.91    2.78
   0  -6  18    5.09    4.16
   0   6 -17    0.55    1.73
   0   6 -17   -0.47    1.79
   0  -6  17    2.00    1.65
   0   6 -16   11.05    3.64
   0   6 -16   12.05    5.87
   0  -6  16   10.57    3.51
   0   6 -15   29.86    9.33
   0   6 -15   31.05    5.87
   0  -6  15   29.39    8.84
   0   6 -14    0.55    2.85
   0   6 -14    1.18    1.95
   0  -6  14    0.92    1.91
   0   6 -13    0.34    2.27
   0   6 -13   -0.64    1.54
   0  -6  13    1.00    1.53
   0   6 -12   21.79    4.38
   0   6 -12   28.87    7.05
   0  -6  12   28.98    4.96
   0   6 -11    0.32    1.52
   0   6 -11    0.19    1.31
   0   6 -11    0.60    1.35
   0  -6  11    0.97    2.48
   0   6 -10   52.01    6.61
   0   6 -10   34.23    5.08
   0   6 -10   53.10    5.70
   0  -6  10   56.25    6.35
   0   6  -9   81.56    8.03
   0   6  -9   52.36    5.77
   0   6  -9   47.26    7.54
   0   6  -9   77.67    6.77
   0  -6   9   75.13    7.40
   0   6  -8   17.18    5.12
   0   6  -8   17.44    4.25
   0  -6   8   17.70    3.14
   0   6  -7    2.43    1.61
   0   6  -7    2.12    1.24
   0  -6   7    1.85    1.16
   0  -6   7    3.21    1.58
   0  -6   7    1.19    1.49
   0   6  -6   12.70    2.74
   0   6  -6   14.19    2.55
   0   6  -6   11.98    2.02
   0  -6   6   12.11    2.00
   0  -6   6   11.13    2.60
   0  -6   6   10.86    3.81
   0   6  -5    2.99    1.69
   0   6  -5    3.20    1.54
   0   6  -5    3.71    1.94
   0  -6   5    2.58    1.23
   0  -6   5    2.74    1.20
   0  -6   5    1.56    1.56
   0  -6   5    3.41    1.44
   0   6  -4   15.05    3.82
   0   6  -4   34.74    4.75
   0   6  -4   12.55    2.24
   0  -6   4   15.70    2.16
   0  -6   4   13.91    3.25
   0  -6   4   26.09    4.64
   0  -6   4   12.55    2.54
   0   6  -3   47.71    4.53
   0  -6   3   44.98    5.96
   0  -6   3   45.85    3.95
   0  -6   3   46.06    4.38
   0   6  -2  499.74   36.82
   0   6  -2  463.41   38.10
   0  -6   2  610.07   48.80
   0  -6   2  530.95   38.16
   0  -6   2  676.72   47.95
   0   6  -1  204.21   13.86
   0   6  -1  164.39   13.19
   0   6  -1  253.76   17.77
   0  -6   1  241.23   15.86
   0  -6   1  219.33   19.29
   0   6   0   91.55    6.81
   0   6   0   93.39    7.74
   0   6   0   88.38    6.93
   0   6   0   76.52    9.92
   0  -6   0  100.33    7.68
   0  -6   0   94.69    7.34
   0  -6   0   92.85    7.47
   0   6   1    1.06    1.01
   0   6   1   -0.71    1.21
   0   6   1    0.45    0.97
   0   6   1    1.75    1.06
   0  -6  -1    1.47    1.13
   0  -6  -1    1.76    1.21
   0  -6  -1   -0.27    1.23
   0   6   2   -0.27    0.85
   0   6   2    0.34    1.04
   0   6   2   -0.40    1.47
   0   6   2   -0.25    0.92
   0  -6  -2    1.43    1.10
   0  -6  -2    1.64    1.64
   0   6   3   38.40    3.91
   0   6   3   47.92    5.50
   0   6   3   43.04    7.38
   0   6   3   33.58    4.38
   0   6   3   37.69    6.63
   0  -6  -3   51.10    5.28
   0  -6  -3   43.08    4.68
   0   6   4    2.22    1.32
   0   6   4    4.21    1.89
   0   6   4    3.70    2.97
   0   6   4    2.39    1.55
   0   6   4    3.30    1.50
   0  -6  -4    3.87    1.96
   0   6   5   35.99    4.04
   0   6   5   45.88    6.06
   0   6   5   35.19    5.04
   0  -6  -5   62.41    6.33
   0   6   6   16.15    3.75
   0   6   6   11.78    3.19
   0  -6  -6   23.49    4.04
   0   6   7    7.79    3.26
   0   6   7    6.32    2.67
   0  -6  -7   16.32    3.43
   0   6   8    0.78    1.62
   0   6   8    0.39    1.35
   0  -6  -8    0.19    1.70
   0   6   9    0.28    1.59
   0   6   9    0.15    1.33
   0  -6  -9    0.46    1.68
   0   6  10   48.57    8.67
   0   6  10   31.03    6.71
   0  -6 -10   93.28    9.05
   0   6  11   -0.20    1.50
   0   6  11   -0.08    1.26
   0  -6 -11   -0.17    1.53
   0   6  12   12.62    4.00
   0   6  12    7.95    3.20
   0  -6 -12   34.77    6.30
   0   6  13    0.83    2.71
   0   6  13    1.27    1.27
   0  -6 -13    0.73    1.72
   0   6  14    1.06    2.48
   0  -6 -14    1.88    1.53
   0   6  15    2.44    1.32
   0   7 -18    3.63    3.28
   0   7 -18    8.23    2.43
   0   7 -17    1.24    1.21
   0   7 -17    0.06    1.44
   0  -7  17   -0.31    1.34
   0   7 -16    0.89    1.49
   0   7 -16    0.18    2.67
   0  -7  16    0.87    1.61
   0   7 -15    0.71    1.67
   0   7 -15    0.51    1.83
   0  -7  15    3.08    2.95
   0   7 -14    2.65    2.16
   0   7 -14    2.94    2.36
   0  -7  14    3.13    2.36
   0   7 -13    1.14    1.92
   0  -7  13    0.91    1.87
   0   7 -12    8.00    4.50
   0  -7  12    8.87    3.15
   0   7 -11    2.14    2.33
   0   7 -11    1.91    1.87
   0  -7  11    4.27    3.41
   0   7 -10    3.07    2.29
   0   7 -10    2.28    1.75
   0  -7  10    1.05    2.02
   0   7  -9  177.83   16.74
   0   7  -9  154.87   13.17
   0  -7   9  162.54   14.84
   0   7  -8   50.59    9.56
   0   7  -8   48.55    7.68
   0  -7   8   49.20    6.37
   0   7  -7  111.16   10.53
   0   7  -7  100.20    8.40
   0   7  -6   87.86    9.06
   0   7  -6   95.53    8.62
   0   7  -6   79.38    6.82
   0   7  -5   31.43    4.79
   0   7  -5   30.09    4.52
   0   7  -5   25.63    5.02
   0   7  -4   59.20    6.80
   0   7  -4   55.72    8.79
   0   7  -4   54.14    7.13
   0  -7   4   52.88    8.08
   0   7  -3    7.20    3.14
   0   7  -3    5.74    2.01
   0   7  -3    4.65    1.68
   0   7  -3    3.64    1.87
   0  -7   3    5.27    1.81
   0   7  -2   12.60    2.82
   0   7  -2    9.89    1.85
   0   7  -2    0.85    1.37
   0   7  -2    0.87    1.59
   0  -7   2    0.59    1.66
   0   7  -1   14.72    2.79
   0   7  -1   15.13    2.94
   0   7  -1   11.34    3.60
   0   7  -1   11.22    4.24
   0  -7   1   18.52    3.07
   0   7   0    2.18    1.26
   0   7   0   -3.20    2.27
   0   7   0    1.13    1.12
   0   7   0    0.86    1.23
   0  -7   0    1.43    2.46
   0   7   1    9.91    2.26
   0   7   1   11.41    4.22
   0   7   1    7.17    2.06
   0  -7  -1   13.12    4.26
   0   7   2   22.12    3.20
   0   7   2   20.98    3.86
   0   7   2   14.98    3.09
   0  -7  -2   26.49    4.02
   0   7   3    0.54    1.19
   0   7   3    0.32    1.52
   0   7   3    1.32    1.18
   0  -7  -3    1.06    1.61
   0   7   4    1.51    1.20
   0   7   4    0.29    1.62
   0   7   4    1.98    2.06
   0  -7  -4    0.08    1.84
   0   7   5   -0.35    1.04
   0   7   5   -1.03    1.46
   0   7   5    0.15    2.01
   0  -7  -5    0.00    1.62
   0   7   6    5.32    2.59
   0   7   6    2.82    3.58
   0  -7  -6    7.53    2.96
   0   7   7    1.01    1.88
   0   7   7    0.69    1.62
   0  -7  -7    3.10    2.22
   0   7   8   10.88    3.56
   0   7   8    5.37    2.98
   0  -7  -8   19.75    4.03
   0   7   9    3.33    2.44
   0  -7  -9    4.56    4.52
   0   7  10   37.46    7.26
   0  -7 -10   91.59   14.05
   0   7  11    1.45    2.20
   0  -7 -11    7.03    2.72
   0   7  12    0.38    2.61
   0  -7 -12   18.53    3.17
   0   7  13    0.70    1.08
   0  -7 -13    0.19    1.32
   0   8 -17    4.34    2.09
   0  -8  17    6.77    2.11
   0   8 -16   -0.76    2.51
   0  -8  16    1.59    1.48
   0   8 -15    4.47    2.35
   0  -8  15    6.84    3.90
   0   8 -14    0.98    1.81
   0  -8  14    1.92    1.86
   0   8 -13    9.33    3.30
   0  -8  13   12.13    3.48
   0   8 -12   22.47    9.04
   0   8 -12   22.39    6.35
   0  -8  12   24.96    4.74
   0   8 -11    4.22    3.11
   0   8 -11    4.97    2.29
   0  -8  11    8.60    4.27
   0   8 -10    1.23    2.16
   0   8 -10    1.53    1.52
   0  -8  10   -0.03    1.74
   0   8  -9  166.24   17.36
   0   8  -9  145.77   12.84
   0  -8   9  143.47   14.46
   0   8  -8    1.66    3.75
   0   8  -8    1.63    2.35
   0  -8   8    0.41    1.83
   0   8  -7  504.04   44.58
   0   8  -7  434.63   35.09
   0   8  -6   15.63    3.98
   0   8  -6   14.01    3.54
   0   8  -6    8.87    2.68
   0   8  -5    3.93    2.97
   0   8  -5    7.90    2.84
   0   8  -4   83.77    9.48
   0   8  -4   77.64    8.31
   0   8  -4   61.96    9.06
   0   8  -3    6.72    2.70
   0   8  -3    3.52    1.73
   0  -8   3    5.36    3.76
   0   8  -2    9.15    5.13
   0   8  -2   10.41    2.78
   0   8  -2    5.80    2.06
   0  -8   2    8.45    2.57
   0   8  -1   17.47    5.95
   0   8  -1   11.87    3.26
   0   8  -1    8.66    2.40
   0  -8   1   15.52    3.22
   0   8   0   19.09    5.85
   0   8   0    7.94    3.26
   0   8   0    9.58    2.43
   0  -8   0   17.82    3.45
   0   8   1    0.57    2.29
   0   8   1    1.19    1.57
   0   8   1    1.32    1.93
   0  -8  -1    0.28    1.80
   0   8   2    3.31    2.98
   0   8   2    1.24    3.42
   0   8   2    2.40    1.69
   0  -8  -2    5.93    2.52
   0   8   3   11.22    5.29
   0   8   3    5.31    5.14
   0  -8  -3   14.18    6.05
   0   8   4    2.25    2.94
   0   8   4    0.80    1.87
   0  -8  -4    2.06    3.63
   0   8   5   -0.82    1.70
   0  -8  -5   -0.38    3.32
   0   8   6    7.40    3.13
   0  -8  -6    9.88    6.30
   0   8   7    0.09    1.30
   0  -8  -7   -0.54    2.70
   0   8   8   -2.73    1.80
   0  -8  -8    5.00    2.10
   0   8   9    0.94    1.76
   0  -8  -9    2.61    2.29
   0   8  10    0.26    1.54
   0  -8 -10    3.32    2.06
   0   8  11    0.43    1.68
   0  -8 -11    0.19    1.51
   0  -8 -12    0.54    1.36
   0   9 -16    0.42    1.02
   0  -9  16    0.70    1.11
   0   9 -15    0.25    2.10
   0  -9  15    1.53    1.39
   0   9 -14    0.43    1.41
   0  -9  14   -5.55    2.54
   0   9 -13    1.06    1.52
   0  -9  13    1.00    1.64
   0   9 -12    3.13    2.59
   0   9 -12    2.49    3.14
   0  -9  12    2.48    2.08
   0   9 -11   10.17    6.44
   0   9 -11    6.90    4.27
   0  -9  11   15.79    5.32
   0   9 -10   12.11    4.07
   0   9 -10    6.50    2.59
   0  -9  10   11.90    3.01
   0   9  -9   12.64    4.15
   0   9  -9    6.59    2.57
   0  -9   9   11.17    3.04
   0   9  -8   -1.83    2.31
   0   9  -8    1.60    1.30
   0  -9   8    0.50    1.60
   0   9  -7   36.99    8.97
   0   9  -7   22.69    5.80
   0  -9   7   29.28    4.89
   0   9  -6    7.63    2.94
   0   9  -6    3.30    1.83
   0   9  -5   28.46    5.16
   0   9  -5   22.90    4.40
   0   9  -5   15.07    3.17
   0   9  -4    7.12    2.66
   0   9  -4   -0.77    2.32
   0   9  -4    2.99    1.58
   0   9  -3    0.82    2.38
   0   9  -3    3.75    2.09
   0   9  -3    1.13    2.31
   0   9  -2    5.14    3.01
   0   9  -2    4.80    4.17
   0  -9   2    6.53    4.58
   0   9  -1    3.36    2.22
   0   9  -1   -0.77    3.09
   0  -9   1    0.53    3.17
   0   9   0   19.85    4.64
   0   9   0   14.99    4.14
   0  -9   0   21.13    4.55
   0   9   1    1.49    1.92
   0   9   1    0.97    1.74
   0  -9  -1    0.54    1.99
   0   9   2   24.01    5.22
   0   9   2   20.93    4.84
   0  -9  -2   32.76    5.77
   0   9   3    3.45    2.41
   0   9   3    3.06    2.37
   0  -9  -3    5.78    2.89
   0   9   4   -1.22    1.26
   0   9   4    0.63    1.31
   0  -9  -4    0.67    1.65
   0   9   5    7.29    2.94
   0  -9  -5   11.48    3.97
   0   9   6    0.16    1.30
   0  -9  -6    0.46    1.76
   0   9   7    0.46    1.32
   0  -9  -7    0.77    1.88
   0   9   8    0.44    1.57
   0  -9  -8    6.54    2.38
   0   9   9   -0.09    0.93
   0  -9  -9    1.34    1.51
   0  -9 -10   -0.99    1.62
   0 -10  14    2.80    2.50
   0  10 -13    1.32    1.56
   0  10 -13    1.61    1.19
   0 -10  13    2.51    1.47
   0  10 -12    4.92    2.05
   0  10 -12    0.30    1.28
   0 -10  12    1.36    1.53
   0  10 -11    3.38    2.87
   0  10 -11    0.11    1.04
   0 -10  11   -0.26    1.19
   0  10 -10   -0.20    2.10
   0  10 -10    1.62    1.90
   0 -10  10    1.63    2.54
   0  10  -9   -0.17    1.99
   0  10  -9    0.64    1.05
   0 -10   9    0.26    1.34
   0  10  -8   -0.51    2.12
   0 -10   8    0.81    1.38
   0  10  -7   15.80    5.63
   0 -10   7   16.54    3.56
   0  10  -6   -1.27    5.08
   0 -10   6    2.94    1.90
   0  10  -5    0.84    3.41
   0  10  -4    0.84    2.00
   0  10  -4    0.44    1.56
   0  10  -3    6.34    3.40
   0  10  -3    6.77    2.71
   0  10  -2   -0.04    1.79
   0  10  -2    0.36    1.41
   0  10  -1   13.45    4.04
   0  10  -1    9.65    3.25
   0 -10   1   13.40    3.82
   0  10   0    9.52    2.94
   0  10   0    1.21    3.95
   0 -10   0    2.33    3.01
   0  10   1    1.42    1.30
   0  10   1   -1.32    1.86
   0 -10  -1   -2.59    2.49
   0  10   2    2.92    2.13
   0  10   2    2.06    3.11
   0 -10  -2    2.64    3.84
   0  10   3    0.65    2.83
   0  10   3    1.53    1.67
   0 -10  -3    5.31    3.53
   0  10   4    0.81    2.68
   0  10   4    1.56    1.40
   0 -10  -4   -0.79    3.14
   0  10   5   -0.09    1.06
   0 -10  -5   -1.34    2.53
   0  10   6   -0.10    0.89
   0 -10  -6    2.10    2.33
   0 -10  -7   18.59    6.85
   0 -10  -8   -0.20    2.25
   0  11 -11    1.13    1.47
   0 -11  11   -0.79    0.94
   0  11 -10   16.15    5.76
   0 -11  10    7.58    2.11
   0  11  -9    9.24    3.16
   0 -11   9    4.86    3.37
   0  11  -8    1.50    2.46
   0 -11   8    2.23    2.34
   0  11  -7    0.80    2.27
   0 -11   7    0.87    1.24
   0  11  -6   -0.75    2.12
   0 -11   6    0.98    1.18
   0  11  -5    0.74    2.14
   0 -11   5    0.49    1.19
   0  11  -4    5.43    2.86
   0 -11   4    1.79    1.60
   0  11  -3    0.53    2.07
   0  11  -2    0.84    3.44
   0  11  -2   -1.00    1.30
   0  11  -1    0.43    3.15
   0  11  -1    0.61    1.21
   0  11   0    3.15    4.19
   0  11   0    2.49    1.64
   0 -11   0    4.07    2.01
   0  11   1    4.52    2.61
   0  11   1    3.24    1.80
   0 -11  -1    7.44    2.37
   0  11   2    1.41    1.36
   0  11   2   -0.33    0.95
   0 -11  -2    1.27    1.43
   0  11   3    0.33    1.25
   0  11   3    1.33    0.92
   0 -11  -3    2.16    1.62
   0 -11  -4   -0.30    1.34
   0  12  -7   -4.02    4.16
   0  12  -6   23.61    4.83
   0  12  -5    0.86    1.84
   0  12  -4    2.33    2.17
   0  12  -3   -2.50    2.15
   0  12  -2    1.51    1.88
   0  12  -1    1.77    1.77
  -1  12   1   22.80    4.12
  -1  12   0   -2.24    3.35
  -1  12  -1   60.53   12.49
  -1  12  -2   14.35    7.24
  -1  12  -3   -6.11    5.10
  -1  12  -4   -0.15    1.59
  -1  12  -5   -6.27    3.10
  -1  12  -6    0.98    1.99
  -1  12  -7    3.83    2.55
  -1  12  -8   11.23    3.21
   1 -11  -5    1.47    1.89
   1 -11  -4    1.34    1.71
  -1  11   4   -0.04    1.76
   1 -11  -3    0.24    1.80
  -1  11   3    1.03    1.34
   1 -11  -2    3.12    1.98
  -1  11   2    0.39    1.68
  -1  11   2    0.66    1.57
   1 -11  -1    0.99    1.55
  -1  11   1   -0.28    1.42
  -1  11   1    0.09    1.34
   1 -11   0    0.68    1.51
  -1  11   0   -0.03    1.50
  -1  11   0   -0.05    1.42
   1 -11   1    2.57    3.22
  -1  11  -1    2.69    2.09
  -1  11  -1    0.99    1.22
   1 -11   2    8.79    4.60
  -1  11  -2   12.72    3.22
  -1  11  -2    3.98    1.88
  -1  11  -3    1.60    2.26
  -1  11  -3    1.81    1.33
  -1  11  -4   -0.77    1.83
  -1  11  -4    1.01    1.09
  -1  11  -5    5.12    2.15
  -1  11  -5    0.04    1.32
  -1  11  -6    3.15    2.99
  -1  11  -6   -0.28    1.86
  -1  11  -7    1.96    3.27
  -1  11  -7    0.36    1.12
  -1  11  -8   -0.32    1.50
  -1  11  -8    0.16    0.91
  -1  11  -9    2.36    2.41
  -1  11  -9    3.55    1.55
  -1  11 -10    1.13    1.30
  -1  11 -10   -0.32    0.93
  -1  11 -11    1.15    1.49
  -1  11 -11    0.91    2.06
  -1  11 -12   -1.49    1.24
   1 -10  -8    0.50    1.69
   1 -10  -7   -0.91    1.49
  -1  10   7    0.09    0.62
   1 -10  -6    9.21    2.59
  -1  10   6    0.61    1.20
   1 -10  -5   -0.22    2.98
  -1  10   5    0.23    1.12
  -1  10   5    0.20    0.90
   1 -10  -4    3.88    4.14
  -1  10   4    2.46    1.79
  -1  10   4    0.87    1.35
   1 -10  -3    1.62    1.92
  -1  10   3    0.59    1.48
  -1  10   3   -0.35    1.08
   1 -10  -2   -2.81    1.84
  -1  10   2   -0.37    1.50
  -1  10   2    1.27    1.07
   1 -10  -1   -0.24    2.01
  -1  10   1   -1.88    2.92
  -1  10   1   -0.07    1.19
   1 -10   0   26.04    5.40
  -1  10   0   22.16    7.97
  -1  10   0   13.25    3.40
   1 -10   1    1.75    1.77
  -1  10  -1    2.13    1.76
  -1  10  -1   -1.43    1.22
   1 -10   2   16.76    4.41
  -1  10  -2   17.11    4.63
  -1  10  -2    9.96    5.13
   1 -10   3    0.20    3.05
  -1  10  -3    0.58    2.03
  -1  10  -3    1.20    2.22
  -1  10  -4    1.59    1.66
  -1  10  -4   -0.91    1.12
  -1  10  -5    2.33    1.53
  -1  10  -5   -1.17    1.06
  -1  10  -6    6.91    3.13
  -1  10  -6    3.97    2.11
  -1  10  -7   13.33    3.95
  -1  10  -7   11.27    2.91
  -1  10  -8   30.12    7.58
  -1  10  -8    5.13    4.94
   1 -10   9    5.22    2.31
  -1  10  -9   10.69    3.67
  -1  10  -9   11.27    2.66
   1 -10  10    3.02    1.79
  -1  10 -10    5.78    2.64
  -1  10 -10    4.48    2.04
   1 -10  11    1.12    1.29
  -1  10 -11    0.55    1.73
  -1  10 -11    2.23    1.51
   1 -10  12    1.06    1.52
  -1  10 -12   -1.10    1.83
   1 -10  13    0.58    0.78
  -1  10 -13   -0.84    1.13
  -1  10 -14    1.22    1.45
   1  -9 -10   -3.48    4.04
   1  -9  -9    2.20    3.00
  -1   9   9    0.78    1.06
   1  -9  -8   12.97    4.71
  -1   9   8    3.03    1.83
   1  -9  -7    3.73    2.31
  -1   9   7    0.38    1.50
   1  -9  -6   -0.13    2.30
  -1   9   6    0.16    2.76
  -1   9   6   -2.70    1.61
   1  -9  -5    1.02    1.97
  -1   9   5    0.24    1.99
  -1   9   5    0.29    1.38
   1  -9  -4    5.54    3.00
  -1   9   4    3.56    2.05
  -1   9   4    3.51    2.18
   1  -9  -3   14.00    3.96
  -1   9   3   10.29    2.96
  -1   9   3    6.24    2.98
   1  -9  -2    1.49    2.03
  -1   9   2   -0.07    1.57
  -1   9   2    1.83    2.53
   1  -9  -1    1.45    3.32
  -1   9   1    0.89    1.67
  -1   9   1    0.86    2.46
  -1   9   0    2.77    2.01
  -1   9   0    2.15    1.80
   1  -9   1    0.65    1.60
  -1   9  -1    0.31    1.26
  -1   9  -1   -0.45    1.14
   1  -9   2   10.90    3.48
  -1   9  -2    8.12    2.88
  -1   9  -2    7.38    2.61
   1  -9   3   -0.06    2.00
  -1   9  -3    0.31    2.76
  -1   9  -3    2.22    1.54
   1  -9   4    0.58    1.83
  -1   9  -4    2.09    3.37
  -1   9  -4    0.87    2.44
  -1   9  -5   -0.71    1.95
  -1   9  -5   -0.62    2.29
   1  -9   6   10.71    2.84
  -1   9  -6   17.00    4.10
  -1   9  -6   14.27    3.09
   1  -9   7    0.78    1.43
  -1   9  -7    1.41    2.04
  -1   9  -7    1.50    1.59
   1  -9   8    1.48    1.53
  -1   9  -8    0.89    2.08
  -1   9  -8    1.97    1.68
   1  -9   9   14.39    5.83
  -1   9  -9   27.83    8.57
  -1   9  -9   24.27    6.48
   1  -9  10   -0.80    1.19
  -1   9 -10    0.45    1.60
  -1   9 -10    0.30    1.32
   1  -9  11    6.66    2.60
  -1   9 -11   11.49    3.02
   1  -9  12    1.43    1.58
  -1   9 -12    1.90    1.76
   1  -9  13    1.38    2.52
  -1   9 -13    2.78    3.33
   1  -9  14    0.15    1.10
  -1   9 -14    0.90    1.47
   1  -9  15    1.45    1.24
  -1   9 -15    2.33    1.72
  -1   9 -16   -0.29    1.18
   1  -8 -12   -3.91    2.85
  -1   8  12   -0.95    0.99
   1  -8 -11    1.53    2.53
  -1   8  11    0.37    1.08
   1  -8 -10    5.93    2.44
  -1   8  10    1.15    1.72
   1  -8  -9    9.77    3.53
  -1   8   9    3.62    3.94
   1  -8  -8   19.69    4.84
  -1   8   8    7.38    5.47
   1  -8  -7    6.04    3.22
  -1   8   7    2.69    3.83
   1  -8  -6   49.03    7.06
  -1   8   6   26.93    4.51
  -1   8   6   25.96    8.12
   1  -8  -5   46.46    7.15
  -1   8   5   29.95    4.83
  -1   8   5   26.61    5.40
   1  -8  -4    2.67    2.48
  -1   8   4    1.42    1.70
  -1   8   4    1.97    1.83
   1  -8  -3   33.58    5.88
  -1   8   3   26.57    4.39
  -1   8   3   23.33    4.66
   1  -8  -2    2.05    1.86
  -1   8   2    0.16    1.41
  -1   8   2    1.01    1.28
  -1   8   2    0.22    1.47
   1  -8  -1    4.95    2.25
  -1   8   1    2.01    1.77
  -1   8   1    1.47    1.58
  -1   8   1    1.98    1.80
   1  -8   0    1.19    1.43
  -1   8   0    0.86    1.18
  -1   8   0   -0.47    1.03
  -1   8   0   -0.52    1.19
   1  -8   1   19.67    5.93
  -1   8  -1   15.27    3.22
  -1   8  -1   13.92    4.53
  -1   8  -1   14.11    4.86
   1  -8   2    0.24    2.25
  -1   8  -2    0.73    1.82
  -1   8  -2    3.89    2.63
  -1   8  -2    5.63    1.87
   1  -8   3   17.10    4.21
  -1   8  -3   13.78    3.69
  -1   8  -3   31.61    3.90
   1  -8   4  119.41   11.43
  -1   8  -4  116.79   10.32
  -1   8  -4  104.37    9.58
  -1   8  -4  122.68   10.79
   1  -8   5    1.47    3.08
  -1   8  -5    2.62    2.83
  -1   8  -5    2.32    2.98
   1  -8   6   57.70    6.49
  -1   8  -6   85.22    9.08
  -1   8  -6   74.06    7.32
   1  -8   7    0.24    1.28
  -1   8  -7    0.16    1.70
  -1   8  -7    1.49    1.46
   1  -8   8   45.66    6.10
  -1   8  -8   57.93    7.29
  -1   8  -8   60.71    6.78
   1  -8   9  122.90   16.56
  -1   8  -9  139.11   18.41
  -1   8  -9  162.62   18.23
   1  -8  10   12.29    3.43
  -1   8 -10   13.61    4.10
  -1   8 -10   17.66    3.74
   1  -8  11   56.97    7.74
  -1   8 -11   80.66    8.55
   1  -8  12    3.28    2.18
  -1   8 -12    4.41    2.34
   1  -8  13    4.04    3.71
  -1   8 -13    5.92    4.14
   1  -8  14    3.84    2.11
  -1   8 -14    5.36    2.71
   1  -8  15    0.06    1.37
  -1   8 -15    2.22    1.77
   1  -8  16    0.64    1.14
  -1   8 -16    0.43    1.53
   1  -8  17    5.44    3.83
  -1   8 -17   20.92    5.12
   1  -7 -13   -1.02    1.74
  -1   7  13    0.74    1.66
   1  -7 -12    5.81    2.31
  -1   7  12    2.55    2.06
   1  -7 -11    6.63    2.62
  -1   7  11    1.74    2.26
   1  -7 -10   28.69    5.28
  -1   7  10   14.33    4.47
   1  -7  -9    4.17    2.55
  -1   7   9    0.65    2.17
   1  -7  -8  104.92   12.11
  -1   7   8   62.19   10.22
   1  -7  -7   68.90    8.15
  -1   7   7   31.00    4.59
  -1   7   7   24.09    5.30
  -1   7   7   38.28    6.69
   1  -7  -6   29.92    5.17
  -1   7   6   17.68    5.22
  -1   7   6    7.43    3.39
  -1   7   6   18.12    4.57
   1  -7  -5    1.36    2.17
  -1   7   5   -0.93    2.43
  -1   7   5    1.22    1.47
  -1   7   5    2.58    1.89
   1  -7  -4    1.79    2.04
  -1   7   4    1.39    1.40
  -1   7   4    0.80    1.70
   1  -7  -3   42.58    5.73
  -1   7   3   29.47    5.51
  -1   7   3   24.93    4.11
  -1   7   3   33.49    7.64
   1  -7  -2    8.55    2.53
   1  -7  -2    3.50    1.58
  -1   7   2    4.33    2.59
  -1   7   2    4.12    2.77
  -1   7   2    6.11    3.23
   1  -7  -1    0.44    1.45
   1  -7  -1    1.76    1.49
  -1   7   1   -1.78    1.59
  -1   7   1    1.03    1.64
  -1   7   1    0.66    1.21
   1  -7   0   39.74    5.04
   1  -7   0   27.94    3.84
  -1   7   0   45.50    6.81
  -1   7   0   36.18    4.62
   1  -7   1   39.19    4.74
   1  -7   1   28.45    3.92
  -1   7  -1   37.98    4.36
  -1   7  -1   29.00    3.95
  -1   7  -1   40.08    4.82
   1  -7   2   28.44    6.87
   1  -7   2   33.49    5.51
  -1   7  -2   30.77    4.22
  -1   7  -2   41.10    5.67
  -1   7  -2   38.45    6.67
   1  -7   3    0.47    1.24
   1  -7   3   -0.65    0.93
  -1   7  -3    1.04    1.06
  -1   7  -3   -1.17    0.92
  -1   7  -3    2.16    1.09
   1  -7   4   29.47    3.82
   1  -7   4   18.89    3.02
  -1   7  -4   22.49    3.32
  -1   7  -4   21.21    2.96
  -1   7  -4   23.68    3.33
   1  -7   5   22.19    5.47
   1  -7   5   15.67    4.54
  -1   7  -5   21.48    3.16
  -1   7  -5   22.24    3.05
  -1   7  -5   20.55    3.32
   1  -7   6    1.09    1.42
  -1   7  -6    1.18    2.09
  -1   7  -6    1.82    2.18
   1  -7   7    1.58    1.31
  -1   7  -7    1.83    1.63
  -1   7  -7    0.99    1.45
   1  -7   8   10.40    2.57
  -1   7  -8   13.22    3.02
  -1   7  -8   14.53    2.89
   1  -7   9  179.17   20.12
  -1   7  -9  192.50   16.01
  -1   7  -9  227.02   17.35
   1  -7  10   42.92    5.89
  -1   7 -10   40.19    6.09
  -1   7 -10   55.01    9.48
   1  -7  11  172.28   17.17
  -1   7 -11  226.84   19.14
   1  -7  12   23.53    4.82
  -1   7 -12   20.84    4.41
  -1   7 -12   36.17    5.28
   1  -7  13    4.71    4.02
  -1   7 -13    2.65    2.36
  -1   7 -13   11.52    4.28
   1  -7  14    3.55    1.91
  -1   7 -14    0.42    1.96
  -1   7 -14    2.30    2.36
   1  -7  15    0.73    1.51
  -1   7 -15    0.20    2.43
  -1   7 -15    0.66    1.84
   1  -7  16    0.19    1.45
  -1   7 -16    3.99    2.68
  -1   7 -16    0.50    1.86
   1  -7  17   -1.05    1.92
  -1   7 -17    0.05    1.32
  -1   7 -17   -0.54    2.43
   1  -7  18    5.53    1.86
  -1   7 -18    3.87    1.97
  -1   7 -18    5.23    2.45
  -1   6  15    2.86    1.53
   1  -6 -14   -0.15    1.62
  -1   6  14    0.16    0.90
  -1   6  14    0.44    1.19
   1  -6 -13    2.11    1.60
  -1   6  13    1.14    2.35
  -1   6  13    0.22    1.70
   1  -6 -12    0.92    2.07
  -1   6  12    5.50    1.84
  -1   6  12   -1.49    2.05
   1  -6 -11    2.72    2.09
  -1   6  11    1.00    1.80
  -1   6  11    1.36    2.07
   1  -6 -10    1.08    1.77
  -1   6  10    0.69    1.44
  -1   6  10   -2.40    2.68
   1  -6  -9   66.52   11.15
  -1   6   9   24.89    5.70
  -1   6   9   42.79   10.50
   1  -6  -8  614.49   59.47
  -1   6   8  317.14   34.13
  -1   6   8  473.20   53.37
   1  -6  -7  103.91   13.41
  -1   6   7   57.61    5.44
  -1   6   7   56.76    7.53
  -1   6   7   79.90   12.83
   1  -6  -6   -0.95    2.37
  -1   6   6    0.96    0.85
  -1   6   6   -0.25    1.17
  -1   6   6    0.08    1.39
   1  -6  -5   23.93    5.93
   1  -6  -5   15.60    2.71
  -1   6   5   18.32    2.43
  -1   6   5   16.04    4.64
  -1   6   5   18.31    3.55
   1  -6  -4   25.42    5.67
   1  -6  -4   16.34    3.95
  -1   6   4   17.77    2.45
  -1   6   4   15.52    4.24
  -1   6   4   19.13    3.42
   1  -6  -3    0.84    2.43
   1  -6  -3    0.99    1.59
   1  -6  -3    0.16    0.89
  -1   6   3    0.30    0.91
  -1   6   3    1.93    1.54
  -1   6   3    1.21    1.01
  -1   6   3    0.87    1.27
  -1   6   3    1.58    1.35
   1  -6  -2    0.34    0.87
   1  -6  -2    0.05    0.78
  -1   6   2    1.27    0.84
  -1   6   2    0.65    1.42
  -1   6   2    0.58    0.89
  -1   6   2   -0.30    1.15
  -1   6   2    1.55    1.21
   1  -6  -1   70.94    6.47
   1  -6  -1   59.36    4.78
  -1   6   1   61.94    4.84
  -1   6   1   68.04    7.11
  -1   6   1   56.69    4.79
  -1   6   1   60.98    8.67
  -1   6   1   63.45    8.98
   1  -6   0   26.70    3.60
   1  -6   0   17.80    2.66
  -1   6   0   23.83    2.68
  -1   6   0   23.15    3.98
  -1   6   0   29.96    3.49
  -1   6   0   34.43    4.12
   1  -6   1   44.82    4.45
   1  -6   1   24.78    4.86
  -1   6  -1   45.56    3.52
  -1   6  -1   32.72    3.47
  -1   6  -1   38.09    4.08
  -1   6  -1   39.05    4.49
   1  -6   2    1.92    1.64
   1  -6   2    2.39    2.72
   1  -6   2    6.98    1.40
  -1   6  -2    3.22    2.08
   1  -6   3   17.30    2.74
   1  -6   3   18.23    2.95
   1  -6   3   13.91    2.17
   1  -6   3   19.33    3.02
  -1   6  -3   23.25    2.57
  -1   6  -3   15.08    2.15
  -1   6  -3   17.04    3.95
   1  -6   4   51.69    4.84
   1  -6   4   53.63    5.01
   1  -6   4   47.33    6.10
   1  -6   4   50.71    5.35
  -1   6  -4   54.07    4.51
  -1   6  -4   52.71    4.29
  -1   6  -4   50.78    4.54
   1  -6   5   21.22    2.95
   1  -6   5   23.08    4.94
   1  -6   5   20.86    2.76
   1  -6   5   21.67    3.40
  -1   6  -5   23.85    2.74
  -1   6  -5   24.22    2.77
  -1   6  -5   25.98    3.06
   1  -6   6    6.94    1.74
   1  -6   6    8.23    1.94
   1  -6   6    7.18    1.67
   1  -6   6    6.63    1.77
   1  -6   6    9.36    3.55
  -1   6  -6    5.17    1.18
  -1   6  -6    5.20    2.37
  -1   6  -6   10.09    3.07
   1  -6   7   11.12    2.09
   1  -6   7   10.94    2.27
   1  -6   7   12.35    2.18
   1  -6   7   12.41    3.71
  -1   6  -7   15.20    4.09
  -1   6  -7    9.24    1.67
  -1   6  -7    9.17    2.07
  -1   6  -7   15.92    2.40
   1  -6   8   30.20    3.47
   1  -6   8   31.42    3.73
  -1   6  -8   31.85    3.73
  -1   6  -8   25.25    3.03
  -1   6  -8   23.63    3.72
  -1   6  -8   37.06    3.97
   1  -6   9   31.80    6.43
  -1   6  -9   34.48    4.00
  -1   6  -9   31.65    3.71
  -1   6  -9   42.72    6.82
   1  -6  10   32.53    4.84
  -1   6 -10   30.05    4.06
  -1   6 -10   44.63    5.10
   1  -6  11    5.07    2.57
  -1   6 -11    6.09    3.48
  -1   6 -11    9.17    2.72
   1  -6  12    6.52    2.77
  -1   6 -12    8.25    4.84
  -1   6 -12    7.66    2.93
   1  -6  13   35.32    9.30
  -1   6 -13   38.70    6.27
  -1   6 -13   49.10    9.75
   1  -6  14    4.58    2.22
  -1   6 -14    1.19    2.42
  -1   6 -14    3.73    2.68
   1  -6  15   -0.84    1.23
  -1   6 -15    1.20    1.34
  -1   6 -15   -0.22    1.45
   1  -6  16    3.04    1.94
  -1   6 -16    1.75    2.12
  -1   6 -16    1.45    2.34
   1  -6  17    6.47    4.25
  -1   6 -17    9.17    5.44
  -1   6 -17   11.18    5.66
   1  -6  18    1.52    1.53
  -1   6 -18    0.75    1.81
  -1   6 -18    1.66    1.85
   1  -6  19    4.57    1.79
  -1   6 -19    1.51    2.12
  -1   6 -19    8.40    2.20
  -1   5  16   -0.37    1.15
  -1   5  15   -1.14    1.19
  -1   5  15    1.70    2.41
  -1   5  14   -0.77    1.30
  -1   5  14    1.06    2.51
   1  -5 -13    1.20    1.42
  -1   5  13   -0.56    1.45
  -1   5  13    0.48    1.69
   1  -5 -12   16.64    3.40
  -1   5  12    7.36    3.22
  -1   5  12    6.33    3.70
   1  -5 -11    5.44    3.04
  -1   5  11    0.71    1.68
  -1   5  11   -0.92    1.89
   1  -5 -10   39.56    7.46
  -1   5  10   11.73    7.06
  -1   5  10   19.20    5.14
   1  -5  -9   40.04    5.46
  -1   5   9   14.29    7.16
  -1   5   9   20.84    5.29
   1  -5  -8    7.86    2.22
  -1   5   8    2.58    1.20
  -1   5   8    5.97    3.11
  -1   5   8    4.22    2.30
   1  -5  -7   11.10    2.39
   1  -5  -7    7.74    1.93
  -1   5   7    4.94    1.38
  -1   5   7    6.04    4.14
  -1   5   7    5.88    2.07
  -1   5   7    7.02    2.43
   1  -5  -6   39.70    4.36
   1  -5  -6   26.19    3.35
  -1   5   6   29.78    2.89
  -1   5   6   33.01    4.97
  -1   5   6   28.43    3.78
  -1   5   6   33.68    4.41
   1  -5  -5    5.63    1.80
   1  -5  -5    5.48    1.57
   1  -5  -5    3.67    1.29
  -1   5   5    3.21    1.82
  -1   5   5    6.65    2.14
  -1   5   5    2.83    1.47
  -1   5   5    5.43    1.78
  -1   5   5    3.61    1.78
   1  -5  -4    9.61    2.18
   1  -5  -4   10.35    2.56
   1  -5  -4    8.00    2.35
  -1   5   4    7.39    2.24
  -1   5   4    8.78    3.67
  -1   5   4    6.77    1.66
  -1   5   4    7.23    3.36
  -1   5   4   10.08    2.22
   1  -5  -3    0.91    1.17
   1  -5  -3    1.91    0.87
   1  -5  -3    0.45    0.77
  -1   5   3    1.70    1.32
  -1   5   3    2.33    1.35
  -1   5   3    0.50    0.86
  -1   5   3    1.70    1.16
  -1   5   3    0.56    1.21
   1  -5  -2  108.27   10.82
   1  -5  -2  114.85    6.41
   1  -5  -2  100.67    7.64
  -1   5   2  101.27    8.34
  -1   5   2  114.46    9.10
  -1   5   2  100.02    8.32
  -1   5   2  101.92    7.81
  -1   5   2  112.82    8.17
   1  -5  -1   38.61    6.29
   1  -5  -1   41.14    2.91
   1  -5  -1   32.04    2.83
  -1   5   1   34.33    3.13
  -1   5   1   47.73    4.51
  -1   5   1   27.99    2.86
  -1   5   1   30.85    3.78
  -1   5   1   42.83    4.48
   1  -5   0  874.01   65.58
  -1   5   0  881.03   66.53
  -1   5   0  726.70   65.03
  -1   5   0  709.33   58.85
   1  -5   1 1560.72  142.90
   1  -5   1 1626.28  150.96
   1  -5   1 1589.47  139.20
  -1   5  -1 1694.81  147.76
  -1   5  -1 1206.05   98.30
  -1   5  -1 1664.18  144.45
  -1   5  -1 1551.23  142.75
   1  -5   2    7.76    1.73
   1  -5   2    8.45    1.79
  -1   5  -2    7.98    1.45
  -1   5  -2    6.19    0.72
  -1   5  -2    5.22    0.83
   1  -5   3  567.36   38.90
   1  -5   3  578.57   41.17
   1  -5   3  540.67   35.72
   1  -5   3  540.03   40.36
  -1   5  -3  553.28   38.96
  -1   5  -3  589.68   37.56
  -1   5  -3  570.14   45.64
   1  -5   4   41.71    3.50
   1  -5   4   42.63    3.87
   1  -5   4   35.73    3.21
   1  -5   4   42.85    6.48
  -1   5  -4   47.36    5.07
  -1   5  -4   35.30    2.61
  -1   5  -4   35.17    4.14
  -1   5  -4   43.54    3.14
  -1   5  -4   40.70    3.66
   1  -5   5  102.30    6.74
   1  -5   5  105.04   10.14
   1  -5   5   93.92    8.85
   1  -5   5  108.30    7.78
  -1   5  -5  112.87    6.60
  -1   5  -5  105.89    6.27
  -1   5  -5   91.79    6.19
  -1   5  -5  112.79    7.17
   1  -5   6    6.86    1.32
   1  -5   6    3.68    1.51
   1  -5   6    4.32    1.40
   1  -5   6    3.51    1.42
   1  -5   6    4.48    1.82
  -1   5  -6    6.23    1.24
  -1   5  -6    5.98    2.01
  -1   5  -6    3.22    1.39
  -1   5  -6    5.82    2.53
   1  -5   7  191.29   12.15
   1  -5   7  187.68   16.82
   1  -5   7  193.33   13.15
   1  -5   7  179.83   12.92
   1  -5   7  210.99   15.29
  -1   5  -7  228.35   17.61
  -1   5  -7  213.11   16.45
  -1   5  -7  185.53   13.70
  -1   5  -7  223.57   14.47
   1  -5   8  133.03    8.71
   1  -5   8  118.51    8.65
   1  -5   8  136.48   13.53
   1  -5   8  126.87   10.00
   1  -5   8  149.42   11.72
  -1   5  -8  144.54    9.60
  -1   5  -8  154.45   10.03
  -1   5  -8  128.61   10.81
  -1   5  -8  155.60   10.83
   1  -5   9    1.13    0.95
   1  -5   9    1.16    1.41
   1  -5   9    1.44    1.36
  -1   5  -9    0.85    1.76
  -1   5  -9    1.32    1.27
  -1   5  -9    3.01    1.53
  -1   5  -9    2.68    2.31
   1  -5  10    5.22    2.09
  -1   5 -10    5.88    1.98
  -1   5 -10    5.86    2.14
   1  -5  11   13.63    3.45
  -1   5 -11   19.56    3.37
  -1   5 -11   20.10    3.63
   1  -5  12    1.00    2.59
  -1   5 -12    0.74    1.55
  -1   5 -12    1.12    1.66
   1  -5  13    5.09    4.63
  -1   5 -13    9.58    5.48
  -1   5 -13   11.18    5.58
   1  -5  14    3.30    2.43
  -1   5 -14    4.98    2.76
  -1   5 -14    5.64    2.85
   1  -5  15    0.69    1.86
  -1   5 -15    2.22    2.10
  -1   5 -15    0.86    2.09
   1  -5  16    5.36    2.91
  -1   5 -16    4.78    3.27
  -1   5 -16   12.69    3.48
   1  -5  17    0.56    2.44
  -1   5 -17   -0.03    1.58
  -1   5 -17    0.68    2.85
  -1   5 -18   13.34    5.88
  -1   5 -18    8.77    3.47
   1  -5  19   -0.12    1.74
  -1   5 -19    4.88    2.09
  -1   4  17   -0.77    0.78
  -1   4  17    4.04    1.84
  -1   4  16    1.66    2.81
  -1   4  16   37.67    3.72
  -1   4  15    1.42    1.79
  -1   4  15    2.64    2.06
  -1   4  14    9.28    5.05
  -1   4  14   11.32    3.78
  -1   4  13   16.91    4.63
  -1   4  13   33.34    5.71
   1  -4 -12   72.08   11.39
  -1   4  12   48.47    7.70
  -1   4  12   68.11    9.33
   1  -4 -11   93.44    8.99
  -1   4  11   66.49    9.09
  -1   4  11   90.21   11.33
   1  -4 -10   55.68    5.89
  -1   4  10   36.18    5.85
  -1   4  10   47.13    7.04
   1  -4  -9    1.05    1.26
  -1   4   9    0.16    1.25
  -1   4   9    0.45    1.51
   1  -4  -8   37.56    4.02
   1  -4  -8   41.76    5.38
   1  -4  -8   27.06    3.43
  -1   4   8   22.28    3.71
  -1   4   8   27.16    4.32
  -1   4   8   25.70    3.74
  -1   4   8   31.36    4.42
   1  -4  -7    1.72    1.32
   1  -4  -7    1.24    1.13
   1  -4  -7   -0.02    1.75
  -1   4   7    1.80    0.83
  -1   4   7    1.36    2.37
  -1   4   7    0.78    1.17
  -1   4   7    2.25    1.43
  -1   4   7    2.04    1.41
   1  -4  -6    2.35    1.33
   1  -4  -6    2.70    1.15
   1  -4  -6    1.84    1.06
  -1   4   6    1.30    0.89
  -1   4   6    3.69    1.56
  -1   4   6    1.96    1.16
  -1   4   6    2.84    1.44
  -1   4   6    2.89    1.45
   1  -4  -5    6.28    1.05
   1  -4  -5    8.72    1.67
   1  -4  -5    9.90    2.39
   1  -4  -5    5.15    1.26
  -1   4   5    4.65    1.15
  -1   4   5    5.50    2.03
  -1   4   5    5.67    1.35
  -1   4   5    5.83    1.77
  -1   4   5    8.06    1.82
   1  -4  -4    3.04    1.08
   1  -4  -4    2.62    1.25
   1  -4  -4    2.48    0.93
   1  -4  -4    2.70    1.37
  -1   4   4    2.45    0.89
  -1   4   4    3.60    2.22
  -1   4   4    2.36    0.54
  -1   4   4    2.45    1.55
  -1   4   4    3.25    1.27
  -1   4   4    3.70    1.34
   1  -4  -3   30.98    1.69
   1  -4  -3   35.85    3.14
   1  -4  -3   36.23    2.50
   1  -4  -3   30.87    2.32
  -1   4   3   30.68    2.47
  -1   4   3   32.24    3.57
  -1   4   3   30.85    2.48
  -1   4   3   32.03    3.18
  -1   4   3   36.46    3.45
   1  -4  -2   63.86    3.31
   1  -4  -2   71.39    4.82
   1  -4  -2   71.94    3.90
   1  -4  -2   68.96    4.93
  -1   4   2   66.15    4.12
  -1   4   2   67.18    5.65
  -1   4   2   66.50    2.31
  -1   4   2   69.80    4.05
  -1   4   2   66.48    7.34
  -1   4   2   70.26    7.68
   1  -4  -1  595.03   35.55
   1  -4  -1  728.61   55.98
   1  -4  -1  749.58   46.86
   1  -4  -1  697.93   43.94
  -1   4   1  691.10   45.02
  -1   4   1  753.31   53.65
  -1   4   1  661.09   37.79
  -1   4   1  669.36   45.61
  -1   4   1  667.51   47.32
  -1   4   1  704.03   49.87
   1  -4   0   40.24    1.64
   1  -4   0   39.47    3.52
   1  -4   0   40.67    2.59
  -1   4   0   39.20    4.12
  -1   4   0   34.17    1.63
  -1   4   0   36.73    2.38
  -1   4   0   38.82    3.63
  -1   4   0   38.23    3.50
   1  -4   1 1715.74  156.78
   1  -4   1 1737.75  161.90
   1  -4   1 1704.25  153.27
   1  -4   1 1765.04  163.06
  -1   4  -1 1754.11  159.58
  -1   4  -1 1610.06  139.73
  -1   4  -1 1730.63  154.32
  -1   4  -1 1692.32  161.59
   1  -4   2   41.31    3.10
   1  -4   2   38.26    5.05
   1  -4   2   40.18    2.50
  -1   4  -2   43.68    2.71
  -1   4  -2   34.80    2.31
   1  -4   3  349.71   19.81
   1  -4   3  347.08   21.45
   1  -4   3  325.61   20.42
   1  -4   3  333.82   24.83
  -1   4  -3  339.68   18.05
  -1   4  -3  289.98   18.93
  -1   4  -3  353.24   19.97
  -1   4  -3  372.79   19.45
  -1   4  -3  352.69   24.38
   1  -4   4    9.78    1.71
   1  -4   4    8.37    1.26
   1  -4   4    8.09    1.78
  -1   4  -4    9.71    1.78
  -1   4  -4    8.44    1.36
  -1   4  -4   10.05    1.37
  -1   4  -4   11.60    1.65
   1  -4   5  586.73   38.78
   1  -4   5  628.32   44.24
   1  -4   5  604.94   40.24
   1  -4   5  561.46   38.12
   1  -4   5  624.29   44.08
  -1   4  -5  704.44   44.15
  -1   4  -5  662.57   43.00
  -1   4  -5  592.25   41.37
  -1   4  -5  598.78   40.13
  -1   4  -5  674.24   44.99
   1  -4   6  455.03   29.57
   1  -4   6  530.80   36.11
   1  -4   6  529.68   34.93
   1  -4   6  478.95   36.39
   1  -4   6  557.30   43.59
  -1   4  -6  511.06   31.68
  -1   4  -6  561.61   36.78
  -1   4  -6  523.59   41.36
  -1   4  -6  491.27   32.25
  -1   4  -6  559.33   36.32
   1  -4   7  424.81   25.95
   1  -4   7  408.03   27.67
   1  -4   7  419.01   32.51
   1  -4   7  395.82   31.15
   1  -4   7  431.49   34.78
  -1   4  -7  477.92   29.25
  -1   4  -7  476.08   31.74
  -1   4  -7  364.41   30.58
  -1   4  -7  473.55   31.21
   1  -4   8  891.75   66.35
   1  -4   8  885.07   70.27
   1  -4   8  915.97   75.28
   1  -4   8  840.97   70.20
   1  -4   8  931.72   76.93
  -1   4  -8  934.95   70.77
  -1   4  -8 1059.77   91.73
  -1   4  -8  783.43   74.30
  -1   4  -8  661.54   61.30
  -1   4  -8 1047.10   82.70
   1  -4   9  269.11   18.71
   1  -4   9  340.21   24.79
   1  -4   9  300.55   22.58
   1  -4   9  334.41   24.44
  -1   4  -9  374.68   25.54
  -1   4  -9  276.06   27.40
  -1   4  -9  398.48   26.82
   1  -4  10  109.66    9.90
   1  -4  10  102.38    9.35
  -1   4 -10  124.28    9.95
  -1   4 -10  123.75    9.95
   1  -4  11    2.30    2.20
  -1   4 -11    1.02    1.36
  -1   4 -11   -0.43    1.35
   1  -4  12   78.04   12.78
  -1   4 -12   96.95    9.48
  -1   4 -12   89.72   12.88
   1  -4  13    2.28    2.10
  -1   4 -13    2.09    3.36
  -1   4 -13    4.26    2.37
   1  -4  14    2.84    2.07
  -1   4 -14    1.54    4.12
  -1   4 -14    2.01    2.36
   1  -4  15   -0.45    1.53
  -1   4 -15   -0.56    1.75
  -1   4 -15    0.27    1.68
   1  -4  16    2.37    3.54
  -1   4 -16    2.82    2.55
  -1   4 -16    1.42    4.23
   1  -4  17    1.65    1.72
  -1   4 -17   -2.65    1.88
  -1   4 -17   -1.27    1.95
   1  -4  18    1.56    2.22
  -1   4 -18    4.92    3.98
  -1   4 -18    4.51    2.46
   1  -4  19    1.51    1.88
  -1   4 -19    3.87    2.31
  -1   4 -19    4.06    3.47
  -1   3  18    1.07    0.95
  -1   3  18   -0.53    1.38
  -1   3  17   -0.17    1.92
  -1   3  17    0.53    1.40
  -1   3  16    1.26    1.77
  -1   3  16    2.52    2.09
  -1   3  15   -1.41    1.66
  -1   3  15    3.20    1.87
  -1   3  14    3.73    2.42
  -1   3  13   19.24    4.49
   1  -3 -12    3.83    2.38
  -1   3  12    1.43    2.02
   1  -3 -11    7.44    2.42
   1  -3 -11    5.93    2.06
   1  -3 -11    8.40    2.95
  -1   3  11    5.49    3.94
   1  -3 -10    0.17    1.03
   1  -3 -10    0.42    0.91
   1  -3 -10   -2.12    1.29
  -1   3  10    1.06    1.71
   1  -3  -9    4.82    1.58
   1  -3  -9    5.12    1.49
   1  -3  -9    4.56    1.50
   1  -3  -9    3.22    1.45
   1  -3  -9    4.37    2.03
  -1   3   9    1.86    0.92
  -1   3   9    3.76    2.70
  -1   3   9    2.86    2.60
   1  -3  -8  206.28   13.89
   1  -3  -8  228.18   14.51
   1  -3  -8  256.17   17.80
   1  -3  -8  182.51   12.71
   1  -3  -8  220.73   17.04
  -1   3   8  172.76   14.72
  -1   3   8  181.02   17.34
  -1   3   8  210.01   14.96
   1  -3  -7  221.32   13.70
   1  -3  -7  231.97   14.13
   1  -3  -7  243.02   13.71
   1  -3  -7  183.44   14.86
   1  -3  -7  225.92   16.35
  -1   3   7  167.80   12.28
  -1   3   7  203.43   15.39
  -1   3   7  191.51   16.41
  -1   3   7  257.78   20.83
   1  -3  -6   67.32    4.49
   1  -3  -6   72.49    5.07
   1  -3  -6   83.36    4.76
   1  -3  -6   63.23    6.50
   1  -3  -6   67.72    6.31
  -1   3   6   55.55    5.49
  -1   3   6   64.12    8.76
  -1   3   6   76.49    4.27
  -1   3   6   62.78    7.14
  -1   3   6   79.96    6.13
   1  -3  -5  500.77   34.54
   1  -3  -5  520.77   34.19
   1  -3  -5  545.78   35.49
   1  -3  -5  492.12   31.30
   1  -3  -5  513.51   36.34
  -1   3   5  497.19   36.06
  -1   3   5  518.24   37.55
  -1   3   5  527.28   31.16
  -1   3   5  469.16   34.51
  -1   3   5  553.76   37.61
   1  -3  -4  103.91    7.03
   1  -3  -4  110.42    6.40
   1  -3  -4  115.36    5.53
   1  -3  -4  103.20    5.47
  -1   3   4  105.30    8.25
  -1   3   4  112.09    7.93
  -1   3   4  112.49    5.89
  -1   3   4  103.13    5.81
  -1   3   4  116.11   10.02
   1  -3  -3    5.07    1.08
   1  -3  -3    3.91    0.80
   1  -3  -3    3.26    0.69
  -1   3   3    3.11    1.66
  -1   3   3    5.25    2.08
  -1   3   3    4.13    0.52
  -1   3   3    3.91    0.75
  -1   3   3    3.25    1.15
  -1   3   3    4.42    1.23
   1  -3  -2  195.17   10.33
   1  -3  -2  203.06   10.51
   1  -3  -2  211.95    9.57
   1  -3  -2  207.06    9.07
  -1   3   2  183.48   10.96
  -1   3   2  194.28   11.72
  -1   3   2  211.40    8.76
  -1   3   2  200.59   10.46
  -1   3   2  191.40   10.59
  -1   3   2  212.19   14.29
   1  -3  -1   94.30    5.25
   1  -3  -1  102.97    7.75
   1  -3  -1   90.59    4.23
   1  -3  -1  100.58    4.02
  -1   3   1   84.95    4.47
  -1   3   1  105.12    6.26
  -1   3   1   94.65    4.90
  -1   3   1   97.21    5.05
  -1   3   1   92.28    7.41
  -1   3   1   92.05    5.51
   1  -3   0  887.49   56.35
   1  -3   0  849.53   59.28
   1  -3   0  834.29   52.46
  -1   3   0  870.04   56.93
  -1   3   0  785.84   51.04
  -1   3   0  884.71   55.19
  -1   3   0  836.87   57.85
   1  -3   1    3.98    0.91
   1  -3   1    4.45    1.07
   1  -3   1    4.32    0.56
  -1   3  -1    4.64    0.76
  -1   3  -1    4.55    0.73
  -1   3  -1    4.06    0.98
  -1   3  -1    4.13    0.56
   1  -3   2   20.84    1.48
   1  -3   2   18.94    1.84
   1  -3   2   15.81    1.94
   1  -3   2   14.12    1.64
   1  -3   2   13.68    1.76
  -1   3  -2   16.21    1.92
  -1   3  -2   16.06    2.23
  -1   3  -2   14.25    1.52
  -1   3  -2   15.20    1.61
   1  -3   3  280.68   14.23
   1  -3   3  293.59   13.62
   1  -3   3  280.60   16.06
   1  -3   3  270.57   13.32
   1  -3   3  276.25   15.20
  -1   3  -3  287.33   13.47
  -1   3  -3  265.46   14.45
  -1   3  -3  293.55   18.57
  -1   3  -3  267.97   16.94
   1  -3   4 1154.52   88.75
   1  -3   4 1371.80  102.36
   1  -3   4 1215.31   98.83
   1  -3   4 1268.59   96.61
   1  -3   4 1060.27   83.23
   1  -3   4 1192.15  101.67
  -1   3  -4 1224.40   93.31
  -1   3  -4 1206.23   96.79
  -1   3  -4 1141.22   92.31
  -1   3  -4 1234.91   96.93
   1  -3   5   24.37    1.53
   1  -3   5   20.30    2.26
   1  -3   5   20.31    1.91
   1  -3   5   18.14    1.88
   1  -3   5   22.28    2.27
  -1   3  -5   24.44    1.54
  -1   3  -5   20.66    2.01
  -1   3  -5   24.31    3.37
   1  -3   6  125.80    6.02
   1  -3   6  146.26    8.46
   1  -3   6  150.45   10.95
   1  -3   6  136.49    7.90
   1  -3   6  142.90    8.31
  -1   3  -6  136.79    7.49
  -1   3  -6  162.94    9.11
  -1   3  -6  123.64    7.96
  -1   3  -6  125.26    7.58
  -1   3  -6  154.35    8.43
   1  -3   7   48.08    2.44
   1  -3   7   40.47    3.66
   1  -3   7   48.63    3.93
   1  -3   7   47.81    3.84
   1  -3   7   49.82    4.07
  -1   3  -7   48.81    2.68
  -1   3  -7   52.87    4.40
  -1   3  -7   40.66    3.92
  -1   3  -7   40.48    3.34
  -1   3  -7   53.87    3.91
   1  -3   8   55.33    4.24
   1  -3   8   55.87    5.08
   1  -3   8   54.36    7.08
   1  -3   8   60.59    5.10
  -1   3  -8   63.60    3.42
  -1   3  -8   72.75    5.71
  -1   3  -8   49.87    4.97
  -1   3  -8   67.75    5.05
   1  -3   9   69.79    5.53
   1  -3   9   76.63    6.90
   1  -3   9   73.83    9.30
   1  -3   9   83.88    6.84
  -1   3  -9  103.32   10.66
  -1   3  -9   69.06    6.75
  -1   3  -9   89.82    6.78
   1  -3  10   56.81    6.07
   1  -3  10   70.66   10.06
   1  -3  10   70.92    6.95
   1  -3  10   80.14    7.04
  -1   3 -10   94.32    7.55
  -1   3 -10   69.27    7.17
  -1   3 -10   84.43    7.03
   1  -3  11   74.62    7.94
  -1   3 -11   93.09    8.27
  -1   3 -11   81.86   10.88
   1  -3  12   57.49    7.52
  -1   3 -12   74.00    7.80
  -1   3 -12   80.43    8.43
   1  -3  13    0.32    1.56
  -1   3 -13    0.87    1.66
  -1   3 -13    1.16    1.72
   1  -3  14    3.11    2.22
  -1   3 -14    4.97    4.51
  -1   3 -14    2.41    2.43
   1  -3  15    1.68    3.76
  -1   3 -15    3.88    2.72
  -1   3 -15    2.75    4.04
   1  -3  16   -1.63    1.96
  -1   3 -16   -0.28    2.07
  -1   3 -16   -0.87    2.10
   1  -3  17   -0.45    1.68
  -1   3 -17   -1.03    1.79
  -1   3 -17    2.57    1.77
   1  -3  18    0.83    1.65
  -1   3 -18    1.51    2.90
  -1   3 -18   -0.06    1.73
   1  -3  19    1.56    2.87
  -1   3 -19    1.35    2.07
  -1   3 -19    1.90    2.99
   1  -3  20   -0.30    1.16
  -1   2  19   -0.69    1.29
  -1   2  18    0.13    1.79
  -1   2  18   -0.37    1.32
   1  -2 -17    1.13    1.77
  -1   2  17    1.83    1.73
  -1   2  17    1.74    2.00
   1  -2 -16    3.54    4.60
  -1   2  16    5.02    2.57
   1  -2 -15   23.98    7.46
   1  -2 -15   23.67    5.37
  -1   2  15   16.09    4.46
   1  -2 -14    1.07    2.07
   1  -2 -14    2.25    2.30
  -1   2  14    0.91    3.23
   1  -2 -13    3.98    2.11
   1  -2 -13   -0.15    2.32
  -1   2  13    1.58    1.94
   1  -2 -12   -0.95    1.28
   1  -2 -12    0.52    1.42
  -1   2  12    0.58    1.20
   1  -2 -11   15.63    3.22
   1  -2 -11   13.30    3.58
  -1   2  11   10.70    3.04
   1  -2 -10   10.45    2.50
   1  -2 -10    8.04    1.73
   1  -2 -10    8.06    1.74
   1  -2 -10   10.56    2.74
  -1   2  10    7.06    2.24
   1  -2  -9   75.28    6.52
   1  -2  -9   74.32    5.22
   1  -2  -9   74.63    5.32
   1  -2  -9   61.23    5.70
   1  -2  -9   72.69    7.43
  -1   2   9   67.16    6.33
  -1   2   9   75.13    6.31
   1  -2  -8   16.06    3.78
   1  -2  -8   15.09    1.79
   1  -2  -8   14.51    2.87
   1  -2  -8    9.86    1.98
   1  -2  -8   15.52    2.68
  -1   2   8   10.75    3.63
  -1   2   8   11.87    2.20
  -1   2   8   13.51    2.30
   1  -2  -7 1010.83   86.01
   1  -2  -7  972.38   74.14
   1  -2  -7 1022.09   75.45
   1  -2  -7  886.47   69.62
   1  -2  -7  988.43   81.94
  -1   2   7  802.65   62.80
  -1   2   7  690.10   74.37
  -1   2   7 1100.71   82.66
  -1   2   7  930.76   74.20
  -1   2   7  996.79   83.70
   1  -2  -6   20.27    2.26
   1  -2  -6   21.47    1.72
   1  -2  -6   18.38    1.99
   1  -2  -6   19.03    2.70
  -1   2   6   14.14    1.81
  -1   2   6   16.99    2.57
  -1   2   6   16.73    2.04
  -1   2   6   20.52    2.61
   1  -2  -5  125.23    6.93
   1  -2  -5  124.91    6.39
   1  -2  -5  122.70    6.74
   1  -2  -5  121.08    7.69
   1  -2  -5  122.48    7.74
  -1   2   5  107.88    6.38
  -1   2   5  115.55   10.73
  -1   2   5  132.05    7.68
  -1   2   5  120.07    6.65
  -1   2   5  139.25    7.96
   1  -2  -4   71.67    3.89
   1  -2  -4   74.36    3.83
   1  -2  -4   75.00    3.17
   1  -2  -4   74.48    3.55
   1  -2  -4   73.81    4.68
  -1   2   4   64.63    3.90
  -1   2   4   71.57    5.17
  -1   2   4   76.19    3.29
  -1   2   4   71.58    3.78
  -1   2   4   77.33    6.28
   1  -2  -3  546.48   36.12
   1  -2  -3  598.48   35.97
   1  -2  -3  634.30   37.64
   1  -2  -3  637.48   35.63
   1  -2  -3  573.82   36.57
  -1   2   3  519.92   32.75
  -1   2   3  622.45   41.50
  -1   2   3  640.58   39.34
  -1   2   3  603.06   34.44
  -1   2   3  628.57   39.29
   1  -2  -2  211.20    9.78
   1  -2  -2  209.30    9.82
   1  -2  -2  213.40    8.93
   1  -2  -2  215.91    9.32
  -1   2   2  202.72    9.93
  -1   2   2  219.73   14.32
  -1   2   2  211.25    9.11
  -1   2   2  216.19    8.66
  -1   2   2  220.10   10.73
   1  -2  -1   16.20    1.26
   1  -2  -1   15.99    1.47
   1  -2  -1   16.04    0.89
  -1   2   1   15.18    1.36
  -1   2   1   15.11    1.72
  -1   2   1   16.04    1.12
  -1   2   1   16.07    1.00
  -1   2   1   14.47    1.38
  -1   2   1   16.10    1.44
   1  -2   0  113.37    6.35
   1  -2   0  118.97    5.74
   1  -2   0  126.16    4.25
   1  -2   0  128.06    5.71
  -1   2   0  140.48    5.86
  -1   2   0  126.60    6.38
  -1   2   0  115.75    5.13
  -1   2   0  129.32    5.73
  -1   2   0  125.03    4.28
  -1   2   0  125.91    5.55
   1  -2   1    9.61    1.53
   1  -2   1    5.29    1.10
   1  -2   1    5.18    0.60
  -1   2  -1    4.49    1.08
  -1   2  -1    4.94    0.91
  -1   2  -1    5.61    1.00
   1  -2   2 5392.85  743.86
   1  -2   2 4860.21  685.09
   1  -2   2 5123.69  690.52
   1  -2   2 4420.09  600.29
   1  -2   2 5164.61  715.97
  -1   2  -2 5333.74  723.93
  -1   2  -2 4847.83  678.34
  -1   2  -2 4643.54  652.90
  -1   2  -2 5163.43  712.12
   1  -2   3 4124.34  546.79
   1  -2   3 4586.83  615.40
   1  -2   3 4597.46  627.87
   1  -2   3 4619.99  609.66
   1  -2   3 4108.95  552.92
   1  -2   3 4703.83  630.07
  -1   2  -3 4990.41  650.37
  -1   2  -3 4697.21  640.56
  -1   2  -3 4484.44  625.26
  -1   2  -3 4836.87  645.93
   1  -2   4 3713.05  480.75
   1  -2   4 4833.25  629.96
   1  -2   4 4520.90  616.10
   1  -2   4 4482.37  594.18
   1  -2   4 3936.79  520.02
   1  -2   4 4453.46  588.55
  -1   2  -4 4502.75  573.86
  -1   2  -4 3954.71  539.27
  -1   2  -4 4133.23  558.52
  -1   2  -4 4538.64  603.27
   1  -2   5 1847.08  172.87
   1  -2   5 2215.16  220.13
   1  -2   5 2204.64  216.34
   1  -2   5 1952.85  194.16
   1  -2   5 2133.36  211.42
  -1   2  -5 2155.76  199.23
  -1   2  -5 1939.57  196.76
  -1   2  -5 2045.30  208.44
  -1   2  -5 2306.89  224.91
   1  -2   6   87.36    3.23
   1  -2   6  103.00    8.46
   1  -2   6   99.18    5.90
   1  -2   6   85.39    5.44
   1  -2   6   92.03    7.46
  -1   2  -6  108.16    3.94
  -1   2  -6  126.36    6.65
  -1   2  -6   87.01    5.93
  -1   2  -6   91.05    6.00
  -1   2  -6  106.03    7.70
   1  -2   7  143.66    8.23
   1  -2   7  139.02    8.61
   1  -2   7  120.59    7.83
   1  -2   7  130.25   10.19
  -1   2  -7  139.14    5.83
  -1   2  -7  165.87    9.40
  -1   2  -7  110.32    8.01
  -1   2  -7  125.69    8.31
  -1   2  -7  153.68    8.53
   1  -2   8   52.25    3.87
   1  -2   8   49.69    6.38
   1  -2   8   44.33    4.10
   1  -2   8   49.97    3.84
  -1   2  -8   61.60    4.71
  -1   2  -8   43.63    4.36
  -1   2  -8   42.00    3.89
  -1   2  -8   54.86    4.15
   1  -2   9    1.42    0.85
   1  -2   9    2.89    1.31
   1  -2   9    2.81    1.33
   1  -2   9    2.62    1.21
  -1   2  -9    3.68    2.35
  -1   2  -9    2.70    1.47
  -1   2  -9    1.86    1.17
  -1   2  -9    3.44    1.29
   1  -2  10   35.03    4.23
   1  -2  10   35.29    4.16
   1  -2  10   32.01    5.70
  -1   2 -10   42.44    4.27
  -1   2 -10   33.41    4.37
  -1   2 -10   23.45    3.45
  -1   2 -10   41.60    6.89
   1  -2  11    1.36    1.48
   1  -2  11    1.86    1.52
  -1   2 -11    0.74    1.55
  -1   2 -11    1.14    1.27
  -1   2 -11    3.48    1.62
   1  -2  12   60.68    7.64
  -1   2 -12   71.72    7.52
  -1   2 -12   77.03    8.10
   1  -2  13    0.88    2.17
  -1   2 -13   -0.28    1.37
  -1   2 -13   -0.47    1.41
   1  -2  14   13.02    6.92
  -1   2 -14   22.86    7.94
  -1   2 -14   17.73    7.18
   1  -2  15    0.63    1.86
  -1   2 -15    0.92    1.96
  -1   2 -15    0.51    1.92
   1  -2  16    4.71    2.89
  -1   2 -16    4.69    3.02
  -1   2 -16    4.91    2.96
   1  -2  17    0.72    2.04
  -1   2 -17    1.32    2.14
  -1   2 -17    2.02    2.11
   1  -2  18    1.55    3.36
  -1   2 -18    2.90    3.44
  -1   2 -18    0.87    3.41
   1  -2  19    2.07    1.92
  -1   2 -19    3.10    2.19
  -1   2 -19    1.58    1.88
   1  -1 -19    0.24    1.66
  -1   1  19    2.16    1.68
  -1   1  19    8.76    2.09
   1  -1 -18    2.07    1.67
  -1   1  18   -0.28    1.47
   1  -1 -17    5.27    4.85
   1  -1 -17    6.59    3.11
  -1   1  17    3.88    2.57
   1  -1 -16   20.71    4.62
   1  -1 -16   14.12    4.93
  -1   1  16   10.59    6.61
   1  -1 -15    1.69    2.50
   1  -1 -15    1.98    2.60
  -1   1  15    3.00    2.26
   1  -1 -14    1.60    2.02
   1  -1 -14    1.87    2.09
  -1   1  14   -0.15    1.82
   1  -1 -13    5.81    2.81
   1  -1 -13    6.94    2.89
  -1   1  13    2.78    2.45
   1  -1 -12   99.83    9.87
   1  -1 -12   88.68   14.82
  -1   1  12   68.70    8.90
   1  -1 -11    8.33    4.14
   1  -1 -11    6.20    4.15
  -1   1  11    4.18    3.56
   1  -1 -10   21.74    5.26
   1  -1 -10   23.49    3.85
  -1   1  10   18.12    4.76
  -1   1  10   21.90    4.83
   1  -1  -9   16.54    4.05
   1  -1  -9   15.80    1.58
   1  -1  -9   13.83    1.57
   1  -1  -9   16.37    2.88
  -1   1   9    8.50    3.22
  -1   1   9   12.50    2.29
  -1   1   9   18.23    3.89
   1  -1  -8   53.55    4.63
   1  -1  -8   51.11    4.64
   1  -1  -8   55.37    3.26
   1  -1  -8   59.11    3.47
   1  -1  -8   54.64    5.30
  -1   1   8   41.88    4.14
  -1   1   8   68.82    4.87
  -1   1   8   52.62    4.38
  -1   1   8   59.22    4.70
   1  -1  -7  531.17   35.80
   1  -1  -7  475.07   32.70
   1  -1  -7  472.92   28.78
   1  -1  -7  499.84   31.21
   1  -1  -7  517.13   36.44
  -1   1   7  469.98   32.62
  -1   1   7  571.73   36.29
  -1   1   7  489.62   32.43
  -1   1   7  516.10   34.20
   1  -1  -6   64.61    4.50
   1  -1  -6   59.48    5.82
   1  -1  -6   61.39    2.94
   1  -1  -6   61.97    2.83
   1  -1  -6   60.82    3.70
   1  -1  -6   66.96    4.63
  -1   1   6   61.02    6.57
  -1   1   6   71.95    3.98
  -1   1   6   57.53    3.76
  -1   1   6   62.82    3.99
   1  -1  -5   38.22    3.11
   1  -1  -5   38.82    4.17
   1  -1  -5   41.36    2.05
   1  -1  -5   42.51    2.29
   1  -1  -5   46.31    2.50
   1  -1  -5   40.84    3.10
  -1   1   5   38.43    3.36
  -1   1   5   46.71    2.53
  -1   1   5   39.57    2.44
  -1   1   5   47.40    4.58
   1  -1  -4  178.53   10.13
   1  -1  -4  187.17    9.52
   1  -1  -4  178.77    7.64
   1  -1  -4  189.19    7.21
   1  -1  -4  183.31    8.04
   1  -1  -4  181.39    9.34
  -1   1   4  184.49   10.48
  -1   1   4  179.94    8.14
  -1   1   4  177.22    7.96
  -1   1   4  197.57    9.69
   1  -1  -3   50.21    3.18
   1  -1  -3   50.87    2.94
   1  -1  -3   48.58    3.00
   1  -1  -3   51.21    1.80
   1  -1  -3   47.83    1.90
   1  -1  -3   49.36    4.07
  -1   1   3   51.77    5.14
  -1   1   3   55.64    2.79
  -1   1   3   52.31    2.05
  -1   1   3   54.87    2.76
   1  -1  -2 2096.38  211.14
   1  -1  -2 2142.00  215.53
   1  -1  -2 2266.69  217.30
   1  -1  -2 2167.07  198.71
   1  -1  -2 2259.94  219.68
  -1   1   2 2226.78  224.69
  -1   1   2 2239.61  221.32
  -1   1   2 2276.60  208.69
   1  -1  -1   44.23    2.51
   1  -1  -1   42.64    2.31
   1  -1  -1   40.69    2.86
  -1   1   1   46.18    2.74
  -1   1   1   41.82    2.19
  -1   1   1   42.88    2.68
  -1   1   1   43.13    1.89
   1  -1   0 1756.93  149.37
   1  -1   0 1780.42  150.91
   1  -1   0 1741.59  147.43
   1  -1   0 1821.99  148.37
  -1   1   0 1671.35  144.06
  -1   1   0 1655.61  141.02
  -1   1   0 1733.90  145.22
  -1   1   0 1805.50  147.16
   1  -1   1    7.51    0.97
   1  -1   1    6.44    1.02
   1  -1   1    6.90    0.31
   1  -1   1    6.33    0.66
  -1   1  -1    6.38    1.02
  -1   1  -1    6.71    1.01
  -1   1  -1    8.53    0.64
   1  -1   2 3978.44  483.13
   1  -1   2 3900.44  480.25
   1  -1   2 3773.03  450.03
   1  -1   2 3593.68  430.97
  -1   1  -2 4181.22  489.88
  -1   1  -2 3797.92  467.70
  -1   1  -2 3716.11  467.30
  -1   1  -2 3442.13  409.32
  -1   1  -2 3751.95  447.91
   1  -1   3    6.89    1.82
   1  -1   3    5.02    1.12
   1  -1   3    5.73    1.27
   1  -1   3    6.85    1.33
  -1   1  -3    7.06    0.52
  -1   1  -3    6.54    1.21
  -1   1  -3    5.49    1.17
  -1   1  -3    5.56    0.76
  -1   1  -3    5.42    0.75
   1  -1   4 1564.39  128.08
   1  -1   4 1619.05  137.24
   1  -1   4 1492.94  128.27
   1  -1   4 1476.44  120.66
  -1   1  -4 1456.88  107.50
  -1   1  -4 1390.73  118.37
  -1   1  -4 1441.56  125.26
  -1   1  -4 1501.53  124.21
  -1   1  -4 1589.57  128.88
   1  -1   5   32.02    2.07
   1  -1   5   28.26    2.17
   1  -1   5   26.78    3.38
   1  -1   5   27.54    1.87
  -1   1  -5   27.53    2.33
  -1   1  -5   25.50    2.43
  -1   1  -5   27.94    2.17
  -1   1  -5   28.99    1.94
   1  -1   6  104.32    5.92
   1  -1   6   93.74    5.70
   1  -1   6   92.67    5.05
  -1   1  -6  123.08    6.31
  -1   1  -6   81.99    5.53
  -1   1  -6   89.49    5.88
  -1   1  -6  102.39    5.88
  -1   1  -6  102.68    5.40
   1  -1   7  544.59   37.46
   1  -1   7  437.20   29.10
   1  -1   7  437.97   27.56
  -1   1  -7  548.16   33.82
  -1   1  -7  336.40   24.67
  -1   1  -7  460.68   31.07
  -1   1  -7  488.02   31.13
  -1   1  -7  479.59   29.75
   1  -1   8    4.60    1.09
   1  -1   8    3.39    1.50
   1  -1   8    4.18    1.27
  -1   1  -8    7.42    1.55
  -1   1  -8    5.50    1.44
  -1   1  -8    7.04    2.45
   1  -1   9   39.29    3.22
   1  -1   9   36.24    4.09
   1  -1   9   36.35    3.48
  -1   1  -9   46.83    6.19
  -1   1  -9   33.73    3.83
  -1   1  -9   45.64    4.21
   1  -1  10    5.14    2.11
   1  -1  10    4.55    1.95
   1  -1  10    5.54    1.98
   1  -1  10    6.33    1.66
  -1   1 -10    8.77    1.85
  -1   1 -10    4.62    1.78
  -1   1 -10    5.57    1.95
   1  -1  11    5.00    1.22
   1  -1  11    4.87    3.53
  -1   1 -11    9.66    2.07
  -1   1 -11    3.28    3.12
  -1   1 -11    7.49    2.24
   1  -1  12    4.04    1.27
   1  -1  12    6.58    4.08
  -1   1 -12    8.75    2.24
  -1   1 -12   10.13    3.78
   1  -1  13    2.11    2.06
  -1   1 -13    1.95    2.89
  -1   1 -13    2.19    2.05
   1  -1  14   12.59    3.82
  -1   1 -14   16.80    6.48
  -1   1 -14   10.09    3.74
   1  -1  15    5.42    3.18
  -1   1 -15    9.12    3.28
  -1   1 -15    6.94    3.27
   1  -1  16    0.71    1.93
  -1   1 -16    1.19    1.91
  -1   1 -16    0.44    1.93
   1  -1  17    2.86    3.78
  -1   1 -17    2.50    2.25
  -1   1 -17    0.90    3.72
   1  -1  18    8.51    3.28
  -1   1 -18   13.20    5.66
  -1   1 -18    8.00    3.13
   1  -1  19    0.72    1.74
  -1   1 -19    2.98    1.73
  -1   1 -19    0.55    1.53
   1   0 -19    0.20    1.56
  -1   0  19    0.73    1.30
   1   0 -18    9.60    5.40
   1   0 -18    8.59    3.39
  -1   0  18    5.41    4.61
   1   0 -17   21.59    4.68
   1   0 -17   15.28    4.64
  -1   0  17    8.13    3.97
   1   0 -16   17.12    4.70
   1   0 -16   14.60    4.58
  -1   0  16   10.23    4.08
   1   0 -15   36.26    6.43
   1   0 -15   30.89    9.95
  -1   0  15   20.51    5.60
   1   0 -14    6.00    3.08
   1   0 -14    3.00    4.77
  -1   0  14    3.18    4.38
   1   0 -13   10.65    5.16
   1   0 -13    4.58    3.14
  -1   0  13    7.00    4.09
   1   0 -12   42.99    8.54
   1   0 -12   42.89    6.07
  -1   0  12   35.62    5.16
   1   0 -11    4.23    2.03
   1   0 -11    4.98    2.13
  -1   0  11    2.54    1.77
   1   0 -10  243.81   18.32
   1   0 -10  262.20   19.95
  -1   0  10  229.81   17.16
  -1   0  10  243.90   16.85
   1   0  -9   97.99    7.91
   1   0  -9  121.45    9.00
   1   0  -9  133.40    9.72
  -1   0   9  101.60    7.01
  -1   0   9  118.14    8.42
  -1   0   9  123.60    8.00
   1   0  -8  145.80   13.03
   1   0  -8  133.78    9.24
   1   0  -8  117.92    5.39
   1   0  -8  130.30    7.03
   1   0  -8  153.99   10.21
  -1   0   8  121.42    9.74
  -1   0   8  173.17    9.98
  -1   0   8  142.42   11.68
  -1   0   8  147.54   11.32
   1   0  -7  478.21   31.54
   1   0  -7  372.75   25.52
   1   0  -7  374.82   19.74
   1   0  -7  402.95   20.94
   1   0  -7  456.85   33.69
  -1   0   7  446.40   31.77
  -1   0   7  483.36   29.30
  -1   0   7  434.98   27.17
  -1   0   7  417.75   29.69
   1   0  -6   29.61    2.86
   1   0  -6   27.39    2.61
   1   0  -6   26.85    1.13
   1   0  -6   28.65    1.72
   1   0  -6   31.88    4.03
  -1   0   6   26.35    2.50
  -1   0   6   34.33    3.65
  -1   0   6   28.74    2.26
  -1   0   6   28.56    2.25
   1   0  -5   38.98    3.20
   1   0  -5   38.53    2.79
   1   0  -5   38.67    1.76
   1   0  -5   41.34    1.29
   1   0  -5   39.14    4.06
  -1   0   5   35.05    2.83
  -1   0   5   46.69    2.50
  -1   0   5   41.27    2.42
  -1   0   5   39.85    2.36
   1   0  -4  136.63   10.01
   1   0  -4  121.46    8.24
   1   0  -4  127.24    4.90
   1   0  -4  128.07    4.24
   1   0  -4  138.15    8.08
  -1   0   4  131.41    6.96
  -1   0   4  131.65    5.91
  -1   0   4  137.05    7.03
  -1   0   4  129.35    5.66
   1   0  -3  416.73   27.84
   1   0  -3  426.72   23.45
   1   0  -3  368.08   17.75
   1   0  -3  403.89   17.35
   1   0  -3  436.35   22.20
  -1   0   3  382.75   22.13
  -1   0   3  476.28   24.67
  -1   0   3  489.43   23.21
  -1   0   3  389.07   21.19
   1   0  -2  271.50   13.95
   1   0  -2  250.28   12.37
   1   0  -2  245.40   10.89
   1   0  -2  272.86   10.92
   1   0  -2  267.51   11.26
  -1   0   2  242.13   14.88
  -1   0   2  256.24   12.08
  -1   0   2  279.82   11.49
  -1   0   2  277.03   11.49
   1   0  -1 2952.70  325.75
   1   0  -1 3149.85  342.05
   1   0  -1 2793.44  297.32
   1   0  -1 2749.68  286.23
   1   0  -1 3056.47  316.88
  -1   0   1 2853.57  317.36
  -1   0   1 3057.60  331.06
  -1   0   1 2889.68  306.76
  -1   0   1 3161.98  329.17
  -1   0   1 3124.64  325.42
   1   0   0   56.43    2.62
   1   0   0   57.76    2.76
   1   0   0   54.17    2.23
   1   0   0   58.67    1.73
  -1   0   0   52.32    2.21
  -1   0   0   54.10    2.58
  -1   0   0   58.14    2.28
  -1   0   0   58.33    1.69
  -1   0   0   57.86    1.61
   1   0   1   36.38    2.34
   1   0   1   34.31    1.99
   1   0   1   33.33    1.88
   1   0   1   36.16    2.01
   1   0   1   31.47    1.14
  -1   0  -1   34.02    1.43
  -1   0  -1   32.58    1.91
  -1   0  -1   32.31    1.99
  -1   0  -1   35.92    1.79
  -1   0  -1   33.98    1.13
   1   0   2 8189.29 1496.36
   1   0   2 9999.00 1855.63
   1   0   2 9268.77 1727.73
   1   0   2 9296.66 1724.74
   1   0   2 9726.06 1767.39
  -1   0  -2 8695.50 1578.64
  -1   0  -2 9521.33 1780.24
  -1   0  -2 8826.38 1655.90
  -1   0  -2 9355.90 1734.97
  -1   0  -2 9626.76 1758.13
   1   0   3  104.86    5.84
   1   0   3  109.63    5.56
   1   0   3  115.97    7.12
   1   0   3  107.79    5.14
  -1   0  -3  117.22    5.64
  -1   0  -3   96.41    5.51
  -1   0  -3  122.04    5.45
  -1   0  -3  109.68    4.27
   1   0   4 2667.01  265.56
   1   0   4 2567.63  264.29
   1   0   4 2256.62  238.43
   1   0   4 2221.75  224.87
  -1   0  -4 2155.50  227.67
  -1   0  -4 2545.03  260.02
  -1   0  -4 2350.85  238.86
   1   0   5   50.42    4.25
   1   0   5   47.16    4.72
   1   0   5   44.46    3.49
  -1   0  -5   46.98    3.43
  -1   0  -5   53.07    3.53
   1   0   6   -0.60    1.31
  -1   0  -6    1.08    0.71
  -1   0  -6    1.46    0.85
  -1   0  -6   -0.31    1.32
  -1   0  -6    0.38    0.71
   1   0   7   27.23    2.43
   1   0   7   22.19    4.38
   1   0   7   33.72    3.35
  -1   0  -7   29.26    2.72
  -1   0  -7   23.98    4.30
  -1   0  -7   24.17    2.82
  -1   0  -7   28.89    2.68
   1   0   8  342.41   20.47
   1   0   8  304.48   26.51
   1   0   8  278.48   20.23
  -1   0  -8  349.53   21.76
  -1   0  -8  274.18   23.68
  -1   0  -8  286.74   20.03
  -1   0  -8  318.95   20.73
   1   0   9   61.01    5.76
   1   0   9   56.83    8.74
   1   0   9   58.40    6.70
  -1   0  -9   72.52    7.60
  -1   0  -9   57.85    8.15
  -1   0  -9   59.27    5.61
  -1   0  -9   63.32    7.85
   1   0  10   54.35    4.17
   1   0  10   50.40    6.15
   1   0  10   51.81    4.77
  -1   0 -10   60.76    5.18
  -1   0 -10   50.69    5.57
  -1   0 -10   52.58    5.65
  -1   0 -10   61.57    8.70
   1   0  11   49.67    4.21
   1   0  11   48.30    6.53
  -1   0 -11   60.47    5.62
  -1   0 -11   51.02    6.10
  -1   0 -11   56.47    6.39
   1   0  12    3.33    1.32
   1   0  12    4.34    2.38
  -1   0 -12    6.84    1.94
  -1   0 -12    4.17    2.29
   1   0  13    1.00    1.60
   1   0  13    0.06    1.84
  -1   0 -13    3.05    2.97
  -1   0 -13    1.16    1.76
   1   0  14    1.08    2.29
  -1   0 -14    2.08    2.12
  -1   0 -14    3.10    2.14
   1   0  15    3.74    2.60
  -1   0 -15   -1.11    1.49
  -1   0 -15    0.14    2.45
   1   0  16    2.55    5.16
  -1   0 -16    7.01    2.83
  -1   0 -16    5.27    2.94
   1   0  17    5.76    2.99
  -1   0 -17    8.47    4.71
  -1   0 -17    4.06    2.68
   1   0  18    6.52    2.94
  -1   0 -18    5.42    2.55
  -1   0 -18    5.17    2.38
   1   0  19   13.46    2.89
   1   0  19    3.26    2.07
  -1   0 -19    8.56    2.19
   1   1 -20    1.64    1.67
  -1  -1  20    0.82    1.31
   1   1 -19    2.94    3.61
   1   1 -19    1.77    1.92
  -1  -1  19    0.40    2.79
   1   1 -18    5.57    2.96
   1   1 -18    3.31    2.77
  -1  -1  18    3.60    2.45
   1   1 -17   45.57    7.38
   1   1 -17   38.72    7.14
  -1  -1  17   19.45    6.14
   1   1 -16   30.88    6.35
   1   1 -16   22.30    9.22
  -1  -1  16   18.46    5.29
   1   1 -15  152.56   17.09
   1   1 -15  136.65   16.46
  -1  -1  15  106.23   19.22
   1   1 -14  158.98   23.66
   1   1 -14  147.25   15.85
  -1  -1  14  115.94   13.62
   1   1 -13   29.39    7.91
   1   1 -13   26.01    5.22
  -1  -1  13   23.19    4.47
   1   1 -12   -0.15    2.44
   1   1 -12    0.50    1.51
  -1  -1  12    0.52    1.31
   1   1 -11   45.85    5.69
   1   1 -11   48.12    5.96
  -1  -1  11   39.88    7.43
   1   1 -10    4.71    1.96
   1   1 -10    9.14    2.33
   1   1 -10    8.12    3.80
  -1  -1  10    7.55    2.03
  -1  -1  10    9.22    1.82
   1   1  -9    4.77    1.65
   1   1  -9    5.66    1.81
   1   1  -9    5.07    2.71
  -1  -1   9    5.29    1.98
  -1  -1   9    4.69    1.58
  -1  -1   9    4.99    1.40
   1   1  -8   65.65    8.00
   1   1  -8   57.22    5.15
   1   1  -8   65.08    5.06
  -1  -1   8   59.37    4.33
  -1  -1   8   77.31    5.19
  -1  -1   8   64.94    5.01
  -1  -1   8   66.19    4.42
   1   1  -7   22.82    2.73
   1   1  -7   19.37    2.50
   1   1  -7   22.59    2.31
  -1  -1   7   19.96    2.03
  -1  -1   7   25.06    2.33
  -1  -1   7   23.22    3.59
  -1  -1   7   20.47    1.99
   1   1  -6   15.09    2.16
   1   1  -6   14.29    1.91
   1   1  -6   16.01    1.68
  -1  -1   6   13.90    1.59
  -1  -1   6   16.86    1.72
  -1  -1   6   14.55    1.63
  -1  -1   6   13.58    1.42
   1   1  -5   37.90    3.19
   1   1  -5   32.00    2.61
   1   1  -5   36.06    2.28
  -1  -1   5   31.87    2.40
  -1  -1   5   40.48    2.32
  -1  -1   5   37.57    2.36
  -1  -1   5   33.94    1.96
   1   1  -4   51.45    5.48
   1   1  -4   45.09    4.19
   1   1  -4   48.86    2.39
  -1  -1   4   43.56    2.79
  -1  -1   4   52.86    2.57
  -1  -1   4   44.32    2.05
   1   1  -3   36.41    2.69
   1   1  -3   36.46    2.37
   1   1  -3   42.55    2.01
   1   1  -3   38.53    2.38
  -1  -1   3   34.61    2.23
  -1  -1   3   37.44    2.74
  -1  -1   3   34.71    1.43
   1   1  -2  296.44   15.56
   1   1  -2  289.75   14.29
   1   1  -2  267.41   10.70
   1   1  -2  300.20   13.82
   1   1  -2  304.55   13.44
  -1  -1   2  293.39   14.56
  -1  -1   2  331.78   15.08
  -1  -1   2  309.77   12.28
  -1  -1   2  302.44   13.87
  -1  -1   2  294.88   12.61
   1   1  -1 1912.38  181.50
   1   1  -1 2117.18  195.34
   1   1  -1 1704.71  153.62
   1   1  -1 2186.23  198.07
   1   1  -1 1745.97  150.45
  -1  -1   1 2270.80  208.11
  -1  -1   1 2253.31  204.85
  -1  -1   1 2018.99  180.85
  -1  -1   1 2221.79  201.30
  -1  -1   1 2205.98  187.28
   1   1   0  981.33   67.50
   1   1   0 1023.28   68.98
   1   1   0  809.28   55.83
   1   1   0 1061.51   70.57
  -1  -1   0 1105.40   75.33
  -1  -1   0  986.42   66.34
  -1  -1   0  988.17   68.20
  -1  -1   0 1039.94   69.19
   1   1   1   39.01    2.84
   1   1   1   40.27    1.97
   1   1   1   34.72    1.84
   1   1   1   36.85    3.23
   1   1   1   36.69    0.96
  -1  -1  -1   42.98    1.47
  -1  -1  -1   35.41    2.01
  -1  -1  -1   33.28    2.88
  -1  -1  -1   42.10    2.25
   1   1   2 4627.46  679.86
   1   1   2 6381.89  934.59
   1   1   2 5419.85  805.59
   1   1   2 5873.44  878.27
   1   1   2 5039.85  726.80
  -1  -1  -2 5704.92  815.69
  -1  -1  -2 6613.05  983.43
  -1  -1  -2 4915.18  751.17
  -1  -1  -2 6321.48  949.90
  -1  -1  -2 5390.41  778.70
   1   1   3 1770.87  147.56
   1   1   3 1686.81  143.29
   1   1   3 1690.20  149.47
   1   1   3 1738.01  161.82
   1   1   3 1464.41  126.01
  -1  -1  -3 1830.62  145.56
  -1  -1  -3 1682.37  148.47
  -1  -1  -3 1465.93  139.87
  -1  -1  -3 1805.87  160.63
  -1  -1  -3 1787.90  151.40
   1   1   4  397.35   17.67
   1   1   4  450.69   23.47
   1   1   4  447.41   25.43
   1   1   4  418.28   25.46
   1   1   4  387.18   22.13
  -1  -1  -4  410.60   29.71
  -1  -1  -4  451.81   29.84
  -1  -1  -4  443.01   26.42
   1   1   5  718.72   48.03
   1   1   5  619.63   44.63
   1   1   5  600.91   38.63
  -1  -1  -5  829.21   51.76
  -1  -1  -5  652.37   46.88
  -1  -1  -5  674.17   47.01
  -1  -1  -5  681.81   48.52
   1   1   6  106.60    8.57
   1   1   6   94.66    7.05
   1   1   6   91.79    5.06
  -1  -1  -6  110.24    5.99
  -1  -1  -6   96.31    7.02
  -1  -1  -6  102.83    7.07
  -1  -1  -6  101.85    6.32
   1   1   7  339.83   23.15
   1   1   7  301.14   22.13
   1   1   7  304.91   18.05
  -1  -1  -7  396.54   22.73
  -1  -1  -7  324.80   22.76
  -1  -1  -7  318.06   22.93
  -1  -1  -7  343.72   22.15
   1   1   8   27.38    2.43
   1   1   8   22.52    3.50
   1   1   8   21.96    2.37
  -1  -1  -8   31.08    4.06
  -1  -1  -8   25.57    3.32
  -1  -1  -8   24.88    5.19
  -1  -1  -8   23.36    3.03
   1   1   9  122.03    7.43
   1   1   9   99.96    9.23
   1   1   9   96.81    6.69
  -1  -1  -9  113.08    7.64
  -1  -1  -9  101.21    8.65
  -1  -1  -9  101.47    8.66
  -1  -1  -9  104.76    8.57
   1   1  10    1.33    0.95
   1   1  10    0.56    1.51
   1   1  10    0.15    1.66
  -1  -1 -10    1.53    1.10
  -1  -1 -10    2.29    2.26
  -1  -1 -10    0.75    1.33
   1   1  11   46.98    6.34
   1   1  11   48.76    6.72
  -1  -1 -11   54.15    5.03
  -1  -1 -11   51.28    6.28
   1   1  12    6.09    2.76
   1   1  12    6.48    2.96
  -1  -1 -12   10.08    4.14
  -1  -1 -12    7.46    4.25
   1   1  13    1.21    1.19
   1   1  13    2.04    3.42
  -1  -1 -13    2.56    1.81
  -1  -1 -13    1.23    3.11
   1   1  14   -1.11    3.41
  -1  -1 -14    2.29    1.79
  -1  -1 -14    0.61    1.87
   1   1  15    4.46    3.07
  -1  -1 -15    6.03    2.59
  -1  -1 -15    4.86    2.76
   1   1  16    2.92    1.85
  -1  -1 -16   -2.86    2.73
  -1  -1 -16   -0.15    1.60
   1   1  17    0.36    2.05
  -1  -1 -17    1.99    1.62
   1   1  18    2.05    1.71
   1   1  18    0.25    1.12
   1   2 -20    8.47    2.78
   1   2 -20    2.42    2.31
  -1  -2  20    7.97    3.36
   1   2 -19    3.02    4.18
   1   2 -19    3.78    2.28
  -1  -2  19    2.95    2.13
   1   2 -18    4.53    2.81
   1   2 -18    1.60    2.48
  -1  -2  18    3.27    2.35
   1   2 -17   19.20    4.91
   1   2 -17   11.61    7.08
  -1  -2  17    9.20    4.30
   1   2 -16    8.69    3.60
   1   2 -16    4.31    3.17
  -1  -2  16    1.77    4.58
   1   2 -15  117.35   14.14
   1   2 -15  106.74   13.44
  -1  -2  15   86.20   11.74
   1   2 -14   -1.84    3.85
   1   2 -14    1.19    2.05
  -1  -2  14    1.34    1.82
   1   2 -13   29.27    8.09
   1   2 -13   26.59    5.25
  -1  -2  13   23.96    4.57
   1   2 -12   86.31    9.37
   1   2 -12   83.68   13.52
  -1  -2  12   86.81   12.61
   1   2 -11    2.23    1.75
   1   2 -11    5.12    1.99
   1   2 -11    4.36    1.81
  -1  -2  11    1.68    1.68
  -1  -2  11    2.52    1.76
   1   2 -10   98.61   12.25
   1   2 -10  102.51    8.76
   1   2 -10  116.60    7.51
   1   2 -10  106.74    8.56
  -1  -2  10   88.81    6.12
  -1  -2  10  101.70    8.54
  -1  -2  10  103.58    7.74
   1   2  -9    7.22    2.01
   1   2  -9    6.51    1.95
   1   2  -9    7.27    1.80
  -1  -2   9    5.40    1.18
  -1  -2   9    6.55    1.83
  -1  -2   9    6.91    1.55
   1   2  -8  186.61   13.48
   1   2  -8  151.03   10.90
   1   2  -8  180.82   11.58
  -1  -2   8  160.14    9.37
  -1  -2   8  217.35   12.21
  -1  -2   8  172.69   11.25
  -1  -2   8  171.15   10.41
   1   2  -7  390.32   26.27
   1   2  -7  305.48   20.40
   1   2  -7  372.03   26.16
  -1  -2   7  320.70   19.31
  -1  -2   7  392.72   23.07
  -1  -2   7  347.74   22.01
  -1  -2   7  345.94   20.55
   1   2  -6   63.75    7.10
   1   2  -6   60.97    4.31
   1   2  -6   60.37    5.02
  -1  -2   6   57.31    3.64
  -1  -2   6   76.36    4.23
  -1  -2   6   75.52    4.47
  -1  -2   6   64.45    3.68
   1   2  -5  293.69   17.40
   1   2  -5  250.59   14.23
   1   2  -5  302.02   16.10
   1   2  -5  267.53   13.60
  -1  -2   5  255.12   13.92
  -1  -2   5  324.90   18.33
  -1  -2   5  279.67   14.04
   1   2  -4 1518.47  131.77
   1   2  -4 1362.11  118.07
   1   2  -4 1516.51  125.81
   1   2  -4 1365.95  109.92
  -1  -2   4 1286.40  108.03
  -1  -2   4 1610.53  129.10
  -1  -2   4 1394.72  111.99
   1   2  -3   25.42    3.82
   1   2  -3   21.99    1.70
   1   2  -3   24.61    1.88
   1   2  -3   22.65    1.66
  -1  -2   3   22.93    1.68
  -1  -2   3   24.04    1.32
  -1  -2   3   26.89    1.03
  -1  -2   3   21.64    1.90
  -1  -2   3   25.18    1.79
   1   2  -2  193.55   10.33
   1   2  -2  204.37   11.10
   1   2  -2  224.63    8.74
   1   2  -2  229.98   13.06
   1   2  -2  220.14    8.31
  -1  -2   2  218.36   10.18
  -1  -2   2  272.11   12.24
  -1  -2   2  217.66    8.59
  -1  -2   2  239.60   11.49
  -1  -2   2  210.99    9.17
   1   2  -1    1.34    0.62
   1   2  -1    0.85    0.69
   1   2  -1    0.75    0.28
   1   2  -1    0.82    0.60
  -1  -2   1    0.38    0.49
  -1  -2   1    0.17    0.33
  -1  -2   1    1.09    0.38
  -1  -2   1    0.79    0.37
   1   2   0   35.77    2.18
   1   2   0   45.76    2.46
   1   2   0   38.52    1.59
   1   2   0   40.26    2.48
   1   2   0   37.38    1.36
   1   2   0   36.52    1.47
  -1  -2   0   36.61    2.31
  -1  -2   0   38.47    1.59
  -1  -2   0   33.55    1.79
  -1  -2   0   41.48    2.42
   1   2   1    3.40    0.75
   1   2   1    4.91    0.73
   1   2   1    3.78    1.06
   1   2   1    4.52    0.98
   1   2   1    3.89    0.58
   1   2   1    5.50    0.58
  -1  -2  -1    5.18    0.52
  -1  -2  -1    4.22    0.57
  -1  -2  -1    3.85    0.81
  -1  -2  -1    3.96    1.64
   1   2   2    1.13    0.50
   1   2   2    1.66    0.47
   1   2   2    0.52    0.91
   1   2   2    0.32    1.30
   1   2   2    2.48    0.57
  -1  -2  -2    0.75    0.59
  -1  -2  -2    0.89    0.47
  -1  -2  -2    1.56    0.76
  -1  -2  -2    0.78    0.79
   1   2   3    3.63    0.93
   1   2   3    3.52    0.82
   1   2   3    3.56    1.18
   1   2   3    2.57    0.53
  -1  -2  -3    3.95    0.43
  -1  -2  -3    3.91    1.12
  -1  -2  -3    4.64    1.79
  -1  -2  -3    3.37    0.64
   1   2   4    8.22    0.71
   1   2   4    9.42    1.29
   1   2   4    8.01    1.71
   1   2   4    7.51    0.86
  -1  -2  -4   10.16    0.67
  -1  -2  -4   11.38    0.89
  -1  -2  -4    9.66    1.71
  -1  -2  -4    7.79    1.63
  -1  -2  -4    8.26    1.07
   1   2   5  251.31   11.46
   1   2   5  302.53   14.00
   1   2   5  318.87   18.00
   1   2   5  329.50   21.03
   1   2   5  320.27   16.76
  -1  -2  -5  359.62   17.99
  -1  -2  -5  318.63   19.88
  -1  -2  -5  340.50   24.80
  -1  -2  -5  300.91   19.93
   1   2   6 1022.01   78.74
   1   2   6  905.21   85.14
   1   2   6  908.13   72.60
  -1  -2  -6 1061.79   81.42
  -1  -2  -6  928.20   83.85
  -1  -2  -6 1019.39   84.04
  -1  -2  -6  929.71   78.24
   1   2   7  105.29    6.42
   1   2   7   89.38   10.99
   1   2   7   80.53    5.26
  -1  -2  -7  102.29    5.57
  -1  -2  -7  100.83    8.16
  -1  -2  -7   90.22    7.66
  -1  -2  -7   85.30    8.72
   1   2   8   46.41    3.68
   1   2   8   41.13    7.40
   1   2   8   36.86    3.24
  -1  -2  -8   42.46    3.22
  -1  -2  -8   43.81    4.89
  -1  -2  -8   44.75    4.73
  -1  -2  -8   38.88    6.00
   1   2   9    4.77    1.32
   1   2   9    3.32    3.17
   1   2   9    2.47    1.21
  -1  -2  -9    3.68    1.17
  -1  -2  -9    4.28    1.92
  -1  -2  -9    3.59    2.59
   1   2  10   16.79    3.47
   1   2  10    9.71    5.08
  -1  -2 -10   10.18    3.11
  -1  -2 -10    9.10    2.64
   1   2  11   62.27    5.26
   1   2  11   50.73    7.49
  -1  -2 -11   62.66    6.12
  -1  -2 -11   46.24    6.71
   1   2  12    0.00    0.97
   1   2  12    0.43    1.60
  -1  -2 -12    0.52    1.32
   1   2  13   47.82    4.93
   1   2  13   54.19    8.03
  -1  -2 -13   46.00    7.09
   1   2  14    3.91    2.72
  -1  -2 -14    2.94    2.35
   1   2  15   14.18    4.35
   1   2  16    7.94    2.98
   1   2  16    3.92    2.12
   1   2  17   -0.45    2.36
   1   2  17    0.15    2.42
   1   2  17    0.25    0.95
   1   2  18   -2.85    1.92
   1   3 -20    1.78    2.19
  -1  -3  20    3.17    1.70
   1   3 -19    4.92    3.73
   1   3 -19    2.17    1.96
  -1  -3  19    1.46    1.92
   1   3 -18    1.08    2.31
   1   3 -18   -0.89    3.32
  -1  -3  18    2.48    1.97
   1   3 -17   -0.66    2.12
   1   3 -17    1.15    1.90
  -1  -3  17    1.63    2.87
   1   3 -16    1.42    2.36
   1   3 -16    1.50    2.10
  -1  -3  16    0.28    1.89
   1   3 -15    0.95    2.40
   1   3 -15    2.97    2.14
  -1  -3  15   -0.29    1.96
   1   3 -14   21.05    8.33
   1   3 -14   18.42    4.77
  -1  -3  14   15.27    6.66
   1   3 -13   11.94    5.71
   1   3 -13    6.99    4.77
  -1  -3  13    7.03    2.86
   1   3 -12    3.34    3.53
   1   3 -12    2.98    2.05
  -1  -3  12    3.33    2.06
   1   3 -11   36.75    8.05
   1   3 -11   40.44    5.13
   1   3 -11   43.85    4.99
  -1  -3  11   30.97    2.91
  -1  -3  11   42.05    5.07
   1   3 -10   12.41    3.19
   1   3 -10   13.75    2.93
   1   3 -10   17.58    2.26
   1   3 -10   13.70    2.70
  -1  -3  10   11.36    2.53
  -1  -3  10   13.17    4.58
  -1  -3  10   12.64    2.35
   1   3  -9    1.16    1.60
   1   3  -9    0.75    1.40
   1   3  -9    2.02    1.05
   1   3  -9    2.33    1.26
  -1  -3   9    1.65    1.55
  -1  -3   9    2.33    1.34
  -1  -3   9    1.84    1.10
   1   3  -8  144.70   14.48
   1   3  -8  122.14    9.10
   1   3  -8  130.57   11.11
  -1  -3   8  151.59   11.20
  -1  -3   8  150.88   10.27
  -1  -3   8  133.17   11.09
   1   3  -7   97.25    7.78
   1   3  -7   82.66    6.24
   1   3  -7   88.41    5.87
  -1  -3   7   97.07    6.00
  -1  -3   7  116.95    6.50
  -1  -3   7   91.97    7.23
  -1  -3   7   90.39    7.77
   1   3  -6 1723.27  169.85
   1   3  -6 1461.75  139.76
   1   3  -6 1802.98  169.23
   1   3  -6 1600.18  146.75
  -1  -3   6 1684.35  156.48
  -1  -3   6 1839.57  168.11
  -1  -3   6 1557.83  151.55
  -1  -3   6 1691.26  159.45
   1   3  -5    2.97    1.62
   1   3  -5    2.71    1.14
   1   3  -5    2.24    0.73
  -1  -3   5    2.77    0.93
  -1  -3   5    2.44    0.79
  -1  -3   5    2.93    1.16
  -1  -3   5    2.50    0.76
   1   3  -4   -0.77    1.25
   1   3  -4    0.12    0.58
   1   3  -4    0.47    1.19
   1   3  -4    0.95    0.66
  -1  -3   4    0.62    1.02
  -1  -3   4    0.49    0.19
  -1  -3   4    0.30    0.18
  -1  -3   4    0.07    1.22
  -1  -3   4    0.26    0.45
   1   3  -3   15.67    2.01
   1   3  -3   16.87    1.33
   1   3  -3   17.46    1.94
   1   3  -3   16.21    1.00
  -1  -3   3   16.18    2.21
  -1  -3   3   21.35    1.58
  -1  -3   3   17.66    0.91
  -1  -3   3   16.11    1.17
   1   3  -2  472.37   28.09
   1   3  -2  434.46   23.34
   1   3  -2  442.72   21.98
   1   3  -2  473.19   24.55
  -1  -3   2  443.16   24.35
  -1  -3   2  466.94   22.88
  -1  -3   2  476.26   28.80
  -1  -3   2  450.45   24.87
   1   3  -1   48.42    3.16
   1   3  -1   45.32    1.83
   1   3  -1   47.41    1.94
   1   3  -1   45.36    1.69
  -1  -3   1   45.65    1.44
   1   3   0  368.59   20.42
   1   3   0  367.59   17.13
   1   3   0  351.91   19.20
   1   3   0  381.99   25.32
   1   3   0  332.70   15.82
   1   3   0  352.28   18.22
  -1  -3   0  364.83   18.35
  -1  -3   0  377.08   17.00
  -1  -3   0  366.56   23.13
   1   3   1  284.78   17.80
   1   3   1  257.57   13.32
   1   3   1  275.86   16.34
   1   3   1  267.41   12.57
   1   3   1  296.55   13.69
  -1  -3  -1  317.57   16.65
  -1  -3  -1  285.93   12.47
  -1  -3  -1  296.67   20.62
   1   3   2   59.73    4.71
   1   3   2   60.01    3.21
   1   3   2   58.76    4.43
   1   3   2   52.34    3.52
   1   3   2   59.03    2.74
  -1  -3  -2   65.28    2.85
  -1  -3  -2   54.15    2.66
  -1  -3  -2   58.08    3.97
  -1  -3  -2   60.36    4.51
   1   3   3   50.40    4.26
   1   3   3   53.02    3.45
   1   3   3   58.29    6.98
   1   3   3   45.92    2.81
   1   3   3   56.64    3.02
  -1  -3  -3   71.28    4.45
  -1  -3  -3   47.73    3.02
  -1  -3  -3   56.61    4.29
  -1  -3  -3   60.31    7.06
   1   3   4  333.20   20.81
   1   3   4  364.25   21.56
   1   3   4  349.41   24.46
   1   3   4  320.58   18.78
   1   3   4  318.06   19.49
  -1  -3  -4  390.29   19.96
  -1  -3  -4  342.20   17.63
  -1  -3  -4  358.83   23.15
  -1  -3  -4  365.47   24.43
   1   3   5  118.13    7.98
   1   3   5  158.29    7.91
   1   3   5  173.39    9.56
   1   3   5  150.34   11.11
   1   3   5  138.17    7.45
  -1  -3  -5  154.11   10.53
  -1  -3  -5  157.06   11.20
   1   3   6    4.04    1.17
   1   3   6    3.01    1.58
   1   3   6    2.70    0.87
  -1  -3  -6    2.82    0.65
  -1  -3  -6    3.26    1.56
  -1  -3  -6    2.41    2.48
   1   3   7   11.57    2.74
   1   3   7    9.22    2.31
  -1  -3  -7   10.96    3.65
  -1  -3  -7    7.55    2.21
  -1  -3  -7    5.66    1.71
   1   3   8   11.98    2.90
   1   3   8    8.10    2.49
   1   3   8    7.22    1.51
  -1  -3  -8    5.64    1.91
   1   3   9    7.77    1.69
   1   3   9    6.32    2.34
   1   3   9    3.58    1.42
  -1  -3  -9    3.86    1.86
   1   3  10    1.42    1.31
   1   3  10    2.51    1.97
  -1  -3 -10    1.03    1.53
   1   3  11   32.84    4.23
   1   3  11   28.53    5.73
   1   3  12    3.74    1.74
   1   3  12    3.54    2.72
   1   3  13    1.42    2.04
   1   3  13    0.64    1.52
   1   3  14   -0.73    2.79
   1   3  14    0.44    1.23
   1   3  15   -1.77    2.52
  -1  -3 -15    0.22    1.08
   1   3  16    5.38    2.71
   1   3  17   -2.58    2.10
   1   4 -19    1.60    2.37
   1   4 -19    1.18    1.14
  -1  -4  19   -1.70    1.18
   1   4 -18    0.73    2.12
   1   4 -18    1.80    3.00
  -1  -4  18    1.60    2.92
   1   4 -17    0.01    2.25
   1   4 -17    1.60    1.97
  -1  -4  17    1.45    1.86
   1   4 -16    0.47    2.22
   1   4 -16   -0.30    1.96
  -1  -4  16    2.08    1.86
   1   4 -15   19.74    4.83
   1   4 -15    9.88    4.32
  -1  -4  15   15.57    4.24
   1   4 -14    0.59    2.25
  -1  -4  14    2.35    3.18
   1   4 -13    6.85    4.77
   1   4 -13    5.29    2.46
  -1  -4  13    3.74    2.59
   1   4 -12    3.43    3.94
   1   4 -12    5.26    4.11
   1   4 -12    3.12    2.14
  -1  -4  12    4.33    2.31
   1   4 -11    5.16    2.63
   1   4 -11    5.89    3.63
   1   4 -11    5.44    2.19
  -1  -4  11    5.14    3.84
   1   4 -10    2.83    1.88
   1   4 -10    2.46    2.44
   1   4 -10    2.02    1.44
  -1  -4  10    1.13    0.93
  -1  -4  10    1.36    1.60
   1   4  -9  159.17   17.79
   1   4  -9  126.73   14.36
   1   4  -9  156.57    9.69
   1   4  -9  148.10   13.55
  -1  -4   9  153.73    9.52
  -1  -4   9  167.05   12.77
  -1  -4   9  146.01   12.11
  -1  -4   9  144.78   10.69
   1   4  -8  295.64   22.71
   1   4  -8  234.19   21.44
   1   4  -8  308.46   17.65
   1   4  -8  267.56   17.57
  -1  -4   8  271.90   16.96
  -1  -4   8  299.52   20.93
  -1  -4   8  269.16   20.18
  -1  -4   8  268.72   17.95
   1   4  -7  333.41   24.11
   1   4  -7  315.09   25.01
   1   4  -7  296.55   16.96
   1   4  -7  324.95   22.31
   1   4  -7  294.99   18.15
  -1  -4   7  293.23   17.80
  -1  -4   7  296.74   21.26
  -1  -4   7  299.59   18.68
   1   4  -6  195.80   14.03
   1   4  -6  164.56   13.28
   1   4  -6  178.54   12.17
   1   4  -6  169.97    9.42
  -1  -4   6  167.78    9.73
  -1  -4   6  173.80   15.73
  -1  -4   6  166.84   12.12
   1   4  -5    8.74    3.04
   1   4  -5    7.12    1.30
   1   4  -5    9.26    1.94
   1   4  -5    6.76    1.72
  -1  -4   5   10.32    1.36
  -1  -4   5    7.80    0.54
  -1  -4   5    7.71    0.46
  -1  -4   5    6.14    1.89
  -1  -4   5    7.72    2.09
   1   4  -4  386.17   25.36
   1   4  -4  354.47   20.51
   1   4  -4  420.01   26.08
   1   4  -4  384.71   20.79
  -1  -4   4  409.67   23.37
  -1  -4   4  380.98   19.43
  -1  -4   4  414.33   26.50
  -1  -4   4  393.23   22.39
   1   4  -3    4.02    1.44
   1   4  -3    4.06    0.71
   1   4  -3    5.41    1.50
   1   4  -3    4.08    0.69
  -1  -4   3    4.57    1.00
  -1  -4   3    4.13    0.72
  -1  -4   3    6.69    1.51
  -1  -4   3    3.84    1.32
   1   4  -2    0.20    0.91
   1   4  -2    0.29    0.31
   1   4  -2    0.78    0.43
  -1  -4   2    1.09    0.62
  -1  -4   2    0.60    0.47
   1   4  -1   53.44    3.81
   1   4  -1   47.13    2.36
   1   4  -1   44.47    2.14
   1   4  -1   46.32    2.50
  -1  -4   1   55.37    4.27
   1   4   0   16.30    1.93
   1   4   0   14.70    1.30
   1   4   0   11.79    1.08
   1   4   0   10.45    1.79
  -1  -4   0   17.46    1.57
   1   4   1  243.81   17.79
   1   4   1  243.55   12.89
   1   4   1  247.77   20.91
   1   4   1  207.23   12.22
   1   4   1  238.66   12.10
  -1  -4  -1  263.31   13.53
  -1  -4  -1  247.45   17.00
   1   4   2  740.31   60.02
   1   4   2  811.29   57.74
   1   4   2  793.13   64.08
   1   4   2  693.67   48.72
   1   4   2  730.12   52.94
  -1  -4  -2  842.41   60.13
  -1  -4  -2  870.17   67.75
   1   4   3  656.32   51.25
   1   4   3  700.60   49.21
   1   4   3  705.98   56.04
   1   4   3  573.04   40.44
   1   4   3  629.07   43.06
  -1  -4  -3  833.24   55.20
  -1  -4  -3  792.30   66.69
   1   4   4    4.14    1.64
   1   4   4    4.24    1.18
   1   4   4    2.98    1.70
   1   4   4    2.02    1.48
   1   4   4    3.38    1.27
  -1  -4  -4    2.99    0.93
  -1  -4  -4    4.60    1.55
   1   4   5   93.90    5.97
   1   4   5  102.57    6.66
   1   4   5  110.26    7.07
   1   4   5  103.18    8.98
  -1  -4  -5  110.07    8.52
  -1  -4  -5  107.18    8.60
   1   4   6    2.15    1.15
   1   4   6    2.29    2.67
   1   4   6    1.09    0.99
   1   4   6    1.36    0.86
  -1  -4  -6    3.15    1.55
  -1  -4  -6    1.33    2.48
   1   4   7    5.55    1.42
   1   4   7    3.19    3.15
   1   4   7    1.46    1.29
   1   4   7    1.70    1.79
   1   4   8   17.22    2.48
   1   4   8   12.54    5.38
   1   4   8    6.92    2.31
   1   4   9    9.64    2.26
   1   4   9    7.16    5.05
   1   4  10    7.60    2.18
   1   4  10    5.29    4.94
   1   4  11    0.53    1.15
   1   4  11   -1.39    2.78
   1   4  12   11.40    6.63
   1   4  13    2.33    2.83
  -1  -4 -13    5.38    2.44
   1   4  14   -0.38    2.01
  -1  -4 -14    2.17    1.64
   1   4  15    3.13    1.83
  -1  -4 -15   -0.24    1.29
   1   4  16    0.22    1.52
  -1  -4 -16    1.36    1.64
   1   5 -19   12.24    3.12
   1   5 -19    7.53    2.48
   1   5 -18    1.70    3.48
   1   5 -18   -1.04    3.00
  -1  -5  18    3.11    1.89
   1   5 -17    3.84    2.56
   1   5 -17    2.81    2.30
  -1  -5  17    3.58    2.34
   1   5 -16   15.40    4.56
   1   5 -16   12.54    4.12
  -1  -5  16   14.02    4.09
   1   5 -15   11.40    4.04
   1   5 -15    7.56    5.85
  -1  -5  15   11.44    6.05
   1   5 -14   37.33    6.51
   1   5 -14   29.69    8.83
  -1  -5  14   35.45    6.39
   1   5 -13    4.52    2.62
   1   5 -13    2.87    2.31
  -1  -5  13    3.94    2.52
   1   5 -12   17.62    4.82
   1   5 -12   19.47    4.36
   1   5 -12   16.83    3.86
  -1  -5  12   21.48    4.28
   1   5 -11    0.09    2.12
   1   5 -11    1.10    1.80
   1   5 -11    1.85    1.60
  -1  -5  11    2.99    2.85
   1   5 -10    0.02    2.71
   1   5 -10    0.93    1.28
   1   5 -10    0.91    1.88
  -1  -5  10   -0.51    1.31
   1   5  -9   99.02    9.54
   1   5  -9   81.13    7.74
   1   5  -9   68.46    5.36
   1   5  -9   82.58    6.76
  -1  -5   9  100.58    8.72
   1   5  -8  134.59   12.04
   1   5  -8  103.00    8.91
   1   5  -8  112.74    8.28
  -1  -5   8  124.32    8.34
  -1  -5   8  117.28    9.07
   1   5  -7    0.52    1.43
   1   5  -7    0.32    0.89
   1   5  -7    0.02    0.56
   1   5  -7   -0.28    1.17
   1   5  -7    0.05    0.78
  -1  -5   7    0.28    0.84
  -1  -5   7    0.09    1.22
  -1  -5   7    2.20    0.89
   1   5  -6   12.48    4.40
   1   5  -6    5.94    1.45
   1   5  -6    6.10    0.96
   1   5  -6   12.03    2.16
   1   5  -6    8.61    2.23
  -1  -5   6    8.44    1.58
  -1  -5   6    9.25    2.24
  -1  -5   6    8.05    1.58
   1   5  -5    2.18    1.34
   1   5  -5    0.88    2.07
   1   5  -5    0.84    0.71
  -1  -5   5    1.78    0.94
  -1  -5   5    0.82    1.29
  -1  -5   5    0.52    1.37
   1   5  -4   38.25    3.95
   1   5  -4   33.03    2.30
  -1  -5   4   36.28    4.47
  -1  -5   4   33.18    2.24
  -1  -5   4   37.32    3.93
  -1  -5   4   30.55    2.66
   1   5  -3   88.94    6.79
   1   5  -3   68.10    5.25
  -1  -5   3   93.50    7.77
  -1  -5   3   82.19    5.92
  -1  -5   3  106.21   10.14
  -1  -5   3   77.57    4.77
   1   5  -2   14.12    2.29
   1   5  -2    9.74    1.17
   1   5  -2    8.23    1.35
  -1  -5   2   13.41    1.77
  -1  -5   2   12.39    1.52
   1   5  -1   16.19    2.41
   1   5  -1   11.59    1.25
   1   5  -1   11.50    1.47
  -1  -5   1   19.37    1.89
   1   5   0   71.44    5.53
   1   5   0   59.94    6.15
   1   5   0   57.99    3.91
  -1  -5   0   76.16    4.64
  -1  -5   0   65.98    9.11
   1   5   1   26.62    2.98
   1   5   1   25.18    2.26
   1   5   1   23.67    3.50
   1   5   1   22.83    2.22
  -1  -5  -1   27.63    3.56
  -1  -5  -1   26.90    3.67
   1   5   2   20.75    4.45
   1   5   2   22.15    2.35
   1   5   2   26.66    5.70
  -1  -5  -2   26.53    2.71
  -1  -5  -2   24.03    3.56
   1   5   3  170.70   11.96
   1   5   3  178.99   11.51
   1   5   3  184.77   14.98
  -1  -5  -3  190.30   12.09
  -1  -5  -3  176.83   17.94
   1   5   4   34.50    3.83
   1   5   4   44.69    3.99
   1   5   4   39.80    5.48
   1   5   5   35.38    3.71
   1   5   5   30.99    5.07
   1   5   6   22.71    3.15
   1   5   6   19.61    4.27
   1   5   7    8.60    2.13
   1   5   7    5.15    2.98
   1   5   8   -0.31    1.09
   1   5   8    0.06    1.53
   1   5   9    1.34    2.06
   1   5  10    0.00    1.38
   1   5  11    2.99    2.63
  -1  -5 -11    3.36    2.58
   1   5  12    6.84    3.12
  -1  -5 -12    4.84    2.91
   1   5  13   -0.47    1.79
  -1  -5 -13    1.42    1.62
   1   5  14   17.30    3.03
  -1  -5 -14    2.14    2.46
   1   5  15   -5.35    2.46
  -1  -5 -15    2.18    1.99
  -1  -6  19    1.08    2.29
   1   6 -18    0.86    1.59
   1   6 -18    0.41    2.30
  -1  -6  18    1.72    1.58
   1   6 -17    0.01    2.46
   1   6 -17   -0.28    1.32
  -1  -6  17    1.13    1.47
   1   6 -16    3.45    3.61
   1   6 -16    1.47    2.11
  -1  -6  16    4.01    2.27
   1   6 -15    2.98    2.95
   1   6 -15    2.33    4.56
  -1  -6  15    9.98    3.05
   1   6 -14   20.90    4.93
   1   6 -14   19.67    4.52
  -1  -6  14   30.24    5.29
   1   6 -13   22.80    5.96
   1   6 -13   22.90    4.98
   1   6 -13   23.29    4.58
  -1  -6  13   32.38    5.47
   1   6 -12   19.56    5.01
   1   6 -12   13.82    3.93
   1   6 -12   15.07    3.71
  -1  -6  12   20.36    6.75
   1   6 -11    9.88    3.81
   1   6 -11    6.18    2.70
   1   6 -11    6.95    2.56
  -1  -6  11    8.49    2.98
   1   6 -10   21.15    7.34
   1   6 -10   13.56    4.49
  -1  -6  10   18.69    3.82
   1   6  -9   15.06    3.97
   1   6  -9   10.37    2.39
  -1  -6   9   15.57    3.28
   1   6  -8   48.71    6.52
   1   6  -8   36.07    3.99
   1   6  -7   68.15    7.82
   1   6  -7   68.11    6.75
   1   6  -7   49.10    4.48
  -1  -6   7   49.50    7.35
   1   6  -6  119.91   15.46
   1   6  -6  109.41    8.94
   1   6  -6   79.49    8.27
  -1  -6   6   78.26    6.54
   1   6  -5    3.30    1.74
   1   6  -5    1.87    2.63
   1   6  -5    1.85    0.89
  -1  -6   5    0.95    1.08
   1   6  -4    0.84    1.32
   1   6  -4    0.30    0.65
   1   6  -3   35.35    4.35
   1   6  -3   26.76    2.30
   1   6  -3   23.02    2.85
  -1  -6   3   37.63    3.35
  -1  -6   3   31.79    4.49
   1   6  -2  106.16    9.07
  -1  -6   2  113.84    7.51
  -1  -6   2  101.74    6.97
   1   6  -1    0.55    1.19
  -1  -6   1    0.22    0.88
  -1  -6   1    0.48    0.91
   1   6   0    1.60    1.34
   1   6   0   -1.28    1.46
  -1  -6   0    1.04    1.62
  -1  -6   0    2.31    1.19
   1   6   1   20.47    3.43
   1   6   1   21.66    3.97
  -1  -6  -1   25.75    3.26
  -1  -6  -1   25.28    3.45
   1   6   2    8.29    2.32
   1   6   2    7.85    2.81
  -1  -6  -2   10.30    2.17
   1   6   3   21.50    3.50
   1   6   3   25.60    4.40
   1   6   4    3.42    1.69
   1   6   4    5.18    3.71
   1   6   5   62.68   12.39
   1   6   6    0.86    2.98
   1   6   7    2.57    2.37
   1   6   8    4.94    3.33
  -1  -6  -8   10.66    3.39
   1   6   9    4.02    2.96
  -1  -6  -9    5.96    3.18
   1   6  10    4.97    5.12
  -1  -6 -10    6.71    3.17
   1   6  11    1.02    3.54
  -1  -6 -11    1.94    2.21
   1   6  12    9.79    6.65
  -1  -6 -12   21.32    4.29
   1   6  13    0.06    1.60
  -1  -6 -13    2.37    2.50
   1   6  14   -0.93    2.61
  -1  -6 -14   16.37    2.62
  -1  -7  18    5.69    2.06
   1   7 -17    0.85    1.16
   1   7 -17    0.24    1.22
  -1  -7  17    2.02    1.53
   1   7 -16    0.13    1.29
  -1  -7  16    2.07    2.58
   1   7 -15   -0.76    1.35
  -1  -7  15    1.81    1.60
   1   7 -14    3.42    2.21
  -1  -7  14   -2.34    1.68
   1   7 -13   10.24    4.02
   1   7 -13    5.61    2.81
  -1  -7  13   14.55    3.51
   1   7 -12    1.31    2.71
   1   7 -12    0.95    1.75
  -1  -7  12    6.28    3.63
   1   7 -11    4.24    4.02
   1   7 -11    1.13    1.51
  -1  -7  11    0.13    1.83
   1   7 -10    3.10    2.46
   1   7 -10    1.29    2.60
  -1  -7  10    0.74    1.89
   1   7  -9    6.95    3.39
   1   7  -9    4.12    1.86
  -1  -7   9    7.75    2.59
   1   7  -8    3.61    2.94
   1   7  -7  159.21   16.80
   1   7  -7  161.42   15.09
   1   7  -6   50.71   12.03
   1   7  -6   45.27    6.87
   1   7  -5  186.86   23.45
   1   7  -5  208.49   17.78
   1   7  -4   14.63    4.52
   1   7  -4   53.68    7.83
   1   7  -3    8.81    3.02
   1   7  -2   30.76    4.94
  -1  -7   2   29.55    3.96
   1   7  -1    1.49    1.83
  -1  -7   1    2.00    2.32
   1   7   0   17.36    3.93
   1   7   0   19.22    6.49
  -1  -7   0   20.88    3.45
   1   7   1    0.57    1.41
   1   7   1   -0.15    2.66
  -1  -7  -1    0.77    1.38
   1   7   2    0.95    1.18
   1   7   2   -2.67    1.40
  -1  -7  -2    1.50    1.25
   1   7   3    2.02    1.71
   1   7   3    1.44    2.09
  -1  -7  -3    2.74    1.96
   1   7   4    1.65    1.99
  -1  -7  -4    1.32    1.92
   1   7   5    4.33    2.84
  -1  -7  -5    6.85    2.86
   1   7   6   -0.34    1.86
  -1  -7  -6    1.82    1.85
   1   7   7    3.27    2.55
  -1  -7  -7    3.53    2.66
   1   7   8    4.66    3.11
  -1  -7  -8    7.97    3.20
   1   7   9    1.58    2.39
  -1  -7  -9    3.45    2.49
   1   7  10    7.08    3.68
  -1  -7 -10   16.94    3.93
   1   7  11    4.01    2.20
  -1  -7 -11    0.33    3.73
   1   7  12    4.60    2.61
  -1  -7 -12   15.13    4.80
  -1  -7 -13    1.69    1.58
  -1  -8  17   -0.35    1.18
   1   8 -16    0.51    0.97
  -1  -8  16    1.47    1.45
   1   8 -15    0.73    1.25
  -1  -8  15    2.44    1.78
   1   8 -14    0.69    3.20
   1   8 -14    2.07    2.35
  -1  -8  14    1.57    1.90
   1   8 -13    2.71    2.50
  -1  -8  13    1.64    2.14
   1   8 -12    4.88    4.08
  -1  -8  12   14.46    5.40
   1   8 -11    2.64    4.49
  -1  -8  11    1.27    1.97
   1   8 -10    7.05    5.77
  -1  -8  10    5.54    2.76
   1   8  -9    3.11    2.57
  -1  -8   9    0.57    1.94
   1   8  -8    3.96    3.31
   1   8  -7  159.46   18.43
   1   8  -7  152.68   15.96
   1   8  -6   -0.10    3.95
   1   8  -6   12.79    3.82
   1   8  -5  332.62   40.36
   1   8  -5  255.91   28.44
   1   8  -4   55.91    8.40
   1   8  -4  -12.33    8.59
   1   8  -3   36.57    6.35
   1   8  -2   30.04    5.69
   1   8  -1   25.06    5.39
   1   8  -1   42.14    6.13
  -1  -8   1   24.21    4.68
   1   8   0    0.97    1.55
   1   8   0   -1.32    1.68
  -1  -8   0    0.94    1.43
   1   8   1   40.98    6.81
   1   8   1   54.50    7.63
  -1  -8  -1   58.61   11.01
   1   8   2    5.40    2.81
   1   8   2    8.39    5.03
  -1  -8  -2    9.25    4.69
   1   8   3    1.81    2.56
   1   8   3    2.22    3.12
  -1  -8  -3    0.11    1.79
  -1  -8  -4    1.01    1.94
   1   8   5    0.22    1.85
  -1  -8  -5    1.11    1.81
   1   8   6    0.06    1.48
  -1  -8  -6   -0.18    1.47
   1   8   7    4.68    2.85
  -1  -8  -7    6.43    4.78
   1   8   8    0.69    1.91
  -1  -8  -8    2.53    3.18
   1   8   9    1.85    1.97
  -1  -8  -9    0.66    3.58
   1   8  10   -0.87    2.25
  -1  -8 -10    1.13    1.60
   1   8  11    2.38    3.47
  -1  -8 -11   11.64    2.81
  -1  -9  15   26.02    6.41
   1   9 -14    1.81    1.51
  -1  -9  14    0.20    1.60
   1   9 -13    1.56    1.62
  -1  -9  13   -0.71    1.39
   1   9 -12    1.55    2.04
  -1  -9  12    0.07    1.64
   1   9 -11    1.02    2.69
  -1  -9  11    2.57    3.17
   1   9 -10   -2.40    4.79
  -1  -9  10    2.37    1.99
   1   9  -9    4.48    3.34
  -1  -9   9    3.48    2.60
   1   9  -8   54.68    9.25
  -1  -9   8   49.89    7.30
   1   9  -7   62.64   10.61
   1   9  -6   11.78    4.84
   1   9  -6   10.49    3.88
   1   9  -5    6.36    2.53
   1   9  -5   -2.42    2.06
   1   9  -4    7.25    4.28
   1   9  -3   19.97    9.77
   1   9  -2    7.24    6.69
   1   9  -1    5.48    4.28
   1   9  -1    0.82    2.11
   1   9   0    0.07    4.66
   1   9   0    0.23    2.37
  -1  -9   0    6.10    2.27
   1   9   1    0.92    3.34
   1   9   1   -0.80    1.79
  -1  -9  -1    2.20    1.73
   1   9   2    7.62    3.15
   1   9   2    5.24    3.01
  -1  -9  -2    6.65    3.02
   1   9   3   14.58    4.04
  -1  -9  -3   12.37    4.02
   1   9   4   13.74    4.14
  -1  -9  -4   18.34    4.43
   1   9   5   -0.62    1.46
  -1  -9  -5    1.21    1.60
   1   9   6    0.91    1.66
  -1  -9  -6    1.25    1.92
   1   9   7    1.64    1.29
  -1  -9  -7   -1.50    1.56
   1   9   8    0.61    1.08
  -1  -9  -8   -0.43    1.38
   1   9   9    1.73    1.80
  -1  -9  -9   12.56    2.47
   1  10 -12    6.03    2.68
  -1 -10  12    4.10    2.14
   1  10 -11   11.70    4.13
  -1 -10  11   11.22    4.98
   1  10 -10    1.17    2.56
  -1 -10  10    1.68    2.79
   1  10  -9    1.17    4.68
  -1 -10   9    2.01    1.84
   1  10  -8   -0.41    2.18
  -1 -10   8    1.10    1.56
   1  10  -7    2.30    2.59
  -1 -10   7    1.10    1.81
   1  10  -6    3.42    3.22
   1  10  -5   -2.54    2.09
   1  10  -5    0.82    1.59
   1  10  -4    4.13    3.35
   1  10  -3    1.10    2.41
   1  10  -2    2.10    2.37
   1  10  -2   -3.29    1.95
   1  10  -1   11.29    4.22
   1  10  -1   11.61    3.56
   1  10   0   -0.43    1.59
   1  10   0    1.15    2.28
   1  10   1    6.65    3.10
   1  10   1    8.91    4.62
  -1 -10  -1    7.70    4.12
   1  10   2    2.19    2.04
   1  10   2    3.68    3.39
  -1 -10  -2    4.15    3.18
   1  10   3    0.39    1.53
  -1 -10  -3    1.27    1.51
   1  10   4    3.24    1.84
  -1 -10  -4    2.86    1.97
   1  10   5   -0.15    1.06
  -1 -10  -5   -0.16    1.19
   1  10   6   -0.84    1.83
  -1 -10  -6   -0.38    2.20
   1  11 -10   11.05    3.47
  -1 -11  10    8.01    2.32
   1  11  -9    1.65    3.45
  -1 -11   9    9.54    3.43
   1  11  -8   16.09    4.64
  -1 -11   8   11.44    2.81
   1  11  -7   15.69    6.92
  -1 -11   7    8.77    2.61
   1  11  -6    4.38    3.75
  -1 -11   6   -2.66    1.58
   1  11  -5   -0.35    2.12
  -1 -11   5    1.95    1.49
   1  11  -4    5.92    3.14
   1  11  -3    1.30    2.01
   1  11  -2    4.87    2.53
   1  11  -2    3.47    2.01
   1  11  -1   -0.19    1.50
   1  11  -1   -0.60    1.26
   1  11   0    2.14    2.70
   1  11   0    1.71    1.51
   1  11   1   -0.17    1.06
   1  11   2   -0.14    0.94
   2 -12  -1    2.44    1.21
  -2  12   1   -1.82    1.15
   2 -12   0    0.03    1.27
  -2  12   0   -1.30    1.31
  -2  12   0   -0.19    0.78
   2 -12   1    7.78    2.15
  -2  12  -1    1.66    2.49
  -2  12  -1    4.69    1.48
   2 -12   2   -0.80    1.25
  -2  12  -2    1.36    0.97
   2 -12   3    2.24    2.15
  -2  12  -3    1.34    1.16
  -2  12  -4   -2.78    1.60
  -2  12  -4    0.17    1.00
  -2  12  -5   20.47    4.30
  -2  12  -5   -0.09    2.83
  -2  12  -6   16.91    6.13
  -2  12  -6   11.84    3.91
  -2  12  -7   -2.15    1.70
  -2  12  -7   -1.21    1.21
  -2  12  -8    6.70    2.72
  -2  12  -8   27.78    2.62
   2 -11  -5    2.98    2.67
  -2  11   5    0.54    1.03
  -2  11   5   -0.02    0.88
   2 -11  -4    2.77    2.97
  -2  11   4    0.03    1.30
  -2  11   4    0.93    1.03
   2 -11  -3    3.46    3.47
  -2  11   3    1.10    1.66
  -2  11   3    1.11    1.26
  -2  11   2    0.16    1.21
  -2  11   2   -0.08    0.88
   2 -11  -1    0.48    3.32
  -2  11   1    1.31    1.81
  -2  11   1    0.74    1.34
   2 -11   0    5.26    4.40
  -2  11   0    3.28    2.55
  -2  11   0    3.26    1.86
   2 -11   1    2.99    2.66
  -2  11  -1    4.01    2.60
  -2  11  -1    3.30    3.16
   2 -11   2    3.06    2.35
  -2  11  -2    2.62    2.47
  -2  11  -2    1.72    2.90
   2 -11   3    1.27    2.04
  -2  11  -3    1.01    2.25
  -2  11  -3    2.44    1.65
   2 -11   4    2.53    2.66
  -2  11  -4    7.09    2.91
  -2  11  -4    5.65    2.18
   2 -11   5    1.48    2.63
  -2  11  -5    2.48    1.90
  -2  11  -5   -0.02    1.49
  -2  11  -6    1.68    1.90
  -2  11  -6    1.19    1.54
  -2  11  -7    0.60    2.73
  -2  11  -7    1.27    2.29
  -2  11  -8    1.82    3.65
  -2  11  -8    3.21    3.04
  -2  11  -9   -0.65    1.36
  -2  11  -9   -0.14    1.24
  -2  11 -10    4.04    1.95
  -2  11 -10   10.15    2.23
  -2  11 -11   46.77    5.04
  -2  11 -12    5.41    3.40
   2 -10  -8   -5.53    2.34
  -2  10   8   -1.40    2.25
   2 -10  -7   -1.04    1.47
  -2  10   7   -0.38    0.83
  -2  10   7    1.91    1.49
   2 -10  -6    5.70    3.04
  -2  10   6    4.60    3.30
  -2  10   6    3.04    3.26
   2 -10  -5    0.52    2.25
  -2  10   5    0.93    2.16
  -2  10   5    2.19    2.55
   2 -10  -4    3.77    3.00
  -2  10   4    3.37    1.90
  -2  10   4    2.23    3.23
   2 -10  -3    6.70    3.31
  -2  10   3    2.68    2.20
  -2  10   3    3.69    3.56
   2 -10  -2   10.65    4.03
  -2  10   2    6.73    2.81
  -2  10   2    6.28    2.80
   2 -10  -1   45.93    7.31
  -2  10   1   27.66    5.47
  -2  10   1   24.61    5.22
   2 -10   0    4.25    2.48
  -2  10   0    1.49    1.90
  -2  10   0   -0.68    1.83
   2 -10   1   12.21    3.83
  -2  10  -1   10.28    3.04
  -2  10  -1    0.76    3.16
   2 -10   2   52.92   11.88
  -2  10  -2   38.06    6.08
  -2  10  -2   35.99    6.08
   2 -10   3    0.52    2.22
  -2  10  -3    2.28    2.89
   2 -10   4   21.00    5.16
  -2  10  -4   23.12    8.55
  -2  10  -4   25.39    6.74
   2 -10   5    1.41    1.96
  -2  10  -5    2.12    2.07
  -2  10  -5    0.03    1.74
  -2  10  -6   -0.17    1.76
  -2  10  -6    1.01    1.49
  -2  10  -7    5.65    2.88
  -2  10  -7    6.42    2.57
  -2  10  -8    2.28    1.93
  -2  10  -8    1.44    1.81
  -2  10  -9   12.24    6.25
  -2  10  -9   16.65    5.73
  -2  10 -10    1.39    1.72
  -2  10 -11    0.19    1.26
  -2  10 -12    0.46    1.33
  -2  10 -13   -1.81    2.92
  -2  10 -14   -1.23    1.49
   2  -9 -10   -0.26    1.69
  -2   9  10   -1.65    1.27
   2  -9  -9    0.15    1.58
  -2   9   9    0.45    1.17
   2  -9  -8    2.08    2.20
  -2   9   8    0.46    1.76
  -2   9   8    1.81    1.61
   2  -9  -7    3.97    2.12
  -2   9   7    0.32    1.17
  -2   9   7   -0.27    1.55
   2  -9  -6    2.40    2.10
  -2   9   6    0.32    1.22
  -2   9   6   -0.58    1.50
   2  -9  -5   -4.27    2.55
  -2   9   5    0.36    1.53
  -2   9   5   -1.41    1.84
  -2   9   4    6.94    2.65
  -2   9   4    5.79    2.93
   2  -9  -3    0.65    2.50
  -2   9   3    0.64    1.69
  -2   9   3    1.25    1.88
   2  -9  -2    2.23    2.09
  -2   9   2   -0.03    1.42
  -2   9   2   -0.59    1.61
   2  -9  -1    2.53    3.30
  -2   9   1    0.75    2.36
  -2   9   1   19.99    4.51
   2  -9   0    3.62    2.82
  -2   9   0    2.00    2.10
   2  -9   1    1.38    2.21
  -2   9  -1    1.32    1.64
  -2   9  -1    0.00    1.63
  -2   9  -2    0.00    1.25
  -2   9  -2   -0.13    1.28
  -2   9  -3    0.56    1.28
  -2   9  -3   -0.34    1.35
   2  -9   4    7.31    3.28
  -2   9  -4    6.61    2.57
  -2   9  -4    6.24    2.69
   2  -9   5    0.33    1.84
  -2   9  -5   -0.01    1.43
  -2   9  -5   -4.02    2.62
   2  -9   6    9.71    3.79
  -2   9  -6   13.43    6.12
  -2   9  -6   15.30    3.34
  -2   9  -7    2.81    2.25
  -2   9  -7    2.61    2.04
  -2   9  -8   -1.95    1.60
  -2   9  -8    0.77    1.53
  -2   9  -9    2.81    2.02
  -2   9  -9    2.93    3.47
  -2   9 -10    1.56    3.21
  -2   9 -11    5.26    2.57
  -2   9 -12    0.48    1.55
  -2   9 -13    8.28    4.44
  -2   9 -14    0.95    1.71
  -2   9 -15   10.23    2.96
  -2   9 -16    2.92    1.77
   2  -8 -12    0.80    1.76
  -2   8  12    6.56    1.71
   2  -8 -11    0.36    1.61
  -2   8  11    2.42    2.32
   2  -8 -10    8.46    3.05
  -2   8  10    2.86    4.05
   2  -8  -9    1.14    3.73
  -2   8   9    1.35    3.17
   2  -8  -8   20.94    9.65
  -2   8   8   21.57    7.92
   2  -8  -7   -0.36    3.55
  -2   8   7    0.83    2.32
  -2   8   7    2.66    3.30
   2  -8  -6   18.97    6.78
  -2   8   6    7.76    3.91
  -2   8   6    8.68    5.79
   2  -8  -5  119.84   20.60
  -2   8   5   94.22   13.22
  -2   8   5  106.47   17.92
   2  -8  -4  161.00   24.15
  -2   8   4  127.83   12.33
  -2   8   4  135.01   15.42
   2  -8  -3   91.45   17.68
  -2   8   3   70.65    8.08
  -2   8   3   73.09    9.79
   2  -8  -2    8.83    7.09
  -2   8   2   16.17    3.29
  -2   8   2    5.22    3.31
   2  -8  -1    3.97    2.77
  -2   8   1    3.60    1.86
  -2   8   1    0.78    2.14
   2  -8   0   17.50    4.74
  -2   8   0   14.98    3.73
   2  -8   1    3.74    2.46
  -2   8  -1    1.93    3.10
  -2   8  -1    0.04    3.26
   2  -8   2    2.84    2.50
  -2   8  -2    1.45    3.11
  -2   8  -2    4.13    3.18
   2  -8   3    4.23    2.63
  -2   8  -3    2.93    1.99
  -2   8  -3    3.57    2.14
   2  -8   4    8.00    5.01
  -2   8  -4    6.78    2.38
  -2   8  -4    7.14    2.70
   2  -8   5   16.97    4.17
  -2   8  -5   15.43    3.24
  -2   8  -5   16.90    3.73
   2  -8   6   24.04    4.81
  -2   8  -6   22.11    3.69
  -2   8  -6   29.58    6.73
   2  -8   7   29.37    9.34
  -2   8  -7   39.04    9.02
  -2   8  -7   47.42    5.72
  -2   8  -8   17.71    4.06
  -2   8  -8   26.76    4.16
  -2   8  -9   -0.22    1.36
  -2   8 -10   40.61    9.43
  -2   8 -11   26.89    5.18
  -2   8 -12    0.70    1.79
  -2   8 -13  107.82   11.68
  -2   8 -14   13.88    6.54
  -2   8 -15    0.70    1.96
  -2   8 -15    1.10    1.85
  -2   8 -16    0.43    1.18
  -2   8 -16    2.33    1.71
  -2   8 -17    6.46    4.00
  -2   7  14    6.04    3.01
   2  -7 -13    0.56    0.97
  -2   7  13   -0.15    1.26
   2  -7 -12    0.49    1.49
  -2   7  12    1.24    1.65
   2  -7 -11   -0.71    2.65
  -2   7  11    0.76    1.58
   2  -7 -10   12.63    5.13
  -2   7  10    5.37    3.29
   2  -7  -9    3.00    3.81
  -2   7   9    1.81    2.37
   2  -7  -8   58.35    8.53
  -2   7   8   46.54    8.83
   2  -7  -7    1.92    2.27
  -2   7   7    0.76    1.35
  -2   7   7    2.23    2.19
   2  -7  -6  294.90   29.18
  -2   7   6  212.02   19.61
  -2   7   6  277.44   27.91
   2  -7  -5    0.66    1.84
  -2   7   5    0.32    1.16
  -2   7   5   -0.61    1.78
   2  -7  -4   62.76    8.44
  -2   7   4   52.96    6.19
  -2   7   4   60.90    9.36
   2  -7  -3    4.43    2.36
  -2   7   3    2.17    1.57
  -2   7   3   -0.36    3.74
   2  -7  -2    1.39    2.91
  -2   7   2    0.88    1.21
  -2   7   2    0.46    2.55
   2  -7  -1    1.96    3.37
  -2   7   1    1.90    1.22
  -2   7   1    0.06    1.54
   2  -7   0    3.97    2.43
  -2   7   0    3.43    1.47
  -2   7   0    1.31    1.90
   2  -7   1    6.86    2.99
  -2   7  -1    4.68    1.87
  -2   7  -1   11.43    2.52
   2  -7   2   15.83    3.78
  -2   7  -2   13.61    2.44
  -2   7  -2   16.71    5.14
   2  -7   3    7.55    2.73
  -2   7  -3    4.48    2.78
  -2   7  -3    6.22    2.14
   2  -7   4    2.48    2.83
  -2   7  -4    2.45    2.05
  -2   7  -4   -0.06    1.38
   2  -7   5    6.25    2.66
  -2   7  -5    5.81    1.91
  -2   7  -5    7.18    2.22
   2  -7   6    1.48    1.75
  -2   7  -6    1.10    1.23
  -2   7  -6    1.75    2.58
   2  -7   7    4.53    3.64
  -2   7  -7    2.94    2.54
  -2   7  -7    4.67    2.01
   2  -7   8   19.43    4.11
  -2   7  -8   25.38    3.93
  -2   7  -8   34.63    4.31
  -2   7  -9    5.75    2.06
  -2   7  -9   10.76    2.75
  -2   7 -10   56.52    6.62
  -2   7 -10  103.01   13.01
  -2   7 -11   14.59    3.39
  -2   7 -11   28.23    4.57
  -2   7 -12    4.91    3.64
  -2   7 -12    8.01    3.07
  -2   7 -13   67.23   14.02
  -2   7 -13   95.91   10.54
   2  -7  14    3.87    2.14
  -2   7 -14    7.87    2.69
  -2   7 -14    7.99    5.15
   2  -7  15    1.88    2.51
  -2   7 -15    1.66    1.85
  -2   7 -15    2.25    2.21
   2  -7  16    0.28    0.96
  -2   7 -16   -0.76    1.24
  -2   7 -16   -0.43    1.53
   2  -7  17    0.24    0.87
  -2   7 -17    1.45    1.98
  -2   7 -17    0.89    2.42
  -2   6  15   -2.29    1.67
  -2   6  14    1.32    1.73
  -2   6  13    2.28    2.12
   2  -6 -12    1.60    3.51
  -2   6  12    3.38    2.40
   2  -6 -11    0.29    2.48
  -2   6  11    0.51    1.81
   2  -6 -10   23.10    4.80
  -2   6  10   20.94    5.59
   2  -6  -9   56.72    7.99
  -2   6   9   49.49   13.00
   2  -6  -8    1.24    1.84
  -2   6   8    0.48    1.21
  -2   6   8    1.11    2.10
   2  -6  -7   13.99    3.97
  -2   6   7    8.59    3.95
  -2   6   7   12.49    4.31
   2  -6  -6  369.46   34.70
  -2   6   6  335.24   32.59
  -2   6   6  376.00   36.10
   2  -6  -5    7.95    2.93
  -2   6   5    4.10    3.31
  -2   6   5    6.56    2.93
   2  -6  -4  153.00   14.37
  -2   6   4  141.84   15.21
  -2   6   4  149.39   14.46
   2  -6  -3   32.50    4.86
  -2   6   3   28.27    5.52
  -2   6   3   29.53    4.71
   2  -6  -2    9.09    2.49
  -2   6   2    5.51    2.91
  -2   6   2    4.82    2.31
   2  -6  -1   -0.63    2.29
   2  -6  -1   -1.87    1.55
  -2   6   1    0.09    1.57
  -2   6   1   -0.04    2.59
  -2   6   1    0.17    2.18
  -2   6   1   -0.79    2.28
   2  -6   0   20.84    2.68
  -2   6   0   21.29    2.77
  -2   6   0   18.35    4.29
  -2   6   0   30.77    3.75
  -2   6   0   37.06    4.50
   2  -6   1   46.92    5.68
   2  -6   1   44.11    3.63
  -2   6  -1   42.89    3.86
  -2   6  -1   40.78    5.64
  -2   6  -1   37.23    4.86
  -2   6  -1   41.24    5.38
   2  -6   2    3.51    1.91
   2  -6   2    1.49    1.15
  -2   6  -2    2.91    1.15
  -2   6  -2    3.51    1.89
   2  -6   3    0.14    1.25
   2  -6   3    0.13    0.75
   2  -6   3    0.38    1.09
  -2   6  -3    0.41    0.74
  -2   6  -3    0.41    1.20
  -2   6  -3   -1.17    1.62
   2  -6   4    0.14    1.93
   2  -6   4   -0.17    1.07
  -2   6  -4    0.48    0.69
  -2   6  -4    0.54    0.82
  -2   6  -4   -0.98    0.95
   2  -6   5   37.38    4.69
  -2   6  -5   39.32    5.21
  -2   6  -5   23.38    3.17
  -2   6  -5   19.78    5.46
  -2   6  -5   43.54    3.95
   2  -6   6    5.08    2.12
  -2   6  -6    4.39    1.39
  -2   6  -6    5.16    1.60
  -2   6  -6    1.75    1.80
  -2   6  -6    7.60    3.09
   2  -6   7   69.82   10.65
  -2   6  -7   64.26    5.07
  -2   6  -7   57.60    6.17
  -2   6  -7   57.71    6.83
  -2   6  -7   87.95    6.58
   2  -6   8    5.92    2.29
   2  -6   8    4.60    1.72
  -2   6  -8    6.59    2.31
  -2   6  -8   10.88    2.27
   2  -6   9   10.27    2.85
   2  -6   9    9.95    2.35
  -2   6  -9   11.88    4.67
  -2   6  -9   18.05    2.97
   2  -6  10   84.87   13.13
  -2   6 -10  138.84   11.81
  -2   6 -10  175.56   18.01
  -2   6 -11  151.85   14.39
  -2   6 -11  179.75   16.30
  -2   6 -12   93.91   10.54
  -2   6 -12  109.02   11.33
   2  -6  13    1.99    1.89
  -2   6 -13    3.43    2.20
  -2   6 -13    5.29    3.68
   2  -6  14   -0.67    2.25
  -2   6 -14    1.38    2.51
  -2   6 -14    1.04    1.88
   2  -6  15    1.91    3.09
  -2   6 -15    2.97    2.27
  -2   6 -15    2.32    2.41
   2  -6  16    0.80    1.23
  -2   6 -16   -0.66    1.56
  -2   6 -16    0.73    1.64
   2  -6  17    0.08    1.03
  -2   6 -17   -0.34    1.39
  -2   6 -17   -1.42    2.51
  -2   6 -18   18.70    5.73
  -2   6 -18   20.12    3.71
  -2   5  16    2.50    1.90
  -2   5  15   -0.35    1.45
  -2   5  14    2.18    3.56
  -2   5  13    1.23    3.41
  -2   5  12    2.99    2.65
   2  -5 -11   11.23    3.17
  -2   5  11    9.02    3.77
   2  -5 -10    1.10    1.63
  -2   5  10    0.37    1.94
   2  -5  -9   47.24    6.00
  -2   5   9   27.32    6.44
  -2   5   9   47.67    7.14
   2  -5  -8   29.65    4.40
  -2   5   8   18.87    3.13
  -2   5   8   26.78    4.90
   2  -5  -7   35.25    4.79
  -2   5   7   26.14    3.67
  -2   5   7   32.30    5.46
   2  -5  -6   86.55    8.55
  -2   5   6   74.37    6.97
  -2   5   6   91.11    9.24
   2  -5  -5   65.28    7.00
   2  -5  -5   78.16    5.44
  -2   5   5   56.66    5.55
  -2   5   5   71.86    8.92
  -2   5   5   65.80   10.67
   2  -5  -4   11.03    2.61
   2  -5  -4   11.45    1.83
  -2   5   4    8.12    1.91
  -2   5   4   10.28    3.33
  -2   5   4   12.38    4.20
  -2   5   4   11.76    2.74
   2  -5  -3   15.25    2.86
   2  -5  -3   17.34    3.17
  -2   5   3   11.63    2.15
  -2   5   3   14.05    3.74
  -2   5   3   13.98    2.91
  -2   5   3   15.93    2.93
   2  -5  -2   62.39    6.21
   2  -5  -2   69.88    4.80
  -2   5   2   60.83    5.07
  -2   5   2   65.17   11.80
  -2   5   2   62.35    6.16
  -2   5   2   68.59    6.24
   2  -5  -1  143.16   14.81
   2  -5  -1  158.15    9.29
  -2   5   1  143.48    9.54
  -2   5   1  140.02   16.77
  -2   5   1  150.80   11.18
  -2   5   1  156.32   11.55
   2  -5   0    0.95    0.69
   2  -5   0    3.39    2.48
   2  -5   0    1.86    0.93
  -2   5   0    0.73    0.98
  -2   5   0    1.32    1.52
  -2   5   0    1.62    0.76
   2  -5   1  100.68    8.47
  -2   5  -1   92.69    6.25
  -2   5  -1   88.32    8.39
  -2   5  -1   96.12    7.66
   2  -5   2   56.37    4.73
   2  -5   2   85.61    6.89
   2  -5   2   59.76    3.04
  -2   5  -2   86.37    6.50
  -2   5  -2   55.34    4.77
   2  -5   3  461.70   39.52
   2  -5   3  355.26   22.34
   2  -5   3  420.88   32.94
  -2   5  -3  451.58   27.60
  -2   5  -3  378.76   31.18
  -2   5  -3  477.35   32.44
  -2   5  -3  525.48   39.04
   2  -5   4    0.58    0.59
   2  -5   4   -0.90    1.20
   2  -5   4    0.28    0.76
   2  -5   4    0.20    0.51
  -2   5  -4    0.19    0.64
  -2   5  -4    0.78    0.92
  -2   5  -4    0.39    0.97
   2  -5   5   49.22    5.22
   2  -5   5   34.48    4.02
   2  -5   5   37.11    4.24
   2  -5   5   47.90    7.33
  -2   5  -5   45.29    4.41
  -2   5  -5   38.73    4.49
  -2   5  -5   46.78    4.47
  -2   5  -5   54.10    4.35
   2  -5   6  125.98   10.38
   2  -5   6   95.35    6.64
   2  -5   6   98.58    6.70
   2  -5   6  125.24    9.89
  -2   5  -6  120.21    7.24
  -2   5  -6  105.21    9.68
  -2   5  -6  115.48    8.76
  -2   5  -6  141.12   12.50
   2  -5   7   32.41    3.78
   2  -5   7   14.10    2.22
   2  -5   7   13.81    2.29
   2  -5   7   26.66    3.47
  -2   5  -7   16.77    2.01
  -2   5  -7   20.86    3.33
  -2   5  -7   18.55    5.65
  -2   5  -7   17.57    2.81
  -2   5  -7   24.98    3.05
   2  -5   8    1.59    1.66
   2  -5   8    2.44    1.26
   2  -5   8    2.57    1.25
  -2   5  -8    2.04    1.85
  -2   5  -8    3.37    2.96
  -2   5  -8    2.68    1.43
  -2   5  -8    3.71    1.60
   2  -5   9   30.63    7.25
   2  -5   9   31.39    5.81
   2  -5   9   29.64    4.01
  -2   5  -9   42.96    5.53
  -2   5  -9   48.77    7.03
   2  -5  10   13.15    2.98
   2  -5  10   12.20    2.87
  -2   5 -10   22.54    6.16
  -2   5 -10   27.80    3.52
   2  -5  11    2.15    1.69
  -2   5 -11    4.57    2.06
  -2   5 -11    2.92    2.03
   2  -5  12    0.90    1.56
  -2   5 -12    1.57    1.76
  -2   5 -12    1.27    1.75
   2  -5  13    0.93    1.96
  -2   5 -13    4.34    2.25
  -2   5 -13    6.52    4.03
   2  -5  14   -1.36    2.82
  -2   5 -14   -0.45    2.02
  -2   5 -14    5.69    2.18
   2  -5  15    1.93    2.15
  -2   5 -15    5.78    4.74
  -2   5 -15    4.75    2.59
   2  -5  16    0.32    1.73
  -2   5 -16    2.94    2.19
  -2   5 -16    3.09    3.35
   2  -5  17    0.64    1.16
  -2   5 -17    0.62    1.49
  -2   5 -17   -0.94    1.44
   2  -5  18    2.62    2.08
  -2   5 -18    0.57    1.76
  -2   5 -18    1.30    1.64
  -2   4  17   -3.33    1.91
  -2   4  16    3.46    3.63
  -2   4  15    1.76    2.12
  -2   4  14    3.48    2.70
  -2   4  13    9.49    3.77
  -2   4  12    2.59    2.51
  -2   4  11    0.87    1.90
   2  -4 -10    1.32    1.42
  -2   4  10    0.74    1.00
  -2   4  10    0.68    1.82
   2  -4  -9    0.68    1.29
  -2   4   9    0.51    0.93
  -2   4   9    0.71    1.60
   2  -4  -8    2.16    1.51
   2  -4  -8    2.84    1.45
  -2   4   8    1.47    1.10
  -2   4   8    1.44    1.24
  -2   4   8   -0.01    1.82
   2  -4  -7    4.17    1.68
   2  -4  -7    3.92    1.79
  -2   4   7    3.68    2.14
  -2   4   7    4.61    2.33
  -2   4   7    3.95    1.41
  -2   4   7    4.17    2.05
   2  -4  -6  157.49   15.23
   2  -4  -6  154.35   11.85
   2  -4  -6  170.58    9.90
  -2   4   6  155.71   15.92
  -2   4   6  159.74   20.41
  -2   4   6  157.01   12.61
  -2   4   6  170.53   13.53
  -2   4   6  189.43   14.10
   2  -4  -5   16.90    3.94
   2  -4  -5   16.56    2.85
   2  -4  -5   21.83    2.07
  -2   4   5   17.54    4.24
  -2   4   5   17.46    6.01
  -2   4   5   18.71    1.82
  -2   4   5   16.52    3.03
  -2   4   5   19.88    4.88
   2  -4  -4  166.82   11.37
   2  -4  -4  164.09   11.65
   2  -4  -4  182.58   12.44
  -2   4   4  176.60   15.72
  -2   4   4  165.80   14.99
  -2   4   4  163.13    8.89
  -2   4   4  172.86   12.58
  -2   4   4  191.48   13.51
   2  -4  -3  130.19    8.72
   2  -4  -3  131.60    9.49
   2  -4  -3  141.21    7.95
  -2   4   3  138.63   12.95
  -2   4   3  145.39   12.29
  -2   4   3  128.51    7.66
  -2   4   3  138.66   13.51
   2  -4  -2  200.17   15.23
   2  -4  -2  220.42   14.29
   2  -4  -2  221.41   12.33
  -2   4   2  224.21   18.69
  -2   4   2  236.22   18.04
  -2   4   2  195.73   11.57
  -2   4   2  234.80   15.02
   2  -4  -1  235.01   14.67
   2  -4  -1  288.44   23.01
   2  -4  -1  256.10   14.07
  -2   4   1  237.09   16.82
  -2   4   1  260.99   25.19
  -2   4   1  232.78   14.15
  -2   4   1  263.18   16.60
   2  -4   0    3.37    1.08
   2  -4   0    4.32    1.60
  -2   4   0    2.67    1.05
  -2   4   0    2.80    1.68
  -2   4   0    6.26    1.48
   2  -4   1   41.97    3.03
   2  -4   1   50.80    4.55
   2  -4   1   37.97    1.27
   2  -4   1   44.17    1.42
  -2   4  -1   47.39    3.26
  -2   4  -1   41.97    3.49
  -2   4  -1   55.78    3.94
  -2   4  -1   50.95    3.83
   2  -4   2    8.89    1.32
   2  -4   2    7.95    2.01
   2  -4   2    6.04    0.76
   2  -4   2    6.35    0.83
  -2   4  -2    7.42    1.19
  -2   4  -2    7.04    2.48
  -2   4  -2    8.59    1.70
   2  -4   3  415.54   34.21
   2  -4   3  407.56   26.30
  -2   4  -3  407.48   26.27
  -2   4  -3  368.43   25.91
  -2   4  -3  398.93   26.66
  -2   4  -3  392.25   28.24
   2  -4   4    2.74    0.89
   2  -4   4    2.37    1.49
   2  -4   4    2.56    0.58
   2  -4   4    1.15    0.57
   2  -4   4    1.29    2.05
  -2   4  -4    2.14    0.71
  -2   4  -4    2.18    1.33
  -2   4  -4    3.57    2.22
  -2   4  -4    2.14    1.17
   2  -4   5  396.58   23.21
   2  -4   5  362.77   26.17
   2  -4   5  237.78   17.30
   2  -4   5  310.51   17.88
   2  -4   5  356.78   23.68
  -2   4  -5  332.64   18.46
  -2   4  -5  344.53   30.30
  -2   4  -5  399.79   28.87
  -2   4  -5  392.05   23.68
   2  -4   6  512.27   33.35
   2  -4   6  391.60   25.82
   2  -4   6  388.14   28.84
   2  -4   6  488.61   34.50
  -2   4  -6  456.88   29.65
  -2   4  -6  404.31   38.27
  -2   4  -6  457.25   34.37
  -2   4  -6  515.49   33.76
   2  -4   7  600.55   48.13
   2  -4   7  543.26   42.62
   2  -4   7  495.34   36.31
   2  -4   7  624.08   47.62
  -2   4  -7  534.14   45.60
  -2   4  -7  549.81   44.80
  -2   4  -7  702.79   49.53
   2  -4   8  145.09   12.87
   2  -4   8  127.77   12.55
   2  -4   8  126.47    9.48
   2  -4   8  156.46   12.43
  -2   4  -8  184.19   14.36
  -2   4  -8  138.94   13.31
  -2   4  -8  143.42   12.24
  -2   4  -8  189.60   12.41
   2  -4   9    1.81    1.60
   2  -4   9    2.55    1.43
   2  -4   9    2.72    1.44
  -2   4  -9    4.25    2.17
  -2   4  -9    2.42    1.68
  -2   4  -9    8.25    1.74
   2  -4  10   10.86    2.78
   2  -4  10    9.61    2.55
  -2   4 -10   18.81    3.77
  -2   4 -10   19.61    2.95
   2  -4  11    0.22    2.14
   2  -4  11    0.72    1.33
  -2   4 -11    4.07    2.88
  -2   4 -11    0.78    1.46
   2  -4  12   14.55    3.69
  -2   4 -12   27.07    4.49
  -2   4 -12   26.11    6.14
   2  -4  13    1.01    2.94
  -2   4 -13    2.13    2.15
  -2   4 -13    2.74    2.18
   2  -4  14   12.60    3.95
  -2   4 -14   20.71    4.44
  -2   4 -14   19.47    4.43
   2  -4  15   -0.13    1.62
  -2   4 -15    1.88    2.83
  -2   4 -15    0.97    1.79
   2  -4  16    2.07    2.01
  -2   4 -16    3.57    2.52
  -2   4 -16    1.11    3.81
   2  -4  17    0.24    1.32
  -2   4 -17    0.23    1.68
  -2   4 -17   -1.49    1.52
   2  -4  18    0.70    2.28
  -2   4 -18    0.94    1.78
  -2   4 -18    1.27    1.54
   2  -4  19   -0.49    1.05
  -2   4 -19   -0.75    1.97
  -2   3  18    7.39    3.93
  -2   3  17    2.06    1.96
  -2   3  16    5.38    2.79
  -2   3  15    1.51    2.20
   2  -3 -14   36.13    6.26
  -2   3  14   35.75    6.88
   2  -3 -13    1.96    2.23
  -2   3  13    1.87    2.29
   2  -3 -12    1.79    2.12
   2  -3 -11   -0.18    1.46
   2  -3 -10   61.62    6.63
  -2   3  10   34.25    7.28
   2  -3  -9    1.14    1.64
   2  -3  -9    1.49    1.24
   2  -3  -9    1.38    1.52
  -2   3   9    1.30    1.23
  -2   3   9    2.55    1.47
  -2   3   9    1.24    1.84
   2  -3  -8    9.77    2.03
   2  -3  -8    4.58    1.57
   2  -3  -8    4.76    1.21
  -2   3   8    2.91    1.61
  -2   3   8    5.94    3.75
  -2   3   8    5.33    1.78
  -2   3   8    2.91    2.12
   2  -3  -7   20.60    3.00
   2  -3  -7   16.56    2.42
   2  -3  -7   21.21    3.07
  -2   3   7   13.92    2.57
  -2   3   7   15.97    3.67
  -2   3   7   20.98    3.70
  -2   3   7   11.22    2.95
   2  -3  -6   19.13    2.71
   2  -3  -6   15.91    2.31
   2  -3  -6   19.12    1.68
  -2   3   6   12.80    2.46
  -2   3   6   16.76    3.48
  -2   3   6   21.57    1.99
  -2   3   6   10.70    2.47
   2  -3  -5   18.44    2.60
   2  -3  -5   17.32    2.37
   2  -3  -5   20.01    1.72
  -2   3   5   12.91    2.49
  -2   3   5   16.31    3.68
  -2   3   5   21.00    1.85
  -2   3   5   19.16    2.78
   2  -3  -4   26.14    4.49
   2  -3  -4   24.18    2.77
   2  -3  -4   27.32    2.10
  -2   3   4   18.77    2.94
  -2   3   4   20.72    6.87
  -2   3   4   30.43    3.84
  -2   3   4   24.75    3.18
   2  -3  -3  565.81   39.19
   2  -3  -3  535.53   37.20
   2  -3  -3  585.90   36.10
  -2   3   3  501.01   36.01
  -2   3   3  568.08   44.07
  -2   3   3  571.08   37.76
  -2   3   3  541.54   38.30
   2  -3  -2   18.32    2.19
   2  -3  -2   18.84    3.82
  -2   3   2   15.09    2.08
  -2   3   2   17.47    3.00
  -2   3   2   18.79    3.14
  -2   3   2   15.99    3.34
   2  -3  -1   16.03    3.11
   2  -3  -1   15.79    2.20
  -2   3   1   14.18    1.82
  -2   3   1   13.45    2.57
  -2   3   1   14.84    1.74
  -2   3   1   15.79    1.85
  -2   3   1   13.38    1.86
   2  -3   0   38.40    3.15
   2  -3   0   42.07    3.71
  -2   3   0   40.44    3.17
  -2   3   0   38.65    3.25
  -2   3   0   43.13    3.18
  -2   3   0   42.25    2.99
   2  -3   1  349.22   20.79
   2  -3   1  326.87   20.97
   2  -3   1  340.67   19.64
  -2   3  -1  362.05   20.23
  -2   3  -1  306.84   19.34
  -2   3  -1  331.13   23.21
  -2   3  -1  332.90   18.66
   2  -3   2   22.08    2.08
   2  -3   2   23.58    4.42
   2  -3   2   18.81    0.92
   2  -3   2   20.16    0.70
  -2   3  -2   18.97    2.34
  -2   3  -2   20.33    2.50
  -2   3  -2   23.81    2.54
   2  -3   3  121.36    6.83
   2  -3   3  109.72    7.77
   2  -3   3   96.82    4.56
   2  -3   3  108.76    8.34
  -2   3  -3  109.18    5.29
  -2   3  -3  105.48    7.41
  -2   3  -3  103.86    7.02
  -2   3  -3  114.16    5.91
   2  -3   4   68.03    6.26
   2  -3   4   51.49    4.79
   2  -3   4   38.26    3.07
   2  -3   4   43.48    2.39
   2  -3   4   53.90    3.65
  -2   3  -4   46.53    3.50
  -2   3  -4   51.80    4.65
  -2   3  -4   50.59    4.27
  -2   3  -4   59.52    3.43
   2  -3   5    4.99    1.16
   2  -3   5    1.91    1.55
   2  -3   5    2.87    1.25
   2  -3   5    3.00    0.78
   2  -3   5    4.88    1.25
  -2   3  -5    3.35    0.56
  -2   3  -5    5.59    2.49
  -2   3  -5    3.93    1.45
  -2   3  -5    4.68    1.74
   2  -3   6  236.24   13.68
   2  -3   6  209.26   15.21
   2  -3   6  179.63   12.81
   2  -3   6  209.78   13.34
  -2   3  -6  188.10   14.54
  -2   3  -6  222.48   12.74
   2  -3   7    5.40    1.36
   2  -3   7    5.65    2.19
   2  -3   7    9.37    2.70
  -2   3  -7    7.28    2.27
  -2   3  -7    9.00    1.65
   2  -3   8   18.87    2.98
   2  -3   8   15.81    2.53
   2  -3   8   14.78    3.83
   2  -3   8   21.79    4.36
  -2   3  -8   28.72    3.58
  -2   3  -8   20.64    3.69
  -2   3  -8   26.85    2.74
   2  -3   9   49.04    5.54
   2  -3   9   39.33    4.77
   2  -3   9   42.59    6.87
   2  -3   9   50.75    5.03
  -2   3  -9   67.26    6.52
  -2   3  -9   43.71    6.53
  -2   3  -9   48.87    8.89
  -2   3  -9   63.23    5.19
   2  -3  10   31.43    6.39
   2  -3  10   25.72    4.02
  -2   3 -10   42.84    5.39
  -2   3 -10   23.50    6.37
  -2   3 -10   38.29    4.17
   2  -3  11    0.47    0.94
   2  -3  11   -0.67    1.89
  -2   3 -11    1.71    2.55
  -2   3 -11   -0.04    2.18
   2  -3  12   18.42    7.07
  -2   3 -12   30.66    4.97
  -2   3 -12   30.27    4.97
   2  -3  13    1.56    2.07
  -2   3 -13    3.13    2.27
  -2   3 -13    3.07    2.14
   2  -3  14   48.77    8.02
  -2   3 -14   68.26    8.61
  -2   3 -14   68.19    8.69
   2  -3  15    1.03    2.08
  -2   3 -15    5.68    3.55
  -2   3 -15    1.30    3.70
   2  -3  16   -1.17    1.95
  -2   3 -16   -2.61    2.30
  -2   3 -16   -1.01    2.05
   2  -3  17   -0.35    2.09
  -2   3 -17    2.14    1.52
  -2   3 -17   -1.34    1.35
   2  -3  18    0.91    1.24
  -2   3 -18   -0.67    1.51
  -2   3 -18    0.65    2.09
   2  -3  19    0.12    1.12
  -2   3 -19    0.04    1.04
   2  -2 -18    0.52    1.03
  -2   2  18   -0.07    1.35
   2  -2 -17    1.86    2.04
  -2   2  17    3.80    2.23
   2  -2 -16    4.79    2.69
  -2   2  16    3.82    2.75
   2  -2 -15    3.63    2.44
  -2   2  15    1.06    1.75
   2  -2 -14   10.68    3.61
  -2   2  14    2.74    4.13
   2  -2 -13    0.82    3.73
   2  -2 -13    2.04    2.26
  -2   2  13    1.25    2.68
   2  -2 -12    4.82    3.82
   2  -2 -12    2.73    2.29
  -2   2  12    1.58    1.65
   2  -2 -11    3.11    2.72
   2  -2 -11    2.09    1.66
  -2   2  11    0.40    1.10
  -2   2  11   -0.02    1.21
   2  -2 -10    5.58    3.50
   2  -2 -10    5.90    2.22
  -2   2  10    3.27    1.52
  -2   2  10    2.65    1.54
   2  -2  -9    5.78    2.99
   2  -2  -9    2.33    1.89
  -2   2   9    2.29    1.36
  -2   2   9    2.40    1.73
  -2   2   9    4.62    1.77
  -2   2   9    2.44    1.26
   2  -2  -8  218.53   20.22
   2  -2  -8  167.13   11.18
   2  -2  -8  190.72   10.49
   2  -2  -8  219.71   16.35
  -2   2   8  192.07   15.92
  -2   2   8  266.67   16.54
  -2   2   8  173.70   11.80
   2  -2  -7   16.45    4.56
   2  -2  -7   14.51    1.77
   2  -2  -7   16.02    2.24
   2  -2  -7   14.92    2.68
  -2   2   7   12.93    5.09
  -2   2   7   20.09    2.09
  -2   2   7   10.55    1.71
   2  -2  -6  462.74   36.07
   2  -2  -6  468.96   40.10
   2  -2  -6  401.29   26.82
   2  -2  -6  487.63   27.62
   2  -2  -6  456.49   33.32
  -2   2   6  467.38   37.53
  -2   2   6  495.00   32.00
   2  -2  -5 2491.19  276.08
   2  -2  -5 2463.78  270.14
   2  -2  -5 2186.09  231.69
   2  -2  -5 2527.03  257.74
   2  -2  -5 2368.79  255.19
  -2   2   5 2440.45  276.36
  -2   2   5 2398.03  259.92
  -2   2   5 1376.89  204.93
   2  -2  -4    2.53    1.52
   2  -2  -4    1.64    1.30
   2  -2  -4    0.90    1.46
   2  -2  -4    2.61    0.64
  -2   2   4    3.09    1.66
  -2   2   4    2.16    1.08
  -2   2   4    1.58    0.44
   2  -2  -3  651.92   47.73
   2  -2  -3  648.69   44.81
   2  -2  -3  672.47   48.20
  -2   2   3  636.42   48.13
  -2   2   3  650.96   42.96
  -2   2   3  494.13   27.35
  -2   2   3  661.67   43.38
   2  -2  -2    3.67    1.45
   2  -2  -2    4.99    1.36
   2  -2  -2    5.30    1.19
  -2   2   2    4.77    2.66
  -2   2   2    3.71    1.23
  -2   2   2    5.11    0.98
  -2   2   2    4.14    1.00
   2  -2  -1  104.55    6.93
   2  -2  -1  104.51    6.37
   2  -2  -1   98.38    5.93
  -2   2   1   95.72    5.75
  -2   2   1  102.36    7.12
  -2   2   1   98.26    6.73
   2  -2   0  259.48   18.61
   2  -2   0  291.45   19.98
  -2   2   0  268.95   16.04
  -2   2   0  282.10   15.76
  -2   2   0  287.75   14.50
   2  -2   1   23.76    2.56
   2  -2   1   23.49    2.60
   2  -2   1   28.99    1.90
  -2   2  -1   20.70    1.79
  -2   2  -1   21.93    2.60
  -2   2  -1   23.77    2.37
  -2   2  -1   27.79    1.79
   2  -2   2  137.44   10.84
   2  -2   2  136.91    8.30
   2  -2   2  115.51    3.92
   2  -2   2  124.19    7.84
  -2   2  -2  125.90    6.27
  -2   2  -2  121.35    7.99
  -2   2  -2  138.39    7.84
   2  -2   3  182.70   10.27
   2  -2   3  183.27   15.37
   2  -2   3  158.91    7.98
   2  -2   3  155.74    6.50
   2  -2   3  163.56    8.18
  -2   2  -3  188.62    9.96
  -2   2  -3  166.65   10.96
  -2   2  -3  172.93   11.09
  -2   2  -3  181.80    8.29
   2  -2   4    1.31    1.06
   2  -2   4    2.24    1.17
   2  -2   4    1.34    0.85
   2  -2   4    1.97    0.53
   2  -2   4    1.60    0.77
  -2   2  -4    1.37    0.37
  -2   2  -4    0.91    2.09
  -2   2  -4    1.52    1.22
  -2   2  -4    2.74    1.09
   2  -2   5    8.79    1.40
   2  -2   5    8.67    1.88
   2  -2   5    5.36    1.01
   2  -2   5    6.03    1.03
   2  -2   5    7.94    1.92
  -2   2  -5    9.04    1.89
  -2   2  -5    8.07    1.99
  -2   2  -5    8.66    1.17
   2  -2   6   29.50    5.14
   2  -2   6   19.59    2.24
   2  -2   6   24.05    2.33
   2  -2   6   28.54    2.41
  -2   2  -6   30.69    3.72
  -2   2  -6   31.63    3.52
   2  -2   7   13.11    1.90
   2  -2   7   10.67    2.14
   2  -2   7    8.06    1.65
   2  -2   7    9.61    1.65
   2  -2   7   10.32    1.66
  -2   2  -7    9.83    2.57
  -2   2  -7   11.45    2.47
  -2   2  -7   12.65    1.69
   2  -2   8    7.13    1.67
   2  -2   8    1.85    2.23
   2  -2   8    3.29    1.38
   2  -2   8    5.44    1.36
  -2   2  -8    5.71    1.84
  -2   2  -8    3.86    2.09
  -2   2  -8    3.51    1.91
  -2   2  -8    4.55    1.35
   2  -2   9   18.42    4.78
   2  -2   9   15.17    4.30
   2  -2   9   16.29    2.74
   2  -2   9   16.45    2.57
  -2   2  -9   22.54    3.43
  -2   2  -9   12.32    3.71
  -2   2  -9   16.11    3.39
  -2   2  -9   31.82    4.19
   2  -2  10    0.64    1.07
   2  -2  10    0.12    2.10
  -2   2 -10    2.25    1.51
  -2   2 -10    0.75    1.44
  -2   2 -10    0.43    1.27
   2  -2  11    1.26    1.23
   2  -2  11    1.60    1.60
  -2   2 -11    2.85    2.91
  -2   2 -11    1.19    1.54
   2  -2  12    1.53    2.10
   2  -2  12    0.23    1.76
  -2   2 -12    1.66    1.84
  -2   2 -12    2.48    1.70
   2  -2  13   33.30    6.26
  -2   2 -13   50.83    6.48
  -2   2 -13   34.78    8.90
   2  -2  14   -0.46    1.76
  -2   2 -14    1.96    1.76
  -2   2 -14    0.69    1.76
   2  -2  15    0.01    1.97
  -2   2 -15    1.65    3.13
  -2   2 -15    2.54    1.96
   2  -2  16   -0.65    3.26
  -2   2 -16    2.96    2.29
  -2   2 -16    1.42    2.03
   2  -2  17    0.28    1.47
  -2   2 -17   -1.69    1.66
  -2   2 -17    0.24    2.32
   2  -2  18    0.14    1.40
  -2   2 -18    1.62    1.53
  -2   2 -18    0.48    1.22
   2  -2  19    1.32    1.23
  -2   2 -19   -0.04    1.51
  -2   1  19    3.23    1.91
   2  -1 -18    0.15    1.36
  -2   1  18    0.54    0.89
  -2   1  18   -0.77    1.34
   2  -1 -17    4.06    2.15
  -2   1  17    0.12    1.46
   2  -1 -16   -2.66    2.69
  -2   1  16    8.12    3.05
   2  -1 -15    0.84    3.63
   2  -1 -15   -1.18    2.03
  -2   1  15   -0.72    1.55
   2  -1 -14   14.59    6.37
   2  -1 -14   13.45    3.87
  -2   1  14    7.20    2.99
   2  -1 -13   17.80    6.40
   2  -1 -13   12.36    3.82
  -2   1  13    9.33    2.97
   2  -1 -12    4.42    2.53
   2  -1 -12    3.28    2.30
  -2   1  12    2.20    1.79
   2  -1 -11   16.33    3.74
   2  -1 -11   12.50    3.40
  -2   1  11    9.40    3.96
   2  -1 -10    0.21    1.38
   2  -1 -10    0.47    1.57
   2  -1 -10    0.15    1.40
  -2   1  10    0.85    1.79
  -2   1  10    1.18    1.01
   2  -1  -9   42.67    5.64
   2  -1  -9   47.77    5.51
   2  -1  -9   45.82    5.29
  -2   1   9   35.97    5.12
  -2   1   9   55.89    5.44
  -2   1   9   38.64    3.89
   2  -1  -8    2.81    1.73
   2  -1  -8    3.59    1.77
   2  -1  -8    5.06    1.58
  -2   1   8    2.77    1.66
  -2   1   8    5.10    2.45
  -2   1   8    1.56    1.02
   2  -1  -7  113.13    9.89
   2  -1  -7  118.44    8.94
   2  -1  -7  105.62    7.27
   2  -1  -7  106.54    4.81
   2  -1  -7  114.63    8.52
  -2   1   7  106.15    9.43
  -2   1   7  142.59    8.12
  -2   1   7  102.36    6.42
  -2   1   7  121.34    7.75
   2  -1  -6   85.70   11.78
   2  -1  -6   87.94   10.03
   2  -1  -6   87.10    4.68
   2  -1  -6   89.79    3.57
   2  -1  -6   91.77    6.69
  -2   1   6   83.00    7.46
  -2   1   6  100.22    5.98
  -2   1   6   91.10    5.68
   2  -1  -5  634.15   55.33
   2  -1  -5  641.64   52.60
   2  -1  -5  601.66   38.50
   2  -1  -5  648.45   38.80
   2  -1  -5  621.26   43.00
  -2   1   5  581.58   51.27
  -2   1   5  624.49   45.66
  -2   1   5  578.01   37.84
   2  -1  -4   52.59    7.92
   2  -1  -4   55.12    4.36
   2  -1  -4   49.07    2.82
   2  -1  -4   46.91    3.22
  -2   1   4   48.53    7.67
  -2   1   4   60.57    3.87
  -2   1   4   43.53    2.70
   2  -1  -3   -0.75    1.66
   2  -1  -3    0.88    0.89
   2  -1  -3    0.61    0.90
  -2   1   3    1.52    1.00
  -2   1   3    0.53    0.73
  -2   1   3    0.60    0.45
  -2   1   3    0.36    0.22
  -2   1   3   -0.15    0.53
   2  -1  -2  169.35   14.73
   2  -1  -2  169.15   13.12
   2  -1  -2  163.05   10.52
  -2   1   2  169.71   11.07
  -2   1   2  175.20    9.90
  -2   1   2  195.29   10.57
  -2   1   2  163.64    5.23
  -2   1   2  180.72    6.17
  -2   1   2  167.45    7.75
   2  -1  -1    5.33    2.24
   2  -1  -1    3.86    1.35
   2  -1  -1    4.66    1.02
  -2   1   1    3.68    1.22
  -2   1   1    4.69    0.89
  -2   1   1    4.79    1.04
   2  -1   0   23.97    3.50
   2  -1   0   27.43    4.28
   2  -1   0   25.63    2.27
  -2   1   0   24.66    2.58
  -2   1   0   27.44    3.50
  -2   1   0   27.89    2.01
   2  -1   1   18.67    1.83
   2  -1   1   20.11    2.35
   2  -1   1   20.36    3.31
   2  -1   1   20.12    0.77
   2  -1   1   21.24    1.17
  -2   1  -1   20.88    2.40
  -2   1  -1   21.09    0.71
   2  -1   2  228.36   12.52
   2  -1   2  285.13   19.93
   2  -1   2  235.14   14.22
   2  -1   2  241.24   10.56
   2  -1   2  237.18   12.31
  -2   1  -2  235.27   15.00
  -2   1  -2  248.68   14.94
  -2   1  -2  239.39   10.93
  -2   1  -2  272.09   11.41
   2  -1   3  595.16   39.58
   2  -1   3  583.34   39.91
   2  -1   3  566.78   35.16
   2  -1   3  571.60   33.38
  -2   1  -3  557.37   40.07
  -2   1  -3  573.59   45.67
  -2   1  -3  572.32   35.53
  -2   1  -3  588.53   33.40
   2  -1   4 1046.73   75.39
   2  -1   4  916.85   77.29
   2  -1   4  846.02   58.60
   2  -1   4  805.39   57.46
  -2   1  -4  666.12   47.95
  -2   1  -4  879.45   75.71
  -2   1  -4  815.92   72.46
  -2   1  -4  836.69   60.02
  -2   1  -4  904.90   62.31
   2  -1   5  163.51    9.69
   2  -1   5  167.96   11.34
   2  -1   5  166.31    9.72
   2  -1   5  152.69    8.07
  -2   1  -5  161.72   11.99
  -2   1  -5  163.82    9.30
  -2   1  -5  174.70    8.59
   2  -1   6 1366.22  113.53
   2  -1   6 1288.05  113.58
   2  -1   6  997.37   88.37
   2  -1   6 1133.52   93.92
  -2   1  -6 1151.37  107.03
  -2   1  -6 1099.94   94.02
  -2   1  -6 1206.46   98.10
   2  -1   7    1.12    1.19
   2  -1   7    0.33    1.04
   2  -1   7    1.42    0.79
  -2   1  -7    2.53    1.39
  -2   1  -7    0.60    0.97
  -2   1  -7    0.74    1.27
   2  -1   8   76.93    9.00
   2  -1   8   67.91    6.56
   2  -1   8   71.78    5.53
  -2   1  -8  113.82    7.84
  -2   1  -8   79.63   11.59
  -2   1  -8   73.41    6.59
  -2   1  -8   91.47    6.49
   2  -1   9   91.88    7.42
   2  -1   9   75.92    7.70
   2  -1   9   67.81    6.03
  -2   1  -9  106.80    8.46
  -2   1  -9   83.69   12.47
  -2   1  -9   92.18    7.21
   2  -1  10   52.53    5.26
   2  -1  10   38.38    5.70
   2  -1  10   41.72    4.71
  -2   1 -10   60.04    6.14
  -2   1 -10   50.34    5.34
   2  -1  11   52.43    8.01
   2  -1  11   45.48    6.48
  -2   1 -11   62.29    9.61
  -2   1 -11   53.00    8.73
   2  -1  12    2.09    1.34
   2  -1  12    2.61    2.10
  -2   1 -12    4.48    1.97
  -2   1 -12    3.11    3.23
   2  -1  13    6.25    1.81
   2  -1  13    5.57    2.95
  -2   1 -13    9.91    2.70
  -2   1 -13    6.13    2.70
   2  -1  14    1.46    1.18
   2  -1  14    0.33    3.30
  -2   1 -14    1.98    1.86
  -2   1 -14    1.81    1.93
   2  -1  15   -0.12    3.04
  -2   1 -15    2.19    3.32
  -2   1 -15    0.90    1.70
   2  -1  16    0.97    1.75
  -2   1 -16   -0.22    1.77
  -2   1 -16    1.74    2.49
   2  -1  17    0.61    1.54
  -2   1 -17    0.41    1.55
  -2   1 -17    0.67    1.29
   2  -1  18   -0.53    1.25
  -2   1 -18   -0.16    1.98
  -2   1 -18   -0.13    0.91
   2   0 -19    9.06    3.13
  -2   0  19   10.92    2.83
   2   0 -18   20.93    3.54
  -2   0  18    2.33    2.20
   2   0 -17    2.09    2.04
   2   0 -17    1.99    1.75
  -2   0  17   -1.13    1.37
   2   0 -16   -0.65    5.58
   2   0 -16    4.30    2.81
  -2   0  16    3.75    2.18
   2   0 -15   35.33    9.18
   2   0 -15   26.34    5.27
  -2   0  15   12.44    4.11
   2   0 -14   46.41    7.61
   2   0 -14   35.57    6.65
  -2   0  14   25.73    8.71
   2   0 -13   28.83    5.67
   2   0 -13   23.94    4.88
  -2   0  13   11.32    6.13
   2   0 -12   21.32    4.78
   2   0 -12   41.44    5.95
   2   0 -12   35.34    8.27
  -2   0  12   27.40    4.28
   2   0 -11   63.76    7.94
   2   0 -11   91.43    9.20
   2   0 -11   84.34   12.22
  -2   0  11   67.08    6.76
   2   0 -10   69.88    8.43
   2   0 -10   89.24    8.86
   2   0 -10   87.28   11.51
  -2   0  10   71.08    7.19
  -2   0  10   80.01    6.80
  -2   0  10   94.44    7.12
   2   0  -9   13.79    4.77
   2   0  -9   12.98    3.10
   2   0  -9   12.51    2.62
  -2   0   9   11.20    2.39
  -2   0   9   18.70    2.87
  -2   0   9   11.27    3.21
  -2   0   9   12.69    2.11
   2   0  -8   52.95    6.22
   2   0  -8   47.43    5.34
   2   0  -8   44.80    4.66
  -2   0   8   44.27    6.61
  -2   0   8   62.71    7.12
  -2   0   8   46.33    3.91
  -2   0   8   49.04    5.59
   2   0  -7  131.87   11.09
   2   0  -7  114.46    9.11
   2   0  -7  110.27    8.01
  -2   0   7  120.48   13.45
  -2   0   7  139.90    8.25
  -2   0   7  114.42    6.97
  -2   0   7  123.09    9.50
   2   0  -6   18.81    3.16
   2   0  -6   18.15    2.69
   2   0  -6   14.83    0.81
   2   0  -6   15.53    0.92
   2   0  -6   14.42    3.08
  -2   0   6   16.44    2.78
  -2   0   6   21.07    2.07
  -2   0   6   18.14    1.59
  -2   0   6   17.34    1.74
   2   0  -5  305.57   22.32
   2   0  -5  289.85   22.98
   2   0  -5  286.18   13.26
   2   0  -5  304.04   13.06
   2   0  -5  295.10   19.65
  -2   0   5  297.26   20.76
  -2   0   5  291.73   19.88
  -2   0   5  309.30   17.50
  -2   0   5  309.67   16.23
   2   0  -4  101.29    7.88
   2   0  -4  106.45    7.15
   2   0  -4   92.40    4.99
   2   0  -4   94.63    4.98
  -2   0   4   98.10    7.12
  -2   0   4  114.54    6.58
  -2   0   4  116.37    4.79
  -2   0   4   96.64    4.54
   2   0  -3   93.26    6.88
   2   0  -3   96.12    6.22
   2   0  -3   81.77    4.71
   2   0  -3   89.93    4.01
  -2   0   3   90.54    6.18
  -2   0   3   95.14    5.48
  -2   0   3  103.42    4.85
  -2   0   3   92.14    4.62
   2   0  -2   21.72    4.19
   2   0  -2   21.03    2.38
   2   0  -2   19.26    1.39
   2   0  -2   22.78    1.04
  -2   0   2   20.02    2.35
  -2   0   2   20.68    2.29
  -2   0   2   19.75    1.94
  -2   0   2   24.06    1.11
  -2   0   2   22.81    1.55
   2   0  -1    2.44    1.56
   2   0  -1    1.00    1.03
   2   0  -1    2.27    0.60
   2   0  -1    0.86    0.33
  -2   0   1    1.05    0.82
  -2   0   1    1.64    0.86
  -2   0   1    1.26    0.60
  -2   0   1    0.78    0.35
  -2   0   1    0.92    0.24
   2   0   0  911.79   69.54
   2   0   0  931.87   70.62
   2   0   0  838.45   61.73
   2   0   0  895.92   59.04
  -2   0   0  888.35   65.90
  -2   0   0  913.53   68.93
  -2   0   0  912.27   69.96
  -2   0   0 1033.08   67.28
  -2   0   0  969.22   59.35
   2   0   1    4.86    1.40
   2   0   1    4.71    1.97
   2   0   1    4.94    0.70
  -2   0  -1    5.89    1.49
  -2   0  -1    5.02    1.45
  -2   0  -1    5.92    1.23
  -2   0  -1    4.92    1.03
  -2   0  -1    5.76    0.24
   2   0   2  876.22   61.66
   2   0   2  990.26   77.23
   2   0   2  792.58   58.22
   2   0   2  866.51   58.44
   2   0   2  830.04   51.76
  -2   0  -2  778.57   56.48
  -2   0  -2  829.89   63.24
  -2   0  -2  858.05   64.38
  -2   0  -2  877.68   59.96
  -2   0  -2  848.05   50.87
   2   0   3   10.30    1.39
   2   0   3   12.25    1.77
   2   0   3   11.17    1.89
   2   0   3   10.43    1.30
   2   0   3   11.58    1.12
  -2   0  -3   10.93    1.24
  -2   0  -3   11.43    2.01
  -2   0  -3   10.26    2.17
  -2   0  -3   11.60    2.01
  -2   0  -3   12.08    1.03
   2   0   4 1860.25  173.30
   2   0   4 1592.51  148.47
   2   0   4 1471.38  137.36
   2   0   4 1490.44  125.00
  -2   0  -4 1411.48  109.99
  -2   0  -4 1476.30  141.74
  -2   0  -4 1388.73  136.02
  -2   0  -4 1608.56  142.16
  -2   0  -4 1655.14  140.64
   2   0   5    1.76    0.83
   2   0   5   -0.78    1.49
   2   0   5    1.09    0.53
  -2   0  -5    0.71    1.33
  -2   0  -5    0.84    0.91
  -2   0  -5    0.79    0.58
   2   0   6  926.40   67.74
   2   0   6  751.24   65.95
   2   0   6  744.36   59.82
   2   0   6  745.57   56.79
  -2   0  -6  790.32   68.18
  -2   0  -6  826.15   69.17
  -2   0  -6  829.13   59.67
   2   0   7    1.17    1.06
   2   0   7    0.81    1.05
   2   0   7    0.88    1.05
  -2   0  -7    2.46    1.41
  -2   0  -7   -0.74    1.75
  -2   0  -7    0.24    0.78
   2   0   8   27.12    3.27
   2   0   8   19.23    3.35
   2   0   8   15.69    3.28
  -2   0  -8   28.24    3.26
  -2   0  -8   25.97    4.18
  -2   0  -8   24.75    3.28
  -2   0  -8   22.90    4.02
   2   0   9   86.76    7.04
   2   0   9   57.06    7.05
   2   0   9   50.59    6.68
  -2   0  -9   87.94    7.25
  -2   0  -9   78.01    8.49
  -2   0  -9   70.95    7.00
  -2   0  -9   74.15    8.76
   2   0  10   42.42    6.58
   2   0  10   27.54    4.92
   2   0  10   23.06    4.96
  -2   0 -10   44.80    7.28
  -2   0 -10   33.03    4.32
   2   0  11    8.47    1.99
   2   0  11    7.26    4.45
  -2   0 -11   10.64    2.40
  -2   0 -11    5.95    2.40
   2   0  12    2.39    1.27
   2   0  12    0.92    3.17
  -2   0 -12    1.35    1.58
  -2   0 -12    1.00    1.66
   2   0  13    2.09    1.49
   2   0  13    2.76    3.80
  -2   0 -13    4.32    1.92
  -2   0 -13    2.63    3.27
   2   0  14   -0.67    1.51
   2   0  14    0.13    1.49
  -2   0 -14    0.61    1.95
  -2   0 -14    0.93    2.09
   2   0  15    0.15    0.98
   2   0  15    0.84    1.77
  -2   0 -15    1.24    1.63
   2   0  16   -0.01    1.43
  -2   0 -16   -0.17    1.28
   2   0  17    1.22    1.69
  -2   0 -17    0.43    2.27
   2   1 -19   -1.30    1.84
  -2  -1  19   -0.32    1.82
   2   1 -18   -0.46    1.89
   2   1 -18    1.78    1.52
  -2  -1  18   -0.35    1.18
   2   1 -17    0.11    2.36
   2   1 -17    1.01    1.89
  -2  -1  17    1.31    1.61
   2   1 -16   10.02    6.22
   2   1 -16    5.69    3.02
  -2  -1  16    4.15    2.60
   2   1 -15  113.29   13.74
   2   1 -15   90.47   12.33
  -2  -1  15   69.13   14.09
   2   1 -14   22.90    5.48
  -2  -1  14   13.09    3.86
   2   1 -13  263.29   24.70
   2   1 -13  230.70   28.15
  -2  -1  13  184.33   18.67
   2   1 -12   31.39    6.43
   2   1 -12   66.96    8.00
   2   1 -12   51.87    6.95
  -2  -1  12   52.22    6.07
   2   1 -11    2.96    4.22
   2   1 -11    7.31    2.75
   2   1 -11    4.92    2.22
  -2  -1  11    3.56    3.15
   2   1 -10    1.97    1.91
   2   1 -10    2.96    1.96
   2   1 -10    1.54    1.53
  -2  -1  10    2.14    2.32
  -2  -1  10    1.66    1.34
  -2  -1  10    2.43    1.96
   2   1  -9   78.01    8.72
   2   1  -9   66.20    7.21
   2   1  -9   69.37    6.47
  -2  -1   9   72.55    6.64
  -2  -1   9   84.04    6.93
  -2  -1   9   71.59    5.88
  -2  -1   9   67.14    5.27
   2   1  -8    0.63    1.67
   2   1  -8    0.65    1.54
   2   1  -8    1.68    1.12
  -2  -1   8    1.96    1.26
  -2  -1   8    2.60    2.01
  -2  -1   8    2.52    1.67
  -2  -1   8    1.34    0.89
   2   1  -7    1.35    3.04
   2   1  -7    2.18    1.61
   2   1  -7    2.80    1.12
  -2  -1   7    3.45    1.38
  -2  -1   7    2.84    1.23
  -2  -1   7    2.79    1.02
  -2  -1   7    2.78    0.89
   2   1  -6  391.19   35.08
   2   1  -6  331.89   23.55
   2   1  -6  328.51   20.10
  -2  -1   6  347.06   24.18
  -2  -1   6  394.94   23.82
  -2  -1   6  408.72   23.49
  -2  -1   6  334.67   19.14
   2   1  -5   24.17    3.61
   2   1  -5   23.70    4.51
   2   1  -5   20.86    1.81
  -2  -1   5   23.32    2.68
  -2  -1   5   27.50    2.29
  -2  -1   5   23.60    1.58
   2   1  -4    0.55    1.13
   2   1  -4    0.71    0.95
   2   1  -4    0.89    0.25
   2   1  -4    0.28    0.55
   2   1  -4    0.74    0.43
  -2  -1   4    0.61    0.84
  -2  -1   4    0.63    0.80
  -2  -1   4    0.44    0.17
  -2  -1   4    0.92    0.35
   2   1  -3    0.86    1.04
   2   1  -3    0.09    0.85
   2   1  -3    0.74    0.47
   2   1  -3    0.89    0.82
   2   1  -3    0.60    0.48
  -2  -1   3   -0.22    0.76
  -2  -1   3    0.86    0.70
  -2  -1   3    0.42    0.49
  -2  -1   3    0.15    0.47
  -2  -1   3    0.42    0.24
   2   1  -2   15.18    2.31
   2   1  -2   15.71    3.15
   2   1  -2   13.47    1.00
   2   1  -2   16.30    1.22
  -2  -1   2   14.35    1.73
  -2  -1   2   15.54    2.83
  -2  -1   2   13.49    1.10
  -2  -1   2   13.58    0.63
   2   1  -1  336.41   21.41
   2   1  -1  313.04   19.52
   2   1  -1  299.56   16.15
  -2  -1   1  333.92   18.83
  -2  -1   1  343.86   19.41
  -2  -1   1  345.72   18.36
  -2  -1   1  369.21   18.48
   2   1   0  523.47   34.35
   2   1   0  567.42   39.43
   2   1   0  491.58   29.77
  -2  -1   0  530.87   31.60
  -2  -1   0  519.15   35.25
  -2  -1   0  510.29   31.48
  -2  -1   0  378.71   42.37
   2   1   1   51.35    3.55
   2   1   1   53.06    3.69
   2   1   1   60.24    5.03
   2   1   1   53.44    3.12
  -2  -1  -1   62.04    4.05
  -2  -1  -1   50.54    3.63
  -2  -1  -1   51.27    5.14
  -2  -1  -1   58.37    3.18
   2   1   2  534.82   32.76
   2   1   2  506.59   35.21
   2   1   2  577.15   40.95
   2   1   2  515.88   31.62
  -2  -1  -2  505.36   29.29
  -2  -1  -2  500.92   36.82
  -2  -1  -2  484.46   36.53
  -2  -1  -2  588.61   37.79
   2   1   3  190.73   11.14
   2   1   3  219.98   12.27
   2   1   3  189.63   11.13
   2   1   3  207.08   12.27
  -2  -1  -3  189.31    9.06
  -2  -1  -3  222.41   13.18
  -2  -1  -3  182.60   15.69
  -2  -1  -3  227.28   12.55
   2   1   4  641.67   39.30
   2   1   4  772.96   54.22
   2   1   4  811.69   57.37
   2   1   4  727.89   53.47
   2   1   4  616.74   39.20
  -2  -1  -4  745.16   43.93
  -2  -1  -4  798.75   58.89
  -2  -1  -4  684.48   59.47
  -2  -1  -4  849.33   58.87
   2   1   5    0.98    0.76
   2   1   5    2.26    1.08
   2   1   5    0.60    1.07
   2   1   5    0.43    0.68
  -2  -1  -5    2.76    2.10
  -2  -1  -5    0.15    1.12
  -2  -1  -5    1.14    0.55
   2   1   6  888.11   66.31
   2   1   6  685.72   55.64
  -2  -1  -6  764.68   70.23
  -2  -1  -6  802.84   61.81
  -2  -1  -6  526.66   50.06
   2   1   7   60.06    5.50
   2   1   7   46.85    5.45
  -2  -1  -7   66.25    4.87
  -2  -1  -7   58.13    9.89
  -2  -1  -7   52.65    5.64
  -2  -1  -7   47.93    4.07
   2   1   8    9.76    3.07
   2   1   8    4.77    2.06
   2   1   8    3.76    1.14
  -2  -1  -8    7.08    1.65
  -2  -1  -8    8.62    2.60
  -2  -1  -8    7.82    3.27
  -2  -1  -8    4.72    1.47
   2   1   9   24.19    2.95
   2   1   9   21.33    3.88
  -2  -1  -9   20.60    3.09
   2   1  10   13.65    2.34
   2   1  10    9.78    3.15
  -2  -1 -10    9.70    3.96
   2   1  11    3.56    1.62
   2   1  11    2.89    2.28
  -2  -1 -11    3.58    1.70
   2   1  12    5.85    1.90
   2   1  12    4.95    2.76
  -2  -1 -12    4.93    2.07
   2   1  13    0.29    2.03
   2   1  13    2.16    1.85
  -2  -1 -13   -0.22    2.20
   2   1  14   -0.29    0.95
   2   1  14    0.39    1.54
  -2  -1 -14   -0.11    1.27
   2   1  15    0.84    1.21
   2   1  15    3.69    2.06
  -2  -1 -15    1.01    1.68
   2   1  16    1.51    3.20
   2   1  17   -0.18    1.30
   2   1  18    5.45    2.09
   2   2 -19    0.31    1.95
  -2  -2  19    1.08    1.22
   2   2 -18    0.97    1.67
   2   2 -18   -1.32    1.28
  -2  -2  18    0.83    1.15
   2   2 -17    4.06    4.51
   2   2 -17    1.88    2.07
  -2  -2  17    1.24    3.13
   2   2 -16   21.75    7.83
   2   2 -16   12.39    3.88
  -2  -2  16   11.12    3.50
   2   2 -15   41.13    6.76
   2   2 -15   28.06    8.89
  -2  -2  15   21.25    5.26
   2   2 -14   -0.19    2.35
   2   2 -14    0.80    1.89
  -2  -2  14    1.79    1.75
   2   2 -13   64.38   15.70
   2   2 -13  133.51   14.29
   2   2 -13  113.11   12.34
  -2  -2  13  116.03   16.01
   2   2 -12   18.32    5.03
   2   2 -12   28.43    5.24
   2   2 -12   21.31    4.35
  -2  -2  12   22.80    3.97
   2   2 -11   49.00    7.69
   2   2 -11   51.26    7.05
   2   2 -11   47.21    6.07
  -2  -2  11   52.72    5.85
   2   2 -10    4.04    2.37
   2   2 -10    3.38    2.27
   2   2 -10    3.66    1.72
  -2  -2  10    3.35    1.40
  -2  -2  10    4.18    1.69
  -2  -2  10    2.92    1.42
   2   2  -9    3.45    3.37
   2   2  -9    2.50    1.84
   2   2  -9    1.48    1.35
  -2  -2   9    1.74    1.21
  -2  -2   9    4.17    1.54
  -2  -2   9    2.16    2.17
  -2  -2   9    2.32    1.13
   2   2  -8   36.75    5.38
   2   2  -8   35.56    4.45
   2   2  -8   31.33    5.12
  -2  -2   8   30.14    5.04
  -2  -2   8   44.84    3.96
  -2  -2   8   35.85    3.55
  -2  -2   8   32.29    2.97
   2   2  -7   46.26    5.75
   2   2  -7   40.65    4.47
   2   2  -7   33.76    4.71
  -2  -2   7   36.72    5.29
  -2  -2   7   51.73    5.61
  -2  -2   7   44.36    3.66
  -2  -2   7   39.67    2.95
   2   2  -6  176.35   14.32
   2   2  -6  158.38   10.83
   2   2  -6  123.40   10.25
  -2  -2   6  182.85   15.80
  -2  -2   6  183.72   10.25
  -2  -2   6  148.92    7.91
   2   2  -5  210.97   16.13
   2   2  -5  204.15   17.23
   2   2  -5  212.80   11.83
   2   2  -5  157.04   11.25
  -2  -2   5  208.28   17.71
  -2  -2   5  214.13   11.85
  -2  -2   5  203.78    9.64
   2   2  -4  282.85   25.41
   2   2  -4  253.67   16.22
   2   2  -4  276.94   18.06
   2   2  -4  220.05   13.30
  -2  -2   4  308.66   22.55
  -2  -2   4  267.27   17.02
  -2  -2   4  288.19   15.99
  -2  -2   4  260.51   12.86
   2   2  -3   38.61    6.00
   2   2  -3   39.22    3.33
  -2  -2   3   35.87    4.25
  -2  -2   3   44.57    2.91
  -2  -2   3   40.60    2.61
  -2  -2   3   43.99    2.94
  -2  -2   3   38.58    1.37
   2   2  -2   73.43    8.27
   2   2  -2   81.03    7.26
   2   2  -2   78.60    4.23
   2   2  -2   84.61    4.73
  -2  -2   2   74.33    4.44
  -2  -2   2   86.56    4.53
  -2  -2   2   80.01    3.98
   2   2  -1  162.30   10.71
   2   2  -1  175.10   10.46
   2   2  -1  182.49    8.83
   2   2  -1  239.00   11.68
  -2  -2   1  173.91    9.42
  -2  -2   1  197.43   12.88
  -2  -2   1  197.97   12.48
   2   2   0  236.64   14.53
   2   2   0  241.32   14.03
   2   2   0  259.70   13.36
  -2  -2   0  284.50   14.25
  -2  -2   0  252.95   14.19
  -2  -2   0  255.39   14.06
  -2  -2   0  197.77   23.14
   2   2   1   83.82    5.48
   2   2   1   94.73    7.41
   2   2   1   93.25    5.22
   2   2   1   94.75    5.83
  -2  -2  -1  114.58    6.33
  -2  -2  -1   88.29    7.18
  -2  -2  -1   84.57    5.55
  -2  -2  -1  105.01    6.27
   2   2   2   68.07    5.79
   2   2   2   65.22    4.01
   2   2   2   79.21    4.61
   2   2   2   71.81    4.93
  -2  -2  -2   75.42    3.13
  -2  -2  -2   63.87    4.54
  -2  -2  -2   67.42    4.99
  -2  -2  -2   82.73    5.36
   2   2   3   10.08    2.07
   2   2   3    9.15    2.05
   2   2   3    8.55    1.61
   2   2   3    9.27    1.79
  -2  -2  -3   10.09    1.11
  -2  -2  -3    8.53    1.53
  -2  -2  -3    8.14    1.96
  -2  -2  -3    9.28    1.77
   2   2   4  160.51   13.55
   2   2   4  138.53   13.55
  -2  -2  -4  133.18   10.49
  -2  -2  -4  156.86   10.47
   2   2   5  217.58   17.08
   2   2   5  161.59   13.12
  -2  -2  -5  164.49   13.15
  -2  -2  -5  172.15   16.68
   2   2   6   50.25    6.24
   2   2   6   44.73    5.18
  -2  -2  -6   50.40    3.66
  -2  -2  -6   49.12    5.57
  -2  -2  -6   49.21    5.12
   2   2   7    2.81    1.25
   2   2   7    2.28    1.61
  -2  -2  -7    1.94    1.03
  -2  -2  -7    4.25    1.85
  -2  -2  -7    1.84    1.53
   2   2   8    8.12    2.51
  -2  -2  -8    7.77    2.61
   2   2   9    4.45    1.56
   2   2   9    2.66    2.05
  -2  -2  -9    2.28    1.28
   2   2  10    0.63    1.22
   2   2  10    0.91    1.68
   2   2  11    4.12    2.97
   2   2  11    3.41    2.56
   2   2  12    1.02    1.37
   2   2  12    1.07    1.96
   2   2  13   26.82    4.08
   2   2  13   25.50    5.70
   2   2  14    0.56    1.50
   2   2  14   12.72    3.80
   2   2  15    5.36    4.70
   2   2  16   -1.45    1.53
  -2  -2 -16    1.23    1.04
   2   2  17   -0.23    1.27
   2   3 -19   -0.11    1.54
  -2  -3  19   -4.12    1.56
   2   3 -18   -0.26    2.08
   2   3 -18    0.76    1.45
  -2  -3  18    1.10    1.46
   2   3 -17   -0.28    1.87
   2   3 -17    0.58    1.34
  -2  -3  17   -0.39    2.15
   2   3 -16   32.11    9.59
   2   3 -16   17.32    7.08
  -2  -3  16   17.94    4.29
   2   3 -15   11.64    5.94
   2   3 -15    6.91    4.67
  -2  -3  15    4.77    2.86
   2   3 -14   12.98    4.07
   2   3 -14    7.54    3.25
  -2  -3  14    9.42    5.26
   2   3 -13    5.19    3.39
   2   3 -13   10.48    3.50
   2   3 -13    4.56    2.76
  -2  -3  13    8.20    2.76
   2   3 -12    0.26    1.86
   2   3 -12    1.55    1.78
   2   3 -12    0.06    1.41
  -2  -3  12    0.33    1.43
   2   3 -11    1.92    3.19
   2   3 -11    0.78    1.81
   2   3 -11    0.71    1.40
  -2  -3  11    0.66    1.47
   2   3 -10    1.83    3.60
   2   3 -10    2.39    1.88
   2   3 -10    1.52    2.31
  -2  -3  10    0.79    2.44
   2   3  -9   51.87    7.07
   2   3  -9   42.01    5.52
   2   3  -9   32.36    6.20
  -2  -3   9   55.84    5.00
  -2  -3   9   49.13    4.99
  -2  -3   9   33.11    5.51
   2   3  -8   13.42    3.49
   2   3  -8   10.84    2.64
   2   3  -8    7.62    2.82
  -2  -3   8   11.14    2.07
  -2  -3   8   13.43    2.14
  -2  -3   8   11.35    2.20
  -2  -3   8    7.65    2.66
   2   3  -7    1.12    1.71
   2   3  -7    1.94    1.97
   2   3  -7    0.19    0.76
  -2  -3   7    1.49    1.01
  -2  -3   7    0.52    0.96
  -2  -3   7    0.99    0.73
   2   3  -6    5.58    3.94
   2   3  -6    5.73    2.78
   2   3  -6    4.65    1.56
   2   3  -6    3.65    0.96
  -2  -3   6    5.33    1.44
  -2  -3   6    7.28    1.99
  -2  -3   6    3.48    0.88
   2   3  -5   54.09    8.87
   2   3  -5   51.37    4.73
   2   3  -5   58.48    4.56
  -2  -3   5   50.80    4.40
  -2  -3   5   58.24    3.90
  -2  -3   5   48.68    2.78
   2   3  -4 1547.75  147.04
   2   3  -4 1457.20  132.50
   2   3  -4 1671.54  153.46
   2   3  -4  936.65   94.74
  -2  -3   4 1640.19  144.49
  -2  -3   4 1546.55  134.74
  -2  -3   4 1186.84  115.38
   2   3  -3   29.97    3.85
   2   3  -3   29.33    4.16
  -2  -3   3   33.09    2.89
  -2  -3   3   29.07    2.05
  -2  -3   3   25.29    1.77
   2   3  -2   21.17    2.99
   2   3  -2   18.36    2.06
   2   3  -2   16.29    1.70
  -2  -3   2   26.55    2.25
  -2  -3   2   23.10    2.68
  -2  -3   2   19.20    2.50
   2   3  -1  158.78   10.43
   2   3  -1  121.45    9.76
   2   3  -1  153.58    7.36
   2   3  -1  171.93   10.25
  -2  -3   1  158.83   10.02
  -2  -3   1  146.76    7.84
  -2  -3   1  151.48    8.42
   2   3   0    7.67    1.71
   2   3   0    6.01    1.08
   2   3   0    6.51    0.96
  -2  -3   0    9.25    1.06
  -2  -3   0    6.77    1.54
  -2  -3   0    7.21    1.39
   2   3   1  110.48    7.52
   2   3   1  116.27    6.37
   2   3   1  123.68   11.57
  -2  -3  -1  126.21    6.16
  -2  -3  -1  103.75    7.39
  -2  -3  -1  139.58    8.98
   2   3   2  156.44   10.01
   2   3   2  169.12    9.70
   2   3   2  165.22   11.97
  -2  -3  -2  192.53   10.42
  -2  -3  -2  136.59   10.57
  -2  -3  -2  181.65   12.43
   2   3   3   15.01    1.99
   2   3   3   19.57    2.03
   2   3   3   17.85    2.85
  -2  -3  -3   19.70    1.36
  -2  -3  -3   12.50    2.79
  -2  -3  -3   18.01    2.86
  -2  -3  -3   20.62    2.81
   2   3   4   62.85    4.56
   2   3   4   55.07    5.72
  -2  -3  -4   54.64    5.77
  -2  -3  -4   64.45    5.76
   2   3   5   12.58    1.96
   2   3   5   10.78    2.62
  -2  -3  -5   11.02    2.79
  -2  -3  -5   10.77    2.42
   2   3   6   27.70    3.21
   2   3   6   25.25    6.46
   2   3   7   15.18    2.58
   2   3   7   11.83    5.38
   2   3   8   36.75    4.41
   2   3   8   28.87    8.18
   2   3   9    4.94    3.13
   2   3   9    3.48    4.08
   2   3  10    1.55    2.63
   2   3  10    2.96    3.61
   2   3  11    3.93    1.92
   2   3  11    5.40    4.47
   2   3  12    0.48    1.26
   2   3  12    0.47    3.04
   2   3  13    2.34    2.04
   2   3  13    8.84    2.93
   2   3  14    3.74    2.66
   2   3  15    1.84    1.84
  -2  -3 -15    0.82    1.44
   2   3  16    5.19    1.73
  -2  -3 -16   -0.12    1.12
   2   4 -19   -1.31    1.51
  -2  -4  19    0.16    1.10
   2   4 -18    0.83    1.74
   2   4 -18    0.08    1.17
  -2  -4  18    0.83    2.05
   2   4 -17    1.15    2.18
   2   4 -17    1.21    1.51
  -2  -4  17    0.68    1.64
   2   4 -16    7.06    3.69
   2   4 -16    3.67    4.24
  -2  -4  16    7.69    2.81
   2   4 -15   14.25    6.39
   2   4 -15    5.23    2.84
  -2  -4  15    9.87    4.90
   2   4 -14    0.79    3.95
   2   4 -14    1.02    1.87
  -2  -4  14    2.59    2.02
   2   4 -13    3.17    2.84
   2   4 -13    5.63    4.28
   2   4 -13    2.03    2.07
  -2  -4  13    3.46    2.25
   2   4 -12    2.85    3.86
   2   4 -12    0.76    2.03
   2   4 -12    1.04    1.60
  -2  -4  12    1.52    1.79
   2   4 -11   21.96    5.07
   2   4 -11   16.07    4.12
   2   4 -11   10.26    5.15
  -2  -4  11   18.72    5.83
   2   4 -10    9.68    3.81
   2   4 -10   10.42    2.93
   2   4 -10    4.92    3.44
  -2  -4  10    9.64    2.63
   2   4  -9    2.83    2.20
   2   4  -9    0.99    2.56
   2   4  -9    0.50    1.12
  -2  -4   9    1.90    1.45
  -2  -4   9    0.92    1.05
   2   4  -8   17.91    4.36
   2   4  -8   15.80    4.77
   2   4  -8   13.82    2.26
  -2  -4   8   17.97    2.50
  -2  -4   8   10.30    3.11
   2   4  -7  242.58   29.20
   2   4  -7  188.11   20.64
   2   4  -7  226.65   17.34
  -2  -4   7  210.91   17.81
  -2  -4   7  239.86   15.25
   2   4  -6  333.33   28.37
   2   4  -6  312.98   23.85
   2   4  -6  369.35   26.36
  -2  -4   6  334.11   25.86
  -2  -4   6  356.58   22.43
   2   4  -5  156.34   13.39
   2   4  -5  131.03   10.03
   2   4  -5  161.71   11.51
  -2  -4   5  144.53   12.16
  -2  -4   5  152.54    8.92
   2   4  -4   41.88    5.24
   2   4  -4   33.28    5.14
   2   4  -4   44.64    4.14
  -2  -4   4   42.48    3.37
  -2  -4   4   32.99    3.71
   2   4  -3    3.89    1.38
   2   4  -3    0.59    0.75
  -2  -4   3   -0.02    0.80
  -2  -4   3    0.18    0.82
   2   4  -2   16.07    2.83
   2   4  -2    8.51    2.14
   2   4  -2   11.24    1.11
  -2  -4   2   17.96    1.74
  -2  -4   2   11.79    1.08
  -2  -4   2   12.47    1.59
   2   4  -1   -0.80    1.20
   2   4  -1    1.05    0.53
  -2  -4   1   -0.55    0.71
  -2  -4   1    1.45    0.81
   2   4   0   14.40    2.81
   2   4   0   14.25    2.53
   2   4   0   14.80    2.84
  -2  -4   0   19.95    1.78
  -2  -4   0   13.45    2.24
  -2  -4   0   18.87    2.81
   2   4   1   40.80    4.55
   2   4   1   45.04    4.75
   2   4   1   49.48    5.24
  -2  -4  -1   53.12    4.68
  -2  -4  -1   34.76    4.24
  -2  -4  -1   55.04    5.20
   2   4   2    5.34    1.63
   2   4   2    4.12    1.99
   2   4   2    6.76    3.12
  -2  -4  -2    5.09    1.04
  -2  -4  -2    4.91    1.78
  -2  -4  -2    5.03    1.97
   2   4   3    4.58    1.53
   2   4   3    5.74    2.17
   2   4   3    5.33    2.05
  -2  -4  -3    4.48    1.50
  -2  -4  -3    5.19    1.96
  -2  -4  -3    4.71    1.86
   2   4   4    1.68    2.51
   2   4   4    9.38    2.32
   2   4   5   65.42    8.07
   2   4   5   59.67    7.32
   2   4   6    1.79    2.21
   2   4   6    1.49    1.86
   2   4   7   43.27    4.97
   2   4   7   38.90    6.47
   2   4   8   -0.11    1.14
   2   4   8    0.92    1.57
   2   4   9   17.12    3.13
   2   4   9    9.05    4.20
   2   4  10    4.86    2.13
   2   4  10    4.67    2.90
   2   4  11    0.37    1.23
   2   4  11    0.20    1.75
   2   4  12    3.59    1.84
   2   4  12    1.82    2.67
   2   4  13    0.26    1.64
   2   4  14    2.30    2.11
  -2  -4 -14    2.19    1.85
   2   4  15   -5.53    2.68
  -2  -4 -15   -0.14    1.24
   2   5 -18   11.59    2.68
   2   5 -18    4.09    1.63
  -2  -5  18    8.58    3.63
   2   5 -17    8.76    3.46
  -2  -5  17   10.93    3.02
   2   5 -16   20.70    4.55
   2   5 -16    6.39    5.01
  -2  -5  16   17.75    3.85
   2   5 -15   17.53    4.02
   2   5 -15    6.83    2.87
  -2  -5  15    5.88    5.75
   2   5 -14    3.09    3.12
   2   5 -14    8.22    3.06
   2   5 -14    2.38    2.23
  -2  -5  14    5.64    2.69
   2   5 -13    5.60    3.55
   2   5 -13    5.32    5.07
  -2  -5  13    5.94    2.81
   2   5 -12   12.97    8.02
   2   5 -12   12.72    6.71
  -2  -5  12   15.56    6.11
   2   5 -11    7.20    3.68
   2   5 -11    6.01    4.62
  -2  -5  11    5.31    2.61
   2   5 -10   21.90    6.14
   2   5 -10   18.58    6.97
  -2  -5  10   25.06    4.30
   2   5  -9   32.37    6.20
   2   5  -9   18.20    4.25
  -2  -5   9   27.22    4.32
   2   5  -8    2.18    4.45
   2   5  -8    2.18    1.72
   2   5  -7   49.97    7.51
   2   5  -7   55.89    6.13
   2   5  -6   44.99    6.63
   2   5  -6   45.29    5.43
   2   5  -5    0.06    1.64
   2   5  -5   -1.33    2.13
   2   5  -4   15.87    4.60
   2   5  -4   35.12    4.20
   2   5  -3   36.00    5.59
  -2  -5   3   41.28    3.63
   2   5  -2    3.27    2.20
  -2  -5   2    4.62    2.12
   2   5  -1   28.25    3.95
   2   5  -1   20.55    1.95
   2   5  -1   14.77    6.47
  -2  -5   1   31.60    4.07
  -2  -5   1    0.34    6.51
   2   5   0   57.35    6.60
   2   5   0   59.87    4.25
   2   5   0   44.40    7.05
  -2  -5   0   73.09    4.90
   2   5   1   81.73    8.18
   2   5   1   77.81    5.86
   2   5   1   88.50    9.02
  -2  -5  -1   94.41    6.09
   2   5   2    0.67    1.19
   2   5   2    0.21    0.83
   2   5   2   -0.29    1.37
  -2  -5  -2    0.77    1.17
   2   5   3   15.19    2.39
   2   5   3   14.53    3.58
   2   5   4    1.07    1.28
   2   5   4    4.67    3.09
   2   5   5   79.59    7.28
   2   5   5   76.25   14.15
   2   5   6    0.35    1.17
   2   5   6    0.28    1.66
   2   5   7   55.46    6.31
   2   5   7   50.79    8.32
   2   5   8    3.83    1.99
   2   5   8    2.87    2.72
   2   5   9    1.92    1.77
   2   5   9    2.88    2.42
   2   5  10    1.08    2.13
   2   5  11    2.76    2.59
   2   5  12    4.70    5.00
  -2  -5 -12    7.81    3.03
   2   5  13    0.68    2.87
  -2  -5 -13    1.32    1.72
   2   5  14    6.38    2.54
  -2  -5 -14    7.10    2.37
  -2  -6  18    7.47    2.09
   2   6 -17    2.23    2.11
  -2  -6  17    0.07    1.40
   2   6 -16    1.51    1.65
  -2  -6  16    1.09    1.73
   2   6 -15    0.89    1.79
  -2  -6  15    1.32    1.84
   2   6 -14   21.22    4.84
   2   6 -14   10.00    3.86
  -2  -6  14   11.83    4.08
   2   6 -13   14.35    8.22
  -2  -6  13   15.13    4.09
   2   6 -12   13.65    5.43
  -2  -6  12   17.84    6.67
   2   6 -11   16.88    5.68
  -2  -6  11   16.11    4.01
   2   6 -10   61.34   10.14
  -2  -6  10   51.07    7.14
   2   6  -9    8.98    4.36
  -2  -6   9    8.08    2.94
   2   6  -8    2.69    4.47
   2   6  -7    5.13    3.41
   2   6  -7    6.81    2.62
   2   6  -6    5.70    3.03
   2   6  -6    4.20    2.39
   2   6  -5    0.23    1.96
   2   6  -5    0.88    1.51
   2   6  -4   49.91    7.99
   2   6  -4   71.34   10.92
   2   6  -3   17.70    4.45
   2   6  -2   10.84    3.64
   2   6  -1   10.43    3.65
   2   6  -1   21.14    3.64
  -2  -6   1    9.84    2.36
   2   6   0   12.48    3.56
   2   6   0   10.02    5.81
   2   6   1   12.65    3.65
   2   6   1   15.86    3.90
   2   6   2    2.37    1.89
   2   6   2    1.55    2.12
   2   6   3    2.75    2.31
   2   6   4    3.13    2.47
   2   6   5    3.17    2.52
   2   6   6    1.73    2.21
   2   6   7   16.37    4.72
   2   6   8    1.72    2.31
   2   6   9   -1.42    2.76
  -2  -6  -9    8.79    2.91
   2   6  10    2.48    2.64
  -2  -6 -10    5.52    2.72
   2   6  11   -0.04    1.73
  -2  -6 -11    1.40    1.71
   2   6  12    0.33    1.41
  -2  -6 -12    0.36    1.40
   2   6  13    9.32    2.72
  -2  -6 -13   15.64    4.47
  -2  -7  17    3.98    1.83
  -2  -7  16    0.63    1.37
   2   7 -15   -0.28    2.32
  -2  -7  15    9.37    2.38
   2   7 -14    3.70    3.24
  -2  -7  14    8.21    2.72
   2   7 -13    2.30    4.29
  -2  -7  13    1.68    2.12
   2   7 -12    3.69    3.12
  -2  -7  12    0.97    3.86
   2   7 -11   18.46    5.98
  -2  -7  11   17.46    4.19
   2   7 -10   -3.54    2.57
  -2  -7  10    0.59    1.75
   2   7  -9    8.01    4.66
  -2  -7   9    7.38    2.99
   2   7  -8   -2.61    4.92
   2   7  -7   -0.97    2.13
   2   7  -7    0.99    1.66
   2   7  -6    6.97    3.87
   2   7  -6    4.06    3.04
   2   7  -5   71.81   10.09
   2   7  -5   50.51   10.33
   2   7  -4  126.17   19.85
   2   7  -4  440.78   37.86
   2   7  -3  407.35   42.79
   2   7  -2    2.07    2.67
   2   7  -1   -1.56    4.33
   2   7  -1   38.02    5.79
   2   7   0   68.32    9.48
   2   7   0   79.07   10.88
  -2  -7   0   69.99    7.54
   2   7   1    7.04    3.17
   2   7   1    6.64    5.52
  -2  -7  -1    7.94    2.61
   2   7   2    1.17    3.62
  -2  -7  -2    1.66    1.77
   2   7   3    2.22    2.39
  -2  -7  -3    2.55    2.09
   2   7   4    0.40    1.80
  -2  -7  -4    0.54    1.62
   2   7   5    5.55    3.28
  -2  -7  -5    7.75    3.03
   2   7   6    0.67    1.68
  -2  -7  -6   -0.11    1.59
   2   7   7   -1.56    1.78
  -2  -7  -7    1.99    1.73
   2   7   8    3.93    2.71
  -2  -7  -8    4.88    2.70
   2   7   9    0.15    1.62
  -2  -7  -9   -0.99    1.62
   2   7  10    0.76    1.62
  -2  -7 -10    0.96    1.65
   2   7  11   -4.63    1.80
  -2  -7 -11   14.83    2.85
  -2  -8  16   -0.65    1.17
   2   8 -15   -0.04    1.40
  -2  -8  15   -6.14    2.72
   2   8 -14    2.83    2.36
  -2  -8  14    4.38    2.15
   2   8 -13    0.26    3.01
  -2  -8  13    0.32    1.48
   2   8 -12    2.17    3.10
  -2  -8  12    5.07    3.82
   2   8 -11    1.74    2.94
  -2  -8  11    2.11    2.07
   2   8 -10    8.53    4.52
  -2  -8  10    7.49    3.10
   2   8  -9    2.16    3.15
  -2  -8   9    1.82    2.11
   2   8  -8   -0.48    4.32
   2   8  -7   66.55    8.68
   2   8  -7    2.39    4.22
   2   8  -6    7.06    5.40
   2   8  -6   21.82    5.05
   2   8  -5   68.27   11.44
   2   8  -5   83.27   11.32
   2   8  -4    3.89    3.48
   2   8  -3   78.19   12.19
   2   8  -2   39.80    7.90
   2   8  -2   38.26    8.05
   2   8  -1   36.61    7.19
   2   8  -1   32.55    7.82
   2   8   0    7.02    3.38
   2   8   0    5.92    3.54
   2   8   1    6.40    2.93
   2   8   1    4.51    3.09
  -2  -8  -1    4.86    3.91
   2   8   2    0.95    2.00
  -2  -8  -2    1.01    2.58
   2   8   3    4.34    2.52
  -2  -8  -3    2.00    2.14
   2   8   4   -7.52    3.19
  -2  -8  -4    2.85    1.66
   2   8   5    1.81    3.94
  -2  -8  -5    3.19    2.18
   2   8   6    3.24    3.52
  -2  -8  -6    1.96    2.03
   2   8   7    0.63    2.46
  -2  -8  -7    0.00    2.32
   2   8   8    1.18    2.80
  -2  -8  -8    1.46    2.72
  -2  -8  -9   29.36    7.62
  -2  -9  14    1.70    1.58
   2   9 -13    3.25    1.99
  -2  -9  13    0.27    1.68
   2   9 -12    4.75    4.75
  -2  -9  12    3.86    2.17
   2   9 -11   -0.54    1.93
  -2  -9  11    0.36    2.22
   2   9 -10   -0.57    2.15
  -2  -9  10    0.73    1.49
   2   9  -9    1.34    2.12
  -2  -9   9   -0.34    1.44
   2   9  -8    4.82    3.88
  -2  -9   8    4.68    2.63
   2   9  -7   16.15    9.75
   2   9  -6   60.06   16.09
   2   9  -6   70.00   10.12
   2   9  -5   67.06   16.32
   2   9  -5   58.81   10.61
   2   9  -4   24.66    6.55
   2   9  -3    6.28    3.72
   2   9  -2    2.94    2.28
   2   9  -2   -0.81    2.33
   2   9  -1    9.81    3.71
   2   9  -1    5.02    5.85
   2   9   0    1.31    2.92
   2   9   0   -1.36    1.82
   2   9   1    1.90    2.12
   2   9   2    0.94    1.47
  -2  -9  -2   -0.38    1.21
   2   9   3    0.67    1.53
  -2  -9  -3    0.04    1.32
   2   9   4    8.46    2.48
  -2  -9  -4    0.93    2.13
   2   9   5    0.30    1.46
  -2  -9  -5    0.66    1.35
   2   9   6   -0.96    1.25
  -2  -9  -6    0.39    1.21
   2   9   7    7.43    1.98
  -2  -9  -7    1.36    1.93
   2  10 -11   -5.29    3.77
  -2 -10  11   -1.23    1.65
   2  10 -10    1.12    2.35
  -2 -10  10   -3.53    2.55
   2  10  -9    6.11    3.63
  -2 -10   9    6.22    2.41
   2  10  -8    0.43    2.43
  -2 -10   8    1.40    1.66
   2  10  -7    2.53    2.62
  -2 -10   7    0.94    1.78
   2  10  -6    3.55    3.30
   2  10  -5   -3.11    3.08
   2  10  -4    0.96    3.80
   2  10  -3   -1.40    3.97
   2  10  -2   -0.91    5.69
   2  10  -2   10.34    3.07
   2  10  -1    3.35    2.32
   2  10  -1    2.18    2.22
   2  10   0   -0.24    1.56
   2  10   0    2.03    1.60
   2  10   1    1.01    1.60
   2  10   2   -0.32    2.13
   2  10   3   10.83    4.60
   2  10   4    3.52    2.89
   2  11  -6   -1.87    1.95
  -2 -11   6   -1.14    1.37
   2  11  -5    0.43    1.62
   2  11  -4   -1.36    1.88
   2  11  -3   40.73    5.61
   3 -12   1    2.15    2.55
  -3  12  -1    2.83    1.54
  -3  12  -1   -0.04    1.19
   3 -12   2   10.44    3.54
  -3  12  -2    5.90    2.60
  -3  12  -2    6.45    2.03
   3 -12   3    4.18    2.14
  -3  12  -3   13.32    2.71
  -3  12  -3   11.03    2.27
  -3  12  -4    6.28    2.61
  -3  12  -4   13.38    2.36
  -3  12  -5   10.15    3.54
  -3  12  -5    3.52    3.20
  -3  12  -6   -1.34    2.13
   3 -11  -4    0.10    1.76
  -3  11   4   -1.36    1.23
   3 -11  -3    5.61    2.90
  -3  11   3    3.55    3.15
  -3  11   3    5.44    2.03
   3 -11  -2    1.50    2.22
  -3  11   2    1.04    2.54
  -3  11   2    2.15    1.58
   3 -11  -1    1.46    2.27
  -3  11   1    2.35    2.72
  -3  11   1    1.65    1.66
  -3  11   0   -0.34    2.19
   3 -11   1    4.78    3.21
  -3  11  -1   11.12    3.93
  -3  11  -1    2.30    3.98
   3 -11   2   -1.18    2.09
  -3  11  -2   -3.22    3.40
  -3  11  -2   -0.11    2.62
   3 -11   3    0.91    1.48
  -3  11  -3   -0.47    2.35
  -3  11  -3   -0.30    1.19
   3 -11   4    2.81    2.62
  -3  11  -4    1.80    1.72
  -3  11  -4   -0.76    1.48
   3 -11   5    3.61    1.89
  -3  11  -5    1.18    1.97
  -3  11  -5    1.84    1.82
   3 -11   6    3.15    1.98
  -3  11  -6    6.26    2.15
  -3  11  -6    3.42    2.10
   3 -11   7    0.81    1.25
  -3  11  -7    1.39    1.37
  -3  11  -7    1.94    2.44
  -3  11  -8    0.60    1.19
  -3  11  -8    0.49    2.22
  -3  11  -9    1.74    1.54
  -3  11 -10   -2.93    1.71
  -3  10   7   19.84    4.25
  -3  10   7   29.24    5.59
   3 -10  -6    2.05    3.20
  -3  10   6    0.99    1.19
  -3  10   6    0.86    2.35
   3 -10  -5    1.52    4.59
  -3  10   5    3.65    1.80
   3 -10  -4    0.25    3.26
  -3  10   4    0.55    1.35
  -3  10   4    0.59    2.35
   3 -10  -3   13.68    6.48
  -3  10   3    7.64    2.81
  -3  10   3    7.42    4.72
   3 -10  -2   28.42    9.44
  -3  10   2   17.16    4.25
  -3  10   2   20.62    4.47
   3 -10  -1   36.42   10.48
  -3  10   1   22.79    4.85
  -3  10   1   24.54    5.03
   3 -10   0   16.45    4.62
  -3  10   0   11.45    3.43
  -3  10   0    8.07    3.69
   3 -10   1   12.47    4.40
  -3  10  -1   10.86    3.23
  -3  10  -1    7.63    3.46
   3 -10   2   -1.45    1.82
  -3  10  -2    0.26    1.32
  -3  10  -2    0.90    1.46
   3 -10   3   -7.89    3.23
  -3  10  -3   -4.01    2.29
  -3  10  -3   -1.71    2.55
   3 -10   4    4.76    3.05
  -3  10  -4    2.84    2.20
  -3  10  -4    6.39    3.86
   3 -10   5   -0.37    3.85
  -3  10  -5   -1.30    2.71
  -3  10  -5   -2.57    1.95
   3 -10   6    3.03    2.39
  -3  10  -6    3.30    2.31
  -3  10  -6    4.84    2.25
   3 -10   7    0.88    1.57
  -3  10  -7    0.07    1.49
  -3  10  -7    1.34    1.57
   3 -10   8    0.56    1.48
  -3  10  -8    1.31    1.57
  -3  10  -9    5.21    4.01
  -3  10 -10   -1.75    1.80
  -3  10 -11    5.41    2.20
  -3  10 -12    0.02    1.00
  -3  10 -13   16.76    3.34
  -3   9  10   -1.38    1.40
   3  -9  -9    2.01    2.13
  -3   9   9    0.02    0.68
  -3   9   9    0.37    1.19
   3  -9  -8   -0.11    3.03
  -3   9   8    0.66    1.09
  -3   9   8    1.97    1.57
   3  -9  -7    0.92    1.64
  -3   9   7   -0.04    1.06
  -3   9   7    0.02    1.33
   3  -9  -6    0.73    1.70
  -3   9   6   -1.26    1.88
  -3   9   6    0.01    1.38
   3  -9  -5   12.37    4.29
  -3   9   5    7.09    4.81
  -3   9   5    8.56    3.36
   3  -9  -4    3.62    3.60
  -3   9   4    5.33    3.48
  -3   9   4    4.96    2.89
   3  -9  -3   15.97    5.09
  -3   9   3    8.42    4.97
  -3   9   3   12.27    4.02
  -3   9   2   -0.20    2.17
  -3   9   2    0.75    1.71
   3  -9  -1   -1.00    3.35
  -3   9   1   -0.30    2.02
  -3   9   1    0.50    2.59
   3  -9   0    1.99    4.61
  -3   9   0    1.69    3.23
   3  -9   1    9.90    7.02
  -3   9  -1    6.46    5.00
  -3   9  -1    9.78    3.37
   3  -9   2    0.03    2.06
  -3   9  -2   -0.99    1.45
  -3   9  -2    2.20    1.58
   3  -9   3    2.78    2.49
  -3   9  -3    1.50    1.74
  -3   9  -3    0.32    2.00
   3  -9   4    7.37    3.50
  -3   9  -4    2.53    2.42
  -3   9  -4    8.64    2.79
  -3   9  -5    2.10    1.55
  -3   9  -5   -2.34    2.96
   3  -9   6   31.11    9.45
  -3   9  -6   19.04    6.83
  -3   9  -6   42.71    5.45
   3  -9   7    1.26    2.25
  -3   9  -7    2.48    1.92
  -3   9  -7    3.40    2.11
   3  -9   8    1.07    2.08
  -3   9  -8    3.49    2.03
   3  -9   9    4.09    2.89
  -3   9  -9   -1.62    2.98
  -3   9 -10    0.15    1.42
  -3   9 -11    1.80    1.86
  -3   9 -12    0.00    1.12
  -3   9 -13    9.57    4.29
  -3   9 -14    1.23    1.70
  -3   8  12   -0.74    1.19
   3  -8 -11    0.27    1.06
  -3   8  11   -1.84    1.32
   3  -8 -10    2.33    2.38
  -3   8  10    0.58    0.87
  -3   8  10   -0.13    1.47
   3  -8  -9    0.69    1.99
  -3   8   9    2.22    2.16
  -3   8   9    2.56    3.05
   3  -8  -8    3.00    2.05
  -3   8   8    0.44    1.19
  -3   8   8    1.77    3.04
   3  -8  -7    5.40    3.42
  -3   8   7    5.25    1.99
  -3   8   7    5.92    4.60
   3  -8  -6   23.34    5.18
  -3   8   6   12.12    3.11
  -3   8   6   16.83    4.38
   3  -8  -5    0.86    2.25
  -3   8   5   -1.48    1.38
  -3   8   5   -0.14    1.87
   3  -8  -4    8.64    3.77
  -3   8   4    4.94    2.40
  -3   8   4    6.07    3.10
   3  -8  -3   17.03    4.90
  -3   8   3   10.72    2.96
  -3   8   3    9.04    3.80
   3  -8  -2   19.87    5.18
  -3   8   2   11.14    3.21
  -3   8   2   13.28    4.01
   3  -8  -1    4.95    3.11
  -3   8   1    3.33    1.86
  -3   8   1    0.43    2.40
   3  -8   0    6.71    3.58
  -3   8   0    5.37    2.25
  -3   8   0    4.96    2.87
   3  -8   1    2.64    4.47
  -3   8  -1    1.40    1.66
  -3   8  -1    6.17    3.43
   3  -8   2   -0.57    2.28
  -3   8  -2    0.45    1.38
  -3   8  -2    2.89    1.72
   3  -8   3    4.43    3.01
  -3   8  -3    2.00    2.80
  -3   8  -3    4.29    2.27
   3  -8   4   -0.60    1.75
  -3   8  -4    1.24    1.15
  -3   8  -4   -1.62    1.35
   3  -8   5    2.82    2.80
  -3   8  -5    2.93    1.81
  -3   8  -5    5.47    3.64
  -3   8  -6    3.61    1.93
  -3   8  -6    8.89    3.78
   3  -8   7   13.60    4.35
  -3   8  -7   20.67    3.89
   3  -8   8   15.54    4.86
  -3   8  -8   30.44    4.49
   3  -8   9   10.20    3.65
  -3   8  -9   18.28    5.56
  -3   8 -10    1.76    1.99
  -3   8 -11    5.43    2.63
  -3   8 -12   30.80    5.18
  -3   8 -13    2.98    1.81
  -3   8 -13    4.67    3.46
  -3   8 -14    0.65    1.34
  -3   8 -14    2.52    1.89
  -3   8 -15   18.62    3.95
  -3   8 -15   68.75    5.97
  -3   7  13   -4.06    3.20
  -3   7  12    2.34    3.28
  -3   7  11   -0.60    1.71
   3  -7 -10    0.41    1.31
  -3   7  10   -0.43    0.75
  -3   7  10    0.86    1.40
   3  -7  -9   -0.11    1.94
  -3   7   9    0.56    1.18
  -3   7   9    3.13    2.01
   3  -7  -8    2.82    2.10
  -3   7   8    0.38    1.30
  -3   7   8    0.87    2.04
   3  -7  -7   20.36    4.87
  -3   7   7   12.69    3.13
  -3   7   7   15.02    4.56
   3  -7  -6    8.07    3.52
  -3   7   6    4.54    2.35
  -3   7   6    7.64    3.16
   3  -7  -5    2.85    2.68
  -3   7   5    1.29    2.79
  -3   7   5    2.28    3.84
   3  -7  -4  191.42   21.14
  -3   7   4  152.04   19.56
  -3   7   4  188.65   26.87
   3  -7  -3   16.19    4.83
  -3   7   3   10.32    4.86
  -3   7   3   11.49    6.34
   3  -7  -2  248.39   25.38
  -3   7   2  203.44   23.48
  -3   7   2  229.65   21.96
   3  -7  -1    3.79    2.55
  -3   7   1    2.14    1.53
  -3   7   1    0.17    2.15
   3  -7   0    3.71    2.31
  -3   7   0    2.05    1.39
  -3   7   0   -1.31    2.01
   3  -7   1   31.80    8.62
  -3   7  -1   20.83    3.37
  -3   7  -1   24.70    4.55
   3  -7   2   37.74   10.73
  -3   7  -2   32.66    4.32
  -3   7  -2   63.33    8.92
   3  -7   3   34.17    6.22
  -3   7  -3   25.21    3.78
  -3   7  -3   49.06    5.29
   3  -7   4   -1.39    2.25
  -3   7  -4    0.33    1.21
  -3   7  -4    6.69    1.86
   3  -7   5    3.37    2.68
  -3   7  -5    3.12    2.68
  -3   7  -5    4.38    2.09
   3  -7   6    8.92    4.63
  -3   7  -6    4.33    1.84
  -3   7  -6   12.29    3.77
   3  -7   7    2.81    2.23
  -3   7  -7    1.89    1.84
  -3   7  -7    2.98    1.85
   3  -7   8    0.34    1.78
  -3   7  -8    0.97    1.60
  -3   7  -8    0.93    1.49
   3  -7   9    7.99    5.74
  -3   7  -9   11.71    5.05
  -3   7  -9   15.61    5.06
   3  -7  10   -0.58    1.45
  -3   7 -10    1.12    1.35
  -3   7 -10    0.91    1.55
  -3   7 -11    0.48    1.66
  -3   7 -11    2.34    1.84
  -3   7 -12   10.94    3.23
  -3   7 -12   15.64    3.54
  -3   7 -13    1.99    1.99
  -3   7 -13    6.40    3.44
  -3   7 -14    3.54    3.06
  -3   7 -14    3.89    2.41
  -3   7 -15   16.23    3.81
  -3   7 -15   24.01    4.17
  -3   7 -16    0.46    1.37
  -3   7 -16    2.03    2.32
  -3   6  14   -3.48    2.09
  -3   6  13    0.92    1.74
  -3   6  12    3.20    2.43
  -3   6  11   -0.27    0.86
  -3   6  11   -0.31    1.64
   3  -6 -10    1.63    1.90
  -3   6  10    1.27    1.21
  -3   6  10    0.82    2.11
   3  -6  -9    2.30    2.03
  -3   6   9   -0.63    2.31
  -3   6   9    2.14    2.17
   3  -6  -8    0.54    2.16
  -3   6   8    2.39    1.48
  -3   6   8    0.71    2.16
   3  -6  -7    1.58    2.10
  -3   6   7    0.87    1.45
  -3   6   7    1.93    2.10
   3  -6  -6  110.51   12.99
  -3   6   6  101.46   10.49
  -3   6   6  117.99   13.80
   3  -6  -5    4.15    2.32
  -3   6   5    0.47    1.67
  -3   6   5    2.11    2.20
   3  -6  -4  389.54   37.53
  -3   6   4  333.36   29.86
  -3   6   4  395.00   36.17
   3  -6  -3    3.20    2.38
  -3   6   3    1.48    1.63
  -3   6   3    1.36    2.13
   3  -6  -2  168.78   16.87
  -3   6   2  151.34   12.96
  -3   6   2  159.50   19.55
   3  -6  -1   -0.97    1.99
  -3   6   1    1.94    1.29
   3  -6   0   70.25    8.53
  -3   6   0   61.57    6.25
  -3   6   0   65.50    7.10
   3  -6   1    7.32    2.99
   3  -6   1   14.66    5.36
  -3   6  -1   10.63    3.32
  -3   6  -1    6.93    2.12
   3  -6   2    0.89    1.26
   3  -6   2    0.51    1.74
  -3   6  -2    0.21    1.56
  -3   6  -2    0.60    1.14
   3  -6   3  151.47   14.49
  -3   6  -3  127.89    9.42
  -3   6  -3  108.02   15.00
  -3   6  -3  154.19   11.77
   3  -6   4    2.55    1.17
   3  -6   4    3.06    2.34
  -3   6  -4    2.94    1.18
   3  -6   5    2.26    1.24
   3  -6   5    5.63    2.32
  -3   6  -5    2.09    1.12
  -3   6  -5    3.99    1.71
   3  -6   6    3.07    3.38
  -3   6  -6    2.09    1.96
  -3   6  -6    2.89    2.59
   3  -6   7    9.97    3.32
  -3   6  -7    7.51    3.14
  -3   6  -7   13.09    2.56
   3  -6   8    1.31    1.81
  -3   6  -8    0.76    1.85
  -3   6  -8    1.17    1.42
   3  -6   9   25.11    7.92
  -3   6  -9   23.00    5.54
  -3   6  -9   34.33    6.66
  -3   6 -10   12.46    5.05
  -3   6 -10   25.09    3.93
   3  -6  11    4.78    2.52
  -3   6 -11    7.70    5.13
  -3   6 -11    9.04    2.61
  -3   6 -12    7.20    3.09
  -3   6 -12   10.28    2.96
  -3   6 -13    4.07    2.44
  -3   6 -13    4.64    4.19
  -3   6 -14   13.58    3.50
  -3   6 -14   12.05    3.60
  -3   6 -15    1.02    2.48
  -3   6 -15    0.79    1.59
  -3   6 -16    0.34    1.50
  -3   6 -16    0.73    2.22
  -3   6 -17   31.60    3.43
  -3   6 -17    2.22    2.55
  -3   5  15    0.40    1.38
  -3   5  14    7.67    3.04
  -3   5  13    1.70    2.12
  -3   5  12   -1.56    3.70
  -3   5  11    0.68    1.15
  -3   5  11    2.29    3.25
  -3   5  10    1.88    1.45
  -3   5  10    2.10    3.67
   3  -5  -9    9.50    2.89
  -3   5   9    5.65    2.18
  -3   5   9    7.76    5.14
   3  -5  -8    1.72    2.01
  -3   5   8    1.84    1.53
  -3   5   8    3.04    3.52
   3  -5  -7   11.52    3.16
  -3   5   7    7.81    2.57
  -3   5   7    8.87    5.29
   3  -5  -6    5.89    2.44
  -3   5   6    3.01    1.95
  -3   5   6    4.79    2.55
   3  -5  -5   21.87    6.68
   3  -5  -5   42.36    5.55
  -3   5   5   36.14    4.68
  -3   5   5   31.00    3.46
  -3   5   5   42.38    5.74
   3  -5  -4    0.84    1.46
   3  -5  -4    3.18    1.94
  -3   5   4    1.96    1.42
  -3   5   4    2.33    1.68
  -3   5   4    1.37    1.77
   3  -5  -3    9.73    2.53
   3  -5  -3   16.58    3.41
  -3   5   3   10.88    2.43
  -3   5   3   11.62    2.22
  -3   5   3   14.33    3.02
   3  -5  -2   74.64    7.27
   3  -5  -2   89.77    9.05
   3  -5  -2   91.65    6.73
  -3   5   2   64.67    6.69
  -3   5   2   91.50    8.50
   3  -5  -1   53.01    8.01
   3  -5  -1   64.36    6.97
   3  -5  -1   61.03    4.92
  -3   5   1   51.30    5.09
  -3   5   1   47.21    7.66
  -3   5   1   51.95    8.09
   3  -5   0   -0.80    0.84
   3  -5   0   -0.79    2.27
  -3   5   0    0.35    0.87
  -3   5   0   -0.16    0.98
   3  -5   1   15.87    2.57
   3  -5   1   23.20    6.21
  -3   5  -1   17.03    2.40
  -3   5  -1   12.95    2.87
  -3   5  -1   24.11    3.28
  -3   5  -1   18.93    2.85
  -3   5  -1   19.31    3.20
   3  -5   2   -0.95    0.88
   3  -5   2   -0.54    1.34
  -3   5  -2    0.84    0.75
  -3   5  -2   -0.16    1.73
  -3   5  -2    0.88    1.09
   3  -5   3  118.74   12.13
   3  -5   3  112.42   10.80
  -3   5  -3   95.95    9.13
  -3   5  -3   89.22    9.35
  -3   5  -3  119.73    9.87
  -3   5  -3  115.99    8.42
   3  -5   4    1.69    1.06
   3  -5   4    0.88    1.92
   3  -5   4    1.05    1.41
  -3   5  -4    0.88    0.84
  -3   5  -4    1.87    1.58
  -3   5  -4    3.13    1.40
   3  -5   5  128.93    9.88
   3  -5   5  134.89   17.68
   3  -5   5  139.10   11.10
  -3   5  -5  114.96   16.84
  -3   5  -5  167.07   11.16
   3  -5   6    2.33    1.31
  -3   5  -6    2.42    1.41
  -3   5  -7   56.79    5.43
   3  -5   8    2.03    2.08
  -3   5  -8    3.52    2.32
  -3   5  -8    2.38    1.53
   3  -5   9    2.25    1.94
  -3   5  -9    2.85    2.46
  -3   5  -9    3.34    2.79
  -3   5 -10   -2.36    2.11
  -3   5 -10   -0.22    1.41
  -3   5 -11    1.14    2.31
  -3   5 -11    0.96    1.51
   3  -5  12    0.81    1.33
  -3   5 -12    1.36    3.56
  -3   5 -12    1.95    2.59
  -3   5 -13   -0.35    1.69
  -3   5 -13    1.38    1.62
  -3   5 -14    2.83    2.62
  -3   5 -14    5.74    2.45
  -3   5 -15   -0.17    1.54
  -3   5 -15    1.49    2.26
  -3   5 -16    4.62    3.44
  -3   5 -16    0.52    1.55
  -3   5 -17    1.51    1.71
  -3   5 -17    0.96    1.26
  -3   4  16   -0.45    1.39
  -3   4  15   42.50    9.49
  -3   4  14    4.15    4.24
  -3   4  13    7.93    3.47
  -3   4  12    8.16    2.31
  -3   4  12   22.88    4.20
  -3   4  11    0.89    1.25
  -3   4  11    1.79    2.02
   3  -4 -10   11.64    3.21
  -3   4  10    5.20    2.08
  -3   4  10    8.73    3.14
   3  -4  -9    8.87    3.38
  -3   4   9    8.98    4.69
  -3   4   9   10.38    3.30
   3  -4  -8    2.20    2.03
   3  -4  -8    2.11    1.75
  -3   4   8    1.33    3.01
  -3   4   8    1.79    1.92
   3  -4  -7   19.48    4.12
   3  -4  -7   19.69    3.67
  -3   4   7   19.08    3.78
  -3   4   7   19.40    3.94
   3  -4  -6   18.21    3.65
   3  -4  -6   18.20    3.39
   3  -4  -6   19.58    2.18
  -3   4   6   12.05    3.41
  -3   4   6   19.55    2.58
  -3   4   6   17.62    5.53
   3  -4  -5   17.16    3.49
   3  -4  -5   18.05    3.34
   3  -4  -5   19.91    3.20
  -3   4   5   15.78    3.32
  -3   4   5   17.53    2.38
  -3   4   5   16.05    5.18
   3  -4  -4    0.35    1.14
   3  -4  -4    0.89    1.16
   3  -4  -4    0.22    0.68
  -3   4   4    0.59    1.06
  -3   4   4   -0.30    1.58
  -3   4   4    0.36    0.91
  -3   4   4   -1.01    1.07
   3  -4  -3  178.35   17.78
   3  -4  -3  166.46   13.64
   3  -4  -3  168.42   10.49
  -3   4   3  170.92   13.50
  -3   4   3  171.09   16.95
  -3   4   3  160.31   12.08
  -3   4   3  173.15   13.20
   3  -4  -2  216.99   16.94
   3  -4  -2  221.13   17.75
  -3   4   2  214.96   16.56
  -3   4   2  194.22   18.69
  -3   4   2  230.56   16.74
   3  -4  -1   40.48    4.77
   3  -4  -1   45.42    7.83
  -3   4   1   41.96    4.58
  -3   4   1   39.71    4.44
  -3   4   1   42.47    6.71
   3  -4   0   43.25    5.16
   3  -4   0   45.30    8.71
  -3   4   0   48.86    7.17
  -3   4   0   39.85    4.84
  -3   4   0   51.11    5.09
  -3   4   0   63.75    5.05
  -3   4   0   66.76    5.43
   3  -4   1   53.13    7.23
   3  -4   1   59.10    6.28
  -3   4  -1   38.11    5.62
  -3   4  -1   51.25    8.38
  -3   4  -1   61.70    5.57
  -3   4  -1   65.93    5.11
  -3   4  -1   69.01    5.58
   3  -4   2    0.39    1.10
   3  -4   2    0.55    1.50
  -3   4  -2    1.06    0.76
  -3   4  -2    0.43    1.31
  -3   4  -2    1.94    1.22
   3  -4   3    3.14    1.50
   3  -4   3    5.37    2.01
   3  -4   3    3.11    1.33
  -3   4  -3    2.35    0.93
  -3   4  -3    3.94    1.80
  -3   4  -3    4.23    2.94
  -3   4  -3    3.90    1.21
   3  -4   4    2.59    2.20
   3  -4   4    9.05    3.25
   3  -4   4    0.41    1.11
  -3   4  -4    0.86    1.14
  -3   4  -4    1.32    2.53
  -3   4  -4    1.01    0.99
   3  -4   5  190.93   13.41
   3  -4   5  183.57   13.34
  -3   4  -5  179.59   16.92
  -3   4  -5  209.20   15.67
   3  -4   6    1.46    1.34
   3  -4   6    2.01    1.92
   3  -4   6    3.31    1.38
  -3   4  -6    1.60    2.07
  -3   4  -6    2.47    1.23
   3  -4   7   83.77    6.81
   3  -4   7   71.82    8.60
   3  -4   7   58.33    9.05
  -3   4  -7   75.34    6.07
   3  -4   8   37.56    5.44
  -3   4  -8    1.85    3.85
   3  -4   9    0.63    1.49
  -3   4  -9    0.08    1.78
  -3   4  -9    1.05    1.18
   3  -4  10   -1.07    1.23
  -3   4 -10   -0.21    1.54
  -3   4 -10    0.73    1.03
   3  -4  11    1.33    2.25
  -3   4 -11    0.32    2.24
  -3   4 -11    1.91    2.32
   3  -4  12    1.70    1.62
  -3   4 -12    1.81    4.21
  -3   4 -12    2.91    1.94
   3  -4  13    0.54    1.45
  -3   4 -13    2.89    2.17
  -3   4 -13    2.72    1.88
  -3   4 -14    7.72    3.07
  -3   4 -14    5.11    2.55
  -3   4 -15    3.26    2.17
  -3   4 -15   -0.23    3.02
  -3   4 -16    9.17    4.71
  -3   4 -16    3.35    1.99
  -3   4 -17    1.45    1.82
  -3   4 -17    1.27    1.96
  -3   4 -18    1.56    1.63
  -3   3  17   -4.84    3.49
   3  -3 -16    0.63    1.42
  -3   3  16    2.49    2.71
   3  -3 -15    0.76    1.31
  -3   3  15   -0.71    1.36
   3  -3 -14    0.47    1.74
  -3   3  14   -0.78    1.59
   3  -3 -13    5.22    4.50
  -3   3  13    2.48    2.59
   3  -3 -12   49.29   12.01
  -3   3  12   43.33    7.48
   3  -3 -11    0.32    3.23
  -3   3  11   -2.50    1.51
  -3   3  11    1.34    1.79
   3  -3 -10    2.91    3.37
  -3   3  10    0.26    1.62
  -3   3  10    2.64    1.86
   3  -3  -9   -0.47    2.36
  -3   3   9    0.44    1.13
  -3   3   9   -0.77    1.25
   3  -3  -8    2.39    2.91
  -3   3   8    0.63    1.48
  -3   3   8    1.35    1.54
   3  -3  -7   45.26    8.51
   3  -3  -7   31.89    4.08
   3  -3  -7   35.40    2.70
  -3   3   7   36.29    4.77
  -3   3   7   39.92    5.02
   3  -3  -6   39.05    5.10
   3  -3  -6   29.62    3.88
   3  -3  -6   33.15    2.65
  -3   3   6   29.27    4.46
  -3   3   6   39.85    3.58
  -3   3   6   32.61    4.32
   3  -3  -5    0.85    1.40
   3  -3  -5    0.45    1.12
   3  -3  -5    0.26    1.08
  -3   3   5    1.17    1.20
  -3   3   5    1.55    1.75
  -3   3   5    2.35    1.88
  -3   3   5   -0.09    1.13
   3  -3  -4   26.19    3.72
   3  -3  -4   20.92    3.07
   3  -3  -4   21.35    2.00
  -3   3   4   16.94    3.18
  -3   3   4   21.04    4.49
  -3   3   4   24.24    3.07
  -3   3   4   19.41    4.48
   3  -3  -3   58.36    6.11
   3  -3  -3   54.25    7.88
  -3   3   3   48.43    5.33
  -3   3   3   57.66    7.34
  -3   3   3   57.58    5.07
  -3   3   3   56.64    4.99
   3  -3  -2  148.03   16.04
   3  -3  -2  127.55   14.09
  -3   3   2  117.91    9.85
  -3   3   2  134.98   10.75
  -3   3   2  162.69   10.39
  -3   3   2  132.11    9.61
   3  -3  -1  471.31   35.81
   3  -3  -1  454.94   34.93
  -3   3   1  411.58   31.23
  -3   3   1  451.43   35.19
  -3   3   1  536.68   36.82
  -3   3   1  484.81   36.84
   3  -3   0   21.91    3.11
   3  -3   0   16.37    2.88
  -3   3   0   11.78    2.20
  -3   3   0   14.51    4.58
  -3   3   0   16.66    3.90
  -3   3   0   15.88    1.89
   3  -3   1    0.51    1.19
   3  -3   1    0.70    1.23
  -3   3  -1    0.05    0.80
  -3   3  -1    1.52    1.19
  -3   3  -1   -0.45    1.19
  -3   3  -1    1.03    0.76
   3  -3   2   -0.04    0.99
   3  -3   2   -0.72    1.21
  -3   3  -2    0.12    0.72
  -3   3  -2    1.37    1.17
  -3   3  -2    2.10    1.09
  -3   3  -2    0.05    1.05
   3  -3   3   16.18    2.60
   3  -3   3   13.01    1.83
  -3   3  -3   13.53    2.98
  -3   3  -3   16.18    2.79
  -3   3  -3   16.36    1.67
   3  -3   4    8.05    2.03
   3  -3   4    8.27    2.48
   3  -3   4    6.30    1.45
  -3   3  -4    4.75    4.08
  -3   3  -4    6.52    2.16
  -3   3  -4    8.50    2.09
   3  -3   5  113.06   10.59
   3  -3   5  115.35   10.43
   3  -3   5  101.05    7.25
  -3   3  -5  115.52   10.78
  -3   3  -5   99.87    9.53
  -3   3  -5  121.98    7.01
   3  -3   6  117.39    8.55
   3  -3   6   92.60    9.74
  -3   3  -6   99.18   10.95
  -3   3  -6  110.13    6.90
   3  -3   7   10.42    2.13
   3  -3   7    9.34    2.61
   3  -3   7    7.47    1.91
  -3   3  -7   11.26    2.83
   3  -3   8    0.84    1.63
   3  -3   8    1.71    1.23
  -3   3  -8    1.49    1.14
   3  -3   9    4.21    2.32
  -3   3  -9    7.12    2.61
  -3   3  -9    4.53    1.65
   3  -3  10    0.34    2.53
  -3   3 -10    0.83    1.83
  -3   3 -10    0.70    2.12
   3  -3  11    2.68    1.77
  -3   3 -11    3.92    2.66
  -3   3 -11    2.92    1.88
   3  -3  12    0.58    1.30
   3  -3  12    0.01    2.17
  -3   3 -12    1.59    3.18
  -3   3 -12    0.52    1.40
   3  -3  13    6.81    4.17
   3  -3  13    6.00    4.47
  -3   3 -13   15.18    3.69
  -3   3 -13   10.00    4.69
   3  -3  14   -0.32    0.88
   3  -3  14    0.52    1.19
  -3   3 -14   -0.10    1.54
  -3   3 -14   -0.36    1.28
   3  -3  15    0.57    1.42
  -3   3 -15    1.44    1.85
   3  -3  16    4.34    2.11
  -3   3 -16   19.20    5.39
   3  -3  17   -0.49    0.98
  -3   3 -17    2.88    1.55
  -3   3 -18   10.82    2.68
  -3   2  18    1.14    2.13
   3  -2 -17    1.20    1.55
  -3   2  17    0.85    1.52
   3  -2 -16    2.70    1.99
  -3   2  16    0.14    1.78
   3  -2 -15   20.71    7.36
  -3   2  15   13.54    4.13
   3  -2 -14   28.34    5.89
  -3   2  14   18.12    5.16
   3  -2 -13   10.14    3.48
  -3   2  13    3.41    2.07
  -3   2  13    6.20    2.89
   3  -2 -12    2.14    2.45
  -3   2  12    1.66    1.61
  -3   2  12    1.42    2.01
   3  -2 -11    5.55    2.79
  -3   2  11    2.42    1.92
   3  -2 -10    0.24    2.04
  -3   2  10    1.33    1.47
   3  -2  -9    5.95    3.06
   3  -2  -8    1.58    1.95
  -3   2   8    1.49    1.49
   3  -2  -7    0.28    1.70
   3  -2  -7    0.26    1.62
  -3   2   7    1.17    1.13
  -3   2   7    1.06    1.18
   3  -2  -6   88.04    9.63
   3  -2  -6   96.85   12.93
   3  -2  -6   63.64    8.18
  -3   2   6   88.07    9.41
  -3   2   6   97.98    6.99
  -3   2   6   84.51    7.04
   3  -2  -5   27.56    4.47
   3  -2  -5   29.13    6.73
   3  -2  -5   21.87    4.27
  -3   2   5   23.87    6.76
  -3   2   5   31.31    3.58
  -3   2   5   24.32    3.00
   3  -2  -4    2.48    1.30
   3  -2  -4    0.02    1.27
   3  -2  -4   -0.33    0.84
  -3   2   4    0.57    2.33
  -3   2   4    0.30    1.04
  -3   2   4    0.18    0.76
   3  -2  -3  342.44   28.64
   3  -2  -3  382.10   29.25
   3  -2  -3  347.28   24.94
  -3   2   3  379.81   31.37
  -3   2   3  419.88   26.20
  -3   2   3  355.59   26.55
   3  -2  -2   84.87    8.05
   3  -2  -2   85.01    7.87
   3  -2  -2   77.19    6.32
  -3   2   2   82.88    7.22
  -3   2   2   79.45    5.67
   3  -2  -1   94.94    8.01
   3  -2  -1   89.73   10.58
   3  -2  -1   88.53    6.84
  -3   2   1   86.60    7.43
  -3   2   1   90.76    9.18
  -3   2   1   63.83    6.63
   3  -2   0  104.11    9.02
   3  -2   0  126.58    9.32
  -3   2   0  128.36   12.93
  -3   2   0  140.07    9.00
  -3   2   0  102.88    6.15
   3  -2   1   -4.07    1.38
  -3   2  -1    0.17    1.38
  -3   2  -1    0.22    1.11
   3  -2   2  183.68   16.54
   3  -2   2  182.27   13.56
  -3   2  -2  185.96   14.23
  -3   2  -2  179.10   17.22
  -3   2  -2  193.28    9.56
   3  -2   3   53.78    4.83
   3  -2   3   51.26    5.07
   3  -2   3   40.13    2.87
  -3   2  -3   48.48    5.62
  -3   2  -3   55.94    8.08
  -3   2  -3   49.84    3.71
   3  -2   4    0.88    1.17
   3  -2   4    0.39    0.65
  -3   2  -4    1.43    0.67
  -3   2  -4    2.25    2.35
  -3   2  -4    0.13    1.40
  -3   2  -4    0.34    0.55
   3  -2   5   46.83    6.75
   3  -2   5   31.22    6.81
   3  -2   5   28.65    3.94
  -3   2  -5   32.59    5.03
  -3   2  -5   35.43    4.85
  -3   2  -5   33.51    3.44
   3  -2   6    7.30    1.87
   3  -2   6    8.69    2.43
   3  -2   6    3.22    2.03
   3  -2   6    5.69    1.41
  -3   2  -6    7.25    2.86
  -3   2  -6   11.20    2.76
  -3   2  -6    9.44    1.31
   3  -2   7    1.00    1.11
   3  -2   7    0.55    1.42
   3  -2   7   -0.19    1.40
   3  -2   7    0.68    0.82
   3  -2   7    0.93    0.88
  -3   2  -7    0.80    0.79
   3  -2   8   13.92    2.84
   3  -2   8    6.06    2.96
   3  -2   8    5.81    1.81
   3  -2   8    8.13    1.86
  -3   2  -8   10.04    2.68
   3  -2   9    0.30    1.87
   3  -2   9   -0.10    1.64
  -3   2  -9    0.56    1.45
   3  -2  10   -0.06    1.30
   3  -2  10    0.59    1.95
  -3   2 -10    1.42    1.66
   3  -2  11    1.99    1.71
   3  -2  11    0.91    2.72
  -3   2 -11    2.98    2.27
   3  -2  12    9.07    2.48
   3  -2  12    4.28    2.55
  -3   2 -12   12.86    5.42
   3  -2  13    1.59    2.20
   3  -2  13   -0.38    1.72
  -3   2 -13    3.82    2.04
   3  -2  14    2.30    1.40
   3  -2  14    1.73    1.89
  -3   2 -14    3.32    2.19
   3  -2  15    1.51    1.39
   3  -2  15    4.32    2.03
  -3   2 -15    9.25    2.39
   3  -2  16    0.96    1.40
  -3   2 -16    1.38    3.12
   3  -2  17    0.86    1.80
  -3   2 -17    0.87    1.50
  -3   2 -18    2.00    1.42
   3  -1 -18    0.08    1.40
  -3   1  18   -0.68    1.15
   3  -1 -17    3.14    3.56
  -3   1  17    1.42    1.72
   3  -1 -16    2.35    2.32
  -3   1  16    0.89    1.82
   3  -1 -15    3.87    2.61
  -3   1  15    0.09    2.03
   3  -1 -14    0.41    2.15
   3  -1 -13    0.23    2.47
  -3   1  13    1.43    1.47
   3  -1 -12   21.07    5.96
   3  -1 -11    0.76    2.16
   3  -1 -10   -1.16    1.41
   3  -1 -10    1.21    1.51
   3  -1 -10    0.17    1.13
   3  -1  -9    6.86    2.95
   3  -1  -9    7.82    3.10
   3  -1  -9    5.12    2.20
   3  -1  -8   34.70    6.03
   3  -1  -8   39.79    5.91
   3  -1  -7    1.78    1.72
   3  -1  -7    0.77    1.71
  -3   1   7    0.40    1.71
  -3   1   7    1.26    1.20
   3  -1  -6    2.00    1.97
   3  -1  -6    2.99    1.96
  -3   1   6    2.29    1.96
  -3   1   6    4.07    2.18
  -3   1   6    2.50    0.99
   3  -1  -5    9.70    4.19
   3  -1  -5   12.08    4.17
   3  -1  -5    7.10    2.13
  -3   1   5    8.46    2.58
  -3   1   5   12.05    2.21
  -3   1   5    7.09    1.47
  -3   1   5    7.58    1.24
   3  -1  -4   18.62    5.67
   3  -1  -4   22.69    5.87
   3  -1  -4   17.47    3.29
  -3   1   4   18.36    3.57
  -3   1   4   24.50    3.11
   3  -1  -3  209.62   21.12
   3  -1  -3  230.48   16.54
   3  -1  -3  178.23   14.19
  -3   1   3  204.21   16.00
  -3   1   3  223.08   18.26
  -3   1   3  186.90   11.72
  -3   1   3  202.76   12.83
   3  -1  -2    0.59    1.99
   3  -1  -2   -1.29    1.41
  -3   1   2    1.28    1.20
  -3   1   2   -0.13    1.29
  -3   1   2    1.60    0.80
  -3   1   2    0.69    0.52
   3  -1  -1  291.42   21.71
   3  -1  -1  332.71   29.08
   3  -1  -1  273.08   18.46
  -3   1   1  308.59   21.50
  -3   1   1  292.31   18.99
   3  -1   0    8.81    1.99
   3  -1   0   10.77    2.47
   3  -1   0   10.65    1.92
  -3   1   0   14.01    4.04
  -3   1   0    9.56    1.29
   3  -1   1   46.51    4.70
   3  -1   1   64.51    5.94
   3  -1   1   64.90    5.20
  -3   1  -1   70.01    6.17
  -3   1  -1   68.09    5.66
  -3   1  -1   54.17    3.20
   3  -1   2  233.30   21.86
   3  -1   2  215.53   15.38
  -3   1  -2  206.39   16.03
  -3   1  -2  209.95   16.02
   3  -1   3  210.85   14.03
   3  -1   3  182.67   17.03
  -3   1  -3  193.85   14.85
  -3   1  -3  204.19   14.73
  -3   1  -3  157.39    9.44
   3  -1   4   -0.46    0.99
   3  -1   4   -0.95    1.01
   3  -1   4   -0.13    0.81
  -3   1  -4    0.95    1.15
  -3   1  -4    0.47    0.46
   3  -1   5   45.85    5.82
   3  -1   5   50.85    5.26
  -3   1  -5   47.90    5.59
  -3   1  -5   32.88    3.05
   3  -1   6  242.27   16.80
   3  -1   6  241.28   19.52
  -3   1  -6  219.28   19.82
   3  -1   7   10.33    2.03
   3  -1   7   13.32    4.34
   3  -1   7    3.92    1.77
  -3   1  -7    5.63    1.73
   3  -1   8   41.10    4.90
   3  -1   8   23.96    3.84
   3  -1   9    1.21    1.96
   3  -1   9    1.70    1.79
  -3   1  -9    9.13    2.28
   3  -1  10   37.67    5.11
   3  -1  10   17.21    4.41
  -3   1 -10   41.13    5.54
   3  -1  11   37.43    5.13
   3  -1  11   18.09    4.77
  -3   1 -11   39.98    5.86
   3  -1  12    0.64    1.92
   3  -1  12   -0.21    1.48
  -3   1 -12    2.05    2.63
   3  -1  13    5.69    1.80
   3  -1  13    2.12    2.29
  -3   1 -13    3.48    2.36
   3  -1  14    0.32    1.06
   3  -1  14   -0.82    1.43
  -3   1 -14    1.55    1.45
   3  -1  15    1.06    1.81
   3  -1  15    1.27    1.58
  -3   1 -15    0.72    2.50
   3  -1  16    0.37    0.66
   3  -1  16   -1.39    1.77
  -3   1 -16   -0.22    1.22
   3  -1  17    0.05    0.95
  -3   1 -17   -0.57    1.07
   3   0 -18   -5.72    3.35
  -3   0  18   -0.63    1.33
   3   0 -17    4.81    4.63
  -3   0  17    3.44    2.01
   3   0 -16    6.20    3.00
  -3   0  16    1.74    2.14
   3   0 -15   10.59    4.74
   3   0 -14    2.42    3.02
   3   0 -13   10.68    3.84
   3   0 -13    3.43    2.85
   3   0 -12   96.37   13.97
   3   0 -12  149.07   15.83
   3   0 -12   96.20   11.93
   3   0 -11   34.80    6.75
   3   0 -11   36.22    6.76
   3   0 -11   20.35    4.85
   3   0 -10    9.61    3.53
   3   0 -10   13.82    3.82
   3   0 -10    6.22    2.57
   3   0  -9    3.58    3.92
   3   0  -9    5.04    2.56
   3   0  -9    2.12    1.62
   3   0  -8    2.02    3.73
   3   0  -8    3.29    2.07
   3   0  -8    1.57    1.25
  -3   0   8    1.54    0.99
   3   0  -7   27.12    5.00
   3   0  -7   26.96    4.48
  -3   0   7   22.41    3.70
  -3   0   7   31.93    3.27
  -3   0   7   19.27    2.25
   3   0  -6    0.77    2.16
   3   0  -6    3.14    1.92
  -3   0   6    2.48    2.65
  -3   0   6    4.96    2.12
  -3   0   6    1.94    1.30
   3   0  -5    2.74    1.82
   3   0  -5    1.21    1.64
  -3   0   5    4.13    2.63
  -3   0   5    1.50    1.34
  -3   0   5    0.92    0.96
  -3   0   5    1.63    1.01
   3   0  -4    4.98    2.08
   3   0  -4    5.88    3.11
  -3   0   4    5.28    3.06
  -3   0   4    5.64    1.60
  -3   0   4    3.32    0.71
  -3   0   4    4.04    0.63
  -3   0   4    3.90    1.06
  -3   0   4    2.59    0.73
  -3   0   4    2.60    1.02
   3   0  -3   15.18    3.07
   3   0  -3   17.22    2.91
   3   0  -3    9.25    2.35
  -3   0   3   17.41    2.42
  -3   0   3   13.15    2.27
  -3   0   3   12.46    1.03
   3   0  -2    9.63    2.50
   3   0  -2   10.24    2.46
   3   0  -2    9.03    0.80
  -3   0   2   10.86    2.33
  -3   0   2    9.09    1.34
   3   0  -1  111.68    8.91
   3   0  -1  122.26   12.57
   3   0  -1   90.16    8.11
   3   0  -1   89.64    5.39
  -3   0   1   93.03    9.13
  -3   0   1  119.35    8.42
  -3   0   1  111.57    9.48
  -3   0   1   93.06    5.92
   3   0   0   14.55    2.69
   3   0   0   18.08    2.82
   3   0   0   15.73    2.01
   3   0   0   17.79    1.79
  -3   0   0   13.62    2.93
  -3   0   0   19.36    2.80
  -3   0   0   17.00    2.33
  -3   0   0   12.44    1.12
   3   0   1    0.71    0.93
   3   0   1   -1.76    1.17
   3   0   1    0.09    0.90
   3   0   1    0.58    0.47
  -3   0  -1   -0.09    0.69
  -3   0  -1   -0.25    1.23
  -3   0  -1    2.01    1.03
  -3   0  -1    0.57    0.44
   3   0   2  592.08   51.14
   3   0   2  625.86   47.65
  -3   0  -2  653.39   52.47
  -3   0  -2  628.00   49.52
   3   0   3   15.51    2.65
   3   0   3   16.62    2.80
  -3   0  -3   15.48    3.09
  -3   0  -3   20.41    4.94
   3   0   4  161.09   11.47
   3   0   4  150.49   11.78
  -3   0  -4  126.63   15.24
  -3   0  -4  129.32   16.45
   3   0   5   16.56    3.54
   3   0   5   21.34    5.22
   3   0   5   11.50    3.31
  -3   0  -5   19.05    5.76
  -3   0  -5   13.91    2.10
   3   0   6  794.18   60.97
   3   0   6  806.85   64.12
   3   0   6  551.45   47.25
  -3   0  -6  778.18   77.88
  -3   0  -6  590.38   52.91
   3   0   7    2.72    1.48
   3   0   7    3.70    1.86
   3   0   7    2.33    1.52
  -3   0  -7    1.93    1.44
   3   0   8  488.17   36.25
   3   0   8  260.62   24.70
   3   0   9    0.76    1.32
   3   0   9    0.42    1.23
  -3   0  -9   -0.38    1.26
   3   0  10    2.83    2.54
   3   0  10    0.45    1.54
  -3   0 -10    0.54    1.56
   3   0  11    1.68    1.55
   3   0  11    1.93    1.83
   3   0  12    1.16    1.30
   3   0  12    1.10    1.60
  -3   0 -12   -0.08    1.45
   3   0  13   -0.45    1.04
   3   0  13    0.98    1.36
  -3   0 -13   -0.42    1.19
   3   0  14    0.42    2.11
   3   0  14   -1.92    2.85
  -3   0 -14   -2.96    2.42
   3   0  15    0.61    0.97
   3   0  15   -0.26    2.29
  -3   0 -15    0.44    1.37
   3   0  16   -0.13    0.76
   3   0  16   -0.60    1.21
  -3   0 -16   -0.97    1.09
   3   0  17   -0.19    0.92
   3   1 -18   -1.30    2.78
  -3  -1  18   -0.24    1.02
   3   1 -17    3.15    2.27
  -3  -1  17    0.20    1.40
   3   1 -16    0.84    2.34
   3   1 -15    9.32    3.37
   3   1 -15    0.40    2.12
   3   1 -14    5.06    2.71
   3   1 -14   -1.88    3.26
   3   1 -14    5.01    2.27
   3   1 -13   18.99    5.44
   3   1 -13   41.66    6.71
   3   1 -13   16.69    4.38
   3   1 -12   80.99   11.28
   3   1 -12   97.41   12.06
   3   1 -12   48.36    7.92
   3   1 -11  386.54   49.08
   3   1 -11  408.25   42.01
   3   1 -10    2.68    3.57
   3   1 -10    0.18    2.08
   3   1 -10    0.95    1.30
  -3  -1  10    0.74    1.15
   3   1  -9    1.16    2.07
   3   1  -9    0.15    1.88
   3   1  -9    0.22    1.11
  -3  -1   9    0.99    1.02
  -3  -1   9    1.22    1.51
   3   1  -8   40.82    6.54
   3   1  -8   44.47    5.78
  -3  -1   8   32.50    3.40
  -3  -1   8   28.23    4.29
   3   1  -7    0.70    1.73
   3   1  -7    0.51    1.47
  -3  -1   7    0.35    1.27
  -3  -1   7   -0.09    1.05
  -3  -1   7    1.21    1.20
   3   1  -6   30.74    5.25
   3   1  -6   32.36    4.54
  -3  -1   6   28.60    4.07
  -3  -1   6   34.93    3.34
  -3  -1   6   26.52    2.43
   3   1  -5   30.88    5.04
   3   1  -5   31.32    4.28
  -3  -1   5   26.94    3.80
  -3  -1   5   36.54    5.84
  -3  -1   5   28.34    2.31
   3   1  -4    0.28    2.41
   3   1  -4    0.51    2.09
  -3  -1   4    0.42    1.08
  -3  -1   4    0.30    1.07
  -3  -1   4    0.50    0.97
   3   1  -3  158.09   18.48
   3   1  -3  155.78   12.69
   3   1  -3  149.76    8.11
  -3  -1   3  148.51   11.24
  -3  -1   3  174.81   11.28
  -3  -1   3  140.80    8.82
   3   1  -2  347.45   34.10
   3   1  -2  371.47   27.79
   3   1  -2  260.35   23.27
   3   1  -2  360.21   23.75
  -3  -1   2  385.48   26.49
  -3  -1   2  397.77   31.02
  -3  -1   2  347.39   27.18
   3   1  -1   32.41    6.65
   3   1  -1   39.78    6.30
   3   1  -1   32.19    4.20
  -3  -1   1   35.25    3.50
  -3  -1   1   41.84    4.07
  -3  -1   1   32.88    3.22
  -3  -1   1   31.81    2.81
   3   1   0   45.11    7.38
   3   1   0   48.84    4.81
   3   1   0   44.90    5.66
   3   1   0   45.44    4.88
  -3  -1   0   53.00    5.77
  -3  -1   0   56.38    4.82
  -3  -1   0   54.92    6.34
  -3  -1   0   40.96    3.40
   3   1   1   39.94    4.30
   3   1   1   49.98    4.68
   3   1   1   41.32    4.88
   3   1   1   34.33    3.09
  -3  -1  -1   36.70    3.93
  -3  -1  -1   50.43    6.47
  -3  -1  -1   50.87    6.47
  -3  -1  -1   47.15    3.11
   3   1   2    7.92    1.86
   3   1   2   11.95    1.93
   3   1   2   11.83    2.77
   3   1   2    9.26    2.50
  -3  -1  -2    9.69    1.19
  -3  -1  -2   12.86    2.28
  -3  -1  -2   13.08    2.40
  -3  -1  -2    9.35    1.49
   3   1   3    1.12    1.16
   3   1   3    1.23    1.12
   3   1   3    1.28    1.02
  -3  -1  -3    2.31    1.37
  -3  -1  -3    2.86    1.55
  -3  -1  -3    2.52    1.54
   3   1   4   42.83    6.32
   3   1   4   44.40    4.03
   3   1   4   32.07    3.75
  -3  -1  -4   33.25    4.58
  -3  -1  -4   34.86    5.10
  -3  -1  -4   35.75    5.39
   3   1   5    2.36    0.96
   3   1   5    0.22    1.29
   3   1   5    0.22    1.17
  -3  -1  -5    0.04    1.75
  -3  -1  -5    1.00    1.19
   3   1   6  148.25   10.22
   3   1   6  166.32   13.22
   3   1   6  120.07   14.64
  -3  -1  -6  126.40   10.79
   3   1   7   13.62    3.04
   3   1   7    7.04    4.31
   3   1   7    8.87    4.50
   3   1   8  148.68   16.42
   3   1   8   82.75   13.65
  -3  -1  -8  106.82    9.68
   3   1   9    9.22    2.39
   3   1   9    6.01    4.35
  -3  -1  -9    7.57    2.37
   3   1  10    2.07    1.28
   3   1  10    0.61    2.46
  -3  -1 -10   -3.72    2.14
   3   1  11    7.64    2.22
   3   1  11    4.41    4.31
  -3  -1 -11    5.17    2.12
   3   1  12    1.60    1.46
   3   1  12   -1.72    3.02
  -3  -1 -12    1.23    1.42
   3   1  13   -3.14    2.82
   3   1  13   -1.75    2.16
   3   1  14    2.70    1.46
   3   1  14    0.87    1.93
   3   1  15    0.11    0.79
   3   1  15   -0.40    1.13
   3   1  16   -1.41    1.43
   3   2 -18   -2.48    2.83
  -3  -2  18   -0.22    0.87
   3   2 -17    6.14    3.37
   3   2 -16    1.81    2.28
  -3  -2  16   -0.14    2.17
   3   2 -15    2.13    2.55
   3   2 -15   -0.02    1.55
  -3  -2  15    1.40    1.42
   3   2 -14   11.16    3.67
   3   2 -14   18.75    4.50
   3   2 -14    5.62    2.87
  -3  -2  14    6.90    2.74
   3   2 -13   56.43    9.95
   3   2 -13   90.78   11.19
  -3  -2  13   56.73    7.24
   3   2 -12    3.95    5.42
   3   2 -12    5.18    3.31
  -3  -2  12    2.01    3.28
   3   2 -11   90.46   13.78
   3   2 -11   95.38   12.16
  -3  -2  11   77.33    8.11
   3   2 -10   42.44    7.90
   3   2 -10   39.77    6.73
  -3  -2  10   33.53    4.49
   3   2  -9  107.62   13.84
   3   2  -9   99.78   11.20
  -3  -2   9   87.76   11.08
   3   2  -8    0.99    2.05
   3   2  -8    1.18    1.71
  -3  -2   8    0.49    1.02
   3   2  -7   38.67   10.75
   3   2  -7   43.61    5.70
  -3  -2   7   39.07    3.80
   3   2  -6    2.70    3.93
   3   2  -6    3.13    1.89
  -3  -2   6    2.62    2.34
  -3  -2   6    2.50    1.34
   3   2  -5    8.22    3.17
   3   2  -5    7.41    3.89
   3   2  -5    8.09    1.62
  -3  -2   5    7.16    3.03
  -3  -2   5    7.42    1.71
   3   2  -4   81.62    8.93
   3   2  -4   73.68    7.13
   3   2  -4   67.74    5.20
  -3  -2   4   66.02    8.16
  -3  -2   4   83.16    9.11
  -3  -2   4   71.50    5.52
   3   2  -3  124.60   12.13
   3   2  -3  123.32   10.49
  -3  -2   3  104.88    8.26
  -3  -2   3  122.42    9.11
   3   2  -2  302.98   27.14
   3   2  -2  327.83   30.71
   3   2  -2  394.91   26.42
  -3  -2   2  325.91   22.58
  -3  -2   2  333.67   23.95
  -3  -2   2  357.07   30.65
   3   2  -1  151.97   13.05
   3   2  -1  148.25   11.29
  -3  -2   1  156.17    9.91
  -3  -2   1  129.79   13.13
  -3  -2   1  140.89   13.08
  -3  -2   1  158.99   10.29
   3   2   0   14.59    2.92
   3   2   0   14.64    2.49
   3   2   0   12.84    1.79
   3   2   0   13.62    2.07
  -3  -2   0   17.88    1.90
  -3  -2   0   13.85    2.43
  -3  -2   0   14.84    2.38
   3   2   1    6.60    1.95
   3   2   1    5.71    2.36
   3   2   1    6.48    1.40
   3   2   1    4.40    1.54
  -3  -2  -1    6.78    1.84
  -3  -2  -1    6.08    1.68
  -3  -2  -1    6.61    1.88
  -3  -2  -1    6.83    2.47
   3   2   2    4.52    2.78
   3   2   2    5.39    1.51
   3   2   2    8.12    1.57
   3   2   2    6.73    2.65
  -3  -2  -2    6.43    0.93
  -3  -2  -2    5.35    1.73
  -3  -2  -2    7.88    2.11
  -3  -2  -2    5.50    1.54
   3   2   3   97.73   10.74
   3   2   3  123.90    8.90
   3   2   3  109.86   11.82
  -3  -2  -3  115.99   10.40
  -3  -2  -3  113.44    8.68
   3   2   4   13.29    1.88
   3   2   4   22.25    4.23
   3   2   4   15.72    2.87
  -3  -2  -4   18.57    3.63
  -3  -2  -4   17.83    4.29
   3   2   5   21.72    4.40
   3   2   5    8.17    2.68
   3   2   6   -0.76    1.73
   3   2   6   -0.16    1.23
   3   2   7   28.39    3.77
   3   2   7   17.31    4.27
   3   2   8    2.78    1.64
   3   2   8    1.30    1.99
   3   2   9    8.96    2.53
   3   2   9    5.35    2.99
   3   2  10    0.00    1.36
   3   2  10   -1.34    1.63
   3   2  11    1.22    2.55
   3   2  11    1.02    1.93
   3   2  12    1.32    2.04
   3   2  12   -0.42    1.57
   3   2  13   -0.31    1.00
   3   2  13    0.69    1.28
   3   2  14    0.09    1.10
   3   2  14    1.68    1.50
   3   2  15    0.26    1.23
   3   2  16    1.65    2.19
   3   3 -18    6.82    5.09
   3   3 -17   -0.13    1.64
  -3  -3  17   -0.15    0.97
   3   3 -16   10.77    3.58
  -3  -3  16    4.51    2.09
   3   3 -15    0.43    2.62
   3   3 -15   10.41    3.28
  -3  -3  15    4.08    2.07
   3   3 -14   53.63    9.75
   3   3 -14   97.99   11.54
  -3  -3  14   60.55    7.52
   3   3 -13   59.25   17.44
   3   3 -13   77.72   11.14
  -3  -3  13   57.44   11.44
   3   3 -12   16.11    5.46
   3   3 -12   16.15    4.87
  -3  -3  12   13.45    3.51
   3   3 -11   11.94    4.89
   3   3 -11   13.34    4.15
  -3  -3  11    8.72    2.88
   3   3 -10    6.52    4.05
   3   3 -10    5.91    3.23
  -3  -3  10    6.61    3.73
   3   3  -9    1.10    4.12
   3   3  -9    2.36    2.00
  -3  -3   9    0.76    1.34
   3   3  -8    1.87    3.87
   3   3  -8    1.75    1.83
  -3  -3   8    0.81    1.26
   3   3  -7   65.89    9.97
   3   3  -7   60.09    7.69
   3   3  -6   52.92    7.96
   3   3  -6   44.39    9.22
   3   3  -6   48.09    4.88
  -3  -3   6   52.72    4.80
   3   3  -5    7.12    2.87
   3   3  -5    4.15    2.12
   3   3  -5    4.01    1.66
  -3  -3   5    4.58    1.42
   3   3  -4  143.39   14.71
   3   3  -4  128.21   11.72
   3   3  -4  145.73   13.68
  -3  -3   4  149.23   10.84
  -3  -3   4  124.26    8.75
   3   3  -3   45.17    6.36
   3   3  -3   30.90    4.68
  -3  -3   3   48.33    4.40
  -3  -3   3   35.21    4.87
   3   3  -2  186.49   17.89
   3   3  -2  156.66   13.15
   3   3  -2  249.55   16.46
  -3  -3   2  207.84   14.13
   3   3  -1   58.63    6.11
   3   3  -1   34.20    4.20
   3   3  -1   37.80    2.87
  -3  -3   1   42.72    3.95
  -3  -3   1   45.62    4.39
   3   3   0   19.00    3.50
   3   3   0   12.05    3.21
   3   3   0   15.05    1.80
   3   3   0   17.46    2.78
  -3  -3   0   20.17    1.94
  -3  -3   0   13.39    2.22
  -3  -3   0   18.44    2.81
   3   3   1   16.93    3.22
   3   3   1   11.72    2.12
   3   3   1   16.67    1.96
   3   3   1   19.37    2.91
  -3  -3  -1   17.71    1.80
  -3  -3  -1   17.41    3.88
  -3  -3  -1   20.67    3.09
  -3  -3  -1   20.19    4.54
   3   3   2    7.16    1.46
   3   3   2    5.24    2.06
  -3  -3  -2    7.04    2.36
  -3  -3  -2    7.05    1.94
   3   3   3    8.76    1.77
   3   3   3    8.04    3.82
   3   3   4   12.77    2.28
   3   3   4   11.58    4.71
   3   3   5   59.37    5.74
   3   3   5   50.15    6.97
   3   3   6   54.52    5.81
   3   3   6   39.66    6.74
   3   3   7   11.51    2.70
   3   3   7    8.19    3.30
   3   3   8    0.42    1.38
   3   3   8    0.56    1.64
   3   3   9    0.46    2.46
   3   3   9    0.89    1.77
   3   3  10   -1.41    2.51
   3   3  10   -0.19    1.81
   3   3  11   -1.15    1.54
   3   3  11   -1.52    1.96
   3   3  12    0.07    1.18
   3   3  12    0.62    1.50
   3   3  13    0.58    1.08
   3   3  13   -0.28    1.42
   3   3  14   -1.25    2.61
   3   3  15   -0.06    1.42
  -3  -3 -15    3.25    1.44
   3   4 -18    2.19    1.89
   3   4 -17    7.79    4.04
  -3  -4  17    2.28    2.42
   3   4 -16    3.96    3.65
  -3  -4  16    1.32    1.51
   3   4 -15    0.68    1.97
   3   4 -15    2.94    2.34
  -3  -4  15    1.39    1.60
   3   4 -14   -4.10    3.15
  -3  -4  14    1.96    2.11
   3   4 -13   19.11    6.24
   3   4 -13   24.28    5.46
  -3  -4  13   19.24    4.20
   3   4 -12    0.77    1.93
   3   4 -12    0.72    1.58
  -3  -4  12   -0.73    1.22
   3   4 -11    4.85    4.30
   3   4 -11    5.87    3.33
  -3  -4  11    8.84    4.27
   3   4 -10    3.51    5.53
   3   4 -10    2.31    2.53
  -3  -4  10    3.39    1.96
   3   4  -9    5.29    4.91
   3   4  -9    1.43    2.15
  -3  -4   9    1.91    1.70
   3   4  -8   -0.36    2.57
   3   4  -8   -0.54    2.91
  -3  -4   8    2.04    1.45
   3   4  -7    6.93    3.55
   3   4  -7    2.82    3.93
   3   4  -6   35.24    6.61
   3   4  -6   21.78    4.45
   3   4  -6   31.02    4.11
   3   4  -5   41.76    6.69
   3   4  -5   24.64    4.37
   3   4  -5   35.70    4.40
  -3  -4   5   30.27    4.79
   3   4  -4   20.83    5.24
   3   4  -4   24.05    5.74
   3   4  -3   13.23    8.56
   3   4  -3  153.68    9.51
   3   4  -2  191.12   20.89
   3   4  -2  252.22   18.98
   3   4  -1   21.13    8.08
   3   4  -1  156.24    9.81
   3   4   0    0.02    1.46
   3   4   0   -0.20    1.11
   3   4   0    2.26    2.03
  -3  -4   0    0.42    1.16
   3   4   1    1.93    1.68
   3   4   1    1.64    1.52
   3   4   1    0.59    1.51
  -3  -4  -1    1.11    1.50
   3   4   2    5.79    2.54
   3   4   2    6.63    2.42
   3   4   3   -0.59    1.58
   3   4   3    1.33    1.43
   3   4   4   -1.16    1.58
   3   4   4    0.59    1.42
   3   4   5    2.69    2.75
   3   4   5    4.43    3.90
   3   4   6    8.66    3.89
   3   4   6    5.93    5.01
   3   4   7   12.64    2.98
   3   4   7   10.85    6.14
   3   4   8    2.00    1.68
   3   4   8    1.15    3.54
   3   4   9   15.94    3.25
   3   4   9    7.40    6.52
   3   4  10    1.92    1.90
   3   4  10    8.92    3.98
   3   4  11    2.00    1.64
   3   4  11    2.21    3.35
   3   4  12    1.46    2.99
   3   4  13    1.32    1.60
   3   4  14    3.38    1.58
  -3  -4 -14    2.09    1.70
   3   5 -17    4.64    2.52
  -3  -5  17    9.26    1.89
   3   5 -16    2.69    1.67
   3   5 -16    3.22    2.01
  -3  -5  16    2.84    1.65
   3   5 -15    0.49    2.03
   3   5 -15    2.96    3.41
  -3  -5  15    3.07    1.73
   3   5 -14    4.44    3.27
   3   5 -14    5.54    4.33
   3   5 -14    6.82    4.42
  -3  -5  14    3.97    2.27
   3   5 -13    8.77    4.19
   3   5 -13    3.48    5.20
  -3  -5  13    6.78    2.76
   3   5 -12    1.49    2.68
   3   5 -12   -1.13    3.19
  -3  -5  12    1.41    1.75
   3   5 -11   13.41    8.63
   3   5 -11    9.08    5.85
   3   5 -11    8.99    5.99
  -3  -5  11   11.83    5.36
   3   5 -10   24.35   10.45
  -3  -5  10   19.45    3.99
   3   5  -9    4.64    3.43
  -3  -5   9    2.67    2.04
   3   5  -8   42.55    8.72
  -3  -5   8   41.25    5.57
   3   5  -7    2.35    3.10
   3   5  -6    2.06    2.88
   3   5  -6    2.04    1.82
   3   5  -5    3.70    3.18
   3   5  -5    3.56    2.06
   3   5  -4    4.56    4.49
   3   5  -4   22.03    5.42
   3   5  -3   29.12    6.54
   3   5  -2    8.14    3.69
   3   5  -1   67.62    8.87
   3   5  -1   51.75    8.18
   3   5   0   31.36    6.04
   3   5   0   31.36    8.66
   3   5   1   51.70    7.27
   3   5   1   42.31    4.55
   3   5   1   66.49   11.06
   3   5   2  110.27    9.39
   3   5   2  138.24   13.87
   3   5   3   41.70    4.89
   3   5   3   43.51    7.17
   3   5   4   14.54    2.78
   3   5   4   12.66    4.06
   3   5   5   11.17    2.63
   3   5   5   10.09    3.66
   3   5   6   -0.19    1.17
   3   5   6   -0.41    1.61
   3   5   7   23.68    3.78
   3   5   7   17.16    4.86
   3   5   8    0.29    1.22
   3   5   8   -1.33    1.60
   3   5   9    4.69    2.04
   3   5   9    3.52    2.62
   3   5  10    0.65    1.68
   3   5  11    0.89    1.64
   3   5  12   -2.70    1.66
  -3  -5 -12   -0.77    1.75
  -3  -6  16    7.13    1.96
   3   6 -15    1.52    2.45
  -3  -6  15    0.02    2.12
   3   6 -14    3.20    2.40
  -3  -6  14    1.22    1.69
   3   6 -13   -0.43    1.91
  -3  -6  13    0.39    1.29
   3   6 -12   16.98    5.72
  -3  -6  12   16.15    3.88
   3   6 -11    7.15    7.04
  -3  -6  11    6.60    4.49
   3   6 -10   37.37    8.62
  -3  -6  10   35.73    5.53
   3   6  -9    9.21    5.35
  -3  -6   9   11.67    3.28
   3   6  -8    1.74    3.14
   3   6  -7   24.20    7.15
   3   6  -6    5.43    3.71
   3   6  -6    3.70    2.46
   3   6  -5    4.89    3.81
   3   6  -5    5.44    2.58
   3   6  -4    0.13    2.32
   3   6  -4   -0.94    1.64
   3   6  -3   14.08    5.20
   3   6  -2    3.44    3.16
   3   6  -1    4.25    2.67
   3   6  -1    0.84    2.31
   3   6   0    1.79    1.54
   3   6   0   -1.34    1.40
   3   6   1    2.67    2.40
   3   6   2   -1.08    3.19
   3   6   3    2.67    4.14
   3   6   4    2.89    2.50
   3   6   5    0.93    1.93
   3   6   6    0.28    1.66
   3   6   7    1.73    2.13
   3   6   8    0.03    1.30
   3   6   9    0.63    1.72
  -3  -6  -9    1.25    1.79
   3   6  10    0.24    1.34
  -3  -6 -10    0.47    1.38
   3   6  11    4.90    2.14
  -3  -6 -11   -0.99    1.34
   3   7 -15   -1.20    2.39
  -3  -7  15   -1.54    2.10
   3   7 -14    1.07    1.53
  -3  -7  14   -0.28    1.11
   3   7 -13    1.50    2.59
  -3  -7  13    2.30    1.75
   3   7 -12    5.15    3.61
  -3  -7  12    5.53    2.41
   3   7 -11    1.91    3.89
  -3  -7  11   -0.01    2.44
   3   7 -10   -1.79    3.52
  -3  -7  10    0.38    1.35
   3   7  -9    8.93    4.36
  -3  -7   9    4.02    2.73
   3   7  -8    9.55    4.64
  -3  -7   8    6.96    2.97
   3   7  -7    1.93    3.22
   3   7  -6   -0.80    3.02
   3   7  -6   -2.13    2.20
   3   7  -5   14.53    5.44
   3   7  -5   11.69    4.32
   3   7  -4   28.66    7.69
   3   7  -3    2.36    3.17
   3   7  -2   88.41   13.83
   3   7  -2   96.17   21.56
   3   7  -1  154.25   18.68
   3   7  -1  119.73   20.11
   3   7   0    0.84    2.68
   3   7   0    4.60    2.93
   3   7   1    3.99    2.82
   3   7   2    0.56    1.94
  -3  -7  -2    1.01    1.47
   3   7   3   -0.45    1.71
  -3  -7  -3   -0.17    1.31
   3   7   4   16.79    3.16
  -3  -7  -4   -0.22    2.45
   3   7   5    1.26    2.27
  -3  -7  -5   -0.43    1.21
   3   7   6   -2.39    2.80
  -3  -7  -6   -0.30    1.52
   3   7   7    4.56    3.27
  -3  -7  -7    1.65    1.86
   3   7   8    1.24    2.35
  -3  -7  -8    0.44    1.40
   3   7   9   -1.71    1.54
  -3  -7  -9   -1.73    1.58
   3   8 -13   12.61    3.65
  -3  -8  13    9.65    2.53
   3   8 -12   -2.84    1.89
  -3  -8  12    1.77    1.24
   3   8 -11   -1.76    2.63
  -3  -8  11   -1.26    2.84
   3   8 -10    2.75    4.54
  -3  -8  10    1.39    1.75
   3   8  -9    2.00    3.15
  -3  -8   9    2.48    1.95
   3   8  -8    1.27    2.81
  -3  -8   8    1.27    1.77
   3   8  -7   -1.86    3.08
   3   8  -6    3.02    3.47
   3   8  -5    3.00    4.61
   3   8  -5   13.29    3.79
   3   8  -4   10.43    5.05
   3   8  -3   31.02    7.79
   3   8  -2   -2.55    3.46
   3   8  -2   11.66    3.57
   3   8  -1   40.98    8.06
   3   8  -1   56.48   11.85
   3   8   0   -2.46    3.95
   3   8   1    9.53    3.41
   3   8   2    8.71    3.25
   3   8   3    0.66    1.64
   3   8   4    3.71    2.31
   3   8   5    2.07    1.86
   3   8   6   -4.75    2.31
   3   8   7   -0.99    1.75
  -3  -8  -7    6.19    1.64
   3   9 -11    5.85    2.79
  -3  -9  11    2.79    1.81
   3   9 -10    8.04    3.90
  -3  -9  10    7.11    3.86
   3   9  -9    3.27    4.68
  -3  -9   9    2.75    1.81
   3   9  -8    1.84    3.02
  -3  -9   8   -0.14    1.22
   3   9  -7   -0.61    1.94
  -3  -9   7   -0.10    1.31
   3   9  -6    4.42    3.32
   3   9  -5    1.44    2.46
   3   9  -4    3.81    2.91
   3   9  -3    4.20    2.83
   3   9  -2    0.84    1.81
   3   9  -2   -2.63    1.86
   3   9  -1    4.42    2.61
   3   9  -1    8.85    2.87
   3   9   0   -2.19    1.96
   3   9   1    6.25    2.59
   3   9   2    1.54    2.76
   3   9   3   -5.67    3.84
   3  10  -6   -0.31    2.63
  -3 -10   6   -0.55    1.19
   3  10  -4    5.37    3.94
   4 -11  -2    1.95    2.30
  -4  11   2    0.06    0.98
  -4  11   2   -0.73    1.02
   4 -11  -1    4.39    3.63
  -4  11   1    1.55    1.55
  -4  11   1    2.84    2.66
  -4  11   0   12.46    3.07
  -4  11   0   29.84    5.20
   4 -11   1   -4.56    4.25
  -4  11  -1   -5.40    3.20
   4 -11   2   -0.23    1.62
  -4  11  -2    1.22    1.95
  -4  11  -2    1.18    1.32
   4 -11   3    2.04    2.12
  -4  11  -3    1.36    3.05
  -4  11  -3    4.21    1.73
   4 -11   4   -0.83    1.35
  -4  11  -4    0.15    1.13
  -4  11  -4   -0.46    1.18
  -4  11  -5   -0.58    1.28
  -4  11  -5   -0.09    1.62
   4 -11   6   10.51    4.47
  -4  11  -6   12.85    4.38
  -4  11  -7   -0.91    1.28
  -4  11  -8    3.18    1.57
   4 -10  -6    0.12    1.40
  -4  10   6    2.09    1.06
  -4  10   6   -1.12    1.17
  -4  10   5   13.85    2.82
  -4  10   5   12.51    2.98
   4 -10  -4    1.30    1.93
  -4  10   4    0.55    1.43
  -4  10   4    1.64    1.47
   4 -10  -3    5.32    2.65
  -4  10   3    3.62    1.96
  -4  10   3    1.75    2.00
   4 -10  -2    1.90    2.43
  -4  10   2   -0.41    1.77
  -4  10   2    4.10    1.83
   4 -10  -1    2.45    2.04
  -4  10   1    1.55    1.44
  -4  10   1   -1.66    1.50
   4 -10   0    6.40    3.39
  -4  10   0    5.77    2.33
  -4  10   0    3.72    2.48
   4 -10   1    3.09    2.61
  -4  10  -1    1.15    1.73
  -4  10  -1    2.16    1.88
   4 -10   2    4.69    4.51
  -4  10  -2    2.37    1.81
  -4  10  -2    2.71    3.32
   4 -10   3    0.11    2.76
  -4  10  -3   -0.25    1.16
  -4  10  -3    2.14    2.15
   4 -10   4    1.19    2.01
  -4  10  -4    1.27    1.34
  -4  10  -4    1.12    1.58
   4 -10   5    1.45    1.71
  -4  10  -5    1.06    2.23
  -4  10  -5   -0.21    1.39
   4 -10   6    0.12    1.42
  -4  10  -6    0.35    1.02
  -4  10  -6   -1.03    1.19
   4 -10   7    2.57    3.34
  -4  10  -7    2.89    2.92
   4 -10   8    2.60    1.67
  -4  10  -8    5.31    3.07
   4 -10   9   -0.13    0.82
  -4  10  -9    0.06    1.02
  -4  10 -10    9.05    2.29
  -4   9   8    0.95    0.98
  -4   9   8   -0.65    1.32
   4  -9  -7   -0.01    1.49
  -4   9   7   -0.78    1.94
  -4   9   7   -1.09    1.38
   4  -9  -6    5.13    2.59
  -4   9   6    2.43    2.77
  -4   9   6    4.54    2.27
   4  -9  -5   -0.56    1.92
  -4   9   5    0.97    2.05
  -4   9   5    2.36    2.65
   4  -9  -4    6.71    3.22
  -4   9   4    4.39    2.08
  -4   9   4    5.13    4.21
   4  -9  -3    0.27    1.95
  -4   9   3    0.04    1.24
  -4   9   3    1.58    2.35
   4  -9  -2    7.39    3.48
  -4   9   2    4.83    2.22
  -4   9   2    4.00    4.17
   4  -9  -1    9.89    3.71
  -4   9   1    4.81    2.26
  -4   9   1    5.76    2.75
   4  -9   0    6.80    3.32
  -4   9   0    1.38    3.15
  -4   9   0    2.77    2.38
   4  -9   1   18.14    5.59
  -4   9  -1   16.62    6.31
   4  -9   2    7.19    3.86
  -4   9  -2    6.55    4.24
  -4   9  -2    6.02    2.82
   4  -9   3   21.64    6.84
  -4   9  -3    4.13    2.63
  -4   9  -3   14.44    4.94
   4  -9   4    5.51    4.34
  -4   9  -4    1.30    1.70
  -4   9  -4    4.03    3.33
   4  -9   5   11.04    4.09
  -4   9  -5    9.21    2.58
  -4   9  -5   14.25    3.19
   4  -9   6    0.72    2.00
  -4   9  -6    0.97    1.55
   4  -9   7   -0.89    1.83
  -4   9  -7   -0.59    1.49
   4  -9   8    7.86    5.23
   4  -9   8    8.19    4.70
  -4   9  -8   12.22    4.37
   4  -9   9    0.34    1.52
  -4   9  -9    2.12    1.58
   4  -9  10    0.10    1.12
  -4   9 -10    0.84    1.24
   4  -9  11   -0.19    1.09
  -4   9 -11   -0.11    1.04
  -4   9 -12   -4.88    3.32
  -4   9 -13   -0.47    1.04
  -4   8  10   15.97    3.24
  -4   8  10    9.15    2.83
   4  -8  -9    0.63    1.09
  -4   8   9    0.08    0.82
  -4   8   9    0.30    1.25
   4  -8  -8    2.40    1.55
  -4   8   8    0.26    1.12
  -4   8   8   -0.01    1.57
   4  -8  -7    0.44    1.61
  -4   8   7    1.22    1.12
  -4   8   7   -1.29    1.50
   4  -8  -6    1.24    2.16
  -4   8   6    1.73    1.49
  -4   8   6    0.97    1.89
   4  -8  -5   -1.63    1.92
  -4   8   5    0.13    1.28
  -4   8   5   -0.37    1.62
   4  -8  -4   -1.08    2.08
  -4   8   4   -0.57    1.38
  -4   8   4   -0.05    1.68
   4  -8  -3   13.86    4.55
  -4   8   3    9.78    3.00
  -4   8   3   10.86    3.60
   4  -8  -2    9.61    4.30
  -4   8   2    8.24    2.68
  -4   8   2    8.29    3.28
   4  -8  -1    1.71    2.68
  -4   8   1    1.19    1.61
  -4   8   1    2.27    3.41
   4  -8   0   12.39    4.43
  -4   8   0    9.16    2.71
  -4   8   0    8.53    3.22
   4  -8   1   25.81    5.49
  -4   8  -1   10.43    4.10
   4  -8   2   25.26    6.20
  -4   8  -2   17.12    3.59
  -4   8  -2   26.21    4.65
   4  -8   3    3.37    6.53
  -4   8  -3    4.00    3.45
  -4   8  -3   10.71    3.07
   4  -8   4    5.59    3.84
  -4   8  -4    0.46    2.48
  -4   8  -4   -0.13    2.94
   4  -8   5    4.49    3.22
  -4   8  -5    4.06    2.01
  -4   8  -5    7.28    2.38
   4  -8   6    2.69    2.67
  -4   8  -6    2.87    1.96
   4  -8   7    3.68    2.86
  -4   8  -7    4.38    2.15
   4  -8   8   -5.97    4.84
  -4   8  -8   -4.26    3.71
   4  -8   9    1.68    1.66
  -4   8  -9    0.20    1.52
   4  -8  10    2.07    1.94
  -4   8 -10    1.66    1.51
  -4   8 -10    5.02    1.82
   4  -8  11    0.22    1.76
  -4   8 -11   -0.20    0.91
  -4   8 -11   -0.09    1.08
  -4   8 -12   -0.56    0.94
  -4   8 -12    0.63    2.14
  -4   8 -13    2.32    2.13
  -4   8 -13    0.80    1.35
  -4   8 -14    4.46    1.58
  -4   7  12    6.51    2.14
  -4   7  11    0.23    0.73
  -4   7  11    1.19    1.27
  -4   7  10    0.58    0.96
  -4   7  10    0.71    2.37
  -4   7   9    0.11    0.93
  -4   7   9    0.05    2.11
   4  -7  -8    6.65    2.55
  -4   7   8    3.84    1.91
  -4   7   8    3.37    4.05
   4  -7  -7    1.27    2.62
  -4   7   7    5.00    3.13
  -4   7   7    4.73    2.49
   4  -7  -6   -0.14    1.81
  -4   7   6   -2.01    2.15
  -4   7   6    0.35    1.60
   4  -7  -5   21.55    5.47
  -4   7   5   18.62    6.46
  -4   7   5   21.02    4.88
   4  -7  -4    6.87    3.37
  -4   7   4    5.63    3.91
  -4   7   4    4.23    2.79
   4  -7  -3    0.92    1.93
  -4   7   3   -1.09    2.13
  -4   7   3    0.47    1.55
   4  -7  -2  127.36   15.57
  -4   7   2  104.57   15.76
  -4   7   2  111.85   13.34
   4  -7  -1   15.01    4.95
  -4   7   1   11.23    4.82
   4  -7   0   73.32   10.68
  -4   7   0   61.45   10.12
  -4   7   0   56.37   12.70
   4  -7   1   32.95    6.38
  -4   7  -1   19.24    3.78
  -4   7  -1   27.96    4.76
   4  -7   2   13.66    4.63
  -4   7  -2    7.81    2.47
  -4   7  -2   17.47    3.44
   4  -7   3    7.93    5.87
  -4   7  -3    4.51    1.83
  -4   7  -3    7.80    2.55
   4  -7   4    1.95    1.45
   4  -7   4    4.85    4.38
  -4   7  -4    2.55    1.42
  -4   7  -4    7.41    3.15
   4  -7   5    6.21    3.33
  -4   7  -5    7.04    3.81
   4  -7   6    2.10    2.36
  -4   7  -6    2.40    1.94
  -4   7  -6    1.12    1.64
   4  -7   7    2.29    2.25
  -4   7  -7    2.88    1.98
  -4   7  -7    0.10    1.56
   4  -7   8   -1.39    3.31
   4  -7   8   -0.35    3.01
  -4   7  -8    1.26    1.86
  -4   7  -8    1.63    2.33
   4  -7   9    0.89    1.90
  -4   7  -9    1.24    2.14
  -4   7  -9    1.54    1.60
   4  -7  10    0.18    2.08
  -4   7 -10   -0.45    3.66
  -4   7 -10    4.47    1.81
   4  -7  11   -0.39    2.61
  -4   7 -11   -0.87    1.53
  -4   7 -11   -1.19    1.38
   4  -7  12   -1.07    0.89
  -4   7 -12    1.23    1.14
  -4   7 -12    1.00    1.88
  -4   7 -13   -1.49    1.49
  -4   7 -13   -1.25    1.42
  -4   7 -14   -0.94    1.86
  -4   7 -14    1.06    1.04
  -4   7 -15   12.37    2.77
  -4   6  13   18.92    5.26
  -4   6  12    0.11    0.65
  -4   6  12    0.68    2.05
  -4   6  11    0.64    0.92
  -4   6  11   -0.17    1.51
  -4   6  10    1.60    2.32
  -4   6  10    1.74    2.01
  -4   6   9    0.32    1.14
  -4   6   9   -0.25    1.56
  -4   6   8    1.58    1.66
  -4   6   8    1.76    2.09
   4  -6  -7   11.16    3.90
  -4   6   7   14.11    3.28
  -4   6   7   12.72    4.02
   4  -6  -6    8.17    3.51
  -4   6   6    8.95    2.79
  -4   6   6    7.82    5.44
   4  -6  -5    0.43    1.96
  -4   6   5    1.53    1.53
  -4   6   5   -1.19    2.73
   4  -6  -4   25.11    5.39
  -4   6   4   20.63    4.16
  -4   6   4   19.98    4.79
   4  -6  -3    1.16    1.79
  -4   6   3   -0.70    1.33
  -4   6   3    0.90    1.49
   4  -6  -2  173.30   18.46
  -4   6   2  137.71   13.67
  -4   6   2  150.17   14.99
   4  -6  -1    0.75    1.53
   4  -6  -1    0.10    2.33
  -4   6   1    1.99    1.52
   4  -6   0  112.43   12.53
   4  -6   0  182.35   18.39
  -4   6   0  139.18   12.70
  -4   6   0  174.52   18.85
   4  -6   1    1.34    1.21
   4  -6   1    0.03    1.87
  -4   6  -1   -0.61    1.06
   4  -6   2   14.42    4.60
   4  -6   2   28.69    5.66
  -4   6  -2   17.96    4.58
  -4   6  -2   23.53    3.69
   4  -6   3   -0.02    1.05
   4  -6   3    2.03    3.26
  -4   6  -3   -0.08    0.95
  -4   6  -3    2.00    1.35
   4  -6   4    9.31    2.22
   4  -6   4   14.77    3.74
  -4   6  -4    6.61    1.83
  -4   6  -4   14.90    4.04
   4  -6   5    8.05    2.31
   4  -6   5    9.09    3.89
  -4   6  -5   12.93    2.48
   4  -6   6    0.80    1.16
   4  -6   6    0.35    1.86
  -4   6  -6    0.09    1.19
   4  -6   7    0.59    1.60
  -4   6  -7   -0.34    1.04
  -4   6  -8    2.95    2.50
  -4   6  -8    0.80    2.64
  -4   6  -9   -1.79    1.99
  -4   6  -9    0.29    1.24
   4  -6  10    1.47    1.96
  -4   6 -10    0.37    2.51
  -4   6 -10    1.74    1.49
   4  -6  11   -4.85    3.95
  -4   6 -11  -10.24    4.82
  -4   6 -11   -0.77    2.98
   4  -6  12    0.18    1.16
  -4   6 -12   -1.18    1.58
  -4   6 -12   -0.60    1.31
   4  -6  13    1.14    0.90
  -4   6 -13   -0.78    1.33
  -4   6 -13   -0.69    1.04
  -4   6 -14    0.31    1.50
  -4   6 -14    1.37    1.73
  -4   6 -15    1.40    2.33
  -4   5  14    8.85    2.54
  -4   5  13    0.53    0.74
  -4   5  13    1.16    1.42
  -4   5  12    2.30    2.37
  -4   5  12    4.85    2.31
  -4   5  11    0.54    1.08
  -4   5  11   -0.04    1.56
  -4   5  10    1.45    1.62
  -4   5  10    2.48    2.11
  -4   5   9    2.17    1.98
  -4   5   9    5.66    2.47
  -4   5   8    1.93    1.66
  -4   5   8    0.98    2.01
   4  -5  -7    1.64    1.77
  -4   5   7    0.30    1.50
  -4   5   7    1.28    1.77
   4  -5  -6    4.67    2.36
   4  -5  -6    3.77    2.39
  -4   5   6    2.86    3.30
  -4   5   6    2.58    2.27
   4  -5  -5    2.30    2.26
   4  -5  -5    3.92    2.44
  -4   5   5    3.18    3.15
  -4   5   5    3.30    2.14
   4  -5  -4   13.79    4.01
   4  -5  -4   19.88    4.37
  -4   5   4   16.35    5.50
  -4   5   4   18.87    6.27
   4  -5  -3    2.35    1.75
   4  -5  -3    0.90    1.94
  -4   5   3    0.29    2.34
  -4   5   3    0.08    2.41
   4  -5  -2    3.65    3.32
   4  -5  -2    4.43    2.30
  -4   5   2    2.53    1.66
  -4   5   2    0.89    1.68
   4  -5  -1   12.32    4.56
   4  -5  -1   18.37    3.86
  -4   5   1    9.96    2.60
  -4   5   1    9.26    2.76
   4  -5   0   18.70    3.48
   4  -5   0   24.53    4.72
  -4   5   0   14.81    2.86
  -4   5   0   14.17    3.16
   4  -5   1   11.40    2.85
   4  -5   1   14.76    3.78
  -4   5  -1    7.26    2.12
  -4   5  -1    9.91    3.69
   4  -5   2    2.16    1.82
   4  -5   2    5.87    3.97
  -4   5  -2    1.46    1.25
  -4   5  -2    2.81    1.46
   4  -5   3   11.71    4.45
   4  -5   3   11.64    3.41
  -4   5  -3    4.94    2.81
  -4   5  -3    9.05    2.16
   4  -5   4    0.53    1.24
   4  -5   4    1.29    1.92
  -4   5  -4    1.46    1.93
   4  -5   5   14.42    2.82
   4  -5   5   14.90    4.14
  -4   5  -5   12.42    2.44
   4  -5   6   12.11    2.90
   4  -5   6   16.26    4.27
  -4   5  -6   13.72    2.51
   4  -5   7   21.37    3.67
   4  -5   7   34.25    8.59
  -4   5  -7   20.03    4.86
   4  -5   8   -5.98    2.18
  -4   5  -8    0.66    1.35
  -4   5  -9   54.45    8.78
  -4   5  -9   42.15    5.14
  -4   5 -10    7.37    4.05
   4  -5  11    0.57    2.31
  -4   5 -11    0.72    2.33
   4  -5  12    7.91    2.31
  -4   5 -12    0.04    5.80
   4  -5  13    0.84    1.15
  -4   5 -13   -0.02    1.68
   4  -5  14    0.37    1.41
  -4   5 -14    1.36    1.65
  -4   5 -15    1.10    1.58
  -4   5 -16    0.99    2.71
  -4   4  15    0.76    1.30
  -4   4  14    0.62    1.38
   4  -4 -13    0.29    2.21
  -4   4  13    0.17    0.93
  -4   4  13    1.56    1.45
   4  -4 -12    2.16    2.16
  -4   4  12   -0.39    0.85
  -4   4  12    0.20    1.18
   4  -4 -11   17.70    6.50
  -4   4  11   10.50    2.72
  -4   4  11   12.87    3.61
   4  -4 -10   24.57    5.35
  -4   4  10   16.53    5.61
  -4   4  10   14.90    4.48
   4  -4  -9    0.66    2.36
  -4   4   9    1.68    3.30
  -4   4   9    2.00    1.90
   4  -4  -8   -0.63    1.59
  -4   4   8   -0.24    1.40
  -4   4   8    0.89    1.30
   4  -4  -7    0.02    2.98
  -4   4   7    0.63    1.58
  -4   4   7    0.35    1.42
   4  -4  -6    9.73    5.23
   4  -4  -6    6.05    2.66
  -4   4   6    7.86    2.85
  -4   4   6    5.62    2.50
   4  -4  -5   12.86    5.23
   4  -4  -5    7.88    3.00
  -4   4   5    9.59    3.16
  -4   4   5    9.34    2.70
   4  -4  -4    1.92    1.94
   4  -4  -4    2.63    1.80
  -4   4   4   -0.11    1.73
  -4   4   4    1.81    1.48
   4  -4  -3   21.40    4.28
   4  -4  -3   20.33    4.07
  -4   4   3   19.00    3.81
  -4   4   3   14.46    4.62
   4  -4  -2    0.00    1.47
   4  -4  -2   -0.21    1.44
  -4   4   2    0.31    1.25
  -4   4   2    0.65    0.99
   4  -4  -1    1.30    1.58
   4  -4  -1    0.89    1.63
  -4   4   1    1.84    1.32
  -4   4   1   -0.60    1.05
   4  -4   0   12.07    4.81
   4  -4   0   10.31    4.99
  -4   4   0    5.90    3.76
  -4   4   0    7.29    2.98
   4  -4   1    3.04    1.55
   4  -4   1   -0.25    2.87
  -4   4  -1    0.93    1.69
  -4   4  -1    0.81    1.04
   4  -4   2    7.45    2.23
   4  -4   2    7.04    2.56
  -4   4  -2    3.40    1.38
  -4   4  -2    5.30    1.46
   4  -4   3    4.83    2.09
   4  -4   3    6.77    2.33
  -4   4  -3    2.39    1.16
  -4   4  -3    2.32    2.07
  -4   4  -3    3.80    1.57
   4  -4   4    1.35    2.89
   4  -4   5    0.69    1.47
   4  -4   5    3.81    2.11
   4  -4   6    0.71    1.32
   4  -4   6   -7.95    2.92
   4  -4   7  104.36    9.71
   4  -4   7   94.96   11.67
   4  -4   9   23.31    5.11
  -4   4  -9   25.59    6.03
   4  -4  10    4.50    3.69
  -4   4 -10    0.82    2.72
   4  -4  11    2.19    1.87
  -4   4 -11    3.00    2.94
   4  -4  12    0.13    1.31
  -4   4 -12   -3.54    3.33
   4  -4  13    0.69    1.33
  -4   4 -13    1.32    1.84
   4  -4  14   -0.08    0.93
  -4   4 -14   -2.22    1.65
   4  -4  15    0.54    0.72
  -4   4 -15    0.72    1.48
  -4   4 -16   -7.45    4.73
  -4   3  16    1.28    1.15
   4  -3 -15    4.21    2.69
  -4   3  15    0.53    1.43
   4  -3 -14    0.71    1.61
  -4   3  14    0.19    0.83
  -4   3  14    0.87    1.31
   4  -3 -13    0.60    1.92
  -4   3  13    0.66    1.08
  -4   3  13    0.65    2.45
   4  -3 -12   -0.17    2.05
  -4   3  12   -1.04    2.55
   4  -3 -11   -0.95    2.39
  -4   3  11   -1.19    2.91
   4  -3 -10   21.36    5.51
  -4   3  10   11.17    6.33
   4  -3  -9   -0.01    2.10
  -4   3   9    1.42    1.69
  -4   3   9   -0.26    2.48
   4  -3  -8    5.64    2.72
  -4   3   8    1.67    2.22
  -4   3   8    1.71    3.09
   4  -3  -7    0.46    2.21
  -4   3   7    2.14    1.80
  -4   3   7    0.93    1.49
   4  -3  -6   13.76    3.65
  -4   3   6    8.88    2.97
  -4   3   6    6.04    2.40
   4  -3  -5    8.28    2.86
   4  -3  -5    4.68    2.05
  -4   3   5    3.84    2.30
  -4   3   5    3.36    1.82
   4  -3  -4    2.91    3.13
   4  -3  -4    1.26    2.31
  -4   3   4    1.46    1.49
  -4   3   4    0.21    1.15
   4  -3  -3   20.69    3.99
   4  -3  -3   14.69    5.15
  -4   3   3   13.73    3.17
  -4   3   3   11.31    3.86
   4  -3  -2   36.20    6.09
   4  -3  -2   40.10    8.07
  -4   3   2   36.60    5.01
  -4   3   2   39.88    4.59
   4  -3  -1  114.26   11.73
   4  -3  -1  103.16   13.77
  -4   3   1   91.44    9.43
   4  -3   0   66.43    7.38
   4  -3   0   44.03    6.19
  -4   3   0   35.30    4.86
   4  -3   1   69.96    9.11
  -4   3  -1   37.82    4.69
   4  -3   2    1.94    1.75
  -4   3  -2    1.58    1.91
   4  -3   3    1.18    1.36
   4  -3   3   -0.69    1.47
   4  -3   4    0.69    1.56
   4  -3   4    0.83    1.72
   4  -3   5    8.67    3.76
   4  -3   5   10.10    4.82
   4  -3   6   76.16    7.55
   4  -3   6   71.91    9.06
   4  -3   7   38.29    5.14
   4  -3   7   35.62    6.33
   4  -3   8   12.95    4.18
   4  -3   9    3.89    4.43
   4  -3  10    0.97    1.61
  -4   3 -10    0.80    2.18
   4  -3  11    1.86    1.75
  -4   3 -11    0.83    2.44
   4  -3  12    1.87    1.76
  -4   3 -12    2.90    4.09
   4  -3  13    0.21    2.13
  -4   3 -13    2.61    1.99
   4  -3  14   -0.51    0.99
  -4   3 -14   -0.61    1.59
   4  -3  15   -0.10    0.82
  -4   3 -15    2.91    1.48
  -4   3 -16   -1.15    2.83
   4  -2 -16    2.27    1.52
  -4   2  16   -0.06    1.04
   4  -2 -15    6.28    2.67
  -4   2  15    2.58    1.81
   4  -2 -14    1.85    2.12
  -4   2  14    0.02    1.69
  -4   2  14    1.90    2.39
   4  -2 -13    8.05    4.94
  -4   2  13   20.83    5.72
   4  -2 -12    8.07    3.45
  -4   2  12    3.80    2.40
  -4   2  12    3.31    3.78
   4  -2 -11   -0.80    1.92
  -4   2  11    0.64    1.39
  -4   2  11   -0.60    1.26
   4  -2 -10   41.20    6.44
  -4   2  10   22.63    4.90
  -4   2  10   13.44    4.06
   4  -2  -9   23.60    5.47
  -4   2   9    8.16    5.50
   4  -2  -8   -0.09    1.96
  -4   2   8   -0.57    1.96
   4  -2  -7    2.85    2.75
   4  -2  -6   -0.88    2.06
   4  -2  -6    1.92    1.94
   4  -2  -5   13.62    4.58
   4  -2  -5   17.64    4.52
   4  -2  -4    7.52    3.32
   4  -2  -4   11.36    3.32
   4  -2  -4    5.59    1.97
   4  -2  -3    1.62    2.12
   4  -2  -3    3.89    3.46
   4  -2  -3    2.49    1.42
  -4   2   3    2.14    1.29
   4  -2  -2    1.86    1.48
   4  -2  -2   -0.33    1.62
   4  -2  -2    0.03    1.12
  -4   2   2    0.45    1.00
   4  -2  -1   63.71    7.92
   4  -2   0   37.20    5.70
   4  -2   0   21.78    4.12
   4  -2   1  178.22   20.06
   4  -2   1  127.35   12.55
  -4   2  -1  118.99   12.41
   4  -2   2    7.07    2.15
  -4   2  -2    2.84    1.32
   4  -2   3   16.57    3.46
   4  -2   3   15.59    5.28
   4  -2   4   27.86    4.43
   4  -2   4   22.79    4.33
   4  -2   5   21.60    5.14
   4  -2   5   20.27    4.27
   4  -2   6    0.62    1.40
   4  -2   6    2.21    1.84
   4  -2   7   20.06    3.50
   4  -2   7   22.17    4.60
   4  -2   8    1.74    3.08
   4  -2   9   26.99    4.96
   4  -2  10   -0.07    1.41
  -4   2 -10   -0.45    1.70
   4  -2  11   -0.42    1.55
  -4   2 -11    1.79    1.86
   4  -2  12    3.14    2.89
  -4   2 -12   -0.43    3.54
   4  -2  13    1.33    1.55
  -4   2 -13    4.88    2.13
   4  -2  14    0.31    0.93
  -4   2 -14    0.12    1.32
   4  -2  15    1.27    1.49
  -4   2 -15    0.43    2.18
  -4   2 -16    1.17    1.34
   4  -1 -17    1.36    1.73
   4  -1 -16    3.46    2.17
  -4   1  16    1.46    1.19
   4  -1 -15   -1.14    2.06
  -4   1  15    1.05    1.40
  -4   1  15    1.64    1.96
  -4   1  14    0.75    1.35
  -4   1  14    0.92    2.20
   4  -1 -13   16.52    5.85
   4  -1 -12    0.39    2.24
   4  -1 -11    3.13    3.30
   4  -1 -10    0.77    3.21
   4  -1 -10    5.14    3.10
   4  -1  -9   36.00    8.75
   4  -1  -9   42.14    8.23
   4  -1  -8   90.42   13.62
   4  -1  -8  101.18   13.28
   4  -1  -7   50.77    9.17
   4  -1  -7   58.15    9.05
   4  -1  -6  217.01   23.64
   4  -1  -6  240.45   24.48
   4  -1  -5   56.00    9.15
   4  -1  -5   76.38    9.52
   4  -1  -4    1.13    2.40
   4  -1  -4    5.31    2.48
   4  -1  -3   12.53    3.58
   4  -1  -3   25.19    6.38
   4  -1  -3   14.04    3.69
  -4   1   3   11.62    2.06
   4  -1  -2    3.30    1.88
   4  -1  -2    2.53    2.09
   4  -1  -2    1.13    2.21
   4  -1  -2    0.42    2.00
  -4   1   2    2.16    1.94
   4  -1  -1   24.48    4.49
   4  -1  -1   35.43    4.95
   4  -1  -1   20.70    5.07
  -4   1   1   25.75    3.58
   4  -1   0   19.83    4.16
   4  -1   0   39.26    5.07
   4  -1   0   25.00    3.60
   4  -1   1    4.30    2.16
   4  -1   1    8.40    4.77
   4  -1   1    9.76    2.16
   4  -1   2   67.16    7.36
   4  -1   2   58.96    6.76
   4  -1   3   66.90    7.42
   4  -1   3   55.69    6.76
   4  -1   4    0.37    1.46
   4  -1   4    1.00    1.50
   4  -1   5   15.37    4.42
   4  -1   5   16.85    3.77
   4  -1   6    0.24    1.25
   4  -1   6    2.36    2.31
   4  -1   7    5.49    2.01
   4  -1   7    3.78    2.37
   4  -1   8   30.81    5.39
   4  -1   9    4.03    2.53
  -4   1  -9    5.73    2.68
   4  -1  10   21.07    4.32
  -4   1 -10   18.82    4.58
   4  -1  11   -0.04    2.42
  -4   1 -11    1.74    1.89
   4  -1  12    2.89    1.77
  -4   1 -12    2.10    3.44
   4  -1  13    0.84    1.35
  -4   1 -13    1.51    1.56
   4  -1  14    1.24    1.10
  -4   1 -14   -0.06    1.37
   4  -1  15   -0.69    0.86
  -4   1 -15    0.63    2.05
   4   0 -17    0.24    1.54
   4   0 -16    0.00    1.43
   4   0 -15    0.94    2.06
  -4   0  15    0.43    1.10
   4   0 -14   -0.47    2.53
  -4   0  14    1.85    1.53
   4   0 -12   -1.23    2.63
   4   0 -12   -2.93    4.62
   4   0 -11   11.59    5.18
   4   0 -11   27.78    9.12
   4   0 -10   62.89   12.35
   4   0 -10   82.52   17.72
   4   0  -9   31.92    9.96
   4   0  -9   58.98    9.45
   4   0  -8    3.62    2.92
   4   0  -8    0.73    2.84
   4   0  -7    3.18    2.68
   4   0  -7    1.36    2.70
   4   0  -6    9.16    4.15
   4   0  -6   -0.39    2.44
   4   0  -5   50.05   12.91
   4   0  -5   65.22    8.65
   4   0  -4   13.86    7.47
   4   0  -4   18.54    4.36
   4   0  -3    5.97    5.01
   4   0  -3    6.74    4.79
   4   0  -2    7.42    4.98
   4   0  -2   18.13    3.26
   4   0  -2    8.68    1.96
  -4   0   2   10.24    2.11
   4   0  -1    3.46    3.35
   4   0  -1    6.21    2.33
   4   0  -1    2.92    1.51
  -4   0   1    4.20    1.58
   4   0   0    9.82    2.86
   4   0   0   16.78    3.33
   4   0   0   10.50    2.39
  -4   0   0   10.24    3.92
   4   0   1    8.92    2.91
   4   0   1   18.73    5.08
   4   0   1   20.16    2.97
  -4   0  -1   19.74    5.46
   4   0   2    5.38    2.13
   4   0   2    4.89    3.32
   4   0   3    0.96    1.43
   4   0   3    0.95    1.98
   4   0   4    0.14    2.43
   4   0   4   -1.01    1.27
   4   0   5   16.05    3.07
   4   0   5   24.06    3.54
   4   0   6    0.58    1.18
   4   0   6    0.68    1.45
   4   0   7    7.51    2.34
   4   0   7   12.71    3.02
   4   0   8  142.62   15.11
   4   0   9   -0.48    3.11
  -4   0  -9    1.72    1.76
   4   0  10  105.50    9.95
  -4   0 -10   69.82    9.61
   4   0  11   -0.63    1.18
  -4   0 -11    1.33    1.93
   4   0  12    4.09    1.88
  -4   0 -12    2.79    1.83
   4   0  13    0.82    1.27
  -4   0 -13    0.93    1.24
   4   0  14    2.03    1.47
  -4   0 -14   -2.30    1.64
   4   0  15    4.22    1.34
   4   1 -17   -0.13    1.49
   4   1 -16    0.05    1.85
  -4  -1  16    0.45    0.83
   4   1 -15    2.13    2.29
  -4  -1  15    0.57    1.27
   4   1 -14    2.24    2.89
   4   1 -13    3.19    2.91
   4   1 -12   20.42    6.36
   4   1 -12   28.69   10.37
   4   1 -11    0.03    1.92
   4   1 -11    0.31    3.39
   4   1 -10  161.16   22.17
   4   1 -10  188.33   31.48
   4   1  -9  519.81   73.32
   4   1  -9  562.03   61.27
   4   1  -8    6.02    6.92
   4   1  -8    6.06    3.70
   4   1  -7   24.53    7.00
   4   1  -7   28.39    6.07
   4   1  -6   56.56   10.28
   4   1  -6   63.47    8.91
   4   1  -5    4.45    3.39
   4   1  -5    6.45    3.02
   4   1  -4    0.63    2.01
   4   1  -4    0.76    1.82
   4   1  -3   -1.56    1.99
   4   1  -3    0.02    2.71
   4   1  -2    2.03    2.00
   4   1  -2    1.04    1.75
   4   1  -1    2.18    2.03
   4   1  -1    3.63    1.89
   4   1  -1    1.65    1.03
  -4  -1   1    1.75    2.14
   4   1   0    3.45    2.18
   4   1   0    4.94    2.16
   4   1   0    3.26    1.32
  -4  -1   0    3.01    1.30
  -4  -1   0    5.04    1.92
   4   1   1    1.82    2.72
   4   1   1    3.96    1.75
   4   1   1    2.78    1.37
   4   1   2    2.66    1.54
   4   1   2    1.32    1.32
   4   1   3    0.57    1.42
   4   1   3    1.63    1.28
   4   1   4    2.58    2.24
   4   1   4    2.97    1.70
   4   1   5    2.96    1.51
   4   1   5    4.46    1.94
   4   1   6    0.70    1.18
   4   1   6    1.93    1.62
   4   1   7   43.57    9.84
   4   1   8  134.87   11.85
  -4  -1  -8   89.36   10.23
   4   1   9   56.74    6.24
  -4  -1  -9   28.28    5.12
   4   1  10    0.67    1.66
  -4  -1 -10    2.39    2.30
   4   1  11    0.44    1.45
   4   1  11    1.15    2.24
   4   1  12    3.39    2.56
   4   1  12   -0.45    2.39
   4   1  13    5.64    1.78
   4   1  13   -0.28    2.50
   4   1  14   -0.85    1.06
   4   2 -17    1.74    2.00
   4   2 -16    5.73    2.19
  -4  -2  16    0.53    1.05
   4   2 -15    0.73    2.11
   4   2 -14   -1.40    1.66
   4   2 -14    1.61    1.91
   4   2 -13    7.94    3.90
   4   2 -12   15.03    5.72
   4   2 -12   19.60    5.84
   4   2 -11   56.30   17.03
   4   2 -11   62.43   11.35
   4   2 -10   -1.06    5.01
   4   2 -10    2.13    2.74
   4   2  -9   99.39   17.31
   4   2  -9  103.34   14.34
   4   2  -8    9.17    4.81
   4   2  -8    8.85    4.04
   4   2  -7   22.30    6.63
   4   2  -7   21.42    5.48
   4   2  -6   56.38   10.34
   4   2  -6   53.65    8.49
   4   2  -5   25.73    6.11
   4   2  -5   20.91    5.10
   4   2  -4    8.31    4.04
   4   2  -4   10.17    5.33
   4   2  -3   22.37    5.47
   4   2  -3   22.68    4.40
   4   2  -2   52.55    8.52
   4   2  -2   63.62    7.69
   4   2  -1    1.25    1.95
   4   2  -1    1.44    1.67
   4   2   0    2.10    2.04
   4   2   0    2.78    2.52
   4   2   0    2.18    1.97
   4   2   1   23.13    3.73
   4   2   1   26.23    4.94
   4   2   2    0.83    1.24
   4   2   2    0.53    1.89
   4   2   3    0.95    1.57
   4   2   3    0.58    1.73
   4   2   4    0.65    0.92
   4   2   4   -0.44    1.73
   4   2   5    0.27    1.22
   4   2   5    0.69    1.27
   4   2   6    0.24    1.33
   4   2   6    1.00    1.40
   4   2   7    2.55    1.72
   4   2   7    0.82    1.76
   4   2   8    2.79    1.86
   4   2   8    0.57    3.01
   4   2   9   -0.61    1.21
   4   2   9    2.18    1.91
   4   2  10    1.96    2.87
   4   2  10    1.72    2.81
   4   2  11   -0.50    1.74
   4   2  11    0.21    0.98
   4   2  12   -0.52    1.00
   4   2  12    0.62    0.91
   4   2  13    0.84    1.19
   4   2  13    1.13    1.02
   4   2  14    0.52    0.92
   4   3 -16    3.54    1.88
  -4  -3  16    0.65    1.00
   4   3 -15    2.75    2.07
   4   3 -15    1.06    2.33
   4   3 -14    5.26    3.49
   4   3 -14   10.90    3.65
   4   3 -13    4.02    2.85
   4   3 -13    1.30    2.79
   4   3 -12   18.33   10.50
   4   3 -12   24.52    6.28
   4   3 -11   11.50    9.32
   4   3 -11   11.24    4.68
   4   3 -10   -0.65    2.45
   4   3 -10    1.09    1.94
   4   3  -9    1.44    3.54
   4   3  -9    3.44    2.71
   4   3  -8   11.78    5.49
   4   3  -8   10.75    4.13
   4   3  -7    6.64    3.88
   4   3  -7    3.54    2.97
   4   3  -6    3.11    3.10
   4   3  -6    1.84    2.32
   4   3  -5    7.51    4.04
   4   3  -5    6.05    4.42
   4   3  -4    1.08    1.80
   4   3  -4   -0.63    1.25
   4   3  -3    1.69    1.68
   4   3  -3   -0.64    1.20
   4   3  -2   17.65    4.34
   4   3  -2   11.32    3.22
   4   3  -1    3.76    2.07
   4   3  -1   -3.72    1.49
   4   3   0   51.69    7.95
   4   3   0   62.36    6.40
   4   3   1    0.78    0.87
   4   3   1   -0.21    1.21
   4   3   2   31.83    3.80
   4   3   2   26.00    6.71
   4   3   3   12.96    2.56
   4   3   3    8.62    4.78
   4   3   4   89.07    8.22
   4   3   4   58.31    8.55
   4   3   5   44.17    4.97
   4   3   5   17.46    5.11
   4   3   6   31.05    4.14
   4   3   6    8.53    4.03
   4   3   7   15.67    3.06
   4   3   7    5.94    3.19
   4   3   8    4.38    3.01
   4   3   8    1.64    1.95
   4   3   9    0.50    1.93
   4   3   9   -0.06    1.19
   4   3  10   -0.73    1.17
   4   3  10    0.47    1.19
   4   3  11   19.24    2.67
   4   3  11    0.84    2.41
   4   3  12   -0.39    0.96
   4   3  12    0.66    0.87
   4   4 -16   -2.50    1.82
   4   4 -15    1.41    1.86
   4   4 -15    2.54    1.92
   4   4 -14    0.14    1.77
   4   4 -14    0.59    1.59
   4   4 -13    3.26    4.24
   4   4 -13    1.94    2.29
   4   4 -12    2.53    4.51
   4   4 -12    0.71    2.04
   4   4 -11   -4.29    2.73
   4   4 -11    1.57    1.95
   4   4 -10    1.78    3.00
   4   4 -10    1.21    2.16
   4   4  -9   14.74    5.26
   4   4  -9    6.91    3.62
   4   4  -8   -1.11    2.28
   4   4  -8    0.90    1.59
   4   4  -7   10.70    5.17
   4   4  -6    4.88    3.92
   4   4  -5   51.16   12.75
   4   4  -5   35.59    4.86
   4   4  -4    9.78    3.50
   4   4  -4   -0.78    1.32
   4   4  -3    3.59    5.76
   4   4  -3    6.48    2.25
   4   4  -2    6.07    6.01
   4   4  -2    8.84    4.01
   4   4  -1    7.13    4.23
   4   4  -1    2.01    1.90
   4   4   0    7.29    2.54
   4   4   1    0.95    1.52
   4   4   2   10.32    3.61
   4   4   2   13.62    3.26
   4   4   3    1.85    2.20
   4   4   3    1.77    3.00
   4   4   4    7.12    3.19
   4   4   4    3.40    4.27
   4   4   5    0.53    1.25
   4   4   5    1.10    1.62
   4   4   6   -0.45    0.99
   4   4   6    0.60    1.23
   4   4   7   -0.65    1.35
   4   4   7    2.86    1.57
   4   4   8    1.40    1.36
   4   4   8    0.42    1.57
   4   4   9    6.05    1.90
   4   4   9    1.54    2.05
   4   4  10    0.10    0.88
   4   4  10   -0.14    0.92
   4   4  11   -1.53    2.10
   4   5 -15   -0.72    1.43
   4   5 -14    0.63    1.44
   4   5 -14   -0.49    1.50
   4   5 -13    6.15    4.00
   4   5 -13   -0.29    2.74
   4   5 -12    2.10    2.64
  -4  -5  12    1.09    1.30
   4   5 -11    0.89    2.25
  -4  -5  11    0.11    1.14
   4   5 -10   -3.04    3.99
  -4  -5  10   10.66    3.47
   4   5  -9   11.60    4.99
  -4  -5   9    8.43    2.60
   4   5  -8   74.61   11.28
  -4  -5   8   46.87    6.05
   4   5  -7    1.37    3.38
  -4  -5   7    3.00    1.92
   4   5  -6   -2.95    5.74
   4   5  -5    5.18    6.48
   4   5  -5    5.89    2.35
   4   5  -4    3.89    4.16
   4   5  -4    0.75    1.64
   4   5  -3   -0.13    4.69
   4   5  -3    2.76    1.90
   4   5  -2    2.59    3.60
   4   5  -2   -0.01    2.61
   4   5  -1   11.85    6.69
   4   5  -1   10.74    5.22
   4   5   0   21.49    4.53
   4   5   1   23.08    4.66
   4   5   2    7.11    2.82
   4   5   3    2.65    1.40
   4   5   3    2.57    2.04
   4   5   4    1.57    1.25
   4   5   4    1.10    1.80
   4   5   5   -1.01    1.31
   4   5   5   -3.86    2.89
   4   5   6    0.01    0.97
   4   5   6    0.92    2.05
   4   5   7    0.43    1.12
   4   5   7    1.32    2.26
   4   5   8   -0.40    2.03
   4   5   9    0.04    1.51
   4   5  10   -0.99    1.22
  -4  -5 -10   -3.25    1.65
   4   6 -14   -1.45    1.71
   4   6 -13    0.92    3.01
   4   6 -12   -0.51    2.07
  -4  -6  12    0.74    1.02
   4   6 -11    1.88    2.14
  -4  -6  11   -0.09    1.08
   4   6 -10   -0.96    2.45
  -4  -6  10   -0.45    2.10
   4   6  -9    2.09    3.53
  -4  -6   9    3.88    1.88
   4   6  -8   25.63    5.86
  -4  -6   8   11.18    3.20
   4   6  -7   12.66    5.49
  -4  -6   7   12.67    3.15
   4   6  -6   12.59    8.89
   4   6  -5    1.88    4.58
   4   6  -5    1.49    1.75
   4   6  -4    4.48    5.35
   4   6  -4    3.52    2.16
   4   6  -3   -0.44    3.99
   4   6  -3    1.43    1.73
   4   6  -2    4.04    4.29
   4   6  -2    2.09    2.01
   4   6  -1   -3.84    3.72
   4   6   0   12.34    5.40
   4   6   1    7.46    2.81
   4   6   2    6.26    2.61
   4   6   3    2.13    1.92
   4   6   4    1.53    1.73
   4   6   5   -0.14    1.09
  -4  -6  -5    0.08    1.03
   4   6   6   -0.61    1.48
  -4  -6  -6    2.90    1.49
   4   6   7    0.77    1.16
  -4  -6  -7    0.29    1.21
   4   6   8   -0.22    0.83
  -4  -6  -8    0.28    0.93
   4   7 -12  -11.36    6.50
   4   7 -11    8.19    3.21
  -4  -7  11    4.05    1.63
   4   7 -10    5.44    3.13
  -4  -7  10    3.24    1.66
   4   7  -9    1.13    2.29
  -4  -7   9    0.31    2.01
   4   7  -8    2.67    2.63
  -4  -7   8    1.08    1.44
   4   7  -7    1.45    2.40
  -4  -7   7    0.67    1.38
   4   7  -6   -0.53    2.10
  -4  -7   6    0.65    1.27
   4   7  -5    2.58    4.71
   4   7  -4    2.55    3.49
   4   7  -4    0.52    1.52
   4   7  -3    0.24    2.27
   4   7  -3    2.15    1.72
   4   7  -2    0.42    1.60
   4   7  -2   -0.60    1.31
   4   7  -1    1.49    1.72
   4   7   0    0.20    1.25
   4   7   1    9.79    4.62
   4   7   2    1.96    2.85
   4   7   3    1.25    2.52
   4   7   4   -0.63    1.25
   4   7   5    0.52    1.21
   4   7   6    5.72    1.94
   4   8 -10    3.99    2.61
   4   8  -9   -5.44    3.06
   4   8  -8   -2.25    2.53
   4   8  -7   -1.21    1.99
  -4  -8   7    1.53    1.17
   4   8  -6   -1.01    1.48
  -4  -8   6    0.40    0.92
   4   8  -5    0.51    1.92
  -4  -8   5    1.15    1.30
   4   8  -4   -0.65    1.71
   4   8  -3    0.82    1.54
   4   8  -2    0.16    1.13
   4   8  -1    1.87    1.58
   4   8   0   -1.01    1.39
   4   8   1    9.54    2.73
   4   8   2   -0.26    1.08
   5 -10  -2    6.91    2.44
  -5  10   2    7.75    1.96
  -5  10   2    2.37    2.92
   5 -10  -1   -0.70    1.50
  -5  10   1   -0.71    1.12
  -5  10   1   -0.03    1.66
   5 -10   0   18.20    3.51
  -5  10   0    8.29    2.38
   5 -10   1    1.38    1.58
  -5  10  -1   -1.46    0.97
  -5  10  -1    0.16    1.00
  -5  10  -2    0.76    0.73
  -5  10  -2   -0.84    0.79
  -5  10  -3    0.86    1.26
  -5  10  -3   -0.95    0.94
   5 -10   4    3.07    1.94
  -5  10  -4   -3.09    1.19
   5 -10   5   -2.13    3.76
  -5  10  -5   10.26    2.83
   5 -10   6   -2.68    1.45
  -5  10  -6   -0.62    1.06
   5 -10   7   -0.07    0.92
  -5   9   6    1.54    1.85
  -5   9   6    0.20    0.94
   5  -9  -5    4.29    1.75
  -5   9   5    5.94    2.48
  -5   9   5    0.93    1.51
   5  -9  -4    0.19    1.15
  -5   9   4   -0.54    1.51
  -5   9   4    0.30    0.93
   5  -9  -3    0.11    1.51
  -5   9   3    1.06    1.84
  -5   9   3    0.64    1.17
   5  -9  -2    4.93    2.34
  -5   9   2    2.21    2.63
  -5   9   2    2.51    1.72
   5  -9  -1    3.15    2.13
  -5   9   1    3.18    2.33
  -5   9   1    0.55    1.53
   5  -9   0    1.74    2.25
  -5   9   0    1.57    2.59
  -5   9   0    1.92    2.53
   5  -9   1    2.74    2.34
  -5   9  -1    1.99    1.51
  -5   9  -1    0.97    2.46
   5  -9   2    6.65    2.72
  -5   9  -2    1.81    1.64
  -5   9  -2    4.17    1.71
   5  -9   3   -0.83    1.49
  -5   9  -3   -0.77    0.82
  -5   9  -3    1.32    0.92
   5  -9   4   -0.39    1.60
  -5   9  -4    0.31    0.96
   5  -9   5   44.92    4.86
  -5   9  -5    0.27    1.68
   5  -9   6    2.04    2.90
  -5   9  -6    1.09    2.01
   5  -9   7    1.34    1.53
  -5   9  -7    0.76    1.06
   5  -9   8    0.45    1.20
  -5   9  -8   -0.69    0.83
   5  -9   9   -0.95    1.28
  -5   8   8    0.06    0.90
  -5   8   8   -1.67    1.49
   5  -8  -7    2.76    1.20
  -5   8   7    1.73    1.36
  -5   8   7    1.90    2.18
   5  -8  -6   -0.02    1.10
  -5   8   6   -0.42    1.00
  -5   8   6    0.09    1.64
   5  -8  -5   -1.33    2.60
  -5   8   5    2.19    1.38
  -5   8   5   -0.22    2.18
   5  -8  -4    4.35    3.78
  -5   8   4    3.57    1.89
  -5   8   4    3.61    1.87
   5  -8  -3    5.22    3.90
  -5   8   3    3.65    1.82
  -5   8   3    2.31    1.84
   5  -8  -2    0.69    2.87
  -5   8   2    0.49    1.20
  -5   8   2    0.43    1.24
   5  -8  -1    2.42    2.27
  -5   8   1    1.74    1.43
  -5   8   1    1.10    1.57
   5  -8   0    3.49    2.83
  -5   8   0    3.68    1.68
  -5   8   0    2.37    1.86
   5  -8   1    5.22    2.81
  -5   8  -1    2.43    1.60
  -5   8  -1    2.42    3.00
   5  -8   2    7.47    3.13
  -5   8  -2    1.81    2.61
  -5   8  -2    4.38    3.06
   5  -8   3   -0.47    1.92
  -5   8  -3    0.45    1.79
  -5   8  -3   -0.67    1.15
   5  -8   4    5.87    3.03
  -5   8  -4    3.76    1.79
   5  -8   5    4.78    2.74
  -5   8  -5    2.72    1.61
   5  -8   6   -2.03    2.37
  -5   8  -6    0.65    1.49
   5  -8   7   -0.69    1.45
  -5   8  -7    0.43    1.73
  -5   8  -7    0.54    0.95
   5  -8   8   -0.81    1.51
  -5   8  -8    0.38    1.79
  -5   8  -8    0.82    0.92
   5  -8   9    1.64    1.43
  -5   8  -9    0.50    0.93
  -5   8  -9   -0.12    1.42
   5  -8  10   -0.94    1.95
  -5   8 -10   -1.40    1.00
   5  -8  11   -1.10    0.97
  -5   7  10    2.17    1.12
  -5   7  10    2.82    1.16
  -5   7   9    0.02    0.87
  -5   7   9   -0.49    0.93
  -5   7   8    1.04    1.10
  -5   7   8   -0.10    1.14
  -5   7   7    0.09    0.93
  -5   7   7   -0.13    0.95
   5  -7  -6    3.07    1.94
  -5   7   6    3.48    2.96
  -5   7   6    2.87    1.84
   5  -7  -5    2.03    3.35
  -5   7   5    3.76    2.86
  -5   7   5    1.79    2.99
   5  -7  -4    1.07    2.81
  -5   7   4   -0.81    2.28
  -5   7   4   -1.80    2.37
   5  -7  -3    5.43    3.37
  -5   7   3   -2.56    2.57
  -5   7   3    2.68    2.50
   5  -7  -2    2.02    3.28
  -5   7   2   -4.15    2.35
  -5   7   2    2.42    1.45
   5  -7  -1    0.80    2.29
  -5   7   1    1.60    2.39
   5  -7   0   54.47    8.16
  -5   7   0   36.58    5.12
  -5   7   0   36.91    5.40
   5  -7   1    6.49    3.52
  -5   7  -1    2.51    1.98
  -5   7  -1    8.89    2.44
   5  -7   2   22.67    3.74
  -5   7  -2   25.24    3.77
  -5   7  -2   36.78    6.54
   5  -7   3   -1.30    1.02
   5  -7   3    0.65    1.88
  -5   7  -3    0.80    1.11
   5  -7   4   -0.47    2.07
  -5   7  -4    0.71    1.15
   5  -7   5   16.76    5.01
   5  -7   6   -0.51    3.79
  -5   7  -6   -2.76    2.31
   5  -7   7    1.37    1.74
  -5   7  -7   -0.43    1.82
   5  -7   8    0.69    1.79
  -5   7  -8   -2.53    1.96
   5  -7   9    1.62    1.73
  -5   7  -9    0.04    2.02
  -5   7 -10    1.98    3.17
   5  -7  11    0.91    1.16
  -5   7 -11    1.00    1.29
   5  -7  12    3.91    1.40
  -5   7 -12    5.39    1.73
  -5   6  11    0.81    1.00
  -5   6  11    1.74    1.05
  -5   6  10   -0.95    1.73
  -5   6  10    1.45    1.06
  -5   6   9    1.41    2.30
  -5   6   9    0.99    1.30
  -5   6   8    1.93    1.58
  -5   6   8    1.12    1.46
  -5   6   7    1.49    1.61
  -5   6   7    1.06    1.49
  -5   6   6    0.89    1.36
  -5   6   6   -0.16    1.27
   5  -6  -5    1.56    2.63
  -5   6   5   -2.71    1.55
  -5   6   5    0.43    1.39
   5  -6  -4    1.40    1.53
   5  -6  -4    1.53    2.98
  -5   6   4    1.98    1.55
  -5   6   4   -0.45    1.47
   5  -6  -3   -1.84    1.48
   5  -6  -3    3.31    2.81
  -5   6   3    2.98    1.40
  -5   6   3   -2.12    2.27
   5  -6  -2   -0.67    1.43
   5  -6  -2    3.69    1.77
  -5   6   2    0.23    1.34
  -5   6   2   -1.19    1.98
   5  -6  -1   -0.53    1.69
   5  -6  -1    0.41    2.11
  -5   6   1   -1.70    1.46
   5  -6   0   33.83    6.11
   5  -6   0   39.72    7.57
  -5   6   0   33.53    5.30
   5  -6   1    4.30    2.56
   5  -6   1    0.44    2.58
  -5   6  -1    0.43    2.48
   5  -6   2   37.29    5.78
   5  -6   2   70.47    9.36
   5  -6   3   -1.57    1.48
   5  -6   3    7.58    2.35
   5  -6   4    4.64    2.08
   5  -6   4    4.35    3.24
   5  -6   5    0.82    1.20
   5  -6   5   -1.66    3.13
   5  -6   5   -1.48    2.80
  -5   6  -8    0.76    2.28
   5  -6   9    0.69    1.61
  -5   6  -9   -0.24    2.05
   5  -6  10    1.14    2.40
  -5   6 -10    0.67    2.28
  -5   6 -11   -3.63    4.24
   5  -6  12   -0.08    0.98
  -5   6 -12   -0.62    1.25
   5  -6  13    0.77    1.06
  -5   6 -13   -1.27    1.10
  -5   5  12    4.88    2.17
  -5   5  11    0.01    0.95
  -5   5  11   -0.39    0.86
   5  -5 -10    2.59    3.16
  -5   5  10    5.71    1.87
  -5   5  10    2.11    1.64
   5  -5  -9    0.58    1.25
  -5   5   9   -0.63    1.12
  -5   5   9    0.47    0.99
   5  -5  -8   -0.86    1.44
  -5   5   8    0.48    1.25
  -5   5   8    0.58    1.09
   5  -5  -7   -0.22    1.67
  -5   5   7    0.91    1.42
   5  -5  -6    1.67    2.29
  -5   5   6    2.51    1.86
   5  -5  -5   10.06    4.77
  -5   5   5    3.24    2.25
   5  -5  -4    0.37    2.76
   5  -5  -4    0.67    1.42
  -5   5   4   -0.22    1.26
   5  -5  -3    2.27    3.35
   5  -5  -3    1.99    2.13
  -5   5   3    1.78    1.75
   5  -5  -2    0.42    1.90
   5  -5  -2    1.01    1.99
  -5   5   2    1.52    1.53
   5  -5  -1   22.25    4.99
   5  -5  -1   22.85    5.07
  -5   5   1   17.16    3.73
   5  -5   0   47.85    7.13
   5  -5   0   45.75    7.20
  -5   5   0   27.51    4.95
   5  -5   1   34.86    6.43
   5  -5   1   30.43    6.65
   5  -5   2    0.53    3.11
   5  -5   2    3.77    2.16
  -5   5  -2    0.20    1.13
   5  -5   3    0.96    2.58
   5  -5   3    1.79    2.40
   5  -5   4    0.39    1.35
   5  -5   4    1.89    3.36
   5  -5   5    1.94    1.73
   5  -5   6    0.45    1.38
   5  -5   7   -3.13    2.62
  -5   5  -8   15.27    5.25
  -5   5  -9   -1.21    2.54
   5  -5  10   -0.39    1.38
  -5   5 -10    2.01    2.13
   5  -5  11    6.87    2.47
  -5   5 -11    8.20    3.97
   5  -5  12   -0.19    1.02
  -5   5 -12    0.19    2.55
   5  -5  13   -0.11    1.45
  -5   5 -13   -1.51    1.46
  -5   4  13    1.42    1.00
   5  -4 -12   -0.72    1.09
  -5   4  12    0.25    0.86
   5  -4 -11    1.32    1.55
  -5   4  11    0.44    1.25
   5  -4 -10    1.25    1.83
  -5   4  10    0.91    1.42
   5  -4  -9    0.65    1.77
  -5   4   9    0.26    2.22
   5  -4  -8    5.27    3.11
  -5   4   8    4.86    4.72
   5  -4  -7    6.27    3.44
  -5   4   7    7.54    5.33
   5  -4  -6    5.24    3.99
  -5   4   6   11.78    3.57
   5  -4  -5    1.61    2.85
  -5   4   5    5.32    2.74
   5  -4  -4   -0.04    2.13
  -5   4   4   -1.51    1.87
   5  -4  -3   -0.03    1.72
   5  -4  -3    1.12    1.36
  -5   4   3   -0.87    1.51
   5  -4  -2    3.24    4.72
   5  -4  -2    2.85    2.31
  -5   4   2    2.65    3.82
   5  -4  -1    0.93    1.78
   5  -4  -1    0.72    1.75
  -5   4   1    0.03    2.02
   5  -4   0    5.70    2.59
   5  -4   0    2.22    2.58
  -5   4   0    2.66    2.71
   5  -4   1    0.41    2.23
   5  -4   1    3.76    2.33
  -5   4  -1    2.03    1.33
   5  -4   2    0.95    2.07
   5  -4   2    3.30    3.76
   5  -4   3    1.82    3.61
   5  -4   4    4.62    2.14
   5  -4   5    0.66    1.45
   5  -4   5    0.61    1.86
   5  -4   6   -0.04    1.15
   5  -4   7    0.39    1.40
   5  -4   9   14.25    3.76
  -5   4  -9   17.27    5.40
   5  -4  10    1.87    1.79
  -5   4 -10    0.67    2.60
   5  -4  11    4.26    2.32
  -5   4 -11    8.08    3.51
   5  -4  12   28.59    5.43
  -5   4 -12    2.48    6.99
   5  -4  13    0.62    0.92
  -5   4 -13    0.39    1.38
   5  -4  14    4.41    1.26
  -5   4 -14   12.27    2.18
   5  -3 -14   -0.92    1.51
  -5   3  14    3.34    0.88
   5  -3 -13    1.04    1.48
  -5   3  13    0.62    0.99
   5  -3 -12    0.30    1.48
  -5   3  12    0.22    1.05
   5  -3 -11    0.34    1.91
  -5   3  11    1.76    2.78
   5  -3 -10    1.71    1.88
  -5   3  10   -0.24    1.62
   5  -3  -9    1.31    2.11
  -5   3   9    0.40    1.88
   5  -3  -8   25.40    6.49
   5  -3  -7   -0.57    2.18
   5  -3  -6   50.87    8.37
  -5   3   6   37.11    7.08
   5  -3  -5    6.89    3.62
  -5   3   5    5.33    2.92
   5  -3  -4  114.21   14.00
  -5   3   4   75.78   10.97
   5  -3  -3  112.41   12.67
   5  -3  -3   45.74    7.95
  -5   3   3   77.52    9.81
   5  -3  -2   13.91    4.79
   5  -3  -2   11.25    5.25
  -5   3   2   10.28    3.36
   5  -3  -1   31.24    8.95
   5  -3  -1   20.25    6.83
  -5   3   1   15.64    3.73
   5  -3   0   14.78    3.92
   5  -3   0   18.47    6.12
   5  -3   0   16.52    5.53
  -5   3   0    7.80    2.87
   5  -3   1   11.27    3.52
  -5   3  -1    6.49    3.86
   5  -3   2    0.45    1.71
   5  -3   2    0.28    1.76
   5  -3   3   14.62    4.23
   5  -3   3   13.75    3.97
   5  -3   4    2.96    3.10
   5  -3   5   -0.84    1.53
   5  -3   6    1.14    1.60
   5  -3   6    0.80    2.05
   5  -3   7    2.38    1.87
   5  -3   7    2.32    4.01
   5  -3   8    6.10    2.71
   5  -3   9    2.66    2.05
  -5   3  -9    1.01    2.66
   5  -3  10    1.94    1.74
  -5   3 -10    0.24    2.28
   5  -3  11    0.30    1.59
  -5   3 -11    2.48    2.14
   5  -3  12    5.36    3.76
  -5   3 -12   22.39    5.59
   5  -3  13    1.12    1.15
  -5   3 -13    1.78    1.55
   5  -3  14    6.14    1.33
  -5   3 -14    3.92    1.90
   5  -2 -14   -1.52    1.53
  -5   2  14   -0.33    0.86
   5  -2 -13    1.08    2.66
  -5   2  13    0.26    1.65
   5  -2 -12    2.06    3.16
  -5   2  12    0.58    1.53
  -5   2  11    0.84    1.68
   5  -2 -10    7.47    5.66
  -5   2  10    3.46    2.58
   5  -2  -9    1.71    3.49
  -5   2   9    0.02    1.64
   5  -2  -8   -0.66    3.37
  -5   2   8    0.63    1.81
   5  -2  -7    1.62    4.22
  -5   2   7    1.78    2.23
   5  -2  -6   -1.49    2.47
  -5   2   6    2.66    1.98
   5  -2  -5   -0.15    1.88
   5  -2  -4    6.81    3.70
   5  -2  -3    6.99    3.26
  -5   2   3    3.38    2.46
   5  -2  -2    1.54    2.59
   5  -2  -2    1.83    1.61
  -5   2   2    1.64    1.78
   5  -2  -1    1.89    3.63
   5  -2  -1    0.40    1.40
  -5   2   1    0.98    1.47
   5  -2   0    1.83    2.63
   5  -2   0   -2.81    1.33
  -5   2   0    0.93    1.13
   5  -2   1   37.59    5.88
   5  -2   1   20.24    4.97
   5  -2   2   -3.37    2.55
   5  -2   3   47.88    7.06
   5  -2   3   34.29    6.52
   5  -2   4    2.84    2.42
   5  -2   4   -0.38    1.89
   5  -2   5   14.61    3.35
   5  -2   5   14.03    6.62
   5  -2   6    0.10    1.15
   5  -2   6   -0.48    2.00
   5  -2   7    2.32    1.79
   5  -2   7    1.90    2.02
   5  -2   8    0.65    1.63
   5  -2   9    3.01    1.91
  -5   2  -9   -0.14    2.26
   5  -2  10    2.19    1.60
  -5   2 -10   -0.81    1.90
   5  -2  11    0.29    2.41
  -5   2 -11    3.39    3.10
   5  -2  12    1.11    1.38
  -5   2 -12    1.12    1.51
   5  -2  13    1.15    1.20
  -5   2 -13    1.80    1.38
  -5   2 -14    0.76    1.56
   5  -1 -15   -1.01    1.62
   5  -1 -14    0.96    2.47
  -5   1  14   -0.06    1.72
   5  -1 -13   21.35    5.20
  -5   1  13    2.12    2.08
   5  -1 -12    0.02    3.04
  -5   1  12    0.15    1.32
   5  -1 -11    1.78    2.74
  -5   1  11    1.84    2.01
  -5   1  10    1.71    2.12
   5  -1  -9   25.89   11.91
   5  -1  -8   18.90   10.42
   5  -1  -7   86.05   14.99
   5  -1  -7   97.76   19.71
   5  -1  -6   76.02   13.73
   5  -1  -6   93.34   18.59
   5  -1  -5    3.57    3.04
   5  -1  -5    2.59    2.93
   5  -1  -4   30.61    7.50
   5  -1  -4   44.19    7.69
   5  -1  -3    0.76    2.42
   5  -1  -3    3.23    2.63
   5  -1  -2    2.94    2.75
   5  -1  -1    8.04    5.49
   5  -1  -1    4.91    2.18
   5  -1   0   -1.99    2.50
   5  -1   0    0.84    1.23
   5  -1   1   17.35    4.15
   5  -1   1   10.94    5.55
   5  -1   2    1.24    1.83
   5  -1   2   -0.39    2.67
   5  -1   3   11.51    3.42
   5  -1   3    6.05    4.23
   5  -1   4    4.81    3.07
   5  -1   4    2.56    2.01
   5  -1   5    5.15    2.12
   5  -1   5    3.78    2.29
   5  -1   6    2.00    1.73
   5  -1   6    2.61    1.95
   5  -1   7    0.61    1.58
   5  -1   8    1.33    1.86
  -5   1  -8    1.89    2.03
   5  -1   9    2.11    3.11
  -5   1  -9    1.15    1.94
   5  -1  10    0.61    1.39
  -5   1 -10    0.56    1.54
   5  -1  11   13.06    2.96
  -5   1 -11   10.67    4.76
   5  -1  12   20.81    3.40
  -5   1 -12   19.38    3.28
   5  -1  13    8.05    4.93
  -5   1 -13   35.84    3.11
   5   0 -15   10.74    3.84
  -5   0  15    2.22    2.35
   5   0 -14    5.17    3.70
  -5   0  14    1.19    1.42
   5   0 -13   71.32    7.19
  -5   0  13    2.57    2.73
   5   0 -12    3.60    2.94
  -5   0  12    2.44    2.08
   5   0 -11   -0.84    2.40
   5   0 -10    1.99    3.01
   5   0  -9    1.91    2.96
   5   0  -9    1.74    4.84
   5   0  -8   22.33    7.14
   5   0  -8   29.14   11.28
   5   0  -7   33.51    9.35
   5   0  -7   41.36   12.16
   5   0  -6    7.72    5.14
   5   0  -6   13.88    4.55
   5   0  -5   18.12    6.11
   5   0  -5   27.16    6.00
   5   0  -4    4.36    3.50
   5   0  -4    7.62    3.45
   5   0  -3    1.95    2.06
   5   0  -3    0.02    2.18
   5   0  -2    1.70    2.03
   5   0  -2    0.84    2.23
   5   0  -1    1.53    2.00
   5   0  -1    2.20    3.78
   5   0   0    2.48    2.13
   5   0   0    2.01    1.43
   5   0   1    1.09    1.34
   5   0   1   -0.54    0.97
   5   0   2    0.78    1.62
   5   0   2    0.43    1.26
   5   0   3    4.89    3.92
   5   0   3    2.97    1.94
   5   0   4    1.00    1.49
   5   0   4    2.44    1.64
   5   0   5    0.95    1.32
   5   0   5    0.82    1.53
   5   0   6    0.73    1.32
   5   0   6    1.04    1.58
   5   0   7   -0.11    2.20
   5   0   8    6.44    2.86
  -5   0  -8    0.68    1.91
   5   0   9    0.69    1.06
  -5   0  -9   -0.65    1.06
   5   0  10    8.65    2.36
  -5   0 -10    2.64    3.45
   5   0  11   -1.31    1.46
  -5   0 -11    3.00    1.19
   5   0  12    5.49    3.02
   5   0  13   -0.30    0.88
   5   1 -15    6.48    8.45
  -5  -1  15   47.04    3.69
   5   1 -14   -0.32    3.20
  -5  -1  14   -1.00    1.30
   5   1 -13    9.34    6.40
   5   1 -12    1.92    4.39
   5   1 -11    3.49    3.08
   5   1 -11    2.22    3.07
   5   1 -10    8.66    4.57
   5   1  -9    9.22    4.59
   5   1  -9    6.89    7.29
   5   1  -8   11.69    5.77
   5   1  -8   20.66    8.05
   5   1  -7  147.68   21.48
   5   1  -7  158.86   27.55
   5   1  -6   16.88    6.07
   5   1  -6   18.98    5.52
   5   1  -5   32.37    8.39
   5   1  -5   49.63    8.34
   5   1  -4   13.98    5.51
   5   1  -4   25.07    5.53
   5   1  -3   -0.14    2.10
   5   1  -3    2.36    2.18
   5   1  -2    1.37    1.91
   5   1  -2   -0.49    3.32
   5   1  -1    1.18    2.04
   5   1  -1    2.83    3.07
   5   1   0    9.02    2.99
   5   1   1    1.71    1.81
   5   1   1    1.24    2.22
   5   1   2    0.55    2.79
   5   1   2    1.59    2.26
   5   1   3    1.17    1.34
   5   1   3    1.97    2.47
   5   1   4    0.28    1.01
   5   1   4    0.00    1.68
   5   1   5    0.97    1.25
   5   1   5    1.21    1.39
   5   1   6    8.35    2.47
   5   1   7   15.68    2.72
  -5  -1  -7    5.59    2.56
   5   1   8    4.55    2.05
   5   1   9    5.13    2.06
   5   1  10   16.94    3.26
   5   1  11    4.30    2.86
   5   1  12    6.46    1.76
   5   2 -14   12.39    4.29
  -5  -2  14    4.25    2.05
   5   2 -13   -1.56    3.29
   5   2 -12    2.02    2.46
   5   2 -12    0.89    3.87
   5   2 -11   -1.00    2.11
   5   2 -11    4.77    3.24
   5   2 -10    7.14    4.07
   5   2 -10    7.26    5.63
   5   2  -9    5.58    2.72
   5   2  -9   -8.46    3.82
   5   2  -8   12.49    5.20
   5   2  -8   12.36    4.49
   5   2  -7   56.72   10.86
   5   2  -7   46.83    8.80
   5   2  -6    2.31    4.06
   5   2  -6    0.55    2.14
   5   2  -5   24.22   10.64
   5   2  -5   28.54    6.04
   5   2  -4    2.92    3.52
   5   2  -4    0.38    1.99
   5   2  -3    2.74    4.03
   5   2  -3    2.02    3.79
   5   2  -2    0.66    2.05
   5   2  -2    2.27    2.71
   5   2  -1    0.53    1.41
   5   2   0    1.96    1.76
   5   2   1    0.35    2.15
   5   2   2    4.88    1.65
   5   2   3    4.36    1.68
   5   2   4    0.90    1.21
   5   2   5    0.38    1.11
   5   2   6   -1.81    1.47
   5   2   7    0.76    1.22
   5   2   8   -0.72    1.99
   5   2   9    3.27    2.67
   5   2  10    1.73    1.31
   5   2  11    9.43    2.00
   5   3 -14    8.89    2.52
   5   3 -13    6.86    2.94
   5   3 -13    4.14    2.27
   5   3 -12   -1.06    1.97
   5   3 -12   -0.11    1.47
   5   3 -11    1.33    2.49
   5   3 -11    1.48    1.86
   5   3 -10    2.07    2.78
   5   3 -10    1.70    2.08
   5   3  -9    1.08    2.53
   5   3  -9    1.03    1.89
   5   3  -8    5.98    6.63
   5   3  -8    6.25    3.07
   5   3  -7    3.26    4.99
   5   3  -7    1.19    2.04
   5   3  -6   16.25    8.78
   5   3  -6   10.65    3.70
   5   3  -5    5.70    5.49
   5   3  -5    2.73    2.37
   5   3  -4    1.61    5.13
   5   3  -4    3.45    3.09
   5   3  -3   17.08    8.73
   5   3  -2   -2.57    3.80
   5   3   3    1.89    2.01
   5   3   4   10.63    3.60
   5   3   5    0.18    1.53
   5   3   6    0.94    1.14
   5   3   7    1.27    1.21
   5   3   8   -0.30    0.96
   5   3   9    0.56    0.99
   5   3  10    0.22    0.86
   5   4 -13   -4.32    2.50
   5   4 -12    1.36    1.96
   5   4 -12    0.69    1.13
   5   4 -11    0.94    1.82
   5   4 -11    0.00    1.10
   5   4 -10    1.73    2.23
   5   4 -10    0.42    1.36
   5   4  -9    1.32    3.92
   5   4  -8    2.66    5.34
   5   4  -7   -1.53    4.65
   5   4  -6   -1.76    4.75
   5   4  -5    7.08    4.20
   5   4  -4   -0.58    3.60
   5   4  -3    3.31    4.68
   5   4   4    1.08    0.98
   5   4   5   -0.34    0.84
   5   4   6   -0.01    0.68
   5   4   7    0.73    0.91
   5   5 -12    0.08    1.41
   5   5 -11    7.34    3.43
   5   5 -10   -0.22    1.67
   5   5  -9    1.43    3.61
   5   5  -8    5.11    5.84
   5   5  -6   10.00    7.06
   5   5  -5    2.24    2.64
   5   5  -4    2.74    4.38
   5   5  -3    3.00    4.13
   5   6 -10   -1.01    1.75
   5   6  -9   53.87   11.36
   5   6  -8    0.31    2.51
   5   6  -7    1.94    3.79
   5   6  -6    2.69    4.08
   5   6  -5    0.63    2.91
   5   6  -4   -0.36    2.20
   5   6  -3    7.89    3.78
  -6   8   4   -0.98    0.95
   6  -8  -3    0.52    0.85
  -6   8   3   -0.94    0.80
   6  -8  -2    4.89    3.15
  -6   8   2    6.33    1.54
   6  -8  -1   -0.48    2.08
  -6   8   1   -0.81    1.41
   6  -8   0    0.23    2.45
  -6   8   0    1.71    1.71
   6  -8   1    0.54    1.47
  -6   8  -1    0.78    0.82
   6  -8   2    0.81    1.58
   6  -8   3    0.90    1.64
   6  -8   4   -2.82    2.10
   6  -8   5    5.01    2.41
   6  -8   6    3.41    1.98
  -6   7   6   -0.35    0.95
  -6   7   5   -1.10    1.14
   6  -7  -4    0.47    0.82
  -6   7   4   -0.14    0.91
   6  -7  -3    1.06    1.93
  -6   7   3    0.86    1.09
   6  -7  -2   -1.49    2.24
  -6   7   2   -0.95    1.09
   6  -7  -1    0.06    0.88
   6  -7  -1    2.19    2.46
  -6   7   1    2.55    1.08
   6  -7   0    0.74    0.85
   6  -7   0    1.93    2.38
  -6   7   0    0.08    0.89
   6  -7   1    1.68    1.12
   6  -7   1    5.61    2.01
  -6   7  -1    1.27    0.99
   6  -7   2    4.97    2.66
   6  -7   3    6.89    3.08
   6  -7   4   29.70    5.04
  -6   7  -4   16.28    4.69
   6  -7   5    4.73    2.52
  -6   7  -5    3.59    2.42
   6  -7   6    0.51    1.52
  -6   7  -6    0.41    1.57
  -6   7  -7    0.37    1.48
   6  -7   8   -0.73    1.30
  -6   7  -8   -2.19    2.39
  -6   6   8    7.35    2.83
   6  -6  -6    1.66    1.63
  -6   6   6   -0.26    2.04
   6  -6  -5    2.22    2.15
  -6   6   5    0.49    2.30
   6  -6  -4    0.01    1.73
  -6   6   4   -0.26    1.73
   6  -6  -3    0.06    1.83
   6  -6  -3   -0.25    0.99
  -6   6   3    0.99    1.61
   6  -6  -2    1.94    1.69
   6  -6  -2    0.32    2.08
  -6   6   2   -0.95    1.70
   6  -6  -1    1.38    2.08
   6  -6  -1    1.40    2.66
  -6   6   1    1.03    1.91
   6  -6   0    2.84    1.49
   6  -6   0    3.64    1.88
  -6   6   0    0.37    1.17
   6  -6   1    2.47    1.65
   6  -6   1    1.75    2.09
   6  -6   2   16.29    3.48
   6  -6   2   21.89    4.56
   6  -6   3   -3.02    1.69
   6  -6   3   -0.24    2.23
   6  -6   4   15.36    3.37
   6  -6   4   20.28    4.52
   6  -6   5    0.75    1.85
   6  -6   6    2.91    2.33
  -6   6  -6    2.20    2.72
  -6   6  -7    2.29    2.50
   6  -6   8    0.46    1.18
  -6   6  -8    0.13    1.80
   6  -6   9   -3.40    1.83
  -6   6  -9   -9.20    4.01
  -6   5   9   -0.24    0.96
   6  -5  -8    1.10    1.22
  -6   5   8    1.66    1.35
   6  -5  -7    0.21    0.93
  -6   5   7   -0.16    0.95
   6  -5  -6    0.52    1.18
  -6   5   6   -0.02    1.12
   6  -5  -5    0.56    1.33
  -6   5   5    0.20    1.19
   6  -5  -4    1.32    1.52
  -6   5   4    0.20    1.27
   6  -5  -3    0.45    1.45
  -6   5   3    0.12    1.12
   6  -5  -2    7.42    2.62
   6  -5  -2    4.31    2.08
  -6   5   2    3.09    1.85
   6  -5  -1    8.96    2.91
   6  -5  -1    6.24    2.45
  -6   5   1    3.83    1.89
   6  -5   0    5.48    4.12
   6  -5   0    3.19    2.14
  -6   5   0    1.45    2.35
   6  -5   1   18.51    5.81
   6  -5   1   15.48    4.17
   6  -5   2   23.11    4.24
   6  -5   2   18.57    4.75
   6  -5   3   -0.19    1.33
   6  -5   3    1.07    1.64
   6  -5   4   -0.10    1.18
   6  -5   5    0.67    1.38
   6  -5   5    0.49    1.85
   6  -5   6    1.93    3.62
   6  -5   7    2.07    1.42
  -6   5  -7   -2.35    2.24
  -6   5  -8    0.89    2.14
   6  -5   9   -0.12    1.06
  -6   5  -9    0.71    1.66
   6  -5  10    3.80    1.79
  -6   5 -10    8.06    4.06
   6  -4 -10   -0.85    1.29
  -6   4  10   -2.39    1.28
   6  -4  -9    0.25    1.77
  -6   4   9    0.19    1.01
   6  -4  -8    0.01    2.09
  -6   4   8    0.42    1.16
   6  -4  -7    0.79    2.36
  -6   4   7    0.43    1.23
   6  -4  -6    4.90    4.00
  -6   4   6    4.45    2.04
   6  -4  -5   -1.58    1.63
  -6   4   5    0.06    1.27
   6  -4  -4    2.17    2.01
  -6   4   4    0.97    1.50
   6  -4  -3   -2.02    1.42
  -6   4   3    0.93    0.99
   6  -4  -2   -0.99    1.98
  -6   4   2   -0.91    1.33
   6  -4  -1    1.82    2.31
   6  -4  -1    0.67    1.74
  -6   4   1    2.14    1.39
   6  -4   0   -1.22    1.94
   6  -4   0    1.76    1.51
   6  -4   1   -8.78    3.13
   6  -4   1    3.09    1.58
   6  -4   3    0.28    1.35
   6  -4   3    0.30    1.62
   6  -4   4    2.78    1.88
   6  -4   4    2.08    3.85
   6  -4   5    1.24    1.57
   6  -4   6    2.32    1.86
   6  -4   7    0.66    1.43
   6  -4   8   -0.22    1.30
  -6   4  -8   -0.83    2.00
   6  -4   9   -0.92    0.99
  -6   4  -9    1.88    1.52
   6  -4  10   -4.07    3.60
  -6   4 -10  -10.44    4.75
   6  -3 -11    3.84    2.89
  -6   3  11    1.78    1.30
   6  -3 -10    0.28    2.45
  -6   3  10    0.43    1.07
   6  -3  -9    1.10    1.41
  -6   3   9   -1.51    1.68
   6  -3  -8    0.52    1.76
  -6   3   8    0.30    2.50
   6  -3  -7    1.29    3.12
  -6   3   7   -1.45    2.58
   6  -3  -6    6.04    5.07
  -6   3   6    2.91    3.99
   6  -3  -5    5.79    5.10
  -6   3   5    7.48    4.63
  -6   3   4   16.53    6.51
   6  -3  -3    4.85    3.51
  -6   3   3   12.04    4.66
   6  -3  -2   12.70    3.62
  -6   3   2    2.99    3.39
   6  -3  -1    2.16    2.27
  -6   3   1    1.11    1.27
   6  -3   0    3.78    2.40
   6  -3   0    0.65    1.77
   6  -3   1    2.33    2.46
   6  -3   1    2.38    3.24
   6  -3   2    9.64    4.14
   6  -3   2    2.11    4.61
   6  -3   3    0.49    1.41
   6  -3   4    1.50    1.48
   6  -3   4   -0.08    1.46
   6  -3   5    1.93    1.73
   6  -3   5    1.73    1.73
   6  -3   6    1.21    1.60
   6  -3   7    0.41    1.34
   6  -3   8    2.77    2.11
  -6   3  -8    8.37    2.99
   6  -3   9    1.38    2.50
  -6   3  -9    1.35    1.98
   6  -3  10   11.24    2.36
  -6   3 -10   11.29    5.00
   6  -2 -11    4.72    2.83
  -6   2  11   10.72    3.37
   6  -2 -10    1.68    1.84
  -6   2  10   -0.53    2.61
   6  -2  -9    7.15    3.14
  -6   2   9    4.13    2.54
   6  -2  -8    3.78    2.35
  -6   2   8    0.58    1.93
   6  -2  -7    2.98    2.41
  -6   2   7    0.69    1.94
   6  -2  -6    2.83    2.79
  -6   2   6    2.49    2.16
   6  -2  -5    1.60    4.60
  -6   2   5    2.50    2.14
   6  -2  -4    1.30    3.24
  -6   2   4    0.76    1.69
   6  -2  -3    6.69    2.43
  -6   2   3   -0.75    1.89
   6  -2  -2   -1.04    1.81
  -6   2   2   -0.07    1.35
   6  -2  -1    0.74    1.97
   6  -2   0    6.45    2.79
   6  -2   0    2.57    1.70
   6  -2   1   -0.46    1.59
   6  -2   1    0.10    0.99
   6  -2   2    4.20    2.72
   6  -2   2    0.00    1.43
   6  -2   3    1.94    1.90
   6  -2   3    2.59    1.77
   6  -2   4    0.46    1.41
   6  -2   4    0.68    1.35
   6  -2   5    9.65    2.81
   6  -2   5    9.41    2.77
   6  -2   6   -0.02    1.06
   6  -2   7    0.95    1.49
  -6   2  -7    1.40    1.92
   6  -2   8    0.40    1.89
  -6   2  -8   -1.42    1.64
   6  -2   9    0.28    1.05
  -6   2  -9    0.52    1.37
   6  -2  10   -2.12    1.22
  -6   2 -10    0.12    2.31
   6  -1 -12   -0.56    1.91
  -6   1  12   -5.32    2.61
   6  -1 -11    4.81    2.66
  -6   1  11    3.91    2.13
   6  -1 -10    0.45    1.77
  -6   1  10    0.64    1.48
   6  -1  -9   41.21    4.90
  -6   1   9    3.71    3.62
   6  -1  -8    0.91    2.04
  -6   1   8    0.68    1.66
   6  -1  -7    1.81    1.81
  -6   1   7   -0.76    1.47
   6  -1  -6   -0.39    1.92
  -6   1   6    0.78    1.53
   6  -1  -5    2.95    3.90
  -6   1   5   -2.29    1.97
   6  -1  -4    0.41    2.42
  -6   1   4   -0.06    1.28
   6  -1  -3    5.30    2.27
  -6   1   3   -0.33    1.78
   6  -1  -2    5.42    2.49
  -6   1   2    1.10    1.73
   6  -1  -1   -0.44    1.77
   6  -1   0    0.69    1.86
   6  -1   1    7.77    3.45
   6  -1   1    0.04    1.26
   6  -1   2   -1.27    4.17
   6  -1   2   10.47    2.29
   6  -1   3   10.88    2.73
   6  -1   3    8.02    2.53
   6  -1   4    0.41    1.37
   6  -1   4    1.12    1.34
   6  -1   5    2.42    1.62
   6  -1   5    3.11    2.81
   6  -1   6    0.56    1.79
   6  -1   7   17.61    2.29
  -6   1  -7   -0.15    2.75
   6  -1   8   -1.21    1.12
  -6   1  -8   -0.41    1.34
   6  -1   9   -0.02    0.84
   6  -1  10    1.58    1.15
  -6   0  12   -0.20    1.06
   6   0 -11    8.84    3.13
  -6   0  11    8.02    2.64
   6   0 -10   -1.26    1.63
  -6   0  10    0.07    1.38
   6   0  -9    1.71    2.64
  -6   0   9    5.06    2.38
   6   0  -8   -0.32    1.66
  -6   0   8    0.56    1.41
   6   0  -7    2.96    2.30
  -6   0   7    0.57    1.88
   6   0  -6    3.48    2.87
   6   0  -5    6.66    5.77
   6   0  -4    8.01    4.57
  -6   0   4    3.93    2.36
   6   0  -3    1.29    3.58
  -6   0   3   16.55    2.97
   6   0  -2    4.05    2.70
   6   0  -1    4.56    2.68
   6   0   0   -2.31    2.21
   6   0   1    1.77    2.49
   6   0   2    0.40    1.22
   6   0   2    0.66    0.91
   6   0   3    0.29    1.05
   6   0   3   -0.59    0.84
   6   0   4    0.04    0.99
   6   0   4    0.33    0.86
   6   0   5    0.74    1.05
   6   0   6   -0.82    0.87
  -6   0  -6    0.65    1.04
   6   0   7    0.49    0.96
   6   0   8    0.41    0.94
   6   0   9    2.55    2.06
   6   1 -11   -2.44    1.64
  -6  -1  11   -0.16    1.50
   6   1 -10    2.94    2.04
  -6  -1  10    1.67    1.80
   6   1  -9    0.13    1.40
   6   1  -8    1.48    2.09
   6   1  -7    6.93    5.35
   6   1  -6    1.37    3.50
   6   1  -5   16.29    6.44
   6   1  -4    8.40    3.19
   6   1  -3   18.71    4.41
   6   1  -2   -0.28    1.45
   6   1  -1    1.23    1.74
   6   1   0    1.38    2.11
   6   1   1    0.00    0.81
   6   1   2    0.02    0.80
   6   1   3    0.11    0.83
   6   1   3   -0.41    0.73
   6   1   4    0.95    0.93
   6   1   5   -0.23    0.80
   6   1   6   -0.19    1.28
   6   1   7    0.39    1.37
   6   1   8    0.57    0.85
   6   2 -11   -1.73    2.02
  -6  -2  11   -0.49    1.24
   6   2 -10    8.23    4.31
   6   2  -9   -0.60    2.40
   6   2  -8    1.94    2.55
   6   2  -7    3.14    2.89
   6   2  -7    5.78    3.26
   6   2  -6   -0.37    1.51
   6   2  -6    0.05    1.11
   6   2  -5    7.53    3.20
   6   2  -5    7.15    2.53
   6   2  -4    0.72    1.36
   6   2  -3    5.45    2.17
   6   2  -2    1.38    2.36
   6   2  -1    0.45    1.42
   6   2   4   -0.04    0.56
   6   2   5    0.19    0.63
   6   2   6    3.09    1.06
   6   3  -8   -0.43    1.55
   6   3  -7    0.60    1.55
   6   3  -7    0.34    0.84
   6   3  -6    2.82    2.18
   6   3  -5    2.48    2.06
   6   4  -7   -1.94    1.69
   6   4  -6    1.60    1.64
   7  -5  -2    1.59    1.09
   7  -5  -1    0.54    0.97
   7  -5   0    0.26    0.91
   7  -5   1    2.09    1.27
   7  -4  -3    0.80    1.77
   7  -4  -2    1.55    1.32
   7  -4  -1    9.00    2.25
   7  -4   0   20.15    3.16
   7  -4   1   29.88    3.69
   7  -4   2   -4.49    1.77
   7  -4   3    0.00    0.61
   7  -4   4   82.61    8.23
   7  -3  -5   13.04    2.00
  -7   3   5    0.46    1.09
   7  -3  -4   -3.42    1.85
  -7   3   4    3.67    0.96
   7  -3  -3   18.29    6.46
   7  -3  -2   -5.56    3.07
   7  -3  -1   -0.72    1.20
   7  -3   0    0.04    0.92
   7  -3   1   -3.13    1.59
   7  -3   2    4.77    1.79
   7  -3   3   -1.99    1.32
   7  -2  -6   -0.55    1.35
  -7   2   6    1.45    0.80
   7  -2  -5   -1.70    1.39
  -7   2   5   -0.28    0.75
   7  -2  -4    7.78    2.73
   7  -2  -3    0.37    2.42
   7  -2  -2    2.00    2.25
   7  -2  -1   -0.78    1.18
   7  -2   0   -0.40    1.06
   7  -2   1   -0.76    1.15
   7  -2   2   15.36    2.56
   7  -1  -5    0.69    1.37
   7  -1  -4    8.12    2.59
   7  -1  -3  119.12   14.74
   7  -1  -2    9.84    3.53
   7  -1  -1    0.03    0.86
   7  -1   0   -0.34    1.00
   7  -1   1    7.76    1.83
   7  -1   2   -0.60    0.95
   7   0  -5   -1.39    2.21
   7   0  -4    1.96    1.91
   7   0  -3   -0.60    1.51
   7   0  -2    0.82    0.97
   7   0  -1   -1.49    1.04
   7   0   0   -0.34    0.78

_computing_structure_solution     'SHELXT 2014/4 (Sheldrick, 2014)'
_computing_structure_solution     'SHELXT 2014/4 (Sheldrick, 2014)'
;
_shelx_hkl_checksum              43889
_olex2_submission_special_instructions 'No special instructions were received'
loop_
_space_group_symop_operation_xyz
'x, y, z'
'-x, -y, -z'
loop_
_atom_site_label
_atom_site_type_symbol
_atom_site_fract_x
_atom_site_fract_y
_atom_site_fract_z
_atom_site_U_iso_or_equiv
_atom_site_adp_type
_atom_site_occupancy
_atom_site_site_symmetry_order
_atom_site_calc_flag
_atom_site_refinement_flags_posn
_atom_site_refinement_flags_adp
_atom_site_refinement_flags_occupancy
_atom_site_disorder_assembly
_atom_site_disorder_group
O001 O 0.6457(4) 0.60027(19) 0.68321(13) 0.0929(7) Uani 1 1 d . . . . .
H001 H 0.7321 0.5593 0.6576 0.139 Uiso 1 1 calc R U . . .
N002 N 0.8080(4) 0.3923(2) 0.61830(15) 0.0829(8) Uani 1 1 d . . . . .
N3 N 0.8437(7) 0.0141(3) 0.39905(19) 0.1011(10) Uani 1 1 d . . . . .
O8 O 0.6439(6) -0.0274(3) 0.40324(17) 0.1407(12) Uani 1 1 d . . . . .
C005 C 0.5560(5) 0.3890(3) 0.72520(16) 0.0725(8) Uani 1 1 d . . . . .
C006 C 0.5371(5) 0.5241(3) 0.73317(17) 0.0732(8) Uani 1 1 d . . . . .
O007 O 0.9602(5) -0.0431(3) 0.35327(17) 0.1377(11) Uani 1 1 d . . . . .
C008 C 0.3108(5) 0.3617(3) 0.83349(17) 0.0744(9) Uani 1 1 d . . . . .
C009 C 0.4037(5) 0.5809(3) 0.79018(17) 0.0727(8) Uani 1 1 d . . . . .
C00A C 0.8295(5) 0.2016(3) 0.51079(18) 0.0785(9) Uani 1 1 d . . . . .
H00A H 0.6816 0.1601 0.5165 0.094 Uiso 1 1 calc R U . . .
C00B C 0.9281(6) 0.3235(3) 0.55971(18) 0.0762(9) Uani 1 1 d . . . . .
C00C C 0.6925(5) 0.3284(3) 0.66606(18) 0.0807(9) Uani 1 1 d . . . . .
H00C H 0.6964 0.2379 0.6626 0.097 Uiso 1 1 calc R U . . .
C00D C 0.9543(7) 0.1424(3) 0.45324(19) 0.0801(9) Uani 1 1 d . . . . .
C00E C 0.2966(5) 0.4969(3) 0.83841(17) 0.0767(9) Uani 1 1 d . . . . .
H00E H 0.2082 0.5332 0.8772 0.092 Uiso 1 1 calc R U . . .
C00F C 0.4413(5) 0.3115(3) 0.77554(18) 0.0774(9) Uani 1 1 d . . . . .
H00F H 0.4537 0.2219 0.7696 0.093 Uiso 1 1 calc R U . . .
C00G C 1.1481(6) 0.3827(3) 0.5496(2) 0.0877(10) Uani 1 1 d . . . . .
H00G H 1.2141 0.4659 0.5818 0.105 Uiso 1 1 calc R U . . .
C00H C 0.3773(6) 0.7277(3) 0.79912(19) 0.0820(9) Uani 1 1 d . . . . .
C00I C 0.1850(6) 0.2793(3) 0.88942(19) 0.0823(9) Uani 1 1 d . U . . .
C00J C 1.2707(6) 0.3206(4) 0.4928(2) 0.0953(10) Uani 1 1 d . . . . .
H00J H 1.4197 0.3610 0.4877 0.114 Uiso 1 1 calc R U . . .
C00K C 1.1737(7) 0.1985(4) 0.4433(2) 0.0890(10) Uani 1 1 d . . . . .
H00K H 1.2548 0.1556 0.4045 0.107 Uiso 1 1 calc R U . . .
C00L C 0.2686(6) 0.7485(3) 0.7197(2) 0.1096(12) Uani 1 1 d . . . . .
H00B H 0.3669 0.7329 0.6771 0.164 Uiso 1 1 calc R U . . .
H00D H 0.2452 0.8391 0.7267 0.164 Uiso 1 1 calc R U . . .
H00H H 0.1259 0.6863 0.7059 0.164 Uiso 1 1 calc R U . . .
C00M C 0.6073(6) 0.8241(3) 0.8199(2) 0.1103(12) Uani 1 1 d . . . . .
H00I H 0.6754 0.8112 0.8693 0.165 Uiso 1 1 calc R U . . .
H00L H 0.5874 0.9154 0.8265 0.165 Uiso 1 1 calc R U . . .
H00M H 0.7036 0.8064 0.7769 0.165 Uiso 1 1 calc R U . . .
C00N C 0.2225(6) 0.7645(3) 0.8662(2) 0.1128(12) Uani 1 1 d . . . . .
H00N H 0.0765 0.7054 0.8539 0.169 Uiso 1 1 calc R U . . .
H00O H 0.2068 0.8560 0.8695 0.169 Uiso 1 1 calc R U . . .
H00P H 0.2875 0.7551 0.9170 0.169 Uiso 1 1 calc R U . . .
C00O C 0.2350(12) 0.1392(6) 0.8783(4) 0.134(3) Uani 0.748(6) 1 d . U P A 1
H00Q H 0.1891 0.0918 0.8236 0.201 Uiso 0.748(6) 1 calc R U P A 1
H00R H 0.1532 0.0911 0.9151 0.201 Uiso 0.748(6) 1 calc R U P A 1
H00S H 0.3943 0.1458 0.8890 0.201 Uiso 0.748(6) 1 calc R U P A 1
C00P C 0.2571(12) 0.3502(6) 0.9778(3) 0.124(2) Uani 0.748(6) 1 d . U P A 1
H00T H 0.4165 0.3569 0.9883 0.186 Uiso 0.748(6) 1 calc R U P A 1
H00U H 0.1755 0.2992 1.0133 0.186 Uiso 0.748(6) 1 calc R U P A 1
H00V H 0.2245 0.4389 0.9869 0.186 Uiso 0.748(6) 1 calc R U P A 1
C00Q C -0.0665(9) 0.2678(7) 0.8744(5) 0.139(3) Uani 0.748(6) 1 d . U P A 1
H00W H -0.0994 0.3563 0.8817 0.209 Uiso 0.748(6) 1 calc R U P A 1
H00X H -0.1450 0.2197 0.9118 0.209 Uiso 0.748(6) 1 calc R U P A 1
H00Y H -0.1149 0.2201 0.8200 0.209 Uiso 0.748(6) 1 calc R U P A 1
C00R C 0.012(3) 0.1477(16) 0.8333(9) 0.109(5) Uani 0.252(6) 1 d . U P A 2
H00Z H -0.0814 0.1775 0.7961 0.163 Uiso 0.252(6) 1 calc R U P A 2
H H -0.0817 0.1000 0.8675 0.163 Uiso 0.252(6) 1 calc R U P A 2
HA H 0.0986 0.0890 0.8035 0.163 Uiso 0.252(6) 1 calc R U P A 2
C1 C 0.352(3) 0.2197(19) 0.9355(11) 0.111(5) Uani 0.252(6) 1 d . U P A 2
H1A H 0.4221 0.1620 0.8976 0.167 Uiso 0.252(6) 1 calc R U P A 2
H1B H 0.2715 0.1685 0.9713 0.167 Uiso 0.252(6) 1 calc R U P A 2
H1C H 0.4655 0.2914 0.9665 0.167 Uiso 0.252(6) 1 calc R U P A 2
C2 C 0.036(4) 0.3503(17) 0.9442(13) 0.126(6) Uani 0.252(6) 1 d . U P A 2
H2A H 0.1240 0.4326 0.9759 0.189 Uiso 0.252(6) 1 calc R U P A 2
H2B H -0.0296 0.2932 0.9796 0.189 Uiso 0.252(6) 1 calc R U P A 2
H2C H -0.0829 0.3703 0.9121 0.189 Uiso 0.252(6) 1 calc R U P A 2
loop_
_atom_site_aniso_label
_atom_site_aniso_U_11
_atom_site_aniso_U_22
_atom_site_aniso_U_33
_atom_site_aniso_U_23
_atom_site_aniso_U_13
_atom_site_aniso_U_12
O001 0.1090(19) 0.0812(15) 0.0978(16) 0.0357(12) 0.0341(13) 0.0201(13)
N002 0.091(2) 0.0820(18) 0.0775(17) 0.0204(14) 0.0177(15) 0.0158(15)
N3 0.132(3) 0.086(2) 0.086(2) 0.0206(19) 0.012(2) 0.022(2)
O8 0.144(3) 0.118(2) 0.130(2) -0.0039(16) 0.023(2) -0.020(2)
C005 0.084(2) 0.0674(19) 0.0686(19) 0.0174(15) 0.0114(16) 0.0164(17)
C006 0.084(2) 0.068(2) 0.0701(19) 0.0256(15) 0.0090(17) 0.0108(17)
O007 0.170(3) 0.117(2) 0.121(2) -0.0099(16) 0.0183(18) 0.046(2)
C008 0.087(2) 0.0668(19) 0.0725(19) 0.0209(15) 0.0141(17) 0.0152(17)
C009 0.079(2) 0.072(2) 0.0711(19) 0.0210(15) 0.0079(16) 0.0179(17)
C00A 0.083(2) 0.078(2) 0.077(2) 0.0238(18) 0.0118(18) 0.0125(19)
C00B 0.085(2) 0.076(2) 0.071(2) 0.0216(17) 0.0132(18) 0.0171(19)
C00C 0.093(2) 0.073(2) 0.077(2) 0.0175(16) 0.0100(18) 0.0180(18)
C00D 0.099(3) 0.074(2) 0.069(2) 0.0200(17) 0.009(2) 0.016(2)
C00E 0.091(2) 0.073(2) 0.0727(19) 0.0241(15) 0.0158(17) 0.0213(18)
C00F 0.097(2) 0.0622(19) 0.0758(19) 0.0216(15) 0.0113(18) 0.0147(17)
C00G 0.094(3) 0.087(2) 0.082(2) 0.0225(17) 0.013(2) 0.009(2)
C00H 0.093(2) 0.0637(19) 0.093(2) 0.0250(16) 0.011(2) 0.0166(18)
C00I 0.098(3) 0.072(2) 0.081(2) 0.0283(16) 0.0200(18) 0.0131(18)
C00J 0.088(3) 0.108(3) 0.092(2) 0.027(2) 0.020(2) 0.017(2)
C00K 0.102(3) 0.095(3) 0.078(2) 0.024(2) 0.019(2) 0.030(2)
C00L 0.129(3) 0.102(3) 0.114(3) 0.045(2) -0.002(2) 0.041(2)
C00M 0.121(3) 0.073(2) 0.135(3) 0.020(2) 0.011(3) 0.014(2)
C00N 0.142(3) 0.088(2) 0.129(3) 0.036(2) 0.049(3) 0.053(2)
C00O 0.192(7) 0.091(4) 0.141(6) 0.061(4) 0.063(5) 0.036(4)
C00P 0.171(6) 0.118(4) 0.084(3) 0.043(3) 0.019(3) 0.011(4)
C00Q 0.104(4) 0.157(7) 0.169(6) 0.085(5) 0.019(4) 0.004(4)
C00R 0.120(11) 0.090(8) 0.115(9) 0.034(7) 0.013(8) 0.007(7)
C1 0.121(10) 0.117(12) 0.104(11) 0.055(9) 0.023(7) 0.011(8)
C2 0.151(13) 0.100(10) 0.134(12) 0.035(8) 0.065(10) 0.022(10)
loop_
_atom_type_symbol
_atom_type_description
_atom_type_scat_dispersion_real
_atom_type_scat_dispersion_imag
_atom_type_scat_source
C C 0.0181 0.0091 'International Tables Vol C Tables 4.2.6.8 and 6.1.1.4'
H H 0.0000 0.0000 'International Tables Vol C Tables 4.2.6.8 and 6.1.1.4'
N N 0.0311 0.0180 'International Tables Vol C Tables 4.2.6.8 and 6.1.1.4'
O O 0.0492 0.0322 'International Tables Vol C Tables 4.2.6.8 and 6.1.1.4'
loop_
_geom_angle_atom_site_label_1
_geom_angle_atom_site_label_2
_geom_angle_atom_site_label_3
_geom_angle
_geom_angle_site_symmetry_1
_geom_angle_site_symmetry_3
_geom_angle_publ_flag
C006 O001 H001 109.5 . . ?
C00C N002 C00B 119.9(3) . . ?
O8 N3 O007 124.2(4) . . ?
O8 N3 C00D 118.2(4) . . ?
O007 N3 C00D 117.6(4) . . ?
C006 C005 C00C 121.7(3) . . ?
C00F C005 C006 119.2(3) . . ?
C00F C005 C00C 119.1(3) . . ?
O001 C006 C005 119.7(3) . . ?
O001 C006 C009 119.3(3) . . ?
C009 C006 C005 121.1(3) . . ?
C00E C008 C00I 120.6(3) . . ?
C00F C008 C00E 115.8(3) . . ?
C00F C008 C00I 123.6(3) . . ?
C006 C009 C00H 122.0(3) . . ?
C00E C009 C006 116.0(3) . . ?
C00E C009 C00H 121.9(3) . . ?
C00B C00A H00A 120.7 . . ?
C00D C00A H00A 120.7 . . ?
C00D C00A C00B 118.7(3) . . ?
C00A C00B N002 121.8(3) . . ?
C00A C00B C00G 119.2(3) . . ?
C00G C00B N002 118.9(3) . . ?
N002 C00C C005 123.7(3) . . ?
N002 C00C H00C 118.2 . . ?
C005 C00C H00C 118.2 . . ?
C00A C00D N3 118.1(3) . . ?
C00K C00D N3 119.0(4) . . ?
C00K C00D C00A 122.9(3) . . ?
C008 C00E H00E 117.3 . . ?
C009 C00E C008 125.3(3) . . ?
C009 C00E H00E 117.3 . . ?
C005 C00F H00F 118.7 . . ?
C008 C00F C005 122.6(3) . . ?
C008 C00F H00F 118.7 . . ?
C00B C00G H00G 119.5 . . ?
C00J C00G C00B 121.1(3) . . ?
C00J C00G H00G 119.5 . . ?
C009 C00H C00L 110.0(3) . . ?
C00M C00H C009 110.5(3) . . ?
C00M C00H C00L 109.4(2) . . ?
C00M C00H C00N 108.2(3) . . ?
C00N C00H C009 111.4(3) . . ?
C00N C00H C00L 107.2(3) . . ?
C008 C00I C00P 109.3(3) . . ?
C008 C00I C00R 108.2(5) . . ?
C008 C00I C1 109.8(6) . . ?
C00O C00I C008 112.3(3) . . ?
C00O C00I C00P 107.6(4) . . ?
C00Q C00I C008 109.7(3) . . ?
C00Q C00I C00O 109.1(4) . . ?
C00Q C00I C00P 108.7(4) . . ?
C1 C00I C00R 105.0(10) . . ?
C2 C00I C008 115.1(6) . . ?
C2 C00I C00R 105.0(11) . . ?
C2 C00I C1 113.0(11) . . ?
C00G C00J H00J 119.9 . . ?
C00G C00J C00K 120.2(3) . . ?
C00K C00J H00J 119.9 . . ?
C00D C00K C00J 117.9(3) . . ?
C00D C00K H00K 121.0 . . ?
C00J C00K H00K 121.0 . . ?
C00H C00L H00B 109.5 . . ?
C00H C00L H00D 109.5 . . ?
C00H C00L H00H 109.5 . . ?
H00B C00L H00D 109.5 . . ?
H00B C00L H00H 109.5 . . ?
H00D C00L H00H 109.5 . . ?
C00H C00M H00I 109.5 . . ?
C00H C00M H00L 109.5 . . ?
C00H C00M H00M 109.5 . . ?
H00I C00M H00L 109.5 . . ?
H00I C00M H00M 109.5 . . ?
H00L C00M H00M 109.5 . . ?
C00H C00N H00N 109.5 . . ?
C00H C00N H00O 109.5 . . ?
C00H C00N H00P 109.5 . . ?
H00N C00N H00O 109.5 . . ?
H00N C00N H00P 109.5 . . ?
H00O C00N H00P 109.5 . . ?
C00I C00O H00Q 109.5 . . ?
C00I C00O H00R 109.5 . . ?
C00I C00O H00S 109.5 . . ?
H00Q C00O H00R 109.5 . . ?
H00Q C00O H00S 109.5 . . ?
H00R C00O H00S 109.5 . . ?
C00I C00P H00T 109.5 . . ?
C00I C00P H00U 109.5 . . ?
C00I C00P H00V 109.5 . . ?
H00T C00P H00U 109.5 . . ?
H00T C00P H00V 109.5 . . ?
H00U C00P H00V 109.5 . . ?
C00I C00Q H00W 109.5 . . ?
C00I C00Q H00X 109.5 . . ?
C00I C00Q H00Y 109.5 . . ?
H00W C00Q H00X 109.5 . . ?
H00W C00Q H00Y 109.5 . . ?
H00X C00Q H00Y 109.5 . . ?
C00I C00R H00Z 109.5 . . ?
C00I C00R H 109.5 . . ?
C00I C00R HA 109.5 . . ?
H00Z C00R H 109.5 . . ?
H00Z C00R HA 109.5 . . ?
H C00R HA 109.5 . . ?
C00I C1 H1A 109.5 . . ?
C00I C1 H1B 109.5 . . ?
C00I C1 H1C 109.5 . . ?
H1A C1 H1B 109.5 . . ?
H1A C1 H1C 109.5 . . ?
H1B C1 H1C 109.5 . . ?
C00I C2 H2A 109.5 . . ?
C00I C2 H2B 109.5 . . ?
C00I C2 H2C 109.5 . . ?
H2A C2 H2B 109.5 . . ?
H2A C2 H2C 109.5 . . ?
H2B C2 H2C 109.5 . . ?
loop_
_geom_bond_atom_site_label_1
_geom_bond_atom_site_label_2
_geom_bond_distance
_geom_bond_site_symmetry_2
_geom_bond_publ_flag
O001 H001 0.8200 . ?
O001 C006 1.361(3) . ?
N002 C00B 1.413(4) . ?
N002 C00C 1.280(3) . ?
N3 O8 1.210(3) . ?
N3 O007 1.213(3) . ?
N3 C00D 1.479(4) . ?
C005 C006 1.404(4) . ?
C005 C00C 1.447(4) . ?
C005 C00F 1.389(3) . ?
C006 C009 1.396(4) . ?
C008 C00E 1.404(3) . ?
C008 C00F 1.368(3) . ?
C008 C00I 1.516(4) . ?
C009 C00E 1.386(3) . ?
C009 C00H 1.536(4) . ?
C00A H00A 0.9300 . ?
C00A C00B 1.377(4) . ?
C00A C00D 1.376(4) . ?
C00B C00G 1.382(4) . ?
C00C H00C 0.9300 . ?
C00D C00K 1.370(4) . ?
C00E H00E 0.9300 . ?
C00F H00F 0.9300 . ?
C00G H00G 0.9300 . ?
C00G C00J 1.372(4) . ?
C00H C00L 1.540(4) . ?
C00H C00M 1.529(4) . ?
C00H C00N 1.534(4) . ?
C00I C00O 1.515(6) . ?
C00I C00P 1.536(6) . ?
C00I C00Q 1.510(6) . ?
C00I C00R 1.648(15) . ?
C00I C1 1.539(16) . ?
C00I C2 1.508(15) . ?
C00J H00J 0.9300 . ?
C00J C00K 1.380(4) . ?
C00K H00K 0.9300 . ?
C00L H00B 0.9600 . ?
C00L H00D 0.9600 . ?
C00L H00H 0.9600 . ?
C00M H00I 0.9600 . ?
C00M H00L 0.9600 . ?
C00M H00M 0.9600 . ?
C00N H00N 0.9600 . ?
C00N H00O 0.9600 . ?
C00N H00P 0.9600 . ?
C00O H00Q 0.9600 . ?
C00O H00R 0.9600 . ?
C00O H00S 0.9600 . ?
C00P H00T 0.9600 . ?
C00P H00U 0.9600 . ?
C00P H00V 0.9600 . ?
C00Q H00W 0.9600 . ?
C00Q H00X 0.9600 . ?
C00Q H00Y 0.9600 . ?
C00R H00Z 0.9600 . ?
C00R H 0.9600 . ?
C00R HA 0.9600 . ?
C1 H1A 0.9600 . ?
C1 H1B 0.9600 . ?
C1 H1C 0.9600 . ?
C2 H2A 0.9600 . ?
C2 H2B 0.9600 . ?
C2 H2C 0.9600 . ?
loop_
_geom_torsion_atom_site_label_1
_geom_torsion_atom_site_label_2
_geom_torsion_atom_site_label_3
_geom_torsion_atom_site_label_4
_geom_torsion
_geom_torsion_site_symmetry_1
_geom_torsion_site_symmetry_2
_geom_torsion_site_symmetry_3
_geom_torsion_site_symmetry_4
_geom_torsion_publ_flag
O001 C006 C009 C00E 179.4(3) . . . . ?
O001 C006 C009 C00H -0.7(4) . . . . ?
N002 C00B C00G C00J -179.2(3) . . . . ?
N3 C00D C00K C00J 177.8(3) . . . . ?
O8 N3 C00D C00A 6.0(5) . . . . ?
O8 N3 C00D C00K -172.9(3) . . . . ?
C005 C006 C009 C00E 1.1(4) . . . . ?
C005 C006 C009 C00H -179.0(3) . . . . ?
C006 C005 C00C N002 1.4(5) . . . . ?
C006 C005 C00F C008 -0.5(5) . . . . ?
C006 C009 C00E C008 -0.7(5) . . . . ?
C006 C009 C00H C00L 61.4(4) . . . . ?
C006 C009 C00H C00M -59.4(4) . . . . ?
C006 C009 C00H C00N -179.8(3) . . . . ?
O007 N3 C00D C00A -173.9(3) . . . . ?
O007 N3 C00D C00K 7.3(4) . . . . ?
C00A C00B C00G C00J -1.3(5) . . . . ?
C00A C00D C00K C00J -1.0(5) . . . . ?
C00B N002 C00C C005 -177.0(3) . . . . ?
C00B C00A C00D N3 -177.7(2) . . . . ?
C00B C00A C00D C00K 1.1(4) . . . . ?
C00B C00G C00J C00K 1.4(5) . . . . ?
C00C N002 C00B C00A 47.2(4) . . . . ?
C00C N002 C00B C00G -134.9(3) . . . . ?
C00C C005 C006 O001 1.3(4) . . . . ?
C00C C005 C006 C009 179.6(3) . . . . ?
C00C C005 C00F C008 179.3(3) . . . . ?
C00D C00A C00B N002 177.9(2) . . . . ?
C00D C00A C00B C00G 0.1(4) . . . . ?
C00E C008 C00F C005 0.9(4) . . . . ?
C00E C008 C00I C00O -176.1(4) . . . . ?
C00E C008 C00I C00P -56.7(5) . . . . ?
C00E C008 C00I C00Q 62.4(5) . . . . ?
C00E C008 C00I C00R 121.3(8) . . . . ?
C00E C008 C00I C1 -124.6(9) . . . . ?
C00E C008 C00I C2 4.2(12) . . . . ?
C00E C009 C00H C00L -118.7(3) . . . . ?
C00E C009 C00H C00M 120.5(3) . . . . ?
C00E C009 C00H C00N 0.1(4) . . . . ?
C00F C005 C006 O001 -178.9(2) . . . . ?
C00F C005 C006 C009 -0.6(4) . . . . ?
C00F C005 C00C N002 -178.4(3) . . . . ?
C00F C008 C00E C009 -0.3(5) . . . . ?
C00F C008 C00I C00O 4.5(6) . . . . ?
C00F C008 C00I C00P 123.9(4) . . . . ?
C00F C008 C00I C00Q -117.0(5) . . . . ?
C00F C008 C00I C00R -58.1(8) . . . . ?
C00F C008 C00I C1 56.0(9) . . . . ?
C00F C008 C00I C2 -175.2(11) . . . . ?
C00G C00J C00K C00D -0.3(5) . . . . ?
C00H C009 C00E C008 179.4(3) . . . . ?
C00I C008 C00E C009 -179.8(3) . . . . ?
C00I C008 C00F C005 -179.7(3) . . . . ?
