#------------------------------------------------------------------------------
#$Date: 2024-02-04 13:32:48 +0200 (Sun, 04 Feb 2024) $
#$Revision: 289423 $
#$URL: file:///home/coder/svn-repositories/cod/cif/1/57/04/1570492.cif $
#------------------------------------------------------------------------------
#
# This file is available in the Crystallography Open Database (COD),
# http://www.crystallography.net/
#
# All data on this site have been placed in the public domain by the
# contributors.
#
data_1570492
loop_
_publ_author_name
'Zhang, Rong'
'Lan, Jiajing'
'Wang, Fei'
'Chen, Shumei'
'Zhang, Jian'
_publ_section_title
;
 Aggregate assembly of ferrocene functionalized indium-oxo clusters.
;
_journal_issue                   2
_journal_name_full               'Chemical science'
_journal_page_first              726
_journal_page_last               735
_journal_paper_doi               10.1039/d3sc05824g
_journal_volume                  15
_journal_year                    2024
_chemical_formula_moiety         'C92 H96 Fe6 In13 N6 O46'
_chemical_formula_sum            'C92 H96 Fe6 In13 N6 O46'
_chemical_formula_weight         3849.50
_space_group_crystal_system      monoclinic
_space_group_IT_number           15
_space_group_name_Hall           '-I 2ya'
_space_group_name_H-M_alt        'I 1 2/a 1'
_atom_sites_solution_hydrogens   mixed
_atom_sites_solution_primary     iterative
_audit_creation_date             2023-07-11
_audit_creation_method
;
Olex2 1.5
(compiled 2022.04.07 svn.rca3783a0 for OlexSys, GUI svn.r6498)
;
_audit_update_record
;
2023-07-14 deposited with the CCDC.	2023-11-23 downloaded from the CCDC.
;
_cell_angle_alpha                90
_cell_angle_beta                 94.0511(7)
_cell_angle_gamma                90
_cell_formula_units_Z            4
_cell_length_a                   27.37206(19)
_cell_length_b                   15.00755(12)
_cell_length_c                   31.8968(3)
_cell_measurement_reflns_used    33620
_cell_measurement_temperature    100.01(10)
_cell_measurement_theta_max      60.9610
_cell_measurement_theta_min      2.4020
_cell_volume                     13070.07(19)
_computing_cell_refinement       'CrysAlisPro 1.171.41.93a (Rigaku OD, 2020)'
_computing_data_collection       'CrysAlisPro 1.171.41.93a (Rigaku OD, 2020)'
_computing_data_reduction        'CrysAlisPro 1.171.41.93a (Rigaku OD, 2020)'
_computing_molecular_graphics    'Olex2 1.5 (Dolomanov et al., 2009)'
_computing_publication_material  'Olex2 1.5 (Dolomanov et al., 2009)'
_computing_structure_refinement  'SHELXL 2017/1 (Sheldrick, 2015)'
_computing_structure_solution    'olex2.solve 1.5 (Bourhis et al., 2015)'
_diffrn_ambient_environment      N~2~
_diffrn_ambient_temperature      100.01(10)
_diffrn_detector                 'Hybrid Pixel Array Detector'
_diffrn_detector_area_resol_mean 10.0000
_diffrn_detector_type            HyPix
_diffrn_measured_fraction_theta_full 0.998
_diffrn_measured_fraction_theta_max 0.969
_diffrn_measurement_details
;
List of Runs (angles in degrees, time in seconds):

  # Type    Start    End  Width  t~exp~   \w     \q     \k     \f   Frames
#--------------------------------------------------------------------------
  1  \w     51.00 141.00   0.50    0.27    --   74.47  77.00 150.00  180
  2  \w    108.00 146.00   0.50    0.27    --   74.47  77.00  90.00   76
  3  \w     52.00  90.00   0.50    0.27    --   74.47  77.00  90.00   76
  4  \w     65.00 146.00   0.50    0.27    --   74.47  45.00  55.00  162
  5  \w     80.00 132.00   0.50    0.27    --   74.47 125.00 -60.00  104
  6  \w     19.00  75.00   0.50    0.27    --   74.47 -45.00 -94.00  112
  7  \w     14.00  67.00   0.50    0.27    --   74.47 -38.00  60.00  106
  8  \w     44.00  69.00   0.50    0.06    --   -0.31  45.00  55.00   50
  9  \w    -51.00 -25.00   0.50    0.27    --  -75.09  45.00  55.00   52
 10  \w    -12.00  38.00   0.50    0.06    --   -0.31  45.00  55.00  100
 11  \w    -61.00  -1.00   0.50    0.27    --  -75.09  38.00-120.00  120
 12  \w    -10.00  16.00   0.50    0.06    --   -0.31  38.00-180.00   52
 13  \w    -70.00  -3.00   0.50    0.06    --   -0.31 -45.00 -94.00  134
 14  \w   -144.00 -91.00   0.50    0.27    --  -75.09-125.00   0.00  106
 15  \w   -114.00 -83.00   0.50    0.27    --  -75.09 -45.00 -94.00   62
 16  \w   -146.00 -98.00   0.50    0.27    --  -75.09 -99.00-150.00   96
;
_diffrn_measurement_device       'four-circle diffractometer'
_diffrn_measurement_device_type  'ROD, Synergy Custom system, HyPix'
_diffrn_measurement_method       '\w scans'
_diffrn_orient_matrix_type
'CrysAlisPro convention (1999,Acta A55,543-557)'
_diffrn_orient_matrix_UB_11      0.0415007000
_diffrn_orient_matrix_UB_12      -0.0469861000
_diffrn_orient_matrix_UB_13      -0.0008771000
_diffrn_orient_matrix_UB_21      0.0013732000
_diffrn_orient_matrix_UB_22      0.0174299000
_diffrn_orient_matrix_UB_23      -0.0410699000
_diffrn_orient_matrix_UB_31      0.0260945000
_diffrn_orient_matrix_UB_32      0.0738576000
_diffrn_orient_matrix_UB_33      0.0091571000
_diffrn_radiation_monochromator  mirror
_diffrn_radiation_probe          x-ray
_diffrn_radiation_type           GaK\a
_diffrn_radiation_wavelength     1.3405
_diffrn_reflns_av_R_equivalents  0.0587
_diffrn_reflns_av_unetI/netI     0.0429
_diffrn_reflns_Laue_measured_fraction_full 0.998
_diffrn_reflns_Laue_measured_fraction_max 0.969
_diffrn_reflns_limit_h_max       35
_diffrn_reflns_limit_h_min       -35
_diffrn_reflns_limit_k_max       18
_diffrn_reflns_limit_k_min       -19
_diffrn_reflns_limit_l_max       40
_diffrn_reflns_limit_l_min       -41
_diffrn_reflns_number            49091
_diffrn_reflns_point_group_measured_fraction_full 0.998
_diffrn_reflns_point_group_measured_fraction_max 0.969
_diffrn_reflns_theta_full        53.543
_diffrn_reflns_theta_max         61.176
_diffrn_reflns_theta_min         2.415
_diffrn_source                   'micro-focus metaljet'
_exptl_absorpt_coefficient_mu    15.915
_exptl_absorpt_correction_T_max  1.00000
_exptl_absorpt_correction_T_min  0.18204
_exptl_absorpt_correction_type   multi-scan
_exptl_absorpt_process_details
;
CrysAlisPro 1.171.41.93a (Rigaku Oxford Diffraction, 2020)
Empirical absorption correction using spherical harmonics,
implemented in SCALE3 ABSPACK scaling algorithm.
;
_exptl_crystal_colour            'clear orangish orange'
_exptl_crystal_colour_lustre     clear
_exptl_crystal_colour_modifier   orangish
_exptl_crystal_colour_primary    orange
_exptl_crystal_density_diffrn    1.956
_exptl_crystal_description       block
_exptl_crystal_F_000             7404
_exptl_crystal_size_max          0.2
_exptl_crystal_size_mid          0.1
_exptl_crystal_size_min          0.1
_refine_diff_density_max         3.063
_refine_diff_density_min         -3.605
_refine_diff_density_rms         0.321
_refine_ls_extinction_method     none
_refine_ls_goodness_of_fit_ref   1.082
_refine_ls_hydrogen_treatment    constr
_refine_ls_matrix_type           full
_refine_ls_number_parameters     743
_refine_ls_number_reflns         14802
_refine_ls_number_restraints     4
_refine_ls_restrained_S_all      3.577
_refine_ls_R_factor_all          0.0685
_refine_ls_R_factor_gt           0.0641
_refine_ls_shift/su_max          0.002
_refine_ls_shift/su_mean         0.000
_refine_ls_structure_factor_coef Fsqd
_refine_ls_weighting_details
'w=1/[\s^2^(Fo^2^)+(0.1435P)^2^+20.7721P] where P=(Fo^2^+2Fc^2^)/3'
_refine_ls_weighting_scheme      calc
_refine_ls_wR_factor_gt          0.1829
_refine_ls_wR_factor_ref         0.1872
_reflns_Friedel_coverage         0.000
_reflns_number_gt                13203
_reflns_number_total             14802
_reflns_threshold_expression     'I > 2\s(I)'
_cod_data_source_file            d3sc05824g2.cif
_cod_data_source_block           hy_CCDC3
_cod_depositor_comments
'Adding full bibliography for 1570485--1570493.cif.'
_cod_original_cell_volume        13070.05(17)
_cod_database_code               1570492
_shelx_shelxl_version_number     2017/1
_chemical_oxdiff_formula         'In Fe C N O H'
_shelx_space_group_comment
;
The symmetry employed for this shelxl refinement is uniquely defined
by the following loop, which should always be used as a source of
symmetry information in preference to the above space-group names.
They are only intended as comments.
;
_shelx_estimated_absorpt_t_max   0.299
_shelx_estimated_absorpt_t_min   0.143
_olex2_refinement_description
;
1. Fixed Uiso
 At 1.2 times of:
  All C(H) groups, All N(H) groups
 At 1.5 times of:
  All C(H,H,H) groups, All O(H,H) groups
2. Restrained distances
 H2B-O2
 0.87 with sigma of 0.002
 H2A-H2B
 1.87 with sigma of 0.002
 O2-H2B
 0.87 with sigma of 0.002
 H2A-O2
 0.87 with sigma of 0.002
3.a Rotating group:
 O2(H2A,H2B)
3.b Aromatic/amide H refined with riding coordinates:
 N4(H4), C3(H3), C5(H5), C8(H8), C10(H10), C12(H12), C14(H14), C16(H16),
 C18(H18), C19(H19), C20(H20), C21(H21), C22(H22), C23(H23), C24(H24), C26(H26),
  C28(H28), C32(H32), C34(H34), C35(H35), C36(H36), C37(H37), C38(H38),
 C39(H39), C40(H40), C41(H41), C42(H42), C46(H46)
3.c Idealised Me refined as rotating group:
 C30(H30A,H30B,H30C), C31(H31A,H31B,H31C), C33(H33A,H33B,H33C), C43(H43A,H43B,
 H43C), C44(H44A,H44B,H44C), C45(H45A,H45B,H45C)
;
_shelx_res_file
;
TITL hy_a.res in I2/a
    hy.res
    created by SHELXL-2017/1 at 11:29:12 on 11-Jul-2023
REM Old TITL hy_a.res in I2/a
REM SHELXT solution in I2/a
REM R1 0.098, Rweak 0.004, Alpha 0.043, Orientation as input
REM Formula found by SHELXT: C86 N14 O46 Fe6 In13
CELL 1.3405 27.372056 15.007551 31.896764 90 94.0511 90
ZERR 4 0.000189 0.000115 0.000263 0 0.0007 0
LATT 2
SYMM 0.5-X,+Y,-Z
SFAC C H Fe In N O
DISP C 0.0147 0.007 57.608
DISP Fe -0.2758 2.5767 18844.2355
DISP H -0 0 0.6481
DISP In 0.1337 3.9104 30156.1191
DISP N 0.0253 0.0135 110.2408
DISP O 0.0412 0.025 193.4765
UNIT 368 384 24 52 24 184
DFIX 0.87 0.002 H2b O2
DFIX 1.87 0.002 H2a H2b
DFIX 0.87 0.002 O2 H2b
DFIX 0.87 0.002 H2a O2

L.S. 50
PLAN  20
SIZE 0.1 0.1 0.2
TEMP -173
CONF
BOND $H
htab
list 4
MORE -1
ABIN
fmap 2
acta
REM <olex2.extras>
REM <HklSrc "%.\\HY.hkl">
REM </olex2.extras>

WGHT    0.143500   20.772100
FVAR       0.06425
IN1   4    0.747676    0.016680    0.695419    11.00000    0.02003    0.01030 =
         0.02323   -0.00032    0.00328    0.00043
IN2   4    0.750000    0.250000    0.750000    10.50000    0.01620    0.00853 =
         0.01894    0.00129    0.00358    0.00056
IN3   4    0.669984    0.205935    0.645290    11.00000    0.02027    0.01208 =
         0.02186    0.00058    0.00173   -0.00045
IN4   4    0.682901    0.415552    0.705706    11.00000    0.01672    0.00942 =
         0.02003    0.00118    0.00323    0.00063
IN5   4    0.651499    0.322153    0.795009    11.00000    0.01684    0.00954 =
         0.02089    0.00161    0.00415    0.00072
IN6   4    0.781769    0.343442    0.661329    11.00000    0.01687    0.01040 =
         0.02002    0.00171    0.00360    0.00060
IN7   4    0.632797    0.100526    0.748184    11.00000    0.01863    0.01204 =
         0.02309    0.00217    0.00397   -0.00021
FE1   3    0.633052    0.414645    0.525907    11.00000    0.01781    0.02050 =
         0.01838    0.00094    0.00379    0.00524
FE2   3    0.521665    0.055908    0.865065    11.00000    0.01684    0.01272 =
         0.02424    0.00037    0.00465   -0.00153
FE3   3    0.616946    0.704412    0.804560    11.00000    0.03069    0.01265 =
         0.03744   -0.00336    0.00195    0.00566
O1    6    0.724699    0.108368    0.649613    11.00000    0.02320    0.01512 =
         0.02305   -0.00019    0.00436    0.00248
O23   6    0.706825    0.252276    0.590792    11.00000    0.02484    0.02281 =
         0.02358    0.00069    0.00776    0.00408
O3    6    0.815792    0.303480    0.722086    11.00000    0.01877    0.00968 =
         0.01662    0.00084    0.00276    0.00053
O4    6    0.784426    0.122975    0.732096    11.00000    0.01923    0.00622 =
         0.01795    0.00344    0.00364    0.00234
O5    6    0.747512    0.380836    0.601443    11.00000    0.02597    0.02126 =
         0.02645    0.00458    0.00295    0.00446
O6    6    0.807403    0.211407    0.646592    11.00000    0.02248    0.01219 =
         0.01948    0.00064    0.00266    0.00071
O7    6    0.751233    0.465361    0.684965    11.00000    0.01680    0.00854 =
         0.02639    0.00511    0.00401   -0.00090
O8    6    0.715865    0.290919    0.687792    11.00000    0.01827    0.00790 =
         0.02350    0.00263    0.00718    0.00135
O9    6    0.625597    0.178727    0.694883    11.00000    0.01890    0.02533 =
         0.02479    0.00963    0.00044   -0.00088
O10   6    0.621626    0.348290    0.731826    11.00000    0.01876    0.01065 =
         0.02369   -0.00056    0.00401   -0.00089
O11   6    0.690862    0.016808    0.736229    11.00000    0.01921    0.01065 =
         0.02875    0.00137    0.00707    0.00132
O12   6    0.617605    0.311344    0.630428    11.00000    0.01790    0.01925 =
         0.02624    0.00306    0.00619    0.00093
O13   6    0.654932    0.097628    0.864993    11.00000    0.02061    0.01445 =
         0.02337    0.00049    0.00443   -0.00152
O14   6    0.646686    0.449400    0.644794    11.00000    0.02361    0.01823 =
         0.02688    0.00027    0.00728    0.00254
O15   6    0.588846    0.263837    0.821977    11.00000    0.01807    0.01675 =
         0.03081    0.00607    0.00924    0.00093
O16   6    0.631654    0.024580    0.805884    11.00000    0.02549    0.01427 =
         0.02561    0.00461    0.00764    0.00205
O17   6    0.618088    0.445401    0.811760    11.00000    0.02777    0.01376 =
         0.02814   -0.00075    0.00896    0.00569
O18   6    0.652592    0.542799    0.722097    11.00000    0.02540    0.00551 =
         0.02618    0.00019    0.00070    0.00517
O19   6    0.687783    0.507048    0.839831    11.00000    0.02859    0.01762 =
         0.02806    0.00024    0.01037    0.00485
O20   6    0.568459    0.166336    0.771099    11.00000    0.02335    0.01979 =
         0.02328    0.00156    0.00410    0.00550
O21   6    0.721137    0.581149    0.760868    11.00000    0.02513    0.01663 =
         0.03451    0.00166    0.00561    0.00189
O22   6    0.579124    0.007118    0.720336    11.00000    0.03499    0.01807 =
         0.03624    0.00010   -0.00052   -0.00439
N1    5    0.713289   -0.096963    0.660182    11.00000    0.04262    0.01341 =
         0.03657   -0.00474    0.00205   -0.00462
O2    6    0.623211    0.119568    0.600066    11.00000    0.03065    0.02882 =
         0.05505    0.00030    0.00262   -0.00348
AFIX   7
H2A   2    0.575679    0.108806    0.594676    11.00000   -1.50000
H2B   2    0.634563    0.063419    0.570847    11.00000   -1.50000
AFIX   0
N3    5    0.554499   -0.073553    0.662952    11.00000    0.05507    0.04236 =
         0.06221   -0.01411   -0.00614   -0.01511
N4    5    0.689955   -0.198937    0.614582    11.00000    0.14732    0.07483 =
         0.06860   -0.02861   -0.01120   -0.05176
AFIX  43
H4    2    0.684385   -0.226628    0.590398    11.00000   -1.20000
AFIX   0
C1    1    0.711896   -0.119357    0.620054    11.00000    0.08763    0.05243 =
         0.04706   -0.00882   -0.00040   -0.02566
C2    1    0.719560    0.328629    0.579706    11.00000    0.02020    0.01802 =
         0.02913    0.00156    0.00945    0.00427
C3    1    0.704271    0.449479    0.522275    11.00000    0.01958    0.03148 =
         0.02949    0.00917    0.00406    0.00372
AFIX  43
H3    2    0.720106    0.498492    0.536331    11.00000   -1.20000
AFIX   0
C4    1    0.599672    0.424246    0.580557    11.00000    0.02091    0.01856 =
         0.02592   -0.00044    0.00512    0.00438
C5    1    0.571229    0.368196    0.550949    11.00000    0.01738    0.02720 =
         0.02815   -0.00241    0.00236   -0.00021
AFIX  43
H5    2    0.562735    0.307568    0.554959    11.00000   -1.20000
AFIX   0
C6    1    0.700730    0.361704    0.538049    11.00000    0.01944    0.02531 =
         0.02306    0.00493    0.00517    0.00501
C7    1    0.623120    0.393024    0.620992    11.00000    0.01272    0.02357 =
         0.02380    0.00224    0.00571    0.00247
C8    1    0.558530    0.420435    0.515106    11.00000    0.01517    0.04228 =
         0.02879   -0.00261    0.00215    0.00552
AFIX  43
H8    2    0.539918    0.400655    0.490598    11.00000   -1.20000
AFIX   0
C9    1    0.588093   -0.001705    0.864875    11.00000    0.01482    0.01361 =
         0.02481    0.00433    0.00189   -0.00231
C10   1    0.517449   -0.079850    0.873738    11.00000    0.02043    0.01157 =
         0.03652    0.00024    0.00256   -0.00273
AFIX  43
H10   2    0.489333   -0.116453    0.868684    11.00000   -1.20000
AFIX   0
C11   1    0.627414    0.043350    0.844049    11.00000    0.02282    0.01182 =
         0.02976    0.00238    0.00880    0.00237
C12   1    0.532159   -0.037636    0.912010    11.00000    0.02579    0.02176 =
         0.03247    0.00639    0.01029    0.00147
AFIX  43
H12   2    0.515502   -0.041101    0.937098    11.00000   -1.20000
AFIX   0
C13   1    0.678271    0.596745    0.745180    11.00000    0.02314    0.00878 =
         0.03021    0.00201    0.00494   -0.00262
C14   1    0.551819   -0.058336    0.844031    11.00000    0.02111    0.01233 =
         0.02543    0.00039    0.00120    0.00076
AFIX  43
H14   2    0.550964   -0.077799    0.815647    11.00000   -1.20000
AFIX   0
C15   1    0.522338    0.169195    0.830072    11.00000    0.02183    0.01016 =
         0.03757    0.00915    0.00969    0.00144
C16   1    0.575508    0.010502    0.907091    11.00000    0.02409    0.02491 =
         0.02041    0.00560    0.00232   -0.00302
AFIX  43
H16   2    0.593164    0.044873    0.928089    11.00000   -1.20000
AFIX   0
C17   1    0.563257    0.200897    0.806653    11.00000    0.01336    0.01473 =
         0.03028    0.00052    0.00658    0.00542
C18   1    0.604000    0.510171    0.562531    11.00000    0.02419    0.01899 =
         0.02410   -0.00052    0.00284    0.00457
AFIX  43
H18   2    0.620807    0.559806    0.575155    11.00000   -1.20000
AFIX   0
C19   1    0.578232    0.508198    0.521612    11.00000    0.02487    0.02978 =
         0.02325    0.00118    0.00584    0.01346
AFIX  43
H19   2    0.574886    0.556470    0.502356    11.00000   -1.20000
AFIX   0
C20   1    0.679825    0.450611    0.481661    11.00000    0.02091    0.04740 =
         0.02368    0.01153    0.00498    0.00296
AFIX  43
H20   2    0.676440    0.500824    0.463553    11.00000   -1.20000
AFIX   0
C21   1    0.673430    0.307409    0.507659    11.00000    0.03080    0.03043 =
         0.02502   -0.00719    0.00496    0.00868
AFIX  43
H21   2    0.665141    0.246292    0.510291    11.00000   -1.20000
AFIX   0
C22   1    0.484327    0.110839    0.814237    11.00000    0.01852    0.01971 =
         0.03358    0.00608   -0.00006    0.00099
AFIX  43
H22   2    0.480998    0.085620    0.786866    11.00000   -1.20000
AFIX   0
C23   1    0.661346    0.364441    0.472670    11.00000    0.02899    0.04781 =
         0.02625   -0.00880    0.00624    0.01459
AFIX  43
H23   2    0.643632    0.347104    0.447293    11.00000   -1.20000
AFIX   0
C24   1    0.514017    0.191394    0.872722    11.00000    0.02672    0.01143 =
         0.03927    0.00263    0.01221    0.00177
AFIX  43
H24   2    0.533772    0.229003    0.890890    11.00000   -1.20000
AFIX   0
C25   1    0.642442    0.508925    0.829575    11.00000    0.02971    0.01243 =
         0.02881   -0.00263    0.01509   -0.00183
C26   1    0.451934    0.097062    0.847202    11.00000    0.01564    0.01508 =
         0.04045    0.00620    0.00607    0.00133
AFIX  43
H26   2    0.423238    0.061267    0.845411    11.00000   -1.20000
AFIX   0
C27   1    0.657092    0.684572    0.754463    11.00000    0.02923    0.01051 =
         0.03666    0.00045    0.00032    0.00431
C28   1    0.470238    0.146064    0.882729    11.00000    0.02511    0.01907 =
         0.03691   -0.00140    0.00678   -0.00310
AFIX  43
H28   2    0.455880    0.148565    0.908963    11.00000   -1.20000
AFIX   0
C29   1    0.614696    0.590355    0.838835    11.00000    0.03356    0.01221 =
         0.03151    0.00167    0.00841    0.00455
C30   1    0.572067    0.380987    0.724070    11.00000    0.02691    0.03206 =
         0.03682    0.00883    0.00416    0.00900
AFIX 137
H30A  2    0.568023    0.435680    0.740250    11.00000   -1.50000
H30B  2    0.548951    0.335777    0.732666    11.00000   -1.50000
H30C  2    0.565671    0.393642    0.694042    11.00000   -1.50000
AFIX   0
C31   1    0.827761    0.191780    0.606991    11.00000    0.04274    0.02874 =
         0.03613   -0.00076    0.01024    0.00534
AFIX 137
H31A  2    0.858500    0.224598    0.605219    11.00000   -1.50000
H31B  2    0.804473    0.209761    0.583785    11.00000   -1.50000
H31C  2    0.834105    0.127683    0.605140    11.00000   -1.50000
AFIX   0
C32   1    0.610385    0.717103    0.740478    11.00000    0.02373    0.01779 =
         0.03739    0.00392   -0.00266    0.00372
AFIX  43
H32   2    0.587044    0.688148    0.721678    11.00000   -1.20000
AFIX   0
C33   1    0.750735    0.544474    0.660113    11.00000    0.02755    0.02103 =
         0.03498    0.00295    0.00284    0.00329
AFIX 137
H33A  2    0.721896    0.544114    0.640075    11.00000   -1.50000
H33B  2    0.780473    0.546930    0.644751    11.00000   -1.50000
H33C  2    0.749494    0.596704    0.678448    11.00000   -1.50000
AFIX   0
C34   1    0.681360    0.749178    0.782434    11.00000    0.03199    0.02248 =
         0.03982   -0.00508   -0.00073    0.00019
AFIX  43
H34   2    0.713231    0.744817    0.796137    11.00000   -1.20000
AFIX   0
C35   1    0.647505    0.820681    0.785144    11.00000    0.04259    0.01340 =
         0.03870   -0.00167    0.00349    0.00219
AFIX  43
H35   2    0.653102    0.873010    0.801543    11.00000   -1.20000
AFIX   0
C36   1    0.634123    0.663088    0.864987    11.00000    0.05869    0.01976 =
         0.03051   -0.00384    0.00165   -0.00049
AFIX  43
H36   2    0.665330    0.665869    0.879985    11.00000   -1.20000
AFIX   0
C37   1    0.586418   -0.022420    0.683433    11.00000    0.04714    0.03761 =
         0.04564   -0.00672    0.00672   -0.01336
AFIX  43
H37   2    0.615653   -0.006644    0.670862    11.00000   -1.20000
AFIX   0
C38   1    0.566890    0.614310    0.823141    11.00000    0.03342    0.01526 =
         0.05642   -0.00072    0.01153    0.00349
AFIX  43
H38   2    0.545524    0.578934    0.805247    11.00000   -1.20000
AFIX   0
C39   1    0.596880    0.729341    0.863565    11.00000    0.07647    0.01799 =
         0.04849   -0.00230    0.02019    0.01376
AFIX  43
H39   2    0.599461    0.785184    0.877572    11.00000   -1.20000
AFIX   0
C40   1    0.604859    0.802197    0.760049    11.00000    0.03660    0.01746 =
         0.05127    0.00335    0.00584    0.01256
AFIX  43
H40   2    0.576894    0.839660    0.756527    11.00000   -1.20000
AFIX   0
C41   1    0.556248    0.700612    0.838765    11.00000    0.03478    0.02688 =
         0.06690    0.00016    0.01619    0.01675
AFIX  43
H41   2    0.526599    0.732750    0.833188    11.00000   -1.20000
AFIX   0
C42   1    0.690876   -0.165102    0.679751    11.00000    0.05592    0.02686 =
         0.05922   -0.00633    0.00327   -0.00762
AFIX  43
H42   2    0.685356   -0.166406    0.708816    11.00000   -1.20000
AFIX   0
C43   1    0.509957   -0.101153    0.681700    11.00000    0.03406    0.04940 =
         0.10553   -0.01823   -0.00503   -0.00474
AFIX 137
H43A  2    0.513357   -0.163065    0.691231    11.00000   -1.50000
H43B  2    0.482096   -0.096348    0.660773    11.00000   -1.50000
H43C  2    0.504430   -0.062630    0.705717    11.00000   -1.50000
AFIX   0
C44   1    0.565544   -0.109907    0.622223    11.00000    0.10910    0.08668 =
         0.10072   -0.04279   -0.00351   -0.02289
AFIX 137
H44A  2    0.589031   -0.070989    0.609348    11.00000   -1.50000
H44B  2    0.535349   -0.113537    0.603870    11.00000   -1.50000
H44C  2    0.579665   -0.169593    0.626118    11.00000   -1.50000
AFIX   0
C45   1    0.731768   -0.067612    0.585718    11.00000    0.11292    0.10854 =
         0.06127    0.00380    0.00695   -0.03677
AFIX 137
H45A  2    0.704692   -0.044260    0.567163    11.00000   -1.50000
H45B  2    0.752363   -0.106295    0.569590    11.00000   -1.50000
H45C  2    0.751432   -0.017956    0.597625    11.00000   -1.50000
AFIX   0
C46   1    0.677802   -0.229594    0.652413    11.00000    0.08342    0.06095 =
         0.06530   -0.00949    0.01077   -0.02351
AFIX  43
H46   2    0.663103   -0.285164    0.658241    11.00000   -1.20000
AFIX   0
HKLF 4




REM  hy_a.res in I2/a
REM R1 =  0.0641 for   13203 Fo > 4sig(Fo)  and  0.0685 for all   14802 data
REM    743 parameters refined using      4 restraints

END

WGHT      0.1435     20.7890

REM Instructions for potential hydrogen bonds
HTAB C30 O17
EQIV $1 -x+3/2, -y+1/2, -z+3/2
HTAB C31 O15_$1
HTAB C33 O14
HTAB C45 O1
HTAB C45 O19_$1

REM Highest difference peak  3.063,  deepest hole -3.605,  1-sigma level  0.321
Q1    1   0.7782  0.3407  0.6342  11.00000  0.05    3.06
Q2    1   0.7469  0.2551  0.7228  11.00000  0.05    2.92
Q3    1   0.7174  0.0186  0.6973  11.00000  0.05    2.84
Q4    1   0.6300  0.1130  0.7211  11.00000  0.05    2.77
Q5    1   0.6863  0.4105  0.7343  11.00000  0.05    2.75
Q6    1   0.7870  0.3459  0.6901  11.00000  0.05    2.73
Q7    1   0.6797  0.4238  0.6783  11.00000  0.05    2.71
Q8    1   0.6410  0.2019  0.6471  11.00000  0.05    2.69
Q9    1   0.6473  0.3358  0.7677  11.00000  0.05    2.68
Q10   1   0.6811  0.3244  0.7936  11.00000  0.05    2.60
Q11   1   0.6679  0.2070  0.6181  11.00000  0.05    2.58
Q12   1   0.6372  0.0999  0.7770  11.00000  0.05    2.56
Q13   1   0.7504  0.0181  0.7219  11.00000  0.05    2.52
Q14   1   0.6721  0.2121  0.6722  11.00000  0.05    2.51
Q15   1   0.6200  0.3165  0.7961  11.00000  0.05    2.50
Q16   1   0.8121  0.3540  0.6600  11.00000  0.05    2.49
Q17   1   0.7533  0.3517  0.6623  11.00000  0.05    2.49
Q18   1   0.6018  0.0882  0.7495  11.00000  0.05    2.48
Q19   1   0.6549  0.3155  0.8219  11.00000  0.05    2.48
Q20   1   0.7799  0.2574  0.7490  11.00000  0.05    2.47
;
_shelx_res_checksum              50893
_shelx_fab_file
;
0 0 -40 -4.4533 -7.1460
0 0 -38 -2.2197 -9.2860
0 0 -36 -0.2178 -10.0572
0 0 -34 3.0389 -6.4434
0 0 -32 7.9483 -2.7121
0 0 -30 5.6153 -2.2063
0 0 -28 -1.8046 0.6367
0 0 -26 -1.9560 7.2196
0 0 -24 -0.1779 9.8835
0 0 -22 -6.8878 8.3604
0 0 -20 -10.7412 11.1159
0 0 -18 -3.9331 15.8405
0 0 -16 -8.8172 11.9225
0 0 -14 -40.0073 4.0613
0 0 -12 -70.9261 4.3434
0 0 -10 -73.3912 3.9192
0 0 -8 -29.2302 -8.3634
0 0 -6 135.3459 -11.9488
0 0 -4 499.0805 9.0061
0 0 -2 943.3771 21.9147
0 1 -41 8.4929 5.4515
0 1 -39 3.4195 1.0222
0 1 -37 -2.5654 -0.1906
0 1 -35 -4.2143 0.4423
0 1 -33 -3.1414 -0.8615
0 1 -31 -2.1858 -1.7651
0 1 -29 -2.3202 -1.0151
0 1 -27 -3.9080 -1.2670
0 1 -25 -3.8865 -1.2152
0 1 -23 1.6658 1.1732
0 1 -21 9.1066 2.1255
0 1 -19 8.4992 0.3618
0 1 -17 -1.7602 0.7482
0 1 -15 -8.0576 3.2782
0 1 -13 -0.9043 2.9481
0 1 -11 10.9538 0.6355
0 1 -9 15.3430 0.5664
0 1 -7 -6.0962 1.0195
0 1 -5 -91.2479 -2.7102
0 1 -3 -244.6434 -8.7062
0 1 -1 -377.3271 -8.8840
0 2 -40 4.5603 0.3790
0 2 -38 3.0244 0.2484
0 2 -36 1.1860 0.3677
0 2 -34 1.4398 -0.8252
0 2 -32 0.8217 -1.4979
0 2 -30 0.4815 -0.7419
0 2 -28 2.0245 -1.2481
0 2 -26 3.2185 -2.4432
0 2 -24 5.0163 -1.7132
0 2 -22 6.9355 -0.6306
0 2 -20 5.0529 -1.1682
0 2 -18 5.8038 -1.7110
0 2 -16 19.0417 -0.4799
0 2 -14 36.5918 1.6108
0 2 -12 39.0633 2.0827
0 2 -10 17.4299 1.1411
0 2 -8 -21.6409 1.8120
0 2 -6 -66.0245 2.7795
0 2 -4 -110.0089 0.4572
0 2 -2 -148.4688 -1.4593
0 3 -39 -5.2391 1.2706
0 3 -37 -0.6421 -0.7958
0 3 -35 -0.5399 -1.0230
0 3 -33 -0.3833 1.1652
0 3 -31 2.1810 0.6800
0 3 -29 3.0641 -1.1699
0 3 -27 1.8249 0.2325
0 3 -25 -1.4568 1.4810
0 3 -23 -5.8393 -0.1129
0 3 -21 -4.0130 0.0938
0 3 -19 4.7531 2.0712
0 3 -17 8.2283 1.1391
0 3 -15 -0.7633 -0.5488
0 3 -13 -10.0822 0.0772
0 3 -11 1.9281 -0.0022
0 3 -9 32.8905 -0.8932
0 3 -7 40.5884 0.1692
0 3 -5 -9.1626 0.1784
0 3 -3 -91.7717 -2.7151
0 4 -38 -4.1177 3.3038
0 4 -36 -1.7878 1.4208
0 4 -34 4.0677 0.3388
0 4 -32 5.4792 0.4356
0 4 -30 2.3299 0.3378
0 4 -28 -0.1454 0.6620
0 4 -26 -0.7339 1.7643
0 4 -24 -0.5268 1.9732
0 4 -22 0.2344 0.5195
0 4 -20 -0.5731 -1.0466
0 4 -18 -5.3061 -0.8038
0 4 -16 -9.4618 0.2941
0 4 -14 -9.2659 -0.5800
0 4 -12 -12.9577 -2.3132
0 4 -10 -19.6586 -1.8332
0 4 -8 -5.4211 -0.8527
0 4 -6 35.8311 -1.5490
0 4 -4 71.1474 -1.6842
0 4 -2 78.0962 -0.5057
0 4 0 74.6720 -0.3612
0 5 -39 1.2344 0.4711
0 5 -37 1.3431 0.6267
0 5 -35 2.2023 1.0847
0 5 -33 1.1777 1.4895
0 5 -31 -2.0240 1.2967
0 5 -29 -5.4094 0.2826
0 5 -27 -7.6463 -0.9786
0 5 -25 -5.2674 -0.9143
0 5 -23 0.3496 -0.1504
0 5 -21 0.8219 -0.9120
0 5 -19 -1.9770 -2.0337
0 5 -17 -1.4965 -1.2959
0 5 -15 -4.4540 -0.4841
0 5 -13 -12.1170 -1.4491
0 5 -11 -13.5523 -1.7920
0 5 -9 -10.4882 0.0681
0 5 -7 -4.7988 1.3612
0 5 -5 17.2481 0.8608
0 5 -3 52.9261 0.9024
0 5 -1 77.9767 1.4270
0 6 -38 -0.6807 -0.7277
0 6 -36 -1.2262 0.6386
0 6 -34 -3.2970 0.4363
0 6 -32 -3.4673 -0.1105
0 6 -30 -1.5530 0.6334
0 6 -28 1.8714 1.0724
0 6 -26 3.9017 -0.0045
0 6 -24 -0.7684 -0.7529
0 6 -22 -6.4976 -0.4173
0 6 -20 -4.1509 -0.3761
0 6 -18 0.7483 -0.8839
0 6 -16 1.9812 -1.0661
0 6 -14 2.7688 -0.5787
0 6 -12 1.7861 0.0166
0 6 -10 -3.7173 -0.0612
0 6 -8 -11.4196 -0.0663
0 6 -6 -18.9943 0.9216
0 6 -4 -16.2978 1.2298
0 6 -2 3.2945 0.2534
0 6 0 16.6622 0.7303
0 7 -37 4.2376 3.2169
0 7 -35 6.4787 1.7000
0 7 -33 5.5900 -1.0060
0 7 -31 0.5181 -0.3483
0 7 -29 -5.4638 1.3476
0 7 -27 -7.3251 1.3067
0 7 -25 -3.5755 0.7050
0 7 -23 1.5377 0.6714
0 7 -21 2.4044 0.4784
0 7 -19 -0.1080 -0.3205
0 7 -17 1.3228 -0.9110
0 7 -15 9.3384 -0.8105
0 7 -13 14.8681 -0.5848
0 7 -11 9.0490 -0.6764
0 7 -9 -1.1568 -1.0687
0 7 -7 -3.7394 -1.3507
0 7 -5 -3.7388 -1.0975
0 7 -3 -13.6979 -0.5829
0 7 -1 -27.5404 0.2541
0 8 -36 -3.7125 1.0371
0 8 -34 -3.6312 2.0281
0 8 -32 -1.0744 0.8051
0 8 -30 8.0615 -0.5344
0 8 -28 14.5685 -0.4546
0 8 -26 7.3979 0.2102
0 8 -24 -5.6203 0.1638
0 8 -22 -11.7907 -0.5635
0 8 -20 -9.8473 -0.6233
0 8 -18 -2.9323 -0.0439
0 8 -16 3.4105 -0.3690
0 8 -14 5.0945 -1.2274
0 8 -12 7.8462 -1.1399
0 8 -10 12.3346 -0.3386
0 8 -8 8.5753 -0.0534
0 8 -6 -1.3625 -0.7239
0 8 -4 -6.9784 -0.8321
0 8 -2 -9.0306 0.6045
0 8 0 -10.1566 1.0973
0 9 -35 -5.1455 -2.0719
0 9 -33 -7.0508 -0.6756
0 9 -31 -3.3383 -0.9466
0 9 -29 -0.1922 -0.6401
0 9 -27 0.6268 0.4355
0 9 -25 2.2088 -0.5359
0 9 -23 5.1245 -1.7349
0 9 -21 6.6401 -0.4311
0 9 -19 2.2455 0.5566
0 9 -17 -5.7954 -0.3516
0 9 -15 -7.2268 -0.4234
0 9 -13 -1.9379 0.3543
0 9 -11 0.6488 0.0862
0 9 -9 0.1619 -0.0149
0 9 -7 -0.8541 1.0373
0 9 -5 -2.8970 1.4782
0 9 -3 0.5586 0.5751
0 9 -1 9.4310 -0.3036
0 10 -34 0.0486 -1.4777
0 10 -32 4.8881 -0.0161
0 10 -30 1.9242 -0.2458
0 10 -28 -6.9150 -1.0411
0 10 -26 -6.4526 -0.5384
0 10 -24 4.0196 0.7192
0 10 -22 9.3229 1.0441
0 10 -20 4.9821 0.1661
0 10 -18 -0.1574 -0.4245
0 10 -16 -1.8444 0.2849
0 10 -14 -1.2080 1.1608
0 10 -12 1.5298 1.1322
0 10 -10 4.2890 0.6481
0 10 -8 5.8342 0.0745
0 10 -6 8.2394 -0.3170
0 10 -4 8.6804 -0.2012
0 10 -2 3.2063 -0.1318
0 10 0 -0.9954 -0.3037
0 11 -33 -0.2902 -0.8258
0 11 -31 -0.1426 -1.2597
0 11 -29 0.7841 0.0944
0 11 -27 0.1249 0.7360
0 11 -25 1.2548 0.6870
0 11 -23 7.8646 0.2191
0 11 -21 11.0863 -0.4440
0 11 -19 6.0884 0.5034
0 11 -17 1.8105 1.7350
0 11 -15 0.1533 0.5400
0 11 -13 -4.1906 -0.7179
0 11 -11 -6.8076 0.1264
0 11 -9 -4.1195 0.6276
0 11 -7 -3.1357 -0.0676
0 11 -5 -5.4949 -0.2363
0 11 -3 -4.2599 -0.0493
0 11 -1 0.1470 -0.3240
0 12 -32 4.1442 -1.8624
0 12 -30 1.8725 -1.4540
0 12 -28 0.4656 -0.6921
0 12 -26 -0.8168 -0.7377
0 12 -24 -4.2474 -0.7537
0 12 -22 -4.1863 -0.0156
0 12 -20 0.6070 0.3342
0 12 -18 0.8351 -0.1043
0 12 -16 -1.9844 -0.0137
0 12 -14 2.4054 0.4473
0 12 -12 8.8237 0.3236
0 12 -10 6.8498 0.3863
0 12 -8 0.9010 0.9066
0 12 -6 -1.5219 0.7419
0 12 -4 -0.9000 -0.0417
0 12 -2 0.7876 -0.4204
0 12 0 1.8191 -0.3975
0 13 -31 -1.8953 1.9202
0 13 -29 -4.6049 1.9021
0 13 -27 -3.8333 1.3672
0 13 -25 -2.5832 0.0890
0 13 -23 -5.4978 -1.9551
0 13 -21 -8.4356 -2.2296
0 13 -19 -7.4823 -0.2076
0 13 -17 -6.5964 0.9058
0 13 -15 -6.0814 -0.0162
0 13 -13 -2.5038 -0.4240
0 13 -11 -0.4166 0.5556
0 13 -9 -2.8926 0.7883
0 13 -7 -2.2018 -0.3110
0 13 -5 2.9097 -0.8983
0 13 -3 2.0600 -0.4948
0 13 -1 -4.5659 -0.3401
0 14 -28 -1.3890 4.3157
0 14 -26 -2.5690 4.1904
0 14 -24 -4.0849 1.2147
0 14 -22 -7.2017 -1.3878
0 14 -20 -7.5440 -1.0692
0 14 -18 0.2706 -0.0329
0 14 -16 6.0764 -0.4114
0 14 -14 1.5158 -0.7681
0 14 -12 -1.5198 -0.4757
0 14 -10 2.2340 -0.5764
0 14 -8 2.5223 -0.5724
0 14 -6 0.3332 -0.2441
0 14 -4 1.7714 -0.4632
0 14 -2 1.9034 -0.8215
0 14 0 0.4971 -0.9214
0 15 -25 0.0988 -1.0817
0 15 -23 0.8208 0.5286
0 15 -21 7.0340 -0.7251
0 15 -19 5.3293 -2.9409
0 15 -17 -3.7891 -1.9838
0 15 -15 -3.2448 0.6351
0 15 -13 2.9298 0.9664
0 15 -11 -1.1635 -0.1319
0 15 -9 -7.2807 -0.3278
0 15 -7 -3.1996 -0.0807
0 15 -5 2.7398 -0.0835
0 15 -3 3.7933 -0.1588
0 15 -1 3.8965 -0.0511
0 16 -22 -3.2389 -3.1988
0 16 -20 -5.4096 -2.7099
0 16 -18 -0.0087 -2.4400
0 16 -16 4.2249 -0.5486
0 16 -14 0.9308 1.1649
0 16 -12 -1.9249 0.4774
0 16 -10 1.1617 -0.6312
0 16 -8 -0.3984 -0.3037
0 16 -6 -12.3169 -0.0346
0 16 -4 -18.1471 -0.2220
0 16 -2 -6.9067 0.4762
0 16 0 2.4059 1.0828
0 17 -19 1.6175 8.6372
0 17 -17 2.5233 2.4391
0 17 -15 2.4215 -2.5364
0 17 -13 -0.1682 -1.5411
0 17 -11 1.5190 1.3631
0 17 -9 6.0225 1.2384
0 17 -7 5.2799 -0.1927
0 17 -5 0.6567 -0.4376
0 17 -3 -2.6002 -0.5967
0 17 -1 -4.0602 -1.3643
0 18 -16 -1.5123 -3.0528
0 18 -14 2.0058 -2.6063
0 18 -12 6.9180 0.5753
0 18 -10 6.4018 2.6245
0 18 -8 2.2298 0.9896
0 18 -6 0.3696 -1.0978
0 18 -4 1.7315 -0.5576
0 18 -2 4.4294 0.7494
0 18 0 5.8741 1.2785
0 19 -9 -5.4127 0.6018
0 19 -7 -5.5833 0.7255
0 19 -5 -0.3429 2.7480
0 19 -3 7.5229 3.3542
0 19 -1 12.4376 2.4623
1 1 -40 -1.1238 -5.6782
1 1 -38 2.3039 -1.9950
1 1 -36 3.4559 -0.7597
1 1 -34 3.2141 -2.3177
1 1 -32 3.4393 0.3339
1 1 -30 2.5772 2.8548
1 1 -28 -0.3612 -0.6285
1 1 -26 -1.3256 -2.4674
1 1 -24 0.3250 2.0175
1 1 -22 -2.0836 3.8594
1 1 -20 -9.8995 -0.5611
1 1 -18 -11.6522 -1.9482
1 1 -16 2.1334 2.3778
1 1 -14 21.7687 2.4858
1 1 -12 34.4594 -2.7783
1 1 -10 46.4487 -1.2205
1 1 -8 49.5918 5.9126
1 1 -6 -6.8417 1.8708
1 1 -4 -141.8548 -10.1836
1 1 -2 -273.0578 -8.5333
1 1 2 -229.3979 2.3520
1 1 4 -136.8752 -6.9078
1 1 6 -69.3889 -4.0262
1 1 8 -25.0228 3.1748
1 1 10 1.5889 -0.7016
1 1 12 11.1550 -3.4052
1 1 14 11.5937 4.8962
1 1 16 12.6968 8.3085
1 1 18 15.4512 1.6941
1 1 20 12.3618 1.2948
1 1 22 2.9820 7.3756
1 1 24 -1.6378 5.2945
1 1 26 -0.1529 -1.3597
1 1 28 -2.1194 -0.5509
1 1 30 -6.1231 2.4276
1 1 32 -5.1642 -0.6689
1 1 34 -0.8661 -3.8538
1 1 36 3.2109 -2.2593
1 1 38 4.6632 -1.0976
1 1 40 2.4612 -1.7754
1 2 -39 0.2294 6.8090
1 2 -37 1.1789 1.3250
1 2 -35 0.4870 1.7760
1 2 -33 -1.5245 4.0154
1 2 -31 -0.1749 0.4795
1 2 -29 6.1370 -1.0440
1 2 -27 9.1509 3.4542
1 2 -25 4.5683 2.7820
1 2 -23 0.8661 -3.7321
1 2 -21 2.4056 -3.7372
1 2 -19 1.4791 0.3327
1 2 -17 -5.9958 -2.1946
1 2 -15 -11.1720 -5.9027
1 2 -13 -5.6269 -3.1857
1 2 -11 2.8612 -1.0254
1 2 -9 3.1557 -3.0178
1 2 -7 -0.7940 -1.6971
1 2 -5 -14.2903 2.0011
1 2 -3 -66.8338 -0.3458
1 2 -1 -151.1167 -3.7634
1 2 1 -187.7842 2.0458
1 2 3 -122.7702 8.9488
1 2 5 -18.4947 4.0920
1 2 7 31.4678 -3.1674
1 2 9 28.1062 0.9938
1 2 11 24.2996 7.1089
1 2 13 25.2964 2.7595
1 2 15 12.4030 -2.2881
1 2 17 -5.0960 1.7345
1 2 19 -13.4107 4.1773
1 2 21 -13.7857 -1.8846
1 2 23 -8.7220 -4.4740
1 2 25 -1.7694 0.7062
1 2 27 1.1872 0.9721
1 2 29 0.5154 -4.7999
1 2 31 0.9644 -4.2311
1 2 33 2.9374 0.9391
1 2 35 2.3723 1.1375
1 2 37 -1.1032 0.2210
1 2 39 -3.7881 2.2520
1 3 -38 -1.1740 1.1935
1 3 -36 1.5774 2.2061
1 3 -34 2.4772 0.8267
1 3 -32 -1.7255 0.7753
1 3 -30 -8.9460 2.8258
1 3 -28 -11.2182 2.2464
1 3 -26 -8.1019 -1.0353
1 3 -24 -5.1280 -1.2964
1 3 -22 -1.7140 0.3848
1 3 -20 3.8759 -1.3296
1 3 -18 9.2564 -3.3649
1 3 -16 11.2858 -1.6010
1 3 -14 4.5748 -0.7982
1 3 -12 -10.6960 -3.2804
1 3 -10 -21.4037 -3.1724
1 3 -8 -17.8531 0.1473
1 3 -6 1.7764 0.4495
1 3 -4 45.9830 -1.2077
1 3 -2 114.8765 0.9385
1 3 0 175.4508 3.8016
1 3 2 183.0994 2.6541
1 3 4 130.6599 1.9135
1 3 6 59.7186 3.7745
1 3 8 11.8651 3.0807
1 3 10 -10.4505 0.5252
1 3 12 -17.8878 1.0129
1 3 14 -12.1526 2.0319
1 3 16 -3.8804 -0.1896
1 3 18 -2.9118 -2.5810
1 3 20 -0.4483 -1.9424
1 3 22 5.3783 -0.7321
1 3 24 4.0056 -2.1369
1 3 26 -0.2267 -3.7523
1 3 28 1.6512 -1.9699
1 3 30 3.7876 -0.0616
1 3 32 2.1819 -1.1131
1 3 34 1.0774 -0.4482
1 3 36 -0.3288 2.5255
1 3 38 -3.1638 1.1666
1 3 40 -3.2157 -2.7863
1 4 -39 -3.0513 -0.8477
1 4 -37 -2.4595 0.4126
1 4 -35 -2.1722 0.0889
1 4 -33 -3.5958 -0.0756
1 4 -31 -1.3216 0.6188
1 4 -29 0.9973 0.8714
1 4 -27 0.1899 0.9195
1 4 -25 2.8995 1.4848
1 4 -23 5.3559 1.2529
1 4 -21 -2.2174 0.1028
1 4 -19 -12.9254 0.2630
1 4 -17 -16.6444 1.1889
1 4 -15 -16.4390 0.2357
1 4 -13 -17.4148 -1.0105
1 4 -11 -17.8925 -0.0896
1 4 -9 -10.2684 0.1030
1 4 -7 10.7249 -1.8211
1 4 -5 39.1544 -1.6943
1 4 -3 68.2137 0.0956
1 4 -1 89.6511 -1.0270
1 4 1 77.4797 -2.3973
1 4 3 21.9597 0.0739
1 4 5 -31.5586 2.0059
1 4 7 -38.5256 0.4611
1 4 9 -17.3760 -0.0880
1 4 11 -7.9272 1.4347
1 4 13 -12.8712 1.4883
1 4 15 -11.7866 0.5662
1 4 17 -1.0855 0.7258
1 4 19 2.2810 0.5593
1 4 21 -6.3333 -0.5268
1 4 23 -8.4258 -0.6608
1 4 25 0.7685 -0.0814
1 4 27 3.6620 -0.4928
1 4 29 -1.9904 -1.0801
1 4 31 -3.9705 -0.7512
1 4 33 -2.7891 -1.0851
1 4 35 -1.9680 -2.4147
1 4 37 0.6031 -2.0629
1 4 39 1.6914 -0.1907
1 5 -38 4.4205 0.6274
1 5 -36 3.9224 2.5290
1 5 -34 3.8820 1.4555
1 5 -32 2.6334 -0.5420
1 5 -30 -0.8552 -0.0846
1 5 -28 -0.1711 0.9998
1 5 -26 3.6473 0.7368
1 5 -24 0.5880 0.3893
1 5 -22 -6.6130 0.6306
1 5 -20 -4.8651 0.8929
1 5 -18 5.5397 0.8823
1 5 -16 14.0237 0.1326
1 5 -14 20.3450 -1.1222
1 5 -12 25.9062 -1.2482
1 5 -10 16.0204 -0.1606
1 5 -8 -13.3765 -0.1423
1 5 -6 -29.4094 -1.4321
1 5 -4 -8.8481 -1.7040
1 5 -2 16.7780 -0.7044
1 5 0 13.4115 -0.0812
1 5 2 0.2813 -0.2480
1 5 4 2.8386 -0.5575
1 5 6 4.7179 -0.0438
1 5 8 -7.4408 1.0984
1 5 10 -12.8918 1.0326
1 5 12 -3.4814 0.1817
1 5 14 -1.2788 0.4590
1 5 16 -12.9574 0.7297
1 5 18 -16.6779 0.3087
1 5 20 -2.3218 0.7318
1 5 22 10.7300 0.7202
1 5 24 6.7244 -0.7911
1 5 26 -2.3550 -1.1960
1 5 28 -3.2818 -0.6823
1 5 30 -2.3749 -1.3876
1 5 32 -3.5119 -1.0873
1 5 34 -1.1319 0.9497
1 5 36 2.1794 0.1467
1 5 38 2.1010 -4.0152
1 6 -37 -2.6975 -0.6682
1 6 -35 -4.4425 0.0310
1 6 -33 -5.7278 0.0823
1 6 -31 -2.1817 0.6800
1 6 -29 4.3473 0.9188
1 6 -27 3.1010 -0.0357
1 6 -25 -4.9423 -0.9293
1 6 -23 -4.3057 -0.8541
1 6 -21 2.8540 -0.5880
1 6 -19 1.5406 -0.6857
1 6 -17 0.2574 -1.1004
1 6 -15 10.6124 -1.2557
1 6 -13 16.9026 -0.4142
1 6 -11 11.6427 0.2923
1 6 -9 10.4149 -0.0288
1 6 -7 9.8345 0.0655
1 6 -5 -8.4309 0.4770
1 6 -3 -35.5274 0.3568
1 6 -1 -47.3388 1.0637
1 6 1 -43.0789 1.8496
1 6 3 -38.5745 0.9257
1 6 5 -31.3560 0.4016
1 6 7 -4.3971 0.9184
1 6 9 31.9048 -0.0296
1 6 11 44.9817 -1.3156
1 6 13 33.2263 -0.7885
1 6 15 20.8109 -0.2255
1 6 17 10.5532 -0.9203
1 6 19 -5.1433 -1.4394
1 6 21 -14.9155 -1.0487
1 6 23 -8.9947 -0.6776
1 6 25 1.8255 -0.6988
1 6 27 5.5034 0.0165
1 6 29 3.7804 1.1608
1 6 31 3.0380 0.5743
1 6 33 3.9373 -0.8492
1 6 35 3.4612 -0.5506
1 6 37 0.8309 0.1725
1 7 -38 4.8367 0.7875
1 7 -36 2.5982 -0.1505
1 7 -34 -0.4409 -1.3964
1 7 -32 1.3768 -1.5648
1 7 -30 3.7924 -0.7867
1 7 -28 1.6781 0.4435
1 7 -26 1.7456 0.4344
1 7 -24 4.7653 -1.1584
1 7 -22 2.2896 -1.1500
1 7 -20 -2.8196 0.6549
1 7 -18 -6.5801 0.4844
1 7 -16 -13.6239 -0.8703
1 7 -14 -17.1577 -0.0829
1 7 -12 -9.3773 1.3089
1 7 -10 -2.4673 1.1160
1 7 -8 -4.3313 0.6173
1 7 -6 -6.7730 0.7635
1 7 -4 -7.1273 0.9433
1 7 -2 -7.9033 0.5817
1 7 0 -8.9919 -0.1775
1 7 2 -9.9432 -0.2773
1 7 4 -5.2885 0.2064
1 7 6 4.5165 -0.1831
1 7 8 5.8051 -0.9142
1 7 10 -1.1201 -0.5551
1 7 12 -3.2135 -0.2680
1 7 14 -3.2309 -1.1490
1 7 16 -3.3051 -1.4301
1 7 18 5.4300 -0.4045
1 7 20 12.9706 -0.2856
1 7 22 4.8469 -1.0152
1 7 24 -4.5906 0.1082
1 7 26 -1.2638 1.7701
1 7 28 3.3529 0.7874
1 7 30 0.0650 -0.4287
1 7 32 -4.7303 0.8509
1 7 34 -5.4099 1.2553
1 7 36 -2.7947 -0.8397
1 7 38 0.0220 -1.4229
1 8 -37 -5.0612 -1.0560
1 8 -35 -5.7784 -0.7725
1 8 -33 -1.9654 -0.7211
1 8 -31 2.1354 -1.1397
1 8 -29 1.9397 -0.6413
1 8 -27 -0.6767 0.1364
1 8 -25 -0.2710 0.0007
1 8 -23 3.9063 -0.2131
1 8 -21 5.7947 0.3244
1 8 -19 1.9748 0.8641
1 8 -17 -3.0173 1.1022
1 8 -15 -4.3642 1.3345
1 8 -13 -0.0804 1.0675
1 8 -11 8.2729 0.4441
1 8 -9 10.9395 0.3656
1 8 -7 3.7108 0.4601
1 8 -5 -0.4771 0.2416
1 8 -3 3.9357 -0.0048
1 8 -1 6.3311 -0.6151
1 8 1 8.0039 -1.2338
1 8 3 16.3480 -0.7903
1 8 5 19.5092 -0.4537
1 8 7 8.6294 -1.3536
1 8 9 -2.9387 -1.5996
1 8 11 -5.7104 -0.4942
1 8 13 -4.2610 -0.1638
1 8 15 -3.1594 -0.6324
1 8 17 -5.7064 -0.0612
1 8 19 -9.5276 0.7530
1 8 21 -5.4286 0.3992
1 8 23 3.6847 0.1288
1 8 25 5.9571 0.5213
1 8 27 3.1504 0.4164
1 8 29 2.2751 0.7569
1 8 31 0.8918 2.1464
1 8 33 -1.8420 1.2575
1 8 35 -1.5407 -2.7863
1 8 37 0.8663 -5.0937
1 9 -36 0.2533 -1.9042
1 9 -34 -1.9921 -0.1709
1 9 -32 -4.9291 -0.3150
1 9 -30 -6.0310 -1.4241
1 9 -28 -2.9203 -1.0313
1 9 -26 0.0836 -0.2284
1 9 -24 1.1098 -0.1863
1 9 -22 2.3640 -0.3565
1 9 -20 1.3538 -0.2266
1 9 -18 -0.8687 0.3079
1 9 -16 2.6253 0.3422
1 9 -14 6.6976 -0.2518
1 9 -12 1.4325 0.2076
1 9 -10 -4.7910 1.3099
1 9 -8 -0.8125 1.1234
1 9 -6 5.0042 0.2399
1 9 -4 3.6558 -0.0571
1 9 -2 2.1724 0.1926
1 9 0 4.4030 0.5776
1 9 2 1.4180 0.2765
1 9 4 -6.9713 -0.7120
1 9 6 -7.0991 -1.1306
1 9 8 1.1161 -1.0276
1 9 10 0.2392 -1.3557
1 9 12 -11.4285 -1.5714
1 9 14 -16.0192 -0.8588
1 9 16 -8.3938 -0.1931
1 9 18 2.0347 -0.6249
1 9 20 11.8687 -0.9461
1 9 22 18.1952 -0.2617
1 9 24 13.8697 0.0270
1 9 26 3.2424 0.0824
1 9 28 -1.8155 1.2104
1 9 30 -1.0005 1.6922
1 9 32 -0.7910 0.7649
1 9 34 -1.5501 0.6909
1 9 36 -1.2656 0.9776
1 10 -35 5.6718 -2.2773
1 10 -33 8.6257 -2.5882
1 10 -31 5.0337 0.1548
1 10 -29 -3.5842 0.6710
1 10 -27 -6.2369 -1.1465
1 10 -25 -0.5087 -1.2798
1 10 -23 1.7420 -0.3961
1 10 -21 -1.2497 -0.4782
1 10 -19 -0.7270 -0.6318
1 10 -17 0.1771 -0.4579
1 10 -15 -2.8779 -0.4084
1 10 -13 -2.4374 -0.0944
1 10 -11 1.7516 0.5677
1 10 -9 1.5501 1.1041
1 10 -7 -1.0697 1.3743
1 10 -5 -0.2710 1.1957
1 10 -3 2.5908 0.3389
1 10 -1 4.1735 -0.3445
1 10 1 2.9312 -0.0463
1 10 3 0.7580 -0.0372
1 10 5 -0.3810 -0.8488
1 10 7 -4.8206 -0.6568
1 10 9 -11.2070 -0.0444
1 10 11 -8.3422 -1.0953
1 10 13 1.3536 -2.0059
1 10 15 4.9116 -1.0968
1 10 17 4.3312 -0.4006
1 10 19 4.1408 -0.5724
1 10 21 -2.1894 -0.5039
1 10 23 -11.2922 -0.4826
1 10 25 -12.2434 -0.3108
1 10 27 -8.0117 0.5683
1 10 29 -4.1792 1.0930
1 10 31 1.2405 0.9784
1 10 33 5.2344 1.6767
1 10 35 3.7591 3.4637
1 11 -34 1.3261 -1.8866
1 11 -32 1.2767 -1.7662
1 11 -30 1.8146 -0.3030
1 11 -28 3.7026 0.5068
1 11 -26 3.3911 0.4670
1 11 -24 1.3388 0.3097
1 11 -22 1.4120 -0.0734
1 11 -20 2.4448 -0.3833
1 11 -18 2.0673 0.0168
1 11 -16 1.7581 0.3742
1 11 -14 2.3589 -0.0014
1 11 -12 3.1494 -0.0723
1 11 -10 3.1125 0.4819
1 11 -8 0.9343 0.2680
1 11 -6 -0.5021 -0.6212
1 11 -4 2.1209 -0.5256
1 11 -2 3.3259 0.1608
1 11 0 -1.0920 -0.1458
1 11 2 -4.4982 -0.6896
1 11 4 -3.8702 -0.2245
1 11 6 -3.4249 0.1139
1 11 8 -0.3545 -0.4740
1 11 10 7.8572 -0.7295
1 11 12 12.1275 -0.3631
1 11 14 8.2414 -0.2335
1 11 16 3.7259 0.0538
1 11 18 0.4079 0.6111
1 11 20 -4.9444 0.3299
1 11 22 -7.5826 -0.1733
1 11 24 -3.6384 0.5847
1 11 26 0.1773 1.3812
1 11 28 -1.3617 0.6112
1 11 30 -3.6744 -0.4199
1 11 32 -2.3942 -0.2680
1 12 -31 -6.1382 5.7390
1 12 -29 2.6339 2.3403
1 12 -27 7.7575 1.1689
1 12 -25 -2.5011 -0.1587
1 12 -23 -11.7215 -1.5680
1 12 -21 -6.2060 -0.5398
1 12 -19 0.3163 1.3049
1 12 -17 -2.2196 1.0698
1 12 -15 -4.2123 0.0117
1 12 -13 -2.6113 0.1152
1 12 -11 -4.4571 0.2317
1 12 -9 -6.4179 -0.3848
1 12 -7 -2.3032 -0.4598
1 12 -5 -0.1952 -0.2142
1 12 -3 -6.9497 -0.4713
1 12 -1 -11.2071 -0.4256
1 12 1 -4.8124 -0.1916
1 12 3 0.0127 -0.4496
1 12 5 -2.7236 -0.2158
1 12 7 -0.3479 0.5913
1 12 9 6.5348 0.7080
1 12 11 3.1611 0.2858
1 12 13 -4.4249 0.0317
1 12 15 -3.8738 0.0349
1 12 17 -6.5745 0.2553
1 12 19 -17.0895 0.2179
1 12 21 -15.6124 -0.2240
1 12 23 -0.4601 -0.3572
1 12 25 6.4033 0.2597
1 12 27 1.6809 1.3412
1 12 29 -0.3182 1.5146
1 12 31 3.0745 -0.3536
1 13 -30 -3.0534 -0.8339
1 13 -28 -5.1213 -0.6584
1 13 -26 0.3951 -0.0686
1 13 -24 6.5415 0.3444
1 13 -22 -0.4297 0.3548
1 13 -20 -8.7838 0.0956
1 13 -18 -5.1321 -0.2729
1 13 -16 -0.9898 -0.0080
1 13 -14 -2.1552 0.5215
1 13 -12 1.1019 0.1226
1 13 -10 4.9238 -0.3497
1 13 -8 -0.3495 -0.0195
1 13 -6 -6.3811 0.1317
1 13 -4 -3.4510 -0.0213
1 13 -2 1.6969 0.1282
1 13 0 2.3490 0.4790
1 13 2 4.4597 0.8738
1 13 4 11.1271 0.5832
1 13 6 11.9356 -0.5346
1 13 8 2.5385 -0.6777
1 13 10 -2.7857 0.4216
1 13 12 2.5643 0.6477
1 13 14 5.6311 -0.3783
1 13 16 4.9753 -1.0899
1 13 18 11.3382 -1.0438
1 13 20 14.5260 -0.9807
1 13 22 1.8788 -0.7346
1 13 24 -9.5193 0.3992
1 13 26 -5.4533 1.5104
1 13 28 -0.1651 1.7133
1 13 30 -3.1063 1.9527
1 14 -27 9.2967 -4.6673
1 14 -25 0.1400 -1.9338
1 14 -23 -9.3452 0.6768
1 14 -21 -9.9985 0.6684
1 14 -19 -6.1952 -0.2926
1 14 -17 -1.7062 -0.1555
1 14 -15 1.7296 0.1409
1 14 -13 -0.8996 -0.1402
1 14 -11 -6.4935 -0.1393
1 14 -9 -5.4400 0.2716
1 14 -7 -0.0650 0.4320
1 14 -5 1.5357 0.0647
1 14 -3 2.9078 -0.4701
1 14 -1 6.9625 -0.5561
1 14 1 3.7598 -0.3596
1 14 3 -8.0387 -0.2877
1 14 5 -12.5429 -0.0104
1 14 7 -5.6316 0.2320
1 14 9 -2.6222 -0.0502
1 14 11 -7.7122 0.1163
1 14 13 -7.8221 0.9011
1 14 15 -1.3772 0.3835
1 14 17 -1.0529 -1.1419
1 14 19 -5.1916 -0.7427
1 14 21 0.8644 0.9169
1 14 23 13.9258 0.2238
1 14 25 16.4845 -1.3901
1 14 27 7.4616 0.4116
1 15 -26 -2.9225 0.1772
1 15 -24 1.6511 0.6810
1 15 -22 7.4773 2.2639
1 15 -20 6.5642 1.0902
1 15 -18 3.9353 -1.0883
1 15 -16 5.2744 -1.2717
1 15 -14 2.2448 -0.6903
1 15 -12 -4.9109 -0.7356
1 15 -10 -3.7234 -0.6146
1 15 -8 0.6172 -0.2293
1 15 -6 -2.7254 -0.3163
1 15 -4 -3.0612 -0.4876
1 15 -2 4.9018 -0.0959
1 15 0 5.5051 0.1291
1 15 2 -3.5777 -0.2690
1 15 4 -8.3582 -0.1060
1 15 6 -6.9306 0.7442
1 15 8 -4.1116 0.8176
1 15 10 1.2425 0.3459
1 15 12 7.2171 0.4867
1 15 14 9.8114 0.7325
1 15 16 10.0610 0.7422
1 15 18 7.9414 1.3098
1 15 20 1.6802 1.9590
1 15 22 -4.7432 0.8183
1 15 24 -4.7820 -2.7229
1 15 26 0.9718 -6.5657
1 16 -23 2.6087 0.1341
1 16 -21 0.9391 2.1479
1 16 -19 6.3290 2.3172
1 16 -17 6.2827 -0.1644
1 16 -15 -0.1176 -1.2952
1 16 -13 3.2252 -0.2261
1 16 -11 11.1139 0.1258
1 16 -9 6.8227 -0.7112
1 16 -7 -2.6722 -1.0237
1 16 -5 -4.8869 -0.1049
1 16 -3 -3.3682 1.0248
1 16 -1 -1.9582 1.1481
1 16 1 0.8203 0.8425
1 16 3 5.5422 0.6601
1 16 5 12.3315 0.2385
1 16 7 14.7459 0.7069
1 16 9 6.2867 1.9268
1 16 11 -3.5860 1.0803
1 16 13 -7.1760 -0.9854
1 16 15 -12.7419 -0.4331
1 16 17 -18.1624 2.4376
1 16 19 -10.6113 4.8805
1 16 21 2.7864 6.1604
1 16 23 6.3091 5.9303
1 17 -20 1.4174 1.9036
1 17 -18 2.6138 3.0493
1 17 -16 5.6591 0.8843
1 17 -14 2.6664 -0.9311
1 17 -12 -4.5653 0.2580
1 17 -10 -3.9764 1.1557
1 17 -8 4.2307 0.6541
1 17 -6 8.2711 1.0428
1 17 -4 4.3968 1.0219
1 17 -2 -0.5234 -0.5510
1 17 0 -0.2556 -0.6786
1 17 2 1.8900 1.0833
1 17 4 -2.0078 1.5080
1 17 6 -7.3641 0.3913
1 17 8 -2.1887 0.5880
1 17 10 7.2091 2.0549
1 17 12 5.9225 1.4530
1 17 14 -0.5199 -0.8342
1 17 16 -1.2196 -0.2101
1 17 18 -1.4141 2.4785
1 17 20 -3.6975 1.5959
1 18 -15 -1.8263 0.9522
1 18 -13 5.7990 0.8210
1 18 -11 7.2233 2.2166
1 18 -9 2.4728 2.4598
1 18 -7 0.9218 0.1461
1 18 -5 4.6559 -1.4267
1 18 -3 5.9784 -0.3025
1 18 -1 2.8011 0.8958
1 18 1 2.0146 0.3538
1 18 3 4.2778 -0.2490
1 18 5 1.4531 0.1919
1 18 7 -7.0185 0.4799
1 18 9 -11.9183 0.4686
1 18 11 -9.3892 2.0150
1 18 13 -3.6032 4.7669
1 18 15 1.9798 4.8758
1 19 -10 -7.6494 -7.9112
1 19 -8 -3.3340 -1.6611
1 19 -6 1.2550 1.9501
1 19 -4 -0.3613 0.4955
1 19 -2 -4.3111 -0.0716
1 19 0 -2.8314 1.5918
1 19 2 3.1169 2.3442
1 19 4 8.6795 2.0923
1 19 6 10.9547 2.0612
1 19 8 8.1635 0.7065
1 19 10 3.5532 -2.5748
2 0 -40 0.5627 6.6714
2 0 -38 5.7972 1.4499
2 0 -36 4.9399 0.9315
2 0 -34 0.0633 8.6014
2 0 -32 -1.1336 11.1829
2 0 -30 1.2504 6.2386
2 0 -28 4.2182 7.5682
2 0 -26 8.3493 12.9510
2 0 -24 10.8999 8.0306
2 0 -22 5.6037 -0.8374
2 0 -20 -6.1399 -0.1914
2 0 -18 -17.2253 0.9122
2 0 -16 -27.7090 -8.0649
2 0 -14 -36.9058 -14.9992
2 0 -12 -35.0686 -10.5084
2 0 -10 -31.0499 -7.2680
2 0 -8 -53.6239 -13.7785
2 0 -6 -88.8639 -17.3380
2 0 -4 -73.4731 -8.0471
2 0 2 95.1759 2.2947
2 0 4 60.7820 6.4320
2 0 6 24.3541 13.0573
2 0 8 1.0590 14.0339
2 0 10 -4.1834 12.7189
2 0 12 8.0695 13.0954
2 0 14 19.6035 10.0069
2 0 16 15.7689 2.9931
2 0 18 -0.5091 -0.2197
2 0 20 -17.6144 -0.6525
2 0 22 -20.4618 -5.5254
2 0 24 -9.0610 -10.7946
2 0 26 -2.5130 -9.8824
2 0 28 -5.1318 -8.4794
2 0 30 -5.3469 -10.5597
2 0 32 -3.4211 -9.3172
2 0 34 -2.4541 -3.9231
2 0 36 1.0526 -1.5021
2 0 38 4.2831 -1.9462
2 0 40 3.8217 -1.6518
2 1 -39 1.8895 0.6189
2 1 -37 0.9539 1.8318
2 1 -35 0.6644 0.1625
2 1 -33 0.0599 -0.9086
2 1 -31 -1.3336 1.1794
2 1 -29 -1.9067 2.5831
2 1 -27 -2.8744 0.1648
2 1 -25 -5.4124 -1.3656
2 1 -23 -6.0330 1.6335
2 1 -21 -5.1543 2.6966
2 1 -19 -7.9322 -1.5178
2 1 -17 -7.3276 -2.0404
2 1 -15 7.4048 2.9021
2 1 -13 24.1175 1.5004
2 1 -11 33.2625 -5.4144
2 1 -9 60.0914 -2.9188
2 1 -7 105.6325 5.6573
2 1 -5 96.8661 2.2744
2 1 -3 -15.9235 -8.5873
2 1 -1 -151.8202 -6.7973
2 1 3 -97.1754 5.6404
2 1 5 0.0769 -1.1341
2 1 7 38.2419 -2.4556
2 1 9 33.7613 0.9954
2 1 11 18.2428 1.6805
2 1 13 0.8013 0.7218
2 1 15 -9.2665 1.5830
2 1 17 -3.9091 2.3461
2 1 19 8.0939 0.8101
2 1 21 11.9988 -0.4392
2 1 23 5.9489 0.7541
2 1 25 0.0088 1.0622
2 1 27 -1.4853 -0.9013
2 1 29 -2.8492 -1.1156
2 1 31 -2.6474 -0.1778
2 1 33 2.0154 -1.5742
2 1 35 4.9216 -2.2194
2 1 37 2.6267 -1.3589
2 1 39 -0.2480 -3.9850
2 1 41 -2.0031 -6.3231
2 2 -38 -2.9686 1.5794
2 2 -36 -1.8516 1.9022
2 2 -34 -1.2332 -0.8915
2 2 -32 -1.8225 -1.9719
2 2 -30 -1.7454 -0.1739
2 2 -28 -1.6174 0.1682
2 2 -26 -0.4783 -1.3749
2 2 -24 4.0571 -1.2541
2 2 -22 7.5066 0.2264
2 2 -20 7.2467 0.9430
2 2 -18 9.2196 1.3436
2 2 -16 12.6027 1.3533
2 2 -14 9.3159 0.4931
2 2 -12 -3.1291 0.9837
2 2 -10 -28.5427 2.7781
2 2 -8 -68.9924 1.3871
2 2 -6 -101.1371 -2.2890
2 2 -4 -87.8720 -1.7697
2 2 -2 -26.4272 1.4261
2 2 0 33.0550 0.5013
2 2 2 32.9767 -2.5826
2 2 4 -23.1266 -2.7040
2 2 6 -71.2047 -1.6854
2 2 8 -68.1248 -1.5897
2 2 10 -32.7044 -1.1862
2 2 12 -0.0131 -0.7667
2 2 14 14.4196 -0.2499
2 2 16 9.2984 1.2940
2 2 18 -4.3565 2.1218
2 2 20 -11.8078 1.6780
2 2 22 -10.4537 2.0640
2 2 24 -4.0443 2.2973
2 2 26 3.5218 0.6501
2 2 28 5.2352 -0.2480
2 2 30 0.9335 1.0350
2 2 32 -1.7771 1.0850
2 2 34 -2.7261 -1.3887
2 2 36 -5.3952 -2.6480
2 2 38 -6.7719 -0.8300
2 2 40 -4.8385 0.7881
2 3 -39 -1.4330 2.4868
2 3 -37 2.9978 1.6155
2 3 -35 1.9936 0.8357
2 3 -33 -2.4663 0.0131
2 3 -31 -4.1762 -0.3765
2 3 -29 -2.4755 0.3814
2 3 -27 1.6144 1.0165
2 3 -25 2.9561 0.3670
2 3 -23 -1.8007 -0.4440
2 3 -21 -1.6077 -0.0434
2 3 -19 10.7315 0.5845
2 3 -17 18.0771 -0.7307
2 3 -15 6.3743 -2.7253
2 3 -13 -8.3908 -1.5863
2 3 -11 -10.8774 0.9385
2 3 -9 -12.2102 -0.5859
2 3 -7 -9.1924 -3.3790
2 3 -5 36.7271 -0.6625
2 3 -3 126.4033 3.3674
2 3 -1 180.7387 1.0223
2 3 1 142.0667 -2.3612
2 3 3 66.5494 0.5856
2 3 5 38.6135 3.5938
2 3 7 49.5078 0.7434
2 3 9 39.2161 -1.3535
2 3 11 0.5444 1.0241
2 3 13 -29.0462 1.6717
2 3 15 -32.5170 -0.9041
2 3 17 -21.9496 -1.3551
2 3 19 -8.2328 0.3175
2 3 21 8.3116 -0.2358
2 3 23 20.9974 -1.9655
2 3 25 18.3860 -0.9014
2 3 27 8.0963 1.0562
2 3 29 4.5932 -0.2222
2 3 31 2.9532 -2.0237
2 3 33 -1.1879 -0.4265
2 3 35 0.3809 0.9496
2 3 37 4.5927 -0.8108
2 3 39 3.2645 -1.6675
2 4 -38 -2.3172 -3.1331
2 4 -36 -5.4040 0.1484
2 4 -34 -2.5585 0.7224
2 4 -32 2.6110 0.1801
2 4 -30 4.6206 0.0802
2 4 -28 4.0415 -0.3778
2 4 -26 1.6832 -0.6922
2 4 -24 -0.9818 -0.4097
2 4 -22 -1.5808 -0.5662
2 4 -20 -5.5474 -0.6919
2 4 -18 -14.4298 -0.0218
2 4 -16 -11.9236 -0.2036
2 4 -14 6.5205 -1.0505
2 4 -12 18.9502 -0.1602
2 4 -10 20.9757 0.8802
2 4 -8 31.4464 0.1258
2 4 -6 41.8303 0.3025
2 4 -4 27.3501 1.6614
2 4 -2 2.3576 1.3217
2 4 0 0.8778 0.4187
2 4 2 16.1391 0.3559
2 4 4 11.8989 0.0853
2 4 6 -13.7669 0.5275
2 4 8 -24.3298 1.2807
2 4 10 -7.2718 -0.1206
2 4 12 10.7254 -1.7825
2 4 14 13.4042 -1.5610
2 4 16 8.9980 -1.6473
2 4 18 3.2404 -2.0961
2 4 20 -4.0475 -1.0205
2 4 22 -9.4506 -0.1684
2 4 24 -9.0885 -0.8476
2 4 26 -4.0321 -0.7428
2 4 28 -0.4076 0.6514
2 4 30 -0.9182 0.7659
2 4 32 -1.2169 -0.4392
2 4 34 -0.2371 -0.2022
2 4 36 -0.6221 1.1204
2 4 38 -0.6720 1.0696
2 5 -39 3.0221 1.2762
2 5 -37 0.7086 0.7707
2 5 -35 -1.4407 -1.1648
2 5 -33 -1.6772 -2.1653
2 5 -31 0.9081 -1.5018
2 5 -29 2.1796 -0.8453
2 5 -27 -1.1456 -0.7742
2 5 -25 -2.5901 -0.8763
2 5 -23 -1.0861 -0.6919
2 5 -21 -5.4077 0.2927
2 5 -19 -11.8444 0.9463
2 5 -17 -10.8412 0.6164
2 5 -15 -5.9470 1.3410
2 5 -13 0.3963 2.5900
2 5 -11 7.7369 1.7670
2 5 -9 5.2546 0.8634
2 5 -7 -6.5314 1.8042
2 5 -5 -13.7394 1.9645
2 5 -3 -21.3859 0.9448
2 5 -1 -40.9229 0.5465
2 5 1 -60.1338 -0.2550
2 5 3 -60.1348 -1.6447
2 5 5 -38.7969 -1.9172
2 5 7 -9.6102 -1.7147
2 5 9 10.3929 -2.0579
2 5 11 16.8173 -2.0226
2 5 13 14.8884 -1.4048
2 5 15 7.1282 -1.0553
2 5 17 0.8875 -0.9741
2 5 19 3.0215 -0.6944
2 5 21 3.8381 -0.2640
2 5 23 -3.1681 0.3253
2 5 25 -7.7553 1.2883
2 5 27 -6.5482 1.9183
2 5 29 -5.1856 1.7667
2 5 31 -2.3099 1.9338
2 5 33 1.9319 1.7252
2 5 35 2.1998 -0.9721
2 5 37 -0.3099 -3.8521
2 5 39 -1.6502 -3.3949
2 6 -38 5.1395 -0.3618
2 6 -36 1.7505 -1.3351
2 6 -34 -1.4989 -0.6711
2 6 -32 0.2857 -0.7298
2 6 -30 3.5080 -1.2748
2 6 -28 3.9998 -0.5668
2 6 -26 0.9925 -0.1564
2 6 -24 -3.1616 -0.8226
2 6 -22 -0.7821 -0.3749
2 6 -20 8.4133 0.7766
2 6 -18 11.3190 0.3671
2 6 -16 3.4371 -0.3160
2 6 -14 -4.3698 0.5096
2 6 -12 -4.5056 1.2012
2 6 -10 -0.6155 0.9203
2 6 -8 -4.5637 1.2082
2 6 -6 -22.0629 1.7028
2 6 -4 -36.3651 1.0113
2 6 -2 -31.5568 0.2064
2 6 0 -17.7198 0.3958
2 6 2 -3.2334 0.4560
2 6 4 16.8106 -0.3273
2 6 6 30.5397 -0.9689
2 6 8 22.3747 -0.7892
2 6 10 5.1985 -0.6816
2 6 12 -2.1102 -1.5427
2 6 14 1.0464 -2.0756
2 6 16 7.5933 -0.9082
2 6 18 8.9558 0.1217
2 6 20 2.5813 -0.5220
2 6 22 -1.1315 -0.6501
2 6 24 2.5047 0.6762
2 6 26 5.6183 1.1154
2 6 28 5.0338 0.7676
2 6 30 2.4345 1.5164
2 6 32 -0.6855 1.6688
2 6 34 0.3205 -0.1227
2 6 36 4.5897 -0.5976
2 6 38 5.1153 1.6366
2 7 -37 -4.2238 -0.8142
2 7 -35 -2.4043 -0.6020
2 7 -33 -0.5033 0.3506
2 7 -31 -1.7568 0.2231
2 7 -29 -4.5864 -0.4062
2 7 -27 -4.4875 -0.7290
2 7 -25 -0.2398 -0.7935
2 7 -23 4.9962 -0.2126
2 7 -21 5.9172 -0.1143
2 7 -19 0.3473 -1.4285
2 7 -17 -5.3947 -1.7521
2 7 -15 -5.0182 -0.4027
2 7 -13 -4.9261 0.0761
2 7 -11 -11.9332 -0.2149
2 7 -9 -15.4143 0.2146
2 7 -7 -5.4971 0.5928
2 7 -5 4.0150 0.5233
2 7 -3 -1.2204 0.7840
2 7 -1 -8.4539 1.3485
2 7 1 -2.3354 1.6559
2 7 3 6.0399 1.3462
2 7 5 2.4844 0.6119
2 7 7 -5.8662 0.0478
2 7 9 -11.3519 -0.0830
2 7 11 -17.3843 -0.0051
2 7 13 -20.6501 -0.3994
2 7 15 -16.2328 -1.2650
2 7 17 -10.6570 -1.4107
2 7 19 -5.9975 -0.9587
2 7 21 2.5894 -1.0036
2 7 23 8.4993 -1.0129
2 7 25 3.7928 -0.6618
2 7 27 -3.4755 -0.3788
2 7 29 -3.4980 0.6069
2 7 31 0.4634 1.7845
2 7 33 0.8421 1.2777
2 7 35 -2.5165 0.1241
2 7 37 -4.2224 0.2969
2 8 -36 3.7722 -1.5622
2 8 -34 2.6620 -0.1196
2 8 -32 -1.3490 0.8970
2 8 -30 -3.2924 0.3992
2 8 -28 -1.1268 -1.2160
2 8 -26 2.3919 -1.2279
2 8 -24 2.2276 0.0932
2 8 -22 -3.4995 -0.2454
2 8 -20 -4.3168 -0.8092
2 8 -18 5.8311 0.3711
2 8 -16 10.5440 0.6255
2 8 -14 2.4985 -0.6082
2 8 -12 0.1593 -0.4769
2 8 -10 7.4953 0.5553
2 8 -8 9.4804 0.2984
2 8 -6 8.3891 -0.2614
2 8 -4 12.8157 0.4448
2 8 -2 15.9069 1.1988
2 8 0 14.1299 0.7040
2 8 2 12.5995 -0.0097
2 8 4 9.9881 -0.2922
2 8 6 2.9023 -0.6099
2 8 8 -6.0069 -0.4838
2 8 10 -9.8756 -0.0766
2 8 12 -3.9534 -0.3353
2 8 14 4.5619 -0.5293
2 8 16 5.1546 -0.3777
2 8 18 1.5296 -0.5856
2 8 20 0.6920 -0.3421
2 8 22 0.3449 0.1774
2 8 24 0.2166 -0.1039
2 8 26 2.4096 0.1429
2 8 28 2.7780 0.7711
2 8 30 -0.2490 -0.1863
2 8 32 -2.1002 -0.6167
2 8 34 -1.9735 1.3570
2 8 36 -1.8668 2.5964
2 9 -35 6.3011 -1.0288
2 9 -33 6.4232 -0.8387
2 9 -31 3.8032 -0.8500
2 9 -29 4.8819 -0.6891
2 9 -27 7.3211 -0.1242
2 9 -25 3.3527 0.2217
2 9 -23 -1.1579 0.1465
2 9 -21 1.0620 0.3877
2 9 -19 0.4333 0.9627
2 9 -17 -6.0581 0.9720
2 9 -15 -6.1004 0.5721
2 9 -13 -0.3697 0.6961
2 9 -11 2.6954 0.7496
2 9 -9 6.0585 -0.0091
2 9 -7 8.1886 -0.2533
2 9 -5 5.1207 0.3021
2 9 -3 7.0036 -0.1875
2 9 -1 14.1263 -1.2279
2 9 1 10.4232 -0.9705
2 9 3 -1.6891 -0.4680
2 9 5 -7.1658 -0.7839
2 9 7 -6.3657 -0.6757
2 9 9 -3.2064 -0.0805
2 9 11 2.7224 -0.0774
2 9 13 5.9953 -0.3041
2 9 15 5.3221 -0.1746
2 9 17 5.9973 0.1517
2 9 19 5.8763 0.6031
2 9 21 2.4840 0.8216
2 9 23 -0.5128 0.4599
2 9 25 -4.0495 0.2532
2 9 27 -8.5167 0.7436
2 9 29 -7.3148 0.8397
2 9 31 -0.9570 -0.1919
2 9 33 2.1850 -0.5211
2 9 35 1.0948 1.6021
2 10 -34 -3.0964 0.0245
2 10 -32 -3.8964 1.0920
2 10 -30 -3.1314 0.4848
2 10 -28 -0.8990 -0.7745
2 10 -26 -0.4273 -0.6246
2 10 -24 -3.3604 0.3092
2 10 -22 -4.8143 0.6762
2 10 -20 -1.7295 0.4350
2 10 -18 1.9744 0.4811
2 10 -16 4.2924 0.9992
2 10 -14 5.9143 0.6180
2 10 -12 2.6695 -0.8140
2 10 -10 -5.8653 -1.2009
2 10 -8 -8.7885 -0.1215
2 10 -6 -3.3383 0.4653
2 10 -4 -3.5714 0.0883
2 10 -2 -12.5877 -0.0023
2 10 0 -15.0067 0.1092
2 10 2 -8.9085 -0.3030
2 10 4 -7.9241 -0.2634
2 10 6 -9.7147 0.5926
2 10 8 -3.3681 0.4936
2 10 10 3.0342 -0.4424
2 10 12 -0.1798 -0.1708
2 10 14 -3.0290 0.6971
2 10 16 1.1011 0.5290
2 10 18 2.7035 0.0439
2 10 20 -1.2728 0.0547
2 10 22 -3.6924 0.0870
2 10 24 -4.6824 -0.0979
2 10 26 -7.6827 -0.1271
2 10 28 -8.1379 0.2861
2 10 30 -2.3546 0.5590
2 10 32 4.3440 0.8047
2 10 34 6.1799 3.0480
2 11 -33 -2.0687 7.9735
2 11 -31 -0.5765 2.9217
2 11 -29 1.2369 -1.5387
2 11 -27 -1.7473 -2.0887
2 11 -25 -2.5866 -0.1563
2 11 -23 0.1920 1.0579
2 11 -21 0.1644 0.6487
2 11 -19 0.7369 -0.1165
2 11 -17 2.7278 -0.4901
2 11 -15 -2.3879 -0.4141
2 11 -13 -8.2897 -0.1673
2 11 -11 -2.7644 -0.1034
2 11 -9 5.5848 0.0454
2 11 -7 6.4525 0.0130
2 11 -5 5.2268 -0.5132
2 11 -3 2.9804 -0.4820
2 11 -1 -4.1894 0.1144
2 11 1 -8.1410 0.2730
2 11 3 -0.8120 0.3781
2 11 5 10.0436 0.2873
2 11 7 13.1135 -0.3228
2 11 9 9.1304 0.1746
2 11 11 6.9687 1.5967
2 11 13 8.3063 1.4941
2 11 15 5.8019 0.3479
2 11 17 -0.9477 0.2884
2 11 19 -5.0237 0.8562
2 11 21 -6.4603 0.6927
2 11 23 -5.5585 0.2164
2 11 25 2.7743 0.2702
2 11 27 12.0495 0.1346
2 11 29 10.0340 -1.2056
2 11 31 2.5301 -3.5257
2 11 33 0.6674 -6.2005
2 12 -32 -5.9138 0.6774
2 12 -30 1.9261 0.1987
2 12 -28 10.7706 1.1427
2 12 -26 11.4010 1.0368
2 12 -24 2.8256 -0.4021
2 12 -22 -3.1078 -0.2534
2 12 -20 -1.6924 0.7391
2 12 -18 -1.0499 0.1990
2 12 -16 -2.7415 -0.4417
2 12 -14 -2.9949 0.1832
2 12 -12 -4.6351 0.3484
2 12 -10 -8.0249 -0.6807
2 12 -8 -8.9984 -1.2060
2 12 -6 -9.4910 -0.6448
2 12 -4 -10.5964 -0.4697
2 12 -2 -6.6916 -0.9701
2 12 0 1.1894 -0.8651
2 12 2 4.6742 -0.3251
2 12 4 3.0159 -0.1981
2 12 6 1.8474 0.0648
2 12 8 1.7100 0.6317
2 12 10 -0.8845 0.8549
2 12 12 -5.9552 0.9232
2 12 14 -9.2273 1.1463
2 12 16 -7.7372 1.3733
2 12 18 -2.4416 1.5726
2 12 20 5.9934 1.5208
2 12 22 15.5770 0.9651
2 12 24 18.0902 0.0597
2 12 26 9.7421 -0.6835
2 12 28 -0.6192 -0.4237
2 12 30 -5.7838 0.9269
2 12 32 -7.2168 2.1488
2 13 -31 1.8739 -1.5472
2 13 -29 -1.3586 -2.2159
2 13 -27 -4.9631 -3.0741
2 13 -25 -6.8533 -1.1702
2 13 -23 -6.3926 1.4919
2 13 -21 -3.8961 1.3057
2 13 -19 -0.1685 0.1959
2 13 -17 3.3835 0.5172
2 13 -15 3.6316 0.1372
2 13 -13 -0.6420 -1.4195
2 13 -11 -3.8227 -1.4903
2 13 -9 -1.8183 -0.3945
2 13 -7 0.7060 -0.2077
2 13 -5 2.9636 -0.4795
2 13 -3 10.1383 -0.5168
2 13 -1 15.8028 -0.7645
2 13 1 10.5042 -0.8725
2 13 3 2.6527 -0.4008
2 13 5 0.9674 0.2091
2 13 7 -2.3881 0.5370
2 13 9 -9.5341 0.5251
2 13 11 -9.4534 0.6218
2 13 13 -0.8780 1.0894
2 13 15 6.1099 0.9243
2 13 17 6.9948 -0.0456
2 13 19 4.3273 0.1631
2 13 21 1.3023 1.6568
2 13 23 -0.5030 1.4319
2 13 25 -1.4822 -0.8003
2 13 27 -1.5015 -1.2063
2 13 29 0.2690 1.3311
2 14 -28 -3.6278 2.3025
2 14 -26 -0.0508 0.8926
2 14 -24 5.6570 -0.1245
2 14 -22 2.5848 -0.5001
2 14 -20 -1.6031 -0.9361
2 14 -18 5.2670 -0.9599
2 14 -16 9.4213 -0.1294
2 14 -14 -0.5197 0.6201
2 14 -12 -6.0765 0.2045
2 14 -10 2.0997 -0.5350
2 14 -8 6.8622 -0.6193
2 14 -6 3.2703 -0.6279
2 14 -4 3.1755 -0.1926
2 14 -2 6.1544 0.9228
2 14 0 4.0126 0.6504
2 14 2 -1.5552 -0.8739
2 14 4 -4.0480 -0.8313
2 14 6 -2.3130 0.5364
2 14 8 -0.8080 1.1069
2 14 10 -1.3118 0.8204
2 14 12 -0.1205 0.1998
2 14 14 0.4405 -0.6522
2 14 16 -5.1267 -0.9878
2 14 18 -9.7364 -0.0468
2 14 20 -7.1433 1.3203
2 14 22 -5.9135 0.9497
2 14 24 -7.5778 -1.6320
2 14 26 -2.8438 -4.6231
2 14 28 4.6151 -6.6523
2 15 -25 -2.2448 -1.4442
2 15 -23 1.8710 -1.7685
2 15 -21 10.1401 -0.6068
2 15 -19 7.4281 0.4135
2 15 -17 -4.0052 0.4487
2 15 -15 -3.1350 0.0330
2 15 -13 5.9869 -0.1801
2 15 -11 3.7664 -0.3250
2 15 -9 -2.4559 -0.5427
2 15 -7 1.3753 0.0434
2 15 -5 4.2715 0.8065
2 15 -3 -3.2143 -0.1620
2 15 -1 -8.3663 -1.0566
2 15 1 -2.2065 0.5172
2 15 3 5.5225 1.7265
2 15 5 4.8274 0.3312
2 15 7 0.0289 -0.9624
2 15 9 0.3211 -0.4985
2 15 11 3.2079 0.2870
2 15 13 0.2820 0.6071
2 15 15 -3.5935 0.6871
2 15 17 1.0577 0.2844
2 15 19 8.3183 -0.5161
2 15 21 8.4756 -0.3119
2 15 23 3.5615 1.0815
2 15 25 -0.9173 1.0634
2 16 -22 6.0079 -2.2890
2 16 -20 4.8500 -0.1034
2 16 -18 6.7321 0.8282
2 16 -16 4.8143 -0.8060
2 16 -14 -2.7193 -1.3069
2 16 -12 -5.2310 -0.0832
2 16 -10 -0.6078 0.2801
2 16 -8 1.4185 -0.2536
2 16 -6 -2.8897 -0.2312
2 16 -4 -8.5944 0.0689
2 16 -2 -10.6512 -0.1121
2 16 0 -6.9677 -0.3287
2 16 2 -1.2179 0.0317
2 16 4 -0.3204 0.3916
2 16 6 -2.6735 0.1500
2 16 8 -1.3897 0.1304
2 16 10 -0.4117 0.7747
2 16 12 -6.2944 1.1881
2 16 14 -11.5045 1.5705
2 16 16 -9.2594 2.5973
2 16 18 -6.9039 2.5659
2 16 20 -7.7131 0.2406
2 16 22 -4.9287 -1.5258
2 17 -19 -5.9208 1.6673
2 17 -17 -3.7730 2.1399
2 17 -15 2.6681 0.5590
2 17 -11 8.0231 -1.3798
2 17 -9 7.5307 -0.5651
2 17 -7 11.2394 0.0514
2 17 -5 13.0994 0.2397
2 17 -3 4.3128 0.2365
2 17 -1 -6.3580 0.1785
2 17 1 -5.0369 0.4018
2 17 3 3.1712 1.1140
2 17 5 7.4040 1.2538
2 17 7 7.6652 0.2289
2 17 9 5.5102 -0.4074
2 17 11 3.4331 0.4798
2 17 13 6.9488 1.8344
2 17 15 11.4451 1.6385
2 17 17 8.9415 -1.2078
2 17 19 4.6375 -4.7880
2 18 -16 -3.6966 1.8353
2 18 -12 -2.6996 1.1643
2 18 -10 -9.3510 2.0276
2 18 -8 -10.5300 3.3091
2 18 -6 -7.4643 0.8268
2 18 -4 -4.5851 -1.4144
2 18 -2 -0.0141 0.0017
2 18 0 3.1048 1.0282
2 18 2 0.8585 -0.9895
2 18 4 -2.9448 -1.4660
2 18 6 -6.5081 1.6283
2 18 8 -9.1524 2.4585
2 18 10 -5.9986 -0.9653
2 18 12 0.9580 -3.7934
2 18 14 6.1137 -5.7300
2 18 16 11.0386 -8.5280
2 19 -9 6.2197 -1.7817
2 19 -7 7.4187 0.7731
2 19 -5 4.4019 2.5630
2 19 -3 2.3477 1.8690
2 19 -1 1.1473 -0.2983
2 19 1 0.4160 -1.4806
2 19 3 1.8949 -0.6117
2 19 5 4.5794 -1.2128
2 19 7 4.7991 -5.8182
2 19 9 1.7941 -9.5819
3 1 -38 -6.4941 4.1728
3 1 -36 -1.0974 2.7899
3 1 -34 1.4982 -1.1880
3 1 -32 2.1228 -0.3291
3 1 -30 0.4597 2.3273
3 1 -28 -2.8892 0.3758
3 1 -26 -2.6152 -1.4119
3 1 -24 -0.2412 1.5136
3 1 -22 -1.1460 2.5968
3 1 -20 2.0376 -1.0144
3 1 -18 15.9795 -2.0594
3 1 -16 26.5848 0.2749
3 1 -14 20.9867 -0.4463
3 1 -12 9.0164 -2.0930
3 1 -10 -4.3136 -0.0410
3 1 -8 -34.9054 0.3862
3 1 -6 -75.0430 -3.0710
3 1 -4 -74.0847 -2.2070
3 1 -2 -13.1511 3.2296
3 1 0 39.4225 2.8498
3 1 4 -50.7476 -2.6053
3 1 6 -72.9224 3.6862
3 1 8 -50.6395 4.4536
3 1 10 -35.3529 -1.2348
3 1 12 -32.3562 -2.6002
3 1 14 -20.4331 1.8115
3 1 16 -6.5286 2.5020
3 1 18 -2.0666 -1.2932
3 1 20 -0.5423 -1.2679
3 1 22 3.3351 1.6465
3 1 24 6.8205 0.0317
3 1 26 7.6491 -3.1467
3 1 28 7.2909 -1.1448
3 1 30 6.9628 1.8138
3 1 32 4.5128 0.2201
3 1 34 1.5880 -1.8104
3 1 36 1.4367 -1.3726
3 1 38 -0.7935 -2.0905
3 1 40 -5.7919 -4.1864
3 2 -37 -2.2103 -0.8376
3 2 -35 -0.8744 0.8727
3 2 -33 -0.0731 0.5509
3 2 -31 0.1887 -2.2403
3 2 -29 1.9160 -3.1526
3 2 -27 1.9037 -1.7911
3 2 -25 -3.4168 -2.2880
3 2 -23 -4.8082 -4.5467
3 2 -21 8.2899 -3.4244
3 2 -19 24.0622 0.4205
3 2 -17 23.8912 0.2431
3 2 -15 15.3342 -2.2026
3 2 -13 13.3771 1.0793
3 2 -11 7.3044 5.6156
3 2 -9 -9.2995 2.4455
3 2 -7 -8.1561 -0.1449
3 2 -5 24.5138 6.1686
3 2 -3 47.0885 8.1950
3 2 -1 22.6435 -0.3732
3 2 1 -15.1601 -2.5060
3 2 3 -12.2231 4.5245
3 2 5 22.2559 2.5571
3 2 7 43.7092 -6.3422
3 2 9 43.7997 -4.9236
3 2 11 35.3739 1.2223
3 2 13 17.7421 -2.1942
3 2 15 -4.0214 -7.3616
3 2 17 -14.5404 -3.1411
3 2 19 -11.3301 1.6812
3 2 21 -3.9713 -1.3011
3 2 23 -0.2442 -2.7301
3 2 25 0.7318 3.0525
3 2 27 3.4486 5.4443
3 2 29 4.0328 0.8474
3 2 31 -0.6180 -0.2076
3 2 33 -3.2369 3.0842
3 2 35 -1.8752 2.0289
3 2 37 -0.5866 0.1268
3 2 39 1.6216 4.5052
3 3 -38 6.1610 0.6408
3 3 -36 1.8848 1.1042
3 3 -34 -0.5401 -0.4199
3 3 -32 -0.5351 -1.8745
3 3 -30 -0.5213 -1.1552
3 3 -28 -0.2120 -0.9880
3 3 -26 0.7823 -2.5224
3 3 -24 1.6637 -2.5890
3 3 -22 -1.5363 -0.9410
3 3 -20 -12.8397 -0.8774
3 3 -18 -25.1871 -1.9143
3 3 -16 -28.7004 -0.3761
3 3 -14 -25.2802 2.5125
3 3 -12 -16.1796 1.9906
3 3 -10 1.9113 0.1573
3 3 -8 20.7065 2.3451
3 3 -6 32.2893 4.5712
3 3 -4 46.1456 2.1615
3 3 -2 67.4526 1.1423
3 3 0 78.4924 3.5656
3 3 2 58.8391 2.0342
3 3 4 15.3755 -2.0306
3 3 6 -20.5482 -1.3302
3 3 8 -31.5641 0.2052
3 3 10 -27.3406 -2.6025
3 3 12 -15.6790 -4.0579
3 3 14 -0.2762 -1.3105
3 3 16 5.1899 -0.7154
3 3 18 -0.1796 -3.0839
3 3 20 -0.3716 -2.0932
3 3 22 3.5768 1.1969
3 3 24 -0.6223 0.9803
3 3 26 -7.4308 -0.1197
3 3 28 -6.5660 1.8158
3 3 30 -2.2386 2.3375
3 3 32 -0.8795 -0.0064
3 3 34 -1.0343 0.3420
3 3 36 -0.8971 2.7749
3 3 38 -1.1737 2.4667
3 3 40 -0.2784 1.2734
3 4 -39 -0.9102 1.2232
3 4 -37 -3.4013 0.6006
3 4 -35 -4.4021 -0.3759
3 4 -33 -3.7665 0.5632
3 4 -31 -0.2603 0.4671
3 4 -29 2.2448 -0.8821
3 4 -27 -0.1824 -0.1462
3 4 -25 -3.9331 1.1097
3 4 -23 -5.2409 0.4706
3 4 -21 -4.8574 -0.0366
3 4 -19 -4.2957 0.0448
3 4 -17 -3.9580 -0.6872
3 4 -15 -3.0261 -0.9182
3 4 -13 -1.4832 -0.4634
3 4 -11 2.3551 -1.3378
3 4 -9 12.8738 -2.0466
3 4 -7 20.5114 -0.2503
3 4 -5 5.0196 1.4521
3 4 -3 -25.4171 0.6224
3 4 -1 -37.2206 -0.2678
3 4 1 -21.4160 0.4578
3 4 3 2.6479 0.9651
3 4 5 20.1916 0.8966
3 4 7 25.8253 1.5090
3 4 9 18.7894 1.8945
3 4 11 4.4297 0.7143
3 4 13 -8.0551 -0.9002
3 4 15 -4.3912 -1.0629
3 4 17 16.8272 -0.0268
3 4 19 26.0652 -0.0077
3 4 21 7.4737 -1.3808
3 4 23 -9.2569 -1.7715
3 4 25 -5.8687 -1.1221
3 4 27 -1.1242 -1.4468
3 4 29 -1.3550 -1.2842
3 4 31 2.4525 0.5895
3 4 33 4.8542 0.9237
3 4 35 2.2929 -0.2381
3 4 37 1.6361 1.2918
3 4 39 1.4553 3.3590
3 5 -38 -2.8296 -3.1254
3 5 -36 -1.0276 -1.4801
3 5 -34 4.3060 1.4799
3 5 -32 8.4002 1.6445
3 5 -30 5.7614 -0.4124
3 5 -28 1.0942 -0.8600
3 5 -26 -0.1344 0.4073
3 5 -24 -0.7274 0.8416
3 5 -22 -1.2887 -0.0253
3 5 -20 1.8439 -1.0032
3 5 -18 5.2162 -0.8277
3 5 -16 3.5876 0.2891
3 5 -14 1.3892 -0.0633
3 5 -12 0.7647 -1.5794
3 5 -10 -7.3837 -0.9500
3 5 -8 -22.8436 0.4771
3 5 -6 -30.4905 -0.3038
3 5 -4 -31.3976 -0.6203
3 5 -2 -44.2422 0.9618
3 5 0 -61.0543 0.8881
3 5 2 -50.7861 -0.6153
3 5 4 -19.9500 -0.1643
3 5 6 -8.7330 1.1156
3 5 8 -20.2921 0.8335
3 5 10 -19.0355 0.2335
3 5 12 4.0091 0.3693
3 5 14 19.9777 -0.1372
3 5 16 10.1252 -1.2793
3 5 18 -8.7414 -1.2667
3 5 20 -11.3284 -0.4909
3 5 22 -1.6330 -0.5913
3 5 24 0.5812 -0.9100
3 5 26 -3.0794 -0.4310
3 5 28 -2.6826 0.1588
3 5 30 -2.1257 0.4109
3 5 32 -2.1914 0.3660
3 5 34 0.7750 -0.3788
3 5 36 1.2941 -2.3996
3 5 38 -1.6549 -5.7601
3 6 -37 6.2474 -1.9753
3 6 -35 5.7666 -0.7171
3 6 -33 -1.2937 0.5217
3 6 -31 -7.4293 0.2237
3 6 -29 -4.1913 -0.5701
3 6 -27 0.7525 -1.4642
3 6 -25 0.5051 -1.0990
3 6 -23 1.6322 0.4742
3 6 -21 6.1806 0.4826
3 6 -19 9.3723 -0.4520
3 6 -17 10.8174 0.3086
3 6 -15 7.5639 1.3965
3 6 -13 -2.1398 0.9691
3 6 -11 -8.0180 0.3422
3 6 -9 -6.7300 0.6374
3 6 -7 -11.0680 0.9546
3 6 -5 -24.2197 0.4994
3 6 -3 -30.8402 0.1198
3 6 -1 -18.3439 0.3050
3 6 1 4.7063 -0.0719
3 6 3 16.9026 -0.8573
3 6 5 15.7182 -0.9022
3 6 7 16.9079 -0.8944
3 6 9 16.4076 -1.2240
3 6 11 0.8398 -0.9676
3 6 13 -13.9591 -0.3214
3 6 15 -9.0864 -0.0416
3 6 17 2.7260 -0.4223
3 6 19 5.3357 -0.8501
3 6 21 2.9624 0.2551
3 6 23 2.1519 1.8687
3 6 25 1.4135 1.3220
3 6 27 0.3067 -0.0130
3 6 29 2.0064 -0.0865
3 6 31 5.5810 -0.2923
3 6 33 5.2822 -0.2521
3 6 35 1.0978 2.2626
3 6 37 -0.9809 5.7732
3 7 -38 -2.2935 -1.9430
3 7 -36 0.5853 -1.1199
3 7 -34 0.1344 -0.0333
3 7 -32 -0.3173 0.3985
3 7 -30 1.1065 -0.2657
3 7 -28 3.4723 -0.7281
3 7 -26 5.8382 0.0697
3 7 -24 4.2136 0.7048
3 7 -22 0.0218 0.3910
3 7 -20 0.8476 0.3616
3 7 -18 2.9336 0.6562
3 7 -16 -0.8187 0.4083
3 7 -14 -4.4384 0.3719
3 7 -12 -3.8062 0.9227
3 7 -10 -0.2032 0.3936
3 7 -8 10.9958 -0.9597
3 7 -6 26.7630 -0.5101
3 7 -4 37.3571 0.6627
3 7 -2 44.5725 -0.3165
3 7 0 45.5886 -1.2171
3 7 2 29.0354 -0.0447
3 7 4 4.1675 0.0861
3 7 6 -10.8527 -0.9837
3 7 8 -14.8256 -0.0634
3 7 10 -9.2355 1.3117
3 7 12 2.5108 0.6898
3 7 14 5.8443 -0.0567
3 7 16 0.4046 0.3239
3 7 18 1.9958 0.8163
3 7 20 9.6019 0.8528
3 7 22 10.7472 0.1631
3 7 24 5.9707 -0.4136
3 7 26 2.4285 0.4434
3 7 28 2.1515 1.2834
3 7 30 1.7732 0.5182
3 7 32 -2.8740 0.0285
3 7 34 -7.8416 1.1007
3 7 36 -6.1060 1.8506
3 7 38 -0.9783 1.1215
3 8 -37 1.0438 0.1131
3 8 -35 4.3123 0.2124
3 8 -33 6.5985 -0.0956
3 8 -31 3.3628 0.4185
3 8 -29 -2.4814 0.6135
3 8 -27 -4.8646 0.3639
3 8 -25 -2.6415 0.3029
3 8 -23 0.4574 -0.0170
3 8 -21 -0.7651 -0.2699
3 8 -19 -6.4028 0.1522
3 8 -17 -9.4962 0.4643
3 8 -15 -6.2427 0.2079
3 8 -13 0.3476 -0.2537
3 8 -11 6.5551 -0.9035
3 8 -9 8.9192 -1.3778
3 8 -7 7.9791 -1.1020
3 8 -5 8.6933 -0.6254
3 8 -3 7.5921 -0.6578
3 8 -1 -0.5118 -0.7415
3 8 1 -4.9535 -0.4081
3 8 3 0.5220 0.0043
3 8 5 1.7055 0.3674
3 8 7 -5.7420 0.6951
3 8 9 -8.6852 0.7330
3 8 11 -5.8802 0.9644
3 8 13 -4.2372 1.6923
3 8 15 -2.0581 1.7333
3 8 17 -0.5552 0.9171
3 8 19 -3.2564 0.5748
3 8 21 -4.4015 0.4233
3 8 23 -2.1036 -0.2848
3 8 25 -3.2728 -0.5580
3 8 27 -6.7535 -0.2319
3 8 29 -5.4612 -0.6136
3 8 31 -0.5462 -1.3486
3 8 33 2.4224 -0.3497
3 8 35 2.7783 2.6756
3 8 37 2.8770 4.4189
3 9 -36 -2.9098 6.8028
3 9 -34 -5.1814 6.0229
3 9 -32 -6.7759 1.8666
3 9 -30 -1.4716 -2.0706
3 9 -28 5.0121 -2.2299
3 9 -26 1.8082 0.0694
3 9 -24 -4.9003 1.4142
3 9 -22 -3.9300 0.3692
3 9 -20 1.7764 -0.9734
3 9 -18 6.8150 -0.0771
3 9 -16 8.7814 1.3314
3 9 -14 2.3524 0.4617
3 9 -12 -7.8183 -1.1472
3 9 -10 -7.1264 -0.8900
3 9 -8 2.6216 0.1471
3 9 -6 5.2192 -0.2292
3 9 -4 -0.9422 -1.0879
3 9 -2 -4.1991 -0.8686
3 9 0 -3.8243 -0.9943
3 9 2 -8.1987 -1.7887
3 9 4 -13.5888 -0.9563
3 9 6 -7.9244 0.3887
3 9 8 5.2027 -0.1498
3 9 10 9.9937 -0.4642
3 9 12 3.9674 0.7716
3 9 14 -2.1248 1.1896
3 9 16 -2.4600 0.5417
3 9 18 0.4451 0.6167
3 9 20 0.7112 1.3333
3 9 22 -3.7988 1.4521
3 9 24 -5.7823 0.5071
3 9 26 -1.2768 -0.5566
3 9 28 0.6369 -1.0392
3 9 30 -3.5723 -1.5961
3 9 32 -4.1199 -1.3705
3 9 34 0.9977 0.8823
3 9 36 2.9028 2.3082
3 10 -35 -1.9680 2.4300
3 10 -33 1.3801 2.6613
3 10 -31 5.3812 1.1716
3 10 -29 2.0792 -0.4425
3 10 -27 -0.3844 -0.7125
3 10 -25 4.0910 -0.5167
3 10 -23 5.8369 0.0643
3 10 -21 3.9715 1.2054
3 10 -19 5.1764 0.8923
3 10 -17 4.2344 -0.5439
3 10 -15 0.0904 -0.3710
3 10 -13 0.9053 0.4650
3 10 -11 2.2461 0.0955
3 10 -9 -2.6087 -0.1593
3 10 -7 -6.5943 0.1500
3 10 -5 -7.3863 -0.3445
3 10 -3 -11.3994 -1.3857
3 10 -1 -15.4861 -1.6600
3 10 1 -11.8152 -1.0334
3 10 3 -1.8482 -0.5026
3 10 5 6.6104 -0.6135
3 10 7 7.3326 -0.7906
3 10 9 1.6560 -0.6190
3 10 11 -3.0421 -0.2647
3 10 13 -3.0894 0.1458
3 10 15 1.0418 0.4566
3 10 17 8.2692 0.6461
3 10 19 12.8338 0.6695
3 10 21 9.7164 0.4667
3 10 23 3.8109 0.4522
3 10 25 1.2590 0.3293
3 10 27 1.6692 -0.1716
3 10 29 3.6928 0.4407
3 10 31 5.6460 1.2140
3 10 33 4.5188 -1.5177
3 10 35 1.2825 -5.6105
3 11 -34 -7.9233 1.2630
3 11 -32 -5.4260 2.1872
3 11 -30 -2.7310 2.8849
3 11 -28 -4.0745 1.9201
3 11 -26 -5.8095 -0.0705
3 11 -24 -3.8845 -0.8312
3 11 -22 -2.1784 -0.5001
3 11 -20 -3.4904 -0.4636
3 11 -18 -3.3466 -0.3601
3 11 -16 -1.9247 0.1436
3 11 -14 -4.3375 0.2943
3 11 -12 -7.0828 0.0259
3 11 -10 -5.3811 -0.4227
3 11 -8 -4.1863 -1.0472
3 11 -6 -5.0456 -0.9983
3 11 -4 -2.2606 -0.0170
3 11 -2 2.0549 0.2506
3 11 0 2.7257 -0.6877
3 11 2 3.8989 -0.9664
3 11 4 7.4076 0.0239
3 11 6 6.1896 0.7857
3 11 8 0.4504 0.6903
3 11 10 -0.4506 0.4188
3 11 12 3.9945 0.3787
3 11 14 3.4907 0.4692
3 11 16 -6.3186 0.3324
3 11 18 -16.3670 -0.1331
3 11 20 -15.7253 -0.2106
3 11 22 -5.7101 0.4102
3 11 24 3.4918 0.5665
3 11 26 6.8931 -0.4811
3 11 28 6.1087 -1.2478
3 11 30 2.1328 -0.1255
3 11 32 -3.2438 1.4806
3 12 -31 3.2718 -5.9343
3 12 -29 2.4614 -1.2929
3 12 -27 4.5187 1.3509
3 12 -25 3.2064 1.7056
3 12 -23 2.0344 0.2543
3 12 -21 3.0393 -1.5330
3 12 -19 2.7034 -1.2628
3 12 -17 2.2557 0.1147
3 12 -15 2.0128 0.1556
3 12 -13 -0.5285 -0.2952
3 12 -11 -0.8634 -0.2442
3 12 -9 3.4457 -0.4941
3 12 -7 4.8552 -0.6359
3 12 -5 2.6101 -0.1807
3 12 -3 5.2619 0.1328
3 12 -1 11.5005 0.2308
3 12 1 11.6934 0.2566
3 12 3 5.7061 0.1742
3 12 5 2.1324 0.6254
3 12 7 3.0559 1.3493
3 12 9 1.2233 1.0061
3 12 11 -4.8151 0.0288
3 12 13 -5.2283 0.1371
3 12 15 2.3343 0.7304
3 12 17 6.7118 0.0080
3 12 19 4.0756 -0.7125
3 12 21 1.5881 0.4219
3 12 23 1.1314 1.3049
3 12 25 0.8416 0.3503
3 12 27 2.0044 -0.6294
3 12 29 3.1565 -1.3446
3 12 31 1.7435 -2.2689
3 13 -28 -12.4414 2.9820
3 13 -26 -8.4563 -0.8611
3 13 -24 -0.5245 -2.3211
3 13 -22 2.5769 -1.3010
3 13 -20 3.9113 -0.5552
3 13 -18 4.4099 -0.2458
3 13 -16 1.4764 0.8142
3 13 -14 -0.5999 1.1410
3 13 -12 -0.0985 -0.0625
3 13 -10 -1.4803 -0.5648
3 13 -8 -3.4691 0.0473
3 13 -6 -1.9011 0.1904
3 13 -4 1.4168 -0.0570
3 13 -2 2.3412 -0.1595
3 13 0 -0.3005 -0.1467
3 13 2 -3.3895 -0.0025
3 13 4 -4.8517 -0.1709
3 13 6 -9.2667 -0.4713
3 13 8 -14.7271 0.0162
3 13 10 -8.5255 0.9283
3 13 12 4.3790 1.1128
3 13 14 3.7682 0.2941
3 13 16 -3.2277 -0.6301
3 13 18 4.0351 -0.6749
3 13 20 12.4487 -0.2266
3 13 22 1.8405 0.1809
3 13 24 -12.5610 0.5068
3 13 26 -11.6291 -0.3185
3 13 28 -3.6910 -1.8455
3 13 30 -0.9197 -1.2170
3 14 -29 -1.2891 -1.8403
3 14 -27 -0.2097 0.1716
3 14 -25 0.4487 0.6213
3 14 -23 -3.4121 -0.3955
3 14 -21 -8.5170 -0.5792
3 14 -19 -9.0016 0.0592
3 14 -17 -4.4870 -0.1333
3 14 -15 0.4935 -0.5925
3 14 -13 3.0750 -0.1743
3 14 -11 4.2576 0.1433
3 14 -9 6.3004 -0.1661
3 14 -7 7.7283 -0.1964
3 14 -5 2.4160 -0.1185
3 14 -3 -7.9014 -0.3514
3 14 -1 -10.0647 -0.1336
3 14 1 -2.4745 0.6523
3 14 3 0.0769 0.9443
3 14 5 -3.5258 0.1830
3 14 7 0.6919 -0.7629
3 14 9 8.7509 -0.7205
3 14 11 5.4122 -0.3180
3 14 13 -1.7006 -0.7068
3 14 15 1.7541 -0.9422
3 14 17 4.4505 -0.3490
3 14 19 -5.2621 -0.4547
3 14 21 -11.9126 -1.7202
3 14 23 -4.4831 -2.7407
3 14 25 2.6585 -3.1336
3 14 27 0.0986 -3.4356
3 15 -26 -1.7884 3.1272
3 15 -24 4.5224 0.3128
3 15 -22 11.9642 -1.7517
3 15 -20 8.4679 -0.7258
3 15 -18 0.7521 0.1968
3 15 -16 0.4173 -0.6275
3 15 -14 1.5321 -0.5333
3 15 -12 -2.5035 0.7033
3 15 -10 -4.7380 0.6053
3 15 -8 -1.7540 -0.0202
3 15 -6 -0.3430 0.5472
3 15 -4 -4.9426 0.9072
3 15 -2 -11.0215 0.2868
3 15 0 -8.7128 0.0953
3 15 2 2.7428 0.5520
3 15 4 9.6219 0.6197
3 15 6 6.2705 0.0371
3 15 8 2.2410 -0.5832
3 15 10 -0.5877 -0.8055
3 15 12 -5.9940 -0.9360
3 15 14 -7.8784 -1.0807
3 15 16 -4.5295 -1.1643
3 15 18 -3.6326 -2.0094
3 15 20 -4.2664 -3.1295
3 15 22 -1.8089 -1.5097
3 15 24 0.5599 3.4557
3 15 26 1.2299 7.5272
3 16 -23 -1.5582 8.2105
3 16 -21 1.7301 3.8863
3 16 -19 1.4021 -0.2874
3 16 -17 -6.8105 -0.5959
3 16 -15 -7.3077 0.4901
3 16 -13 5.6000 0.0918
3 16 -11 10.2442 0.0775
3 16 -9 0.2978 1.3008
3 16 -7 -4.2182 1.5163
3 16 -5 0.7822 0.9910
3 16 -3 1.8618 1.0107
3 16 -1 -2.8943 0.6602
3 16 1 -7.5002 -0.0568
3 16 3 -7.6109 -0.0662
3 16 5 -0.8567 0.4755
3 16 7 4.9538 0.6402
3 16 9 2.2863 -0.3841
3 16 11 -0.2896 -1.4044
3 16 13 2.7087 -0.4923
3 16 15 3.6216 0.3665
3 16 17 2.1425 -1.2825
3 16 19 2.9180 -3.0028
3 16 21 2.7789 -2.3059
3 16 23 0.9616 -0.5544
3 17 -20 -8.7679 -1.7097
3 17 -18 -3.4371 -1.3757
3 17 -16 10.3385 0.8576
3 17 -14 13.1017 1.9875
3 17 -12 4.6112 1.4128
3 17 -10 4.6745 0.6224
3 17 -8 11.6082 0.2163
3 17 -6 10.5447 -0.1296
3 17 -4 6.9275 0.2528
3 17 -2 9.9076 1.4741
3 17 0 11.3746 1.2440
3 17 2 5.4362 -0.2919
3 17 4 -1.0871 0.0162
3 17 6 -2.3972 0.8956
3 17 8 2.0317 -0.5774
3 17 10 8.8131 -1.8239
3 17 12 11.5505 -0.8581
3 17 14 9.7383 -0.2406
3 17 16 8.6560 0.0234
3 17 18 8.9442 2.2649
3 18 -13 -12.8334 0.1038
3 18 -11 -2.4079 1.3592
3 18 -9 -1.1914 2.5362
3 18 -7 -6.4335 1.7949
3 18 -5 -5.2492 0.1435
3 18 -3 1.2110 -0.4336
3 18 -1 2.3359 -0.0554
3 18 1 -1.3756 0.2841
3 18 3 -2.7984 0.2793
3 18 5 -3.1675 -0.0440
3 18 7 -6.2632 -0.5812
3 18 9 -9.3311 -1.2049
3 18 11 -9.4707 -1.5193
3 18 13 -8.5613 -0.7438
3 18 15 -8.3104 0.9165
3 19 -8 -3.6825 -3.3081
3 19 -6 -0.2061 1.7431
3 19 -4 1.9149 3.2952
3 19 -2 0.4017 1.0005
3 19 0 -1.4857 0.7020
3 19 2 -1.3884 1.9468
3 19 4 -0.0172 -0.0472
3 19 6 1.8043 -2.3192
3 19 8 2.5767 -0.1492
4 0 -38 -8.6949 3.8059
4 0 -36 -2.7417 3.4710
4 0 -34 -1.3299 8.1946
4 0 -32 -2.9306 5.4907
4 0 -30 -3.7957 -4.1151
4 0 -28 -3.6378 -6.0287
4 0 -26 -4.9001 -2.2312
4 0 -24 -9.8253 -7.4395
4 0 -22 -9.1261 -16.0118
4 0 -20 11.2584 -11.9343
4 0 -18 37.2806 -4.2553
4 0 -16 38.1870 -9.0124
4 0 -14 22.1478 -12.4763
4 0 -12 18.1810 0.2160
4 0 -10 5.3931 9.5157
4 0 -8 -49.6203 2.1361
4 0 -6 -97.4533 1.6599
4 0 -4 -58.2232 16.8347
4 0 -2 38.9453 20.1526
4 0 0 84.8756 7.0519
4 0 4 40.0966 14.1922
4 0 6 64.0711 9.0831
4 0 8 77.8036 -4.2455
4 0 10 54.9428 -5.0682
4 0 12 23.0856 -2.1674
4 0 14 2.1830 -9.6744
4 0 16 -9.8257 -15.4282
4 0 18 -18.3554 -9.9385
4 0 20 -23.7096 -6.7089
4 0 22 -20.3364 -11.3100
4 0 24 -10.6802 -9.8272
4 0 26 -3.8831 -0.3323
4 0 28 -0.0104 2.8588
4 0 30 0.7010 0.3095
4 0 32 -3.5743 4.2415
4 0 34 -3.5525 9.9710
4 0 36 4.0282 7.9211
4 0 38 8.2791 6.4188
4 0 40 5.7871 11.0814
4 1 -37 2.6057 3.3286
4 1 -35 3.0335 1.6541
4 1 -33 2.8668 -1.7500
4 1 -31 0.7370 0.5136
4 1 -29 -1.3264 2.7996
4 1 -27 -2.0268 -1.1430
4 1 -25 -2.2390 -3.1538
4 1 -23 -0.0606 1.0339
4 1 -21 3.4639 1.7009
4 1 -19 1.4843 -3.2730
4 1 -17 -4.0171 -3.4409
4 1 -15 -5.6331 2.1008
4 1 -13 -10.4119 2.6837
4 1 -11 -23.5406 -2.9377
4 1 -9 -24.4838 -4.0633
4 1 -7 2.3972 1.6273
4 1 -5 33.1296 3.4158
4 1 -3 34.2134 -1.0663
4 1 -1 7.9218 -1.2148
4 1 1 -20.2040 3.3616
4 1 3 -38.5864 2.5410
4 1 5 -46.6916 -1.3292
4 1 7 -40.4310 -0.0231
4 1 9 -25.4061 1.8032
4 1 11 -14.4523 -0.8171
4 1 13 -6.7586 -1.7399
4 1 15 1.1255 0.7866
4 1 17 5.0872 0.2656
4 1 19 7.8545 -2.5024
4 1 21 10.7835 -1.5118
4 1 23 6.5097 0.4925
4 1 25 -0.2024 -1.2811
4 1 27 0.6868 -2.2827
4 1 29 3.2383 0.5653
4 1 31 1.3048 1.2662
4 1 33 -0.3655 -1.3404
4 1 35 -0.8808 -1.1627
4 1 37 -3.5774 0.6968
4 1 39 -6.5368 -0.8135
4 2 -38 3.1617 1.0263
4 2 -36 -0.3079 0.2220
4 2 -34 -0.8425 0.4251
4 2 -32 1.5999 0.9457
4 2 -30 4.7803 0.1260
4 2 -28 4.4758 -0.4775
4 2 -26 1.7223 0.7222
4 2 -24 2.0110 1.3291
4 2 -22 1.6157 0.1657
4 2 -20 -5.8601 -0.3215
4 2 -18 -12.8272 0.6581
4 2 -16 -9.1757 1.1272
4 2 -14 2.6744 -0.3683
4 2 -12 19.1054 -2.3987
4 2 -10 41.6138 -1.5122
4 2 -8 59.2119 1.3516
4 2 -6 45.5774 0.4750
4 2 -4 -3.7528 -3.5182
4 2 -2 -46.4107 -3.4099
4 2 0 -40.7839 0.5071
4 2 2 -6.4667 0.9015
4 2 4 5.6850 -1.8139
4 2 6 -13.0172 -0.9885
4 2 8 -29.6204 2.1110
4 2 10 -25.1013 1.5208
4 2 12 -12.4072 -0.6136
4 2 14 -7.0040 0.4336
4 2 16 -4.7054 1.8412
4 2 18 1.7251 0.6717
4 2 20 3.6105 -0.1249
4 2 22 -3.4464 0.7967
4 2 24 -6.0355 1.1542
4 2 26 -0.6167 0.2188
4 2 28 1.3374 -0.8680
4 2 30 -0.0694 -0.7987
4 2 32 1.0187 0.2781
4 2 34 0.8345 -0.0059
4 2 36 -0.7374 -1.6500
4 2 38 0.6969 -1.5466
4 2 40 2.0271 -0.3094
4 3 -39 -5.6281 -0.7526
4 3 -37 -2.8237 -1.6946
4 3 -35 -2.0926 0.3025
4 3 -33 -3.8331 1.9685
4 3 -31 -4.1294 -0.3691
4 3 -29 -1.2545 -1.7912
4 3 -27 2.7796 -0.2206
4 3 -25 2.5399 -0.6239
4 3 -23 -3.0536 -2.3224
4 3 -21 -5.0407 -1.1860
4 3 -19 -0.2152 -0.0771
4 3 -17 -1.2891 -1.1672
4 3 -15 -13.9985 -0.6170
4 3 -13 -24.4066 1.1650
4 3 -11 -26.3547 0.5546
4 3 -9 -31.6914 -0.3413
4 3 -7 -35.4388 0.5685
4 3 -3 34.7240 1.2744
4 3 -1 57.3309 1.5337
4 3 1 42.4328 0.3270
4 3 3 28.2881 -0.8473
4 3 5 31.4801 -0.0521
4 3 7 25.9859 0.2637
4 3 9 6.7791 -0.6294
4 3 11 -3.1423 -0.5946
4 3 13 0.3339 -0.6715
4 3 15 5.4214 -1.7492
4 3 17 6.2622 -1.2904
4 3 19 3.1603 0.3973
4 3 21 4.2487 0.2880
4 3 23 10.6486 -0.5403
4 3 25 7.7903 0.3706
4 3 27 -3.1383 1.3223
4 3 29 -5.0131 0.4635
4 3 31 0.0068 -0.5972
4 3 33 0.9664 -0.2812
4 3 35 -0.3814 0.9783
4 3 37 -1.4933 1.5903
4 3 39 -2.0965 0.0576
4 4 -38 2.6365 -2.8652
4 4 -36 3.3652 -2.2594
4 4 -34 6.2511 0.0359
4 4 -32 5.7542 1.0334
4 4 -30 2.4094 -0.1485
4 4 -28 1.1980 -1.3645
4 4 -26 1.0097 -0.9481
4 4 -24 1.3683 0.3537
4 4 -22 3.8526 0.4463
4 4 -20 1.3569 -0.3900
4 4 -18 -7.5626 0.4707
4 4 -16 -8.5500 2.0147
4 4 -14 -0.8192 1.2734
4 4 -12 1.8567 -0.0734
4 4 -10 7.3137 0.0958
4 4 -8 24.8244 0.2712
4 4 -6 23.5458 0.2133
4 4 -4 -22.5697 0.6850
4 4 -2 -72.7571 0.1473
4 4 0 -67.4390 -1.5722
4 4 2 -18.4346 -1.7401
4 4 4 12.5052 0.2183
4 4 6 8.7457 1.0574
4 4 8 1.4601 -0.7448
4 4 10 1.1255 -1.9002
4 4 12 -0.3443 -0.4152
4 4 14 3.6095 0.8707
4 4 16 13.1862 0.3151
4 4 18 13.4963 -0.3080
4 4 20 1.9251 0.1146
4 4 22 -10.5896 0.9740
4 4 24 -14.4154 0.7103
4 4 26 -7.7908 -0.7670
4 4 28 0.6967 -0.5444
4 4 30 4.3854 1.4643
4 4 32 5.4490 1.6724
4 4 34 4.1678 0.6000
4 4 36 0.9456 0.1144
4 4 38 0.1884 -1.8180
4 5 -39 -4.9119 -2.8940
4 5 -37 -1.6959 -1.2228
4 5 -35 1.7356 -0.4982
4 5 -33 1.4151 -1.4010
4 5 -31 0.8893 -0.8368
4 5 -29 0.4270 0.5637
4 5 -27 -0.7406 0.8250
4 5 -25 0.7850 1.2030
4 5 -23 2.1024 1.7799
4 5 -21 1.5270 1.1535
4 5 -19 7.7597 0.6233
4 5 -17 17.7090 1.3161
4 5 -15 18.1885 1.3213
4 5 -13 13.0132 0.0986
4 5 -11 7.7949 -0.2316
4 5 -9 -4.4475 -0.0401
4 5 -7 -16.7056 -1.2577
4 5 -5 -12.5404 -2.1650
4 5 -3 2.4706 -1.4708
4 5 -1 8.7493 -1.8032
4 5 1 -3.1346 -2.9096
4 5 3 -23.1129 -1.8997
4 5 5 -28.1574 -0.2719
4 5 7 -11.2277 -0.0802
4 5 9 10.1771 0.2901
4 5 11 22.3947 1.3809
4 5 13 23.0892 1.9483
4 5 15 14.1321 1.6872
4 5 17 8.5244 0.8457
4 5 19 14.5017 0.3362
4 5 21 18.7526 0.6424
4 5 23 13.0000 0.7850
4 5 25 7.1009 0.7553
4 5 27 5.5735 0.6999
4 5 29 4.2345 -0.4052
4 5 31 2.4674 -1.2633
4 5 33 1.0096 -0.2477
4 5 35 0.6715 0.3445
4 5 37 2.6714 -0.5444
4 6 -38 3.2088 -0.5767
4 6 -36 1.9306 -0.2864
4 6 -34 -2.5861 0.1595
4 6 -32 -5.8058 0.0324
4 6 -30 -6.9907 -0.1163
4 6 -28 -4.9399 -0.0423
4 6 -26 -0.3078 0.2771
4 6 -24 1.7763 0.3962
4 6 -22 -0.3059 -0.0229
4 6 -20 -4.4257 0.0337
4 6 -18 -8.7714 0.5720
4 6 -16 -10.3219 0.2659
4 6 -14 -8.7511 0.0200
4 6 -12 -6.5819 0.7543
4 6 -10 -4.0646 0.5265
4 6 -8 -4.2059 -0.8209
4 6 -6 -7.7162 -1.1561
4 6 -4 -3.2407 -1.1033
4 6 -2 10.9842 -1.6887
4 6 0 17.9603 -1.3349
4 6 2 14.6803 -0.3110
4 6 4 13.0084 -0.6451
4 6 6 9.4966 -1.2414
4 6 8 -2.4960 -0.5566
4 6 10 -13.7528 -0.0627
4 6 12 -17.1089 -0.1892
4 6 14 -15.8185 0.5221
4 6 16 -14.5248 1.3425
4 6 18 -15.4576 1.0858
4 6 20 -12.8101 0.7773
4 6 22 -2.7955 0.6515
4 6 24 2.6914 0.0633
4 6 26 -1.0921 0.0055
4 6 28 -2.1270 0.5844
4 6 30 -0.7664 0.2354
4 6 32 -4.9815 -0.5111
4 6 34 -6.8685 -0.1567
4 6 36 -1.2661 0.4956
4 6 38 2.5424 0.5490
4 7 -37 -3.3595 4.4613
4 7 -35 -0.9033 2.5025
4 7 -33 3.0858 0.9410
4 7 -31 3.7627 0.3360
4 7 -29 2.8046 -0.1099
4 7 -27 0.1103 -0.4583
4 7 -25 -4.2766 -0.8907
4 7 -23 -3.2938 -0.9046
4 7 -21 3.0153 -0.3720
4 7 -19 6.1352 -0.2443
4 7 -17 7.8041 -0.2189
4 7 -15 10.7114 0.4539
4 7 -13 5.6242 0.8647
4 7 -11 -4.1076 0.4032
4 7 -9 1.3410 0.2584
4 7 -7 20.0922 0.8013
4 7 -5 28.0954 0.4187
4 7 -3 21.4317 -0.6991
4 7 -1 17.8577 -0.3599
4 7 1 18.7894 0.3800
4 7 3 9.3550 -0.5471
4 7 5 -5.6102 -1.1083
4 7 7 -6.0288 -0.3050
4 7 9 3.9967 -0.5456
4 7 11 2.5559 -1.4323
4 7 13 -11.2498 -0.9910
4 7 15 -21.1939 -0.1602
4 7 17 -20.8348 0.0395
4 7 19 -14.4374 0.0722
4 7 21 -7.7335 0.2218
4 7 23 -3.3883 0.6259
4 7 25 -0.7566 1.0103
4 7 27 -1.7124 0.9892
4 7 29 -6.5261 0.7378
4 7 31 -8.2812 0.3221
4 7 33 -5.1118 0.4933
4 7 35 -2.7203 1.9344
4 7 37 -1.4478 2.5824
4 8 -36 1.4785 2.1540
4 8 -34 1.4133 -0.8383
4 8 -32 2.7071 -0.8475
4 8 -30 1.3496 0.4172
4 8 -28 -2.6263 0.5862
4 8 -26 1.1018 0.5844
4 8 -24 9.6741 0.2854
4 8 -22 8.3503 -0.7884
4 8 -20 2.2015 -0.7108
4 8 -18 0.9968 0.6192
4 8 -16 -4.9133 0.8473
4 8 -14 -13.3855 -0.1656
4 8 -12 -6.9473 -0.4841
4 8 -10 5.8357 0.3639
4 8 -8 6.7820 0.5236
4 8 -6 4.4395 -0.5241
4 8 -4 6.5764 -0.4765
4 8 -2 1.5112 0.2543
4 8 0 -10.1811 -0.8494
4 8 2 -11.4084 -1.5702
4 8 4 -0.6054 0.2501
4 8 6 4.4929 1.1805
4 8 8 -3.0505 -0.0143
4 8 10 -7.6381 -0.1864
4 8 12 1.2304 0.7531
4 8 14 13.0691 0.6154
4 8 16 19.3806 -0.1026
4 8 18 20.8756 -0.0252
4 8 20 12.6493 0.3462
4 8 22 -3.0420 0.2020
4 8 24 -8.7755 -0.0187
4 8 26 -1.2474 -0.0424
4 8 28 3.9027 -0.0146
4 8 30 2.2665 0.7744
4 8 32 2.0457 1.7346
4 8 34 3.5820 0.6311
4 8 36 2.2643 -1.5143
4 9 -35 -6.2047 2.3730
4 9 -33 -3.6745 3.0653
4 9 -31 -0.7749 1.0736
4 9 -29 0.4451 0.3773
4 9 -27 -0.3952 0.5585
4 9 -25 -3.1924 -0.5667
4 9 -23 -2.9244 -0.8568
4 9 -21 2.6543 0.5042
4 9 -19 6.0418 0.7313
4 9 -17 4.6928 -0.2609
4 9 -15 4.3128 -0.3515
4 9 -13 4.4510 0.1146
4 9 -11 2.1590 -0.1713
4 9 -9 -1.8527 -0.8573
4 9 -7 -9.4011 -1.0622
4 9 -5 -18.0486 -0.7732
4 9 -3 -19.3999 -0.4973
4 9 -1 -16.0525 -0.3660
4 9 1 -15.7683 0.0283
4 9 3 -13.9571 0.7339
4 9 5 -5.6468 0.8897
4 9 7 3.2316 0.2095
4 9 9 7.2830 -0.0058
4 9 11 6.6834 0.7222
4 9 13 4.0484 1.0434
4 9 15 2.1853 0.6592
4 9 17 -1.1594 0.3346
4 9 19 -7.5341 -0.0591
4 9 21 -9.4785 -0.0373
4 9 23 -3.7454 0.8090
4 9 25 1.1947 0.3153
4 9 27 1.1909 -1.8457
4 9 29 0.8286 -1.6595
4 9 31 2.0091 1.2581
4 9 33 2.7117 1.4624
4 9 35 1.7257 -2.1982
4 10 -34 -0.4914 -5.8371
4 10 -32 -2.2907 -2.6560
4 10 -30 -4.1253 0.5430
4 10 -28 -1.0459 1.3898
4 10 -26 4.2091 0.4959
4 10 -24 3.6732 -0.3109
4 10 -22 -3.9245 -0.6638
4 10 -20 -12.7231 -0.8564
4 10 -18 -14.8508 -0.4492
4 10 -16 -6.0817 0.2482
4 10 -14 5.9797 0.3377
4 10 -12 7.9053 0.0848
4 10 -10 0.1955 -0.0251
4 10 -8 -4.3522 0.0740
4 10 -6 -3.9783 0.3428
4 10 -4 -7.2024 0.1715
4 10 -2 -9.8977 -0.2162
4 10 0 -1.8954 0.1340
4 10 2 8.6185 0.3012
4 10 4 8.5240 -0.2656
4 10 6 4.3647 0.0662
4 10 8 5.0265 0.7473
4 10 10 4.1685 -0.2629
4 10 12 0.0508 -1.2849
4 10 14 0.5080 -0.1638
4 10 16 2.7119 0.8275
4 10 18 0.4523 -0.3375
4 10 20 -0.4212 -1.2910
4 10 22 2.4512 -0.3440
4 10 24 1.9180 0.5767
4 10 26 -0.1436 0.6451
4 10 28 3.0837 0.4861
4 10 30 6.2375 -1.4099
4 10 32 2.6305 -5.0355
4 10 34 -2.1748 -6.5925
4 11 -33 4.1108 -7.0600
4 11 -31 -0.6398 -1.3884
4 11 -29 -8.1453 1.8467
4 11 -27 -12.4918 0.8406
4 11 -25 -6.7513 0.1375
4 11 -23 0.0723 0.2877
4 11 -21 -1.6825 -0.2825
4 11 -19 -2.8796 -0.5797
4 11 -17 0.5692 -0.2704
4 11 -15 -1.2812 -0.1677
4 11 -13 -5.5998 -0.0969
4 11 -11 -3.5198 0.1762
4 11 -9 -2.7473 0.3111
4 11 -7 -7.0544 0.1752
4 11 -5 -2.8128 0.1746
4 11 -3 9.7600 0.4537
4 11 -1 10.5923 0.5188
4 11 1 -1.5655 0.4396
4 11 3 -5.7168 0.4632
4 11 5 0.0109 0.1561
4 11 7 -2.4294 -0.2837
4 11 9 -9.7023 -0.4297
4 11 11 -3.4394 -0.4781
4 11 13 8.7242 -0.2999
4 11 15 8.2938 -0.3345
4 11 17 2.4331 -1.0771
4 11 19 2.0639 -1.2228
4 11 21 -0.6248 -0.4246
4 11 23 -5.2052 -0.0208
4 11 25 -0.0289 -0.0950
4 11 27 8.0402 -0.5652
4 11 29 5.1293 -0.9646
4 11 31 -2.5640 0.6911
4 11 33 -3.5254 3.1298
4 12 -32 2.1239 -1.9926
4 12 -30 -0.6506 -0.1445
4 12 -28 2.6846 1.4795
4 12 -26 2.8039 1.2543
4 12 -24 -3.7391 -0.0358
4 12 -22 -4.4203 -0.4488
4 12 -20 1.0812 -0.0897
4 12 -18 1.8014 -0.0893
4 12 -16 0.6475 -0.5406
4 12 -14 2.4508 -0.8435
4 12 -12 1.3440 -0.6046
4 12 -10 -0.5175 -0.1323
4 12 -8 4.3455 0.1236
4 12 -6 8.6509 0.1502
4 12 -4 4.7530 0.0367
4 12 -2 2.3989 0.1499
4 12 0 7.8787 0.7059
4 12 2 9.2397 1.0383
4 12 4 0.2599 0.7905
4 12 6 -5.2590 0.4667
4 12 8 1.7069 0.4442
4 12 10 8.4245 0.5275
4 12 12 3.0979 0.0348
4 12 14 -5.6118 -0.7043
4 12 16 -6.9062 -0.2214
4 12 18 -4.8654 0.7345
4 12 20 -3.8339 0.1591
4 12 22 -0.3120 -0.8848
4 12 24 3.2043 -0.6146
4 12 26 0.4772 -0.1269
4 12 28 -4.4231 -0.9803
4 12 30 -4.6534 -2.7389
4 13 -29 3.3535 4.2605
4 13 -27 3.5045 3.8704
4 13 -25 1.3596 1.9614
4 13 -23 -0.0476 0.1548
4 13 -21 -0.3124 -0.3507
4 13 -19 -2.0077 -0.6072
4 13 -17 -2.8137 -0.8602
4 13 -15 1.7547 -0.2474
4 13 -13 7.2749 0.6550
4 13 -11 6.9560 0.6479
4 13 -9 3.6843 0.0823
4 13 -7 1.4899 -0.0719
4 13 -5 -2.2661 0.1530
4 13 -3 -6.8478 0.4231
4 13 -1 -6.2128 0.7935
4 13 1 -1.3435 0.9293
4 13 3 -0.4734 0.4476
4 13 5 -4.5890 0.0720
4 13 7 -5.2472 0.6889
4 13 9 -1.5118 1.5757
4 13 11 -2.5391 1.0615
4 13 13 -6.9775 -0.6797
4 13 15 -4.4486 -1.2167
4 13 17 1.0815 0.1482
4 13 19 -0.5750 1.0640
4 13 21 -4.5500 0.6069
4 13 23 -4.1322 0.0475
4 13 25 -4.0287 -0.6950
4 13 27 -5.9882 -1.5934
4 13 29 -5.1153 -0.9178
4 14 -28 -4.9982 -1.3378
4 14 -26 -1.4782 1.2375
4 14 -24 8.3874 1.1693
4 14 -22 7.7475 0.6723
4 14 -20 -0.1127 1.4552
4 14 -18 -0.1794 0.9820
4 14 -16 2.8759 -0.4663
4 14 -14 1.8895 -0.1970
4 14 -12 1.8208 0.7755
4 14 -10 0.9442 0.8392
4 14 -8 -3.8210 0.7909
4 14 -6 -5.3121 0.8858
4 14 -4 -3.9793 0.7921
4 14 -2 -6.7318 0.5950
4 14 0 -8.1551 0.3580
4 14 2 -2.3613 0.4507
4 14 4 5.0339 0.5564
4 14 6 8.5265 -0.1307
4 14 8 6.3899 -0.9049
4 14 10 1.7518 -0.8611
4 14 12 2.9326 -0.3259
4 14 14 5.8286 0.2421
4 14 16 -1.7282 0.4305
4 14 18 -11.5925 -0.0980
4 14 20 -9.3783 -1.2145
4 14 22 -2.3615 -1.9540
4 14 24 -0.1076 -0.4642
4 14 26 1.9122 2.9112
4 14 28 5.1180 4.8375
4 15 -25 -2.6056 6.1621
4 15 -23 -0.4718 6.3431
4 15 -21 4.2276 2.0415
4 15 -19 -3.5236 -1.5579
4 15 -17 -11.7702 -1.3850
4 15 -15 -3.0670 -0.1719
4 15 -13 6.0135 0.5437
4 15 -11 0.2452 0.9729
4 15 -9 -3.1259 0.3573
4 15 -7 6.4559 -0.1593
4 15 -5 15.0253 0.7022
4 15 -3 14.9987 1.1531
4 15 -1 10.1343 0.3744
4 15 1 1.5860 -0.2488
4 15 3 -5.5339 -0.1986
4 15 5 -3.6355 0.0575
4 15 7 2.9245 -0.3978
4 15 9 3.7007 -1.4725
4 15 11 -3.1060 -1.1740
4 15 13 -9.2962 0.4752
4 15 15 -5.7383 0.7795
4 15 17 4.3543 -0.5977
4 15 19 8.7345 -1.3832
4 15 21 5.9166 -0.7890
4 15 23 2.8412 0.1387
4 15 25 0.0338 1.2002
4 16 -22 -0.4489 0.1356
4 16 -20 0.6961 1.4363
4 16 -18 4.3774 1.1095
4 16 -16 3.7598 0.6312
4 16 -14 -0.5409 -0.9844
4 16 -12 1.4124 -2.1411
4 16 -10 7.1448 -0.2178
4 16 -8 2.4439 1.8062
4 16 -6 -8.9134 0.6136
4 16 -4 -8.9220 -0.6507
4 16 -2 -0.3536 0.3909
4 16 0 1.0871 0.8438
4 16 2 -1.0586 0.0630
4 16 4 1.3570 0.5926
4 16 6 1.1475 1.4464
4 16 8 -1.7401 0.1381
4 16 10 2.9028 -1.4752
4 16 12 8.8463 -0.5628
4 16 14 4.7101 1.2768
4 16 16 -1.1145 1.3734
4 16 18 0.9056 0.7456
4 16 20 3.2442 0.9505
4 16 22 0.6123 0.7203
4 17 -19 0.5127 -0.0251
4 17 -17 0.7659 0.1461
4 17 -15 -5.5535 0.5700
4 17 -13 -6.5043 1.1572
4 17 -9 -0.6712 -0.5859
4 17 -7 -1.5074 -0.2944
4 17 -5 4.4333 0.6196
4 17 -3 9.6034 1.0125
4 17 -1 7.6267 0.8646
4 17 1 3.0916 0.5963
4 17 3 -2.1221 0.0685
4 17 5 -6.9562 -0.3247
4 17 7 -7.6199 0.8483
4 17 9 -5.0656 2.2551
4 17 11 -0.1160 0.9798
4 17 13 6.6129 -0.1182
4 17 15 6.8980 3.3843
4 17 17 0.3179 7.4898
4 17 19 -0.4506 6.0399
4 18 -16 1.0069 -1.8139
4 18 -14 2.9569 -1.3091
4 18 -12 1.5677 0.1165
4 18 -10 -3.5123 -0.0781
4 18 -8 -7.8893 -0.7866
4 18 -6 -10.0975 -0.5436
4 18 -4 -8.9995 -0.8888
4 18 -2 -3.2296 -1.0412
4 18 0 3.4844 0.6551
4 18 2 6.2167 0.8347
4 18 4 3.4834 -1.6931
4 18 6 -3.2204 -1.8738
4 18 8 -7.8407 1.5811
4 18 10 -6.3213 3.8491
4 18 12 -3.2830 1.6838
4 18 14 -1.0080 -3.3977
4 19 -7 -6.5309 -3.9200
4 19 -5 -2.7870 -2.0571
4 19 -3 -4.9751 -1.0457
4 19 1 -12.1281 -4.3090
4 19 3 -4.5778 -2.3439
4 19 5 4.2182 -0.5433
4 19 7 7.4293 -1.3934
5 1 -38 0.2696 0.7206
5 1 -36 1.3949 -1.6369
5 1 -34 1.4240 -1.3187
5 1 -32 2.8388 0.9181
5 1 -30 4.4572 1.1056
5 1 -28 4.4123 -0.5338
5 1 -26 7.4162 -1.4801
5 1 -24 12.8132 -1.0080
5 1 -22 9.2847 -0.3323
5 1 -20 -2.4624 -0.9873
5 1 -18 -7.6472 -1.4169
5 1 -16 -6.0030 0.4389
5 1 -14 -7.1561 1.2161
5 1 -12 -4.2583 -0.9649
5 1 -10 6.3530 -0.6530
5 1 -8 0.4017 2.1698
5 1 -6 -33.9161 0.1246
5 1 -4 -56.6763 -3.0497
5 1 -2 -26.0579 1.7834
5 1 0 32.0000 6.1690
5 1 2 54.7760 -0.3385
5 1 4 28.4329 -5.5513
5 1 6 -10.1566 0.6126
5 1 8 -35.1960 4.4442
5 1 10 -44.1942 -1.3536
5 1 12 -37.7591 -3.5942
5 1 14 -21.8220 0.8447
5 1 16 -7.4280 0.7086
5 1 18 -1.9080 -3.2046
5 1 20 -3.8479 -2.0289
5 1 22 -2.0477 1.1837
5 1 24 4.5271 0.1129
5 1 26 1.7332 -1.3690
5 1 28 -5.6525 0.7008
5 1 30 -1.0812 1.9612
5 1 32 6.4774 -0.2632
5 1 34 5.4639 -1.4472
5 1 36 4.6929 0.6380
5 1 38 5.9226 1.4935
5 1 40 3.1654 -1.0286
5 2 -39 0.8342 -1.4336
5 2 -37 -2.0452 -3.5137
5 2 -35 -1.6594 -2.1889
5 2 -33 0.9455 -0.3602
5 2 -31 1.1862 -1.5996
5 2 -29 0.5918 -2.3941
5 2 -27 0.1431 -0.4883
5 2 -25 -2.3288 0.4903
5 2 -23 -1.8600 0.0958
5 2 -21 3.3167 1.3543
5 2 -19 0.6966 3.1052
5 2 -17 -9.8211 3.0295
5 2 -15 -9.0775 2.6209
5 2 -13 1.7738 3.3630
5 2 -11 6.6255 3.6523
5 2 -9 18.3250 1.8386
5 2 -5 57.5542 -0.3396
5 2 -3 4.5416 -1.0787
5 2 -1 -63.9075 -4.3053
5 2 1 -66.7767 -4.9737
5 2 3 -11.9794 -1.5642
5 2 5 18.5118 -1.1797
5 2 7 2.9466 -4.7640
5 2 9 -8.0918 -4.3482
5 2 11 -0.6203 -0.0072
5 2 13 -1.9982 0.5521
5 2 15 -9.4930 -1.0525
5 2 17 -4.7471 1.5958
5 2 19 6.8285 4.4568
5 2 21 12.1276 2.5465
5 2 23 8.5831 1.5007
5 2 25 2.7829 3.7874
5 2 27 0.5280 3.3480
5 2 29 -0.9236 0.6319
5 2 31 -1.9043 0.6683
5 2 33 -0.6187 1.0890
5 2 35 -2.9692 -1.0651
5 2 37 -6.5159 -3.5111
5 2 39 -1.8688 -4.7538
5 3 -38 -0.0189 -0.8496
5 3 -36 0.5432 0.2520
5 3 -34 -1.1586 -1.1063
5 3 -32 -3.1883 -2.5987
5 3 -30 -2.4935 -1.2910
5 3 -28 -0.0174 -0.1288
5 3 -26 3.4110 -1.0077
5 3 -24 6.1427 -0.5712
5 3 -22 1.6460 1.4936
5 3 -20 -8.1185 1.7971
5 3 -18 -10.4649 0.9754
5 3 -16 -6.5632 1.7564
5 3 -14 -7.3320 2.6632
5 3 -12 -8.0508 1.4728
5 3 -10 -4.0818 0.2830
5 3 -6 -11.1064 0.3576
5 3 -4 -0.3941 -0.8797
5 3 -2 24.1976 -1.2236
5 3 0 33.5196 -2.0147
5 3 2 11.8978 -3.5140
5 3 4 -13.9173 -2.8085
5 3 6 -9.1541 -0.8076
5 3 8 15.7486 -0.9773
5 3 10 29.5990 -2.3780
5 3 12 33.5878 -1.6587
5 3 14 37.1174 1.2451
5 3 16 28.2363 2.6880
5 3 18 7.5843 1.2212
5 3 20 -4.7153 0.8533
5 3 22 -5.1751 2.8358
5 3 24 -4.5475 2.6431
5 3 26 -4.1262 0.6259
5 3 28 -0.2738 1.1609
5 3 30 4.4544 2.1209
5 3 32 5.4955 0.4496
5 3 34 3.7709 -0.9581
5 3 36 2.8721 -0.9761
5 3 38 2.3396 -1.4157
5 4 -39 -0.9464 -1.9694
5 4 -37 -0.7837 -0.3069
5 4 -35 -0.3283 -0.4902
5 4 -33 -1.0357 -0.8454
5 4 -31 -2.4987 0.4932
5 4 -29 -4.4432 0.9418
5 4 -27 -4.7411 -0.2032
5 4 -25 -3.4878 -0.6395
5 4 -23 -4.0147 -0.8333
5 4 -21 -3.2058 -1.4209
5 4 -19 3.9195 -0.5564
5 4 -17 12.0727 0.3732
5 4 -15 13.1910 -0.8448
5 4 -13 7.2519 -0.7882
5 4 -11 0.2529 1.4848
5 4 -9 -3.6090 0.9690
5 4 -7 -8.7576 -1.0913
5 4 -5 -17.1364 0.3168
5 4 -3 -16.3450 1.7471
5 4 -1 -4.1413 -0.1080
5 4 1 0.5510 -0.4955
5 4 3 -3.3362 1.4780
5 4 5 4.4106 1.0176
5 4 7 20.0602 -1.0072
5 4 9 20.7029 -0.8179
5 4 11 4.6293 0.1097
5 4 13 -9.0690 -0.5272
5 4 15 -3.9608 -1.1950
5 4 17 15.8688 -0.6562
5 4 19 26.4139 -0.3382
5 4 21 18.1051 -0.7851
5 4 23 8.0410 -0.3779
5 4 25 4.4149 0.9528
5 4 27 0.5077 1.0294
5 4 29 -2.3459 0.0060
5 4 31 -2.8266 0.2010
5 4 33 -4.8107 0.6766
5 4 35 -4.0179 -0.6062
5 4 37 1.8144 -1.0961
5 4 39 4.6456 0.9597
5 5 -38 -0.3126 2.4387
5 5 -36 -3.7855 0.4644
5 5 -34 -1.6256 -0.7136
5 5 -32 3.5165 -0.0912
5 5 -30 2.7546 0.1208
5 5 -28 -1.2115 -0.4660
5 5 -26 -1.6852 0.0247
5 5 -24 0.0979 0.7450
5 5 -22 1.4752 0.2395
5 5 -20 1.7743 -0.1135
5 5 -18 1.8064 0.3787
5 5 -16 5.7089 0.1529
5 5 -14 11.5283 -0.6686
5 5 -12 7.9196 -0.0410
5 5 -10 -5.5699 1.4114
5 5 -8 -12.1634 1.0130
5 5 -6 -4.2694 -0.6172
5 5 -4 1.8828 -0.7977
5 5 -2 -8.2773 0.2853
5 5 0 -21.4182 0.7362
5 5 2 -17.9883 0.1066
5 5 4 -7.5369 -0.4184
5 5 6 -8.5787 0.1644
5 5 8 -12.6476 0.5332
5 5 10 -5.3219 -0.3521
5 5 12 3.5084 -0.5535
5 5 14 -4.8944 0.0227
5 5 16 -31.2963 -0.6899
5 5 18 -51.7087 -1.0189
5 5 20 -43.4243 0.3628
5 5 22 -19.6386 0.3198
5 5 24 -5.9300 -1.1190
5 5 26 -0.4464 -0.5763
5 5 28 2.8006 0.5108
5 5 30 -2.3821 -0.2869
5 5 32 -7.8114 -0.2671
5 5 34 -2.3287 1.8447
5 5 36 4.5526 2.2147
5 5 38 4.5537 -0.1090
5 6 -37 4.1253 1.3175
5 6 -35 4.0111 -0.6136
5 6 -33 3.6192 -1.0532
5 6 -31 2.3318 -0.1288
5 6 -29 1.1820 0.7875
5 6 -27 -1.1082 0.6227
5 6 -25 -2.6519 -0.1033
5 6 -23 -2.4177 0.0898
5 6 -21 -3.4795 1.1573
5 6 -19 -1.7742 1.3116
5 6 -17 4.2976 0.3187
5 6 -15 3.4691 0.2219
5 6 -13 -1.9990 0.7137
5 6 -11 3.3469 -0.0990
5 6 -9 11.8852 -0.5478
5 6 -7 8.4819 0.1845
5 6 -5 4.4309 -0.5755
5 6 -3 12.1717 -1.5018
5 6 -1 21.4581 -0.0255
5 6 1 21.5764 0.5765
5 6 3 14.9138 -1.1957
5 6 5 6.8822 -1.5406
5 6 7 -0.7959 0.0834
5 6 9 -8.5385 0.8638
5 6 11 -14.8437 0.4769
5 6 13 -17.0132 0.4500
5 6 15 -12.9237 1.1505
5 6 17 -2.0251 1.1019
5 6 19 7.8126 -0.1776
5 6 21 7.4975 -0.5625
5 6 23 3.0127 0.2232
5 6 25 1.2454 0.0348
5 6 27 -3.2374 -0.3880
5 6 29 -8.1364 0.7167
5 6 31 -4.6550 1.4228
5 6 33 0.4100 0.0005
5 6 35 -2.0542 -0.8971
5 6 37 -5.8658 1.4185
5 7 -38 -1.1234 -0.7485
5 7 -36 -1.4179 -3.4013
5 7 -34 -3.8413 -2.5646
5 7 -32 -4.7896 0.3036
5 7 -30 -3.1508 1.7538
5 7 -28 0.7702 1.8792
5 7 -26 5.4822 0.8502
5 7 -24 7.9297 -0.9327
5 7 -22 10.0902 -1.1445
5 7 -20 11.3531 -0.1365
5 7 -18 2.6704 -0.2302
5 7 -16 -12.0811 -0.7105
5 7 -14 -17.0860 -0.2054
5 7 -12 -12.6398 0.4013
5 7 -10 -6.4649 0.0784
5 7 -8 3.0762 -0.7534
5 7 -6 11.9910 -0.6630
5 7 -4 14.0880 0.4279
5 7 -2 14.5221 0.6099
5 7 0 13.4265 -0.0688
5 7 2 5.9921 0.4125
5 7 4 0.0351 1.3465
5 7 6 0.7754 0.7926
5 7 8 1.1228 -0.1100
5 7 10 0.3926 0.2182
5 7 12 2.7204 0.4904
5 7 14 5.9902 -0.0811
5 7 16 7.8075 0.0530
5 7 18 5.3804 0.5855
5 7 20 -3.1560 -0.1783
5 7 22 -9.1568 -0.6833
5 7 24 -4.7418 0.2872
5 7 26 3.9615 0.2129
5 7 28 9.1347 -0.8246
5 7 30 9.9181 -0.1544
5 7 32 7.0358 0.2496
5 7 34 2.1913 -1.9509
5 7 36 -2.1428 -3.3970
5 8 -37 -4.5274 2.0873
5 8 -35 -3.5177 2.7196
5 8 -33 0.6656 1.7703
5 8 -31 1.1063 0.4935
5 8 -29 -3.4202 0.1041
5 8 -27 -4.7036 -0.0599
5 8 -25 0.3764 -0.3293
5 8 -23 4.9000 -0.0556
5 8 -21 3.5630 0.2889
5 8 -19 -0.5146 -0.2778
5 8 -17 -0.6408 -1.0349
5 8 -15 6.6748 -1.0910
5 8 -13 16.8977 -0.9081
5 8 -11 18.2092 -0.5256
5 8 -9 6.5604 0.2758
5 8 -7 -4.2809 0.6082
5 8 -5 -5.8024 0.1904
5 8 -3 -10.9711 0.1780
5 8 -1 -23.2977 1.0887
5 8 1 -23.7079 1.8766
5 8 3 -8.8369 1.3939
5 8 5 3.1994 0.2554
5 8 7 7.7710 0.0753
5 8 9 9.9674 0.6833
5 8 11 7.7909 0.6620
5 8 13 6.4396 0.0656
5 8 15 12.2627 -0.2248
5 8 17 14.4435 -0.3341
5 8 19 7.3747 -0.6267
5 8 21 2.9474 -0.6446
5 8 23 3.6627 -0.2524
5 8 25 0.6379 -0.5138
5 8 27 -5.3040 -1.4378
5 8 29 -7.4513 -1.1796
5 8 31 -5.0137 0.1241
5 8 33 -1.6512 0.2559
5 8 35 -0.4418 -0.1735
5 8 37 -0.1542 1.0083
5 9 -36 6.5000 -5.3562
5 9 -34 4.5744 -3.3490
5 9 -32 -1.0547 -0.8164
5 9 -30 0.3199 1.6721
5 9 -28 5.2502 1.7041
5 9 -26 1.5614 0.3290
5 9 -24 -11.1406 0.4902
5 9 -22 -26.4370 0.7845
5 9 -20 -35.2008 0.0193
5 9 -18 -26.9968 -0.1487
5 9 -16 -9.3413 -0.1779
5 9 -14 -2.2271 -0.9729
5 9 -12 -6.0254 -1.1552
5 9 -10 -8.2840 -0.4284
5 9 -8 -10.7470 0.0134
5 9 -6 -17.7842 -0.1336
5 9 -4 -20.0661 -0.2921
5 9 -2 -12.4457 0.0168
5 9 0 -5.9466 0.4191
5 9 2 -8.0871 0.4233
5 9 4 -10.9696 0.4549
5 9 6 -8.8941 0.7706
5 9 8 -6.1383 0.8023
5 9 10 -0.6260 0.2987
5 9 12 11.4908 0.1217
5 9 14 17.5595 0.8817
5 9 16 8.0555 1.2745
5 9 18 -3.3353 0.5715
5 9 20 -6.1610 0.0570
5 9 22 -6.7767 -0.5860
5 9 24 -4.9056 -1.8097
5 9 26 4.4833 -1.4457
5 9 28 12.0518 -0.2180
5 9 30 8.5599 -0.8049
5 9 32 2.1497 -0.8364
5 9 34 2.2367 1.0165
5 10 -35 -2.0470 -2.2491
5 10 -33 -3.2599 -1.5504
5 10 -31 -4.9650 0.1328
5 10 -29 -6.0640 0.7005
5 10 -27 -3.6554 1.2631
5 10 -25 -0.1717 1.4972
5 10 -23 3.5474 0.6966
5 10 -21 10.5245 0.3230
5 10 -19 14.4282 0.3474
5 10 -17 9.7584 -0.3693
5 10 -15 6.0540 -0.8184
5 10 -13 7.0004 -0.2345
5 10 -11 3.7123 0.0490
5 10 -9 -1.7882 -0.4097
5 10 -7 -1.4514 -0.3952
5 10 -5 0.7614 -0.1725
5 10 -3 0.6964 -0.7964
5 10 -1 1.8507 -0.8025
5 10 1 3.8985 0.5823
5 10 3 3.5507 0.8389
5 10 5 2.0262 -0.2012
5 10 7 1.7571 0.0684
5 10 9 1.4090 1.0685
5 10 11 -3.9134 0.9408
5 10 13 -14.7289 0.4148
5 10 15 -20.8399 0.4099
5 10 17 -13.8426 0.6089
5 10 19 0.6804 0.4146
5 10 21 12.6131 -0.1637
5 10 23 15.8157 -0.0535
5 10 25 8.3912 0.6308
5 10 27 -1.8775 0.1137
5 10 29 -4.3389 -1.8774
5 10 31 -1.9879 -4.3855
5 10 33 -3.2440 -6.5545
5 11 -34 -1.0040 -3.0178
5 11 -32 -0.6019 -1.6528
5 11 -30 2.0977 1.0562
5 11 -28 2.6164 1.6022
5 11 -26 -0.5022 0.4306
5 11 -24 -0.9972 0.3892
5 11 -22 3.4274 1.1801
5 11 -20 6.7267 0.7732
5 11 -18 6.6056 -0.3278
5 11 -16 5.9579 -0.6992
5 11 -14 3.9740 -0.5349
5 11 -12 -0.5635 -0.1167
5 11 -10 -2.9649 0.5538
5 11 -8 1.3881 0.5837
5 11 -6 10.1628 0.0742
5 11 -4 16.9553 0.5483
5 11 -2 17.8969 1.3690
5 11 0 14.2350 0.6813
5 11 2 9.2540 -0.3368
5 11 4 4.5102 0.0388
5 11 6 1.2290 0.5357
5 11 8 1.7569 0.2486
5 11 10 4.9664 0.1431
5 11 12 5.6897 -0.1238
5 11 14 2.4682 -1.0444
5 11 16 -1.8092 -0.9723
5 11 18 -5.9599 0.4572
5 11 20 -8.2407 0.9422
5 11 22 -4.9718 -0.1442
5 11 24 1.3563 -0.9747
5 11 26 3.3700 -0.8736
5 11 28 0.8404 -0.5873
5 11 30 -0.1782 -0.2990
5 11 32 1.6413 0.2957
5 12 -29 6.3525 1.1040
5 12 -27 2.9443 1.3448
5 12 -25 1.6640 1.1717
5 12 -23 3.7024 0.3237
5 12 -21 2.2908 0.0796
5 12 -19 -2.2958 -0.1360
5 12 -17 -4.4875 -0.6614
5 12 -15 -4.9748 -0.1170
5 12 -13 -3.9755 1.0341
5 12 -11 1.0447 0.7810
5 12 -9 5.6331 -0.0853
5 12 -7 4.2528 0.0272
5 12 -5 -0.5103 0.4384
5 12 -3 -3.8186 0.7845
5 12 -1 -2.9727 1.2090
5 12 1 0.5264 0.8744
5 12 3 0.1203 -0.0540
5 12 5 -3.4813 -0.4949
5 12 7 -1.8635 -0.2372
5 12 9 1.2893 0.2864
5 12 11 -3.2216 0.1671
5 12 13 -8.7754 -0.5713
5 12 15 -6.9676 -0.3986
5 12 17 -3.2558 0.5348
5 12 19 -2.2642 0.5203
5 12 21 -3.0455 -0.5114
5 12 23 -6.5253 -1.5338
5 12 25 -9.8661 -1.4464
5 12 27 -8.5193 0.7233
5 12 29 -5.4931 4.0957
5 12 31 -4.0173 6.3286
5 13 -30 1.3758 0.5048
5 13 -28 0.6651 1.7601
5 13 -26 1.5102 1.6413
5 13 -24 3.5099 0.2403
5 13 -22 5.3593 0.6467
5 13 -20 4.8736 1.5391
5 13 -18 -0.2316 0.2467
5 13 -16 -1.3053 -1.2842
5 13 -14 7.6267 -0.8611
5 13 -12 12.0223 0.1397
5 13 -10 3.5100 0.0539
5 13 -8 -2.6928 -0.4098
5 13 -6 0.9030 0.0020
5 13 -4 3.2455 0.3627
5 13 -2 0.3482 -0.2348
5 13 0 -2.2419 -0.2180
5 13 2 -2.8819 0.6698
5 13 4 -1.4447 0.6562
5 13 6 0.8402 0.1047
5 13 8 0.1694 0.1321
5 13 10 -0.9110 0.2874
5 13 12 1.0891 0.3645
5 13 14 -0.1390 0.5145
5 13 16 -6.1354 0.7056
5 13 18 -5.8191 0.8229
5 13 20 3.4743 0.2969
5 13 22 9.5627 -0.4032
5 13 24 5.7537 -0.1474
5 13 26 0.2536 0.5691
5 13 28 2.0989 1.2930
5 14 -27 -0.0306 -6.8968
5 14 -25 -0.1452 -2.0001
5 14 -23 -1.3273 2.0363
5 14 -21 -4.4933 1.5418
5 14 -19 -3.5936 0.1106
5 14 -17 1.2580 0.3033
5 14 -15 -0.4772 0.2991
5 14 -13 -8.6894 -0.3670
5 14 -11 -11.6249 -0.2307
5 14 -9 -8.7359 0.3758
5 14 -7 -7.6027 0.2473
5 14 -5 -5.6961 -0.0062
5 14 -3 0.3706 0.4469
5 14 -1 2.4981 0.4548
5 14 1 -2.5358 -0.4621
5 14 3 -4.8910 -0.5145
5 14 5 -1.5784 0.3514
5 14 7 0.0396 -0.0330
5 14 9 -0.5279 -1.1189
5 14 11 0.7682 -0.2116
5 14 13 3.5146 2.0120
5 14 15 8.0273 2.1251
5 14 17 12.6444 0.0066
5 14 19 10.5954 -1.0838
5 14 21 3.6504 -0.5090
5 14 23 1.2445 0.0928
5 14 25 2.1106 1.3727
5 14 27 -0.9974 3.3021
5 15 -26 1.6143 -4.4987
5 15 -24 -0.0687 -1.0655
5 15 -22 2.3277 1.4230
5 15 -20 3.2728 2.2483
5 15 -18 1.7843 2.5756
5 15 -16 -0.0694 1.3604
5 15 -14 -2.6854 -0.8215
5 15 -12 -2.3054 -0.8577
5 15 -10 2.4799 1.1460
5 15 -8 4.6152 1.7329
5 15 -6 4.0546 0.1808
5 15 -4 5.9705 -0.5924
5 15 -2 5.1516 0.3094
5 15 0 0.0278 0.4336
5 15 2 0.6852 -0.6841
5 15 4 6.0920 -0.9051
5 15 6 5.1479 -0.2370
5 15 8 -1.0514 -0.3155
5 15 10 -4.1629 -0.9710
5 15 12 -2.7663 -1.1166
5 15 14 -0.7863 -0.6987
5 15 16 -1.4186 -0.4561
5 15 18 -2.0362 -0.7328
5 15 20 1.1419 -1.0424
5 15 22 3.6696 -1.1531
5 15 24 1.7700 -1.1475
5 16 -21 -2.4245 -3.2743
5 16 -19 6.7701 -2.9618
5 16 -17 -2.2507 -1.5967
5 16 -15 -11.8061 1.3025
5 16 -13 -1.4237 1.9257
5 16 -11 8.8273 0.3383
5 16 -9 1.0388 -0.5239
5 16 -7 -9.4582 -0.3049
5 16 -5 -10.1940 -0.1994
5 16 -3 -6.0543 -0.5284
5 16 -1 -0.4570 -0.3614
5 16 1 3.8168 0.1798
5 16 3 2.5522 -0.6872
5 16 5 -1.5716 -1.8269
5 16 7 -3.4474 -0.7646
5 16 9 -1.1858 0.2018
5 16 11 3.2786 -1.3625
5 16 13 3.5314 -2.7483
5 16 15 0.5468 -2.0272
5 16 17 3.8941 -1.3962
5 16 19 10.5493 -2.1859
5 16 21 10.2529 -2.6471
5 17 -18 0.4781 -0.9426
5 17 -16 17.6074 -4.6389
5 17 -10 -1.7888 0.1995
5 17 -8 -0.2726 -1.6209
5 17 -6 0.2647 -1.0032
5 17 -4 -0.0913 -0.0288
5 17 -2 0.6575 -0.2612
5 17 0 0.1631 -0.7037
5 17 2 -2.7883 -0.8708
5 17 4 -7.2966 -0.9194
5 17 6 -10.2080 -0.7840
5 17 8 -7.1367 0.0217
5 17 10 0.6976 0.7872
5 17 12 7.2731 -0.0158
5 17 14 7.6803 -0.5773
5 17 16 -0.6405 2.0745
5 17 18 -11.5995 6.0146
5 18 -13 -13.3431 2.2854
5 18 -11 -10.9557 -0.2756
5 18 -9 -3.1691 -1.7226
5 18 -7 6.7762 -1.6017
5 18 -5 10.3763 -0.3525
5 18 -3 3.6576 -0.1212
5 18 -1 -5.8507 -0.9850
5 18 1 -8.2802 -0.6935
5 18 3 -1.9527 0.4833
5 18 5 8.4395 0.4886
5 18 7 15.0422 0.0234
5 18 9 9.9862 0.7327
5 18 11 -2.7030 0.7950
5 18 13 -7.8344 -2.4232
5 19 -6 2.7243 0.3182
5 19 -4 1.1355 -1.4273
5 19 0 2.0828 -1.8271
5 19 2 -0.8438 -1.9169
5 19 4 -1.9970 -2.4882
5 19 6 -0.1016 -3.4186
6 0 -38 -0.8478 -4.2818
6 0 -36 3.3093 -9.3300
6 0 -34 4.4613 -4.8827
6 0 -32 1.8729 -5.3089
6 0 -30 -2.6077 -12.8429
6 0 -28 -5.0404 -11.7047
6 0 -26 -3.9507 -3.2111
6 0 -24 -2.4054 -2.5901
6 0 -22 0.2934 -5.5038
6 0 -20 7.2307 1.2394
6 0 -18 11.5714 10.0182
6 0 -16 7.2969 8.6679
6 0 -14 4.3449 6.2374
6 0 -12 6.8210 12.9405
6 0 -10 -3.3952 17.1368
6 0 -8 -36.9244 8.7956
6 0 -6 -74.1288 1.6385
6 0 -4 -88.1985 5.7089
6 0 -2 -71.7593 5.8120
6 0 0 -29.5727 -6.1237
6 0 2 30.3520 -12.4069
6 0 4 78.0560 -7.2101
6 0 6 76.1338 -8.4547
6 0 8 37.5789 -16.6202
6 0 10 7.3182 -13.4927
6 0 12 -8.6739 -3.9240
6 0 14 -21.3871 -4.9323
6 0 16 -19.1746 -7.4078
6 0 18 -5.7231 1.7455
6 0 20 0.3283 8.9980
6 0 22 3.0842 5.1763
6 0 24 5.1144 5.3253
6 0 26 -2.5454 12.8626
6 0 28 -10.6653 12.1067
6 0 30 -9.0126 4.2936
6 0 32 -5.7990 3.7228
6 0 34 -5.3322 6.5123
6 0 36 -2.1250 1.9503
6 0 38 5.8532 -4.6774
6 0 40 11.7195 -5.2629
6 1 -39 3.6859 -0.0311
6 1 -37 -2.7688 2.0422
6 1 -35 -5.5612 -0.3682
6 1 -33 -2.9378 -3.7083
6 1 -31 0.8460 -1.5198
6 1 -29 2.9824 2.3905
6 1 -27 4.4012 -0.0438
6 1 -25 7.4196 -3.7457
6 1 -23 10.1366 -0.1856
6 1 -21 4.7942 3.3897
6 1 -19 -7.6522 -0.6761
6 1 -17 -13.0915 -3.0988
6 1 -15 -8.8630 1.6287
6 1 -13 -7.2659 2.9680
6 1 -11 -5.0797 -1.4563
6 1 -9 13.2156 -0.7655
6 1 -7 39.0312 3.5511
6 1 -5 45.4985 1.1205
6 1 -3 30.9091 -2.7143
6 1 -1 20.3439 0.5906
6 1 1 17.8336 2.6237
6 1 3 -0.3486 -2.0237
6 1 5 -31.1677 -3.2215
6 1 7 -41.4572 1.2282
6 1 9 -27.3858 1.1279
6 1 11 -11.9900 -3.4162
6 1 13 -0.6972 -2.7924
6 1 15 6.7495 1.8658
6 1 17 3.4667 1.2853
6 1 19 -3.0251 -2.5988
6 1 21 -2.3171 -0.5455
6 1 23 -0.8218 3.2950
6 1 25 -3.9597 -0.2628
6 1 27 -6.3296 -3.5586
6 1 29 -3.4953 1.5775
6 1 31 2.2215 4.4479
6 1 33 4.5514 -0.2417
6 1 35 2.1292 -1.0702
6 1 37 -0.4196 2.3641
6 1 39 -1.2373 0.1915
6 2 -40 -2.7232 -1.9443
6 2 -38 -1.8496 1.1714
6 2 -36 0.2105 1.3406
6 2 -34 1.0138 0.1678
6 2 -32 -0.2082 1.1615
6 2 -30 -2.6292 1.3676
6 2 -28 -5.2569 -0.5445
6 2 -26 -5.3874 -0.1226
6 2 -24 -3.0842 1.7407
6 2 -22 -3.3920 0.1665
6 2 -20 -6.3047 -1.9386
6 2 -18 -6.2787 -0.2688
6 2 -16 -4.1746 0.9120
6 2 -14 -4.2368 -1.1474
6 2 -12 -2.8329 -1.5402
6 2 -10 5.8811 0.0820
6 2 -6 15.5935 -1.4721
6 2 -4 -0.4681 1.1467
6 2 -2 -18.1730 1.8632
6 2 0 -27.4509 -0.4160
6 2 2 -29.8134 -0.0997
6 2 4 -22.4938 1.7579
6 2 6 -3.3013 1.1669
6 2 8 14.0872 0.2950
6 2 10 17.8549 0.5361
6 2 12 12.4058 -0.1049
6 2 14 4.0168 -0.8188
6 2 16 -1.1542 -0.2194
6 2 18 3.1954 0.0176
6 2 20 8.7260 -1.1312
6 2 22 5.8272 -1.8905
6 2 24 3.6417 -0.7512
6 2 26 7.8417 0.6657
6 2 28 9.1344 -0.0054
6 2 30 6.0127 -1.3267
6 2 32 3.6758 -0.9189
6 2 34 0.7159 -0.3962
6 2 36 -2.0590 -0.5733
6 2 38 -1.6910 1.3468
6 3 -39 3.9156 -0.5039
6 3 -37 2.3031 -0.0570
6 3 -35 -1.0780 0.1635
6 3 -33 -2.4939 -0.8247
6 3 -31 -0.9476 -0.9845
6 3 -29 1.3344 -0.0539
6 3 -27 3.7928 0.4009
6 3 -25 2.0431 -0.1271
6 3 -23 -5.4505 -0.9942
6 3 -21 -5.7583 -0.3823
6 3 -19 7.4577 1.6729
6 3 -17 18.5643 1.6642
6 3 -15 18.6201 -0.3347
6 3 -13 16.2994 0.1540
6 3 -11 8.3453 2.3433
6 3 -9 -15.9822 1.7326
6 3 -7 -36.4913 -0.2055
6 3 -5 -19.4379 0.0079
6 3 -3 18.8201 0.4393
6 3 -1 22.0275 -0.5238
6 3 1 -15.2711 -0.4197
6 3 3 -34.9426 0.3452
6 3 5 -12.8681 -1.0290
6 3 7 12.7428 -2.3062
6 3 9 19.2164 -0.5460
6 3 11 21.5184 1.1188
6 3 13 26.1001 -0.0776
6 3 15 23.3800 -1.3603
6 3 17 9.6602 -0.3148
6 3 19 -4.8147 1.3133
6 3 21 -6.9544 1.1820
6 3 23 -2.5425 0.1555
6 3 25 -4.1658 0.5432
6 3 27 -5.7877 1.3015
6 3 29 -3.7999 0.4321
6 3 31 -6.3797 0.0297
6 3 33 -7.4433 1.1401
6 3 35 -0.7582 0.7668
6 3 37 2.9435 -0.2519
6 3 39 1.8466 1.5864
6 4 -38 -0.5690 2.7304
6 4 -36 -2.2265 -1.2595
6 4 -34 1.2895 -2.3026
6 4 -32 3.8608 -0.5051
6 4 -30 1.8402 0.6874
6 4 -28 -2.0058 0.6797
6 4 -26 -6.3803 0.5917
6 4 -24 -6.8780 0.4672
6 4 -22 -1.7193 0.2613
6 4 -20 0.1057 0.3347
6 4 -18 -2.3332 0.1572
6 4 -16 -0.0726 -0.6452
6 4 -14 1.7933 -0.7597
6 4 -12 -3.3388 -0.1536
6 4 -10 -2.9536 -0.3929
6 4 -8 7.4713 -0.4540
6 4 -6 8.3414 0.3605
6 4 -4 -8.4317 -0.1158
6 4 -2 -17.5361 -0.8119
6 4 0 3.9717 0.4701
6 4 2 36.1742 0.9563
6 4 4 43.4029 -0.3216
6 4 6 27.8306 -0.1527
6 4 8 12.3550 0.9345
6 4 10 -1.1492 0.8638
6 4 12 -15.2601 0.9705
6 4 14 -22.1635 1.5487
6 4 16 -21.8530 1.0720
6 4 18 -18.3499 0.1669
6 4 20 -11.8080 0.1657
6 4 22 -5.6250 0.4907
6 4 24 -0.6716 0.0419
6 4 26 3.7875 -0.7559
6 4 28 3.3590 -0.8100
6 4 30 0.4603 -0.4183
6 4 32 1.6880 -0.1919
6 4 34 3.8954 0.1758
6 4 36 3.6066 0.0961
6 4 38 2.2046 -1.2481
6 5 -39 -1.9658 -0.6386
6 5 -37 -1.0891 -0.5390
6 5 -35 1.1605 -0.1932
6 5 -33 2.8419 0.7488
6 5 -31 3.5137 1.2247
6 5 -29 2.6875 1.4717
6 5 -27 1.8301 1.7395
6 5 -25 2.5738 1.1061
6 5 -23 1.4054 0.5595
6 5 -21 -1.0772 0.7189
6 5 -19 0.8136 -0.5125
6 5 -17 2.9342 -1.9938
6 5 -15 -0.2867 -1.1658
6 5 -13 -3.1456 -0.8448
6 5 -11 -3.2282 -2.2475
6 5 -9 -3.0317 -1.7509
6 5 -7 2.9333 -0.3219
6 5 -5 16.3439 -1.0354
6 5 -3 26.1206 -1.2950
6 5 -1 23.6079 0.7273
6 5 1 10.6548 1.9258
6 5 3 -5.7187 1.1032
6 5 5 -20.5489 0.7629
6 5 7 -31.1040 2.0098
6 5 9 -29.9319 2.9281
6 5 11 -17.6764 2.0647
6 5 13 -13.1945 0.6965
6 5 15 -19.5930 0.3071
6 5 17 -15.2317 0.3905
6 5 19 -0.5804 -0.0232
6 5 21 3.5459 -0.8673
6 5 23 0.6326 -1.4862
6 5 25 3.9593 -1.7308
6 5 27 7.4308 -1.8182
6 5 29 5.6551 -1.5334
6 5 31 3.6489 -1.3962
6 5 33 0.5123 -1.9145
6 5 35 -5.7956 -0.5126
6 5 37 -9.3612 4.2665
6 6 -38 5.4240 0.5925
6 6 -36 5.0615 0.9925
6 6 -34 0.0467 2.1846
6 6 -32 -3.8194 1.7184
6 6 -30 -4.8846 0.4703
6 6 -28 -3.1649 0.6367
6 6 -26 2.0360 1.3567
6 6 -24 8.4931 1.2345
6 6 -22 11.8798 0.7435
6 6 -20 7.1841 0.3483
6 6 -18 -6.0987 -0.2023
6 6 -16 -16.1898 -0.7381
6 6 -14 -9.8080 -0.8561
6 6 -12 7.0969 -0.5895
6 6 -10 13.2958 -0.3914
6 6 -8 1.1255 -0.8587
6 6 -6 -10.3140 -1.4847
6 6 -4 -4.9181 -0.8076
6 6 -2 2.9179 0.4592
6 6 0 -1.9471 0.2949
6 6 2 -5.3478 -0.2537
6 6 4 3.6412 0.4269
6 6 6 9.6719 0.8408
6 6 8 2.8481 0.4413
6 6 10 -6.7261 0.7274
6 6 12 -6.5522 1.1320
6 6 14 7.5199 0.7962
6 6 16 21.8525 0.7077
6 6 18 17.4087 0.5020
6 6 20 3.9804 -0.6788
6 6 22 2.6480 -1.4637
6 6 24 5.7964 -1.3120
6 6 26 0.5965 -1.3899
6 6 28 -4.2679 -1.1468
6 6 30 -2.3306 0.1099
6 6 32 1.7399 0.7729
6 6 34 5.0576 0.2998
6 6 36 4.7599 -0.0947
6 6 38 0.8517 -0.6730
6 7 -37 -7.0469 -4.0986
6 7 -35 -4.9155 -1.6463
6 7 -33 -4.6436 -0.5762
6 7 -31 -3.6749 -0.1419
6 7 -29 2.6106 0.8948
6 7 -27 5.0246 0.8848
6 7 -25 -3.4562 0.2575
6 7 -23 -12.3137 0.8793
6 7 -21 -14.2247 1.0399
6 7 -19 -12.2392 -0.0277
6 7 -17 -5.2413 0.0736
6 7 -15 3.1075 0.8257
6 7 -13 0.6050 0.0118
6 7 -11 -7.8220 -1.1661
6 7 -9 -4.0297 -0.6308
6 7 -7 7.1110 0.6767
6 7 -5 4.3529 0.3221
6 7 -3 -8.4865 -1.2542
6 7 -1 -9.1532 -1.1389
6 7 1 -1.2661 0.1841
6 7 3 -4.8013 -0.1638
6 7 5 -10.2776 -1.1125
6 7 7 2.5833 -0.2715
6 7 9 20.3361 0.9410
6 7 11 22.5927 0.6394
6 7 13 16.2059 -0.0131
6 7 15 10.5271 0.4830
6 7 17 4.5480 1.1806
6 7 19 0.3409 0.8015
6 7 21 -3.2630 0.2622
6 7 23 -8.6932 0.2871
6 7 25 -9.1164 0.0181
6 7 27 -3.7786 -0.3874
6 7 29 -1.7425 -0.4443
6 7 31 -3.8803 -0.6653
6 7 33 -5.7318 -0.4692
6 7 35 -6.4024 0.4129
6 7 37 -4.8547 0.1352
6 8 -36 5.7445 3.8825
6 8 -34 2.9483 1.2346
6 8 -32 3.1101 0.5348
6 8 -30 4.7640 1.2722
6 8 -28 2.3499 0.4671
6 8 -26 1.2141 0.0952
6 8 -24 3.1354 0.5782
6 8 -22 2.4676 -0.0356
6 8 -20 2.1628 -0.3713
6 8 -18 3.8830 0.1865
6 8 -16 1.9962 -0.4290
6 8 -14 0.8132 -1.3540
6 8 -12 4.1181 -0.3431
6 8 -10 1.0913 1.0006
6 8 -8 -9.4888 0.3413
6 8 -6 -14.0815 -0.7321
6 8 -4 -12.1685 -0.2779
6 8 -2 -13.9537 0.3669
6 8 0 -17.4664 0.3455
6 8 2 -13.0872 0.5715
6 8 4 -2.8618 0.7043
6 8 6 0.1690 0.5122
6 8 8 -6.3534 0.6305
6 8 10 -9.2155 0.5680
6 8 12 -4.8561 0.2915
6 8 14 -3.9303 0.2046
6 8 16 -5.9137 -0.2340
6 8 18 -0.7167 -0.1653
6 8 20 9.0512 0.7791
6 8 22 12.4354 0.3719
6 8 24 6.8128 -0.7811
6 8 26 -0.5226 -0.2394
6 8 28 -2.2131 0.4316
6 8 30 -0.3601 0.0714
6 8 32 -0.4378 0.3610
6 8 34 -0.1597 0.2474
6 8 36 2.5160 -1.6090
6 9 -35 -0.1714 0.5352
6 9 -33 0.3141 0.6574
6 9 -31 -1.1910 -0.0438
6 9 -29 -3.5635 0.1553
6 9 -27 -7.3471 0.8229
6 9 -25 -9.8795 0.3065
6 9 -23 -4.0449 -0.3959
6 9 -21 6.0539 -0.0306
6 9 -19 9.5195 0.1732
6 9 -17 8.3300 -0.5042
6 9 -15 7.0926 -0.5450
6 9 -13 2.3545 0.3282
6 9 -11 -2.2847 0.1994
6 9 -9 -0.8222 -0.7398
6 9 -7 0.7141 -0.2632
6 9 -5 0.2152 1.0363
6 9 -3 4.5154 1.0367
6 9 -1 9.5936 0.3529
6 9 1 7.4666 0.4254
6 9 3 3.1791 0.7800
6 9 5 3.0119 0.5600
6 9 7 5.6045 0.0891
6 9 9 9.4460 0.1477
6 9 11 11.7792 0.4343
6 9 13 8.6557 0.0499
6 9 15 2.3899 -0.3745
6 9 17 -2.1485 0.0749
6 9 19 -3.4790 0.1849
6 9 21 -0.9773 -0.8664
6 9 23 3.8150 -1.2061
6 9 25 6.5393 0.1741
6 9 27 6.5819 0.9472
6 9 29 6.7931 -0.5589
6 9 31 7.2052 -2.2022
6 9 33 6.1090 -1.7923
6 10 -34 -6.7643 0.1013
6 10 -32 -4.2100 -0.2647
6 10 -30 1.0423 -0.8265
6 10 -28 6.9086 -1.2768
6 10 -26 8.3929 -0.7209
6 10 -24 6.1967 0.8246
6 10 -22 4.3769 1.5235
6 10 -20 1.5556 0.4994
6 10 -18 -1.8768 -0.2365
6 10 -16 -1.5744 0.2647
6 10 -14 -1.2134 0.3136
6 10 -12 -6.3519 -0.3097
6 10 -10 -8.6310 -0.2066
6 10 -8 1.4735 0.2654
6 10 -6 14.3408 0.0838
6 10 -4 15.8411 -0.0944
6 10 -2 11.0284 0.2527
6 10 0 10.6312 0.1702
6 10 2 8.8048 -0.3853
6 10 4 -0.7903 -0.4310
6 10 6 -7.0341 -0.4198
6 10 8 -4.4070 -0.7045
6 10 10 -6.7754 -0.3254
6 10 12 -18.9093 0.1687
6 10 14 -26.2714 -0.1935
6 10 16 -21.2992 -0.3775
6 10 18 -10.4483 -0.0213
6 10 20 -0.1809 0.1259
6 10 22 4.6697 0.1299
6 10 24 1.8975 -0.1577
6 10 26 -2.5153 -0.2276
6 10 28 -2.4727 0.8841
6 10 30 -0.2790 1.0049
6 10 32 0.2451 -1.2955
6 10 34 -0.4263 -2.4258
6 11 -33 5.4648 -1.6639
6 11 -31 8.8910 -2.2062
6 11 -29 0.5632 -0.9788
6 11 -27 -8.6148 0.1372
6 11 -25 -3.7149 -0.0753
6 11 -23 5.0920 -0.1986
6 11 -21 6.2809 0.4790
6 11 -19 4.4616 0.1737
6 11 -17 0.8492 -0.6817
6 11 -15 -3.1312 0.1242
6 11 -13 2.2312 1.1548
6 11 -11 12.2381 0.5153
6 11 -9 10.8327 -0.2858
6 11 -7 1.9467 -0.2356
6 11 -5 0.8282 0.0759
6 11 -3 4.7604 0.3168
6 11 -1 2.4562 -0.0059
6 11 1 -2.4799 -0.7235
6 11 3 0.1938 -0.8720
6 11 5 6.2294 -0.4470
6 11 7 3.6660 -0.1606
6 11 9 -4.1356 -0.4771
6 11 11 -4.0215 -1.0797
6 11 13 3.0621 -1.1785
6 11 15 7.7638 -0.7938
6 11 17 10.4493 -0.0796
6 11 19 12.0319 0.8858
6 11 21 6.9651 1.0370
6 11 23 -2.1723 0.1039
6 11 25 -6.5886 -1.0045
6 11 27 -6.4271 -1.2873
6 11 29 -5.4106 1.5963
6 11 31 -2.8047 7.3298
6 11 33 0.3571 9.7017
6 12 -30 5.4228 0.2628
6 12 -28 5.3032 -0.9925
6 12 -26 3.2934 -1.3059
6 12 -24 -0.8784 -1.0715
6 12 -22 -2.7250 -0.1499
6 12 -20 -2.6157 0.6081
6 12 -18 -3.5933 0.5366
6 12 -16 -4.3175 0.0145
6 12 -14 -4.5465 0.0462
6 12 -12 -6.3088 0.6780
6 12 -10 -7.4918 0.6722
6 12 -8 -5.6345 0.1419
6 12 -6 -4.3108 0.3062
6 12 -4 -6.1212 0.7854
6 12 -2 -6.1518 0.7023
6 12 0 -2.1524 0.2508
6 12 2 -1.1824 -0.1095
6 12 4 -5.7652 -0.1221
6 12 6 -7.5416 -0.1552
6 12 8 -2.5726 -0.7156
6 12 10 3.7135 -1.2121
6 12 12 8.5473 -1.0134
6 12 14 12.1281 -0.5774
6 12 16 10.4262 -0.5784
6 12 18 2.5411 -1.0336
6 12 20 -3.0722 -1.2492
6 12 22 -1.7075 -0.8246
6 12 24 -0.2932 0.1990
6 12 26 -3.3930 2.0673
6 12 28 -5.4747 3.5909
6 12 30 -2.7476 2.8057
6 13 -29 0.6361 -5.3443
6 13 -27 1.0434 -3.9974
6 13 -25 -2.9853 -0.2470
6 13 -23 -3.7769 0.7284
6 13 -21 0.4417 -0.9508
6 13 -19 3.3796 -0.6364
6 13 -17 3.2264 1.1309
6 13 -15 1.1463 0.8295
6 13 -13 -2.4942 -0.2741
6 13 -11 -3.9196 0.1743
6 13 -9 -2.5840 0.8473
6 13 -7 -3.4187 0.5781
6 13 -5 -3.8060 0.3033
6 13 -3 0.2508 0.5331
6 13 -1 1.9721 0.8072
6 13 1 0.0466 0.4417
6 13 3 2.4091 -0.5436
6 13 5 5.6660 -0.9445
6 13 7 2.7813 -0.4494
6 13 9 -1.2607 -0.3353
6 13 11 -3.6722 -0.8112
6 13 13 -7.1286 -0.8710
6 13 15 -7.2229 -0.6088
6 13 17 -1.6610 -0.7082
6 13 19 3.1395 -0.8272
6 13 21 4.8033 -0.3163
6 13 23 5.4055 0.6963
6 13 25 4.3773 1.2386
6 13 27 2.3878 -0.3132
6 13 29 1.6853 -4.1468
6 14 -28 -2.2649 -6.8123
6 14 -26 -1.8407 -4.7877
6 14 -24 -4.3452 -0.7701
6 14 -22 -8.0315 0.7217
6 14 -20 -4.1338 -0.1787
6 14 -18 1.7913 -0.4862
6 14 -16 -2.3884 0.2759
6 14 -14 -6.7531 0.1401
6 14 -12 0.3120 -0.4406
6 14 -10 5.4283 0.3556
6 14 -8 0.0349 0.8078
6 14 -6 -2.9440 -0.4339
6 14 -4 -0.8262 -0.9227
6 14 -2 -4.3873 -0.3045
6 14 0 -9.8199 -0.5416
6 14 2 -4.8633 -0.9017
6 14 4 6.5997 -0.4107
6 14 6 8.6266 -0.1628
6 14 8 -2.3511 -0.5140
6 14 10 -9.1906 -0.5395
6 14 12 -0.5511 0.1937
6 14 14 8.8024 0.6291
6 14 16 6.0827 -0.2275
6 14 18 1.0235 -1.0553
6 14 20 -0.0699 -0.4650
6 14 22 -1.9208 1.0385
6 14 24 -1.8797 2.9300
6 14 26 1.4361 4.1583
6 15 -25 2.4473 -1.1464
6 15 -23 3.9876 -1.6377
6 15 -21 5.7935 -0.6239
6 15 -19 1.2682 -0.0582
6 15 -17 -3.0984 -0.6123
6 15 -15 1.0965 -0.7970
6 15 -13 5.3587 0.2111
6 15 -11 3.1619 0.5966
6 15 -9 2.5167 -0.1265
6 15 -7 5.4967 -0.1675
6 15 -5 5.0560 -0.1367
6 15 -3 3.6921 -0.9851
6 15 -1 7.1561 -0.8482
6 15 1 7.9028 0.2595
6 15 3 -0.8534 0.0184
6 15 5 -7.7154 -1.1966
6 15 7 -0.6354 -1.2176
6 15 9 10.0622 0.0272
6 15 11 6.6585 0.3617
6 15 13 -5.2820 -0.8853
6 15 15 -6.5195 -1.0515
6 15 17 1.2778 0.8375
6 15 19 2.7144 1.8370
6 15 21 -0.9562 0.0520
6 15 23 -0.7998 -3.8257
6 15 25 0.8155 -7.3999
6 16 -22 -5.7497 -5.5860
6 16 -20 -4.5867 -2.9793
6 16 -18 0.2957 -0.7638
6 16 -16 1.0671 0.6636
6 16 -14 -2.3101 2.0178
6 16 -12 -1.4009 1.2273
6 16 -10 4.5964 -1.0056
6 16 -8 7.1063 -1.1482
6 16 -6 3.2183 0.5229
6 16 -4 -1.7394 0.8691
6 16 -2 -5.3015 -0.2322
6 16 0 -6.9815 -0.5592
6 16 2 -3.6234 -0.0388
6 16 4 2.1795 -0.1532
6 16 6 2.9032 -0.6717
6 16 8 -0.5033 -0.7329
6 16 10 -1.2650 -0.8830
6 16 12 1.7422 -1.3901
6 16 14 4.4626 -1.3868
6 16 16 2.9284 -0.6456
6 16 18 -2.8460 0.2389
6 16 20 -8.2989 1.1729
6 17 -19 1.7278 2.7308
6 17 -17 4.8834 2.3626
6 17 -11 -11.3637 -2.5137
6 17 -9 -8.2549 -1.1454
6 17 -7 2.0147 0.2319
6 17 -5 8.8784 0.7447
6 17 -3 6.1093 0.0106
6 17 -1 0.3074 -1.2326
6 17 1 -3.8235 -1.0020
6 17 3 -6.9221 0.2377
6 17 5 -4.3030 0.3964
6 17 7 2.2111 0.5340
6 17 9 1.7480 1.5739
6 17 11 -1.2169 0.7472
6 17 13 3.6660 -2.3383
6 17 15 7.2237 -3.1766
6 17 17 2.1233 0.5987
6 18 -14 -4.0432 -1.3394
6 18 -12 -6.6812 -2.8385
6 18 -10 -1.7362 -2.3437
6 18 -8 6.5018 -2.5187
6 18 -6 3.8679 -3.2740
6 18 -4 -2.3783 -2.3100
6 18 -2 1.2347 0.2315
6 18 0 7.4067 1.5449
6 18 2 7.6005 1.0845
6 18 4 5.4495 1.0492
6 18 6 1.5510 0.7391
6 18 8 -4.5992 -0.1527
6 18 10 -9.3340 3.0090
6 18 14 -12.3789 9.7311
6 19 1 -3.1954 0.4376
6 19 3 0.2577 1.9855
6 19 5 2.6913 3.9591
7 1 -40 -4.0624 -2.5807
7 1 -38 1.7493 0.0920
7 1 -36 8.3254 0.5677
7 1 -34 8.7421 -0.7093
7 1 -32 5.4544 -0.7609
7 1 -30 1.8859 -0.3270
7 1 -28 -1.1915 -0.5501
7 1 -26 -1.3903 -0.2694
7 1 -24 -1.3226 -0.0057
7 1 -22 -4.1513 -0.7713
7 1 -20 -1.1210 -0.5521
7 1 -18 9.2087 0.8619
7 1 -16 9.6523 0.5257
7 1 -14 0.3143 -0.4912
7 1 -12 2.3048 0.5741
7 1 -10 8.6556 1.3885
7 1 -8 -7.6903 0.3382
7 1 -6 -32.4450 0.0601
7 1 -4 -25.0399 0.6734
7 1 -2 2.6038 0.4566
7 1 0 -5.7178 0.0947
7 1 2 -50.9952 -0.3951
7 1 4 -67.5958 -1.3555
7 1 6 -33.1102 -0.9977
7 1 8 2.8989 0.3489
7 1 10 12.1599 0.1064
7 1 12 12.1664 -0.8395
7 1 14 11.1132 -0.2898
7 1 16 4.9763 0.5416
7 1 18 -3.1430 0.4232
7 1 20 -9.4006 0.5299
7 1 22 -8.4263 0.8512
7 1 24 -1.1584 0.3110
7 1 26 -0.1667 -0.2200
7 1 28 -5.1593 0.1747
7 1 30 -5.5728 0.5077
7 1 32 -3.8260 -0.1246
7 1 34 -2.8222 -0.9944
7 1 36 0.2189 0.7046
7 1 38 1.3514 6.4632
7 2 -39 2.3031 1.2089
7 2 -37 -2.8234 -0.2065
7 2 -35 -5.8221 -0.9733
7 2 -33 -3.6127 0.0709
7 2 -31 -1.2416 2.2197
7 2 -29 0.6692 2.4283
7 2 -27 1.7419 2.1353
7 2 -25 -1.6131 3.4128
7 2 -23 -3.2695 3.2809
7 2 -21 0.7529 1.2413
7 2 -19 -0.9345 0.9222
7 2 -17 -6.1882 1.0079
7 2 -15 2.2939 -1.2513
7 2 -13 14.9382 -2.5199
7 2 -11 12.1693 -1.7633
7 2 -9 12.7811 -3.0049
7 2 -7 39.4432 -4.5269
7 2 -5 62.5031 -3.0150
7 2 -3 40.6719 -2.2905
7 2 -1 -4.1336 -3.0760
7 2 1 -13.9316 -0.7783
7 2 3 12.1369 1.9456
7 2 5 23.1486 0.6676
7 2 7 7.4641 -0.1441
7 2 9 -4.1156 2.8500
7 2 11 -3.6938 4.9459
7 2 13 -3.2996 3.3065
7 2 15 -3.6247 1.5282
7 2 17 0.2363 2.3761
7 2 19 8.9974 3.0485
7 2 21 13.1491 0.6302
7 2 23 5.3302 -1.9389
7 2 25 1.9111 -1.6163
7 2 27 11.3610 -1.2397
7 2 29 12.9689 -2.6139
7 2 31 4.5616 -2.7736
7 2 33 4.5879 -1.3752
7 2 35 7.5941 -1.1596
7 2 37 2.7887 -1.7318
7 2 39 -1.9546 -1.8474
7 3 -38 -3.1944 -0.1706
7 3 -36 -1.5326 0.9443
7 3 -34 -1.6010 1.4836
7 3 -32 -1.5451 0.4865
7 3 -30 0.6801 1.1855
7 3 -28 1.0312 3.4817
7 3 -26 -1.3119 3.1421
7 3 -24 -2.7185 0.9168
7 3 -22 -4.8388 0.9015
7 3 -20 -6.3822 1.4295
7 3 -18 -1.6931 -0.1788
7 3 -16 2.1520 -0.5578
7 3 -14 -3.3395 0.5652
7 3 -12 -10.0895 -1.5048
7 3 -10 -13.7634 -3.5612
7 3 -8 -20.9667 -0.8467
7 3 -6 -24.9038 0.1221
7 3 -4 -11.5479 -3.7722
7 3 -2 12.1411 -4.0237
7 3 0 23.4375 0.4166
7 3 2 14.0784 1.2595
7 3 4 0.2970 -1.0216
7 3 6 -3.1534 0.0545
7 3 8 -1.5435 2.8600
7 3 10 0.1363 2.4270
7 3 12 5.5833 0.8519
7 3 14 9.1892 1.6261
7 3 16 4.5975 2.0120
7 3 18 -1.3119 0.1137
7 3 20 -3.9470 -0.5372
7 3 22 -5.0040 0.5799
7 3 24 -3.0502 0.1033
7 3 26 0.8218 -1.2536
7 3 28 3.2647 -1.0450
7 3 30 4.4829 -0.3620
7 3 32 3.5909 -0.5124
7 3 34 0.5661 -1.2608
7 3 36 -1.2520 -2.6183
7 3 38 -1.9104 -3.7277
7 4 -39 -0.3479 2.6712
7 4 -37 2.8263 2.0742
7 4 -35 6.2433 2.2883
7 4 -33 7.1794 1.5123
7 4 -31 6.7277 -1.1540
7 4 -29 6.2203 -1.8931
7 4 -27 5.9106 -0.3040
7 4 -25 5.0699 0.3552
7 4 -23 3.2221 0.4853
7 4 -21 2.0385 0.9745
7 4 -19 1.7287 0.3747
7 4 -17 0.3971 -0.3592
7 4 -15 -0.5375 0.2936
7 4 -13 1.3264 0.6494
7 4 -11 3.7310 0.0846
7 4 -9 1.5683 0.3025
7 4 -7 -6.8913 0.7725
7 4 -5 -12.5300 0.0057
7 4 -3 -2.2098 -0.6699
7 4 -1 19.1119 -0.1368
7 4 1 32.3680 0.1992
7 4 3 31.4414 -0.1070
7 4 5 22.3667 -0.3543
7 4 7 8.4700 -0.7523
7 4 9 -7.2809 -0.7016
7 4 11 -21.7356 0.1000
7 4 13 -29.2147 -0.0114
7 4 15 -18.9053 -0.4178
7 4 17 1.2911 0.6551
7 4 19 6.1341 1.1469
7 4 21 -0.6271 0.1860
7 4 23 3.3638 0.4608
7 4 25 9.6157 1.1399
7 4 27 3.2250 0.0267
7 4 29 -2.9831 -0.7232
7 4 31 -1.1274 -0.1700
7 4 33 -1.0650 0.0009
7 4 35 -3.7518 1.3060
7 4 37 -3.8575 4.2306
7 5 -38 0.7134 -3.7940
7 5 -36 0.7333 -3.1563
7 5 -34 -2.6130 -1.3294
7 5 -32 -7.1764 0.2835
7 5 -30 -9.0969 0.4670
7 5 -28 -6.2326 0.2168
7 5 -26 -3.3432 0.3488
7 5 -24 -1.9814 0.3451
7 5 -22 2.0533 -0.1185
7 5 -20 2.7228 -0.5012
7 5 -18 -6.2500 0.0987
7 5 -16 -11.8510 0.8421
7 5 -14 -5.3931 0.0588
7 5 -12 -0.8913 -0.6683
7 5 -10 -4.1732 0.1833
7 5 -8 -0.9325 0.2160
7 5 -6 8.6712 -0.6653
7 5 -4 3.3034 0.2653
7 5 -2 -19.3878 1.1534
7 5 0 -33.4531 -0.4876
7 5 2 -29.2244 -1.4684
7 5 4 -25.4667 0.3235
7 5 6 -25.5851 1.5444
7 5 8 -14.4195 0.4050
7 5 10 2.8717 -0.3339
7 5 12 11.3343 0.5689
7 5 14 11.4343 0.8024
7 5 16 5.4886 -0.0646
7 5 18 -2.4214 0.1235
7 5 20 -2.9850 0.9814
7 5 22 -1.9137 0.4606
7 5 24 -6.3254 -0.5915
7 5 26 -6.0021 -0.1786
7 5 28 -1.1669 0.8241
7 5 30 -2.8204 0.2658
7 5 32 -4.9299 -0.7345
7 5 34 -1.0276 0.5068
7 5 36 1.5688 1.7326
7 5 38 0.6477 -0.6966
7 6 -37 -1.3219 -1.1615
7 6 -35 -3.4094 0.6774
7 6 -33 -3.7272 -1.0252
7 6 -31 1.7054 -0.7850
7 6 -29 5.2312 1.0404
7 6 -27 2.3369 1.1707
7 6 -25 2.3579 1.0976
7 6 -23 5.3828 1.0924
7 6 -21 2.7564 -0.1954
7 6 -19 -0.1672 -0.8902
7 6 -17 0.7407 -0.2336
7 6 -15 -2.0515 0.0233
7 6 -13 -3.6348 -0.2194
7 6 -11 3.7186 -0.3602
7 6 -9 7.0421 -0.4468
7 6 -7 -1.0576 -0.3842
7 6 -5 -5.0232 -0.3816
7 6 -3 2.5099 -0.4805
7 6 -1 7.0793 -0.1593
7 6 1 -1.3930 0.4858
7 6 3 -11.1292 0.5847
7 6 5 -8.4026 0.0834
7 6 7 -1.8981 0.3276
7 6 9 -3.7756 1.2551
7 6 11 -5.5746 0.9687
7 6 13 -0.2237 0.0606
7 6 15 5.1340 0.1783
7 6 17 9.3281 -0.0238
7 6 19 13.3335 -0.9516
7 6 21 10.7982 -0.7796
7 6 23 2.8264 -0.1562
7 6 25 -4.3443 -0.4371
7 6 27 -10.2269 -0.7402
7 6 29 -12.2089 -0.3169
7 6 31 -8.1966 0.5791
7 6 33 -3.7728 0.5247
7 6 35 -2.0014 -1.8848
7 6 37 -0.9637 -4.0290
7 7 -38 5.3903 5.8645
7 7 -36 8.0428 5.0211
7 7 -34 6.5459 2.6160
7 7 -32 3.9255 0.4787
7 7 -30 2.3797 -0.7502
7 7 -28 0.3008 -0.9868
7 7 -26 -3.9632 -0.8304
7 7 -24 -5.5782 -0.9178
7 7 -22 1.9326 -0.5258
7 7 -20 11.5254 0.7069
7 7 -18 12.0342 1.1915
7 7 -16 7.7399 0.1035
7 7 -14 3.7802 -0.4817
7 7 -12 -3.0562 0.4752
7 7 -10 -5.0992 0.5619
7 7 -8 3.3013 -0.5151
7 7 -6 5.4310 -0.0402
7 7 -4 -4.6817 1.1151
7 7 -2 -7.3423 0.5958
7 7 0 2.5168 -0.0679
7 7 2 9.9268 0.2444
7 7 4 12.5280 0.1210
7 7 6 17.3211 -0.5168
7 7 8 21.6828 -1.0324
7 7 10 20.0696 -1.3588
7 7 12 13.7894 -1.1317
7 7 14 6.9668 -0.7374
7 7 16 0.8293 -0.6154
7 7 18 -3.8999 -0.2145
7 7 20 -4.0819 -0.0902
7 7 22 -2.0575 -0.7792
7 7 24 -4.5258 -0.5817
7 7 26 -6.0043 0.7316
7 7 28 2.3937 0.6456
7 7 30 10.9161 -0.6696
7 7 32 8.4413 -0.4340
7 7 34 3.3958 0.6363
7 7 36 3.5363 -0.1199
7 8 -37 -8.9312 -2.1714
7 8 -35 -7.8564 -2.9551
7 8 -33 -2.3443 -1.7097
7 8 -31 -1.3898 -0.2190
7 8 -29 -4.8743 -0.4546
7 8 -27 -5.3025 -0.9128
7 8 -25 -1.3262 -0.6310
7 8 -23 2.3072 -0.4102
7 8 -21 1.7090 -0.4439
7 8 -19 -1.5028 -0.5235
7 8 -17 -1.6685 -0.3227
7 8 -15 1.5371 0.3734
7 8 -13 1.5138 0.6674
7 8 -11 -4.4277 0.1939
7 8 -9 -9.6973 0.2780
7 8 -7 -5.8698 1.1720
7 8 -5 4.3692 1.2814
7 8 -3 7.7128 0.3663
7 8 -1 1.8323 0.0297
7 8 1 -0.6157 0.4676
7 8 3 1.9525 0.1913
7 8 5 -0.0198 -0.8527
7 8 7 -2.8749 -1.2844
7 8 9 0.1002 -0.9213
7 8 11 1.2064 -0.7589
7 8 13 -3.7599 -1.1969
7 8 15 -7.3966 -1.4767
7 8 17 -6.9562 -0.8546
7 8 19 -4.2181 0.0162
7 8 21 1.2674 0.3374
7 8 23 7.3021 0.5004
7 8 25 10.2165 0.5489
7 8 27 9.7521 0.3618
7 8 29 7.7386 0.8730
7 8 31 6.2658 1.9237
7 8 33 5.0975 2.1544
7 8 35 2.5350 1.7514
7 9 -36 1.5080 2.0782
7 9 -34 4.0707 -0.2309
7 9 -32 4.7795 -1.6643
7 9 -30 4.5750 -0.7759
7 9 -28 3.5101 -0.0050
7 9 -26 2.8124 -0.5196
7 9 -24 0.8962 -0.6495
7 9 -22 -6.5288 -0.3731
7 9 -20 -11.5278 -0.5504
7 9 -18 -5.0194 -0.5075
7 9 -16 1.6623 -0.0263
7 9 -14 -0.5102 -0.0067
7 9 -12 -0.1017 -0.2058
7 9 -10 5.8839 0.3495
7 9 -8 5.0994 0.7505
7 9 -6 -0.8100 0.1634
7 9 -4 -0.0494 0.3231
7 9 -2 3.5396 1.1264
7 9 0 0.9036 0.3203
7 9 2 -0.5110 -0.4090
7 9 4 6.8425 0.7909
7 9 6 9.0819 0.9252
7 9 8 -4.8714 -0.7609
7 9 10 -18.0680 -1.0510
7 9 12 -14.8430 0.0560
7 9 14 -5.2263 0.1752
7 9 16 1.4684 -0.7971
7 9 18 7.2640 -1.2852
7 9 20 7.4419 -0.3887
7 9 22 1.1678 0.7639
7 9 24 0.4763 0.8688
7 9 26 5.2007 0.6195
7 9 28 2.7954 0.4271
7 9 30 -4.4961 -0.1312
7 9 32 -5.4570 -0.1244
7 9 34 -1.0895 0.7385
7 10 -35 -3.2586 -1.5694
7 10 -33 -2.5237 0.7655
7 10 -31 -1.5296 -0.2815
7 10 -29 -1.8126 -1.5627
7 10 -27 -0.3515 -0.5531
7 10 -25 -0.4984 0.0975
7 10 -23 -1.0753 -0.3364
7 10 -21 4.2817 -0.2991
7 10 -19 7.1596 -0.1359
7 10 -17 -0.9725 -0.0172
7 10 -15 -7.6855 0.4592
7 10 -13 -4.2979 0.4218
7 10 -11 -0.1781 -0.3972
7 10 -9 1.1627 -0.7098
7 10 -7 4.3470 0.2261
7 10 -5 5.7009 1.3077
7 10 -3 2.7724 1.1410
7 10 -1 2.4219 0.2627
7 10 1 3.1222 -0.1262
7 10 3 -5.5082 -0.0538
7 10 5 -18.1604 0.1904
7 10 7 -18.2452 0.3785
7 10 9 -7.7289 0.1144
7 10 11 -1.6300 -0.5743
7 10 13 0.1156 -1.3176
7 10 15 4.9341 -1.2333
7 10 17 7.8947 -0.1071
7 10 19 4.7529 0.4670
7 10 21 1.7418 0.3236
7 10 23 -0.9796 0.5848
7 10 25 -8.8825 -0.2042
7 10 27 -15.5613 -2.1156
7 10 29 -10.9778 -1.6830
7 10 31 0.0576 0.4995
7 10 33 5.5389 0.3294
7 11 -34 5.4782 -1.1506
7 11 -30 4.7381 -3.6739
7 11 -28 3.0894 -1.3508
7 11 -26 0.3057 0.5164
7 11 -24 -1.9370 0.6462
7 11 -22 -2.6451 -0.2147
7 11 -20 -3.0614 -0.4434
7 11 -18 -3.5919 0.1340
7 11 -16 -2.5491 0.2610
7 11 -14 0.5191 0.0991
7 11 -12 2.9990 0.6677
7 11 -10 2.2041 1.2285
7 11 -8 -1.7199 0.6707
7 11 -6 -5.8761 -0.3182
7 11 -4 -6.4457 -0.5497
7 11 -2 -2.9875 -0.0531
7 11 0 0.3429 0.1798
7 11 2 1.1946 -0.3961
7 11 4 1.0281 -0.8457
7 11 6 -0.0113 -0.4123
7 11 8 -2.0496 -0.3508
7 11 10 -2.7333 -1.2223
7 11 12 -1.0857 -1.2130
7 11 14 0.8422 -0.1316
7 11 16 0.1375 0.1238
7 11 18 -4.1873 -0.1544
7 11 20 -7.4703 0.0607
7 11 22 -4.5943 -0.1985
7 11 24 0.3849 -0.5856
7 11 26 0.6462 0.3996
7 11 28 -2.3824 1.1476
7 11 30 -4.3062 0.0569
7 11 32 -4.7487 -0.2307
7 12 -31 -6.2776 4.1550
7 12 -29 -4.4363 -0.3130
7 12 -27 -4.0477 -1.5388
7 12 -25 -1.5860 0.2915
7 12 -23 3.2657 0.2321
7 12 -21 5.8488 -1.2692
7 12 -19 9.0291 -0.7452
7 12 -17 11.6991 0.5033
7 12 -15 5.0661 0.3996
7 12 -13 -4.1556 0.0128
7 12 -11 -3.4593 0.0028
7 12 -9 -0.9535 -0.0690
7 12 -7 -4.7918 -0.1575
7 12 -5 -5.4908 -0.1636
7 12 -3 -2.3214 -0.0458
7 12 -1 -4.9887 0.0786
7 12 1 -6.0750 -0.1560
7 12 3 5.7964 -0.6802
7 12 5 18.9936 -0.9044
7 12 7 17.7322 -0.4691
7 12 9 8.4946 -0.0292
7 12 11 6.1186 -0.1377
7 12 13 9.2237 -0.0022
7 12 15 6.7291 0.2346
7 12 17 -0.8575 -0.5249
7 12 19 -5.7804 -1.1006
7 12 21 -8.6901 -0.1050
7 12 23 -10.1129 1.5581
7 12 25 -4.3527 2.5753
7 12 27 4.3258 1.0181
7 12 29 4.9791 -3.4904
7 13 -30 -1.7300 -7.3654
7 13 -28 6.9197 -5.0399
7 13 -26 7.3004 -1.6200
7 13 -24 -4.8245 -0.1391
7 13 -22 -11.6630 -0.6469
7 13 -20 -10.0287 -0.8180
7 13 -18 -12.3148 0.5405
7 13 -16 -12.3257 1.1972
7 13 -14 -2.0301 -0.3126
7 13 -12 4.2303 -1.3119
7 13 -10 0.5075 -0.4472
7 13 -8 0.7309 0.3049
7 13 -6 5.4706 0.3391
7 13 -4 3.8555 0.0664
7 13 -2 0.5655 -0.4413
7 13 0 2.8984 -0.1107
7 13 2 3.0276 0.9051
7 13 4 -2.9754 0.7089
7 13 6 -5.6476 -0.4964
7 13 8 -1.8438 -0.5735
7 13 10 0.5688 0.6832
7 13 12 -0.7336 1.0396
7 13 14 0.6603 0.0345
7 13 16 5.6379 0.0791
7 13 18 5.9196 1.1183
7 13 20 0.2873 0.8212
7 13 22 -1.1291 -0.0981
7 13 24 3.5503 -0.1870
7 13 26 5.2014 0.3509
7 13 28 2.4969 1.8787
7 14 -27 -1.8843 1.6883
7 14 -25 3.7290 -2.1441
7 14 -23 4.3490 -1.8802
7 14 -21 0.6616 0.8458
7 14 -19 1.7699 1.1887
7 14 -17 5.3284 -0.1709
7 14 -15 2.4901 -0.2351
7 14 -13 -2.1057 -0.1331
7 14 -11 0.4676 -0.7945
7 14 -9 5.4924 -0.1825
7 14 -7 4.2921 1.0147
7 14 -5 -0.1926 0.3345
7 14 -3 -1.2504 -0.9294
7 14 -1 -0.7324 -0.7299
7 14 1 -1.4710 0.0785
7 14 3 -0.8337 0.3927
7 14 5 0.0717 0.4406
7 14 7 -1.6705 0.7101
7 14 9 -2.4204 1.1576
7 14 11 -1.8939 1.2109
7 14 13 -4.8757 0.7728
7 14 15 -6.8797 0.3136
7 14 17 -2.3184 0.2542
7 14 19 0.9336 1.0055
7 14 21 -3.1867 1.8193
7 14 23 -6.2981 0.6391
7 14 25 -1.9799 -2.6874
7 14 27 3.2234 -5.1380
7 15 -24 9.3593 -1.0622
7 15 -22 11.2907 -4.4986
7 15 -20 5.2044 -1.7472
7 15 -18 1.7283 1.2349
7 15 -16 2.6165 0.8351
7 15 -14 1.1933 -0.4595
7 15 -12 -0.4921 -0.9095
7 15 -10 1.5206 -0.8589
7 15 -8 3.4010 -0.2339
7 15 -6 2.5978 0.1561
7 15 -4 0.9977 -0.6459
7 15 -2 0.8400 -1.3825
7 15 0 3.0367 -0.6168
7 15 2 3.4630 0.6332
7 15 4 0.6518 0.4631
7 15 6 1.5046 -0.5816
7 15 8 3.1829 -0.1631
7 15 10 -2.8430 1.4490
7 15 12 -5.5332 1.7917
7 15 14 3.1324 0.8131
7 15 16 5.5748 0.2842
7 15 18 -2.7477 0.6428
7 15 20 -3.7385 1.2080
7 15 22 1.4766 0.8948
7 15 24 -0.3052 -0.8175
7 16 -21 -5.5375 0.9785
7 16 -19 0.2439 0.4398
7 16 -17 1.7817 0.3559
7 16 -15 1.6379 0.2743
7 16 -13 -0.3390 -0.3281
7 16 -11 -4.3235 -1.1025
7 16 -9 -2.6944 -1.9370
7 16 -7 2.5844 -1.6330
7 16 -5 0.5226 -0.1215
7 16 -3 -4.4458 0.0913
7 16 -1 -2.7484 -0.8649
7 16 1 -0.6529 -0.7179
7 16 3 -3.8035 0.1578
7 16 5 -7.0356 0.5908
7 16 7 -7.7962 0.4206
7 16 9 -5.0628 0.0481
7 16 11 0.7771 0.6475
7 16 13 2.0538 1.4786
7 16 15 -0.2610 0.4527
7 16 17 3.9725 -1.1588
7 16 19 9.5356 -0.6597
7 16 21 6.3855 1.9382
7 17 -18 0.5680 1.7757
7 17 -12 -3.4374 -0.7966
7 17 -10 -3.9702 0.6210
7 17 -8 -3.0707 0.3036
7 17 -6 -5.7771 -1.8689
7 17 -4 -3.4102 -1.3966
7 17 -2 3.8892 0.8349
7 17 0 6.1379 0.1484
7 17 2 4.3685 -0.9346
7 17 4 3.7502 1.4988
7 17 6 2.0864 3.4149
7 17 8 0.3367 1.3605
7 17 10 2.4173 -1.2629
7 17 12 4.5713 -1.6242
7 17 14 1.5328 -1.4316
7 17 16 -4.3853 -2.7140
7 18 -13 3.1938 1.7405
7 18 -11 9.6116 1.2737
7 18 -9 4.0075 0.2099
7 18 -7 -4.4848 -1.0433
7 18 -5 -7.5443 -1.9364
7 18 -3 -7.0283 -1.7225
7 18 -1 -3.0263 -0.1722
7 18 1 2.9866 1.6198
7 18 3 2.5771 1.9442
7 18 5 -2.3705 0.9257
7 18 7 -0.1807 0.5967
7 18 9 4.8279 1.8401
7 18 13 -8.6616 3.6617
8 0 -40 -1.6399 -3.0838
8 0 -38 7.5476 -7.9215
8 0 -36 14.2762 -8.9195
8 0 -34 11.8170 -2.8063
8 0 -32 2.7600 2.4592
8 0 -30 -3.5298 0.9159
8 0 -28 -0.6182 1.7989
8 0 -26 3.5587 10.1443
8 0 -24 -0.2400 13.1835
8 0 -22 -1.1907 7.5974
8 0 -20 8.4783 8.2034
8 0 -18 11.8957 13.7609
8 0 -16 5.1153 8.2795
8 0 -14 9.0883 -1.5607
8 0 -12 21.4787 -0.3285
8 0 -10 19.6798 0.9539
8 0 -8 12.1461 -9.1306
8 0 -6 22.6560 -14.8705
8 0 -4 35.0178 -8.9410
8 0 -2 10.9527 -8.6926
8 0 0 -37.0966 -15.7106
8 0 2 -49.1019 -12.1761
8 0 4 -13.3930 -1.5206
8 0 6 15.8997 -0.7494
8 0 8 16.8477 -3.3323
8 0 10 15.2062 4.8557
8 0 12 12.1532 13.6221
8 0 14 -2.4001 9.9368
8 0 16 -11.4773 5.4710
8 0 18 -6.7885 11.3567
8 0 20 -1.4333 14.3940
8 0 22 -0.4912 5.7909
8 0 24 0.4898 0.0525
8 0 26 4.6046 3.0293
8 0 28 7.2667 0.6509
8 0 30 2.2162 -8.0217
8 0 32 -1.7894 -9.2927
8 0 34 1.2717 -4.5714
8 0 36 0.7582 -2.8156
8 0 38 -1.4527 -0.2879
8 1 -39 -2.4366 -2.5024
8 1 -37 -4.8824 1.6760
8 1 -35 -5.6670 2.2875
8 1 -33 -3.3762 -1.4408
8 1 -31 0.1396 -1.1200
8 1 -29 0.6926 2.0917
8 1 -27 -2.6062 0.8297
8 1 -25 -4.1798 -1.7918
8 1 -23 -2.8916 0.5908
8 1 -21 -5.4634 3.3752
8 1 -19 -9.3540 0.8411
8 1 -17 -5.0774 -1.4274
8 1 -15 1.9586 1.6390
8 1 -13 0.3570 2.8573
8 1 -11 -6.8976 -1.8185
8 1 -9 -12.3093 -2.7468
8 1 -7 -14.2008 1.9765
8 1 -5 -9.6854 0.5784
8 1 -3 3.6564 -4.8771
8 1 -1 17.4151 -1.7097
8 1 1 14.0252 3.4853
8 1 3 -9.7936 -0.9512
8 1 5 -29.0043 -4.9405
8 1 7 -25.9095 0.5089
8 1 9 -16.2089 3.4998
8 1 11 -10.8723 -1.5864
8 1 13 -0.9464 -2.2983
8 1 15 8.7196 3.5367
8 1 17 7.1827 3.4152
8 1 19 1.4345 -1.9840
8 1 21 -1.5439 -1.1046
8 1 23 -3.0952 3.0145
8 1 25 -2.6287 1.0939
8 1 27 -1.9760 -1.8897
8 1 29 -3.0444 0.4915
8 1 31 -2.7712 2.2475
8 1 33 -0.2329 -0.7751
8 1 35 3.1355 -3.1677
8 1 37 4.0878 -2.3657
8 1 39 -0.5860 -1.9504
8 2 -40 -3.4790 0.0529
8 2 -38 -3.4667 -0.1287
8 2 -36 -1.7295 -0.1874
8 2 -34 0.1277 0.6571
8 2 -32 1.1963 0.8867
8 2 -30 1.8853 -0.5164
8 2 -28 2.0647 -1.5471
8 2 -26 2.8720 -0.8504
8 2 -24 4.9218 0.1881
8 2 -22 4.7672 -0.0742
8 2 -20 1.2026 -1.2322
8 2 -18 -1.7698 -1.0860
8 2 -16 -3.8972 0.2511
8 2 -14 -7.8727 0.0220
8 2 -12 -7.7898 -0.6749
8 2 -10 4.9303 0.8885
8 2 -8 21.9349 1.8465
8 2 -6 23.0494 0.0678
8 2 -4 7.3256 -0.4607
8 2 -2 -1.5813 1.4027
8 2 0 9.9528 1.6264
8 2 2 28.1996 0.0099
8 2 4 35.3404 -0.0175
8 2 6 27.7081 0.7674
8 2 8 11.8298 -0.4491
8 2 10 -2.4350 -1.6444
8 2 12 -9.3488 -0.5728
8 2 14 -8.3173 -0.2385
8 2 16 1.4302 -1.4165
8 2 18 12.7393 -0.5720
8 2 20 11.7969 0.9685
8 2 22 2.8928 -0.1020
8 2 24 1.9093 -0.9711
8 2 26 5.9657 0.4275
8 2 28 5.7557 0.9286
8 2 30 5.5709 -0.0447
8 2 32 5.9940 -0.1106
8 2 34 1.2455 0.3057
8 2 36 -3.6908 0.3009
8 2 38 -2.8424 0.6515
8 3 -39 1.9858 -3.1309
8 3 -37 0.9531 -3.2907
8 3 -35 -2.0650 -0.2744
8 3 -33 -1.7997 0.6210
8 3 -31 3.4500 -0.9815
8 3 -29 8.0933 0.0505
8 3 -27 7.5396 2.0718
8 3 -25 1.4773 0.9411
8 3 -23 -4.3669 -0.3635
8 3 -21 -3.4228 0.6064
8 3 -19 -0.6413 0.9111
8 3 -17 -1.6921 0.3740
8 3 -15 1.9045 0.6189
8 3 -13 10.6795 -0.1523
8 3 -11 5.0303 -1.3296
8 3 -9 -19.6636 -0.2337
8 3 -7 -37.2855 0.6427
8 3 -5 -29.4600 -0.5721
8 3 -3 -12.7194 -0.9554
8 3 -1 -9.0345 -0.5188
8 3 1 -11.2444 -0.8108
8 3 3 -5.6028 -0.1621
8 3 5 -1.6280 0.6841
8 3 7 -4.2118 -0.3506
8 3 9 1.1511 -0.7685
8 3 11 12.7429 0.6643
8 3 13 15.8921 1.0767
8 3 15 11.4741 0.3361
8 3 17 2.7011 0.2155
8 3 19 -7.2656 0.1290
8 3 21 -6.9305 0.0041
8 3 23 -0.7085 0.5977
8 3 25 -0.6866 0.7520
8 3 27 1.1806 0.0674
8 3 29 7.2512 -0.1441
8 3 31 6.2651 -0.2160
8 3 33 2.9056 -0.5565
8 3 35 3.4414 -0.5758
8 3 37 1.1342 -2.1739
8 3 39 -2.3462 -5.3587
8 4 -38 3.3953 1.4523
8 4 -36 5.8801 1.5840
8 4 -34 3.5462 0.8566
8 4 -32 -2.5833 0.1818
8 4 -30 -5.8771 -0.1542
8 4 -28 -5.9740 -0.3126
8 4 -26 -5.9493 -0.2793
8 4 -24 -1.7578 -0.1612
8 4 -22 6.2916 -0.4226
8 4 -20 9.8237 -0.4696
8 4 -18 7.6844 -0.1162
8 4 -16 1.2781 -0.5007
8 4 -14 -10.4854 -0.4739
8 4 -12 -16.7966 0.9796
8 4 -10 -7.2159 0.9014
8 4 -8 4.5278 -0.9586
8 4 -6 1.2444 -0.5532
8 4 -4 -8.0970 1.6012
8 4 -2 -3.2951 1.4828
8 4 0 11.5188 -0.2079
8 4 2 10.7259 -0.1266
8 4 4 -6.1680 1.0027
8 4 6 -10.9313 0.3225
8 4 8 -3.1961 -1.0861
8 4 10 -6.7387 -0.5935
8 4 12 -15.0146 0.2881
8 4 14 -10.6239 -0.3719
8 4 16 -3.1826 -1.0559
8 4 18 -2.5998 -1.0211
8 4 20 -3.3857 -0.9611
8 4 22 -2.1291 -0.4631
8 4 24 -0.9767 0.2153
8 4 26 -6.2255 0.3831
8 4 28 -18.3444 0.4623
8 4 30 -23.8302 0.2265
8 4 32 -18.3493 -0.4098
8 4 34 -11.9944 -0.2532
8 4 36 -6.1568 0.6765
8 4 38 0.1971 1.7569
8 5 -39 1.0380 -1.8541
8 5 -37 0.4103 1.0885
8 5 -35 -1.3122 0.9986
8 5 -33 -1.5903 -0.0274
8 5 -31 -1.2752 0.7674
8 5 -29 -3.8432 0.1425
8 5 -27 -5.3937 -1.9886
8 5 -25 -1.4424 -2.1105
8 5 -23 2.3978 -0.9334
8 5 -21 0.8238 -0.7300
8 5 -19 -3.3849 -0.9658
8 5 -17 -5.2080 -0.9880
8 5 -15 -1.6362 -1.0255
8 5 -13 4.0543 -0.5089
8 5 -11 7.7720 0.4436
8 5 -9 15.2076 0.6264
8 5 -7 26.4238 0.8553
8 5 -5 26.2659 2.0654
8 5 -3 11.2602 2.1894
8 5 -1 -4.8287 1.1097
8 5 1 -14.7154 1.3118
8 5 3 -16.9034 1.6092
8 5 5 -10.8522 0.4959
8 5 7 -4.0073 0.0287
8 5 9 -0.2814 -0.0665
8 5 11 2.9598 -1.4306
8 5 13 0.1118 -2.2147
8 5 15 -9.4276 -1.5517
8 5 17 -10.4854 -1.0175
8 5 19 0.2649 -0.7004
8 5 21 6.9604 -0.4645
8 5 23 2.9957 -0.5818
8 5 25 -1.5419 -0.4113
8 5 27 1.6769 -0.2204
8 5 29 8.9899 -0.2409
8 5 31 11.9800 0.7340
8 5 33 9.3590 1.8742
8 5 35 5.9605 1.5352
8 5 37 3.7962 1.5146
8 6 -38 2.4674 -2.7525
8 6 -36 2.8810 -2.1368
8 6 -34 4.0229 -1.2910
8 6 -32 5.8693 -0.2534
8 6 -30 3.9499 -0.4947
8 6 -28 -0.1970 -1.1966
8 6 -26 -1.6059 -0.1610
8 6 -24 -1.3034 0.7067
8 6 -22 -1.0166 -0.4337
8 6 -20 1.1943 -0.8186
8 6 -18 4.4310 0.0846
8 6 -16 4.5694 -0.5369
8 6 -14 1.7320 -1.5194
8 6 -12 -0.7122 -0.4282
8 6 -10 -4.8025 0.7687
8 6 -8 -12.5568 0.2889
8 6 -6 -13.6339 -0.1185
8 6 -4 -1.4470 0.6918
8 6 -2 8.2748 1.3706
8 6 0 4.9569 0.8419
8 6 2 3.3882 0.0667
8 6 4 10.4088 0.2868
8 6 6 12.1997 0.8050
8 6 8 5.7607 0.3797
8 6 10 2.3280 -0.2278
8 6 12 7.2295 0.1261
8 6 14 17.2519 0.3215
8 6 16 21.7085 -0.5323
8 6 18 13.4575 -0.8078
8 6 20 3.8585 -0.2361
8 6 22 2.4626 -0.6319
8 6 24 1.7706 -0.9939
8 6 26 0.1773 0.1914
8 6 28 2.3002 0.6111
8 6 30 2.2289 -0.3541
8 6 32 -1.2427 -0.0762
8 6 34 -0.2412 0.1108
8 6 36 2.6719 -2.3873
8 7 -37 -9.4852 2.4062
8 7 -35 -7.2983 0.6199
8 7 -33 -4.1164 0.7145
8 7 -31 -3.5721 0.7094
8 7 -29 0.7604 0.9830
8 7 -27 6.0915 0.6079
8 7 -25 5.8553 -0.6843
8 7 -23 1.8535 -0.3595
8 7 -21 -2.9315 0.7201
8 7 -19 -3.7084 -0.1875
8 7 -17 2.8768 -1.0558
8 7 -15 5.9894 0.2471
8 7 -13 -1.9450 0.8283
8 7 -11 -7.0454 -0.8334
8 7 -9 -0.5590 -1.2919
8 7 -7 3.1403 0.4193
8 7 -5 -6.3107 0.6633
8 7 -3 -16.4512 -0.7577
8 7 -1 -11.9212 -0.5656
8 7 1 3.2574 0.7164
8 7 3 14.9625 0.7222
8 7 5 19.0007 0.0141
8 7 7 17.3438 -0.1269
8 7 9 10.8951 0.2775
8 7 11 5.1416 0.4900
8 7 13 1.6140 0.1453
8 7 15 -5.9128 0.0040
8 7 17 -12.4521 -0.0609
8 7 19 -9.8015 -0.7182
8 7 21 -6.2178 -0.6202
8 7 23 -6.5486 0.1523
8 7 25 -3.5348 -0.7270
8 7 27 1.1441 -1.9296
8 7 29 3.1787 -0.8929
8 7 31 5.6300 0.6994
8 7 33 5.3783 1.6476
8 7 35 -0.9131 3.4157
8 8 -36 3.9222 -2.0263
8 8 -34 0.4176 -1.5402
8 8 -32 -3.0996 0.3901
8 8 -30 -3.9228 0.6235
8 8 -28 -1.3806 -0.3685
8 8 -26 -0.1408 -0.4443
8 8 -24 -7.4421 -0.5465
8 8 -22 -14.6044 -1.0631
8 8 -20 -8.7316 -0.5395
8 8 -18 -1.0832 0.7466
8 8 -16 -3.0141 0.9706
8 8 -14 -1.5223 -0.3404
8 8 -12 6.1391 -0.9583
8 8 -10 2.9637 0.3788
8 8 -8 -7.7093 0.9573
8 8 -6 -6.4315 -0.0108
8 8 -4 3.8903 0.2831
8 8 -2 6.6212 1.0128
8 8 0 1.8352 -0.0370
8 8 2 -1.2775 -0.5886
8 8 4 -5.1046 0.5619
8 8 6 -13.2450 0.6725
8 8 8 -16.1570 -0.7016
8 8 10 -9.7916 -1.1084
8 8 12 -5.7316 -0.3225
8 8 14 -6.2307 -0.2247
8 8 16 -2.9796 -0.9095
8 8 18 -0.3862 -1.0508
8 8 20 -2.2881 -0.5037
8 8 22 1.5877 0.4265
8 8 24 9.4810 1.0899
8 8 26 6.6164 0.1420
8 8 28 -4.3409 -1.2209
8 8 30 -9.1210 -0.9136
8 8 32 -5.5332 -1.0031
8 8 34 0.7590 -3.0239
8 9 -35 -0.8363 -0.1522
8 9 -33 4.1380 -0.0438
8 9 -31 7.8763 -2.5596
8 9 -29 6.6281 -2.2404
8 9 -27 2.6657 0.0348
8 9 -25 1.1145 0.5344
8 9 -23 5.4027 -0.0375
8 9 -21 11.7555 -0.0434
8 9 -19 12.2140 -0.2237
8 9 -17 5.5779 -0.8798
8 9 -15 -1.4774 -0.7387
8 9 -13 -2.9269 0.2775
8 9 -11 1.0421 0.5461
8 9 -9 4.5147 -0.0121
8 9 -7 2.8974 0.1290
8 9 -5 -0.6571 0.7991
8 9 -3 -1.0309 0.7411
8 9 -1 -0.2397 0.1829
8 9 1 -3.5762 -0.0327
8 9 3 -9.8378 -0.0252
8 9 5 -13.0951 -0.2188
8 9 7 -12.9277 -0.2679
8 9 9 -14.1865 0.1593
8 9 11 -15.8454 0.2690
8 9 13 -11.0249 -0.3064
8 9 15 -0.7910 -0.4234
8 9 17 4.0574 0.3029
8 9 19 -1.1782 0.6375
8 9 21 -7.9878 -0.0599
8 9 23 -7.2813 -0.6656
8 9 25 -1.4729 0.1111
8 9 27 1.1309 1.2220
8 9 29 -0.4791 0.4173
8 9 31 -1.1858 -1.5706
8 9 33 -1.3444 -1.9668
8 9 35 -4.0036 -0.7267
8 10 -34 -8.6363 6.3345
8 10 -32 -13.9540 2.8927
8 10 -30 -10.3224 -0.1885
8 10 -28 -1.4774 -1.2083
8 10 -26 3.2567 -0.6520
8 10 -24 2.2890 0.3059
8 10 -22 -2.1632 0.2166
8 10 -20 -6.6606 -0.5382
8 10 -18 -3.8354 -0.4033
8 10 -16 5.0407 0.2532
8 10 -14 7.4860 0.2237
8 10 -12 1.6530 -0.3092
8 10 -10 -1.1694 -0.4669
8 10 -8 1.8496 -0.0247
8 10 -6 3.5768 0.0015
8 10 -4 3.1411 -0.8081
8 10 -2 5.9123 -0.8577
8 10 0 10.3536 0.0897
8 10 2 8.1170 0.1774
8 10 4 -0.6426 -0.2334
8 10 6 -4.7130 0.3628
8 10 8 0.5518 0.8968
8 10 10 8.4493 0.3924
8 10 12 13.7172 0.2527
8 10 14 13.4853 0.9596
8 10 16 6.3624 1.0422
8 10 18 0.6649 0.4996
8 10 20 2.8052 0.7278
8 10 22 2.8601 1.0839
8 10 24 -4.6639 0.5543
8 10 26 -7.8680 0.2579
8 10 28 -2.9082 -0.3083
8 10 30 -1.0606 -2.8545
8 10 32 -4.0427 -4.6049
8 11 -31 4.1193 -0.0068
8 11 -29 3.1971 -1.9461
8 11 -27 0.4935 -1.1993
8 11 -25 -0.3085 0.3600
8 11 -23 0.3167 -0.1309
8 11 -21 1.0967 -0.1558
8 11 -19 -0.4308 1.3911
8 11 -17 -6.7645 1.5361
8 11 -15 -11.4346 0.0176
8 11 -13 -7.2785 -0.7008
8 11 -11 -0.4954 -0.3521
8 11 -9 0.0363 -0.1700
8 11 -7 -3.2262 -0.1291
8 11 -5 -4.4672 -0.0949
8 11 -3 -5.5706 -0.6845
8 11 -1 -9.5723 -1.0269
8 11 1 -9.8222 -0.1951
8 11 3 0.6365 0.1820
8 11 5 12.9903 -0.3214
8 11 7 14.4526 -0.0861
8 11 9 8.7513 0.3538
8 11 11 5.2610 0.2598
8 11 13 2.4410 0.5595
8 11 15 -2.5297 0.9495
8 11 17 -7.0805 0.9050
8 11 19 -11.0268 0.6080
8 11 21 -13.0944 -0.1799
8 11 23 -8.2124 -0.3966
8 11 25 0.8017 0.4889
8 11 27 5.1907 0.7151
8 11 29 4.1197 1.0733
8 11 31 1.7691 3.4637
8 12 -32 -1.7686 -4.9811
8 12 -30 -2.3171 -1.7167
8 12 -28 2.2357 -0.0622
8 12 -26 3.6279 -0.5285
8 12 -24 -0.6634 -0.4147
8 12 -22 -4.9879 0.1427
8 12 -20 -5.3182 -0.0071
8 12 -18 -0.6803 0.2370
8 12 -16 5.7428 0.8323
8 12 -14 7.0315 0.4756
8 12 -12 2.0903 -0.0451
8 12 -10 -2.0042 0.2755
8 12 -8 -1.2661 0.3681
8 12 -6 0.0328 -0.2914
8 12 -4 -0.7283 -0.4411
8 12 -2 1.0601 -0.0164
8 12 0 6.6743 -0.2252
8 12 2 10.0734 -0.5388
8 12 4 9.4136 -0.3790
8 12 6 8.4866 -0.7801
8 12 8 7.6894 -1.0103
8 12 10 5.1985 0.2102
8 12 12 2.2570 1.0959
8 12 14 2.2460 0.3239
8 12 16 6.1226 -0.7590
8 12 18 8.5397 -0.8256
8 12 20 4.8086 0.5666
8 12 22 1.0466 1.7340
8 12 24 4.5000 0.2161
8 12 26 9.6206 -1.9835
8 12 28 8.0182 -1.8001
8 12 30 2.3762 -1.4040
8 13 -29 0.8610 3.4993
8 13 -27 0.3722 0.2170
8 13 -25 1.2508 -2.7567
8 13 -23 3.8789 -2.5813
8 13 -21 4.6802 -0.3865
8 13 -19 1.8043 1.0583
8 13 -17 -0.5012 1.0729
8 13 -15 -0.9167 0.4366
8 13 -13 -1.8449 -0.4655
8 13 -11 -0.7329 -0.9590
8 13 -9 3.0421 -0.1987
8 13 -7 3.2054 0.7247
8 13 -5 -0.2894 -0.0090
8 13 -3 -1.0150 -1.4872
8 13 -1 0.8571 -1.4621
8 13 1 -0.2996 -0.1764
8 13 3 -7.5413 0.4094
8 13 5 -15.7264 -0.1213
8 13 7 -14.0803 -0.2605
8 13 9 -4.9710 0.6768
8 13 11 -3.4684 1.1041
8 13 13 -9.0472 0.1722
8 13 15 -8.4287 -0.5587
8 13 17 -1.5259 -0.4989
8 13 19 4.4915 -0.4526
8 13 21 7.0951 0.0857
8 13 23 3.5748 1.0673
8 13 25 -2.7911 1.2048
8 13 27 -2.4890 1.4558
8 14 -28 -7.3936 8.7075
8 14 -26 -0.3127 1.9412
8 14 -24 3.6291 -3.0510
8 14 -22 -1.0588 -1.0895
8 14 -20 -1.7802 1.8238
8 14 -18 2.5522 0.3867
8 14 -16 1.9950 -1.6349
8 14 -14 0.9152 -1.1993
8 14 -12 4.5586 -0.3700
8 14 -10 5.2988 -0.2820
8 14 -8 1.7948 -0.3361
8 14 -6 0.3591 -0.3590
8 14 -4 0.6047 -0.4863
8 14 -2 1.2581 -0.7498
8 14 0 2.5212 -0.5831
8 14 2 1.3356 0.1716
8 14 4 -0.6149 0.7028
8 14 6 -0.8544 0.6901
8 14 8 -3.9951 0.1946
8 14 10 -6.1162 -0.1094
8 14 12 0.5551 0.8526
8 14 14 4.4315 1.5719
8 14 16 -3.4769 0.2613
8 14 18 -8.1197 -0.9580
8 14 20 -2.5907 -0.1368
8 14 22 0.5430 1.2634
8 14 24 -1.3419 1.1188
8 14 26 -0.9968 -1.0538
8 15 -23 3.6963 -0.3410
8 15 -21 4.4176 -1.1596
8 15 -19 1.2602 -0.4662
8 15 -17 6.5961 0.4981
8 15 -15 11.3055 0.4164
8 15 -13 2.1579 0.8030
8 15 -11 -6.5829 0.8399
8 15 -9 -1.7121 -0.5676
8 15 -7 3.2569 -1.2086
8 15 -5 -0.3482 -0.3257
8 15 -3 -1.1164 0.1235
8 15 -1 3.6859 -0.5804
8 15 1 3.9174 -1.0178
8 15 3 -0.8489 0.1543
8 15 5 -3.3786 1.3222
8 15 7 -1.5524 0.2896
8 15 9 2.4934 -0.8134
8 15 11 3.6413 0.4009
8 15 13 -0.5151 1.5925
8 15 15 -3.3403 0.4797
8 15 17 -0.6865 -1.2705
8 15 19 3.1077 -1.3947
8 15 21 5.7378 -0.3585
8 15 23 6.2446 0.3482
8 16 -20 -1.4883 -2.4005
8 16 -18 4.5175 -2.7347
8 16 -16 5.9679 0.3131
8 16 -14 3.5241 1.7984
8 16 -12 -0.0085 1.7451
8 16 -10 -3.3547 1.4401
8 16 -8 -6.7672 -0.2045
8 16 -6 -7.6485 -1.7109
8 16 -4 -4.2891 -0.4983
8 16 -2 -1.8411 0.9999
8 16 0 -2.1212 -0.3431
8 16 2 -0.2252 -2.2224
8 16 4 2.4744 -1.3463
8 16 6 3.1587 0.9575
8 16 8 6.2676 1.3225
8 16 10 10.0661 -0.5377
8 16 12 7.4963 -2.0137
8 16 14 2.9290 -1.7403
8 16 16 2.8298 -1.1189
8 16 18 2.4678 -2.0597
8 16 20 -1.1570 -4.1402
8 17 -19 -12.2222 2.3936
8 17 -13 -7.8148 0.3854
8 17 -11 3.9658 -0.9539
8 17 -9 -0.8174 0.6184
8 17 -7 -5.6530 1.8119
8 17 -5 -2.8639 0.1986
8 17 -3 -2.2335 -1.4807
8 17 -1 -4.5193 -0.8153
8 17 1 -6.5046 0.5620
8 17 3 -10.3807 0.1896
8 17 5 -10.9800 -0.8967
8 17 7 -4.0732 -0.8228
8 17 9 2.0767 -1.4267
8 17 11 3.0259 -3.6419
8 17 13 1.4746 -3.8108
8 17 15 -3.4707 -0.4825
8 17 17 -9.2813 2.7903
8 18 -14 14.8984 -5.4224
8 18 -12 10.3395 0.3187
8 18 -8 -1.4654 1.1015
8 18 -4 -1.6213 1.5798
8 18 -2 2.1334 1.7973
8 18 0 5.6965 1.8134
8 18 2 8.8159 0.1351
8 18 4 10.3683 -1.5917
8 18 6 7.1623 -1.8139
8 18 8 1.8936 -1.4189
8 18 10 -1.5594 -0.1206
9 1 -40 -0.7574 -3.5076
9 1 -38 -1.2121 -5.1941
9 1 -36 0.1481 -2.0908
9 1 -34 2.9359 1.9370
9 1 -32 6.9901 0.8925
9 1 -30 8.5660 -1.3723
9 1 -28 5.6406 -0.3710
9 1 -26 3.6938 0.5252
9 1 -24 3.8493 -0.1277
9 1 -22 2.6468 0.4462
9 1 -20 4.5455 1.3982
9 1 -18 9.2373 0.7955
9 1 -16 5.4914 0.1039
9 1 -14 -1.8508 0.1034
9 1 -12 4.0155 -0.0576
9 1 -10 13.8047 0.1154
9 1 -8 3.2613 0.4727
9 1 -6 -20.4189 -0.1983
9 1 -4 -25.7650 -0.5868
9 1 -2 -9.2404 0.0821
9 1 0 0.1717 -0.6651
9 1 2 -5.5249 -1.8561
9 1 4 -3.2861 -0.2425
9 1 6 11.0832 1.0941
9 1 8 18.9778 -0.7158
9 1 10 16.4556 -1.3302
9 1 12 10.3028 0.5993
9 1 14 5.3042 1.0606
9 1 16 6.8346 0.3645
9 1 18 8.2412 0.6370
9 1 20 2.4208 0.4650
9 1 22 1.3271 -0.0850
9 1 24 5.7216 0.5739
9 1 26 1.7844 0.8215
9 1 28 -2.2869 -0.4990
9 1 30 2.7125 -0.9238
9 1 32 3.7379 0.5212
9 1 34 -1.5605 1.2564
9 1 36 -2.9433 -0.0385
9 1 38 -1.6223 -1.3045
9 2 -39 2.1502 6.3526
9 2 -37 -4.7944 4.2149
9 2 -35 -8.5602 2.1026
9 2 -33 -5.0158 1.5656
9 2 -31 -0.2354 1.5931
9 2 -29 1.3791 1.5830
9 2 -27 -1.6700 0.5332
9 2 -25 -6.6121 -1.2228
9 2 -23 -4.9733 -1.8562
9 2 -21 -0.8143 -2.1437
9 2 -19 -7.0086 -3.0773
9 2 -17 -15.2269 -3.2242
9 2 -15 -11.9005 -2.9506
9 2 -13 -9.2069 -3.0221
9 2 -11 -16.4253 -1.8360
9 2 -9 -16.8159 -0.3190
9 2 -7 -4.5584 -0.4215
9 2 -5 -1.4319 0.2781
9 2 -3 -14.6465 2.8130
9 2 -1 -16.2846 3.7714
9 2 1 6.3792 2.9714
9 2 3 18.2020 3.2051
9 2 5 -1.3386 3.2846
9 2 7 -18.2956 1.4823
9 2 9 -12.0174 0.4386
9 2 11 -3.4150 1.0917
9 2 13 -0.9558 0.2693
9 2 15 1.1687 -1.9707
9 2 17 0.7708 -2.7342
9 2 19 3.4532 -2.5411
9 2 21 9.3327 -2.8062
9 2 23 4.9274 -3.0183
9 2 25 -3.1348 -2.9025
9 2 27 -2.1479 -1.6212
9 2 29 -1.2393 0.5782
9 2 31 -3.7929 0.5250
9 2 33 -1.6433 -0.7657
9 2 35 2.5807 1.0382
9 2 37 4.0805 3.0632
9 2 39 2.8128 1.2388
9 3 -40 -0.1454 -2.8010
9 3 -38 2.9638 -0.3579
9 3 -36 4.6370 2.2265
9 3 -34 -0.3518 2.6724
9 3 -32 -6.9289 1.7322
9 3 -30 -8.4285 0.5780
9 3 -28 -6.0161 -0.2951
9 3 -26 -1.2469 -0.5359
9 3 -24 4.2325 -0.7098
9 3 -22 6.7096 -0.9372
9 3 -20 9.0664 -1.0529
9 3 -18 13.7075 -2.0100
9 3 -16 12.2998 -2.8358
9 3 -14 3.6637 -1.6677
9 3 -12 0.6856 -0.6360
9 3 -10 6.8827 -1.5702
9 3 -8 12.3340 -1.5530
9 3 -6 13.9847 0.8560
9 3 -4 18.5148 2.2955
9 3 -2 24.3269 1.2893
9 3 0 17.8050 1.1592
9 3 2 0.3606 2.8295
9 3 4 -4.8333 2.7647
9 3 6 5.3017 1.2551
9 3 8 8.0697 1.4656
9 3 10 2.3178 1.3683
9 3 12 2.5937 -0.7389
9 3 14 1.6626 -1.4094
9 3 16 -7.8114 -0.5820
9 3 18 -13.2142 -1.3070
9 3 20 -8.8121 -2.1670
9 3 22 -1.9597 -1.4304
9 3 24 2.3199 -0.9125
9 3 26 2.1273 -1.2839
9 3 28 -0.2574 -1.4127
9 3 30 -0.6553 -0.8494
9 3 32 -1.0069 0.2043
9 3 34 -3.0482 0.6413
9 3 36 -3.5743 -0.3314
9 3 38 -2.0098 -1.3378
9 4 -39 0.8783 -1.4037
9 4 -37 2.8557 -1.0683
9 4 -35 4.6657 -1.5854
9 4 -33 5.7843 -0.2843
9 4 -31 5.8233 1.7990
9 4 -29 4.4012 0.8258
9 4 -27 3.1141 -0.7948
9 4 -25 0.5705 0.2543
9 4 -23 -5.9220 0.7874
9 4 -21 -10.9747 -0.4054
9 4 -19 -8.3301 -0.0383
9 4 -17 -2.6105 0.4966
9 4 -15 -0.3815 -0.8612
9 4 -13 0.4208 -0.6650
9 4 -11 2.7336 1.0955
9 4 -9 1.5350 0.6282
9 4 -7 -6.9619 -0.4382
9 4 -5 -12.6255 0.0187
9 4 -3 -5.2991 -0.1558
9 4 -1 4.1316 -0.7470
9 4 1 2.0639 -0.0726
9 4 3 -2.9374 0.3581
9 4 5 -0.8529 -0.2066
9 4 7 0.3517 -0.1988
9 4 9 -5.7572 0.6000
9 4 11 -12.9456 0.9942
9 4 13 -12.9259 0.5113
9 4 15 -4.0107 -0.0106
9 4 17 3.1247 0.1744
9 4 19 -0.9061 0.1379
9 4 21 -5.1220 -0.6512
9 4 23 -0.3080 -0.4676
9 4 25 2.2292 0.8403
9 4 27 -1.7596 0.4638
9 4 29 -2.6540 -1.1258
9 4 31 -0.5717 -0.0480
9 4 33 -0.1147 2.3551
9 4 35 0.3266 1.9415
9 4 37 0.4650 1.4161
9 5 -38 1.9855 4.2767
9 5 -36 1.7951 0.9481
9 5 -34 3.8792 -0.0700
9 5 -32 -0.9147 0.5496
9 5 -30 -8.2213 -0.5365
9 5 -28 -5.2844 -1.5225
9 5 -26 2.3340 -0.4625
9 5 -24 4.0942 0.4902
9 5 -22 3.4773 0.2104
9 5 -20 3.3326 -0.1002
9 5 -18 1.9576 -0.0748
9 5 -16 1.4325 -0.1676
9 5 -14 -0.3473 -0.2730
9 5 -12 -5.6607 -0.0296
9 5 -10 -3.4615 0.2181
9 5 -8 13.6205 0.0569
9 5 -6 27.8211 -0.0136
9 5 -4 15.9851 0.2880
9 5 -2 -12.8324 0.4312
9 5 0 -24.0177 0.0518
9 5 2 -9.4912 -0.3972
9 5 4 3.0707 0.2349
9 5 6 2.4995 1.3214
9 5 8 3.9443 0.4478
9 5 10 9.9299 -1.0235
9 5 12 10.6347 0.0875
9 5 14 3.6758 1.2958
9 5 16 -5.4066 -0.1149
9 5 18 -4.0109 -0.7964
9 5 20 8.0017 0.4873
9 5 22 9.0391 0.2471
9 5 24 -2.5709 -1.1255
9 5 26 -4.6785 -0.5113
9 5 30 -0.3758 0.0760
9 5 32 -3.6598 -1.2908
9 5 34 -2.3699 -1.5793
9 5 36 -0.1939 -2.0432
9 6 -37 -9.2898 -0.1219
9 6 -35 -10.8470 0.3561
9 6 -33 -6.5110 0.2740
9 6 -31 2.5365 -0.0054
9 6 -29 7.8666 0.1763
9 6 -27 6.0250 -0.5605
9 6 -25 2.5016 -1.5219
9 6 -23 -2.2632 -0.8172
9 6 -21 -7.1102 0.2330
9 6 -19 -5.1552 -0.3610
9 6 -17 -0.5903 -0.7639
9 6 -15 0.1808 0.4554
9 6 -13 3.9018 0.3621
9 6 -11 6.3760 -1.4101
9 6 -9 -8.5263 -0.9933
9 6 -7 -29.7503 0.9998
9 6 -5 -29.2593 1.1667
9 6 -3 -9.6528 0.3256
9 6 -1 2.9765 0.0570
9 6 1 2.6963 0.1526
9 6 3 3.5839 0.6127
9 6 5 5.6321 0.8495
9 6 7 -0.8268 0.7058
9 6 9 -5.7572 0.7730
9 6 11 1.3148 0.1705
9 6 13 5.8541 -0.7664
9 6 15 1.0260 -0.2178
9 6 17 -0.8077 0.4057
9 6 19 -2.2375 -0.4672
9 6 21 -9.1685 -0.6397
9 6 23 -9.4554 0.4178
9 6 25 -2.5546 0.1062
9 6 27 -1.1310 -1.1190
9 6 29 -0.9765 -0.7168
9 6 31 4.5240 -0.1855
9 6 33 7.3805 -1.9150
9 6 35 4.1862 -3.1998
9 6 37 1.0359 -1.5078
9 7 -38 -1.4027 -5.6198
9 7 -36 -1.6651 -4.3147
9 7 -34 -3.9252 -0.5647
9 7 -32 -6.7670 -0.3823
9 7 -30 -6.0724 -1.7632
9 7 -28 -2.9621 -0.2573
9 7 -26 -4.1654 1.2069
9 7 -24 -6.4877 0.3798
9 7 -22 1.5231 -0.1201
9 7 -20 14.7384 0.2703
9 7 -18 16.9169 0.2779
9 7 -16 9.0725 0.0304
9 7 -14 2.3829 -0.0875
9 7 -12 -1.3847 0.2237
9 7 -10 -2.8945 0.6156
9 7 -8 -2.0407 0.0255
9 7 -6 -3.8243 -0.9020
9 7 -4 -7.5138 -0.7316
9 7 -2 -3.3582 -0.2126
9 7 0 7.8935 -0.4660
9 7 2 12.1580 -0.5125
9 7 4 5.6214 0.0414
9 7 6 1.1250 -0.3978
9 7 8 3.6380 -1.2816
9 7 10 1.7599 -0.2922
9 7 12 -5.6636 1.2903
9 7 14 -4.7428 1.1754
9 7 16 2.0656 0.6579
9 7 18 -0.7567 0.6608
9 7 20 -7.3227 0.1582
9 7 22 -2.0614 -0.4275
9 7 24 8.1823 -0.3738
9 7 26 9.2464 0.0249
9 7 28 3.3742 0.3612
9 7 30 -1.8927 -0.2570
9 7 32 -5.1202 -0.9528
9 7 34 -6.0309 0.7749
9 7 36 -4.0984 2.9110
9 8 -37 3.8712 4.2741
9 8 -35 2.4193 3.8861
9 8 -33 1.6893 1.8491
9 8 -31 1.5248 0.3594
9 8 -29 2.8148 -0.6517
9 8 -27 5.2811 -1.4597
9 8 -25 6.4156 -1.0342
9 8 -23 5.9628 0.2270
9 8 -21 3.2461 0.6292
9 8 -19 -2.4879 0.3927
9 8 -17 -5.8489 0.9404
9 8 -15 -2.9793 1.5885
9 8 -13 0.3549 0.7989
9 8 -11 0.6858 -0.4936
9 8 -9 3.9337 -0.4583
9 8 -7 11.8081 0.2677
9 8 -5 16.0471 -0.1483
9 8 -3 13.0547 -1.2281
9 8 -1 9.0284 -1.0973
9 8 1 4.2232 -0.4035
9 8 3 -7.4596 -0.9879
9 8 5 -17.8149 -1.6962
9 8 7 -12.6558 -0.8240
9 8 9 -0.4412 0.2145
9 8 11 1.5559 0.0143
9 8 13 -3.8001 -0.4183
9 8 15 -7.1094 -0.1284
9 8 17 -8.5057 0.4921
9 8 19 -7.5658 0.6879
9 8 21 -4.6984 0.5033
9 8 23 -5.2016 0.7590
9 8 25 -7.3982 1.3429
9 8 27 -5.4507 1.2591
9 8 29 -1.2706 0.3071
9 8 31 1.2868 -1.2279
9 8 33 2.1337 -2.5737
9 9 -36 -0.8351 7.4408
9 9 -34 -0.0314 5.7074
9 9 -32 3.0843 1.2345
9 9 -30 4.6883 -1.1404
9 9 -28 0.7645 -1.5546
9 9 -26 -0.7531 -0.8816
9 9 -24 0.2967 -0.0123
9 9 -22 -7.0053 0.0514
9 9 -20 -15.7669 0.1640
9 9 -18 -12.3443 0.4799
9 9 -16 -4.7811 0.1686
9 9 -14 -2.4421 0.0006
9 9 -12 1.1768 0.3315
9 9 -10 5.9594 0.4562
9 9 -8 3.0539 0.5711
9 9 -6 -2.9288 0.6152
9 9 -4 -1.6097 0.1369
9 9 -2 0.8760 -0.2202
9 9 0 -5.6022 -0.1527
9 9 2 -11.1609 -0.4338
9 9 4 -4.1287 -0.7455
9 9 6 2.2695 -0.1470
9 9 8 -3.3996 0.0815
9 9 10 -5.1012 -1.0920
9 9 12 6.0643 -1.2414
9 9 14 14.2609 0.1232
9 9 16 14.3726 0.0020
9 9 18 15.1913 -0.6351
9 9 20 13.1317 0.4357
9 9 22 5.4877 0.6659
9 9 24 4.0172 -0.1473
9 9 26 10.8724 0.8207
9 9 28 12.3105 1.3909
9 9 30 3.1927 -0.0038
9 9 32 -6.0024 0.2865
9 9 34 -6.2671 2.1106
9 10 -33 0.5191 -4.8811
9 10 -31 -2.8967 -1.7391
9 10 -29 -3.1399 -0.7059
9 10 -27 -2.3700 -0.0348
9 10 -25 -2.7286 0.2626
9 10 -23 0.0001 -0.1537
9 10 -21 4.7058 -0.4007
9 10 -19 3.8520 -0.2348
9 10 -17 -0.2987 -0.1027
9 10 -15 -1.6071 0.0563
9 10 -13 -2.8838 0.5928
9 10 -11 -4.6741 0.8749
9 10 -9 -1.4438 0.3608
9 10 -7 3.7581 0.1469
9 10 -5 1.9133 0.4273
9 10 -3 -4.9519 -0.0700
9 10 -1 -6.0567 -0.7745
9 10 1 -0.0655 -0.3872
9 10 3 4.0834 0.3417
9 10 5 4.8580 0.1961
9 10 7 7.9946 -0.4817
9 10 9 10.0293 -0.4761
9 10 11 3.9205 0.0111
9 10 13 -5.6463 -0.1782
9 10 15 -10.4706 -0.1721
9 10 17 -9.1014 0.7042
9 10 19 -2.4563 0.6816
9 10 21 4.5111 -0.0359
9 10 23 3.0431 0.2893
9 10 25 -4.8593 0.5739
9 10 27 -7.1312 0.1938
9 10 29 -1.2095 0.6692
9 10 31 4.4621 1.4355
9 10 33 5.1866 1.0008
9 11 -32 3.2545 0.6527
9 11 -30 -1.6806 1.7743
9 11 -28 -3.0617 0.7749
9 11 -26 -1.3640 -0.4441
9 11 -24 1.0216 -0.5193
9 11 -22 2.5358 -0.6195
9 11 -20 0.4715 -0.6684
9 11 -18 -3.2361 0.3739
9 11 -16 -2.3992 1.1617
9 11 -14 0.9861 0.3266
9 11 -12 0.0550 -0.4953
9 11 -10 -2.9289 -0.1801
9 11 -8 -3.6519 -0.2477
9 11 -6 -4.8453 -0.9086
9 11 -4 -5.7173 -0.6894
9 11 -2 -1.3005 -0.2177
9 11 0 5.6026 -0.6253
9 11 2 8.5007 -0.8209
9 11 4 6.8084 -0.3627
9 11 6 5.2562 -0.4050
9 11 8 8.0708 -0.6051
9 11 10 10.3382 0.1976
9 11 12 4.3582 1.2391
9 11 14 -2.4294 0.9844
9 11 16 0.2954 -0.3685
9 11 18 4.2382 -0.8954
9 11 20 0.9100 0.5978
9 11 22 -1.7065 2.1858
9 11 24 0.7371 1.2563
9 11 26 1.8126 -0.4741
9 11 28 0.3987 0.0902
9 11 30 -0.2651 0.5589
9 12 -31 8.8093 2.1939
9 12 -29 3.8113 2.8933
9 12 -27 -2.6400 -0.5377
9 12 -25 -1.5487 -2.8319
9 12 -23 0.4125 -0.8282
9 12 -21 -1.2977 1.9048
9 12 -19 0.9295 1.3172
9 12 -17 5.0006 -0.5515
9 12 -15 4.2127 -0.3072
9 12 -13 5.8330 0.6924
9 12 -11 11.3346 0.5491
9 12 -9 8.2706 0.0852
9 12 -7 -0.5607 -0.4885
9 12 -5 -0.4533 -1.2268
9 12 -3 4.3170 -1.1741
9 12 -1 0.0733 -0.6156
9 12 1 -9.5954 -0.3319
9 12 3 -11.6119 -0.1464
9 12 5 -4.8854 -0.0966
9 12 7 -0.7910 -0.2724
9 12 9 -4.2648 -0.6063
9 12 11 -6.2399 -0.8342
9 12 13 -3.9986 -0.1275
9 12 15 -6.5296 0.7908
9 12 17 -9.7991 0.2346
9 12 19 -2.7958 -0.7697
9 12 21 5.0953 -0.5169
9 12 23 2.2732 0.2540
9 12 25 -1.9637 0.4576
9 12 27 0.0067 0.5542
9 12 29 1.9114 1.9712
9 13 -30 -10.7846 6.6984
9 13 -28 -7.0918 4.3792
9 13 -26 -0.4157 0.5519
9 13 -24 1.7059 -0.9898
9 13 -22 3.2966 -0.0591
9 13 -20 5.8424 0.0880
9 13 -18 5.5598 -0.7414
9 13 -16 4.9701 -0.5213
9 13 -14 3.7949 0.7218
9 13 -12 -2.5113 1.2674
9 13 -10 -6.2112 0.3110
9 13 -8 0.8984 -0.4469
9 13 -6 6.8676 0.3215
9 13 -4 2.3496 0.8535
9 13 -2 1.4656 0.0584
9 13 0 10.9088 -0.6653
9 13 2 12.4268 -0.4777
9 13 4 -0.3384 0.1861
9 13 6 -8.0871 0.2261
9 13 8 -2.7675 -0.5716
9 13 10 1.6686 -0.5514
9 13 12 -0.8780 0.1997
9 13 14 -1.5120 -0.0323
9 13 16 2.2725 -0.5996
9 13 18 3.5811 -0.8099
9 13 20 2.1735 -1.2848
9 13 22 2.8777 -1.2971
9 13 24 2.8177 -0.5511
9 13 26 -1.4384 0.1979
9 13 28 -4.5040 1.0247
9 14 -27 -0.1640 -4.6801
9 14 -25 -0.9904 -2.3599
9 14 -23 -2.7745 -1.7941
9 14 -21 -6.9156 -1.6175
9 14 -19 -5.9365 -0.3475
9 14 -17 0.2846 0.5086
9 14 -15 1.1156 0.3101
9 14 -13 -3.3999 -0.0527
9 14 -11 -2.6013 -0.3488
9 14 -9 1.3757 -0.4698
9 14 -7 -1.1683 -0.1460
9 14 -5 -5.1413 0.4155
9 14 -3 -5.1558 0.8066
9 14 -1 -10.3597 0.6733
9 14 1 -17.0538 0.0188
9 14 3 -9.7999 -0.3776
9 14 5 0.4556 0.2771
9 14 7 -3.3339 1.1586
9 14 9 -6.1292 0.5541
9 14 11 4.2364 -0.9540
9 14 13 9.8516 -1.1351
9 14 15 1.8085 0.1199
9 14 17 -5.6621 1.1133
9 14 19 -5.7156 0.5246
9 14 21 -3.9543 -0.9765
9 14 23 -2.7197 0.1412
9 14 25 -1.2351 4.1578
9 15 -24 -3.2864 15.4541
9 15 -22 2.5341 7.6143
9 15 -20 5.8437 -2.3747
9 15 -18 3.4373 -4.3736
9 15 -16 -1.2451 -1.3513
9 15 -14 -3.0523 -0.0877
9 15 -12 -1.8149 -0.2949
9 15 -10 -2.9377 0.2721
9 15 -8 -4.6426 0.0695
9 15 -6 -0.3162 -1.0458
9 15 -4 4.4496 -0.4177
9 15 -2 3.0684 1.0759
9 15 0 1.7408 0.7555
9 15 2 2.2902 -0.1565
9 15 4 2.5317 0.0992
9 15 6 8.7812 0.6320
9 15 8 15.2988 0.7437
9 15 10 6.9923 0.5494
9 15 12 -4.8602 0.3098
9 15 14 -2.2010 0.7288
9 15 16 3.5082 1.4402
9 15 18 0.2169 0.8873
9 15 20 -1.1250 -1.5683
9 15 22 4.7214 -4.7003
9 16 -19 -8.9015 -0.0545
9 16 -17 -19.9822 -1.6889
9 16 -15 -12.5804 -1.5787
9 16 -13 4.2708 -0.1758
9 16 -11 6.8467 0.3809
9 16 -9 -0.0443 -0.0941
9 16 -7 -1.1212 0.2602
9 16 -5 -0.5597 0.8728
9 16 -3 -3.7139 0.4876
9 16 -1 -5.1053 0.6097
9 16 1 -3.3342 1.1664
9 16 3 -1.3711 0.6785
9 16 5 0.4514 0.5756
9 16 7 2.8138 1.1857
9 16 9 6.3638 0.1697
9 16 11 6.7988 -1.9526
9 16 13 -0.6144 -2.2028
9 16 15 -6.2078 0.1127
9 16 17 -1.0646 2.3356
9 16 19 3.6686 1.8012
9 17 -14 2.6346 1.5130
9 17 -12 -0.5047 0.6246
9 17 -10 -2.6233 -0.5823
9 17 -8 -3.1936 0.2321
9 17 -6 0.7090 0.7076
9 17 -4 5.0264 0.3613
9 17 -2 0.9903 1.0643
9 17 0 -6.9581 1.9440
9 17 2 -6.3555 1.6218
9 17 4 0.2814 0.7495
9 17 6 0.9293 0.1690
9 17 8 -4.7149 -0.6005
9 17 10 -7.9968 -2.3361
9 17 12 -5.3242 -3.4443
9 17 14 -1.3656 -1.9697
9 17 16 -1.6518 0.2425
9 18 -9 5.2044 -2.2446
9 18 -7 15.1985 -0.5254
9 18 -3 10.6746 2.8210
9 18 -1 1.4998 0.5087
9 18 1 1.8845 1.0036
9 18 3 5.8265 2.3626
9 18 5 2.9140 0.9099
9 18 7 -4.9110 0.1810
9 18 9 -9.9756 4.3037
10 0 -40 6.1474 12.6680
10 0 -38 1.3472 6.6835
10 0 -36 -3.1704 2.9557
10 0 -34 -1.8386 7.7270
10 0 -32 0.8209 11.2378
10 0 -30 0.4355 7.8723
10 0 -28 0.7261 5.1963
10 0 -26 0.2566 6.8371
10 0 -24 -3.5916 5.0011
10 0 -22 -1.7109 -2.8255
10 0 -20 5.7415 -6.9460
10 0 -18 4.4670 -4.6990
10 0 -16 -0.9254 -7.1090
10 0 -14 2.6910 -14.9324
10 0 -12 4.0774 -14.3581
10 0 -10 -5.5009 -6.8702
10 0 -8 -8.7964 -7.4638
10 0 -6 -0.1420 -10.4339
10 0 -4 -2.2860 -1.6152
10 0 -2 -24.6974 7.4223
10 0 0 -39.0463 4.3070
10 0 2 -22.6226 4.2666
10 0 4 -0.9226 14.4589
10 0 6 -1.9693 16.5611
10 0 8 -7.8212 8.2426
10 0 10 -4.5049 7.5325
10 0 12 -9.4778 11.7341
10 0 14 -19.2416 5.3898
10 0 16 -13.4462 -3.8931
10 0 18 3.3713 -3.0730
10 0 20 17.3840 -1.7228
10 0 22 19.2480 -8.8531
10 0 24 6.2692 -13.4896
10 0 26 -3.7534 -9.2015
10 0 28 -1.3066 -5.9122
10 0 30 -1.3301 -7.5706
10 0 32 -3.8809 -6.0955
10 0 34 -0.4724 -0.6322
10 0 36 -0.3241 -0.2523
10 0 38 -4.0373 -5.6874
10 1 -39 -2.7393 -0.3422
10 1 -37 -2.5661 -0.3444
10 1 -35 -2.4012 1.3389
10 1 -33 -1.2571 0.3844
10 1 -31 1.3455 -0.4497
10 1 -29 1.4333 2.0071
10 1 -27 -1.6937 1.5597
10 1 -25 -0.5424 -2.4350
10 1 -23 4.3236 -1.3163
10 1 -21 3.4295 2.6460
10 1 -19 -0.9127 -0.0571
10 1 -17 -2.0446 -4.1586
10 1 -15 -4.2501 -0.6406
10 1 -13 -6.4239 2.5878
10 1 -11 -1.3243 -1.5381
10 1 -9 1.6776 -3.1969
10 1 -7 -8.9379 1.3940
10 1 -5 -18.5423 1.6515
10 1 -3 -5.6094 -2.5287
10 1 -1 20.0691 -0.9178
10 1 1 25.0531 3.7211
10 1 3 3.6347 1.7860
10 1 5 -10.3107 -2.4337
10 1 7 -0.7278 0.3694
10 1 9 11.0657 4.7594
10 1 11 15.2016 1.4644
10 1 13 19.2123 -2.5023
10 1 15 17.9441 1.0133
10 1 17 8.1278 2.8940
10 1 19 0.6422 -1.9740
10 1 21 0.4483 -2.6590
10 1 23 3.2503 2.1272
10 1 25 3.5725 1.6488
10 1 27 -0.0092 -2.1861
10 1 29 -1.4175 -1.5288
10 1 31 -0.4042 -0.2108
10 1 33 -2.5951 -1.4822
10 1 35 -2.2988 -0.7268
10 1 37 3.1565 0.9092
10 1 39 3.4799 -0.9432
10 2 -40 1.4844 4.2283
10 2 -38 -0.2393 4.3044
10 2 -36 0.3412 -0.5713
10 2 -34 -0.2058 -3.3535
10 2 -32 -2.7955 -0.7533
10 2 -30 -3.6189 0.1807
10 2 -28 -0.0148 -1.7389
10 2 -26 4.6801 -0.8795
10 2 -24 3.9645 0.8031
10 2 -22 -1.7740 -0.8356
10 2 -20 -3.1014 -1.4292
10 2 -18 2.9978 1.3875
10 2 -16 5.3297 1.7455
10 2 -14 -2.6636 -0.6066
10 2 -12 -8.6779 0.3620
10 2 -10 0.1115 2.3531
10 2 -8 15.4928 0.5053
10 2 -6 21.1187 -0.9619
10 2 -4 17.4550 0.6155
10 2 -2 14.2897 0.7045
10 2 0 10.9341 -1.1299
10 2 2 6.0928 -1.1839
10 2 4 6.6406 0.1337
10 2 6 8.4417 -0.0187
10 2 8 -0.9031 -1.6996
10 2 10 -15.3214 -1.8633
10 2 12 -20.1640 0.3244
10 2 14 -16.1587 1.0614
10 2 16 -10.3260 -0.2384
10 2 18 -7.0732 0.4011
10 2 20 -9.5952 1.8677
10 2 22 -10.7511 0.5723
10 2 24 -2.9683 -0.8592
10 2 26 3.3888 0.0529
10 2 28 0.3886 0.4588
10 2 30 -1.6616 -0.0430
10 2 32 1.6618 1.0527
10 2 34 2.4465 2.1457
10 2 36 0.3689 1.7267
10 2 38 0.9692 2.8682
10 3 -39 4.7416 3.2931
10 3 -37 9.1916 2.1077
10 3 -35 8.1122 0.3213
10 3 -33 3.4855 0.5332
10 3 -31 -0.1203 1.0099
10 3 -29 0.5470 -0.5071
10 3 -27 2.4251 -0.8703
10 3 -25 -1.6256 0.5675
10 3 -23 -6.6180 0.0682
10 3 -21 -3.3657 -1.3202
10 3 -19 -0.2778 -0.8460
10 3 -17 -3.5823 -0.3302
10 3 -15 0.2717 -0.5967
10 3 -13 12.2602 -0.3155
10 3 -11 12.9227 -0.4209
10 3 -9 1.9862 -1.0997
10 3 -7 -0.4445 -0.6126
10 3 -5 5.5999 0.1595
10 3 -3 -1.3771 -0.2925
10 3 -1 -20.9978 -0.2479
10 3 1 -23.2633 1.0198
10 3 3 -1.7152 1.1962
10 3 5 11.1104 0.3628
10 3 7 3.8082 0.5923
10 3 9 0.0385 0.8389
10 3 11 5.5452 0.1004
10 3 13 5.8278 0.1347
10 3 15 -0.8053 0.5465
10 3 17 -5.9067 -0.2653
10 3 19 -1.7853 -0.9462
10 3 21 6.6186 -0.7376
10 3 23 1.4728 -0.6737
10 3 25 -11.5368 -0.5129
10 3 27 -9.7007 -0.4082
10 3 29 -1.4164 -0.8695
10 3 31 -3.0462 -0.7804
10 3 33 -4.3057 -0.7632
10 3 35 -1.0293 -2.8492
10 3 37 -2.2389 -5.5011
10 4 -38 -6.4165 -0.3255
10 4 -36 -4.4537 -0.3112
10 4 -34 -0.7266 0.3633
10 4 -32 -1.4189 -0.0636
10 4 -30 -2.3774 -0.6023
10 4 -28 0.0379 -0.4276
10 4 -26 3.7050 -0.3823
10 4 -24 5.5489 -0.4541
10 4 -22 2.3214 -0.1862
10 4 -20 -0.7999 0.2336
10 4 -18 4.3945 0.3619
10 4 -16 7.9058 0.2411
10 4 -14 -1.0121 0.4163
10 4 -12 -8.6619 0.4840
10 4 -10 -4.6856 0.1398
10 4 -8 -1.2573 0.4671
10 4 -6 -4.7493 1.0359
10 4 -4 -5.1522 0.4269
10 4 -2 2.7904 -0.5518
10 4 0 8.5775 -0.9141
10 4 2 0.2117 -0.6888
10 4 4 -12.5910 0.1111
10 4 6 -10.8963 0.2531
10 4 8 -0.4484 -0.7324
10 4 10 2.7655 -0.9147
10 4 12 0.7688 -0.1923
10 4 14 -0.4464 -0.2759
10 4 16 -0.6521 -0.6788
10 4 18 -0.7219 -0.3214
10 4 20 -4.9444 0.2386
10 4 22 -7.8325 0.4401
10 4 24 1.1333 0.4199
10 4 26 10.0070 0.2914
10 4 28 6.9652 0.2735
10 4 30 4.4000 0.7713
10 4 32 5.9468 1.0345
10 4 34 2.3764 -0.7067
10 4 36 -1.2412 -3.5170
10 5 -39 -1.3982 0.2058
10 5 -37 -5.2082 -0.6526
10 5 -35 -5.8190 -0.1783
10 5 -33 -2.7181 -1.0806
10 5 -31 0.4211 -2.3136
10 5 -29 0.1495 -1.2243
10 5 -27 -2.4137 -0.6147
10 5 -25 -3.1736 -1.7478
10 5 -23 0.9288 -0.5544
10 5 -21 5.9598 1.4553
10 5 -19 2.9129 0.2247
10 5 -17 -4.7704 -0.0487
10 5 -15 -3.0995 2.7988
10 5 -13 4.4665 3.0886
10 5 -11 2.5731 0.7911
10 5 -9 -5.3765 0.7574
10 5 -7 -8.0974 1.6962
10 5 -5 -9.4614 0.7929
10 5 -3 -13.1077 -0.4794
10 5 -1 -10.6591 -0.8098
10 5 1 0.2614 -0.9866
10 5 3 7.7959 -1.4919
10 5 5 3.5011 -1.8534
10 5 7 -3.0203 -1.7324
10 5 9 -0.5098 -1.6008
10 5 11 2.1297 -1.7985
10 5 13 -4.9842 -1.5106
10 5 15 -10.9188 0.0370
10 5 17 -8.0768 1.5165
10 5 19 -5.3048 1.2077
10 5 21 -4.4231 0.5418
10 5 23 -0.9359 1.1883
10 5 25 0.7584 1.6558
10 5 31 -2.5589 0.1797
10 5 33 -3.1962 -1.3698
10 5 35 -2.1032 2.0619
10 5 37 0.8322 6.7628
10 6 -38 0.4756 -1.8214
10 6 -36 0.6228 -1.1491
10 6 -34 0.0479 -0.4237
10 6 -32 -0.5396 -0.1351
10 6 -30 -3.5707 -0.2612
10 6 -28 -6.2598 -0.7054
10 6 -26 -4.8981 -0.6381
10 6 -24 -2.0498 -0.2868
10 6 -22 0.2793 -0.7059
10 6 -20 2.2289 -0.7583
10 6 -18 1.4819 0.7696
10 6 -16 -1.1913 1.7917
10 6 -14 -0.2304 0.7331
10 6 -12 3.4107 -0.0154
10 6 -10 1.1648 0.9368
10 6 -8 -6.5964 0.9922
10 6 -6 -6.7532 -0.2618
10 6 -4 4.3127 0.0829
10 6 -2 12.2663 1.0167
10 6 0 9.3302 -0.2459
10 6 2 3.7420 -1.4408
10 6 4 0.8166 -0.5937
10 6 6 0.4541 -0.2392
10 6 8 3.8077 -0.9129
10 6 10 6.0520 -0.5454
10 6 12 4.3906 0.1541
10 6 14 7.6619 -0.4113
10 6 16 15.4257 -1.0577
10 6 18 14.7415 -0.1932
10 6 20 5.9097 1.1002
10 6 22 -0.8426 0.9215
10 6 24 -2.0491 0.1731
10 6 26 2.6982 0.7264
10 6 28 9.4398 1.3426
10 6 30 10.0142 0.4817
10 6 32 5.3761 0.0867
10 6 34 1.7495 1.2320
10 6 36 -0.5542 1.0640
10 7 -37 1.2796 -1.1847
10 7 -35 0.1777 -0.8731
10 7 -33 1.2030 -2.2130
10 7 -31 5.4902 -1.9034
10 7 -29 5.9852 0.2889
10 7 -27 -0.6857 0.8090
10 7 -25 -3.9648 -0.2661
10 7 -23 -1.2165 -0.3803
10 7 -21 -3.5691 0.3001
10 7 -19 -8.3908 0.4546
10 7 -17 -5.5312 -0.0083
10 7 -15 -2.5052 -0.2550
10 7 -13 -5.8323 0.0244
10 7 -11 -3.8035 -0.0086
10 7 -9 7.2756 -0.0207
10 7 -7 11.8386 0.6726
10 7 -5 3.7582 0.3873
10 7 -3 -1.9189 -0.8967
10 7 -1 2.3566 -0.4068
10 7 1 4.0911 1.0465
10 7 3 1.5488 0.5579
10 7 5 7.5535 -0.6128
10 7 7 12.8645 -0.2312
10 7 9 1.6113 0.3747
10 7 11 -9.1745 -0.1519
10 7 13 -4.1374 -0.3788
10 7 15 0.6338 0.2507
10 7 17 -0.9119 0.0326
10 7 19 2.5227 -0.7401
10 7 21 6.3028 -0.2239
10 7 23 2.9268 0.4922
10 7 25 -1.9069 -0.1707
10 7 27 -5.6920 -0.8990
10 7 29 -7.6311 -0.5703
10 7 31 -3.4000 0.4778
10 7 33 3.0735 2.2619
10 7 35 4.4736 4.4979
10 8 -36 5.2881 2.3056
10 8 -34 5.4362 -0.3861
10 8 -32 1.4683 0.0228
10 8 -30 -2.6026 0.0639
10 8 -28 -0.0363 -0.7253
10 8 -26 7.3068 0.4188
10 8 -24 8.2100 1.2089
10 8 -22 2.2094 -0.2897
10 8 -20 -1.7530 -1.1580
10 8 -18 -2.1852 -0.1037
10 8 -16 -0.3732 0.7999
10 8 -14 3.6253 0.6718
10 8 -12 4.8624 0.4856
10 8 -10 1.9934 0.3900
10 8 -8 1.5714 -0.2395
10 8 -6 4.0699 -0.8650
10 8 -4 2.2315 -0.5662
10 8 -2 -4.9840 0.2975
10 8 0 -10.4143 0.3545
10 8 2 -11.9685 -0.9232
10 8 4 -15.8612 -1.4421
10 8 6 -19.2081 -0.0863
10 8 8 -9.2617 0.0899
10 8 10 8.4513 -1.4587
10 8 12 13.0331 -1.1185
10 8 14 3.8475 0.4681
10 8 16 -2.8858 0.5082
10 8 18 -1.6753 0.2477
10 8 20 3.9616 0.2925
10 8 22 8.5170 -0.2684
10 8 24 6.0634 -0.2027
10 8 26 1.4143 0.2841
10 8 28 1.9744 -0.3199
10 8 30 1.0063 -0.7306
10 8 32 -5.7772 -1.0677
10 8 34 -8.2363 -4.0245
10 9 -35 6.7403 -0.9124
10 9 -33 8.6518 0.6042
10 9 -31 6.7304 1.5394
10 9 -29 1.0231 1.3063
10 9 -27 -3.9831 0.5984
10 9 -25 -3.8650 -0.5028
10 9 -23 -0.9388 -1.4653
10 9 -21 -1.7851 -0.8183
10 9 -19 -6.1139 0.8163
10 9 -17 -7.5995 0.8378
10 9 -15 -5.1541 -0.1932
10 9 -13 -2.3436 0.1644
10 9 -11 -0.1942 0.7161
10 9 -9 1.1988 -0.2000
10 9 -7 1.0755 -0.6686
10 9 -5 0.9486 0.1523
10 9 -3 1.1788 0.0093
10 9 -1 -1.6106 -1.2419
10 9 1 -4.9112 -1.1656
10 9 3 0.5265 -0.0777
10 9 5 12.4983 -0.2897
10 9 7 16.0149 -0.9676
10 9 9 6.3621 -0.3430
10 9 11 -6.2379 0.2131
10 9 13 -12.4009 -0.3586
10 9 15 -8.4908 -0.7396
10 9 17 1.8426 -0.4519
10 9 19 5.7145 -0.0362
10 9 21 -2.3714 0.2607
10 9 23 -9.7616 0.2021
10 9 25 -6.9791 0.4135
10 9 27 -1.4446 1.5650
10 9 29 0.4009 2.4469
10 9 31 2.0279 2.0774
10 9 33 3.8934 1.5187
10 10 -32 -2.7298 -2.7387
10 10 -30 -6.4144 0.8634
10 10 -28 -8.0121 1.4834
10 10 -26 -5.6431 0.3189
10 10 -24 0.5694 0.5077
10 10 -22 3.5128 1.1090
10 10 -20 0.8916 -0.1571
10 10 -18 1.1236 -1.3833
10 10 -16 4.7727 -0.5721
10 10 -14 4.2509 0.3543
10 10 -12 1.5482 0.0696
10 10 -10 1.3441 -0.1479
10 10 -8 0.5370 -0.0437
10 10 -6 -1.4607 -0.1362
10 10 -4 -1.4966 0.1947
10 10 -2 -0.8111 0.5526
10 10 0 -0.1583 0.0406
10 10 2 2.2430 0.0104
10 10 4 4.0256 0.8654
10 10 6 1.5231 0.6679
10 10 8 -3.4958 -0.2113
10 10 10 -5.2755 -0.2059
10 10 12 -1.6418 0.0526
10 10 14 0.7089 0.2846
10 10 16 -2.7998 0.4907
10 10 18 -3.0748 -0.1565
10 10 20 5.3202 -0.3586
10 10 22 9.9989 0.5584
10 10 24 3.1952 0.0229
10 10 26 -4.3340 -1.1606
10 10 28 -3.9049 0.5314
10 10 30 -0.1566 3.0078
10 10 32 1.3453 2.3958
10 11 -33 -0.1215 3.1037
10 11 -31 0.0827 4.0922
10 11 -29 -0.6687 2.3694
10 11 -27 0.2955 0.6010
10 11 -25 -0.9920 0.0799
10 11 -23 -2.2612 0.1007
10 11 -21 4.4358 0.0238
10 11 -19 10.5041 -0.3717
10 11 -17 6.1372 -0.6538
10 11 -15 2.8326 -0.5327
10 11 -13 7.1858 -0.0532
10 11 -11 7.1384 0.6354
10 11 -9 0.4621 0.4356
10 11 -7 -2.6889 -0.7111
10 11 -5 -2.2840 -0.7705
10 11 -3 -2.3254 0.5225
10 11 -1 1.1053 1.2548
10 11 1 6.8336 0.8077
10 11 3 5.6788 0.1878
10 11 5 -0.8363 0.3015
10 11 7 -1.9849 0.7338
10 11 9 1.1093 0.7012
10 11 11 -0.6041 0.5495
10 11 13 -4.0584 0.3930
10 11 15 -1.6117 0.2904
10 11 17 0.9484 0.8603
10 11 19 -3.0660 0.8628
10 11 21 -5.1607 -0.2292
10 11 23 0.8698 -0.0646
10 11 25 5.0498 0.5113
10 11 27 1.4540 -0.9644
10 11 29 -1.2379 -1.8333
10 11 31 0.9949 -0.2369
10 12 -30 -2.7164 -0.7751
10 12 -28 -0.3368 0.6846
10 12 -26 3.5866 -0.4895
10 12 -24 4.1645 -1.3728
10 12 -22 -1.5285 -0.1797
10 12 -20 -6.0532 0.7953
10 12 -18 -3.1546 0.2155
10 12 -16 0.2677 -0.3595
10 12 -14 -2.4236 -0.0571
10 12 -12 -6.4385 -0.1465
10 12 -10 -6.0415 -0.7043
10 12 -8 -3.3209 -0.5198
10 12 -6 -2.9696 -0.2563
10 12 -4 -4.5256 -0.5243
10 12 -2 -5.3929 -0.3048
10 12 0 -7.1628 0.0147
10 12 2 -8.4743 -0.3618
10 12 4 -4.3436 -0.1962
10 12 6 -0.1707 0.8975
10 12 8 -2.1690 1.1739
10 12 10 -1.4194 0.1941
10 12 12 5.4541 -0.1763
10 12 14 5.9122 0.7064
10 12 16 -1.5944 1.0089
10 12 18 -5.2623 0.1573
10 12 20 -3.8781 -0.5013
10 12 22 -3.4084 -0.6110
10 12 24 -2.7499 0.1145
10 12 26 -0.2379 1.7373
10 12 28 0.9694 2.2628
10 13 -29 6.1818 -1.6217
10 13 -27 2.2323 1.6320
10 13 -25 -2.9225 5.0292
10 13 -23 -1.6680 3.1042
10 13 -21 0.4855 -0.7988
10 13 -19 -0.2024 -1.3782
10 13 -17 0.1200 -0.2427
10 13 -15 -1.2666 -0.3506
10 13 -13 -5.5544 -0.8740
10 13 -11 -3.6886 -0.8548
10 13 -9 4.9682 -0.7166
10 13 -7 11.5212 -0.5266
10 13 -5 13.5801 -0.2421
10 13 -3 9.7689 0.0793
10 13 -1 0.5067 0.5139
10 13 1 -3.5507 0.6948
10 13 3 -0.2636 0.2655
10 13 5 -0.0019 -0.1467
10 13 7 -1.9062 0.2773
10 13 9 -0.5250 0.8355
10 13 11 0.8161 -0.0246
10 13 13 3.6139 -1.4294
10 13 15 8.9313 -0.6334
10 13 17 7.2865 1.5001
10 13 19 -0.4816 0.8540
10 13 21 -2.8978 -2.3966
10 13 23 -1.7042 -3.1679
10 13 25 -3.6363 -0.2329
10 13 27 -5.0989 1.2447
10 14 -26 -0.2903 7.6142
10 14 -24 -1.4051 5.6826
10 14 -22 -0.6915 1.1346
10 14 -20 1.0976 -1.2861
10 14 -18 -3.0079 -0.5789
10 14 -16 -6.4277 0.5966
10 14 -14 0.5531 0.0532
10 14 -12 6.1267 -0.6983
10 14 -10 0.0782 -0.3798
10 14 -8 -4.5116 -0.1058
10 14 -6 -1.1517 0.1489
10 14 -4 -0.7607 0.7165
10 14 -2 -2.8495 0.8384
10 14 0 1.6275 0.8248
10 14 2 8.7591 0.8636
10 14 4 11.5215 0.5891
10 14 6 9.2415 0.7989
10 14 8 2.1741 1.2212
10 14 10 -4.6574 0.5592
10 14 12 -5.5206 -0.5156
10 14 14 -3.3794 -0.8291
10 14 16 -0.2339 -0.4934
10 14 18 5.0196 -0.4810
10 14 20 7.7420 -1.6196
10 14 22 6.7131 -2.8751
10 14 24 6.8194 -3.3027
10 15 -23 8.1793 -0.0733
10 15 -21 8.1082 0.1355
10 15 -19 -0.1547 -1.6051
10 15 -17 -4.4090 -2.6723
10 15 -15 -0.5905 -1.2580
10 15 -13 2.7208 0.5161
10 15 -11 1.2979 0.4477
10 15 -9 -1.6725 0.0812
10 15 -7 -4.0807 0.3887
10 15 -5 -5.1368 0.3384
10 15 -3 -4.7058 0.4753
10 15 -1 -6.3036 0.9306
10 15 1 -10.3128 0.6470
10 15 3 -9.5220 0.5227
10 15 5 -1.9271 1.1429
10 15 7 5.0508 1.2072
10 15 9 6.4261 0.5668
10 15 11 2.5586 0.1969
10 15 13 -3.4114 0.3708
10 15 15 -6.5424 0.2083
10 15 17 -6.3895 -0.7302
10 15 19 -6.0565 -0.8748
10 15 21 -5.3483 -0.7898
10 16 -18 -5.1118 1.3273
10 16 -16 -1.1658 0.1333
10 16 -14 -0.1497 0.2838
10 16 -12 -2.1363 0.3103
10 16 -10 -3.9120 -0.4423
10 16 -8 -0.4907 -0.6018
10 16 -6 7.2501 -0.1106
10 16 -4 9.9111 -0.2112
10 16 -2 5.2428 -0.4748
10 16 0 5.2447 0.2707
10 16 2 11.6668 0.9461
10 16 4 9.9084 0.2265
10 16 6 -0.3957 -0.4774
10 16 8 -5.7144 0.2604
10 16 10 -5.6573 0.9651
10 16 12 -4.7755 0.0056
10 16 14 0.7600 -1.0840
10 16 16 9.3251 0.1768
10 16 18 12.9354 3.3176
10 17 -15 0.6686 5.1755
10 17 -13 -4.4925 3.5135
10 17 -11 -0.4250 1.1795
10 17 -9 6.5573 -0.3551
10 17 -7 9.4185 -0.0540
10 17 -5 6.8965 0.5831
10 17 -3 2.4912 -0.1957
10 17 -1 -0.2732 -0.8259
10 17 1 -2.1262 -0.1704
10 17 3 -3.7725 -0.6081
10 17 5 -6.4282 -2.3397
10 17 7 -13.5069 -2.4229
10 17 9 -17.6541 -0.6295
10 17 11 -7.5823 0.9951
10 17 13 5.8021 1.0242
10 17 15 5.7801 -1.2321
10 18 -8 0.6288 2.3104
10 18 -4 -12.5314 0.8664
10 18 -2 -1.1458 1.1743
10 18 0 8.5753 -2.0011
10 18 2 9.3578 -4.2024
10 18 4 4.4334 -2.6955
10 18 6 -3.3330 -2.0860
10 18 8 -6.2266 -3.0936
10 18 10 -0.7055 -1.6355
11 1 -40 -0.8956 5.5290
11 1 -38 1.1075 3.5366
11 1 -36 3.3604 -0.6742
11 1 -34 0.9678 -1.4128
11 1 -32 -2.0033 0.7871
11 1 -30 -0.7148 0.5096
11 1 -28 3.6746 -0.8548
11 1 -26 5.6550 0.4641
11 1 -24 -0.2073 1.0917
11 1 -22 -8.7645 -0.8505
11 1 -20 -9.8328 -0.7930
11 1 -18 -7.8841 0.8094
11 1 -16 -10.1153 -0.0407
11 1 -14 -6.5845 -0.6910
11 1 -12 7.8649 0.5148
11 1 -10 18.0372 -0.2399
11 1 -8 15.1076 -1.7171
11 1 -6 9.0158 -0.2332
11 1 -4 5.2827 1.2209
11 1 -2 -5.9058 -0.1162
11 1 0 -25.1455 -1.1785
11 1 2 -28.5183 0.0291
11 1 4 -6.1426 1.2355
11 1 6 12.3888 0.5228
11 1 8 8.7465 -0.5640
11 1 10 1.2132 0.0464
11 1 12 -0.7868 1.0085
11 1 14 -1.8993 0.4272
11 1 16 2.3237 -0.1600
11 1 18 6.9449 0.4695
11 1 20 3.1006 0.2515
11 1 22 0.9390 -1.1009
11 1 24 3.6948 -0.5850
11 1 26 1.4905 1.2096
11 1 28 -1.1350 0.4816
11 1 30 1.7034 -1.3112
11 1 32 3.4385 -0.8374
11 1 34 1.6177 -1.1309
11 1 36 -1.4673 -4.2924
11 1 38 -3.1715 -5.6364
11 2 -39 2.0755 0.0848
11 2 -37 4.3743 2.3747
11 2 -35 5.4577 -0.3493
11 2 -33 5.0437 -2.4979
11 2 -31 2.8942 -2.1106
11 2 -29 1.5036 -2.3146
11 2 -27 -0.1959 -2.7457
11 2 -25 -1.9186 -2.3533
11 2 -23 0.8759 -2.7323
11 2 -21 3.8629 -2.9255
11 2 -19 1.8969 -0.6934
11 2 -17 3.2044 1.7599
11 2 -15 8.9611 2.1989
11 2 -13 6.7121 2.4960
11 2 -11 -1.6288 3.2869
11 2 -9 -1.3564 3.3817
11 2 -7 6.6217 3.4033
11 2 -5 7.8928 3.2088
11 2 -3 2.1154 2.0552
11 2 -1 6.9596 1.1832
11 2 1 21.8016 0.3047
11 2 3 18.3385 -1.4576
11 2 5 -5.2099 -2.1371
11 2 7 -15.8661 -2.1247
11 2 9 -7.7948 -3.6870
11 2 11 -0.6069 -4.3560
11 2 13 2.5551 -2.5586
11 2 15 0.3711 -1.8690
11 2 17 -9.8695 -2.3960
11 2 19 -15.3382 -0.7291
11 2 21 -13.1049 1.7066
11 2 23 -11.5830 1.8162
11 2 25 -5.8332 1.0387
11 2 27 2.6117 1.6270
11 2 29 2.7747 3.0346
11 2 31 -0.0417 3.7528
11 2 33 0.4784 2.6447
11 2 35 0.8125 0.3610
11 2 37 1.9597 -0.4015
11 3 -38 -4.5537 -2.5595
11 3 -36 -4.9203 -0.6894
11 3 -34 -3.6991 -0.1384
11 3 -32 -2.8656 -1.5168
11 3 -30 -4.1651 -1.5362
11 3 -28 -6.7582 -0.9204
11 3 -26 -5.8491 -1.9743
11 3 -24 -0.8981 -2.4470
11 3 -22 2.8285 -0.5481
11 3 -20 3.6183 0.1896
11 3 -18 2.7909 -1.1402
11 3 -16 0.0933 -0.2250
11 3 -14 -4.0526 2.3275
11 3 -12 -8.8642 2.3843
11 3 -10 -12.3172 1.5257
11 3 -8 -9.8913 2.0685
11 3 -6 -2.6240 2.1672
11 3 -4 1.7661 1.3625
11 3 -2 -1.1260 0.9052
11 3 0 -8.1740 0.5609
11 3 2 -9.3129 -0.1627
11 3 4 0.7374 -1.1259
11 3 6 8.8318 -1.6521
11 3 8 4.1813 -1.5740
11 3 10 -2.5766 -2.0472
11 3 12 -4.6738 -2.7802
11 3 14 -7.4026 -2.1857
11 3 16 -6.5269 -0.9571
11 3 18 1.0444 -0.4110
11 3 20 5.5637 0.0259
11 3 22 4.5257 0.7222
11 3 24 3.1257 0.8333
11 3 26 1.2549 0.3508
11 3 28 0.1567 0.7574
11 3 30 1.8588 2.2242
11 3 32 2.6809 2.9475
11 3 34 0.7208 3.4795
11 3 36 -1.6118 5.7802
11 4 -39 -0.0318 -2.3088
11 4 -37 -0.5263 -1.1566
11 4 -35 -2.0522 0.4151
11 4 -33 -1.0272 -0.5890
11 4 -31 2.2431 -1.1188
11 4 -29 2.9812 0.5744
11 4 -27 0.9896 0.6750
11 4 -25 -1.0239 -0.1879
11 4 -23 -2.9027 0.7261
11 4 -21 -3.6991 0.6331
11 4 -19 -2.4234 -0.7658
11 4 -17 -0.4300 0.2355
11 4 -15 3.9157 1.4572
11 4 -13 12.0152 -0.4487
11 4 -11 14.6974 -1.7624
11 4 -9 1.9042 -0.1503
11 4 -7 -17.2381 0.4818
11 4 -5 -21.6956 -0.6062
11 4 -3 -7.1015 -0.2302
11 4 -1 9.5221 0.5060
11 4 1 13.9566 -0.2872
11 4 3 7.0058 -0.3835
11 4 5 -2.6359 0.3554
11 4 7 -4.2566 0.2254
11 4 9 3.6704 0.6714
11 4 11 8.9863 1.2165
11 4 13 9.0189 -0.2892
11 4 15 12.9803 -1.1747
11 4 17 12.8887 0.0058
11 4 19 -1.2676 -0.0777
11 4 21 -11.3411 -1.2557
11 4 23 -4.0266 -0.8417
11 4 25 5.8018 0.3522
11 4 27 9.7901 0.8883
11 4 29 12.8833 0.4766
11 4 31 11.9741 -0.6694
11 4 33 5.5222 -0.6997
11 4 35 -0.1241 0.2130
11 4 37 -2.8081 -1.0816
11 5 -38 -1.1589 0.2685
11 5 -36 0.4191 -1.0110
11 5 -34 4.9934 -0.7951
11 5 -32 3.8477 0.1978
11 5 -30 -3.7943 0.3582
11 5 -28 -8.4432 0.5994
11 5 -26 -6.7020 0.7928
11 5 -24 -1.5326 0.0949
11 5 -22 1.4972 -0.5341
11 5 -20 -2.9553 -0.1875
11 5 -18 -9.2829 0.4673
11 5 -16 -9.6081 0.1997
11 5 -14 -9.5876 -0.5619
11 5 -12 -12.4464 0.0878
11 5 -10 -7.5594 1.3344
11 5 -8 6.9092 0.6734
11 5 -6 14.6272 -0.6745
11 5 -4 5.4292 -0.3827
11 5 -2 -7.7860 0.3333
11 5 0 -8.6407 -0.0852
11 5 2 -2.1841 -0.5528
11 5 4 1.2460 0.1023
11 5 6 5.7867 0.7694
11 5 8 8.7295 0.0118
11 5 10 -0.0970 -0.9168
11 5 12 -10.1908 -0.3761
11 5 14 -9.6051 0.2145
11 5 16 -5.4181 -0.4515
11 5 18 1.9098 -0.7707
11 5 20 12.8098 0.1489
11 5 22 11.9292 0.5606
11 5 24 -0.6181 -0.3619
11 5 26 -8.3043 -0.7495
11 5 30 -12.7773 0.1000
11 5 32 -9.3530 -0.4505
11 5 34 -3.1957 1.7215
11 5 36 1.5108 5.3269
11 6 -37 5.6225 0.4833
11 6 -35 1.1045 -1.5389
11 6 -33 -0.4465 -3.0055
11 6 -31 3.0083 -0.5731
11 6 -29 2.0662 1.0374
11 6 -27 -1.4249 0.2073
11 6 -25 0.7978 -0.3952
11 6 -23 3.1733 -0.6985
11 6 -21 0.4517 -0.4709
11 6 -19 -1.3959 0.4719
11 6 -17 -0.2839 0.3091
11 6 -15 1.4280 -0.2071
11 6 -13 3.6833 0.5877
11 6 -11 3.4213 0.9788
11 6 -9 -1.4914 0.1253
11 6 -7 -5.2824 -0.2179
11 6 -5 -2.4789 0.1497
11 6 -3 2.1407 0.2027
11 6 -1 -2.1013 0.2119
11 6 1 -12.3108 0.2216
11 6 3 -11.1263 -0.5815
11 6 5 -0.2833 -1.1030
11 6 7 0.4503 -0.0417
11 6 9 -4.6561 0.4298
11 6 11 0.0386 -0.8732
11 6 13 5.3313 -1.2704
11 6 15 2.9891 -0.1831
11 6 17 3.3332 0.4199
11 6 19 6.6339 0.5189
11 6 21 5.2715 0.6592
11 6 23 1.4894 0.7119
11 6 25 -2.6799 0.4925
11 6 27 -6.4225 -0.3599
11 6 29 -5.2800 -0.2205
11 6 31 -0.8801 1.7129
11 6 33 1.4882 0.9801
11 6 35 1.0347 -3.5874
11 7 -36 -0.3400 -1.9024
11 7 -34 1.2234 0.7197
11 7 -32 2.3113 2.0484
11 7 -30 2.8228 0.6755
11 7 -28 3.2649 0.2908
11 7 -26 3.4532 1.1436
11 7 -24 2.9889 0.2441
11 7 -22 2.4463 -1.1317
11 7 -20 3.3509 0.0702
11 7 -18 6.4250 1.5509
11 7 -16 7.9193 0.0973
11 7 -14 3.5858 -1.4810
11 7 -12 -1.9566 -0.6736
11 7 -10 -1.8465 -0.2490
11 7 -8 0.1898 -1.1268
11 7 -6 -1.6715 -1.0649
11 7 -4 -3.0176 -0.2068
11 7 -2 1.8106 0.2438
11 7 0 8.6849 0.1606
11 7 2 10.3626 -0.3209
11 7 4 7.2950 -0.2354
11 7 6 4.9740 0.5328
11 7 8 3.7462 0.6654
11 7 10 0.7399 0.6857
11 7 12 -0.8679 1.4320
11 7 14 2.5865 1.2850
11 7 16 6.7986 -0.0965
11 7 18 7.6602 -0.4128
11 7 20 6.0956 0.3945
11 7 22 2.2840 0.0516
11 7 24 -0.9827 -0.6764
11 7 26 1.6965 0.4272
11 7 28 6.1322 1.4277
11 7 30 4.1668 0.3669
11 7 32 -0.4847 -0.0801
11 7 34 -0.8377 0.9202
11 8 -35 3.2273 -0.8956
11 8 -33 -0.7746 -1.2526
11 8 -31 -3.9796 0.4299
11 8 -29 2.3798 1.9931
11 8 -27 10.7264 2.0862
11 8 -25 9.7027 1.2637
11 8 -23 2.3654 1.0706
11 8 -21 -5.0417 0.9785
11 8 -19 -9.3637 -0.3008
11 8 -17 -5.9046 -1.2926
11 8 -15 2.3189 -0.6915
11 8 -13 5.5256 -0.1220
11 8 -11 4.5539 -0.5789
11 8 -9 7.3230 -1.0250
11 8 -7 12.3414 -0.9798
11 8 -5 11.2240 -0.8373
11 8 -3 1.9343 -0.6338
11 8 -1 -7.4547 -0.1072
11 8 1 -9.5698 0.5895
11 8 3 -8.1168 0.8418
11 8 5 -7.9769 0.6147
11 8 7 -5.2094 0.6888
11 8 9 1.4488 1.0502
11 8 11 5.6024 0.6949
11 8 13 3.1779 0.0754
11 8 15 -6.0833 0.7568
11 8 17 -17.1613 1.6064
11 8 19 -18.6217 0.4955
11 8 21 -9.2311 -0.8235
11 8 23 -2.6489 -0.6426
11 8 25 -4.8896 -1.1842
11 8 27 -7.5699 -2.1999
11 8 29 -5.0949 -0.8330
11 8 31 -1.2288 0.2092
11 8 33 -0.3345 -2.8073
11 9 -34 -0.3760 -0.3836
11 9 -32 1.6315 0.4594
11 9 -30 -1.7487 0.5179
11 9 -28 -8.5906 0.1051
11 9 -26 -11.0004 0.4170
11 9 -24 -8.6455 0.8455
11 9 -22 -3.8339 0.1962
11 9 -20 4.1695 -0.5934
11 9 -18 7.4404 -0.4574
11 9 -16 0.6873 -0.0670
11 9 -14 -2.9228 -0.0724
11 9 -12 3.1272 -0.0276
11 9 -10 5.2492 0.0172
11 9 -8 -0.5533 -0.6135
11 9 -6 -1.4165 -0.8587
11 9 -4 4.4936 0.2404
11 9 -2 4.9713 0.6725
11 9 0 -0.8407 -0.2765
11 9 2 -0.8579 -0.5481
11 9 4 3.4953 -0.1682
11 9 6 -2.2002 -0.0102
11 9 8 -14.4943 0.4648
11 9 10 -16.7607 0.4944
11 9 12 -10.0810 -0.2831
11 9 14 -2.9313 -0.3652
11 9 16 6.5421 -0.0390
11 9 18 12.3149 -0.2034
11 9 20 5.2118 0.0330
11 9 22 -1.6329 0.5836
11 9 24 4.4686 0.3524
11 9 26 10.7296 -0.2424
11 9 28 7.2408 -0.1793
11 9 30 3.1056 0.7492
11 9 32 3.1061 2.2584
11 10 -33 -5.0598 1.8858
11 10 -31 -2.6358 1.2851
11 10 -29 2.2338 1.3984
11 10 -27 3.0119 0.5492
11 10 -25 -1.9217 -0.8487
11 10 -23 -3.7691 -0.1850
11 10 -21 0.3648 1.0580
11 10 -19 2.7752 0.3974
11 10 -17 0.9797 -0.9111
11 10 -15 -1.2275 -1.3483
11 10 -13 -4.3110 -0.9812
11 10 -11 -9.1975 -0.1775
11 10 -9 -10.8666 0.2064
11 10 -7 -7.8034 -0.2163
11 10 -5 -7.0019 -0.4174
11 10 -3 -7.8057 0.1518
11 10 -1 -0.4635 0.3377
11 10 1 10.0374 -0.2846
11 10 3 10.3548 -0.3690
11 10 5 5.9815 0.0110
11 10 7 5.6948 -0.0730
11 10 9 2.5649 0.3989
11 10 11 -2.4588 0.9446
11 10 13 1.0639 -0.2791
11 10 15 5.4963 -1.1348
11 10 17 -0.0117 0.1043
11 10 19 -4.7886 0.6023
11 10 21 0.0947 -0.2723
11 10 23 4.6620 -0.1930
11 10 25 2.1370 0.3996
11 10 27 -1.3090 0.1715
11 10 29 -0.6711 -0.0588
11 10 31 2.4330 0.4628
11 11 -32 -0.9298 -0.7216
11 11 -30 -0.4059 0.5894
11 11 -28 1.5241 1.8082
11 11 -26 3.6843 1.7281
11 11 -24 3.6811 0.9335
11 11 -22 0.6307 0.5316
11 11 -20 -4.3417 0.5010
11 11 -18 -5.8961 -0.0807
11 11 -16 -1.1830 -0.7753
11 11 -14 2.0982 -0.5927
11 11 -12 -0.4844 -0.1679
11 11 -10 -0.9902 -0.0448
11 11 -8 2.2897 0.0588
11 11 -6 1.7218 -0.4193
11 11 -4 -1.2028 -1.1600
11 11 -2 -0.4344 -0.3889
11 11 0 2.0032 1.0583
11 11 2 1.4627 0.8510
11 11 4 -4.4782 0.2342
11 11 6 -11.0115 1.0083
11 11 8 -6.3665 1.3553
11 11 10 6.6041 0.3787
11 11 12 10.6614 -0.0776
11 11 14 4.8582 0.0916
11 11 16 0.6830 0.0430
11 11 18 -2.1297 0.2105
11 11 20 -6.2813 0.0936
11 11 22 -7.3544 -0.5448
11 11 24 -5.0670 -0.0294
11 11 26 -2.3859 1.3085
11 11 28 -0.1531 1.1751
11 11 30 -0.5946 -0.0542
11 12 -29 6.3290 -0.3421
11 12 -27 3.0780 2.4279
11 12 -25 0.9942 2.6948
11 12 -23 1.5841 0.1618
11 12 -21 3.8876 -0.8952
11 12 -19 8.7108 0.2793
11 12 -17 8.8021 0.9205
11 12 -15 1.3112 0.4586
11 12 -13 -1.8927 -0.1740
11 12 -11 2.4907 -0.6102
11 12 -9 4.3466 -0.3610
11 12 -7 4.5672 0.4146
11 12 -5 9.9047 0.4683
11 12 -3 12.3748 -0.2765
11 12 -1 3.4646 -0.0984
11 12 1 -6.3585 1.0385
11 12 3 -2.7473 0.8477
11 12 5 8.6621 -0.2581
11 12 7 9.4321 0.1199
11 12 9 -0.7302 0.8096
11 12 11 -2.6051 0.2251
11 12 13 5.7569 -0.0088
11 12 15 6.7447 0.4747
11 12 17 0.6939 0.5163
11 12 19 1.3092 0.2592
11 12 21 5.1036 -0.1979
11 12 23 3.6259 -0.3738
11 12 25 0.8624 -0.2457
11 12 27 -0.5788 -1.9695
11 12 29 -2.9175 -4.2571
11 13 -28 3.8488 -3.2744
11 13 -26 1.4243 -3.9826
11 13 -24 -1.3443 -2.3773
11 13 -22 -0.3433 -0.5903
11 13 -20 -1.7132 -0.2340
11 13 -18 -4.8530 0.3950
11 13 -16 -1.4248 1.4094
11 13 -14 2.9647 1.3544
11 13 -12 -1.3864 0.5073
11 13 -10 -5.1960 -0.4087
11 13 -8 2.1027 -0.8798
11 13 -6 8.0732 -0.3839
11 13 -4 0.2543 0.4127
11 13 -2 -7.5917 0.3184
11 13 0 -1.9939 -0.6301
11 13 2 4.1067 -0.9700
11 13 4 -0.7937 -0.1528
11 13 6 -4.8671 0.2251
11 13 8 -0.1048 -0.0956
11 13 10 1.6100 0.1001
11 13 12 -5.1164 -0.0667
11 13 14 -6.6436 -1.0586
11 13 16 2.2325 -1.3307
11 13 18 6.4250 -0.5128
11 13 20 -0.4890 0.8385
11 13 22 -5.4764 0.8034
11 13 24 -2.6746 -2.5161
11 14 -25 1.7628 1.8860
11 14 -23 3.1047 1.4364
11 14 -21 2.5431 0.6136
11 14 -19 -0.6577 -0.2060
11 14 -17 -3.5389 -0.3652
11 14 -15 -1.5603 0.1689
11 14 -13 2.8805 0.2611
11 14 -11 3.6681 -0.0885
11 14 -9 -1.5768 0.1470
11 14 -7 -9.1517 0.5896
11 14 -5 -9.3790 0.3357
11 14 -3 -0.6349 -0.2752
11 14 -1 5.0160 -0.3603
11 14 1 5.7749 -0.0474
11 14 3 10.4385 -0.4460
11 14 5 12.5639 -1.3162
11 14 7 4.5642 -1.0523
11 14 9 -2.0293 0.1202
11 14 11 -0.5869 0.5104
11 14 13 0.0058 -0.2555
11 14 15 -2.9309 -1.2315
11 14 17 -3.8241 -1.4178
11 14 19 -1.7396 -1.2667
11 14 21 -0.0524 -2.3681
11 14 23 -0.4589 -4.1794
11 15 -22 -5.9736 2.7638
11 15 -20 -2.2713 5.0970
11 15 -18 4.8364 1.1872
11 15 -16 3.6178 -1.3556
11 15 -14 -1.2677 -0.4366
11 15 -12 -1.3977 0.3410
11 15 -10 -2.7349 0.3673
11 15 -8 -5.6743 0.7087
11 15 -6 -2.2257 0.8822
11 15 -4 2.4287 0.8110
11 15 -2 1.5309 0.7287
11 15 0 -1.9522 0.3970
11 15 2 -10.3649 0.0694
11 15 4 -20.9235 -0.0307
11 15 6 -18.7216 -0.2450
11 15 8 -7.1409 -0.7091
11 15 10 -2.3630 -0.8110
11 15 12 -1.1995 -0.1674
11 15 14 2.5067 -0.5068
11 15 16 2.1272 -2.7857
11 15 18 -0.9297 -2.8021
11 15 20 -0.0806 2.8634
11 15 22 1.0997 9.4203
11 16 -19 -2.2212 0.7753
11 16 -17 -3.8703 0.3620
11 16 -15 -6.1018 -1.9688
11 16 -13 -8.1517 0.2983
11 16 -11 -3.4430 3.0474
11 16 -9 5.4082 1.0727
11 16 -7 5.3927 -0.7911
11 16 -5 -0.7233 0.5642
11 16 -3 1.7925 1.2150
11 16 -1 9.6742 -0.0502
11 16 1 11.4511 -0.6718
11 16 3 9.2060 0.0572
11 16 5 3.8529 0.2617
11 16 7 -6.3241 -1.0504
11 16 9 -9.3423 -1.5504
11 16 11 -0.6620 0.0763
11 16 13 4.4612 1.6169
11 16 15 2.2668 2.5535
11 16 17 2.3270 3.7336
11 17 -14 3.4024 0.2108
11 17 -12 3.7613 -2.2410
11 17 -10 8.2204 -0.4382
11 17 -8 7.3034 1.4505
11 17 -6 3.1688 0.4829
11 17 -4 4.8211 -0.1582
11 17 -2 7.7262 0.3832
11 17 0 3.8116 0.1156
11 17 2 -2.6457 -0.6471
11 17 4 -5.7158 -1.1554
11 17 6 -5.2159 -1.2118
11 17 8 -2.2333 -0.3538
11 17 12 -0.3225 1.1850
11 17 14 -0.2885 1.0659
11 18 -7 -26.6541 0.6992
11 18 -3 -12.3993 0.7525
11 18 -1 -6.1400 -0.4807
11 18 1 -6.3065 -0.4751
11 18 3 -7.8862 0.7231
11 18 5 -1.3379 0.6815
11 18 7 9.6824 -0.7623
11 18 9 10.8592 -1.1469
12 0 -40 -2.6353 0.4305
12 0 -38 0.5564 5.8285
12 0 -36 2.9732 2.9161
12 0 -34 3.5902 0.8956
12 0 -32 1.7392 2.1261
12 0 -30 0.6288 -3.2741
12 0 -28 3.5417 -10.5314
12 0 -26 3.3206 -8.2020
12 0 -24 -3.0864 -5.3843
12 0 -22 -6.3780 -11.3805
12 0 -20 -8.9820 -13.3887
12 0 -18 -17.6658 -5.2377
12 0 -16 -17.3498 -1.2908
12 0 -14 -1.1827 -4.0642
12 0 -12 8.5249 0.3531
12 0 -10 5.2541 9.9718
12 0 -8 8.7460 10.8029
12 0 -6 17.4466 7.1547
12 0 -4 7.2731 11.2073
12 0 -2 -18.5014 15.9170
12 0 0 -24.3673 10.2629
12 0 2 -1.2759 3.0914
12 0 4 14.2952 4.2666
12 0 6 6.3055 3.8178
12 0 8 1.6316 -5.5693
12 0 10 7.8821 -11.1244
12 0 12 8.8850 -7.1668
12 0 14 7.8627 -7.5478
12 0 16 9.6800 -14.1422
12 0 18 8.3278 -12.3466
12 0 20 6.7230 -4.3817
12 0 22 3.0299 -3.9616
12 0 24 -5.2827 -5.6370
12 0 26 -3.5498 0.9644
12 0 28 6.3205 7.2406
12 0 30 5.6929 5.3871
12 0 32 0.8833 4.3275
12 0 34 1.7586 9.0227
12 0 36 0.0664 10.9449
12 1 -39 4.4217 1.6428
12 1 -37 5.4907 3.4408
12 1 -35 3.3315 0.9086
12 1 -33 -0.2295 -3.3709
12 1 -31 -0.7691 -3.0869
12 1 -29 -0.8306 0.5654
12 1 -27 -2.6264 0.9363
12 1 -25 -0.7184 -2.2200
12 1 -23 4.3845 -2.0341
12 1 -21 6.3112 1.8053
12 1 -19 6.9999 0.8841
12 1 -17 7.4855 -3.6278
12 1 -15 2.1070 -1.3390
12 1 -13 -4.6683 3.6083
12 1 -11 -3.4653 0.2982
12 1 -9 0.6925 -3.4715
12 1 -7 -0.9342 1.4754
12 1 -5 -3.9298 4.4908
12 1 -3 -0.8026 -0.4580
12 1 -1 2.2231 -1.8582
12 1 1 -6.1643 2.7338
12 1 3 -17.9845 2.3368
12 1 5 -16.5682 -2.1830
12 1 7 -8.9098 -0.8232
12 1 9 -8.7868 2.7644
12 1 11 -8.9536 -0.0931
12 1 13 -5.0366 -3.5679
12 1 15 -5.4587 -0.7947
12 1 17 -7.9764 1.5268
12 1 19 -6.4465 -0.9738
12 1 21 -1.6188 -1.7777
12 1 23 5.9501 1.0711
12 1 25 8.8580 1.1923
12 1 27 2.0602 -2.0824
12 1 29 -1.3474 -1.9538
12 1 31 3.0686 1.8859
12 1 33 2.8100 2.4384
12 1 35 -0.8056 0.5893
12 1 37 0.5288 2.9442
12 2 -38 -8.5970 -1.4331
12 2 -36 -10.0557 0.7842
12 2 -34 -3.9565 -0.3276
12 2 -32 3.1373 -1.3566
12 2 -30 3.0771 0.0139
12 2 -28 -1.4594 0.7919
12 2 -26 -2.8621 0.3984
12 2 -24 -2.5684 1.0294
12 2 -22 -5.5725 0.4901
12 2 -20 -6.9086 -1.4221
12 2 -18 -0.7707 0.2247
12 2 -16 5.8117 2.5822
12 2 -14 4.5806 -0.1869
12 2 -12 -0.5935 -2.1474
12 2 -10 -3.6888 0.9837
12 2 -8 -6.1593 1.3577
12 2 -6 -8.1324 -2.3838
12 2 -4 -3.0282 -1.9459
12 2 -2 10.7901 1.4146
12 2 0 23.3038 0.0783
12 2 2 25.3519 -2.7188
12 2 4 18.8594 -0.4815
12 2 6 10.6085 1.9576
12 2 8 5.1928 -0.2206
12 2 10 3.4583 -1.0226
12 2 12 2.8909 1.8556
12 2 14 3.4526 2.0858
12 2 16 5.9211 -0.2714
12 2 18 2.6242 -0.1756
12 2 20 -9.3801 0.8241
12 2 22 -14.7559 -0.1100
12 2 24 -5.6275 -0.7135
12 2 26 2.9491 0.6629
12 2 28 1.5826 1.5928
12 2 30 -1.7776 -0.0110
12 2 32 -2.0370 -2.0357
12 2 34 -1.5230 -1.8067
12 2 36 -1.4596 -0.7403
12 3 -39 2.2440 -0.9318
12 3 -37 1.7271 -0.3496
12 3 -35 -0.1685 1.7545
12 3 -33 -1.1686 1.7449
12 3 -31 -3.0411 0.0404
12 3 -29 -5.1470 -0.3879
12 3 -27 -6.3112 -0.7010
12 3 -25 -7.6054 -1.7284
12 3 -23 -4.0844 -1.1420
12 3 -21 5.1774 0.1710
12 3 -19 7.3242 -0.3349
12 3 -17 0.6540 -0.8325
12 3 -15 0.2624 -0.1350
12 3 -13 5.5299 -0.1311
12 3 -11 1.9737 0.0624
12 3 -9 -6.6654 1.2501
12 3 -7 -4.9640 1.0283
12 3 -5 3.9022 0.0282
12 3 -3 2.7465 0.4670
12 3 -1 -6.8905 0.9131
12 3 1 -5.7941 0.5272
12 3 3 4.0341 0.1968
12 3 5 3.5256 -0.3063
12 3 7 -2.7496 -0.3029
12 3 9 -1.0820 0.2414
12 3 11 1.5667 -0.7228
12 3 13 -0.6069 -2.0106
12 3 15 -2.6994 -1.1627
12 3 17 -1.4703 -0.1059
12 3 19 9.0519 -0.1504
12 3 21 20.3561 0.3672
12 3 23 9.0308 0.3717
12 3 25 -12.6871 -1.1359
12 3 27 -12.4923 -0.7848
12 3 29 0.5208 1.5008
12 3 31 3.8071 1.1551
12 3 33 2.5273 -0.3401
12 3 35 2.5083 1.6109
12 3 37 0.5328 3.5926
12 4 -38 3.3757 -0.9640
12 4 -36 2.2924 0.4274
12 4 -34 1.5643 0.9288
12 4 -32 1.8001 0.2101
12 4 -30 2.4317 -0.3461
12 4 -28 2.1272 0.1642
12 4 -26 4.3185 1.1774
12 4 -24 6.7450 1.0399
12 4 -22 -0.5183 -0.1416
12 4 -20 -11.2268 0.0223
12 4 -18 -10.3890 0.8210
12 4 -16 -4.5684 -0.1158
12 4 -14 -5.2308 -0.8466
12 4 -12 -4.9374 0.1255
12 4 -10 0.5101 0.1599
12 4 -8 0.5736 -1.0982
12 4 -6 -6.8151 -1.1684
12 4 -4 -9.6618 -0.3307
12 4 -2 -4.6545 -0.5109
12 4 0 -5.8326 -1.1649
12 4 2 -16.1850 -0.6183
12 4 4 -14.0939 0.3390
12 4 6 4.1292 0.2240
12 4 8 11.7628 0.1163
12 4 10 4.1096 0.6196
12 4 12 0.7424 0.3392
12 4 14 2.6783 -0.1461
12 4 16 2.8467 0.4693
12 4 18 1.0658 0.8172
12 4 20 -6.2101 0.0403
12 4 22 -11.0144 -0.1939
12 4 24 -2.5094 0.8095
12 4 26 3.7906 1.2204
12 4 30 -6.3207 -0.9215
12 4 32 -2.9683 -0.3820
12 4 34 -2.4787 -1.1235
12 4 36 -2.8227 -3.8875
12 5 -37 -0.2375 -1.5372
12 5 -35 1.0939 -1.6564
12 5 -33 1.8963 0.2388
12 5 -31 2.6297 1.5902
12 5 -29 3.1351 1.4111
12 5 -27 3.2550 1.7927
12 5 -25 3.1160 1.8110
12 5 -23 4.5479 1.1211
12 5 -21 7.0970 1.7483
12 5 -19 6.5088 2.2125
12 5 -17 3.1662 0.4037
12 5 -15 0.2937 -1.0123
12 5 -13 -3.7456 -0.3056
12 5 -11 -6.6396 -0.3634
12 5 -9 -1.4831 -1.7230
12 5 -7 6.1248 -1.6694
12 5 -5 4.6357 -1.2228
12 5 -3 -2.0745 -1.9472
12 5 -1 -2.3760 -1.4077
12 5 1 3.7985 -0.2225
12 5 3 7.0648 -1.1229
12 5 5 2.7354 -1.2474
12 5 7 -3.9406 1.0274
12 5 9 -7.6361 1.9536
12 5 11 -9.5790 1.3338
12 5 13 -9.0615 1.5588
12 5 15 -4.0008 1.6829
12 5 17 0.6135 1.1232
12 5 19 2.4485 0.7461
12 5 21 6.1698 0.1919
12 5 23 9.4330 -0.4187
12 5 25 7.0443 -0.4232
12 5 27 2.6692 -0.1943
12 5 29 -0.4657 0.1314
12 5 31 -2.9549 0.6544
12 5 33 -2.1496 0.8870
12 5 35 1.4001 1.3758
12 6 -36 -2.1423 0.4186
12 6 -34 -2.5364 -1.3363
12 6 -32 -3.7784 -0.5488
12 6 -30 -4.6787 0.2967
12 6 -28 -0.3199 0.1459
12 6 -26 5.3469 0.6798
12 6 -24 4.1100 0.8983
12 6 -22 -0.3207 0.2405
12 6 -20 0.6082 0.5872
12 6 -18 5.2811 1.0102
12 6 -16 7.1410 -0.1423
12 6 -14 5.5219 -0.9575
12 6 -12 4.1173 -0.2287
12 6 -10 4.4085 0.3582
12 6 -8 6.2256 -0.0868
12 6 -6 10.5827 -0.6107
12 6 -4 13.5110 -0.4302
12 6 -2 7.0113 -0.1282
12 6 0 -4.0694 -0.4628
12 6 2 -6.8272 -0.6562
12 6 4 -4.4173 0.1619
12 6 6 -5.8571 0.8237
12 6 8 -4.3387 0.1190
12 6 10 4.9879 -0.4533
12 6 12 10.2626 0.4270
12 6 14 4.5379 0.6291
12 6 16 -2.1158 -0.5488
12 6 18 0.8075 0.0472
12 6 20 7.9268 1.9615
12 6 22 5.8443 1.5806
12 6 24 -2.6216 0.2497
12 6 26 -2.5400 0.1043
12 6 28 3.8772 -0.8042
12 6 30 3.8548 -2.1133
12 6 32 -0.3713 -2.1390
12 6 34 -1.0502 -3.3542
12 7 -37 -1.8828 0.3713
12 7 -35 -4.0584 1.7537
12 7 -33 -3.9525 0.8144
12 7 -31 5.4407 -1.0629
12 7 -29 14.0803 -0.2297
12 7 -27 7.8012 0.5724
12 7 -25 -4.4312 -0.3472
12 7 -23 -8.2489 -0.4060
12 7 -21 -4.8873 0.1592
12 7 -19 0.1791 -0.4846
12 7 -17 3.3714 -1.0955
12 7 -15 3.2148 -0.2592
12 7 -13 4.4164 0.5838
12 7 -11 7.2998 -0.0760
12 7 -9 4.0966 -0.9631
12 7 -7 -4.0715 -0.3722
12 7 -5 -6.1938 0.6926
12 7 -3 1.1849 0.4867
12 7 -1 8.8217 -0.1861
12 7 1 7.6608 0.2889
12 7 3 2.5452 0.6433
12 7 5 1.5454 -0.6335
12 7 7 -1.3332 -1.0473
12 7 9 -8.4660 0.5412
12 7 11 -6.6936 0.5682
12 7 13 3.7753 -0.7332
12 7 15 6.9516 0.2037
12 7 17 0.7990 1.0061
12 7 19 -6.7436 -0.6129
12 7 21 -10.8482 -0.6723
12 7 23 -6.4046 1.2057
12 7 25 1.3311 1.1807
12 7 27 0.0011 0.4717
12 7 29 -5.3021 0.5122
12 7 31 -2.7871 -1.9841
12 7 33 3.0227 -6.1784
12 8 -34 1.5618 0.3289
12 8 -32 -3.2934 1.1679
12 8 -30 -5.7912 0.3125
12 8 -28 -2.5515 -0.4180
12 8 -26 -2.2621 0.0119
12 8 -24 -6.8689 0.9990
12 8 -22 -4.9193 1.3866
12 8 -20 1.9700 0.3568
12 8 -18 0.7082 -0.4071
12 8 -16 -5.6781 0.0280
12 8 -14 -7.3293 -0.3874
12 8 -12 -6.9984 -1.1089
12 8 -10 -6.7099 -0.3199
12 8 -8 -1.1506 -0.0980
12 8 -6 5.4228 -1.2636
12 8 -4 2.0168 -1.1764
12 8 -2 -5.3387 0.0005
12 8 0 -0.0986 0.0103
12 8 2 10.5671 -0.5862
12 8 4 4.8907 -0.3047
12 8 6 -8.6779 0.2112
12 8 8 -5.5185 0.2723
12 8 10 7.6118 0.5200
12 8 12 11.8901 0.6926
12 8 14 10.1416 0.3785
12 8 16 4.1569 0.6182
12 8 18 -9.7754 0.8949
12 8 20 -16.3200 -0.0241
12 8 22 -5.5361 -0.6450
12 8 24 4.0447 -0.6213
12 8 26 2.0968 -1.4796
12 8 28 1.3273 -1.3240
12 8 30 5.5042 2.2208
12 8 32 6.0756 7.1459
12 8 34 3.1290 9.7252
12 9 -33 3.0603 0.8942
12 9 -31 2.8108 -0.2503
12 9 -29 -0.8478 -0.0690
12 9 -27 -2.8364 0.2999
12 9 -25 -1.5755 1.0788
12 9 -23 0.3556 1.3490
12 9 -21 0.4555 0.5309
12 9 -19 -2.2140 0.0487
12 9 -17 -4.0277 0.1426
12 9 -15 -0.6315 0.0275
12 9 -13 3.6001 -0.0576
12 9 -11 3.1923 -0.0477
12 9 -9 2.1503 -0.2686
12 9 -7 2.9313 -0.4188
12 9 -5 2.3637 -0.2859
12 9 -3 2.0167 -0.2683
12 9 -1 0.7289 -0.3799
12 9 1 -8.3585 -0.0613
12 9 3 -18.3867 0.3362
12 9 5 -15.3154 -0.0209
12 9 7 -4.1823 -0.3694
12 9 9 -0.4225 0.1907
12 9 11 -6.4376 0.6082
12 9 13 -11.9335 -0.0660
12 9 15 -6.8483 -0.9005
12 9 17 5.4270 -0.5736
12 9 19 9.7545 0.4559
12 9 21 3.3043 0.4789
12 9 23 0.4079 -0.1667
12 9 25 5.2607 0.0615
12 9 27 6.2734 0.0237
12 9 29 0.0048 -1.4024
12 9 31 -5.0124 -2.1920
12 9 33 -4.8306 -1.2140
12 10 -32 -0.0451 1.7692
12 10 -30 1.9620 2.4943
12 10 -28 -1.5290 1.2322
12 10 -26 -0.9413 -2.2345
12 10 -24 7.0819 -3.0281
12 10 -22 9.6987 -0.1727
12 10 -20 6.1781 1.2963
12 10 -18 7.1444 -0.1992
12 10 -16 6.4095 -0.5360
12 10 -14 -3.2309 0.9842
12 10 -12 -9.8340 0.7849
12 10 -10 -8.6990 -0.3124
12 10 -8 -9.9250 0.7655
12 10 -6 -11.2111 1.7311
12 10 -4 -3.8088 0.2883
12 10 -2 5.9274 -0.5432
12 10 0 10.9532 0.5494
12 10 2 17.3411 0.7788
12 10 4 26.4080 -0.3245
12 10 6 25.4309 -0.8021
12 10 8 9.9095 -0.5876
12 10 10 -1.9119 -0.4880
12 10 12 3.3989 -0.2165
12 10 14 9.5962 -0.0612
12 10 16 2.2481 -0.7685
12 10 18 -3.3106 -1.2101
12 10 20 2.7952 -0.3774
12 10 22 4.5286 0.3163
12 10 24 -3.0365 0.2278
12 10 26 -5.1414 0.0832
12 10 28 -0.1763 -0.6640
12 10 30 1.3629 -1.6079
12 11 -31 -1.6827 -0.3426
12 11 -29 1.4292 -2.4242
12 11 -27 3.3333 -2.0951
12 11 -25 -1.7024 -0.4081
12 11 -23 -7.1320 -0.2693
12 11 -21 -5.5441 -0.9775
12 11 -19 -3.2384 -0.5202
12 11 -17 -3.1580 0.4762
12 11 -15 0.9998 0.2725
12 11 -13 6.9894 -0.3729
12 11 -11 8.2952 0.2293
12 11 -9 8.3967 1.2808
12 11 -7 10.4441 1.2559
12 11 -5 7.5142 0.3589
12 11 -3 -3.1787 -0.2596
12 11 -1 -11.7182 -0.0608
12 11 1 -13.1938 0.1387
12 11 3 -15.9809 0.0106
12 11 5 -19.4433 0.2438
12 11 7 -10.1559 0.0806
12 11 9 6.9397 -0.6658
12 11 11 9.2970 -0.3891
12 11 13 -3.5653 0.0926
12 11 15 -10.4701 -0.3092
12 11 17 -6.9425 0.0096
12 11 19 -5.0500 0.4648
12 11 21 -5.7000 -0.4133
12 11 23 -3.0448 -0.6874
12 11 25 -0.4862 0.2366
12 11 27 -1.8431 0.2470
12 11 29 -3.6204 -0.9809
12 12 -30 3.0417 -5.3670
12 12 -28 2.3086 -3.5477
12 12 -26 0.7673 0.2827
12 12 -24 2.4018 2.1321
12 12 -22 6.1870 0.7811
12 12 -20 9.6388 -0.4813
12 12 -18 10.7288 0.1568
12 12 -16 7.1808 0.8687
12 12 -14 0.1814 0.6087
12 12 -12 -4.7395 -0.0656
12 12 -10 -3.2154 -0.7076
12 12 -8 1.2035 -0.6307
12 12 -6 2.1163 0.4269
12 12 -4 2.4504 1.0813
12 12 -2 4.9752 0.3197
12 12 0 2.7009 -0.3151
12 12 2 -1.3917 0.3250
12 12 4 3.0669 0.5933
12 12 6 6.7940 -0.0391
12 12 8 -0.2807 -0.1445
12 12 10 -5.2714 0.0484
12 12 12 -1.7022 0.2708
12 12 14 -0.7531 0.7779
12 12 16 -3.4495 0.0645
12 12 18 -2.7638 -0.9673
12 12 20 -0.9267 0.4449
12 12 22 -1.2535 1.5317
12 12 24 -2.2929 -0.8275
12 12 26 -3.3857 -2.9201
12 12 28 -3.2845 -1.9510
12 13 -27 -0.3679 -5.8538
12 13 -25 -1.3752 -3.9741
12 13 -23 -2.4299 0.3878
12 13 -21 -5.7078 2.0451
12 13 -19 -10.6046 1.0214
12 13 -17 -12.4245 0.7072
12 13 -15 -9.0244 1.1179
12 13 -13 -2.0665 0.4945
12 13 -11 1.7378 -0.1126
12 13 -9 -3.6457 0.2790
12 13 -7 -9.1796 0.3849
12 13 -5 -3.5852 0.2440
12 13 -3 4.9668 0.6758
12 13 -1 6.6257 0.5430
12 13 1 4.1318 -0.2961
12 13 3 -1.8347 -0.3457
12 13 5 -7.1925 -0.1061
12 13 7 -2.6778 -0.3868
12 13 9 3.0190 -0.1146
12 13 11 -0.2388 0.6053
12 13 13 0.9054 0.4398
12 13 15 10.7679 -0.3487
12 13 17 12.2758 -0.6520
12 13 19 4.5417 -0.0814
12 13 21 1.4082 0.5226
12 13 23 3.3151 0.1532
12 14 -26 -4.9171 2.3528
12 14 -24 -4.0370 -0.1333
12 14 -22 -2.1377 0.3772
12 14 -20 3.2795 1.1735
12 14 -18 4.3249 -0.7299
12 14 -16 1.7758 -2.5114
12 14 -14 3.6386 -1.0911
12 14 -12 4.4501 1.3054
12 14 -10 -1.9817 1.2336
12 14 -8 -7.4280 0.1831
12 14 -6 -7.0963 0.7510
12 14 -4 -5.5317 1.0729
12 14 -2 -3.0457 -0.0860
12 14 0 0.1035 -0.4780
12 14 2 -0.0031 0.1721
12 14 4 -1.7592 0.2910
12 14 6 -2.4810 -0.3289
12 14 8 -2.5949 -1.1465
12 14 10 -0.3113 -1.0274
12 14 12 0.8924 0.1772
12 14 14 -4.8888 0.8629
12 14 16 -9.0315 0.6551
12 14 18 -3.3946 -0.3237
12 14 20 1.8653 -1.6648
12 14 22 -0.1411 -0.7294
12 14 24 -2.3668 1.8364
12 15 -23 0.9982 -0.7246
12 15 -21 -0.8400 -0.1811
12 15 -19 -0.0554 1.2337
12 15 -17 0.2090 0.6593
12 15 -15 -7.4380 -0.7378
12 15 -13 -12.3395 -0.7870
12 15 -11 -2.6331 -0.2998
12 15 -9 7.1266 0.0488
12 15 -7 2.6446 0.4001
12 15 -5 -0.6960 0.6751
12 15 -3 8.3702 0.8619
12 15 -1 11.3526 0.4402
12 15 1 0.4592 -0.2536
12 15 3 -4.9281 -0.0165
12 15 5 -0.4145 0.4736
12 15 7 -0.4324 0.1873
12 15 9 -4.2473 -0.2459
12 15 11 -3.6677 -0.2119
12 15 13 -2.6174 0.1813
12 15 15 -4.9949 0.3734
12 15 17 -6.8000 0.3942
12 15 19 -4.4390 0.9714
12 15 21 0.8858 1.2743
12 16 -18 -3.4263 -0.3423
12 16 -16 -3.2433 0.9153
12 16 -14 -2.3573 -1.2991
12 16 -12 -1.4148 -1.1557
12 16 -10 0.1047 1.5972
12 16 -8 1.3962 2.1142
12 16 -6 1.8039 0.4630
12 16 -4 -1.3990 -0.2403
12 16 -2 -7.2280 0.0848
12 16 0 -7.0641 0.6173
12 16 2 -2.5254 1.2574
12 16 4 -3.8274 0.8493
12 16 6 -5.8880 -0.6742
12 16 8 -2.0600 -0.8431
12 16 10 -1.7512 0.7572
12 16 12 -5.4667 1.6435
12 16 14 -1.4146 1.9899
12 16 16 6.5788 3.3214
12 17 -13 12.2537 -1.7469
12 17 -11 3.0864 -2.0275
12 17 -9 -6.7165 0.3146
12 17 -7 -7.2026 1.1095
12 17 -5 -3.2019 -1.1054
12 17 -3 0.3325 -2.5218
12 17 -1 1.0367 -0.5704
12 17 1 -4.5801 1.0877
12 17 3 -6.6653 -0.4240
12 17 5 5.6389 -1.1977
12 17 7 18.5404 0.7900
12 17 11 12.3818 0.4332
12 17 13 8.0426 -0.2465
12 18 -2 -4.8036 -2.3182
12 18 0 -4.6718 -3.0819
12 18 2 2.0291 -4.6106
12 18 4 6.2575 -2.8265
12 18 6 3.4165 -0.4741
13 1 -38 -3.9370 3.5189
13 1 -36 -5.9859 2.4561
13 1 -34 -3.7241 0.7436
13 1 -32 -0.7068 -0.9761
13 1 -30 0.4399 -0.4984
13 1 -28 2.9874 -0.0605
13 1 -26 6.0156 -0.7612
13 1 -24 3.2165 -0.4274
13 1 -22 -0.9388 -0.0582
13 1 -20 1.1185 -0.8072
13 1 -18 2.5964 -0.6257
13 1 -16 0.6268 -0.1023
13 1 -14 5.5558 -1.0967
13 1 -12 13.5838 -1.0980
13 1 -10 10.0449 1.0268
13 1 -8 1.4564 1.2474
13 1 -6 4.5187 -0.6462
13 1 -4 13.1042 -0.2598
13 1 -2 8.5493 1.0187
13 1 0 -4.6274 -0.1088
13 1 2 -4.2853 -0.2440
13 1 4 6.7828 1.5296
13 1 6 6.0554 0.6401
13 1 8 -2.7343 -1.1070
13 1 10 -4.0295 0.1131
13 1 12 -5.9182 0.6839
13 1 14 -11.8636 -1.0210
13 1 16 -8.9566 -1.0917
13 1 18 -0.6951 0.3699
13 1 20 3.0405 0.6037
13 1 22 4.0520 -0.0594
13 1 24 0.7754 -0.5029
13 1 26 -4.7262 -0.4731
13 1 28 -3.6133 -0.2935
13 1 30 -0.2253 -0.7937
13 1 32 0.5963 -1.2548
13 1 34 3.2934 -0.4451
13 1 36 3.6546 0.1567
13 2 -39 1.3886 -7.5878
13 2 -37 0.3149 -5.8716
13 2 -35 1.4676 -0.7391
13 2 -33 2.8062 -0.1693
13 2 -31 0.7982 -2.3246
13 2 -29 -3.2426 -1.1011
13 2 -27 -6.0376 1.1188
13 2 -25 -4.5016 1.4572
13 2 -23 -1.4074 2.0264
13 2 -21 -3.6695 2.7179
13 2 -19 -6.3536 2.6297
13 2 -17 -1.0499 2.9581
13 2 -15 3.4689 2.8010
13 2 -13 -0.8429 1.3336
13 2 -11 -5.1553 0.5462
13 2 -9 -5.4629 0.4428
13 2 -7 -7.8871 -0.7931
13 2 -5 -10.1207 -2.3924
13 2 -3 -2.5921 -2.8904
13 2 -1 14.4463 -2.8466
13 2 1 22.5285 -3.0549
13 2 3 8.0535 -3.3174
13 2 5 -8.5042 -3.0731
13 2 7 -5.0866 -1.7405
13 2 9 3.7413 0.1300
13 2 11 4.8409 0.9418
13 2 13 7.4057 1.1467
13 2 15 9.1372 2.2750
13 2 17 3.8488 3.0693
13 2 19 -2.2814 2.6845
13 2 21 -9.8427 2.8898
13 2 23 -16.6623 3.0306
13 2 25 -12.4259 1.8067
13 2 27 -4.8444 1.4368
13 2 29 -4.0968 1.7556
13 2 31 -3.5095 -0.0787
13 2 33 -2.0159 -2.1256
13 2 35 -2.1835 -1.7674
13 2 37 0.0893 -1.1316
13 3 -38 -1.3683 -0.3719
13 3 -36 -0.0020 -1.1855
13 3 -34 -0.3296 -1.1691
13 3 -32 0.0455 -1.0086
13 3 -30 1.2533 -1.2228
13 3 -28 1.5140 0.0705
13 3 -26 1.1690 1.5506
13 3 -24 1.0798 0.6613
13 3 -22 1.8063 0.3792
13 3 -20 2.9591 2.2105
13 3 -18 2.5835 2.3552
13 3 -16 0.6396 1.0034
13 3 -14 -2.1494 1.3478
13 3 -12 -5.9522 1.8062
13 3 -10 -6.4006 0.2782
13 3 -8 -0.1528 -1.0242
13 3 -6 5.9327 -0.6924
13 3 -4 5.0674 -0.8504
13 3 -2 -2.5235 -1.9462
13 3 0 -12.7924 -1.8872
13 3 2 -13.1742 -1.4744
13 3 4 3.2660 -2.2076
13 3 6 17.5330 -1.9180
13 3 8 12.7731 -0.3444
13 3 10 0.4672 -0.1079
13 3 12 -6.7572 -0.1640
13 3 14 -9.5799 1.2634
13 3 16 -6.8943 2.3452
13 3 18 0.2123 1.9413
13 3 20 5.3611 1.2429
13 3 22 7.4603 1.2653
13 3 24 7.4726 1.6181
13 3 26 5.4086 1.0285
13 3 28 4.0375 0.1450
13 3 30 3.9948 0.4137
13 3 32 3.8456 0.3454
13 3 34 3.6005 -0.7205
13 3 36 1.7043 -0.1496
13 4 -37 3.9839 0.5767
13 4 -35 1.5938 0.1463
13 4 -33 -3.5187 1.1732
13 4 -31 -2.9214 1.5268
13 4 -29 4.0083 -0.6070
13 4 -27 10.2611 -1.4971
13 4 -25 9.5460 0.3003
13 4 -23 3.7716 0.9953
13 4 -21 1.0699 0.1709
13 4 -19 2.3868 -0.2119
13 4 -17 0.6188 -0.9795
13 4 -15 -3.2874 -1.3382
13 4 -13 -0.3562 -0.0566
13 4 -11 8.5513 0.3588
13 4 -9 11.9475 -0.2175
13 4 -7 5.8309 0.4023
13 4 -5 -1.6365 0.5949
13 4 -3 -5.0238 -0.3997
13 4 -1 -7.1040 -0.4080
13 4 1 -8.3652 0.1929
13 4 3 -7.5091 0.3574
13 4 5 -8.3071 0.6380
13 4 7 -10.0955 0.4984
13 4 9 -5.8108 -0.1681
13 4 11 2.4705 -0.2510
13 4 13 6.9689 -0.4095
13 4 15 6.6859 -1.2975
13 4 17 1.9808 -1.1064
13 4 19 -4.2791 0.4140
13 4 21 -3.1209 0.6112
13 4 23 5.2698 -0.1577
13 4 25 11.3187 0.5225
13 4 27 12.1875 0.2554
13 4 29 8.3589 -2.3972
13 4 31 0.6421 -2.2966
13 4 33 -3.9448 0.6388
13 4 35 -2.4729 -0.2278
13 5 -38 -3.3030 0.4217
13 5 -36 -2.2590 -1.0359
13 5 -34 0.6943 -0.3325
13 5 -32 0.6726 0.3374
13 5 -30 0.1979 -0.2457
13 5 -28 0.1106 0.0452
13 5 -26 -2.3877 0.8749
13 5 -24 -3.1229 0.6956
13 5 -22 0.4782 0.3403
13 5 -20 3.4554 0.6170
13 5 -18 4.4889 0.8615
13 5 -16 3.2949 0.4418
13 5 -14 -2.7774 -0.3809
13 5 -12 -7.9085 -0.8683
13 5 -10 -3.8508 -0.7726
13 5 -8 5.1453 -0.3453
13 5 -6 8.7803 -0.1414
13 5 -4 5.0969 -0.5615
13 5 -2 2.8769 -0.7498
13 5 0 6.5159 -0.2465
13 5 2 4.8487 -0.1536
13 5 4 -5.9663 -0.3753
13 5 6 -10.4557 -0.1637
13 5 8 -5.2217 -0.2038
13 5 10 -2.0780 -0.1300
13 5 12 -0.8411 0.9089
13 5 14 0.5774 1.2944
13 5 16 -1.4520 0.0481
13 5 18 -0.5738 -1.0856
13 5 20 4.3623 -0.9633
13 5 22 2.8646 -0.2353
13 5 24 -2.0802 0.1857
13 5 26 -3.7601 0.3440
13 5 28 -6.9487 0.9957
13 5 30 -9.0466 1.2080
13 5 32 -4.1052 -0.8550
13 5 34 1.7561 -3.5155
13 5 36 3.5497 -3.3499
13 6 -37 1.4882 -0.4801
13 6 -35 0.6574 1.1450
13 6 -33 -0.6210 0.0136
13 6 -31 0.2617 0.2018
13 6 -29 -0.1983 1.6200
13 6 -27 -4.5037 0.7019
13 6 -25 -9.5202 -0.7450
13 6 -23 -9.4197 0.5536
13 6 -21 -3.1189 2.0020
13 6 -19 1.1186 0.7262
13 6 -17 0.6753 -0.3354
13 6 -15 5.6199 0.6613
13 6 -13 14.1318 0.8722
13 6 -11 10.2159 -0.1662
13 6 -9 -3.9848 -0.4554
13 6 -7 -9.1727 -0.2672
13 6 -5 -1.2186 -0.3169
13 6 -3 5.6584 -0.6669
13 6 -1 3.8727 -1.0350
13 6 1 2.8897 -0.3261
13 6 3 8.6216 0.3553
13 6 5 9.6100 -0.6433
13 6 7 2.7715 -0.9749
13 6 9 2.6033 0.3751
13 6 11 7.6539 0.4610
13 6 13 4.0594 -0.3382
13 6 15 -2.9049 0.5677
13 6 17 -6.2048 1.3978
13 6 19 -10.8026 0.2057
13 6 21 -10.7009 -0.4693
13 6 23 -1.0604 0.4984
13 6 25 4.2530 0.2790
13 6 27 0.8369 -1.0463
13 6 29 -0.8516 -0.3193
13 6 31 -0.0466 1.8330
13 6 33 -0.2313 3.0862
13 6 35 0.3526 3.7248
13 7 -36 -0.2942 -2.4466
13 7 -34 -1.7622 -0.4603
13 7 -32 0.7034 -0.1188
13 7 -30 4.5926 -0.8338
13 7 -28 5.7982 -0.8469
13 7 -26 4.8228 0.1056
13 7 -24 4.1274 0.9168
13 7 -22 3.5468 -0.3348
13 7 -20 1.7161 -1.9425
13 7 -18 -1.9215 -0.7444
13 7 -16 -6.1885 0.8769
13 7 -14 -6.9154 0.2386
13 7 -12 -2.0118 -0.1929
13 7 -10 3.0194 0.5236
13 7 -8 1.9709 0.3516
13 7 -6 -3.4008 0.0218
13 7 -4 -5.9256 0.8780
13 7 -2 -1.9038 1.1703
13 7 0 2.3303 0.4476
13 7 2 -1.5916 0.8371
13 7 4 -8.2223 1.3671
13 7 6 -6.6711 -0.0774
13 7 8 -0.9459 -0.9850
13 7 10 0.2185 0.3314
13 7 12 0.9897 0.8583
13 7 14 6.0526 -0.3054
13 7 16 9.6363 -1.1287
13 7 18 7.4243 -0.9561
13 7 20 1.6004 0.0888
13 7 22 -4.8568 0.7500
13 7 24 -8.1435 0.0307
13 7 26 -6.1419 -0.0101
13 7 28 -2.3640 0.4959
13 7 30 0.0160 -0.9848
13 7 32 1.3303 -1.5365
13 7 34 1.1145 1.4918
13 8 -35 5.8127 4.5076
13 8 -33 3.2067 1.4678
13 8 -31 -3.7464 -0.2286
13 8 -29 -6.9614 -0.8106
13 8 -27 -4.9145 -1.4145
13 8 -25 -0.5550 -1.5645
13 8 -23 2.8609 -0.7719
13 8 -21 0.2684 -0.3224
13 8 -19 -4.6979 -0.8180
13 8 -17 -1.9366 -0.6470
13 8 -15 3.5350 0.1104
13 8 -13 0.0415 -0.4310
13 8 -11 -5.8896 -1.0553
13 8 -9 -3.1458 0.3225
13 8 -7 2.2573 1.5590
13 8 -5 1.5241 0.6522
13 8 -3 -1.2981 0.1837
13 8 -1 -1.0534 1.4817
13 8 1 -0.9554 1.6999
13 8 3 -1.4758 0.3366
13 8 5 3.9451 -0.1108
13 8 7 12.0766 0.1415
13 8 9 10.7615 -0.0851
13 8 11 5.4304 0.0584
13 8 13 10.6325 0.4468
13 8 15 16.6605 0.3034
13 8 17 8.3782 0.0356
13 8 19 -1.4276 -0.6195
13 8 21 1.7095 -1.2655
13 8 23 7.3696 -0.5067
13 8 25 5.5941 -0.0940
13 8 27 3.0973 -1.3747
13 8 29 4.4590 -0.5086
13 8 31 4.5133 3.7705
13 8 33 1.2090 6.3316
13 9 -34 -0.9248 2.5387
13 9 -32 2.3209 3.5779
13 9 -30 -1.7326 2.1499
13 9 -28 -5.8704 -1.1285
13 9 -26 -1.3915 -1.1508
13 9 -24 2.7417 1.0023
13 9 -22 1.8038 1.1495
13 9 -20 3.3291 -0.1468
13 9 -18 4.0342 -0.6829
13 9 -16 -2.0778 -0.2062
13 9 -14 -5.5558 0.1916
13 9 -12 -0.6750 -0.4146
13 9 -10 2.6074 -0.8159
13 9 -8 -0.2713 0.1985
13 9 -6 -1.0222 0.7740
13 9 -4 2.2193 -0.3036
13 9 -2 0.4758 -0.7732
13 9 0 -4.6436 0.1824
13 9 2 -0.3630 0.3029
13 9 4 8.4069 -0.2095
13 9 6 5.0948 0.3862
13 9 8 -4.2219 0.4041
13 9 10 -7.9745 -0.6252
13 9 12 -18.5934 0.0683
13 9 14 -37.9071 1.2033
13 9 16 -39.1753 0.3464
13 9 18 -18.3960 -0.1934
13 9 20 -4.2697 -0.1915
13 9 22 -5.6936 -1.5868
13 9 24 -6.3809 -1.7303
13 9 26 -2.2125 -0.1582
13 9 28 -1.3708 -1.6706
13 9 30 -3.9953 -5.9232
13 9 32 -5.0799 -7.7347
13 10 -33 -4.0878 -1.8274
13 10 -31 -1.7196 -2.2151
13 10 -29 1.7824 -1.2604
13 10 -27 1.4868 0.7574
13 10 -25 -0.1412 1.3774
13 10 -23 0.2121 0.6685
13 10 -21 -0.2408 0.1815
13 10 -19 -1.7559 0.4030
13 10 -17 -1.9231 0.3723
13 10 -15 -1.4208 -0.2146
13 10 -13 -0.5367 -0.1356
13 10 -11 0.6066 0.5589
13 10 -9 0.6104 0.6271
13 10 -7 0.0558 0.3015
13 10 -5 -0.5937 0.2327
13 10 -3 -1.7853 0.0007
13 10 -1 -4.0053 -0.5324
13 10 1 -9.3225 -0.3971
13 10 3 -12.8663 0.5719
13 10 5 -5.2506 0.6272
13 10 7 5.1227 -0.4401
13 10 9 3.1974 -0.4760
13 10 11 -2.3278 0.3062
13 10 13 2.3154 0.1377
13 10 15 9.3833 -0.5046
13 10 17 10.0172 -0.9416
13 10 19 8.0700 -1.1355
13 10 21 4.6925 -0.7302
13 10 23 -0.8544 -0.3203
13 10 25 -2.8745 0.0156
13 10 27 0.6049 0.8127
13 10 29 4.0541 0.7895
13 10 31 4.6863 -0.0715
13 11 -30 1.6809 -1.9926
13 11 -28 0.7397 -1.1663
13 11 -26 -1.5248 0.6915
13 11 -24 -0.7917 0.6398
13 11 -22 2.7788 -0.5373
13 11 -20 2.1889 -0.2764
13 11 -18 -0.6917 0.5807
13 11 -16 0.3627 0.1147
13 11 -14 0.6484 -0.7701
13 11 -12 -2.5603 -0.3962
13 11 -10 -2.8876 0.6515
13 11 -8 -1.3361 1.0579
13 11 -6 -1.9055 1.1111
13 11 -4 -1.0661 1.2222
13 11 -2 1.1651 0.8229
13 11 0 2.3430 0.3054
13 11 2 3.0054 0.5898
13 11 4 -1.9292 0.9023
13 11 6 -10.5557 0.2457
13 11 8 -7.6158 -0.6368
13 11 10 4.4697 -0.7648
13 11 12 8.3835 -0.3000
13 11 14 6.3306 0.1478
13 11 16 7.4670 0.1741
13 11 18 7.9376 -0.0302
13 11 20 7.6671 0.1191
13 11 22 9.4056 0.1681
13 11 24 5.9864 -0.1611
13 11 26 -3.5325 1.5551
13 11 28 -8.3892 5.6971
13 12 -29 -1.4988 -5.6821
13 12 -27 0.0950 -2.0429
13 12 -25 -0.3317 0.6205
13 12 -23 -3.7783 -0.1420
13 12 -21 -3.3970 -1.7369
13 12 -19 -0.9954 -1.2406
13 12 -17 -3.9358 0.4809
13 12 -15 -4.3594 1.0463
13 12 -13 4.1524 0.5833
13 12 -11 7.4701 0.4267
13 12 -9 -1.3973 0.1680
13 12 -7 -7.9644 -0.2127
13 12 -5 -3.9864 0.2492
13 12 -3 3.5383 0.5847
13 12 -1 7.0537 0.1169
13 12 1 3.6269 0.1872
13 12 3 -0.4886 0.5987
13 12 5 3.5289 0.4678
13 12 7 7.1008 0.4048
13 12 9 -0.6096 0.3412
13 12 11 -7.3390 0.2105
13 12 13 -2.8380 0.7668
13 12 15 0.9576 1.1426
13 12 17 -2.5258 0.2662
13 12 19 -5.2162 -0.8981
13 12 21 -3.6418 -0.6217
13 12 23 0.2210 1.7840
13 12 25 4.0691 3.6944
13 13 -28 -2.8116 7.9728
13 13 -26 0.9566 0.7665
13 13 -24 4.0689 -2.9552
13 13 -22 1.9949 0.1022
13 13 -20 -2.3046 2.8740
13 13 -18 -2.1028 1.1911
13 13 -16 1.4087 -1.0247
13 13 -14 2.2806 -0.5281
13 13 -12 0.0230 0.4195
13 13 -10 -1.7818 0.0768
13 13 -8 -0.8296 -0.2411
13 13 -6 1.2262 -0.4025
13 13 -4 1.2801 -0.6279
13 13 -2 0.7319 -0.1358
13 13 0 1.9694 0.1155
13 13 2 2.8340 -0.3660
13 13 4 1.8189 -0.1586
13 13 6 0.9294 0.3564
13 13 8 1.0185 0.3084
13 13 10 -0.2861 0.2094
13 13 12 -4.5130 0.0077
13 13 14 -6.4006 0.0432
13 13 16 -0.2522 0.6020
13 13 18 7.2851 0.6497
13 13 20 6.2292 0.4702
13 13 22 -0.0709 0.3384
13 13 24 -2.5591 -0.8591
13 14 -25 -0.2292 4.0030
13 14 -23 0.0141 0.8180
13 14 -21 -0.6194 -1.1775
13 14 -19 -1.6323 0.8961
13 14 -17 -3.4569 2.2572
13 14 -15 -7.4088 0.5978
13 14 -13 -9.5439 -0.8726
13 14 -11 -3.6115 -0.4531
13 14 -9 3.2040 0.1780
13 14 -7 0.9298 0.0537
13 14 -5 -2.4120 -0.3736
13 14 -3 -1.1759 -0.8777
13 14 -1 -3.4030 -0.9078
13 14 1 -4.7999 -0.1784
13 14 3 1.6273 0.0733
13 14 5 3.9004 -0.5979
13 14 7 -1.4808 -0.7426
13 14 9 -1.7493 -0.0372
13 14 11 1.6169 -0.1758
13 14 13 -0.4215 -1.4309
13 14 15 -4.2012 -1.1462
13 14 17 -4.7555 0.8296
13 14 19 -2.8251 -0.2589
13 14 21 0.2017 -4.4595
13 14 23 1.7255 -5.0199
13 15 -22 -2.6714 -3.6808
13 15 -20 -1.9734 -3.5618
13 15 -18 1.9093 -1.9752
13 15 -16 3.8527 -0.6229
13 15 -14 4.0611 -0.7646
13 15 -12 3.5410 -0.6014
13 15 -10 0.1523 0.7972
13 15 -8 -2.6983 1.0558
13 15 -6 -2.6718 -0.4252
13 15 -4 -3.6306 -1.4071
13 15 -2 -2.2077 -1.0301
13 15 0 3.6307 -0.3366
13 15 2 3.3843 -0.5747
13 15 4 -1.9107 -1.4657
13 15 6 0.3670 -1.1968
13 15 8 5.5428 -0.1050
13 15 10 5.1222 0.0936
13 15 12 5.1223 0.2363
13 15 14 5.9063 0.3267
13 15 16 2.1085 -1.6985
13 15 18 -1.2126 -3.8611
13 16 -17 2.1620 -3.1963
13 16 -15 7.9943 -5.0487
13 16 -13 5.6151 -4.2596
13 16 -11 -0.3492 -0.2278
13 16 -9 4.2247 1.6909
13 16 -7 11.9127 -0.4351
13 16 -5 10.1168 -2.1996
13 16 -3 5.3452 -0.3241
13 16 -1 3.6606 1.5658
13 16 1 1.0518 -0.0606
13 16 3 -0.0903 -1.5447
13 16 5 2.6173 -0.2322
13 16 7 2.6359 0.6653
13 16 9 -1.4971 0.0138
13 16 11 -4.7602 -0.2859
13 16 13 -4.9702 0.1016
13 16 15 -1.7726 1.0405
13 17 -12 3.3260 2.6464
13 17 -10 -6.5528 -1.2817
13 17 -8 -10.4243 0.3423
13 17 -6 -9.2352 1.6084
13 17 -4 -13.7866 -0.4024
13 17 -2 -20.9867 -1.5212
13 17 0 -15.9194 0.3861
13 17 2 -1.3032 1.6791
13 17 4 5.8053 0.0395
13 17 6 6.0008 -1.6124
13 17 8 10.0759 -1.3839
13 17 12 9.1890 -1.2466
13 18 1 13.4001 -1.2872
13 18 3 13.2943 3.0238
13 18 5 5.2141 6.2350
14 0 -38 -7.5714 -15.0430
14 0 -36 -6.2700 -13.2758
14 0 -34 -0.6259 -7.9438
14 0 -32 -0.9576 -4.9776
14 0 -30 -6.0000 -6.5532
14 0 -28 -4.1836 -8.5687
14 0 -26 2.0974 -4.2407
14 0 -24 3.9011 2.9055
14 0 -22 2.4308 3.1396
14 0 -20 -1.0245 1.7353
14 0 -18 -4.4241 9.0886
14 0 -16 1.4468 15.1084
14 0 -14 12.6712 9.4469
14 0 -12 11.3404 6.1966
14 0 -10 -1.9715 12.4260
14 0 -8 -8.2329 10.7808
14 0 -6 -3.2788 -0.9513
14 0 -4 -1.1346 -4.0155
14 0 -2 -3.0765 -0.1591
14 0 0 5.1320 -5.6491
14 0 2 14.9391 -14.2878
14 0 4 2.2244 -12.3691
14 0 6 -18.4246 -7.8730
14 0 8 -16.8042 -10.6878
14 0 10 -5.6610 -11.5974
14 0 12 -4.4487 -4.0212
14 0 14 -3.5477 1.5782
14 0 16 -1.3577 0.1373
14 0 18 -3.3832 1.8496
14 0 20 -4.1919 9.4257
14 0 22 -9.0379 11.6040
14 0 24 -17.1272 6.7875
14 0 26 -9.1274 6.4279
14 0 28 7.0213 9.9650
14 0 30 8.2562 6.1312
14 0 32 3.7185 -0.4471
14 0 34 6.1117 2.7376
14 0 36 7.2014 9.1164
14 1 -39 1.8794 4.4501
14 1 -37 2.9645 2.9218
14 1 -35 2.4803 2.7477
14 1 -33 1.0996 -2.1809
14 1 -31 2.1145 -4.9143
14 1 -29 3.8127 0.1118
14 1 -27 3.5845 2.8483
14 1 -25 2.6674 -1.4582
14 1 -23 0.7214 -2.2499
14 1 -21 -1.5805 2.6809
14 1 -19 -0.5500 2.4227
14 1 -17 0.9853 -2.1336
14 1 -15 -1.6911 -0.2141
14 1 -13 -3.6817 4.1321
14 1 -11 -0.6479 1.0475
14 1 -9 2.6653 -3.0142
14 1 -7 3.7686 0.4087
14 1 -5 6.7291 3.5151
14 1 -3 10.7879 -0.8159
14 1 -1 6.5514 -3.6459
14 1 1 -6.1507 0.9355
14 1 3 -8.5645 2.3196
14 1 5 5.7302 -3.3867
14 1 7 14.2534 -3.6395
14 1 9 6.9155 2.2073
14 1 11 -0.0421 1.0666
14 1 13 -0.9264 -3.7003
14 1 15 -0.6734 -0.6863
14 1 17 2.2417 3.3743
14 1 19 3.5871 0.0597
14 1 21 1.0817 -2.4451
14 1 23 3.2051 1.0343
14 1 25 5.4958 2.1771
14 1 27 -0.8828 -1.5125
14 1 29 -5.5424 -1.8685
14 1 31 -2.1641 1.6015
14 1 33 -0.1357 0.7798
14 1 35 -1.9809 -3.9122
14 1 37 -3.2714 -5.0568
14 2 -38 1.3905 2.0724
14 2 -36 1.8670 0.9124
14 2 -34 -0.0224 0.7382
14 2 -32 -1.1086 1.4346
14 2 -30 -1.2131 -0.0673
14 2 -28 -1.5680 -1.8803
14 2 -26 -1.0318 -0.1857
14 2 -24 -0.3362 2.4163
14 2 -22 -1.3254 1.1653
14 2 -20 -1.1749 -1.2787
14 2 -18 1.8209 -0.3377
14 2 -16 2.9923 0.9220
14 2 -14 1.3097 -0.7779
14 2 -12 2.5243 -1.8770
14 2 -10 5.8840 -0.3799
14 2 -8 2.8098 0.2561
14 2 -6 -6.8572 -1.2627
14 2 -4 -12.3372 -1.3777
14 2 -2 -8.8307 0.9245
14 2 0 -2.8281 1.0255
14 2 2 0.6765 -1.2056
14 2 4 2.1965 0.1243
14 2 6 1.6897 2.8393
14 2 8 0.4088 0.8639
14 2 10 0.7285 -1.0779
14 2 12 0.4167 1.1355
14 2 14 -1.4480 1.3840
14 2 16 -1.9643 -1.3648
14 2 18 -4.3645 -1.2152
14 2 20 -10.2166 0.5989
14 2 22 -9.1261 -0.1855
14 2 24 1.5423 -0.9267
14 2 26 8.3856 0.7956
14 2 28 5.5932 0.8962
14 2 30 0.6181 -1.9181
14 2 32 -1.4154 -2.3313
14 2 34 -0.4713 0.2451
14 2 36 1.7406 0.7445
14 3 -37 0.4586 -3.1363
14 3 -35 -1.1305 -2.8860
14 3 -33 -3.9486 0.8723
14 3 -31 -3.5719 1.5832
14 3 -29 -0.1913 -0.6275
14 3 -27 -0.5411 0.1280
14 3 -25 -5.1999 0.9919
14 3 -23 -3.2061 -0.6331
14 3 -21 5.4657 0.1163
14 3 -19 6.2478 2.1553
14 3 -17 -2.1103 0.9660
14 3 -15 -8.2353 0.0666
14 3 -13 -9.7683 1.5747
14 3 -11 -7.9344 1.1301
14 3 -9 -0.5986 -0.7439
14 3 -7 7.5798 -0.1565
14 3 -5 7.9508 0.7572
14 3 -3 1.4117 -0.5165
14 3 -1 -1.3911 -1.2704
14 3 1 3.7810 -0.7341
14 3 3 5.5398 -1.1133
14 3 5 -1.6419 -1.2116
14 3 7 -5.0592 -0.0908
14 3 9 -0.5031 -0.2438
14 3 11 3.2019 -0.8622
14 3 13 4.8176 0.3426
14 3 15 2.2230 0.9983
14 3 17 -4.5819 0.1005
14 3 19 0.1019 0.2043
14 3 21 13.3490 0.9379
14 3 23 10.4951 0.8991
14 3 25 -1.9197 0.7874
14 3 27 -1.7922 0.9057
14 3 29 2.6809 1.8343
14 3 31 0.2083 3.0496
14 3 33 -2.0157 1.1422
14 3 35 -1.1384 -3.0571
14 4 -36 2.8438 -2.8090
14 4 -34 2.7047 0.3741
14 4 -32 2.7880 2.0301
14 4 -30 3.5175 2.6902
14 4 -28 1.9085 0.9563
14 4 -26 0.4059 -0.9452
14 4 -24 1.0212 -0.3224
14 4 -22 -0.1901 0.5487
14 4 -20 -1.9181 0.0455
14 4 -18 0.5465 -0.3379
14 4 -16 5.3307 -0.2178
14 4 -14 9.0348 -0.3033
14 4 -12 9.0293 -0.4793
14 4 -10 2.7171 -0.3846
14 4 -8 -5.4011 -0.2005
14 4 -6 -7.9356 -0.1002
14 4 -4 -5.1009 0.1132
14 4 -2 -3.2466 0.1695
14 4 0 -7.7702 0.1883
14 4 2 -12.7236 1.0029
14 4 4 -6.3677 1.4491
14 4 6 3.7126 0.3535
14 4 8 2.8024 -0.1095
14 4 10 -0.7031 0.7298
14 4 12 2.0867 0.3635
14 4 14 3.3365 -0.7635
14 4 16 3.6440 -0.3304
14 4 18 5.0010 0.5027
14 4 20 -0.0512 -0.0947
14 4 22 -3.0956 -0.8502
14 4 24 5.1960 -0.6736
14 4 26 9.1708 -0.9514
14 4 28 1.9495 -1.4870
14 4 30 -2.7754 0.3607
14 4 32 -2.6950 4.0544
14 4 34 -3.5954 6.2090
14 5 -37 3.9964 3.4402
14 5 -35 2.6222 2.6341
14 5 -33 -0.5657 0.6535
14 5 -31 -3.1087 -0.1719
14 5 -29 -2.2382 1.1612
14 5 -27 0.1930 1.1447
14 5 -25 1.4052 0.1646
14 5 -23 2.5987 0.7683
14 5 -21 3.5044 0.1362
14 5 -19 0.7972 -2.0550
14 5 -17 -3.8223 -1.7419
14 5 -15 -4.6506 -0.6536
14 5 -13 -1.1158 -1.7150
14 5 -11 2.3864 -2.0783
14 5 -9 3.3475 -0.5950
14 5 -7 2.7429 0.2307
14 5 -5 1.4198 -0.0062
14 5 -3 0.4605 -0.0096
14 5 -1 3.5975 0.9182
14 5 1 8.5778 2.2527
14 5 3 4.4197 2.3093
14 5 5 -6.6541 1.0615
14 5 7 -7.4365 0.8681
14 5 9 0.6343 1.9641
14 5 11 0.9770 1.6754
14 5 13 -2.5256 0.1138
14 5 15 0.5183 -0.3611
14 5 17 1.0055 -1.0150
14 5 19 -5.0072 -2.5626
14 5 21 -6.0527 -1.8407
14 5 23 -3.0574 -0.0325
14 5 25 -5.2003 -0.4987
14 5 27 -8.5620 -0.8399
14 5 29 -6.9497 -0.6330
14 5 31 -2.2088 -2.2346
14 5 33 3.3256 -1.2808
14 5 35 6.7465 3.6603
14 6 -36 -2.6880 3.0184
14 6 -34 2.0335 1.1092
14 6 -32 2.8588 0.5122
14 6 -30 -2.1074 0.6034
14 6 -28 -2.8228 0.4111
14 6 -26 1.9436 1.1181
14 6 -24 2.9725 1.6998
14 6 -22 -1.8814 0.3056
14 6 -20 -7.0630 -1.1784
14 6 -18 -7.3135 -0.6134
14 6 -16 -1.6412 0.1387
14 6 -14 3.3489 -0.7654
14 6 -12 1.2029 -1.2250
14 6 -10 -3.7377 -0.0828
14 6 -8 -3.4318 -0.0119
14 6 -6 2.6003 -1.0073
14 6 -4 7.6943 -0.1681
14 6 -2 5.4386 1.1416
14 6 0 -0.8782 0.4951
14 6 2 -1.1282 -0.1059
14 6 4 5.4192 0.6728
14 6 6 9.7189 0.9107
14 6 8 7.7236 0.0493
14 6 10 2.8724 -0.1832
14 6 12 -0.7603 0.8229
14 6 14 -2.5038 1.2564
14 6 16 -3.4571 0.1579
14 6 18 -0.9308 -0.7433
14 6 20 5.3413 -0.8058
14 6 22 6.0011 -1.0155
14 6 24 -1.4836 -0.9405
14 6 26 -4.9542 -0.6797
14 6 28 0.5449 -1.2381
14 6 30 5.0418 -1.3382
14 6 32 1.2390 -0.3899
14 6 34 -5.7323 -0.8599
14 7 -35 -5.6306 0.2584
14 7 -33 -4.8961 0.6844
14 7 -31 2.0101 0.8946
14 7 -29 4.3530 0.0188
14 7 -27 0.3698 -0.5828
14 7 -25 -0.7138 0.0357
14 7 -23 1.0063 0.3659
14 7 -21 1.4124 0.2455
14 7 -19 2.3320 0.5550
14 7 -17 1.9171 0.3490
14 7 -15 -1.1187 -0.2319
14 7 -13 -0.1671 0.0452
14 7 -11 4.3539 0.2691
14 7 -9 2.3243 -0.0738
14 7 -7 -7.0954 0.0456
14 7 -5 -11.6748 0.3148
14 7 -3 -4.1619 0.1069
14 7 -1 4.9361 -0.0852
14 7 1 4.1504 -0.0961
14 7 3 2.2739 -0.1285
14 7 5 6.9602 -0.0877
14 7 7 4.7536 0.0836
14 7 9 -6.8270 0.1110
14 7 11 -9.8990 -0.2902
14 7 13 -3.5142 -0.6315
14 7 15 0.6192 -0.2461
14 7 17 3.5271 0.4590
14 7 19 3.4829 0.6844
14 7 21 -4.9792 0.3008
14 7 23 -11.4376 -0.1694
14 7 25 -8.0039 -0.1730
14 7 27 -3.5699 0.1538
14 7 29 -2.0293 0.2993
14 7 31 0.9789 -0.3702
14 7 33 3.4568 -2.0367
14 8 -34 1.1768 -1.4735
14 8 -32 -3.0742 -0.3709
14 8 -30 -6.8820 -0.9986
14 8 -28 -3.8314 -0.4495
14 8 -26 0.4580 0.9276
14 8 -24 -0.4673 0.3199
14 8 -22 -3.6316 -0.9339
14 8 -20 -5.0507 -0.9064
14 8 -18 -4.3758 -0.1845
14 8 -16 -3.8790 0.3560
14 8 -14 -6.2880 0.0380
14 8 -12 -8.7867 -0.8214
14 8 -10 -5.9674 -0.5547
14 8 -8 1.4043 0.6716
14 8 -6 6.0333 0.6741
14 8 -4 0.1470 0.0062
14 8 -2 -12.1168 0.9042
14 8 0 -14.7442 1.5681
14 8 2 -6.2086 0.2559
14 8 4 -1.8661 0.0984
14 8 6 -2.3748 1.2394
14 8 8 2.0729 0.1811
14 8 10 6.1596 -0.9760
14 8 12 3.9454 0.2904
14 8 14 1.4657 0.7175
14 8 16 -0.3073 -0.2467
14 8 18 -2.6465 -0.1470
14 8 20 -0.4216 -0.3548
14 8 22 3.2360 -1.1922
14 8 24 1.1467 0.2152
14 8 26 -0.6057 2.6567
14 8 28 3.4161 2.4697
14 8 30 6.0703 1.0693
14 8 32 3.7034 1.8570
14 9 -33 3.6426 0.8029
14 9 -31 0.5643 -0.0323
14 9 -29 -2.8006 -0.6731
14 9 -27 -2.2436 -0.2818
14 9 -25 0.6261 0.2761
14 9 -23 3.5916 -0.2281
14 9 -19 2.5259 0.0171
14 9 -17 -1.3996 -0.2093
14 9 -15 -0.6392 -0.7736
14 9 -13 1.7757 0.0231
14 9 -11 0.7459 0.8875
14 9 -9 -0.6744 0.2891
14 9 -7 -0.1874 -0.3592
14 9 -5 1.7986 0.0939
14 9 -3 6.3033 0.4279
14 9 -1 8.3247 0.1210
14 9 1 1.9923 0.2313
14 9 3 -7.4931 0.5488
14 9 5 -12.7216 0.4077
14 9 7 -11.0583 0.4468
14 9 9 -4.5050 0.4341
14 9 11 -4.7496 -0.2210
14 9 13 -15.7332 -0.4662
14 9 15 -17.8834 0.0290
14 9 17 -1.8735 0.4712
14 9 19 11.6218 0.7569
14 9 21 10.3068 0.4313
14 9 23 6.2327 -0.5467
14 9 25 5.8913 -0.6972
14 9 27 3.4699 -0.0016
14 9 29 -1.3312 -0.4700
14 9 31 -3.9616 -2.7710
14 10 -32 -0.4277 -4.0416
14 10 -30 4.9598 -2.0968
14 10 -28 4.2797 1.1151
14 10 -26 1.7739 1.0351
14 10 -24 2.5021 -1.0907
14 10 -22 1.0265 -0.8201
14 10 -20 -1.3325 1.0328
14 10 -18 0.0905 0.9962
14 10 -16 -0.8078 -0.2776
14 10 -14 -4.4611 -0.0042
14 10 -12 -2.0585 1.1126
14 10 -10 1.9922 0.6002
14 10 -8 -1.3164 -0.4927
14 10 -6 -4.9806 0.0327
14 10 -4 -2.0056 0.2547
14 10 -2 0.8663 -1.4844
14 10 0 0.1784 -1.7791
14 10 2 3.4035 0.3538
14 10 4 12.5352 0.4595
14 10 6 14.2167 -1.3250
14 10 8 -0.9803 -0.8451
14 10 10 -14.9099 0.3099
14 10 12 -5.5647 -0.3152
14 10 14 12.7190 -0.4093
14 10 16 13.6136 -0.0797
14 10 18 3.2909 -0.9355
14 10 20 -0.0772 -0.5928
14 10 22 1.6264 0.8374
14 10 24 1.2509 0.1208
14 10 26 -0.2627 -0.8262
14 10 28 -1.8760 0.7757
14 10 30 -2.6251 2.2358
14 11 -31 -3.6227 -1.7429
14 11 -29 -3.3906 0.6198
14 11 -27 -1.4038 0.8355
14 11 -25 -4.0280 -0.7060
14 11 -23 -5.4592 -1.0946
14 11 -21 -1.5757 -0.1443
14 11 -19 0.6171 0.8380
14 11 -17 2.5274 1.3793
14 11 -15 9.9673 0.7201
14 11 -13 13.8965 -0.3760
14 11 -11 6.0417 0.1080
14 11 -9 -2.7998 0.9850
14 11 -7 -2.6894 -0.0141
14 11 -5 -1.2892 -1.1906
14 11 -3 -3.2494 -0.2926
14 11 -1 0.2123 0.4990
14 11 1 5.6627 -0.8688
14 11 3 -2.0485 -1.5016
14 11 5 -13.6804 0.0435
14 11 7 -6.3935 0.4037
14 11 9 10.7540 -0.8301
14 11 11 12.0200 -1.1403
14 11 13 1.6811 -1.0357
14 11 15 0.2309 -0.7952
14 11 17 6.1708 0.0366
14 11 19 7.0920 -0.5814
14 11 21 4.2191 -2.0369
14 11 23 2.8409 -1.1198
14 11 25 1.6479 1.3829
14 11 27 0.9978 3.4635
14 12 -28 1.2698 0.5406
14 12 -26 5.5969 -1.4966
14 12 -24 4.4848 -2.3036
14 12 -22 -1.7980 -1.5523
14 12 -20 -3.9081 0.1678
14 12 -18 -0.3681 0.5229
14 12 -16 0.8699 -0.2973
14 12 -14 -3.7337 0.2185
14 12 -12 -7.4139 1.1204
14 12 -10 -2.1839 0.3966
14 12 -8 5.4434 -0.3997
14 12 -6 4.1518 0.1130
14 12 -4 0.7523 0.4967
14 12 -2 3.2706 0.0375
14 12 0 4.0494 -0.1865
14 12 2 3.7720 -0.1829
14 12 4 8.3086 -0.5694
14 12 6 6.6325 -0.3346
14 12 8 -3.2192 0.6376
14 12 10 -4.3086 0.4921
14 12 12 1.8923 -0.6174
14 12 14 0.3489 -1.0856
14 12 16 -5.4156 -0.9284
14 12 18 -6.2662 -0.3291
14 12 20 -5.0689 0.8208
14 12 22 -4.6493 1.8160
14 12 24 -2.9265 1.1725
14 13 -27 3.6749 -0.6743
14 13 -25 3.1758 -2.6910
14 13 -23 -0.0123 -1.4656
14 13 -21 -4.8602 -0.0492
14 13 -19 -4.9020 -0.5906
14 13 -17 -2.5704 -0.8403
14 13 -15 -4.1379 -0.0042
14 13 -13 -2.9091 -0.1505
14 13 -11 2.7553 -0.7474
14 13 -9 1.2853 -0.1935
14 13 -7 -3.8697 0.1244
14 13 -5 -1.4490 -0.4943
14 13 -3 2.4185 -0.4221
14 13 -1 3.8772 0.0985
14 13 1 8.0683 -0.2939
14 13 3 8.8499 -0.7169
14 13 5 4.9677 -0.0608
14 13 7 7.1759 0.7258
14 13 9 10.2919 0.5171
14 13 11 5.0522 -0.1084
14 13 13 0.6085 -0.0303
14 13 15 1.2045 0.4772
14 13 17 -0.8598 0.8221
14 13 19 -4.9802 1.4194
14 13 21 -7.1540 1.4189
14 13 23 -7.2808 -0.9451
14 14 -24 -3.1722 1.2106
14 14 -22 1.0339 -1.8059
14 14 -20 3.8170 -2.1403
14 14 -18 5.0542 -0.1824
14 14 -16 8.7846 0.0305
14 14 -14 8.2762 -0.5916
14 14 -12 -1.4062 0.4446
14 14 -10 -6.5961 0.5770
14 14 -8 0.1682 -1.1998
14 14 -6 3.7267 -1.6417
14 14 -4 -2.8010 -0.5256
14 14 -2 -6.4886 0.0086
14 14 0 -3.3932 -0.2115
14 14 2 -1.9494 -0.6922
14 14 4 -4.0008 -1.0323
14 14 6 -6.9773 -0.8827
14 14 8 -7.9529 -0.1872
14 14 10 -3.4926 0.9134
14 14 12 0.9715 1.0830
14 14 14 -0.3980 -0.0306
14 14 16 -0.0843 -0.5189
14 14 18 5.5985 -0.4728
14 14 20 8.0820 -0.6151
14 14 22 5.2403 0.7202
14 15 -21 2.0981 -1.3129
14 15 -19 1.4837 -4.3851
14 15 -17 3.0537 -3.4477
14 15 -15 4.0501 -0.6027
14 15 -13 1.9924 -0.1355
14 15 -11 1.0824 -0.4782
14 15 -9 3.1313 0.6046
14 15 -7 0.8657 0.8011
14 15 -5 -4.9857 -0.2263
14 15 -3 -4.5444 -0.0746
14 15 -1 -1.2806 0.4711
14 15 1 -2.9924 0.0483
14 15 3 -2.5896 -0.2721
14 15 5 3.7799 -0.1814
14 15 7 6.3878 -0.6911
14 15 9 1.9130 -1.6795
14 15 11 -2.1975 -1.3388
14 15 13 -1.8915 0.4397
14 15 15 -0.7347 1.0537
14 15 17 -2.2077 1.6673
14 16 -16 -3.3781 0.2379
14 16 -14 -2.6091 0.3222
14 16 -12 0.0042 -1.2379
14 16 -10 1.8659 -2.1195
14 16 -8 4.2839 -0.7881
14 16 -6 5.5793 0.5453
14 16 -4 -3.6131 0.5069
14 16 -2 -16.2216 0.1470
14 16 0 -11.9946 0.3018
14 16 2 1.5479 1.0246
14 16 4 3.1636 1.8266
14 16 6 -0.2766 1.6961
14 16 8 2.7753 0.7274
14 16 10 4.0740 0.0093
14 16 12 1.9314 -0.2375
14 16 14 3.4689 -0.3355
14 17 -11 5.6066 -1.2006
14 17 -9 6.2579 -4.7941
14 17 -7 2.9096 -2.2158
14 17 -5 -0.3726 1.1414
14 17 -3 2.5231 0.0510
14 17 -1 7.6647 -0.6408
14 17 1 6.2223 2.3337
14 17 3 1.0825 4.9779
14 17 5 -2.5471 5.3552
14 17 7 -6.7233 4.6012
14 17 11 -3.1680 0.9395
15 1 -38 2.4545 3.5113
15 1 -36 2.1309 -0.9735
15 1 -34 -1.1889 -2.3873
15 1 -32 -2.3815 0.3045
15 1 -30 -0.5339 0.9139
15 1 -28 1.5797 0.0512
15 1 -26 0.7768 0.7843
15 1 -24 -1.5945 0.3773
15 1 -22 0.8902 -1.2232
15 1 -20 5.5551 -0.4386
15 1 -18 1.7756 0.8032
15 1 -16 -6.2129 0.2958
15 1 -14 -5.5807 0.4284
15 1 -12 0.3740 0.9713
15 1 -10 2.0715 0.2356
15 1 -8 1.5494 -0.3567
15 1 -6 2.1697 -0.1249
15 1 -4 -0.5532 0.3658
15 1 -2 -8.4931 0.7864
15 1 0 -11.6366 0.0815
15 1 2 -1.4077 -0.7818
15 1 4 9.6165 0.0381
15 1 6 6.5231 0.5137
15 1 8 -0.1513 -0.8344
15 1 10 1.0904 -1.2426
15 1 12 1.9129 -0.0129
15 1 14 -0.6800 -0.0092
15 1 16 -1.2418 -0.9329
15 1 18 0.2760 -0.0437
15 1 20 6.3650 1.0149
15 1 22 12.1891 -0.2637
15 1 24 3.9727 -0.9655
15 1 26 -9.1961 0.3491
15 1 28 -9.7760 0.2832
15 1 30 -5.5422 -0.2694
15 1 32 -4.3796 1.9813
15 1 34 -0.3524 3.9947
15 1 36 3.0824 2.3690
15 2 -37 -1.3634 -3.7693
15 2 -35 -1.6376 -1.7893
15 2 -33 0.0708 1.9196
15 2 -31 2.9747 2.8058
15 2 -29 2.0984 1.6292
15 2 -27 -2.6683 2.0198
15 2 -25 -2.3211 2.5219
15 2 -23 2.5504 1.4517
15 2 -21 1.5788 0.9218
15 2 -19 -1.4383 0.6057
15 2 -17 1.3055 -1.4619
15 2 -15 1.6053 -2.7898
15 2 -13 -3.3400 -2.0658
15 2 -11 -1.8256 -2.7273
15 2 -9 4.9290 -4.1874
15 2 -7 3.5837 -3.0696
15 2 -5 -3.8678 -1.5353
15 2 -3 -2.4699 -1.4968
15 2 -1 8.1733 -0.5115
15 2 1 9.5275 1.1597
15 2 3 -2.4501 1.7170
15 2 5 -6.5890 2.2888
15 2 7 1.8025 3.1311
15 2 9 4.9472 3.2651
15 2 11 3.3997 3.1081
15 2 13 5.4664 2.4292
15 2 15 3.6129 1.0842
15 2 17 -1.0386 0.6893
15 2 19 -1.6626 0.8980
15 2 21 -4.0414 -0.2416
15 2 23 -4.2669 -1.6580
15 2 25 3.9958 -2.0580
15 2 27 7.2819 -2.9423
15 2 29 2.1254 -3.6028
15 2 31 -0.2107 -1.9404
15 2 33 -2.3241 -0.5741
15 2 35 -5.5212 -1.2098
15 3 -38 4.0227 4.0826
15 3 -36 3.8860 4.7599
15 3 -34 3.9237 2.5989
15 3 -32 3.4412 0.6815
15 3 -30 1.6827 0.8048
15 3 -28 -0.3721 1.5710
15 3 -26 -2.9092 1.7214
15 3 -24 -5.8047 1.6776
15 3 -22 -6.0478 1.4203
15 3 -20 -3.8670 0.3009
15 3 -18 -2.5352 -0.5571
15 3 -16 -0.5731 -0.7366
15 3 -14 2.2001 -1.8062
15 3 -12 -0.0373 -2.7149
15 3 -10 -5.9367 -1.8946
15 3 -8 -6.1682 -1.2342
15 3 -6 0.0163 -1.4803
15 3 -4 3.8159 -1.2796
15 3 -2 0.4990 -0.6839
15 3 0 -4.3081 0.0272
15 3 2 -2.8163 0.6443
15 3 4 1.2040 0.8572
15 3 6 -1.2544 1.6005
15 3 8 -6.7433 2.6335
15 3 10 -8.1298 2.3478
15 3 12 -7.3666 1.4307
15 3 14 -4.6281 1.3386
15 3 16 1.2960 1.1886
15 3 18 4.5784 -0.1675
15 3 20 3.9192 -1.1784
15 3 22 3.1308 -0.1479
15 3 24 0.6213 0.6568
15 3 26 -1.6044 -0.5625
15 3 28 1.3054 -1.3202
15 3 30 4.3179 -1.4324
15 3 32 3.4848 -2.3390
15 3 34 2.5877 -0.7705
15 4 -37 -2.6408 -0.8499
15 4 -35 -2.5342 -1.2667
15 4 -33 -3.6298 -2.0027
15 4 -31 -4.8258 0.2963
15 4 -29 -1.1034 2.0869
15 4 -27 6.9218 0.2251
15 4 -25 10.1135 -0.4316
15 4 -23 5.8853 0.9176
15 4 -21 2.0706 0.1086
15 4 -19 0.1856 -1.0026
15 4 -17 -3.9686 0.1415
15 4 -15 -5.4762 0.6429
15 4 -13 0.3263 -0.1848
15 4 -11 4.7585 0.1534
15 4 -9 1.8495 0.5741
15 4 -7 0.5457 -0.4670
15 4 -5 6.3806 -0.4896
15 4 -3 9.3266 0.7498
15 4 -1 2.3292 0.2117
15 4 1 -5.2456 -0.6910
15 4 3 -4.8122 0.2524
15 4 5 -0.9243 0.3535
15 4 7 2.8015 -0.6770
15 4 9 7.9514 -0.4714
15 4 11 10.2672 -0.3982
15 4 13 6.0141 -0.7725
15 4 15 0.2249 0.0191
15 4 17 -2.2205 0.4741
15 4 19 0.0728 0.3148
15 4 21 4.9519 0.7371
15 4 23 4.3903 0.2416
15 4 25 -2.4481 -0.4525
15 4 27 -5.1632 0.3782
15 4 29 -1.6484 0.1666
15 4 31 0.8028 -0.8191
15 4 33 0.4724 0.7187
15 4 35 -0.6809 1.3774
15 5 -36 -5.1332 1.7640
15 5 -34 -3.3148 2.4791
15 5 -32 -0.8209 2.3933
15 5 -30 0.7169 0.1241
15 5 -28 0.2847 -1.1941
15 5 -26 -1.0973 -0.1402
15 5 -24 -1.2845 1.1080
15 5 -22 -2.3469 0.4260
15 5 -20 -3.6605 -0.8309
15 5 -18 -0.5654 -0.3753
15 5 -16 2.7887 0.1907
15 5 -14 0.3746 -0.7239
15 5 -12 -2.0482 -0.8598
15 5 -10 0.4283 0.2678
15 5 -8 2.1710 0.3307
15 5 -6 -0.8977 -0.3777
15 5 -4 -3.8496 -0.2001
15 5 -2 0.0910 0.3328
15 5 0 6.9432 0.2586
15 5 2 5.5073 0.0746
15 5 4 -0.7377 0.4160
15 5 6 -0.9130 0.7141
15 5 8 -1.8697 0.4192
15 5 10 -9.0556 -0.0371
15 5 12 -9.5777 -0.4478
15 5 14 -1.5296 -0.6329
15 5 16 3.3310 -0.2639
15 5 18 3.8027 -0.1743
15 5 20 1.1636 -0.5134
15 5 22 -4.9193 -0.0580
15 5 24 -7.7765 0.4103
15 5 26 -7.2979 -0.1231
15 5 28 -8.3082 0.0213
15 5 30 -6.1696 0.8248
15 5 32 -0.7866 -0.0984
15 5 34 0.7947 -1.8224
15 6 -35 -3.3835 -2.0948
15 6 -33 0.1436 -2.0170
15 6 -31 0.6599 -1.4685
15 6 -29 -2.7674 -0.3690
15 6 -27 -4.3646 1.4980
15 6 -25 -3.2897 0.8265
15 6 -23 -1.2854 -1.2949
15 6 -21 1.1720 -0.2738
15 6 -19 1.5825 1.1586
15 6 -17 0.9114 -0.2443
15 6 -15 2.0946 -0.8184
15 6 -13 0.7248 0.3090
15 6 -11 -5.0120 -0.0274
15 6 -9 -7.4572 -0.8903
15 6 -7 -4.1510 -0.3981
15 6 -5 -0.9943 0.0469
15 6 -3 -1.6167 0.0268
15 6 -1 -3.6840 0.4823
15 6 1 -0.7224 0.5157
15 6 3 6.5653 -0.0196
15 6 5 7.0787 0.3738
15 6 7 1.4474 0.7134
15 6 9 1.1105 0.0072
15 6 11 1.9473 0.2652
15 6 13 -2.4932 0.9686
15 6 15 -2.6784 0.1279
15 6 17 1.8949 -0.2888
15 6 19 0.4117 -0.0338
15 6 21 -3.6647 -1.3720
15 6 23 -3.7965 -1.7843
15 6 25 -3.0337 0.4366
15 6 27 0.0263 1.5052
15 6 29 6.0660 0.8535
15 6 31 7.3193 0.7721
15 6 33 3.1155 -0.1882
15 7 -34 3.1290 -5.1211
15 7 -32 3.3287 -2.2683
15 7 -30 2.7141 0.1509
15 7 -28 1.5377 0.3030
15 7 -26 2.2099 -0.6744
15 7 -24 1.9230 -1.3047
15 7 -22 -1.2980 -1.3658
15 7 -20 -1.7108 -0.5348
15 7 -18 1.3423 0.4493
15 7 -16 0.6317 0.7129
15 7 -14 -2.4352 1.2030
15 7 -12 -0.7613 1.5234
15 7 -10 2.7193 0.4872
15 7 -8 1.2614 -0.2496
15 7 -6 -3.1046 0.4814
15 7 -4 -3.6969 1.0633
15 7 -2 0.2471 0.4508
15 7 0 2.2340 -0.5970
15 7 2 -0.7905 -0.7703
15 7 4 -4.1465 -0.1168
15 7 6 -5.7355 -0.2626
15 7 8 -5.9648 -1.1382
15 7 10 -1.4186 -1.0500
15 7 12 4.5683 -0.3748
15 7 14 3.5306 -0.6787
15 7 16 1.8349 -1.0560
15 7 18 7.9490 0.5344
15 7 20 9.4474 2.2510
15 7 22 -2.1996 0.7748
15 7 24 -10.4763 -1.1836
15 7 26 -5.5982 0.0968
15 7 28 -0.6178 1.2227
15 7 30 -1.7809 -0.3911
15 7 32 -1.3181 -1.3554
15 8 -33 -0.1888 2.2490
15 8 -31 -1.6847 -1.5977
15 8 -29 -0.3670 -1.7987
15 8 -27 -1.7364 -0.8995
15 8 -25 -2.0021 -1.9636
15 8 -23 2.6998 -2.0371
15 8 -21 3.5075 -0.2528
15 8 -19 -2.2135 0.3954
15 8 -17 -5.8608 0.1860
15 8 -15 -6.7561 0.7903
15 8 -13 -7.8308 1.1361
15 8 -11 -4.7365 0.6500
15 8 -9 2.3987 0.5668
15 8 -7 5.9041 0.9393
15 8 -5 3.2185 0.6033
15 8 -3 -1.3742 -0.2366
15 8 -1 -4.0367 -0.3034
15 8 1 -6.2365 -0.0134
15 8 3 -9.8364 -0.6817
15 8 5 -8.3881 -1.3944
15 8 7 -0.0948 -0.7088
15 8 9 1.3261 -0.0131
15 8 11 -6.5628 -0.9132
15 8 13 -7.1194 -1.5104
15 8 15 -0.2828 -0.0223
15 8 17 -0.3042 1.0193
15 8 19 -0.6176 -0.0868
15 8 21 11.8194 -0.4931
15 8 23 26.4517 0.4309
15 8 25 27.0719 0.0183
15 8 27 15.7241 -0.5264
15 8 29 3.0875 0.7308
15 8 31 -4.6618 0.9348
15 9 -32 -0.9230 -1.0519
15 9 -30 -1.7987 -0.3596
15 9 -28 -0.1233 -1.3425
15 9 -26 2.1139 -2.3027
15 9 -24 -0.9139 -1.3843
15 9 -22 -2.1933 0.2707
15 9 -20 4.1872 0.6554
15 9 -18 9.4824 -0.2175
15 9 -16 9.2160 -0.7534
15 9 -14 8.2357 -0.1328
15 9 -12 6.1804 0.7667
15 9 -10 1.2677 0.6229
15 9 -8 -1.8216 -0.1188
15 9 -6 -0.0109 0.0714
15 9 -4 2.2866 0.4441
15 9 -2 1.5838 -0.2131
15 9 0 3.7053 -0.4671
15 9 2 11.8100 0.0026
15 9 4 13.0612 -0.2294
15 9 6 0.7557 -0.2885
15 9 8 -6.8763 0.3228
15 9 10 0.6970 0.0783
15 9 12 6.5016 -0.3913
15 9 14 1.9580 0.0355
15 9 16 -1.0189 0.1153
15 9 18 -0.8386 -0.3062
15 9 20 -5.0278 -0.0117
15 9 22 -8.9974 0.2757
15 9 24 -7.2868 -0.5032
15 9 26 -4.4358 -1.1055
15 9 28 -2.5374 -0.6706
15 9 30 0.4754 -0.7573
15 10 -31 0.2561 1.2039
15 10 -29 -1.0402 1.2148
15 10 -27 -3.6874 0.0832
15 10 -25 -4.3942 -0.6210
15 10 -23 -3.1033 -0.3809
15 10 -21 -1.9200 -0.3293
15 10 -19 -0.0432 -0.0231
15 10 -17 2.3934 0.4293
15 10 -15 3.5065 -0.0003
15 10 -13 2.2231 -0.3239
15 10 -11 -0.6595 0.1835
15 10 -9 -1.3427 0.2725
15 10 -7 -0.5132 -0.1204
15 10 -5 -2.1597 0.1457
15 10 -3 0.2890 0.3151
15 10 -1 8.0324 -0.6973
15 10 1 3.9465 -1.1031
15 10 3 -9.6918 0.1398
15 10 5 -7.7157 0.5675
15 10 7 5.3911 -0.2383
15 10 9 4.2784 -0.1897
15 10 11 -6.5520 0.0070
15 10 13 -8.5690 -0.3326
15 10 15 -3.7404 0.1836
15 10 17 -0.6104 0.8391
15 10 19 -0.3226 0.6218
15 10 21 -3.3497 0.3537
15 10 23 -7.9341 -0.5117
15 10 25 -8.8640 -2.5019
15 10 27 -5.3525 -3.7349
15 10 29 -1.6577 -2.5941
15 11 -30 5.2290 3.6497
15 11 -28 7.0021 2.0225
15 11 -26 5.1705 -1.4711
15 11 -24 1.4318 -2.3663
15 11 -22 -3.0587 -0.1011
15 11 -20 -5.9613 0.7186
15 11 -18 -2.4595 -0.9759
15 11 -16 2.1547 -0.6979
15 11 -14 -1.6785 1.4997
15 11 -12 -6.7185 1.2923
15 11 -10 -3.8600 -0.3458
15 11 -8 -0.1124 -0.2081
15 11 -6 1.4779 0.4137
15 11 -4 4.0597 0.0983
15 11 -2 2.4613 -0.1753
15 11 0 -0.4073 -0.6861
15 11 2 3.9627 -1.4167
15 11 4 5.5921 -0.7642
15 11 6 -0.7896 0.2253
15 11 8 0.3442 -0.2699
15 11 10 9.8953 -0.4267
15 11 12 12.3033 0.5553
15 11 14 6.0665 0.3082
15 11 16 -1.9667 -0.8424
15 11 18 -7.7573 -0.4998
15 11 20 -6.3059 0.8271
15 11 22 0.3371 0.7718
15 11 24 4.4806 -1.9071
15 11 26 5.4697 -5.0895
15 12 -27 1.8742 -2.3509
15 12 -25 0.3608 1.5105
15 12 -23 -3.5026 2.0573
15 12 -21 -2.5477 -1.2665
15 12 -19 -0.1521 -2.4457
15 12 -17 -2.7780 -0.2652
15 12 -15 -2.8772 0.9866
15 12 -13 4.8262 0.2198
15 12 -11 10.5647 -0.3842
15 12 -9 8.6888 -0.4270
15 12 -7 3.2140 -0.2818
15 12 -5 -3.9868 0.2608
15 12 -3 -8.4199 0.7966
15 12 -1 -3.4749 0.9039
15 12 1 5.3426 0.3220
15 12 3 8.4255 -0.6016
15 12 5 6.5073 -0.2976
15 12 7 3.6205 0.8154
15 12 9 2.7513 0.6125
15 12 11 5.7254 -0.3213
15 12 13 6.7639 -0.7306
15 12 15 2.0674 -0.7773
15 12 17 -1.2288 -0.0192
15 12 19 -0.6527 0.8528
15 12 21 -1.2391 1.4559
15 12 23 -2.1678 4.5416
15 12 25 -1.9209 8.7233
15 13 -26 -1.4655 -2.6803
15 13 -24 4.3299 -3.1459
15 13 -22 7.3487 -2.4051
15 13 -20 5.1179 -0.7808
15 13 -18 5.3595 0.6881
15 13 -16 6.1148 0.7692
15 13 -14 -0.4434 -0.0338
15 13 -12 -9.6257 -0.6060
15 13 -10 -11.4288 -0.6749
15 13 -8 -7.0788 -0.3844
15 13 -6 -4.4718 -0.0455
15 13 -4 -4.4386 0.2604
15 13 -2 -4.9660 0.4648
15 13 0 -8.9906 0.5989
15 13 2 -12.8585 1.1713
15 13 4 -7.2653 1.4879
15 13 6 1.7723 0.6589
15 13 8 1.5622 -0.0136
15 13 10 -4.0312 0.2579
15 13 12 -5.1461 0.8471
15 13 14 -1.7959 1.3385
15 13 16 2.2100 0.8692
15 13 18 4.3898 0.7790
15 13 20 3.5932 2.9007
15 13 22 1.4859 2.9992
15 14 -23 -2.2182 7.0325
15 14 -21 2.1848 0.2086
15 14 -19 0.3272 -3.6859
15 14 -17 -1.5824 -1.5153
15 14 -15 2.0403 0.6895
15 14 -13 5.6231 -0.4136
15 14 -11 7.0913 -1.1983
15 14 -9 8.3414 -0.2715
15 14 -7 8.4420 -0.2135
15 14 -5 7.6931 -0.9865
15 14 -3 5.1712 -0.8642
15 14 -1 1.9162 -0.3646
15 14 1 4.3429 -0.1633
15 14 3 8.0111 0.4269
15 14 5 3.4046 1.1332
15 14 7 -2.6061 1.0407
15 14 9 -3.4447 0.8344
15 14 11 -4.3826 0.9151
15 14 13 -3.6302 0.4187
15 14 15 0.7586 0.5222
15 14 17 0.2764 1.9301
15 14 19 -4.4082 0.9749
15 14 21 -4.4575 -3.1818
15 15 -20 1.6299 3.4023
15 15 -18 -2.3376 -1.2107
15 15 -16 -11.4774 -2.3487
15 15 -14 -11.7979 -0.1605
15 15 -12 -4.5979 -0.3894
15 15 -10 -1.5936 -2.8583
15 15 -8 -0.7360 -2.5617
15 15 -6 0.2809 0.2595
15 15 -4 -3.6669 0.6032
15 15 -2 -7.0878 -1.4254
15 15 0 -5.1964 -1.3991
15 15 2 -5.5945 0.3193
15 15 4 -7.4035 0.7356
15 15 6 -4.8300 0.2015
15 15 8 -2.4265 -0.5178
15 15 10 0.6366 -1.0329
15 15 12 7.9661 0.1151
15 15 14 9.4591 1.2653
15 15 16 1.8889 -0.9540
15 16 -15 2.1367 2.2809
15 16 -13 3.1261 -0.1333
15 16 -11 8.6856 -0.9663
15 16 -9 11.3955 -0.4604
15 16 -7 6.6154 0.1643
15 16 -5 1.7596 0.2544
15 16 -3 0.6626 1.1398
15 16 -1 -2.5068 1.6841
15 16 1 -6.0212 -0.1065
15 16 3 -3.2546 -1.9130
15 16 5 0.5727 -1.7284
15 16 7 -0.0970 -0.8543
15 16 9 -1.0799 -0.5413
15 16 11 -2.1245 -1.3885
15 16 13 -4.8123 -2.1954
15 17 -10 -5.4009 -0.6947
15 17 -8 -13.0520 -0.2192
15 17 -6 -6.2638 2.9018
15 17 -4 7.8334 2.7602
15 17 -2 11.2396 -1.0385
15 17 0 5.8785 -1.4027
15 17 2 2.3831 1.6291
15 17 4 -1.7377 1.2110
15 17 6 -6.1412 -2.0932
16 0 -38 -4.2123 4.7356
16 0 -36 -3.1321 -3.7186
16 0 -34 0.8265 -2.1900
16 0 -32 4.4176 5.9859
16 0 -30 4.2948 6.4405
16 0 -28 1.8621 3.8885
16 0 -26 0.5518 8.5041
16 0 -24 1.7006 12.7875
16 0 -22 1.0087 8.7761
16 0 -20 -4.5310 4.5100
16 0 -18 -5.8765 6.1922
16 0 -16 3.5647 5.6331
16 0 -14 12.8122 -2.2688
16 0 -12 13.3667 -8.0895
16 0 -10 11.5592 -6.3034
16 0 -8 9.7432 -6.8401
16 0 -6 3.2543 -13.7622
16 0 -4 -3.4616 -14.6551
16 0 -2 0.6904 -6.8191
16 0 0 13.7825 -4.8030
16 0 2 16.7738 -8.8841
16 0 4 3.7302 -3.6796
16 0 6 -3.1241 6.7754
16 0 8 5.1868 6.9060
16 0 10 10.5816 4.0924
16 0 12 10.6816 10.4086
16 0 14 13.1478 14.4411
16 0 16 9.1831 8.1859
16 0 18 2.4172 4.8931
16 0 20 4.5877 8.2553
16 0 22 1.7674 5.5707
16 0 24 -10.5450 -2.7226
16 0 26 -11.5994 -4.9292
16 0 28 -2.9103 -3.0311
16 0 30 -1.2060 -5.2997
16 0 32 -3.3622 -7.0997
16 1 -37 2.3060 7.1940
16 1 -35 1.0625 4.1730
16 1 -33 -0.5431 0.2205
16 1 -31 0.6597 -2.5125
16 1 -29 1.8748 -0.7383
16 1 -27 0.1135 2.7828
16 1 -25 -2.0134 1.0517
16 1 -23 -1.3442 -1.4321
16 1 -21 2.3229 2.3304
16 1 -19 5.7225 3.7747
16 1 -17 3.3179 -1.8284
16 1 -15 -5.2169 -2.6543
16 1 -13 -12.6615 2.3464
16 1 -11 -12.9003 0.8901
16 1 -9 -6.9109 -3.9253
16 1 -7 -0.4359 -1.2619
16 1 -5 2.4192 2.3970
16 1 -3 0.9911 -1.7870
16 1 -1 -6.0669 -4.8500
16 1 1 -14.4138 0.1548
16 1 3 -11.5138 2.7620
16 1 5 -0.0367 -1.7042
16 1 7 1.7193 -2.4018
16 1 9 -5.5073 2.6015
16 1 11 -8.0062 2.9954
16 1 13 -7.8863 -1.1389
16 1 15 -8.0239 -0.7472
16 1 17 -3.6068 2.7715
16 1 19 0.2032 1.1378
16 1 21 -0.1134 -2.6301
16 1 23 1.2976 0.0201
16 1 25 1.6649 3.5309
16 1 27 -1.6738 -0.7134
16 1 29 -1.3392 -4.5788
16 1 31 2.2162 -1.6315
16 1 33 2.7324 -1.1821
16 1 35 1.3573 -5.0051
16 2 -38 -0.4420 2.2164
16 2 -36 -2.5867 0.7922
16 2 -34 -1.3716 -2.9142
16 2 -32 -0.5923 -2.2709
16 2 -30 -1.6605 1.2527
16 2 -28 -0.8934 -0.1143
16 2 -26 1.7758 -2.4330
16 2 -24 1.4301 0.3076
16 2 -22 -1.5636 0.9619
16 2 -20 -2.5540 -2.4764
16 2 -18 -2.9898 -1.2150
16 2 -16 -4.5002 2.2763
16 2 -14 -1.5141 0.1628
16 2 -12 5.0102 -2.1328
16 2 -10 4.7628 0.5496
16 2 -8 -0.6249 1.7515
16 2 -6 1.1651 -0.9419
16 2 -4 8.2384 -0.9068
16 2 -2 8.6479 2.1757
16 2 0 3.9857 1.6262
16 2 2 2.9944 -1.2369
16 2 4 2.8154 -0.4453
16 2 6 -1.1574 1.1945
16 2 8 -2.2209 -0.3848
16 2 10 2.6222 -1.4691
16 2 12 4.7859 -0.0094
16 2 14 2.7510 0.4706
16 2 16 3.4875 -1.1753
16 2 18 4.8878 -1.6666
16 2 20 2.6071 0.5777
16 2 22 1.8354 1.3750
16 2 24 4.2220 -1.1398
16 2 26 3.7836 -1.1710
16 2 28 0.2854 1.3228
16 2 30 -1.9395 -0.6131
16 2 32 -2.4370 -3.8401
16 2 34 -2.9057 -2.0919
16 3 -37 -2.7908 -4.5716
16 3 -35 -1.1645 -0.8780
16 3 -33 -1.0370 1.5293
16 3 -31 -2.6258 0.1862
16 3 -29 -1.6130 -1.4890
16 3 -27 -0.3452 -0.8956
16 3 -25 -2.4894 0.3930
16 3 -23 -3.5658 0.7153
16 3 -21 -2.3049 0.4581
16 3 -19 -3.3280 0.4935
16 3 -17 -4.5704 0.5435
16 3 -15 -2.2293 -0.2118
16 3 -13 0.6888 -0.6232
16 3 -11 2.3835 0.0629
16 3 -9 4.3719 -0.3319
16 3 -7 4.9269 -1.3419
16 3 -5 1.5510 -0.5100
16 3 -3 -2.1797 -0.0905
16 3 -1 0.6926 -1.2132
16 3 1 6.4415 -0.6344
16 3 3 2.5755 0.6052
16 3 5 -5.9461 0.2231
16 3 7 -3.2737 0.6554
16 3 9 3.4364 1.4841
16 3 11 1.1524 0.2384
16 3 13 -2.1133 -0.1641
16 3 15 -2.2057 1.5941
16 3 17 -3.7851 1.5177
16 3 19 -1.0470 -0.3730
16 3 21 3.2731 -0.5405
16 3 23 -1.8559 0.0877
16 3 25 -6.5419 -0.3914
16 3 27 -0.2098 0.0158
16 3 29 6.6609 1.6380
16 3 31 7.2509 1.6255
16 3 33 5.4411 0.5356
16 3 35 3.5458 0.7149
16 4 -36 -2.3265 -3.9633
16 4 -34 -2.7509 -3.0532
16 4 -32 0.0657 -1.0855
16 4 -30 2.0050 0.7917
16 4 -28 0.6169 0.7946
16 4 -26 0.0635 -0.6130
16 4 -24 1.8720 -1.6693
16 4 -22 3.6490 -1.4003
16 4 -20 5.2797 -0.3014
16 4 -18 6.4380 0.0593
16 4 -16 5.8892 -0.1515
16 4 -14 3.1572 0.4038
16 4 -12 -3.4428 1.0674
16 4 -10 -11.6194 0.9137
16 4 -8 -13.5117 0.5960
16 4 -6 -6.8408 0.7442
16 4 -4 2.3828 1.0715
16 4 -2 5.2696 0.6914
16 4 0 -2.5122 -0.1106
16 4 2 -8.6952 0.1182
16 4 4 -0.1189 0.4974
16 4 6 9.3983 -0.5258
16 4 8 4.8836 -1.0795
16 4 10 -1.2679 0.1030
16 4 12 -0.2464 0.4821
16 4 14 1.1095 -0.8259
16 4 16 3.2827 -1.0850
16 4 18 4.6455 0.2199
16 4 20 -0.6529 0.4986
16 4 22 -3.5931 -0.2034
16 4 24 -0.4233 -0.1295
16 4 26 -2.8632 -0.3290
16 4 28 -7.7811 -0.4673
16 4 30 -4.1264 2.3263
16 4 32 2.0624 5.6412
16 4 34 2.7793 4.9016
16 5 -35 3.7633 0.3126
16 5 -33 3.1513 0.2925
16 5 -31 0.4929 -0.4733
16 5 -29 -2.1497 -0.8552
16 5 -27 -2.4284 -0.5845
16 5 -25 -0.5396 -1.5149
16 5 -23 -0.0756 -2.2452
16 5 -21 -0.6335 -1.4177
16 5 -19 3.1560 -0.9716
16 5 -17 8.0728 -1.0378
16 5 -15 4.8991 0.3145
16 5 -13 -0.9545 1.6330
16 5 -11 3.0828 0.8378
16 5 -9 10.9282 0.6017
16 5 -7 6.6155 2.2204
16 5 -5 -8.3086 2.0683
16 5 -3 -16.1688 0.4539
16 5 -1 -7.3008 0.8084
16 5 1 6.0810 1.4086
16 5 3 5.7963 0.3736
16 5 5 -4.8551 -0.5952
16 5 7 -8.5570 -1.2470
16 5 9 -4.0951 -1.3952
16 5 11 -1.3776 -0.4433
16 5 13 0.1855 -0.4917
16 5 15 3.1342 -1.8196
16 5 17 3.1166 -1.7098
16 5 19 0.5744 -0.4917
16 5 21 -0.3833 -0.4322
16 5 23 -0.4852 -0.9759
16 5 25 -0.1995 -0.1858
16 5 27 0.1366 0.9979
16 5 29 -2.9392 -0.4442
16 5 31 -7.1350 -3.6768
16 5 33 -5.6759 -4.7376
16 6 -34 4.2182 -0.2778
16 6 -32 5.1988 0.0027
16 6 -30 0.3743 -0.3206
16 6 -28 -2.3212 -1.0218
16 6 -26 0.1567 -1.3017
16 6 -24 3.5608 -1.2854
16 6 -22 2.9099 -0.4290
16 6 -20 -3.3740 0.3188
16 6 -18 -8.9429 -0.2880
16 6 -16 -7.1922 -0.4568
16 6 -14 -3.1914 0.2356
16 6 -12 -3.4076 0.0661
16 6 -10 -3.9818 0.0675
16 6 -8 -0.8339 0.9765
16 6 -6 3.3264 0.7724
16 6 -4 4.8166 -0.1630
16 6 -2 2.5051 0.2724
16 6 0 -0.7840 0.8176
16 6 2 -1.5403 -0.1853
16 6 4 -1.1054 -0.7336
16 6 6 -0.5328 0.1092
16 6 8 1.5396 -0.0856
16 6 10 2.0899 -0.8822
16 6 12 -1.1447 -0.0543
16 6 14 -3.8907 0.4270
16 6 16 -3.5058 -0.3968
16 6 18 -1.0406 -0.2577
16 6 20 2.4185 -0.4963
16 6 22 4.5840 -2.0620
16 6 24 5.1235 -1.7829
16 6 26 6.2121 -0.4842
16 6 28 6.8490 -0.5759
16 6 30 5.1587 0.1561
16 6 32 1.9577 1.0492
16 7 -35 1.4849 1.5320
16 7 -33 -1.5070 -1.0412
16 7 -31 0.4112 -0.4394
16 7 -29 0.4839 1.5173
16 7 -27 -3.3518 0.3112
16 7 -25 -4.9289 -1.1931
16 7 -23 -2.2523 -0.2905
16 7 -21 3.3049 0.5340
16 7 -19 7.2812 0.0738
16 7 -17 3.6079 -0.3486
16 7 -15 -2.7174 0.0982
16 7 -13 -2.1745 0.9584
16 7 -11 1.4473 0.6844
16 7 -9 0.4317 -0.6172
16 7 -7 -2.4004 -0.4135
16 7 -5 -1.4631 1.0758
16 7 -3 1.7651 0.6763
16 7 -1 1.4175 -0.8207
16 7 1 -2.4526 -0.3214
16 7 3 -2.5375 0.3507
16 7 5 0.2607 -0.7325
16 7 7 -1.5182 -0.5167
16 7 9 -2.2043 0.9311
16 7 11 3.8948 0.1887
16 7 13 4.8424 -0.5442
16 7 15 -2.9252 0.9037
16 7 17 -6.4024 0.9433
16 7 19 -5.2847 -0.4455
16 7 21 -6.0744 -0.1468
16 7 23 -2.2655 -0.3285
16 7 25 6.7017 -1.9232
16 7 27 8.1464 -1.0681
16 7 29 0.4558 0.7890
16 7 31 -4.5272 -0.7366
16 8 -34 0.1802 4.6200
16 8 -32 -0.6069 3.2360
16 8 -30 1.7109 -0.0861
16 8 -28 4.6821 -1.5885
16 8 -26 3.0404 -1.3721
16 8 -24 -0.3169 -0.6589
16 8 -22 -1.8205 -0.4465
16 8 -20 -2.3289 -0.7594
16 8 -18 -0.6422 -0.0471
16 8 -16 2.9441 0.9335
16 8 -14 4.6931 0.4896
16 8 -12 4.2377 0.1268
16 8 -10 3.0340 0.6677
16 8 -8 1.6084 0.7809
16 8 -6 0.1718 0.7941
16 8 -4 -2.2782 1.1343
16 8 -2 -3.1389 0.6375
16 8 0 0.6140 -0.4666
16 8 2 2.5289 -0.6321
16 8 4 0.1810 -0.0594
16 8 6 2.0987 -0.0127
16 8 8 4.4160 -0.2451
16 8 10 -2.4669 -0.1822
16 8 12 -6.4733 -0.2054
16 8 14 2.2207 -0.0577
16 8 16 7.8559 0.1651
16 8 18 3.8480 -0.1572
16 8 20 4.3986 0.4607
16 8 22 9.0424 1.9666
16 8 24 5.1698 1.2886
16 8 26 -2.5934 -0.6075
16 8 28 -3.4400 -0.5252
16 8 30 -0.7427 0.8194
16 9 -31 -4.0752 -1.3172
16 9 -29 -7.0578 -1.2523
16 9 -27 -6.1517 -1.4425
16 9 -25 -5.9369 -0.3057
16 9 -23 -5.3908 0.0934
16 9 -21 -1.6697 -0.6261
16 9 -19 1.6574 -0.7456
16 9 -17 4.0209 -0.1780
16 9 -15 5.7228 0.0044
16 9 -13 1.1475 -0.4250
16 9 -11 -5.8565 -0.3051
16 9 -9 -4.9196 0.6595
16 9 -7 -1.0429 0.6988
16 9 -5 -1.3266 -0.3149
16 9 -3 0.1003 -0.3777
16 9 -1 3.8385 0.3821
16 9 1 3.2431 0.4677
16 9 3 -1.3249 0.3356
16 9 5 -5.7028 0.6257
16 9 7 -4.3542 0.2215
16 9 9 4.1766 -0.8427
16 9 11 7.0571 -0.5946
16 9 13 -2.9127 0.5998
16 9 15 -11.8665 0.6838
16 9 17 -11.7214 0.4189
16 9 19 -10.2199 0.9563
16 9 21 -9.7872 1.3366
16 9 23 -8.5444 1.0857
16 9 25 -8.7812 -0.3395
16 9 27 -7.8158 -2.7133
16 9 29 -1.6275 -2.8290
16 10 -30 7.4631 2.6710
16 10 -28 6.8235 0.8246
16 10 -26 5.2408 0.1646
16 10 -24 2.4941 1.2378
16 10 -22 -3.5238 1.4354
16 10 -20 -5.2903 -0.0778
16 10 -18 -2.0328 -1.3103
16 10 -16 -2.9910 -0.7778
16 10 -14 -4.8002 0.4257
16 10 -12 0.1618 0.2686
16 10 -10 4.2790 -1.0571
16 10 -8 2.7583 -1.3848
16 10 -6 4.1536 -0.3495
16 10 -4 8.5546 0.0194
16 10 -2 6.0138 -0.7762
16 10 0 -2.3256 -0.7603
16 10 2 -4.0676 0.4934
16 10 4 4.5914 0.9746
16 10 6 9.8030 0.2938
16 10 8 1.1064 0.1583
16 10 10 -6.7589 0.8682
16 10 12 0.2049 1.1987
16 10 14 6.8877 0.6093
16 10 16 0.2552 -0.2907
16 10 18 -7.2878 -0.5683
16 10 20 -7.5651 -0.1843
16 10 22 -5.3681 0.3641
16 10 24 0.0150 1.0183
16 10 26 6.5680 1.1816
16 10 28 5.6705 0.7233
16 11 -29 0.0546 0.6851
16 11 -27 0.9517 1.4375
16 11 -25 2.6305 1.0351
16 11 -23 7.9059 0.0008
16 11 -21 10.1308 -0.6372
16 11 -19 3.3609 -0.1532
16 11 -17 -4.5215 1.0201
16 11 -15 -4.2513 0.7429
16 11 -13 1.7219 -1.0473
16 11 -11 4.4559 -1.2725
16 11 -9 1.4801 0.3174
16 11 -7 -1.7042 0.1108
16 11 -5 -4.8292 -1.7396
16 11 -3 -10.4456 -1.1195
16 11 -1 -10.3515 0.8137
16 11 1 -1.0077 -0.0509
16 11 3 3.5554 -1.2596
16 11 5 -0.9538 0.1639
16 11 7 0.4727 1.0308
16 11 9 9.7735 0.1462
16 11 11 10.9091 -0.2269
16 11 13 1.9230 -0.3839
16 11 15 -2.3019 -0.4687
16 11 17 2.7050 0.1620
16 11 19 8.0462 -0.2290
16 11 21 8.8477 -1.7149
16 11 23 6.0603 -1.1886
16 11 25 1.1498 2.3376
16 12 -26 -2.4908 2.9583
16 12 -24 -0.2788 2.8930
16 12 -22 0.0925 -1.2745
16 12 -20 -2.9168 -1.3813
16 12 -18 -3.5598 1.4504
16 12 -16 2.0582 0.6385
16 12 -14 4.3654 -1.6783
16 12 -12 -0.8532 -1.0106
16 12 -10 -1.0254 -0.0029
16 12 -8 3.9522 -0.8458
16 12 -6 2.1131 -0.7334
16 12 -4 -1.0701 0.3210
16 12 -2 0.2140 -0.2876
16 12 0 -1.2271 -0.9605
16 12 2 -0.4856 -0.1227
16 12 4 6.3947 0.0476
16 12 6 4.4784 -0.4232
16 12 8 -5.5804 0.1318
16 12 10 -4.3416 0.4513
16 12 12 7.3472 -0.3551
16 12 14 13.5485 -1.0938
16 12 16 10.1365 -1.1037
16 12 18 2.9892 -0.5933
16 12 20 -0.8611 -0.2968
16 12 22 0.4957 0.1033
16 12 24 1.4573 1.6801
16 13 -25 -5.0781 3.4789
16 13 -23 -1.5079 2.4846
16 13 -21 3.2021 0.7233
16 13 -19 5.0100 -1.6256
16 13 -17 0.5783 -1.2827
16 13 -15 -3.7003 0.4479
16 13 -13 0.5412 -0.0940
16 13 -11 4.3748 -1.2106
16 13 -9 -0.9180 -0.5610
16 13 -7 -3.7761 -0.0022
16 13 -5 0.9084 -0.4430
16 13 -3 3.3610 -0.2757
16 13 -1 4.5717 0.6070
16 13 1 6.5255 0.8012
16 13 3 2.3826 0.0301
16 13 5 -1.9540 -0.4349
16 13 7 -1.0699 -0.0429
16 13 9 -5.7880 -0.0611
16 13 11 -12.3159 -0.3348
16 13 13 -6.4125 0.6992
16 13 15 2.3640 1.3329
16 13 17 1.7801 -0.3693
16 13 19 -0.5447 -1.8195
16 13 21 -0.2330 -1.8404
16 14 -22 5.1976 1.5075
16 14 -20 2.7226 2.6704
16 14 -18 -2.5647 0.9460
16 14 -16 -3.2707 -1.2196
16 14 -14 -0.7504 -1.2802
16 14 -12 -2.0265 -0.7650
16 14 -10 -3.5054 -0.8873
16 14 -8 1.2782 -0.0554
16 14 -6 6.5155 0.9675
16 14 -4 4.7369 0.3789
16 14 -2 -1.1088 -0.0967
16 14 0 -5.5802 0.5011
16 14 2 -7.1916 0.6354
16 14 4 -7.3173 0.1684
16 14 6 -7.4936 -0.3006
16 14 8 -4.6540 -0.3018
16 14 10 1.4770 0.1076
16 14 12 1.4163 -0.4083
16 14 14 -6.6270 -0.3641
16 14 16 -11.5383 2.1962
16 14 18 -10.3006 3.2117
16 15 -19 1.0452 2.0447
16 15 -17 -0.4879 -0.3262
16 15 -15 -5.0346 -0.4044
16 15 -13 -5.1936 0.7503
16 15 -11 -1.2057 0.4924
16 15 -9 0.2872 -0.2124
16 15 -7 -1.7529 -0.1798
16 15 -5 -1.2979 -0.1482
16 15 -3 0.2854 -0.6078
16 15 -1 -4.1510 -0.6325
16 15 1 -8.8647 -0.1021
16 15 3 -5.5229 -0.7974
16 15 5 -0.4212 -2.3565
16 15 7 2.0463 -2.1350
16 15 9 5.2118 -0.2512
16 15 11 5.1339 1.4609
16 15 13 -0.6162 2.0121
16 15 15 -4.0871 0.9346
16 16 -14 9.6688 -1.4405
16 16 -12 12.2991 -1.7463
16 16 -10 8.6535 -0.2668
16 16 -8 1.4264 -0.0814
16 16 -6 1.0875 -0.3299
16 16 -4 4.4267 0.2823
16 16 -2 4.1286 0.8767
16 16 0 4.1404 0.5867
16 16 2 3.3228 -0.3757
16 16 4 -2.6136 -1.4850
16 16 6 -6.5692 -2.1396
16 16 8 -5.0286 -2.8349
16 16 10 -3.0470 -4.8912
16 16 12 -0.2655 -6.5962
16 17 -9 -20.2067 8.9836
16 17 -5 -7.4746 2.8766
16 17 -3 0.3477 2.8799
16 17 -1 7.3038 2.6030
16 17 1 6.2195 1.4266
16 17 3 4.2179 1.2845
16 17 5 6.3909 3.0490
16 17 7 4.4425 4.9105
17 1 -36 0.6990 1.2305
17 1 -34 1.6538 0.0968
17 1 -32 0.2338 0.1255
17 1 -30 -0.4152 0.6890
17 1 -28 3.1201 -1.0632
17 1 -26 4.9527 -1.6054
17 1 -24 2.5472 0.3472
17 1 -22 3.4438 0.6273
17 1 -20 5.1264 -0.1046
17 1 -18 -2.5744 0.9798
17 1 -16 -11.3286 1.3909
17 1 -14 -7.5633 -0.1772
17 1 -12 -0.0609 -0.2196
17 1 -10 -0.2205 1.2784
17 1 -8 0.1107 0.4967
17 1 -6 6.3258 -1.2238
17 1 -4 7.0666 -0.4507
17 1 -2 -0.4517 0.3420
17 1 0 -0.8736 -0.7849
17 1 2 8.5442 -1.0886
17 1 4 9.8064 -0.4583
17 1 6 1.1578 -0.3697
17 1 8 -0.0485 -0.0116
17 1 10 4.3326 0.2567
17 1 12 2.6815 0.3424
17 1 14 1.5059 1.0622
17 1 16 3.5373 0.6989
17 1 18 2.4866 -0.2263
17 1 20 4.8760 0.6581
17 1 22 9.8794 0.2960
17 1 24 4.0856 -2.2571
17 1 26 -4.5809 -1.3321
17 1 28 -2.5579 2.2402
17 1 30 1.8471 1.9569
17 1 32 3.0419 -0.0780
17 1 34 5.5258 1.6447
17 2 -37 1.9862 -0.6756
17 2 -35 0.3766 1.7609
17 2 -33 -1.6470 0.7377
17 2 -31 -2.6238 0.1817
17 2 -29 -3.7689 0.6721
17 2 -27 -5.3057 -1.4230
17 2 -25 -3.5804 -3.1216
17 2 -23 -0.3964 -1.9350
17 2 -21 -0.7872 -1.6176
17 2 -19 -1.1153 -2.7456
17 2 -17 2.3746 -2.7532
17 2 -15 4.4674 -2.0292
17 2 -13 2.7949 -1.1720
17 2 -11 1.4362 -0.0868
17 2 -9 0.9692 0.5328
17 2 -7 -0.8332 1.4124
17 2 -5 -2.3717 2.8620
17 2 -3 -0.2675 2.8693
17 2 -1 2.0213 2.0782
17 2 1 -3.3222 3.0340
17 2 3 -10.3953 3.5244
17 2 5 -6.0358 1.1475
17 2 7 2.0473 -0.2640
17 2 9 0.1692 0.9848
17 2 11 -4.7173 0.4519
17 2 13 -6.4118 -2.0578
17 2 15 -7.8952 -2.6717
17 2 17 -4.9685 -2.4221
17 2 19 -1.3870 -3.0671
17 2 21 -4.9092 -2.6551
17 2 23 -2.5131 -1.4545
17 2 25 8.9753 -1.7063
17 2 27 9.6933 -2.5114
17 2 29 1.9799 -1.8335
17 2 31 2.0633 -0.0813
17 2 33 3.5662 0.4782
17 3 -36 -0.3488 -2.4205
17 3 -34 0.8088 -0.7146
17 3 -32 3.7347 -0.6520
17 3 -30 5.0951 -1.5118
17 3 -28 4.4856 -0.6629
17 3 -26 4.0927 -0.1424
17 3 -24 2.9159 -1.1394
17 3 -22 -0.3544 -1.3927
17 3 -20 -2.3893 -1.5060
17 3 -18 0.3426 -2.2089
17 3 -16 4.3673 -1.6434
17 3 -14 3.5527 -0.6025
17 3 -12 -0.6971 -0.7673
17 3 -10 -3.7398 -0.5566
17 3 -8 -7.3790 0.9221
17 3 -6 -12.6222 1.6574
17 3 -4 -13.2271 1.0492
17 3 -2 -6.3152 1.2014
17 3 0 3.4568 2.2152
17 3 2 10.5220 2.0104
17 3 4 10.4239 1.1757
17 3 6 4.4069 0.8811
17 3 8 0.0610 0.2175
17 3 10 -0.7401 -0.2448
17 3 12 -0.3041 -0.0904
17 3 14 3.3061 -0.8471
17 3 16 6.1445 -1.7327
17 3 18 1.7359 -1.6699
17 3 20 -2.3582 -1.6062
17 3 22 -0.3560 -1.0945
17 3 24 -0.7427 -0.3494
17 3 26 -4.3438 -0.6809
17 3 28 -4.3885 -1.0086
17 3 30 -4.6112 -1.6081
17 3 32 -7.5221 -3.5510
17 3 34 -6.8788 -3.7415
17 4 -35 3.2359 3.8265
17 4 -33 2.5512 3.0953
17 4 -31 -1.4767 1.5712
17 4 -29 -5.6432 -0.2826
17 4 -27 -5.2053 -0.2612
17 4 -25 -1.9521 -0.1027
17 4 -23 -0.3039 -0.8206
17 4 -21 0.0535 0.1682
17 4 -19 0.5454 1.1106
17 4 -17 0.2892 -0.4296
17 4 -15 -1.1507 -0.8403
17 4 -13 -1.9818 0.5664
17 4 -11 0.7886 0.4945
17 4 -9 6.2148 0.0673
17 4 -7 7.8228 0.4168
17 4 -5 3.4638 0.1124
17 4 -3 -1.8260 0.0753
17 4 -1 -5.7635 0.4102
17 4 1 -8.6542 -0.3462
17 4 3 -8.5429 -0.6942
17 4 5 -6.3380 0.1547
17 4 7 -4.4717 0.0807
17 4 9 -0.8990 -0.5960
17 4 11 4.2449 0.2129
17 4 13 4.6741 1.0701
17 4 15 -2.1097 -0.0071
17 4 17 -8.4805 -0.4141
17 4 19 -5.6651 1.0181
17 4 21 2.5036 0.4224
17 4 23 5.1270 -1.4377
17 4 25 2.6998 -0.4403
17 4 27 2.2492 0.8039
17 4 29 2.4994 1.1083
17 4 31 1.3919 4.4874
17 4 33 1.6571 7.1286
17 5 -34 -0.4243 -3.7288
17 5 -32 -0.5360 -0.5006
17 5 -30 -0.1749 2.4349
17 5 -28 -1.5199 1.5308
17 5 -26 -2.1277 -0.8811
17 5 -24 0.1251 -0.5543
17 5 -22 1.0247 0.4440
17 5 -20 0.5495 -0.6612
17 5 -18 2.3222 -1.1690
17 5 -16 3.3242 0.1592
17 5 -14 1.7443 0.7452
17 5 -12 1.3301 0.2908
17 5 -10 1.2190 0.5228
17 5 -8 -1.2132 1.1521
17 5 -6 -3.4113 0.7342
17 5 -4 -2.5913 -0.1263
17 5 -2 1.6139 0.3766
17 5 0 5.9553 1.3460
17 5 2 5.1562 0.7341
17 5 4 1.7470 -0.4830
17 5 6 0.4149 -0.6311
17 5 8 -2.5425 -0.0918
17 5 10 -5.8841 0.2281
17 5 12 -2.4820 -0.2228
17 5 14 3.2494 -0.7770
17 5 16 5.0002 -0.2646
17 5 18 4.0883 0.2190
17 5 20 -1.1045 -0.2245
17 5 22 -6.3928 -0.0345
17 5 24 -1.3626 0.8258
17 5 26 6.4106 1.0725
17 5 28 3.5102 0.9352
17 5 30 -3.6121 -0.6524
17 5 32 -5.2219 -4.5859
17 6 -35 3.9663 5.0832
17 6 -33 3.6226 2.3247
17 6 -31 1.9078 -1.1314
17 6 -29 1.6263 -1.4972
17 6 -27 1.8863 0.2206
17 6 -25 -0.0115 0.7293
17 6 -23 -0.8209 -0.1619
17 6 -21 -0.4379 -0.7542
17 6 -19 -3.9750 -0.7492
17 6 -17 -7.2639 -0.5323
17 6 -15 -3.7996 -0.3898
17 6 -13 0.1853 -0.2219
17 6 -11 -1.5905 0.1113
17 6 -9 -3.2748 0.0781
17 6 -7 0.7475 0.0839
17 6 -5 4.8169 0.6687
17 6 -3 1.0321 0.6875
17 6 -1 -5.0558 0.2983
17 6 1 -1.8631 0.5796
17 6 3 4.9186 0.5605
17 6 5 3.2503 0.2416
17 6 7 0.5739 0.4988
17 6 9 3.9214 -0.1208
17 6 11 2.0427 -1.3350
17 6 13 -4.9035 -0.4983
17 6 15 -3.3914 0.9224
17 6 17 1.4979 -0.1314
17 6 19 -0.1279 -1.4786
17 6 21 -1.1651 -0.3666
17 6 23 0.7660 0.7914
17 6 25 -0.8260 0.4498
17 6 27 -2.3272 0.8915
17 6 29 0.0659 1.5495
17 6 31 1.0552 0.9743
17 7 -34 -3.3121 -2.0824
17 7 -32 -2.8977 -2.3229
17 7 -30 -1.0050 0.0994
17 7 -28 0.8487 0.5933
17 7 -26 1.7542 -0.2789
17 7 -24 -0.0502 -0.0909
17 7 -22 -1.6441 0.0669
17 7 -20 1.1577 0.4633
17 7 -18 3.9338 1.3270
17 7 -16 2.7306 0.5732
17 7 -14 2.0989 -0.6618
17 7 -12 2.8590 -0.1300
17 7 -10 0.0578 0.0161
17 7 -8 -5.4102 -1.4369
17 7 -6 -6.9271 -1.4490
17 7 -4 -0.8099 0.1980
17 7 -2 6.1622 -0.0386
17 7 0 2.8762 -1.4718
17 7 2 -5.3732 -0.8357
17 7 4 -4.2438 0.3065
17 7 6 1.0979 -0.0877
17 7 8 -0.2428 -0.3574
17 7 10 -0.5858 -0.0906
17 7 12 3.7222 0.2737
17 7 14 1.1708 1.0171
17 7 16 -6.4488 0.5856
17 7 18 -6.3510 -0.5041
17 7 20 -2.3402 0.4208
17 7 22 -4.5714 1.3041
17 7 24 -8.5148 -0.1562
17 7 26 -6.8883 -1.4650
17 7 28 -2.4775 -1.5307
17 7 30 0.5460 -1.3758
17 7 32 1.6921 -0.8605
17 8 -33 -5.6398 2.2891
17 8 -31 -1.2178 0.3687
17 8 -29 4.3288 -1.5014
17 8 -27 1.4890 0.0941
17 8 -25 -3.2983 1.7277
17 8 -23 -2.3551 0.8142
17 8 -21 -0.6576 -0.5066
17 8 -19 -0.3738 -0.1129
17 8 -17 1.5671 1.0836
17 8 -15 2.3886 0.9043
17 8 -13 1.2563 -0.3765
17 8 -11 3.1453 -0.5004
17 8 -9 6.7714 0.2996
17 8 -7 5.8714 -0.1303
17 8 -5 0.0552 -1.3006
17 8 -3 -4.7563 -1.1647
17 8 -1 -3.8492 -0.3722
17 8 1 -1.2560 -0.5296
17 8 3 -2.4638 -0.7950
17 8 5 -2.0522 -0.4602
17 8 7 2.0209 -0.3602
17 8 9 -0.5653 -0.1514
17 8 11 -7.1662 0.2659
17 8 13 -4.3501 -0.1559
17 8 15 0.8039 -0.4296
17 8 17 -3.0346 0.0967
17 8 19 -3.7624 -0.0448
17 8 21 7.2643 0.1754
17 8 23 15.3516 1.6963
17 8 25 10.8381 1.7037
17 8 27 3.3916 0.8754
17 8 29 1.3534 3.1478
17 9 -32 0.1569 0.7341
17 9 -30 -2.3073 1.2818
17 9 -28 0.7514 0.4733
17 9 -26 4.5380 -0.3704
17 9 -24 1.3539 -1.0095
17 9 -22 -3.2447 -0.3166
17 9 -20 -4.8446 1.1182
17 9 -18 -6.4224 0.9217
17 9 -16 -5.8177 -0.4574
17 9 -14 -0.9044 -1.2403
17 9 -12 2.1154 -1.0389
17 9 -10 -0.1600 0.1593
17 9 -8 -0.8243 0.9754
17 9 -6 5.3390 -0.2768
17 9 -4 10.0137 -1.4841
17 9 -2 5.0189 -0.3123
17 9 0 1.1622 0.5709
17 9 2 8.5455 -0.5320
17 9 4 12.6049 -0.4907
17 9 6 2.8609 0.7123
17 9 8 -3.0228 -0.0710
17 9 10 4.3224 -1.0877
17 9 12 7.1872 -0.2838
17 9 14 -0.9873 0.0826
17 9 16 -6.1521 0.3426
17 9 18 -6.0292 1.4348
17 9 20 -8.5970 0.4169
17 9 22 -10.2098 -1.2401
17 9 24 -5.5909 0.6500
17 9 26 -0.0739 1.9100
17 9 28 1.9120 -2.3381
17 10 -29 -0.9834 -2.4761
17 10 -27 -2.6293 -0.3598
17 10 -25 2.4107 2.5623
17 10 -23 9.0833 2.4833
17 10 -21 10.2057 0.0162
17 10 -19 6.3804 -0.7882
17 10 -17 2.0183 -0.6498
17 10 -15 0.5546 -1.4597
17 10 -13 -0.6847 -1.1704
17 10 -11 -4.5749 0.3602
17 10 -9 -4.6029 0.2480
17 10 -7 -0.1538 -1.1177
17 10 -5 -0.7108 -1.1416
17 10 -3 -3.0843 -0.2963
17 10 -1 -0.2176 -0.1819
17 10 1 0.0876 -0.1325
17 10 3 -4.4965 0.0217
17 10 5 -5.1499 -0.4520
17 10 7 -2.5725 -0.1869
17 10 9 -0.7929 0.9766
17 10 11 2.4089 0.6378
17 10 13 6.1532 -0.5677
17 10 15 9.2373 -0.3413
17 10 17 12.9943 0.6365
17 10 19 13.0944 1.0023
17 10 21 7.0386 0.5342
17 10 23 1.7713 0.0765
17 10 25 0.7822 0.7229
17 10 27 -0.1538 0.8626
17 11 -28 1.6046 9.6864
17 11 -26 1.7257 7.6396
17 11 -24 5.2698 0.7144
17 11 -22 4.4879 -1.1675
17 11 -20 -2.4575 1.0577
17 11 -18 -4.0749 0.7723
17 11 -16 -0.2841 -0.9441
17 11 -14 0.2745 -0.4856
17 11 -12 1.9587 0.3707
17 11 -10 5.1584 -0.6967
17 11 -8 0.7784 -1.7776
17 11 -6 -3.6999 -0.8573
17 11 -4 0.4982 0.4378
17 11 -2 2.4646 0.2981
17 11 0 -0.2996 -0.3138
17 11 2 2.1426 -0.4475
17 11 4 6.2835 -0.4926
17 11 6 5.5894 -0.2590
17 11 8 2.6530 0.3524
17 11 10 -0.0762 0.4013
17 11 12 1.6693 -0.0382
17 11 14 7.8521 -0.1359
17 11 16 7.6170 -0.5510
17 11 18 0.7314 -1.1568
17 11 20 -2.0308 -0.1188
17 11 22 -2.1021 0.9749
17 11 24 -3.4499 -0.7938
17 11 26 -1.2868 -2.3301
17 12 -27 -3.1484 -4.1901
17 12 -25 -7.5954 -1.2971
17 12 -23 -10.0691 1.1495
17 12 -21 -4.3313 0.7217
17 12 -19 0.4837 0.0454
17 12 -17 -0.0745 0.7802
17 12 -15 2.5458 0.7420
17 12 -13 6.1979 -0.3316
17 12 -11 3.4442 -0.3493
17 12 -9 1.2465 0.4986
17 12 -7 2.4397 0.5594
17 12 -5 -2.8607 -0.1630
17 12 -3 -10.4006 -0.1058
17 12 -1 -6.8794 1.0766
17 12 1 1.4320 1.0855
17 12 3 1.4240 -0.7775
17 12 5 -4.8603 -1.6609
17 12 7 -9.6192 -0.7410
17 12 9 -8.8228 -0.0903
17 12 11 -4.0166 -0.3453
17 12 13 -3.0656 -0.8339
17 12 15 -7.4967 -0.4296
17 12 17 -9.2022 0.8618
17 12 19 -5.6466 -0.0503
17 12 21 -0.6582 -3.1146
17 12 23 2.5723 -3.0228
17 13 -24 8.0625 -7.1534
17 13 -22 4.6174 -1.5831
17 13 -20 1.8409 2.0250
17 13 -18 2.2901 0.4605
17 13 -16 0.0778 -1.5410
17 13 -14 -6.0438 -0.8465
17 13 -12 -11.1993 0.2957
17 13 -10 -10.9718 0.7125
17 13 -8 -5.2547 1.1193
17 13 -6 1.4796 0.9495
17 13 -4 7.1457 0.1980
17 13 -2 9.7111 -0.0904
17 13 0 2.5112 0.3151
17 13 2 -9.4435 0.8164
17 13 4 -9.6911 0.4588
17 13 6 0.8124 -0.3274
17 13 8 5.3775 -0.2504
17 13 10 -0.9143 0.0141
17 13 12 -9.1675 0.0308
17 13 14 -10.7106 0.0168
17 13 16 -4.5112 -1.3135
17 13 18 2.3168 -1.8798
17 13 20 3.0811 1.7460
17 14 -21 -7.1513 8.1278
17 14 -19 -3.2959 3.1528
17 14 -17 -1.4373 -0.2589
17 14 -15 -1.7167 0.3034
17 14 -13 1.1996 0.4488
17 14 -11 5.6588 -0.8825
17 14 -9 2.8897 -0.6226
17 14 -7 -0.8358 0.6007
17 14 -5 3.3295 0.3974
17 14 -3 2.9458 0.0919
17 14 -1 -4.5255 1.0625
17 14 1 -2.3870 1.6604
17 14 3 3.2072 1.2448
17 14 5 -0.9151 0.8392
17 14 7 -0.9581 0.3854
17 14 9 7.0781 -0.1512
17 14 11 6.3130 -0.3237
17 14 13 0.3406 0.1597
17 14 15 2.6126 2.2031
17 14 17 6.4934 4.4861
17 15 -18 2.3141 0.9247
17 15 -16 2.8229 -1.4300
17 15 -14 0.9415 -0.2524
17 15 -12 -3.3662 4.5464
17 15 -10 -6.5616 3.7502
17 15 -8 -6.0434 -1.4319
17 15 -6 -5.1586 -1.5764
17 15 -4 -2.1044 1.6476
17 15 -2 7.2176 1.5001
17 15 0 12.4573 -0.0946
17 15 2 7.0126 0.0563
17 15 4 3.1764 0.3226
17 15 6 3.7089 -0.1423
17 15 8 0.3347 -0.3077
17 15 10 -0.6578 0.4404
17 15 12 4.3832 1.2793
17 15 14 4.4417 0.0011
17 16 -9 2.6510 4.1274
17 16 -7 0.2284 2.1157
17 16 -5 -6.2882 -1.3964
17 16 -3 -8.7492 -0.7642
17 16 -1 -9.5135 0.1265
17 16 1 -10.5376 -2.3809
17 16 3 -5.1096 -3.7859
17 16 5 3.9516 -1.9074
17 16 7 5.3007 0.3231
17 16 9 -1.8981 1.4961
17 16 11 -8.9864 1.7796
17 17 -6 8.2418 -1.9214
17 17 -4 10.2762 -0.9339
17 17 -2 7.6546 -2.3343
17 17 0 5.6798 -1.8800
17 17 2 3.9520 2.4687
17 17 4 -0.7791 5.7351
18 0 -36 -2.5084 2.8775
18 0 -34 -0.7464 3.6181
18 0 -32 -0.1297 7.9998
18 0 -30 -1.3870 9.0757
18 0 -28 -2.7192 2.2945
18 0 -26 -2.0518 -1.2995
18 0 -24 2.4978 1.4085
18 0 -22 6.9306 -2.2507
18 0 -20 4.5038 -10.6613
18 0 -18 -1.2421 -10.0161
18 0 -16 -1.7999 -6.0901
18 0 -14 1.3380 -10.5785
18 0 -12 2.0093 -13.3850
18 0 -10 0.2313 -5.8673
18 0 -8 -1.7116 -0.4333
18 0 -6 -3.8890 -2.5901
18 0 -4 -4.2876 -0.2074
18 0 -2 1.7904 8.5535
18 0 0 9.5602 11.2715
18 0 2 4.5727 7.4011
18 0 4 -9.4473 8.5541
18 0 6 -10.9094 13.5705
18 0 8 -2.6511 10.6281
18 0 10 -4.2381 2.5108
18 0 12 -8.6183 1.5212
18 0 14 -3.2951 3.3629
18 0 16 2.5141 -3.1036
18 0 18 4.6162 -10.0752
18 0 20 4.4577 -7.3112
18 0 22 -4.1757 -5.2295
18 0 24 -13.4722 -10.6957
18 0 26 -11.7853 -10.4221
18 0 28 -8.2017 -2.1276
18 0 30 -7.8120 -1.5218
18 1 -37 1.9399 3.9246
18 1 -35 1.0435 4.7323
18 1 -33 -0.3036 0.0988
18 1 -31 1.3664 -2.2450
18 1 -29 5.2224 0.8139
18 1 -27 6.4891 2.4413
18 1 -25 2.7646 -0.6784
18 1 -23 -2.4042 -2.2936
18 1 -21 -3.9874 0.3853
18 1 -19 -1.9787 0.9480
18 1 -17 0.6251 -2.4008
18 1 -15 2.4308 -2.7888
18 1 -13 2.2309 0.8115
18 1 -11 0.1413 0.9790
18 1 -9 -0.1248 -2.6677
18 1 -7 2.0638 -1.7258
18 1 -5 1.7442 2.6434
18 1 -3 -2.8600 0.8595
18 1 -1 -6.9904 -2.8480
18 1 1 -4.3499 1.0758
18 1 3 5.2489 4.4448
18 1 5 11.8083 -0.4060
18 1 7 9.3792 -2.6487
18 1 9 6.5305 2.0873
18 1 11 7.0566 2.6616
18 1 13 3.8664 -2.1432
18 1 15 -1.5138 -2.2821
18 1 17 -3.6274 1.4812
18 1 19 -3.5206 0.5122
18 1 21 1.6706 -2.6771
18 1 23 10.8086 -0.5956
18 1 25 11.8424 2.2487
18 1 27 5.3576 -0.0100
18 1 29 3.0243 -1.5747
18 1 31 3.9832 0.4166
18 1 33 3.2762 0.1784
18 2 -36 3.9120 8.2301
18 2 -34 2.9096 3.5150
18 2 -32 2.7609 -0.4755
18 2 -30 -0.0098 -1.0773
18 2 -28 -2.8656 -1.3526
18 2 -26 -1.3285 -1.6923
18 2 -24 0.6153 0.1049
18 2 -22 -0.8005 1.4424
18 2 -20 -1.2755 0.2458
18 2 -18 -0.3650 -0.1746
18 2 -16 -2.9529 1.0765
18 2 -14 -5.3722 0.5298
18 2 -12 -1.7632 -1.2842
18 2 -10 1.2478 0.0036
18 2 -8 -3.0233 2.3876
18 2 -6 -6.8046 0.5306
18 2 -4 -2.9537 -1.5718
18 2 -2 1.3222 0.5718
18 2 0 -0.8788 0.8247
18 2 2 -4.5637 -2.0113
18 2 4 -5.7969 -0.8982
18 2 6 -8.3485 1.4436
18 2 8 -11.4550 -0.8236
18 2 10 -9.4778 -2.6969
18 2 12 -3.7951 -0.3779
18 2 14 0.0035 1.1957
18 2 16 0.0294 -0.4765
18 2 18 -3.0043 -1.3369
18 2 20 -5.5493 0.7073
18 2 22 -3.7273 1.7531
18 2 24 0.0407 0.2681
18 2 26 1.3842 0.0421
18 2 28 -0.0721 0.8429
18 2 30 -3.5435 -0.0190
18 2 32 -6.7272 -0.4186
18 2 34 -6.3935 0.1978
18 3 -35 -4.1468 -7.8658
18 3 -33 -2.5196 -1.0486
18 3 -31 -3.6641 -0.2372
18 3 -29 -6.7207 -1.6479
18 3 -27 -7.6581 0.9214
18 3 -25 -3.6308 1.6970
18 3 -23 0.5005 -0.8389
18 3 -21 -1.8313 -1.0791
18 3 -19 -4.6244 -0.3665
18 3 -17 0.4476 -1.4572
18 3 -15 5.7580 -1.4040
18 3 -13 3.3649 0.1010
18 3 -11 1.0927 -0.0309
18 3 -9 3.2345 -1.1474
18 3 -7 1.0575 -0.8827
18 3 -5 -6.7323 0.2057
18 3 -3 -8.4837 0.9440
18 3 -1 0.7372 1.4454
18 3 1 9.3319 1.2524
18 3 3 6.4477 0.5396
18 3 5 -0.2685 0.7455
18 3 7 -0.4427 1.0712
18 3 9 0.9074 0.3601
18 3 11 0.2077 -0.1485
18 3 13 1.6081 -0.6349
18 3 15 1.6228 -1.3130
18 3 17 -0.2686 -0.3516
18 3 19 2.3179 0.5105
18 3 21 2.4679 -0.5481
18 3 23 -4.6319 -0.0980
18 3 25 -5.5842 1.4544
18 3 27 1.6989 0.0446
18 3 29 4.1466 -1.9701
18 3 31 0.6032 -2.3055
18 3 33 -2.7083 -3.3971
18 4 -34 3.6878 -1.9124
18 4 -32 4.5261 -2.7747
18 4 -30 5.6401 -0.6706
18 4 -28 4.5574 0.9780
18 4 -26 0.0783 0.9433
18 4 -24 -4.1580 -0.1472
18 4 -22 -2.1190 -0.9317
18 4 -20 3.2701 -0.2492
18 4 -18 3.3881 0.6556
18 4 -16 0.4604 0.5181
18 4 -14 0.8218 0.1155
18 4 -12 0.2807 0.0706
18 4 -10 -3.4332 0.0310
18 4 -8 -2.0585 -0.3172
18 4 -6 6.5054 -0.5607
18 4 -4 12.0688 -0.2425
18 4 -2 6.7059 -0.1068
18 4 0 -3.6665 -0.5362
18 4 2 -4.9683 -0.5019
18 4 4 3.4166 0.0780
18 4 6 6.2509 0.0699
18 4 8 1.0868 -0.6657
18 4 10 -0.6888 -1.0074
18 4 12 0.2434 -0.2988
18 4 14 0.2735 0.5626
18 4 16 3.8745 0.7476
18 4 18 5.1426 0.5874
18 4 20 -1.7491 0.1918
18 4 22 -4.6721 -0.0851
18 4 24 0.4682 0.5114
18 4 26 2.2895 1.3681
18 4 28 0.4184 2.2569
18 4 30 1.7888 4.1546
18 4 32 5.0829 6.0636
18 5 -33 -4.1576 -0.2849
18 5 -31 -5.2528 -0.4030
18 5 -29 0.1181 1.0974
18 5 -27 5.8132 -0.1492
18 5 -25 6.0009 -0.8008
18 5 -23 1.9823 0.6243
18 5 -21 -0.6069 0.7390
18 5 -19 0.6095 0.5300
18 5 -17 1.5284 1.1692
18 5 -15 0.4646 0.8351
18 5 -13 1.0933 0.7684
18 5 -11 2.1233 1.5210
18 5 -9 0.0489 0.7910
18 5 -7 -1.4912 -0.2513
18 5 -5 -0.1254 0.0096
18 5 -3 0.9463 -0.4205
18 5 -1 1.8662 -1.5864
18 5 1 2.6176 -1.4106
18 5 3 -0.6821 -0.9634
18 5 5 -5.2262 -1.5760
18 5 7 -4.1807 -1.4674
18 5 9 0.6509 -0.8580
18 5 11 4.0729 -1.6037
18 5 13 4.8396 -1.2201
18 5 15 2.0304 0.9566
18 5 17 -2.2366 0.7702
18 5 19 -2.4593 0.1183
18 5 21 -0.2928 2.2000
18 5 23 -1.1307 2.1938
18 5 25 -2.7748 0.1910
18 5 27 -2.7286 1.0350
18 5 29 -4.2740 -0.4230
18 5 31 -6.8337 -6.5549
18 6 -34 -6.6607 0.5741
18 6 -32 -5.1394 1.5426
18 6 -30 -0.4561 0.2960
18 6 -28 2.3918 0.0912
18 6 -26 -0.1444 1.3314
18 6 -24 -1.7573 0.9588
18 6 -22 2.0073 -0.5155
18 6 -20 3.8346 -0.5195
18 6 -18 0.4080 0.7301
18 6 -16 -1.7400 1.0563
18 6 -14 -1.0230 -0.0799
18 6 -12 -1.0666 -0.4264
18 6 -10 -1.7881 0.6098
18 6 -8 -2.2132 0.5917
18 6 -6 -2.6762 -0.4124
18 6 -4 -2.8507 -0.3825
18 6 -2 -2.3747 0.0569
18 6 0 -0.7140 -0.3094
18 6 2 1.1076 -0.9025
18 6 4 1.3604 -0.7314
18 6 6 2.4503 -0.0976
18 6 8 3.6791 -0.5027
18 6 10 -1.4594 -1.3328
18 6 12 -8.4859 -0.5263
18 6 14 -6.4102 0.7623
18 6 16 0.0983 0.6668
18 6 18 1.9953 -0.1836
18 6 20 3.3591 -0.9883
18 6 22 6.4043 -0.7967
18 6 24 4.5134 0.2925
18 6 26 -0.9718 0.2614
18 6 28 -0.4737 0.8038
18 6 30 5.7968 4.6383
18 6 32 7.6433 7.2869
18 7 -33 -1.4844 -0.6498
18 7 -31 2.5612 -1.7074
18 7 -29 2.3847 -0.5587
18 7 -27 0.7034 1.1106
18 7 -25 0.4369 0.5298
18 7 -23 -0.4584 -0.8419
18 7 -21 -1.6071 0.4150
18 7 -19 -2.0190 2.0749
18 7 -17 -2.1053 0.5605
18 7 -15 -0.4221 -1.3265
18 7 -13 2.3111 -0.7657
18 7 -11 3.4074 -0.1016
18 7 -9 3.9641 -0.6455
18 7 -7 5.2164 -0.7567
18 7 -5 5.8229 0.0120
18 7 -3 4.3655 0.3865
18 7 -1 -0.7127 -0.2861
18 7 1 -5.5459 -0.7939
18 7 3 -2.5728 -0.1894
18 7 5 2.3773 0.2197
18 7 7 -0.8138 -0.1745
18 7 9 -2.7948 -0.0653
18 7 11 3.9384 0.3565
18 7 13 3.8164 0.0380
18 7 15 -8.5655 -0.0776
18 7 17 -15.2125 0.6042
18 7 19 -9.8287 0.6210
18 7 21 -2.7148 -0.1929
18 7 23 2.3934 -0.3355
18 7 25 5.9931 -0.2256
18 7 27 5.3108 -1.0868
18 7 29 1.2824 -2.0929
18 7 31 -1.2626 -2.5205
18 8 -32 0.4527 0.2687
18 8 -30 1.5851 -0.1275
18 8 -28 1.3693 -0.0473
18 8 -26 0.1123 0.5418
18 8 -24 0.8660 0.8684
18 8 -22 0.8127 0.8179
18 8 -20 -1.1799 0.4279
18 8 -18 -1.2088 0.2466
18 8 -16 -0.1418 0.2280
18 8 -14 -0.0391 -0.1076
18 8 -12 0.3986 -0.2093
18 8 -10 0.6303 0.2229
18 8 -8 0.7495 0.1450
18 8 -6 1.2320 -0.7318
18 8 -4 0.4382 -0.8442
18 8 -2 1.9830 -0.0169
18 8 0 7.3418 -0.1827
18 8 2 6.4610 -0.8069
18 8 4 -1.3415 -0.2629
18 8 6 -2.8945 0.0417
18 8 8 0.8832 -0.1558
18 8 10 -0.3722 0.4640
18 8 12 -1.6762 0.0629
18 8 14 4.2841 -1.5008
18 8 16 10.6678 -0.6488
18 8 18 11.1291 1.8063
18 8 20 7.7732 2.1768
18 8 22 3.0282 1.2050
18 8 24 -0.2596 0.3758
18 8 26 0.8582 -2.4560
18 8 28 3.4384 -7.3899
18 9 -31 -1.2489 -2.8644
18 9 -29 -5.2851 -1.6999
18 9 -27 -3.3040 -0.0668
18 9 -25 1.2602 0.5574
18 9 -23 4.2215 0.4555
18 9 -21 2.7218 0.3336
18 9 -19 -1.4964 -0.3908
18 9 -17 -0.8979 -0.7239
18 9 -15 2.1229 0.4182
18 9 -13 -2.3286 0.8424
18 9 -11 -8.4614 -0.1676
18 9 -9 -5.6029 -0.1432
18 9 -7 0.5310 0.7667
18 9 -5 1.8052 0.4597
18 9 -3 -1.0251 -0.1723
18 9 -1 -3.3667 0.4038
18 9 1 1.0152 0.6407
18 9 3 7.6718 -0.3667
18 9 5 4.6444 -0.4373
18 9 7 -0.9331 0.4755
18 9 9 3.3699 0.0566
18 9 11 8.1900 -0.7004
18 9 13 6.7537 -0.1198
18 9 15 7.5678 0.4277
18 9 17 7.8695 0.3476
18 9 19 0.1313 0.0783
18 9 21 -7.4520 -0.7427
18 9 23 -8.0104 -1.0630
18 9 25 -6.7309 0.2931
18 9 27 -5.6728 2.3100
18 10 -30 2.3848 0.6468
18 10 -28 1.6536 -0.1889
18 10 -26 2.8927 -1.8495
18 10 -24 2.0589 -1.0073
18 10 -22 -0.6742 0.8638
18 10 -20 2.1310 0.9877
18 10 -18 6.2823 -0.4675
18 10 -16 2.8297 -1.7654
18 10 -14 -1.8891 -1.0002
18 10 -12 -0.3968 0.8538
18 10 -10 0.8851 0.4713
18 10 -8 -2.6073 -0.9006
18 10 -6 -5.1959 0.1455
18 10 -4 -3.0682 1.1627
18 10 -2 -0.6058 -0.0862
18 10 0 -3.9828 0.0493
18 10 2 -9.1498 1.7712
18 10 4 -5.8012 1.0491
18 10 6 0.0123 -0.3399
18 10 8 -5.2695 0.6665
18 10 10 -12.3151 1.1703
18 10 12 -8.0492 -0.1490
18 10 14 -3.2892 -0.7682
18 10 16 -5.4149 -0.6507
18 10 18 -5.2869 -0.1684
18 10 20 -3.8385 1.3433
18 10 22 -6.4000 2.0356
18 10 24 -5.9819 1.5207
18 10 26 -1.4004 2.7331
18 11 -27 -2.4591 3.6286
18 11 -25 -3.6193 1.9715
18 11 -23 -3.1678 1.4713
18 11 -21 -2.0212 0.3085
18 11 -19 -2.3119 -1.6607
18 11 -17 -4.1287 -0.8884
18 11 -15 -5.6991 1.4698
18 11 -13 -3.9577 0.9544
18 11 -11 0.1473 -1.0858
18 11 -9 2.8224 -0.9124
18 11 -7 3.1646 -0.2305
18 11 -5 1.3567 -1.0204
18 11 -3 0.0812 -0.7177
18 11 -1 2.9070 0.9228
18 11 1 4.1835 0.9851
18 11 3 -1.2517 0.1236
18 11 5 -3.6929 0.1704
18 11 7 3.3027 0.4027
18 11 9 8.2508 0.5522
18 11 11 2.9576 0.8668
18 11 13 -3.4674 0.9517
18 11 15 -2.0677 0.6623
18 11 17 3.6898 -0.2269
18 11 19 8.0942 -0.9128
18 11 21 9.6833 -0.9291
18 11 23 7.2599 -2.4189
18 11 25 2.6869 -4.1304
18 12 -24 -3.7566 -5.1672
18 12 -22 -5.9962 0.2276
18 12 -20 -4.9613 2.6530
18 12 -18 -2.6437 2.3117
18 12 -16 2.1504 0.9281
18 12 -14 4.0219 0.0435
18 12 -12 0.0743 -0.1821
18 12 -10 -1.6883 -0.0948
18 12 -8 -1.0557 0.0630
18 12 -6 -2.0744 0.2463
18 12 -4 0.1397 0.3653
18 12 -2 2.9311 -0.0051
18 12 0 0.1783 -0.5419
18 12 2 -0.4341 -0.1673
18 12 4 3.2254 0.8389
18 12 6 3.2337 0.7247
18 12 8 1.7053 -0.6131
18 12 10 0.7116 -0.8962
18 12 12 -3.4365 0.0972
18 12 14 -5.1069 0.0154
18 12 16 -0.5280 -1.0094
18 12 18 2.6630 -1.5570
18 12 20 2.2880 -1.4813
18 12 22 1.8570 0.6534
18 13 -23 -5.3950 9.1478
18 13 -21 -0.0061 5.1386
18 13 -19 7.9496 0.1739
18 13 -17 5.4127 -1.0606
18 13 -15 -2.5280 0.6604
18 13 -13 -0.5831 1.3469
18 13 -11 3.5501 0.4497
18 13 -9 -0.6461 0.1532
18 13 -7 -2.4354 1.0316
18 13 -5 0.5146 1.4571
18 13 -3 -1.6106 0.6149
18 13 -1 -3.8701 -0.0188
18 13 1 -1.1397 0.2427
18 13 3 1.6844 0.0973
18 13 5 6.8997 -0.3933
18 13 7 11.9095 -0.2935
18 13 9 5.8009 -0.2237
18 13 11 -3.8006 -0.0710
18 13 13 -3.5053 0.4159
18 13 15 0.5790 -0.8754
18 13 17 0.6039 -3.3132
18 13 19 -1.1471 -2.7054
18 14 -20 -1.1854 -5.6673
18 14 -18 -2.1063 -1.0103
18 14 -16 2.2472 0.9837
18 14 -14 2.9111 1.8123
18 14 -12 0.0234 2.4600
18 14 -10 -1.0604 1.3677
18 14 -8 -2.8963 0.0192
18 14 -6 -5.0556 0.1683
18 14 -4 -0.2258 0.5195
18 14 -2 7.2989 -0.0218
18 14 0 6.1868 -0.6457
18 14 2 0.1086 -0.1881
18 14 4 -2.4543 0.4350
18 14 6 -3.5770 -0.2881
18 14 8 -2.9711 -0.4690
18 14 10 2.3099 0.9425
18 14 12 6.2001 1.3145
18 14 14 5.8387 1.4590
18 14 16 5.9262 3.6722
18 15 -17 0.6715 -0.3709
18 15 -15 0.5910 0.0787
18 15 -13 -1.1848 1.0309
18 15 -11 0.4896 2.6828
18 15 -9 7.8734 1.4948
18 15 -7 11.6907 -1.5980
18 15 -5 8.3231 -1.9936
18 15 -3 0.3578 -0.7398
18 15 -1 -11.9489 -0.8839
18 15 1 -19.7286 -0.8293
18 15 3 -14.3545 0.4493
18 15 5 -5.9746 0.8055
18 15 7 -5.1758 -0.1262
18 15 9 -7.1150 0.2646
18 15 11 -6.6839 2.7604
18 15 13 -6.2923 3.1973
18 16 -10 5.2178 -1.9079
18 16 -8 2.1922 0.6146
18 16 -6 -2.0242 0.9104
18 16 -4 -6.7283 -0.5699
18 16 -2 -5.7872 -1.6359
18 16 0 1.8347 -2.3766
18 16 2 4.1867 -3.1205
18 16 4 1.0428 -2.7351
18 16 6 2.1889 -1.2062
18 16 8 3.3930 -1.5332
18 16 10 1.2905 -5.2245
19 1 -36 -1.9024 -1.8712
19 1 -34 0.9853 -0.8954
19 1 -32 2.4454 -0.1358
19 1 -30 0.6234 -1.5903
19 1 -28 -0.6094 -0.2048
19 1 -26 0.6166 2.5380
19 1 -24 1.0112 0.8002
19 1 -22 -0.7865 -1.7752
19 1 -20 -2.9989 -0.7395
19 1 -18 -4.5329 0.3243
19 1 -16 -4.4151 -0.2751
19 1 -14 -2.0144 -0.7122
19 1 -12 0.8446 -0.8807
19 1 -10 1.6815 -0.5217
19 1 -8 0.3457 -0.3178
19 1 -6 -0.9645 -1.2026
19 1 -4 0.0806 -0.8143
19 1 -2 4.2762 0.7341
19 1 0 10.0970 0.0590
19 1 2 11.6178 -1.0491
19 1 4 4.0370 0.6712
19 1 6 -5.3932 2.1360
19 1 8 -7.6980 0.3397
19 1 10 -6.9693 -1.1566
19 1 12 -5.6709 0.3742
19 1 14 -0.2916 1.1551
19 1 16 1.8032 -0.4852
19 1 18 -1.8886 -0.5465
19 1 20 1.5772 0.7257
19 1 22 9.4557 -0.1376
19 1 24 9.2501 -0.9313
19 1 26 9.4550 0.6097
19 1 28 15.8192 1.7777
19 1 30 15.2999 0.9723
19 1 32 7.0177 -0.7186
19 2 -35 -0.9547 -1.0403
19 2 -33 -2.0349 -1.8474
19 2 -31 -3.3253 -3.8660
19 2 -29 -4.6920 -2.9689
19 2 -27 -4.3585 -0.5058
19 2 -25 -0.7176 -1.0647
19 2 -23 2.8028 -2.2500
19 2 -21 3.4551 -0.3341
19 2 -19 4.4210 1.3962
19 2 -17 6.0426 0.9001
19 2 -15 3.1485 1.6987
19 2 -13 -3.5218 3.2914
19 2 -11 -6.2128 2.4055
19 2 -9 -2.4406 1.4149
19 2 -7 2.2616 2.3408
19 2 -5 3.5315 2.2233
19 2 -3 1.2904 0.3896
19 2 -1 -4.6932 -0.9944
19 2 1 -10.8081 -1.4891
19 2 3 -6.8320 -1.5589
19 2 5 5.6407 -2.1879
19 2 7 9.6395 -3.7057
19 2 9 4.0696 -3.9142
19 2 11 2.8200 -2.5598
19 2 13 3.3906 -2.1373
19 2 15 1.6303 -1.6579
19 2 17 6.1393 0.3834
19 2 19 8.9705 0.7618
19 2 21 -1.1058 -0.4966
19 2 23 -7.8478 1.6212
19 2 25 -3.8433 4.5353
19 2 27 -5.4806 1.9938
19 2 29 -11.2431 -1.0336
19 2 31 -8.3354 1.0922
19 2 33 -2.7102 1.9864
19 3 -34 4.1557 0.9313
19 3 -32 3.3709 -0.2380
19 3 -30 3.9561 -0.6077
19 3 -28 5.1753 -1.0016
19 3 -26 4.2235 -1.4831
19 3 -24 1.7312 -0.8027
19 3 -22 0.5778 0.1217
19 3 -20 0.8689 0.1366
19 3 -18 0.5262 0.6382
19 3 -16 -0.4081 1.3802
19 3 -14 0.5547 1.0899
19 3 -12 2.9628 1.0169
19 3 -10 2.4783 1.5343
19 3 -8 -0.5693 1.6156
19 3 -6 -0.6419 1.3692
19 3 -4 2.0980 0.7844
19 3 -2 3.9002 0.1310
19 3 0 6.1819 -0.2089
19 3 2 7.1920 -0.9893
19 3 4 0.6152 -1.6480
19 3 6 -7.4086 -1.3944
19 3 8 -6.0985 -1.6034
19 3 10 -2.0995 -2.3502
19 3 12 -4.0521 -2.0475
19 3 14 -5.4524 -0.9278
19 3 16 -4.4804 -0.4884
19 3 18 -7.2673 -0.6040
19 3 20 -8.5876 0.5668
19 3 22 -2.9762 1.9054
19 3 24 2.0487 0.4823
19 3 26 2.6884 -0.8031
19 3 28 2.6048 0.0633
19 3 30 1.3549 -2.2559
19 3 32 -1.1523 -6.2881
19 4 -35 -6.5123 -3.5841
19 4 -33 -9.2840 -2.0679
19 4 -31 -7.9779 -0.0562
19 4 -29 -1.9152 -0.1265
19 4 -27 0.8563 0.1378
19 4 -25 -2.6995 1.8431
19 4 -23 -2.8342 1.0816
19 4 -21 3.0703 -0.7504
19 4 -19 3.9552 0.2029
19 4 -17 -0.7790 1.0212
19 4 -15 -0.5896 -0.5826
19 4 -13 2.1984 -1.0012
19 4 -11 -0.1480 0.6191
19 4 -9 -1.8150 0.6123
19 4 -7 2.3633 -0.7581
19 4 -5 4.7353 -0.3004
19 4 -3 0.6711 0.5147
19 4 -1 -3.7694 -0.1781
19 4 1 -3.4682 -0.1659
19 4 3 -0.1436 0.3968
19 4 5 3.3177 0.2067
19 4 7 6.7274 0.7103
19 4 9 9.0036 0.5621
19 4 11 7.8503 -0.9450
19 4 13 4.9130 -0.1236
19 4 15 3.0710 1.4729
19 4 17 2.2860 0.4496
19 4 19 2.8502 -0.0925
19 4 21 3.4933 0.2053
19 4 23 0.8385 -1.0677
19 4 25 -2.2123 -0.9605
19 4 27 -0.1129 1.2228
19 4 29 5.1844 2.8698
19 4 31 8.3551 5.6857
19 5 -34 -2.2806 -0.9543
19 5 -32 -0.5487 -0.8786
19 5 -30 2.8425 1.9051
19 5 -28 1.5662 2.6188
19 5 -26 -1.6240 0.0091
19 5 -24 -2.1243 -0.9423
19 5 -22 -1.5715 0.2586
19 5 -20 -0.7108 0.6227
19 5 -18 0.4208 0.4012
19 5 -16 -0.5126 0.3383
19 5 -14 -1.5119 0.1821
19 5 -12 0.7555 0.1914
19 5 -10 2.2589 0.2230
19 5 -8 -0.9214 0.3485
19 5 -6 -4.1839 0.7862
19 5 -4 -1.7766 0.5619
19 5 -2 3.5748 -0.4514
19 5 0 3.2150 -0.6108
19 5 2 -3.0933 0.4013
19 5 4 -4.5645 0.6008
19 5 6 -0.2629 -0.5845
19 5 8 -0.7590 -0.7753
19 5 10 -3.4749 0.3342
19 5 12 -0.0425 0.1838
19 5 14 2.2109 -0.3707
19 5 16 -1.5283 0.6713
19 5 18 -1.7418 1.0901
19 5 20 4.1103 0.2251
19 5 22 9.1509 0.4086
19 5 24 9.4933 0.4719
19 5 26 4.1003 -0.3712
19 5 28 -2.8223 0.9123
19 5 30 -4.1982 3.2650
19 5 32 -0.8236 2.5810
19 6 -33 1.7646 6.8386
19 6 -31 0.7945 1.6577
19 6 -29 -1.4165 -2.1999
19 6 -27 -0.6800 0.0335
19 6 -25 2.9121 1.2469
19 6 -23 5.0961 -0.4522
19 6 -21 1.6093 -0.7680
19 6 -19 -3.2637 -0.1518
19 6 -17 -2.4965 0.2119
19 6 -15 -0.8177 1.0535
19 6 -13 -4.1659 1.1115
19 6 -11 -5.5744 0.2012
19 6 -9 0.6109 0.2909
19 6 -7 7.4343 0.8711
19 6 -5 6.5705 0.4887
19 6 -3 -0.8021 0.2104
19 6 -1 -5.0682 0.5047
19 6 1 -1.2456 0.0702
19 6 3 2.1256 -0.4814
19 6 5 -0.4141 -0.2125
19 6 7 -0.6774 -0.2881
19 6 9 2.2804 -0.3577
19 6 11 -0.9064 0.3141
19 6 13 -6.2597 -0.1360
19 6 15 -4.3520 -1.1929
19 6 17 -0.9055 -0.5774
19 6 19 -1.2978 0.1811
19 6 21 -0.7094 0.3047
19 6 23 -0.3799 1.4058
19 6 25 -3.5343 1.3758
19 6 27 -4.4115 -2.1115
19 6 29 -1.5661 -6.1246
19 6 31 -1.2253 -7.1275
19 7 -32 7.2316 -5.8775
19 7 -30 0.4434 -2.0200
19 7 -28 -4.4955 0.2638
19 7 -26 -1.5807 0.1801
19 7 -24 1.0102 0.0545
19 7 -22 -1.4265 0.5956
19 7 -20 -3.2646 0.6606
19 7 -18 -2.3317 -0.2868
19 7 -16 -1.0051 -0.5298
19 7 -14 -0.4870 0.1306
19 7 -12 -1.2132 -0.3697
19 7 -10 -1.8127 -1.0533
19 7 -8 -2.2215 -0.3280
19 7 -6 -4.0872 0.1053
19 7 -4 -3.9933 -0.1895
19 7 -2 -0.9557 0.0520
19 7 0 -1.0567 0.3840
19 7 2 -2.3812 0.4640
19 7 4 0.2860 0.6680
19 7 6 0.7852 0.6367
19 7 8 -2.6600 0.3781
19 7 10 -1.7103 0.5234
19 7 12 1.6081 0.7309
19 7 14 1.1541 0.0553
19 7 16 2.0129 -0.4847
19 7 18 4.2183 0.3116
19 7 20 -2.0709 -0.0004
19 7 22 -13.2689 -2.0537
19 7 24 -14.4252 -2.0506
19 7 26 -5.0516 -0.8856
19 7 28 2.6709 -1.5167
19 7 30 4.6970 -0.5615
19 8 -31 -1.1661 3.9768
19 8 -29 0.3435 0.4018
19 8 -27 0.2975 -2.7067
19 8 -25 1.5762 -1.0925
19 8 -23 3.5750 2.2135
19 8 -21 2.8626 1.6016
19 8 -19 2.0316 -0.5659
19 8 -17 2.0144 -0.0941
19 8 -15 -0.0837 0.7417
19 8 -13 -1.6928 -0.2467
19 8 -11 -0.5481 -1.2951
19 8 -9 0.1929 -1.1699
19 8 -7 0.3671 -0.3812
19 8 -5 0.6079 -0.1888
19 8 -3 -1.0110 -0.9655
19 8 -1 -1.7836 -0.9630
19 8 1 0.2895 0.2112
19 8 3 1.6863 0.5149
19 8 5 3.1146 0.1006
19 8 7 4.6037 0.8834
19 8 9 0.9507 1.7825
19 8 11 -2.6407 0.8372
19 8 13 1.6627 -0.2315
19 8 15 4.7348 0.2732
19 8 17 -0.9558 0.5232
19 8 19 -6.4689 0.2383
19 8 21 -6.0477 0.7701
19 8 23 -3.3083 -0.0890
19 8 25 -0.5231 -2.5532
19 8 27 0.4625 -1.7302
19 9 -30 -4.6721 -1.7047
19 9 -28 -1.0091 -1.1842
19 9 -26 1.2253 -0.5609
19 9 -24 -1.9573 -0.3041
19 9 -22 -1.5172 0.2041
19 9 -20 3.8283 0.4532
19 9 -18 4.7277 0.0131
19 9 -16 -1.0482 -0.1021
19 9 -14 -5.2703 0.2772
19 9 -12 -2.5297 0.2461
19 9 -10 0.9270 0.0305
19 9 -8 -0.9049 0.2738
19 9 -6 -1.4004 0.1365
19 9 -4 4.0194 -0.8744
19 9 -2 7.0825 -1.0065
19 9 0 4.0077 0.2426
19 9 2 1.0407 0.6605
19 9 4 -0.5825 0.0239
19 9 6 -2.7076 -0.0451
19 9 8 -1.9582 0.0075
19 9 10 0.5110 -0.1818
19 9 12 -1.5116 0.2248
19 9 14 -4.1270 0.4035
19 9 16 0.7369 -0.2612
19 9 18 9.0958 -0.4564
19 9 20 13.2035 -0.2959
19 9 22 12.7374 -0.5685
19 9 24 8.8638 1.1580
19 9 26 2.8207 6.3569
19 10 -29 0.7327 -0.2240
19 10 -27 -1.8668 -3.5889
19 10 -25 -6.5045 -1.3947
19 10 -23 -11.0358 1.0485
19 10 -21 -11.4217 -0.5500
19 10 -19 -9.4126 -1.6326
19 10 -17 -6.6554 -0.0626
19 10 -15 -0.7295 0.7059
19 10 -13 2.4387 0.0189
19 10 -11 -1.4467 0.0940
19 10 -9 -2.9469 0.6183
19 10 -7 -0.9877 0.2104
19 10 -5 -3.0298 -0.2208
19 10 -3 -3.7005 0.0837
19 10 -1 -0.5683 0.2836
19 10 1 -1.4351 0.4317
19 10 3 -1.9419 0.6681
19 10 5 3.6556 0.2741
19 10 7 6.2386 -0.2847
19 10 9 2.1690 -0.3042
19 10 11 -0.9722 0.1032
19 10 13 -0.3815 0.6806
19 10 15 1.9386 0.2237
19 10 17 3.2345 -1.0748
19 10 19 0.9358 -0.4308
19 10 21 -2.4851 2.1005
19 10 23 -3.5336 3.1378
19 10 25 -3.3203 1.1492
19 11 -26 0.7432 8.4467
19 11 -24 4.3120 4.6144
19 11 -22 7.3379 1.0514
19 11 -20 7.3140 -0.9948
19 11 -18 6.8299 -1.9786
19 11 -16 4.2996 -0.6977
19 11 -14 3.2994 1.1890
19 11 -12 10.6209 0.9030
19 11 -10 14.5749 -0.4414
19 11 -8 4.5190 -0.6349
19 11 -6 -4.4772 0.1937
19 11 -4 -2.6377 0.8301
19 11 -2 -0.3703 0.3961
19 11 0 -1.8217 -0.6899
19 11 2 -3.9285 -0.7912
19 11 4 -3.9956 0.1109
19 11 6 2.7233 0.2443
19 11 8 8.6073 -0.1747
19 11 10 2.3511 0.3366
19 11 12 -5.4757 1.1192
19 11 14 -4.9983 0.9322
19 11 16 -4.8796 -0.0849
19 11 18 -5.5546 -0.6152
19 11 20 -0.9576 1.2741
19 11 22 2.1949 4.1431
19 11 24 0.6174 3.5136
19 12 -25 -5.9953 -2.7213
19 12 -23 -5.8737 -2.1454
19 12 -21 0.2184 -1.4414
19 12 -19 3.0735 0.6870
19 12 -17 1.4748 2.3698
19 12 -15 2.8426 1.8439
19 12 -13 4.8702 0.1311
19 12 -11 1.9057 -0.8296
19 12 -9 0.7079 -0.1398
19 12 -7 6.7033 0.7576
19 12 -5 10.3486 -0.0449
19 12 -3 4.5426 -1.1024
19 12 -1 -1.8754 -0.7286
19 12 1 0.8133 -0.6020
19 12 3 7.3621 -1.1231
19 12 5 6.1938 -0.7651
19 12 7 -0.3857 -0.1853
19 12 9 -0.2589 0.1895
19 12 11 4.6577 0.6872
19 12 13 4.3443 0.2724
19 12 15 2.2414 0.1330
19 12 17 2.8362 0.5649
19 12 19 1.4677 -3.4163
19 12 21 0.7487 -10.5171
19 13 -22 5.2459 -6.0740
19 13 -20 -2.9475 -0.5540
19 13 -18 -4.6475 4.9375
19 13 -16 -0.3815 2.3562
19 13 -14 0.5613 -2.0409
19 13 -12 -2.6741 -0.7974
19 13 -10 -1.9781 1.9238
19 13 -8 0.7026 1.1796
19 13 -6 -2.8639 0.0033
19 13 -4 -6.9387 0.3082
19 13 -2 -6.9056 -0.2977
19 13 0 -12.1165 -0.7680
19 13 2 -20.0666 0.3628
19 13 4 -18.4462 0.0585
19 13 6 -12.3426 -1.6908
19 13 8 -9.8074 -1.6108
19 13 10 -5.1333 -0.5685
19 13 12 2.0836 -0.3382
19 13 14 3.3923 -0.7952
19 13 16 -0.8113 -1.6941
19 13 18 -3.2460 -0.5295
19 14 -19 3.0962 -5.1839
19 14 -17 1.6208 -4.7378
19 14 -15 -4.0593 -0.5577
19 14 -13 -7.3011 1.8184
19 14 -11 -4.9484 1.0783
19 14 -9 -5.2921 0.6480
19 14 -7 -5.0619 1.1687
19 14 -5 2.3391 1.1202
19 14 -3 5.6788 0.8143
19 14 -1 2.4553 0.6554
19 14 1 4.4360 0.0961
19 14 3 6.5290 -0.1733
19 14 5 1.4013 0.4825
19 14 7 -1.4118 0.6362
19 14 9 0.3696 -0.8626
19 14 11 0.2805 -2.5664
19 14 13 -0.1607 -1.3314
19 14 15 -0.2502 3.2816
19 15 -16 -3.2193 1.2529
19 15 -14 3.2843 -2.3780
19 15 -12 2.5120 -1.0232
19 15 -10 0.5447 1.2514
19 15 -8 3.5278 0.3708
19 15 -6 0.3161 -0.8387
19 15 -4 -7.2902 -0.3389
19 15 -2 -2.4965 0.2285
19 15 0 8.2072 0.1571
19 15 2 8.0950 0.5122
19 15 4 1.3470 1.6271
19 15 6 -4.4710 2.0238
19 15 8 -8.0005 1.2687
19 15 10 -4.1007 1.1151
19 15 12 3.3865 0.8738
19 16 -9 -1.3049 -6.1538
19 16 -7 -5.0850 -0.5031
19 16 -5 -4.5874 -1.1303
19 16 -3 -0.0186 -2.0237
19 16 -1 4.9447 0.1250
19 16 1 7.5054 1.2977
19 16 3 6.1560 0.6848
19 16 5 3.3224 1.4599
20 0 -36 -5.9758 -7.5820
20 0 -34 -1.6333 -4.3064
20 0 -32 3.4711 -0.7000
20 0 -30 3.4200 -3.6466
20 0 -28 0.3584 -8.9104
20 0 -26 1.5254 -10.0473
20 0 -24 6.2502 -7.3441
20 0 -22 6.6994 -6.2729
20 0 -20 1.9979 -7.7331
20 0 -18 -2.0273 -4.8769
20 0 -16 -5.1837 2.3524
20 0 -14 -8.5807 4.3961
20 0 -12 -5.2506 2.8197
20 0 -10 6.4625 7.8972
20 0 -8 13.5783 13.9177
20 0 -6 9.5651 10.2954
20 0 -4 5.5968 6.1300
20 0 -2 7.8540 9.7021
20 0 0 6.0262 9.0127
20 0 2 -3.9812 -0.0505
20 0 4 -8.1489 -3.4452
20 0 6 -0.3110 -0.8086
20 0 8 4.3275 -5.0665
20 0 10 -0.5059 -12.2368
20 0 12 -2.4277 -10.7872
20 0 14 -0.0638 -6.4038
20 0 16 0.7370 -8.0333
20 0 18 4.4099 -9.5664
20 0 20 5.3363 -4.3356
20 0 22 -5.4976 1.4791
20 0 24 -12.4078 1.9728
20 0 26 -5.4134 2.0467
20 0 28 -0.5227 5.8483
20 1 -35 0.7371 5.7968
20 1 -33 -3.2084 3.1776
20 1 -31 -5.4697 -3.7920
20 1 -29 -2.8162 -4.0587
20 1 -27 1.5101 1.4493
20 1 -25 2.7220 0.6805
20 1 -23 0.9537 -2.8517
20 1 -21 -0.0526 0.1194
20 1 -19 1.6465 2.6032
20 1 -17 4.6156 -1.0735
20 1 -15 5.8278 -2.2930
20 1 -13 2.6745 1.7252
20 1 -11 -4.1623 2.5839
20 1 -9 -9.4709 -0.5838
20 1 -7 -8.8576 -0.0248
20 1 -5 -4.9251 3.3908
20 1 -3 -3.2313 1.9886
20 1 -1 -2.8814 -1.7270
20 1 1 1.4899 -0.2390
20 1 3 7.2855 2.7958
20 1 5 5.5063 0.4233
20 1 7 -1.7911 -3.1557
20 1 9 -3.9618 -1.1342
20 1 11 -1.5959 1.9060
20 1 13 -1.0069 -0.8883
20 1 15 -0.8746 -3.2496
20 1 17 -1.5947 0.7509
20 1 19 -3.1758 1.9106
20 1 21 3.1590 -2.6700
20 1 23 14.6265 -1.8364
20 1 25 15.5278 2.8271
20 1 27 7.4461 1.3779
20 1 29 2.8860 -1.2654
20 1 31 1.3770 0.6044
20 2 -34 3.0452 -1.2957
20 2 -32 1.9973 -0.4024
20 2 -30 1.5002 1.5821
20 2 -28 2.0138 -0.2785
20 2 -26 0.5696 -1.1279
20 2 -24 -1.9800 1.7950
20 2 -22 -0.3905 1.8510
20 2 -20 3.7056 -0.7489
20 2 -18 2.5477 -0.2183
20 2 -16 -2.1266 1.4854
20 2 -14 -1.6410 0.4832
20 2 -12 2.4168 -0.9742
20 2 -10 3.4146 0.0879
20 2 -8 3.7832 1.3764
20 2 -6 6.1162 -0.2393
20 2 -4 5.0099 -1.7052
20 2 -2 -0.5974 -0.0060
20 2 0 -3.8630 0.8665
20 2 2 -2.8168 -1.0916
20 2 4 -1.6560 -1.5116
20 2 6 -0.6861 0.8330
20 2 8 2.3090 1.5390
20 2 10 4.3003 -0.7768
20 2 12 2.3221 -1.1060
20 2 14 0.4888 1.6175
20 2 16 1.2569 1.0856
20 2 18 0.6026 -1.4095
20 2 20 -1.8579 0.6997
20 2 22 -2.7636 2.4194
20 2 24 -3.3519 -0.3457
20 2 26 -4.9219 -0.4949
20 2 28 -4.7351 1.4942
20 2 30 -2.2142 0.2066
20 2 32 0.0696 0.2729
20 3 -35 -0.2246 -2.6855
20 3 -33 -3.6112 -0.7821
20 3 -31 -3.7485 0.8105
20 3 -29 -3.2540 -0.2212
20 3 -27 -5.0210 -1.6935
20 3 -25 -4.0302 -0.9930
20 3 -23 0.9547 -0.0363
20 3 -21 0.6964 -0.5300
20 3 -19 -6.4418 -0.1240
20 3 -17 -9.4173 0.9530
20 3 -15 -4.9725 0.1769
20 3 -13 -1.4793 -0.0267
20 3 -11 -2.0197 1.5244
20 3 -9 -2.5630 1.2591
20 3 -7 -2.3447 0.3497
20 3 -5 -2.7439 1.1563
20 3 -3 -1.6901 0.8048
20 3 -1 1.7731 -0.1157
20 3 1 2.6319 0.8357
20 3 3 -0.7867 0.3793
20 3 5 -0.6787 -1.6898
20 3 7 4.4599 -1.0514
20 3 9 4.9667 0.5414
20 3 11 0.4126 -0.4680
20 3 13 -1.6437 -1.7815
20 3 15 -2.1827 -1.1969
20 3 17 -1.8847 -0.3649
20 3 19 1.0207 -0.0962
20 3 21 -0.2098 0.6660
20 3 23 -5.9200 1.1593
20 3 25 -5.4016 -0.0195
20 3 27 0.7306 -1.0510
20 3 29 4.7135 -0.2617
20 3 31 6.1059 0.6476
20 4 -34 -0.8559 3.6660
20 4 -32 2.5194 1.7583
20 4 -30 2.7307 -1.2422
20 4 -28 -0.3400 -1.3423
20 4 -26 -3.9294 0.5436
20 4 -24 -6.4790 1.0937
20 4 -22 -5.7713 0.6493
20 4 -20 -1.2756 0.3094
20 4 -18 3.4274 -0.2293
20 4 -16 4.7269 -0.0741
20 4 -14 2.6420 0.6716
20 4 -12 0.6674 0.3108
20 4 -10 1.5474 -0.6708
20 4 -8 3.2004 -0.8695
20 4 -6 3.0181 -0.4255
20 4 -4 1.8035 0.0107
20 4 -2 -0.5208 -0.0646
20 4 0 -3.4400 -0.3313
20 4 2 -2.2460 0.0650
20 4 4 2.0869 0.5992
20 4 6 1.8821 0.3584
20 4 8 -0.9630 0.0507
20 4 10 0.6596 0.4455
20 4 12 3.1437 0.6867
20 4 14 2.0837 0.2448
20 4 16 0.1927 0.1578
20 4 18 -2.1905 0.3880
20 4 20 -3.6840 -0.0306
20 4 22 -1.3472 -0.0993
20 4 24 -0.6216 0.4260
20 4 26 -3.7564 -0.3069
20 4 28 -3.3589 -1.3413
20 4 30 -0.1016 -0.4355
20 5 -33 5.4718 -1.4507
20 5 -31 2.7787 -0.8086
20 5 -29 -0.6657 2.4242
20 5 -27 1.7373 3.3798
20 5 -25 7.0977 1.2664
20 5 -23 5.3992 0.3188
20 5 -21 -0.9423 1.0234
20 5 -19 -1.2206 0.8102
20 5 -17 2.1717 0.0971
20 5 -15 1.3458 0.4347
20 5 -13 -0.3509 0.2796
20 5 -11 1.3660 -1.0970
20 5 -9 1.8068 -1.2907
20 5 -7 -1.9864 -0.7954
20 5 -5 -4.3087 -1.6046
20 5 -3 -0.3979 -1.8284
20 5 -1 4.0862 -0.7704
20 5 1 2.0271 -0.3277
20 5 3 -1.9824 -0.1657
20 5 5 -1.8933 0.0781
20 5 7 -2.4595 0.3782
20 5 9 -5.4105 1.6746
20 5 11 -3.5179 2.3272
20 5 13 1.4201 1.2422
20 5 15 0.9765 1.0726
20 5 17 -0.1934 1.9906
20 5 19 5.2753 1.5371
20 5 21 9.3804 -0.2599
20 5 23 5.3724 -1.6655
20 5 25 1.3229 -1.2961
20 5 27 0.9433 0.2395
20 5 29 -2.0879 0.9846
20 5 31 -5.6952 0.8854
20 6 -32 -4.0561 9.6430
20 6 -30 -6.0352 5.6218
20 6 -28 -3.6062 -0.9236
20 6 -26 0.4454 -2.3295
20 6 -24 2.5237 0.7597
20 6 -22 1.3991 2.3965
20 6 -20 -1.7070 0.2843
20 6 -18 -3.7564 -0.9963
20 6 -16 -5.3147 0.6976
20 6 -14 -8.8289 0.8645
20 6 -12 -10.6628 -0.8891
20 6 -10 -6.5575 -0.3665
20 6 -8 0.3090 0.9757
20 6 -6 4.0107 -0.2318
20 6 -4 1.0276 -1.5458
20 6 -2 -5.5126 -0.4045
20 6 0 -6.3004 0.4731
20 6 2 -1.3249 -0.6396
20 6 4 0.1375 -0.8296
20 6 6 -0.1380 0.3214
20 6 8 2.7513 0.1860
20 6 10 1.2692 0.1147
20 6 12 -4.5436 1.1121
20 6 14 -1.9222 0.5215
20 6 16 6.3281 -0.4112
20 6 18 4.4269 0.3156
20 6 20 -7.7734 0.4139
20 6 22 -16.5060 0.7024
20 6 24 -15.4123 2.4481
20 6 26 -8.8349 1.7931
20 6 28 -1.3206 -0.6963
20 6 30 4.1777 -0.7621
20 7 -31 3.3335 -3.5764
20 7 -29 1.8023 -2.5831
20 7 -27 1.9679 -0.8537
20 7 -25 1.1286 0.6559
20 7 -23 0.4483 0.2113
20 7 -21 2.9497 -0.5384
20 7 -19 3.8327 0.0076
20 7 -17 1.4983 -0.0231
20 7 -15 3.4043 -0.5569
20 7 -13 8.9247 0.0932
20 7 -11 8.1408 0.5089
20 7 -9 0.3442 -0.2334
20 7 -7 -4.5832 -0.1923
20 7 -5 -1.5079 0.5880
20 7 -3 3.0892 0.2291
20 7 -1 1.3930 -0.4325
20 7 1 -2.2426 -0.1023
20 7 3 0.5740 -0.0663
20 7 5 4.3136 -0.3786
20 7 7 0.8332 0.2378
20 7 9 -2.5802 0.3701
20 7 11 -0.6085 -0.5180
20 7 13 -1.4157 -0.2253
20 7 15 -4.7226 0.4136
20 7 17 -2.0554 -0.2046
20 7 19 2.3154 0.0125
20 7 21 2.5738 0.6514
20 7 23 4.4825 -0.9383
20 7 25 8.2285 -1.8797
20 7 27 5.2382 0.2507
20 7 29 -2.9411 1.1129
20 8 -30 1.4575 2.3164
20 8 -28 2.5377 -0.3630
20 8 -26 -1.5203 -1.7914
20 8 -24 -5.2862 -0.0578
20 8 -22 -4.1480 0.9507
20 8 -20 1.6753 0.2305
20 8 -18 5.7285 0.1996
20 8 -16 3.7567 -0.1375
20 8 -14 2.5849 -0.9835
20 8 -12 5.5495 -0.3166
20 8 -10 5.3608 0.3791
20 8 -8 0.7444 -0.4240
20 8 -6 -2.2530 -0.7189
20 8 -4 -0.5363 -0.1284
20 8 -2 5.2636 -0.2742
20 8 0 8.0320 -0.5555
20 8 2 1.5147 -0.0899
20 8 4 -5.3628 -0.0465
20 8 6 -2.8978 -0.3530
20 8 8 2.5079 0.2819
20 8 10 3.8845 0.7883
20 8 12 3.4588 0.4221
20 8 14 1.4255 0.4632
20 8 16 -2.5910 0.2762
20 8 18 -2.7634 -0.3966
20 8 20 2.7737 0.2952
20 8 22 6.5717 0.8165
20 8 24 4.9875 -0.7397
20 8 26 3.3447 -1.9750
20 9 -29 3.1716 -4.7671
20 9 -27 1.2431 -1.3460
20 9 -25 -3.3986 1.0204
20 9 -23 -4.3856 0.7560
20 9 -21 -4.7539 0.2232
20 9 -19 -7.7226 -0.3886
20 9 -17 -6.2766 -0.5625
20 9 -15 -0.7585 0.2333
20 9 -13 0.8839 0.3369
20 9 -11 1.2253 -0.0486
20 9 -9 3.5360 0.2920
20 9 -7 3.7626 0.0575
20 9 -5 2.4295 -0.8514
20 9 -3 0.3263 -0.4712
20 9 -1 -4.0331 0.3842
20 9 1 -5.4443 -0.4078
20 9 3 -2.2236 -1.3424
20 9 5 0.3548 -0.3591
20 9 7 2.4324 0.6521
20 9 9 2.6603 0.2861
20 9 11 -1.6227 0.2931
20 9 13 -1.9814 0.6221
20 9 15 3.5393 -0.1028
20 9 17 3.4484 -1.0025
20 9 19 -0.1291 -1.0412
20 9 21 2.5332 0.2281
20 9 23 4.2416 2.5819
20 9 25 -1.9685 4.0182
20 10 -28 -0.7089 7.9847
20 10 -26 0.5193 5.3370
20 10 -24 0.0637 0.0396
20 10 -22 -0.9603 -3.5142
20 10 -20 0.9292 -2.5070
20 10 -18 1.4841 0.3146
20 10 -16 -0.3087 0.7898
20 10 -14 1.5206 -0.1485
20 10 -12 4.9757 0.1917
20 10 -10 3.9327 0.8959
20 10 -8 0.4229 0.4176
20 10 -6 -2.7084 -0.0940
20 10 -4 -5.0074 0.3537
20 10 -2 -3.5494 0.6289
20 10 0 0.0585 0.1694
20 10 2 1.1244 -0.0198
20 10 4 1.2955 0.0906
20 10 6 0.6590 -0.2993
20 10 8 -2.5922 -0.5359
20 10 10 -2.2009 -0.0942
20 10 12 2.3847 -0.2821
20 10 14 1.7160 -0.9733
20 10 16 -1.7970 -0.0658
20 10 18 -0.5580 1.2791
20 10 20 0.2915 0.1287
20 10 22 -1.8774 -1.1678
20 10 24 -1.4677 0.5198
20 11 -25 1.4937 -3.6546
20 11 -23 7.8171 -2.6926
20 11 -21 7.3844 -0.6097
20 11 -19 4.8662 0.1676
20 11 -17 6.0069 -0.4648
20 11 -15 7.7628 -0.5917
20 11 -13 6.4010 -0.2274
20 11 -11 2.2908 -0.3534
20 11 -9 0.8276 -0.3375
20 11 -7 4.8155 0.2750
20 11 -5 6.4069 0.7609
20 11 -3 1.5269 0.8753
20 11 -1 -2.2576 0.7070
20 11 1 -3.2341 0.3870
20 11 3 -6.7147 0.1992
20 11 5 -9.2637 0.0870
20 11 7 -4.3890 0.3096
20 11 9 3.1822 0.5454
20 11 11 4.5623 -0.2910
20 11 13 0.9771 -0.7642
20 11 15 -1.0225 0.3832
20 11 17 -1.7643 0.4164
20 11 19 -3.6976 -1.5703
20 11 21 -4.0687 -3.3501
20 12 -24 4.8993 -6.7916
20 12 -22 3.5441 -3.9532
20 12 -20 0.5923 2.7969
20 12 -18 1.0799 3.8473
20 12 -16 1.7157 -0.8021
20 12 -14 -7.1540 -2.5560
20 12 -12 -16.4455 -0.0669
20 12 -10 -13.1037 0.8705
20 12 -8 -7.1851 -0.6305
20 12 -6 -5.8963 -0.9413
20 12 -4 -2.7577 -0.0708
20 12 -2 -1.9601 0.0122
20 12 0 -4.5911 -0.0361
20 12 2 -1.2868 0.4604
20 12 4 0.2891 0.6172
20 12 6 -7.8087 0.0562
20 12 8 -10.6983 -0.6199
20 12 10 -2.9984 -0.4067
20 12 12 1.2580 0.6565
20 12 14 -1.4200 1.4374
20 12 16 -3.1783 1.4587
20 12 18 -0.7485 -0.3052
20 13 -21 -8.0439 6.9607
20 13 -19 -8.0638 5.1210
20 13 -17 -7.4152 3.8140
20 13 -15 -4.8258 1.3290
20 13 -13 -1.1548 -1.0505
20 13 -11 -2.3412 -1.0748
20 13 -9 -3.8243 -0.2147
20 13 -7 0.2066 0.2137
20 13 -5 1.6044 0.3884
20 13 -3 -0.1973 -0.1568
20 13 -1 3.5870 -0.8359
20 13 1 6.7002 -0.6586
20 13 3 4.0474 -0.2280
20 13 5 3.9735 0.3606
20 13 7 3.5809 0.9687
20 13 9 -1.7851 0.2314
20 13 11 -1.1581 -1.0405
20 13 13 5.5871 -1.3886
20 13 15 6.0731 -1.8247
20 14 -18 2.9167 -7.2877
20 14 -16 3.2463 -3.0389
20 14 -14 2.4757 0.8531
20 14 -12 1.8684 0.2285
20 14 -10 1.8924 -0.6035
20 14 -8 -2.0483 0.6736
20 14 -6 -10.1492 0.6989
20 14 -4 -10.7750 -0.2160
20 14 -2 2.5297 0.1302
20 14 0 16.7100 0.3294
20 14 2 16.7829 0.3126
20 14 4 5.8605 1.1427
20 14 6 -1.6359 1.4378
20 14 8 0.4044 0.9512
20 14 10 2.8021 0.2778
20 14 12 -2.2546 -0.6096
20 14 14 -7.5657 0.0085
20 15 -13 -2.3463 -2.1976
20 15 -11 -0.6385 -1.4033
20 15 -9 1.3430 -0.5532
20 15 -7 4.6837 -0.3430
20 15 -5 8.6931 0.1716
20 15 -3 7.0815 1.1908
20 15 -1 -0.4284 1.4257
20 15 1 -3.1781 0.5912
20 15 3 0.0530 0.5267
20 15 5 1.6487 1.9257
20 15 7 2.4544 2.2303
20 15 9 2.7832 1.1394
20 16 -6 6.3795 -1.8355
20 16 -4 3.4141 -2.0829
20 16 -2 0.5426 -1.9343
20 16 0 0.5401 -0.9716
20 16 2 -2.4864 -1.8410
20 16 4 -5.1314 -4.6548
21 1 -34 5.1440 -0.3798
21 1 -32 1.9100 1.5439
21 1 -30 -2.3615 0.2626
21 1 -28 -5.0715 -3.0627
21 1 -26 -4.8395 -1.3793
21 1 -24 -0.5453 1.3839
21 1 -22 4.4375 -0.4041
21 1 -20 2.9599 -1.8339
21 1 -18 -3.9594 0.3422
21 1 -16 -5.9990 1.1615
21 1 -14 -0.8833 -0.7622
21 1 -12 2.2128 -0.7541
21 1 -10 0.4121 1.0782
21 1 -8 -0.8376 0.6752
21 1 -6 -1.6578 -0.4936
21 1 -4 -4.0152 0.3970
21 1 -2 -2.6695 1.4141
21 1 0 3.4080 1.1053
21 1 2 4.5872 0.1332
21 1 4 -0.7275 -0.4607
21 1 6 -0.3038 0.5212
21 1 8 6.8305 0.6490
21 1 10 7.1014 -1.4710
21 1 12 1.3915 -0.9603
21 1 14 0.7225 1.5481
21 1 16 0.5006 0.1687
21 1 18 -4.4279 -1.5679
21 1 20 -6.9440 0.3426
21 1 22 -8.0331 0.3830
21 1 24 -10.6985 -1.9166
21 1 26 -5.8300 -0.5575
21 1 28 5.4107 2.0990
21 1 30 9.1212 0.4169
21 2 -35 -0.8637 2.1237
21 2 -33 -1.3021 -0.6040
21 2 -31 0.7734 -0.1093
21 2 -29 2.9162 0.7923
21 2 -27 1.9639 0.4876
21 2 -25 -1.7994 1.9451
21 2 -23 -4.9394 3.5810
21 2 -21 -5.2859 3.0324
21 2 -19 -2.6742 2.2802
21 2 -17 2.1760 1.8702
21 2 -15 5.5994 1.2397
21 2 -13 3.6691 1.2035
21 2 -11 -0.8974 0.4052
21 2 -9 -1.8652 -1.8252
21 2 -7 1.3249 -2.4022
21 2 -5 3.6027 -1.4794
21 2 -3 1.1197 -2.5137
21 2 -1 -4.6196 -3.9010
21 2 1 -6.8549 -2.7889
21 2 3 -0.9989 -1.9451
21 2 5 5.3337 -2.4497
21 2 7 2.3989 -0.8040
21 2 9 -2.7868 1.7898
21 2 11 -1.1380 1.5909
21 2 13 -0.1676 0.8864
21 2 15 -1.7232 2.2261
21 2 17 3.6566 3.1563
21 2 19 9.0605 2.3960
21 2 21 4.6256 1.7220
21 2 23 0.4445 1.9112
21 2 25 0.9206 1.5233
21 2 27 -2.0681 -0.8609
21 2 29 -4.8634 -3.0668
21 2 31 -1.8040 -2.1663
21 3 -34 -0.7764 1.1915
21 3 -32 1.8596 -0.0327
21 3 -30 0.5801 0.6608
21 3 -28 -2.3573 2.2873
21 3 -26 -1.5227 1.3804
21 3 -24 0.3692 0.9233
21 3 -22 -0.7595 2.3058
21 3 -20 -0.4444 1.9153
21 3 -18 1.9615 0.5438
21 3 -16 -0.6972 1.0680
21 3 -14 -4.2411 1.8097
21 3 -12 1.9081 0.8739
21 3 -10 10.3711 -0.3811
21 3 -8 8.0132 -0.8379
21 3 -6 1.1220 -1.4143
21 3 -4 1.2931 -2.0255
21 3 -2 4.9461 -1.5817
21 3 0 4.6847 -1.4350
21 3 2 1.6262 -2.3344
21 3 4 -1.1590 -2.1400
21 3 6 -2.6758 -0.8808
21 3 8 -2.2334 -0.0625
21 3 10 -0.5707 0.4362
21 3 12 1.6869 0.4843
21 3 14 4.0040 0.8165
21 3 16 2.8632 1.8142
21 3 18 -1.7736 1.5944
21 3 20 -4.0966 1.3906
21 3 22 -3.8731 2.3054
21 3 24 -4.0948 0.9566
21 3 26 -1.6134 -0.7884
21 3 28 2.3621 0.8361
21 3 30 0.3884 0.9392
21 4 -33 3.8067 6.4852
21 4 -31 2.2963 5.4471
21 4 -29 -0.1093 -0.1628
21 4 -27 -0.4871 -1.6396
21 4 -25 -0.6818 -0.2514
21 4 -23 -0.4361 0.1196
21 4 -21 1.7876 0.3305
21 4 -19 3.7641 0.2308
21 4 -17 4.1996 -0.0602
21 4 -15 3.6022 0.1124
21 4 -13 0.1936 -0.5163
21 4 -11 -5.0208 -0.5393
21 4 -9 -7.0166 0.9502
21 4 -7 -5.2499 0.5140
21 4 -5 -3.2092 -0.9701
21 4 -3 -2.4370 0.0123
21 4 -1 -2.6159 1.0243
21 4 1 -2.3065 0.0366
21 4 3 -1.0083 -0.3144
21 4 5 -0.5146 0.4172
21 4 7 -0.2582 0.0721
21 4 9 1.4509 -0.7365
21 4 11 1.9719 -0.0368
21 4 13 -0.5515 0.5739
21 4 15 -2.5491 -0.2736
21 4 17 -0.9255 0.1901
21 4 19 1.7824 0.9664
21 4 21 0.5796 -1.2049
21 4 23 -3.1636 -1.7640
21 4 25 -2.3127 1.4233
21 4 27 2.8416 2.3783
21 4 29 5.3098 2.2190
21 5 -32 -5.0809 -4.1625
21 5 -30 -1.5196 -0.5351
21 5 -28 2.7976 1.4263
21 5 -26 3.8835 0.1592
21 5 -24 0.8335 -0.2805
21 5 -22 -2.8197 0.6913
21 5 -20 -3.2487 0.7635
21 5 -18 -2.6171 -0.2843
21 5 -16 -3.7704 -0.9410
21 5 -14 -3.7682 -0.2796
21 5 -12 -1.1390 0.4017
21 5 -10 0.1489 -0.1126
21 5 -8 -0.7399 -0.5513
21 5 -6 0.1946 -0.1876
21 5 -4 3.7365 0.1067
21 5 -2 5.5079 -0.0526
21 5 0 1.7270 -0.5111
21 5 2 -4.4714 -0.3551
21 5 4 -5.6975 0.5823
21 5 6 -2.9368 0.6494
21 5 8 -3.6313 0.3719
21 5 10 -5.8744 1.1781
21 5 12 -3.9023 1.1267
21 5 14 -0.6237 -0.1397
21 5 16 1.4602 -0.0567
21 5 18 3.7604 0.5836
21 5 20 4.6350 0.1081
21 5 22 4.4669 -0.1492
21 5 24 4.3461 0.0205
21 5 26 -0.2931 -0.3711
21 5 28 -8.4983 -0.7078
21 5 30 -11.1939 -0.9257
21 6 -31 0.3949 6.7293
21 6 -29 2.7658 2.5095
21 6 -27 2.6931 0.3334
21 6 -25 -0.1321 1.5420
21 6 -23 0.2192 1.4782
21 6 -21 2.4940 -0.7051
21 6 -19 2.3956 -1.0432
21 6 -17 2.5039 0.3532
21 6 -15 6.3680 0.3125
21 6 -13 10.9371 -0.2041
21 6 -11 10.2461 0.0359
21 6 -9 5.0815 -0.3432
21 6 -7 1.9960 -0.5209
21 6 -5 0.6748 0.1558
21 6 -3 -2.9299 -0.0697
21 6 -1 -4.0253 -0.5570
21 6 1 0.3430 -0.1673
21 6 3 1.9256 -0.1941
21 6 5 -0.3928 -0.2383
21 6 7 2.6907 0.6334
21 6 9 8.0170 0.7479
21 6 11 4.6476 0.1376
21 6 13 -1.9033 0.7234
21 6 15 -1.5351 0.9796
21 6 17 -0.4704 -0.5791
21 6 19 -4.3560 -0.6853
21 6 21 -5.4206 1.2594
21 6 23 -1.2690 0.7819
21 6 25 1.0654 -1.3792
21 6 27 0.8826 -1.4150
21 6 29 1.8795 -1.8628
21 7 -30 6.9627 -7.5762
21 7 -28 6.0301 -2.8603
21 7 -26 3.5923 -0.1150
21 7 -24 1.6645 -0.3400
21 7 -22 2.8480 -0.6506
21 7 -20 4.9249 0.2719
21 7 -18 3.5896 -0.0874
21 7 -16 0.6569 -1.3332
21 7 -14 -2.3722 -0.7478
21 7 -12 -5.9607 0.4411
21 7 -10 -5.7677 0.1213
21 7 -8 -1.2106 -0.4837
21 7 -6 2.2749 0.2113
21 7 -4 4.5980 1.2770
21 7 -2 5.6314 1.1859
21 7 0 1.9033 0.3260
21 7 2 -2.5390 -0.3900
21 7 4 -3.3743 -0.4997
21 7 6 -4.0696 0.4009
21 7 8 -4.2696 0.7920
21 7 10 -1.3862 -0.1843
21 7 12 0.4871 -0.1988
21 7 14 -0.3665 0.2115
21 7 16 -0.1209 -1.0389
21 7 18 1.5313 -1.4887
21 7 20 2.1746 -0.6661
21 7 22 1.1862 -1.2233
21 7 24 -0.9972 -1.3457
21 7 26 -3.0733 0.0729
21 7 28 -3.6791 0.2237
21 8 -29 -2.2345 -1.6737
21 8 -27 -8.6733 -1.3283
21 8 -25 -9.8312 -2.2252
21 8 -23 -7.2252 -1.9709
21 8 -21 -6.7780 -0.9714
21 8 -19 -6.1110 -0.1275
21 8 -17 -2.7069 0.0783
21 8 -15 1.0201 -0.7602
21 8 -13 4.1170 -1.0936
21 8 -11 5.3534 -0.0970
21 8 -9 1.8640 0.2664
21 8 -7 -5.3488 -0.5504
21 8 -5 -11.6613 -0.5931
21 8 -3 -12.1217 0.5834
21 8 -1 -6.6410 1.2883
21 8 1 -3.0504 0.9754
21 8 3 -3.3679 0.5612
21 8 5 -0.1434 0.2358
21 8 7 3.2808 0.2398
21 8 9 -0.0921 0.5577
21 8 11 -0.9024 -0.4996
21 8 13 3.1164 -1.8964
21 8 15 -2.7041 -0.5577
21 8 17 -13.8509 0.8398
21 8 19 -10.7497 -0.8590
21 8 21 2.9194 -2.1106
21 8 23 10.9109 -1.6123
21 8 25 11.8254 -2.0661
21 9 -28 0.9769 1.0617
21 9 -26 4.2940 0.1436
21 9 -24 5.4041 -2.3417
21 9 -22 4.2356 -1.5244
21 9 -20 2.2957 1.0322
21 9 -18 2.3125 0.7953
21 9 -16 2.5229 -0.5189
21 9 -14 0.4994 -0.4562
21 9 -12 0.2387 -0.2811
21 9 -10 4.0237 -0.4567
21 9 -8 7.5940 -0.3284
21 9 -6 7.5466 -0.2273
21 9 -4 4.7951 -0.2131
21 9 -2 3.9783 -0.2901
21 9 0 8.2033 -0.6798
21 9 2 10.7959 -0.2833
21 9 4 4.2065 0.8866
21 9 6 -4.3787 0.5792
21 9 8 -4.3692 -0.3137
21 9 10 -0.8707 0.6886
21 9 12 -1.8752 1.1610
21 9 14 -0.8151 -0.5570
21 9 16 7.0324 -1.0161
21 9 18 11.3912 -0.2520
21 9 20 5.9996 -1.1422
21 9 22 -2.9905 -0.8409
21 9 24 -10.3259 3.2679
21 10 -27 -3.4860 4.5233
21 10 -25 0.7105 1.5754
21 10 -23 2.4727 0.1313
21 10 -21 0.5798 -0.5205
21 10 -19 -3.1546 -0.5189
21 10 -17 -4.6135 0.0383
21 10 -15 -3.9665 0.8037
21 10 -13 -9.9987 0.8055
21 10 -11 -19.6919 -0.2989
21 10 -9 -18.0028 -0.9544
21 10 -7 -7.1569 -0.3469
21 10 -5 -0.4618 0.3002
21 10 -3 0.2953 0.2516
21 10 -1 -1.3874 0.1706
21 10 1 -1.4397 0.2701
21 10 3 2.8126 0.0876
21 10 5 4.8580 0.0703
21 10 7 2.3115 0.2400
21 10 9 2.4526 -0.5077
21 10 11 3.5157 -0.9896
21 10 13 0.6542 0.4321
21 10 15 -0.6680 1.6060
21 10 17 0.3448 0.7248
21 10 19 -1.5897 -0.9451
21 10 21 -2.1469 -2.1643
21 10 23 3.2410 -2.3005
21 11 -24 1.0384 -1.7092
21 11 -22 -1.0060 0.7078
21 11 -20 0.3924 1.3110
21 11 -18 7.4464 -0.5200
21 11 -16 7.2913 -1.6482
21 11 -14 -0.0123 -0.0692
21 11 -12 0.4127 1.6637
21 11 -10 5.3632 0.5246
21 11 -8 3.2568 -0.9650
21 11 -6 -2.0391 0.2143
21 11 -4 -5.2084 0.9369
21 11 -2 -6.1185 -0.6518
21 11 0 -4.2270 -0.6293
21 11 2 -4.4167 1.4795
21 11 4 -8.0594 1.5178
21 11 6 -8.5935 -0.2882
21 11 8 -7.3662 -0.6359
21 11 10 -6.0188 0.3254
21 11 12 0.5404 1.0105
21 11 14 6.0195 0.6524
21 11 16 3.4670 -1.1090
21 11 18 1.5689 -1.2506
21 11 20 2.0331 2.6989
21 12 -23 -0.5638 4.3961
21 12 -21 2.0101 4.4725
21 12 -19 2.7376 2.1025
21 12 -17 0.7867 0.2836
21 12 -15 -0.2920 -0.0696
21 12 -13 -0.4217 -0.9668
21 12 -11 -0.8212 -1.9735
21 12 -9 -1.0429 -0.5336
21 12 -7 -0.3825 1.6061
21 12 -5 2.5824 1.1318
21 12 -3 7.3538 -0.1982
21 12 -1 9.9361 -0.2729
21 12 1 10.3530 -0.4897
21 12 3 11.5802 -0.6468
21 12 5 10.8265 0.2000
21 12 7 7.4759 0.5457
21 12 9 6.2881 0.2634
21 12 11 3.1927 0.1837
21 12 13 -5.8663 -0.2442
21 12 15 -10.5731 0.3967
21 13 -20 -9.4422 -5.1280
21 13 -18 -17.4815 -0.2019
21 13 -16 -15.0524 3.9163
21 13 -14 -5.0686 1.2083
21 13 -12 -0.4380 -1.3002
21 13 -10 2.2207 0.3096
21 13 -8 6.9604 0.5466
21 13 -6 5.2332 -1.1796
21 13 -4 0.9552 -0.6526
21 13 -2 4.2242 0.3102
21 13 0 7.2863 -0.7589
21 13 2 3.5594 -1.1661
21 13 4 0.9676 -0.0462
21 13 6 1.8374 0.0177
21 13 8 0.5312 -1.3051
21 13 10 -1.7329 -1.3239
21 13 12 0.3680 0.4575
21 13 14 4.6638 -0.1888
21 14 -17 8.3705 -11.5914
21 14 -15 -2.4678 -2.7783
21 14 -13 -2.9275 3.7721
21 14 -11 2.7518 2.1209
21 14 -9 -2.1021 -0.6046
21 14 -7 -8.1284 -0.1176
21 14 -5 -5.4670 0.5049
21 14 -3 -6.0361 0.3566
21 14 -1 -10.2555 0.7319
21 14 1 -9.8328 0.3899
21 14 3 -10.0355 -0.9554
21 14 5 -9.2272 -0.8372
21 14 7 -1.8017 0.5743
21 14 9 0.5518 -0.5237
21 14 11 -5.8222 -4.3943
21 15 -10 2.8651 0.9390
21 15 -8 9.3641 0.9400
21 15 -6 13.5936 1.4303
21 15 -4 11.7129 2.4155
21 15 -2 7.2972 3.0622
21 15 0 2.0478 3.3207
21 15 2 1.4337 2.9664
21 15 4 6.5076 1.5836
21 15 6 6.4049 -0.6587
21 15 8 0.7462 -0.8183
22 0 -34 -8.5441 -17.7321
22 0 -32 -5.4590 -9.4153
22 0 -30 -2.5427 -0.7038
22 0 -28 -2.8349 -3.0389
22 0 -26 -3.9982 -3.3701
22 0 -24 -2.0297 5.0790
22 0 -22 1.2123 8.8247
22 0 -20 0.3493 5.2232
22 0 -18 -2.5631 6.7261
22 0 -16 -1.4242 12.1698
22 0 -14 1.7815 10.4821
22 0 -12 3.5659 4.6515
22 0 -10 6.5055 3.9358
22 0 -8 8.4001 4.6831
22 0 -6 3.6205 -0.9066
22 0 -4 -3.0001 -7.8190
22 0 -2 -4.5691 -7.4968
22 0 0 -4.7594 -5.5531
22 0 2 -6.2827 -10.2129
22 0 4 -3.5820 -13.4520
22 0 6 2.6216 -7.5839
22 0 8 3.6721 -3.1701
22 0 10 0.5372 -6.0558
22 0 12 -0.4282 -3.9694
22 0 14 -1.5934 4.9388
22 0 16 -1.1362 6.8242
22 0 18 6.0913 3.4859
22 0 20 7.6058 7.4526
22 0 22 -3.0334 12.5651
22 0 24 -6.1640 8.2924
22 0 26 2.1884 2.0656
22 1 -33 6.8637 3.6552
22 1 -31 2.9171 1.5117
22 1 -29 -0.2907 0.1100
22 1 -27 -1.3150 0.4728
22 1 -25 -0.3218 0.1503
22 1 -23 1.8747 -0.9685
22 1 -21 4.0876 0.3262
22 1 -19 5.3189 2.4329
22 1 -17 4.8117 0.5939
22 1 -15 3.8513 -1.9018
22 1 -13 4.7885 0.9994
22 1 -11 5.7467 3.4584
22 1 -9 3.7542 -0.5625
22 1 -7 1.4439 -2.2577
22 1 -5 1.4325 2.1836
22 1 -3 1.5525 2.0972
22 1 -1 1.6069 -2.8606
22 1 1 3.5659 -2.3811
22 1 3 4.3714 1.5286
22 1 5 1.0803 0.8197
22 1 7 -0.8332 -1.8884
22 1 9 2.4555 -0.7372
22 1 11 4.6546 1.4448
22 1 13 3.4829 -0.2548
22 1 15 4.4087 -1.8444
22 1 17 4.7565 1.0108
22 1 19 0.0805 2.5350
22 1 21 -3.0270 -0.4744
22 1 23 -2.1147 -1.7894
22 1 25 -2.2586 0.8558
22 1 27 -0.9286 3.5784
22 1 29 2.9996 3.8950
22 2 -34 -4.7687 -0.5466
22 2 -32 -1.0566 -0.4438
22 2 -30 2.1557 0.2797
22 2 -28 4.5589 -0.3320
22 2 -26 4.1681 -1.0636
22 2 -24 -1.5892 0.3305
22 2 -22 -6.7491 1.6926
22 2 -20 -4.7381 0.3100
22 2 -18 -1.0774 -1.5073
22 2 -16 -2.3668 -0.5950
22 2 -14 -4.6753 0.0880
22 2 -12 -4.5507 -1.6463
22 2 -10 -4.8795 -1.0213
22 2 -8 -5.2198 1.4775
22 2 -6 -2.5925 0.0621
22 2 -4 0.0568 -1.6156
22 2 -2 -1.4822 0.7805
22 2 0 -4.2689 1.8840
22 2 2 -2.8874 -0.0216
22 2 4 1.2871 -0.3029
22 2 6 2.4870 1.2377
22 2 8 -0.2053 1.5055
22 2 10 -2.7722 0.1127
22 2 12 -3.0632 -0.0905
22 2 14 -2.7235 1.3327
22 2 16 -3.8713 0.3957
22 2 18 -5.0444 -1.8429
22 2 20 -2.9412 -1.0229
22 2 22 0.8116 -0.0830
22 2 24 2.2940 -1.0121
22 2 26 2.4268 0.2594
22 2 28 2.4826 3.1043
22 2 30 1.2115 4.1378
22 3 -33 0.2735 -2.3255
22 3 -31 0.6411 -2.0747
22 3 -29 -0.7723 0.9138
22 3 -27 -3.1219 2.9983
22 3 -25 -2.8267 0.8801
22 3 -23 -0.0518 -0.4377
22 3 -21 1.6018 0.5749
22 3 -19 1.9635 0.6792
22 3 -17 2.6436 0.5077
22 3 -15 1.8256 0.9127
22 3 -13 -1.2288 0.5077
22 3 -11 -3.2907 -0.2124
22 3 -9 -3.6734 -0.2107
22 3 -7 -3.2853 -0.0259
22 3 -5 0.7261 -0.2019
22 3 -3 7.4565 -0.6739
22 3 -1 8.3517 -1.2817
22 3 1 0.4803 -1.3953
22 3 3 -7.0836 -0.3896
22 3 5 -6.4032 0.1510
22 3 7 -1.8073 -0.8495
22 3 9 -0.8670 -0.4390
22 3 11 -2.2643 1.2189
22 3 13 -2.5445 0.0332
22 3 15 -1.6679 -1.1475
22 3 17 3.1027 0.9349
22 3 19 9.6634 1.0305
22 3 21 8.3231 -0.8320
22 3 23 1.1297 0.7956
22 3 25 -2.1151 1.9701
22 3 27 -3.2334 -0.3267
22 3 29 -4.8529 -0.2053
22 4 -32 4.1582 8.6707
22 4 -30 5.6299 6.2613
22 4 -28 4.9943 1.3152
22 4 -26 2.0089 -0.7084
22 4 -24 0.3814 -1.1417
22 4 -22 1.3767 -0.9653
22 4 -20 0.6014 0.1282
22 4 -18 -2.5509 0.4024
22 4 -16 -2.8115 -0.4681
22 4 -14 1.0918 -0.7351
22 4 -12 4.5640 -0.1993
22 4 -10 5.0985 -0.0585
22 4 -8 4.6345 -0.4435
22 4 -6 3.5943 -0.3513
22 4 -4 0.1524 0.2089
22 4 -2 -3.1574 0.2558
22 4 0 -2.0323 0.0522
22 4 2 0.4583 0.4473
22 4 4 -1.1548 0.9389
22 4 6 -3.3447 0.5470
22 4 8 0.0430 -0.2161
22 4 10 4.2329 0.1011
22 4 12 1.9516 0.8270
22 4 14 -2.3982 -0.0175
22 4 16 -5.0465 -1.3468
22 4 18 -10.7075 -1.0544
22 4 20 -14.3354 -0.2004
22 4 22 -7.2175 -0.1914
22 4 24 0.0235 -0.6130
22 4 26 -3.4104 -1.3092
22 4 28 -7.5557 -2.3869
22 5 -31 -7.1304 -7.8236
22 5 -29 -2.1142 -3.6376
22 5 -27 1.7097 -0.2825
22 5 -25 1.3441 1.0057
22 5 -23 -0.1832 -0.4389
22 5 -21 0.3320 -1.9776
22 5 -19 0.7888 -0.9181
22 5 -17 -0.7152 -0.3376
22 5 -15 -1.7979 -1.2672
22 5 -13 -2.7719 -1.2374
22 5 -11 -4.9519 -1.2605
22 5 -9 -4.7847 -1.6338
22 5 -7 -2.5033 -0.2105
22 5 -5 -2.2780 1.2792
22 5 -3 -1.1403 0.6204
22 5 -1 2.7759 0.3443
22 5 1 2.9421 1.7956
22 5 3 -1.1224 2.0335
22 5 5 -2.6657 1.0562
22 5 7 -1.9666 1.7452
22 5 9 -2.3943 1.9573
22 5 11 -1.2156 -0.1830
22 5 13 2.7132 -0.6730
22 5 15 4.7341 0.1975
22 5 17 4.2917 -0.8904
22 5 19 5.5386 -1.1480
22 5 21 6.9767 -0.6423
22 5 23 5.0228 -2.5109
22 5 25 3.0043 -2.3227
22 5 27 3.3538 1.0967
22 6 -30 6.0127 1.8178
22 6 -28 1.2742 2.1356
22 6 -26 -0.8772 -0.5392
22 6 -24 1.8680 -1.0843
22 6 -22 3.2825 0.0541
22 6 -20 1.6551 -0.4660
22 6 -18 2.8297 -1.0858
22 6 -16 5.2275 -0.4515
22 6 -14 2.7146 -0.2598
22 6 -12 -0.9801 -0.3147
22 6 -10 -0.5957 -0.2335
22 6 -8 0.3361 -0.6603
22 6 -6 -1.7583 -0.7656
22 6 -4 -5.6645 -0.1990
22 6 -2 -7.6651 0.4763
22 6 0 -3.5564 0.8996
22 6 2 3.4827 0.4822
22 6 4 5.5747 0.2022
22 6 6 2.6673 0.8675
22 6 8 -2.3246 0.9128
22 6 10 -8.3379 0.5225
22 6 12 -9.1980 0.8864
22 6 14 -3.2399 0.8994
22 6 16 0.1136 0.1999
22 6 18 -0.6765 -0.5257
22 6 20 2.5579 -0.8524
22 6 22 7.6968 -0.1356
22 6 24 5.7111 0.0798
22 6 26 -1.2576 -1.0858
22 6 28 -3.2230 -0.8262
22 7 -29 -10.2173 -1.4176
22 7 -27 -9.0955 2.5799
22 7 -25 -4.8649 1.9757
22 7 -23 -3.4660 -1.2900
22 7 -21 -4.1256 -1.0688
22 7 -19 -3.7827 0.4957
22 7 -17 -1.6817 -0.0922
22 7 -15 0.1071 -0.6737
22 7 -13 0.2367 -0.1802
22 7 -11 0.7783 0.1587
22 7 -9 1.7077 0.3119
22 7 -7 -0.2613 0.1513
22 7 -5 -3.3658 -0.2221
22 7 -3 -2.6801 -0.2544
22 7 -1 0.0924 -0.3382
22 7 1 1.1617 -0.1225
22 7 3 2.3027 0.6809
22 7 5 4.0384 0.4797
22 7 7 4.5757 -0.4794
22 7 9 6.9599 -0.1822
22 7 11 10.0387 0.4263
22 7 13 5.0150 -0.2023
22 7 15 -5.3645 -0.6855
22 7 17 -8.8144 -0.2525
22 7 19 -5.8780 -0.1830
22 7 21 -3.8253 -0.2535
22 7 23 -0.5244 0.9625
22 7 25 6.4935 2.8016
22 8 -28 -1.0530 2.9292
22 8 -26 2.7209 -2.1505
22 8 -24 6.6103 -2.9007
22 8 -22 3.1889 -0.2376
22 8 -20 -3.0323 0.7784
22 8 -18 -5.4578 0.0878
22 8 -16 -4.6870 -0.2497
22 8 -14 -2.6093 -0.3867
22 8 -12 -1.5438 -0.7568
22 8 -10 -1.9318 -0.5416
22 8 -8 -1.1939 0.2230
22 8 -6 -0.6008 0.4063
22 8 -4 -0.8640 0.1899
22 8 -2 1.7990 0.1706
22 8 0 5.3533 0.1834
22 8 2 4.1431 0.4574
22 8 4 -1.3215 0.4212
22 8 6 -7.9610 -0.5630
22 8 8 -12.0019 -0.8561
22 8 10 -9.1760 -0.0834
22 8 12 -1.8723 0.0365
22 8 14 3.2616 0.0086
22 8 16 4.2490 0.4610
22 8 18 2.5658 -0.1687
22 8 20 -1.0380 -1.3848
22 8 22 -5.8875 -0.7235
22 8 24 -9.7428 0.9257
22 9 -27 1.5382 -0.6277
22 9 -25 -1.2891 -0.5819
22 9 -23 -1.8109 0.2002
22 9 -21 -1.5364 -0.1324
22 9 -19 -2.0469 -1.4975
22 9 -17 -1.6536 -1.0484
22 9 -15 -3.4526 1.0237
22 9 -13 -7.3635 1.1066
22 9 -11 -6.8505 -0.6608
22 9 -9 -2.4329 -0.8450
22 9 -7 2.1174 0.7199
22 9 -5 5.5097 0.8661
22 9 -3 3.0923 -0.8331
22 9 -1 -2.1255 -1.2519
22 9 1 0.2644 0.0767
22 9 3 6.4648 0.6555
22 9 5 8.9100 0.0918
22 9 7 10.6742 -0.6219
22 9 9 8.7131 -0.8914
22 9 11 0.4676 -0.1736
22 9 13 -1.3271 0.4744
22 9 15 6.4259 -0.1734
22 9 17 10.3011 -0.8487
22 9 19 7.7493 -0.0504
22 9 21 5.6910 1.4577
22 9 23 4.0791 1.2620
22 10 -26 0.3838 3.6265
22 10 -24 -1.1730 1.8994
22 10 -22 -0.0602 -1.6847
22 10 -20 7.0099 -2.4103
22 10 -18 9.0979 -0.0545
22 10 -16 2.6999 1.2976
22 10 -14 -1.1839 0.9659
22 10 -12 1.5808 0.3177
22 10 -10 3.7157 -0.3162
22 10 -8 1.8793 -0.1091
22 10 -6 0.0598 0.6491
22 10 -4 1.1047 0.1709
22 10 -2 1.9143 -0.9188
22 10 0 -0.6431 -0.8115
22 10 2 -1.8922 -0.2040
22 10 4 0.5736 -0.2403
22 10 6 -0.5750 -0.5544
22 10 8 -3.4991 -0.6491
22 10 10 1.6936 -0.0810
22 10 12 6.7431 0.4918
22 10 14 0.5597 -0.7308
22 10 16 -6.2096 -1.9675
22 10 18 -6.6173 0.0013
22 10 20 -8.0918 1.9135
22 11 -23 2.8514 3.7635
22 11 -21 -1.3376 2.3216
22 11 -19 -8.4135 -0.2670
22 11 -17 -10.7699 -0.0680
22 11 -15 -3.7981 0.1010
22 11 -13 4.7522 -0.9082
22 11 -11 5.2926 -0.4082
22 11 -9 2.3836 0.9166
22 11 -7 2.3374 0.4104
22 11 -5 2.3452 -0.6206
22 11 -3 2.9268 -0.1322
22 11 -1 5.2340 0.7474
22 11 1 3.2276 0.8508
22 11 3 -2.2139 0.2926
22 11 5 -2.8008 -0.5431
22 11 7 0.2312 -0.7182
22 11 9 0.3520 -0.5427
22 11 11 -1.0275 -0.7827
22 11 13 0.8492 -0.2613
22 11 15 4.9897 0.2947
22 11 17 7.5427 -0.6178
22 11 19 7.6617 0.1895
22 12 -20 2.1255 -0.2926
22 12 -18 3.0656 -0.0149
22 12 -16 2.4741 -0.6949
22 12 -14 -1.3945 -0.6698
22 12 -12 -1.6589 0.1890
22 12 -10 2.3362 0.5959
22 12 -8 0.6176 -0.2512
22 12 -6 -3.3935 -0.6676
22 12 -4 -2.5319 0.8688
22 12 -2 -3.6288 1.8957
22 12 0 -7.1278 0.3513
22 12 2 -6.3107 -0.6020
22 12 4 -4.0476 1.1873
22 12 6 -1.2159 1.9059
22 12 8 3.6057 -0.4050
22 12 10 4.0485 -2.0968
22 12 12 0.1894 -1.5121
22 12 14 -2.5307 -0.0337
22 13 -19 1.9425 -3.0373
22 13 -17 -2.7539 1.1052
22 13 -15 0.9818 1.8381
22 13 -13 7.1072 -0.0211
22 13 -11 1.6772 -0.0646
22 13 -9 -4.5857 1.2645
22 13 -7 1.2530 1.1735
22 13 -5 7.6681 -0.2605
22 13 -3 7.4702 -0.5425
22 13 -1 6.9363 0.9016
22 13 1 4.7364 1.2424
22 13 3 1.5136 -0.3912
22 13 5 2.1833 -0.9121
22 13 7 -0.5330 0.3550
22 13 9 -9.4664 0.7269
22 13 11 -12.9332 -0.4230
22 13 13 -8.3975 -1.9801
22 14 -14 0.4492 -0.3747
22 14 -12 1.4319 0.2510
22 14 -10 4.4782 -0.6693
22 14 -8 2.6892 0.0293
22 14 -6 -3.2981 1.2815
22 14 -4 -7.9792 0.8278
22 14 -2 -9.7140 -0.0865
22 14 0 -7.8343 0.2568
22 14 2 -2.4493 0.6536
22 14 4 0.6283 -0.8115
22 14 6 -0.5111 -1.9496
22 14 8 1.5364 -0.2097
22 14 10 7.5238 1.2244
22 15 -7 -6.7257 -0.1945
22 15 -5 -1.4039 -0.1694
22 15 -3 3.1372 0.5497
22 15 -1 -1.5076 0.7804
22 15 1 -2.8641 -0.0144
22 15 3 3.3129 -0.9718
22 15 5 4.9996 -0.8412
23 1 -32 1.6559 -0.6075
23 1 -30 2.4568 -0.4699
23 1 -28 1.7453 0.0224
23 1 -26 0.7811 0.0570
23 1 -24 -1.0044 -0.1063
23 1 -22 -3.7484 0.2897
23 1 -20 -5.6847 -0.4335
23 1 -18 -6.2512 -0.6800
23 1 -16 -5.6795 1.1007
23 1 -14 -4.6326 0.7791
23 1 -12 -5.2907 -1.0049
23 1 -10 -7.7442 0.3648
23 1 -8 -9.3014 1.6069
23 1 -6 -8.1849 -0.0704
23 1 -4 -3.8550 -0.5019
23 1 -2 0.8401 0.4688
23 1 0 -0.2370 -0.2980
23 1 2 -6.3224 -1.0468
23 1 4 -7.8656 0.3215
23 1 6 -1.2781 1.3241
23 1 8 4.7720 -0.0569
23 1 10 4.2029 -1.1217
23 1 12 2.7386 0.0592
23 1 14 3.1337 0.5066
23 1 16 0.0772 -0.7993
23 1 18 -2.9249 -1.0680
23 1 20 0.0238 -0.2262
23 1 22 0.9442 0.2053
23 1 24 -2.7012 0.3704
23 1 26 -0.1874 1.5809
23 1 28 6.3283 5.3956
23 2 -33 -1.6029 0.0958
23 2 -31 -1.7685 -1.9556
23 2 -29 -0.0430 0.5978
23 2 -27 2.3860 3.5539
23 2 -25 3.3725 1.6719
23 2 -23 2.9064 -0.8585
23 2 -21 2.2754 -0.4551
23 2 -19 3.2404 -0.8085
23 2 -17 5.3554 -2.5942
23 2 -15 4.0321 -2.4295
23 2 -13 -1.9331 -1.6293
23 2 -11 -6.6883 -2.4373
23 2 -9 -5.6887 -2.9345
23 2 -7 0.0171 -2.1238
23 2 -5 5.7726 -0.9906
23 2 -3 6.7427 0.0321
23 2 -1 4.2840 0.5678
23 2 1 4.1089 1.5094
23 2 3 5.9291 3.3103
23 2 5 3.5554 3.1507
23 2 7 -3.4767 1.1894
23 2 9 -6.7355 1.8533
23 2 11 -3.2209 3.6838
23 2 13 -1.6289 1.7955
23 2 15 -4.9452 -0.7371
23 2 17 -6.1625 0.1395
23 2 19 -3.6458 0.1560
23 2 21 0.8913 -2.2107
23 2 23 5.5685 -2.0655
23 2 25 1.9397 -1.4957
23 2 27 -9.2161 -4.7041
23 2 29 -12.1621 -5.3981
23 3 -32 -0.3346 2.1387
23 3 -30 -0.4389 2.3862
23 3 -28 -0.8504 2.4112
23 3 -26 -0.2047 0.8490
23 3 -24 1.5793 -0.5525
23 3 -22 1.2723 -0.6437
23 3 -20 -1.4203 0.1300
23 3 -18 -4.0583 0.3311
23 3 -16 -5.4236 -0.9659
23 3 -14 -4.1008 -1.9839
23 3 -12 0.3892 -1.9453
23 3 -10 4.8301 -1.8954
23 3 -8 5.0623 -1.1929
23 3 -6 0.7892 -0.4977
23 3 -4 -2.5380 -1.1283
23 3 -2 -0.3468 -0.8234
23 3 0 2.3996 0.8889
23 3 2 -1.2415 1.1337
23 3 4 -7.1201 0.3286
23 3 6 -7.0247 0.9556
23 3 8 -3.2502 2.4386
23 3 10 -2.8205 2.1842
23 3 12 -3.1028 0.4943
23 3 14 0.9491 0.4270
23 3 16 3.0925 0.9424
23 3 18 -1.5829 -0.3185
23 3 20 -4.7299 -0.4414
23 3 22 -1.9405 0.5661
23 3 24 0.5165 -0.8901
23 3 26 1.7227 -1.9928
23 3 28 4.6112 -1.3671
23 4 -31 4.9544 8.2249
23 4 -29 2.4976 3.9678
23 4 -27 -2.4200 -0.3333
23 4 -25 -5.6354 0.3221
23 4 -23 -4.3337 0.2844
23 4 -21 -2.4965 -1.3491
23 4 -19 -2.8339 -0.5893
23 4 -17 -0.3037 1.2605
23 4 -15 4.8484 0.6533
23 4 -13 3.9347 -0.6593
23 4 -11 -2.1105 0.0354
23 4 -9 -4.0503 0.6943
23 4 -7 -2.9354 0.0685
23 4 -5 -5.1260 -0.3194
23 4 -3 -7.6001 -0.6168
23 4 -1 -4.2059 -0.4835
23 4 1 2.6678 0.2355
23 4 3 5.1486 -0.3529
23 4 5 1.4216 -0.5659
23 4 7 -1.8888 0.6403
23 4 9 -0.9238 -0.2647
23 4 11 1.0149 -1.2624
23 4 13 1.6611 0.5219
23 4 15 1.8381 0.3900
23 4 17 2.1924 -1.4052
23 4 19 2.9023 -0.2412
23 4 21 2.8083 1.1487
23 4 23 1.5922 1.1754
23 4 25 1.3667 2.2011
23 4 27 1.8784 2.0634
23 5 -30 -10.3646 -4.0734
23 5 -28 -8.0275 1.5795
23 5 -26 -1.3158 2.0971
23 5 -24 1.5439 -0.6411
23 5 -22 -1.2475 -1.4209
23 5 -20 -2.3691 -0.0290
23 5 -18 0.2479 -0.0428
23 5 -16 0.4701 -1.2539
23 5 -14 -2.4036 -0.4217
23 5 -12 -1.7738 0.9065
23 5 -10 2.8735 0.0489
23 5 -8 4.7204 -0.7682
23 5 -6 1.6857 -0.1481
23 5 -4 -1.6111 0.1657
23 5 -2 -1.9247 0.0166
23 5 0 0.3061 0.4964
23 5 2 5.1202 1.3425
23 5 4 11.7051 1.0926
23 5 6 12.9830 -0.2974
23 5 8 5.2192 -0.4754
23 5 10 -0.9759 0.4748
23 5 12 1.2052 0.0134
23 5 14 2.2763 -0.6930
23 5 16 -0.8604 0.1843
23 5 18 0.8797 0.6648
23 5 20 6.6838 -0.1363
23 5 22 7.6744 -0.7614
23 5 24 3.5459 -0.3545
23 5 26 -0.2183 1.4932
23 6 -29 -3.1301 0.4593
23 6 -27 0.8784 -0.6306
23 6 -25 5.8911 -1.0990
23 6 -23 4.6835 0.5338
23 6 -21 -1.1329 0.7095
23 6 -19 -3.1306 -1.0604
23 6 -17 -1.2091 -0.9512
23 6 -15 -0.1357 -0.0839
23 6 -13 1.0717 -0.9237
23 6 -11 2.2089 -1.1689
23 6 -9 -0.1270 0.1631
23 6 -7 -4.0088 0.7041
23 6 -5 -5.3469 0.2626
23 6 -3 -4.1246 0.2483
23 6 -1 -1.8154 0.3408
23 6 1 0.2486 0.3068
23 6 3 -0.3345 0.6266
23 6 5 -4.5609 0.4835
23 6 7 -8.0978 -0.0884
23 6 9 -5.9675 0.3133
23 6 11 -1.1354 0.7651
23 6 13 0.5120 0.4375
23 6 15 -0.9702 0.6082
23 6 17 -3.5496 0.2967
23 6 19 -6.2142 -0.9043
23 6 21 -6.5303 -0.1686
23 6 23 -3.5188 0.8586
23 6 25 0.8967 -1.8015
23 7 -28 3.8327 4.7297
23 7 -26 3.5867 2.3057
23 7 -24 1.5193 0.0525
23 7 -22 -0.6375 -0.5300
23 7 -20 -3.2359 -0.4372
23 7 -18 -4.9596 -1.0562
23 7 -16 -1.8534 -0.6004
23 7 -14 2.4176 0.4173
23 7 -12 1.8213 0.3728
23 7 -10 -0.1479 0.7277
23 7 -8 2.0290 1.0719
23 7 -6 7.4539 0.0219
23 7 -4 10.3974 -0.3919
23 7 -2 5.8558 0.3102
23 7 0 -1.2148 0.0283
23 7 2 -2.8157 -0.5966
23 7 4 -2.0838 -0.0311
23 7 6 -1.4928 0.1630
23 7 8 3.6910 -1.1020
23 7 10 8.9396 -1.2587
23 7 12 7.6459 0.0713
23 7 14 6.4688 -0.5079
23 7 16 8.4420 -1.6325
23 7 18 4.7959 -0.0984
23 7 20 -5.3820 0.8419
23 7 22 -12.1312 -0.1364
23 7 24 -10.8969 0.4784
23 8 -27 -1.4503 -10.6684
23 8 -25 -3.3913 -5.2384
23 8 -23 -0.7594 -0.7262
23 8 -21 4.7910 0.1084
23 8 -19 5.7888 0.8684
23 8 -17 -1.1635 1.6547
23 8 -15 -7.2060 0.3312
23 8 -13 -4.3736 -1.1070
23 8 -11 0.8293 -0.8707
23 8 -9 0.9342 0.3266
23 8 -7 -0.8987 1.3321
23 8 -5 -1.0986 0.7445
23 8 -3 0.2037 -0.5659
23 8 -1 2.3528 -0.2441
23 8 1 2.5329 0.5762
23 8 3 1.6431 -0.3611
23 8 5 3.5114 -1.6536
23 8 7 2.8819 -1.1991
23 8 9 -3.6187 -0.3542
23 8 11 -6.7300 -0.9784
23 8 13 -4.8078 -1.4388
23 8 15 -5.8603 -0.5458
23 8 17 -7.5216 -0.3636
23 8 19 -4.9823 -0.7980
23 8 21 -1.2300 -0.2969
23 9 -26 1.6606 0.7543
23 9 -24 -2.8189 0.2413
23 9 -22 -1.7964 -0.6401
23 9 -20 1.1967 -0.2143
23 9 -18 1.7581 0.3453
23 9 -16 0.3907 0.0159
23 9 -14 0.5740 0.1484
23 9 -12 2.1299 0.7123
23 9 -10 1.2279 -0.2803
23 9 -8 0.0304 -1.6289
23 9 -6 2.7769 -0.6368
23 9 -4 4.6898 0.9409
23 9 -2 0.9228 0.5748
23 9 0 -3.3485 -0.0528
23 9 2 -3.4097 0.5662
23 9 4 -2.0925 0.7689
23 9 6 -0.0527 -0.4617
23 9 8 5.7745 -1.6754
23 9 10 10.8278 -1.4897
23 9 12 8.6065 -0.5700
23 9 14 5.4838 -0.3968
23 9 16 9.0026 -0.5875
23 9 20 11.7145 1.7098
23 9 22 6.2755 1.3497
23 10 -25 0.7979 3.1182
23 10 -23 1.2493 1.1126
23 10 -21 2.8218 -0.9320
23 10 -19 1.7786 -0.6369
23 10 -17 1.0894 0.5002
23 10 -15 3.3309 0.5722
23 10 -13 2.4574 0.2134
23 10 -11 -0.5657 1.0391
23 10 -9 -1.0227 1.8301
23 10 -7 -2.6169 0.3766
23 10 -5 -3.7412 -1.1796
23 10 -3 0.0907 -0.0874
23 10 -1 2.1974 1.0911
23 10 1 0.1160 -0.3466
23 10 3 -0.0523 -1.6198
23 10 5 0.6525 -0.0349
23 10 7 0.0473 1.4094
23 10 9 0.3664 -0.0217
23 10 11 0.5085 -1.3085
23 10 13 -0.1992 -0.2391
23 10 15 -0.8656 0.7486
23 10 17 -3.3011 0.1703
23 10 19 -5.6503 -1.5170
23 11 -22 -1.7241 4.6352
23 11 -20 -3.2421 4.0023
23 11 -18 0.1807 2.8557
23 11 -16 4.7518 0.3202
23 11 -14 6.6015 -1.9060
23 11 -12 4.3385 -0.3646
23 11 -10 -0.4953 2.1329
23 11 -8 -0.9939 1.2881
23 11 -6 1.8209 -0.2835
23 11 -4 0.2431 0.3908
23 11 -2 -1.0847 0.9174
23 11 0 0.6304 0.0748
23 11 2 -3.5389 -0.0344
23 11 6 -5.9332 -0.0367
23 11 8 -7.1483 -0.6937
23 11 10 -13.7660 -0.7407
23 11 12 -12.3243 -0.4428
23 11 14 -8.1689 0.5114
23 12 -19 2.8422 0.4071
23 12 -17 5.1960 -2.7575
23 12 -15 3.8003 -2.1438
23 12 -13 0.8437 0.4407
23 12 -11 -0.5184 0.1980
23 12 -9 -1.2854 -0.3230
23 12 -7 -1.3329 0.6137
23 12 -5 1.4087 0.3645
23 12 -3 4.2940 -0.4417
23 12 -1 4.0329 0.0884
23 12 1 3.4949 0.5129
23 12 5 0.8543 -0.0364
23 12 7 0.0583 0.5287
23 12 9 4.5041 0.7221
23 12 11 4.9989 -0.6419
23 12 13 -0.6409 -0.9649
23 13 -16 -2.2693 2.9328
23 13 -14 1.5738 -0.7882
23 13 -12 -0.2210 -1.6259
23 13 -10 -2.4956 0.4804
23 13 -8 -2.2404 0.9975
23 13 -6 -3.7824 -0.2253
23 13 -4 -6.8922 -0.2793
23 13 -2 -10.3788 0.8967
23 13 0 -11.7687 1.1812
23 13 2 -5.1336 -0.2279
23 13 4 4.3551 -1.2837
23 13 6 5.9156 -0.7163
23 13 8 3.2346 -1.0050
23 13 10 4.4095 -2.5168
23 13 12 7.1242 -2.7216
23 14 -11 -0.7145 5.7088
23 14 -9 -0.2086 1.2098
23 14 -7 -2.2337 0.9054
23 14 -5 -2.0815 2.7500
23 14 -3 -3.0329 1.9480
23 14 -1 -1.0284 0.2685
23 14 1 4.0816 -0.4924
23 14 3 2.9084 -2.5459
23 14 5 -2.4969 -4.0707
23 14 7 -4.8358 -0.3695
23 15 -2 2.0557 -4.3388
23 15 0 -0.1572 -3.9240
24 0 -32 -1.6419 0.3262
24 0 -30 0.8452 6.3111
24 0 -28 3.6139 8.4877
24 0 -26 4.8785 5.4992
24 0 -24 3.5886 7.0158
24 0 -22 1.5697 9.4602
24 0 -20 0.5084 3.2858
24 0 -18 0.7264 -2.5907
24 0 -16 0.0712 -0.1702
24 0 -14 -5.3657 -1.2816
24 0 -12 -12.0924 -9.6581
24 0 -10 -12.5558 -11.4596
24 0 -8 -8.8349 -6.5108
24 0 -6 -5.3415 -7.6811
24 0 -4 -0.5991 -11.4496
24 0 -2 2.4139 -6.9579
24 0 0 -0.4462 -0.2923
24 0 2 -3.0969 -0.2862
24 0 4 -0.6096 -0.3672
24 0 6 0.3340 5.6909
24 0 8 -3.7817 10.4435
24 0 10 -3.8272 8.2158
24 0 12 2.4531 6.2944
24 0 14 1.9634 9.4726
24 0 16 -6.6668 9.6731
24 0 18 -9.6013 3.3702
24 0 20 -7.0509 0.1296
24 0 22 -4.7783 1.8536
24 0 24 3.9759 -2.2434
24 1 -31 1.0344 -2.3979
24 1 -29 -1.8903 -1.3292
24 1 -27 -4.0392 2.8760
24 1 -25 -2.8591 1.3459
24 1 -23 -1.1325 -1.4122
24 1 -21 -1.2654 0.5505
24 1 -19 -0.6263 2.2286
24 1 -17 1.2325 -0.6968
24 1 -15 2.4057 -3.0986
24 1 -13 3.7841 -0.2694
24 1 -11 4.8068 2.3195
24 1 -9 3.2335 -0.7858
24 1 -7 0.5922 -3.3771
24 1 -5 -0.5521 -0.2459
24 1 -3 0.2892 1.8266
24 1 -1 2.1045 -1.2937
24 1 1 1.5781 -2.2574
24 1 3 -3.1961 2.0540
24 1 5 -8.1775 2.9093
24 1 7 -7.7991 -1.6579
24 1 9 -2.4286 -1.0211
24 1 11 2.3040 3.9733
24 1 13 3.7613 1.8784
24 1 15 3.4470 -2.2891
24 1 17 1.6910 0.4421
24 1 19 1.2005 1.8733
24 1 21 4.6780 -1.2915
24 1 23 4.3869 -0.5910
24 1 25 -3.7259 2.1597
24 1 27 -7.3907 1.2655
24 2 -32 -2.4585 1.5858
24 2 -30 -2.1842 0.7048
24 2 -28 0.5473 -1.4660
24 2 -26 2.2710 0.0078
24 2 -24 0.4269 1.8095
24 2 -22 -2.7754 -0.0765
24 2 -20 -4.4103 -2.0845
24 2 -18 -3.6790 -1.5730
24 2 -16 -0.8238 0.0228
24 2 -14 1.2286 0.2883
24 2 -12 -0.4333 -1.0120
24 2 -10 -1.9393 -0.4205
24 2 -8 0.5178 1.8583
24 2 -6 1.6436 1.4249
24 2 -4 -1.6520 -0.3255
24 2 -2 -1.9643 0.5944
24 2 0 4.2856 2.1682
24 2 2 10.0556 0.9429
24 2 4 10.7824 -0.9113
24 2 6 8.9019 0.4250
24 2 8 5.1571 1.6275
24 2 10 -0.7430 -1.1329
24 2 12 -3.5975 -1.9472
24 2 14 -0.0792 0.8998
24 2 16 3.1738 -0.0698
24 2 18 1.1718 -2.4541
24 2 20 -1.0461 -0.5265
24 2 22 -0.4418 0.3636
24 2 24 -0.3490 -0.7330
24 2 26 -1.1572 1.0948
24 2 28 -1.1662 2.6958
24 3 -31 1.1678 3.7333
24 3 -29 -0.0256 3.1449
24 3 -27 -0.7018 1.5180
24 3 -25 -0.2437 0.3162
24 3 -23 -0.0992 -0.5688
24 3 -21 -1.9920 -0.6707
24 3 -19 -3.3747 0.6218
24 3 -17 -1.2763 0.2112
24 3 -15 0.4455 -1.8446
24 3 -13 -1.1066 -1.1283
24 3 -11 -0.8149 0.1969
24 3 -9 2.5117 -1.0885
24 3 -7 3.2409 -1.1454
24 3 -5 1.3223 0.2460
24 3 -3 -0.1624 -0.1194
24 3 -1 -2.3554 0.0043
24 3 1 -4.9325 1.0391
24 3 3 -5.0261 0.2648
24 3 5 -3.1162 -0.2968
24 3 7 -1.8859 0.7406
24 3 9 -1.3631 0.7731
24 3 11 0.2386 -0.1779
24 3 13 1.3219 -0.1540
24 3 15 0.2430 0.5940
24 3 17 0.9311 0.5869
24 3 19 3.1937 -0.4070
24 3 21 0.9860 -0.7809
24 3 23 -2.6927 -0.0551
24 3 25 -1.9246 0.2800
24 3 27 -0.5208 -0.2314
24 4 -30 -1.4565 2.3133
24 4 -28 -1.2584 0.7995
24 4 -26 -0.3228 -0.5481
24 4 -24 -0.3008 -0.6981
24 4 -22 -0.8048 -0.1127
24 4 -20 0.1970 0.1741
24 4 -18 0.6190 0.3778
24 4 -16 -1.8965 0.4845
24 4 -14 -1.8294 -0.2826
24 4 -12 3.6315 -0.6552
24 4 -10 6.1825 0.2871
24 4 -8 2.1772 0.8346
24 4 -6 -1.9851 0.7007
24 4 -4 -3.7055 0.8073
24 4 -2 -4.1479 0.3461
24 4 0 -1.3120 -0.5941
24 4 2 4.2924 -0.5518
24 4 4 6.6006 -0.1262
24 4 6 3.5883 -0.7225
24 4 8 1.8889 -1.4596
24 4 10 4.1957 -0.9866
24 4 12 3.5581 -0.1397
24 4 14 -1.0026 -0.2470
24 4 16 -3.2187 -1.0602
24 4 18 -4.5653 -1.4482
24 4 20 -6.8176 -0.4154
24 4 22 -4.0081 1.1979
24 4 24 2.9724 1.0796
24 4 26 5.9322 -0.2338
24 5 -29 -5.6995 -5.4089
24 5 -27 0.7599 -2.1878
24 5 -25 4.1689 -0.4199
24 5 -23 3.0283 0.0440
24 5 -21 2.8717 -0.2431
24 5 -19 3.3165 -1.2162
24 5 -17 1.9411 -0.8609
24 5 -15 1.8403 1.2203
24 5 -13 2.2406 1.6488
24 5 -11 -0.7970 0.6237
24 5 -9 -3.4218 0.9152
24 5 -7 -0.7955 1.0342
24 5 -5 3.5106 0.4928
24 5 -3 3.7063 1.0171
24 5 -1 -0.0888 0.9385
24 5 1 -2.3864 -0.0132
24 5 3 -1.0938 0.1301
24 5 5 -1.0029 -0.0676
24 5 7 -3.4988 -1.2470
24 5 9 -3.7804 -1.6954
24 5 11 -1.1044 -1.7958
24 5 13 0.7146 -1.8360
24 5 15 1.1361 -0.9452
24 5 17 2.7405 0.4050
24 5 19 4.2231 0.5703
24 5 21 -0.2800 -1.5235
24 5 23 -9.2621 -3.2990
24 5 25 -11.8960 -1.7216
24 6 -28 9.9839 -1.9969
24 6 -26 1.9418 -2.9910
24 6 -24 -2.0273 -1.3507
24 6 -22 -0.3100 1.2206
24 6 -20 0.9389 1.0298
24 6 -18 0.1579 0.0018
24 6 -16 -0.6212 -0.2165
24 6 -14 -0.1323 -0.5954
24 6 -12 1.3016 -0.4083
24 6 -10 0.5649 0.2448
24 6 -8 -2.4200 0.1390
24 6 -6 -1.9914 0.0688
24 6 -4 2.4883 0.8030
24 6 -2 5.1285 1.3668
24 6 0 3.2726 0.6784
24 6 2 -1.4447 -0.2365
24 6 4 -3.9376 0.3036
24 6 6 0.1417 0.7002
24 6 8 4.1188 -0.1002
24 6 10 1.0809 -0.0139
24 6 12 -0.9172 -0.0014
24 6 14 3.3265 -1.1687
24 6 16 3.9588 -0.8005
24 6 18 -2.1742 0.2559
24 6 20 -3.0815 0.2884
24 6 22 7.3946 1.3413
24 6 24 18.2860 0.8451
24 7 -27 -0.9642 -6.5890
24 7 -25 -3.5983 0.8442
24 7 -23 -1.4010 1.9091
24 7 -21 3.7763 0.3645
24 7 -19 3.2116 0.4259
24 7 -17 -1.3888 -0.0633
24 7 -15 -1.6324 -0.8544
24 7 -13 1.3426 -0.0520
24 7 -11 0.8289 0.6947
24 7 -9 -1.7118 -0.0071
24 7 -7 -0.8106 -0.3493
24 7 -5 1.6528 0.5709
24 7 -3 1.1741 0.9371
24 7 -1 -1.3925 0.3063
24 7 1 -3.7440 0.2092
24 7 3 -5.2505 0.3406
24 7 5 -4.4570 -0.3912
24 7 7 0.5399 -1.2869
24 7 9 6.9507 -1.2394
24 7 11 5.9895 0.3683
24 7 13 -3.5978 2.4076
24 7 15 -9.1760 2.0635
24 7 17 -6.6827 0.0711
24 7 19 -8.1401 -0.4147
24 8 -26 -3.1685 2.9778
24 8 -24 -2.2173 0.0141
24 8 -22 2.0259 -1.2330
24 8 -20 5.4572 -0.2065
24 8 -18 4.4488 0.6419
24 8 -16 0.4044 0.0493
24 8 -14 -2.7262 0.1355
24 8 -12 -3.4882 0.9438
24 8 -10 -0.6349 0.9521
24 8 -8 3.5530 0.9083
24 8 -6 3.4069 0.8605
24 8 -4 0.2129 0.1034
24 8 -2 -2.3532 -0.0601
24 8 0 -4.7569 0.3177
24 8 2 -3.9179 -0.6851
24 8 4 1.4638 -1.6082
24 8 6 4.0150 -0.1375
24 8 8 1.0202 0.7200
24 8 10 -2.3264 -1.3889
24 8 12 -2.9959 -2.1827
24 8 14 0.4072 0.1547
24 8 16 8.6190 1.2912
24 8 18 18.2321 0.2516
24 9 -25 -0.2082 -0.4982
24 9 -23 -2.0813 -0.4078
24 9 -21 -4.4891 0.3526
24 9 -19 -1.7686 0.5972
24 9 -17 6.7962 0.7348
24 9 -15 9.9621 0.3525
24 9 -13 4.0648 -0.0431
24 9 -11 -1.7444 0.3601
24 9 -9 -3.1599 0.0827
24 9 -7 -2.2270 -0.6285
24 9 -5 -0.8476 0.0631
24 9 -3 0.2572 0.6951
24 9 -1 3.0857 -0.2818
24 9 1 5.1744 -1.0420
24 9 3 1.5332 -0.4903
24 9 5 -1.6923 -0.1641
24 9 7 -0.6744 -0.7190
24 9 9 -3.4305 -1.0104
24 9 11 -7.0435 -0.8614
24 9 13 -4.0302 -0.3715
24 9 15 -3.5007 1.1591
24 9 17 -8.1032 2.1549
24 9 19 -5.8503 1.3678
24 10 -24 0.7978 4.2688
24 10 -22 -2.6487 2.0142
24 10 -20 -1.9025 1.7447
24 10 -18 -0.0343 0.9864
24 10 -16 -2.7200 -0.6078
24 10 -14 -7.6445 -0.8159
24 10 -12 -8.2540 0.2072
24 10 -10 -3.8056 0.7498
24 10 -8 -0.5734 0.0420
24 10 -6 -0.8829 -0.9174
24 10 -4 1.0574 -0.5010
24 10 -2 5.3653 0.1431
24 10 0 4.5015 -0.7021
24 10 2 0.1785 -1.0051
24 10 4 -0.7526 0.1933
24 10 6 -0.4942 0.0751
24 10 8 0.0170 -1.0852
24 10 10 3.2881 -0.3774
24 10 12 3.1607 0.8377
24 10 14 -2.0253 0.8094
24 10 16 -3.0461 1.9783
24 11 -21 2.4709 2.6534
24 11 -19 -1.3853 0.5432
24 11 -17 -0.2834 0.8657
24 11 -15 8.7510 2.3882
24 11 -13 13.8432 1.2945
24 11 -11 7.0007 -0.2161
24 11 -9 0.4587 0.7957
24 11 -7 1.4169 1.8367
24 11 -5 0.1967 0.4551
24 11 -3 -5.4139 -1.0183
24 11 -1 -7.5423 -0.2839
24 11 1 -4.9030 0.6603
24 11 3 -1.3869 -0.3317
24 11 5 0.3608 -0.8523
24 11 7 -1.0239 1.0232
24 11 9 -3.9282 1.6629
24 11 11 -3.6144 -0.4525
24 11 13 1.6250 -1.2611
24 12 -18 5.2649 -4.2631
24 12 -16 0.4363 -4.1182
24 12 -14 -10.6961 1.4813
24 12 -12 -8.2505 5.0363
24 12 -10 1.9568 1.9150
24 12 -8 1.5795 -1.7008
24 12 -6 -1.8747 -0.8654
24 12 -4 -0.9338 1.0958
24 12 -2 -3.6362 0.9659
24 12 0 -5.7827 -0.0115
24 12 2 -2.0771 -0.3331
24 12 4 -1.3165 0.1758
24 12 6 -3.0705 1.0940
24 12 8 -0.9715 1.6967
24 12 10 -0.0751 1.5658
24 12 12 -2.4765 0.8392
24 13 -15 -8.3087 7.1522
24 13 -13 -2.9077 2.1603
24 13 -11 -3.1586 -2.6477
24 13 -9 -3.9676 -2.6089
24 13 -7 -2.1501 -0.5322
24 13 -5 -2.4312 -0.5607
24 13 -3 -2.2646 -1.3047
24 13 -1 0.6411 -0.1905
24 13 1 3.1877 0.5649
24 13 3 6.9328 -0.6326
24 13 5 8.9722 -0.7710
24 13 7 2.9606 2.2173
24 13 9 -3.1652 7.0633
24 14 -6 7.7056 -1.7382
24 14 -4 3.7993 -0.4844
24 14 -2 3.9897 -1.7847
24 14 0 3.7033 -3.3072
24 14 2 -0.7982 -1.2758
24 14 4 -3.9149 0.2202
24 14 6 -1.3734 -2.3785
25 1 -30 -5.9540 0.8189
25 1 -28 -3.3601 -1.5756
25 1 -26 0.9272 -0.7428
25 1 -24 4.7429 1.4258
25 1 -22 6.7315 1.1453
25 1 -20 5.3247 -0.3608
25 1 -18 1.5066 -0.3380
25 1 -16 -0.2464 0.1219
25 1 -14 0.1268 -0.4915
25 1 -12 -0.3089 -0.5514
25 1 -10 0.8005 0.1170
25 1 -8 3.3476 0.1269
25 1 -6 1.9068 -0.0722
25 1 -4 -1.5873 -0.3977
25 1 -2 -2.4280 -0.3779
25 1 0 -3.3475 0.5605
25 1 2 -4.3477 0.0359
25 1 4 0.3755 -1.0867
25 1 6 9.2940 0.3609
25 1 8 12.7440 0.7644
25 1 10 6.7122 -1.3225
25 1 12 -1.0417 -0.4799
25 1 14 -2.8099 1.7655
25 1 16 -0.7074 0.4088
25 1 18 1.1757 -1.4389
25 1 20 0.9125 -0.6388
25 1 22 -3.0337 0.4229
25 1 24 -5.5439 0.5559
25 1 26 -1.6947 1.3842
25 2 -31 -1.2766 -2.3004
25 2 -29 1.9814 -3.9945
25 2 -27 4.3479 -2.8253
25 2 -25 3.0963 -0.6071
25 2 -23 0.2507 -1.9060
25 2 -21 -1.8278 -2.6855
25 2 -19 -2.0886 -0.7653
25 2 -17 -1.7901 -1.1557
25 2 -15 -2.8866 -2.7018
25 2 -13 -3.1714 -0.6181
25 2 -11 -1.3282 1.8698
25 2 -9 0.4964 1.3961
25 2 -7 3.2330 1.4881
25 2 -5 5.4836 3.2968
25 2 -3 2.3700 3.5678
25 2 -1 -1.3138 2.3615
25 2 1 0.9653 1.7643
25 2 3 2.7428 1.4793
25 2 5 -2.2040 0.8226
25 2 7 -8.0152 -0.3082
25 2 9 -7.8209 -1.3793
25 2 11 -3.8889 -0.9800
25 2 13 -1.7512 -0.7058
25 2 15 -0.4386 -2.9532
25 2 17 1.6401 -4.1966
25 2 19 1.0202 -2.0785
25 2 21 0.5921 -1.1708
25 2 23 4.2174 -2.0731
25 2 25 2.8317 -0.6198
25 2 27 -5.6610 1.2511
25 3 -30 -0.6578 -0.1566
25 3 -28 -1.9904 0.6968
25 3 -26 -2.2219 -1.0317
25 3 -24 -1.9476 -2.3466
25 3 -22 0.6255 -1.9029
25 3 -20 4.5057 -1.2459
25 3 -18 3.2350 -0.6290
25 3 -16 -1.7596 0.0286
25 3 -14 -1.4108 -0.0113
25 3 -12 3.0139 -0.8095
25 3 -10 3.6258 -0.5433
25 3 -8 1.6002 1.2293
25 3 -6 1.7241 1.8731
25 3 -4 2.4399 1.2502
25 3 -2 0.4085 1.5413
25 3 0 -2.6296 2.1283
25 3 2 -2.2657 1.9279
25 3 4 1.2847 0.9978
25 3 6 3.9989 -0.1931
25 3 8 3.7621 -0.2590
25 3 10 0.1723 -0.4413
25 3 12 -3.7929 -1.9684
25 3 14 -2.6199 -1.6450
25 3 16 1.0462 -0.0858
25 3 18 -0.1809 -0.6929
25 3 20 -4.5294 -1.0554
25 3 22 -6.2703 -0.9178
25 3 24 -4.2920 -2.8059
25 3 26 0.4819 -2.8736
25 4 -29 7.0945 2.4028
25 4 -27 1.9988 -0.0100
25 4 -25 -2.1469 -0.9947
25 4 -23 -0.1843 0.8338
25 4 -21 2.8158 0.7157
25 4 -19 1.7844 -1.2537
25 4 -17 1.1743 0.3166
25 4 -15 3.9343 2.0771
25 4 -13 3.6470 0.1151
25 4 -11 -3.7774 -0.6003
25 4 -9 -12.9411 0.3099
25 4 -7 -16.2716 -0.6056
25 4 -5 -11.4189 -0.4364
25 4 -3 -3.1097 1.3184
25 4 -1 2.1910 0.6076
25 4 1 3.1328 -1.3731
25 4 3 1.3626 -1.1862
25 4 5 -1.2180 -0.0051
25 4 7 -1.4103 -0.4516
25 4 9 0.9389 -1.1589
25 4 11 1.4135 0.2413
25 4 13 -1.6904 1.3347
25 4 15 -4.5290 0.4716
25 4 17 -2.9472 -0.0322
25 4 19 1.7692 -0.5954
25 4 21 4.9962 -0.1717
25 4 23 6.7746 4.4549
25 4 25 8.7210 7.3715
25 5 -28 0.3085 -5.0883
25 5 -26 -2.8964 0.7926
25 5 -24 -3.7853 1.3876
25 5 -22 -0.2289 -0.2072
25 5 -20 2.0266 0.4729
25 5 -18 -0.8416 0.7162
25 5 -16 -4.3521 -0.1796
25 5 -14 -2.7399 0.6906
25 5 -12 3.2021 1.5429
25 5 -10 8.3646 0.6144
25 5 -8 10.6618 0.3020
25 5 -6 10.4020 0.9904
25 5 -4 6.7873 0.9854
25 5 -2 1.2059 -0.1131
25 5 0 -3.9183 -1.1673
25 5 2 -7.7070 -0.4944
25 5 4 -6.4574 0.1905
25 5 6 0.2168 -1.4020
25 5 8 3.5922 -1.8477
25 5 10 0.6977 0.3210
25 5 12 -1.8356 0.5374
25 5 14 -2.1398 -0.8872
25 5 16 -2.1924 0.3680
25 5 18 -1.0118 2.3915
25 5 20 1.5555 0.8322
25 5 22 3.2741 -3.3799
25 5 24 1.5345 -5.9012
25 6 -27 -3.1140 0.6060
25 6 -25 -2.2692 1.3341
25 6 -23 0.5642 1.4090
25 6 -21 1.4174 0.0082
25 6 -19 1.7782 -0.8789
25 6 -17 3.0454 -0.6930
25 6 -15 2.5190 0.1919
25 6 -13 -1.2495 1.5279
25 6 -11 -4.7556 1.2791
25 6 -9 -4.4432 -0.1197
25 6 -7 -2.9228 0.1703
25 6 -5 -2.6181 0.5770
25 6 -3 -0.5691 -0.4192
25 6 -1 2.4319 -0.0559
25 6 1 2.8168 0.9502
25 6 3 3.0181 -0.1730
25 6 5 4.3772 -0.6997
25 6 7 3.5459 0.9065
25 6 9 0.3979 0.5830
25 6 11 -2.0980 -1.3740
25 6 13 -0.5317 -0.2587
25 6 15 5.5022 1.8201
25 6 17 8.8131 0.5309
25 6 19 4.6150 -0.4453
25 6 21 -1.9900 1.9493
25 6 23 -6.2528 3.2538
25 7 -26 0.6412 0.1000
25 7 -24 1.9863 -1.7162
25 7 -22 1.8858 -1.0624
25 7 -20 0.1691 1.2285
25 7 -18 -1.1713 1.6620
25 7 -16 -1.8650 0.1501
25 7 -14 -4.2198 -1.1263
25 7 -12 -5.1527 -0.9206
25 7 -10 -1.3134 0.0129
25 7 -8 2.3694 0.0122
25 7 -6 2.0419 -0.5471
25 7 -4 -1.2263 -0.5141
25 7 -2 -6.3744 -0.2591
25 7 0 -9.3417 -0.4164
25 7 2 -7.7713 -0.8262
25 7 4 -5.5777 -0.3331
25 7 6 -2.8199 0.6776
25 7 8 1.4472 0.0261
25 7 10 1.3488 -0.1981
25 7 12 -3.8119 2.2984
25 7 14 -7.2544 2.9045
25 7 16 -6.5014 0.3555
25 7 18 -2.0989 -0.4504
25 8 -25 6.5862 2.6856
25 8 -23 1.3640 0.2662
25 8 -21 -4.0902 -1.3103
25 8 -19 -0.8109 -0.7141
25 8 -17 3.4126 0.8459
25 8 -15 -0.3814 1.0497
25 8 -13 -6.1108 -0.1225
25 8 -11 -4.2169 -0.8027
25 8 -9 3.1871 0.0006
25 8 -7 6.5089 0.4522
25 8 -5 3.9344 -0.6168
25 8 -3 3.6705 -1.1726
25 8 -1 6.9755 -0.5817
25 8 1 6.1310 -0.3452
25 8 3 2.8282 -0.6074
25 8 5 2.3194 -0.7638
25 8 7 -0.4753 -0.1189
25 8 9 -4.1535 0.8329
25 8 11 0.1865 0.0222
25 8 13 6.1516 -1.1061
25 8 15 6.3985 0.0626
25 8 17 9.4504 0.8331
25 9 -24 -2.5366 -6.9038
25 9 -22 -1.6155 -3.7514
25 9 -20 -2.8072 -1.4398
25 9 -18 -2.1747 -0.1344
25 9 -16 3.5341 1.4999
25 9 -14 11.5493 2.2288
25 9 -12 13.1453 1.5239
25 9 -10 5.1032 0.0849
25 9 -8 -3.0863 -0.9797
25 9 -6 -3.6495 -0.1841
25 9 -4 -0.4707 0.9476
25 9 -2 1.0932 -0.3772
25 9 0 1.3699 -1.9458
25 9 2 2.0190 -0.8148
25 9 4 1.7344 0.3069
25 9 6 -0.8002 -0.4635
25 9 8 -2.6726 -0.2670
25 9 10 -1.4901 0.8083
25 9 12 0.3351 -0.1922
25 9 14 -0.8079 -1.6745
25 9 16 -6.9773 -1.3137
25 10 -21 3.2557 4.8567
25 10 -19 2.7312 1.1121
25 10 -17 0.1377 0.2213
25 10 -15 -4.4293 1.9635
25 10 -13 -7.9531 1.6093
25 10 -11 -5.4009 -0.6688
25 10 -9 -0.7922 -0.9084
25 10 -7 -0.0175 -0.2428
25 10 -5 0.6375 -1.0651
25 10 -3 1.1780 -1.2575
25 10 -1 -1.4255 0.0755
25 10 1 -1.3750 0.1962
25 10 3 1.7282 -0.6894
25 10 5 1.5047 0.1168
25 10 7 0.6708 1.4049
25 10 9 0.8553 1.1469
25 10 11 -1.1620 0.7846
25 10 13 -0.1842 0.6259
25 10 15 5.1339 -0.1129
25 11 -20 -2.7850 -6.7169
25 11 -18 -7.5403 -3.1912
25 11 -16 -9.9536 1.4891
25 11 -14 -2.3891 2.2571
25 11 -12 6.6405 0.6223
25 11 -10 5.6862 -0.3911
25 11 -8 1.2105 -0.1862
25 11 -6 -1.3785 -0.1512
25 11 -4 -6.4496 -0.9246
25 11 -2 -9.4071 -0.8567
25 11 0 -5.2691 -0.0015
25 11 2 -0.1431 -0.6622
25 11 4 2.6727 -1.6325
25 11 6 2.1633 0.3708
25 11 8 -3.0140 4.0007
25 11 10 -5.4973 5.3198
25 11 12 -2.7581 3.2254
25 11 14 -3.1925 -1.4922
25 12 -17 3.1448 0.6624
25 12 -15 -0.5647 0.8129
25 12 -13 -4.2211 3.0756
25 12 -11 -2.2638 2.6282
25 12 -9 0.0738 0.1721
25 12 -7 -1.3015 -0.6085
25 12 -5 -1.3456 -0.1221
25 12 -3 1.6050 -0.6194
25 12 -1 3.2430 -1.1549
25 12 1 3.4151 0.4899
25 12 3 2.7415 2.6185
25 12 5 -0.1591 2.1595
25 12 7 -0.9566 0.8970
25 12 9 2.1526 1.2515
25 12 11 1.4830 1.0089
25 13 -8 4.2652 -0.7909
25 13 -6 2.3645 -0.2450
25 13 -4 3.4699 -0.2520
25 13 -2 5.6410 0.4367
25 13 0 1.8114 -0.0353
25 13 2 -3.4106 -0.8872
25 13 4 -2.5871 -0.6123
25 13 6 2.5033 -1.4352
25 13 8 6.4788 -4.8073
25 14 -1 -0.0907 -2.4781
26 0 -30 -7.8312 3.6126
26 0 -28 0.1333 -0.7586
26 0 -26 6.7308 -4.1061
26 0 -24 7.5757 -3.5773
26 0 -22 5.3525 -4.1432
26 0 -20 1.8747 -8.0330
26 0 -18 0.1408 -10.3355
26 0 -16 0.7269 -7.6443
26 0 -14 -1.7674 -4.8155
26 0 -12 -5.4254 -6.2750
26 0 -10 -2.8637 -5.6185
26 0 -8 3.3013 1.8308
26 0 -6 6.5785 6.2792
26 0 -4 4.8328 3.2882
26 0 -2 -1.4707 4.9150
26 0 0 -6.4186 12.3221
26 0 2 -5.5274 11.3670
26 0 4 -3.4446 4.7024
26 0 6 -3.9734 6.0947
26 0 8 -6.3655 8.7560
26 0 10 -9.6091 1.6693
26 0 12 -10.4022 -4.6508
26 0 14 -6.2288 -2.5892
26 0 16 0.8071 -3.1114
26 0 18 6.3064 -8.6830
26 0 20 8.0605 -9.3579
26 0 22 12.1466 -6.2413
26 1 -29 -0.3629 -1.7898
26 1 -27 -1.8482 1.1819
26 1 -25 -1.8740 1.7414
26 1 -23 1.1176 -2.2044
26 1 -21 4.4241 -2.7600
26 1 -19 4.0342 1.4035
26 1 -17 -0.2708 0.7850
26 1 -15 -1.6783 -3.3375
26 1 -13 2.9243 -1.0271
26 1 -11 5.7713 2.8772
26 1 -9 3.0776 -0.0532
26 1 -7 0.6739 -2.6933
26 1 -5 1.1793 0.5946
26 1 -3 2.4548 2.9301
26 1 -1 2.9439 0.8363
26 1 1 1.8366 -0.4190
26 1 3 0.8620 1.7332
26 1 5 2.1939 2.0894
26 1 7 4.3897 -1.3977
26 1 9 4.7479 -1.3263
26 1 11 2.2431 2.8940
26 1 13 -0.2919 1.8261
26 1 15 0.2519 -2.6331
26 1 17 0.1140 -1.3711
26 1 19 -2.9359 1.9121
26 1 21 -4.0249 0.2177
26 1 23 -4.3201 -2.9004
26 1 25 -7.2632 -1.7748
26 2 -30 5.2894 5.1325
26 2 -28 1.0186 2.0074
26 2 -26 -2.4386 -0.6603
26 2 -24 -3.3392 0.2879
26 2 -22 -1.1378 1.0623
26 2 -20 1.6740 -1.4750
26 2 -18 1.6996 -2.1374
26 2 -16 0.3489 1.7538
26 2 -14 -0.9708 2.8108
26 2 -12 -5.2786 0.0087
26 2 -10 -10.8146 0.4944
26 2 -8 -10.7520 1.9481
26 2 -6 -6.4762 0.0367
26 2 -4 -4.9204 -0.8618
26 2 -2 -5.2576 0.2734
26 2 0 -2.8504 0.2599
26 2 2 0.6776 -0.4559
26 2 4 1.5839 -0.9300
26 2 6 0.4389 -0.4873
26 2 8 -1.0136 0.3462
26 2 10 -2.2357 -0.3695
26 2 12 -1.8893 -0.4564
26 2 14 -0.0464 0.8549
26 2 16 0.8596 -0.0467
26 2 18 1.0551 -1.2049
26 2 20 1.3291 0.2568
26 2 22 -1.1570 1.4276
26 2 24 -5.3976 2.0942
26 3 -29 3.5891 1.2520
26 3 -27 1.4661 2.6119
26 3 -25 -1.1285 -0.6676
26 3 -23 -2.3940 -2.1365
26 3 -21 -4.9664 -0.8031
26 3 -19 -8.2400 0.3172
26 3 -17 -6.9760 0.2315
26 3 -15 -1.5210 -0.3321
26 3 -13 3.9724 -0.2900
26 3 -11 7.8043 0.1138
26 3 -9 6.8020 0.2805
26 3 -7 1.3740 0.5328
26 3 -5 -0.4848 0.8027
26 3 -3 2.4298 0.9348
26 3 -1 3.0484 0.7449
26 3 1 0.4189 0.2792
26 3 3 -1.1077 0.4298
26 3 5 0.1127 0.3605
26 3 7 2.1447 -0.3123
26 3 9 2.2057 0.4643
26 3 11 0.5095 0.6325
26 3 13 -2.0685 -1.6050
26 3 15 -5.1962 -1.0531
26 3 17 -4.4096 1.7002
26 3 19 1.7790 0.1771
26 3 21 6.7797 -2.1004
26 3 23 7.6075 -0.6690
26 3 25 5.8080 -0.6666
26 4 -28 -2.9126 0.5516
26 4 -26 -2.6309 -0.0829
26 4 -24 1.1441 0.2178
26 4 -22 2.6716 0.2503
26 4 -20 1.3417 -0.3253
26 4 -18 0.6829 -0.1184
26 4 -16 0.0539 1.0849
26 4 -14 -1.1758 1.4247
26 4 -12 -1.1739 0.6015
26 4 -10 0.5779 -0.3153
26 4 -8 2.4462 -0.8636
26 4 -6 1.7741 -0.7232
26 4 -4 -0.1801 -0.3741
26 4 -2 0.2765 -0.7217
26 4 0 0.5635 -1.2083
26 4 2 -1.5073 -0.9939
26 4 4 -1.5319 -0.4072
26 4 6 0.6365 0.0614
26 4 8 1.6097 0.1582
26 4 10 1.6669 -0.4033
26 4 12 0.7311 -0.9318
26 4 14 0.8913 -0.0834
26 4 16 4.8873 1.0792
26 4 18 6.3742 0.4847
26 4 20 1.1391 0.1342
26 4 22 -3.5579 2.1880
26 4 24 -3.2451 3.3150
26 5 -27 -3.8430 -3.3935
26 5 -25 -1.0718 -0.8244
26 5 -23 0.3341 -0.6115
26 5 -21 1.3729 0.2510
26 5 -19 1.5619 2.0288
26 5 -17 0.5407 1.8927
26 5 -15 -1.2786 1.3124
26 5 -13 -3.9012 0.9920
26 5 -11 -4.6742 0.0351
26 5 -9 -1.9087 0.0369
26 5 -7 0.7906 0.4704
26 5 -5 0.7134 -0.9416
26 5 -3 -1.5516 -2.3542
26 5 -1 -3.9561 -1.5504
26 5 1 -2.8577 -0.9749
26 5 3 1.0539 -2.2513
26 5 5 2.6609 -2.0329
26 5 7 1.6546 0.0119
26 5 9 0.5125 -0.2694
26 5 11 -0.6487 -0.9675
26 5 13 -1.7686 0.7833
26 5 15 -3.2482 0.5913
26 5 17 -4.0718 -0.8588
26 5 19 -2.3468 0.5527
26 5 21 -3.1793 -0.7941
26 5 23 -9.6637 -6.0687
26 6 -24 2.0166 0.3752
26 6 -22 -5.8852 0.6926
26 6 -20 -6.1244 0.8567
26 6 -18 2.8788 0.4359
26 6 -16 6.6746 -0.2035
26 6 -14 -0.0118 0.4205
26 6 -12 -3.9845 1.6625
26 6 -10 0.8608 1.0104
26 6 -8 4.7612 0.0843
26 6 -6 2.7523 0.1590
26 6 -4 0.6446 -0.7405
26 6 -2 1.3654 -1.3351
26 6 0 0.5088 -0.4186
26 6 2 -4.0398 -0.2148
26 6 4 -6.6641 -0.5017
26 6 6 -4.5519 -0.1451
26 6 8 -2.9762 0.1031
26 6 10 -1.9930 0.1431
26 6 12 2.9455 -0.2916
26 6 14 6.8528 -0.7212
26 6 16 4.5363 0.1684
26 6 18 1.7591 1.2307
26 6 20 2.5815 2.3627
26 7 -23 8.7768 -2.4783
26 7 -21 3.7936 -0.7321
26 7 -19 -1.3793 -0.1661
26 7 -17 -4.7330 0.7386
26 7 -15 -1.9389 0.6673
26 7 -13 6.1399 -0.3510
26 7 -11 9.7193 0.2120
26 7 -9 4.9346 0.4268
26 7 -7 -0.7022 -1.2984
26 7 -5 -2.2978 -0.9891
26 7 -3 -1.1981 0.8252
26 7 -1 2.0237 -0.0112
26 7 1 6.7852 -0.8145
26 7 3 8.9590 0.8438
26 7 5 4.1467 1.4311
26 7 7 -3.1188 0.6679
26 7 9 -2.7777 1.2139
26 7 11 2.1558 1.9094
26 7 13 1.2687 1.2635
26 7 15 -1.0704 0.1136
26 7 17 2.7023 -1.1134
26 7 19 6.0840 -1.9732
26 8 -22 -2.2670 0.6826
26 8 -20 1.1323 -1.4908
26 8 -18 4.2734 -1.6345
26 8 -16 6.3321 0.2232
26 8 -14 4.8117 0.8088
26 8 -12 -0.4257 -1.1839
26 8 -10 -2.5055 -1.8037
26 8 -8 1.6310 -0.0931
26 8 -6 7.2324 0.0199
26 8 -4 9.5346 -1.0973
26 8 -2 5.1244 -0.4296
26 8 0 -3.4638 0.4140
26 8 2 -7.7402 -0.5323
26 8 4 -6.5954 -1.0707
26 8 6 -3.9883 0.4826
26 8 8 0.0536 1.9792
26 8 10 3.1831 1.2671
26 8 12 2.5611 -0.3170
26 8 14 -0.1108 -0.4479
26 8 16 -5.3986 1.0976
26 8 18 -11.7301 2.8249
26 9 -21 -3.3576 -0.8865
26 9 -19 -6.2009 -1.8213
26 9 -17 -6.6947 -0.5549
26 9 -15 -0.2385 0.2280
26 9 -13 7.3141 -0.1916
26 9 -11 4.9882 -0.3853
26 9 -9 -5.1417 -0.4335
26 9 -7 -9.8046 -0.2336
26 9 -5 -8.1182 0.0147
26 9 -3 -5.6587 -0.3557
26 9 -1 2.0482 -0.5394
26 9 1 12.5017 -0.3727
26 9 3 14.8118 -0.7124
26 9 5 11.1352 -0.7464
26 9 7 5.3777 0.4183
26 9 9 -4.3060 1.0125
26 9 11 -8.1025 -1.0909
26 9 13 -0.2275 -3.7187
26 9 15 4.3000 -3.0108
26 10 -20 5.3023 3.6843
26 10 -18 3.9205 1.9059
26 10 -16 -5.6047 -1.1565
26 10 -14 -13.9202 -0.7755
26 10 -12 -10.7229 1.5563
26 10 -10 -1.9194 1.7168
26 10 -8 -0.7503 0.0537
26 10 -6 -6.2798 -1.0753
26 10 -4 -8.6728 -0.9409
26 10 -2 -7.9855 -0.4671
26 10 0 -8.1864 -0.2482
26 10 2 -6.8762 0.5571
26 10 4 -4.8675 1.5807
26 10 6 -3.6551 0.5460
26 10 8 3.0906 -1.8924
26 10 10 10.7172 -2.2418
26 10 12 4.6392 -1.3602
26 10 14 -6.5403 -2.6650
26 11 -15 4.7899 1.0135
26 11 -13 9.4579 -0.8815
26 11 -11 3.9340 -1.1539
26 11 -9 0.4326 0.7572
26 11 -7 3.4291 1.3286
26 11 -5 6.2096 -0.3610
26 11 -3 7.5814 -1.0275
26 11 -1 7.5762 0.5620
26 11 1 4.2491 1.1144
26 11 3 0.2172 -0.5666
26 11 5 -1.8873 -0.5380
26 11 7 -3.3623 2.0004
26 11 9 -4.0492 2.4652
26 11 11 -1.1416 1.0680
26 12 -10 2.3103 1.1709
26 12 -8 3.0943 0.8054
26 12 -6 -0.0525 0.9383
26 12 -4 -1.7770 2.0145
26 12 -2 -0.5584 0.0327
26 12 0 1.6654 -1.2311
26 12 2 -1.2736 2.7017
26 12 4 -6.1308 5.9491
26 12 6 -2.7101 2.7840
26 12 8 3.2459 -1.9675
26 13 -7 -3.0534 -0.5821
26 13 -5 -0.2810 1.1213
26 13 -3 2.1164 2.0806
26 13 -1 2.1894 3.7056
26 13 1 -0.4737 2.8697
26 13 5 4.3639 -3.9855
27 1 -28 1.7762 5.7595
27 1 -26 -0.6282 0.5600
27 1 -24 -1.6890 -0.9026
27 1 -22 -0.9035 1.0136
27 1 -20 -0.6383 -0.4724
27 1 -18 -3.0742 -1.5012
27 1 -16 -5.4147 0.4980
27 1 -14 -5.8248 0.4836
27 1 -12 -4.2028 -0.5591
27 1 -10 0.5061 0.1530
27 1 -8 3.5180 0.0328
27 1 -6 0.5510 -1.0418
27 1 -4 -2.2016 -1.0304
27 1 -2 -1.8055 -0.1286
27 1 0 -2.7257 0.9440
27 1 2 -3.1929 0.8655
27 1 4 -0.4899 -0.2118
27 1 6 1.6915 0.0368
27 1 8 2.3101 0.9573
27 1 10 3.4324 0.2614
27 1 12 3.7567 -0.8970
27 1 14 1.6288 -0.0734
27 1 16 -0.1364 1.3138
27 1 18 0.6114 -0.3592
27 1 20 -2.8889 -2.7464
27 1 22 -13.9144 -1.2349
27 1 24 -18.0931 0.0825
27 2 -29 -1.2936 3.9623
27 2 -27 -3.5125 0.8583
27 2 -25 -2.4185 -2.1879
27 2 -23 -0.7618 -1.9003
27 2 -21 -1.2064 0.4110
27 2 -19 -0.3213 1.8793
27 2 -17 0.8949 2.2655
27 2 -15 -1.4547 2.0510
27 2 -13 -2.7062 2.0145
27 2 -11 -0.3805 2.9131
27 2 -9 0.6273 2.4530
27 2 -7 0.4935 -0.0780
27 2 -5 0.7590 -0.4626
27 2 -3 0.0624 0.8781
27 2 -1 0.4969 -1.0607
27 2 1 1.3447 -3.6825
27 2 3 -1.6841 -2.1350
27 2 5 -6.4822 -0.4556
27 2 7 -8.2903 -2.0026
27 2 9 -4.8647 -2.4204
27 2 11 1.4937 -0.8600
27 2 13 2.5509 -1.2768
27 2 15 -1.9403 -1.8836
27 2 17 -2.3037 0.4532
27 2 19 1.8984 2.4168
27 2 21 4.5526 2.4340
27 2 23 4.5504 3.3654
27 3 -28 -3.0363 -9.4200
27 3 -26 1.7650 -5.4574
27 3 -24 1.1452 -1.7248
27 3 -22 -3.4990 0.6100
27 3 -20 -4.6577 1.8138
27 3 -18 -1.2845 1.1385
27 3 -16 2.4031 0.6670
27 3 -14 3.2362 1.7878
27 3 -12 1.1601 1.3175
27 3 -10 -1.0095 0.1858
27 3 -8 -2.1768 1.5685
27 3 -6 -2.8658 1.9885
27 3 -4 -1.8632 -0.2478
27 3 -2 -0.4517 -1.0997
27 3 0 -0.4939 -0.4738
27 3 2 1.3645 -0.9866
27 3 4 6.2855 -1.7682
27 3 6 10.1278 -1.0623
27 3 8 9.4809 -0.2252
27 3 10 2.5238 -1.5155
27 3 12 -6.0049 -2.1763
27 3 14 -6.6278 0.5698
27 3 16 -1.6624 1.8106
27 3 18 -0.5318 -0.4069
27 3 20 -2.8191 -1.2555
27 3 22 -4.3848 -1.8452
27 4 -27 5.8719 0.0758
27 4 -25 5.7119 -0.8731
27 4 -23 4.4874 -0.3529
27 4 -21 2.1071 0.0617
27 4 -19 1.4278 0.3669
27 4 -17 3.9062 0.6876
27 4 -15 4.7977 0.3159
27 4 -13 2.6835 0.2063
27 4 -11 3.1777 0.2469
27 4 -9 5.4250 -0.7505
27 4 -7 3.2675 -0.9440
27 4 -5 0.0728 -0.2505
27 4 -3 1.9797 -0.3046
27 4 -1 4.9550 0.4486
27 4 1 3.3559 0.6900
27 4 3 -1.2164 -1.0056
27 4 5 -5.2494 -0.1737
27 4 7 -6.7707 1.7260
27 4 9 -3.7563 -0.1778
27 4 11 3.1762 -1.2864
27 4 13 7.7759 0.6444
27 4 15 5.3034 0.8057
27 4 17 -0.2585 0.0111
27 4 19 -3.9681 0.7340
27 4 21 -5.6375 2.2577
27 5 -26 0.4580 2.6702
27 5 -24 -4.6981 2.8375
27 5 -22 -4.8564 0.1236
27 5 -20 3.5885 -0.8061
27 5 -18 8.2745 -0.1259
27 5 -16 2.1135 0.4727
27 5 -14 -4.0646 0.8542
27 5 -12 -2.9963 0.2508
27 5 -10 -1.4875 -0.5243
27 5 -8 -1.4265 -0.3900
27 5 -6 0.6299 -0.2663
27 5 -4 0.6008 -0.3799
27 5 -2 -2.3894 -0.8938
27 5 0 -2.4254 -1.5176
27 5 2 -0.8852 -0.4682
27 5 4 -2.1367 0.4911
27 5 6 -4.1397 -0.9901
27 5 8 -3.2724 -1.3864
27 5 10 1.0159 0.8240
27 5 12 3.7735 1.3246
27 5 14 0.2273 -0.5608
27 5 16 -4.0665 -0.6130
27 5 18 -2.7383 2.4822
27 5 20 0.6074 4.3571
27 6 -23 2.5159 3.2732
27 6 -21 -3.3624 3.0766
27 6 -19 -7.3852 -0.2918
27 6 -17 -4.4380 -2.2315
27 6 -15 3.0212 -1.5547
27 6 -13 6.0127 0.1292
27 6 -11 2.7603 1.2201
27 6 -9 0.6192 0.9933
27 6 -7 1.3313 0.1431
27 6 -5 1.6931 -0.5522
27 6 -3 1.2597 -0.9331
27 6 -1 -0.4540 -0.7503
27 6 1 -1.3861 -0.3143
27 6 3 1.1264 -0.5500
27 6 5 2.4112 -0.7194
27 6 7 0.5451 0.4852
27 6 9 0.5739 0.7365
27 6 11 2.3165 -1.7107
27 6 13 3.8401 -2.1793
27 6 15 5.9729 1.4622
27 6 17 6.2786 3.2015
27 6 19 5.2609 1.1708
27 7 -22 5.2724 -0.8303
27 7 -20 9.3650 -1.0267
27 7 -18 5.2432 -0.6603
27 7 -16 0.3614 -0.4432
27 7 -14 -0.3499 -1.4247
27 7 -12 0.8828 -0.6937
27 7 -10 0.5584 1.0901
27 7 -8 -0.4701 -0.2891
27 7 -6 0.1735 -1.8397
27 7 -4 0.6229 0.1190
27 7 -2 1.1079 1.5021
27 7 0 4.5774 0.2385
27 7 2 6.0885 0.0236
27 7 4 2.8563 1.4665
27 7 6 2.2469 1.3822
27 7 8 2.9122 0.0818
27 7 10 -1.4267 0.4299
27 7 12 -3.6225 0.6960
27 7 14 -1.3049 -1.1884
27 7 16 -5.9112 -1.2713
27 7 18 -15.9647 1.4961
27 8 -21 -5.3972 0.0900
27 8 -19 -3.5592 -0.6074
27 8 -17 -0.3364 -0.8585
27 8 -15 1.2906 -0.8810
27 8 -13 -0.6360 -0.9775
27 8 -11 -4.0367 -1.5722
27 8 -9 -4.6625 -0.6275
27 8 -7 -2.5571 0.6557
27 8 -5 -0.8328 -0.2927
27 8 -3 0.9233 -0.7636
27 8 -1 2.5308 0.7427
27 8 1 0.6101 1.4204
27 8 3 -3.2281 0.9598
27 8 5 -4.4684 0.8982
27 8 7 -2.4092 0.8725
27 8 9 2.7931 0.3101
27 8 11 7.3848 0.0597
27 8 13 5.7042 0.9511
27 8 15 3.1727 1.2767
27 9 -20 -0.4103 1.5164
27 9 -18 -6.5741 0.3624
27 9 -16 -10.0571 -1.8174
27 9 -14 -6.1462 -1.5807
27 9 -12 -1.5749 -0.1778
27 9 -10 -2.2023 -0.6417
27 9 -8 -4.9588 -1.1360
27 9 -6 -6.5068 0.1452
27 9 -4 -6.6502 0.3898
27 9 -2 -5.2570 -0.4514
27 9 0 -1.8850 0.4826
27 9 2 3.1548 1.4780
27 9 4 5.8189 0.5524
27 9 6 1.9219 0.0479
27 9 8 -5.4427 0.1379
27 9 10 -10.1778 -1.4165
27 9 12 -9.0182 -2.9865
27 9 14 -2.7345 -2.0785
27 10 -19 4.4892 4.4702
27 10 -15 6.5871 -1.6600
27 10 -13 -2.9337 -1.4064
27 10 -11 -2.7857 0.1583
27 10 -9 2.3115 0.6131
27 10 -7 1.9849 0.2708
27 10 -5 1.6757 0.7599
27 10 -3 4.8009 1.1501
27 10 -1 5.8253 0.0530
27 10 1 2.4642 -0.6401
27 10 3 -3.5645 0.5182
27 10 5 -4.9724 0.6868
27 10 7 3.9073 -2.1078
27 10 9 12.5278 -4.0634
27 10 11 9.5814 -2.2254
27 10 13 1.1008 -0.2792
27 11 -12 6.5631 1.9512
27 11 -10 5.2929 1.1322
27 11 -8 5.6618 1.0816
27 11 -6 3.5964 0.4080
27 11 -4 -1.1825 -0.7050
27 11 -2 -1.0144 -0.3890
27 11 0 0.9140 1.0806
27 11 2 0.1614 1.3400
27 11 4 1.1401 -0.1460
27 11 6 -1.1578 -0.8299
27 11 8 -10.7332 1.6335
27 11 10 -13.9614 5.9638
27 12 -9 -4.2795 -3.4087
27 12 -7 1.6010 -2.4367
27 12 -5 5.3411 1.2714
27 12 -3 2.6195 2.8313
27 12 -1 -4.5959 1.2278
27 12 1 -9.3658 0.7603
27 12 3 -8.4138 1.3445
27 12 5 -2.8850 -0.7271
27 12 7 4.7222 -3.5287
28 0 -28 -2.3615 -0.6328
28 0 -26 -3.7218 -8.2856
28 0 -24 -2.1423 -7.4056
28 0 -22 1.2140 -2.1000
28 0 -20 3.4868 -2.2759
28 0 -18 4.0718 -2.4272
28 0 -16 0.5180 3.6124
28 0 -14 -6.9650 8.0350
28 0 -12 -9.0413 6.2139
28 0 -10 -3.7875 5.9745
28 0 -8 -0.1984 10.1076
28 0 -6 0.1397 10.3249
28 0 -4 -0.6367 4.6051
28 0 -2 -2.4209 1.7501
28 0 0 -0.3628 3.4173
28 0 2 3.9790 0.5848
28 0 4 1.8589 -6.6252
28 0 6 -3.3027 -7.7902
28 0 8 -3.0353 -4.7230
28 0 10 0.9230 -7.7178
28 0 12 3.3073 -11.5329
28 0 14 2.5746 -6.5021
28 0 16 1.1058 -0.9280
28 0 18 -1.5731 -3.1527
28 0 20 -9.6974 -4.5077
28 1 -27 3.5567 2.5912
28 1 -25 3.8742 1.5407
28 1 -23 1.2538 0.4613
28 1 -21 -0.5169 -0.2366
28 1 -19 -0.5057 0.0172
28 1 -17 -2.6837 0.0466
28 1 -15 -5.1160 -0.3553
28 1 -13 -3.4581 1.1842
28 1 -11 -0.2009 2.8145
28 1 -9 0.8257 0.8062
28 1 -7 -1.0534 -1.6373
28 1 -5 -3.4615 0.3163
28 1 -3 -2.8352 3.0099
28 1 -1 -1.7708 0.5267
28 1 1 -3.9361 -2.3504
28 1 3 -5.4376 0.6543
28 1 5 -4.7679 2.1968
28 1 7 -4.4223 -2.0198
28 1 9 -2.5765 -2.2470
28 1 11 -0.7539 1.6053
28 1 13 -2.7889 0.4994
28 1 15 -3.6068 -1.5320
28 1 17 0.5042 0.3158
28 1 19 3.6049 0.8113
28 1 21 1.0006 -0.1810
28 1 23 -4.6418 0.1780
28 2 -26 -4.0603 -5.3465
28 2 -24 -3.7145 -2.4133
28 2 -22 -3.0841 1.7566
28 2 -20 -0.7886 2.4229
28 2 -18 4.4188 0.4727
28 2 -16 10.5802 0.6211
28 2 -14 12.7058 0.8361
28 2 -12 8.6116 -0.8911
28 2 -10 3.0643 -1.0596
28 2 -8 1.3084 0.1686
28 2 -6 2.6443 0.1494
28 2 -4 4.4590 -0.5161
28 2 -2 5.8459 -0.4916
28 2 0 5.8931 0.2863
28 2 2 4.7180 -0.0560
28 2 4 4.4113 -1.2756
28 2 6 4.9267 -0.1235
28 2 8 3.3198 0.9696
28 2 10 -0.1450 -0.2921
28 2 12 -1.6189 1.0143
28 2 14 -1.4289 3.3274
28 2 16 -2.4509 1.4086
28 2 18 -1.7201 0.0310
28 2 20 3.5335 1.8227
28 2 22 7.9882 2.5254
28 3 -25 3.7254 2.7745
28 3 -23 -0.5219 -0.1787
28 3 -21 -0.2367 -1.6637
28 3 -19 2.3293 0.6842
28 3 -17 1.5739 0.6297
28 3 -15 -3.6312 -0.1446
28 3 -13 -5.9515 1.2724
28 3 -11 -1.6892 0.5338
28 3 -9 0.7812 -0.6587
28 3 -7 -1.8872 1.2492
28 3 -5 -3.3010 1.2252
28 3 -3 -2.6321 -0.9486
28 3 -1 -1.4486 -0.3846
28 3 1 1.1887 0.2610
28 3 3 2.2079 -0.8778
28 3 5 1.3381 -0.7041
28 3 7 3.0862 -0.1120
28 3 9 6.3165 -0.3713
28 3 11 8.6142 0.0447
28 3 13 9.8909 0.1798
28 3 15 6.5178 -0.6703
28 3 17 -2.2142 0.0728
28 3 19 -9.1036 3.0535
28 3 21 -8.3103 4.9199
28 4 -24 5.6723 -0.0166
28 4 -22 6.6797 1.2193
28 4 -20 3.0693 0.5231
28 4 -18 -2.7393 -0.1761
28 4 -16 -3.9713 -0.6605
28 4 -14 0.2157 -1.4255
28 4 -12 1.1954 -0.7739
28 4 -10 -1.5651 0.2562
28 4 -8 0.1136 -0.5065
28 4 -6 3.6710 -1.1960
28 4 -4 2.8823 -0.5815
28 4 -2 0.0972 -0.2371
28 4 0 -2.8063 -0.0151
28 4 2 -4.5908 0.5946
28 4 4 -3.8055 0.3847
28 4 6 -4.7496 -0.1506
28 4 8 -7.3171 0.3212
28 4 10 -6.1564 0.3505
28 4 12 -3.2753 -0.5956
28 4 14 -0.1913 0.0681
28 4 16 4.6306 1.6754
28 4 18 6.3731 0.7335
28 4 20 4.6420 -1.4147
28 5 -23 -13.5205 4.2032
28 5 -21 -6.0019 0.9214
28 5 -19 -0.2480 -0.6826
28 5 -17 0.7396 0.4562
28 5 -15 0.1183 0.5955
28 5 -13 -1.2140 -1.8939
28 5 -11 -3.0758 -2.1472
28 5 -9 -3.5384 -0.2877
28 5 -7 -1.8503 -0.7177
28 5 -5 -0.2589 -1.4011
28 5 -3 -0.5342 -0.6534
28 5 -1 0.7405 -0.7646
28 5 1 4.6310 -0.5641
28 5 3 4.4099 0.5730
28 5 5 0.4668 0.4149
28 5 7 1.1785 -0.1220
28 5 9 4.9132 0.4977
28 5 11 5.8862 1.2186
28 5 13 4.1371 0.8309
28 5 15 -2.2895 -0.2825
28 5 17 -10.5546 0.1319
28 5 19 -10.1378 1.5928
28 6 -22 4.3964 1.6015
28 6 -20 -2.3982 2.4848
28 6 -18 -5.4429 0.3779
28 6 -16 -2.1201 -2.1161
28 6 -14 0.7658 -0.6669
28 6 -12 1.4247 1.8908
28 6 -10 3.2814 0.8005
28 6 -8 5.2363 -0.9345
28 6 -6 3.9881 -0.6261
28 6 -4 1.5137 -0.4117
28 6 -2 1.2089 -0.5323
28 6 0 0.2780 -0.0931
28 6 2 -3.0922 0.5876
28 6 4 -2.2864 0.5847
28 6 6 3.4581 -0.7771
28 6 8 3.8777 -0.9605
28 6 10 -1.3541 0.8151
28 6 12 -1.5799 0.6940
28 6 14 3.6048 0.0555
28 6 16 6.3601 1.7592
28 6 18 5.2543 1.3749
28 7 -21 9.2229 -0.9907
28 7 -17 3.4705 0.8715
28 7 -15 0.9865 -0.4334
28 7 -13 2.2076 -1.1014
28 7 -11 2.0262 0.0319
28 7 -9 -1.0031 0.5241
28 7 -7 -3.4818 -0.1530
28 7 -5 -3.7133 0.3570
28 7 -3 -1.4994 1.2309
28 7 -1 2.1061 0.9632
28 7 1 5.3274 0.5925
28 7 3 6.7204 0.1783
28 7 5 2.5155 -0.2310
28 7 7 -6.7509 0.2999
28 7 9 -12.2866 0.8436
28 7 11 -11.2668 0.8845
28 7 13 -7.7817 0.6714
28 7 15 -1.9560 -1.3795
28 8 -20 -11.0662 -1.3945
28 8 -16 -5.6631 1.2193
28 8 -14 -7.3719 1.4513
28 8 -12 -8.7341 -1.3504
28 8 -10 -4.6338 -3.0497
28 8 -8 -0.5832 -0.3117
28 8 -6 0.9996 1.4984
28 8 -4 2.3743 0.1563
28 8 -2 0.2391 0.1548
28 8 0 -4.4165 1.2486
28 8 2 -5.8333 0.6515
28 8 4 -5.3607 0.6103
28 8 6 -2.6952 1.4955
28 8 8 4.2890 0.1271
28 8 10 7.4831 -0.6464
28 8 12 2.5399 2.3603
28 8 14 -2.0161 3.1309
28 9 -19 4.0579 3.9224
28 9 -15 10.2047 1.2491
28 9 -13 12.2951 -0.7483
28 9 -11 8.5759 -1.0883
28 9 -9 1.3874 -0.4869
28 9 -7 -3.0151 0.2701
28 9 -5 -5.4604 0.0073
28 9 -3 -5.6852 -1.0230
28 9 -1 -0.8944 -0.3201
28 9 1 3.3694 1.3844
28 9 3 4.5191 0.5747
28 9 5 6.8750 -1.7699
28 9 7 5.5063 -1.2137
28 9 9 -2.1178 1.2929
28 9 11 -5.7637 0.3499
28 9 13 -4.7411 -2.8513
28 10 -12 -8.7312 2.3617
28 10 -10 0.0131 0.2183
28 10 -8 4.3666 -2.8126
28 10 -6 2.7902 -1.1725
28 10 -4 2.5117 2.9908
28 10 -2 1.3898 2.1049
28 10 0 -4.3443 -1.7275
28 10 2 -8.0421 -1.4947
28 10 4 -6.6354 -0.6471
28 10 6 -3.6897 -4.1163
28 10 8 2.5737 -5.7607
28 10 10 9.9786 -0.5852
28 11 -9 -3.5553 3.6415
28 11 -7 -0.7187 5.1122
28 11 -5 2.3581 0.9741
28 11 -3 0.6147 -1.8268
28 11 -1 -3.7193 0.2130
28 11 1 -4.3222 0.5040
28 11 3 -0.1184 -2.5763
28 11 5 2.6840 -1.9736
28 11 7 -0.3869 2.5586
28 12 -4 -2.1443 3.1439
28 12 -2 -4.8672 2.3575
28 12 0 -1.2230 -0.0250
28 12 2 1.5110 1.3817
29 1 -26 2.6826 1.0883
29 1 -24 2.0179 -1.0534
29 1 -22 2.5323 -0.6337
29 1 -20 2.9789 0.7826
29 1 -18 2.0096 0.2769
29 1 -16 1.0467 -0.4861
29 1 -14 -0.9685 0.4061
29 1 -12 -2.0592 0.2073
29 1 -10 1.7831 -1.7167
29 1 -8 5.1428 -0.3874
29 1 -6 3.6665 2.3163
29 1 -4 2.3422 0.3074
29 1 -2 1.3822 -1.1415
29 1 0 -1.4561 1.7217
29 1 2 -2.1094 1.0038
29 1 4 0.0728 -2.4761
29 1 6 2.0325 -0.7220
29 1 8 3.3731 2.2071
29 1 10 3.1548 0.6661
29 1 12 2.2834 -1.0649
29 1 14 2.7826 -0.0558
29 1 16 1.9147 0.3717
29 1 18 -1.5091 -1.7348
29 1 20 -5.1403 -2.9634
29 2 -25 -5.9913 -2.3858
29 2 -23 -3.7365 -2.4059
29 2 -21 -2.1294 0.7007
29 2 -19 -1.6620 4.9042
29 2 -17 -1.0854 3.8096
29 2 -15 0.9350 -0.3840
29 2 -13 3.8338 -1.6962
29 2 -11 2.1752 -0.7531
29 2 -9 -2.1162 -1.1969
29 2 -7 -0.7834 -2.8407
29 2 -5 2.3858 -3.0466
29 2 -3 1.4438 -1.6193
29 2 -1 0.0164 -1.1771
29 2 1 -1.4473 -2.0012
29 2 3 -2.7142 -1.0912
29 2 5 -0.4895 0.9065
29 2 7 -0.1304 0.5264
29 2 9 -3.5893 0.3954
29 2 11 -2.6131 3.4114
29 2 13 0.6500 3.7384
29 2 15 -1.8931 -0.0701
29 2 17 -5.9560 0.7416
29 2 19 -2.6073 5.8274
29 2 21 7.8486 5.5329
29 3 -24 1.1055 6.4899
29 3 -22 -1.8661 4.9190
29 3 -20 -5.1629 2.7118
29 3 -18 -6.6402 0.9970
29 3 -16 -3.8809 0.3029
29 3 -14 -0.2510 0.2222
29 3 -12 -0.7683 -0.2553
29 3 -10 -2.5825 -0.2017
29 3 -8 -1.9030 -0.0007
29 3 -6 -0.4129 -1.1788
29 3 -4 -0.0388 -2.0007
29 3 -2 -0.0591 -1.4022
29 3 0 2.0542 -0.6699
29 3 2 5.2137 -0.2668
29 3 4 4.2055 -0.7069
29 3 6 1.4330 -0.7442
29 3 8 2.1454 1.0157
29 3 10 1.9689 1.6613
29 3 12 0.0909 1.1185
29 3 14 1.7587 2.2240
29 3 16 2.0038 2.3894
29 3 18 -2.2906 1.0245
29 3 20 -2.9515 1.2253
29 4 -23 5.5784 -2.6019
29 4 -21 4.5936 0.1018
29 4 -19 -1.0160 1.8577
29 4 -17 -1.8664 2.0663
29 4 -15 0.5113 -0.8148
29 4 -13 -0.2476 -2.4214
29 4 -11 0.1240 -0.4320
29 4 -9 4.2872 0.5372
29 4 -7 4.4865 0.5686
29 4 -5 -0.1724 1.1959
29 4 -3 -1.4148 0.0706
29 4 -1 0.1411 -0.8684
29 4 1 -2.2668 0.6280
29 4 3 -5.6024 1.2433
29 4 5 -3.5001 -0.1454
29 4 7 0.2825 -0.8287
29 4 9 0.6199 0.1409
29 4 11 0.4858 0.6665
29 4 13 1.2065 -0.0987
29 4 15 -0.1287 0.5987
29 4 17 -2.0908 0.9701
29 4 19 -2.9688 -3.1387
29 5 -22 -5.5947 1.1606
29 5 -20 -3.4626 -2.2198
29 5 -18 0.7123 -2.7007
29 5 -16 2.2740 -0.2039
29 5 -14 4.0962 1.0713
29 5 -12 5.9718 -0.3608
29 5 -10 1.8620 -1.1237
29 5 -8 -3.8894 -1.2794
29 5 -6 -3.7247 -1.5505
29 5 -4 -1.2472 0.1134
29 5 -2 0.4252 1.1758
29 5 0 3.0756 -0.3639
29 5 2 4.8389 -0.4308
29 5 4 3.7147 0.5661
29 5 6 0.0756 -0.3316
29 5 8 -4.4200 -0.0585
29 5 10 -6.5360 1.7832
29 5 12 -7.4444 0.8795
29 5 14 -8.5281 -1.9672
29 5 16 -4.0932 -2.9781
29 5 18 5.1219 -1.6345
29 6 -19 -2.3925 1.0554
29 6 -17 -1.7160 -0.3829
29 6 -15 1.6606 -0.2334
29 6 -13 1.7783 1.2040
29 6 -11 1.5122 -0.3626
29 6 -9 3.4731 -1.4127
29 6 -7 3.9069 0.5727
29 6 -5 2.9537 0.4971
29 6 -3 0.4135 -1.1390
29 6 -1 -6.0260 -0.0667
29 6 1 -8.0565 0.1989
29 6 3 -1.0098 -2.1040
29 6 5 3.3711 -1.4535
29 6 7 0.6557 1.3254
29 6 9 -2.5446 0.3605
29 6 11 -4.8701 -1.6631
29 6 13 -3.3826 -0.2559
29 6 15 4.3129 0.7090
29 7 -20 1.2783 0.1980
29 7 -16 -0.4969 0.2666
29 7 -14 -5.0440 -1.2013
29 7 -12 -4.4592 -0.0377
29 7 -10 -2.2857 2.3354
29 7 -8 -1.6081 2.0647
29 7 -6 -1.0572 0.6136
29 7 -4 -1.4462 0.2196
29 7 -2 -1.4972 0.2897
29 7 0 0.6382 0.1792
29 7 2 0.6224 0.0053
29 7 4 -0.8260 0.0750
29 7 6 1.9504 -0.3247
29 7 8 4.4266 -0.7624
29 7 10 2.3760 0.9717
29 7 12 1.2788 1.6182
29 7 14 1.6625 -3.1800
29 8 -15 2.8212 2.0728
29 8 -13 1.9151 0.4936
29 8 -11 0.0465 -1.6299
29 8 -9 -3.3403 -0.8245
29 8 -7 -6.2384 0.7082
29 8 -5 -4.7064 1.2868
29 8 -3 0.4427 1.8040
29 8 -1 2.7233 1.2785
29 8 1 0.1735 0.5298
29 8 3 -2.6920 1.2642
29 8 5 -3.8616 1.0532
29 8 7 -0.7070 -0.9214
29 8 9 9.6354 -1.2724
29 8 11 15.4866 1.9193
29 8 13 5.3557 7.1956
29 9 -14 -0.6086 -3.5914
29 9 -12 -0.2912 -2.5229
29 9 -10 -3.7804 -1.6541
29 9 -8 -3.2067 -0.1195
29 9 -6 0.7878 1.5711
29 9 -4 2.3734 0.8343
29 9 -2 -0.7800 -0.3627
29 9 0 -5.5588 1.0426
29 9 2 -5.2795 1.3564
29 9 4 0.3156 -1.4656
29 9 6 2.3670 -1.6902
29 9 8 -4.2000 1.5283
29 9 10 -12.3114 0.5197
29 10 -11 -3.7613 -0.2789
29 10 -9 -2.3196 -0.1793
29 10 -7 -2.5963 -1.7570
29 10 -5 -3.0330 -0.7721
29 10 -3 -3.6832 0.7602
29 10 -1 -0.9659 -1.4804
29 10 1 3.7641 -3.5861
29 10 3 2.2000 -0.5840
29 10 5 -1.0102 3.2399
29 10 7 2.9866 2.5207
29 11 -6 11.1857 1.7571
29 11 -4 7.0417 -2.2336
29 11 -2 2.5693 -1.7515
29 11 0 0.0120 -0.0193
29 11 2 0.8031 -0.8926
30 0 -24 3.9908 5.0697
30 0 -22 2.8053 5.8744
30 0 -20 0.7825 7.6606
30 0 -18 -0.2428 6.6456
30 0 -16 -1.6834 6.5584
30 0 -14 -4.3429 7.9107
30 0 -12 -3.6913 3.7631
30 0 -10 -2.1651 -2.1410
30 0 -8 -3.7041 -1.2056
30 0 -6 -4.0928 -0.9461
30 0 -4 -3.5176 -7.9145
30 0 -2 -3.7783 -10.6577
30 0 0 -1.8457 -5.8304
30 0 2 -1.7778 -6.0242
30 0 4 -5.0137 -9.8811
30 0 6 -3.4683 -5.7772
30 0 8 -0.7523 0.5713
30 0 10 -3.8198 -0.1456
30 0 12 -5.2527 -0.5185
30 0 14 -3.0261 4.8032
30 0 16 -5.6080 8.7559
30 0 18 -12.8348 8.6650
30 1 -25 -2.5495 1.5703
30 1 -23 -1.3791 0.2979
30 1 -21 -2.1601 0.4978
30 1 -19 -2.8098 1.9430
30 1 -17 -0.9178 -0.0323
30 1 -15 3.5003 -1.6986
30 1 -13 4.7227 0.7730
30 1 -11 1.5796 2.1537
30 1 -9 1.1377 0.0314
30 1 -7 3.8119 -1.6005
30 1 -5 4.6893 -0.2671
30 1 -3 3.4904 2.3232
30 1 -1 -0.1024 1.2912
30 1 1 -3.4870 -2.5752
30 1 3 -0.9309 -1.9809
30 1 5 2.5367 1.0378
30 1 7 0.1774 0.0085
30 1 9 -2.4142 -0.8799
30 1 11 -1.2734 0.9490
30 1 13 0.0972 0.6200
30 1 15 0.3508 -0.1746
30 1 17 0.8134 2.7334
30 1 19 4.1976 5.5850
30 2 -24 -0.6889 -4.5657
30 2 -22 0.2020 -2.5519
30 2 -20 -1.9534 -0.9187
30 2 -18 -3.5657 0.3556
30 2 -16 -0.6976 0.5797
30 2 -14 3.2922 -1.7737
30 2 -12 3.8602 -2.0465
30 2 -10 2.8952 0.2820
30 2 -8 1.8161 0.2112
30 2 -6 -1.2293 -0.3195
30 2 -4 -2.9585 -0.0293
30 2 -2 0.6630 -1.1845
30 2 0 4.3110 -0.0185
30 2 2 2.5938 3.0784
30 2 4 0.0449 2.0063
30 2 6 0.7072 -0.2564
30 2 8 1.2162 0.4785
30 2 10 0.0730 1.3568
30 2 12 -0.8798 1.3503
30 2 14 -3.2165 0.8156
30 2 16 -6.6285 -0.5208
30 2 18 -6.0852 -1.1621
30 3 -23 0.1897 3.9918
30 3 -21 -4.0346 0.7110
30 3 -19 -1.3059 -1.0937
30 3 -17 3.1118 -0.8595
30 3 -15 1.2589 -0.1538
30 3 -13 -1.8505 -0.1034
30 3 -11 -0.8456 -0.8169
30 3 -9 -0.6332 -0.5039
30 3 -7 -1.2218 0.3655
30 3 -5 0.2560 -0.2079
30 3 -3 -0.3955 -1.1557
30 3 -1 -2.3216 -1.5318
30 3 1 -1.3750 -1.1220
30 3 3 -1.0877 0.4491
30 3 5 -1.7204 0.6690
30 3 7 0.5488 -0.6170
30 3 9 2.4934 0.0158
30 3 11 1.1092 1.1152
30 3 13 -0.8775 0.9046
30 3 15 -0.6395 1.4384
30 3 17 2.3255 1.1036
30 4 -22 4.1336 -0.8774
30 4 -20 1.6107 -0.4014
30 4 -18 -2.2267 -0.6134
30 4 -16 -1.3774 -1.0299
30 4 -14 2.6286 -1.0678
30 4 -12 2.1521 0.0579
30 4 -10 -1.2860 0.9871
30 4 -8 -1.9137 0.5892
30 4 -6 -1.0999 0.3077
30 4 -4 0.1391 0.7445
30 4 -2 0.7795 0.7347
30 4 0 -1.1431 -0.0762
30 4 2 0.3908 -0.8685
30 4 4 5.8568 -0.5561
30 4 6 4.9978 0.8847
30 4 8 -0.2324 1.2813
30 4 10 -2.5696 -0.7707
30 4 12 -3.7023 -2.1937
30 4 14 1.5442 -0.2997
30 4 16 15.4422 0.8504
30 5 -19 -0.2320 -6.6159
30 5 -17 1.3452 -3.8247
30 5 -15 -1.5700 0.4348
30 5 -13 -2.7505 0.9935
30 5 -11 -0.9274 -0.2588
30 5 -9 -0.3045 -0.0349
30 5 -7 0.1334 0.2095
30 5 -5 0.8925 -0.0694
30 5 -3 -1.8602 0.5435
30 5 -1 -3.6062 1.6074
30 5 1 0.5343 1.5802
30 5 3 2.8395 1.0107
30 5 5 0.5293 1.2832
30 5 7 0.4260 0.3683
30 5 9 2.2431 -1.9500
30 5 11 3.3322 -1.1620
30 5 13 3.3459 0.3521
30 5 15 -1.6762 -2.3748
30 6 -18 6.5763 -1.5368
30 6 -16 1.6846 -3.3666
30 6 -14 -1.4999 -1.2056
30 6 -12 -0.1277 0.6385
30 6 -10 1.3878 -0.6357
30 6 -8 0.3376 -0.6991
30 6 -6 -0.1679 0.2181
30 6 -4 1.1495 0.1984
30 6 -2 1.3753 0.8162
30 6 0 -1.3270 0.7253
30 6 2 -4.9410 -0.3694
30 6 4 -5.9143 0.0540
30 6 6 -3.3571 0.2329
30 6 8 1.0858 -0.7996
30 6 10 4.7700 -0.8510
30 6 12 4.2077 -0.9708
30 6 14 1.1615 -1.5905
30 7 -15 -5.3739 -1.9976
30 7 -13 -8.4203 -3.3785
30 7 -11 -12.5598 -0.0518
30 7 -9 -12.0216 2.3820
30 7 -7 -5.8682 1.6228
30 7 -5 0.3866 0.7718
30 7 -3 4.6022 -0.9302
30 7 -1 5.0592 -2.0185
30 7 1 2.0591 0.5932
30 7 3 1.6830 1.9824
30 7 5 3.7506 -0.5612
30 7 7 2.5869 -1.1732
30 7 9 -0.2916 0.9051
30 7 11 -1.4970 1.4472
30 7 13 -1.3273 1.7094
30 8 -14 3.2498 1.9789
30 8 -12 3.5623 0.7812
30 8 -10 4.0528 -0.1073
30 8 -8 0.4201 -0.4350
30 8 -6 -4.4306 -0.3730
30 8 -4 -4.8084 0.9561
30 8 -2 -1.9705 1.4338
30 8 0 0.4229 -0.5865
30 8 2 -2.1304 -0.9465
30 8 4 -8.6636 2.5263
30 8 6 -8.4920 4.2344
30 8 8 -1.2509 0.7330
30 8 10 1.3393 -2.4644
30 9 -11 -0.5477 -4.3610
30 9 -9 0.8626 -2.9127
30 9 -7 6.3397 -0.6783
30 9 -5 5.8151 -0.8541
30 9 -3 0.2356 -1.4789
30 9 -1 -0.8953 0.8108
30 9 1 1.9518 2.4511
30 9 3 6.1435 0.2339
30 9 5 9.5892 -1.6389
30 9 7 5.0795 0.3222
30 9 9 -3.9656 1.6740
30 10 -8 13.6042 0.6791
30 10 -6 7.3282 -3.8338
30 10 -4 1.9767 -1.3555
30 10 -2 0.1715 -1.7917
30 10 0 0.1962 -5.6521
30 10 2 0.7350 -4.3042
30 10 4 -0.9834 1.1269
31 1 -22 -4.1363 -7.3654
31 1 -20 -2.0714 -6.0138
31 1 -18 -0.8959 -2.8023
31 1 -16 -2.5096 -0.1904
31 1 -14 -6.7155 1.6023
31 1 -12 -6.8012 1.8550
31 1 -10 -0.4995 -0.4808
31 1 -8 2.9690 -0.3198
31 1 -6 1.0985 2.3854
31 1 -4 -0.0605 0.2581
31 1 -2 0.1017 -2.8187
31 1 0 2.1042 0.0413
31 1 2 5.7791 1.7492
31 1 4 5.0034 -1.5317
31 1 6 2.1448 -1.5508
31 1 8 4.4989 2.1295
31 1 10 6.8186 0.8104
31 1 12 4.5738 -3.7547
31 1 14 5.2474 -1.8066
31 1 16 11.8065 3.7262
31 1 18 15.0812 2.7291
31 2 -21 -0.4848 -2.4419
31 2 -19 -1.3452 -3.2617
31 2 -17 -3.0883 -1.5895
31 2 -15 -1.3208 -2.0783
31 2 -13 3.1093 -3.2268
31 2 -11 1.1981 -0.7119
31 2 -9 -3.7179 0.9464
31 2 -7 -1.7786 -0.8326
31 2 -5 2.5430 -0.0894
31 2 -3 3.3781 2.5535
31 2 -1 1.6901 1.4658
31 2 1 -2.3446 0.6897
31 2 3 -3.0914 4.0423
31 2 5 1.9140 4.4295
31 2 7 3.1025 -0.2055
31 2 9 -0.0239 -1.1432
31 2 11 -0.4800 2.6824
31 2 13 -0.9946 3.0399
31 2 15 -1.4257 -0.9116
31 2 17 1.8591 -3.6894
31 3 -20 1.5922 3.5172
31 3 -18 3.6257 -1.6141
31 3 -16 1.8161 -2.9308
31 3 -14 -2.4055 -1.4719
31 3 -12 -3.9746 -0.9780
31 3 -10 -2.3410 -0.4057
31 3 -8 -0.7096 -0.2200
31 3 -6 0.6835 -1.6955
31 3 -4 0.0705 -1.2897
31 3 -2 -3.4137 1.4369
31 3 0 -1.5989 2.5272
31 3 2 5.1692 1.7543
31 3 4 4.0010 1.2420
31 3 6 -1.6923 1.4973
31 3 8 -0.0924 1.0879
31 3 10 3.0640 -0.1872
31 3 12 3.0751 1.1153
31 3 14 5.1198 3.7168
31 3 16 5.1375 1.8145
31 4 -19 7.2829 -2.1335
31 4 -17 3.6054 -1.3113
31 4 -15 0.0035 -0.9767
31 4 -13 -1.9950 0.9489
31 4 -11 -1.2759 0.4399
31 4 -9 0.3535 -1.4106
31 4 -7 -0.6344 0.0770
31 4 -5 -2.0626 0.6923
31 4 -3 0.1604 -1.2248
31 4 -1 3.4586 -0.6103
31 4 1 3.4269 0.4496
31 4 3 1.9065 -0.1567
31 4 5 2.4276 0.6323
31 4 7 3.6937 0.6119
31 4 9 4.0548 -1.0148
31 4 11 4.9747 -0.3998
31 4 13 6.3856 0.8404
31 4 15 6.5941 1.3483
31 5 -18 -1.6682 -2.0189
31 5 -16 -7.3127 0.0034
31 5 -14 -6.2654 -0.5173
31 5 -12 -1.5039 -1.6922
31 5 -10 -1.3594 0.5141
31 5 -8 -1.3420 1.4963
31 5 -6 2.1817 -0.4414
31 5 -4 3.6381 -0.2198
31 5 -2 2.2165 0.8043
31 5 0 -0.0679 -0.1737
31 5 2 -3.5632 -0.2251
31 5 4 -6.3950 0.5481
31 5 6 -8.2200 0.2107
31 5 8 -8.7500 0.0081
31 5 10 -5.2033 -1.0292
31 5 12 -2.4021 -4.5125
31 5 14 -6.1331 -7.6353
31 6 -15 2.0110 2.0753
31 6 -13 -1.5873 1.4817
31 6 -11 -2.8735 -0.6051
31 6 -9 -1.1472 -2.2482
31 6 -7 -2.6814 -0.7575
31 6 -5 -3.9635 0.6099
31 6 -3 -2.0051 -0.1205
31 6 -1 -2.4971 -0.2463
31 6 1 -4.5481 0.4599
31 6 3 -3.7539 0.0568
31 6 5 -0.6513 -0.3354
31 6 7 4.0007 -0.1166
31 6 9 5.3502 -1.5066
31 6 11 0.2038 -2.8246
31 7 -12 0.3256 -2.1577
31 7 -10 -0.9547 0.1759
31 7 -8 0.2065 0.1405
31 7 -6 0.7345 0.3032
31 7 -4 0.4191 0.4274
31 7 -2 4.3201 -0.8368
31 7 0 7.2386 -0.8623
31 7 2 1.2387 0.3645
31 7 4 -4.3404 -0.6299
31 7 6 -3.0165 -2.9071
31 7 8 -4.5299 -1.4688
31 7 10 -7.8188 3.1852
31 8 -11 14.8308 6.0213
31 8 -9 18.6494 1.9156
31 8 -7 11.0244 -1.3152
31 8 -5 -0.9437 -0.8355
31 8 -3 -7.2983 1.9690
31 8 -1 -5.5838 1.0595
31 8 1 2.0012 -1.7135
31 8 3 8.9860 0.1263
31 8 5 7.1827 4.1040
31 8 7 0.8503 3.4590
31 8 9 1.2814 -1.6434
31 9 -8 -6.1913 -3.3984
31 9 -6 -0.6004 0.2120
31 9 -4 4.0100 0.0705
31 9 -2 1.9443 1.6068
31 9 0 -3.0936 4.9478
31 9 2 -4.0537 2.6475
31 9 4 -1.9827 -2.8411
32 0 -20 -4.8780 -5.7921
32 0 -18 -3.6283 -6.4301
32 0 -16 -5.3149 -4.6631
32 0 -14 -5.6805 -4.1925
32 0 -12 -1.6257 -6.7585
32 0 -10 0.3583 -9.3007
32 0 -8 0.1849 -7.5105
32 0 -6 2.2457 -4.2737
32 0 -4 1.8623 -4.6778
32 0 -2 0.8746 -4.3424
32 0 0 5.0947 1.2510
32 0 2 6.0680 5.2317
32 0 4 2.0947 3.9810
32 0 6 4.0248 4.9350
32 0 8 8.4470 8.6525
32 0 12 5.4366 4.1508
32 0 14 6.2820 3.5936
32 1 -21 7.0137 9.3132
32 1 -19 4.5336 2.5447
32 1 -17 -0.2454 -2.3681
32 1 -15 -2.1885 -3.5706
32 1 -13 -3.0286 -1.6748
32 1 -11 -4.3496 1.0497
32 1 -9 -3.3046 0.6293
32 1 -7 -0.6139 -3.1672
32 1 -5 1.5402 -3.3945
32 1 -3 1.4080 1.3352
32 1 -1 -2.1976 2.1447
32 1 1 -2.6820 -1.1169
32 1 3 2.9018 -0.5895
32 1 5 4.4253 1.4740
32 1 7 0.6079 1.4504
32 1 9 0.2299 2.1167
32 1 11 1.5073 1.8425
32 1 13 1.7444 -0.1118
32 1 15 4.3086 0.4478
32 2 -20 -2.2687 -2.8074
32 2 -18 0.0519 -1.7670
32 2 -16 1.8046 -1.2731
32 2 -14 2.1352 -1.1899
32 2 -12 1.4940 0.0792
32 2 -10 2.4908 0.6374
32 2 -8 3.9617 -0.1175
32 2 -6 1.9139 1.1308
32 2 -4 -1.1591 2.0511
32 2 -2 0.1702 0.6307
32 2 0 3.0932 0.8722
32 2 2 1.5896 1.4775
32 2 4 -2.4739 -0.1462
32 2 6 -3.9802 -0.7321
32 2 12 -0.3356 1.8266
32 2 14 -2.9246 0.6385
32 3 -19 7.3042 3.8085
32 3 -17 3.9526 0.9032
32 3 -15 -1.8648 0.1730
32 3 -13 -1.8906 -0.2292
32 3 -11 0.5392 -1.5955
32 3 -9 -2.6940 0.2463
32 3 -7 -5.1163 1.6178
32 3 -5 -1.7717 -0.8630
32 3 -3 0.3219 -0.6973
32 3 -1 -0.3646 1.5295
32 3 1 -1.6938 0.2265
32 3 3 -4.4166 -0.2888
32 3 5 -4.5996 2.0498
32 3 11 4.2204 -0.8896
32 3 13 6.0033 -1.7746
32 4 -16 -0.7403 3.5031
32 4 -14 2.5539 -0.0785
32 4 -12 0.1772 -0.4722
32 4 -10 -0.4089 0.0384
32 4 -8 1.4561 -0.3741
32 4 -6 -0.1766 -0.3668
32 4 -4 0.0142 0.1055
32 4 -2 3.2213 0.3351
32 4 0 2.1185 -0.1117
32 4 2 0.5638 -1.5592
32 4 4 1.1642 -1.8848
32 4 6 -2.3772 0.4150
32 4 10 -6.7629 -3.1157
32 4 12 -7.5730 -6.6113
32 5 -15 -4.2048 3.4047
32 5 -13 -2.2262 0.5772
32 5 -11 1.8310 -1.6890
32 5 -9 4.0582 -1.7906
32 5 -7 2.5402 0.3873
32 5 -5 -1.0643 3.2096
32 5 -3 -2.9680 1.5940
32 5 -1 -1.7757 -2.1105
32 5 1 -3.3437 -1.6521
32 5 3 -7.3871 -0.2056
32 5 5 -3.4542 -1.5656
32 5 7 4.2908 -2.0624
32 5 9 2.8854 0.3208
32 5 11 -1.5078 2.6876
32 6 -12 10.5774 3.7911
32 6 -10 10.6991 0.5364
32 6 -8 3.9593 -1.6469
32 6 -6 -3.6685 -1.9269
32 6 -4 -4.7248 0.0529
32 6 -2 -0.9317 3.1435
32 6 0 2.9875 2.5310
32 6 2 5.6887 -0.6836
32 6 4 5.1465 -1.9884
32 6 6 0.4464 -1.6720
32 6 8 -1.8678 -0.8753
32 6 10 1.8355 -0.8136
32 7 -11 -6.0454 -2.6108
32 7 -9 -6.1674 -1.1047
32 7 -7 -1.8138 1.8298
32 7 -5 0.8548 3.5500
32 7 -3 -0.6314 0.9472
32 7 -1 -4.6222 -1.1254
32 7 1 -5.5133 0.0537
32 7 3 -0.1999 -0.3312
32 7 5 4.1621 -1.8450
32 7 7 2.1523 -0.1967
32 8 -8 1.3190 3.4387
32 8 -6 0.9325 -0.9725
32 8 -4 0.1644 -0.8618
32 8 -2 -0.2795 1.5953
32 8 0 4.7762 -0.6774
32 8 2 7.7945 -2.8054
32 8 4 0.8582 1.7852
33 1 -18 2.3005 0.4075
33 1 -16 2.8942 -2.8929
33 1 -14 -1.7609 -1.1939
33 1 -12 -2.5364 -0.4539
33 1 -10 1.2705 -2.4006
33 1 -8 0.9997 0.1817
33 1 -6 -1.3147 2.6902
33 1 -4 -0.9389 -1.2715
33 1 -2 -0.7161 -2.5234
33 1 0 0.0259 1.2599
33 1 2 1.1099 0.2615
33 1 4 -1.1104 -2.7126
33 1 6 -1.7190 0.4869
33 1 8 1.3729 3.7583
33 1 12 -6.4277 -8.4555
33 2 -17 -6.1186 5.5007
33 2 -15 -2.2898 3.8078
33 2 -13 3.3317 1.3280
33 2 -11 1.9129 0.6416
33 2 -9 -2.1678 0.9695
33 2 -7 -3.2645 0.3989
33 2 -5 -2.4384 1.6278
33 2 -3 1.6382 4.5821
33 2 -1 3.4669 2.9655
33 2 1 -3.0545 -1.6788
33 2 3 -6.6138 -0.6430
33 2 5 -3.2593 2.8124
33 2 7 -5.0138 -0.2301
33 2 11 -3.6103 -1.7013
33 3 -16 4.9971 4.6267
33 3 -14 3.1775 2.6371
33 3 -12 2.5594 0.2765
33 3 -10 4.6332 0.4695
33 3 -8 3.2608 1.2944
33 3 -6 -0.2931 1.3529
33 3 -4 -2.0958 1.6739
33 3 -2 -2.4722 1.7636
33 3 0 -0.0192 2.1196
33 3 2 2.6536 2.3158
33 3 4 0.7343 0.2574
33 3 6 -0.5178 -1.3653
33 3 10 1.9369 -0.4371
33 4 -13 -3.1741 1.5602
33 4 -11 -0.8075 0.1693
33 4 -9 1.8842 -2.1945
33 4 -7 -0.1414 0.8704
33 4 -5 -2.2143 3.2294
33 4 -3 0.6929 0.3992
33 4 -1 2.9029 -1.3253
33 4 1 0.2450 -0.6500
33 4 3 -1.3379 -0.9319
33 4 5 1.1765 -1.4795
33 4 9 0.6212 -1.0598
33 5 -10 1.5495 -0.9562
33 5 -8 -1.3936 -0.0021
33 5 -6 0.3654 -0.5192
33 5 -4 0.1848 0.2683
33 5 -2 -1.6872 -0.5029
33 5 0 -1.6725 -2.7437
33 5 2 1.4709 -3.1421
33 5 4 5.7970 -3.0388
33 5 8 1.6918 2.4070
33 6 -9 -5.0994 0.8989
33 6 -7 -5.1431 -0.1536
33 6 -5 -4.5222 -1.1570
33 6 -3 -6.6449 -0.8004
33 6 -1 -8.0579 -0.2237
33 6 1 -2.1658 -2.0830
33 6 3 1.1751 -2.7707
33 6 5 -3.9738 0.1881
33 7 -8 1.2688 7.7779
33 7 -6 11.4193 4.6922
33 7 -2 10.1245 -0.8306
33 7 0 5.1489 2.4267
33 7 2 -0.6777 5.4938
34 0 -14 1.6012 -0.6482
34 0 -12 3.9628 -1.8952
34 0 -10 0.8708 -1.8440
34 0 -8 -2.2436 3.1083
34 0 -6 0.4378 6.5362
34 0 -4 3.2015 5.8084
34 0 -2 4.3587 6.5355
34 0 0 2.8565 8.3698
34 0 2 -4.8165 7.3108
34 0 4 -8.5786 5.4064
34 0 6 -2.8404 2.8593
34 1 -15 -4.3181 -1.4775
34 1 -13 -4.8345 -1.7675
34 1 -11 -0.3557 -2.4086
34 1 -9 4.0682 -0.4681
34 1 -7 1.6201 0.1573
34 1 -5 -1.7392 -0.2942
34 1 -3 -1.3225 2.0821
34 1 -1 -1.3380 2.3928
34 1 1 0.6711 -0.8292
34 1 3 5.4948 -0.7131
34 1 5 4.7114 1.7145
34 1 7 0.2505 2.2393
34 1 9 -0.6137 3.1589
34 2 -14 5.6600 6.1142
34 2 -12 2.8204 3.8504
34 2 -10 -0.3579 -0.5490
34 2 -8 -2.7327 -2.6588
34 2 -6 -5.6662 1.1017
34 2 -4 -6.1413 1.2753
34 2 -2 -2.6183 -2.7587
34 2 0 -0.2084 -0.8938
34 2 2 -1.2144 2.0924
34 2 4 -2.0267 -1.4797
34 2 6 -1.6979 -4.9984
34 2 8 -1.2217 -3.8679
34 3 -13 -0.7977 -0.5548
34 3 -11 0.7870 -0.8654
34 3 -9 -1.0746 1.9432
34 3 -7 0.5651 2.4513
34 3 -5 5.0187 0.1431
34 3 -3 4.9222 -0.0591
34 3 -1 1.9463 0.7028
34 3 1 -1.3034 0.7099
34 3 3 -4.2243 0.4904
34 3 5 -3.1997 -1.5346
34 3 7 -0.4701 -3.3307
34 4 -10 -5.2621 3.1869
34 4 -8 -2.3450 2.6884
34 4 -6 -0.4188 0.4386
34 4 -4 -0.9163 -1.1018
34 4 -2 -3.0654 -0.7563
34 4 0 -1.6151 0.0491
34 4 2 7.4318 -0.5937
34 4 4 12.2620 -0.5399
34 5 -3 0.6023 -0.3410
34 5 -1 -1.0232 -3.5983
34 5 1 -1.1927 -3.0904
34 5 3 -5.9944 -0.0193
34 6 -2 -4.2644 -0.4872
35 1 -10 -0.5369 -8.3069
35 1 -8 -3.9668 -3.3494
35 1 -6 -3.2354 2.2442
35 1 -4 -0.3244 -0.8874
35 1 -2 -0.0356 -2.5446
35 2 -9 -2.9296 4.3548
35 2 -7 2.1436 -1.1953
35 2 -5 2.7795 -2.8893
35 2 -3 1.0769 -0.3857
35 2 -1 -1.1790 -0.2071
35 3 -6 6.0284 -1.1503
35 3 -4 3.7188 -1.6137
35 3 -2 -0.4609 -0.8762
35 3 0 1.3645 2.3220
0 0 0 0.0 0.0
;
_shelx_fab_checksum              69119
_olex2_submission_special_instructions 'No special instructions were received'
_oxdiff_exptl_absorpt_empirical_details
;
Empirical correction (ABSPACK) includes:
- Absorption correction using spherical harmonics
- Frame scaling
;
_oxdiff_exptl_absorpt_empirical_full_max 3.043
_oxdiff_exptl_absorpt_empirical_full_min 0.319
loop_
_space_group_symop_operation_xyz
'x, y, z'
'-x+1/2, y, -z'
'x+1/2, y+1/2, z+1/2'
'-x+1, y+1/2, -z+1/2'
'-x, -y, -z'
'x-1/2, -y, z'
'-x+1/2, -y+1/2, -z+1/2'
'x, -y+1/2, z+1/2'
loop_
_atom_site_label
_atom_site_type_symbol
_atom_site_fract_x
_atom_site_fract_y
_atom_site_fract_z
_atom_site_U_iso_or_equiv
_atom_site_adp_type
_atom_site_occupancy
_atom_site_site_symmetry_order
_atom_site_calc_flag
_atom_site_refinement_flags_posn
_atom_site_refinement_flags_adp
_atom_site_refinement_flags_occupancy
_atom_site_disorder_assembly
_atom_site_disorder_group
In1 In 0.74768(2) 0.01668(3) 0.69542(2) 0.01777(11) Uani 1 1 d . . . . .
In2 In 0.750000 0.250000 0.750000 0.01445(13) Uani 1 2 d S . P . .
In3 In 0.66998(2) 0.20594(3) 0.64529(2) 0.01806(11) Uani 1 1 d . . . . .
In4 In 0.68290(2) 0.41555(2) 0.70571(2) 0.01530(11) Uani 1 1 d . . . . .
In5 In 0.65150(2) 0.32215(3) 0.79501(2) 0.01562(11) Uani 1 1 d . . . . .
In6 In 0.78177(2) 0.34344(3) 0.66133(2) 0.01565(11) Uani 1 1 d . . . . .
In7 In 0.63280(2) 0.10053(3) 0.74818(2) 0.01780(11) Uani 1 1 d . . . . .
Fe1 Fe 0.63305(3) 0.41464(6) 0.52591(3) 0.0188(2) Uani 1 1 d . . . . .
Fe2 Fe 0.52166(3) 0.05591(6) 0.86506(3) 0.01778(19) Uani 1 1 d . . . . .
Fe3 Fe 0.61695(4) 0.70441(6) 0.80456(3) 0.0269(2) Uani 1 1 d . . . . .
O1 O 0.72470(15) 0.1084(3) 0.64961(14) 0.0203(9) Uani 1 1 d . . . . .
O23 O 0.70682(16) 0.2523(3) 0.59079(14) 0.0235(9) Uani 1 1 d . . . . .
O3 O 0.81579(14) 0.3035(3) 0.72209(12) 0.0150(8) Uani 1 1 d . . . . .
O4 O 0.78443(14) 0.1230(3) 0.73210(12) 0.0144(8) Uani 1 1 d . . . . .
O5 O 0.74751(16) 0.3808(3) 0.60144(15) 0.0245(9) Uani 1 1 d . . . . .
O6 O 0.80740(15) 0.2114(3) 0.64659(13) 0.0180(8) Uani 1 1 d . . . . .
O7 O 0.75123(14) 0.4654(3) 0.68497(13) 0.0171(8) Uani 1 1 d . . . . .
O8 O 0.71587(14) 0.2909(3) 0.68779(13) 0.0163(8) Uani 1 1 d . . . . .
O9 O 0.62560(15) 0.1787(3) 0.69488(14) 0.0231(9) Uani 1 1 d . . . . .
O10 O 0.62163(14) 0.3483(3) 0.73183(13) 0.0176(8) Uani 1 1 d . . . . .
O11 O 0.69086(15) 0.0168(3) 0.73623(14) 0.0193(8) Uani 1 1 d . . . . .
O12 O 0.61760(15) 0.3113(3) 0.63043(14) 0.0209(9) Uani 1 1 d . . . . .
O13 O 0.65493(15) 0.0976(3) 0.86499(14) 0.0193(8) Uani 1 1 d . . . . .
O14 O 0.64669(15) 0.4494(3) 0.64479(14) 0.0226(9) Uani 1 1 d . . . . .
O15 O 0.58885(15) 0.2638(3) 0.82198(14) 0.0215(9) Uani 1 1 d . . . . .
O16 O 0.63165(15) 0.0246(3) 0.80588(14) 0.0215(9) Uani 1 1 d . . . . .
O17 O 0.61809(16) 0.4454(3) 0.81176(14) 0.0229(9) Uani 1 1 d . . . . .
O18 O 0.65259(15) 0.5428(3) 0.72210(13) 0.0191(8) Uani 1 1 d . . . . .
O19 O 0.68778(16) 0.5070(3) 0.83983(15) 0.0244(9) Uani 1 1 d . . . . .
O20 O 0.56846(15) 0.1663(3) 0.77110(14) 0.0220(9) Uani 1 1 d . . . . .
O21 O 0.72114(16) 0.5811(3) 0.76087(16) 0.0253(9) Uani 1 1 d . . . . .
O22 O 0.57912(18) 0.0071(3) 0.72034(16) 0.0299(10) Uani 1 1 d . . . . .
N1 N 0.7133(2) -0.0970(4) 0.6602(2) 0.0309(13) Uani 1 1 d . . . . .
O2 O 0.62321(18) 0.1196(4) 0.60007(19) 0.0382(12) Uani 1 1 d D . . . .
H2A H 0.575679 0.108806 0.594676 0.057 Uiso 1 1 d DR U . . .
H2B H 0.634563 0.063419 0.570847 0.057 Uiso 1 1 d DR U . . .
N3 N 0.5545(3) -0.0736(5) 0.6630(3) 0.054(2) Uani 1 1 d . . . . .
N4 N 0.6900(5) -0.1989(7) 0.6146(4) 0.098(4) Uani 1 1 d . . . . .
H4 H 0.684385 -0.226628 0.590398 0.117 Uiso 1 1 calc R U . . .
C1 C 0.7119(4) -0.1194(7) 0.6201(3) 0.063(3) Uani 1 1 d . . . . .
C2 C 0.7196(2) 0.3286(4) 0.5797(2) 0.0221(12) Uani 1 1 d . . . . .
C3 C 0.7043(2) 0.4495(5) 0.5223(2) 0.0267(14) Uani 1 1 d . . . . .
H3 H 0.720106 0.498492 0.536331 0.032 Uiso 1 1 calc R U . . .
C4 C 0.5997(2) 0.4242(4) 0.5806(2) 0.0216(12) Uani 1 1 d . . . . .
C5 C 0.5712(2) 0.3682(5) 0.5509(2) 0.0242(13) Uani 1 1 d . . . . .
H5 H 0.562735 0.307568 0.554959 0.029 Uiso 1 1 calc R U . . .
C6 C 0.7007(2) 0.3617(4) 0.5380(2) 0.0224(12) Uani 1 1 d . . . . .
C7 C 0.6231(2) 0.3930(4) 0.6210(2) 0.0198(12) Uani 1 1 d . . . . .
C8 C 0.5585(2) 0.4204(5) 0.5151(2) 0.0287(15) Uani 1 1 d . . . . .
H8 H 0.539918 0.400655 0.490598 0.034 Uiso 1 1 calc R U . . .
C9 C 0.5881(2) -0.0017(4) 0.86488(19) 0.0177(11) Uani 1 1 d . . . . .
C10 C 0.5174(2) -0.0798(4) 0.8737(2) 0.0228(13) Uani 1 1 d . . . . .
H10 H 0.489333 -0.116453 0.868684 0.027 Uiso 1 1 calc R U . . .
C11 C 0.6274(2) 0.0433(4) 0.8440(2) 0.0211(12) Uani 1 1 d . . . . .
C12 C 0.5322(2) -0.0376(4) 0.9120(2) 0.0263(13) Uani 1 1 d . . . . .
H12 H 0.515502 -0.041101 0.937098 0.032 Uiso 1 1 calc R U . . .
C13 C 0.6783(2) 0.5967(4) 0.7452(2) 0.0206(12) Uani 1 1 d . . . . .
C14 C 0.5518(2) -0.0583(4) 0.8440(2) 0.0196(12) Uani 1 1 d . . . . .
H14 H 0.550964 -0.077799 0.815647 0.024 Uiso 1 1 calc R U . . .
C15 C 0.5223(2) 0.1692(4) 0.8301(2) 0.0228(13) Uani 1 1 d . . . . .
C16 C 0.5755(2) 0.0105(4) 0.9071(2) 0.0231(13) Uani 1 1 d . . . . .
H16 H 0.593164 0.044873 0.928089 0.028 Uiso 1 1 calc R U . . .
C17 C 0.5633(2) 0.2009(4) 0.8067(2) 0.0192(12) Uani 1 1 d . . . . .
C18 C 0.6040(2) 0.5102(4) 0.5625(2) 0.0224(12) Uani 1 1 d . . . . .
H18 H 0.620807 0.559806 0.575155 0.027 Uiso 1 1 calc R U . . .
C19 C 0.5782(2) 0.5082(5) 0.5216(2) 0.0258(13) Uani 1 1 d . . . . .
H19 H 0.574886 0.556470 0.502356 0.031 Uiso 1 1 calc R U . . .
C20 C 0.6798(2) 0.4506(5) 0.4817(2) 0.0305(15) Uani 1 1 d . . . . .
H20 H 0.676440 0.500824 0.463553 0.037 Uiso 1 1 calc R U . . .
C21 C 0.6734(2) 0.3074(5) 0.5077(2) 0.0286(14) Uani 1 1 d . . . . .
H21 H 0.665141 0.246292 0.510291 0.034 Uiso 1 1 calc R U . . .
C22 C 0.4843(2) 0.1108(4) 0.8142(2) 0.0240(13) Uani 1 1 d . . . . .
H22 H 0.480998 0.085620 0.786866 0.029 Uiso 1 1 calc R U . . .
C23 C 0.6613(3) 0.3644(6) 0.4727(2) 0.0341(16) Uani 1 1 d . . . . .
H23 H 0.643632 0.347104 0.447293 0.041 Uiso 1 1 calc R U . . .
C24 C 0.5140(2) 0.1914(4) 0.8727(2) 0.0253(13) Uani 1 1 d . . . . .
H24 H 0.533772 0.229003 0.890890 0.030 Uiso 1 1 calc R U . . .
C25 C 0.6424(2) 0.5089(4) 0.8296(2) 0.0230(13) Uani 1 1 d . . . . .
C26 C 0.4519(2) 0.0971(4) 0.8472(2) 0.0235(13) Uani 1 1 d . . . . .
H26 H 0.423238 0.061267 0.845411 0.028 Uiso 1 1 calc R U . . .
C27 C 0.6571(2) 0.6846(4) 0.7545(2) 0.0256(13) Uani 1 1 d . . . . .
C28 C 0.4702(2) 0.1461(4) 0.8827(2) 0.0268(14) Uani 1 1 d . . . . .
H28 H 0.455880 0.148565 0.908963 0.032 Uiso 1 1 calc R U . . .
C29 C 0.6147(3) 0.5904(4) 0.8388(2) 0.0255(13) Uani 1 1 d . . . . .
C30 C 0.5721(2) 0.3810(5) 0.7241(2) 0.0318(15) Uani 1 1 d . . . . .
H30A H 0.568023 0.435680 0.740250 0.048 Uiso 1 1 calc R U . . .
H30B H 0.548951 0.335777 0.732666 0.048 Uiso 1 1 calc R U . . .
H30C H 0.565671 0.393642 0.694042 0.048 Uiso 1 1 calc R U . . .
C31 C 0.8278(3) 0.1918(5) 0.6070(2) 0.0355(16) Uani 1 1 d . . . . .
H31A H 0.858500 0.224598 0.605219 0.053 Uiso 1 1 calc R U . . .
H31B H 0.804473 0.209761 0.583785 0.053 Uiso 1 1 calc R U . . .
H31C H 0.834105 0.127683 0.605140 0.053 Uiso 1 1 calc R U . . .
C32 C 0.6104(2) 0.7171(4) 0.7405(2) 0.0265(14) Uani 1 1 d . . . . .
H32 H 0.587044 0.688148 0.721678 0.032 Uiso 1 1 calc R U . . .
C33 C 0.7507(2) 0.5445(5) 0.6601(2) 0.0278(14) Uani 1 1 d . . . . .
H33A H 0.721896 0.544114 0.640075 0.042 Uiso 1 1 calc R U . . .
H33B H 0.780473 0.546930 0.644751 0.042 Uiso 1 1 calc R U . . .
H33C H 0.749494 0.596704 0.678448 0.042 Uiso 1 1 calc R U . . .
C34 C 0.6814(3) 0.7492(5) 0.7824(2) 0.0316(15) Uani 1 1 d . . . . .
H34 H 0.713231 0.744817 0.796137 0.038 Uiso 1 1 calc R U . . .
C35 C 0.6475(3) 0.8207(5) 0.7851(2) 0.0315(15) Uani 1 1 d . . . . .
H35 H 0.653102 0.873010 0.801543 0.038 Uiso 1 1 calc R U . . .
C36 C 0.6341(3) 0.6631(5) 0.8650(2) 0.0364(17) Uani 1 1 d . . . . .
H36 H 0.665330 0.665869 0.879985 0.044 Uiso 1 1 calc R U . . .
C37 C 0.5864(3) -0.0224(6) 0.6834(3) 0.0433(19) Uani 1 1 d . . . . .
H37 H 0.615653 -0.006644 0.670862 0.052 Uiso 1 1 calc R U . . .
C38 C 0.5669(3) 0.6143(5) 0.8231(3) 0.0346(17) Uani 1 1 d . . . . .
H38 H 0.545524 0.578934 0.805247 0.042 Uiso 1 1 calc R U . . .
C39 C 0.5969(4) 0.7293(5) 0.8636(3) 0.047(2) Uani 1 1 d . . . . .
H39 H 0.599461 0.785184 0.877572 0.056 Uiso 1 1 calc R U . . .
C40 C 0.6049(3) 0.8022(5) 0.7600(3) 0.0350(17) Uani 1 1 d . . . . .
H40 H 0.576894 0.839660 0.756527 0.042 Uiso 1 1 calc R U . . .
C41 C 0.5562(3) 0.7006(5) 0.8388(3) 0.042(2) Uani 1 1 d . . . . .
H41 H 0.526599 0.732750 0.833188 0.051 Uiso 1 1 calc R U . . .
C42 C 0.6909(3) -0.1651(6) 0.6798(3) 0.047(2) Uani 1 1 d . . . . .
H42 H 0.685356 -0.166406 0.708816 0.057 Uiso 1 1 calc R U . . .
C43 C 0.5100(3) -0.1012(7) 0.6817(4) 0.063(3) Uani 1 1 d . . . . .
H43A H 0.513357 -0.163065 0.691231 0.095 Uiso 1 1 calc R U . . .
H43B H 0.482096 -0.096348 0.660773 0.095 Uiso 1 1 calc R U . . .
H43C H 0.504430 -0.062630 0.705717 0.095 Uiso 1 1 calc R U . . .
C44 C 0.5655(6) -0.1099(10) 0.6222(5) 0.099(5) Uani 1 1 d . . . . .
H44A H 0.589031 -0.070989 0.609348 0.149 Uiso 1 1 calc R U . . .
H44B H 0.535349 -0.113537 0.603870 0.149 Uiso 1 1 calc R U . . .
H44C H 0.579665 -0.169593 0.626118 0.149 Uiso 1 1 calc R U . . .
C45 C 0.7318(6) -0.0676(11) 0.5857(4) 0.094(5) Uani 1 1 d . . . . .
H45A H 0.704692 -0.044260 0.567163 0.141 Uiso 1 1 calc R U . . .
H45B H 0.752363 -0.106295 0.569590 0.141 Uiso 1 1 calc R U . . .
H45C H 0.751432 -0.017956 0.597625 0.141 Uiso 1 1 calc R U . . .
C46 C 0.6778(5) -0.2296(8) 0.6524(4) 0.070(3) Uani 1 1 d . . . . .
H46 H 0.663103 -0.285164 0.658241 0.084 Uiso 1 1 calc R U . . .
loop_
_atom_site_aniso_label
_atom_site_aniso_U_11
_atom_site_aniso_U_22
_atom_site_aniso_U_33
_atom_site_aniso_U_23
_atom_site_aniso_U_13
_atom_site_aniso_U_12
In1 0.0200(2) 0.0103(2) 0.0232(2) -0.00032(14) 0.00328(15) 0.00043(14)
In2 0.0162(3) 0.0085(3) 0.0189(3) 0.00129(19) 0.00358(19) 0.00056(19)
In3 0.0203(2) 0.0121(2) 0.0219(2) 0.00058(14) 0.00173(15) -0.00045(14)
In4 0.0167(2) 0.0094(2) 0.0200(2) 0.00118(14) 0.00323(14) 0.00063(13)
In5 0.0168(2) 0.0095(2) 0.0209(2) 0.00161(14) 0.00415(14) 0.00072(14)
In6 0.0169(2) 0.0104(2) 0.0200(2) 0.00171(13) 0.00360(14) 0.00060(13)
In7 0.0186(2) 0.0120(2) 0.0231(2) 0.00217(14) 0.00397(15) -0.00021(14)
Fe1 0.0178(4) 0.0205(5) 0.0184(4) 0.0009(3) 0.0038(3) 0.0052(3)
Fe2 0.0168(4) 0.0127(4) 0.0242(4) 0.0004(3) 0.0047(3) -0.0015(3)
Fe3 0.0307(5) 0.0126(5) 0.0374(6) -0.0034(4) 0.0020(4) 0.0057(4)
O1 0.023(2) 0.015(2) 0.023(2) -0.0002(17) 0.0044(16) 0.0025(17)
O23 0.025(2) 0.023(2) 0.024(2) 0.0007(18) 0.0078(17) 0.0041(18)
O3 0.0188(19) 0.0097(19) 0.0166(19) 0.0008(15) 0.0028(15) 0.0005(15)
O4 0.0192(18) 0.0062(18) 0.0180(19) 0.0034(14) 0.0036(15) 0.0023(15)
O5 0.026(2) 0.021(2) 0.026(2) 0.0046(18) 0.0030(17) 0.0045(18)
O6 0.022(2) 0.012(2) 0.019(2) 0.0006(16) 0.0027(16) 0.0007(16)
O7 0.0168(18) 0.0085(18) 0.026(2) 0.0051(16) 0.0040(15) -0.0009(15)
O8 0.0183(19) 0.0079(19) 0.024(2) 0.0026(15) 0.0072(16) 0.0013(15)
O9 0.019(2) 0.025(2) 0.025(2) 0.0096(18) 0.0004(16) -0.0009(17)
O10 0.0188(19) 0.0106(19) 0.024(2) -0.0006(16) 0.0040(16) -0.0009(15)
O11 0.0192(19) 0.011(2) 0.029(2) 0.0014(16) 0.0071(16) 0.0013(15)
O12 0.0179(19) 0.019(2) 0.026(2) 0.0031(17) 0.0062(16) 0.0009(16)
O13 0.021(2) 0.014(2) 0.023(2) 0.0005(16) 0.0044(16) -0.0015(16)
O14 0.024(2) 0.018(2) 0.027(2) 0.0003(18) 0.0073(17) 0.0025(17)
O15 0.0181(19) 0.017(2) 0.031(2) 0.0061(18) 0.0092(17) 0.0009(16)
O16 0.025(2) 0.014(2) 0.026(2) 0.0046(17) 0.0076(17) 0.0021(17)
O17 0.028(2) 0.014(2) 0.028(2) -0.0008(17) 0.0090(17) 0.0057(17)
O18 0.025(2) 0.0055(18) 0.026(2) 0.0002(16) 0.0007(16) 0.0052(16)
O19 0.029(2) 0.018(2) 0.028(2) 0.0002(18) 0.0104(18) 0.0049(18)
O20 0.023(2) 0.020(2) 0.023(2) 0.0016(17) 0.0041(17) 0.0055(17)
O21 0.025(2) 0.017(2) 0.035(2) 0.0017(18) 0.0056(18) 0.0019(17)
O22 0.035(3) 0.018(2) 0.036(3) 0.0001(19) -0.001(2) -0.0044(19)
N1 0.043(3) 0.013(3) 0.037(3) -0.005(2) 0.002(3) -0.005(2)
O2 0.031(3) 0.029(3) 0.055(4) 0.000(2) 0.003(2) -0.003(2)
N3 0.055(5) 0.042(4) 0.062(5) -0.014(4) -0.006(4) -0.015(4)
N4 0.147(11) 0.075(7) 0.069(7) -0.029(6) -0.011(7) -0.052(7)
C1 0.088(8) 0.052(6) 0.047(6) -0.009(5) 0.000(5) -0.026(6)
C2 0.020(3) 0.018(3) 0.029(3) 0.002(2) 0.009(2) 0.004(2)
C3 0.020(3) 0.031(4) 0.029(3) 0.009(3) 0.004(2) 0.004(3)
C4 0.021(3) 0.019(3) 0.026(3) 0.000(2) 0.005(2) 0.004(2)
C5 0.017(3) 0.027(3) 0.028(3) -0.002(3) 0.002(2) 0.000(2)
C6 0.019(3) 0.025(3) 0.023(3) 0.005(2) 0.005(2) 0.005(2)
C7 0.013(2) 0.024(3) 0.024(3) 0.002(2) 0.006(2) 0.002(2)
C8 0.015(3) 0.042(4) 0.029(3) -0.003(3) 0.002(2) 0.006(3)
C9 0.015(3) 0.014(3) 0.025(3) 0.004(2) 0.002(2) -0.002(2)
C10 0.020(3) 0.012(3) 0.037(4) 0.000(2) 0.003(2) -0.003(2)
C11 0.023(3) 0.012(3) 0.030(3) 0.002(2) 0.009(2) 0.002(2)
C12 0.026(3) 0.022(3) 0.032(3) 0.006(3) 0.010(3) 0.001(3)
C13 0.023(3) 0.009(3) 0.030(3) 0.002(2) 0.005(2) -0.003(2)
C14 0.021(3) 0.012(3) 0.025(3) 0.000(2) 0.001(2) 0.001(2)
C15 0.022(3) 0.010(3) 0.038(4) 0.009(2) 0.010(3) 0.001(2)
C16 0.024(3) 0.025(3) 0.020(3) 0.006(2) 0.002(2) -0.003(2)
C17 0.013(2) 0.015(3) 0.030(3) 0.001(2) 0.007(2) 0.005(2)
C18 0.024(3) 0.019(3) 0.024(3) -0.001(2) 0.003(2) 0.005(2)
C19 0.025(3) 0.030(4) 0.023(3) 0.001(3) 0.006(2) 0.013(3)
C20 0.021(3) 0.047(4) 0.024(3) 0.012(3) 0.005(2) 0.003(3)
C21 0.031(3) 0.030(4) 0.025(3) -0.007(3) 0.005(3) 0.009(3)
C22 0.019(3) 0.020(3) 0.034(3) 0.006(3) 0.000(2) 0.001(2)
C23 0.029(3) 0.048(5) 0.026(3) -0.009(3) 0.006(3) 0.015(3)
C24 0.027(3) 0.011(3) 0.039(4) 0.003(3) 0.012(3) 0.002(2)
C25 0.030(3) 0.012(3) 0.029(3) -0.003(2) 0.015(3) -0.002(2)
C26 0.016(3) 0.015(3) 0.040(4) 0.006(3) 0.006(2) 0.001(2)
C27 0.029(3) 0.011(3) 0.037(4) 0.000(3) 0.000(3) 0.004(2)
C28 0.025(3) 0.019(3) 0.037(4) -0.001(3) 0.007(3) -0.003(3)
C29 0.034(3) 0.012(3) 0.032(3) 0.002(2) 0.008(3) 0.005(2)
C30 0.027(3) 0.032(4) 0.037(4) 0.009(3) 0.004(3) 0.009(3)
C31 0.043(4) 0.029(4) 0.036(4) -0.001(3) 0.010(3) 0.005(3)
C32 0.024(3) 0.018(3) 0.037(4) 0.004(3) -0.003(3) 0.004(2)
C33 0.028(3) 0.021(3) 0.035(4) 0.003(3) 0.003(3) 0.003(3)
C34 0.032(4) 0.022(4) 0.040(4) -0.005(3) -0.001(3) 0.000(3)
C35 0.043(4) 0.013(3) 0.039(4) -0.002(3) 0.003(3) 0.002(3)
C36 0.059(5) 0.020(4) 0.031(4) -0.004(3) 0.002(3) 0.000(3)
C37 0.047(5) 0.038(5) 0.046(5) -0.007(4) 0.007(4) -0.013(4)
C38 0.033(4) 0.015(3) 0.056(5) -0.001(3) 0.012(3) 0.003(3)
C39 0.076(6) 0.018(4) 0.048(5) -0.002(3) 0.020(4) 0.014(4)
C40 0.037(4) 0.017(3) 0.051(5) 0.003(3) 0.006(3) 0.013(3)
C41 0.035(4) 0.027(4) 0.067(6) 0.000(4) 0.016(4) 0.017(3)
C42 0.056(5) 0.027(4) 0.059(6) -0.006(4) 0.003(4) -0.008(4)
C43 0.034(4) 0.049(6) 0.106(9) -0.018(6) -0.005(5) -0.005(4)
C44 0.109(11) 0.087(10) 0.101(11) -0.043(9) -0.004(9) -0.023(8)
C45 0.113(11) 0.109(11) 0.061(8) 0.004(8) 0.007(7) -0.037(9)
C46 0.083(8) 0.061(7) 0.065(7) -0.009(6) 0.011(6) -0.024(6)
loop_
_atom_type_symbol
_atom_type_description
_atom_type_scat_dispersion_real
_atom_type_scat_dispersion_imag
_atom_type_scat_source
C C 0.0147 0.0070 'International Tables Vol C Tables 4.2.6.8 and 6.1.1.4'
H H 0.0000 0.0000 'International Tables Vol C Tables 4.2.6.8 and 6.1.1.4'
Fe Fe -0.2758 2.5767 'International Tables Vol C Tables 4.2.6.8 and 6.1.1.4'
In In 0.1337 3.9104 'International Tables Vol C Tables 4.2.6.8 and 6.1.1.4'
N N 0.0253 0.0135 'International Tables Vol C Tables 4.2.6.8 and 6.1.1.4'
O O 0.0412 0.0250 'International Tables Vol C Tables 4.2.6.8 and 6.1.1.4'
loop_
_geom_angle_atom_site_label_1
_geom_angle_atom_site_label_2
_geom_angle_atom_site_label_3
_geom_angle
_geom_angle_site_symmetry_1
_geom_angle_site_symmetry_3
_geom_angle_publ_flag
O1 In1 O4 89.89(16) . . ?
O1 In1 O11 103.63(16) . . ?
O1 In1 O19 87.80(17) . 7_656 ?
O1 In1 O21 173.47(17) . 7_656 ?
O1 In1 N1 93.2(2) . . ?
O4 In1 O19 92.07(16) . 7_656 ?
O4 In1 N1 176.61(19) . . ?
O11 In1 O4 90.03(15) . . ?
O11 In1 O19 168.39(16) . 7_656 ?
O11 In1 O21 82.91(17) . 7_656 ?
O11 In1 N1 90.5(2) . . ?
O19 In1 N1 86.8(2) 7_656 . ?
O21 In1 O4 90.26(16) 7_656 . ?
O21 In1 O19 85.67(17) 7_656 7_656 ?
O21 In1 N1 86.5(2) 7_656 . ?
In4 In2 In4 180.0 7_656 . ?
In5 In2 In4 60.150(9) . . ?
In5 In2 In4 60.150(9) 7_656 7_656 ?
In5 In2 In4 119.851(9) . 7_656 ?
In5 In2 In4 119.849(9) 7_656 . ?
In5 In2 In5 180.0 . 7_656 ?
In5 In2 In6 60.098(9) . 7_656 ?
In5 In2 In6 119.903(9) 7_656 7_656 ?
In5 In2 In6 119.902(9) . . ?
In5 In2 In6 60.097(9) 7_656 . ?
In6 In2 In4 59.754(9) 7_656 7_656 ?
In6 In2 In4 120.246(9) . 7_656 ?
In6 In2 In4 120.247(9) 7_656 . ?
In6 In2 In4 59.753(9) . . ?
In6 In2 In6 180.0 7_656 . ?
O3 In2 In4 89.93(10) 7_656 7_656 ?
O3 In2 In4 89.93(10) . . ?
O3 In2 In4 90.07(10) 7_656 . ?
O3 In2 In4 90.07(10) . 7_656 ?
O3 In2 In5 139.71(10) 7_656 7_656 ?
O3 In2 In5 40.29(10) . 7_656 ?
O3 In2 In5 40.29(10) 7_656 . ?
O3 In2 In5 139.71(10) . . ?
O3 In2 In6 40.26(10) 7_656 7_656 ?
O3 In2 In6 40.26(10) . . ?
O3 In2 In6 139.74(10) 7_656 . ?
O3 In2 In6 139.74(10) . 7_656 ?
O3 In2 O3 180.0 7_656 . ?
O3 In2 O4 80.55(14) . . ?
O3 In2 O4 80.55(14) 7_656 7_656 ?
O3 In2 O4 99.45(14) . 7_656 ?
O3 In2 O4 99.45(14) 7_656 . ?
O3 In2 O8 80.98(14) . . ?
O3 In2 O8 99.02(14) 7_656 . ?
O3 In2 O8 80.98(14) 7_656 7_656 ?
O3 In2 O8 99.02(14) . 7_656 ?
O4 In2 In4 139.49(10) . . ?
O4 In2 In4 139.49(10) 7_656 7_656 ?
O4 In2 In4 40.51(10) . 7_656 ?
O4 In2 In4 40.51(10) 7_656 . ?
O4 In2 In5 40.26(10) 7_656 . ?
O4 In2 In5 40.26(10) . 7_656 ?
O4 In2 In5 139.74(10) 7_656 7_656 ?
O4 In2 In5 139.74(10) . . ?
O4 In2 In6 90.12(10) . . ?
O4 In2 In6 90.12(10) 7_656 7_656 ?
O4 In2 In6 89.88(10) . 7_656 ?
O4 In2 In6 89.88(10) 7_656 . ?
O4 In2 O4 180.00(18) . 7_656 ?
O4 In2 O8 99.63(15) . . ?
O4 In2 O8 99.63(15) 7_656 7_656 ?
O4 In2 O8 80.37(15) . 7_656 ?
O4 In2 O8 80.37(15) 7_656 . ?
O8 In2 In4 39.87(10) . . ?
O8 In2 In4 39.87(10) 7_656 7_656 ?
O8 In2 In4 140.13(10) . 7_656 ?
O8 In2 In4 140.13(10) 7_656 . ?
O8 In2 In5 89.59(10) 7_656 7_656 ?
O8 In2 In5 89.59(10) . . ?
O8 In2 In5 90.41(10) 7_656 . ?
O8 In2 In5 90.40(10) . 7_656 ?
O8 In2 In6 40.72(10) 7_656 7_656 ?
O8 In2 In6 139.28(10) . 7_656 ?
O8 In2 In6 139.28(10) 7_656 . ?
O8 In2 In6 40.72(10) . . ?
O8 In2 O8 180.0 . 7_656 ?
O1 In3 O23 84.65(16) . . ?
O1 In3 O8 89.44(16) . . ?
O1 In3 O9 105.29(17) . . ?
O1 In3 O12 170.33(16) . . ?
O1 In3 O2 90.64(18) . . ?
O23 In3 O8 91.74(16) . . ?
O23 In3 O2 86.98(19) . . ?
O8 In3 O2 178.71(18) . . ?
O9 In3 O23 170.04(17) . . ?
O9 In3 O8 89.08(16) . . ?
O9 In3 O12 84.13(16) . . ?
O9 In3 O2 92.14(19) . . ?
O12 In3 O23 85.92(16) . . ?
O12 In3 O8 92.98(15) . . ?
O12 In3 O2 86.73(18) . . ?
In5 In4 In2 59.645(9) . . ?
In6 In4 In2 59.886(9) . . ?
In6 In4 In5 119.531(14) . . ?
O4 In4 In2 41.04(10) 7_656 . ?
O4 In4 In5 39.82(10) 7_656 . ?
O4 In4 In6 90.41(10) 7_656 . ?
O7 In4 In2 85.69(10) . . ?
O7 In4 In5 133.35(11) . . ?
O7 In4 In6 39.97(11) . . ?
O7 In4 O4 93.53(15) . 7_656 ?
O7 In4 O8 80.36(15) . . ?
O7 In4 O10 170.44(15) . . ?
O7 In4 O14 89.74(16) . . ?
O7 In4 O18 97.11(16) . . ?
O8 In4 In2 40.95(11) . . ?
O8 In4 In5 89.98(11) . . ?
O8 In4 In6 40.62(10) . . ?
O8 In4 O4 81.99(15) . 7_656 ?
O8 In4 O10 92.70(15) . . ?
O8 In4 O14 97.91(16) . . ?
O10 In4 In2 84.76(11) . . ?
O10 In4 In5 39.32(11) . . ?
O10 In4 In6 133.30(11) . . ?
O10 In4 O4 78.90(15) . 7_656 ?
O10 In4 O14 97.78(16) . . ?
O14 In4 In2 138.78(11) . . ?
O14 In4 In5 136.89(11) . . ?
O14 In4 In6 91.66(11) . . ?
O14 In4 O4 176.66(15) . 7_656 ?
O18 In4 In2 139.76(11) . . ?
O18 In4 In5 92.19(11) . . ?
O18 In4 In6 136.81(11) . . ?
O18 In4 O4 98.80(15) . 7_656 ?
O18 In4 O8 177.41(16) . . ?
O18 In4 O10 89.88(15) . . ?
O18 In4 O14 81.45(16) . . ?
In2 In5 In4 60.205(9) . . ?
In2 In5 In6 59.994(9) . 7_656 ?
In6 In5 In4 120.199(13) 7_656 . ?
O3 In5 In2 41.23(10) 7_656 . ?
O3 In5 In4 90.84(10) 7_656 . ?
O3 In5 In6 40.01(10) 7_656 7_656 ?
O4 In5 In2 41.33(10) 7_656 . ?
O4 In5 In4 40.34(11) 7_656 . ?
O4 In5 In6 90.86(10) 7_656 7_656 ?
O4 In5 O3 82.56(15) 7_656 7_656 ?
O6 In5 In2 84.72(11) 7_656 . ?
O6 In5 In4 132.95(11) 7_656 . ?
O6 In5 In6 39.72(11) 7_656 7_656 ?
O6 In5 O3 79.39(15) 7_656 7_656 ?
O6 In5 O4 92.61(15) 7_656 7_656 ?
O10 In5 In2 85.48(11) . . ?
O10 In5 In4 39.68(10) . . ?
O10 In5 In6 133.39(11) . 7_656 ?
O10 In5 O3 93.38(15) . 7_656 ?
O10 In5 O4 79.78(15) . 7_656 ?
O10 In5 O6 170.19(15) . 7_656 ?
O10 In5 O15 100.76(16) . . ?
O15 In5 In2 137.04(12) . . ?
O15 In5 In4 140.32(12) . . ?
O15 In5 In6 87.62(11) . 7_656 ?
O15 In5 O3 95.81(16) . 7_656 ?
O15 In5 O4 178.32(15) . 7_656 ?
O15 In5 O6 86.67(16) . 7_656 ?
O17 In5 In2 139.52(12) . . ?
O17 In5 In4 89.46(12) . . ?
O17 In5 In6 140.29(12) . 7_656 ?
O17 In5 O3 179.13(16) . 7_656 ?
O17 In5 O4 98.19(16) . 7_656 ?
O17 In5 O6 100.99(17) . 7_656 ?
O17 In5 O10 86.32(16) . . ?
O17 In5 O15 83.44(16) . . ?
In2 In6 In5 59.909(9) . 7_656 ?
In4 In6 In2 60.361(9) . . ?
In4 In6 In5 120.270(14) . 7_656 ?
O3 In6 In2 41.17(10) . . ?
O3 In6 In4 91.18(10) . . ?
O3 In6 In5 39.99(10) . 7_656 ?
O3 In6 O8 82.52(15) . . ?
O5 In6 In2 138.08(12) . . ?
O5 In6 In4 88.63(12) . . ?
O5 In6 In5 139.54(12) . 7_656 ?
O5 In6 O3 179.04(16) . . ?
O5 In6 O6 100.04(17) . . ?
O5 In6 O7 86.20(16) . . ?
O5 In6 O8 96.74(16) . . ?
O5 In6 O13 81.91(17) . 7_656 ?
O6 In6 In2 84.66(11) . . ?
O6 In6 In4 132.60(11) . . ?
O6 In6 In5 39.75(11) . 7_656 ?
O6 In6 O3 79.40(15) . . ?
O6 In6 O7 170.57(15) . . ?
O6 In6 O8 92.44(15) . . ?
O6 In6 O13 90.52(15) . 7_656 ?
O7 In6 In2 85.97(11) . . ?
O7 In6 In4 39.79(10) . . ?
O7 In6 In5 134.24(11) . 7_656 ?
O7 In6 O3 94.26(15) . . ?
O7 In6 O8 79.73(15) . . ?
O8 In6 In2 41.35(11) . . ?
O8 In6 In4 40.16(10) . . ?
O8 In6 In5 90.72(10) . 7_656 ?
O13 In6 In2 139.96(12) 7_656 . ?
O13 In6 In4 136.87(11) 7_656 . ?
O13 In6 In5 92.10(11) 7_656 7_656 ?
O13 In6 O3 98.86(16) 7_656 . ?
O13 In6 O7 97.40(15) 7_656 . ?
O13 In6 O8 176.91(15) 7_656 . ?
O3 In7 O20 93.80(16) 7_656 . ?
O9 In7 O3 90.21(16) . 7_656 ?
O9 In7 O11 102.82(17) . . ?
O9 In7 O16 172.99(16) . . ?
O9 In7 O20 89.21(17) . . ?
O9 In7 O22 90.44(18) . . ?
O11 In7 O3 90.04(16) . 7_656 ?
O11 In7 O16 83.98(16) . . ?
O11 In7 O20 167.36(16) . . ?
O11 In7 O22 92.21(18) . . ?
O16 In7 O3 91.47(16) . 7_656 ?
O16 In7 O20 83.89(16) . . ?
O16 In7 O22 87.59(18) . . ?
O22 In7 O3 177.45(17) . 7_656 ?
O22 In7 O20 83.74(18) . . ?
C3 Fe1 C4 121.6(3) . . ?
C3 Fe1 C5 159.3(3) . . ?
C3 Fe1 C8 158.4(3) . . ?
C3 Fe1 C18 105.4(3) . . ?
C3 Fe1 C19 121.4(3) . . ?
C3 Fe1 C20 40.7(3) . . ?
C3 Fe1 C21 69.4(3) . . ?
C3 Fe1 C23 68.2(3) . . ?
C4 Fe1 C5 41.7(3) . . ?
C4 Fe1 C8 68.8(3) . . ?
C4 Fe1 C18 40.8(2) . . ?
C4 Fe1 C19 68.7(3) . . ?
C4 Fe1 C20 156.4(3) . . ?
C4 Fe1 C21 125.5(3) . . ?
C4 Fe1 C23 162.4(3) . . ?
C5 Fe1 C8 40.3(3) . . ?
C5 Fe1 C18 69.5(3) . . ?
C5 Fe1 C19 68.8(3) . . ?
C5 Fe1 C20 159.4(3) . . ?
C5 Fe1 C21 108.6(3) . . ?
C5 Fe1 C23 124.6(3) . . ?
C6 Fe1 C3 40.8(3) . . ?
C6 Fe1 C4 108.9(3) . . ?
C6 Fe1 C5 124.2(3) . . ?
C6 Fe1 C8 159.2(3) . . ?
C6 Fe1 C18 123.5(3) . . ?
C6 Fe1 C19 159.2(3) . . ?
C6 Fe1 C20 68.1(3) . . ?
C6 Fe1 C21 41.1(3) . . ?
C6 Fe1 C23 67.8(3) . . ?
C8 Fe1 C19 40.9(3) . . ?
C8 Fe1 C21 122.3(3) . . ?
C8 Fe1 C23 107.8(3) . . ?
C18 Fe1 C8 69.1(3) . . ?
C18 Fe1 C19 41.1(3) . . ?
C18 Fe1 C21 161.3(3) . . ?
C18 Fe1 C23 155.8(3) . . ?
C19 Fe1 C21 156.9(3) . . ?
C19 Fe1 C23 120.7(3) . . ?
C20 Fe1 C8 122.6(3) . . ?
C20 Fe1 C18 119.8(3) . . ?
C20 Fe1 C19 105.3(3) . . ?
C20 Fe1 C21 68.7(3) . . ?
C20 Fe1 C23 40.2(3) . . ?
C23 Fe1 C21 40.5(3) . . ?
C9 Fe2 C10 68.6(2) . . ?
C9 Fe2 C12 68.3(2) . . ?
C9 Fe2 C14 41.5(2) . . ?
C9 Fe2 C15 108.3(2) . . ?
C9 Fe2 C16 41.2(2) . . ?
C9 Fe2 C22 125.2(3) . . ?
C9 Fe2 C24 121.6(2) . . ?
C9 Fe2 C26 162.3(3) . . ?
C9 Fe2 C28 156.6(3) . . ?
C12 Fe2 C10 40.0(3) . . ?
C12 Fe2 C24 126.7(3) . . ?
C12 Fe2 C28 108.2(3) . . ?
C14 Fe2 C10 40.5(2) . . ?
C14 Fe2 C12 68.1(3) . . ?
C14 Fe2 C16 69.2(3) . . ?
C14 Fe2 C24 156.4(2) . . ?
C14 Fe2 C26 123.6(3) . . ?
C14 Fe2 C28 160.7(3) . . ?
C15 Fe2 C10 154.5(3) . . ?
C15 Fe2 C12 164.4(3) . . ?
C15 Fe2 C14 120.2(3) . . ?
C15 Fe2 C16 127.3(3) . . ?
C15 Fe2 C24 41.0(3) . . ?
C15 Fe2 C26 68.9(2) . . ?
C15 Fe2 C28 68.5(3) . . ?
C16 Fe2 C10 68.0(3) . . ?
C16 Fe2 C12 40.2(2) . . ?
C16 Fe2 C24 109.1(3) . . ?
C16 Fe2 C26 154.2(3) . . ?
C16 Fe2 C28 121.1(3) . . ?
C22 Fe2 C10 118.6(3) . . ?
C22 Fe2 C12 153.5(3) . . ?
C22 Fe2 C14 105.8(3) . . ?
C22 Fe2 C15 41.1(3) . . ?
C22 Fe2 C16 164.0(2) . . ?
C22 Fe2 C24 69.2(3) . . ?
C22 Fe2 C26 41.3(3) . . ?
C22 Fe2 C28 68.7(3) . . ?
C24 Fe2 C10 162.3(3) . . ?
C26 Fe2 C10 106.0(2) . . ?
C26 Fe2 C12 119.2(3) . . ?
C26 Fe2 C24 68.6(3) . . ?
C26 Fe2 C28 40.2(3) . . ?
C28 Fe2 C10 124.5(3) . . ?
C28 Fe2 C24 40.7(2) . . ?
C27 Fe3 C29 109.8(3) . . ?
C27 Fe3 C32 40.5(3) . . ?
C27 Fe3 C34 41.5(3) . . ?
C27 Fe3 C35 68.3(3) . . ?
C27 Fe3 C36 126.7(3) . . ?
C27 Fe3 C38 123.0(3) . . ?
C27 Fe3 C39 162.8(4) . . ?
C27 Fe3 C40 68.2(3) . . ?
C27 Fe3 C41 157.0(3) . . ?
C29 Fe3 C32 127.6(3) . . ?
C29 Fe3 C34 121.2(3) . . ?
C29 Fe3 C35 155.1(3) . . ?
C29 Fe3 C36 41.7(3) . . ?
C29 Fe3 C38 40.6(3) . . ?
C29 Fe3 C40 164.5(3) . . ?
C29 Fe3 C41 68.6(3) . . ?
C32 Fe3 C34 69.2(3) . . ?
C32 Fe3 C35 68.2(3) . . ?
C32 Fe3 C40 40.9(3) . . ?
C32 Fe3 C41 121.1(3) . . ?
C35 Fe3 C34 40.6(3) . . ?
C35 Fe3 C40 39.8(3) . . ?
C35 Fe3 C41 123.2(3) . . ?
C36 Fe3 C32 165.0(3) . . ?
C36 Fe3 C34 106.0(3) . . ?
C36 Fe3 C35 118.1(3) . . ?
C36 Fe3 C40 152.0(3) . . ?
C36 Fe3 C41 68.4(4) . . ?
C38 Fe3 C32 109.7(3) . . ?
C38 Fe3 C34 157.6(3) . . ?
C38 Fe3 C35 161.4(3) . . ?
C38 Fe3 C36 68.9(3) . . ?
C38 Fe3 C40 126.5(3) . . ?
C38 Fe3 C41 40.7(3) . . ?
C39 Fe3 C29 68.7(3) . . ?
C39 Fe3 C32 153.7(3) . . ?
C39 Fe3 C34 123.5(4) . . ?
C39 Fe3 C35 105.4(3) . . ?
C39 Fe3 C36 40.8(3) . . ?
C39 Fe3 C38 67.8(4) . . ?
C39 Fe3 C40 117.9(3) . . ?
C39 Fe3 C41 39.7(4) . . ?
C40 Fe3 C34 68.2(3) . . ?
C41 Fe3 C34 159.6(3) . . ?
C41 Fe3 C40 106.9(3) . . ?
In1 O1 In3 133.7(2) . . ?
C2 O23 In3 131.9(4) . . ?
In5 O3 In2 98.49(15) 7_656 . ?
In5 O3 In6 100.01(16) 7_656 . ?
In5 O3 In7 114.65(17) 7_656 7_656 ?
In6 O3 In2 98.57(16) . . ?
In6 O3 In7 115.31(17) . 7_656 ?
In7 O3 In2 125.58(18) 7_656 . ?
In1 O4 In2 125.32(18) . . ?
In1 O4 In4 115.79(17) . 7_656 ?
In4 O4 In2 98.45(16) 7_656 . ?
In5 O4 In1 114.74(17) 7_656 . ?
In5 O4 In2 98.41(15) 7_656 . ?
In5 O4 In4 99.83(16) 7_656 7_656 ?
C2 O5 In6 122.4(4) . . ?
In6 O6 In5 100.53(17) . 7_656 ?
C31 O6 In5 119.7(4) . 7_656 ?
C31 O6 In6 121.8(4) . . ?
In4 O7 In6 100.24(16) . . ?
C33 O7 In4 118.9(3) . . ?
C33 O7 In6 119.8(4) . . ?
In3 O8 In2 125.37(18) . . ?
In3 O8 In6 114.99(18) . . ?
In4 O8 In2 99.19(16) . . ?
In4 O8 In3 115.70(18) . . ?
In4 O8 In6 99.22(16) . . ?
In6 O8 In2 97.92(16) . . ?
In7 O9 In3 134.7(2) . . ?
In5 O10 In4 101.00(17) . . ?
C30 O10 In4 121.1(4) . . ?
C30 O10 In5 120.7(4) . . ?
In7 O11 In1 136.3(2) . . ?
C7 O12 In3 131.9(4) . . ?
C11 O13 In6 121.3(4) . 7_656 ?
C7 O14 In4 123.6(4) . . ?
C17 O15 In5 126.0(4) . . ?
C11 O16 In7 135.2(4) . . ?
C25 O17 In5 122.5(4) . . ?
C13 O18 In4 119.8(4) . . ?
C25 O19 In1 133.3(4) . 7_656 ?
C17 O20 In7 129.0(4) . . ?
C13 O21 In1 134.0(4) . 7_656 ?
C37 O22 In7 116.9(5) . . ?
C1 N1 In1 132.0(6) . . ?
C1 N1 C42 105.6(7) . . ?
C42 N1 In1 122.2(6) . . ?
In3 O2 H2A 131.7 . . ?
In3 O2 H2B 132.0 . . ?
H2A O2 H2B 96.3 . . ?
C37 N3 C43 120.9(9) . . ?
C37 N3 C44 119.5(10) . . ?
C43 N3 C44 119.4(9) . . ?
C1 N4 H4 125.6 . . ?
C1 N4 C46 108.8(10) . . ?
C46 N4 H4 125.6 . . ?
N1 C1 N4 109.5(10) . . ?
N1 C1 C45 126.7(10) . . ?
N4 C1 C45 123.8(11) . . ?
O23 C2 O5 125.4(6) . . ?
O23 C2 C6 118.3(6) . . ?
O5 C2 C6 116.3(6) . . ?
Fe1 C3 H3 125.5 . . ?
C6 C3 Fe1 69.5(4) . . ?
C6 C3 H3 126.4 . . ?
C20 C3 Fe1 70.2(4) . . ?
C20 C3 H3 126.4 . . ?
C20 C3 C6 107.3(6) . . ?
C5 C4 Fe1 69.7(4) . . ?
C5 C4 C7 124.4(6) . . ?
C7 C4 Fe1 122.3(4) . . ?
C18 C4 Fe1 70.2(4) . . ?
C18 C4 C5 108.6(6) . . ?
C18 C4 C7 126.8(6) . . ?
Fe1 C5 H5 126.6 . . ?
C4 C5 Fe1 68.6(3) . . ?
C4 C5 H5 126.4 . . ?
C8 C5 Fe1 69.9(4) . . ?
C8 C5 C4 107.2(6) . . ?
C8 C5 H5 126.4 . . ?
C2 C6 Fe1 124.0(4) . . ?
C3 C6 Fe1 69.6(4) . . ?
C3 C6 C2 127.2(6) . . ?
C3 C6 C21 109.5(6) . . ?
C21 C6 Fe1 70.6(4) . . ?
C21 C6 C2 123.3(6) . . ?
O12 C7 O14 124.0(6) . . ?
O12 C7 C4 117.4(6) . . ?
O14 C7 C4 118.6(6) . . ?
Fe1 C8 H8 126.5 . . ?
C5 C8 Fe1 69.8(4) . . ?
C5 C8 H8 125.5 . . ?
C5 C8 C19 109.0(6) . . ?
C19 C8 Fe1 69.8(4) . . ?
C19 C8 H8 125.5 . . ?
C11 C9 Fe2 119.6(4) . . ?
C14 C9 Fe2 70.1(3) . . ?
C14 C9 C11 124.6(6) . . ?
C16 C9 Fe2 70.3(4) . . ?
C16 C9 C11 127.0(6) . . ?
C16 C9 C14 108.0(5) . . ?
Fe2 C10 H10 127.0 . . ?
C12 C10 Fe2 69.9(4) . . ?
C12 C10 H10 125.8 . . ?
C12 C10 C14 108.3(5) . . ?
C14 C10 Fe2 68.9(3) . . ?
C14 C10 H10 125.8 . . ?
O13 C11 C9 119.0(6) . . ?
O16 C11 O13 124.0(5) . . ?
O16 C11 C9 117.0(6) . . ?
Fe2 C12 H12 126.8 . . ?
C10 C12 Fe2 70.1(4) . . ?
C10 C12 H12 125.5 . . ?
C16 C12 Fe2 69.2(4) . . ?
C16 C12 C10 109.0(6) . . ?
C16 C12 H12 125.5 . . ?
O18 C13 C27 118.4(5) . . ?
O21 C13 O18 124.8(5) . . ?
O21 C13 C27 116.9(6) . . ?
Fe2 C14 H14 126.1 . . ?
C9 C14 Fe2 68.4(3) . . ?
C9 C14 H14 126.4 . . ?
C10 C14 Fe2 70.6(4) . . ?
C10 C14 C9 107.2(5) . . ?
C10 C14 H14 126.4 . . ?
C17 C15 Fe2 125.9(4) . . ?
C22 C15 Fe2 69.3(3) . . ?
C22 C15 C17 125.6(6) . . ?
C22 C15 C24 108.5(5) . . ?
C24 C15 Fe2 70.5(4) . . ?
C24 C15 C17 125.8(6) . . ?
Fe2 C16 H16 126.2 . . ?
C9 C16 Fe2 68.5(3) . . ?
C9 C16 H16 126.2 . . ?
C12 C16 Fe2 70.7(4) . . ?
C12 C16 C9 107.5(6) . . ?
C12 C16 H16 126.2 . . ?
O15 C17 O20 124.3(6) . . ?
O15 C17 C15 118.1(6) . . ?
O20 C17 C15 117.5(6) . . ?
Fe1 C18 H18 126.5 . . ?
C4 C18 Fe1 69.0(4) . . ?
C4 C18 H18 126.3 . . ?
C4 C18 C19 107.4(6) . . ?
C19 C18 Fe1 69.7(4) . . ?
C19 C18 H18 126.3 . . ?
Fe1 C19 H19 127.0 . . ?
C8 C19 Fe1 69.3(4) . . ?
C8 C19 C18 107.8(6) . . ?
C8 C19 H19 126.1 . . ?
C18 C19 Fe1 69.2(4) . . ?
C18 C19 H19 126.1 . . ?
Fe1 C20 H20 126.2 . . ?
C3 C20 Fe1 69.1(4) . . ?
C3 C20 H20 125.8 . . ?
C23 C20 Fe1 70.4(4) . . ?
C23 C20 C3 108.3(6) . . ?
C23 C20 H20 125.8 . . ?
Fe1 C21 H21 126.4 . . ?
C6 C21 Fe1 68.3(4) . . ?
C6 C21 H21 127.2 . . ?
C23 C21 Fe1 69.7(4) . . ?
C23 C21 C6 105.6(6) . . ?
C23 C21 H21 127.2 . . ?
Fe2 C22 H22 125.6 . . ?
C15 C22 Fe2 69.7(4) . . ?
C15 C22 H22 126.2 . . ?
C15 C22 C26 107.6(6) . . ?
C26 C22 Fe2 70.1(4) . . ?
C26 C22 H22 126.2 . . ?
Fe1 C23 H23 127.2 . . ?
C20 C23 Fe1 69.3(4) . . ?
C20 C23 C21 109.3(6) . . ?
C20 C23 H23 125.3 . . ?
C21 C23 Fe1 69.8(4) . . ?
C21 C23 H23 125.3 . . ?
Fe2 C24 H24 126.9 . . ?
C15 C24 Fe2 68.5(3) . . ?
C15 C24 H24 126.5 . . ?
C28 C24 Fe2 69.6(4) . . ?
C28 C24 C15 107.0(6) . . ?
C28 C24 H24 126.5 . . ?
O17 C25 C29 116.6(6) . . ?
O19 C25 O17 125.0(6) . . ?
O19 C25 C29 118.4(6) . . ?
Fe2 C26 H26 126.6 . . ?
C22 C26 Fe2 68.7(3) . . ?
C22 C26 H26 126.0 . . ?
C28 C26 Fe2 70.3(4) . . ?
C28 C26 C22 108.0(6) . . ?
C28 C26 H26 126.0 . . ?
C13 C27 Fe3 122.1(5) . . ?
C32 C27 Fe3 70.6(4) . . ?
C32 C27 C13 127.2(6) . . ?
C32 C27 C34 109.2(6) . . ?
C34 C27 Fe3 70.5(4) . . ?
C34 C27 C13 123.5(6) . . ?
Fe2 C28 H28 126.9 . . ?
C24 C28 Fe2 69.7(4) . . ?
C24 C28 H28 125.6 . . ?
C26 C28 Fe2 69.5(4) . . ?
C26 C28 C24 108.9(6) . . ?
C26 C28 H28 125.6 . . ?
C25 C29 Fe3 123.5(5) . . ?
C36 C29 Fe3 69.7(4) . . ?
C36 C29 C25 124.3(7) . . ?
C38 C29 Fe3 70.0(4) . . ?
C38 C29 C25 127.9(6) . . ?
C38 C29 C36 107.7(6) . . ?
O10 C30 H30A 109.5 . . ?
O10 C30 H30B 109.5 . . ?
O10 C30 H30C 109.5 . . ?
H30A C30 H30B 109.5 . . ?
H30A C30 H30C 109.5 . . ?
H30B C30 H30C 109.5 . . ?
O6 C31 H31A 109.5 . . ?
O6 C31 H31B 109.5 . . ?
O6 C31 H31C 109.5 . . ?
H31A C31 H31B 109.5 . . ?
H31A C31 H31C 109.5 . . ?
H31B C31 H31C 109.5 . . ?
Fe3 C32 H32 126.5 . . ?
C27 C32 Fe3 68.8(4) . . ?
C27 C32 H32 126.5 . . ?
C27 C32 C40 107.0(6) . . ?
C40 C32 Fe3 69.7(4) . . ?
C40 C32 H32 126.5 . . ?
O7 C33 H33A 109.5 . . ?
O7 C33 H33B 109.5 . . ?
O7 C33 H33C 109.5 . . ?
H33A C33 H33B 109.5 . . ?
H33A C33 H33C 109.5 . . ?
H33B C33 H33C 109.5 . . ?
Fe3 C34 H34 126.9 . . ?
C27 C34 Fe3 68.0(4) . . ?
C27 C34 H34 127.2 . . ?
C35 C34 Fe3 69.4(4) . . ?
C35 C34 C27 105.7(6) . . ?
C35 C34 H34 127.2 . . ?
Fe3 C35 H35 126.2 . . ?
C34 C35 Fe3 70.0(4) . . ?
C34 C35 H35 125.2 . . ?
C40 C35 Fe3 70.2(4) . . ?
C40 C35 C34 109.7(6) . . ?
C40 C35 H35 125.2 . . ?
Fe3 C36 H36 126.8 . . ?
C29 C36 Fe3 68.7(4) . . ?
C29 C36 H36 127.0 . . ?
C39 C36 Fe3 69.0(5) . . ?
C39 C36 C29 105.9(7) . . ?
C39 C36 H36 127.0 . . ?
O22 C37 N3 121.3(8) . . ?
O22 C37 H37 119.3 . . ?
N3 C37 H37 119.3 . . ?
Fe3 C38 H38 126.4 . . ?
C29 C38 Fe3 69.4(4) . . ?
C29 C38 H38 125.8 . . ?
C29 C38 C41 108.3(7) . . ?
C41 C38 Fe3 70.0(4) . . ?
C41 C38 H38 125.8 . . ?
Fe3 C39 H39 125.6 . . ?
C36 C39 Fe3 70.2(5) . . ?
C36 C39 H39 124.9 . . ?
C41 C39 Fe3 70.9(5) . . ?
C41 C39 C36 110.2(7) . . ?
C41 C39 H39 124.9 . . ?
Fe3 C40 H40 126.4 . . ?
C32 C40 Fe3 69.4(4) . . ?
C32 C40 H40 125.8 . . ?
C35 C40 Fe3 70.0(4) . . ?
C35 C40 C32 108.5(6) . . ?
C35 C40 H40 125.8 . . ?
Fe3 C41 H41 126.8 . . ?
C38 C41 Fe3 69.3(4) . . ?
C38 C41 H41 126.1 . . ?
C39 C41 Fe3 69.4(5) . . ?
C39 C41 C38 107.8(7) . . ?
C39 C41 H41 126.1 . . ?
N1 C42 H42 124.7 . . ?
C46 C42 N1 110.7(9) . . ?
C46 C42 H42 124.7 . . ?
N3 C43 H43A 109.5 . . ?
N3 C43 H43B 109.5 . . ?
N3 C43 H43C 109.5 . . ?
H43A C43 H43B 109.5 . . ?
H43A C43 H43C 109.5 . . ?
H43B C43 H43C 109.5 . . ?
N3 C44 H44A 109.5 . . ?
N3 C44 H44B 109.5 . . ?
N3 C44 H44C 109.5 . . ?
H44A C44 H44B 109.5 . . ?
H44A C44 H44C 109.5 . . ?
H44B C44 H44C 109.5 . . ?
C1 C45 H45A 109.5 . . ?
C1 C45 H45B 109.5 . . ?
C1 C45 H45C 109.5 . . ?
H45A C45 H45B 109.5 . . ?
H45A C45 H45C 109.5 . . ?
H45B C45 H45C 109.5 . . ?
N4 C46 H46 127.3 . . ?
C42 C46 N4 105.3(10) . . ?
C42 C46 H46 127.3 . . ?
loop_
_geom_bond_atom_site_label_1
_geom_bond_atom_site_label_2
_geom_bond_distance
_geom_bond_site_symmetry_2
_geom_bond_publ_flag
In1 O1 2.072(4) . ?
In1 O4 2.182(4) . ?
In1 O11 2.097(4) . ?
In1 O19 2.189(4) 7_656 ?
In1 O21 2.159(5) 7_656 ?
In1 N1 2.215(6) . ?
In2 In4 3.3430(4) 7_656 ?
In2 In4 3.3430(4) . ?
In2 In5 3.3241(4) . ?
In2 In5 3.3243(4) 7_656 ?
In2 In6 3.3271(4) . ?
In2 In6 3.3270(4) 7_656 ?
In2 O3 2.215(4) 7_656 ?
In2 O3 2.215(4) . ?
In2 O4 2.219(4) . ?
In2 O4 2.219(4) 7_656 ?
In2 O8 2.219(4) 7_656 ?
In2 O8 2.219(4) . ?
In3 O1 2.092(4) . ?
In3 O23 2.184(4) . ?
In3 O8 2.191(4) . ?
In3 O9 2.102(4) . ?
In3 O12 2.165(4) . ?
In3 O2 2.267(6) . ?
In4 In5 3.3411(5) . ?
In4 In6 3.3226(5) . ?
In4 O4 2.195(4) 7_656 ?
In4 O7 2.161(4) . ?
In4 O8 2.171(4) . ?
In4 O10 2.173(4) . ?
In4 O14 2.178(5) . ?
In4 O18 2.161(4) . ?
In5 In6 3.3305(5) 7_656 ?
In5 O3 2.173(4) 7_656 ?
In5 O4 2.172(4) 7_656 ?
In5 O6 2.166(4) 7_656 ?
In5 O10 2.157(4) . ?
In5 O15 2.158(4) . ?
In5 O17 2.148(4) . ?
In6 O3 2.174(4) . ?
In6 O5 2.142(5) . ?
In6 O6 2.165(4) . ?
In6 O7 2.169(4) . ?
In6 O8 2.192(4) . ?
In6 O13 2.167(4) 7_656 ?
In7 O3 2.183(4) 7_656 ?
In7 O9 2.064(4) . ?
In7 O11 2.082(4) . ?
In7 O16 2.167(4) . ?
In7 O20 2.189(4) . ?
In7 O22 2.174(5) . ?
Fe1 C3 2.029(6) . ?
Fe1 C4 2.030(6) . ?
Fe1 C5 2.044(6) . ?
Fe1 C6 2.028(6) . ?
Fe1 C8 2.046(6) . ?
Fe1 C18 2.045(6) . ?
Fe1 C19 2.052(6) . ?
Fe1 C20 2.044(6) . ?
Fe1 C21 2.059(7) . ?
Fe1 C23 2.058(7) . ?
Fe2 C9 2.014(6) . ?
Fe2 C10 2.060(6) . ?
Fe2 C12 2.058(7) . ?
Fe2 C14 2.037(6) . ?
Fe2 C15 2.035(6) . ?
Fe2 C16 2.038(6) . ?
Fe2 C22 2.029(7) . ?
Fe2 C24 2.060(6) . ?
Fe2 C26 2.048(6) . ?
Fe2 C28 2.060(7) . ?
Fe3 C27 2.024(7) . ?
Fe3 C29 2.034(6) . ?
Fe3 C32 2.048(7) . ?
Fe3 C34 2.058(8) . ?
Fe3 C35 2.050(7) . ?
Fe3 C36 2.048(8) . ?
Fe3 C38 2.042(7) . ?
Fe3 C39 2.032(9) . ?
Fe3 C40 2.052(8) . ?
Fe3 C41 2.052(8) . ?
O23 C2 1.256(8) . ?
O5 C2 1.267(8) . ?
O6 C31 1.446(8) . ?
O7 C33 1.427(8) . ?
O10 C30 1.447(8) . ?
O12 C7 1.274(8) . ?
O13 C11 1.267(8) . ?
O14 C7 1.280(8) . ?
O15 C17 1.254(8) . ?
O16 C11 1.263(8) . ?
O17 C25 1.274(8) . ?
O18 C13 1.272(7) . ?
O19 C25 1.261(8) . ?
O20 C17 1.264(8) . ?
O21 C13 1.264(8) . ?
O22 C37 1.287(10) . ?
N1 C1 1.321(12) . ?
N1 C42 1.366(11) . ?
O2 H2A 1.3103 . ?
O2 H2B 1.3100 . ?
N3 C37 1.303(11) . ?
N3 C43 1.456(13) . ?
N3 C44 1.460(17) . ?
N4 H4 0.8800 . ?
N4 C1 1.343(14) . ?
N4 C46 1.355(16) . ?
C1 C45 1.477(17) . ?
C2 C6 1.477(9) . ?
C3 H3 0.9500 . ?
C3 C6 1.416(9) . ?
C3 C20 1.416(9) . ?
C4 C5 1.450(9) . ?
C4 C7 1.476(9) . ?
C4 C18 1.420(9) . ?
C5 H5 0.9500 . ?
C5 C8 1.409(10) . ?
C6 C21 1.435(9) . ?
C8 H8 0.9500 . ?
C8 C19 1.433(10) . ?
C9 C11 1.469(8) . ?
C9 C14 1.434(8) . ?
C9 C16 1.425(8) . ?
C10 H10 0.9500 . ?
C10 C12 1.409(10) . ?
C10 C14 1.419(9) . ?
C12 H12 0.9500 . ?
C12 C16 1.407(9) . ?
C13 C27 1.478(8) . ?
C14 H14 0.9500 . ?
C15 C17 1.469(8) . ?
C15 C22 1.425(9) . ?
C15 C24 1.434(10) . ?
C16 H16 0.9500 . ?
C18 H18 0.9500 . ?
C18 C19 1.439(9) . ?
C19 H19 0.9500 . ?
C20 H20 0.9500 . ?
C20 C23 1.411(12) . ?
C21 H21 0.9500 . ?
C21 C23 1.427(10) . ?
C22 H22 0.9500 . ?
C22 C26 1.437(9) . ?
C23 H23 0.9500 . ?
C24 H24 0.9500 . ?
C24 C28 1.433(9) . ?
C25 C29 1.480(8) . ?
C26 H26 0.9500 . ?
C26 C28 1.413(10) . ?
C27 C32 1.411(9) . ?
C27 C34 1.447(10) . ?
C28 H28 0.9500 . ?
C29 C36 1.452(10) . ?
C29 C38 1.414(10) . ?
C30 H30A 0.9800 . ?
C30 H30B 0.9800 . ?
C30 H30C 0.9800 . ?
C31 H31A 0.9800 . ?
C31 H31B 0.9800 . ?
C31 H31C 0.9800 . ?
C32 H32 0.9500 . ?
C32 C40 1.434(10) . ?
C33 H33A 0.9800 . ?
C33 H33B 0.9800 . ?
C33 H33C 0.9800 . ?
C34 H34 0.9500 . ?
C34 C35 1.424(10) . ?
C35 H35 0.9500 . ?
C35 C40 1.396(11) . ?
C36 H36 0.9500 . ?
C36 C39 1.422(11) . ?
C37 H37 0.9500 . ?
C38 H38 0.9500 . ?
C38 C41 1.425(10) . ?
C39 H39 0.9500 . ?
C39 C41 1.387(13) . ?
C40 H40 0.9500 . ?
C41 H41 0.9500 . ?
C42 H42 0.9500 . ?
C42 C46 1.335(14) . ?
C43 H43A 0.9800 . ?
C43 H43B 0.9800 . ?
C43 H43C 0.9800 . ?
C44 H44A 0.9800 . ?
C44 H44B 0.9800 . ?
C44 H44C 0.9800 . ?
C45 H45A 0.9800 . ?
C45 H45B 0.9800 . ?
C45 H45C 0.9800 . ?
C46 H46 0.9500 . ?
loop_
_geom_torsion_atom_site_label_1
_geom_torsion_atom_site_label_2
_geom_torsion_atom_site_label_3
_geom_torsion_atom_site_label_4
_geom_torsion
_geom_torsion_site_symmetry_1
_geom_torsion_site_symmetry_2
_geom_torsion_site_symmetry_3
_geom_torsion_site_symmetry_4
_geom_torsion_publ_flag
In1 O19 C25 O17 56.7(9) 7_656 . . . ?
In1 O19 C25 C29 -123.6(6) 7_656 . . . ?
In1 O21 C13 O18 -61.9(9) 7_656 . . . ?
In1 O21 C13 C27 118.5(6) 7_656 . . . ?
In1 N1 C1 N4 174.6(8) . . . . ?
In1 N1 C1 C45 -4.3(19) . . . . ?
In1 N1 C42 C46 -173.4(7) . . . . ?
In3 O23 C2 O5 57.0(8) . . . . ?
In3 O23 C2 C6 -122.8(5) . . . . ?
In3 O12 C7 O14 -59.0(8) . . . . ?
In3 O12 C7 C4 122.6(5) . . . . ?
In4 O14 C7 O12 1.0(8) . . . . ?
In4 O14 C7 C4 179.4(4) . . . . ?
In4 O18 C13 O21 -1.9(8) . . . . ?
In4 O18 C13 C27 177.7(4) . . . . ?
In5 O15 C17 O20 -5.5(9) . . . . ?
In5 O15 C17 C15 179.0(4) . . . . ?
In5 O17 C25 O19 -1.0(9) . . . . ?
In5 O17 C25 C29 179.3(4) . . . . ?
In6 O5 C2 O23 3.4(8) . . . . ?
In6 O5 C2 C6 -176.8(4) . . . . ?
In6 O13 C11 O16 -5.9(8) 7_656 . . . ?
In6 O13 C11 C9 173.7(4) 7_656 . . . ?
In7 O16 C11 O13 -55.5(9) . . . . ?
In7 O16 C11 C9 124.9(5) . . . . ?
In7 O20 C17 O15 59.6(8) . . . . ?
In7 O20 C17 C15 -124.8(5) . . . . ?
In7 O22 C37 N3 -175.0(7) . . . . ?
Fe1 C3 C6 C2 -117.9(6) . . . . ?
Fe1 C3 C6 C21 59.6(4) . . . . ?
Fe1 C3 C20 C23 -59.7(4) . . . . ?
Fe1 C4 C5 C8 -59.5(4) . . . . ?
Fe1 C4 C7 O12 -86.7(6) . . . . ?
Fe1 C4 C7 O14 94.8(6) . . . . ?
Fe1 C4 C18 C19 59.4(4) . . . . ?
Fe1 C5 C8 C19 -58.9(4) . . . . ?
Fe1 C6 C21 C23 60.1(4) . . . . ?
Fe1 C8 C19 C18 -58.6(4) . . . . ?
Fe1 C18 C19 C8 58.7(4) . . . . ?
Fe1 C20 C23 C21 -58.4(5) . . . . ?
Fe1 C21 C23 C20 58.1(5) . . . . ?
Fe2 C9 C11 O13 88.9(6) . . . . ?
Fe2 C9 C11 O16 -91.4(6) . . . . ?
Fe2 C9 C14 C10 -60.3(4) . . . . ?
Fe2 C9 C16 C12 60.1(5) . . . . ?
Fe2 C10 C12 C16 -58.3(5) . . . . ?
Fe2 C10 C14 C9 58.9(4) . . . . ?
Fe2 C12 C16 C9 -58.8(4) . . . . ?
Fe2 C15 C17 O15 -103.4(6) . . . . ?
Fe2 C15 C17 O20 80.7(7) . . . . ?
Fe2 C15 C22 C26 60.1(4) . . . . ?
Fe2 C15 C24 C28 -59.2(4) . . . . ?
Fe2 C22 C26 C28 59.5(5) . . . . ?
Fe2 C24 C28 C26 -58.5(5) . . . . ?
Fe2 C26 C28 C24 58.7(5) . . . . ?
Fe3 C27 C32 C40 59.5(5) . . . . ?
Fe3 C27 C34 C35 -59.5(5) . . . . ?
Fe3 C29 C36 C39 59.2(5) . . . . ?
Fe3 C29 C38 C41 -59.4(6) . . . . ?
Fe3 C32 C40 C35 59.3(6) . . . . ?
Fe3 C34 C35 C40 -59.2(6) . . . . ?
Fe3 C35 C40 C32 -58.9(5) . . . . ?
Fe3 C36 C39 C41 59.8(6) . . . . ?
Fe3 C38 C41 C39 -58.8(6) . . . . ?
Fe3 C39 C41 C38 58.8(6) . . . . ?
O23 C2 C6 Fe1 80.4(7) . . . . ?
O23 C2 C6 C3 169.5(6) . . . . ?
O23 C2 C6 C21 -7.6(9) . . . . ?
O5 C2 C6 Fe1 -99.5(6) . . . . ?
O5 C2 C6 C3 -10.3(9) . . . . ?
O5 C2 C6 C21 172.5(6) . . . . ?
O17 C25 C29 Fe3 -103.8(6) . . . . ?
O17 C25 C29 C36 169.3(6) . . . . ?
O17 C25 C29 C38 -14.0(10) . . . . ?
O18 C13 C27 Fe3 89.2(7) . . . . ?
O18 C13 C27 C32 0.0(11) . . . . ?
O18 C13 C27 C34 175.9(6) . . . . ?
O19 C25 C29 Fe3 76.5(8) . . . . ?
O19 C25 C29 C36 -10.5(10) . . . . ?
O19 C25 C29 C38 166.3(7) . . . . ?
O21 C13 C27 Fe3 -91.1(7) . . . . ?
O21 C13 C27 C32 179.7(7) . . . . ?
O21 C13 C27 C34 -4.4(10) . . . . ?
N1 C42 C46 N4 -3.2(14) . . . . ?
C1 N1 C42 C46 2.5(12) . . . . ?
C1 N4 C46 C42 2.8(16) . . . . ?
C2 C6 C21 Fe1 118.6(6) . . . . ?
C2 C6 C21 C23 178.7(5) . . . . ?
C3 C6 C21 Fe1 -59.0(4) . . . . ?
C3 C6 C21 C23 1.1(7) . . . . ?
C3 C20 C23 Fe1 58.9(4) . . . . ?
C3 C20 C23 C21 0.5(7) . . . . ?
C4 C5 C8 Fe1 58.7(4) . . . . ?
C4 C5 C8 C19 -0.2(7) . . . . ?
C4 C18 C19 Fe1 -58.9(4) . . . . ?
C4 C18 C19 C8 -0.2(7) . . . . ?
C5 C4 C7 O12 -0.4(8) . . . . ?
C5 C4 C7 O14 -178.9(5) . . . . ?
C5 C4 C18 Fe1 -59.3(4) . . . . ?
C5 C4 C18 C19 0.1(7) . . . . ?
C5 C8 C19 Fe1 58.9(4) . . . . ?
C5 C8 C19 C18 0.2(7) . . . . ?
C6 C3 C20 Fe1 59.9(4) . . . . ?
C6 C3 C20 C23 0.2(7) . . . . ?
C6 C21 C23 Fe1 -59.1(4) . . . . ?
C6 C21 C23 C20 -1.0(7) . . . . ?
C7 C4 C5 Fe1 -115.9(6) . . . . ?
C7 C4 C5 C8 -175.4(5) . . . . ?
C7 C4 C18 Fe1 116.0(6) . . . . ?
C7 C4 C18 C19 175.4(5) . . . . ?
C10 C12 C16 Fe2 58.9(5) . . . . ?
C10 C12 C16 C9 0.1(7) . . . . ?
C11 C9 C14 Fe2 -112.9(6) . . . . ?
C11 C9 C14 C10 -173.2(6) . . . . ?
C11 C9 C16 Fe2 112.8(6) . . . . ?
C11 C9 C16 C12 173.0(6) . . . . ?
C12 C10 C14 Fe2 -58.9(4) . . . . ?
C12 C10 C14 C9 -0.1(7) . . . . ?
C13 C27 C32 Fe3 116.2(7) . . . . ?
C13 C27 C32 C40 175.7(7) . . . . ?
C13 C27 C34 Fe3 -116.2(7) . . . . ?
C13 C27 C34 C35 -175.7(6) . . . . ?
C14 C9 C11 O13 174.2(6) . . . . ?
C14 C9 C11 O16 -6.1(9) . . . . ?
C14 C9 C16 Fe2 -60.3(4) . . . . ?
C14 C9 C16 C12 -0.2(7) . . . . ?
C14 C10 C12 Fe2 58.3(4) . . . . ?
C14 C10 C12 C16 0.0(7) . . . . ?
C15 C22 C26 Fe2 -59.8(4) . . . . ?
C15 C22 C26 C28 -0.3(7) . . . . ?
C15 C24 C28 Fe2 58.5(4) . . . . ?
C15 C24 C28 C26 0.0(7) . . . . ?
C16 C9 C11 O13 2.2(9) . . . . ?
C16 C9 C11 O16 -178.2(6) . . . . ?
C16 C9 C14 Fe2 60.4(4) . . . . ?
C16 C9 C14 C10 0.1(7) . . . . ?
C17 C15 C22 Fe2 120.0(6) . . . . ?
C17 C15 C22 C26 -179.9(6) . . . . ?
C17 C15 C24 Fe2 -120.8(6) . . . . ?
C17 C15 C24 C28 -180.0(6) . . . . ?
C18 C4 C5 Fe1 59.6(4) . . . . ?
C18 C4 C5 C8 0.1(7) . . . . ?
C18 C4 C7 O12 -175.1(6) . . . . ?
C18 C4 C7 O14 6.5(9) . . . . ?
C20 C3 C6 Fe1 -60.4(4) . . . . ?
C20 C3 C6 C2 -178.3(6) . . . . ?
C20 C3 C6 C21 -0.8(7) . . . . ?
C22 C15 C17 O15 167.6(6) . . . . ?
C22 C15 C17 O20 -8.2(9) . . . . ?
C22 C15 C24 Fe2 59.0(4) . . . . ?
C22 C15 C24 C28 -0.2(7) . . . . ?
C22 C26 C28 Fe2 -58.5(4) . . . . ?
C22 C26 C28 C24 0.2(7) . . . . ?
C24 C15 C17 O15 -12.7(9) . . . . ?
C24 C15 C17 O20 171.5(6) . . . . ?
C24 C15 C22 Fe2 -59.7(4) . . . . ?
C24 C15 C22 C26 0.4(7) . . . . ?
C25 C29 C36 Fe3 117.4(6) . . . . ?
C25 C29 C36 C39 176.6(7) . . . . ?
C25 C29 C38 Fe3 -117.5(7) . . . . ?
C25 C29 C38 C41 -176.9(7) . . . . ?
C27 C32 C40 Fe3 -59.0(5) . . . . ?
C27 C32 C40 C35 0.3(9) . . . . ?
C27 C34 C35 Fe3 58.6(5) . . . . ?
C27 C34 C35 C40 -0.5(9) . . . . ?
C29 C36 C39 Fe3 -59.0(5) . . . . ?
C29 C36 C39 C41 0.8(10) . . . . ?
C29 C38 C41 Fe3 59.0(5) . . . . ?
C29 C38 C41 C39 0.1(10) . . . . ?
C32 C27 C34 Fe3 60.3(5) . . . . ?
C32 C27 C34 C35 0.7(8) . . . . ?
C34 C27 C32 Fe3 -60.2(5) . . . . ?
C34 C27 C32 C40 -0.6(8) . . . . ?
C34 C35 C40 Fe3 59.0(5) . . . . ?
C34 C35 C40 C32 0.2(9) . . . . ?
C36 C29 C38 Fe3 59.7(5) . . . . ?
C36 C29 C38 C41 0.3(9) . . . . ?
C36 C39 C41 Fe3 -59.4(6) . . . . ?
C36 C39 C41 C38 -0.6(10) . . . . ?
C38 C29 C36 Fe3 -59.9(5) . . . . ?
C38 C29 C36 C39 -0.7(9) . . . . ?
C42 N1 C1 N4 -0.6(13) . . . . ?
C42 N1 C1 C45 -179.6(13) . . . . ?
C43 N3 C37 O22 -1.8(14) . . . . ?
C44 N3 C37 O22 -176.4(11) . . . . ?
C46 N4 C1 N1 -1.3(17) . . . . ?
C46 N4 C1 C45 177.6(14) . . . . ?
loop_
_smtbx_masks_void_nr
_smtbx_masks_void_average_x
_smtbx_masks_void_average_y
_smtbx_masks_void_average_z
_smtbx_masks_void_volume
_smtbx_masks_void_count_electrons
_smtbx_masks_void_content
1 -0.453 0.000 0.500 1747.4 576.1 ?
2 -0.438 0.500 0.000 1747.4 576.1 ?
