#------------------------------------------------------------------------------
#$Date: 2024-02-04 12:58:20 +0200 (Sun, 04 Feb 2024) $
#$Revision: 289313 $
#$URL: file:///home/coder/svn-repositories/cod/cif/1/57/06/1570630.cif $
#------------------------------------------------------------------------------
#
# This file is available in the Crystallography Open Database (COD),
# http://www.crystallography.net/
#
# All data on this site have been placed in the public domain by the
# contributors.
#
data_1570630
loop_
_publ_author_name
'Obieta, Maria'
'Urgoitia, Garazi'
'Herrero, Mar\'ia Teresa'
'SanMartin, Raul'
_publ_section_title
;
 Efficient iron-catalyzed direct acylation of amines with carboxylic acids
 and esters under oxygenated conditions
;
_journal_issue                   2
_journal_name_full               'Catalysis Science &amp; Technology'
_journal_page_first              478
_journal_page_last               488
_journal_paper_doi               10.1039/D3CY01429K
_journal_volume                  14
_journal_year                    2024
_chemical_absolute_configuration ad
_chemical_formula_moiety         'C16 H17 N O2'
_chemical_formula_sum            'C16 H17 N O2'
_chemical_formula_weight         255.3
_space_group_IT_number           19
_space_group_name_Hall           'P 2ac 2ab'
_space_group_name_H-M_alt        'P 21 21 21'
_symmetry_cell_setting           orthorhombic
_symmetry_Int_Tables_number      19
_symmetry_space_group_name_Hall  'P 2ac 2ab'
_symmetry_space_group_name_H-M   'P 21 21 21'
_atom_sites_solution_hydrogens   geom
_atom_sites_solution_primary     direct
_audit_creation_date             2023-07-28T12:24:41-00:00
_audit_creation_method           'WinGX routine CIF_UPDATE'
_audit_update_record
;
2023-08-23 deposited with the CCDC.	2023-12-18 downloaded from the CCDC.
;
_cell_angle_alpha                90
_cell_angle_beta                 90
_cell_angle_gamma                90
_cell_formula_units_Z            4
_cell_length_a                   5.23281(4)
_cell_length_b                   11.33461(9)
_cell_length_c                   22.6110(2)
_cell_measurement_reflns_used    11719
_cell_measurement_temperature    150.01(10)
_cell_measurement_theta_max      74.391
_cell_measurement_theta_min      3.877
_cell_volume                     1341.100(19)
_computing_cell_refinement       'CrysAlisPro 1.171.41.93a (Rigaku OD, 2020)'
_computing_data_collection       'CrysAlisPro 1.171.41.93a (Rigaku OD, 2020)'
_computing_data_reduction        'CrysAlisPro 1.171.41.93a (Rigaku OD, 2020)'
_computing_molecular_graphics    'Olex2 (Dolomanov et al., 2009)'
_computing_publication_material  'Olex2 (Dolomanov et al., 2009)'
_computing_structure_refinement  'ShelXL (Sheldrick, 2015)'
_computing_structure_solution    'ShelXS (Sheldrick, 2008)'
_diffrn_ambient_environment      N~2~
_diffrn_ambient_temperature      150.01(10)
_diffrn_detector                 'CCD plate'
_diffrn_detector_area_resol_mean 5.2012
_diffrn_detector_type            Atlas
_diffrn_measured_fraction_theta_full 0.992
_diffrn_measured_fraction_theta_max 0.993
_diffrn_measurement_details
;
List of Runs (angles in degrees, time in seconds):

  # Type    Start    End  Width  t~exp~   \w     \q     \k     \f   Frames
#--------------------------------------------------------------------------
  1  \w   -116.00 -18.00   1.00    1.00    --  -42.13 -38.00   0.00   98
  2  \w   -116.00 -18.00   1.00    1.00    --  -42.13 -38.00 -60.00   98
  3  \w    -30.00  70.00   1.00    1.00    --   42.13 -57.00-120.00  100
  4  \w    -20.00  83.00   1.00    1.00    --   42.13 -99.00 150.00  103
  5  \w      2.00  98.00   1.00    1.00    --   42.13-125.00-150.00   96
  6  \w     35.00 118.00   1.00    1.00    --  107.93-125.00  60.00   83
  7  \w     80.00 158.00   1.00    1.00    --  107.93  30.00 -90.00   78
  8  \w     25.00 110.00   1.00    1.00    --  107.93 -94.00  90.00   85
  9  \w     35.00 118.00   1.00    1.00    --  107.93-125.00 -90.00   83
 10  \w     36.00 137.00   1.00    1.00    --  107.93 -61.00   0.00  101
 11  \w     32.00  69.00   1.00    1.00    --  107.93 -30.00  90.00   37
 12  \w     82.00 158.00   1.00    1.00    --  107.93  45.00 -30.00   76
 13  \w     32.00  69.00   1.00    1.00    --  107.93 -30.00 -30.00   37
 14  \w     32.00 141.00   1.00    1.00    --  107.93 -77.00  90.00  109
 15  \w     32.00  69.00   1.00    1.00    --  107.93 -30.00 -60.00   37
 16  \w     35.00 118.00   1.00    1.00    --  107.93-125.00 -30.00   83
 17  \w     32.00  69.00   1.00    1.00    --  107.93 -30.00 120.00   37
 18  \w     55.00 158.00   1.00    1.00    --  107.93  15.00 120.00  103
 19  \w     32.00  69.00   1.00    1.00    --  107.93 -30.00 150.00   37
 20  \w     36.00 137.00   1.00    1.00    --  107.93 -61.00-120.00  101
 21  \w   -118.00 -10.00   1.00    1.00    --  -42.13 -77.00 120.00  108
 22  \w   -118.00 -46.00   1.00    1.00    --  -42.13 -77.00 -90.00   72
 23  \w   -115.00 -14.00   1.00    1.00    --  -42.13 -57.00-180.00  101
;
_diffrn_measurement_device       'four-circle diffractometer'
_diffrn_measurement_device_type  'SuperNova, Single source at offset/far, Atlas'
_diffrn_measurement_method       '\w scans'
_diffrn_orient_matrix_type
'CrysAlisPro convention (1999,Acta A55,543-557)'
_diffrn_orient_matrix_UB_11      -0.2924024
_diffrn_orient_matrix_UB_12      0.015658
_diffrn_orient_matrix_UB_13      -0.0016663
_diffrn_orient_matrix_UB_21      -0.0004995
_diffrn_orient_matrix_UB_22      -0.0298542
_diffrn_orient_matrix_UB_23      -0.066485
_diffrn_orient_matrix_UB_31      -0.0347125
_diffrn_orient_matrix_UB_32      -0.1316018
_diffrn_orient_matrix_UB_33      0.0148982
_diffrn_radiation_monochromator  mirror
_diffrn_radiation_probe          x-ray
_diffrn_radiation_type           CuK\a
_diffrn_radiation_wavelength     1.54184
_diffrn_reflns_av_R_equivalents  0.027
_diffrn_reflns_av_unetI/netI     0.0334
_diffrn_reflns_Laue_measured_fraction_full 0.992
_diffrn_reflns_Laue_measured_fraction_max 0.993
_diffrn_reflns_limit_h_max       6
_diffrn_reflns_limit_h_min       -6
_diffrn_reflns_limit_k_max       9
_diffrn_reflns_limit_k_min       -13
_diffrn_reflns_limit_l_max       27
_diffrn_reflns_limit_l_min       -27
_diffrn_reflns_number            14622
_diffrn_reflns_point_group_measured_fraction_full 0.995
_diffrn_reflns_point_group_measured_fraction_max 0.995
_diffrn_reflns_theta_full        67.684
_diffrn_reflns_theta_max         68.997
_diffrn_reflns_theta_min         4.363
_diffrn_source                   'micro-focus sealed X-ray tube'
_diffrn_source_current           0.8
_diffrn_source_power             0.04
_diffrn_source_type              'SuperNova (Cu) X-ray Source'
_diffrn_source_voltage           50
_exptl_absorpt_coefficient_mu    0.664
_exptl_absorpt_correction_T_max  0.927
_exptl_absorpt_correction_T_min  0.76
_exptl_absorpt_correction_type   analytical
_exptl_absorpt_process_details
;
        CrysAlisPro 1.171.41.93a (Rigaku Oxford Diffraction, 2020)
Analytical numeric absorption correction using a multifaceted crystal
        model based on expressions derived by R.C. Clark & J.S. Reid.
        (Clark, R. C. & Reid, J. S. (1995). Acta Cryst. A51, 887-897)
        Empirical absorption correction using spherical harmonics,
        implemented in SCALE3 ABSPACK scaling algorithm.
;
_exptl_crystal_colour            colourless
_exptl_crystal_density_diffrn    1.264
_exptl_crystal_description       plate
_exptl_crystal_F_000             544
_exptl_crystal_size_max          0.745
_exptl_crystal_size_mid          0.271
_exptl_crystal_size_min          0.122
_refine_diff_density_max         0.145
_refine_diff_density_min         -0.171
_refine_diff_density_rms         0.035
_refine_ls_abs_structure_details
;
 Flack x determined using 1414 quotients [(I+)-(I-)]/[(I+)+(I-)]
 (Parsons, Flack and Wagner, Acta Cryst. B69 (2013) 249-259).
 The Friedel pair coverage of the experiment is almost complete 
 (100%). Analysis of the absolute structure using likelihood methods
 (Hooft, Straver & Spek, 2008) was performed using PLATON
 (Spek, 2009). The resulting value was y=-0.02(6).
;
_refine_ls_abs_structure_Flack   -0.04(7)
_refine_ls_extinction_method     none
_refine_ls_goodness_of_fit_ref   1.075
_refine_ls_hydrogen_treatment    constr
_refine_ls_matrix_type           full
_refine_ls_number_parameters     173
_refine_ls_number_reflns         2484
_refine_ls_number_restraints     0
_refine_ls_restrained_S_all      1.075
_refine_ls_R_factor_all          0.0286
_refine_ls_R_factor_gt           0.0281
_refine_ls_shift/su_max          0
_refine_ls_shift/su_mean         0
_refine_ls_structure_factor_coef Fsqd
_refine_ls_weighting_details
'w=1/[\s^2^(Fo^2^)+(0.0427P)^2^+0.1690P] where P=(Fo^2^+2Fc^2^)/3'
_refine_ls_weighting_scheme      calc
_refine_ls_wR_factor_gt          0.0721
_refine_ls_wR_factor_ref         0.0725
_reflns_Friedel_coverage         0.683
_reflns_Friedel_fraction_full    0.999
_reflns_Friedel_fraction_max     0.999
_reflns_number_gt                2433
_reflns_number_total             2484
_reflns_threshold_expression     'I > 2\s(I)'
_iucr_refine_instructions_details
;
TITL a20190015_IA32CA2T150K in P212121 #19
    a20190015_ia32ca2t150k.res
    created by SHELXL-2018/3 at 12:23:46 on 28-Jul-2023
REM reset to P212121 #19
CELL 1.54184 5.23281 11.33461 22.61104 90 90 90
ZERR 4 0.00004 0.00009 0.0002 0 0 0
LATT -1
SYMM 0.5-X,-Y,0.5+Z
SYMM 0.5+X,0.5-Y,-Z
SYMM -X,0.5+Y,0.5-Z
SFAC C H N O
UNIT 64 68 4 8

L.S. 10
PLAN  5
TEMP -123
BOND
BOND $H
CONF
fmap 2
acta
OMIT -2 138
REM <olex2.extras>
REM <HklSrc "%.\\a20190015_IA32CA2T150K.hkl">
REM </olex2.extras>

WGHT    0.042700    0.169000
FVAR      15.72033
O1    4   -0.845914   -0.866644   -0.163607    11.00000    0.02321    0.02974 =
         0.02622    0.00030   -0.00373   -0.00101
O2    4   -1.314099   -1.005403   -0.250813    11.00000    0.03102    0.02220 =
         0.02354   -0.00130    0.00082   -0.00591
N1    3   -1.278583   -0.864331   -0.158629    11.00000    0.02247    0.02783 =
         0.01933   -0.00164   -0.00188    0.00042
AFIX  43
H1    2   -1.422301   -0.881738   -0.176858    11.00000   -1.20000
AFIX   0
C1    1   -1.056893   -0.890021   -0.184833    11.00000    0.02414    0.01769 =
         0.02046    0.00336   -0.00118    0.00061
C2    1   -1.075961   -0.945435   -0.246308    11.00000    0.02276    0.01971 =
         0.02161    0.00103    0.00044    0.00250
AFIX  13
H2    2   -0.934184   -1.003746   -0.251304    11.00000   -1.20000
AFIX   0
C3    1   -1.050039   -0.849921   -0.293116    11.00000    0.02238    0.01863 =
         0.01851   -0.00157   -0.00271   -0.00103
C4    1   -0.845428   -0.847629   -0.332301    11.00000    0.02007    0.02754 =
         0.02756    0.00082   -0.00007    0.00260
AFIX  43
H4    2   -0.717115   -0.906767   -0.330150    11.00000   -1.20000
AFIX   0
C5    1   -0.828033   -0.759018   -0.374638    11.00000    0.02333    0.03525 =
         0.02617    0.00322    0.00322   -0.00618
AFIX  43
H5    2   -0.688045   -0.758275   -0.401388    11.00000   -1.20000
AFIX   0
C6    1   -1.012451   -0.672009   -0.378178    11.00000    0.03178    0.02419 =
         0.02556    0.00484   -0.00502   -0.00829
AFIX  43
H6    2   -0.999129   -0.611430   -0.407049    11.00000   -1.20000
AFIX   0
C7    1   -1.217457   -0.673902   -0.339155    11.00000    0.02889    0.01897 =
         0.02800   -0.00047   -0.00591    0.00178
AFIX  43
H7    2   -1.344756   -0.614295   -0.341279    11.00000   -1.20000
AFIX   0
C8    1   -1.236854   -0.762420   -0.297161    11.00000    0.02392    0.02261 =
         0.02162   -0.00219   -0.00039    0.00075
AFIX  43
H8    2   -1.378516   -0.763577   -0.270891    11.00000   -1.20000
AFIX   0
C9    1   -1.318084   -1.085380   -0.299390    11.00000    0.04991    0.02395 =
         0.02811   -0.00453   -0.00229   -0.00662
AFIX 137
H9A   2   -1.276015   -1.042929   -0.335871    11.00000   -1.50000
H9B   2   -1.488785   -1.120226   -0.302958    11.00000   -1.50000
H9C   2   -1.192192   -1.148013   -0.292765    11.00000   -1.50000
AFIX   0
C10   1   -1.289364   -0.808101   -0.100510    11.00000    0.02998    0.02401 =
         0.02172   -0.00365    0.00035    0.00258
AFIX  23
H10A  2   -1.452917   -0.764857   -0.096713    11.00000   -1.20000
H10B  2   -1.148818   -0.749982   -0.097308    11.00000   -1.20000
AFIX   0
C11   1   -1.267339   -0.896095   -0.050431    11.00000    0.02461    0.02328 =
         0.01851   -0.00621    0.00161    0.00269
C12   1   -1.449665   -0.984551   -0.044424    11.00000    0.02417    0.03470 =
         0.02399   -0.00449    0.00004   -0.00118
AFIX  43
H12   2   -1.589445   -0.987949   -0.071180    11.00000   -1.20000
AFIX   0
C13   1   -1.429389   -1.067762    0.000210    11.00000    0.03074    0.03219 =
         0.03056   -0.00033    0.00666   -0.00582
AFIX  43
H13   2   -1.553999   -1.128330    0.003636    11.00000   -1.20000
AFIX   0
C14   1   -1.227303   -1.062843    0.039961    11.00000    0.03634    0.03508 =
         0.02612    0.00556    0.00506    0.00528
AFIX  43
H14   2   -1.213147   -1.119828    0.070597    11.00000   -1.20000
AFIX   0
C15   1   -1.047127   -0.974471    0.034603    11.00000    0.03008    0.04184 =
         0.02432   -0.00111   -0.00380    0.00161
AFIX  43
H15   2   -0.909580   -0.970272    0.061943    11.00000   -1.20000
AFIX   0
C16   1   -1.065636   -0.891559   -0.010551    11.00000    0.02486    0.02869 =
         0.02642   -0.00471   -0.00006   -0.00207
AFIX  43
H16   2   -0.939793   -0.831572   -0.014132    11.00000   -1.20000
AFIX   0
HKLF 4




REM  a20190015_IA32CA2T150K in P212121 #19
REM wR2 = 0.0725, GooF = S = 1.075, Restrained GooF = 1.075 for all data
REM R1 = 0.0281 for 2433 Fo > 4sig(Fo) and 0.0286 for all 2484 data
REM 173 parameters refined using 0 restraints

END  
     
WGHT      0.0427      0.1690 

REM Highest difference peak  0.145,  deepest hole -0.171,  1-sigma level  0.035
Q1    1  -1.2164 -0.8680 -0.0220  11.00000  0.05    0.14
Q2    1  -1.0704 -0.9011 -0.2737  11.00000  0.05    0.14
Q3    1  -1.1877 -0.8301 -0.3084  11.00000  0.05    0.13
Q4    1  -1.5456 -0.7187 -0.1357  11.00000  0.05    0.12
Q5    1  -1.6053 -0.6520 -0.3527  11.00000  0.05    0.11

  REM The information below was added by Olex2.
  REM
  REM R1 = 0.0281 for 2433 Fo > 4sig(Fo) and 0.0286 for all 15214 data
  REM n/a parameters refined using n/a restraints
  REM Highest difference peak 0.14, deepest hole -0.17
  REM Mean Shift 0, Max Shift 0.000.

  REM +++ Tabular Listing of Refinement Information +++
  REM R1_all = 0.0286
  REM R1_gt = 0.0281
  REM wR_ref = 0.0725
  REM GOOF = 1.075
  REM Shift_max = 0.000
  REM Shift_mean = 0
  REM Reflections_all = 15214
  REM Reflections_gt = 2433
  REM Parameters = n/a
  REM Hole = -0.17
  REM Peak = 0.14
  REM Flack = -0.04(8)

  
;
_cod_data_source_file            d3cy01429k2.cif
_cod_data_source_block           a20190015_ia32ca2t150k
_cod_depositor_comments
'Adding full bibliography for 1570630--1570631.cif.'
_cod_original_cell_volume        1341.10(2)
_cod_database_code               1570630
loop_
_symmetry_equiv_pos_as_xyz
'x, y, z'
'-x+1/2, -y, z+1/2'
'x+1/2, -y+1/2, -z'
'-x, y+1/2, -z+1/2'
loop_
_atom_site_label
_atom_site_type_symbol
_atom_site_fract_x
_atom_site_fract_y
_atom_site_fract_z
_atom_site_U_iso_or_equiv
_atom_site_adp_type
_atom_site_occupancy
_atom_site_site_symmetry_order
_atom_site_calc_flag
_atom_site_refinement_flags_posn
_atom_site_refinement_flags_adp
_atom_site_refinement_flags_occupancy
_atom_site_disorder_assembly
_atom_site_disorder_group
O1 O -0.8459(2) -0.86664(10) -0.16361(5) 0.0264(3) Uani 1 1 d . . . . .
O2 O -1.3141(2) -1.00540(9) -0.25081(5) 0.0256(3) Uani 1 1 d . . . . .
N1 N -1.2786(3) -0.86433(11) -0.15863(5) 0.0232(3) Uani 1 1 d . . . . .
H1 H -1.422301 -0.881738 -0.176858 0.028 Uiso 1 1 calc R . . . .
C1 C -1.0569(3) -0.89002(12) -0.18483(7) 0.0208(3) Uani 1 1 d . . . . .
C2 C -1.0760(3) -0.94544(13) -0.24631(7) 0.0214(3) Uani 1 1 d . . . . .
H2 H -0.934184 -1.003746 -0.251304 0.026 Uiso 1 1 calc R . . . .
C3 C -1.0500(3) -0.84992(13) -0.29312(6) 0.0198(3) Uani 1 1 d . . . . .
C4 C -0.8454(3) -0.84763(14) -0.33230(7) 0.0251(3) Uani 1 1 d . . . . .
H4 H -0.717115 -0.906767 -0.33015 0.03 Uiso 1 1 calc R . . . .
C5 C -0.8280(3) -0.75902(15) -0.37464(7) 0.0283(4) Uani 1 1 d . . . . .
H5 H -0.688045 -0.758275 -0.401388 0.034 Uiso 1 1 calc R . . . .
C6 C -1.0125(3) -0.67201(14) -0.37818(7) 0.0272(4) Uani 1 1 d . . . . .
H6 H -0.999129 -0.61143 -0.407049 0.033 Uiso 1 1 calc R . . . .
C7 C -1.2175(3) -0.67390(13) -0.33916(7) 0.0253(3) Uani 1 1 d . . . . .
H7 H -1.344756 -0.614295 -0.341279 0.03 Uiso 1 1 calc R . . . .
C8 C -1.2369(3) -0.76242(13) -0.29716(6) 0.0227(3) Uani 1 1 d . . . . .
H8 H -1.378516 -0.763577 -0.270891 0.027 Uiso 1 1 calc R . . . .
C9 C -1.3181(4) -1.08538(15) -0.29939(7) 0.0340(4) Uani 1 1 d . . . . .
H9A H -1.276015 -1.042929 -0.335871 0.051 Uiso 1 1 calc GR . . . .
H9B H -1.488785 -1.120226 -0.302958 0.051 Uiso 1 1 calc GR . . . .
H9C H -1.192192 -1.148013 -0.292765 0.051 Uiso 1 1 calc GR . . . .
C10 C -1.2894(3) -0.80810(14) -0.10051(6) 0.0252(3) Uani 1 1 d . . . . .
H10A H -1.452917 -0.764857 -0.096713 0.03 Uiso 1 1 calc R . . . .
H10B H -1.148818 -0.749982 -0.097308 0.03 Uiso 1 1 calc R . . . .
C11 C -1.2673(3) -0.89610(13) -0.05043(6) 0.0221(3) Uani 1 1 d . . . . .
C12 C -1.4497(3) -0.98455(14) -0.04442(7) 0.0276(4) Uani 1 1 d . . . . .
H12 H -1.589445 -0.987949 -0.07118 0.033 Uiso 1 1 calc R . . . .
C13 C -1.4294(4) -1.06776(15) 0.00021(7) 0.0312(4) Uani 1 1 d . . . . .
H13 H -1.553999 -1.12833 0.003636 0.037 Uiso 1 1 calc R . . . .
C14 C -1.2273(3) -1.06284(15) 0.03996(7) 0.0325(4) Uani 1 1 d . . . . .
H14 H -1.213147 -1.119828 0.070597 0.039 Uiso 1 1 calc R . . . .
C15 C -1.0471(4) -0.97447(16) 0.03460(7) 0.0321(4) Uani 1 1 d . . . . .
H15 H -0.90958 -0.970272 0.061943 0.038 Uiso 1 1 calc R . . . .
C16 C -1.0656(3) -0.89156(14) -0.01055(7) 0.0267(3) Uani 1 1 d . . . . .
H16 H -0.939793 -0.831572 -0.014132 0.032 Uiso 1 1 calc R . . . .
loop_
_atom_site_aniso_label
_atom_site_aniso_U_11
_atom_site_aniso_U_22
_atom_site_aniso_U_33
_atom_site_aniso_U_23
_atom_site_aniso_U_13
_atom_site_aniso_U_12
O1 0.0232(5) 0.0297(6) 0.0262(5) 0.0003(4) -0.0037(5) -0.0010(5)
O2 0.0310(6) 0.0222(5) 0.0235(5) -0.0013(4) 0.0008(5) -0.0059(4)
N1 0.0225(6) 0.0278(7) 0.0193(6) -0.0016(5) -0.0019(5) 0.0004(6)
C1 0.0241(7) 0.0177(7) 0.0205(7) 0.0034(5) -0.0012(6) 0.0006(6)
C2 0.0228(7) 0.0197(7) 0.0216(7) 0.0010(6) 0.0004(6) 0.0025(6)
C3 0.0224(7) 0.0186(7) 0.0185(7) -0.0016(5) -0.0027(6) -0.0010(6)
C4 0.0201(7) 0.0275(8) 0.0276(8) 0.0008(6) -0.0001(7) 0.0026(6)
C5 0.0233(7) 0.0353(9) 0.0262(7) 0.0032(6) 0.0032(7) -0.0062(7)
C6 0.0318(9) 0.0242(7) 0.0256(7) 0.0048(6) -0.0050(7) -0.0083(7)
C7 0.0289(8) 0.0190(7) 0.0280(7) -0.0005(6) -0.0059(7) 0.0018(6)
C8 0.0239(7) 0.0226(7) 0.0216(7) -0.0022(5) -0.0004(6) 0.0008(6)
C9 0.0499(11) 0.0240(8) 0.0281(8) -0.0045(6) -0.0023(8) -0.0066(8)
C10 0.0300(8) 0.0240(7) 0.0217(7) -0.0036(6) 0.0004(7) 0.0026(6)
C11 0.0246(7) 0.0233(7) 0.0185(7) -0.0062(6) 0.0016(6) 0.0027(6)
C12 0.0242(7) 0.0347(8) 0.0240(8) -0.0045(6) 0.0000(6) -0.0012(7)
C13 0.0307(9) 0.0322(9) 0.0306(8) -0.0003(7) 0.0067(7) -0.0058(7)
C14 0.0363(10) 0.0351(9) 0.0261(8) 0.0056(7) 0.0051(7) 0.0053(8)
C15 0.0301(8) 0.0418(10) 0.0243(8) -0.0011(7) -0.0038(7) 0.0016(8)
C16 0.0249(7) 0.0287(8) 0.0264(7) -0.0047(6) -0.0001(7) -0.0021(7)
loop_
_atom_type_symbol
_atom_type_description
_atom_type_scat_dispersion_real
_atom_type_scat_dispersion_imag
_atom_type_scat_source
C C 0.0181 0.0091 'International Tables Vol C Tables 4.2.6.8 and 6.1.1.4'
H H 0 0 'International Tables Vol C Tables 4.2.6.8 and 6.1.1.4'
N N 0.0311 0.018 'International Tables Vol C Tables 4.2.6.8 and 6.1.1.4'
O O 0.0492 0.0322 'International Tables Vol C Tables 4.2.6.8 and 6.1.1.4'
loop_
_exptl_crystal_face_index_h
_exptl_crystal_face_index_k
_exptl_crystal_face_index_l
_exptl_crystal_face_perp_dist
0 -7 3 0.1085
0 0 -1 0.0763
0 0 1 0.046
-2 -6 1 0.2558
3 -3 4 0.2471
0 7 -4 0.1257
-3 4 -4 0.2918
loop_
_geom_angle_atom_site_label_1
_geom_angle_atom_site_label_2
_geom_angle_atom_site_label_3
_geom_angle
_geom_angle_site_symmetry_1
_geom_angle_site_symmetry_3
_geom_angle_publ_flag
C2 O2 C9 111.84(12) . . ?
C1 N1 H1 119.1 . . ?
C1 N1 C10 121.86(13) . . ?
C10 N1 H1 119.1 . . ?
O1 C1 N1 123.97(13) . . ?
O1 C1 C2 120.06(14) . . ?
N1 C1 C2 115.88(13) . . ?
O2 C2 C1 108.57(12) . . ?
O2 C2 H2 109 . . ?
O2 C2 C3 111.62(12) . . ?
C1 C2 H2 109 . . ?
C3 C2 C1 109.55(11) . . ?
C3 C2 H2 109 . . ?
C4 C3 C2 121.73(13) . . ?
C4 C3 C8 118.98(13) . . ?
C8 C3 C2 119.29(13) . . ?
C3 C4 H4 119.9 . . ?
C3 C4 C5 120.18(14) . . ?
C5 C4 H4 119.9 . . ?
C4 C5 H5 119.7 . . ?
C6 C5 C4 120.63(15) . . ?
C6 C5 H5 119.7 . . ?
C5 C6 H6 120.3 . . ?
C5 C6 C7 119.43(14) . . ?
C7 C6 H6 120.3 . . ?
C6 C7 H7 119.9 . . ?
C8 C7 C6 120.21(14) . . ?
C8 C7 H7 119.9 . . ?
C3 C8 H8 119.7 . . ?
C7 C8 C3 120.55(14) . . ?
C7 C8 H8 119.7 . . ?
O2 C9 H9A 109.5 . . ?
O2 C9 H9B 109.5 . . ?
O2 C9 H9C 109.5 . . ?
H9A C9 H9B 109.5 . . ?
H9A C9 H9C 109.5 . . ?
H9B C9 H9C 109.5 . . ?
N1 C10 H10A 109.1 . . ?
N1 C10 H10B 109.1 . . ?
N1 C10 C11 112.48(12) . . ?
H10A C10 H10B 107.8 . . ?
C11 C10 H10A 109.1 . . ?
C11 C10 H10B 109.1 . . ?
C12 C11 C10 119.73(14) . . ?
C16 C11 C10 121.28(14) . . ?
C16 C11 C12 118.98(14) . . ?
C11 C12 H12 119.7 . . ?
C13 C12 C11 120.63(15) . . ?
C13 C12 H12 119.7 . . ?
C12 C13 H13 119.9 . . ?
C12 C13 C14 120.16(16) . . ?
C14 C13 H13 119.9 . . ?
C13 C14 H14 120.3 . . ?
C15 C14 C13 119.48(15) . . ?
C15 C14 H14 120.3 . . ?
C14 C15 H15 119.8 . . ?
C14 C15 C16 120.46(16) . . ?
C16 C15 H15 119.8 . . ?
C11 C16 C15 120.29(15) . . ?
C11 C16 H16 119.9 . . ?
C15 C16 H16 119.9 . . ?
loop_
_geom_bond_atom_site_label_1
_geom_bond_atom_site_label_2
_geom_bond_distance
_geom_bond_site_symmetry_2
_geom_bond_publ_flag
O1 C1 1.2326(19) . ?
O2 C2 1.4231(18) . ?
O2 C9 1.4243(18) . ?
N1 H1 0.88 . ?
N1 C1 1.335(2) . ?
N1 C10 1.4616(18) . ?
C1 C2 1.529(2) . ?
C2 H2 1 . ?
C2 C3 1.520(2) . ?
C3 C4 1.390(2) . ?
C3 C8 1.396(2) . ?
C4 H4 0.95 . ?
C4 C5 1.390(2) . ?
C5 H5 0.95 . ?
C5 C6 1.382(2) . ?
C6 H6 0.95 . ?
C6 C7 1.389(2) . ?
C7 H7 0.95 . ?
C7 C8 1.385(2) . ?
C8 H8 0.95 . ?
C9 H9A 0.98 . ?
C9 H9B 0.98 . ?
C9 H9C 0.98 . ?
C10 H10A 0.99 . ?
C10 H10B 0.99 . ?
C10 C11 1.513(2) . ?
C11 C12 1.391(2) . ?
C11 C16 1.389(2) . ?
C12 H12 0.95 . ?
C12 C13 1.385(2) . ?
C13 H13 0.95 . ?
C13 C14 1.389(2) . ?
C14 H14 0.95 . ?
C14 C15 1.381(3) . ?
C15 H15 0.95 . ?
C15 C16 1.391(2) . ?
C16 H16 0.95 . ?
loop_
_geom_torsion_atom_site_label_1
_geom_torsion_atom_site_label_2
_geom_torsion_atom_site_label_3
_geom_torsion_atom_site_label_4
_geom_torsion
_geom_torsion_site_symmetry_1
_geom_torsion_site_symmetry_2
_geom_torsion_site_symmetry_3
_geom_torsion_site_symmetry_4
_geom_torsion_publ_flag
O1 C1 C2 O2 157.01(13) . . . . ?
O1 C1 C2 C3 -80.86(17) . . . . ?
O2 C2 C3 C4 -124.16(14) . . . . ?
O2 C2 C3 C8 55.53(17) . . . . ?
N1 C1 C2 O2 -26.37(17) . . . . ?
N1 C1 C2 C3 95.76(15) . . . . ?
N1 C10 C11 C12 -60.94(19) . . . . ?
N1 C10 C11 C16 118.09(15) . . . . ?
C1 N1 C10 C11 -84.17(18) . . . . ?
C1 C2 C3 C4 115.55(15) . . . . ?
C1 C2 C3 C8 -64.76(17) . . . . ?
C2 C3 C4 C5 179.89(14) . . . . ?
C2 C3 C8 C7 179.63(13) . . . . ?
C3 C4 C5 C6 0.3(2) . . . . ?
C4 C3 C8 C7 -0.7(2) . . . . ?
C4 C5 C6 C7 -0.3(2) . . . . ?
C5 C6 C7 C8 -0.1(2) . . . . ?
C6 C7 C8 C3 0.6(2) . . . . ?
C8 C3 C4 C5 0.2(2) . . . . ?
C9 O2 C2 C1 -163.87(12) . . . . ?
C9 O2 C2 C3 75.27(14) . . . . ?
C10 N1 C1 O1 -1.8(2) . . . . ?
C10 N1 C1 C2 -178.29(12) . . . . ?
C10 C11 C12 C13 178.35(14) . . . . ?
C10 C11 C16 C15 -179.01(14) . . . . ?
C11 C12 C13 C14 0.7(2) . . . . ?
C12 C11 C16 C15 0.0(2) . . . . ?
C12 C13 C14 C15 0.0(2) . . . . ?
C13 C14 C15 C16 -0.7(3) . . . . ?
C14 C15 C16 C11 0.7(2) . . . . ?
C16 C11 C12 C13 -0.7(2) . . . . ?
loop_
_refln_index_h
_refln_index_k
_refln_index_l
_refln_F_squared_meas
_refln_F_squared_sigma
_refln_scale_group_code
0 0 3 33.8552 52.0972 21
0 0 3 77.6603 41.0309 3
0 0 -3 67.8718 47.2185 2
0 0 4 300397 4973.33 21
0 0 -4 301639 4974.28 22
0 0 -4 299649 4882.72 2
0 0 5 -20.3756 101.557 21
0 0 -5 46.0922 88.1696 22
0 0 5 14.178 63.018 3
0 0 -5 4.32375 64.6708 2
0 0 -7 182.497 120.018 22
0 0 7 -48.3286 113.992 21
0 0 -7 -12.346 85.7037 2
0 0 7 -25.7186 77.6702 3
0 0 -8 3104.34 315.468 22
0 0 8 3079.72 300.375 21
0 0 -8 3142.41 277.313 2
0 0 8 3720.49 299.679 3
0 0 -9 16.9296 133.975 22
0 0 9 36.0983 118.958 21
0 0 9 252.463 124.948 3
0 0 -9 122.991 94.6435 2
0 0 10 221728 4322.33 21
0 0 -10 223265 4391.09 22
0 0 10 217767 4154.77 3
0 0 -10 218260 4141.69 2
0 0 11 29.8334 129.679 21
0 0 -11 94.5059 102.59 2
0 0 11 133.658 143.303 3
0 0 -12 95354.9 2578.35 22
0 0 12 98019.8 2525.81 21
0 0 -12 93158 2318.77 2
0 0 12 96789.8 2361.99 3
0 0 13 -74.0047 163.803 21
0 0 -13 116.664 160.149 22
0 0 13 67.7797 137.261 3
0 0 -14 440395 8313.52 22
0 0 14 430233 8141.42 21
0 0 14 423182 7886.63 3
0 0 15 69.9241 150.631 21
0 0 -15 253.377 201.373 22
0 0 -16 5042.49 545.93 7
0 0 16 4727.76 554.002 3
0 0 -16 4525.76 602.705 22
0 0 16 5548.73 628.272 21
0 0 -17 -50.0657 183.949 7
0 0 17 25.3557 204.7 3
0 0 -17 8.40334 170.532 22
0 0 17 58.9668 180.741 21
0 0 17 127.56 181.479 18
0 0 -18 31546.4 1557.16 7
0 0 18 34032.1 1640.7 3
0 0 18 30760 1473.21 18
0 0 -18 30729.8 1732.39 22
0 0 18 30943.5 1660.42 21
0 0 19 135.672 242.915 3
0 0 -19 -34.8531 166.567 22
0 0 19 200.878 210.129 21
0 0 19 -76.7433 191.344 18
0 0 -20 287169 6342.72 7
0 0 20 276656 6132.01 18
0 0 -21 235.827 304.953 7
0 0 21 984.677 387.979 18
0 0 -22 93832.7 3072.03 7
0 0 22 94142.2 2965.11 18
0 0 -23 964.019 407.5 7
0 0 23 442.358 250.862 18
0 0 -24 429457 8789.2 7
0 0 24 434083 8533.53 18
0 0 -25 246.251 266.806 7
0 0 25 8.54412 169.858 20
0 0 25 283.878 243.628 18
0 0 -26 129.512 200.56 7
0 0 26 -143.585 233.231 16
0 0 -27 596.599 250.088 7
0 0 27 316.309 190.567 16
0 0 -28 6103.7 488.876 7
0 -1 0 535.377 50.4713 5
0 -1 0 435.951 41.517 3
0 -1 -1 4126.27 164.453 22
0 1 1 3255.62 164.493 21
0 -1 1 3035.81 130.204 3
0 -1 -1 4139.64 187.094 4
0 1 -1 3200.81 108.606 2
0 -1 -1 2839.91 117.115 5
0 -1 1 3140.35 157.645 4
0 -1 3 223033 3806.47 21
0 -1 -3 235220 3810.72 22
0 1 3 230681 3829.79 21
0 -1 3 225842 3768.31 3
0 1 -3 232924 3674.94 2
0 -1 -3 224876 3766.17 2
0 -1 3 226037 3797.98 4
0 1 4 1871.46 185.522 21
0 -1 4 1977.67 177.434 21
0 -1 -4 1888.54 164.54 2
0 1 4 1857.96 134.816 3
0 -1 -4 1807.05 102.385 5
0 1 -4 2190.66 145.145 2
0 -1 4 2325.67 149.624 5
0 -1 4 2126.72 175.167 3
0 1 5 113.742 112.152 21
0 -1 -5 235.731 96.1778 22
0 1 -5 92.7555 63.2494 2
0 -1 -5 83.0532 82.0159 2
0 1 5 171.948 70.1907 3
0 -1 -6 338557 5703.06 22
0 1 6 330871 5688.89 21
0 -1 6 337758 5682.56 21
0 -1 -6 326212 5592.83 2
0 -1 6 325134 5593.61 3
0 -1 6 328276 5400.73 5
0 1 -6 341421 5478.47 2
0 1 7 6565 427.912 21
0 -1 -7 7708.04 454.454 22
0 -1 7 6646.31 416.61 21
0 -1 7 6638.49 388.42 3
0 1 -7 6488.43 341.678 2
0 -1 -7 5974.45 371.099 2
0 1 7 6308.59 341.308 3
0 1 8 246795 4645.44 21
0 -1 -8 251827 4682.28 22
0 -1 8 248487 4636.74 21
0 -1 -8 251820 4533.99 2
0 1 8 256297 4423.39 3
0 -1 8 253482 4535.06 3
0 1 -8 253523 4411.12 2
0 1 -9 258910 4708.91 22
0 -1 9 247422 4635.26 21
0 1 9 251959 4664.85 21
0 -1 -9 255708 4722.74 22
0 1 9 249369 4391.75 3
0 -1 -9 234498 3886.57 5
0 -1 -9 246284 4518.07 2
0 1 -9 248884 4375.12 2
0 -1 9 248829 4521.55 3
0 -1 -10 128182 2949.39 22
0 -1 10 124574 2869.69 21
0 1 -10 129175 2936.5 22
0 1 10 128771 2898.37 21
0 1 -10 127368 2649.52 2
0 -1 10 130660 2789.54 3
0 -1 -10 125382 2756.02 2
0 1 10 128237 2668.93 3
0 -1 11 145303 3282.17 21
0 1 -11 148895 3340.44 22
0 -1 -11 144239 3345.74 22
0 1 11 149349 3310.6 21
0 1 11 147148 3041.39 3
0 1 -11 144847 3009.42 2
0 -1 11 144641 3152.89 3
0 1 -12 34452.9 1384.3 22
0 1 12 34134.6 1338.01 21
0 -1 12 35298.6 1376.21 21
0 -1 -12 35647.7 1426.66 22
0 1 -12 33761.7 1166.59 2
0 -1 12 33593.6 1263.69 3
0 1 12 33845 1193.19 3
0 1 13 34497.4 1404.41 21
0 -1 -13 33389.5 1455.39 22
0 -1 13 33454.1 1406.6 21
0 1 -13 31509.6 1400.12 22
0 -1 13 34351.9 1334.64 3
0 1 13 32422.5 1230.1 3
0 -1 14 83250.6 2501.89 21
0 1 -14 85184.1 2575.69 22
0 -1 -14 78220.6 2527.71 22
0 1 14 85074.3 2483.2 21
0 1 14 81281.2 2249.52 3
0 -1 14 80713.9 2361.82 3
0 -1 15 166784 4091.79 21
0 1 15 166020 4049.86 21
0 -1 -15 162544 4184.14 22
0 1 -15 167090 4186.34 22
0 -1 15 163630 3957.04 3
0 1 15 168592 3816.81 3
0 -1 -16 88737.8 2746.73 7
0 1 -16 94048.5 2691.67 7
0 1 16 95511.1 2696.61 3
0 -1 16 95581.9 2825.96 3
0 1 16 97082.7 2896.21 21
0 1 16 90441.5 2642.74 18
0 1 -16 95421.7 3018.27 22
0 -1 -16 90723.6 2974.45 22
0 -1 16 95175.2 2922.36 21
0 -1 -17 359.806 225.248 7
0 1 -17 143.184 205.267 7
0 -1 17 110.076 168.981 3
0 1 17 -55.355 174.138 3
0 1 -17 303.76 223.668 22
0 1 17 -428.66 225.772 21
0 -1 -17 -72.7249 194.893 22
0 1 17 342.082 203.065 18
0 -1 17 -300.013 198.576 18
0 -1 -18 24232.1 1385.29 7
0 1 -18 22449.8 1270.42 7
0 1 -18 18859.7 1360.94 22
0 1 18 21662.3 1247.47 18
0 -1 -18 22082.4 1456.99 22
0 1 18 24667.6 1450.39 21
0 -1 18 23844.1 1257.72 18
0 -1 18 25114.8 1459.29 3
0 1 18 21257.3 1252.93 3
0 -1 -19 6726.84 753.933 7
0 1 -19 6518.75 715.723 7
0 -1 19 6928.49 709.348 18
0 1 19 6633.39 703.807 18
0 1 19 6699.27 775.803 21
0 1 -19 6531.75 800.156 22
0 -1 -19 6529.8 827.42 22
0 -1 19 6165.26 745.374 3
0 1 19 6879.82 725.747 3
0 -1 -20 22651 1415.89 7
0 1 -20 24258.1 1386.53 7
0 -1 20 23565.9 1328.94 18
0 1 20 22938.3 1345.67 18
0 -1 -21 73270 2696.21 7
0 1 -21 70646.4 2571.13 7
0 1 21 69775.6 2526.57 18
0 -1 21 76244.8 2544.74 18
0 -1 -22 45632.2 2057.83 7
0 1 -22 45225.1 1980.25 7
0 1 22 43151.8 1923.16 18
0 -1 22 45001.6 1864.26 18
0 1 -23 21327.5 1315.35 7
0 -1 -23 21555.5 1375.65 7
0 -1 23 20291.7 1162.2 18
0 1 23 18818.2 1199.94 18
0 -1 -24 22463.8 1366.29 7
0 1 -24 23708.7 1356.9 7
0 -1 24 23234.3 1340.17 20
0 1 24 22978.9 1279.34 18
0 -1 -25 50153.5 1985.43 7
0 1 -25 50208 1961.52 7
0 1 25 48009.3 1822.4 18
0 -1 25 49560.3 1876.46 20
0 -1 25 47198.6 1989.88 16
0 -1 -26 19529.4 1115.13 7
0 1 -26 20057.8 1104.73 7
0 1 26 17119.5 954.936 18
0 -1 26 17052.7 945.477 20
0 -1 26 16466.4 1032.91 16
0 1 -27 7479.64 611.053 7
0 -1 -27 6986.38 603.167 7
0 -1 27 4780.33 485.032 16
0 -1 -28 28958.4 1117.47 7
0 -2 0 268476 4488.9 4
0 -2 -2 332373 5543.21 22
0 2 2 349534 5641.25 21
0 -2 -2 342887 5671.83 4
0 -2 2 341435 5614.87 4
0 -2 -3 48830.8 1119.86 22
0 2 3 50233.4 1174.47 21
0 -2 3 50449 1155.55 4
0 -2 3 50580.9 1089.58 3
0 -2 -3 49062 1207.01 4
0 -2 -3 47158.3 968.682 5
0 2 -3 50772.2 929.733 2
0 -2 3 53247.6 1070.3 5
0 -2 -5 2807.4 248.891 22
0 2 5 3504.84 282.65 21
0 -2 5 2758.42 245.201 3
0 2 -5 3017.97 181.948 2
0 -2 5 2998.53 258.765 4
0 -2 5 3025.57 217.538 5
0 2 5 2868.81 179.235 3
0 -2 -5 3397.08 172.011 5
0 2 6 160359 3010.41 21
0 -2 -6 150970 2979.75 22
0 -2 -6 149599 2562.46 5
0 -2 6 147969 2434.78 1
0 2 6 156146 2707.63 3
0 -2 6 160608 2801.23 5
0 -2 6 156117 2951.31 3
0 2 -6 166117 2719.75 2
0 -2 -8 7769.69 512.2 22
0 2 8 7369.74 503.371 21
0 -2 8 7561.51 396.116 5
0 2 8 7764.26 388.597 3
0 2 -8 7540.77 378.168 2
0 -2 -8 6940.47 243.795 5
0 -2 8 7847.92 296.349 1
0 -2 8 7157.39 466.792 3
0 -2 -9 18614.9 869.783 22
0 2 9 18096.5 859.583 21
0 -2 9 18681.5 814.939 3
0 -2 9 19323.6 560.616 1
0 2 9 18740.4 690.591 3
0 2 -9 18489.4 679.086 2
0 2 10 918155 15239.9 21
0 -2 -10 927579 15313.7 22
0 2 11 196341 4159.41 21
0 2 -11 195321 4182.12 22
0 -2 -11 194373 4204.64 22
0 -2 11 191224 4019.7 3
0 2 -11 195231 3742.13 2
0 2 11 196988 3771.84 3
0 2 12 68909.2 2106.89 21
0 -2 -12 70948 2197.61 22
0 2 -12 71631.3 2179.01 22
0 2 -12 69809.7 1809.88 2
0 -2 12 72766.3 2085.39 3
0 2 12 71317.4 1852.09 3
0 2 13 247400 5105.71 21
0 -2 -13 232544 5163.51 22
0 2 -13 235570 5120.54 22
0 -2 13 240687 5000.25 3
0 2 13 241523 4698.06 3
0 2 14 213106 4715.85 21
0 2 -14 214478 4822.24 22
0 -2 -14 205374 4829.2 22
0 2 14 207826 4302.9 3
0 -2 14 204347 4623.98 3
0 2 -15 953.35 280.549 22
0 -2 -15 528.124 249.34 22
0 2 15 1328.17 317.085 21
0 2 15 938.119 242.719 3
0 -2 15 1250.33 337.447 3
0 -2 -16 60028.6 2228.57 7
0 2 -16 60087.7 2038.63 7
0 2 16 64654.5 2154.38 18
0 2 16 62187 2280.3 21
0 2 -16 64113.4 2381.9 22
0 -2 -16 62811.4 2438.28 22
0 2 16 67013.6 2078.54 3
0 -2 16 64820 2323.44 3
0 -2 -17 88413.5 2874.9 7
0 2 -17 88522.4 2659.4 7
0 2 17 85521.1 2671.38 18
0 2 17 92375 2950.23 21
0 2 -17 90043.3 3044.04 22
0 -2 -17 86741.8 3062.02 22
0 2 17 87831 2620.05 3
0 -2 17 90240.6 2951.8 3
0 -2 -18 73351.3 2679.66 7
0 2 -18 74411.9 2487.58 7
0 -2 -18 74017 2908.75 4
0 2 18 76468 2643.26 1
0 -2 18 82046.9 2857.21 3
0 -2 -18 78231.8 2941.45 22
0 2 -18 79829 2915.79 22
0 2 18 78736 2779 21
0 2 18 74508.7 2527.75 18
0 2 -19 4127.58 578.446 7
0 -2 -19 2657.88 522.649 7
0 -2 19 4717.5 676.107 3
0 -2 -19 3106.2 567.882 4
0 2 -19 5548.15 757.546 22
0 -2 -19 3722.23 622.939 22
0 2 19 3493.49 596.418 21
0 2 19 3735.81 562.166 18
0 -2 -20 74316.1 2741.79 7
0 2 -20 72570.9 2559.08 7
0 2 20 73855 2590.84 18
0 -2 -21 30507.2 1705.12 7
0 2 -21 32024.8 1635.46 7
0 2 21 30676.6 1609.11 18
0 2 -22 19301.5 1243.1 7
0 -2 -22 18754.5 1327.67 7
0 2 22 20200.2 1275.68 18
0 -2 -23 3559.36 580.883 7
0 2 -23 2944.33 512.121 7
0 -2 23 3220.06 598.95 16
0 2 23 3821.25 568.322 18
0 -2 -24 21366.8 1343.78 7
0 2 -24 20867.6 1240.86 7
0 -2 24 21670.3 1308.21 20
0 2 24 20128.7 1216.05 18
0 -2 24 21294.5 1366.86 16
0 2 -25 57582.8 2037.4 7
0 -2 -25 52003.3 2046.06 7
0 -2 25 53640.2 2000.86 20
0 2 25 52447.3 1935.45 18
0 -2 25 49629 2022.69 16
0 -2 -26 4211.16 525.816 7
0 2 -26 3713.05 469.945 7
0 2 26 3996.12 466.758 18
0 -2 26 3874.06 464.957 20
0 -2 26 4117.54 508.977 16
0 -2 -27 796.623 248.141 7
0 2 -27 1136.02 246.213 7
0 -2 27 482.235 194.144 20
0 -2 27 494.378 176.68 16
0 2 27 711.292 208.429 18
0 3 0 36.7441 55.8063 23
0 -3 0 -14.1711 73.134 5
0 -3 0 -34.2491 76.0966 4
0 -3 0 45.0403 54.8031 3
0 3 1 404420 6584.82 21
0 -3 1 386435 6549.51 4
0 -3 -1 384519 6571.16 4
0 -3 1 387876 6328.98 3
0 -3 -3 999999 15970.7 4
0 3 4 2226.02 242.982 21
0 -3 -4 1975.48 213.332 22
0 -3 -4 2039.43 249.632 4
0 3 -4 1901.81 125.779 2
0 -3 4 1615.14 194.568 3
0 -3 4 1835.92 190.117 5
0 -3 4 2038.08 233.376 4
0 -3 -5 466524 7915.85 22
0 3 5 467665 7950.27 21
0 -3 -5 477987 8111.18 4
0 -3 5 472212 7935.65 4
0 -3 5 470967 7879.16 3
0 -3 5 480162 7774.69 5
0 3 6 310119 5470.71 21
0 -3 -6 297856 5426.42 22
0 -3 6 301451 5386.99 3
0 -3 6 308011 5255.55 5
0 3 6 312725 4985.23 3
0 -3 -6 297173 4987.94 5
0 -3 6 308874 5451.97 4
0 3 -6 302965 4984.16 2
0 -3 -6 306732 5622.95 4
0 -3 -7 20079.6 850.248 22
0 3 7 20551.5 851.006 21
0 -3 7 22301.5 770.544 5
0 3 -7 23019.2 637.393 2
0 -3 -7 19887.4 914.705 4
0 -3 7 21395.8 852.61 3
0 3 7 21842.3 632.153 3
0 -3 -7 19620.8 564.345 5
0 -3 -8 579091 9850.98 22
0 3 8 595655 9834.34 21
0 -3 8 599965 9546.35 5
0 -3 8 590889 9793.2 3
0 -3 -8 595793 10058.8 4
0 3 -8 604996 9282.27 2
0 -3 -9 103667 2603.55 22
0 3 9 105125 2576.37 21
0 -3 9 110696 2351.63 5
0 3 9 106413 2166.72 3
0 -3 -9 106525 2724.31 4
0 -3 9 105605 2536.7 3
0 3 -9 107727 2146.88 2
0 -3 -10 9060.99 664.092 22
0 3 10 10612.3 711.8 21
0 3 -10 9618.85 481.237 2
0 -3 10 10183.2 557.108 5
0 -3 -10 9706.65 730.413 4
0 -3 10 9689.85 649.416 3
0 3 10 10563.6 512.003 3
0 3 11 35539.3 1416.88 21
0 -3 -11 36432.1 1476.56 22
0 3 -11 36630.4 1111.68 2
0 3 11 39032.6 1150.07 3
0 -3 11 36855 1409.48 3
0 -3 -11 36487.7 1555.46 4
0 3 -12 14940.2 920.671 22
0 -3 -12 15461.6 974.377 22
0 3 12 14504.6 904.865 21
0 3 12 15658.2 718.887 3
0 -3 12 14800 893.063 3
0 -3 -12 13670.7 977.157 4
0 -3 -13 58914.7 2123.38 22
0 3 -13 56668.3 2025.65 22
0 3 13 59667.9 2036.47 21
0 -3 13 60265 2037.26 3
0 -3 -13 56262.4 2155.89 4
0 3 13 56442.3 1647.53 3
0 3 -14 191831 4510.82 22
0 3 14 190209 4464.43 21
0 -3 -14 187657 4610.96 22
0 -3 14 186943 4447.43 3
0 -3 -14 189282 4747.57 4
0 -3 -15 23487.1 1335.42 7
0 3 15 23543.3 1202.58 18
0 -3 -15 25835.9 1460.34 22
0 3 -15 25371 1394.57 22
0 3 15 26608.3 1377.93 21
0 -3 15 26187.2 1399.92 3
0 -3 -15 25939.6 1507.74 4
0 3 -16 68331.9 2195.56 7
0 -3 -16 62540.6 2414.53 7
0 -3 16 72537.5 2553.58 3
0 -3 -16 67193.6 2647.27 4
0 -3 -16 70502.6 2630.47 22
0 3 16 65365.5 2247.21 18
0 3 16 69578.3 2468.13 21
0 3 -16 70750.4 2541.98 22
0 3 -17 1510.71 343.831 7
0 -3 -17 1764.86 438.78 7
0 -3 17 1160.98 361.244 3
0 -3 -17 1283 357.745 4
0 3 17 1027.05 309.181 21
0 3 -17 1861.97 434.381 22
0 -3 -17 1204.14 348.086 22
0 3 17 1212.33 328.252 18
0 -3 -18 -106.618 269.531 7
0 3 -18 389.517 271.712 7
0 -3 18 488.326 291.814 3
0 3 18 133.212 175.53 1
0 -3 -18 620.612 308.597 4
0 -3 -18 159.434 223.949 22
0 3 18 98.1208 158.603 21
0 3 -18 213.049 143.12 22
0 3 18 -30.2617 202.867 18
0 -3 -19 127.52 253.575 7
0 3 -19 373.356 236.275 7
0 3 19 129.117 237.149 18
0 -3 -20 9822.43 977.37 7
0 3 -20 9413.78 840.135 7
0 3 20 8453.72 830.18 18
0 -3 20 8926.89 1004.07 16
0 -3 -21 2139.06 466.76 7
0 3 -21 2467.13 451.986 7
0 3 21 2343.2 468.604 18
0 -3 21 3507.55 658.458 16
0 -3 -22 995.488 395.906 7
0 3 -22 940.402 332.681 7
0 3 22 610.912 325.134 18
0 -3 22 942.224 358.294 16
0 3 -23 14859.8 1038.4 7
0 -3 -23 13742 1103.48 7
0 3 23 13897.1 1033.9 18
0 -3 23 15191.3 1161.72 20
0 -3 23 14887.2 1198.26 16
0 3 -24 8544.11 767.566 7
0 -3 -24 6915.32 761.511 7
0 3 24 7136.88 726.438 18
0 -3 24 9150.11 844.185 20
0 -3 24 8106.1 816.152 16
0 3 -25 24784.3 1221.91 7
0 -3 -25 21327.6 1246.83 7
0 3 25 20975.2 1158.16 18
0 -3 25 21036.1 1206.81 20
0 -3 25 22412.6 1237.09 16
0 3 -26 584.882 204.653 7
0 -3 -26 4.58997 167.742 7
0 -3 26 484.707 222.368 20
0 3 26 -22.2683 163.736 18
0 -3 26 -94.1742 176.685 16
0 -3 -27 36346.2 1381.64 7
0 -3 27 36605.6 1272.18 20
0 3 27 37157.3 1282.73 18
0 -4 0 481059 7765.98 4
0 4 0 489032 7421.43 23
0 -4 -1 24199.4 897.576 4
0 -4 1 22488 721.464 3
0 -4 -1 23823.5 749.893 5
0 -4 1 22958.3 867.028 4
0 4 1 22649.6 668.144 23
0 4 1 24443.2 903.891 21
0 4 -1 24665.5 758.427 23
0 -4 2 31806.2 1042.48 4
0 -4 2 29994.8 901.004 5
0 4 -2 29490 674.597 2
0 -4 -2 29475 858.065 5
0 -4 -2 30741.4 1052.69 4
0 -4 2 31028.7 906.018 3
0 4 2 29473 727.36 23
0 4 2 30040.6 1023.16 21
0 -4 -3 26496 980.752 4
0 4 -3 25724.6 553.795 1
0 4 -3 23864 526.905 2
0 -4 -3 23915.2 744.776 5
0 -4 3 25296.9 825.043 5
0 -4 3 24500.4 915.559 4
0 -4 3 24238.2 823.52 3
0 4 3 24571.1 912.18 21
0 4 3 23035.5 533.546 23
0 -4 4 323440 5659.48 4
0 -4 -4 305561 5294.98 5
0 -4 4 301550 5508.13 3
0 4 -4 316447 4952.1 2
0 -4 -4 310759 5771.73 4
0 -4 4 318975 5476.74 5
0 4 4 314997 5650.59 21
0 -4 5 104542 2351 3
0 -4 5 101723 2406.17 4
0 4 -5 106908 1837 2
0 -4 -5 104575 2103.23 5
0 -4 -5 106778 2548.47 4
0 4 5 109650 1849.16 3
0 -4 5 109336 2302.46 5
0 4 5 106052 2432.32 21
0 -4 -7 584.325 232.275 4
0 4 7 850.595 110.985 3
0 -4 7 994.916 215.919 5
0 -4 7 645.604 204.004 3
0 4 -7 935.197 114.848 2
0 -4 -7 678.775 126.38 5
0 -4 7 838.157 224.391 4
0 4 7 734.56 215.233 21
0 -4 -7 605.779 186.258 22
0 -4 -8 511679 9255.57 4
0 -4 8 518202 9009.06 3
0 -4 8 544612 8804.35 5
0 -4 -8 526804 9043.85 22
0 4 8 530728 9016.79 21
0 -4 -9 364390 7097.83 4
0 -4 9 357924 6828.37 3
0 -4 9 373083 6610.82 5
0 4 9 377201 6870.9 21
0 -4 -9 365157 6865.96 22
0 -4 10 49657.7 1502.11 5
0 -4 -10 45667.3 1778.11 4
0 -4 10 46634.9 1655.35 3
0 -4 -10 45458.4 1656.14 22
0 4 10 46838.7 1642.78 21
0 -4 11 74099.4 2286.33 3
0 -4 11 77135.5 2055.71 5
0 -4 -11 76173.8 2494.49 4
0 4 11 74730 2290.93 21
0 -4 -11 80710.7 2389.38 22
0 -4 -12 225842 5154.86 4
0 -4 12 216712 4853.14 3
0 4 12 209364 4773.23 21
0 -4 -12 224176 4939.15 22
0 -4 -13 1219.07 370.764 4
0 -4 13 1219.21 316.784 3
0 4 -13 915.59 288.758 22
0 4 13 1393.1 318.561 21
0 -4 -14 94664.2 3017.72 7
0 -4 -14 100986 3241.72 4
0 -4 14 100342 3053.47 3
0 4 14 99130.6 2971.58 21
0 4 14 97515.3 2783.67 18
0 4 -14 106725 3077.72 22
0 -4 -14 102711 3124.47 22
0 -4 14 100780 3387.02 16
0 -4 -15 92532.9 2825.15 10
0 -4 -15 86624.8 2944.42 7
0 -4 15 93209.9 3040.26 3
0 -4 -15 91713.4 3171.87 4
0 4 15 90698 2904.11 21
0 4 15 96542.2 2781.28 18
0 4 -15 89348 2935.25 22
0 -4 -15 96090.6 3089.59 22
0 -4 15 93000.2 3314.98 16
0 -4 -16 51585.2 2243.55 7
0 -4 -16 60092.5 2210.18 10
0 -4 -16 53561.3 2394.7 4
0 -4 16 54429.6 2298.12 3
0 4 16 52498.4 2166.81 21
0 4 16 55302.9 2070.47 18
0 4 -16 53264.6 2228.62 22
0 -4 16 55836.9 2518.81 16
0 4 -17 7359.37 681.214 7
0 -4 -17 5488.77 719.778 7
0 -4 17 7290.49 844.881 3
0 -4 -17 7728.99 905.29 4
0 4 17 6314.88 692.746 18
0 4 -17 5877.17 729.717 22
0 4 17 5403.5 676.375 21
0 -4 17 6598.55 874.23 16
0 4 -18 238092 5148.08 7
0 -4 -18 221060 5643.56 7
0 4 18 225322 5645.79 1
0 4 18 225410 5494.7 21
0 4 18 223315 5306.68 18
0 4 -18 221776 5662.09 22
0 -4 18 230926 6051.76 16
0 4 -19 2095.27 416.161 7
0 -4 -19 1809.91 461.008 7
0 -4 19 1928.19 520.607 16
0 4 19 1752.79 398.38 18
0 4 -20 3880.05 544.48 7
0 -4 -20 3104.16 594.879 7
0 4 20 3782.39 578.258 18
0 -4 20 3262.44 634.417 16
0 4 -21 11661.5 905.462 7
0 -4 -21 9998.29 982.003 7
0 4 21 11209.8 960.962 18
0 -4 21 10994.6 1097.08 16
0 4 -22 3181.65 498.004 7
0 -4 -22 3204.18 566.586 7
0 -4 22 3719.95 634.265 20
0 4 22 2991.49 502.917 18
0 -4 22 2766.63 564.993 16
0 4 -23 1409.43 345.294 7
0 -4 -23 1415.98 401.601 7
0 -4 23 1345.65 403.58 20
0 4 23 680.204 294.313 18
0 -4 23 1729.91 439.212 16
0 -4 -24 1884.26 417.272 7
0 -4 24 1813.94 421.78 20
0 4 24 1826.62 374.071 18
0 -4 24 2020.3 421.994 16
0 -4 -25 2085.76 392.958 7
0 -4 25 1914.6 383.446 20
0 4 25 2711.95 414.972 18
0 -4 25 2749.2 418.133 16
0 -4 -26 946.367 248.611 7
0 -4 26 999.127 258.468 20
0 -4 26 840.408 216.889 16
0 4 26 1081.64 269.693 18
0 4 27 23163 919.447 18
0 -5 0 139.928 143.816 4
0 -5 0 89.6552 94.7502 5
0 5 0 -5.8383 106.868 21
0 5 0 -287.88 97.0802 23
0 -5 1 61050 1553.02 5
0 -5 1 58354.9 1447.82 3
0 -5 1 61450.4 1729.5 4
0 -5 -1 58941.3 1512.01 5
0 -5 -1 57830.5 1703.76 4
0 5 -1 60172.8 1283.56 2
0 5 -1 60861.3 1503.57 23
0 5 1 62427.1 1760.26 21
0 5 1 59720.5 1376.79 23
0 -5 2 1039.28 219.452 4
0 -5 2 937.199 175.893 3
0 5 -2 973.226 130.877 1
0 -5 2 977.268 187.92 5
0 -5 -2 799.099 171.47 5
0 -5 -2 726.106 185.854 4
0 5 -2 1304.52 199.075 23
0 5 2 831.309 112.619 23
0 5 2 782.565 195.71 21
0 -5 -3 81.2415 96.1897 5
0 -5 3 1.46215 124.739 4
0 -5 3 109.769 88.3815 3
0 -5 3 37.0261 137.14 5
0 -5 -3 248.943 154.204 4
0 5 -3 2.93131 98.4217 23
0 5 3 419.416 162.433 21
0 -5 -4 46080 1550.91 4
0 -5 4 47993.6 1503.01 4
0 -5 4 45692.8 1372.59 3
0 -5 -4 44547.6 1235.37 5
0 -5 4 45492.6 1351.93 5
0 5 4 43761 1447.01 21
0 -5 -5 25203.4 1132.24 4
0 -5 5 25865.1 1071.33 4
0 -5 -5 25425.3 857.604 5
0 -5 5 26645.2 1036.13 3
0 -5 5 25565.9 980.656 5
0 5 5 25520.8 1062.72 21
0 -5 -6 69603.1 1664.98 5
0 -5 6 73173.2 2007.54 3
0 -5 -6 67454.1 2104.32 4
0 -5 6 75409 2055.5 4
0 -5 6 73770.6 1916.82 5
0 5 6 76999.3 2069.09 21
0 -5 -7 113559 3003.49 4
0 -5 7 122808 2766.66 5
0 -5 -7 117254 2409.86 5
0 -5 7 117785 2882.16 3
0 -5 7 120141 2906.43 4
0 5 7 122066 2898 21
0 -5 8 153831 3347.54 5
0 -5 -8 151563 3699.06 4
0 -5 -8 150101 2920.58 5
0 -5 8 157340 3586 3
0 5 8 158019 3534.95 21
0 -5 9 -11.7413 143.272 5
0 -5 -9 334.323 219.322 4
0 -5 9 493.74 231.698 3
0 5 9 218.917 169.879 21
0 -5 -10 14222.7 988.722 4
0 -5 10 15121.9 964.607 3
0 -5 10 15437.4 861.773 5
0 5 10 15099.3 927.764 21
0 -5 -11 20925.1 1256.92 4
0 -5 11 21074 1203.42 3
0 -5 11 21514.7 1047.09 5
0 5 11 19544.4 1112.94 21
0 -5 -12 3299.05 527.072 4
0 -5 12 4863.6 600.487 3
0 5 12 5024.29 585.894 21
0 -5 13 18712.1 1161.46 9
0 -5 -13 19966 1150.83 10
0 -5 -13 18423.1 1205.36 7
0 -5 13 17956.3 1192.37 3
0 -5 -13 19967 1313.83 4
0 5 -13 18996.3 1183.21 22
0 5 13 21233.4 1244.07 21
0 5 13 18791.4 1061.21 18
0 -5 13 18727.7 1353.35 16
0 -5 14 12487.4 965.304 9
0 -5 -14 10859.6 963.619 7
0 -5 -14 10581.5 873.693 10
0 -5 -14 12056.8 1048.19 4
0 -5 14 13444.3 1071.58 3
0 5 14 12149.7 880.05 18
0 5 14 11872.2 951.31 21
0 5 -14 12522.6 986.825 22
0 -5 14 10554.3 1053.07 16
0 -5 -15 3541.94 575.947 7
0 -5 -15 3559.27 549.318 10
0 -5 15 3066.88 495.164 9
0 -5 15 2554.27 502.634 3
0 -5 -15 3429.19 572.773 4
0 5 15 2784.48 482.077 21
0 5 -15 2589.42 461.8 22
0 5 15 2665.12 443.491 18
0 -5 15 2936.12 592.844 16
0 -5 -16 -44.3486 252.46 10
0 -5 16 243.608 205.797 9
0 -5 -16 835.661 344.002 7
0 -5 16 40.2978 270.296 3
0 -5 -16 552.881 356.358 4
0 5 -16 702.164 267.62 22
0 5 16 6.38425 193.505 21
0 5 16 -87.7694 231.354 18
0 -5 17 1899.69 404.494 9
0 -5 -17 3660.24 552.726 10
0 -5 -17 2384.94 502.225 7
0 5 17 3331.95 556.154 21
0 5 -17 3709.04 613.187 22
0 5 17 2913.13 493.986 18
0 -5 17 3443.63 685.591 16
0 -5 -18 31604.8 1821.2 7
0 -5 -18 38176.4 1784.14 10
0 -5 -18 35100 1704.86 8
0 5 18 31830.1 1619.15 18
0 -5 18 32852.8 1946.49 16
0 -5 -19 7252.81 734.308 8
0 -5 -19 7300.99 865.729 7
0 5 19 7011.19 762.32 18
0 -5 19 6188.61 833.266 16
0 -5 -20 140.692 280.004 7
0 -5 20 311.013 282.851 16
0 5 20 444.544 262.631 18
0 -5 -21 4953.17 689.717 7
0 5 21 5331.77 658.858 18
0 -5 21 6570.63 813.974 20
0 -5 21 5062.73 713.481 16
0 -5 -22 1961.22 453.525 7
0 -5 22 1434.54 449.353 20
0 -5 22 1744.88 425.476 16
0 5 22 1792.76 405.66 18
0 -5 -23 1320.81 343.933 7
0 -5 23 1149.51 364.362 20
0 5 23 742.374 305.326 18
0 -5 23 710.159 293.39 16
0 -5 -24 6176.54 662.948 7
0 5 24 5963.7 600.414 18
0 -5 24 5170.79 614.507 20
0 -5 24 6321.84 631.373 16
0 -5 -25 482.459 227.968 7
0 -5 25 165.1 184.153 20
0 5 25 140.954 185.377 18
0 -5 25 219.051 155.87 16
0 -5 -25 29.7223 98.6957 14
0 -5 26 948.53 223.956 20
0 5 26 347.43 159.135 18
0 -6 0 38292.4 1278.13 5
0 -6 0 40009.9 1463.16 4
0 6 0 39892.5 1487.78 21
0 -6 -1 160719 3369.47 5
0 -6 1 166540 3434.86 5
0 -6 -1 165340 3694.01 4
0 -6 1 170788 3700.15 4
0 6 1 162884 3695.42 21
0 6 -1 157212 3226.28 23
0 -6 -2 119666 2663.09 5
0 -6 2 119030 2741.98 5
0 -6 -2 121110 2985.3 4
0 -6 2 119300 2948.56 4
0 6 2 121191 2975.28 21
0 6 -2 119422 2657.85 23
0 -6 3 206.139 127.394 3
0 -6 3 335.655 207.079 4
0 -6 -3 493.161 162.642 5
0 -6 -3 140.328 130.261 4
0 -6 3 778.475 203.236 5
0 6 3 164.266 140.507 21
0 6 -3 279.658 145.691 23
0 -6 -4 78959 1976.84 5
0 -6 4 80163.7 2259.94 4
0 -6 4 78177.2 2098.71 3
0 -6 -4 79098 2336.17 4
0 -6 4 77398.4 2097.81 5
0 6 -4 81022.7 2142.66 23
0 6 4 77821.8 2241.44 21
0 -6 5 252071 4959.16 3
0 -6 -5 234361 5191.38 4
0 -6 -5 250424 4680.8 5
0 -6 5 253053 4950.45 5
0 -6 5 249895 5101.33 4
0 6 -5 257388 5028.82 23
0 6 5 244092 5080.19 21
0 -6 6 13946.5 859.456 4
0 -6 -6 14030.6 916.969 4
0 -6 6 13104.5 784.947 5
0 -6 -6 13403.1 672.57 5
0 -6 6 13601.6 829.572 3
0 6 -6 14082.8 846.956 23
0 6 6 11978 798.323 21
0 -6 7 527790 9376.17 5
0 -6 -7 518195 8912.91 5
0 -6 -7 524600 9772.13 4
0 -6 7 538360 9563.02 3
0 -6 7 533480 9593.42 4
0 6 7 534176 9545.95 21
0 -6 8 17116.7 1010.54 4
0 -6 -8 15221.4 1022.2 4
0 -6 8 16651.5 1002.7 3
0 -6 8 16402.5 929.342 5
0 6 8 14627.7 921.882 21
0 -6 9 5017.02 579.935 3
0 -6 9 5062.25 527.104 5
0 -6 -9 4007.94 541.799 4
0 6 9 4945.36 549.35 21
0 -6 10 302985 6525.59 3
0 -6 10 325221 6296.28 5
0 -6 -10 305602 6703.85 4
0 6 10 309148 6417.42 21
0 -6 11 92900.5 2942.77 9
0 -6 -11 86480.3 2700.62 10
0 -6 -11 91911.6 2910.99 8
0 -6 11 89646.2 2898.59 3
0 -6 11 92952.8 2647.23 5
0 -6 -11 90749 2983.94 4
0 6 11 86673.7 2744.37 21
0 -6 11 89295.8 3157.92 16
0 -6 -12 93060.6 2875.73 10
0 -6 -12 103166 3156.22 8
0 -6 12 102881 3129.42 9
0 -6 12 95169.1 3101.58 3
0 -6 -12 93752.3 3151 4
0 6 12 94046.1 2967.52 21
0 6 12 93870.4 2705.19 18
0 -6 12 94764.8 3340.55 16
0 -6 -13 35728.1 1749.39 8
0 -6 13 34491.8 1711.33 9
0 -6 -13 33336 1601.49 10
0 -6 -13 35186.7 1834.25 4
0 -6 13 34205.4 1797.2 3
0 6 13 32729.8 1496.47 18
0 6 13 32902.1 1648.79 21
0 6 -13 34955.3 1682.31 22
0 -6 13 35905.5 1987.07 16
0 -6 14 71075.9 2600.13 9
0 -6 -14 69204.5 2680.93 7
0 -6 -14 72419.6 2628.57 8
0 -6 -14 68253.2 2483.8 10
0 -6 -14 72584.2 2804.29 4
0 -6 14 70237 2759.82 3
0 6 14 72356.9 2398.53 18
0 6 -14 70554.8 2592.48 22
0 6 14 72698.5 2598.58 21
0 6 -14 74540.1 2758.52 23
0 -6 14 77336.1 3040.6 16
0 -6 -15 22354.2 1388.45 8
0 -6 -15 17917.9 1337.17 7
0 -6 15 20665.4 1319.81 9
0 -6 -15 19732 1272.54 10
0 -6 15 21854.6 1501.75 3
0 -6 -15 19852 1417.51 4
0 6 -15 20626.8 1406.65 23
0 6 -15 21551.3 1373.92 22
0 6 15 18971.5 1284.05 21
0 6 15 19588.5 1192.29 18
0 -6 15 20497.1 1517.96 16
0 -6 16 79013.1 2736.36 9
0 -6 -16 72818.8 2839.79 7
0 -6 -16 80323.7 2743.93 10
0 -6 -16 78615.2 2757.09 8
0 6 16 74462.9 2560.4 18
0 -6 16 74929.5 3075.02 16
0 -6 17 11511.8 959.862 9
0 -6 -17 11020.5 963.052 8
0 -6 -17 11146.1 984.815 10
0 -6 -17 10719.7 1046.47 7
0 6 17 9488.94 845.248 18
0 -6 17 9957.69 1070.2 16
0 -6 -18 9991.98 885.167 8
0 -6 -18 8842.24 933.727 7
0 -6 -18 9549.55 894.707 10
0 -6 18 9874.81 875.105 9
0 -6 18 8737.35 967.573 20
0 6 18 7752.13 781.97 18
0 -6 18 8930.98 982.667 16
0 -6 -19 75199.8 2538.89 8
0 -6 -19 74627.4 2600.72 10
0 -6 -19 70234.3 2781.17 7
0 -6 19 79225.6 2943.52 20
0 6 19 69686 2492.04 18
0 -6 19 70845.5 2893.8 16
0 -6 -20 6334.22 765.942 7
0 -6 -20 5821.91 621.767 8
0 -6 -20 6434.44 689.46 10
0 6 20 4916.44 622.24 18
0 -6 20 5464.41 722.635 20
0 -6 20 4328.13 648.001 16
0 -6 -21 1099.46 348.437 7
0 -6 21 2108.62 498.075 20
0 6 21 2087.6 409.24 18
0 -6 21 2301.11 490.613 16
0 -6 -22 54942.4 2144.18 7
0 6 22 54090.3 1996.62 18
0 -6 22 54959.8 2184.14 20
0 -6 22 52967.4 2103.84 16
0 -6 -23 3681.42 496.377 7
0 -6 23 3406.92 514.26 20
0 6 23 2836.93 425.951 18
0 -6 23 3272.26 466.634 16
0 -6 24 12755.6 860.67 20
0 6 24 12185.9 763.381 18
0 -6 -24 12262.5 727.813 14
0 -6 24 10892.6 738.137 16
0 -6 25 122.44 162.137 20
0 6 25 40.7254 119.735 18
0 -7 0 -22.0167 130.566 5
0 -7 0 -13.5712 171.327 4
0 7 0 -89.57 204.428 21
0 -7 -1 46828.6 1761.85 4
0 -7 -1 44684.2 1541.58 5
0 -7 1 48468.9 1771.87 4
0 -7 1 46906.6 1602.14 5
0 7 1 45737.5 1758.1 21
0 7 -1 46340.1 1788.51 21
0 -7 2 127978 3285.09 4
0 -7 -2 123893 2978.37 5
0 -7 2 124592 3068.27 5
0 -7 -2 130341 3340.84 4
0 7 2 130331 3313.02 21
0 7 -2 127863 3362.8 21
0 -7 3 83614.9 2356.74 5
0 -7 3 87178.3 2538.77 4
0 -7 -3 85892.5 2276.94 5
0 -7 -3 79875.2 2505.21 4
0 7 3 85049.7 2524.87 21
0 -7 -4 20693.6 964.138 5
0 -7 -4 18417.8 1103.09 4
0 -7 4 19218.4 1086.31 4
0 -7 4 19770.6 1034.28 5
0 7 4 21186 1141.04 21
0 7 -4 19786.4 995.617 23
0 -7 -5 140639 3165.7 5
0 -7 5 141966 3423.35 5
0 -7 5 144473 3556.85 4
0 -7 -5 132379 3566.6 4
0 7 5 141248 3542.93 21
0 7 -5 136014 3383.61 23
0 -7 -6 1530.63 265.428 5
0 -7 -6 1560.81 353.256 4
0 -7 6 2636.76 400.777 5
0 -7 6 1295.61 312.55 4
0 7 6 1454.63 344.334 21
0 7 -6 1621.2 326.19 23
0 -7 7 56102.6 1952.37 5
0 -7 7 54463.4 2018.48 4
0 -7 -7 55450.6 2127.02 4
0 7 -7 54736 1991.19 23
0 7 7 56050.4 2026.19 21
0 -7 -8 160465 4228.75 8
0 -7 8 167538 4341.72 9
0 -7 -8 155518 3975.36 10
0 -7 8 174369 4043.87 5
0 -7 -8 159919 4230.38 4
0 7 -8 165774 4104.29 23
0 7 8 160423 4015.74 21
0 -7 8 160020 4528.11 16
0 -7 -9 78275.9 2706.21 8
0 -7 9 70221.4 2410.86 6
0 -7 9 82801.6 2831.4 9
0 -7 9 79105.1 2590.18 8
0 -7 -9 75679.4 2514.19 10
0 -7 9 82588.2 2542.21 5
0 -7 9 77200.9 2596.76 3
0 -7 -9 76470.5 2689.42 4
0 7 9 75227.9 2509.25 21
0 7 -9 78080.9 2597.25 23
0 -7 9 76609.6 2923.03 16
0 -7 10 5237.92 675.326 8
0 -7 -10 4803.38 638.76 8
0 -7 10 6038.95 749.713 9
0 -7 -10 4769.57 593.282 10
0 -7 10 5655.18 676.108 3
0 -7 10 4663.33 566.206 6
0 -7 -10 5515.78 695.845 4
0 -7 10 5214.87 600.8 5
0 -7 10 4599.84 627.457 20
0 7 10 5851.47 652.963 21
0 7 -10 5187.71 642.673 23
0 -7 10 3637.22 638.552 16
0 -7 -11 27263.7 1553.3 8
0 -7 -11 27377.3 1467.92 10
0 -7 11 29561 1641.05 9
0 -7 -11 30713.6 1678.09 4
0 -7 11 29102.8 1603.4 3
0 -7 11 28480.9 1437.9 5
0 7 -11 28773.7 1577.41 23
0 -7 11 27570.2 1602.79 20
0 7 11 26742 1462.47 21
0 -7 11 26053.4 1676.53 16
0 -7 -12 4181.94 586.944 10
0 -7 -12 4926.76 663.577 8
0 -7 12 5589.39 738.595 9
0 -7 12 4979.04 695.879 3
0 -7 -12 4728.52 685.066 4
0 7 -12 5427.18 700.626 23
0 7 -12 5243.73 639.579 22
0 -7 12 5246.6 732.063 20
0 7 12 4067.77 574.295 21
0 -7 12 4066.46 695.05 16
0 -7 -13 11059.5 978.086 10
0 -7 -13 12401.1 1054.04 8
0 -7 13 11840.7 1037.96 9
0 -7 -13 10964.8 1037.58 4
0 -7 13 11141.1 1046.26 3
0 -7 13 9685.33 998.536 20
0 7 13 11589.2 978.351 21
0 7 13 11943.1 892.191 18
0 7 -13 10424.3 926.827 22
0 7 -13 10589.1 993.386 23
0 -7 13 11326.6 1139.99 16
0 -7 -14 639.137 299.563 10
0 -7 -14 780.716 311.776 8
0 -7 14 396.363 278.333 9
0 7 -14 314.617 185.78 23
0 7 -14 866.484 318.728 22
0 -7 14 319.921 244.49 20
0 7 14 541.099 292.95 21
0 7 14 422.65 214.483 18
0 -7 14 1003.69 463.542 16
0 -7 -15 2356 466.856 8
0 -7 -15 1977.55 445.699 10
0 -7 15 1498.3 413.009 9
0 -7 15 1858.67 489.486 20
0 7 15 1478.66 351.321 18
0 -7 15 1778.33 521.173 16
0 -7 -16 560.779 305.462 8
0 -7 -16 441.01 341.054 10
0 -7 16 406.008 262.12 20
0 -7 16 809.128 396.664 16
0 7 16 1111.23 313.163 18
0 -7 17 29654.1 1604.12 9
0 -7 -17 30697.5 1624.95 8
0 -7 -17 29424.1 1591.56 10
0 7 17 28111.7 1457.17 18
0 -7 17 29944.2 1761.03 20
0 -7 17 30701.9 1843.95 16
0 -7 -18 6776.01 757.804 10
0 -7 -18 7480.79 758.511 8
0 -7 18 6633.8 727.469 9
0 7 18 7706.73 747.657 18
0 -7 18 7952.12 880.473 20
0 -7 18 8091.39 917.447 16
0 -7 19 19389.6 1152.02 9
0 -7 -19 18697.5 1141.07 8
0 -7 -19 18427 1256.09 7
0 -7 -19 18790.3 1194.86 10
0 -7 19 18196.3 1300.34 20
0 7 19 17676.5 1113.1 18
0 -7 19 17756.4 1306.25 16
0 -7 -20 2547.81 477.98 7
0 -7 -20 2898.77 464.003 10
0 -7 -20 2093.26 375.744 8
0 -7 20 1521.36 417.736 20
0 -7 20 2210.64 493.082 16
0 7 20 1564.67 354.719 18
0 -7 -21 3934.1 473.264 10
0 7 21 4055.78 501.155 18
0 -7 21 3721.34 555.466 20
0 -7 21 3626.94 532.17 16
0 7 22 3608.37 452.857 18
0 -7 22 3573.98 514.098 20
0 -7 22 2942.46 444.409 16
0 -7 -22 2779.71 431.071 14
0 -7 23 194.086 177.839 20
0 -7 23 316.585 204.894 16
0 7 23 305.862 177.79 18
0 -7 -23 258.728 175.309 14
0 7 24 7719.88 506.33 18
0 -7 24 8319.89 600.074 20
0 -8 0 201995 4923.11 8
0 -8 0 208384 4779 6
0 -8 0 196623 4759.66 4
0 -8 0 200149 4520.2 5
0 8 0 210778 4851.22 21
0 -8 0 200049 5166.94 16
0 -8 1 1456.19 367.542 8
0 -8 -1 2397.83 458.447 8
0 -8 -1 1455.66 342.556 4
0 -8 1 1089.05 322.717 6
0 -8 -1 1253.65 302.84 5
0 -8 1 1396.98 340.937 5
0 -8 1 1339.56 349.514 4
0 8 -1 1139.4 309.01 21
0 8 1 903.821 288.878 21
0 -8 -1 667.526 262.944 16
0 -8 1 1171.26 389.023 16
0 -8 -2 89901.8 2929.99 8
0 -8 2 85431.6 2859.03 8
0 -8 2 89550.6 2948.14 9
0 -8 2 94371 2850.52 6
0 -8 -2 91860.2 2853.88 4
0 -8 2 92667.2 2677.14 5
0 -8 2 89281.7 2791.33 4
0 -8 -2 90884.7 2585.95 5
0 8 2 90731.4 2808.42 21
0 8 -2 96604.4 2935.33 21
0 -8 -2 89039.1 3093.49 16
0 -8 -2 90576.8 2977.86 14
0 -8 2 92473.6 3171.23 16
0 -8 3 55443.5 2237.83 9
0 -8 -3 52426.1 2167.38 8
0 -8 3 55024.5 2177.62 8
0 -8 -3 55749.6 2014.94 6
0 -8 3 56950.9 2013.94 5
0 -8 -3 55554.2 1894.31 5
0 -8 3 54224.8 2073.88 6
0 -8 -3 56051.4 2149.26 4
0 -8 3 53631.3 2064.85 4
0 8 3 56889.7 2118.89 21
0 8 -3 55933.5 2164.8 21
0 -8 -3 56410.2 2371.22 16
0 -8 -3 51720.8 2186.23 14
0 -8 3 56275.5 2383.18 16
0 -8 -4 578.833 286.557 8
0 -8 -4 1182.77 319.857 10
0 -8 4 906.163 319.782 9
0 -8 4 1080.03 333.454 8
0 -8 4 443.534 226.746 4
0 -8 -4 975.35 289.315 6
0 -8 4 1010.77 287.597 5
0 -8 -4 1666.97 336.708 5
0 -8 -4 429.468 242.686 4
0 -8 4 1286.15 332.057 6
0 8 4 758.156 276.067 21
0 8 -4 1157.13 324.617 21
0 -8 4 806.577 331.337 16
0 -8 -4 676.19 359.08 16
0 -8 -5 16994.4 1040.23 6
0 -8 -5 16801.2 1181.95 8
0 -8 -5 15645.8 1069.88 10
0 -8 5 15593.9 1116.17 8
0 -8 5 15815.7 1073.63 6
0 -8 5 16506 1193.24 9
0 -8 5 19546.2 1144.45 5
0 -8 -5 18263.4 1193.65 4
0 -8 -5 17320.8 962.029 5
0 -8 5 17811.6 1140.74 4
0 8 5 15575.5 1072.77 21
0 -8 5 16808.3 1294.56 16
0 -8 -5 16473.6 1210.22 14
0 -8 -5 19654.1 1379.49 16
0 -8 6 28272.4 1462.17 6
0 -8 -6 27764.7 1559.4 8
0 -8 -6 28559.4 1468.62 10
0 -8 6 25494.9 1454.14 8
0 -8 6 27549.1 1589.43 9
0 -8 6 28254.9 1428.25 5
0 -8 -6 28402.3 1535.56 4
0 -8 -6 26913.7 1208.19 5
0 -8 6 26545.3 1437.69 4
0 8 6 28256.4 1455.98 21
0 -8 -6 28335.8 1618.5 14
0 -8 6 30349.1 1780.89 16
0 -8 -7 8426.37 856.829 8
0 -8 7 8220.1 879.133 9
0 -8 7 7672.11 756.934 6
0 -8 -7 6432.16 712.203 10
0 -8 7 6736.71 733.973 8
0 -8 7 7333.01 734.443 5
0 -8 -7 6711.22 753.537 4
0 -8 7 6459.36 716.785 4
0 8 7 6794.8 716.444 21
0 -8 7 6799.04 828.865 16
0 -8 -7 7352.78 827.198 14
0 -8 8 44903.3 2114.85 9
0 -8 8 42449.9 1917.49 8
0 -8 -8 41084 1868.49 10
0 -8 -8 42916.3 2011.95 8
0 -8 8 40262.5 1822.49 6
0 -8 8 46227.7 1927.77 5
0 -8 -8 42878 1962.08 4
0 8 8 42576.5 1858.2 21
0 -8 8 43751.1 2196.58 16
0 -8 9 29938.9 1573.21 6
0 -8 -9 33430.8 1685.34 10
0 -8 9 34574 1858.42 9
0 -8 9 32307 1640.75 8
0 -8 -9 34126.9 1790.23 8
0 -8 9 35441.1 1698.03 5
0 -8 -9 31254 1688.84 4
0 8 9 32781.8 1630.42 21
0 8 -9 31799.7 1647.93 23
0 -8 9 31167.6 1884.65 16
0 -8 10 42233.7 1894.18 6
0 -8 10 46598.2 1995.6 8
0 -8 10 47221 2231.09 9
0 -8 -10 46190.6 2041.5 10
0 -8 -10 47608.5 2175.27 8
0 -8 10 49587.5 2056.78 5
0 -8 -10 43099.4 2069.94 4
0 8 10 43292.3 1947.03 21
0 8 -10 43736.3 2005.83 23
0 -8 10 45084.6 2287.65 16
0 -8 11 25356.3 1438.48 8
0 -8 -11 23121.5 1427.5 10
0 -8 11 22065.1 1504.77 9
0 -8 11 21810.5 1326.13 6
0 -8 -11 27036.7 1602.98 8
0 -8 11 23799.6 1392.76 5
0 -8 -11 22826.1 1479.36 4
0 8 -11 20567.4 1392.31 23
0 8 11 23939.8 1425.53 21
0 -8 11 21158 1547.31 16
0 -8 -12 2426.98 489.74 10
0 -8 12 2314.41 525.138 9
0 -8 -12 3399.65 587.56 8
0 -8 12 2641.1 453.975 6
0 -8 12 3685.81 619.384 20
0 -8 12 3410.92 629.286 16
0 -8 13 173.215 283.457 9
0 -8 -13 625.657 331.414 8
0 -8 -13 304.814 315.181 10
0 -8 13 -76.7685 268.273 20
0 -8 13 292.17 296.888 16
0 -8 -14 324.261 272.941 8
0 -8 -14 723.494 369.331 10
0 -8 14 467.687 303.41 9
0 -8 14 524.694 290.84 20
0 -8 14 284.987 248.202 16
0 -8 -15 19814.8 1323.36 10
0 -8 15 19511.7 1342.45 9
0 -8 -15 19598.7 1333.4 8
0 -8 15 21398.4 1438.13 20
0 -8 15 18960.6 1441.45 16
0 -8 -16 569.965 344.777 10
0 -8 16 1102.73 364.955 9
0 -8 -16 949.781 314.792 8
0 -8 16 205.982 278.574 20
0 -8 16 912.227 349.563 16
0 8 16 625.497 290.919 18
0 -8 17 10233.7 909.184 9
0 -8 -17 11138.9 959.936 10
0 -8 -17 11023.8 930.886 8
0 8 17 10792.6 821.045 18
0 -8 17 11065.5 1003.58 20
0 -8 17 9971.68 978.904 16
0 -8 -18 420.19 256.956 10
0 -8 -18 592.29 260.74 8
0 -8 18 453.812 239.278 9
0 -8 18 375.082 279.85 20
0 8 18 458.311 231.383 18
0 -8 18 695.602 335.068 16
0 -8 -19 1909.05 374.216 10
0 -8 -19 1760.68 351.454 8
0 -8 19 1860.02 379.284 9
0 -8 19 1626.41 406.185 20
0 -8 19 1502.53 373.863 16
0 -8 -19 2032.02 443.036 14
0 8 19 2329.93 372.139 18
0 -8 -20 286.373 169.205 10
0 -8 20 756.696 239.632 9
0 -8 -20 480.895 206.379 8
0 -8 20 503.556 269.111 20
0 -8 20 263.964 226.812 16
0 8 20 541.414 225.175 18
0 -8 -20 594.561 257.205 14
0 -8 -21 9180.12 649.764 10
0 8 21 8169.49 602.067 18
0 -8 21 8596.68 723.015 20
0 -8 21 8788.44 706.293 16
0 -8 -21 9083.05 729.902 14
0 -8 22 8275.98 641.496 20
0 8 22 8879.63 547.598 18
0 -8 22 9335.34 632.614 16
0 -9 0 166.416 293.485 8
0 -9 0 -1.75468 289.09 9
0 -9 0 189.09 265.834 4
0 -9 0 -178.406 241.106 5
0 -9 0 379.85 284.98 6
0 9 0 -229.292 194.861 21
0 -9 0 38.3561 271.588 16
0 -9 0 -20.4221 276.529 14
0 -9 1 14051.4 1149.19 9
0 -9 -1 12829.4 1085.17 8
0 -9 1 14370.5 1075.68 6
0 -9 -1 13868.5 1120.23 9
0 -9 1 13613.5 1114.06 8
0 -9 -1 16062.9 1134.05 6
0 -9 -1 15046.8 1119 4
0 -9 -1 14089.4 996.768 5
0 -9 1 14937.2 1048 5
0 -9 1 12488.6 1014.58 4
0 9 1 14594.2 1085.52 21
0 9 -1 13727.7 1058.86 21
0 -9 -1 13272.3 1175.17 16
0 -9 -1 13032.2 1102.34 14
0 -9 1 12401.6 1156.4 16
0 -9 1 10110.8 950.846 14
0 -9 -2 7605.77 798.431 9
0 -9 2 6802.07 757.756 6
0 -9 -2 6565.25 774.986 8
0 -9 2 7257.25 806.647 8
0 -9 2 5547.6 748.7 9
0 -9 -2 8534.24 817.563 6
0 -9 -2 6518.46 693.336 10
0 -9 -2 7319.32 785.334 4
0 -9 -2 7077.64 697.963 5
0 -9 2 6520.45 736.118 4
0 -9 2 6745.43 714.601 5
0 9 -2 6566.49 749.532 21
0 9 2 7679.66 779.574 21
0 -9 -2 5863.22 788.2 16
0 -9 2 6952.9 771.507 14
0 -9 -2 5822.43 742.239 14
0 -9 2 5597.48 800.521 16
0 -9 3 26615.7 1509.83 6
0 -9 -3 27327.7 1459.75 10
0 -9 -3 26117.8 1520.36 9
0 -9 -3 27999.8 1637.06 8
0 -9 -3 29905 1532.07 6
0 -9 3 24473.8 1503.52 8
0 -9 3 27162.3 1630.76 9
0 -9 3 27930.1 1564.28 4
0 -9 -3 27500.9 1386.57 5
0 -9 3 28814.8 1506.55 5
0 -9 -3 27454.5 1544.81 4
0 9 3 31810.5 1598.62 21
0 9 -3 29948.1 1606.88 21
0 -9 3 27276.3 1734.03 16
0 -9 -3 28712 1759.05 16
0 -9 -3 24307.2 1561.62 14
0 -9 3 25873.8 1488.55 14
0 -9 4 5765.81 754.723 9
0 -9 4 5771.34 726.612 8
0 -9 -4 6207.99 700.15 10
0 -9 -4 6335.8 779.305 8
0 -9 4 6168.55 725.975 6
0 -9 -4 6584.76 711.301 6
0 -9 -4 4880.41 663.495 9
0 -9 4 5867.2 705.7 4
0 -9 4 6727.72 733.442 5
0 -9 -4 5851.35 699.944 4
0 -9 -4 6455.8 661.134 5
0 9 4 6697.83 734.858 21
0 9 -4 6260.36 735.387 21
0 -9 -4 4839.11 754.017 16
0 -9 4 5007.62 752.522 16
0 -9 -4 5893.16 764.897 14
0 -9 4 6685.22 737.555 14
0 -9 -5 99.7444 237.079 8
0 -9 5 57.138 308.317 9
0 -9 5 357.87 281.982 8
0 -9 -5 808.8 348.836 10
0 -9 -5 82.1568 220.971 4
0 -9 5 72.2473 203.071 5
0 -9 5 6.53685 272.684 6
0 -9 5 284.886 242.27 4
0 -9 -5 250.116 263.14 6
0 9 5 -123.671 252.547 21
0 9 -5 346.378 250.256 21
0 -9 5 751.451 364.859 16
0 -9 -5 180.871 239.12 14
0 -9 5 162.322 209.797 14
0 -9 -6 132974 4013.65 8
0 -9 -6 130397 3575.28 6
0 -9 6 126962 3794.46 8
0 -9 6 130789 4085.83 9
0 -9 -6 129491 3762.09 10
0 -9 6 130412 3811.74 6
0 -9 6 129035 3802.74 4
0 -9 6 143507 3897.86 5
0 -9 -6 127221 3822 4
0 9 -6 130256 3897.2 21
0 9 6 131769 3715.44 21
0 -9 6 130042 4214.41 16
0 -9 -6 129423 4013.78 14
0 -9 -7 109364 3445.98 10
0 -9 7 115425 3774.72 9
0 -9 7 113750 3517.27 8
0 -9 7 110877 3460.36 6
0 -9 -7 116856 3718.94 8
0 -9 -7 112086 3544.79 4
0 -9 7 123926 3603.68 5
0 9 -7 112268 3608.63 21
0 9 7 110315 3383.4 21
0 -9 -7 117526 3797.15 14
0 -9 7 121642 4000.48 16
0 -9 8 61193.1 2422.71 8
0 -9 8 67592.7 2761.9 9
0 -9 -8 64762.3 2534.65 10
0 -9 -8 68644.3 2693.72 8
0 -9 8 60630.3 2436.6 6
0 9 8 63837.1 2431.47 21
0 -9 -8 62983.3 2670.6 14
0 -9 8 63169.2 2809.03 16
0 -9 9 143866 4307.02 9
0 -9 -9 133567 3954.74 10
0 -9 9 127361 3816.77 6
0 -9 -9 138562 4135.59 8
0 -9 9 137790 3885.85 8
0 -9 -9 141734 4317.45 14
0 -9 9 131789 4315.51 16
0 -9 10 21424.2 1356.36 6
0 -9 10 23265 1399.73 8
0 -9 -10 20859 1440.65 8
0 -9 -10 20974.8 1397.94 10
0 -9 10 26166.9 1656.49 9
0 -9 -10 21401.1 1526.44 14
0 -9 10 22802 1655.5 16
0 -9 -11 8878.67 935.797 8
0 -9 11 6503.72 746.572 6
0 -9 -11 8781.5 912.367 10
0 -9 11 8209.41 811.933 8
0 -9 11 9402.21 986.929 9
0 -9 11 7948.56 978.986 16
0 -9 -11 7119.97 883.849 14
0 -9 12 8629.33 949.014 9
0 -9 -12 9111.07 930.333 10
0 -9 -12 10292.1 1010.47 8
0 -9 12 8551.22 832.594 6
0 -9 -12 7913.69 932.273 14
0 -9 12 8855.3 998.345 16
0 -9 13 54878.6 2373.73 9
0 -9 -13 51709.5 2278.04 8
0 -9 -13 49827.2 2223.94 10
0 -9 13 49568.3 2414.1 16
0 -9 -13 48674.4 2337.69 14
0 -9 14 386.549 307.039 9
0 -9 -14 472.314 313.194 8
0 -9 -14 198.504 336.727 10
0 -9 -14 596.633 350.479 14
0 -9 14 296.815 265.116 16
0 -9 -15 79861.7 2793.35 8
0 -9 15 82844.7 2871.74 9
0 -9 -15 78971.1 2789.99 10
0 -9 15 80059.9 2789.83 20
0 -9 -15 86980.4 3075.76 14
0 -9 15 79509.6 2990.09 16
0 -9 16 7249.02 765.781 9
0 -9 -16 7315.84 789.607 10
0 -9 -16 6007.57 684.508 8
0 -9 16 8135.22 801.706 20
0 -9 -16 7971.81 875.695 14
0 -9 16 6871.31 807.616 16
0 -9 -17 6734.45 682.619 8
0 -9 17 6818.44 695.878 9
0 -9 -17 6701.01 712.375 10
0 -9 17 6245.13 685.986 20
0 -9 17 6786.61 758.634 16
0 -9 -17 6862.62 779.247 14
0 -9 18 5188.76 570.071 9
0 -9 -18 5498.99 566.534 8
0 -9 -18 4930.25 593.873 10
0 -9 18 5405.01 600.992 20
0 -9 -18 4680.54 603.894 14
0 -9 18 4511.3 578.437 16
0 -9 -19 -44.0927 145.297 8
0 -9 -19 115.274 225.296 10
0 -9 19 -116.077 171.854 9
0 -9 -19 49.226 191.121 14
0 -9 19 -143.057 219.195 16
0 -9 -20 1074.05 262.658 10
0 -9 -20 960.793 273.871 14
0 -9 20 467.831 196.927 16
0 -9 -21 1522.44 267.573 14
0 -10 0 7263.6 866.501 8
0 -10 0 6830.82 834.705 9
0 -10 0 8341.36 890.014 6
0 -10 0 7927.83 879.889 14
0 -10 0 9334.92 1057.26 16
0 -10 1 128818 3836.6 6
0 -10 -1 130409 3833.54 6
0 -10 1 124660 3930.38 9
0 -10 -1 123172 3858.61 9
0 -10 -1 122041 3880.79 8
0 -10 1 125709 3895.66 8
0 -10 1 126198 3800.6 14
0 -10 1 120274 4100.03 16
0 -10 -1 126482 3895.75 14
0 -10 -1 121821 4126.82 16
0 -10 -2 33323.5 1856.64 8
0 -10 -2 34492.8 1851.41 9
0 -10 -2 34393.8 1773.06 6
0 -10 2 36730.5 1868.49 6
0 -10 2 32761.1 1874.96 9
0 -10 2 35371 1874.76 8
0 -10 2 31353.3 1954.91 16
0 -10 2 34426.1 1796.73 14
0 -10 -2 36032 2072.15 16
0 -10 -2 37759.3 1958.87 14
0 -10 3 1732.11 456.03 6
0 -10 -3 2804.97 529.818 6
0 -10 -3 2076.77 420.046 10
0 -10 3 1891.62 474.424 8
0 -10 -3 2153.17 508.651 9
0 -10 3 2834.84 580.926 9
0 -10 -3 2837.14 543.955 8
0 -10 -3 2340.56 545.85 14
0 -10 -3 2776.31 638.54 16
0 -10 3 1775.77 408.295 14
0 -10 3 1519.45 470.164 16
0 -10 4 22950.4 1475.88 8
0 -10 -4 22472.1 1507.12 8
0 -10 4 21307.1 1442.91 6
0 -10 -4 21456.9 1394.83 9
0 -10 -4 23316.9 1405.5 10
0 -10 4 23529.4 1580.37 9
0 -10 -4 22763.9 1395.47 6
0 -10 -4 23156 1544.9 14
0 -10 4 22698.5 1397.31 14
0 -10 4 23390.1 1653.74 16
0 -10 -5 134408 4098.06 8
0 -10 5 136940 4009.9 8
0 -10 -5 139931 3852.68 6
0 -10 -5 132268 3866 10
0 -10 5 130376 3959.94 6
0 -10 5 131427 4157.72 9
0 -10 -5 128130 4067.93 14
0 -10 5 131336 4318.06 16
0 -10 6 43904.1 2050.28 8
0 -10 6 45077.4 2244.19 9
0 -10 -6 44146.3 2035.51 10
0 -10 6 41708.2 2052.63 6
0 -10 -6 45161.6 1949.96 6
0 -10 -6 47661.4 2232.31 8
0 -10 6 42578.9 2294.16 16
0 -10 -6 43075.3 2156.31 14
0 -10 -7 51221.7 2270.97 10
0 -10 7 58161.2 2562.11 9
0 -10 -7 58492.7 2492.61 8
0 -10 7 55318.8 2302.05 8
0 -10 7 52963.4 2313.91 6
0 -10 -7 57961 2524.91 14
0 -10 7 56526.2 2654.88 16
0 -10 8 89.3629 252.436 6
0 -10 8 750.097 396.666 9
0 -10 -8 159.709 261.511 10
0 -10 -8 -24.7623 262.133 8
0 -10 8 -4.92422 201.727 8
0 -10 8 147.219 320.302 16
0 -10 -8 229.559 294.485 14
0 -10 9 7278.08 906.219 9
0 -10 9 5351.64 691.967 8
0 -10 9 7439.48 817.637 6
0 -10 -9 5919.6 767.441 10
0 -10 -9 6006.62 792.442 8
0 -10 -9 8203.82 927.924 14
0 -10 9 6041.77 847.774 16
0 -10 10 2237.89 486.821 6
0 -10 -10 2072.36 483.196 10
0 -10 10 2692.02 572.206 9
0 -10 -10 1778.67 464.427 8
0 -10 10 1946.44 404.164 8
0 -10 -10 2197.79 518.412 14
0 -10 10 1620.14 473.699 16
0 -10 11 389.149 249.414 6
0 -10 -11 395.124 278.108 8
0 -10 11 421.795 354.463 9
0 -10 -11 325.429 336.467 10
0 -10 -11 660.096 333.186 14
0 -10 11 375.224 349.184 16
0 -10 -12 282.29 330.115 10
0 -10 12 -34.8006 268.798 9
0 -10 -12 137.243 217.969 8
0 -10 -12 300.112 297.262 14
0 -10 12 558.708 354.148 16
0 -10 -13 9742.54 907.315 8
0 -10 -13 6873.4 796.713 10
0 -10 13 7567.2 845.229 9
0 -10 13 8126.61 897.408 16
0 -10 -13 7286.97 837.343 14
0 -10 -14 19211.2 1260.84 10
0 -10 -14 19348.5 1242.22 8
0 -10 14 20479.1 1311.5 9
0 -10 14 20637.3 1371.57 16
0 -10 -14 19718.5 1331.43 14
0 -10 -15 761.215 342.066 10
0 -10 15 799.31 303.882 9
0 -10 -15 594.739 265.94 8
0 -10 -15 462.075 271.441 14
0 -10 15 379.754 266.489 16
0 -10 -16 14460.6 1009.29 10
0 -10 -16 15433.5 979.018 8
0 -10 16 13491.1 953.337 9
0 -10 -16 15650.5 1079.74 14
0 -10 16 15070.1 1038.72 16
0 -10 17 1104.98 292.978 9
0 -10 -17 1216.69 304.083 8
0 -10 -17 1225.61 336.398 10
0 -10 17 850.89 282.601 16
0 -10 -17 864.099 288.822 14
0 -10 18 2392 341.005 9
0 -10 -18 2665.84 340.862 8
0 -10 -18 2796.92 396.348 10
0 -10 -18 2960.79 436.857 14
0 -10 18 3150.35 416.561 16
0 -10 -19 23489 1011.13 10
0 -10 -19 21422.9 1018.78 14
0 -11 0 219.894 359.463 6
0 -11 0 -27.9553 244.975 9
0 -11 0 86.7869 304.21 8
0 -11 0 45.3496 412.092 16
0 -11 0 -154.809 280.923 14
0 -11 1 281326 6573.87 6
0 -11 -1 280626 6590.5 8
0 -11 -1 280182 6541.52 6
0 -11 1 274502 6623.59 9
0 -11 -1 276136 6513.01 9
0 -11 1 279787 6559.97 8
0 -11 1 276897 6355.14 14
0 -11 1 285612 6960.64 16
0 -11 -1 286122 6966.02 16
0 -11 -1 277241 6461.34 14
0 -11 2 25275.5 1578.21 6
0 -11 -2 27114.7 1640.47 8
0 -11 -2 26246.1 1564.04 6
0 -11 2 25112 1610.42 9
0 -11 2 27747 1625.66 8
0 -11 -2 26540.6 1577.92 9
0 -11 2 26620.7 1740.63 16
0 -11 2 26395.6 1497.71 14
0 -11 -2 25585.7 1566.5 14
0 -11 -3 4771.53 664.068 6
0 -11 3 5358.38 756.564 6
0 -11 3 4356.22 715.167 9
0 -11 3 5671.68 718.932 8
0 -11 -3 4486.91 640.233 9
0 -11 -3 4663.84 717.796 8
0 -11 -3 5341.79 715.231 14
0 -11 3 5013.68 649.119 14
0 -11 3 3922.14 702.153 16
0 -11 4 18237.2 1341.88 6
0 -11 4 22149.5 1508.95 9
0 -11 4 20608.8 1379.12 8
0 -11 -4 20040 1318.09 6
0 -11 -4 19304.8 1234.57 10
0 -11 -4 20157.8 1409.34 8
0 -11 4 21447.2 1543.7 16
0 -11 -4 21050.5 1420.75 14
0 -11 -5 59134.6 2489.71 8
0 -11 -5 61056.3 2323.49 6
0 -11 5 57181.8 2343.72 8
0 -11 5 56082.8 2392.82 6
0 -11 -5 55329.5 2247.19 10
0 -11 5 56204.4 2501.25 9
0 -11 5 61217 2676.1 16
0 -11 -5 58884.3 2461.23 14
0 -11 6 2497.3 565.118 6
0 -11 -6 3191.73 534.367 6
0 -11 6 2668.57 556.125 9
0 -11 -6 2692.55 561.956 8
0 -11 -6 3595.13 587.575 10
0 -11 6 2669.64 516.527 8
0 -11 6 2901.95 631.936 16
0 -11 -6 2808.86 554.293 14
0 -11 7 4727.94 681.612 6
0 -11 7 5115.11 661.7 8
0 -11 7 3757.96 648.286 9
0 -11 -7 5468.61 740.625 8
0 -11 -7 5015.73 684.709 10
0 -11 7 4938.81 753.163 16
0 -11 -7 5006.98 714.771 14
0 -11 8 3441.66 578.727 6
0 -11 -8 2511.78 486.471 10
0 -11 8 3549.25 643.913 9
0 -11 -8 3789.21 614.581 8
0 -11 8 3951.12 577.128 8
0 -11 8 3576.68 649.271 16
0 -11 -8 3868.25 618.211 14
0 -11 9 2581.25 510.207 6
0 -11 9 2622.27 564.178 9
0 -11 9 2678.82 463.816 8
0 -11 -9 2537.53 523.9 10
0 -11 -9 2289.88 499.79 8
0 -11 -9 2364.3 507.603 14
0 -11 9 3507.85 630.178 16
0 -11 -10 20511.5 1325.13 8
0 -11 -10 19522.3 1269.07 10
0 -11 10 18216.1 1190.53 6
0 -11 10 19875.2 1364.19 9
0 -11 10 20105.5 1387.67 16
0 -11 -10 17648.2 1260.4 14
0 -11 11 417.111 345.124 9
0 -11 -11 343.232 288.2 8
0 -11 -11 92.4109 255.997 10
0 -11 -11 -103.143 272.273 14
0 -11 11 -92.0515 296.723 16
0 -11 -12 12111.3 957.774 8
0 -11 12 10361 933.383 9
0 -11 -12 11601.6 964.071 10
0 -11 12 10729.7 949.054 16
0 -11 -12 12354.5 1008.83 14
0 -11 -13 28634.1 1419.92 8
0 -11 13 29431 1499.35 9
0 -11 -13 27906.6 1434.19 10
0 -11 -13 29202 1507.49 14
0 -11 13 26001.7 1423.34 16
0 -11 -14 32817.4 1452.32 8
0 -11 -14 32332.2 1495.98 10
0 -11 14 30922.9 1475.2 9
0 -11 -14 31324.6 1492.25 14
0 -11 14 30743 1464.43 16
0 -11 -15 5.9136 163.979 8
0 -11 -15 51.1643 180.895 10
0 -11 15 3.2746 165.369 9
0 -11 15 38.58 185.956 16
0 -11 -15 -15.0722 171.65 14
0 -11 -16 1362.39 299.347 10
0 -11 16 1478.92 295.195 9
0 -11 -16 1024.84 237.584 8
0 -11 -16 1152.31 301.41 14
0 -11 16 1468.95 296.9 16
0 -11 -17 3360.6 391.775 10
0 -11 17 4119 389.613 9
0 -11 -17 3880 415.616 14
0 -12 0 40658.6 1876.29 9
0 -12 0 38063.5 1874.1 6
0 -12 0 41739.1 1923.76 8
0 -12 0 39407.4 1746.17 14
0 -12 1 85800.6 2888.55 8
0 -12 1 81437.4 2884.83 6
0 -12 -1 83446.7 2864.08 6
0 -12 -1 85222.1 2840.9 9
0 -12 -1 81758.8 2858.74 8
0 -12 1 87343.8 2948.12 9
0 -12 1 86254.1 2691.76 14
0 -12 -1 87721.4 2792.04 14
0 -12 -2 13205.2 1067.32 8
0 -12 -2 11929 990.552 6
0 -12 2 12308.4 1004.44 8
0 -12 2 11564.4 1032.91 6
0 -12 2 13230.1 1074.36 9
0 -12 2 12888.2 923.341 14
0 -12 2 12851.4 1131.38 16
0 -12 -2 13049.4 1003.66 14
0 -12 -3 37556.4 1815.87 8
0 -12 3 35815.4 1798.83 6
0 -12 3 36664.9 1740.65 8
0 -12 -3 34718.1 1678.45 6
0 -12 3 35211.7 1796.77 9
0 -12 -3 34180.2 1674.55 14
0 -12 3 35212.6 1887.03 16
0 -12 4 1007.63 390.193 6
0 -12 -4 1361.23 351.224 6
0 -12 4 572.586 312.557 9
0 -12 4 1271.25 372.961 8
0 -12 -4 1355.06 431.203 8
0 -12 4 876.956 395.468 16
0 -12 -4 1106.25 369.652 14
0 -12 -5 7286.37 694.103 10
0 -12 5 7411.62 753.132 8
0 -12 5 7366.36 827.33 9
0 -12 5 6875.97 795.03 6
0 -12 -5 7758.99 816.135 8
0 -12 -5 7890.83 740.269 6
0 -12 5 7478.66 844.97 16
0 -12 -5 7680.54 787.293 14
0 -12 6 1748.03 452.379 6
0 -12 -6 2475.74 496.648 8
0 -12 -6 1823.94 384.417 10
0 -12 6 1889.85 449.898 9
0 -12 6 1255.18 351.718 8
0 -12 6 1308.18 409.048 16
0 -12 -6 1424.56 367.587 14
0 -12 7 -49.8202 270.202 6
0 -12 7 -129.825 301.833 9
0 -12 -7 -29.464 196.804 10
0 -12 7 211.781 230.7 8
0 -12 -7 -34.1231 211.339 8
0 -12 -7 57.9918 246.315 14
0 -12 7 590.888 331.608 16
0 -12 8 4101.63 497.636 8
0 -12 -8 3651.82 498.389 10
0 -12 8 3815.38 576.635 9
0 -12 -8 3923.88 555.663 8
0 -12 8 3834.45 578.681 16
0 -12 -8 4320.19 574.623 14
0 -12 -9 16251.7 1073.43 8
0 -12 -9 15446.6 1010.89 10
0 -12 9 15894.1 1121.19 9
0 -12 -9 15058.3 1036.4 14
0 -12 9 15054.9 1073.9 16
0 -12 -10 4113.91 535.379 8
0 -12 10 4827.79 598.122 9
0 -12 -10 4035.17 521.862 10
0 -12 10 4519.78 586.679 16
0 -12 -10 4777.18 586.521 14
0 -12 -11 6508 625.744 8
0 -12 -11 5670.7 591.83 10
0 -12 11 6119.5 651.674 9
0 -12 -11 5915.62 614.432 14
0 -12 11 5785.25 619.677 16
0 -12 12 25709 1264.48 9
0 -12 -12 23752 1175.86 10
0 -12 -12 25594.4 1201.57 8
0 -12 12 25462.2 1201.72 16
0 -12 -12 23938.7 1197.08 14
0 -12 13 171.363 194.819 9
0 -12 -13 -41.1868 164.018 10
0 -12 -13 82.6661 151.136 8
0 -12 13 59.7066 167.399 16
0 -12 -13 92.0212 170.37 14
0 -12 14 1781.23 306.405 9
0 -12 -14 1137.74 261.725 10
0 -12 -14 1199.34 236.367 8
0 -12 -14 1521.74 292.688 14
0 -13 0 -46.3474 203.075 8
0 -13 -1 4142.84 539.2 8
0 -13 1 4672.41 558.593 8
0 -13 2 66095.1 2161.91 8
0 -13 -2 70827.2 2283.25 8
0 -13 2 64667.5 2185.49 9
0 -13 3 117002 3063.13 8
0 -13 3 117802 3190.75 9
0 -13 -3 123313 3238.43 8
0 -13 -3 117761 2960.91 14
0 -13 4 30965 1332.42 8
0 -13 -4 32132.9 1445.37 8
0 -13 4 32532.6 1473.66 9
0 -13 -4 31827.2 1325.07 14
0 -13 5 13271.6 920.018 9
0 -13 -5 13861.7 917.979 8
0 -13 5 12600.9 801.05 8
0 -13 -5 13076.4 825.299 14
0 -13 6 23632.4 1221.88 9
0 -13 -6 26184.2 1246.79 8
0 -13 -6 23816.3 1120.54 14
0 -13 7 33805 1451.59 9
0 -13 -7 33640.4 1399.89 8
0 -13 -7 31176.1 1288.72 14
0 -13 8 8381.54 686.584 9
0 -13 -8 7836.51 638.336 8
0 -13 -8 7274.58 584.578 14
0 -13 9 339.821 197.47 9
0 -13 -9 5.58532 119.559 14
0 -13 10 375.559 187.237 9
0 -13 -10 228.683 152.424 8
0 -13 -10 39.1518 146.113 14
0 -13 -11 100.08 126.307 8
0 -13 11 353.237 176.686 9
0 -14 0 511.699 176.502 8
0 -14 -1 17663.6 811.545 8
0 -14 -2 15026.8 748.76 8
0 -14 -3 205.746 129.364 8
-1 0 0 4.10761 86.8919 23
1 0 0 114.291 46.2058 4
1 0 0 13.5088 79.3673 1
-1 0 -1 751871 12095.6 23
1 0 -1 736281 12069 1
-1 0 -2 56423.6 1332.97 23
-1 0 2 56807.9 1332.38 23
-1 0 -2 57853.2 1300.03 22
-1 0 2 57126.8 1124.64 21
1 0 2 57892.7 1354.84 1
1 0 2 59891.6 1003.85 4
1 0 -2 56844 1309.06 2
-1 0 2 60348.8 1349.19 3
1 0 -2 56671.8 1299.13 1
-1 0 -3 221384 4041.8 23
-1 0 3 234695 4084.55 23
-1 0 -3 231634 4096.27 22
-1 0 3 235730 3874.03 21
1 0 3 234143 4120.8 1
1 0 -3 235855 4022.51 1
-1 0 3 234933 4081.75 3
1 0 -3 231354 4064.71 2
1 0 4 613383 9745.75 21
-1 0 -4 588881 9849.11 23
-1 0 4 621521 9858.27 23
-1 0 4 611202 9699.32 21
1 0 4 607056 9914.07 1
1 0 5 812729 13079.6 1
-1 0 6 677126 10826.1 21
-1 0 -6 660262 10885.8 23
-1 0 -6 694524 11087.3 22
-1 0 6 665802 10934.9 3
1 0 6 651947 10946.5 1
-1 0 -7 44234.3 1273.27 23
-1 0 -7 47448.8 1419.07 22
1 0 7 46719.9 1297.94 21
-1 0 7 46654 1271.59 21
1 0 -7 46344.3 1260.72 2
1 0 7 46635.4 1333.08 1
-1 0 7 47439.2 1344.92 3
-1 0 -8 787.394 176.028 23
1 0 8 998.314 194.981 21
-1 0 8 1091.83 194.883 21
-1 0 -8 846.856 225.277 22
1 0 8 890.862 191.108 1
1 0 -8 1260.05 205.734 2
-1 0 8 910.379 201.286 3
-1 0 -9 7551 520.313 23
-1 0 9 7511.85 506.789 21
-1 0 -9 8739.3 625.899 22
1 0 9 7396.13 516.625 21
1 0 -9 7346.12 484.768 2
1 0 9 7385.63 520.854 1
-1 0 9 8195.12 578.654 3
-1 0 -10 1430.74 286.501 22
-1 0 10 954.824 217.892 21
1 0 10 1168.6 234.46 21
-1 0 -10 1462.27 259.48 23
1 0 -10 1129.65 218.001 2
-1 0 10 1535.9 293.104 3
1 0 10 1192.34 220.628 3
1 0 11 8947 640.78 21
-1 0 -11 10913.9 777.517 22
1 0 -11 8672.59 607.135 22
-1 0 11 8365.96 597.592 21
-1 0 -11 8913.73 637.787 23
1 0 11 8917.39 581.478 3
1 0 -11 8572.27 576.564 2
-1 0 11 8569.87 653.902 3
1 0 11 8787.19 629.95 1
-1 0 12 43.4658 125.374 21
1 0 -12 213.317 146.618 22
-1 0 -12 60.3444 144.658 22
1 0 12 35.044 149.314 21
-1 0 -12 55.6158 125.177 23
1 0 12 594.318 199.976 3
1 0 -12 514.343 177.664 2
1 0 12 -1.83762 129.894 1
1 0 13 32693.3 1403.02 21
-1 0 -13 32314.1 1365.59 23
1 0 -13 31502.7 1350.19 22
-1 0 -13 32110.6 1518.45 22
-1 0 13 31779.1 1344.51 21
1 0 13 35025.5 1401.12 1
-1 0 13 31741.2 1424.01 3
1 0 13 32974.9 1299.37 3
1 0 -13 31094.8 1241.57 2
1 0 -14 3760.56 481.089 22
-1 0 -14 5254.53 636.095 22
-1 0 -14 5007.3 539.161 23
-1 0 14 4487.51 521.716 21
1 0 14 5280.25 579.1 21
-1 0 14 5190.25 585.59 3
1 0 -14 4945.57 498.993 2
1 0 14 5074.07 544.079 1
1 0 14 5105.65 513.243 3
-1 0 15 1827.74 352.691 21
-1 0 -15 2506.27 420.242 23
1 0 -15 1943.45 372.799 22
1 0 15 1562.41 339.567 21
-1 0 -15 2050.55 445.988 22
1 0 -15 1679.66 324.873 2
-1 0 15 2087.33 425.823 3
1 0 15 2216.71 381.19 3
1 0 -16 89650.6 2897.46 7
-1 0 -16 100775 2827.02 7
-1 0 -16 103889 3343.08 22
-1 0 -16 100374 2974.98 23
-1 0 16 92718.1 2913.46 18
-1 0 16 99579.4 2977.44 21
1 0 16 98262 2637.61 18
1 0 16 96806.8 2615.3 19
1 0 -16 95649.3 3007.1 22
1 0 16 105365 2876.77 3
1 0 -16 103234 2813.73 2
-1 0 16 99255.1 3068.7 3
-1 0 -17 92119.7 2753.9 7
1 0 -17 80835.5 2828.42 7
1 0 17 89523.6 2539.11 18
-1 0 -17 96313.1 3307.28 22
1 0 -17 90424.5 2962.47 22
-1 0 17 88766.7 2890.42 21
-1 0 17 88684.5 2877.82 18
1 0 17 94902.2 2807.09 3
-1 0 17 92539.3 3024.73 3
1 0 -17 92581.5 2719.72 2
-1 0 -18 44668.7 1861.9 7
1 0 -18 43339.6 1988.81 7
1 0 -18 44174.8 2032 22
-1 0 18 44836.8 1991.11 18
-1 0 -18 45537.2 2263.5 22
-1 0 18 46611.4 2049.93 21
1 0 18 47001.3 1752.51 18
1 0 18 49793.7 1966.06 3
-1 0 18 47952 2137.59 3
-1 0 -19 114831 3388.27 7
1 0 -19 120104 3677.14 7
1 0 19 127263 3549.97 3
-1 0 19 121003 3775.14 3
-1 0 19 127302 3754.74 21
-1 0 -19 121673 4034.07 22
1 0 -19 116914 3703.83 22
-1 0 19 119778 3617.29 18
1 0 19 123056 3273.55 18
-1 0 19 135465 3802.4 20
1 0 -20 21.0918 237.551 7
-1 0 -20 187.096 224.397 7
-1 0 20 135.73 288.161 20
1 0 20 43.1762 172.159 18
1 0 -21 16718.2 1262.12 7
-1 0 -21 16652.6 1165.71 7
1 0 21 18165.4 1112.16 18
-1 0 21 19620.6 1310.12 20
-1 0 21 19754.3 1317.37 18
1 0 -22 18979.4 1311.68 7
-1 0 -22 21278.1 1299.43 7
-1 0 22 19950.1 1317.95 18
1 0 22 19913.4 1161.82 18
-1 0 22 20514.7 1298.09 20
-1 0 -23 5119.2 630.528 7
1 0 -23 5745.56 720.042 7
-1 0 23 5329.14 671.487 18
1 0 23 5323.78 581.205 18
1 0 -24 72315 2584 7
-1 0 -24 74861.2 2479.49 7
-1 0 24 73186.1 2472.63 18
1 0 24 74188.5 2272.78 18
1 0 -25 30313.2 1505.37 7
-1 0 -25 29208 1395.6 7
1 0 25 27335.5 1193.48 18
-1 0 25 28690.9 1336.2 18
1 0 -26 2706.13 418.569 7
-1 0 -26 3109.18 435.339 7
1 0 26 2999.12 378.145 20
-1 0 26 2909.58 457.561 16
1 0 -27 1220.27 252.511 7
-1 0 -27 1246.98 264.759 7
-1 0 27 1210.68 291.661 16
-1 -1 -27 621.932 217.862 7
1 -1 27 579.501 161.912 20
-1 1 27 205.789 162.207 16
1 1 -26 10146.2 755.077 7
-1 -1 -26 10287.3 760.723 7
-1 1 26 8592.16 670.992 18
1 -1 26 9920.17 706.781 20
1 1 -25 360.462 254.288 7
-1 -1 -25 37.9316 211.133 7
-1 1 25 82.7666 230.36 18
1 1 -24 26804 1446.62 7
-1 -1 -24 27106 1409.47 7
-1 1 24 23427.9 1340.46 18
1 -1 24 22196.1 1256.28 16
1 1 -23 22424.3 1365.04 7
-1 -1 -23 22618.4 1333.26 7
1 -1 23 20809.9 1096.11 18
-1 1 23 22069.9 1358.7 18
-1 -1 -22 22732.7 1352.72 7
1 1 -22 23578.8 1447.96 7
1 -1 22 23421.8 1210.19 18
-1 1 22 21349.3 1397.49 18
1 1 -21 56527 2339.57 7
-1 -1 -21 56439 2228.22 7
1 -1 21 57940.2 2031 18
-1 1 21 56691 2382.07 18
1 1 -20 162383 4471.11 7
-1 -1 -20 174458 4436.83 7
-1 1 20 167216 4582.48 18
1 -1 20 178773 4137.56 18
1 1 -19 108733 3388.65 7
-1 -1 -19 113438 3329.33 7
1 -1 19 113113 3059.33 18
-1 -1 -19 120402 4033.45 22
-1 1 19 108415 3453.75 18
-1 1 19 117765 3572.38 21
1 1 -19 114574 3631.28 22
1 -1 19 116485 3444.83 3
-1 -1 -18 66439.8 2373.84 7
1 1 -18 62752.3 2392.6 7
1 1 -18 66316 2575.38 22
1 -1 18 63893.5 2108.25 18
-1 1 18 66537.6 2514.68 18
-1 -1 -18 74644.3 2962.6 22
-1 1 18 68056.7 2533.57 21
1 -1 18 69536 2440.34 3
-1 -1 -17 39011.8 1688.88 7
1 1 -17 36824.2 1708.96 7
1 -1 17 40324.4 1539.01 18
-1 -1 -17 33934.5 1948.05 22
1 1 -17 37387.4 1806.57 22
-1 1 17 34903.9 1701.39 18
-1 1 17 36299.8 1744.08 21
1 -1 17 38524.8 1527.71 19
1 1 -17 39465.3 1606.59 2
1 -1 17 43565.5 1800 3
-1 1 17 37287 1760.95 3
1 1 -16 37640.8 1674.75 7
-1 -1 -16 39794.6 1651.69 7
1 -1 16 40022.1 1527.61 19
1 -1 16 38142.9 1456.74 18
-1 1 16 39744.7 1747.48 21
1 1 -16 38892.2 1773.72 22
-1 -1 -16 41984.5 2038.53 22
-1 1 16 39331.8 1773.29 18
-1 1 16 44732.7 1856.31 3
1 1 -16 42250.1 1604.61 2
1 -1 16 42956.4 1726.33 3
1 1 -15 25867.8 1352.18 22
-1 -1 -15 27633.9 1564 22
-1 1 15 26381.8 1347.36 21
1 1 -15 26658.1 1207.78 2
1 -1 15 28609.5 1319.79 3
-1 1 15 28204.6 1381.74 3
1 1 -14 161257 3928.62 22
-1 -1 -14 157093 4237.39 22
-1 -1 -14 159434 3738.2 23
-1 1 14 162776 3923.79 21
-1 1 14 163318 3910.61 3
1 -1 14 169460 3805.18 3
1 1 -14 167405 3676.9 2
-1 -1 -13 20313.9 1217.77 22
-1 -1 -13 19499.7 985.293 23
1 1 -13 19251.4 1045.35 22
-1 1 13 19678.5 1070.85 21
1 1 -13 19485.6 934.611 2
1 -1 13 19785.6 992.477 3
-1 1 13 20220 1063.74 3
-1 1 12 44506.6 1586.9 21
-1 -1 -12 43429.2 1478.21 23
-1 -1 -12 43375.6 1764.25 22
-1 1 12 42366.7 1550.28 3
1 1 -12 43818.4 1433.44 2
1 -1 12 43780.2 1485.66 3
1 -1 12 42372.5 1447.15 1
-1 1 11 3052.28 390.918 21
-1 -1 -11 3143.72 452.256 22
-1 -1 -11 2948.34 344.15 23
1 1 -11 3542.26 372.422 2
-1 1 11 3171.88 379.837 3
1 -1 11 3692.25 389.3 3
1 -1 11 3506.45 371.135 1
-1 -1 -10 120970 3032.74 22
-1 -1 -10 114586 2612.1 23
-1 1 10 118414 2780.06 21
-1 1 10 119290 2729.19 3
1 -1 10 116097 2632.98 3
1 1 -10 114481 2587.78 2
1 -1 10 115156 2655.67 1
-1 -1 -9 18458.3 948.354 22
-1 1 9 18497.9 853.026 21
-1 -1 -9 19421 795.974 23
1 -1 9 19604.9 807.906 3
1 1 -9 17042.1 751.275 2
-1 1 9 17328.7 795.531 3
1 -1 9 18159.6 796.346 1
-1 -1 -8 83929.5 1990.23 23
-1 1 8 88485.6 2138.09 21
-1 -1 -8 95332.3 2366.88 22
-1 1 8 92610.5 2087.49 3
1 -1 8 89555.4 2043.29 3
1 -1 8 86442 2060.33 1
1 1 -8 92273.1 2062.01 2
1 -1 8 92265.3 1624.74 5
-1 1 7 40427 1182.57 21
-1 -1 -7 38174.7 1291.41 22
-1 -1 -7 36114.6 1056.5 23
1 1 -7 38001.4 1112.89 2
1 -1 7 38562.1 806.148 5
1 -1 7 36907.8 1117.72 1
-1 1 7 38122.8 1108.52 3
-1 -1 -6 279227 4967.5 23
-1 -1 -6 293126 5318.5 22
-1 1 6 295851 5096.78 21
1 -1 6 282434 5077.01 1
1 1 -6 288670 5066.93 2
1 -1 6 293485 4662.67 5
-1 1 6 286685 5022.85 3
-1 -1 -5 170947 3385.69 22
-1 1 5 170711 3204.83 23
-1 1 5 170475 3179.41 21
-1 -1 -5 162350 3080.61 23
1 1 -5 177702 3058.98 1
-1 1 5 172193 3131.85 3
1 1 -5 168539 3195.05 2
1 -1 5 172695 2871.97 5
1 -1 5 167998 3190.51 1
-1 1 3 114903 2268.31 23
-1 -1 -3 111830 2133.31 23
-1 -1 -3 110237 2316.96 22
-1 1 3 112378 2161.19 21
-1 -1 -3 110821 1834.09 4
1 -1 3 115585 2047.29 4
-1 1 3 113641 2140.37 3
1 -1 3 111944 2217.92 1
1 1 -3 110622 2230.53 2
1 -1 3 113220 2045.07 5
1 1 -3 111270 2158.77 1
-1 -1 -2 327394 5713.71 22
-1 -1 -2 330031 5537.41 23
-1 1 2 329459 5708.94 23
-1 1 2 324954 5543.27 21
1 1 -2 326943 5665.91 2
1 -1 2 337398 5641.58 1
1 -1 2 336087 5451.98 4
1 1 -2 337923 5609.96 1
-1 1 1 224930 3976.37 23
-1 -1 -1 229018 3820.14 23
-1 1 1 218890 3795.41 21
1 -1 1 223420 3737.4 4
1 -1 1 220598 3888.83 1
1 1 -1 218301 3922.92 2
1 1 -1 224717 3908.52 1
-1 1 -1 222500 3735.63 22
-1 -1 1 223236 3869.68 23
-1 1 -1 225363 4041.18 23
1 -1 -1 226932 3919.37 1
-1 -1 1 228940 4041.09 3
1 -1 -1 221907 3822.61 2
1 1 1 234070 4010.1 1
1 -1 -1 226013 3881.32 4
-1 1 -2 334993 5492.8 22
-1 -1 2 327555 5568.15 23
-1 1 -2 326418 5704.5 23
-1 -1 2 336786 5249.61 21
1 -1 -2 340988 5610.72 1
-1 -1 2 333979 5724.68 3
1 -1 -2 332675 5529.72 2
1 -1 -2 339205 5635.57 4
1 1 2 338234 5694.67 1
-1 -1 3 112323 1976.28 21
-1 1 -3 111440 2171.65 22
-1 1 -3 109044 2302.69 23
1 1 3 118882 2040.47 21
1 -1 -3 112465 2174.09 2
-1 -1 3 111101 2318.57 3
1 -1 -3 115693 2224.97 1
1 1 3 114810 2311 1
-1 -1 5 171034 3050.61 21
-1 1 -5 174147 3312.78 23
-1 1 -5 171313 3257.75 22
1 1 5 171786 3113.09 21
1 1 5 165321 3299.44 1
1 -1 -5 173224 3167.86 2
-1 -1 5 167593 3321.38 3
-1 1 -6 287780 5258.12 23
1 1 6 294168 5096.15 21
-1 1 -6 307553 5285.41 22
-1 -1 6 292043 5027.5 21
1 1 6 288773 5274.96 1
1 -1 -6 294747 5117 2
-1 -1 6 286062 5285.67 3
-1 -1 7 36695.7 1070 21
-1 1 -7 37700.7 1205.77 23
-1 1 -7 38014.6 1230.28 22
1 1 7 38181.8 1121.5 21
-1 -1 7 38123.3 1238.71 3
1 -1 -7 36727.4 1101.16 2
1 1 7 37045.5 1210.85 1
-1 1 -8 93237.6 2258.23 23
1 -1 -8 89194.1 2030.85 22
-1 1 -8 91072.3 2284.61 22
1 1 8 92344.3 2128.01 21
-1 -1 8 89997 2069.29 21
-1 -1 8 90042.7 2255.9 3
1 1 8 92940.3 2261.29 1
1 -1 -8 93685.4 2108.53 2
-1 1 -9 17434.1 888.912 22
1 -1 -9 17391.7 763.702 22
-1 -1 9 18114 790.125 21
1 1 9 17815.9 810.224 21
-1 -1 9 17680.3 888.015 3
1 -1 -9 17257.3 775.072 2
1 1 9 17772 874.931 1
1 -1 -10 116181 2658.45 22
-1 1 -10 118876 2933.38 22
-1 -1 10 117517 2686.52 21
1 1 10 116110 2720.88 21
1 1 10 119090 2851.25 1
1 1 10 116644 2580.01 3
-1 -1 10 114467 2875.76 3
1 -1 -10 117455 2659.47 2
1 -1 -11 3058.94 359.473 22
-1 1 -11 3480.25 444.783 22
-1 -1 11 3572.1 391.261 21
1 1 11 3507.76 399.52 21
1 -1 -11 3753.19 389.848 2
1 1 11 2906.41 385.745 1
-1 -1 11 3739.13 457.121 3
1 1 11 3132.79 352.206 3
-1 -1 12 43122.7 1522.15 21
-1 1 -12 44670.3 1727.79 22
-1 1 -12 41617.4 1611.98 23
1 -1 -12 40770.1 1489.69 22
1 1 12 42195 1551.38 21
1 -1 -12 44342.6 1484.08 2
1 1 12 43044.1 1618.16 1
-1 -1 12 40457.6 1622.56 3
1 1 12 44027.2 1447.12 3
-1 1 -13 19055 1087.07 23
1 -1 -13 18312.1 998.387 22
-1 1 -13 18584.6 1133.27 22
1 1 13 20205.2 1072.95 21
-1 -1 13 19143.4 1023.01 21
1 1 13 19028.2 945.276 3
-1 -1 13 18832.7 1110.57 3
1 -1 -13 20721.4 1004.12 2
1 1 13 20060.2 1097.04 1
-1 1 -14 157226 3979.35 23
-1 1 -14 164664 4198.95 22
1 -1 -14 158964 3868.35 22
-1 -1 14 161794 3875.24 21
1 1 14 162800 3940.71 21
1 -1 -14 166805 3777.81 2
-1 -1 14 158002 4026.09 3
1 1 14 167269 3718.37 3
1 1 14 164536 3984.31 1
1 1 15 27218.8 1389.34 21
-1 1 -15 28582.1 1544.66 22
-1 1 -15 27027.6 1417.89 23
1 -1 -15 27830.7 1381.95 22
-1 -1 15 27781.6 1371.09 21
-1 -1 15 29928.8 1534.2 3
1 -1 -15 28233.9 1302.73 2
1 1 15 28222.2 1273.91 3
1 1 15 26253 1381.86 1
1 -1 -16 35879.7 1759.37 7
-1 1 -16 41597.6 1655.93 7
1 -1 -16 42115.6 1811.46 22
1 1 16 40674.8 1536.17 18
-1 -1 16 35732.1 1660.09 18
-1 1 -16 41234.5 1842.52 23
-1 1 -16 40681.4 1952.59 22
1 1 16 40515.4 1808.22 21
-1 -1 16 39760.4 1749.56 21
-1 -1 16 42686 1941.29 3
1 1 16 39256.8 1758.09 1
1 1 16 41757.9 1634.13 3
1 -1 -16 39919.4 1642.42 2
1 -1 -17 34203.3 1764.11 7
-1 1 -17 37083 1614.04 7
1 -1 -17 34815.7 1726.76 22
-1 -1 17 38628.6 1768.84 21
-1 -1 17 35913.1 1716.68 18
-1 1 -17 39719.7 1849.46 23
-1 1 -17 38210.4 1947.86 22
1 1 17 38355.7 1542.27 18
1 1 17 36808.6 1779.08 21
-1 -1 17 38200.7 1888.62 3
1 1 17 38057 1616.8 3
1 -1 -18 63638.7 2563.96 7
-1 1 -18 68893.9 2366.37 7
1 -1 -18 65584.6 2508.74 22
-1 -1 18 64546.2 2452.99 18
-1 1 -18 66657.3 2566.91 23
-1 1 -18 61006.1 2671.91 22
1 1 18 70971.9 2254.3 18
1 1 18 67285.1 2324.27 3
-1 -1 18 71551.9 2737.24 3
-1 1 -19 118065 3354.28 7
1 -1 -19 113864 3637.13 7
-1 1 -19 121156 3962.69 22
-1 -1 19 121740 3742.39 20
1 1 19 115429 3180.97 18
-1 -1 19 116114 3527.68 18
-1 -1 19 118408 3806.78 3
1 1 19 114676 3321.8 3
1 -1 -20 176093 4801.04 7
-1 1 -20 175447 4409.46 7
-1 -1 20 183487 4820.89 20
-1 -1 20 173107 4563.78 18
1 1 20 170542 4238.99 18
1 -1 -21 56733.1 2443.61 7
-1 1 -21 58624.4 2227.32 7
-1 -1 21 56716.1 2287.54 18
-1 -1 21 63366.3 2511.71 20
1 1 21 55330 2086.53 18
1 -1 -22 24006.2 1507.98 7
-1 1 -22 23900 1371.02 7
-1 -1 22 24836.8 1488.01 20
1 1 22 23327 1281.27 18
-1 -1 22 23873.4 1401.91 18
1 -1 -23 20822.6 1370.87 7
-1 1 -23 22103.4 1272.14 7
-1 -1 23 24567.7 1342.41 18
1 1 23 21570.5 1201.13 18
-1 -1 23 21780.8 1324.86 20
-1 1 -24 25183.6 1328.02 7
1 -1 -24 27201.6 1523.15 7
1 1 24 25144.5 1253.69 18
-1 -1 24 27677.3 1401.65 20
1 -1 -25 274.035 221.698 7
-1 1 -25 148.798 185.444 7
-1 -1 25 302.236 201.038 20
-1 -1 25 58.0152 236.769 16
1 1 25 281.818 189.782 18
1 -1 -26 9673.84 777.397 7
-1 1 -26 10579.7 756.643 7
1 1 26 10626.1 679.101 18
-1 -1 26 9754.39 802.595 16
-1 1 -27 826.519 237.767 7
1 -1 -27 874.157 263.049 7
-1 -1 27 734.144 224.13 16
-1 -2 -27 18525.9 907.771 7
-1 2 27 18803.7 857.072 18
1 -2 27 18199.6 835.325 20
-1 2 27 15604.1 869.327 16
-1 -2 -26 6951.77 619.62 7
-1 2 26 6540.67 592.966 18
1 -2 26 7739.24 623.545 20
1 2 -25 1330.14 307.473 7
-1 -2 -25 2176.45 397.812 7
-1 2 25 2198.99 406.914 18
-1 -2 -24 10298.2 866.379 7
1 2 -24 11752.3 907.387 7
-1 -2 -23 36713.9 1731.29 7
1 2 -23 38479.9 1765.99 7
-1 2 23 36901.4 1802.6 18
1 -2 23 33830.9 1676.76 16
-1 -2 -22 6567.15 736.266 7
1 2 -22 6683.27 731.023 7
-1 2 22 6479.81 766.828 18
1 -2 22 6633.09 757.163 16
1 2 -21 13624.1 1070.65 7
-1 -2 -21 13098.3 1039.2 7
-1 2 21 13585.4 1130.07 18
1 -2 21 13785.5 1133.72 16
1 2 -20 25874.4 1481.32 7
-1 -2 -20 25111.8 1451.29 7
-1 2 20 25426.5 1555.04 18
1 2 -19 33313.4 1663.09 7
-1 -2 -19 33953.5 1690.09 7
-1 2 19 34510.6 1798.56 18
1 -2 18 1054.75 313.007 9
-1 -2 -18 927.375 308.753 7
1 2 -18 1383.55 349.947 7
1 -2 18 1758.99 422.804 3
1 2 -18 1126.79 314.547 22
-1 2 18 1441.69 346.857 21
-1 -2 -18 1414.11 416.1 22
-1 2 18 1355.28 394.265 18
1 2 -17 14021.8 1005.89 7
-1 -2 -17 13633.6 996.605 7
1 2 -17 16646.9 987.84 2
1 -2 17 15323.3 1071.66 3
-1 2 17 12577.3 1021.01 18
-1 -2 -17 14228.1 1236.44 22
1 2 -17 13907.5 1089.8 22
1 -2 17 14752.7 912.953 19
-1 2 17 15644.5 1122.67 21
-1 -2 -16 27248.4 1377.23 7
1 2 -16 22313.9 1239.11 7
1 2 -16 27675.1 1241.96 2
1 -2 16 27432.7 1377.04 3
1 -2 16 24653.3 1178.82 19
-1 2 16 21303 1311.48 18
1 2 -16 26998.4 1452.88 22
-1 2 16 25942 1412.18 21
-1 -2 -16 26897.8 1639.02 22
1 -2 16 26062.6 1395.9 14
-1 -2 -15 37376.5 1581.36 7
1 2 -15 38913.4 1467.34 2
1 -2 15 41966.6 1666.22 3
1 2 -15 37352.3 1699.23 22
-1 2 15 35675 1644.32 18
-1 -2 -15 38054.6 1911.28 22
-1 2 15 38002.6 1683.5 21
1 -2 15 38466 1462.56 19
1 -2 15 37580.8 1681.45 14
1 2 -14 6681.2 660.364 22
-1 2 14 7748.25 716.104 21
-1 -2 -14 6247.89 738.821 22
-1 2 14 6953.56 615.27 3
1 2 -14 7153.86 580.061 2
-1 -2 -13 49327.7 2034.21 22
-1 2 13 47426.7 1788.38 21
1 -2 13 48985.5 1685.2 3
1 2 -13 45532.3 1521.93 2
-1 2 13 48770.3 1663.51 3
-1 -2 -12 165028 4106.37 22
-1 2 12 163177 3781.34 21
-1 2 12 155262 3536.06 3
1 2 -12 159087 3414.71 2
1 -2 12 160911 3591.56 3
-1 2 11 59405.9 1903.98 21
-1 -2 -11 60415.5 2108.88 22
1 -2 11 59727.8 1766.44 3
1 2 -11 57842.1 1667.71 2
-1 2 11 62814.4 1776.36 3
-1 -2 -10 140871 3425.8 22
-1 2 10 129356 3099.55 21
-1 -2 -10 134079 2771.41 23
1 2 -10 131437 2849.09 2
-1 2 10 133813 2906.27 3
1 -2 10 131709 2481.45 5
1 -2 10 138024 2974.87 3
-1 -2 -9 159718 3144.72 23
-1 2 9 167053 3526.55 21
-1 -2 -9 168354 3786.01 22
1 -2 9 164804 2940.35 5
1 2 -9 159800 3264.55 2
-1 2 9 166366 3284.63 3
1 -2 9 164970 3197.71 1
1 -2 9 164984 3365.74 3
-1 -2 -8 13550.8 564.505 23
-1 -2 -8 14892.7 840.199 22
-1 2 8 14882.1 749.679 21
1 2 -8 14082.6 645.694 2
-1 2 8 13382 613.808 3
1 -2 8 15175.6 627.561 1
1 -2 8 15872.3 518.765 5
1 -2 8 15335.1 691.468 3
-1 -2 -7 213906 4279.36 22
-1 -2 -7 200801 3649.11 23
-1 2 7 209855 4041.25 21
1 -2 7 202040 3768.28 1
1 -2 7 214081 3576.99 5
-1 2 7 204683 3761.84 3
1 -2 7 206871 3881.17 3
-1 -2 -7 209989 3832.73 4
1 2 -7 212252 3882.8 2
-1 -2 -6 794416 12748.3 22
-1 -2 -6 752701 12059.6 23
-1 2 6 796021 12490.6 21
1 2 -6 772885 12329.8 2
1 -2 6 733897 12178.9 1
-1 2 5 59372.6 1503.39 21
-1 -2 -5 60297.3 1638.58 22
-1 2 5 56958.3 1425.11 23
-1 -2 -5 54993.9 1212.13 23
1 2 -5 57729.6 1422.75 2
1 -2 5 60699.1 1246.97 5
1 2 -5 59128.5 1247.67 1
-1 2 5 58626.3 1274.55 3
1 -2 5 57725.6 1389.13 4
-1 -2 -5 56219.8 1276.56 4
1 -2 5 56840.2 1331.77 1
1 2 -4 866198 13514.5 2
1 -2 4 825448 13345.4 1
-1 -2 -3 733143 11848.7 23
1 2 -3 762262 12065 1
-1 2 2 217842 3930.84 21
-1 -2 -2 214157 3598.16 23
-1 2 2 217559 3972.75 23
1 -2 2 219439 3840.94 4
1 2 -2 222472 3843.06 1
1 -2 2 215220 3579.11 2
1 -2 2 216350 3752.6 5
1 2 -2 222197 3952.7 2
1 -2 2 219520 3789.93 1
-1 -2 -2 218434 3545.13 4
-1 2 1 539805 8647.76 23
-1 -2 -1 514927 8228.63 23
1 -2 1 524646 8186.05 2
-1 -2 -1 513970 8149.28 4
1 2 -1 519842 8487.28 1
1 -2 1 518134 8393.65 1
-1 2 -1 538264 8789.04 23
1 -2 -1 512258 8386.02 2
1 2 1 523748 8666.13 1
1 -2 -1 535287 8697.93 4
-1 -2 1 543161 8811.49 3
1 -2 -1 534899 8570.05 1
-1 2 -2 223900 3752.16 22
1 2 2 237455 3693.53 21
-1 2 -2 214199 4073.7 23
1 -2 -2 210548 3778.89 2
1 -2 -2 221788 4083.63 4
-1 -2 2 220107 4108.6 3
1 2 2 226740 4052.47 1
1 -2 -3 734911 11650.6 2
1 2 3 732645 11921.1 1
-1 2 -4 830060 13498 23
1 -2 -5 56623.9 1207.56 22
-1 2 -5 61290.4 1610.37 23
-1 2 -5 57470.6 1463.42 22
-1 -2 5 56888.8 1593.63 3
1 2 5 59552.7 1579.51 1
1 -2 -5 60359.2 1417.64 2
1 -2 -5 58855 1642.18 4
-1 2 -6 752925 12416.7 23
-1 -2 6 748380 12067.3 21
1 -2 -6 740025 11920.5 22
1 2 6 775098 12434.6 1
-1 2 -7 213680 4223.79 23
-1 2 -7 208443 4105.12 22
1 -2 -7 211118 3807.05 22
1 2 7 214818 3991.78 21
-1 -2 7 211400 3927.29 21
1 2 7 215482 4237.82 1
1 -2 -7 212677 3973.61 2
-1 -2 7 207599 4222.73 3
-1 2 -8 14603.6 802.378 23
-1 2 -8 14441.5 750.782 22
1 -2 -8 15707.1 656.588 22
1 2 8 14017.7 692.171 21
-1 -2 8 14439.4 677.888 21
-1 -2 8 15370.8 816.69 3
1 -2 -8 14507 685.271 2
1 2 8 15479.1 828.006 1
-1 2 -9 173426 3728.37 23
1 -2 -9 160812 3309.37 22
1 2 9 165522 3454.48 21
-1 2 -9 167667 3623.58 22
-1 -2 9 167980 3437.66 21
1 2 9 167200 3672.72 1
-1 -2 9 164569 3694.96 3
1 -2 -9 164497 3391.01 2
1 -2 -10 135208 2959.61 22
-1 2 -10 141219 3352.4 23
1 2 10 134576 3059.75 21
-1 2 -10 134937 3219.74 22
-1 -2 10 133657 3014.4 21
-1 -2 10 131812 3294.79 3
1 -2 -10 135250 3001.72 2
1 2 10 138498 3265.68 1
-1 2 -11 61373 1986.39 22
1 2 11 59809.1 1835.51 21
-1 -2 11 57780.7 1796.31 21
-1 2 -11 59247.9 2013.15 23
1 -2 -11 59564.2 1770.21 22
-1 -2 11 61144 2055.33 3
1 -2 -11 61303.2 1784.79 2
1 2 11 59649.1 1971.14 1
1 2 11 57695.9 1664.41 3
-1 2 -12 159255 3847.72 22
1 -2 -12 151821 3539.7 22
-1 2 -12 163458 3897.52 23
1 2 12 158434 3623.09 21
-1 -2 12 160360 3638.37 21
1 2 12 152705 3365.75 3
-1 -2 12 157195 3904.14 3
1 2 12 157375 3800.03 1
1 -2 -12 159439 3546.5 2
-1 2 -13 48011.7 1890.73 22
1 -2 -13 48951.2 1731.18 22
-1 2 -13 53193.6 1979.1 23
1 2 13 47874 1745.78 21
-1 -2 13 47463.7 1745.5 21
1 -2 -13 49285.5 1703.02 2
1 2 13 48946.3 1876.16 1
-1 -2 13 48394 1922.11 3
1 2 13 47749.2 1581.61 3
-1 2 -14 6512.22 692.671 23
-1 2 -14 7307.49 739.163 22
1 -2 -14 7028.51 641.751 22
1 2 14 6703.32 648.725 21
1 2 14 6846.04 571.815 3
1 2 14 7091.83 701.197 1
1 -2 -14 7906.35 661.992 2
-1 -2 14 7358.4 745.554 3
1 -2 -15 35797.7 1775.51 7
-1 2 -15 38409.3 1821.33 22
1 -2 -15 39019.4 1646.75 22
1 2 15 38708.3 1460.95 18
-1 2 -15 37318.8 1761.05 23
1 2 15 37529.2 1661.45 21
1 2 15 39298 1776.32 1
1 2 15 39145.7 1496.17 3
-1 -2 15 39919 1870.22 3
1 -2 -15 37502.9 1576.62 2
1 -2 -16 25635.7 1514.28 7
-1 2 -16 26575.6 1519.25 23
-1 2 -16 24930.6 1514.95 22
1 2 16 22561.3 1147 18
1 2 16 27038.6 1441.4 21
1 2 16 27701.4 1515.17 1
-1 -2 16 27303.4 1574.21 3
1 2 16 26994 1261.36 3
-1 2 -17 15027.9 989.039 7
1 -2 -17 13166.1 1119.47 7
1 2 17 16057.2 999.674 3
-1 -2 17 14498.1 1177.06 3
1 2 17 13319.8 1071.02 1
1 2 17 14548.1 932.973 18
-1 2 -17 16147.4 1238.13 22
-1 2 -17 12424.2 1062.79 23
1 2 17 13362.7 1030.01 21
-1 2 -18 1428.93 348.122 7
1 -2 -18 1347.85 419.931 7
1 -2 -18 1400.15 482.452 4
-1 -2 18 1422.47 445.576 3
1 2 18 1811.08 376.091 3
1 2 18 1493.5 373.655 21
-1 2 -18 1477.05 413.723 23
-1 2 -18 1702.59 451.735 22
1 2 18 938.731 266.32 18
1 -2 -19 32107.8 1832.58 7
-1 2 -19 35171.4 1624.54 7
-1 2 -19 33097.8 1853.97 23
-1 -2 19 32955.2 1854.25 20
1 2 19 34579 1554.32 18
1 -2 -20 22814.6 1552.62 7
-1 2 -20 26558.3 1414.6 7
1 2 20 22856.5 1296.28 18
-1 -2 20 26232.2 1630.97 20
-1 2 -21 13145.5 983.439 7
1 -2 -21 12683.3 1147.73 7
1 2 21 12804 964.1 18
-1 -2 21 15690.6 1228.71 20
1 -2 -22 6255.58 811.544 7
-1 2 -22 7062.3 733.462 7
1 2 22 6138.98 658.159 18
-1 -2 22 7850.22 848.021 20
1 -2 -23 38456.3 1920.79 7
-1 2 -23 38729.2 1690.46 7
1 2 23 35749.8 1585.92 18
-1 -2 23 37697.6 1823.29 20
-1 -2 23 37940.1 1985.72 16
-1 2 -24 9653.64 798.576 7
1 -2 -24 8387.14 847.97 7
-1 -2 24 9400.67 835.69 20
1 2 24 9845.27 782.128 18
-1 -2 24 10675.5 986.632 16
1 -2 -25 2192.13 443.554 7
-1 2 -25 2297.81 397.09 7
-1 -2 25 1354.24 296.567 20
1 2 25 2051.66 349.355 18
-1 -2 25 2464.3 454.727 16
-1 2 -26 7432.41 614.859 7
1 -2 -26 7312.19 668.478 7
-1 -2 26 7669.09 597.316 20
1 2 26 6580.91 544.231 18
-1 -2 26 7351.19 681.84 16
1 -2 -27 18915.5 973.888 7
-1 2 -27 20345.7 910.592 7
1 2 27 17391.8 779.667 18
-1 -2 27 18796.7 940.046 16
-1 -3 -27 14754.5 749.193 7
-1 3 27 15684.2 759.512 18
1 -3 27 14109.8 720.562 20
-1 -3 -26 836.619 241.295 7
1 -3 26 525.066 211.354 20
-1 3 26 229.623 180.682 18
-1 -3 -25 2738.27 425.573 7
-1 3 25 4101.44 517.469 18
-1 -3 -24 70208.4 2390.94 7
-1 3 24 71018.8 2462.38 18
-1 -3 -23 13887.1 1040.31 7
-1 3 23 13973 1085.12 18
1 -3 23 15505.1 1045.49 16
-1 -3 -22 17953.5 1217.9 7
-1 3 22 18353.1 1284.2 18
1 -3 22 17386.5 1225.68 16
-1 -3 -21 25902.9 1492.45 7
-1 3 21 26429.4 1585.14 18
1 -3 21 24405.5 1510.82 16
-1 -3 -20 3001.51 547.098 7
-1 3 20 3579.19 627.871 18
1 -3 20 3181.99 563.534 16
1 -3 19 3361.25 523.181 9
-1 -3 -19 3903.91 610.603 7
1 -3 19 3736.95 607.451 16
-1 3 19 4922.52 706.461 18
1 -3 18 69484.5 2380.62 9
-1 -3 -18 60220.9 2351.82 7
1 -3 18 68633.7 2536.55 3
1 3 -18 59123.2 2455.46 22
-1 3 18 59442.3 2436.02 18
-1 -3 -18 63461.1 2810.72 22
-1 3 18 60621.6 2428.24 21
1 -3 18 60062.8 2556.16 16
1 -3 17 60585.4 2205.18 9
-1 -3 -17 53020.2 2117.5 7
1 -3 17 57202.4 2240.42 3
1 3 -17 52417.2 2256.04 22
1 -3 17 57475.2 1952.58 19
-1 -3 -17 54146.6 2561.56 22
-1 3 17 57037.5 2291.92 18
-1 3 17 56314.2 2283.9 21
1 -3 17 54404.7 2178.86 14
1 -3 16 7576.4 733.813 9
-1 -3 -16 5645.8 649.491 7
1 -3 16 7312.15 727.827 3
1 3 -16 6825.42 599.168 2
1 -3 16 5402.36 558.012 19
1 3 -16 6905.55 762.054 22
-1 -3 -16 6712.33 841.688 22
-1 3 16 6756.59 737.061 18
-1 3 16 6337.13 707.577 21
1 -3 16 7102.35 737.606 14
-1 -3 -15 56603 2072.63 7
1 -3 15 56785 2084.32 3
1 3 -15 61549.3 1881.02 2
1 3 -15 55889.2 2162.43 22
-1 -3 -15 59990.4 2523.79 22
1 -3 15 56769.8 1875.87 19
-1 3 15 56413.3 2184.97 18
-1 3 15 56236.5 2173.92 21
1 -3 15 56747.1 2157.65 14
-1 -3 -14 126687 3832.21 22
-1 3 14 125088 3460.67 21
1 3 -14 131383 3040.53 2
1 -3 14 127861 3315.85 3
-1 -3 -13 10171.6 910.721 22
-1 3 13 10548.7 828.854 21
1 3 -13 10379.7 648.998 2
1 -3 13 9419.69 728.239 3
-1 -3 -12 177236 4408.4 22
-1 3 12 168244 4034.14 21
1 -3 12 169141 3828.53 3
1 3 -12 173959 3603.4 2
-1 -3 -12 173030 3976.1 4
-1 -3 -11 31619.9 1500.85 22
-1 3 11 29506.2 1313.57 21
1 3 -11 28901 1069.06 2
1 -3 11 28183.9 1184.48 3
-1 -3 -11 29814.8 1244.62 4
-1 3 10 474429 8389.91 21
-1 -3 -10 463900 8735.5 22
1 3 -10 458624 7900.4 2
1 -3 10 460235 8123.78 3
1 -3 10 450493 7665.04 5
-1 -3 -10 460438 8204.66 4
-1 3 9 373810 6863.96 21
-1 -3 -9 376921 7180.51 22
1 -3 9 367451 6261.49 5
1 3 -9 361131 6463.16 2
1 -3 9 372763 6632.63 3
-1 -3 -9 373397 6690.63 4
-1 -3 -8 71998.4 2159.83 22
-1 3 8 73301 1991.1 21
1 3 -8 67048.6 1710.12 2
-1 3 8 71125.8 1566.66 3
1 -3 8 72936 1605.67 5
1 -3 8 71144.1 1817.79 3
-1 -3 -8 70273.3 1818.88 4
-1 3 7 113788 2670.52 21
-1 -3 -7 116040 2869.2 22
-1 3 7 118665 2189.51 3
1 -3 7 115330 2288.34 5
1 -3 7 114851 2589.21 4
1 -3 7 119657 2513.83 3
-1 -3 -7 112989 2465.13 4
1 3 -7 115668 2447.87 2
-1 3 6 109506 2328.39 23
-1 3 6 110831 2546.38 21
-1 -3 -6 110966 2696.96 22
1 -3 6 112019 2444 4
-1 3 6 110314 1991.18 3
1 -3 6 113533 2196.14 5
-1 -3 -6 108918 2315.67 4
1 3 -6 109376 2334.09 2
1 -3 6 111111 2058.41 1
1 -3 6 108462 2325.21 3
-1 3 5 151518 3048.49 23
-1 -3 -5 152232 3356.9 22
-1 3 5 158988 3247.99 21
1 -3 5 162649 2912.82 5
1 3 -5 158247 2759.59 1
1 -3 5 161488 3147.52 4
1 -3 5 153774 2979.1 3
1 -3 5 159033 2779.21 1
1 3 -5 156091 3063.16 2
-1 -3 -5 148475 2940.05 4
-1 3 4 102367 2223.56 23
-1 3 4 101782 2334.3 21
1 3 -4 104784 2006.72 1
-1 -3 -4 98983.8 1989.95 5
1 -3 4 103996 2052.88 5
1 -3 4 106462 2261.63 4
1 -3 4 99073.3 1939.07 1
1 3 -4 102145 2203.99 2
-1 -3 -4 104594 2052.46 4
1 -3 4 103078 2064.31 3
-1 3 3 364483 6393.06 21
-1 3 3 361830 6294.56 23
1 3 -3 370901 6292.07 2
-1 -3 -3 342493 6054.71 5
1 -3 3 377380 6086.49 5
1 -3 3 356018 5970.14 1
1 -3 3 364873 6002.31 3
1 -3 3 373166 6306.95 4
-1 -3 -3 360748 6004.86 4
1 3 -3 373772 6080.27 1
-1 3 2 179467 3505.94 23
-1 3 2 185514 3584.58 21
1 -3 2 183090 3144.2 3
1 3 -2 180738 3482.98 2
1 3 -2 183319 3349.71 1
-1 -3 -2 176983 3321.1 5
1 -3 2 193961 3333.53 5
1 -3 2 183748 3486.76 4
-1 -3 -2 176657 3204.04 4
-1 3 1 121965 2618.69 23
-1 -3 -1 124928 2475.12 5
1 -3 1 121714 2165.96 3
1 -3 1 124350 2009.51 2
1 3 -1 122726 2471.21 1
-1 -3 -1 126253 2310.55 4
1 -3 1 124247 2407.16 5
1 -3 1 123035 2566.09 4
-1 3 0 294593 5348.91 23
-1 3 0 294521 4608.87 22
1 3 0 301628 4864.92 21
-1 -3 0 288499 5174.42 5
1 -3 0 304209 4735.92 3
-1 -3 0 297962 4979.6 4
1 -3 0 297754 5096.04 5
1 -3 0 295518 4741.91 2
1 3 0 296879 5186.92 1
1 -3 0 292214 5295.82 4
-1 3 -1 123644 2660.32 23
1 3 1 126417 2243.24 21
-1 3 -1 124498 2134.7 22
-1 -3 1 127946 2559.43 5
-1 -3 1 123512 2353.98 4
1 -3 -1 125832 2194.06 2
1 -3 -1 126206 2648.95 4
1 -3 -1 122023 2002.83 3
1 3 1 124376 2544.42 1
-1 -3 1 124181 2661.24 3
1 -3 -1 123233 2447 5
-1 3 -2 174803 3555.88 23
1 3 2 184101 3180.49 21
-1 3 -2 188182 3151.34 22
-1 -3 2 178247 3299.5 4
-1 -3 2 181413 3591.14 3
1 -3 -2 178702 3154.05 2
1 3 2 178938 3491.82 1
-1 -3 2 184466 3491.99 5
1 -3 -2 183153 3616.02 4
1 -3 -2 186109 3396.48 5
-1 3 -3 365439 6060.83 22
1 3 3 365636 6028.51 21
-1 3 -3 353971 6445.47 23
-1 -3 3 358752 6454.7 3
1 -3 -3 364992 6017.92 2
-1 -3 3 367760 6336.33 5
-1 -3 3 363411 6174.81 4
1 -3 -3 383584 6553.77 4
1 3 3 360579 6344.48 1
1 -3 -3 359801 6205.9 5
-1 3 -4 104791 2156.47 22
-1 3 -4 105499 2439.73 23
1 3 4 105727 2107.83 21
1 3 4 105494 2358.85 1
1 -3 -4 102310 2084.56 2
-1 -3 4 101388 2416.75 3
-1 -3 4 105618 2313.66 5
1 -3 -4 101196 2181.87 5
1 -3 -4 101381 2452.78 4
-1 3 -5 160245 3083.56 22
1 -3 -5 151109 2644.68 22
-1 3 -5 158570 3358.18 23
1 3 5 161752 3018.38 21
1 -3 -5 153332 3033.58 5
1 -3 -5 154237 2972.57 2
1 3 5 160799 3299.4 1
-1 -3 5 157846 3354.13 3
1 -3 -5 162819 3447.55 4
-1 3 -6 112329 2446.98 22
1 -3 -6 108147 2088.08 22
1 3 6 109287 2367.53 21
-1 3 -6 112860 2675.03 23
-1 -3 6 107325 2638.41 3
1 -3 -6 111806 2345.71 2
1 3 6 118348 2677.17 1
1 -3 -6 111167 2360.4 5
1 -3 -6 113861 2756.4 4
-1 3 -7 117082 2661.65 22
-1 3 -7 116569 2849.49 23
1 -3 -7 117172 2328.06 22
1 3 7 116073 2567.71 21
1 -3 -7 119344 2500.15 5
1 3 7 117951 2844.75 1
1 -3 -7 120597 2549.45 2
-1 -3 7 119307 2861.75 3
1 -3 -7 122503 2972.79 4
-1 3 -8 72884.1 2120.44 23
-1 3 -8 73113.8 1963.71 22
1 -3 -8 71966.2 1684.16 22
1 3 8 67582.9 1843.25 21
-1 -3 8 69829.2 2092.31 3
1 -3 -8 71910.3 1836.91 2
1 -3 -8 69965.7 1719.14 5
1 3 8 75045.1 2162.02 1
1 -3 -8 71343.2 2184.8 4
1 -3 -9 376676 6528.86 22
-1 3 -9 382764 7172.29 23
-1 3 -9 376275 6896.96 22
1 3 9 370464 6757.07 21
-1 -3 9 375379 7142.94 3
1 -3 -9 371449 6696.91 2
1 -3 -9 363573 6450.84 5
1 3 9 369621 7087.67 1
1 -3 -9 377882 7258.39 4
1 -3 -10 459885 8029.49 22
1 3 10 457962 8221.71 21
-1 3 -10 465867 8660.48 23
-1 3 -10 467666 8388.66 22
1 -3 -10 457188 8151.9 2
1 3 10 454684 8557.04 1
1 -3 -10 457994 8776.9 4
-1 -3 10 446517 8607.37 3
1 -3 -10 470373 7823 5
1 -3 -11 29612.5 1155.93 22
-1 3 -11 27305.9 1270.26 22
-1 3 -11 28590.6 1394.19 23
1 3 11 28493.8 1213.37 21
1 -3 -11 28362.7 1179.43 2
1 3 11 30295.6 1394.31 1
1 3 11 28315.8 1052.97 3
-1 -3 11 29400.3 1424.29 3
1 -3 -11 28320.9 1452.56 4
-1 3 -12 168935 4061.98 22
-1 3 -12 174260 4261.13 23
1 3 12 165949 3879.43 21
-1 -3 12 173082 4277.32 3
1 -3 -12 172989 3858.79 2
1 3 12 173771 3595.19 3
1 3 12 173138 4181.73 1
1 -3 -12 167093 4364.93 4
-1 3 -13 10239.8 876.392 23
-1 3 -13 9224.96 798.415 22
1 3 13 9673.51 747.565 21
1 3 13 9744.31 646.512 3
1 3 13 11395.4 894.65 1
1 -3 -13 9923.66 739.874 2
-1 -3 13 10132.1 904.765 3
1 -3 -13 9722.96 909.011 4
1 -3 -14 120268 3667.3 7
-1 3 -14 123233 3533.16 22
-1 3 -14 126486 3639.39 23
1 3 14 122866 3307.49 21
1 3 14 129396 3039.09 3
-1 -3 14 127580 3709.29 3
1 3 14 128404 3594.34 1
1 -3 -14 124722 3817.15 4
1 -3 -15 56018.5 2370.56 7
1 3 15 59322.6 1926.42 18
-1 3 -15 55453.6 2264.97 22
-1 3 -15 55724.3 2327.61 23
1 3 15 59404.7 2158.49 21
-1 -3 15 59419.5 2424.74 3
1 3 15 61181.7 1915.42 3
1 3 15 58793.8 2343.46 1
1 -3 -15 59498.5 2525.21 4
1 -3 -16 5969.13 769.371 7
-1 3 -16 7715.33 842.598 23
1 3 16 6485.38 692.26 21
1 3 16 6401.69 601.451 18
-1 3 -16 6237.81 764.172 22
1 3 16 6513.55 592.481 3
-1 -3 16 5950.77 759.063 3
1 3 16 6945.06 795.931 1
1 -3 -16 6661.85 854.799 4
-1 3 -17 61610.2 2149.95 7
1 -3 -17 55930.3 2488.48 7
1 3 17 56548.4 2007.56 18
-1 3 -17 54871.7 2438.73 23
-1 3 -17 56031.3 2429.7 22
1 3 17 55021.5 2212.85 21
-1 -3 17 57028.2 2511.67 3
1 3 17 54891.8 2363.02 1
1 -3 -17 53774.8 2566.45 4
-1 3 -18 65442.6 2261.47 7
1 -3 -18 56632.6 2538.41 7
-1 -3 18 65700.2 2778.57 3
1 3 18 58524.9 2494.13 1
1 -3 -18 66532.8 2900.95 4
-1 3 -18 65761 2680.14 22
-1 -3 18 62573.1 2679.11 20
-1 3 -18 56855.7 2550.66 23
1 3 18 60755.8 2158.42 18
1 3 18 60683.9 2384.86 21
-1 3 -19 4061.79 553.623 7
1 -3 -19 3303.84 619.351 7
-1 -3 19 3565.76 621.793 20
1 3 19 3608.49 510.339 18
1 -3 -20 3979.95 666.162 7
-1 3 -20 3322.19 513.457 7
-1 -3 20 3696.45 636.51 20
1 3 20 3624.71 519.478 18
-1 -3 20 3853.01 722.294 16
1 -3 -21 25404.1 1654.99 7
-1 3 -21 29735.4 1488.75 7
1 3 21 25762.2 1378.53 18
-1 -3 21 26857.2 1667.17 20
-1 -3 21 26782 1746.35 16
1 -3 -22 18981.4 1385.33 7
-1 3 -22 19364.8 1176.37 7
1 3 22 17969 1127.49 18
-1 -3 22 19102.2 1354.15 20
-1 -3 22 18536.6 1403.68 16
1 -3 -23 14572.7 1164.77 7
-1 3 -23 17768.8 1088.87 7
-1 -3 23 15982.7 1176.42 20
1 3 23 13928.8 969.438 18
-1 -3 23 15505.2 1229.72 16
-1 3 -24 74607.5 2342.63 7
1 -3 -24 74182 2641.71 7
1 3 24 70533.6 2269.81 18
-1 -3 24 72759.5 2514.37 20
-1 -3 24 73154.8 2637.19 16
1 -3 -25 4388.81 580.725 7
-1 3 -25 4516.08 510.921 7
1 3 25 4067.69 476.835 18
-1 -3 25 4013.82 506.585 20
-1 -3 25 3834.8 553.147 16
1 -3 -26 449.387 222.367 7
-1 3 -26 484.986 201.018 7
-1 -3 26 482.977 198.872 20
-1 -3 26 492.017 241.085 16
1 3 26 301.245 144.988 18
1 -3 -27 15289.7 824.395 7
1 3 27 14294.3 686.554 18
-1 -3 27 13918.5 744.701 16
-1 -4 -26 4316.04 422.606 7
-1 4 26 4948.64 470.565 18
1 -4 26 3919.84 429.566 20
-1 -4 -25 6114.81 576.832 7
1 -4 25 7387.21 650.385 20
-1 4 25 7450.37 654.359 18
-1 -4 -24 2069.94 327.077 8
-1 -4 -24 1843.74 370.956 7
-1 4 24 1888.59 396.109 18
-1 -4 -23 4512.65 594.143 7
-1 4 23 6422.85 716.768 18
-1 -4 -22 14168.5 1067.01 7
-1 4 22 14205.5 1095.96 18
-1 -4 -21 2057.16 440.57 7
1 -4 21 817.484 281.997 16
-1 4 21 1794.98 468.92 18
1 -4 20 3632.98 522.743 9
-1 -4 -20 4354.33 636.107 7
-1 4 20 3430.08 609.232 18
1 -4 20 3448.8 565.51 16
-1 -4 -19 10733.6 955.376 7
1 -4 19 8744.33 809.682 9
-1 4 19 8453.27 899.523 18
1 -4 19 8051.71 875.825 16
1 -4 18 6353.95 715.443 9
-1 -4 -18 4671.51 637.547 7
-1 4 18 4783.12 684.093 18
1 -4 18 5359.43 724.721 16
1 -4 18 6339.98 706.297 14
1 -4 17 6250.89 700.872 9
-1 -4 -17 5954.53 700.916 7
1 -4 17 6302.81 747.534 3
1 -4 17 6231.76 607.954 19
-1 -4 -17 5724.34 820.333 22
-1 4 17 5691.91 729.33 18
1 4 -17 6383.3 761.457 22
-1 4 17 5433.28 695.096 21
1 -4 17 5955.51 699.573 14
1 -4 17 5094.19 704.174 16
1 -4 16 61103.2 2278.6 9
-1 -4 -16 53325.5 2155.78 7
1 -4 16 58392.8 2297.97 3
1 -4 16 59599.6 1980.15 19
1 4 -16 57354 2345.54 22
-1 -4 -16 59671.6 2647.98 22
-1 4 16 58146.6 2324.86 18
-1 4 16 57709.1 2332.72 21
1 -4 16 56924.2 2432.28 16
1 -4 16 60443.4 2283.82 14
1 -4 15 96295.8 2958.38 9
-1 -4 -15 97467.8 2749.8 10
-1 -4 -15 86591.5 2781.99 7
1 -4 15 95814.5 2945.29 3
1 -4 15 93149.9 2582.75 19
-1 4 15 90673.3 2958.36 18
-1 4 15 93894.8 3037.63 21
-1 -4 -15 95416 3385.74 22
1 -4 15 94119.9 2956.31 14
1 -4 15 84952.3 3054.67 16
1 -4 14 6514.24 673.718 9
-1 -4 -14 7558.38 654.784 10
-1 -4 -14 5733.44 634.622 7
1 -4 14 6796.92 679.852 3
1 -4 14 7368.62 611.614 19
-1 4 14 6883.35 725.185 18
-1 -4 -14 6499.45 799.517 22
-1 4 14 5692.03 660.136 21
1 -4 14 6395.17 691.402 14
1 -4 13 67815.3 2217.69 3
-1 -4 -13 70398.9 2651.26 22
-1 4 13 69390.7 2391.41 21
-1 -4 -13 65691 1970.05 13
1 -4 12 25278.2 1208.72 3
1 4 -12 25472.8 1015.56 2
-1 -4 -12 27554.3 1520.66 22
-1 4 12 25884.8 1330.95 21
1 -4 11 13638.8 835.747 3
1 4 -11 14631.2 723.697 2
1 -4 11 15306.6 720.456 5
-1 -4 -11 14902.5 878.522 4
-1 4 11 12569.4 872.602 21
-1 -4 -11 14408.5 1051.72 22
1 -4 10 26829 1143.7 3
1 -4 10 27378.3 986.947 5
1 4 -10 28531.5 1013.86 2
-1 -4 -10 27273.8 1177.58 4
-1 4 10 26245.5 1241.65 21
-1 -4 -10 26843.7 1396.68 22
-1 -4 -9 17205.3 873.868 4
1 4 -9 18565.8 774.411 2
1 -4 9 17141.3 864.616 3
1 -4 9 17577 746.605 5
-1 -4 -9 17426.7 1053.42 22
-1 4 9 17801.1 967.792 21
1 4 -8 270297 4823.51 2
1 -4 8 265070 5190.42 4
1 -4 8 264957 4789.91 5
1 -4 8 260959 5007.75 3
-1 -4 -8 266131 5059.77 4
-1 -4 -8 260781 5502.1 22
-1 4 8 259939 5283.29 21
1 -4 7 387037 6949.29 4
1 -4 7 383276 6748.75 3
1 -4 7 381256 6590.46 5
-1 -4 -7 378539 6805.51 4
1 4 -7 384187 6635.41 2
-1 4 7 393844 7119.92 21
-1 -4 -6 150562 3152.25 4
1 -4 6 155946 3112.54 3
1 -4 6 158299 3038.75 5
1 4 -6 154600 3073.13 2
-1 -4 -6 151384 2880.82 5
1 -4 6 157910 3325.31 4
-1 4 6 155051 3040.66 23
-1 4 6 153695 3428.83 21
-1 -4 -5 146169 2852.34 5
1 -4 5 149621 2929.89 5
1 -4 5 153932 2951.45 3
1 4 -5 154243 3017.67 2
1 -4 5 149035 3190.01 4
-1 -4 -5 146025 2987.43 4
-1 4 5 149283 3302.46 21
-1 4 5 147101 2983.3 23
1 -4 4 46770.5 1193.5 3
1 -4 4 48163.5 1256.02 5
1 -4 4 47888.7 1432.79 4
-1 -4 -4 45399 1221.94 5
1 4 -4 45997.7 1309.06 2
-1 -4 -4 45117.8 1257.65 4
1 4 -4 45511 1091.17 1
-1 4 4 44560.8 1467.55 21
-1 4 4 43853.4 1297.14 23
-1 -4 -3 14943.7 635.74 5
1 4 -3 14853 584.017 1
1 -4 3 13655.1 600.838 5
-1 -4 -3 14706.4 617.248 4
1 4 -3 14543 679.513 2
1 -4 3 13994.8 715.246 4
1 -4 3 15322.4 553.782 3
-1 4 3 14525.2 772.709 21
-1 4 3 14499.2 682.771 23
1 4 -2 9633.76 552.031 2
1 -4 2 9911.05 591.596 4
-1 -4 -2 9774.59 490.006 4
1 -4 2 9811.94 387.879 3
-1 -4 -2 9083.86 508.095 5
1 -4 2 10589.7 515.09 5
-1 4 2 9481.19 553.166 23
-1 4 2 9811.79 626.373 21
1 -4 1 516914 8479.75 5
1 -4 1 507165 8759.4 4
-1 -4 -1 488649 8439.74 4
-1 -4 -1 492782 8579.95 5
1 -4 1 524734 8091.04 3
1 4 -1 529737 8556.99 1
-1 4 1 518163 8881.8 21
1 4 -1 501308 8356.81 21
-1 4 1 503122 8725.65 23
-1 -4 0 372395 6629.23 5
1 -4 0 392403 6810.5 4
1 -4 0 385535 6490.06 5
-1 -4 0 384893 6475.65 4
1 -4 0 381708 5956.2 3
1 4 0 397405 6610.65 1
1 4 0 393469 6359.8 21
-1 4 0 375773 6778.78 23
-1 4 0 369717 5969.2 22
-1 -4 1 499476 8680.48 3
-1 -4 1 482205 8547.46 5
-1 -4 1 498556 8375.53 4
1 -4 -1 519839 8767.42 4
1 -4 -1 504328 8385.42 5
1 4 1 501186 8537.21 1
-1 4 -1 497603 8714.72 23
1 4 1 521271 8249.37 21
1 -4 -2 9217.83 386.434 2
-1 -4 2 9379.65 605.585 3
-1 -4 2 8522.37 485.205 4
-1 -4 2 10337.6 594.933 5
1 4 2 11193.5 603.985 1
1 -4 -2 10308.1 650.296 4
1 -4 -2 9920.9 509.691 5
-1 4 -2 9835.75 609.326 23
-1 -4 3 14678.9 773.694 3
-1 -4 3 15229.6 744.659 5
1 -4 -3 15280.1 551.81 2
-1 -4 3 14338.2 656.442 4
1 4 3 15841.3 747.376 1
1 -4 -3 13733.1 628.421 5
1 -4 -3 14882.2 806.246 4
-1 4 -3 14289.7 762.083 23
1 4 3 15254.8 611.444 21
-1 -4 4 48238.5 1378.3 4
-1 -4 4 47039.6 1553.5 3
-1 -4 4 49600.5 1488.01 5
1 -4 -4 46302.2 1194.3 2
1 4 4 47184.9 1461.95 1
1 -4 -4 45348 1290.61 5
1 -4 -4 46375.6 1569.54 4
-1 4 -4 48220.9 1546.3 23
-1 4 -4 46651.4 1258.28 22
1 4 4 47959.6 1266.19 21
-1 -4 5 144932 3370.67 3
-1 -4 5 153816 3267.61 5
1 -4 -5 151408 2963.66 2
1 -4 -5 148637 3008.67 5
1 4 5 148830 3290.89 1
1 -4 -5 152514 3481.57 4
-1 4 -5 152382 3417.66 23
-1 4 -5 152295 3038.57 22
1 4 5 148935 3005.67 21
-1 -4 6 156115 3409.69 5
1 -4 -6 159109 3174.79 2
1 -4 -6 162908 3182.62 5
1 4 6 159492 3553.8 1
-1 -4 6 154044 3611.72 3
1 -4 -6 155716 3674.51 4
-1 4 -6 157638 3615.4 23
-1 4 -6 162473 3299.56 22
1 4 6 160851 3234.9 21
1 -4 -7 384317 6761.91 2
-1 -4 7 384441 7252.72 3
1 4 7 398491 7266.63 1
1 -4 -7 371570 6630.1 5
1 -4 -7 384612 7390.33 4
-1 4 -7 389654 7289.9 23
1 4 7 378576 6827.04 21
-1 4 -7 390300 6891.75 22
1 -4 -8 263438 5035.41 2
-1 -4 8 262192 5496.16 3
1 -4 -8 267802 4860.25 5
1 4 8 276866 5578.38 1
1 -4 -8 270161 5670.59 4
-1 4 -8 279186 5602.15 23
-1 4 -8 260950 5160.09 22
1 4 8 260689 5103.42 21
1 -4 -9 18413.7 882.906 2
1 -4 -9 18412.3 759.24 5
1 4 9 18240.3 1051.98 1
-1 -4 9 17751.3 1070.13 3
1 -4 -9 19805.6 1163.61 4
1 4 9 18352.6 916.595 21
-1 4 -9 19060.2 1100.09 23
-1 4 -9 17431.4 918.663 22
1 4 10 29289.6 1401.1 1
-1 -4 10 26776.3 1375.09 3
1 -4 -10 26691.2 1145.06 2
1 -4 -10 28011.2 961.891 5
1 -4 -10 28164.7 1468.21 4
1 4 10 25754 1154.73 21
-1 4 -10 28731.6 1434.73 23
-1 4 -10 27650.6 1235.02 22
1 -4 -11 12046.5 988.962 4
1 4 11 14359.2 991.744 1
1 4 11 14021.4 705.076 3
-1 -4 11 13603.1 1004.87 3
-1 4 -11 14153.1 908.562 22
-1 4 -11 15261.6 1065.07 23
1 4 11 13543 846.338 21
1 4 12 26647.7 1039.92 3
1 4 12 26707.5 1418.36 1
-1 -4 12 26615.3 1477.75 3
1 -4 -12 24519.3 1476.14 4
-1 4 -12 25334.9 1437.73 23
-1 4 -12 23923.5 1273.59 22
1 4 12 25086.9 1224.52 21
1 4 13 70757.3 2529.52 1
1 4 13 70451.1 1935.24 3
-1 -4 13 69735.1 2605.21 3
1 -4 -13 71014.2 2718.38 4
-1 4 -13 71492.4 2606.88 23
-1 4 -13 66558.2 2380.81 22
1 4 13 67689.6 2254.13 21
-1 -4 13 67389.4 2718.5 16
1 -4 -14 8581.39 806.107 10
1 -4 -14 7833.17 854.033 7
-1 -4 14 8137.69 869.683 3
1 4 14 8788.06 871.506 1
1 -4 -14 6830.97 835.302 4
1 4 14 7935.12 656.479 18
-1 4 -14 6852.54 817.718 23
-1 4 -14 8417.9 804.429 22
1 4 14 7335.05 698.862 21
-1 -4 14 6316.61 821.361 16
1 -4 -15 89495.1 3256.33 7
1 -4 -15 100044 3133.83 10
-1 -4 15 93296 3315.54 3
1 4 15 95701.5 3220.06 1
1 -4 -15 98682.5 3454.72 4
-1 4 -15 99695.1 3364.28 23
-1 4 -15 92004.8 3091.98 22
1 4 15 93553 2643.71 18
-1 -4 15 99023.1 3371.8 20
1 4 15 92067.8 2865.88 21
-1 -4 15 98178.9 3520.73 16
1 -4 -16 63937.5 2447.98 10
1 -4 -16 56570.2 2555.38 7
-1 -4 16 60913.9 2637.37 3
1 4 16 54882.7 2426.15 1
1 -4 -16 62341.7 2764.42 4
-1 4 -16 60020.1 2578.69 23
1 4 16 58688.5 2021.64 18
-1 -4 16 58046 2560.21 20
-1 4 -16 55667.1 2364.43 22
1 4 16 56473.4 2193.51 21
-1 -4 16 63771.4 2789.99 16
1 -4 -17 5353.72 775.598 7
1 -4 -17 7076.09 796.342 10
-1 4 -17 6926.53 689.338 7
1 -4 -17 5688.39 830.781 4
-1 -4 17 5445.17 761.615 3
1 4 17 5044.2 725.282 1
1 4 17 6346.63 646.799 18
-1 4 -17 5667.66 774.182 23
-1 -4 17 6651.05 847.371 20
1 4 17 5234.61 652.21 21
-1 4 -17 5740.12 748.171 22
-1 -4 17 6007.08 859.61 16
1 -4 -18 6131.76 766.067 10
1 -4 -18 5766.5 840.934 7
-1 4 -18 6321.77 658.839 7
-1 -4 18 7563.54 905.068 20
1 4 18 6717.34 680.226 18
-1 -4 18 5973.85 869.475 16
-1 4 -19 9229.09 811.185 7
1 -4 -19 7319.12 921.285 7
1 4 19 8167.35 761.171 18
-1 -4 19 9210.21 1004.1 20
-1 -4 19 9573.5 1087 16
1 -4 -20 3215.58 655.4 7
-1 4 -20 4035.22 542.518 7
-1 -4 20 3921.95 666.65 20
1 4 20 3542.92 521.773 18
-1 -4 20 2578.67 568.862 16
-1 4 -21 1641.78 385.467 7
1 -4 -21 1674.11 447.936 7
-1 -4 21 1712.88 479.181 20
-1 -4 21 1934.83 488.329 16
1 4 21 1615.03 402.719 18
1 -4 -22 14265.1 1189.74 7
-1 4 -22 14435.1 985.711 7
1 4 22 13554.6 964.874 18
-1 -4 22 15393.5 1214.07 20
-1 -4 22 14060.4 1205.59 16
1 -4 -23 5478.98 719.428 7
-1 4 -23 5903.7 611.508 7
-1 -4 23 5720.3 694.89 20
1 4 23 5492.83 604.4 18
-1 -4 23 5766.39 727.484 16
1 -4 -24 2682.06 483.996 7
-1 4 -24 1961.92 353.867 7
-1 -4 24 1703.87 393.952 20
1 4 24 2073.18 371.141 18
-1 -4 24 1974.57 445.366 16
1 -4 -25 7243.03 693.726 7
-1 4 -25 8357.01 610.562 7
-1 -4 25 7557.18 678.862 20
1 4 25 6734.79 575.578 18
-1 -4 25 6739.22 655.37 16
1 -4 -26 4691.2 502.089 7
-1 -4 26 5140.05 473.425 20
1 4 26 4570.45 426.525 18
-1 -4 26 4905.36 488.945 16
1 -5 26 20485.1 882.246 20
-1 5 26 20095.5 860.613 18
1 -5 25 7468.55 609.926 20
-1 5 25 7017.04 580.265 18
-1 -5 -24 1877.24 280.527 8
-1 -5 -24 1817.88 325.427 7
1 -5 24 2278.56 396.941 20
-1 5 24 1530.36 329.545 18
-1 -5 -23 966.095 235.283 8
-1 -5 -23 875.995 278.855 7
1 -5 23 940.936 335.226 20
-1 5 23 1060.48 304.41 18
-1 -5 -22 5555.15 587.394 8
-1 -5 -22 5215.41 618.684 7
-1 5 22 5811.98 691.752 18
-1 -5 -21 12589.8 1015.77 7
1 -5 21 12947.1 887.511 9
-1 5 21 12740.6 1045.84 18
-1 -5 -20 8727.62 865.474 7
1 -5 20 8730.12 783.67 9
-1 5 20 8927.37 908.17 18
1 -5 20 7167.93 786.434 16
-1 -5 -19 4841.03 650.386 7
1 -5 19 5144.03 635.507 9
1 -5 19 4756.49 656.526 16
-1 5 19 3977.71 629.5 18
-1 -5 -18 16511.4 1204.18 7
1 -5 18 20113.1 1268.34 9
-1 5 18 18717.8 1318.8 18
1 -5 18 18151.3 1168.19 14
1 -5 18 16277.5 1240.6 16
-1 -5 -17 5288.67 639.61 10
1 -5 17 4134.95 596.766 9
-1 -5 -17 5963.71 721.833 7
-1 5 17 5010.03 689.714 18
1 -5 17 3939.76 567.783 14
1 -5 17 4521.17 675.936 16
1 -5 16 1920.76 440.216 9
-1 -5 -16 1953.6 397.255 10
-1 -5 -16 1814.6 415.688 7
1 -5 16 1578.04 410.373 3
-1 5 16 1483.23 409.15 21
1 -5 16 1134.15 285.357 19
1 5 -16 1575.39 399.547 22
1 -5 16 1162.1 409.74 16
1 -5 16 1621.48 404.74 14
-1 5 16 1666.24 436.107 18
1 -5 15 6177.17 735.339 9
-1 -5 -15 6733.32 680.384 10
1 -5 15 6644.1 743.65 3
1 -5 15 6295.17 587.812 19
-1 5 15 6081.65 727.658 18
-1 5 15 5832.42 721.462 21
1 -5 15 5447.5 673.405 14
1 -5 15 7140.64 826.229 16
1 -5 14 53764.3 2159.15 9
-1 -5 -14 53265.4 1960.03 10
1 -5 14 52840.6 2112.01 3
1 -5 14 53257 1793.66 19
-1 5 14 52533.6 2133.84 18
-1 5 14 51904.2 2171.43 21
1 -5 14 50403.7 2236.67 16
1 -5 14 53162.1 2123.57 14
-1 -5 -13 9102.95 755.377 10
1 -5 13 11506.7 940.473 9
1 -5 13 8697.26 773.151 3
1 -5 13 9238.43 678.894 19
-1 5 13 9414.78 847.049 18
-1 5 13 9656.07 873.618 21
-1 -5 -13 8912.15 662.319 13
1 -5 13 10018.2 875.612 14
1 -5 12 49626.9 1991.73 9
-1 -5 -12 44487.5 1694.93 10
1 -5 12 43956.7 1763.42 3
-1 5 12 49366.8 1961.75 21
1 -5 12 47807.6 1945.58 14
-1 -5 -12 44002.6 1558.05 13
1 -5 11 33913.2 1460.18 3
1 -5 11 36809.8 1323.39 5
-1 5 11 36220.1 1606.93 21
1 -5 10 2300.32 359.324 3
1 -5 10 2310.22 317.269 5
-1 5 10 2014.32 374.025 21
1 -5 9 14879.1 851.806 3
1 -5 9 15514.4 778.381 5
-1 -5 -9 14512.7 850.226 4
-1 5 9 15362.4 948.469 21
1 5 -8 191712 3689.14 2
1 -5 8 191049 3993.71 3
1 -5 8 194575 3858.49 5
1 -5 8 187483 4173.69 4
-1 -5 -8 191161 4039.56 4
-1 5 8 189285 4275.85 21
1 -5 7 76225.6 2003.56 3
1 -5 7 80219.8 1969.16 5
1 -5 7 75388.6 2175.27 4
-1 -5 -7 71122.4 2031.92 4
1 5 -7 76313.1 1828.58 2
-1 5 7 75312 2262.45 21
1 -5 6 218809 4514.9 4
1 -5 6 218437 4199.03 3
-1 -5 -6 212434 4038.06 5
1 -5 6 221236 4195.7 5
-1 -5 -6 212913 4314.43 4
1 5 -6 219352 4073.73 2
-1 5 6 217945 4047.24 23
-1 5 6 217021 4630.74 21
-1 -5 -5 132027 2821.54 5
1 -5 5 142067 2850.94 3
1 -5 5 137301 2898.49 5
1 -5 5 137010 3169.24 4
-1 -5 -5 135039 2976.56 4
1 5 -5 141675 2854.63 2
-1 5 5 137514 3281.62 21
-1 5 5 133491 2807.23 23
1 -5 4 65827.7 1921.14 4
-1 -5 -4 63737.9 1685.66 5
1 -5 4 66582.6 1581.99 3
-1 -5 -4 64161.3 1743.04 4
1 5 -4 65503.4 1704.48 2
1 -5 4 65466.8 1698.05 5
-1 5 4 66385.6 2006.34 21
-1 5 4 63507.3 1697 23
1 -5 3 53999 1316.84 3
1 5 -3 60030.2 1418.91 1
1 -5 3 52500 1687.86 4
1 5 -3 57402.7 1567.51 2
-1 -5 -3 51931.9 1513.66 4
-1 -5 -3 52404.7 1514.43 5
1 -5 3 55630.4 1510.15 5
-1 5 3 54954 1798.83 21
-1 5 3 50833.2 1523.24 23
-1 -5 -2 106655 2414.8 4
-1 -5 -2 105087 2476.59 5
1 5 -2 110188 2539.33 2
1 5 -2 116048 2390.91 1
1 -5 2 104780 2373.02 5
1 -5 2 107593 2664.38 4
-1 5 2 106275 2750.52 21
-1 5 2 103096 2499.65 23
1 5 -1 29753.9 1026.77 1
-1 -5 -1 27848.2 1072.77 5
-1 -5 -1 28511.2 1021.74 4
1 -5 1 27393.3 1149.19 4
1 -5 1 28318.1 991.318 5
-1 5 1 26914.2 1085.6 23
-1 5 1 27846.2 1212.87 21
1 5 -1 27695.9 952.93 21
-1 -5 0 28359.5 1024.57 4
1 -5 0 28981.6 1006.32 5
-1 -5 0 27620.4 1076.44 5
1 -5 0 29000.6 1191.89 4
1 5 0 29682.6 1065.76 1
-1 5 0 29397.7 1152.13 23
1 5 0 28781.4 954.959 21
-1 -5 1 26553.6 1096.01 3
-1 -5 1 27851.2 1100.44 5
1 -5 -1 26827.3 966.253 5
-1 -5 1 27867.9 1008.32 4
1 -5 -1 27730.8 1183 4
1 5 1 29159.9 1073.78 1
-1 5 -1 28694.6 1151.5 23
1 5 1 26465.5 922.702 21
-1 -5 2 106679 2621.84 3
-1 -5 2 108083 2567.95 5
1 -5 -2 104003 2339.91 5
-1 -5 2 103377 2398.77 4
1 5 2 106477 2515.78 1
1 -5 -2 103904 2696.76 4
1 5 2 102781 2271.97 21
-1 5 -2 97896.4 2556.58 23
-1 -5 3 54453 1765.88 3
1 -5 -3 51953 1464.03 5
-1 -5 3 54817.9 1689.77 5
-1 -5 3 53811.7 1560.52 4
1 5 3 56076 1682.83 1
1 -5 -3 52692.5 1796.89 4
-1 5 -3 51087.4 1682.55 23
1 5 3 53658.7 1451 21
1 5 4 66684.7 1914.09 1
-1 -5 4 65625.9 1919.03 5
1 -5 -4 61359.7 1650.56 5
-1 -5 4 64483.2 1800.51 4
-1 -5 4 63276.9 1983.37 3
1 -5 -4 64684.8 2059.93 4
-1 5 -4 64930.7 1983.28 23
1 5 4 63298 1654.79 21
-1 -5 5 137391 3345.11 3
-1 -5 5 137913 3211.29 5
1 -5 -5 134032 2867.37 5
1 5 5 134519 3207.66 1
1 -5 -5 134727 3402.21 4
-1 5 -5 137735 3336.69 23
-1 5 -5 139704 2892.77 22
1 5 5 133318 2905.87 21
1 -5 -6 212926 4167.44 5
-1 -5 6 217671 4786.44 3
-1 -5 6 218722 4562.44 5
1 5 6 222893 4672.79 1
1 -5 -6 221396 4875.88 4
1 5 6 217667 4298.11 21
-1 5 -6 222733 4311.42 22
-1 5 -6 222452 4799.12 23
-1 -5 7 70501.7 2350.26 3
-1 -5 7 76754.9 2228.83 5
1 -5 -7 78914.9 1933.13 5
1 5 7 79014.7 2367.23 1
1 -5 -7 76994.3 2470.57 4
-1 5 -7 79086 2444.44 23
1 5 7 78159.7 2068.31 21
-1 5 -7 77923.3 2099.51 22
-1 -5 8 187198 4510.81 3
1 -5 -8 193359 3792.39 5
1 5 8 199964 4510.41 1
1 -5 -8 192876 4627.17 4
-1 5 -8 189870 4100.84 22
-1 5 -8 199469 4607.31 23
1 5 8 191559 4066.38 21
1 5 9 16362.7 1046.34 1
-1 -5 9 15239.4 1043.91 3
1 -5 -9 14865.8 713.113 5
1 -5 -9 16091.5 1112.38 4
-1 5 -9 15598.8 1071.78 23
-1 5 -9 16379.5 921.099 22
1 5 9 13729.8 829.768 21
1 -5 -10 1993.44 438.553 4
-1 -5 10 2335.52 459.285 3
1 5 10 2105.66 406.583 1
1 5 10 2144.06 368.316 21
-1 5 -10 2175.75 416.206 23
-1 5 -10 2732.58 407.781 22
1 5 11 37391 1728.74 1
-1 -5 11 35174.6 1769.24 3
1 -5 -11 34975.9 1790.61 4
-1 5 -11 35878.9 1778.98 23
-1 5 -11 36012.7 1542.74 22
1 5 11 35286.7 1475.18 21
1 -5 -12 47638.9 1947.48 10
1 -5 -12 41151.7 2025.76 7
1 5 12 42685.5 1940.36 1
-1 -5 12 47375 2124.33 3
1 -5 -12 49902.3 2226.34 4
-1 5 -12 47876.7 2154.86 23
-1 5 -12 47238.4 1871.57 22
1 5 12 45903.6 1592.21 18
-1 -5 12 51060.4 2219.72 20
1 5 12 43122.3 1730.41 21
-1 -5 12 47569.1 2253.3 16
1 -5 -13 10667.4 917.839 10
1 -5 -13 9704.51 980.857 7
-1 -5 13 12474.3 1100.28 3
1 5 13 11696 1010.89 1
1 -5 -13 11565.8 1070.19 4
-1 5 -13 7949.11 895.476 23
-1 -5 13 10040.2 993.084 20
-1 5 -13 9788.34 854.244 22
1 5 13 14938.7 880.501 18
1 5 13 11132.9 853.555 21
-1 -5 13 9963.12 1053.69 16
1 -5 -14 51388.6 2386.39 7
1 -5 -14 49643.1 2104.68 10
-1 -5 14 53119.8 2426.62 3
1 5 14 51824 2261.19 1
1 -5 -14 50199.4 2399.14 4
-1 5 -14 53378.4 2180.44 22
1 5 14 49517.1 1782.53 18
-1 5 -14 51805.3 2373.3 23
1 5 14 51757.1 2003.61 21
-1 -5 14 51835.1 2366.73 20
-1 -5 14 55630.2 2570.36 16
1 -5 -15 6112.75 828.865 7
1 -5 -15 6014.39 720.595 10
-1 -5 15 6339.48 850.518 3
1 5 15 7280.3 834.047 1
1 -5 -15 7577.49 953.256 4
-1 5 -15 7368.58 872.059 23
1 5 15 7161.22 655.19 18
-1 5 -15 6696.34 759.618 22
-1 -5 15 5995.8 821.668 20
1 5 15 6661.72 707.942 21
-1 -5 15 6755.84 897.413 16
1 -5 -16 494.941 328.486 7
1 -5 -16 3471.37 577.142 10
-1 5 -16 2157.16 396.755 7
1 -5 -16 2221.69 537.457 4
-1 -5 16 2587.33 592.768 3
1 5 16 2122.49 477.908 1
1 5 16 1915.64 403.872 21
-1 5 -16 1532.68 437.848 23
-1 5 -16 2312.49 462.775 22
-1 -5 16 1955.57 511.005 20
1 5 16 2013.11 364.351 18
-1 -5 16 2352.63 570.629 16
-1 5 -17 5916.56 634.917 7
1 -5 -17 4303.61 751.176 7
1 -5 -17 5105.3 698.777 10
1 5 17 5878.33 635.14 18
-1 -5 17 4569.04 732.748 20
-1 -5 17 5480.71 833.186 16
1 -5 -18 17891.8 1455.82 7
-1 5 -18 21559.3 1223.46 7
1 -5 -18 21333.1 1401.68 10
-1 -5 18 16611.7 1346.45 20
1 5 18 18351 1139.7 18
-1 -5 18 20081.9 1546.18 16
-1 5 -19 5686.11 630.691 7
1 -5 -19 5383.16 793.537 7
1 -5 -19 4823.57 676.493 10
1 5 19 4156.77 561.252 18
-1 -5 19 5010.31 748.57 20
-1 -5 19 4806.87 790.249 16
1 -5 -20 8303.28 969.32 7
-1 5 -20 9976.85 814.368 7
1 5 20 9299.7 803.907 18
-1 -5 20 9810.64 1012.57 20
-1 -5 20 11258.6 1113.52 16
1 -5 -21 14490.3 1218.75 7
-1 5 -21 16131.5 1001.07 7
1 5 21 11832.3 902.971 18
-1 -5 21 13144 1131.48 20
-1 -5 21 11584.4 1088.57 16
1 -5 -22 5268.36 724.796 7
-1 5 -22 6727.99 641.783 7
-1 -5 22 5737.12 717.499 20
1 5 22 5890.36 621.459 18
-1 -5 22 5093.99 710.7 16
1 -5 -23 940.362 357.029 7
-1 5 -23 895.193 268.579 7
-1 -5 23 134.37 252.402 20
-1 -5 23 506.1 299.284 16
1 5 23 583.778 267.05 18
1 -5 -24 2692.74 459.37 7
-1 -5 24 1793.8 367.417 20
1 5 24 2191.7 356.865 18
-1 -5 24 1805.77 368.873 16
1 -5 -25 8180.49 668.326 7
1 5 25 6634.31 535.011 18
-1 -5 25 7903.03 643.283 20
-1 -5 25 7146.5 608.749 16
1 5 26 19707.6 814.806 18
-1 6 25 3605.79 351.265 18
1 -6 25 3708.51 371.81 20
-1 6 24 5276.52 508.585 18
1 -6 24 5870.55 542.861 20
-1 -6 -23 14874.6 804.217 8
1 -6 23 15278.8 959.519 20
-1 6 23 13791.2 898.399 18
1 -6 22 1856.21 318.108 9
-1 -6 -22 1780.13 329.862 8
1 -6 22 1764.13 385.29 20
-1 6 22 1727.11 374.871 18
-1 -6 -21 5109.9 589.377 8
1 -6 21 4935.24 549.007 9
-1 6 21 4241.14 581.682 18
-1 -6 -20 2047.87 439.872 8
1 -6 20 2284.11 436.24 9
-1 6 20 2159.99 466.826 18
-1 -6 -19 23774.4 1407.97 8
-1 -6 -19 22669.9 1256.73 10
1 -6 19 20339.2 1246.2 9
-1 6 19 19772.9 1325.88 18
-1 -6 -18 52813.5 2053.63 10
1 -6 18 52644.7 2150.16 9
-1 6 18 50699.2 2194.93 18
1 -6 18 47105.9 2131.37 16
1 -6 18 49696.2 1951.99 14
-1 -6 -17 7143.47 740.074 10
1 -6 17 8417.38 859.557 9
-1 6 17 7166.83 818.778 18
1 -6 17 8680.92 804.85 14
1 -6 17 7606.88 848.63 16
1 -6 16 12000.2 1018.01 9
-1 -6 -16 9757.58 857.656 10
-1 6 16 9673.16 932.139 18
1 -6 16 10929.1 930.343 14
1 -6 16 8728.08 940.465 16
-1 -6 -15 30655.5 1540.38 10
1 -6 15 35618.6 1783.91 9
1 -6 15 30941 1690.92 3
1 -6 15 30976.9 1329.9 19
-1 6 15 31132.2 1674.55 18
-1 6 15 30968.1 1718.77 21
1 -6 15 30711 1590.5 14
1 -6 15 31061.4 1767.92 16
1 -6 14 1995.1 456.153 9
-1 -6 -14 2037.12 404.146 10
1 -6 14 2417.54 492.06 3
-1 6 14 2051.91 474.914 21
1 -6 14 1912.78 337.749 19
-1 6 14 1639.4 376.431 18
1 -6 14 3314.27 533.011 14
1 -6 14 2293.64 497.566 16
-1 -6 -13 31159.9 1492.17 10
1 -6 13 33025.1 1713.39 9
1 -6 13 31884.7 1625.62 3
1 -6 13 31999.7 1308.89 19
-1 6 13 30273.2 1587.61 18
-1 6 13 31467.2 1673.48 21
1 -6 13 30744.5 1595.91 14
1 -6 13 31752 1757.65 16
1 -6 12 26787.7 1509.5 9
-1 -6 -12 26732 1357.07 10
1 -6 12 25022.8 1385.15 3
-1 6 12 25980.4 1421.48 18
-1 6 12 25419.2 1459.26 21
1 -6 12 27896.1 1494.74 14
1 -6 12 26648.8 1569.43 16
1 -6 11 17254.8 1170.57 9
1 -6 11 15202.2 1124.85 8
-1 -6 -11 13834.6 944.051 10
1 -6 11 16198.7 1044.27 3
1 -6 11 15433 900.242 5
-1 6 11 15645.6 1107.26 21
-1 6 11 15071.7 1043.03 18
-1 -6 -11 13754.1 827.091 13
1 -6 11 14427.9 1050.46 14
-1 -6 -10 33122.2 1463.28 10
1 -6 10 38838.7 1761.3 9
1 -6 10 32562.8 1632.16 8
1 -6 10 35826 1537.07 3
1 -6 10 33326.2 1355.13 5
-1 6 10 34307 1608.21 21
1 -6 10 32803.2 1599.41 14
-1 -6 -10 32956.7 1300.08 13
1 -6 9 72179.8 2245.71 3
1 -6 9 74688.4 2117.67 5
1 -6 9 72282.9 2363.66 4
-1 6 9 68954.2 2369.7 21
1 -6 8 93594 2528.59 3
1 -6 8 95263.2 2469.95 5
-1 6 8 90553.8 2752.8 21
1 -6 7 1197.98 290.613 4
-1 -6 -7 601.32 198.599 4
1 -6 7 466.447 193.948 5
-1 6 7 619.705 248.933 21
1 -6 6 158129 3423.55 5
-1 -6 -6 151805 3477.25 4
1 -6 6 155096 3716.93 4
-1 6 6 154771 3801.91 21
-1 -6 -5 246274 4831.97 5
1 -6 5 255003 4911.84 5
1 -6 5 248754 5225.09 4
-1 -6 -5 250522 4973.8 4
-1 6 5 251979 5372.74 21
1 -6 4 47722.9 1500.03 5
-1 -6 -4 44280.3 1467.84 5
1 -6 4 46688.8 1702.07 4
-1 -6 -4 44055.6 1499.46 4
-1 6 4 48440.2 1791.26 21
-1 -6 -3 22817.5 1010.41 5
1 -6 3 21939.5 952.641 5
1 -6 3 21589.1 1106.15 4
-1 -6 -3 21816.8 984.418 4
-1 6 3 21791.4 1159.83 21
-1 -6 -2 8476.42 617.108 5
1 -6 2 8002.11 556.987 5
1 -6 2 9351.86 706.596 4
1 6 -2 8326.15 579.882 2
-1 -6 -2 8077.89 580.401 4
-1 6 2 8397.38 701.911 21
-1 6 2 8265.37 575.624 23
1 6 -2 8405.49 559.767 21
1 6 -1 30942.5 1213.76 2
-1 -6 -1 27955.8 1179.57 5
-1 -6 -1 26267.7 1106.17 4
1 -6 1 28883.7 1098.41 5
1 6 -1 30095.6 1127.93 1
1 -6 1 27166.5 1257.01 4
-1 6 1 28367.7 1165.88 23
-1 6 1 28289.3 1330.17 21
1 6 -1 27716.5 1058.04 21
1 -6 0 77438.2 2015.05 5
-1 -6 0 74900.1 2168.53 5
-1 -6 0 75186.8 2071.6 4
1 -6 0 75591.5 2309.1 4
-1 6 0 77099.4 2387.15 21
1 6 0 76632.6 1982.6 21
-1 6 0 73629.5 2156.21 23
1 -6 -1 27755.7 1072 5
-1 -6 1 28864.1 1228.57 5
-1 -6 1 27852.7 1131.54 4
1 -6 -1 27846.1 1296.91 4
1 6 1 29989.1 1186.64 1
-1 6 -1 27866.4 1219.22 23
1 6 1 27184.1 1044.52 21
-1 -6 2 7831.72 628.407 3
-1 -6 2 8075.06 644.58 5
-1 -6 2 8182.96 592.187 4
1 -6 -2 7541.82 671.106 4
1 6 2 8646.82 632.368 1
-1 6 -2 8500.16 669.555 23
1 6 2 7509.67 523.555 21
-1 -6 3 21983.3 1114.79 3
-1 -6 3 20154.8 1044.02 5
1 -6 -3 21639 932.938 5
-1 -6 3 21851.3 1019.97 4
1 -6 -3 21665.2 1174.62 4
1 6 3 22910.7 1081.9 1
-1 6 -3 19621.8 1067.7 23
1 6 3 21267.6 910.763 21
-1 -6 4 44284.6 1558.47 4
-1 -6 4 48691.6 1784.69 3
-1 -6 4 45261.3 1663.67 5
1 -6 -4 42938.1 1412.07 5
1 6 4 47009.7 1664 1
1 -6 -4 47095.2 1824.1 4
-1 6 -4 44587.5 1704.29 23
1 6 4 42686.5 1406.08 21
-1 -6 5 244618 5381.71 3
-1 -6 5 253621 5241.44 5
1 6 5 241717 5177.97 1
1 -6 -5 252842 4813.75 5
-1 -6 5 247302 5082.74 4
1 -6 -5 252801 5508.05 4
-1 6 -5 242644 5334.32 23
1 6 5 251271 4857.92 21
1 6 6 154164 3777.28 1
-1 -6 6 151279 3872.47 3
-1 -6 6 161096 3754.85 5
1 -6 -6 158747 3323.76 5
1 -6 -6 154199 3998.01 4
-1 6 -6 152703 3346.4 22
-1 6 -6 142816 3806.48 23
1 6 6 154508 3412.64 21
1 -6 -7 1030.81 315.678 4
-1 -6 7 699.944 260.271 3
-1 -6 7 694.712 251.295 5
1 6 7 560.649 235.458 1
-1 6 -7 562.012 246.073 23
1 6 7 1153.33 262.402 21
-1 6 -7 1660.77 280.55 22
-1 -6 8 88266 2909.73 3
1 -6 -8 92660.7 2277.2 5
1 6 8 94277.2 2871.21 1
1 -6 -8 91552.8 2979.36 4
-1 6 -8 91664.2 2945.36 23
-1 6 -8 95481 2522.11 22
1 6 8 91940.5 2513.97 21
1 6 9 67753.9 2439.03 1
-1 -6 9 66227.6 2516.93 3
1 -6 -9 70091.5 2606.75 4
1 -6 -9 71625.4 1888.38 5
-1 6 -9 70010.6 2594.27 23
1 6 9 69616.4 2169.08 21
-1 6 -9 73300.7 2205.21 22
1 -6 -10 30920.3 1565.28 10
-1 -6 10 34016.3 1770.43 3
1 6 10 32204.3 1650.99 1
1 -6 -10 33572.5 1773.76 4
-1 6 -10 35550.4 1502.3 22
-1 6 -10 34438.6 1784.51 23
-1 -6 10 32392.8 1745.64 20
1 6 10 34313 1468.02 21
-1 -6 10 33188.8 1845.85 16
1 -6 -11 15246 1207.03 7
1 -6 -11 13997.1 1063.81 10
1 -6 -11 15356.7 1065.66 8
-1 -6 11 15661.4 1124.37 9
-1 -6 11 15545.1 1213.53 3
1 6 11 16264.7 1184.74 1
1 -6 -11 16193.4 1245.38 4
1 6 11 14656.7 846.35 18
-1 -6 11 17145.1 1275.5 20
-1 6 -11 15618.3 1010.15 22
-1 6 -11 14638.5 1183.34 23
1 6 11 14863 976.401 21
-1 -6 11 16881.8 1332.5 16
1 -6 -12 23915.4 1587.2 7
1 -6 -12 26649.4 1445.75 8
1 -6 -12 26119.5 1483.51 10
-1 -6 12 26851.6 1494.02 9
-1 -6 12 26075.4 1642 3
1 6 12 26150.9 1552.33 1
1 -6 -12 25050.6 1621.77 4
-1 6 -12 25680.8 1632.02 23
-1 6 -12 27247.9 1417.25 22
1 6 12 25235 1174.38 18
-1 -6 12 26039.9 1634.81 20
1 6 12 28159.7 1385.15 21
-1 -6 12 27613.2 1754.42 16
-1 -6 13 32465.2 1657.76 9
1 -6 -13 30805.6 1651.24 10
1 -6 -13 30157.2 1827.33 7
-1 -6 13 30234.6 1849 3
1 6 13 31002.6 1757.47 1
1 -6 -13 33042.1 1932.38 4
-1 6 -13 32271.4 1616.05 22
-1 -6 13 28260.5 1757.52 20
1 6 13 34338.6 1412.26 18
1 6 13 33508.9 1566.48 21
-1 6 -13 32716.7 1887.12 23
-1 -6 13 33666.6 1990.93 16
1 -6 -14 2188.63 524.69 7
1 -6 -14 2369.45 489.607 10
-1 -6 14 2084.67 473.554 9
1 -6 -14 1485.46 490.769 4
-1 -6 14 1232.82 474.948 3
1 6 14 2239.31 481.626 1
1 6 14 2044.97 400.09 21
-1 6 -14 2112.3 428.569 22
-1 6 -14 1271.05 377.216 23
-1 -6 14 1833.18 449.401 20
-1 -6 14 1993.84 523.047 16
1 6 14 1901.64 360.684 18
1 -6 -15 31538.9 1737.23 10
1 -6 -15 27922.6 1806.39 7
1 6 15 31981 1861.64 1
-1 6 -15 29756.6 1863.62 23
-1 6 -15 31506.3 1695.66 22
-1 -6 15 31893.4 1877.95 20
1 6 15 30296.3 1410.5 18
-1 -6 15 34379.2 2052.21 16
1 -6 -16 11446.8 1025.33 10
1 -6 -16 11632.3 1160.93 7
-1 -6 16 11621.2 1152.74 20
1 6 16 9864.96 798.763 18
-1 -6 16 10870.4 1149.96 16
1 -6 -17 8954.72 1027.64 7
1 -6 -17 7072.32 823.877 10
1 6 17 7925.59 733.787 18
-1 -6 17 7545.06 920.162 20
-1 -6 17 8039.86 993.533 16
1 -6 -18 52472.8 2250.15 10
1 -6 -18 49484.7 2459.83 7
1 6 18 49437 1934.65 18
-1 -6 18 52467.1 2456.56 20
-1 -6 18 53434.8 2536.62 16
1 -6 -19 18292.8 1418.24 7
1 -6 -19 21187.2 1339.97 10
1 6 19 17891.9 1099.01 18
-1 -6 19 20250.6 1455.58 20
-1 -6 19 22702.7 1576.28 16
1 -6 -20 1798.19 469.176 7
1 -6 -20 1898.4 415.472 10
-1 -6 20 2383.48 536.35 20
1 6 20 1914.86 396.221 18
-1 -6 20 2519.3 545.562 16
1 -6 -20 1700.43 393.895 14
1 -6 -21 5309.19 714.707 7
1 -6 -21 4739.67 551.7 10
-1 -6 21 4921.41 690.525 20
-1 -6 21 4529.41 679.629 16
1 6 21 3578.24 482.206 18
1 -6 -21 3877.65 509.861 14
1 -6 -22 1886.18 429.81 7
-1 -6 22 2021.95 451.369 20
1 6 22 1706.04 340.506 18
-1 -6 22 1731.04 422.253 16
1 -6 -23 14120.8 989.591 7
1 6 23 13823 832.799 18
-1 -6 23 16485.2 1075.49 20
-1 -6 23 14502.4 988.425 16
1 -6 -24 5615.52 560.945 7
1 6 24 5157.28 466.338 18
-1 -6 24 5746.73 567.281 20
-1 -6 24 5658.03 553.735 16
1 6 25 3320.16 329.081 18
-1 -6 25 3586.37 389.576 20
-1 -6 25 3305.03 354.064 16
-1 -7 -24 4105.27 378.582 14
-1 -7 -23 7835.59 499.734 8
-1 7 23 8696.45 593.626 18
1 -7 23 8242.67 618.143 20
-1 -7 -22 4497.71 454.778 8
1 -7 22 4138.18 404.759 9
1 -7 22 4350.85 500.549 20
-1 7 22 3524.33 435.943 18
-1 -7 -21 698.812 243.448 8
1 -7 21 272.823 167.017 9
1 -7 21 172.246 202.816 20
-1 7 21 162.283 216.971 18
-1 -7 -20 1410.46 356.02 8
-1 -7 -20 1711.12 349.79 10
1 -7 20 2267.5 409.741 9
1 -7 20 1271.74 351.884 20
-1 7 20 2013.57 369.135 18
-1 -7 -19 1820.22 429.799 8
1 -7 19 2027.84 424.463 9
-1 -7 -19 1927.58 364.158 10
1 -7 19 1972.68 443.747 20
-1 7 19 2346.94 457.365 18
-1 -7 -18 12311.3 941.742 10
1 -7 18 14376.4 1083.8 9
-1 -7 -18 13845.7 1081.99 8
-1 7 18 11814.9 965.75 18
-1 -7 -17 19545.6 1322.71 8
-1 -7 -17 20162.1 1232.72 10
1 -7 17 20827.4 1335.72 9
-1 7 17 20159.2 1288.96 18
1 -7 17 19786.2 1170.97 14
1 -7 17 18857 1295.12 16
-1 -7 -16 14811.9 1079.58 10
-1 -7 -16 14779.2 1163.99 8
1 -7 16 16949 1228.47 9
-1 7 16 16207 1167.41 18
1 -7 16 15739.7 1082.65 14
1 -7 16 13455.4 1118.2 16
-1 -7 -15 757.582 320.851 8
1 -7 15 505.765 278.278 9
-1 -7 -15 514.766 301.583 10
1 -7 15 438.798 207.417 16
1 -7 15 956.573 348.841 14
-1 7 15 626.599 311.809 18
1 -7 14 239.808 287.748 9
-1 -7 -14 1235.47 414.126 8
-1 -7 -14 1085.5 337.935 10
1 -7 14 311.26 255.328 16
-1 7 14 154.197 233.16 18
1 -7 14 507.169 297.358 14
-1 -7 -13 12881.1 1000.55 10
-1 -7 -13 14574 1166.14 8
1 -7 13 14800 1179.03 9
-1 7 13 13146.1 1007.36 18
-1 7 13 13386.4 1125.2 21
1 -7 13 13940 1078.23 14
1 -7 13 12361 1102.05 16
-1 -7 -12 33809.1 1802 8
-1 -7 -12 33028.1 1602.88 10
1 -7 12 32482.8 1771.7 9
-1 7 12 33598.9 1755.7 21
1 -7 12 31378.7 1637.07 14
1 -7 12 31277.1 1771.4 16
1 -7 11 16121.3 1221.09 9
-1 -7 -11 16214 1073.88 10
1 -7 11 16057.7 1204.04 8
-1 -7 -11 16592.4 1231.32 8
1 -7 11 14732.5 968.043 5
-1 7 11 15903.7 1169 21
1 -7 11 14408.2 1171.33 16
1 -7 11 14486.9 1102.44 14
1 -7 10 38618.6 1861.73 8
1 -7 10 31592.6 1645.69 6
-1 -7 -10 38687.3 1891.02 8
-1 -7 -10 37638.1 1673.49 10
1 -7 10 38692.6 1884.94 9
1 -7 10 39576.4 1601.28 5
-1 7 10 38950.2 1821.89 21
1 -7 10 32584.2 1791 16
1 -7 10 38045.6 1793.24 14
1 -7 9 4502.56 650.508 8
-1 -7 -9 5765.04 644.054 10
-1 -7 -9 5835.31 702.809 8
1 -7 9 5869.73 718.546 9
1 -7 9 4741.57 662.873 6
1 -7 9 5973.33 591.348 5
1 -7 9 6726.75 723.259 4
-1 7 9 5941.61 690.82 21
1 -7 9 5549.05 732.374 16
1 -7 9 7115.88 752.111 14
1 -7 8 93306.9 3024.33 8
-1 -7 -8 97342.3 3074.19 8
1 -7 8 97280.4 3094 9
-1 -7 -8 91143 2762.8 10
1 -7 8 88233.5 2942.26 6
1 -7 8 100650 2710.4 5
1 -7 8 100875 2991.97 4
-1 7 8 94003.8 2984.21 21
-1 -7 -8 90892.6 2432.84 13
1 -7 8 94775.2 2997.39 14
-1 -7 -7 125428 3269.77 10
1 -7 7 121027 3499.96 8
-1 -7 -7 119819 3487.08 8
1 -7 7 109550 3367.05 6
1 -7 7 122685 3502.76 9
1 -7 7 120785 3071.91 5
1 -7 7 121226 3346.02 4
-1 7 7 119654 3424.23 21
1 -7 7 117511 3430.46 14
1 -7 6 85447.8 2426.9 5
1 -7 6 83698.2 2644.66 4
-1 7 6 86407.5 2773.64 21
-1 -7 -5 65173.8 1980.32 5
1 -7 5 66766.7 2277.78 4
-1 -7 -5 64957.1 2065.84 4
1 -7 5 68637.2 2058.24 5
-1 7 5 64334.4 2316.9 21
1 -7 4 3462.89 485.03 4
-1 -7 -4 3542.89 424.925 5
1 -7 4 4041.54 464.054 5
-1 -7 -4 3744.18 445.658 4
-1 7 4 2805.38 462.93 21
1 -7 3 35232.6 1362.68 5
1 -7 3 35547.5 1569.8 4
-1 -7 -3 31178.7 1333.11 4
-1 -7 -3 32046.4 1358.31 5
-1 7 3 30815.6 1522.62 21
-1 -7 -2 122860 3120.99 5
-1 -7 -2 120094 3042.8 4
1 -7 2 124865 3002.72 5
1 -7 2 122792 3326.07 4
-1 7 2 122636 3398.26 21
-1 -7 -1 9388.83 736.088 5
1 -7 1 8968.74 652.265 5
-1 -7 -1 9739.01 711.95 4
1 -7 1 10041.8 811.516 4
-1 7 1 9149.78 796.528 21
-1 -7 0 60336.2 2033.78 5
1 -7 0 62184.6 1881.04 5
1 -7 0 61511.1 2185.2 4
-1 -7 0 61131.8 1939.05 4
-1 7 0 60090.6 2210.63 21
1 -7 -1 9518.62 663.681 5
-1 -7 1 10355.2 740.568 4
-1 -7 1 10480 794.039 5
1 -7 -1 8985.93 800.388 4
-1 7 -1 9879.65 739.884 23
-1 7 -1 9263.37 821.74 21
-1 -7 2 121150 3086.54 4
1 -7 -2 121924 2957.15 5
-1 -7 2 119377 3203.24 5
1 -7 -2 123570 3410.18 4
1 7 2 130582 3210.6 1
-1 7 -2 124303 3243.45 23
-1 -7 3 30584.4 1334.05 4
1 -7 -3 30481.4 1239.89 5
-1 -7 3 29587.3 1407.05 5
1 -7 -3 30847.1 1524.09 4
1 7 3 32987.7 1418.62 1
-1 7 -3 30310.1 1430.74 23
1 7 3 29603.6 1206.89 21
1 -7 -4 3703.46 549.057 4
-1 -7 4 3787.67 501.014 3
-1 -7 4 3284.43 444.85 4
1 7 4 3520.03 461.567 1
-1 7 -4 5197.1 590.412 23
1 7 4 3063.29 382.381 21
-1 -7 5 65130.4 2306.69 3
-1 -7 5 65339 2245.75 5
1 -7 -5 64038.6 1938.23 5
1 -7 -5 64139.3 2406.11 4
1 7 5 67068.9 2261.33 1
-1 7 -5 65940.1 2345.45 23
1 7 5 68361 2002.95 21
-1 -7 6 85853.8 2700.12 5
-1 -7 6 86167.1 2840.86 3
1 -7 -6 89553.8 2345.58 5
1 7 6 86450.2 2717.67 1
1 -7 -6 83296.5 2869.49 4
-1 7 -6 84921.3 2784.47 23
1 7 6 86185.5 2387.76 21
1 -7 -7 119441 3473.2 8
1 -7 -7 116178 3422.53 10
-1 -7 7 122960 3638.15 9
1 -7 -7 121991 2912.5 5
-1 -7 7 118901 3102.36 6
-1 -7 7 124074 3612.06 3
-1 -7 7 120829 3377.44 5
1 7 7 118956 3422.71 1
1 -7 -7 122338 3673.51 4
-1 7 -7 116145 3466.28 23
1 7 7 127547 3111.23 21
-1 -7 7 123243 3819.26 16
1 -7 -7 122434 3659.47 14
1 -7 -8 92667.3 2996.89 10
1 -7 -8 95197.1 3019.21 8
-1 -7 8 95327.4 3145.86 9
-1 -7 8 91815.2 3112.91 3
-1 -7 8 88733.8 2616.07 6
1 -7 -8 99251.4 2462.95 5
1 7 8 93697.4 3026.72 1
1 -7 -8 89517.4 3108.2 4
-1 7 -8 93515.8 3100.48 23
-1 -7 8 87434.6 3072.44 20
-1 -7 8 97292.3 3360.32 16
1 -7 -8 94748.2 3176.61 14
-1 -7 9 5360.89 698.561 9
1 -7 -9 6527.65 737.865 10
1 -7 -9 6135.11 696.665 8
-1 -7 9 5455.42 722.14 3
-1 -7 9 4777.28 528.362 6
1 7 9 5543.57 712.631 1
1 -7 -9 6098.92 781.204 4
-1 7 -9 6727.96 801.201 23
-1 -7 9 6936.17 818.079 20
1 -7 -9 6865.69 814.387 14
-1 -7 9 5673.61 803.389 16
1 -7 -10 38131.9 1844.02 10
1 -7 -10 39771.9 1858.48 8
-1 -7 10 38876.7 1921.31 9
-1 -7 10 35219.1 1518.21 6
-1 -7 10 36793.5 1954.95 3
1 7 10 37899.6 1888.51 1
1 -7 -10 36146.3 1952.18 4
-1 7 -10 37529.5 1961.57 23
-1 -7 10 38541.3 1989.2 20
-1 -7 10 36780.3 2047.25 16
1 -7 -10 39062.3 1981.21 14
1 -7 -11 15984.3 1184.92 10
1 -7 -11 15327.8 1240.33 7
1 -7 -11 16045.5 1168.38 8
-1 -7 11 16809.7 1231.5 9
-1 -7 11 15677.7 1299.89 3
1 -7 -11 14199.8 1231.14 4
1 7 11 15252 1194.43 1
-1 7 -11 14832.5 1236.53 23
-1 -7 11 12257.5 1129.09 20
1 -7 -11 16258.5 1268.04 14
-1 -7 11 15703.3 1355.98 16
1 -7 -12 34087.7 1923.06 7
1 -7 -12 31147.1 1693.66 10
1 -7 -12 34708.5 1731.67 8
-1 -7 12 33692.3 1793.84 9
-1 -7 12 30435 1866.77 3
1 7 12 33219.1 1849.38 1
1 -7 -12 36612.9 2024.04 4
-1 7 -12 30531.6 1832.45 23
-1 -7 12 29753.2 1813.74 20
1 7 12 30230.4 1336.72 18
-1 -7 12 33091.4 2026.89 16
1 -7 -13 14267 1146.76 10
1 -7 -13 12350.6 1156.05 7
1 -7 -13 14124.6 1077.11 8
-1 -7 13 14842 1160.97 9
-1 -7 13 13873.2 1268.87 3
1 7 13 12626.5 1142.13 1
1 -7 -13 13606.8 1237.09 4
-1 -7 13 14223.4 1250.92 20
1 7 13 13805.8 892.332 18
-1 7 -13 12801 1202.53 23
-1 -7 13 13593.3 1291.62 16
1 -7 -14 328.195 264.225 7
1 -7 -14 904.687 312.503 8
1 -7 -14 810.294 372.597 10
-1 -7 14 294.421 346.299 20
1 7 14 778.968 241.234 18
-1 -7 14 1004.33 429.023 16
-1 -7 15 463.933 246.119 9
1 -7 -15 924.302 402.097 10
1 -7 -15 867.306 419.937 7
-1 -7 15 633.992 373.716 20
1 -7 -15 452.553 312.044 14
1 7 15 424.572 226.828 18
-1 -7 15 649.361 466.466 16
1 -7 -16 15469.7 1314.11 7
1 -7 -16 15292.8 1196.72 10
-1 -7 16 17178.5 1172.12 9
-1 -7 16 14768.5 1291.72 20
1 7 16 14363.7 962.064 18
1 -7 -16 15982.3 1256.56 14
-1 -7 16 15806.4 1373.73 16
1 -7 -17 18054.6 1418.01 7
1 -7 -17 20042 1347.66 10
1 7 17 17795.2 1067.17 18
-1 -7 17 20856.1 1491.49 20
1 -7 -17 19913 1367.54 14
-1 -7 17 19218.2 1476.59 16
1 -7 -18 14907 1129.34 10
1 -7 -18 13520.3 1189.61 7
1 7 18 13715.2 927.339 18
-1 -7 18 15154 1257.66 20
-1 -7 18 13400.7 1209.89 16
1 -7 -18 13800.7 1099.58 14
1 -7 -19 2516.61 492.832 10
1 -7 -19 1779.81 444.681 7
-1 -7 19 2506.18 528.631 20
-1 -7 19 1789.21 515.384 16
1 7 19 2172.84 374.876 18
1 -7 -19 2230.08 449.116 14
1 -7 -20 1590.02 384.682 10
1 -7 -20 1302.27 377.702 7
-1 -7 20 1458.05 409.483 20
-1 -7 20 1156.46 376.093 16
1 7 20 1356.36 286.957 18
1 -7 -20 1459.24 350.742 14
1 -7 -21 371.025 230.793 7
1 -7 -21 529.436 246.389 10
-1 -7 21 -50.6387 288.288 20
-1 -7 21 410.899 280.045 16
1 -7 -21 331.374 188.464 14
1 7 21 309.236 179.063 18
-1 -7 22 4726.28 578.327 20
1 7 22 3971.03 433.788 18
1 -7 -22 4315.36 431.831 14
-1 -7 22 4000.79 533.227 16
1 7 23 8182.71 547.939 18
-1 -7 23 8215.01 668.52 20
-1 -7 23 7471.41 629.957 16
-1 -7 24 3800.35 396.956 20
-1 -7 24 3679.13 371.294 16
-1 -8 -22 17949.7 771.612 8
-1 -8 -22 17718 913.497 14
-1 -8 -21 10480.2 681.958 8
1 -8 21 11301.2 681.724 9
-1 8 21 10094.1 633.418 18
1 -8 21 9349.41 672.852 20
-1 -8 -21 9869.04 754.324 14
-1 -8 -20 323.507 196.582 8
1 -8 20 550.048 222.577 9
-1 -8 -20 247.432 180.477 10
1 -8 20 291.491 201.941 20
-1 8 20 685.921 226.992 18
-1 -8 -19 11883 835.234 10
-1 -8 -19 12564.5 903.272 8
1 -8 19 13460.6 923.742 9
-1 8 19 10946.5 784.696 18
1 -8 19 10843.1 846.625 20
-1 -8 -18 2695.97 479.35 8
1 -8 18 2701.6 477.661 9
-1 -8 -18 2800.12 462.57 10
1 -8 18 2548.44 449.561 20
-1 8 18 2134.22 385.361 18
-1 -8 -17 956.027 326.654 8
-1 -8 -17 1606.71 398.248 10
1 -8 17 1926.33 441.888 9
1 -8 17 719.035 280.018 20
-1 8 17 506.971 226.69 18
-1 -8 -16 40695.4 1922.23 8
-1 -8 -16 37219.2 1742.55 10
1 -8 16 38289.5 1860.13 9
1 -8 16 37990.7 1792.78 20
-1 -8 -15 44358.2 2064.32 8
1 -8 15 40283.7 1963.11 9
-1 -8 -15 41329.8 1889.27 10
1 -8 15 40645.2 1893.33 20
1 -8 15 39554.2 1938.65 16
1 -8 15 42626.6 1792.26 14
-1 -8 -14 6450.96 748.386 10
-1 -8 -14 7419.94 846.953 8
1 -8 14 5878.78 765.392 9
1 -8 14 6464.54 703.728 14
1 -8 14 6034.5 781.219 16
-1 -8 -13 25583.4 1481 10
-1 -8 -13 29034.7 1679.62 8
1 -8 13 27115.1 1637.25 9
1 -8 13 24797 1555.86 16
1 -8 13 28798 1526.01 14
-1 -8 -12 7163.56 847.618 8
-1 -8 -12 7175.47 790.947 10
1 -8 12 8462.99 916.464 9
1 -8 12 8398.64 934.44 16
1 -8 12 7851.93 816.33 14
1 -8 11 19438.3 1350.25 8
-1 -8 -11 17842.7 1207.8 10
-1 -8 -11 17439.2 1307.97 8
1 -8 11 19811.6 1396.64 9
1 -8 11 18565.4 1251.72 14
1 -8 11 17774.2 1339.25 16
1 -8 10 12567 1091.02 8
-1 -8 -10 11376 956.393 10
-1 -8 -10 12522.4 1098.85 8
1 -8 10 12655.4 1114.09 9
1 -8 10 13301.9 978.068 5
-1 8 10 11580.3 1017.2 21
1 -8 10 12329.9 1107.71 16
1 -8 10 11697.8 1003.9 14
-1 -8 -9 71051.7 2502.22 10
1 -8 9 67732.4 2635.58 8
1 -8 9 62230.8 2519.5 6
-1 -8 -9 69819.1 2710.42 8
1 -8 9 75354.6 2821.38 9
1 -8 9 73749.3 2430.53 5
-1 8 9 65993.7 2570.12 21
1 -8 9 71538.6 2620.24 14
1 -8 9 68808.9 2754.49 16
-1 -8 -8 114902 3306.81 10
1 -8 8 103055 3405.87 6
1 -8 8 108780 3476.3 8
-1 -8 -8 111649 3533.03 8
1 -8 8 119167 3628.31 9
1 -8 8 115619 3460.76 4
1 -8 8 120752 3253.68 5
-1 8 8 113448 3491.73 21
1 -8 8 108171 3406.3 14
1 -8 8 107832 3582.23 16
1 -8 7 61636.6 2485.21 8
1 -8 7 61202.4 2466.32 6
-1 -8 -7 63226.6 2287.62 10
-1 -8 -7 64801.7 2530.7 8
1 -8 7 65146.9 2545.63 9
-1 -8 -7 70733.6 2172.48 6
1 -8 7 63955.8 2214.1 5
1 -8 7 64967.6 2424.51 4
-1 8 7 63982.8 2490.46 21
1 -8 7 62423.9 2451.84 14
1 -8 7 60384.7 2528.3 16
1 -8 6 8085.89 842.22 8
-1 -8 -6 8092.28 771.69 10
-1 -8 -6 8676.13 877.601 8
1 -8 6 9583.74 931.184 6
1 -8 6 8480.9 871.175 9
-1 -8 -6 9833.73 775.05 6
1 -8 6 9560.49 785.128 5
1 -8 6 8565.71 842.722 4
-1 8 6 8215.69 839.202 21
1 -8 6 8736.59 876.922 14
1 -8 6 8131.91 881.51 16
1 -8 5 53254.2 2233.68 8
-1 -8 -5 58214 2094.98 10
-1 -8 -5 51447.2 2241.55 9
-1 -8 -5 52787.9 2208.64 8
1 -8 5 51641.9 2232.14 6
1 -8 5 54691.2 2247.65 9
1 -8 5 57316.7 2007.6 5
-1 -8 -5 61018.8 2040.92 6
1 -8 5 54305.3 2183.89 4
-1 8 5 56480.9 2285.81 21
1 -8 5 53296.6 2301.44 16
1 -8 5 55614 2279.89 14
-1 -8 -5 56079.6 2465.71 16
-1 -8 -5 53288.3 2230.48 14
1 -8 4 7936.19 843.572 6
1 -8 4 10210.4 923.934 8
-1 -8 -4 9166.76 776.455 10
-1 -8 -4 10088.9 911.136 8
-1 -8 -4 9276.64 919.006 9
1 -8 4 8725.02 847.767 9
-1 -8 -4 10098.6 773.607 6
-1 -8 -4 9684.04 772.455 5
1 -8 4 10758.4 808.694 5
1 -8 4 8555.55 828.888 4
-1 8 4 9199.27 881.272 21
1 -8 4 8471.8 855.96 14
1 -8 4 8529.02 887.388 16
-1 -8 -4 9447.51 962.458 16
-1 -8 -4 9498.51 862.883 14
1 -8 3 10232.1 947.565 6
-1 -8 -3 11775.9 874.244 10
1 -8 3 9739.1 884.596 9
1 -8 3 10119 927.526 8
-1 -8 -3 10055 961.552 9
-1 -8 -3 10941.7 949.653 8
-1 -8 -3 13616.5 920.259 6
-1 -8 -3 10066.6 808.036 5
1 -8 3 9994.55 901.315 4
1 -8 3 11512.1 834.101 5
-1 8 3 11893.6 998.726 21
-1 -8 -3 10569.4 1013.08 16
-1 -8 -3 11934.2 966.664 14
1 -8 3 11148.3 954.08 14
1 -8 3 9281.35 899.318 16
1 -8 2 36686.3 1815.91 6
1 -8 2 36420.9 1784.88 8
-1 -8 -2 34516.6 1798.94 9
1 -8 2 34515.5 1675.37 9
-1 -8 -2 36891.5 1573.65 10
-1 -8 -2 36510.1 1735.69 8
-1 -8 -2 39338.1 1619.16 6
-1 -8 -2 36027.3 1604.17 5
1 -8 2 37709.6 1542.2 5
-1 -8 -2 40770.8 1623.23 4
1 -8 2 36112.6 1722.92 4
-1 8 2 36017.9 1775.16 21
-1 -8 -2 39533.5 1985.23 16
1 -8 2 32075 1718.89 16
1 -8 2 36381 1800.96 14
-1 -8 -1 3648.49 546.725 8
1 -8 1 3110.76 497.687 9
-1 -8 -1 2429.73 387.225 10
-1 -8 -1 2782.3 525.698 9
1 -8 1 2965.99 516.947 8
-1 -8 -1 3182.77 444.101 4
1 -8 1 3193.25 529.259 4
-1 -8 -1 3729.76 496.188 6
-1 -8 -1 2994.56 475.543 5
1 -8 1 3457.79 457.078 5
-1 8 1 3726.26 564.676 21
-1 -8 -1 4020.98 650.891 16
1 -8 1 3644.81 584.229 14
1 -8 1 2132.7 402.988 16
-1 -8 0 377.141 200.111 8
-1 -8 0 233.786 255.045 9
1 -8 0 306.192 214.314 8
-1 -8 0 336.161 215.2 4
1 -8 0 269.572 242.898 4
-1 -8 0 175.864 220.663 6
-1 -8 0 602.638 273.142 5
1 -8 0 698.355 235.245 5
1 -8 0 220.407 255.822 6
-1 8 0 271.326 189.351 21
-1 -8 0 370.188 279.062 16
1 -8 0 174.906 202.728 14
1 -8 0 148.339 259.883 16
-1 -8 1 3564.78 532.514 8
1 -8 -1 3634.79 571.143 8
-1 -8 1 3804.97 582.103 9
-1 -8 1 2738.53 423.24 4
1 -8 -1 3609.06 545.42 4
1 -8 -1 3977.39 608.566 6
-1 -8 1 3218.84 476.606 6
-1 -8 1 2758.4 483.551 5
1 -8 -1 3661.56 460.852 5
-1 8 -1 2760.56 502.006 21
-1 -8 1 3554.07 621.971 16
1 -8 -1 3200.35 532.949 14
1 -8 -1 3149.89 539.59 16
1 -8 -2 34923.8 1708.63 6
1 -8 -2 36068.6 1793.32 8
-1 -8 2 36660.2 1688.14 8
-1 -8 2 37018.1 1877.6 9
-1 -8 2 38114.3 1614.84 6
-1 -8 2 37743.2 1705.82 5
1 -8 -2 35714.6 1480.4 5
-1 -8 2 35844.1 1558 4
1 -8 -2 36715.7 1772.85 4
-1 8 -2 36085.2 1809.07 21
1 -8 -2 34772.6 1791.6 16
-1 -8 2 37671 1961.27 16
1 -8 -2 36700 1837.6 14
1 -8 -3 11737 989.042 8
1 -8 -3 11601 944.698 6
1 -8 -3 10831 921.588 10
-1 -8 3 12803.5 1085.07 9
-1 -8 3 10724.5 888.635 8
-1 -8 3 10794.6 847.218 4
-1 -8 3 12110.4 881.476 6
-1 -8 3 10553.5 894.198 5
1 -8 -3 10447.8 760.96 5
1 -8 -3 10756.3 961.248 4
-1 8 -3 10599.7 973.742 21
1 -8 -3 10545.5 989.539 14
1 -8 -3 11284.3 999.34 16
-1 -8 3 9852.11 1003.34 16
-1 -8 4 9337.8 783.659 6
-1 -8 4 9686.28 857.62 5
1 -8 -4 9045.75 713.926 5
-1 -8 4 9657.37 818.587 4
1 -8 -4 8427.25 864.754 4
1 8 4 10534.4 855.729 1
1 -8 -4 9520.3 873.426 10
1 -8 -4 7633.17 812.633 8
-1 -8 4 9592.75 950.983 9
1 -8 -4 8079.35 774.421 6
1 -8 -4 8859.23 917.504 14
-1 -8 4 8737.21 975.078 16
-1 -8 5 58476.3 2077.01 6
-1 -8 5 56867.7 2214.72 5
1 -8 -5 55244.5 1880.02 5
1 -8 -5 55602.8 2328.6 4
1 8 5 61748 2261.33 1
1 -8 -5 47659.2 2132.97 10
1 -8 -5 54394.3 2102.71 6
1 -8 -5 55890.1 2300.11 8
-1 -8 5 56836.9 2421.28 9
1 -8 -5 56355.6 2394.89 14
-1 -8 5 55826.6 2501.1 16
1 -8 -6 7561.27 830.18 10
1 -8 -6 9248.05 896.634 8
-1 -8 6 9223.37 954.108 9
-1 -8 6 9134.16 852.048 5
-1 -8 6 9768.23 806.794 6
1 -8 -6 8457.32 673.067 5
1 -8 -6 9167.48 923.635 4
1 8 6 9110.74 859.097 1
-1 8 -6 8025.54 833.126 23
-1 -8 6 9034.85 1012.47 16
1 -8 -6 9842.21 984.008 14
1 -8 -7 58824.1 2425.12 10
1 -8 -7 63890.5 2514.92 8
-1 -8 7 65867.9 2661.71 9
-1 -8 7 64307.8 2243.47 6
1 -8 -7 63480.9 2017.89 5
1 -8 -7 63422.4 2610.32 4
1 8 7 63835.4 2447.94 1
-1 8 -7 62705.8 2498.06 23
-1 -8 7 65292.9 2805.33 16
1 -8 -7 65745.2 2659.33 14
1 -8 -8 109017 3494.83 10
1 -8 -8 117898 3587.51 8
-1 -8 8 116477 3728.41 9
-1 -8 8 112213 3166.76 6
1 -8 -8 106990 3632.04 4
1 8 8 109706 3462.09 1
-1 8 -8 111619 3602.51 23
1 -8 -8 113591 3706.43 14
-1 -8 8 117201 3936.34 16
1 -8 -9 69711.9 2669.59 8
-1 -8 9 62700 2678.29 9
1 -8 -9 66577.5 2622.45 10
-1 -8 9 65661.5 2313.19 6
1 -8 -9 67917.3 2806.02 4
1 8 9 72947.6 2729.61 1
-1 8 -9 65068.3 2674.03 23
-1 -8 9 71422.3 2781.36 20
-1 -8 9 74932.9 3059.74 16
1 -8 -9 72843.5 2875.38 14
1 -8 -10 12776.1 1072.94 8
-1 -8 10 12411 934.41 6
-1 -8 10 11279.1 1104.58 9
1 -8 -10 12190.8 1146.29 4
1 8 10 10092.6 985.453 1
-1 -8 10 12722.7 1146.36 20
-1 8 -10 9759.18 1009.23 23
1 -8 -10 11170.4 1088.5 14
-1 -8 10 12478.3 1228.37 16
-1 -8 11 15814.5 1057.46 6
-1 -8 11 20117.6 1429.01 9
1 -8 -11 20825.4 1366.73 8
1 -8 -11 16060.1 1256.07 10
-1 -8 11 15475.8 1286.21 20
-1 8 -11 15512 1274.38 23
-1 -8 11 17947.8 1472.01 16
1 -8 -11 18098.9 1394.87 14
1 -8 -12 6761.33 835.262 10
1 -8 -12 8877.93 897.292 8
-1 -8 12 7912.76 885.937 9
-1 -8 12 8457.85 972.607 20
1 -8 -12 7717.42 915.862 14
-1 -8 12 8055.6 999.939 16
1 -8 -13 25023.1 1486.75 8
1 -8 -13 26692.5 1625.13 10
-1 -8 13 27721.6 1631.19 9
-1 -8 13 24610.7 1651.72 20
1 -8 -13 25099 1649.54 14
-1 -8 13 27439.1 1816.94 16
-1 -8 14 7071.8 801.903 9
1 -8 -14 5951.3 772.555 10
1 -8 -14 5786.85 698.416 8
-1 -8 14 6159.47 850.138 20
-1 -8 14 6100.49 870.254 16
1 -8 -14 7244.17 882.034 14
1 -8 -15 39395.8 1983.24 10
1 -8 -15 43494.6 1865.19 8
-1 -8 15 42144.1 1951.32 9
1 8 15 38187.4 1560.63 18
-1 -8 15 40063.7 2102.33 20
1 -8 -15 42632.4 2117.15 14
-1 -8 15 43768.2 2286.14 16
1 -8 -16 38646.5 1909.7 10
-1 -8 16 37668.4 1757.42 9
-1 -8 16 38421.1 2018.42 20
1 -8 -16 36385 1896.92 14
-1 -8 16 41362.8 2163.61 16
-1 -8 17 1249.22 332.014 9
1 -8 -17 1130.82 354.895 10
-1 -8 17 1083.51 394.161 20
-1 -8 17 836.557 397.547 16
1 -8 -17 1517.73 411.736 14
1 8 17 1038.23 281.61 18
1 -8 -18 2445.42 498.824 10
-1 -8 18 1700.18 443.928 20
-1 -8 18 2069.09 495.982 16
1 8 18 1803.37 320.776 18
1 -8 -18 2605.85 495.102 14
1 -8 -19 12885.3 933.749 10
-1 -8 19 12343.7 1000.24 20
1 8 19 11092.1 736.898 18
1 -8 -19 11994 895.85 14
-1 -8 19 12713.1 1043.81 16
1 -8 -20 811.653 278.623 10
-1 -8 20 514.161 284.577 20
1 8 20 624.059 218.02 18
-1 -8 20 493.861 270.056 16
1 -8 -20 566.277 227.445 14
1 -8 -21 10698.5 690.826 10
1 8 21 9662.45 597.848 18
-1 -8 21 10200.9 786.624 20
1 -8 -21 10447 666.613 14
-1 -8 21 10501 810.76 16
-1 -8 22 17626.4 926.188 20
-1 -8 22 16948.8 918.724 16
-1 -9 -21 10993.4 657.283 14
-1 -9 -20 11446.8 659.678 10
-1 -9 -20 11431 692.1 8
1 -9 20 11089.5 671.46 9
-1 -9 -20 11533.4 771.066 14
-1 -9 -19 7610.1 619.511 10
-1 -9 -19 8561.49 671.614 8
1 -9 19 8487.1 659.07 9
-1 -9 -19 8386.1 718.248 14
-1 -9 -18 6035.77 593.06 10
-1 -9 -18 5609.52 603.33 8
1 -9 18 5107.43 575.269 9
-1 -9 -18 6106.23 666.169 14
-1 -9 -17 13320 968.726 8
1 -9 17 13948.6 995.432 9
-1 -9 -17 13602.1 954.781 10
-1 -9 -17 14859.8 1089.7 14
-1 -9 -16 1650.61 402.894 8
-1 -9 -16 1825.26 414.976 10
1 -9 16 2089.02 450.878 9
-1 -9 -16 2161.78 477.537 14
-1 -9 -15 19779.9 1252.68 10
-1 -9 -15 23170.3 1406.8 8
1 -9 15 24121.3 1425.39 9
-1 -9 -14 5861.2 729.409 10
-1 -9 -14 7540.44 835.138 8
1 -9 14 7882.85 871.951 9
1 -9 14 5810.44 705.625 16
1 -9 14 6683.17 666.258 14
-1 -9 -13 51088.6 2263.23 8
-1 -9 -13 49352.9 2099.53 10
1 -9 13 51375.8 2261.59 9
1 -9 13 49893.8 1986.15 14
1 -9 13 45083 2100.75 16
-1 -9 -12 10249.1 948.52 10
-1 -9 -12 11022.4 1034.83 8
1 -9 12 9958.78 1005.13 9
1 -9 12 11541.8 1041.1 16
1 -9 12 10737.2 909.167 14
-1 -9 -11 89185.8 3033.46 10
-1 -9 -11 93967.6 3247.37 8
1 -9 11 96712.2 3326.31 9
1 -9 11 89289 3216.27 16
1 -9 11 92054 2988.43 14
1 -9 10 21257.4 1424.07 8
-1 -9 -10 20600.2 1427.12 8
1 -9 10 19916.7 1431.4 9
-1 -9 -10 21884.1 1381.94 10
1 -9 10 20553.7 1446.16 16
-1 -9 -10 19546.1 1420.25 14
1 -9 10 22073.8 1362.78 14
1 -9 9 34418.9 1825.51 8
-1 -9 -9 33964.1 1737.74 10
-1 -9 -9 37431.6 1928.96 8
1 -9 9 35684.3 1935.91 9
-1 -9 -9 31560 1812.95 14
1 -9 9 34176.6 1897.27 16
1 -9 9 34020.3 1753.8 14
-1 -9 -8 11989.6 1002.4 10
1 -9 8 12190.2 1089.85 8
-1 -9 -8 13560 1133.95 8
1 -9 8 13310 1164.52 9
1 -9 8 13034.7 1123.76 6
1 -9 8 14134.7 1194.45 16
1 -9 8 13696.7 1103.87 14
-1 -9 -8 12683 1116.9 14
1 -9 7 6417.93 836.478 6
-1 -9 -7 7182.14 774.778 10
-1 -9 -7 7213.47 846.36 8
1 -9 7 6782.03 845.906 8
1 -9 7 6899.08 840.21 9
-1 -9 -7 8533.59 736.566 6
-1 9 7 7330.23 829.306 21
1 -9 7 7088.03 872.502 16
-1 -9 -7 7089.92 819.209 14
1 -9 7 7304.11 791.997 14
1 -9 6 31252.4 1755.79 8
-1 -9 -6 32251.6 1639.69 10
1 -9 6 32296.7 1818.7 6
-1 -9 -6 32736.5 1787.75 8
1 -9 6 32631.4 1803.8 9
-1 -9 -6 36792.5 1618.58 6
1 -9 6 33725.7 1623.01 5
1 -9 6 31801.2 1699.09 4
-1 9 6 32524.2 1760.38 21
1 -9 6 30922 1800.8 16
-1 -9 -6 30445.5 1729.12 14
1 -9 6 32502.6 1749.14 14
1 -9 5 86449.6 3172.05 6
1 -9 5 95411 3246.9 8
-1 -9 -5 89285.2 3156.93 8
1 -9 5 90467 3160.51 9
-1 -9 -5 91917.7 2920.75 10
-1 -9 -5 103056 2925.22 6
1 -9 5 104616 3260.45 4
1 -9 5 97397.7 2950.91 5
-1 9 5 91790.5 3162.17 21
1 -9 5 86169.3 3204.18 16
-1 -9 -5 79043.7 2976.36 14
-1 -9 -5 93507.8 3453.94 16
1 -9 5 92013.4 3153.34 14
1 -9 4 8451.03 915.059 8
-1 -9 -4 8149.32 775.83 10
-1 -9 -4 8030.17 865.784 8
-1 -9 -4 7951.9 892.469 9
1 -9 4 9209.63 964.135 6
1 -9 4 8333.82 876.019 9
1 -9 4 9013.29 801.364 5
-1 -9 -4 7736.07 756.169 6
1 -9 4 8317.26 853.046 4
-1 9 4 9365.93 930.749 21
1 -9 4 9214.21 938.026 14
1 -9 4 9170.04 988.247 16
-1 -9 -4 8096.49 967.177 16
-1 -9 -4 8805.23 882.062 14
1 -9 3 43300.9 2098.81 8
-1 -9 -3 45513.7 1866.78 10
1 -9 3 43920.2 2046.64 9
-1 -9 -3 44741.1 2069.65 8
-1 -9 -3 43082.3 2135.55 9
1 -9 3 40227.4 2056.08 6
1 -9 3 47565 2120.25 4
-1 -9 -3 50200.6 1947.59 6
-1 -9 -3 40528.6 1812.46 5
1 -9 3 47848.7 1914.11 5
-1 9 3 45430.3 2122.3 21
1 -9 3 41627.8 2102.39 16
-1 -9 -3 44607.1 2014.22 14
-1 -9 -3 46256 2303.92 16
1 -9 3 47452.8 2162.11 14
1 -9 2 26975.2 1634.33 8
-1 -9 -2 28851.9 1426.03 10
-1 -9 -2 26812 1563.63 8
-1 -9 -2 28030.7 1689.08 9
1 -9 2 25891.8 1604.2 6
1 -9 2 26455.1 1531.74 9
-1 -9 -2 30009.8 1488.23 6
-1 -9 -2 29580.4 1531.68 5
1 -9 2 29899.1 1474.01 5
1 -9 2 29315.8 1643.47 4
-1 9 2 27985.6 1634.44 21
1 -9 2 27473.3 1664.93 16
1 -9 2 28410.9 1651.83 14
-1 -9 -2 26759.1 1732.32 16
-1 -9 -1 5700.15 771.008 9
-1 -9 -1 7059.57 677.686 10
-1 -9 -1 6558.15 762.621 8
1 -9 1 6581.19 743.051 9
1 -9 1 7169.29 835.555 6
1 -9 1 7192.82 835.498 8
-1 -9 -1 7102.95 726.535 6
-1 -9 -1 6515.73 730.521 5
1 -9 1 7350.52 712.833 5
1 -9 1 7489.71 823.608 4
-1 9 1 6199.03 773.291 21
-1 -9 -1 6218.25 845.886 16
1 -9 1 5670.1 729.592 16
1 -9 1 7916.61 883.241 14
1 -9 0 69536.4 2725.59 8
-1 -9 0 68596.8 2588.73 8
-1 -9 0 66564.1 2773.89 9
1 -9 0 65592.9 2491 9
1 -9 0 73724 2785.91 6
-1 -9 0 73249.9 2491.71 6
-1 -9 0 69013.9 2542.86 5
1 -9 0 74173.8 2424.23 5
1 -9 0 75165.9 2787.13 4
-1 9 0 73139.7 2778.43 21
-1 -9 0 72106.8 2940.08 16
1 -9 0 69660.5 2755.62 16
1 -9 0 71624.3 2782.39 14
1 -9 -1 5841.7 762.254 8
-1 -9 1 6295.94 749.44 8
-1 -9 1 6148.85 817.073 9
1 -9 -1 6549.74 792.838 6
-1 -9 1 5942.48 674.642 6
-1 -9 1 6569.63 760.807 5
1 -9 -1 6430.52 670.561 5
1 -9 -1 5689.76 749.011 4
-1 9 -1 7047.06 809.401 21
-1 -9 1 7203.78 908.245 16
1 -9 -1 7692.17 873.114 14
1 -9 -1 5794.49 757.01 16
-1 -9 2 27747 1541.78 8
1 -9 -2 29723.6 1701.35 8
1 -9 -2 27556.6 1598.24 6
-1 -9 2 26600.6 1675.38 9
-1 -9 2 27845.1 1465.44 6
1 -9 -2 29769.7 1440.39 5
-1 -9 2 27972.4 1553.26 5
1 -9 -2 28714.4 1665.79 4
-1 -9 2 27083.2 1441.74 4
-1 9 -2 27449 1653.5 21
1 -9 -2 25654.5 1609 16
1 -9 -2 29130.2 1709.22 14
-1 -9 2 29586 1840.18 16
-1 -9 3 46285.7 2256.71 9
-1 -9 3 45612 1989.53 8
1 -9 -3 44951.9 2150.94 8
1 -9 -3 41414.5 1970.36 6
1 -9 -3 44237.3 1997.37 10
1 -9 -3 46239.9 1829.47 5
-1 -9 3 45944.9 1924.38 6
-1 -9 3 47849.4 2081.14 5
-1 -9 3 45600.6 1948.81 4
1 -9 -3 46977 2189.18 4
-1 9 -3 43310.6 2150.01 21
-1 -9 3 44530.5 2320.48 16
1 -9 -3 46019.5 2218.98 14
1 -9 -4 8988.75 943.101 8
-1 -9 4 9937.29 891.833 8
1 -9 -4 7750.81 836.001 10
-1 -9 4 8641.13 959.193 9
1 -9 -4 9247.98 896.521 6
-1 -9 4 8943.98 833.497 6
-1 -9 4 9390.56 904.767 5
1 -9 -4 9445.68 788.467 5
1 -9 -4 7653.42 865.034 4
-1 9 -4 7927.2 905.732 21
1 -9 -4 8829.5 949.548 14
-1 -9 4 8272.36 998.914 16
-1 -9 5 94820 3409.26 9
1 -9 -5 88762.6 3119.88 10
1 -9 -5 90949.5 2993.03 6
1 -9 -5 98511.8 3317.65 8
1 -9 -5 91142.3 2742.39 5
-1 -9 5 97458.9 3011.46 6
1 -9 -5 97632.6 3371.68 4
-1 9 -5 93983 3343.57 21
1 -9 -5 96554.7 3397.16 14
-1 -9 5 96554.3 3603.74 16
1 -9 -6 32867.2 1827.03 8
1 -9 -6 33026 1794.02 10
-1 -9 6 34323.9 1947.41 9
1 -9 -6 33545 1500.89 5
-1 -9 6 35364.4 1680.51 6
1 -9 -6 32859.9 1866.69 4
-1 9 -6 32721.1 1865.67 21
1 -9 -6 32275.3 1876.32 14
-1 -9 6 33851.6 2011.88 16
-1 -9 7 7580.69 760.715 6
1 -9 -7 7556.9 869.562 8
1 -9 -7 5632.47 753.814 10
-1 -9 7 6550.27 855.94 9
1 -9 -7 5891.34 824.654 14
-1 -9 7 6226.28 878.407 16
1 -9 -8 12349.8 1113.93 10
1 -9 -8 13044.3 1124.78 8
-1 -9 8 13868.4 1040.74 6
-1 -9 8 13068.7 1199.78 9
1 -9 -8 12297.3 1169.24 14
-1 -9 8 11113 1168.61 16
1 -9 -9 36134.9 1907.25 8
1 -9 -9 34337.7 1891.38 10
-1 -9 9 34175.2 1662.84 6
-1 -9 9 36282.4 2019.85 9
1 -9 -9 34992.3 1982.37 14
-1 -9 9 36452.6 2130.55 16
1 -9 -10 19555.6 1406.26 10
-1 -9 10 21446.3 1293.35 6
1 -9 -10 19943.8 1395.7 8
-1 -9 10 19425.3 1478.11 9
-1 -9 10 20863.5 1602.1 16
1 -9 -10 21370.3 1532.73 14
-1 -9 11 87197.3 2809.51 6
1 -9 -11 85741.1 3159.56 10
1 -9 -11 92915.5 3169.91 8
-1 -9 11 94437.6 3338.86 9
-1 -9 11 92006.1 3213.27 20
1 -9 -11 99437.6 3455.02 14
-1 -9 11 91083.1 3515.55 16
1 -9 -12 10994.3 987.82 8
1 -9 -12 11065.5 1042.84 10
-1 -9 12 9572.72 981.281 9
-1 -9 12 8092.43 752.646 6
-1 -9 12 10104.5 992.168 20
-1 -9 12 10887.5 1136.99 16
1 -9 -12 11719.4 1111.5 14
1 -9 -13 46514.1 2201.24 10
1 -9 -13 47580.2 2085.12 8
-1 -9 13 49837.8 2223.7 9
-1 -9 13 49217.4 2260.22 20
-1 -9 13 51221.2 2492.66 16
1 -9 -13 52625.5 2377.13 14
1 -9 -14 6232.79 783.263 10
1 -9 -14 6256.68 711.885 8
-1 -9 14 6546.49 767.121 9
-1 -9 14 5103.85 711.146 20
1 -9 -14 6931.27 842.52 14
-1 -9 14 5755.36 844.545 16
1 -9 -15 20378.2 1198.75 8
1 -9 -15 22700.3 1428.22 10
-1 -9 15 21773.8 1330.88 9
-1 -9 15 21541.6 1396.08 20
-1 -9 15 20905.3 1486.96 16
1 -9 -15 20567 1385.83 14
-1 -9 16 1546.37 378.37 9
1 -9 -16 1422.91 405.727 10
-1 -9 16 1473.64 404.81 20
-1 -9 16 1714.97 468.854 16
1 -9 -16 1675.43 412.204 14
1 -9 -17 14311.3 1049.45 10
-1 -9 17 15600.7 966.84 9
-1 -9 17 13340.3 1020.05 20
1 -9 -17 14524.8 1045.82 14
-1 -9 17 13058.9 1072.97 16
1 -9 -18 5066.45 592.121 10
-1 -9 18 4970.57 591.679 20
-1 -9 18 5461.59 663.856 16
1 -9 -18 5176.25 602.887 14
1 -9 -19 7439.65 647.182 10
-1 -9 19 7223.16 655.36 20
1 -9 -19 8800.84 682.057 14
-1 -9 19 8395.55 746.956 16
1 -9 -20 11598.2 709.988 10
-1 -9 20 12311 756.816 20
-1 -9 20 10664.2 761.139 16
1 -9 -20 10517.5 651.45 14
-1 -9 21 11748.4 697.319 16
1 -10 19 12093 655.803 9
-1 -10 -19 13199.2 676.756 8
-1 -10 -19 12944.4 725.765 14
-1 -10 -18 20778.3 979.97 10
-1 -10 -18 19921 966.104 8
1 -10 18 20841.8 990.676 9
-1 -10 -18 19189.9 999.89 14
-1 -10 -17 7319.49 631.875 10
-1 -10 -17 7517.66 641.12 8
1 -10 17 7169.89 645.105 9
-1 -10 -17 7491.99 666.946 14
-1 -10 -16 1996.09 383.909 8
1 -10 16 2926.57 474.993 9
-1 -10 -16 2789.87 441.181 10
-1 -10 -16 2239.25 419.98 14
-1 -10 -15 4912.39 601.481 10
-1 -10 -15 4812.75 594.973 8
1 -10 15 4759.51 600.416 9
-1 -10 -15 4813.4 612.815 14
-1 -10 -14 20374.4 1229.01 10
-1 -10 -14 19407.6 1234.86 8
1 -10 14 20830 1287.13 9
-1 -10 -14 19713.6 1271.34 14
-1 -10 -13 2900.89 522.154 8
1 -10 13 2213.35 479.268 9
-1 -10 -13 3085.03 567.535 10
-1 -10 -13 1911.14 441.158 14
-1 -10 -12 6717.64 791.546 8
-1 -10 -12 8228.89 833.517 10
1 -10 12 6466.85 786.315 9
1 -10 12 7900.47 722.511 14
1 -10 12 8096.49 808.592 16
-1 -10 -12 8571.08 900.16 14
-1 -10 -11 15693.9 1150.45 10
-1 -10 -11 16856.8 1250.12 8
1 -10 11 16468.3 1264.81 9
1 -10 11 15652.4 1060.01 14
1 -10 11 14500.4 1119.65 16
-1 -10 -11 15930.3 1240.67 14
-1 -10 -10 1382.72 416.926 8
1 -10 10 1194.86 411.878 9
-1 -10 -10 1180.51 389.081 10
1 -10 10 958.588 340.441 8
1 -10 10 1215.75 392.686 16
1 -10 10 1203.2 362.463 14
-1 -10 -10 1138.07 398.642 14
-1 -10 -9 7569.61 815.865 10
1 -10 9 6651.65 792.644 8
-1 -10 -9 6928.29 821.492 8
1 -10 9 6722.96 850.054 9
-1 -10 -9 4931.17 707.594 14
1 -10 9 5383.91 742.632 16
1 -10 9 6362.17 725.262 14
-1 -10 -8 2049.45 489.218 8
1 -10 8 1548.68 472.786 9
-1 -10 -8 1720.82 431.094 10
1 -10 8 1623.93 427.892 8
1 -10 8 1228.24 391.533 14
1 -10 8 1453.99 433.505 16
-1 -10 -8 1523.8 376.03 14
-1 -10 -7 15083.3 1126.65 10
-1 -10 -7 17123 1292.43 8
1 -10 7 16971.8 1277.03 8
-1 -10 -7 16502.8 1068 6
1 -10 7 17340.6 1320.1 9
1 -10 7 15230.4 1251.56 6
-1 -10 -7 16386.8 1244.88 14
1 -10 7 15750.1 1181.63 14
1 -10 7 16408.8 1280.84 16
-1 -10 -6 42784.2 1822.14 6
-1 -10 -6 45038.4 2129.63 8
1 -10 6 38699.1 2052.87 6
-1 -10 -6 42689.7 1930.05 10
1 -10 6 41198.7 2074.38 9
1 -10 6 41100.6 2036.97 8
1 -10 6 43240.6 2140.8 16
1 -10 6 41991.8 2002.45 14
-1 -10 -6 40952.7 1993.21 14
-1 -10 -5 9542.83 854.362 6
1 -10 5 9532.62 1031.26 6
1 -10 5 8262.61 899.859 8
-1 -10 -5 10189.7 901.741 10
-1 -10 -5 9381.14 968.891 8
1 -10 5 9200.81 974.779 9
1 -10 5 8327.48 929.62 16
-1 -10 -5 9689.58 950.658 14
1 -10 5 9009.24 939.683 14
-1 -10 -4 44407.7 1898.76 6
1 -10 4 44573.1 2148.17 8
1 -10 4 39404.7 2105.41 6
-1 -10 -4 41186.6 2040.07 8
1 -10 4 39688.2 2010.83 9
-1 -10 -4 41153.6 1845.89 10
1 -10 4 40030.6 2011.6 14
1 -10 4 43736.8 2157.01 16
-1 -10 -4 42937.6 2003.21 14
-1 -10 -3 82630.8 2751.38 6
-1 -10 -3 74950 2879.69 8
1 -10 3 80634.3 2997.09 8
1 -10 3 77076 3019.85 6
-1 -10 -3 78246.1 3029.34 9
-1 -10 -3 78416.9 2631.29 10
1 -10 3 79069.5 2910.5 9
1 -10 3 79243.4 3035.63 16
1 -10 3 81729.5 2978.31 14
-1 -10 -3 80535.5 3234.67 16
-1 -10 -3 79088.1 2800.88 14
-1 -10 -2 5142.2 674.316 6
1 -10 2 6584.86 858.432 6
-1 -10 -2 5405.68 788.351 9
1 -10 2 6029.58 802.982 8
-1 -10 -2 5286.4 622.197 10
-1 -10 -2 6107.49 772.202 8
1 -10 2 6204.34 764.572 9
-1 -10 -2 6049.15 869.981 16
1 -10 2 5988.83 799.861 16
1 -10 2 5438.91 761.626 14
-1 -10 -1 68499.8 2489.54 6
1 -10 1 61745.6 2621.4 8
-1 -10 -1 68584.9 2827.16 9
-1 -10 -1 66436 2601.33 8
1 -10 1 63711.8 2702.32 6
1 -10 1 61067.8 2476.31 9
1 -10 1 67708.3 2723.02 14
1 -10 1 63732.1 2695.09 16
-1 -10 -1 69178 2923.23 16
-1 -10 0 21163.4 1339.63 6
-1 -10 0 19118.7 1445.4 9
1 -10 0 21185.6 1466.26 8
-1 -10 0 21372.4 1392.81 8
1 -10 0 20300.4 1463.62 6
1 -10 0 22020.7 1391.39 9
1 -10 0 20042 1459.69 16
-1 -10 0 21029.1 1573.55 16
1 -10 0 20028.6 1444.65 14
-1 -10 1 65321 2468.78 6
1 -10 -1 62846.8 2615.63 6
1 -10 -1 70309.4 2770.63 8
-1 -10 1 66306.1 2574.57 8
-1 -10 1 63727.5 2758.59 9
1 -10 -1 69088.7 2792.36 14
1 -10 -1 62319.9 2672.31 16
-1 -10 1 65220.9 2880.33 16
-1 -10 2 6575.75 773.965 6
1 -10 -2 5487.16 768.095 6
-1 -10 2 5472.5 691.541 8
-1 -10 2 5286.66 791.161 9
1 -10 -2 5489.24 772.989 8
-1 -10 2 6777.54 904.438 16
1 -10 -2 5329.08 773.53 14
-1 -10 3 82008.4 2806.82 6
1 -10 -3 81475.5 3056.79 8
1 -10 -3 77466.3 2878.96 6
-1 -10 3 80862.2 3163.75 9
-1 -10 3 79298.1 2812.64 8
-1 -10 3 89023.6 3393.29 16
1 -10 -3 80771 3086.47 14
-1 -10 4 39619.7 1882.51 6
1 -10 -4 41473.4 1964.09 10
1 -10 -4 38559.1 1894.61 6
1 -10 -4 42600.3 2122.31 8
-1 -10 4 41661.5 2190.69 9
-1 -10 4 38360.1 1839.35 8
-1 -10 4 39278.1 2200.96 16
1 -10 -4 44297.9 2185.09 14
-1 -10 5 8868.46 841.332 8
1 -10 -5 10240.9 1027.37 8
1 -10 -5 9472.63 940.47 10
1 -10 -5 8626.69 867.977 6
-1 -10 5 8746.3 999.402 9
-1 -10 5 8783.19 852.019 6
1 -10 -5 9505.83 1011.39 14
-1 -10 5 8182.54 999.027 16
1 -10 -6 42509.3 2074.96 10
1 -10 -6 41328.3 2078.3 8
-1 -10 6 41659.4 2201.19 9
-1 -10 6 41124.1 1900.9 6
1 -10 -6 43852.3 2204.15 14
-1 -10 6 43345.5 2298.21 16
1 -10 -7 17842.8 1322.8 10
-1 -10 7 15947.7 1344.25 9
1 -10 -7 17357.4 1311.28 8
-1 -10 7 15377.2 1125.43 6
-1 -10 7 17538.9 1446.06 16
1 -10 -7 16704.3 1335.21 14
-1 -10 8 1755.3 437.327 6
1 -10 -8 1801.16 457.856 8
-1 -10 8 1207.81 452.576 9
1 -10 -8 1254.32 420.961 10
-1 -10 8 1224.86 495.231 16
1 -10 -8 865.729 384.335 14
1 -10 -9 6580.6 822.85 10
1 -10 -9 6522.6 799.07 8
-1 -10 9 5844.08 702.905 6
-1 -10 9 7584.72 912.379 9
-1 -10 9 6579.61 894.573 16
1 -10 -9 7372.12 894.353 14
-1 -10 10 742.112 317.483 6
1 -10 -10 1266.6 387.588 8
-1 -10 10 1201.76 408.04 9
1 -10 -10 1004.66 394.33 10
-1 -10 10 1142.61 454.021 16
1 -10 -10 975.753 401.496 14
1 -10 -11 15314 1158.96 8
-1 -10 11 15689.2 1074.53 6
1 -10 -11 16034.5 1227.7 10
-1 -10 11 17714.4 1313.98 9
1 -10 -11 15626.2 1259.43 14
-1 -10 11 13899.9 1274.68 16
1 -10 -12 8387.76 893.39 10
1 -10 -12 8248.5 828.186 8
-1 -10 12 7659.62 710.357 6
-1 -10 12 7575.75 847.634 9
-1 -10 12 6637.96 871.243 16
1 -10 -12 8708.51 910.144 14
1 -10 -13 2620.32 533.104 10
-1 -10 13 3305.81 556.323 9
1 -10 -13 1893.69 417.643 8
-1 -10 13 2236.13 562.344 16
1 -10 -13 3087.59 563.871 14
1 -10 -14 20922.5 1172.26 8
1 -10 -14 20152.5 1311.1 10
-1 -10 14 21046.1 1281.99 9
-1 -10 14 19861.5 1359.57 16
1 -10 -14 21065 1333.09 14
1 -10 -15 5216.32 542.384 8
1 -10 -15 5392.15 653.014 10
-1 -10 15 5511.56 610.951 9
-1 -10 15 5376.36 708.263 16
1 -10 -15 4616.04 607.444 14
-1 -10 16 2284.82 400.627 9
1 -10 -16 1800.26 406.932 10
-1 -10 16 2821.58 479.52 16
1 -10 -16 2367.59 427.766 14
1 -10 -17 7382.4 676.412 10
-1 -10 17 7181.82 562.55 9
-1 -10 17 7953.46 733.852 16
1 -10 -17 8227.78 680.501 14
1 -10 -18 20853.7 1029 10
-1 -10 18 19765 1053.91 16
1 -10 -18 18911.1 953.214 14
1 -10 -19 11821.6 685.215 10
-1 -10 19 13045.3 752.396 16
-1 -11 -17 128.267 151.695 10
-1 -11 -17 -219.93 144.398 8
1 -11 17 286.139 166.105 9
-1 -11 -16 25293.7 1094.66 10
-1 -11 -16 25227.9 1082.42 8
1 -11 16 25267.7 1105.15 9
-1 -11 -16 23730.6 1058.84 14
-1 -11 -15 18000.1 985.229 10
-1 -11 -15 18468.6 989.052 8
1 -11 15 18316 1009.58 9
-1 -11 -15 18156.6 984.131 14
-1 -11 -14 18105.8 1043.84 8
1 -11 14 18639.9 1077.78 9
-1 -11 -14 17971.4 1033.8 10
-1 -11 -14 16480 1002.98 14
-1 -11 -13 2530.81 443.842 8
1 -11 13 2788.29 460.676 9
-1 -11 -13 3171.53 465.078 10
-1 -11 -13 3003.64 462.788 14
-1 -11 -12 9828.77 839.87 10
-1 -11 -12 9015.06 816.439 8
1 -11 12 10986.8 920.92 9
-1 -11 -12 9997.39 851.233 14
-1 -11 -11 2257.78 452.991 8
1 -11 11 2782.6 508.81 9
-1 -11 -11 2973.72 514.84 10
-1 -11 -11 2420.4 458.199 14
-1 -11 -10 1446.42 371.177 8
1 -11 10 1623.99 413.675 9
-1 -11 -10 1293.05 356.025 10
1 -11 10 1454.69 383.557 16
1 -11 10 2005.19 354.318 14
-1 -11 -10 1436.84 362.241 14
1 -11 9 17265.3 1171.04 8
-1 -11 -9 16118.3 1122.04 10
-1 -11 -9 15515.1 1153.26 8
1 -11 9 16243.8 1196.76 9
1 -11 9 16068 1132.75 16
-1 -11 -9 16909.7 1172.57 14
1 -11 9 16037.2 1033.57 14
-1 -11 -8 5350.73 696.055 8
1 -11 8 5564.68 710.459 8
-1 -11 -8 4185.79 581.907 10
1 -11 8 5534.08 735.62 9
1 -11 8 4919.92 674.574 16
-1 -11 -8 4706.87 624.75 14
1 -11 8 5244.59 633.665 14
-1 -11 -7 445.776 223.698 6
-1 -11 -7 300.93 296.956 8
1 -11 7 389.353 304.911 9
-1 -11 -7 386.318 227.371 10
1 -11 7 345.931 309.712 8
1 -11 7 465.753 277.679 14
1 -11 7 649.2 352.529 16
-1 -11 -7 58.2926 225.474 14
-1 -11 -6 15136.6 1186.52 8
1 -11 6 15829.5 1195.51 8
-1 -11 -6 13979.3 1040.97 10
-1 -11 -6 15554.2 1036.87 6
1 -11 6 15544.5 1201.71 9
1 -11 6 13875.3 1068.42 14
-1 -11 -6 15895.5 1144.2 14
1 -11 6 16120.6 1210.79 16
1 -11 5 9690.73 958.493 8
-1 -11 -5 8816.27 818.217 6
-1 -11 -5 7940.43 777.93 10
1 -11 5 8333.82 890.867 9
-1 -11 -5 8834.17 897.546 8
-1 -11 -5 6418.22 721.185 14
1 -11 5 9503.2 949.638 16
1 -11 5 8279.77 852.987 14
1 -11 4 66939.2 2623.82 8
-1 -11 -4 68042.1 2430.07 6
-1 -11 -4 66277.3 2582.81 8
-1 -11 -4 64234.4 2310.18 10
1 -11 4 63895.7 2546.26 9
1 -11 4 63926.8 2509.64 14
-1 -11 -4 64448.7 2411.55 14
1 -11 4 64034.5 2601.93 16
-1 -11 -3 34436.8 1801.83 8
1 -11 3 32488.5 1803.17 8
-1 -11 -3 31879.4 1538.91 10
1 -11 3 32983.3 1856.33 6
1 -11 3 35528.1 1815.87 9
-1 -11 -3 37246.3 1750.19 6
1 -11 3 35944.1 1832.73 14
1 -11 3 36435.3 1906.89 16
-1 -11 -2 17773.8 1275.35 8
-1 -11 -2 17630.9 1210.77 6
1 -11 2 20168 1401.07 8
1 -11 2 20072.2 1458.13 6
1 -11 2 18891.3 1294.44 9
1 -11 2 18391.6 1313.28 14
1 -11 2 19737.7 1392.52 16
-1 -11 -2 20044.1 1503.7 16
1 -11 1 1337.91 431.66 6
-1 -11 -1 1461.57 439.854 6
-1 -11 -1 1175.92 447.42 9
1 -11 1 1928.29 427.653 9
1 -11 1 1528.15 452.403 8
-1 -11 -1 1411.45 405.977 8
-1 -11 -1 1583.44 486.087 16
1 -11 1 1591.68 425.757 14
-1 -11 0 12551.8 1034.71 6
-1 -11 0 14041.7 1114.71 8
1 -11 0 12142.5 1112.88 6
1 -11 0 15128.1 1228.07 8
-1 -11 0 13678.2 1207.71 9
1 -11 0 14802.6 1107.14 9
-1 -11 0 15179.8 1304.79 16
1 -11 0 13810.7 1161.82 14
-1 -11 1 1115.7 377.004 6
1 -11 -1 1479.27 446.106 6
-1 -11 1 1940.27 556.151 9
1 -11 -1 1754.7 492.112 8
-1 -11 1 1931.44 460.374 8
1 -11 -1 1733.02 448.975 14
-1 -11 1 1627.1 523.128 16
-1 -11 2 16922.1 1230.01 6
-1 -11 2 16082.3 1162.64 8
1 -11 -2 19392.8 1372.4 8
-1 -11 2 18160.2 1401.35 9
1 -11 -2 18583.7 1352.98 14
-1 -11 2 19670.1 1499.78 16
-1 -11 3 29553.3 1569.93 8
1 -11 -3 34474.3 1848.46 8
-1 -11 3 34102.4 1948.52 9
-1 -11 3 33809.4 1738.57 6
-1 -11 3 35825.1 2033.62 16
1 -11 -3 33788.9 1846.45 14
-1 -11 4 65217.7 2487.28 6
1 -11 -4 69417.6 2690.44 8
-1 -11 4 63613.1 2345.87 8
-1 -11 4 65699.8 2778.54 9
1 -11 -4 65842.6 2664.37 14
-1 -11 4 68620.4 2883.3 16
-1 -11 5 8276.87 837.007 6
1 -11 -5 6790.21 737.042 10
1 -11 -5 8632.98 905.457 8
-1 -11 5 8575.65 986.021 9
1 -11 -5 9304.99 964.595 14
-1 -11 5 10107.4 1076.57 16
-1 -11 6 16967.7 1337.25 9
1 -11 -6 15455.5 1207.71 8
1 -11 -6 15008.7 1137.37 10
-1 -11 6 15218 1125.63 6
-1 -11 6 16391.6 1349.02 16
1 -11 -6 14416.3 1185.3 14
-1 -11 7 369.581 280.629 6
1 -11 -7 476.504 325.532 10
1 -11 -7 624.293 334.866 8
-1 -11 7 -129.654 295.404 9
-1 -11 7 248.701 370.893 16
1 -11 -7 386.534 316.194 14
-1 -11 8 4585.53 619.365 6
-1 -11 8 5856.57 798.052 9
1 -11 -8 5059.08 676.301 8
1 -11 -8 5700.33 722.764 10
-1 -11 8 5115.81 769.31 16
1 -11 -8 5339.19 730.448 14
-1 -11 9 15455.2 1070.89 6
1 -11 -9 14322.7 1123.91 10
1 -11 -9 16192.2 1170.98 8
-1 -11 9 17328.1 1289.15 9
1 -11 -9 17009.5 1239.79 14
-1 -11 9 17551.6 1348.02 16
-1 -11 10 1603.08 370.933 6
-1 -11 10 1488.7 448.518 9
1 -11 -10 2169.01 469.916 10
1 -11 -10 1714.26 407.105 8
1 -11 -10 1579.72 459.657 14
-1 -11 10 1792.71 502.041 16
-1 -11 11 1668.59 371.523 6
1 -11 -11 2257.99 461.107 10
-1 -11 11 2488.82 485.258 9
1 -11 -11 1836.2 406.096 8
-1 -11 11 2246.82 489.991 16
1 -11 -11 2216.9 462.534 14
1 -11 -12 10685.2 828.228 8
1 -11 -12 8911.85 849.132 10
-1 -11 12 11316.1 923.045 9
-1 -11 12 10582.7 965.778 16
1 -11 -12 10349.2 899.915 14
-1 -11 13 2820.03 454.797 9
1 -11 -13 2485.64 458.698 10
1 -11 -13 3341.23 452.08 8
1 -11 -13 3017.12 496.12 14
-1 -11 13 2992.88 532.624 16
1 -11 -14 18461.2 1097.54 10
1 -11 -14 16421.4 883.873 8
-1 -11 14 17507.1 1017.51 9
-1 -11 14 19301.8 1162.22 16
1 -11 -14 17530.5 1059.93 14
1 -11 -15 21025.8 1102.37 10
-1 -11 15 18800.5 960.694 9
1 -11 -15 17364.9 995.377 14
-1 -11 15 18895.8 1084.84 16
1 -11 -16 25123.4 1126.28 10
1 -11 -16 23876.6 1072.13 14
-1 -11 16 23660.1 1126.37 16
1 -11 -17 27.7166 130.969 10
-1 -11 17 -66.0668 154.929 16
-1 -12 -14 904.439 229.734 10
1 -12 14 742.492 187.609 9
-1 -12 -14 534.207 185.95 8
-1 -12 -13 26998.4 1115.27 10
-1 -12 -13 27074 1127.58 8
1 -12 13 27430.2 1166.69 9
-1 -12 -13 24409.3 1004.06 14
1 -12 12 725.96 226.918 9
-1 -12 -12 1145.51 270.865 10
-1 -12 -12 920.584 253.651 8
-1 -12 -12 691.381 208.435 14
-1 -12 -11 9138.93 692.73 10
-1 -12 -11 8896.58 710.732 8
1 -12 11 8563.21 715.878 9
-1 -12 -11 8677.2 658.736 14
1 -12 10 922.679 299.735 9
-1 -12 -10 549.22 251.666 10
-1 -12 -10 617.741 260.422 8
-1 -12 -10 418.678 200.331 14
1 -12 9 -445.855 245.716 9
-1 -12 -9 58.0054 180.362 10
-1 -12 -9 161.898 193.596 8
-1 -12 -9 3.21255 208.606 14
1 -12 8 4354.55 586.705 9
-1 -12 -8 4367.56 578.75 8
-1 -12 -8 3935.76 500.349 10
-1 -12 -8 5369.41 564.517 14
1 -12 7 15302.3 1031.26 8
-1 -12 -7 16582.9 1001.32 10
-1 -12 -7 15209.1 1043.32 8
1 -12 7 15133 1058.44 9
1 -12 7 17424.8 983.054 14
-1 -12 -7 13390.6 909.259 14
1 -12 6 10697.8 891.204 8
-1 -12 -6 11164.3 813.55 10
-1 -12 -6 9715.6 849.528 8
1 -12 6 11481.4 940.761 9
-1 -12 -6 10977.3 786.502 6
1 -12 6 11526.5 842.282 14
1 -12 5 23891.8 1372.82 8
-1 -12 -5 22118.6 1194.85 6
-1 -12 -5 23470.9 1199.5 10
-1 -12 -5 23791.3 1350.02 8
1 -12 5 24048.1 1353.07 9
1 -12 5 25112 1299.92 14
-1 -12 -4 11377.8 938.599 8
-1 -12 -4 13422.4 950.114 6
-1 -12 -4 12319.6 846.375 10
1 -12 4 12483.6 972.159 9
1 -12 4 13655.5 1041.49 8
1 -12 4 13185.5 958.824 14
-1 -12 -3 19414.3 1175.95 6
-1 -12 -3 18827.4 1198.92 8
1 -12 3 17371 1197.85 8
1 -12 3 19445 1198.22 14
-1 -12 -2 10962.5 914.2 6
-1 -12 -2 9980.5 873.282 8
1 -12 2 10549.8 890.02 9
1 -12 2 11873 1007.44 8
1 -12 2 10531.5 904.96 14
1 -12 1 44873.2 1989.24 8
-1 -12 -1 43239.4 1860.77 8
-1 -12 -1 45670.9 1938.34 6
1 -12 1 42163.8 1773.12 9
1 -12 1 47148.7 1976.37 14
1 -12 0 21131.9 1344.24 8
-1 -12 0 21524 1265.96 8
-1 -12 0 21986.4 1323.04 6
1 -12 0 20807.4 1301.28 14
1 -12 -1 46802.5 2043.44 8
-1 -12 1 44247 1846.19 8
-1 -12 1 44605.1 1942.59 6
-1 -12 1 44435.7 2058.45 9
-1 -12 1 47628.6 2206.4 16
1 -12 -1 45150.2 1969.95 14
1 -12 -2 11449.6 991.751 8
-1 -12 2 11463.6 955.819 6
-1 -12 2 11542.4 1037.03 9
-1 -12 2 11088 864.237 8
1 -12 -2 12428.9 1018.42 14
-1 -12 2 9831.81 1004.39 16
-1 -12 3 17032 1167.14 6
-1 -12 3 17273.2 1046.93 8
1 -12 -3 17270 1198.85 8
-1 -12 3 19662.8 1349.58 9
-1 -12 3 18305.4 1354.15 16
1 -12 -3 18321 1234.57 14
-1 -12 4 12521 990.022 6
1 -12 -4 13127.2 1039.25 8
-1 -12 4 11325.2 1022.79 9
1 -12 -4 13743.9 1052.05 14
-1 -12 4 12886.7 1117.51 16
-1 -12 5 22789.4 1313.33 6
1 -12 -5 24547.6 1393.23 8
-1 -12 5 24132.6 1481.55 9
1 -12 -5 22369 1350.8 14
-1 -12 5 25577.9 1533.84 16
-1 -12 6 10572.2 873.922 6
1 -12 -6 10826.3 909.021 8
-1 -12 6 12033.5 1021.7 9
-1 -12 6 12534.7 1065.87 16
1 -12 -6 12088.3 965.993 14
1 -12 -7 16819.5 1104.26 8
-1 -12 7 16937.1 1195.44 9
-1 -12 7 14322.1 995.799 6
1 -12 -7 15236.3 985.71 10
1 -12 -7 15530.1 1084.95 14
-1 -12 7 15808.1 1181.74 16
1 -12 -8 5262.22 617.307 8
1 -12 -8 4526.54 563.791 10
-1 -12 8 4161.5 536.701 6
-1 -12 8 5718.92 693.715 9
-1 -12 8 4969.49 675.065 16
1 -12 -8 4791.03 600.814 14
-1 -12 9 -79.0658 204.786 6
-1 -12 9 210.627 258.093 9
1 -12 -9 -1.18589 179.731 10
1 -12 -9 9.48532 214.233 8
-1 -12 9 317.133 289.206 16
1 -12 -9 -506.495 274.618 14
-1 -12 10 822.418 237.396 6
-1 -12 10 683.651 259.988 9
1 -12 -10 1012.2 293.609 10
1 -12 -10 1505.09 325.04 8
1 -12 -10 544.037 237.829 14
-1 -12 10 797.84 302.845 16
1 -12 -11 8940.9 713.79 10
1 -12 -11 9333.98 683.342 8
-1 -12 11 10196.3 789.621 9
-1 -12 11 8971.57 784.836 16
1 -12 -11 9127.01 740.2 14
-1 -12 12 1310.35 302.547 9
1 -12 -12 930.82 278.235 10
1 -12 -12 789.224 219.295 8
-1 -12 12 853.404 282.738 16
1 -12 -12 466.554 218.963 14
1 -12 -13 26698 1134.78 10
-1 -12 13 26654.3 1116.44 9
1 -12 -13 28182 1184.73 14
-1 -12 13 27215.9 1207.98 16
1 -12 -14 747.907 204.916 10
-1 -12 14 866.432 228.264 16
1 -12 -14 715.904 211.903 14
-1 -13 -10 6811.05 495.193 8
1 -13 9 5073.09 457.895 9
-1 -13 -9 5495.52 480.232 8
-1 -13 -8 3754.79 421.975 8
1 -13 8 3636.15 403.215 9
-1 -13 -7 14910 846.268 8
1 -13 7 13536.6 802.856 9
1 -13 6 200.903 171.52 9
-1 -13 -6 320.641 198.04 8
1 -13 5 34331.9 1384.65 8
-1 -13 -5 33899.2 1359.84 8
-1 -13 -5 30267.7 1146.07 6
1 -13 5 30712.4 1267.29 9
-1 -13 -4 30650.9 1317.58 8
1 -13 4 32851.6 1386.19 8
-1 -13 -4 30620.8 1234 6
-1 -13 -3 3915.7 467.201 6
1 -13 3 4182.59 518.14 8
-1 -13 -3 3130.61 423.857 8
1 -13 3 3451.49 419.569 14
1 -13 2 32476.4 1421.94 8
-1 -13 -2 29513.7 1285.44 8
-1 -13 -2 30628.9 1331.16 6
1 -13 2 31129 1288.69 14
-1 -13 -1 16180.5 919.469 8
1 -13 1 16304 1006.84 8
-1 -13 -1 15642.8 958.113 6
1 -13 1 17221.9 964.581 14
-1 -13 0 383.063 242.636 6
1 -13 0 39.5858 213.707 8
-1 -13 0 163.605 165.031 8
1 -13 0 216.616 198.707 14
-1 -13 1 15820.4 1001.72 6
1 -13 -1 17667.1 1049.45 8
1 -13 -1 16402.9 967.353 14
-1 -13 2 30517.9 1400.98 6
1 -13 -2 31508.7 1378.65 14
-1 -13 3 3326.91 474.167 6
1 -13 -3 3454.41 475.633 8
1 -13 -3 3226.65 449.924 14
1 -13 -4 32614.8 1401.81 8
-1 -13 4 29765.4 1352 6
1 -13 -4 31422.7 1358.11 14
1 -13 -5 35213.8 1437.02 8
-1 -13 5 30309.6 1338.31 6
1 -13 -5 33477.5 1398.35 14
-1 -13 6 440.481 243.759 6
1 -13 -6 337.666 198.872 8
1 -13 -6 -72.0864 180.503 14
-1 -13 6 163.374 229.437 16
1 -13 -7 15171.8 864.147 8
-1 -13 7 16344.6 974.384 16
1 -13 -7 14819.8 869.53 14
1 -13 -8 3950.99 423.597 8
-1 -13 8 3820.56 472.342 16
1 -13 -8 3402.41 407.486 14
1 -13 -9 5605.61 459.813 8
1 -13 -9 5793.93 500.715 14
-1 -13 9 6083.5 541.241 16
1 -13 -10 7363.18 524.467 14
-1 -13 10 7319.69 548.628 16
-2 0 0 350270 6357.26 23
-2 0 0 342798 5673.7 21
2 0 0 341378 6240.77 2
2 0 0 350303 5652.57 4
2 0 0 364639 6362.94 1
-2 0 1 6055.94 481.713 23
-2 0 -1 7295.64 534.538 23
-2 0 1 6491.26 292.529 21
2 0 -1 6378.28 487.122 1
2 0 1 6072.07 458.61 2
2 0 -1 6088.15 466.879 2
2 0 1 5976.44 487.139 1
2 0 1 6307.83 231.156 4
2 0 -1 6079.68 328.833 4
-2 0 -2 412767 7238.7 23
-2 0 2 396514 6507.33 21
-2 0 2 409363 7185.53 23
2 0 -2 407647 7137.25 1
2 0 2 407484 7242.33 1
2 0 -2 398330 7095.67 2
2 0 -2 400607 6748.64 4
-2 0 -3 9379.85 619.129 23
-2 0 -3 7861.02 533.49 22
-2 0 3 8590.36 586.545 23
-2 0 3 8980.62 377.448 21
2 0 -3 8623.53 553.289 1
2 0 3 8336.04 597.25 1
2 0 -3 9220.4 578.759 2
-2 0 4 402181 7160.88 23
-2 0 -4 398251 7277.16 23
-2 0 4 399652 6607.34 21
-2 0 -4 398546 7170.11 22
-2 0 4 403240 7251.59 3
2 0 4 399268 7296.69 1
2 0 -4 415003 7076.53 1
2 0 -4 388180 7080.73 2
-2 0 -5 4433.4 456.18 23
-2 0 -5 4841.43 455.145 22
-2 0 5 4123.76 408.897 23
-2 0 5 4157.53 303.644 21
-2 0 5 4646.64 462.803 3
2 0 -5 4463.2 396.968 1
2 0 5 4262.22 449.426 1
2 0 -5 4688.99 425.338 2
-2 0 -6 2372.62 341.33 23
-2 0 6 1890.93 300.45 23
-2 0 -6 2005.76 312.705 22
-2 0 6 2152.08 241.128 21
-2 0 6 2524.7 366.818 3
2 0 6 3078.04 384.821 1
2 0 6 2193.05 202.317 5
2 0 -6 1758.74 259.506 1
2 0 -6 2770.13 335.246 2
-2 0 -7 6998.33 604.875 22
-2 0 -7 7835.38 617.363 23
-2 0 7 7788.41 477.541 21
-2 0 7 6846.28 587.614 3
2 0 7 6689.56 594.967 1
2 0 7 7101.89 322.645 5
2 0 -7 7985.51 570.958 2
-2 0 -8 157107 3695.86 23
-2 0 -8 164054 3810.23 22
-2 0 8 163413 3303.18 21
2 0 -8 162122 3501.95 2
-2 0 8 158818 3720.57 3
2 0 8 158506 3754.93 1
-2 0 -9 36235.8 1487.42 23
-2 0 -9 37370.5 1574.68 22
-2 0 9 37005.2 1263.34 21
2 0 -9 36450 1339.32 2
2 0 9 39427 1578.68 1
-2 0 9 38090.5 1547.49 3
-2 0 -10 272415 5816.73 23
-2 0 -10 296838 6120.3 22
-2 0 10 289542 5448.71 21
2 0 -10 285984 5590.11 2
2 0 10 284318 5950.9 1
-2 0 10 281932 5972.74 3
-2 0 -11 1800.13 364.421 23
-2 0 -11 1704.48 381.095 22
-2 0 11 2685.25 355.88 21
2 0 11 1882.91 394.782 1
2 0 -11 2046.05 341.059 2
-2 0 11 2407.02 427.423 3
-2 0 -12 46838.9 1901.55 23
-2 0 -12 53805.7 2182.98 22
-2 0 12 49822.9 1700.53 21
2 0 -12 50881.4 1768.35 2
-2 0 12 48773.3 2005.98 3
2 0 12 49538.1 1706.19 3
2 0 12 51650.3 2000.53 1
-2 0 -13 53583.7 2120.68 23
-2 0 -13 58769.9 2377.66 22
2 0 -13 56778.2 1923.12 22
-2 0 13 54628.8 1883.26 21
2 0 13 55031.3 2135.14 1
-2 0 13 57736.1 2296.65 3
2 0 13 53469.3 1877.95 3
2 0 -13 58423.4 1958.42 2
2 0 -14 13436.3 1101.8 7
-2 0 14 17039.8 1239.53 3
2 0 -14 14831.3 945.668 2
2 0 14 15774 1103.7 1
2 0 14 15332.8 962.748 3
-2 0 -14 16332.6 1251.17 22
2 0 -14 15605.3 984.034 22
-2 0 14 13691.1 1109.77 18
-2 0 -14 15026.6 1095.24 23
2 0 14 16759.3 911.987 19
-2 0 14 16396.6 997.933 21
2 0 -15 7876.74 865.212 7
-2 0 15 9168.51 947.546 3
2 0 -15 8504.89 732.525 2
2 0 15 7987.46 725.435 3
2 0 15 8483.68 670.389 19
-2 0 15 8119.41 848.859 18
-2 0 -15 8849.9 956.406 22
-2 0 15 7702.22 709.271 21
2 0 15 8415.06 644.188 18
2 0 -16 101861 3467.09 7
2 0 -16 114550 3158.46 2
-2 0 16 114559 3675.08 3
2 0 16 113320 3182.46 3
2 0 16 114140 2937.17 19
-2 0 16 101277 3450.53 18
-2 0 -16 112168 3827.18 22
-2 0 16 108405 3162.01 21
2 0 16 111110 2853.8 18
-2 0 -17 9097.24 807.637 7
2 0 -17 7975.94 882.367 7
2 0 17 9634.19 737.767 19
2 0 17 8579.06 687.295 18
-2 0 17 6944.44 831.644 18
-2 0 -17 7943.77 967.452 22
-2 0 17 7543.34 908.83 3
2 0 -17 9006.44 801.263 2
2 0 17 9121.81 803.166 3
2 0 -18 17973.4 1337.99 7
-2 0 -18 16631.5 1109.78 7
2 0 18 18716.1 1033.11 18
2 0 18 17197.6 1002.18 19
-2 0 18 15288.6 1248.43 18
-2 0 -19 158891 3989.19 7
2 0 19 151158 3648.35 18
-2 0 19 148028 4371.23 18
-2 0 -20 55288.8 2101.92 7
2 0 -20 55026.4 2413.6 7
2 0 20 55099.9 1912.85 18
-2 0 20 54254.5 2396.67 18
-2 0 -21 104.684 201.842 7
2 0 -21 273.146 273.893 7
-2 0 21 706.75 343.711 18
2 0 -22 52601.9 2240.31 7
-2 0 -22 53001.7 1997.75 7
-2 0 22 55748.2 2253.32 18
2 0 22 50346.4 1779.83 18
-2 0 -23 222.955 228.092 7
2 0 -23 801.499 301.425 7
2 0 23 511.349 204.257 18
-2 0 23 305.728 237.522 18
2 0 -24 6146.98 651.204 7
-2 0 -24 6411.97 614.865 7
-2 0 24 6693.31 649.993 18
2 0 24 5845.23 500.291 18
-2 0 24 7411.68 770.868 16
2 0 -25 935.811 250.654 7
2 0 -25 1066.64 268.515 12
-2 0 -25 1271.36 276.545 7
-2 0 25 1321.38 335.348 16
-2 0 -26 4313.22 429.684 7
-2 0 26 5097.37 504.026 16
2 1 -26 1459.65 266.419 12
-2 -1 -26 939.535 215.024 7
-2 1 26 933.073 244.038 16
-2 1 26 1271.79 234.054 18
2 1 -25 2530.15 421.29 12
-2 -1 -25 1963.32 337.341 7
-2 1 25 2619.75 397.447 18
-2 1 25 2445 397.749 16
2 1 -24 4115.73 518.211 7
-2 -1 -24 3938.59 476.401 7
-2 1 24 4891.18 588.634 18
2 1 -23 34033.5 1624.22 7
-2 -1 -23 32597.7 1498.39 7
-2 1 23 36150.2 1727.94 18
-2 -1 -22 860.164 326.412 7
2 1 -22 445.286 246.266 7
-2 1 22 1079.09 400.297 18
2 -1 22 1380.4 285.622 18
2 1 -21 173.934 225.533 7
-2 -1 -21 231.171 215.76 7
-2 1 21 111.548 254.773 18
2 -1 21 -50.5682 132.377 18
2 1 -20 43439.9 2063.68 7
-2 -1 -20 44470.1 1866.04 7
-2 1 20 42197.2 2117.02 18
2 -1 20 44723.9 1654.99 18
-2 -1 -19 54008.7 2058.28 7
2 1 -19 44903.7 2125.44 7
2 -1 19 47539.6 1792.62 19
2 -1 19 48843.9 1747.6 18
-2 1 19 49182.9 2314.65 18
2 1 -18 77330.6 2880.7 7
-2 -1 -18 84848.9 2714.44 7
2 -1 18 84670.4 2506.91 19
-2 1 18 84170.8 3115.24 18
2 -1 18 83698.5 2407.87 18
2 1 -17 72976.3 2790.12 7
-2 -1 -17 80199.2 2584.28 7
2 1 -17 80610.5 2570.29 2
2 -1 17 85934.5 2714.52 3
2 -1 17 79939.2 2408.82 19
2 1 -17 75648.5 2685.45 22
2 -1 17 79242.9 2295.4 18
-2 -1 -17 85990.7 3366.21 22
-2 1 17 77967.8 2989.01 18
-2 1 17 74673.7 2620.42 21
-2 -1 -16 23881.3 1282.75 7
2 1 -16 21621.7 1396.58 7
2 1 -16 24261.5 1269.1 2
2 -1 16 23591 1304.51 3
-2 1 16 21534.2 1463.44 18
2 -1 16 23608.3 1169.73 19
2 1 -16 21433.2 1289.41 22
2 -1 16 24905.6 1136.72 18
-2 -1 -16 24401.5 1675.27 22
-2 1 16 21772.1 1269.74 21
-2 -1 -16 26154.7 1188.22 13
2 1 -15 11720.1 995.929 7
2 1 -15 13546.4 918.133 2
2 -1 15 14516.6 987.296 3
2 -1 15 14897.8 900.624 19
-2 1 15 15342 1201.1 18
2 1 -15 13246 969.311 22
-2 -1 -15 13666.7 1206 22
-2 1 15 12511.5 927.575 21
2 -1 15 14151.7 1075.47 14
-2 -1 -15 15096.2 866.467 13
2 -1 15 13203.5 799.049 18
-2 1 14 51660.4 2153.98 3
2 -1 14 57035.7 2002.3 3
2 1 -14 55680.5 1960.02 2
-2 -1 -14 57516.2 2498.05 22
2 1 -14 55099.1 2028.47 22
-2 1 14 49258.8 2214.32 18
2 -1 14 56534.3 1857.42 19
-2 1 14 55248.5 2011.84 21
2 -1 14 60661.8 2271.26 14
-2 -1 -14 59061.7 1828.01 13
-2 -1 -13 15662.7 1202.16 22
-2 1 13 14036 912.8 21
2 1 -13 14404 900.916 2
-2 1 13 12922.1 978.248 3
2 -1 13 13984.1 894.813 3
-2 -1 -12 52820.7 2224.5 22
-2 1 12 54474 1857.7 21
-2 1 12 55065 2035.17 3
2 1 -12 50516.1 1772.93 2
2 -1 12 52553.5 1930.74 1
2 -1 12 52718.9 1789.81 3
-2 -1 -11 61669.7 2050.73 23
-2 -1 -11 61278.2 2323.99 22
-2 1 11 63103.5 1951.36 21
2 1 -11 60110.6 1908.44 2
-2 1 11 60583.5 2097.18 3
2 -1 11 60985.2 2065.87 1
2 -1 11 61152.4 1894.39 3
-2 -1 -10 147108 3535.18 23
-2 -1 -10 151630 3902.56 22
-2 1 10 148027 3384.3 21
2 1 -10 151567 3433.35 2
2 -1 10 144345 3601.11 1
-2 1 10 154279 3637.41 3
-2 -1 -9 97675.5 2594.48 23
-2 -1 -9 98466.7 2883.06 22
-2 1 9 95742.5 2434.17 21
2 1 -9 96653.8 2485.64 2
-2 1 9 103567 2679.13 3
2 -1 9 95315.2 2646.62 1
-2 -1 -8 13267.2 794.015 23
-2 -1 -8 13803.5 927.206 22
-2 1 8 14502.9 745.926 21
-2 1 8 13550 807.691 3
2 -1 8 12973.4 818.429 1
2 1 -8 14626 801.42 2
-2 -1 -7 85103.5 2309.21 23
-2 1 7 94093.9 2359.88 23
-2 1 7 88546.5 2118.79 21
-2 -1 -7 91121.9 2552.49 22
-2 1 7 89070.7 2348.95 3
2 -1 7 83384.7 2360.08 1
2 -1 7 89715.4 1788.84 5
2 1 -7 88183.2 2274 2
-2 -1 -6 55583.2 1654.58 23
-2 -1 -6 48823.8 1706.08 22
-2 1 6 48864 1563.56 23
-2 1 6 49411.6 1394.1 21
-2 1 6 53796.8 1616.3 3
2 1 -6 47688.6 1439.76 1
2 -1 6 48386.1 1625.08 1
2 -1 6 51370.3 1227.86 5
2 1 -6 48705.2 1556.91 2
-2 -1 -5 121128 2912.94 22
-2 1 5 115570 2767.96 23
-2 -1 -5 117749 2748.23 23
-2 1 5 118447 2488.1 21
-2 1 5 120630 2739.8 3
2 -1 5 121144 2390.63 5
2 -1 5 116957 2827.5 1
2 1 -5 119726 2644.91 1
2 1 -5 117296 2763.86 2
-2 -1 -4 362857 6651.71 23
-2 -1 -4 372941 6795.4 22
-2 1 4 371742 6314.91 21
-2 1 4 367200 6747.12 23
2 1 -4 352906 6550.54 1
2 -1 4 363826 6296.12 5
2 -1 4 382597 6035.17 4
2 -1 4 368010 6748.15 1
2 1 -4 360855 6656.94 2
-2 -1 -3 26295.5 1032.13 23
-2 1 3 27481.7 1119.99 23
-2 1 3 27927.9 883.603 21
2 -1 3 29043 747.865 4
2 -1 3 26944.4 1084.8 1
2 1 -3 27337.8 1080.07 2
-2 1 2 335.583 112.401 21
-2 1 2 111.842 147.042 23
-2 -1 -2 102.925 113.864 23
2 -1 2 442.731 96.0872 4
2 1 -2 248.289 144.94 1
2 -1 2 334.403 148.543 2
2 1 -2 570.077 200.17 2
-2 -1 -1 243707 4647.51 23
-2 1 1 249638 4834.16 23
-2 1 1 244312 4332.09 21
2 -1 1 251680 4738.99 1
2 1 -1 241566 4726.4 2
2 -1 1 237123 4572.16 2
2 -1 1 250129 4199.5 4
2 1 -1 242848 4702.32 1
2 1 -1 241480 4086.11 4
-2 -1 0 52207.6 1503.04 23
-2 1 0 54069.5 1638.77 23
-2 1 0 49919.6 1279.86 21
2 -1 0 53268.1 1555.63 1
2 1 0 49681.9 1537.64 2
2 1 0 52503.5 1579.75 1
2 -1 0 53042.5 1464.18 2
2 -1 0 50610 1236.57 4
2 1 0 50186 907.391 4
-2 -1 1 246089 4665.34 23
-2 1 -1 247473 4869.9 23
2 -1 -1 249678 4712.71 1
2 1 1 251376 4825.22 1
2 -1 -1 246823 4605.42 2
2 -1 -1 237762 4358.97 4
-2 -1 2 325.916 157.326 23
-2 1 -2 167.316 149.168 23
2 -1 -2 295.614 115.785 4
2 1 2 153.444 144.65 1
2 -1 -2 650.431 178.678 2
2 -1 -2 247.113 164.31 1
-2 1 -3 26718.9 1146.2 23
-2 -1 3 26945.5 1017.97 23
-2 1 -3 25721.8 945.156 22
-2 -1 3 24824.2 1092.59 3
2 1 3 27255.4 1131.82 1
2 -1 -3 25788.9 973.11 2
2 -1 -3 27145.1 1019.26 1
2 -1 -3 27751.8 982.791 4
-2 1 -4 368052 6648.64 22
-2 1 -4 374354 7010.8 23
-2 -1 4 386725 6712.98 23
-2 -1 4 375843 6002.29 21
-2 -1 4 385091 6990.65 3
2 1 4 376136 6948.38 1
2 -1 -4 370407 6649.56 1
2 -1 -4 364066 6616.98 2
2 -1 -4 372004 6668.25 4
-2 1 -5 115319 2940.48 23
-2 1 -5 116479 2728.52 22
-2 -1 5 122217 2230.95 21
-2 -1 5 122024 2977.65 3
2 1 5 119799 2932.45 1
2 -1 -5 119947 2684.96 1
2 -1 -5 116039 2650.55 2
2 -1 -5 119253 2773 4
-2 1 -6 51670.7 1642.15 22
-2 1 -6 51131.5 1751.24 23
-2 -1 6 50962.3 1235.09 21
-2 -1 6 51232.8 1759.56 3
2 1 6 53496.1 1775.09 1
2 -1 -6 50985.6 1524.9 2
-2 1 -7 85358.2 2470.49 23
-2 1 -7 84820.8 2361.34 22
-2 -1 7 88680.2 1930.95 21
2 -1 -7 88588.4 2220.35 2
2 1 7 87474.5 2501.23 1
-2 -1 7 88008.3 2491.29 3
-2 1 -8 14222.1 872.305 22
-2 -1 8 14199.3 650.519 21
2 -1 -8 15315.7 806.759 2
2 1 8 13794.2 901.895 1
-2 -1 8 14252.3 920.761 3
-2 1 -9 92354.4 2705.24 23
-2 1 -9 94887.9 2706.91 22
-2 -1 9 99450.9 2265.42 21
2 1 9 95816.5 2795.69 1
-2 -1 9 95043.8 2796.55 3
2 -1 -9 96304.2 2464.83 2
-2 1 -10 147296 3773.79 22
2 -1 -10 156657 3230.63 22
-2 1 -10 134273 3661.79 23
-2 -1 10 158685 3264.3 21
2 -1 -10 152501 3441.09 2
-2 -1 10 144653 3820.04 3
2 1 10 145596 3800.11 1
-2 1 -11 64772.8 2293.32 22
-2 1 -11 55813.9 2121.95 23
-2 -1 11 60128.4 1792.95 21
2 -1 -11 61600.8 1937.96 2
-2 -1 11 59943.3 2254.55 3
2 1 11 59708 2208.4 1
-2 1 -12 52207.1 2123.06 22
-2 1 -12 45539.6 1966.25 23
-2 -1 12 53820.3 1738.7 21
-2 -1 12 52136.8 2179.96 3
2 1 12 49766.6 2049.58 1
2 -1 -12 52745.7 1815.2 2
-2 1 -13 12570.2 1012.84 23
-2 1 -13 14616.7 1131.91 22
-2 -1 13 14414.8 877.999 21
-2 -1 13 13944 1141.55 3
2 -1 -13 14287 909.078 2
2 1 13 13954.1 1067.38 1
2 1 13 13854.9 874.535 3
2 -1 -14 52190.8 2327.61 7
2 1 14 50667.8 2185 1
-2 -1 14 53055 2374.76 3
2 -1 -14 56590.4 1978.7 2
2 1 14 56374.5 1944.05 3
-2 1 -14 50583.4 2193.42 23
2 1 14 54582.8 1743.2 19
-2 1 -14 57090.5 2393.39 22
-2 -1 14 55113.4 2347.3 20
-2 -1 14 49066.3 2158.82 18
2 -1 -15 12529.8 1133.95 7
2 1 15 12060.7 1050.36 1
-2 -1 15 13947.8 1208.93 3
2 -1 -15 15165.7 994.458 2
2 1 15 13936.5 944.267 3
2 1 15 15732.6 893.954 19
-2 -1 15 14443.6 1175.83 20
-2 -1 15 14485.7 1159.43 18
-2 1 -15 12578.6 1068.57 23
-2 1 -15 12858.3 1153.88 22
2 1 15 14315.9 865.906 18
2 -1 -16 21680.8 1522.04 7
-2 -1 16 24954.8 1647.27 3
2 -1 -16 24776.1 1319.15 2
2 1 16 24915.9 1310.36 3
2 1 16 23983.9 1145.82 19
-2 -1 16 22187.1 1463.3 18
-2 1 -16 22499.5 1483.77 23
-2 -1 16 24768.2 1584.94 20
-2 1 -16 24465.7 1619.22 22
2 1 16 24066.9 1168.72 18
2 -1 -17 76925.4 3028.93 7
2 1 17 76160.3 2302.19 19
-2 -1 17 79509.6 2936.87 18
2 1 17 82252.7 2400.98 18
-2 1 -17 80506.6 3202.18 22
-2 -1 17 81011.4 3027.75 20
-2 -1 17 79623.2 3152.66 3
2 -1 -17 82771.1 2686.53 2
2 1 17 84212.8 2645.69 3
-2 1 -18 88472.3 2738.44 7
2 -1 -18 77422.2 3080.98 7
-2 -1 18 82117 3022.09 18
-2 -1 18 85773.8 3093.91 20
2 1 18 80951.1 2434.66 18
2 -1 -19 47828.5 2343.12 7
-2 1 -19 52012.7 2010.56 7
-2 -1 19 49074.6 2232.97 18
2 1 19 48583 1809.24 18
-2 -1 19 51822.1 2321.24 20
-2 1 -20 43978.8 1832.95 7
-2 -1 20 43160 2045.84 18
2 1 20 41744 1662.92 18
-2 -1 20 46483.1 2130.1 20
-2 1 -21 -59.3654 216.895 7
2 -1 -21 91.3163 290.454 7
-2 -1 21 -656.111 287.806 20
2 1 21 74.0268 178.123 18
-2 -1 21 -48.7742 207.837 18
-2 1 -22 562.375 280.855 7
2 -1 -22 1060.96 392.751 7
-2 -1 22 1197.38 351.784 20
-2 -1 22 1211.45 341.997 18
2 1 22 898.002 268.766 18
2 -1 -23 34120.8 1722.66 7
-2 1 -23 35983 1537.73 7
2 1 23 33161.2 1376.65 18
-2 -1 23 36098.6 1593.18 18
-2 -1 23 38602.8 1856.33 16
2 -1 -23 34714 1697.85 12
2 -1 -24 4261.79 568.629 7
-2 1 -24 4522.57 517.809 7
2 1 24 4856.32 473.957 18
2 -1 -24 4310.49 528.395 12
-2 -1 24 3599.55 538.286 16
2 -1 -25 2191.2 365.358 7
-2 1 -25 2362.87 357.961 7
2 1 25 1738.14 272.298 18
-2 -1 25 2624.38 442.794 16
2 -1 -26 705.009 206.699 7
-2 1 -26 1278.44 250.426 7
-2 -1 26 1500.87 285.77 16
-2 -2 -26 2849.26 325.787 7
-2 2 26 3092.93 354.553 18
2 2 -26 3745.66 423.433 12
-2 2 26 2768.68 343.511 16
-2 -2 -25 123.365 130.617 7
-2 2 25 160.642 193.616 18
-2 -2 -24 8897.59 703.594 7
-2 2 24 7773.1 739.49 18
-2 -2 -23 20970.8 1169.3 7
-2 2 23 22316.8 1344.25 18
2 -2 22 960.748 286.686 9
-2 -2 -22 609.446 266.866 7
-2 2 22 1040.62 445.11 18
2 -2 21 7112.13 678.76 9
-2 -2 -21 7549.81 743.918 7
-2 2 21 6107.9 780.793 18
2 -2 20 17028.8 1102.33 9
-2 -2 -20 14995.1 1064.9 7
-2 2 20 13901.6 1209.3 18
-2 -2 -19 1569.35 375.973 7
2 -2 19 1571.52 362.476 19
-2 2 19 1622.46 500.34 18
-2 -2 -18 90586.7 2845.97 7
2 -2 18 91630.5 2674.98 19
-2 2 18 93780.1 3349.67 18
-2 -2 -17 158927 3992.81 7
2 2 -17 154421 3900.87 2
2 -2 17 165918 4167.21 3
2 -2 17 160950 3809.57 19
-2 2 17 143794 4420.48 18
2 2 -17 142013 4102.86 22
-2 -2 -17 152391 4841.8 22
-2 2 17 143276 4060.22 21
-2 -2 -17 161715 3700.61 13
2 -2 17 162783 4369.12 14
-2 -2 -16 20814.1 1186.74 7
2 2 -16 19991.5 1146.44 2
2 -2 16 21758.4 1252.02 3
-2 2 16 20122.6 1432.3 18
2 -2 16 22231.5 1153.53 19
2 2 -16 18257.8 1234.6 22
-2 -2 -16 17281.6 1453.86 22
-2 2 16 19496.5 1239.7 21
-2 -2 -16 21654.6 1082.62 13
2 -2 16 21042.7 1361.43 14
-2 -2 -15 27166.3 1354.35 7
2 2 -15 26959.6 1318.99 2
2 -2 15 29377.6 1448.11 3
2 -2 15 30828.3 1344.82 19
-2 2 15 25310.1 1583.22 18
-2 -2 -15 29524.8 1842.4 22
-2 2 15 25772.2 1406.53 21
-2 -2 -15 29569.6 1265.18 13
2 -2 15 29343.8 1594.34 14
-2 -2 -14 467.974 207.684 7
2 2 -14 305.409 162.145 2
2 -2 14 303.023 215.639 3
-2 2 14 125.83 169.974 21
2 -2 14 316.005 153.428 19
-2 -2 -14 774.728 363.998 22
-2 -2 -14 378.056 162.099 13
2 -2 14 326.875 213.537 14
2 -2 13 1298.48 305.074 3
2 2 -13 1692.67 330.4 2
-2 2 13 1576.98 347.364 21
2 -2 13 1046.44 255.343 19
-2 -2 -13 1038.56 375.436 22
-2 -2 -13 1364.3 278.831 13
2 -2 13 1479.55 377.278 14
-2 2 13 1016.38 310.042 18
-2 -2 -12 7902.27 858.057 22
-2 2 12 7604.16 684.519 21
2 2 -12 8498.33 664.762 2
2 -2 12 7911.18 654.442 3
-2 -2 -11 41037.1 1906.22 22
-2 2 11 40397.4 1586.21 21
2 2 -11 42225.8 1538.24 2
2 -2 11 40012.4 1494.23 3
-2 -2 -10 31736.4 1595.64 22
-2 2 10 30802.4 1305.25 21
2 2 -10 30803.4 1264.13 2
-2 2 10 31130 1283.32 3
2 -2 10 29455.9 1254.63 1
2 -2 10 31659.8 1255.09 3
-2 -2 -9 79399.7 2583.26 22
-2 2 9 76414.6 2163.39 21
-2 2 9 77527 2131.3 3
2 -2 9 75759.4 2066.25 3
2 -2 9 77937.6 2187.65 1
2 2 -9 76565.5 2157.98 2
-2 2 8 13780.8 791.809 23
-2 -2 -8 13066.1 923.456 22
-2 2 8 12523 733.298 21
-2 2 8 12352.5 702.59 3
2 -2 8 12790.6 517.953 5
2 -2 8 11604.2 734.346 1
2 2 -8 12358.5 751.34 2
-2 -2 -7 44864.3 1392.53 23
-2 2 7 45865.1 1529.18 23
-2 -2 -7 47057.8 1779.72 22
-2 2 7 44414.1 1436.88 21
-2 2 7 46690.6 1424.02 3
2 -2 7 44302.9 1144.5 5
2 2 -7 43903.9 1323.94 1
2 -2 7 41726.9 1462.33 1
2 2 -7 47285.6 1547.98 2
-2 -2 -6 78716.1 1979.79 23
-2 2 6 81681.8 2179.64 23
-2 -2 -6 81498 2381.07 22
-2 2 6 78842.2 2031.65 21
2 -2 6 80022.5 1761.24 5
2 -2 6 86071.2 1859.81 4
2 -2 6 78823.9 2130.68 1
2 2 -6 77562.5 2129.1 2
2 2 -6 76722.6 1947.19 1
-2 2 5 31908.2 1242.06 23
-2 2 5 30947 1102.35 21
-2 -2 -5 30158.4 1065.85 23
2 2 -5 29544.6 1080.92 1
2 -2 5 31472.3 964.868 5
2 -2 5 32209.6 958.766 4
2 2 -5 30450.4 1200.05 2
2 -2 5 32048.4 1194.72 1
-2 2 4 37257.3 1357.7 23
-2 -2 -4 35428.6 1146.28 23
-2 2 4 35947 1180.18 21
2 -2 4 33163.8 1220.5 1
2 2 -4 35967.6 1224.37 1
2 -2 4 36489.7 1081.78 5
2 -2 4 34828.8 1106.21 2
2 -2 4 36213.9 1033.46 4
2 2 -4 37563.3 1327.67 2
-2 2 3 630172 10896.4 23
-2 -2 -3 621491 10496.4 23
-2 2 3 616560 10525.8 21
2 -2 3 638074 10722 1
2 -2 3 640974 10443.1 5
2 -2 3 623845 10421.3 2
2 -2 3 664269 10322 4
2 2 -3 613237 10790.4 2
2 2 -3 629462 10642.6 1
-2 -2 -2 86542.3 2060.39 23
-2 2 2 91618.1 2369.96 23
-2 2 2 86578.9 2070.91 21
2 -2 2 88134.1 2202.19 1
2 -2 2 91240.8 2076.24 5
2 2 -2 89354.6 2311.57 2
2 -2 2 85913.2 2016.22 2
2 -2 2 91120.6 1949.51 4
2 2 -2 90935.8 2225.12 1
-2 2 1 5712.39 513.645 23
-2 -2 -1 5332.1 405.502 23
-2 2 1 5479.97 412.228 21
2 -2 1 6303.92 480.49 1
2 2 -1 4809.57 439.232 1
2 2 -1 4875.66 467.4 2
2 -2 1 5485.56 390.925 2
2 -2 1 5988.82 387.539 4
-2 2 0 295680 5781 23
-2 -2 0 300041 5382.04 23
2 2 0 299812 5649.12 1
2 -2 0 298240 5520.76 1
2 -2 0 296666 5291.25 2
2 -2 0 299813 5299.76 4
-2 2 -1 6206.33 553.019 23
-2 -2 1 6529.75 447.066 23
2 2 1 5835.47 499.856 1
2 -2 -1 6554.74 431.037 2
2 -2 -1 5479.14 412.778 4
2 -2 -1 6598.58 483.136 1
-2 -2 2 92455.8 2137.28 23
-2 2 -2 93642.1 2494.39 23
2 2 2 90719.3 2369.18 1
2 -2 -2 91621.8 2221.69 1
2 -2 -2 89955.8 2172.64 4
2 -2 -2 89773.7 2065.48 2
-2 2 -3 641393 11204.1 23
-2 2 -3 645376 10489.3 22
-2 -2 3 647808 11126.3 3
2 2 3 627163 11008.8 1
2 -2 -3 642817 10783.5 1
2 -2 -3 640145 10803.7 4
2 -2 -3 634193 10585.6 2
-2 2 -4 36818.6 1461.74 23
-2 2 -4 36296.2 1150.65 22
-2 -2 4 36152.1 1432.27 3
2 2 4 36448.7 1396.8 1
2 -2 -4 35912.7 1302.36 4
2 -2 -4 35087.3 1147.67 2
-2 2 -5 30162.5 1329.63 23
-2 2 -5 31030.1 1109.11 22
2 -2 -5 30625.4 1075.41 2
2 2 5 28933 1266.78 1
-2 -2 5 32651 1371.36 3
2 -2 -5 30807.1 1241.34 4
-2 2 -6 78447.8 2365.03 23
-2 2 -6 77346.9 2072.42 22
2 -2 -6 80555.5 2009.28 2
-2 -2 6 77470.2 2358.32 3
2 2 6 81007.6 2347.42 1
2 -2 -6 77219 2234.58 4
-2 2 -7 44013.6 1713.03 23
-2 2 -7 42533.8 1499.8 22
2 2 7 44258.5 1685.58 1
2 -2 -7 44010.9 1419.11 2
-2 -2 7 43724.8 1726.32 3
2 -2 -7 44796.4 1655.29 4
-2 2 -8 12614.2 896.828 23
-2 2 -8 13254.2 825.594 22
2 2 8 13213.6 661.342 21
2 2 8 12311.7 886.541 1
2 -2 -8 12084.8 716.873 2
-2 -2 8 12257.8 893.764 3
2 -2 -8 14338.9 931.989 4
-2 2 -9 69503.5 2363.25 23
-2 2 -9 72376.8 2261.18 22
2 2 9 77439.3 2010.85 21
2 2 9 72921.5 2437.12 1
-2 -2 9 72534.5 2473.24 3
2 -2 -9 77167.7 2114.74 2
2 -2 -9 74987.8 2435.55 4
-2 2 -10 32433.4 1489.09 22
-2 2 -10 31385.2 1536.99 23
2 2 10 33121.3 1257.48 21
2 2 10 31107.1 1546.24 1
-2 -2 10 29926.8 1539.14 3
2 -2 -10 30222.2 1265.77 2
2 -2 -10 32531 1568.5 4
-2 2 -11 38082.3 1805.08 23
-2 2 -11 42002.3 1793.02 22
2 2 11 41164.1 1509.2 21
2 2 11 41827.6 1867.39 1
-2 -2 11 39377 1871.21 3
2 -2 -11 41210.8 1535.52 2
2 -2 -11 43063.8 1900.53 4
-2 2 -12 7633.81 821.487 23
-2 2 -12 7900.04 788.976 22
2 2 12 8254.97 825.7 1
-2 -2 12 9238.01 922.913 3
2 -2 -12 8454.91 680.84 2
2 -2 -12 9122.68 901.05 4
2 -2 -13 1267.02 409.522 7
-2 2 -13 1525.81 397.703 23
-2 2 -13 1032.76 323.528 22
-2 -2 13 1077.91 362.724 20
2 -2 -13 774.945 342.312 4
2 2 13 1834.53 430.061 1
-2 -2 13 1918.25 474.834 3
2 -2 -13 1280.37 296.365 2
2 2 13 1188.28 273.846 3
2 -2 -14 44.1455 219.461 10
2 -2 -14 399.956 260.513 7
2 -2 -14 354.703 211.959 4
-2 -2 14 897.685 348.301 3
2 2 14 604.692 269.652 1
2 -2 -14 389.807 217.504 2
2 2 14 340.458 182.404 3
-2 2 -14 245.056 232.095 23
-2 2 -14 525.797 225.233 22
-2 -2 14 295.205 306.252 20
2 -2 -15 31344 1670.24 10
2 -2 -15 24828.6 1665.52 7
2 2 15 25320.4 1289.18 3
2 2 15 24210.2 1549.86 1
-2 -2 15 26489.5 1717.01 3
2 -2 -15 26910.8 1373.88 2
2 -2 -15 25545.8 1687.73 4
2 2 15 25420.9 1130.66 19
-2 -2 15 25846.3 1520.05 18
-2 2 -15 23670.2 1540.45 22
-2 -2 15 26592.4 1671.32 20
-2 2 -15 24134 1557.84 23
2 2 15 28959.7 1264.15 18
2 -2 -16 19638.8 1494.7 7
-2 -2 16 21094.2 1378.83 18
-2 2 -16 17251.3 1337.38 23
-2 -2 16 20266.3 1451.76 20
-2 2 -16 22621.9 1534.4 22
2 2 16 19041 1048.13 18
2 2 16 19148.3 982.362 19
2 2 16 18634.3 1383.46 1
-2 -2 16 20060.6 1516.01 3
2 -2 -16 17478.4 1142.8 2
2 2 16 19284.8 1136.45 3
2 -2 -16 20207 1537 4
2 -2 -17 148696 4620.79 7
-2 -2 17 149702 4287.72 18
-2 2 -17 139404 4441.63 23
-2 2 -17 155295 4637.96 22
-2 -2 17 157143 4588.47 20
2 2 17 160403 3770.63 18
2 2 17 152069 4504.52 1
-2 -2 17 154587 4764.73 3
2 -2 -17 155849 4054.73 2
2 2 17 152454 3892.86 3
2 -2 -17 167492 4951.73 4
2 -2 -18 84384.8 3309.73 7
-2 -2 18 87643.2 3062.64 18
2 2 18 90043.4 2641.01 18
-2 -2 18 92740.3 3338.76 20
-2 2 -19 1482.89 377.921 7
2 -2 -19 1153.23 443.649 7
-2 -2 19 929.93 425.834 20
2 2 19 1278.01 311.658 18
-2 2 -20 14863.6 1032.69 7
2 -2 -20 14133.8 1252.82 7
2 2 20 15783.1 996.498 18
-2 -2 20 16424.4 1280.49 20
-2 -2 20 16114.2 1349.99 16
-2 2 -21 8484.06 756.141 7
2 -2 -21 7023.26 853.52 7
-2 -2 21 8051.41 879.407 20
2 2 21 7031.67 665.033 18
-2 -2 21 6527.9 850.821 16
2 -2 -21 7383.69 831.508 12
2 -2 -22 1337.46 390.78 12
-2 2 -22 1348.74 353.062 7
2 -2 -22 2080.35 489.171 7
-2 -2 22 985.481 389.844 20
-2 -2 22 1314.13 441.344 16
2 2 22 869.34 265.031 18
-2 2 -23 23540.8 1194.22 7
2 -2 -23 21945.8 1373.28 7
-2 -2 23 22690.1 1279.22 20
2 2 23 19378.4 1038.82 18
-2 -2 23 24336.9 1444.58 16
2 -2 -24 9167.42 825.999 7
-2 2 -24 9154.58 704.476 7
2 2 24 8265.34 631 18
-2 -2 24 9940.82 742.772 20
-2 -2 24 9110.16 817.425 16
2 -2 -25 1.1578 197.536 7
-2 2 -25 98.5423 150.783 7
2 2 25 86.3364 139.627 18
-2 -2 25 -23.263 194.966 16
2 -2 -26 3440.16 404.065 7
-2 2 -26 3300.28 364.066 7
2 2 26 3373.19 317.111 18
-2 -2 26 3739.09 415.47 16
2 -3 26 12606.5 689.145 20
-2 3 26 13709.7 717.465 18
2 3 -26 15164.4 818.011 12
-2 -3 -25 15962.3 828.651 7
-2 3 25 18938 998.717 18
-2 -3 -24 812.766 265.529 7
-2 3 24 783.244 288.571 18
-2 -3 -23 3781.54 492.083 7
2 -3 23 3507.68 400.352 9
-2 3 23 3836.61 559.117 18
2 -3 22 11045.2 771.547 9
-2 -3 -22 11811.4 888.151 7
-2 3 22 11067.1 983.182 18
2 -3 21 5919.06 625.382 9
-2 -3 -21 6054.75 662.965 7
-2 3 21 6713.14 816.694 18
2 -3 20 15758.6 1070.93 9
-2 -3 -20 17155.1 1128.77 7
-2 3 20 16157.6 1285.23 18
2 -3 19 117762 3420.79 9
-2 -3 -19 117644 3366.86 7
2 -3 19 112874 3094.67 19
-2 3 19 117172 3843.22 18
-2 -3 -18 154247 4031.59 7
2 -3 18 158281 3851.08 19
-2 3 18 162724 4710.83 18
2 -3 18 163157 4394.29 14
-2 -3 -17 51279.1 2030.08 7
2 -3 17 53359.9 1915.31 19
-2 3 17 52018 2421.23 18
2 -3 17 53231.6 2265.19 14
-2 -3 -16 113237 3329.34 7
2 3 -16 128988 3353.6 2
2 -3 16 133723 3611.87 3
2 -3 16 129843 3297.3 19
-2 -3 -16 130399 4347.34 22
-2 3 16 122348 3949.13 18
2 3 -16 121909 3669.68 22
-2 3 16 123878 3639.31 21
2 -3 16 127512 3777.75 14
-2 -3 -16 130248 3211.07 13
-2 -3 -15 91838.7 2739.31 7
2 3 -15 94092.3 2707.27 2
2 -3 15 90648.3 2844.34 3
2 -3 15 95150.3 2666.65 19
-2 3 15 88753.9 3219.53 18
-2 -3 -15 94021.6 3532.08 22
-2 3 15 88876.8 2947.99 21
-2 -3 -15 95093.7 2587.94 13
2 -3 15 89737.9 3048.5 14
-2 -3 -14 38005.3 1613.8 7
2 3 -14 42689.4 1660.54 2
2 -3 14 41812.9 1723.96 3
2 -3 14 41839.8 1609.5 19
-2 3 14 40757.5 2041.35 18
-2 -3 -14 43138.4 2233.19 22
-2 3 14 40101.6 1807.12 21
2 -3 14 42280.8 1964.53 14
-2 -3 -14 42749.2 1576.52 13
2 3 -13 36448.7 1479.91 2
2 -3 13 36053.4 1522.26 3
2 -3 13 36826.7 1446.22 19
-2 3 13 33123.9 1797.98 18
-2 -3 -13 28646 1775.67 22
-2 3 13 32110.9 1561.89 21
2 -3 13 35461 1725.1 14
-2 -3 -13 32914.2 1350.61 13
2 3 -12 56719.2 1867.18 2
2 -3 12 52506.5 1852.31 3
2 -3 12 52603.3 1758.53 19
-2 3 12 48613.5 2191.51 18
-2 -3 -12 57285.7 2423.99 22
-2 3 12 50813.4 1963.37 21
2 -3 12 54920.7 1867.63 17
2 -3 12 55936.3 2178.24 14
-2 -3 -12 53433.4 1736.41 13
-2 -3 -11 113530 3500.65 22
-2 3 11 105496 2964.05 21
2 3 -11 109025 2794.72 2
2 -3 11 105023 2777.65 3
-2 -3 -10 175829 4572.34 22
-2 3 10 181524 4091.33 21
2 3 -10 180053 3945.96 2
2 -3 10 174057 3876.7 3
-2 -3 -9 13503.6 1009.62 22
-2 3 9 12155.7 801.034 21
2 -3 9 11740.1 548.099 5
2 -3 9 11145.1 709.359 3
2 3 -9 12270.5 773.854 2
-2 3 8 187935 3970.58 23
-2 -3 -8 188801 4460.97 22
-2 3 8 176153 3955.74 21
2 -3 8 175658 3763.78 3
2 -3 8 182912 3446.35 5
2 3 -8 182415 3952.31 2
-2 3 7 16151.8 881.843 23
-2 3 7 15962.1 867.389 21
2 -3 7 17064.2 813.637 1
2 3 -7 17002.9 744.083 1
2 -3 7 16137.4 667.467 5
2 -3 7 15902.4 779.225 3
2 -3 7 17966.1 814.331 4
2 3 -7 17169.8 914.141 2
-2 3 6 28959.7 1212.83 23
-2 3 6 27807.8 1161.63 21
2 -3 6 28961.8 1101.59 1
2 -3 6 29674.3 961.319 5
2 -3 6 30819 1069.2 4
2 3 -6 28161.7 1019.95 1
2 3 -6 27986.5 1189.19 2
-2 3 5 524260 9296.23 23
-2 3 5 521765 9149.58 21
2 3 -5 521683 8948.64 1
2 -3 5 520900 8999.57 1
2 -3 5 520162 8726.12 5
2 -3 5 527172 8899.64 4
2 3 -5 526236 9246.86 2
-2 3 4 174176 3885.68 23
-2 3 4 173241 3746.29 21
2 3 -4 177266 3660.29 1
2 -3 4 181154 3511.98 5
2 -3 4 178789 3671.79 1
2 -3 4 188842 3612.32 4
2 3 -4 183921 3932.75 2
-2 -3 -3 260007 4509.87 23
-2 3 3 254759 5143.72 23
-2 3 3 250605 4935.45 21
2 3 -3 259171 5133.54 2
2 -3 3 246378 4819.36 1
2 -3 3 256168 4768 4
2 -3 3 250458 4446.39 2
2 3 -3 249162 4896.11 1
-2 3 2 108907 2803.67 23
-2 -3 -2 115969 2296.21 23
-2 3 2 107899 2625.24 21
2 -3 2 110617 2470.02 5
2 3 -2 110855 2787.24 2
2 3 -2 107471 2620.23 1
2 -3 2 112751 2492.41 4
2 -3 2 110330 2217.11 2
2 -3 2 109674 2535.46 1
-2 -3 -1 40628.1 1120.63 23
-2 3 1 35550.8 1281.09 21
-2 3 1 36378.2 1430.26 23
2 -3 1 36858.6 1231.86 1
2 3 -1 35625.1 1309.75 1
2 -3 1 37293.1 1213.79 5
2 3 -1 37101.9 1404.95 2
2 -3 1 36278.8 1207.01 4
2 -3 1 36518.2 1007.99 2
-2 3 0 179862 4054.49 23
2 -3 0 183350 3740.19 1
2 3 0 193655 3960.67 1
2 -3 0 188669 3734.28 5
2 -3 0 185381 3740.72 4
2 -3 0 179835 3404.65 2
-2 3 -1 36540.8 1470.02 23
2 3 1 37282.5 1380.55 1
2 -3 -1 38363.9 1282.62 5
2 -3 -1 38084.2 1262.64 1
2 -3 -1 36544 1277.86 4
2 -3 -1 37149.9 1057.78 2
-2 3 -2 113669 2949.04 23
2 -3 -2 110934 2317.06 2
2 3 2 108465 2756.81 1
2 -3 -2 109002 2595.92 5
2 -3 -2 111152 2668.46 4
-2 3 -3 262261 5346.54 23
-2 3 -3 249607 4422.87 22
2 -3 -3 252197 4574.23 2
-2 -3 3 254003 5248.13 3
2 3 3 246686 5082.79 1
2 -3 -3 247666 4886.82 5
2 -3 -3 251725 5021.67 4
-2 3 -4 181112 4174.77 23
-2 3 -4 181010 3430.4 22
2 -3 -4 179130 3489.54 2
-2 -3 4 181733 4132.59 3
2 3 4 175113 3980 1
2 -3 -4 171016 3725.81 5
2 -3 -4 171148 3856.87 4
-2 3 -5 515239 9653.79 23
-2 3 -5 521703 8881.91 22
2 3 5 515839 9469.3 1
-2 -3 5 543028 9712.38 3
2 -3 -5 515019 8864.61 2
2 -3 -5 531162 9425.18 4
-2 3 -6 29032 1408.04 23
-2 3 -6 30381.4 1130.16 22
2 3 6 29383.5 1358.07 1
-2 -3 6 31379.4 1448.76 3
2 -3 -6 29035.5 1075.39 2
2 -3 -6 29986.1 1346.43 4
-2 3 -7 15438.8 1032.05 23
-2 3 -7 15582 830.092 22
2 3 7 16130.3 1025.04 1
2 -3 -7 16210.9 803.514 2
-2 -3 7 16528.1 1070.59 3
2 -3 -7 16742.8 1025.89 4
-2 3 -8 183949 4041.66 22
-2 3 -8 174350 4386.35 23
-2 -3 8 191790 4564.96 3
2 -3 -8 183605 3844.8 2
2 -3 -8 182970 4369.65 4
2 3 8 176056 4359.76 1
-2 3 -9 11095.1 918.108 23
-2 3 -9 13841.7 877.926 22
2 3 9 11827.1 675.958 21
2 -3 -9 11899.2 741.207 2
-2 -3 9 11557.9 944.05 3
2 -3 -9 10792.2 730.867 5
2 -3 -9 10956.4 897.131 4
2 3 9 11278 916.36 1
-2 3 -10 185846 4307.65 22
-2 3 -10 167193 4490.49 23
2 3 10 183655 3814.46 21
-2 -3 10 175027 4570.04 3
2 -3 -10 182676 3939.34 2
2 -3 -10 169383 3890.74 5
2 3 10 174113 4518.64 1
2 -3 -10 176581 4519.72 4
-2 3 -11 97635.1 3278.65 23
-2 3 -11 106880 3109.69 22
2 3 11 106834 2714.38 21
-2 -3 11 102001 3359.12 3
2 -3 -11 106693 2795.91 2
2 -3 -11 104441 2726.44 5
2 3 11 108323 3351.31 1
2 -3 -11 111008 3446.26 4
2 -3 -12 51006.5 2342.79 7
-2 3 -12 48110.4 2249.52 23
-2 3 -12 52240.1 2100.92 22
-2 -3 12 49374.8 2249.8 20
2 3 12 54134.2 1832.14 21
2 -3 -12 50250.5 1817.87 2
-2 -3 12 53965.3 2379.66 3
2 -3 -12 53202.5 1755.62 5
2 -3 -12 51927.3 2293.21 4
2 3 12 51127.2 2239.44 1
2 -3 -13 36256.4 1762.1 10
2 -3 -13 33874.2 1919.54 7
2 3 13 33291.7 1810.38 1
-2 -3 13 35502.7 1979.85 3
2 -3 -13 35628.2 1529.19 2
2 3 13 33105.3 1395.79 3
2 -3 -13 35675 1933.1 4
-2 3 -13 32215.5 1851.23 23
-2 3 -13 33631.4 1710.41 22
-2 -3 13 35846.9 1937.31 20
2 -3 -14 48017.1 2116.14 10
2 -3 -14 40244.9 2188.46 7
2 3 14 41264.1 2086.35 1
-2 -3 14 47350.2 2344.69 3
2 -3 -14 41528.2 1747.19 2
2 3 14 42213.9 1656.09 3
2 -3 -14 42137.9 2184.85 4
-2 3 -14 43902.9 2046.56 22
-2 -3 14 45061.6 2225.69 20
-2 3 -14 41005.8 2143.93 23
-2 -3 14 43831.1 2207.61 16
2 3 14 44395.3 1623.86 18
2 -3 -15 100413 3251.28 10
2 -3 -15 95261.1 3532.27 7
2 3 15 85756.4 3250.29 1
-2 -3 15 94515.9 3524.88 3
2 -3 -15 93509.8 2852.34 2
2 3 15 89036 2657.41 3
2 -3 -15 93031 3471.17 4
-2 3 -15 89973.4 3343.21 23
-2 3 -15 91483.6 3205.36 22
-2 -3 15 92257.5 3406.67 20
2 3 15 94084.4 2611.58 18
-2 -3 15 96170.5 3476.37 16
2 -3 -16 120115 4171.93 7
2 3 16 118885 3990.82 1
-2 -3 16 127195 4260.64 3
2 -3 -16 128125 3566.61 2
2 3 16 120802 3308.55 3
2 -3 -16 132399 4351.2 4
2 3 16 131459 3284.88 18
-2 3 -16 114814 3974.7 23
-2 3 -16 126361 3979.69 22
-2 -3 16 125877 4105.23 20
-2 -3 16 128526 4211.6 16
2 -3 -17 58790.5 2475.56 10
2 -3 -17 49639.6 2522.44 7
-2 -3 17 51438 2470.92 20
2 3 17 52558.6 1910.52 18
-2 -3 17 53854.6 2567.56 16
2 -3 -18 158039 4866.78 7
-2 -3 18 168196 4851.88 20
2 3 18 158535 3879.12 18
-2 -3 18 163788 4921.07 16
-2 3 -19 127384 3436.88 7
2 -3 -19 119072 4081.94 7
2 3 19 115270 3178.47 18
-2 -3 19 115373 3877.81 20
-2 -3 19 130115 4178.01 16
-2 3 -20 19230.6 1150.29 7
2 -3 -20 16837.1 1386.28 7
-2 -3 20 18513.6 1383.2 20
2 3 20 16555.5 1036.79 18
-2 -3 20 16868.7 1376.86 16
-2 3 -21 7404.24 706.415 7
2 -3 -21 6377.04 840.909 7
-2 -3 21 7334.79 865.409 20
2 3 21 8155.01 708.085 18
-2 -3 21 7052.25 870.735 16
2 -3 -22 12921.7 1126.45 7
-2 3 -22 12544.6 880.302 7
2 3 22 11903.3 838.312 18
-2 -3 22 12038.3 1022.41 20
-2 -3 22 11822.6 1041.54 16
2 -3 -23 3623.01 572.989 7
-2 3 -23 4278.69 503.309 7
2 3 23 3999.61 475.652 18
-2 -3 23 3983.61 556.518 20
-2 -3 23 3915.24 575.811 16
-2 3 -24 1101.23 270.887 7
2 -3 -24 1032.25 326.209 7
-2 -3 24 1054.45 281.183 20
-2 -3 24 712.98 281.555 16
2 3 24 1197.96 265.249 18
2 -3 -25 19633.8 1084.98 7
-2 3 -25 19571 920.915 7
-2 -3 25 17018.6 860.184 20
2 3 25 17242.1 835.947 18
-2 -3 25 18689 1011.4 16
2 3 26 13374.2 627.331 18
-2 -3 26 13529.8 728.111 16
-2 -4 -25 13161.6 635.706 8
2 -4 25 14715.7 797.073 20
-2 4 25 13533.1 791.837 18
-2 4 24 1261.55 306.505 18
2 -4 23 737.645 200.779 9
-2 -4 -23 612.952 229.323 7
-2 4 23 1003.29 345.831 18
-2 -4 -22 11192.4 817.521 7
2 -4 22 11108.1 781.634 9
-2 4 22 11747.9 975.38 18
2 -4 21 32264.7 1457.46 9
-2 -4 -21 29247.5 1430.84 7
-2 4 21 30994.3 1705.57 18
2 -4 20 680.796 275.536 9
-2 -4 -20 611.746 270.272 7
-2 4 20 870.81 411.772 18
2 -4 19 4835.77 641.353 9
-2 -4 -19 5360.4 627.316 7
2 -4 19 4626.27 540.247 19
-2 4 19 5536.84 780.994 18
2 -4 18 63114.5 2393.77 9
-2 -4 -18 56166.8 2161.36 7
2 -4 18 57852.5 2029.44 19
-2 4 18 61216.2 2630.13 18
2 -4 18 61748.6 2402.43 14
2 -4 17 36551.3 1802.71 9
-2 -4 -17 35103.7 1638.87 7
2 -4 17 39703.1 1608.94 19
-2 4 17 35688 1986.3 18
2 -4 17 38592.8 1884.3 14
2 -4 16 141699 3966.63 9
-2 -4 -16 133542 3627.61 7
2 -4 16 140046 3506.31 19
-2 4 16 137957 4262.48 18
-2 4 16 134127 3928.45 21
2 -4 16 143266 4070.82 14
-2 -4 -16 139898 3435.32 13
-2 -4 -15 25865.8 1240.09 10
2 -4 15 23730.9 1339.64 3
2 -4 15 23528.1 1202.7 19
-2 4 15 22521.8 1542.98 18
-2 4 15 19254.1 1298.61 21
-2 -4 -15 21410.3 1117.9 13
2 -4 15 23127.8 1450.78 14
-2 -4 -14 12438.3 850.754 10
2 4 -14 12615 863.064 2
2 -4 14 12482.8 935.025 3
2 -4 14 14180 900.838 19
-2 4 14 14962 1221.73 18
-2 4 14 13066 1037.95 21
-2 -4 -14 13301.6 855.687 13
2 -4 14 14752.5 1133.04 14
-2 -4 -13 30540.6 1339.49 10
2 4 -13 29040.6 1309.91 2
2 -4 13 28217.8 1378.4 3
-2 4 13 28570.8 1687.03 18
2 -4 13 27996.1 1282.63 19
-2 4 13 25104.3 1431.57 21
2 -4 13 30039.9 1624.38 14
-2 -4 -13 28816.2 1273.56 13
-2 -4 -12 6096.73 567.729 10
2 4 -12 5985.71 566.648 2
2 -4 12 5193.6 559.552 3
2 -4 12 5145.7 520.778 19
-2 4 12 3907.41 556.692 21
2 -4 12 5840.5 712.528 14
-2 -4 -12 4931.1 508.092 13
2 -4 12 5780.07 576.488 17
-2 4 12 5562.52 732.133 18
2 4 -11 52087.3 1762.85 2
2 -4 11 48613.8 1765.02 3
-2 4 11 47042.6 2098.75 18
2 -4 11 50521.9 1708.57 19
-2 4 11 48966.5 1923.72 21
2 -4 11 51118.1 2086.04 14
-2 -4 -11 49906.3 1687.22 13
2 -4 11 52529.2 1833.35 17
-2 4 10 343581 7016.74 21
2 4 -10 363139 6767.44 2
2 -4 10 348176 6704.87 3
-2 4 9 12323.7 865.986 21
2 -4 9 12679 638.303 5
2 -4 9 12483.6 772.852 3
2 4 -9 13113.9 811.387 2
-2 4 8 158658 3582.03 23
-2 4 8 156596 3759.84 21
2 -4 8 158435 3227.93 5
2 -4 8 157381 3464.09 3
2 -4 8 159040 3561.32 4
2 4 -8 161170 3629.42 2
-2 4 7 220863 4656.42 23
-2 4 7 219952 4785.65 21
2 -4 7 223232 4244.68 5
2 -4 7 220148 4403.6 3
2 -4 7 224746 4545.06 4
2 4 -7 233127 4728.58 2
-2 4 6 44892.4 1621.29 23
-2 4 6 46145.7 1672.99 21
2 -4 6 49491.3 1406.6 5
2 -4 6 46821.3 1421.23 3
2 -4 6 46401.3 1522.26 4
2 4 -6 47753.7 1647.75 2
-2 4 5 64119.3 2002.05 21
-2 4 5 63655.1 1997.75 23
2 4 -5 65099.5 1745.57 1
2 -4 5 65057.9 1708.1 1
2 -4 5 63276.9 1687.39 5
2 -4 5 63271.9 1672.32 3
2 -4 5 64902.5 1854.41 4
2 4 -5 64114.6 1996.34 2
-2 4 4 58625.2 1936.19 23
-2 4 4 61118.6 1928.83 21
2 4 -4 60257.4 1728.41 1
2 -4 4 58615.9 1623.9 5
2 -4 4 61362.4 1564.8 3
2 -4 4 62983.1 1666.66 1
2 -4 4 60891.2 1779.62 4
2 4 -4 62945.3 1972.93 2
-2 4 3 102732 2735.77 23
-2 4 3 101152 2652.21 21
2 -4 3 100590 2361.26 5
2 -4 3 103037 2187.88 3
2 4 -3 106749 2776.53 2
2 -4 3 102023 2519.63 4
2 4 -3 104197 2538.77 1
-2 4 2 181212 4115.52 23
-2 4 2 180290 4014.83 21
2 -4 2 183308 3706.6 5
2 -4 2 186453 3382.18 3
2 4 -2 185901 3918.59 1
2 4 -2 193818 4212.68 2
2 -4 2 177955 3857.37 4
-2 4 1 99384.9 2604.73 21
-2 4 1 101386 2743.77 23
2 4 -1 98231.2 2551.82 1
2 -4 1 97416.6 2366.71 5
2 4 -1 104669 2767.35 2
2 -4 1 95760.9 2470.26 4
-2 4 0 385.178 218.186 23
-2 4 0 126.75 160.205 21
2 -4 0 450.272 184.439 4
2 4 0 571.181 212.687 1
2 -4 0 664.569 190.994 5
-2 4 -1 101285 2824.87 23
2 4 1 102306 2677.28 1
2 -4 -1 96237.7 2407.5 5
2 -4 -1 100024 2584.54 4
-2 4 -2 188771 4367.87 23
2 -4 -2 192130 3484.68 2
2 4 2 187566 4154.3 1
2 -4 -2 182046 3872.48 5
2 -4 -2 182186 4062.2 4
-2 4 -3 103558 2958.99 23
-2 -4 3 103070 2895.8 3
2 4 3 100056 2754.76 1
2 -4 -3 106396 2245.45 2
2 -4 -3 100594 2524.29 5
2 -4 -3 102492 2749.15 4
-2 4 -4 66924.6 2265.41 23
-2 -4 4 62498 2165.75 3
2 -4 -4 61772.7 1610.27 2
2 4 4 63276.2 2065.83 1
2 -4 -4 62279.4 1851.9 5
2 -4 -4 60590.8 2031.74 4
-2 4 -5 65519.9 2302 23
2 4 5 61720.1 2108.88 1
-2 -4 5 61550.8 2223.44 3
2 -4 -5 66433.9 1715.24 2
2 -4 -5 62890.3 1889.59 5
2 -4 -5 64415.2 2138.9 4
-2 4 -6 45952.5 1923.54 23
2 4 6 46169.6 1818.48 1
-2 -4 6 46022.6 1913.94 3
2 -4 -6 48679.4 1450.95 2
2 -4 -6 47499.2 1599.67 5
2 -4 -6 43214 1775.24 4
-2 4 -7 218803 5193.1 23
-2 4 -7 214543 4428.04 22
-2 -4 7 227358 5233.58 3
2 -4 -7 221389 4376.56 2
2 -4 -7 224261 4586.07 5
2 -4 -7 219320 5039.11 4
2 4 7 210849 4967.45 1
-2 4 -8 151483 4129.35 23
-2 4 -8 159643 3608.66 22
2 -4 -8 156465 3441.06 2
-2 -4 8 159436 4207.41 3
2 -4 -8 155200 3544.75 5
2 -4 -8 153956 4057.23 4
2 4 8 151810 4039.86 1
-2 4 -9 10926.2 966.983 23
-2 4 -9 11819.3 833.606 22
-2 -4 9 12985.3 1054.27 3
2 -4 -9 13595.1 792.721 2
2 -4 -9 13093.7 804.901 5
2 -4 -9 11760.4 988.761 4
2 4 9 12145.3 1009.3 1
-2 4 -10 317813 7354.71 23
-2 4 -10 365553 7033.18 22
-2 -4 10 351630 7587.92 3
2 -4 -10 344401 6599.57 2
2 -4 -10 332875 6506.65 5
2 4 10 339396 7494.93 1
2 -4 -10 353067 7479.81 4
2 -4 -11 43718.9 1982.78 10
2 -4 -11 47274 2277.86 7
-2 -4 11 48451.2 2255.85 3
2 -4 -11 48402.3 1744.44 2
2 -4 -11 50148.9 1670.2 5
2 4 11 49745 2228.6 1
2 -4 -11 49280.6 2206.55 4
-2 4 -11 45635.6 2177.33 23
-2 4 -11 49296.5 1957.38 22
-2 -4 11 46611.8 2193.3 20
2 -4 -12 5503.13 719.97 10
2 -4 -12 4165.2 675.798 7
2 -4 -12 5490.85 577.606 2
-2 -4 12 4705.47 736.483 3
2 -4 -12 5859.82 782.722 4
2 4 12 4687.29 693.831 1
-2 4 -12 4301.19 682.996 23
-2 4 -12 6478.8 703.295 22
-2 -4 12 6280.75 818.348 20
-2 -4 12 4595.86 712.941 16
2 -4 -13 29631.5 1634.48 10
2 -4 -13 27205.1 1787.78 7
-2 -4 13 27662.7 1786.11 3
2 -4 -13 28627.9 1389.88 2
2 4 13 25864.8 1215.5 3
2 -4 -13 27151.4 1742.41 4
2 4 13 28601.7 1725.98 1
-2 4 -13 25505.3 1690.34 23
-2 4 -13 29529.3 1591.71 22
-2 -4 13 28326 1768.85 20
-2 -4 13 28193.4 1754.41 16
2 4 13 29176.1 1272.47 18
2 -4 -14 13255.8 1285.18 7
2 -4 -14 15337.1 1194.6 10
-2 -4 14 14140.9 1308.56 3
2 -4 -14 12587.1 937.361 2
2 4 14 13114.1 871.932 3
2 -4 -14 12279.8 1188.54 4
2 4 14 13039.6 1197.71 1
-2 4 -14 11029.6 1131.93 23
-2 -4 14 13232 1235.79 20
-2 4 -14 12492.4 1056.35 22
2 4 14 14095.7 877.372 18
-2 -4 14 13890.9 1243.7 16
2 -4 -15 22883.8 1699.32 7
2 -4 -15 25172.4 1572.58 10
2 4 15 23309.8 1618.29 1
-2 -4 15 24846.9 1760.06 3
2 -4 -15 25332.4 1747.2 4
-2 4 -15 22212.4 1620.29 23
-2 4 -15 25211.8 1542.23 22
-2 -4 15 22056.1 1628.19 20
2 4 15 23141.3 1172.31 18
-2 -4 15 25541.3 1738.94 16
2 -4 -16 137984 4582.16 7
2 4 16 135254 4373.38 1
-2 4 -16 135403 4190.02 22
-2 -4 16 139041 4467.1 20
2 4 16 141618 3515.94 18
-2 -4 16 146170 4599.95 16
2 -4 -17 40172.6 2017.64 10
2 -4 -17 37130 2199.07 7
-2 -4 17 38363.6 2162.22 20
2 4 17 39170.4 1609.66 18
-2 -4 17 38305.9 2143.82 16
2 -4 -18 57611.4 2759.46 7
2 -4 -18 66447.4 2635.19 10
2 4 18 61944.2 2121.15 18
-2 -4 18 59297.5 2683.88 20
-2 -4 18 63908.3 2815.23 16
2 -4 -19 6372.61 774.037 10
-2 4 -19 5414.28 621.509 7
2 -4 -19 5214.03 811.974 7
2 4 19 4423.37 555.125 18
-2 -4 19 4295.13 738.365 20
-2 -4 19 4553.44 772.949 16
-2 4 -20 1248.69 335.95 7
2 -4 -20 1417.1 479.029 7
-2 -4 20 875.264 425.729 20
2 4 20 1098.43 331.924 18
-2 -4 20 979.113 414.223 16
-2 4 -21 34116.3 1505.97 7
2 -4 -21 31145.3 1824.7 7
-2 -4 21 30158.2 1722.45 20
2 4 21 31446.1 1407.83 18
-2 -4 21 32580.1 1785.8 16
2 -4 -22 10160.8 979.533 7
-2 4 -22 12428.7 848.957 7
2 4 22 10811.7 780.285 18
-2 -4 22 10845.9 961.302 20
-2 -4 22 11542.5 1000.43 16
-2 4 -23 839.679 255.938 7
2 -4 -23 459.328 276.091 7
-2 -4 23 853.552 316.946 20
2 4 23 735.741 231.83 18
-2 -4 23 692.328 265.16 16
2 -4 -24 1277.6 332.181 7
-2 4 -24 832.317 235.842 7
-2 -4 24 1212.92 304.964 20
2 4 24 1140.39 251.973 18
-2 -4 24 1255.43 326.771 16
-2 4 -25 15238.5 723.539 7
-2 -4 25 14445.4 768.15 20
2 4 25 13227.6 696.351 18
-2 -4 25 13656.9 797.253 16
-2 -5 -24 7042.13 505.666 8
2 -5 24 6771.11 554.537 20
-2 5 24 6562.34 561.021 18
-2 -5 -23 3129.51 396.158 8
2 -5 23 3309.33 355.285 9
-2 5 23 4113.69 515.978 18
2 -5 22 16294.1 905.383 9
-2 5 22 15924 1077.38 18
2 -5 21 2746.39 424.798 9
-2 5 21 3769.46 568.941 18
2 -5 20 13295.3 961.439 9
-2 5 20 13747.9 1114.96 18
2 -5 19 8578.22 814.661 9
-2 5 19 7951.16 897.786 18
2 -5 19 6245.48 697.872 14
2 -5 18 6336.15 736.562 9
2 -5 18 5135.01 556.308 19
-2 5 18 7006.55 866.735 18
2 -5 18 5236.54 675.467 14
2 -5 17 41089.9 1934.79 9
-2 -5 -17 42621.3 1707.15 10
2 -5 17 40380.8 1607.18 19
-2 5 17 39014.5 2058.89 18
2 -5 17 41438.7 1941.14 14
2 -5 16 19317.9 1299.06 9
-2 -5 -16 17368 1062.51 10
2 -5 16 16021 990.314 19
-2 5 16 17831.3 1368.42 18
2 -5 16 17693.5 1268.45 14
2 -5 15 25590.7 1522.3 9
-2 -5 -15 23673.5 1249.25 10
-2 5 15 24313.8 1607.39 18
2 -5 15 23760.1 1213.46 19
-2 -5 -15 24384.4 1209.3 13
2 -5 15 22737.5 1451.2 14
2 -5 14 54985.9 2293.64 9
-2 -5 -14 55280 1981.97 10
2 -5 14 53078.4 2066.87 3
2 -5 14 53694 1887.95 19
-2 5 14 53106.4 2411.53 18
-2 5 14 49513.9 2190.22 21
-2 -5 -14 53131.4 1875.11 13
2 -5 14 59274.3 2384.8 14
2 -5 13 123687 3692.58 9
-2 -5 -13 129317 3313.75 10
2 -5 13 117245 3319.9 3
-2 5 13 128472 3944.54 18
2 -5 13 124878 3196.32 19
-2 5 13 114498 3575.67 21
-2 -5 -13 127331 3183.38 13
2 -5 13 126214 3740.18 14
2 -5 12 312283 6775.7 9
-2 -5 -12 311752 6266.66 10
2 -5 12 294941 6261.49 3
-2 5 12 300746 6943.91 18
2 -5 12 294867 6068.33 19
-2 5 12 294881 6645.14 21
2 -5 12 321006 6273.71 17
2 -5 12 315407 6876.1 14
-2 -5 -12 310034 6106.34 13
-2 -5 -11 108488 2985.86 10
2 -5 11 114089 3378.88 9
2 5 -11 120362 2978.58 2
2 -5 11 109900 2981.82 3
-2 5 11 110802 3474.72 18
2 -5 11 106753 2838.42 19
-2 5 11 107801 3251.91 21
2 -5 11 113673 3448.53 14
-2 -5 -11 112295 2901.14 13
2 -5 11 109465 2953.32 17
-2 -5 -10 25809.3 1242.94 10
2 5 -10 26605.8 1209.87 2
2 -5 10 23585.7 1161.31 3
-2 5 10 23861.5 1430.67 18
2 -5 10 25365.9 1152.72 19
-2 5 10 23772.8 1325.73 21
2 -5 10 24793.5 1440.52 14
-2 -5 -10 27113 1194.81 13
2 -5 10 25278.1 1215.83 17
-2 -5 -9 66006.3 2106.58 10
2 -5 9 65287.5 1993.45 3
2 -5 9 67592.7 1867.35 5
2 5 -9 69448.1 2082.68 2
-2 5 9 59387.4 2200.37 21
-2 -5 -9 63715.9 1961.56 13
2 -5 9 64691.2 2403.18 14
-2 5 8 7955.48 628.087 23
-2 5 8 8177.32 735.274 21
2 -5 8 7384.24 576.86 3
2 -5 8 7164.29 523.091 5
2 -5 8 7950.03 663.172 4
2 5 -8 9658.76 702.818 2
-2 5 7 48892.1 1678.97 23
-2 5 7 42021.6 1748.37 21
2 -5 7 47506.6 1502.31 3
2 -5 7 44915.6 1449.98 5
2 -5 7 45136.7 1669.81 4
2 5 -7 50974.1 1735.15 2
-2 5 6 58325.4 1907.15 23
-2 5 6 57059.9 2036.28 21
2 -5 6 57518 1680.98 5
2 -5 6 58558.1 1906.65 4
2 5 -6 59398.3 1949.78 2
-2 5 5 64125.3 2045.55 23
-2 5 5 63205.8 2127.13 21
2 -5 5 62029.1 1763.57 5
2 -5 5 60072.3 1954.53 4
-2 5 4 25464.1 1231.29 23
-2 5 4 26262.2 1284.5 21
2 -5 4 26164.4 1050.23 5
2 -5 4 25601.2 1189.7 4
2 5 -4 28749.5 1304.47 2
-2 5 3 53706.3 1921.63 23
-2 5 3 56156.4 1961.06 21
2 -5 3 54357.2 1644.05 5
2 -5 3 54559.3 1831.2 4
2 5 -3 57843.7 1990.11 2
2 5 -3 60591.3 1786.35 1
-2 5 2 29735.7 1368.9 23
-2 5 2 29574.1 1368.82 21
2 -5 2 27715.9 1111.15 5
2 5 -2 30946.7 1269.87 1
2 -5 2 29340.1 1275.85 4
-2 5 1 225198 5003.42 23
-2 5 1 224040 4950.35 21
2 5 -1 235738 4851.63 1
2 -5 1 223425 4522.51 5
2 -5 1 220191 4795.13 4
-2 5 0 155740 3882.04 23
-2 5 0 151504 3780.09 21
2 5 0 159659 3722.16 1
2 -5 0 152896 3400.61 5
2 -5 0 153958 3654.97 4
-2 5 -1 217846 4995.63 23
2 5 1 226689 4849.18 1
2 -5 -1 219220 4474.15 5
2 -5 -1 223001 4803.28 4
-2 5 -2 29357.4 1465.34 23
2 5 2 28552.2 1349.38 1
2 -5 -2 31922.7 1239.38 5
2 -5 -2 33325.3 1442.66 4
-2 5 -3 58099 2179.48 23
2 5 3 53824 1959.67 1
2 -5 -3 56480.6 1757.01 5
2 -5 -3 55353.1 1995.89 4
-2 5 -4 24742.2 1391.37 23
-2 -5 4 26634.1 1407.23 3
2 5 4 25360.3 1306.64 1
2 -5 -4 27267.1 1161.75 5
2 -5 -4 26840.2 1359.75 4
-2 5 -5 62418.8 2377.47 23
2 5 5 62923.2 2219.52 1
-2 -5 5 62892.5 2333.89 3
2 -5 -5 62811.5 1912.88 5
2 -5 -5 63674 2252.92 4
-2 5 -6 60113 2347.07 23
2 5 6 55116.5 2122 1
-2 -5 6 54389.3 2240.67 3
2 -5 -6 58868.3 1660.06 2
2 -5 -6 57830.6 1837.65 5
2 -5 -6 59464.7 2221.52 4
-2 5 -7 47686.6 2110.47 23
-2 -5 7 48221.3 2123.81 3
2 -5 -7 48452.8 1542.69 2
2 -5 -7 49372.3 1662.98 5
2 -5 -7 47229.4 2010.07 4
2 5 7 45700.2 1955.9 1
-2 5 -8 8323.82 879.072 23
-2 -5 8 6347.88 771.983 3
2 -5 -8 8073.25 602.379 2
2 -5 -8 8019.81 632.31 5
2 -5 -8 8421.91 847.932 4
2 5 8 7419.65 783.865 1
2 -5 -9 61926.1 2633.09 7
2 -5 -9 59299.4 2366.62 10
-2 -5 9 65735.4 2656 3
2 -5 -9 66318 2003.09 2
2 -5 -9 65188.8 1987.72 5
2 -5 -9 67391.4 2571.81 4
2 5 9 61163.6 2497.35 1
-2 5 -9 64555 2622.87 23
-2 -5 9 60220.7 2518.71 20
2 -5 -10 23485.9 1604.48 7
2 -5 -10 21699.4 1389.37 10
-2 -5 10 23794.4 1589.11 3
2 -5 -10 25020.5 1187.77 2
2 -5 -10 25096.8 1131.06 5
2 -5 -10 24324.9 1529.93 4
2 5 10 25494.9 1578.13 1
-2 5 -10 25907.4 1646.68 23
-2 -5 10 26434.5 1655.17 20
-2 -5 10 23442.1 1522.19 16
2 -5 -11 102640 3718.83 7
2 -5 -11 109133 3433.81 10
-2 -5 11 108311 3777.89 3
2 -5 -11 108398 2949.52 2
2 -5 -11 113617 2787.74 5
2 -5 -11 113091 3715.12 4
2 5 11 107869 3650.62 1
-2 5 -11 108872 3782.73 23
-2 -5 11 106584 3683.28 20
-2 -5 11 112616 3720.29 16
2 -5 -12 290022 6760.38 10
2 -5 -12 295682 7360.59 7
-2 -5 12 300041 7336.38 3
2 -5 -12 307187 7203.07 4
2 5 12 294221 7081.14 1
-2 -5 12 290239 7182.52 20
-2 5 -12 293142 7324.99 23
-2 -5 12 304680 7207.71 16
2 5 12 314281 5961.27 18
2 -5 -13 123276 4259.87 7
2 -5 -13 123347 3800.23 10
-2 -5 13 130173 4322.39 3
2 -5 -13 121236 4062.87 4
2 5 13 118516 3992.82 1
-2 5 -13 123626 4239.78 23
-2 -5 13 119548 4102.5 20
-2 -5 13 127809 4163.47 16
2 5 13 124889 3099.62 18
2 -5 -14 53172.2 2679.2 7
2 -5 -14 53497.2 2359.96 10
2 5 14 52384.1 2526.01 1
-2 -5 14 57415.6 2778.22 3
2 -5 -14 56910.2 2662.12 4
-2 5 -14 54115.7 2670.24 23
-2 -5 14 50777.3 2557.14 20
2 5 14 54773.9 1866.81 18
-2 -5 14 57478.7 2662.81 16
2 -5 -15 21533.7 1677.49 7
2 -5 -15 26068.4 1608.13 10
-2 -5 15 22504.3 1654.25 20
2 5 15 22908.6 1171.01 18
-2 -5 15 25869.1 1767 16
2 -5 -16 16796 1284.56 10
2 -5 -16 18443 1546.26 7
-2 -5 16 17468.5 1466.93 20
2 5 16 16983.5 1016.73 18
-2 -5 16 17571.9 1466.38 16
2 -5 -17 39129.4 1988.99 10
2 -5 -17 35889.2 2171.02 7
2 5 17 40315.3 1636.25 18
-2 -5 17 38057.5 2151.06 20
-2 -5 17 42762 2275.82 16
2 -5 -18 6264.23 785.697 10
-2 5 -18 7356.16 719.313 7
2 -5 -18 6666.77 930.526 7
2 5 18 4859.34 560.898 18
-2 -5 18 4237.3 736.675 20
-2 -5 18 6529.8 897.672 16
2 -5 -19 7719.14 988.691 7
2 -5 -19 7758.78 818.44 10
-2 5 -19 8525.12 761.445 7
-2 -5 19 7029.11 885.1 20
2 5 19 7500.25 684.506 18
-2 -5 19 6652.2 875.876 16
2 -5 -20 15291.3 1089.01 10
-2 5 -20 15922.7 1002.29 7
2 -5 -20 14842.5 1280.25 7
-2 -5 20 15213.3 1241.21 20
2 5 20 13091.4 893.494 18
-2 -5 20 12518.5 1121.22 16
-2 5 -21 3696.25 482.713 7
2 -5 -21 3143.57 592.224 7
-2 -5 21 2989.69 548.88 20
2 5 21 3000.08 442.144 18
-2 -5 21 3114.65 565.333 16
2 -5 -22 17991 1230.63 7
-2 5 -22 17964.3 956.964 7
2 5 22 15703.8 903.914 18
-2 -5 22 15757.3 1115.14 20
-2 -5 22 16950.8 1148.51 16
2 -5 -23 4219.87 566.199 7
-2 5 -23 4446.2 442.133 7
2 5 23 3722.06 423.299 18
-2 -5 23 4066.29 533.776 20
-2 -5 23 3650.16 508.039 16
-2 -5 24 7541.85 626.189 20
2 5 24 7176.18 513.993 18
-2 -5 24 6737.9 595.781 16
-2 -6 -23 5336.53 461.558 8
2 -6 23 4603.06 451.382 20
-2 6 23 5776.62 515.889 18
-2 -6 -22 3890.81 451.822 8
2 -6 22 3229.69 390.329 9
-2 6 22 4073.43 496.148 18
-2 -6 -21 8333 709.768 8
2 -6 21 8605.85 692.411 9
-2 6 21 8464.85 758.374 18
-2 -6 -20 8573.82 778.588 8
2 -6 20 7061.39 685.025 9
-2 6 20 7946.81 795.171 18
2 -6 19 1463.74 367.297 9
2 -6 19 1553.15 349.416 14
-2 6 19 1643.89 454.358 18
-2 -6 -18 10993.1 807.967 10
2 -6 18 11988.5 977.456 9
-2 6 18 11535.4 1026.47 18
2 -6 18 10089 870.154 14
-2 -6 -17 17454.7 1072.21 10
2 -6 17 18762.2 1261.14 9
2 -6 17 18405.3 1005.68 19
-2 6 17 16967 1276.68 18
2 -6 17 17594 1211.76 14
2 -6 16 906.693 315.781 9
-2 -6 -16 1489.6 361.3 10
2 -6 16 1904.97 360.04 19
2 -6 16 1453.98 395.91 14
-2 6 16 1341.37 403.996 18
2 -6 15 4856.87 695.039 9
-2 -6 -15 4494.7 564.321 10
2 -6 15 3807.41 471.771 19
-2 6 15 5619.01 767.603 18
2 -6 15 4170.64 630.318 14
2 -6 14 6626.69 798.793 9
-2 -6 -14 6476.41 691.878 10
2 -6 14 6698.46 627.747 19
-2 6 14 7060.08 852.597 18
-2 -6 -14 6030.96 601.742 13
2 -6 14 7846.09 861.071 14
2 -6 13 20182.7 1364.29 9
-2 -6 -13 17928.6 1146.62 10
-2 6 13 19795.2 1392.14 18
2 -6 13 19656.8 1079.89 19
-2 6 13 16162.8 1236.07 21
-2 -6 -13 18774 1065.92 13
2 -6 13 19764.4 1348.22 14
2 -6 12 633304 12133.3 9
-2 -6 -12 671717 11638.3 10
-2 6 12 614197 12130.3 18
2 -6 12 647455 11253 19
-2 6 12 639880 12100.6 21
-2 -6 -12 629045 11260.7 13
2 -6 12 600432 12046.4 14
2 -6 11 288457 6590.74 9
-2 -6 -11 296978 6185.73 10
-2 6 11 293403 6634.93 18
2 -6 11 295926 5867.41 19
-2 6 11 281888 6504.94 21
2 -6 11 294687 6636.04 14
-2 -6 -11 288994 5875.55 13
2 -6 11 289871 6013.43 17
2 -6 10 14295.7 1120.66 9
-2 -6 -10 15753.2 1021.13 10
-2 6 10 13598.5 1080.01 18
2 -6 10 13458.5 842.045 19
-2 6 10 14007.3 1073.81 21
-2 -6 -10 15517.9 922.533 13
2 -6 10 14383.1 921.285 17
2 -6 10 13980.8 1119.11 14
2 -6 9 37169.6 1792.37 9
2 -6 9 36100 1828.55 8
-2 -6 -9 40931 1667.49 10
2 -6 9 35528.2 1383.86 5
2 -6 9 34895.2 1389.78 19
-2 6 9 34984.5 1704.17 21
2 -6 9 35390.1 1782.59 14
-2 -6 -9 38233.3 1484.13 13
2 -6 9 36919.4 1497.31 17
2 -6 8 75128.2 2628.78 9
2 -6 8 73728.9 2672.47 8
-2 -6 -8 74035.1 2349.88 10
2 -6 8 76264.2 2142.12 5
2 -6 8 73292.9 2405.77 4
-2 6 8 66027.4 2453.24 21
2 -6 8 77412 2310.48 17
-2 -6 -8 74580.9 2174.33 13
2 -6 8 74805.3 2668.21 14
2 -6 7 2565.65 430.587 9
-2 -6 -7 3126.24 456.533 10
2 -6 7 2896.11 526.11 8
2 -6 7 2510.31 412.593 4
2 -6 7 2833.87 377.537 5
-2 6 7 2143.6 409.195 21
-2 -6 -7 2525.5 365.087 13
2 -6 7 3347.48 546.233 14
2 -6 7 2710.7 378.806 17
2 -6 6 16285.2 1128.02 8
-2 -6 -6 16283 971.668 10
2 -6 6 14765 831.736 5
2 -6 6 14219.1 944.537 4
2 6 -6 16510.5 969.802 2
-2 6 6 14054 1014.86 21
2 -6 6 12849.7 1022.93 14
-2 6 5 9766.01 749.98 23
-2 6 5 8158.55 772.788 21
2 -6 5 10989.6 707.802 5
2 -6 5 7146.67 683.132 4
2 6 -5 11587.8 827.987 2
-2 6 4 33416.7 1477.74 23
-2 6 4 33616.5 1602.83 21
2 -6 4 34536.6 1326.11 5
2 -6 4 33853.6 1515.22 4
-2 6 3 68132.1 2257.73 23
-2 6 3 66365.5 2341.44 21
2 -6 3 69448.9 2006.06 5
2 -6 3 64327.7 2206.63 4
-2 6 2 56351 2054.47 23
-2 6 2 57928.4 2166.01 21
2 -6 2 59803.7 1839.34 5
2 6 -2 64235.5 2233.53 2
2 -6 2 58548.9 2060.46 4
-2 6 1 34952.4 1577.55 23
-2 6 1 30328.5 1531.5 21
2 -6 1 32822.2 1300.15 5
2 6 -1 37392.7 1530.16 1
2 -6 1 33672.2 1519.45 4
-2 6 0 22458.2 1275.27 23
-2 6 0 21983.1 1275.55 21
2 6 0 23788.2 1229.71 1
2 -6 0 20480.6 1011.93 5
2 6 0 25187.8 1373.63 2
2 -6 0 21216.1 1202.4 4
-2 6 -1 32489.8 1599.41 23
-2 6 -1 34253.3 1625.5 21
2 6 1 37494 1595.9 1
2 -6 -1 34929.8 1356.94 5
2 -6 -1 34489.9 1574.17 4
-2 6 -2 55148.3 2192.84 23
2 6 2 59062.5 2116.01 1
2 -6 -2 56403.3 1822.61 5
2 -6 -2 58634.6 2151.28 4
-2 6 -3 64925 2480.13 23
2 6 3 66448.5 2340.29 1
2 -6 -3 69708.5 2071.05 5
2 -6 -3 72465.1 2463.67 4
-2 6 -4 31257.4 1666.61 23
2 6 4 32710.8 1591.09 1
2 -6 -4 32600.3 1328.42 5
2 -6 -4 31812.7 1611.15 4
-2 6 -5 8517.64 876.497 23
-2 -6 5 10022.9 927.21 3
2 6 5 8611.96 811.514 1
2 -6 -5 10990.6 745.68 5
2 -6 -5 12368 992.487 4
2 -6 -6 13634.4 1089.95 10
2 6 6 15094 1096.85 1
-2 -6 6 15054.5 1178.26 3
2 -6 -6 15303.5 894.499 5
2 -6 -6 15515.2 1147.66 4
-2 6 -6 13894.6 1145.4 23
2 -6 -7 2344.37 473.042 10
2 -6 -7 2564.27 493.926 4
2 6 7 2628 503.043 1
-2 -6 7 3929.89 451.341 6
-2 -6 7 2533.45 520.874 3
-2 6 -7 3029.06 563.472 23
-2 -6 7 2146.89 455.42 20
2 -6 -7 2688.93 478.424 14
-2 -6 7 3865.08 605.378 16
2 -6 -8 72006.9 2740.07 10
-2 -6 8 73051.3 2688.14 9
2 6 8 69578.6 2687.71 1
-2 -6 8 72294.8 2868.94 3
-2 -6 8 71311.4 2163.77 6
2 -6 -8 73854.2 2186.12 5
2 -6 -8 70412.1 2731.12 4
-2 6 -8 74621.3 2948.94 23
-2 -6 8 70969.9 2815.12 20
-2 -6 8 77289.1 2892.88 16
2 -6 -8 69795.1 2609.76 14
2 -6 -9 36612.2 2039.74 7
2 -6 -9 36725.5 1889.75 10
-2 -6 9 39305.8 1909.61 9
-2 -6 9 37957.4 2047.86 3
2 -6 -9 37467 1453.42 5
2 -6 -9 37647.3 1982.92 4
2 6 9 34377.7 1864.01 1
-2 6 -9 37057.9 2054.56 23
-2 -6 9 36358.2 2010.38 20
-2 -6 9 39444.2 2028.98 16
2 -6 -9 36694 1838.29 14
2 -6 -10 14828.3 1219.45 10
2 -6 -10 12824.4 1230.56 7
-2 -6 10 15783.1 1197.36 9
-2 -6 10 15674.8 1365.88 3
2 -6 -10 14929.1 876.324 5
2 -6 -10 13532.9 1206.65 4
2 6 10 14064 1214.49 1
-2 6 -10 12601.8 1231.08 23
-2 -6 10 13546 1238.65 20
-2 -6 10 14083.9 1241.63 16
2 -6 -10 14297.1 1144.69 14
2 6 10 15970.7 866.916 18
2 -6 -11 273330 6621.92 10
2 -6 -11 278521 7072.05 7
-2 -6 11 298796 7338.87 3
2 -6 -11 291474 7007.7 4
2 6 11 278677 6918.72 1
-2 6 -11 292998 7268.35 23
-2 -6 11 281333 7028.12 20
-2 -6 11 285544 6990.51 16
2 6 11 294445 5677.44 18
2 -6 -11 290529 6615.23 14
2 -6 -12 591890 12822.1 7
2 -6 -12 633800 12387.5 10
-2 -6 12 644969 13133.5 3
2 -6 -12 695144 13008.8 4
2 6 12 613661 12618 1
2 6 12 657961 11213.4 18
-2 6 -12 620072 13021.9 23
-2 -6 12 609898 12799.1 20
2 -6 -12 652039 12348 14
-2 -6 12 664031 12918.3 16
2 -6 -13 19213.6 1396.62 10
2 -6 -13 17206.3 1499.79 7
2 6 13 18081.5 1440.93 1
-2 6 -13 18267.9 1555.46 23
-2 -6 13 17828.9 1473.17 20
2 6 13 20031.7 1052.17 18
-2 -6 13 19780.9 1564.22 16
2 -6 -13 18152.4 1313.88 14
2 -6 -14 6892.56 857.016 10
2 -6 -14 5359.83 855.278 7
2 6 14 6217.39 599.56 18
-2 -6 14 6555.54 917.067 20
-2 -6 14 6264.83 914.68 16
2 -6 -14 6138.48 747.543 14
2 -6 -15 4163.17 789.428 7
2 -6 -15 4464.43 692.179 10
2 6 15 4221.59 502.062 18
-2 -6 15 3294.83 657.956 20
-2 -6 15 3949.91 729.046 16
2 -6 -15 3688.61 582.228 14
2 -6 -16 1575.68 508.931 7
2 -6 -16 850.391 366.16 10
-2 -6 16 1716.69 508.757 20
2 6 16 1181.73 280.363 18
-2 -6 16 773.559 435.84 16
2 -6 -17 18292.8 1504.25 7
2 -6 -17 19574.2 1358.34 10
-2 -6 17 19076.7 1482.66 20
2 6 17 16752 1005.97 18
-2 -6 17 19297.4 1483.75 16
2 -6 -18 11860 1177.63 7
-2 6 -18 15225.9 990.961 7
2 -6 -18 11806.9 1015.91 10
-2 -6 18 11226.2 1117.48 20
2 6 18 11181.2 812.68 18
-2 -6 18 13092.2 1186.45 16
-2 6 -19 2359.56 413.05 7
2 -6 -19 1756.45 495.26 7
2 -6 -19 2365.84 490.427 10
-2 -6 19 1635.45 471.215 20
-2 -6 19 1604.94 474.968 16
2 6 19 2186.81 366.131 18
-2 6 -20 8931.13 684.176 7
2 -6 -20 8372.62 769.5 10
2 -6 -20 9019.76 944.22 7
2 6 20 7054.87 622.618 18
-2 -6 20 8239.25 892.366 20
-2 -6 20 7056.8 807.769 16
2 -6 -21 8999.19 704.169 10
-2 6 -21 9641.46 673.426 7
2 6 21 8515.82 651.31 18
-2 -6 21 9350.59 864.289 20
-2 -6 21 8036.36 798.367 16
-2 6 -22 4121.67 404.163 7
-2 -6 22 4114.49 546.622 20
2 6 22 4335.51 439.545 18
-2 -6 22 3611.43 508.311 16
-2 -6 23 5542.14 561.904 20
2 6 23 4926.78 425.071 18
-2 -6 23 5442.28 531.867 16
-2 -6 24 27867.9 1079.56 20
-2 -6 24 27675.7 1060.58 16
-2 -7 -22 15744.4 799.309 8
2 -7 22 15087.3 725.886 9
-2 7 22 13960.3 738.972 18
2 7 -22 16166.3 851.086 12
-2 -7 -21 4223.54 467.519 8
2 -7 21 4451.69 462.359 9
2 -7 21 3680.26 415.685 20
-2 7 21 4133.54 457.16 18
-2 -7 -20 7661.05 685.588 8
2 -7 20 8036.85 668.36 9
2 -7 20 7070.24 632.59 20
-2 7 20 7821.88 679.763 18
-2 -7 -19 16034.1 911.501 10
-2 -7 -19 17393.4 1098.2 8
2 -7 19 16254.4 1036.18 9
-2 7 19 14201.3 991.275 18
2 -7 19 16856.1 981.579 14
-2 -7 -18 23461.3 1183.72 10
-2 -7 -18 25179.9 1392.16 8
2 -7 18 22602.2 1299.66 9
-2 7 18 22970.6 1324.62 18
2 -7 18 22120.5 1216.82 14
-2 -7 -17 6567.15 660.935 10
-2 -7 -17 7258.55 792.014 8
2 -7 17 6183.67 720.993 9
-2 7 17 6132 703.731 18
2 -7 17 6560.78 697.175 14
-2 -7 -16 13094.8 938.374 10
-2 -7 -16 11563.4 1023.67 8
2 -7 16 11609.2 994.93 9
2 -7 16 11505.8 747.593 19
-2 7 16 12038.4 1032.46 18
2 -7 16 11033.7 941.494 14
-2 -7 -15 75050.8 2510.22 10
2 -7 15 75241.7 2205.87 19
-2 7 15 75531.1 2748.5 18
2 -7 15 73132.1 2665.93 14
-2 -7 -14 595.548 293.868 10
2 -7 14 1182.27 397.743 9
2 -7 14 504.761 218.182 19
-2 7 14 527.48 341.362 18
2 -7 14 350.368 288.606 14
-2 -7 -13 104180 3115.56 10
2 -7 13 107628 3448.65 9
-2 7 13 105975 3371.86 18
2 -7 13 105640 2758.09 19
2 -7 13 107402 3401.4 14
-2 -7 -13 97025.7 2788.65 13
2 -7 12 1723.83 473.859 9
-2 -7 -12 1197.68 377.649 10
2 -7 12 1162.18 285.32 19
-2 -7 -12 719.607 289.91 13
2 -7 12 1204.21 427.585 14
-2 -7 -11 251255 5602.88 10
2 -7 11 259589 6044.5 9
2 -7 11 250635 5133.08 19
-2 7 11 241916 5896.8 21
-2 -7 -11 239238 5181.93 13
2 -7 11 245754 5939.91 14
2 -7 10 71820.7 2727.74 9
-2 -7 -10 74944.4 2508.37 10
2 -7 10 67648.6 2107.78 19
-2 7 10 67156.1 2610.43 21
-2 -7 -10 73369.2 2231.24 13
2 -7 10 71925.7 2725.02 14
2 -7 10 70045.8 2207.08 17
2 -7 9 302475 6791.07 9
2 -7 9 302265 6896.18 8
-2 -7 -9 296198 6351.63 10
2 -7 9 286594 6002.66 5
-2 7 9 298358 6737.89 21
2 -7 9 300950 6793.78 14
2 -7 9 315261 6090.92 17
-2 -7 -9 296506 5982.15 13
2 -7 8 37374.3 1824.91 9
2 -7 8 31319.8 1740.25 8
-2 -7 -8 37298 1652.98 10
-2 -7 -8 35160.3 1779.76 8
-2 -7 -8 40130.2 1548.01 6
2 -7 8 32816.8 1427.54 5
2 -7 8 33753 1639.61 4
-2 7 8 31855.6 1693.97 21
-2 -7 -8 31297.4 1358.62 13
2 -7 8 32998.1 1753.48 14
-2 -7 -7 2839.22 497.657 8
2 -7 7 2775.98 506.24 9
-2 -7 -7 2829.76 451.472 10
2 -7 7 1664.69 445.899 8
-2 -7 -7 3345.75 448.892 6
2 -7 7 2811.04 421.447 5
2 -7 7 4353.1 573.334 4
-2 7 7 3123.98 542.892 21
-2 -7 -7 2657.84 386.677 13
2 -7 7 2303.23 476.583 14
2 -7 6 37005.9 1850.33 8
-2 -7 -6 40732.6 1693.98 10
-2 -7 -6 38966.1 1811.63 8
2 -7 6 38357.3 1790.24 9
-2 -7 -6 41324.1 1617.74 6
2 -7 6 39847.6 1550.19 5
2 -7 6 39133.3 1756.42 4
-2 7 6 37431.3 1814.38 21
-2 -7 -6 34689.9 1398 13
2 -7 6 36635.5 1849.04 14
-2 -7 -5 3133.98 512.145 8
2 -7 5 2884.39 487.851 9
-2 -7 -5 3861.48 525.759 10
2 -7 5 2877.84 496.821 8
2 -7 5 3554.16 526.193 4
-2 -7 -5 3640.55 487.165 6
2 -7 5 3884 463.538 5
-2 7 5 3745.61 566.458 21
2 -7 5 3956.33 612.742 14
-2 -7 -5 4099.35 662.37 16
2 -7 4 80778.9 2809.64 8
-2 -7 -4 81913.9 2506.91 10
-2 -7 -4 78594.3 2633.59 8
2 -7 4 76025.5 2590.14 9
-2 -7 -4 89146 2566.01 6
2 -7 4 83950.6 2403.04 5
2 -7 4 81327.3 2690.94 4
-2 7 4 78771.2 2769.75 21
-2 -7 -4 80916 2851.23 16
2 -7 4 79047.7 2823.14 14
2 -7 3 59425 2324.42 8
-2 -7 -3 58639.3 2025.25 10
-2 -7 -3 54135.5 2091.48 8
2 -7 3 58120 2128.02 9
-2 -7 -3 61998.9 2074.96 6
2 -7 3 56328.7 1900.75 5
2 -7 3 59489.1 2214.57 4
-2 7 3 51579.4 2181.82 21
2 -7 3 58218.6 2330.75 14
-2 -7 -3 57865.6 2364.74 16
2 -7 2 55304.5 2227.55 8
-2 -7 -2 55437 1944.2 10
-2 -7 -2 54750.8 2352.3 9
-2 -7 -2 57338.2 1997.86 6
2 -7 2 57461.6 1897.06 5
2 -7 2 55307.5 2152.61 4
-2 7 2 54266.1 2229.45 21
2 -7 2 54506 2241.75 14
-2 -7 -2 54290.6 2272.85 16
2 -7 1 78058.9 2747.72 8
-2 -7 -1 81912 2467.58 10
-2 -7 -1 80500.5 2939.47 9
-2 -7 -1 88266.5 2575.28 6
2 -7 1 83097.4 2405.33 5
2 -7 1 82509.1 2743.58 4
-2 7 1 81978.8 2654.38 23
-2 7 1 81331.8 2807.96 21
2 -7 1 80041.9 2814.31 14
-2 -7 -1 81219 2874.54 16
-2 -7 0 4783.99 684.097 9
2 -7 0 3420.02 517.534 8
2 -7 0 4410.09 607.504 4
-2 -7 0 4410.04 547.999 6
2 7 0 4498.73 634.305 2
2 -7 0 4613.73 505.565 5
-2 7 0 3019.99 520.156 21
-2 7 0 3593.77 534.928 23
-2 -7 0 4639.75 642.504 16
2 -7 0 3990.48 596.75 14
2 -7 -1 84103.2 2827.91 8
2 -7 -1 81916.4 2763.82 11
-2 -7 1 80773.6 2947.21 9
-2 -7 1 84286.4 2509.39 6
2 -7 -1 84856.1 2444.87 5
2 -7 -1 84023.7 2817.17 4
-2 7 -1 81514.4 2770.76 23
-2 7 -1 77225 2781.97 21
-2 -7 1 83665.4 2951.82 16
2 -7 -1 81131.6 2854.47 14
2 -7 -2 51289.5 2159.46 11
2 -7 -2 55984.6 2212.17 8
-2 -7 2 54687.3 2337.73 9
-2 -7 2 59360 1995.66 6
2 7 2 60375.9 2240.67 1
2 -7 -2 55339.6 1884.25 5
2 -7 -2 54370.5 2219.67 4
-2 7 -2 53915.8 2226.11 23
-2 7 -2 50726.1 2202.36 21
2 -7 -2 55080.6 2282.81 14
-2 -7 2 56640.1 2370.39 16
2 -7 -3 52612 2209.68 10
2 -7 -3 59097.3 2265.78 8
-2 -7 3 57822.7 2406.99 9
-2 -7 3 57948.9 1990.08 6
2 7 3 57286.2 2241.93 1
2 -7 -3 56935.3 1920.07 5
2 -7 -3 57668.2 2310.68 4
-2 -7 3 53733.4 2295.82 20
-2 7 -3 56776.1 2343.98 23
-2 -7 3 57808.7 2401.48 16
2 -7 -3 58691.3 2376.33 14
2 -7 -4 77358.8 2821.51 10
2 -7 -4 76983.1 2705.45 8
-2 -7 4 84166.5 2998.89 9
-2 -7 4 84642.1 2485.88 6
2 7 4 81032 2786.09 1
2 -7 -4 85117.9 2454.29 5
2 -7 -4 84718.1 2922.86 4
-2 7 -4 79102.5 2917.08 23
-2 -7 4 73367.4 2802.26 20
2 -7 -4 81176.8 2885.27 14
-2 -7 4 80683.5 2959.79 16
2 -7 -5 2755.28 535.163 10
2 -7 -5 4801.49 630.92 8
-2 -7 5 3516.47 608.985 9
2 -7 -5 2664.72 522.859 4
2 7 5 3765.31 570.222 1
-2 -7 5 4238.39 511.82 6
2 -7 -5 3619.44 460.313 5
-2 7 -5 2818.09 551.364 23
-2 -7 5 2967.37 553.118 20
-2 -7 5 2891.98 543.258 16
2 -7 -5 3986.39 602.151 14
2 -7 -6 37568.7 1927.51 10
2 -7 -6 36333.8 1752.68 8
-2 -7 6 37047.3 1932.34 9
2 7 6 41841.9 1962.15 1
-2 -7 6 37457.9 1564.14 6
2 -7 -6 37718.5 1528.84 5
2 -7 -6 39254.5 1974.16 4
-2 7 -6 38774.8 2037.39 23
-2 -7 6 36638.9 1957.15 20
-2 -7 6 39258.1 2023.39 16
2 -7 -6 40165.4 1965.01 14
-2 -7 7 2969.66 573.737 9
2 -7 -7 1879.6 463.384 10
2 -7 -7 2251.15 445.286 8
2 -7 -7 2303.05 514.465 4
2 7 7 2336.1 465.776 1
-2 -7 7 2068.17 375.152 6
-2 -7 7 2529.05 562.585 3
2 -7 -7 2484 390.808 5
-2 7 -7 2679.44 569.252 23
-2 -7 7 2589.91 548.334 20
-2 -7 7 3117.78 617.321 16
2 -7 -7 2162.4 466.447 14
2 -7 -8 30481.1 1785.47 10
-2 -7 8 33344.3 1829.27 9
2 7 8 31053.6 1759.59 1
-2 -7 8 29733.7 1840.22 3
-2 -7 8 33750.3 1455.46 6
2 -7 -8 31685.1 1374.81 5
2 -7 -8 32694.9 1876.15 4
-2 7 -8 33415.1 1975.9 23
-2 -7 8 28926.5 1808.67 20
-2 -7 8 36263.1 2011.43 16
2 -7 -8 34278.5 1844.76 14
2 -7 -9 277971 6822.03 10
-2 -7 9 293900 6877.78 9
2 7 9 285449 6910.19 1
-2 -7 9 282787 7111.26 3
-2 -7 9 297228 5999.07 6
2 -7 -9 289630 5870.17 5
2 -7 -9 298770 7076.51 4
-2 7 -9 296147 7305.39 23
-2 -7 9 290740 7113.89 20
-2 -7 9 305464 7206.03 16
2 -7 -9 299480 6884.33 14
2 -7 -10 70090.8 2843.87 10
-2 -7 10 72626.1 2790.21 9
2 7 10 65340 2795.84 1
-2 -7 10 70276.9 3038.28 3
-2 -7 10 67031.2 2177.82 6
2 -7 -10 71194.1 2930.01 4
-2 7 -10 73040.6 3137.2 23
-2 -7 10 69508 2953.18 20
2 -7 -10 69454.7 2781.8 14
-2 -7 10 74826.9 3058.5 16
2 -7 -11 232872 6041.09 10
-2 -7 11 239900 5914.02 9
2 7 11 236850 6206.53 1
-2 7 -11 236278 6526.59 23
2 7 11 246508 4964.29 18
-2 -7 11 243038 6373.2 20
2 -7 -11 251376 6074.58 14
-2 -7 11 252684 6472.61 16
-2 -7 12 1017.31 346.333 9
2 -7 -12 673.197 386.134 10
-2 -7 12 989.071 451.94 20
2 -7 -12 1464.21 457.098 14
-2 -7 12 1595.38 559.474 16
2 7 12 1159.08 282.55 18
2 -7 -13 101083 3516.32 10
-2 -7 13 106124 3814.09 20
2 7 13 100783 2710.09 18
-2 -7 13 107186 3795.75 16
2 -7 -13 107910 3485.2 14
2 -7 -14 853.886 399.973 10
-2 -7 14 309.805 408.959 20
2 7 14 332.814 198.825 18
-2 -7 14 247.143 392.896 16
2 -7 -14 979.662 372.92 14
2 -7 -15 76509.4 2888.78 10
-2 -7 15 73630.4 3081.96 20
2 7 15 71009.7 2225.95 18
-2 -7 15 77047.3 3110.81 16
2 -7 -15 78464.1 2741.35 14
2 -7 -16 11143.7 1041.85 10
-2 -7 16 11214.9 1116.46 20
2 7 16 12002.1 805.32 18
-2 -7 16 12555.8 1188.85 16
2 -7 -16 11744.8 961.811 14
2 -7 -17 8274.89 861.364 10
-2 -7 17 7057.38 881.418 20
2 7 17 6499.49 598.537 18
-2 -7 17 6237.77 836.69 16
2 -7 -18 23878.9 1390.06 10
2 7 18 23781.3 1123.66 18
-2 -7 18 24112.1 1554.03 20
-2 -7 18 23687.1 1513.48 16
2 -7 -19 15447.8 1040.97 10
-2 -7 19 17597.4 1251.28 20
2 7 19 13769.1 823.809 18
-2 -7 19 16599.3 1203.39 16
2 -7 -20 7489.8 666.436 10
2 7 20 7154.17 561.014 18
-2 -7 20 7177.36 749.223 20
-2 -7 20 8760.31 814.509 16
2 -7 -21 3814.41 412.694 10
-2 -7 21 4446.49 555.166 20
2 7 21 4800.76 432.854 18
-2 -7 21 3782.45 496.059 16
-2 -7 22 15458.4 902.757 20
2 7 22 14887.1 699.869 18
-2 -7 22 15258.6 878.504 16
-2 -8 -21 13891.6 730.961 8
2 -8 21 13388 681.953 9
-2 -8 -21 12528.8 724.927 14
-2 -8 -20 1765.28 325.652 8
2 -8 20 1203.34 256.776 9
-2 -8 -19 17756 884.635 10
-2 -8 -19 15202.3 949.292 8
2 -8 19 16662.6 973.273 9
2 -8 18 -105.847 250.617 9
-2 -8 -18 306.796 242.926 8
-2 -8 -18 22.821 150.263 10
2 -8 18 -34.9339 170.987 14
-2 -8 -17 18312.2 1056.54 10
-2 -8 -17 18012.6 1156.2 8
2 -8 17 19112.6 1172.09 9
2 -8 17 18677.5 1065.83 14
-2 -8 -16 41323.8 1718.18 10
-2 -8 -16 45251.3 1959.5 8
2 -8 16 44980.6 1928.92 9
2 -8 16 43694.6 1798.15 14
-2 -8 -15 12513.8 943.194 10
-2 -8 -15 12120.4 1014.6 8
2 -8 15 13055.4 1051.65 9
2 -8 15 11937 949.672 14
-2 -8 -14 10377.3 890.5 10
-2 -8 -14 9213.21 931.09 8
2 -8 14 9164.24 911.778 9
2 -8 14 10810.9 955.583 14
-2 -8 -13 20261.1 1249.69 10
-2 -8 -13 18976 1339.71 8
2 -8 13 20253.1 1362.6 9
2 -8 13 20272.1 1321.33 14
-2 -8 -12 16234.8 1132.9 10
-2 -8 -12 12999.8 1133.87 8
2 -8 12 15756.3 1211.37 9
2 -8 12 15966.3 1188.45 14
-2 -8 -11 17803.8 1194.43 10
-2 -8 -11 17706.3 1297.59 8
2 -8 11 16746.8 1277.4 9
2 -8 11 17516.5 1266.95 14
-2 -8 -10 25608.9 1430.87 10
-2 -8 -10 25059.1 1554.85 8
2 -8 10 27205.2 1626.11 9
-2 -8 -10 26214.9 1224.7 13
2 -8 10 25387 1556.08 14
2 -8 9 50008.7 2246.26 8
-2 -8 -9 49305.4 2027.33 10
-2 -8 -9 47450.2 2166.29 8
2 -8 9 47465.5 2176.95 9
-2 -8 -9 46663.1 1693.99 13
2 -8 9 47103.3 2179.56 14
-2 -8 -8 63927.4 2111.32 6
2 -8 8 61733.6 2550.58 8
-2 -8 -8 60581.6 2283.91 10
-2 -8 -8 61241 2475.44 8
2 -8 8 57679.6 2424.89 9
-2 -8 -8 59931.5 1945.13 13
2 -8 8 62621 2520.24 14
2 -8 7 19996.3 1413.9 8
-2 -8 -7 20062.6 1243.5 10
-2 -8 -7 18176.4 1280.45 8
2 -8 7 21576.9 1405.43 9
-2 -8 -7 20236.8 1142.75 6
2 -8 7 20025.6 1152.15 5
2 -8 7 20772.8 1318.27 4
-2 8 7 16993.4 1269.92 21
-2 -8 -7 21719.5 1054.81 13
2 -8 7 18398.5 1331.99 14
2 -8 6 7781.19 876.607 8
-2 -8 -6 9211.24 831.485 10
-2 -8 -6 7166.3 804.263 8
2 -8 6 7767.76 836.949 9
-2 -8 -6 8494.36 740.985 6
2 -8 6 9333.3 774.273 5
2 -8 6 9037.81 858.501 4
-2 8 6 8180.37 888.727 21
2 -8 6 8351.66 905.059 14
2 -8 5 46312.2 2153.18 8
-2 -8 -5 43134.8 1821.83 10
-2 -8 -5 40890.3 1926.69 8
2 -8 5 39386.6 1869.66 9
-2 -8 -5 47669.8 1816.25 6
2 -8 5 40778.3 1689.46 5
2 -8 5 42833.1 1952.46 4
-2 8 5 39602.4 1989.45 21
2 -8 5 41178.4 2034.97 14
-2 -8 -4 2157.79 442.469 8
2 -8 4 3200.21 513.104 9
-2 -8 -4 4700.53 563.016 10
2 -8 4 2686.63 545.016 8
2 -8 4 3384.44 564.616 4
-2 -8 -4 3770.61 516.05 6
2 -8 4 3461.1 478.928 5
-2 8 4 2654.31 488.303 21
-2 -8 -4 2487.4 525.162 16
2 -8 4 3574.74 590.359 14
2 -8 3 16353.2 1240.17 8
-2 -8 -3 18485.9 1119.08 10
-2 -8 -3 15529.9 1125.44 8
2 -8 3 16863.6 1140.19 9
-2 -8 -3 17882.7 1100.28 6
2 -8 3 16803.3 1035.03 5
2 -8 3 17509.9 1233.02 4
-2 8 3 15661.3 1220.26 21
2 -8 3 17514.4 1295.96 14
-2 -8 -3 17480.1 1320.18 16
2 -8 2 57783.2 2416.23 8
-2 -8 -2 51122.1 1986.09 10
-2 -8 -2 55417.8 2189.45 8
-2 -8 -2 54612.7 2472.47 9
-2 -8 -2 60962.2 2133.69 6
2 -8 2 60456.2 2066.75 5
2 -8 2 59906.3 2374.63 4
-2 8 2 53114.9 2339.48 21
-2 -8 -2 57468.9 2476.62 16
2 -8 2 55689.1 2394.71 14
2 -8 1 13031.5 1091.48 8
-2 -8 -1 13513.9 928.332 10
-2 -8 -1 12010.6 1117.49 9
-2 -8 -1 14416.5 991.09 6
2 -8 1 12965 908.579 5
2 -8 1 14504.1 1127.1 4
-2 8 1 12982.6 1120.17 21
2 -8 1 12637.5 1097.23 14
-2 -8 -1 13796.9 1172.49 16
2 -8 0 14425.1 1151.33 8
-2 -8 0 12240 873.344 10
-2 -8 0 9801.09 1024.55 9
-2 -8 0 13496.5 945.895 6
2 -8 0 13111.2 906.576 5
2 -8 0 14204.1 1120.08 4
-2 8 0 12033.7 1077.04 21
-2 -8 0 12381.7 1135.38 16
2 -8 0 12234.2 1086.4 14
2 -8 -1 13266.6 1101.48 8
-2 -8 1 13660.1 917.594 10
-2 -8 1 13580.6 1197.76 9
-2 -8 1 13770.1 965.827 6
2 -8 -1 16720.1 1017.69 5
2 -8 -1 13862.9 1131.08 4
-2 8 -1 12141.8 1085.31 21
2 -8 -1 14419 1185.6 14
-2 -8 1 13318.7 1167.26 16
2 -8 -2 56016.7 2267.66 11
2 -8 -2 58060.2 2396.09 8
-2 -8 2 55971.9 2514.89 9
-2 -8 2 59249.2 2111.45 6
2 -8 -2 54767.7 1995.38 5
2 -8 -2 60424.2 2459.09 4
-2 8 -2 55058.6 2442.89 21
-2 -8 2 55163 2487.12 16
2 -8 -2 55467.1 2425.97 14
2 -8 -3 14302.9 1141.93 10
2 -8 -3 16130.7 1175.43 11
2 -8 -3 17733.4 1265.83 8
-2 -8 3 16023.6 1324.61 9
-2 -8 3 17603 1083.36 6
2 -8 -3 17484 1058.97 5
2 -8 -3 16406.2 1251.01 4
-2 8 -3 16212.3 1279.07 21
2 -8 -3 17407.9 1302.08 14
-2 -8 3 17297.1 1348.53 16
2 -8 -4 2924.85 524.82 11
-2 -8 4 3202.18 603.628 9
2 -8 -4 3070.08 580.166 10
2 -8 -4 2945.41 519.506 8
2 -8 -4 2735.46 574.246 4
-2 -8 4 2678.97 444.368 6
2 -8 -4 3304.95 469.57 5
-2 8 -4 2299.09 462.967 23
-2 8 -4 1892.34 457.459 21
-2 -8 4 2780.71 589.567 16
2 -8 -4 2664.88 534.658 14
2 -8 -5 41839.2 2069.3 10
2 -8 -5 42416.4 1999.31 8
-2 -8 5 36050.2 2025.72 9
-2 -8 5 43626.1 1778.42 6
2 -8 -5 43083.8 1713.82 5
2 -8 -5 42691.8 2103.08 4
2 8 5 43843.4 2052.65 1
-2 -8 5 43913.1 2098.84 20
-2 8 -5 40441.7 2070.27 21
-2 8 -5 38573.2 2054.28 23
-2 -8 5 39827.2 2149.3 16
2 -8 -5 37194.4 2001.33 14
2 -8 -6 9772.34 1006.23 10
2 -8 -6 8741.49 894.077 8
-2 -8 6 7387.88 892.626 9
-2 -8 6 9674.72 804.727 6
2 8 6 7584.1 882.534 1
2 -8 -6 8676.68 734.897 5
2 -8 -6 8330.13 917.128 4
-2 8 -6 7774.26 928.713 23
-2 -8 6 7071.74 868.664 20
-2 -8 6 8122.95 963.561 16
2 -8 -6 7880.8 915.184 14
2 -8 -7 18115.2 1409.76 10
2 -8 -7 19641.5 1331.52 8
-2 -8 7 20856.7 1501.54 9
-2 -8 7 19346.8 1148.99 6
2 8 7 18150.9 1346.9 1
2 -8 -7 18846.1 1085.62 5
2 -8 -7 21341 1494.61 4
-2 8 -7 18823.5 1468.09 23
-2 -8 7 18174.9 1409.72 20
-2 -8 7 19989.4 1515.93 16
2 -8 -7 20717.3 1459.28 14
2 -8 -8 55891.9 2546.89 10
2 -8 -8 63644.7 2444.4 8
-2 -8 8 60278.7 2641.62 9
-2 -8 8 61565.2 2151.85 6
2 8 8 58755.1 2567.7 1
-2 8 -8 57541.6 2703.69 23
-2 -8 8 58261.6 2634.85 20
-2 -8 8 58602.4 2707.77 16
2 -8 -8 61756.6 2649.74 14
2 -8 -9 46590.9 2309.37 10
-2 -8 9 49535.4 2350.77 9
-2 -8 9 45780.9 1826.83 6
-2 -8 9 48457.5 2373.13 20
-2 -8 9 53286.6 2537.11 16
2 -8 -9 47620 2299.94 14
2 -8 -10 24675.6 1655.54 10
-2 -8 10 25761.2 1622.18 9
-2 -8 10 24354.8 1264.43 6
-2 -8 10 29698.4 1839.82 20
-2 -8 10 25969.1 1768.7 16
2 -8 -10 27157.6 1688.54 14
2 -8 -11 18585.3 1417.72 10
-2 -8 11 17652.8 1314.15 9
-2 -8 11 15258.2 1330.63 20
-2 -8 11 16967.9 1428 16
2 -8 -11 17837.3 1359.69 14
2 -8 -12 14098.1 1224.09 10
-2 -8 12 13808.1 1125.77 9
-2 -8 12 14046.8 1256.17 20
-2 -8 12 15849.3 1388.33 16
2 -8 -12 14253.7 1187.84 14
2 -8 -13 18861.7 1383.53 10
-2 -8 13 20250.1 1305.65 9
-2 -8 13 19129.8 1492.3 20
-2 -8 13 17880.6 1456.25 16
2 -8 -13 19744 1378.25 14
2 -8 -14 10645.9 1041.04 10
-2 -8 14 9846.45 1053.51 20
-2 -8 14 9476.7 1061.32 16
2 -8 -14 10402.5 960.197 14
2 -8 -15 10387.2 1001.18 10
2 8 15 11144.1 730.605 18
-2 -8 15 11002.4 1084.16 20
-2 -8 15 11812.2 1130.29 16
2 -8 -15 11250.1 951.598 14
2 -8 -16 45233.9 2012.82 10
-2 -8 16 44651.1 2129.43 20
2 8 16 38900 1439.01 18
-2 -8 16 43052.1 2115.91 16
2 -8 -16 43980.3 1839.94 14
2 -8 -17 18794.7 1213.93 10
2 8 17 16053.9 857.23 18
-2 -8 17 18142.4 1278.3 20
2 -8 -17 18424.8 1063.75 14
-2 -8 17 18827.1 1306.14 16
2 -8 -18 83.8889 232.196 10
-2 -8 18 4.60705 237.9 20
2 8 18 263.653 187.318 18
-2 -8 18 105.604 267.289 16
2 -8 -19 18623.6 1050.84 10
-2 -8 19 18419.1 1140.14 20
2 8 19 16100.1 788.946 18
-2 -8 19 19189.8 1158.03 16
2 -8 -20 1358.77 265.04 10
-2 -8 20 1831.41 349.299 20
2 8 20 1305.88 201.874 18
-2 -8 20 1203.52 317.01 16
-2 -8 21 14834.2 837.441 20
-2 -8 21 14340.1 817.618 16
-2 -9 -19 20516.6 939.164 8
2 -9 19 17788.7 879.396 9
-2 -9 -19 18482.5 895.407 14
-2 -9 -18 17770.3 878.103 10
-2 -9 -18 16867.2 941.582 8
2 -9 18 18280.2 974.89 9
-2 -9 -18 15922.7 916.097 14
-2 -9 -17 1860.71 361.132 8
2 -9 17 2148.94 397.691 9
-2 -9 -17 2761.85 390.754 10
2 -9 17 2037.85 309.019 14
-2 -9 -17 1369.68 316.581 14
-2 -9 -16 28258.4 1318.42 10
-2 -9 -16 31476.3 1473.25 8
2 -9 16 29196.8 1428.15 9
2 -9 16 28217.5 1261.21 14
-2 -9 -16 27467.5 1393.14 14
-2 -9 -15 15293.1 989.313 10
-2 -9 -15 13133.8 997.954 8
2 -9 15 13095.2 988.183 9
2 -9 15 13321.5 908.418 14
-2 -9 -15 14908.2 1049.3 14
-2 -9 -14 5899.48 659.804 10
-2 -9 -14 6084.39 709.313 8
2 -9 14 5772.94 703.4 9
2 -9 14 5843.78 644.747 14
-2 -9 -13 58395.7 2184.12 10
-2 -9 -13 58331 2332.43 8
2 -9 13 60461.8 2361.89 9
2 -9 13 57378 2185.08 14
-2 -9 -12 27045.9 1463.2 10
-2 -9 -12 30342.1 1657.09 8
2 -9 12 28320.9 1603.84 9
2 -9 12 26932.5 1493.62 14
-2 -9 -11 12083.1 974.545 10
-2 -9 -11 12901.5 1083.84 8
2 -9 11 13192.4 1104.8 9
2 -9 11 13561 1091.29 14
-2 -9 -11 11933.7 1014.58 14
-2 -9 -10 11740.5 968.788 10
-2 -9 -10 11424.2 1035.07 8
2 -9 10 11215.8 1024.37 9
-2 -9 -10 11180.9 982.317 14
2 -9 10 10590.9 985.483 14
-2 -9 -9 48640.7 2047.03 10
-2 -9 -9 49839.9 2209.76 8
2 -9 9 51970.8 2265.79 9
-2 -9 -9 49258.6 2135.47 14
2 -9 9 48299.4 2166.85 14
-2 -9 -8 10121.3 785.461 6
2 -9 8 9436.84 956.736 8
-2 -9 -8 8071.2 818.947 10
-2 -9 -8 7954.99 857.401 8
2 -9 8 8078.87 876.497 9
2 -9 8 7435.17 854.048 14
-2 -9 -7 70698.2 2303.97 6
2 -9 7 67767.2 2716.81 8
-2 -9 -7 68175.6 2465.2 10
-2 -9 -7 65201.2 2587.34 8
2 -9 7 66938.6 2610.97 9
2 -9 7 68056.9 2691.8 14
-2 -9 -6 94888 2760.89 6
2 -9 6 87611.8 3165.13 8
-2 -9 -6 87735.1 2855.49 10
-2 -9 -6 84157.4 2995.25 8
2 -9 6 81801.7 2954.26 9
2 -9 6 86140.4 3100.9 14
-2 -9 -5 61033.3 2152.84 6
2 -9 5 56942.6 2456.09 8
-2 -9 -5 56106.9 2168.52 10
-2 -9 -5 53385.7 2279 8
2 -9 5 51747.8 2228.13 9
2 -9 5 55017.5 2412.49 14
-2 -9 -4 68574.9 2323.28 6
2 -9 4 65506.2 2649.25 8
-2 -9 -4 61959.1 2280 10
-2 -9 -4 59559.7 2407.32 8
2 -9 4 59209.9 2366.95 9
2 -9 4 61936 2607.11 14
-2 -9 -3 37940.6 1688.06 6
2 -9 3 35657.1 1904.54 8
-2 -9 -3 36095.9 1656.43 10
-2 -9 -3 35134.8 1761.58 8
2 -9 3 36388.8 1766.02 9
-2 -9 -3 35460 1990.85 16
2 -9 3 34942.8 1907.27 14
-2 -9 -2 5976.13 678.358 6
-2 -9 -2 5402.63 630.891 10
-2 -9 -2 5933.12 709.04 8
2 -9 2 6112.6 772.425 8
-2 -9 -2 4971.33 759.837 16
2 -9 2 4615.8 713.688 14
-2 -9 -1 35588.5 1638.74 6
2 -9 1 33622.4 1843.08 8
-2 -9 -1 30263.3 1469.87 10
-2 -9 -1 30875.4 1586.19 8
-2 -9 -1 31088.8 1887.78 9
2 -9 1 30745.4 1797.63 14
-2 -9 -1 32470 1910.79 16
-2 -9 0 54488.8 2111.81 6
2 -9 0 56659.7 2444.16 8
-2 -9 0 54689.9 2001.41 10
-2 -9 0 51445.3 2519.21 9
-2 -9 0 52890.1 2488.07 16
2 -9 0 55666.3 2471.56 14
-2 -9 1 33234.8 1592.66 6
2 -9 -1 32921.3 1828.26 8
-2 -9 1 32471 1944.89 9
-2 -9 1 31731.7 1897.58 16
2 -9 -1 31169.8 1820.85 14
-2 -9 2 5762.67 666.263 6
-2 -9 2 4866.36 758.83 9
2 -9 -2 4755.35 708.077 8
-2 -9 2 5948.05 853.066 16
2 -9 -2 5345.53 772.563 14
-2 -9 3 37560.9 1698.12 6
2 -9 -3 34053.6 1799.1 10
2 -9 -3 37057.6 1929.02 8
-2 -9 3 38805.7 2147.81 9
2 -9 -3 37027.5 2012.75 14
-2 -9 3 37101.2 2085.77 16
-2 -9 4 65029.6 2335.23 6
2 -9 -4 59770.4 2526.64 10
2 -9 -4 62571.3 2583.61 8
-2 -9 4 65676.2 2827.94 9
-2 -9 4 67319.5 2865.76 16
2 -9 -4 62060 2668.65 14
-2 -9 5 56159.4 2139.63 6
2 -9 -5 58102.9 2498.52 10
2 -9 -5 60084.8 2484.49 8
-2 -9 5 57918 2642.25 9
2 -9 -5 56622.3 2539.73 14
-2 -9 5 53870.6 2580.75 16
-2 -9 6 88657.1 2788.39 6
2 -9 -6 86205.4 2998.32 11
2 -9 -6 83992.7 3162.32 10
2 -9 -6 87211.8 3082.21 8
-2 -9 6 89882.7 3362.81 9
-2 -9 6 87183.3 3364.96 16
2 -9 -6 87707.4 3268.19 14
2 -9 -7 67498.9 2642.11 11
2 -9 -7 69472.5 2861.39 10
2 -9 -7 73970.8 2731.35 8
-2 -9 7 72545.7 2946.35 9
-2 -9 7 68143.9 2389.46 6
-2 -9 7 65255.4 2672.33 20
-2 -9 7 74196.3 3054.76 16
2 -9 -7 72547.1 2899.01 14
2 -9 -8 6939.48 890.738 10
2 -9 -8 9405.47 908.73 8
-2 -9 8 8751.93 987.188 9
-2 -9 8 8551.12 780.002 6
-2 -9 8 7434.06 875.221 20
2 -9 -8 9532.63 1012.05 14
-2 -9 8 9416.95 1074.41 16
2 -9 -9 45258.7 2265.74 10
2 -9 -9 50283.6 2122.58 8
-2 -9 9 46730.7 2280.17 9
-2 -9 9 45932.2 1863.92 6
-2 -9 9 45319.8 2203.67 20
-2 -9 9 49856.8 2450.35 16
2 -9 -9 50822.9 2350.32 14
-2 -9 10 10610.8 839.258 6
2 -9 -10 11689.3 1103.47 10
2 -9 -10 11276.6 953.603 8
-2 -9 10 12969 1148.18 9
-2 -9 10 11928 1107 20
2 -9 -10 12165.8 1124.28 14
-2 -9 10 11788.4 1180.32 16
-2 -9 11 12706.8 892.762 6
2 -9 -11 13050.3 1155.06 10
-2 -9 11 12907.9 1106.26 9
-2 -9 11 9964.93 1024.27 20
-2 -9 11 11043.7 1135.04 16
2 -9 -11 12258.2 1100.73 14
2 -9 -12 27633.6 1682.36 10
-2 -9 12 28461.3 1605.21 9
-2 -9 12 30374.6 1757.58 20
2 -9 -12 28183.3 1638.55 14
-2 -9 12 31641.2 1881.42 16
2 -9 -13 55565.5 2379.16 10
-2 -9 13 56347.3 2197.26 9
-2 -9 13 58279.1 2456.41 20
-2 -9 13 56941.8 2533.69 16
2 -9 -13 58325.9 2337.74 14
-2 -9 14 4282.98 560.029 9
2 -9 -14 5362.29 712.997 10
-2 -9 14 5117.33 686.735 20
-2 -9 14 6340.4 814.477 16
2 -9 -14 5845.7 686.268 14
2 -9 -15 14930.9 1106.62 10
-2 -9 15 14776.6 1118.83 20
-2 -9 15 15402.4 1190.74 16
2 -9 -15 14428.1 1008.9 14
2 -9 -16 28199.9 1467.15 10
-2 -9 16 28624.7 1500.79 20
2 -9 -16 27258.9 1309.01 14
-2 -9 16 28861.3 1563.8 16
2 -9 -17 2706.85 447.695 10
-2 -9 17 2246.82 429.632 20
-2 -9 17 2807.98 489.623 16
2 -9 -17 2025.51 339.534 14
2 -9 -18 17763.8 995.268 10
-2 -9 18 16135.7 959.703 20
-2 -9 18 17525 1050.67 16
2 -9 -19 19975.5 940.947 10
2 -9 -19 18429.7 872.318 11
-2 -9 19 18464.5 919.183 20
-2 -9 19 19491.9 1008.36 16
-2 -10 -18 11605.1 624.424 8
2 -10 18 11287.8 621.354 9
-2 -10 -17 10834.8 646.183 10
-2 -10 -17 10709.2 674.942 8
2 -10 17 10058.7 661.669 9
-2 -10 -17 10428.3 614.301 14
-2 -10 -16 16953.4 896.096 10
-2 -10 -16 17097.2 935.399 8
2 -10 16 16915.3 931.97 9
-2 -10 -16 15767 854.265 14
-2 -10 -15 38762.5 1489.06 10
-2 -10 -15 37521.6 1526.84 8
2 -10 15 36814.6 1518.34 9
2 -10 15 36560.4 1328.66 14
-2 -10 -15 33403.1 1388.93 14
-2 -10 -14 10380.4 786.837 10
-2 -10 -14 9248.24 777.39 8
2 -10 14 10220 823.004 9
2 -10 14 9926.99 713.298 14
-2 -10 -14 9696.69 756.081 14
-2 -10 -13 2194.25 435.645 8
-2 -10 -13 2947.91 460.314 10
2 -10 13 2000.05 411.1 9
2 -10 13 2330.36 397.68 14
-2 -10 -13 2010.32 382.773 14
-2 -10 -12 12561.9 946.21 10
-2 -10 -12 12162.4 963.804 8
2 -10 12 12065.7 965.745 9
-2 -10 -12 13558.6 954.972 14
2 -10 12 13314.6 944.476 14
-2 -10 -11 21892.2 1267.22 10
-2 -10 -11 23623.5 1381.87 8
2 -10 11 23492.9 1393.19 9
2 -10 11 23256.4 1314.16 14
-2 -10 -11 23245.6 1293.25 14
-2 -10 -10 2201.52 480.284 8
2 -10 10 2290.26 471.121 9
-2 -10 -10 2477.31 474.293 10
2 -10 10 3117.41 526.663 14
-2 -10 -10 3126.8 499.894 14
-2 -10 -9 4306.35 622.096 8
-2 -10 -9 3960.33 566.594 10
2 -10 9 5380.13 705.907 9
2 -10 9 5039.92 664 14
-2 -10 -8 51961.1 1816.18 6
2 -10 8 48538.7 2179.57 8
-2 -10 -8 48851.3 1999.54 10
-2 -10 -8 49294 2130.63 8
2 -10 8 45160.4 2059.33 9
2 -10 8 48982.1 2116.84 14
-2 -10 -7 25530.2 1266.45 6
2 -10 7 22520.4 1480.77 8
-2 -10 -7 21731.2 1307.22 10
-2 -10 -7 22233.2 1396.81 8
2 -10 7 22213.5 1399.99 9
2 -10 7 22667 1430.15 14
-2 -10 -6 84661.2 2575.92 6
2 -10 6 80336.9 2924.46 8
-2 -10 -6 78883.7 2652.24 10
-2 -10 -6 81000 2846.37 8
2 -10 6 76712.3 2794.62 9
2 -10 6 82854.5 2944.07 14
-2 -10 -5 56120.9 2064.13 6
2 -10 5 51367.6 2321.72 8
-2 -10 -5 54177.9 2107.86 10
-2 -10 -5 52152.3 2195.92 8
2 -10 5 50173.9 2154.26 9
2 -10 5 52745.8 2308.49 14
-2 -10 -4 14542.2 1026.26 6
2 -10 4 15924.6 1246.22 8
-2 -10 -4 14172.8 1018.03 10
-2 -10 -4 15206 1128.17 8
2 -10 4 12455.8 1022.73 9
2 -10 4 15608 1233.16 14
-2 -10 -3 8913.5 820.208 6
2 -10 3 9545.47 972.371 8
-2 -10 -3 8354.36 767.54 10
-2 -10 -3 8918.19 854.334 8
2 -10 3 7896.48 794.824 9
2 -10 3 8287.36 907.15 14
-2 -10 -2 9830.18 861.081 6
2 -10 2 11080.3 1050.81 8
-2 -10 -2 8482.35 772.216 10
-2 -10 -2 10518.6 917.986 8
2 -10 2 8598.92 929.178 14
-2 -10 -2 11885.2 1150.28 16
-2 -10 -1 10638.2 912.328 6
2 -10 1 11900.7 1072.13 8
-2 -10 -1 10490.2 834.53 10
-2 -10 -1 9943.01 885.19 8
-2 -10 -1 11873.1 1146.92 16
2 -10 1 10563.2 1032.28 14
-2 -10 0 359.353 252.122 6
2 -10 0 960.205 371.002 8
-2 -10 0 960.98 403.963 16
2 -10 0 219.786 291.255 14
-2 -10 1 11406.5 941.949 6
2 -10 -1 10923.2 1048.99 8
-2 -10 1 10074 1083.53 9
-2 -10 1 11875 1142.84 16
2 -10 -1 10160.1 1038.94 14
-2 -10 2 10883.2 915.483 6
2 -10 -2 9033.73 946.449 8
-2 -10 2 8708.35 990.055 9
2 -10 -2 10570.9 1051.87 14
-2 -10 2 10135.3 1058.55 16
-2 -10 3 8729.76 820.09 6
2 -10 -3 9265.14 946.506 8
-2 -10 3 9818.74 1070.41 9
2 -10 -3 9080.55 985.813 14
-2 -10 3 8211.98 944.448 16
-2 -10 4 16215.9 1117.9 6
2 -10 -4 16326.5 1193.57 10
2 -10 -4 15160.7 1201.08 8
-2 -10 4 15413.4 1331.15 9
2 -10 -4 14436.9 1225.68 14
-2 -10 4 14666.9 1298.93 16
-2 -10 5 51533.1 2067.61 6
2 -10 -5 49342.2 2210.59 10
2 -10 -5 53845.8 2319.51 8
-2 -10 5 52977.6 2486.62 9
-2 -10 5 60230 2665.45 16
2 -10 -5 51531.6 2371.45 14
-2 -10 6 78576.9 2631.59 6
2 -10 -6 80610.9 2948.27 10
2 -10 -6 80853.2 2888.03 8
-2 -10 6 81676.3 3152.61 9
-2 -10 6 85304.3 3231.9 16
2 -10 -6 81970.2 3058.79 14
-2 -10 7 20077.5 1216.17 6
2 -10 -7 21221.2 1437.96 10
2 -10 -7 22923.2 1419.86 8
-2 -10 7 23576.3 1589.21 9
-2 -10 7 22257.5 1598.66 16
2 -10 -7 20819.5 1452.34 14
2 -10 -8 47132.8 2198.86 10
2 -10 -8 47404.1 2045.55 8
-2 -10 8 45258.6 1851.04 6
-2 -10 8 50452.2 2322.17 9
-2 -10 8 50181.2 2370.21 16
2 -10 -8 47592.3 2226.05 14
-2 -10 9 4201.44 547.86 6
2 -10 -9 4465.47 683.292 10
-2 -10 9 4760.21 715.201 9
2 -10 -9 4032.3 572.529 8
-2 -10 9 3656.96 647.992 16
2 -10 -9 4245.16 653.115 14
-2 -10 10 2222.48 394.389 6
-2 -10 10 3097.88 549.054 9
2 -10 -10 3036.45 599.615 10
2 -10 -10 2409.94 416.174 8
-2 -10 10 2489.44 567.274 16
2 -10 -10 2449.76 527.862 14
2 -10 -11 22837.1 1430.88 10
-2 -10 11 21260.8 1120.9 6
-2 -10 11 23497.6 1398.98 9
2 -10 -11 23178.3 1425.41 14
-2 -10 11 23702.7 1524.86 16
2 -10 -12 11929.5 1012.19 10
-2 -10 12 12557.1 976.861 9
-2 -10 12 13399.7 1110.66 16
2 -10 -12 12014.7 975.601 14
-2 -10 13 2726.62 452.781 9
2 -10 -13 3128.87 532.626 10
-2 -10 13 2712.74 522.628 16
2 -10 -13 2086.35 426.4 14
2 -10 -14 10419.3 875.962 10
-2 -10 14 11343.2 943.213 16
2 -10 -14 10834 820.634 14
2 -10 -15 37993.4 1627.55 10
2 -10 -15 38470 1484.1 14
-2 -10 15 41592.7 1748.85 16
2 -10 -16 18208 1016.83 10
2 -10 -16 17031 854.225 14
-2 -10 16 17471.4 1041.34 16
2 -10 -17 11357.6 727.208 10
-2 -10 17 11272.8 753.687 16
-2 -11 -15 19207.5 859.582 10
-2 -11 -15 18190.3 851.606 8
2 -11 15 19339.4 883.466 9
-2 -11 -14 6189.29 520.136 10
-2 -11 -14 6377.46 541.137 8
2 -11 14 6020.94 532.778 9
-2 -11 -13 992.703 258.437 8
2 -11 13 1617.86 318.743 9
-2 -11 -13 1753.29 321.139 10
2 -11 13 775.168 225.373 14
-2 -11 -12 565.238 246.717 8
2 -11 12 463.945 229.222 9
-2 -11 -12 730.49 262.346 10
2 -11 12 623.781 219.665 14
-2 -11 -11 5525.37 571.088 10
-2 -11 -11 5433.05 586.147 8
2 -11 11 4779.26 553.546 9
2 -11 11 5308.6 536.699 14
-2 -11 -10 1133.08 314.722 8
2 -11 10 984.816 322.634 9
-2 -11 -10 1637.24 379.796 10
2 -11 10 1666.04 343.099 14
-2 -11 -9 9442.74 779.464 10
-2 -11 -9 7611.44 730.891 8
2 -11 9 9499.03 823.104 9
2 -11 9 9195.61 767.372 14
-2 -11 -8 1529.9 372.266 8
2 -11 8 1502.5 358.98 9
-2 -11 -8 2105.45 401.397 10
2 -11 8 1795.76 417.688 14
-2 -11 -7 26544.9 1224.98 6
-2 -11 -7 27168.2 1356.73 10
-2 -11 -7 27084.3 1419.89 8
2 -11 7 23423.5 1325.9 9
2 -11 7 24706.2 1372.23 14
2 -11 6 6242.09 750.17 8
-2 -11 -6 5845.41 635.984 10
-2 -11 -6 5622 658.763 8
-2 -11 -6 5055.26 571.506 6
2 -11 6 5394.4 641.045 9
2 -11 6 5647.77 703.807 14
-2 -11 -5 71386.5 2278.64 6
2 -11 5 70241.7 2577.33 8
-2 -11 -5 67171.6 2269.03 10
-2 -11 -5 65833 2370.14 8
2 -11 5 65843.5 2345.51 9
2 -11 5 68987.8 2512.92 14
-2 -11 -4 10777.1 847.295 6
2 -11 4 10632.1 985.374 8
-2 -11 -4 10432.9 824.373 10
-2 -11 -4 10610.9 878.694 8
2 -11 4 9741.31 840.499 9
2 -11 4 11628.6 996.431 14
-2 -11 -3 21274.9 1216.97 6
2 -11 3 21163.1 1383.51 8
-2 -11 -3 20391.6 1136.37 10
-2 -11 -3 18548.5 1154.66 8
2 -11 3 20392.1 1344.28 14
-2 -11 -2 1045.67 360.048 6
-2 -11 -2 660.82 256.316 10
2 -11 2 808.013 355.179 8
-2 -11 -2 750.478 268.82 8
2 -11 2 698.482 334.112 14
-2 -11 -1 5960.89 662.602 6
2 -11 1 6166.66 761.466 8
2 -11 1 7631.74 836.534 14
-2 -11 0 36.2938 257.642 6
2 -11 0 285.088 258.426 8
-2 -11 0 113.218 317.69 16
2 -11 0 163.542 292.79 14
-2 -11 1 7265.27 759.486 6
2 -11 -1 7521.2 814.138 8
-2 -11 1 7697.59 907.818 16
2 -11 -1 6134.06 767.077 14
-2 -11 2 515.938 274.85 6
2 -11 -2 637.815 285.57 8
-2 -11 2 520.086 334.165 16
2 -11 -2 474.296 317.477 14
-2 -11 3 21440.5 1275 6
2 -11 -3 22669.9 1400.95 8
2 -11 -3 24509.6 1502.09 14
-2 -11 3 19854.1 1427.3 16
2 -11 -4 8979.23 884.586 8
-2 -11 4 9407.09 844.217 6
2 -11 -4 10295.6 962.166 14
-2 -11 4 9308.6 979.761 16
2 -11 -5 66741 2484.64 8
-2 -11 5 70102.5 2401.52 6
-2 -11 5 72454.3 2793 9
2 -11 -5 70084 2637.14 14
-2 -11 5 73956.6 2809.5 16
-2 -11 6 4488.91 687.643 9
2 -11 -6 4760.73 626.279 8
-2 -11 6 4659.95 587.693 6
2 -11 -6 4212.64 573.238 10
2 -11 -6 6171.9 758.454 14
-2 -11 6 5339.63 748.751 16
2 -11 -7 26992.6 1446.15 10
2 -11 -7 28120.2 1448.86 8
-2 -11 7 24653.5 1304.11 6
-2 -11 7 26830.1 1572.81 9
-2 -11 7 25636.2 1556.99 16
2 -11 -7 26329.6 1513.07 14
-2 -11 8 1788.29 361.662 6
-2 -11 8 2106.62 479.818 9
2 -11 -8 1894.03 451.769 10
2 -11 -8 1361.43 338.264 8
2 -11 -8 2006.35 439.608 14
-2 -11 8 2210.96 511.548 16
2 -11 -9 8949.39 829.712 10
2 -11 -9 9844.55 762.713 8
-2 -11 9 8754.78 708.021 6
-2 -11 9 9291.41 863.844 9
-2 -11 9 10008.6 939.65 16
2 -11 -9 9054.05 837.681 14
-2 -11 10 1770.97 346.676 6
-2 -11 10 1743.64 386.493 9
2 -11 -10 1299.45 332.25 10
2 -11 -10 2030.47 350.346 8
-2 -11 10 1532.5 439.52 16
2 -11 -10 1235.06 344.909 14
2 -11 -11 5148.82 606.369 10
-2 -11 11 6135.41 706.983 16
2 -11 -11 6974.45 681.384 14
2 -11 -12 763.326 261.65 10
-2 -11 12 963.137 331.544 16
2 -11 -12 617.219 257.984 14
2 -11 -13 1067.45 301.462 10
-2 -11 13 1479.85 333.138 16
2 -11 -13 1122.57 284.882 14
2 -11 -14 5757.61 543.202 10
2 -11 -14 6742.53 522.879 14
-2 -11 14 6085.97 576.792 16
2 -11 -15 17925.2 886.13 10
-2 -11 15 20233.3 962.629 16
-2 -12 -12 2968.17 320.725 10
-2 -12 -11 3207.99 361.191 10
-2 -12 -11 2842.92 334.83 8
2 -12 11 2761.7 336.782 9
-2 -12 -10 2558.52 344.278 10
2 -12 10 2895.83 364.392 9
-2 -12 -10 2621.79 337.242 8
2 -12 10 3005.06 334.592 14
2 -12 9 2086.4 322.569 9
-2 -12 -9 2227.76 342.432 10
-2 -12 -9 1809.71 303.811 8
2 -12 9 1982.42 306.716 14
2 -12 8 899.761 230.111 9
-2 -12 -8 1544.26 292.422 10
-2 -12 -8 822.287 225.795 8
2 -12 8 992.609 249.794 14
-2 -12 -7 29187.2 1237.24 10
-2 -12 -7 30080.6 1288.94 8
-2 -12 -6 894.226 232.224 6
-2 -12 -6 607.955 231.231 10
-2 -12 -6 750.259 235.291 8
2 -12 6 954.088 290.354 14
-2 -12 -5 13236.9 794.837 10
-2 -12 -5 13089.6 833.676 8
-2 -12 -5 11490.7 766.156 6
2 -12 5 13879.6 923.774 14
-2 -12 -4 33550.2 1399.67 6
2 -12 4 34628.2 1573.82 8
2 -12 4 34193 1522.28 14
2 -12 3 19926.6 1187.9 8
-2 -12 -3 17865.3 1025.83 6
2 -12 3 18524.3 1116.9 14
2 -12 2 16862.1 1102.78 8
-2 -12 -2 18433.6 1065.66 6
2 -12 2 15583.7 1045.56 14
2 -12 1 7463.73 742.721 8
-2 -12 -1 8011.3 717.554 6
2 -12 1 7492.71 740.252 14
2 -12 0 9598.13 837.389 8
-2 -12 0 9046.27 768.645 6
2 -12 0 9013.19 829.646 14
2 -12 -1 8545.63 784.022 8
-2 -12 1 7420.78 708.3 6
2 -12 -1 7889.63 770.888 14
-2 -12 2 17000.1 1039.36 6
2 -12 -2 16559.4 1077.63 8
2 -12 -2 16555.2 1099.54 14
-2 -12 3 18217 1084.01 6
2 -12 -3 17429.2 1086.4 8
2 -12 -3 18921.9 1164.15 14
-2 -12 3 20020.6 1260.95 16
2 -12 -4 34728.5 1532.42 8
-2 -12 4 33322.4 1472.17 6
-2 -12 4 34604.7 1664.67 16
2 -12 -4 35828.3 1618.58 14
2 -12 -5 13530.9 911.845 8
-2 -12 5 11698.9 839.93 6
-2 -12 5 14457.1 1032.25 16
2 -12 -5 12111.1 922.37 14
-2 -12 6 658.641 255.984 6
2 -12 -6 938.017 296.811 8
-2 -12 6 659.138 302.375 16
2 -12 -6 1259.57 330.343 14
-2 -12 7 31242.1 1323.94 6
2 -12 -7 30764.8 1299.47 8
2 -12 -7 33342.6 1476.4 14
-2 -12 7 33932.8 1560.18 16
-2 -12 8 1276.75 273.245 6
2 -12 -8 1980.29 321.142 8
-2 -12 8 1223.89 337.871 16
2 -12 -8 981.024 283.253 14
-2 -12 9 1827.02 291.049 6
-2 -12 9 2962.7 462.781 16
2 -12 -9 2568.49 386.992 14
2 -12 -10 2969.46 364.81 10
2 -12 -10 3353.13 417.859 14
-2 -12 10 3556.74 457.406 16
2 -12 -11 3676 393.208 14
-2 -12 11 4382.19 468.734 16
-2 -12 12 3049.46 365.419 16
2 -13 5 18012.6 803.4 14
2 -13 4 10048.2 617.05 14
-2 -13 -3 12351.4 683.868 6
2 -13 3 12463.5 722.649 14
-2 -13 -2 11088.9 675.616 6
2 -13 2 11947 723.509 14
-2 -13 -1 19480.6 936.013 6
2 -13 1 18636.5 958.624 8
2 -13 1 20125.3 965.592 14
-2 -13 0 5556.26 508.874 6
2 -13 0 5711.99 528.465 8
2 -13 0 5633.42 516.271 14
-2 -13 1 20736.2 988.242 6
2 -13 -1 20557.5 992.921 8
2 -13 -1 20229 986.867 14
-2 -13 2 11428.4 723.42 6
2 -13 -2 12382.4 751.18 8
2 -13 -2 11444.7 733.053 14
2 -13 -3 13141.5 750.022 8
-2 -13 3 12125.5 741.262 6
2 -13 -3 12601 767.462 14
2 -13 -4 10440.9 639.81 8
-2 -13 4 10199.4 659.731 6
2 -13 -4 10269.2 676.216 14
-2 -13 5 16024.5 804.874 6
2 -13 -5 17924.8 875.014 14
-2 -13 6 16932.3 787.496 6
2 -13 -6 18562.2 866.449 14
2 -13 -7 8611.5 552.596 14
3 0 0 422.064 212.674 2
-3 0 0 125.764 146.15 23
3 0 1 43607.5 1707.32 1
3 0 -1 41736.1 1649.88 1
3 0 1 41980.4 1623.16 2
3 0 -1 39880.9 1579.54 2
-3 0 -1 42942.7 1727.65 23
-3 0 1 41452.6 1658.03 23
3 0 -2 1474.86 309.958 1
3 0 2 1396.28 329.834 1
3 0 2 2077.87 362.597 2
3 0 -2 819.341 264.844 2
-3 0 -2 1645.7 339.398 23
-3 0 2 1697.97 339.565 23
3 0 3 65499.8 2168.4 2
3 0 -3 72414.3 2211.89 1
3 0 -3 67195.2 2143.19 2
3 0 3 65620.1 2274.46 1
-3 0 -3 69898.8 2322.99 23
-3 0 3 70461.3 2260.74 23
3 0 4 25715.2 1266.74 2
3 0 4 29015.7 1422.12 1
3 0 -4 26553 1254.47 2
3 0 -4 27764 1275.37 1
-3 0 4 27530 1313.84 23
-3 0 -4 27806.5 1394.46 23
3 0 -5 216815 4641.04 1
3 0 5 214695 4968.92 1
3 0 -5 202329 4593.16 2
-3 0 -5 210988 4919.22 23
-3 0 5 217719 4756.5 23
3 0 -6 97451.8 2678.66 1
3 0 6 94070.2 2947.12 1
3 0 -6 93565.9 2659.39 2
3 0 -6 96395.5 2578.11 4
-3 0 6 96916 2776.66 23
-3 0 -6 93329.8 2921.82 23
3 0 7 207691 5041.51 1
3 0 -7 205504 4601.23 2
3 0 -7 216322 4650.16 4
-3 0 -7 205978 4966.23 23
3 0 -8 3040.83 445.086 4
3 0 -8 3081.11 442.312 2
3 0 8 2467.66 463.956 1
-3 0 -8 2478.77 455.25 23
3 0 -9 7656.94 689.086 2
3 0 9 8398.92 846.336 1
3 0 -9 7865.13 750.985 4
-3 0 -9 6798.22 738.513 23
-3 0 -9 7737.46 796.946 22
3 0 -10 1775.74 411.843 4
3 0 -10 1070.55 301.881 2
3 0 10 1747.06 406.702 1
-3 0 -10 1532.13 390.454 23
-3 0 -10 1304.71 367.625 22
-3 0 10 1189.04 357.539 18
3 0 10 1470.76 298.087 17
3 0 10 1447.47 322.586 14
3 0 -11 22016 1485.43 7
3 0 -11 24395.2 1454.17 4
3 0 -11 22004.1 1226.99 2
3 0 11 23368.4 1483.31 1
-3 0 -11 23492.3 1453.47 23
3 0 11 24954.3 1148.91 19
-3 0 -11 24463.3 1534.89 22
-3 0 11 19747.4 1425.94 18
3 0 11 24774.3 1392.21 14
3 0 11 25855.3 1238.49 17
-3 0 -11 24388.1 1090.58 13
3 0 -12 25846.2 1660.26 7
3 0 -12 29980 1695.69 4
-3 0 12 31812.1 1788.16 3
3 0 -12 30343 1469.79 2
3 0 12 29087.4 1696.02 1
3 0 12 31504.6 1333.02 19
-3 0 -12 30356.6 1793.46 22
-3 0 12 27262.4 1702.31 18
3 0 12 30529.5 1595.56 14
-3 0 -12 32101.8 1295.14 13
3 0 -13 524.674 320.773 7
3 0 -13 389.909 244.402 4
-3 0 13 1035.07 412.899 3
3 0 -13 626.456 256.956 2
3 0 13 391.865 208.883 3
3 0 13 -1.86589 218.569 1
3 0 13 416.273 195.623 19
-3 0 -13 958.906 409.52 22
-3 0 -13 180.711 143.573 13
-3 0 13 847.143 374.972 18
3 0 -14 2752.74 593.638 7
3 0 -14 2037.37 466.377 4
3 0 -14 3278.53 482.583 2
3 0 14 2961.89 472.655 3
-3 0 -14 3138.83 622.772 22
3 0 14 3992.01 483.267 19
-3 0 -14 2929.15 396.264 13
-3 0 14 3200.25 602.784 18
3 0 -15 20716.1 1536.84 7
3 0 15 25724.2 1232.48 19
-3 0 -15 20319.8 1582.75 22
-3 0 15 20878.2 1541.87 18
-3 0 -15 26277.8 1183.73 13
3 0 -16 1140.88 395.185 7
3 0 16 1401.91 324.744 19
3 0 16 1752.51 340.08 18
-3 0 16 1418.58 451.828 18
3 0 -17 61698.1 2666.31 7
3 0 17 64611.9 2082.28 19
-3 0 17 64136.4 2747.95 18
3 0 17 64005.2 2037.37 18
-3 0 -18 29178.1 1429.28 7
3 0 -18 27243.3 1662.72 7
3 0 18 27433.6 1261.06 19
3 0 18 28910.9 1259.92 18
-3 0 18 28337.5 1738.22 18
3 0 -18 27946.4 1839.79 12
-3 0 -19 48805.5 1872.83 7
3 0 -19 44843.6 2094.01 7
-3 0 19 46105.3 2183.22 18
3 0 19 46763.8 1643.05 18
3 0 19 47452.4 1664.03 19
3 0 -19 48096.5 2345.96 12
-3 0 -20 13726.6 924.73 7
3 0 -20 12295.9 1012.81 7
3 0 20 13035.3 793.756 18
-3 0 20 13505.5 1101.45 18
3 0 -20 13342.5 1156.26 12
-3 0 20 12756.2 1031.02 16
-3 0 -21 45931.4 1710.68 7
-3 0 21 45680.5 1978.94 18
3 0 21 43998.8 1512.28 18
3 0 -21 45196.2 2061.73 12
-3 0 21 46781.3 1908.11 16
-3 0 -22 3170.45 413.983 7
3 0 -22 3291.97 535.787 12
3 0 22 3262.67 361.958 18
-3 0 22 3866.96 501.778 16
-3 0 22 3384.84 485.828 18
3 0 23 7076.57 487.077 9
-3 0 -23 6519.47 546.993 7
-3 0 23 7032.13 613.14 18
3 0 -23 7107.4 672.946 12
-3 0 23 6574.48 583.264 16
-3 0 -24 220.139 137.708 7
3 0 -24 113.058 147.919 12
-3 -1 -24 2830.47 324.668 7
-3 1 24 3744.74 406.533 18
3 1 -24 3169.04 410.117 12
3 -1 23 6450.06 485.99 9
-3 -1 -23 6303.27 524.764 7
-3 1 23 6549.19 615.853 18
3 1 -23 6431.96 650.84 12
-3 1 23 5879 547.839 16
3 -1 22 9646.67 678.497 9
-3 -1 -22 9513.94 694.666 7
-3 1 22 10160.7 852.68 18
3 1 -22 9691.06 873.24 12
-3 1 22 8932.87 735.985 16
-3 -1 -21 9783.3 746.026 7
-3 1 21 12594.2 1014.97 18
3 1 -21 9677.52 942.499 12
-3 1 21 10974.5 876.466 16
3 1 -20 357.303 335.906 12
-3 -1 -20 326.246 205.399 7
-3 1 20 267.895 282.045 18
3 -1 20 128.957 142.074 18
-3 -1 -19 17593.1 1077.07 7
3 -1 19 18367.8 1009.89 19
3 -1 19 19059.8 947.56 18
-3 1 19 17021.8 1328.7 18
-3 -1 -18 3642.12 515.592 7
3 -1 18 3556.76 472.951 19
3 -1 18 3372.42 420.95 18
-3 1 18 3020.27 604.455 18
-3 -1 -17 96939.5 2901.02 7
3 -1 17 100432 2783.76 19
3 -1 17 96815.1 2592.42 18
-3 1 17 90129.4 3437.39 18
-3 -1 -17 104967 2685.68 13
3 -1 16 21156.3 1137.12 19
-3 1 16 18456 1475.98 18
-3 -1 -16 21073.6 1066.3 13
3 -1 16 19372.1 1018.54 18
3 -1 15 5021.1 553.008 19
-3 1 15 6100.73 863.949 18
-3 -1 -15 6214.96 578.993 13
3 1 -14 438.922 190.422 2
3 -1 14 -151.703 233.614 3
3 -1 14 395.364 222.17 19
-3 -1 -14 541.67 304.667 22
-3 -1 -14 -113.443 163.303 13
3 -1 14 216.181 221.815 14
-3 1 14 539.531 322.682 18
3 1 -13 1720.02 366.578 2
3 -1 13 1279.91 332.164 3
3 -1 13 1378.01 304.738 19
-3 -1 -13 2114.26 504.412 22
-3 -1 -13 1820.48 353.716 13
3 -1 13 1413.36 404.18 14
-3 1 13 1805.85 491.823 18
3 1 -12 6454.63 658.39 2
3 -1 12 5955.42 627.041 3
3 -1 12 6159.56 584.284 19
-3 -1 -12 5782.22 792.024 22
-3 1 12 6810.85 848.942 18
3 -1 12 5611.21 686.014 14
3 -1 12 5939.83 616.964 17
-3 -1 -12 6968.1 599.492 13
3 1 -11 28086.4 1393.88 2
3 -1 11 26208.3 1489.02 1
3 -1 11 27445.4 1232.46 19
-3 -1 -11 27913.5 1681.87 22
-3 1 11 22857 1542.87 18
3 -1 11 28816.4 1529.35 14
-3 -1 -11 27760.6 1196.69 13
3 -1 11 29011 1345.43 17
3 1 -10 59878.5 2123.43 2
3 -1 10 57378.4 2283.78 1
-3 1 10 57513 2465.21 18
3 -1 10 61094.6 2271.09 14
3 -1 10 65127.5 2094.26 17
-3 -1 -10 59743.6 1856.09 13
3 1 -9 4883.78 560.702 2
3 -1 9 4567.46 612.505 1
-3 -1 -9 5702.83 653.459 20
-3 1 9 4269.12 622.792 18
-3 -1 -8 26442.9 1372.97 23
3 -1 8 27811.1 1466.39 1
3 1 -8 27668.2 1337.94 2
-3 -1 -7 55509.9 2038.59 23
-3 1 7 56372.5 2026.27 23
3 1 -7 54206.8 1859.24 1
3 -1 7 53704.9 2085.88 1
3 1 -7 53751.8 1928.12 2
-3 1 6 46529.7 1797.21 23
-3 -1 -6 43833.8 1753.06 23
3 1 -6 42999.7 1613.49 1
3 -1 6 44918.6 1354.66 5
3 -1 6 40589.5 1632.79 2
3 1 -6 44474.2 1710.74 2
3 -1 6 42955 1816.53 1
-3 1 5 50835.7 1887.45 23
-3 -1 -5 49153.6 1838.1 23
3 -1 5 49237.5 1502.6 5
3 -1 5 48432.1 1766.53 2
3 1 -5 48135.7 1811.99 2
3 1 -5 47034 1724.19 1
3 -1 5 48444.1 1928.65 1
-3 1 4 157010 3852.03 23
-3 -1 -4 157923 3795.15 23
3 -1 4 151873 3877.92 1
3 -1 4 152137 3347.53 5
3 1 -4 154505 3663.7 1
3 -1 4 154346 3679.39 2
3 1 -4 152866 3741.66 2
-3 -1 -3 64816.6 2144.92 23
-3 1 3 63552.5 2201.43 23
3 -1 3 65446.5 2208.25 1
3 1 -3 67924.6 2153.29 1
3 -1 3 66137.4 2089.8 2
3 1 -3 67253.4 2180.03 2
-3 -1 -2 28325.7 1321.7 23
-3 1 2 25757.1 1337.3 23
3 1 -2 28447.6 1330.65 1
3 -1 2 31634 1342.89 2
3 1 -2 28944.7 1348.26 2
-3 -1 -1 21830.5 1143.37 23
-3 1 1 22064.1 1224.75 23
3 1 -1 23591.8 1205.44 1
3 -1 1 22635 1192.35 1
3 1 -1 22656.6 1191.71 2
3 -1 1 23016.2 1119.23 2
-3 -1 0 33212.3 1408.61 23
-3 1 0 32790 1523.81 23
3 1 0 29403.4 1384.46 1
3 -1 0 30500.9 1389.02 1
3 1 0 30113.5 1399.53 2
3 -1 0 29716.9 1285.22 2
-3 -1 1 21411.4 1117.46 23
-3 1 -1 22408 1252.5 23
3 -1 -1 22669 1172.27 1
3 1 1 20556.7 1146.81 2
3 -1 -1 21985.1 1080.06 2
3 1 1 22625.6 1213.95 1
-3 1 -2 28155.2 1438.97 23
-3 -1 2 28235.7 1288.81 23
3 1 2 27801.3 1351.87 2
3 1 2 29838.4 1419.81 1
3 -1 -2 30196.6 1345.15 1
3 -1 -2 29862 1280.79 2
-3 1 -3 67391 2348.73 23
-3 -1 3 68240.2 2114.92 23
3 -1 -3 65426.8 2110.82 1
3 1 3 62677 2158.78 2
3 1 3 65830.2 2273.56 1
3 -1 -3 65238.8 2047.35 2
-3 1 -4 158183 4075.09 23
-3 -1 4 159926 3743.99 23
3 -1 -4 158931 3730.47 1
3 1 4 152729 3984.67 1
3 -1 -4 154065 3420.22 4
3 -1 -4 153032 3624.46 2
-3 -1 5 53017.3 1870.2 23
-3 1 -5 50525.1 2054.56 23
3 1 5 50177.1 2037.84 1
3 -1 -5 51506.1 1807.76 1
3 -1 -5 48649.3 1673.56 4
3 -1 -5 47988 1725.67 2
-3 1 -6 42720.4 1900.68 23
3 1 6 43138 1910.09 1
3 -1 -6 44192.8 1650.21 4
3 -1 -6 44709.3 1659.53 2
-3 1 -7 53379.1 2204.06 23
3 -1 -7 55074.5 1877.26 2
3 1 7 52651.5 2175.28 1
3 -1 -7 53671.3 1947.65 4
-3 1 -8 25475.2 1513.55 23
-3 1 -8 31264.9 1508.69 22
3 -1 -8 29001.1 1320.8 2
3 1 8 27604.3 1558.81 1
3 -1 -8 26844.8 1390.13 4
3 -1 -9 4237.27 682.584 12
3 -1 -9 4650.47 533.407 2
3 1 9 4310.19 631.22 1
3 -1 -9 5611.44 659.104 4
-3 1 -9 4788.67 672.602 23
-3 1 -9 5262.94 641.579 22
3 -1 -10 56251.3 2490.22 7
-3 -1 10 58541.9 2489.39 3
3 -1 -10 60237.6 2096.81 2
3 1 10 54963.2 2408.82 1
3 -1 -10 58657.7 2333.07 4
-3 1 -10 56380.2 2440.31 23
-3 -1 10 63670.6 2536.89 20
-3 1 -10 59059.1 2349.46 22
-3 -1 10 59526.4 2471.01 18
3 1 10 62958.4 1968.21 17
3 -1 -10 61466.7 2676.78 12
3 -1 -11 27265.9 1712.67 7
-3 -1 11 27560.5 1703.05 3
3 -1 -11 26544.9 1348.15 2
3 1 11 23805.6 1580.46 1
3 -1 -11 27755.7 1599.15 4
-3 1 -11 27211.7 1677.95 23
3 1 11 29532.7 1234.95 19
-3 -1 11 26845.2 1636.96 20
-3 1 -11 28788 1649.38 22
-3 -1 11 27378.1 1641.31 18
3 -1 -11 20847 1592.84 12
3 -1 -12 6406.02 890.667 12
3 -1 -12 5857.15 824.617 7
-3 -1 12 6879.5 871.427 3
3 -1 -12 6143.59 649.651 2
3 1 12 6119.05 800.449 1
3 -1 -12 5774.93 764.74 4
-3 1 -12 4469.13 702.082 23
3 1 12 7132.29 596.148 19
-3 -1 12 6814.27 847.219 20
-3 1 -12 6369.63 803.806 22
-3 -1 12 5643.88 760.404 18
3 -1 -13 1687.9 501.472 7
3 -1 -13 1190.75 392.8 12
3 -1 -13 1454.6 392.738 4
3 1 13 1365.17 425.339 1
-3 -1 13 1523.81 433.777 3
3 -1 -13 1230.26 316.194 2
-3 1 -13 1551.65 459.406 23
3 1 13 2092.08 322.751 19
-3 1 -13 2047.67 462.569 22
-3 -1 13 1497.98 442.111 18
3 -1 -14 279.569 371.279 12
3 -1 -14 555.375 295.618 7
3 -1 -14 -29.8138 299.278 4
3 1 14 -750.42 330.002 1
-3 -1 14 717.152 323.023 3
3 -1 -14 186.751 190.204 2
3 1 14 377.744 191.018 3
3 1 14 494.076 188.455 19
-3 1 -14 -738.347 349.814 22
-3 -1 14 672.492 329.356 20
-3 -1 14 384.536 322.544 18
3 -1 -15 4043.99 734.029 12
3 -1 -15 3827.39 709.418 7
3 1 15 6284.84 582.378 19
-3 -1 15 5890.46 795.623 20
-3 -1 15 4984.08 748.071 18
3 -1 -16 17399.5 1452.95 7
3 1 16 19948.2 1036.6 19
-3 -1 16 19656.3 1447.16 20
-3 -1 16 20359.5 1472.65 18
3 -1 -16 17618.9 1489.38 12
-3 -1 16 19496.6 1392.83 16
3 1 16 18912.4 1055.24 18
3 -1 -17 89871.5 3437.53 7
3 1 17 98513.5 2637.44 19
-3 -1 17 101375 3421.21 20
-3 -1 17 96870.5 3393.88 18
3 1 17 92947.6 2643.47 18
3 -1 -17 93364.9 3602.49 12
-3 -1 17 100967 3395.62 16
3 -1 -18 3287.38 665.833 12
3 -1 -18 2679.15 594.651 7
3 1 18 3371.17 433.34 19
3 1 18 3469.87 456.916 18
-3 -1 18 3375.45 569.29 20
-3 -1 18 3550.22 652.215 18
-3 -1 18 3004.23 561.336 16
3 -1 -19 18485.9 1353.75 7
-3 1 -19 18371.6 1109.05 7
3 1 19 18084.8 1000.24 18
-3 -1 19 16222.4 1216.36 18
3 -1 -19 17220.9 1358.47 12
-3 -1 19 18422.2 1279.21 16
-3 1 -20 212.615 255.52 7
3 -1 -20 57.2041 220.103 7
3 -1 -20 293.126 233.855 12
3 1 20 51.4631 193.418 18
-3 -1 20 508.044 288.109 16
-3 -1 20 -71.6671 215.15 18
-3 1 -21 11140.9 799.152 7
-3 -1 21 9280.6 814.64 18
3 1 21 9102.08 658.909 18
3 -1 -21 10827.1 955.456 12
-3 -1 21 11805.3 931.176 16
-3 1 -22 9000.3 684.597 7
3 1 22 9705.68 632.052 18
3 -1 -22 8912.62 794.383 12
-3 -1 22 9584.52 788.27 16
-3 1 -23 7584.18 581.439 7
3 1 23 6603.1 486.753 18
3 -1 -23 5994.18 583.978 12
-3 -1 23 5598.92 535.198 16
-3 1 -24 3597.16 377.088 7
3 1 24 2605.39 273.534 18
-3 2 24 20292.5 957.964 18
3 2 -24 18485.1 979.895 12
3 -2 23 11595.9 646.659 9
-3 -2 -23 11610.8 678.149 7
-3 2 23 12617.1 859.239 18
3 2 -23 11890.6 874.021 12
-3 2 23 9815.4 643.046 16
3 -2 22 11672.7 740.365 9
-3 -2 -22 10590.7 713.12 7
-3 2 22 10287.4 856.177 18
3 2 -22 10763.9 903.293 12
-3 2 22 9057.61 715.05 16
3 -2 21 12837.8 867.436 9
-3 -2 -21 12677 824.889 7
-3 2 21 12314.7 1030.38 18
3 2 -21 12341 1038.97 12
-3 -2 -20 26294.3 1268.96 7
-3 2 20 27064 1614.2 18
3 -2 20 28216.7 1224.79 19
-3 -2 -19 129924 3368.81 7
3 -2 19 127539 3211.5 19
-3 2 19 129137 4036.41 18
-3 -2 -18 7278.72 692.819 7
3 -2 18 6680.9 639.26 19
-3 2 18 5977.13 839.461 18
-3 -2 -17 40163.3 1681.77 7
3 -2 17 39629.1 1605.44 19
-3 2 17 40295.3 2179.61 18
-3 -2 -17 40546.9 1540.92 13
-3 -2 -16 18662 1115.73 7
3 -2 16 16098.7 1003.5 19
-3 2 16 16802.5 1425.91 18
3 -2 16 17971.8 1287.44 14
-3 -2 -16 18248.1 1016.91 13
-3 -2 -15 13822.5 943.135 7
-3 2 15 11073.2 1140.91 18
3 -2 15 14133.8 937.845 19
3 -2 15 15446.3 1180.65 14
-3 -2 -15 13083 863.045 13
3 2 -14 4202.99 552.298 2
3 -2 14 3956.44 538.593 3
3 -2 14 4912.68 567.428 19
-3 -2 -14 4292.28 503.516 13
3 -2 14 3778.22 606.481 14
-3 2 14 3585.2 692.59 18
3 2 -13 48233.8 1934.26 2
3 -2 13 48104.8 1935.36 3
-3 2 13 48474.8 2426.4 18
3 -2 13 49661.8 1812.94 19
3 -2 13 46366.9 2111.98 14
-3 -2 -13 46800.4 1716.44 13
3 2 -12 2598.75 438.537 2
3 -2 12 3367.2 497.866 3
3 -2 12 2870.56 425.226 19
3 -2 12 3072.9 463.562 17
-3 -2 -12 3031.79 407.636 13
3 -2 12 3434.66 572.646 14
-3 2 12 2233 567.6 18
3 2 -11 51591.9 1975.98 2
3 -2 11 47896.4 1843.29 3
-3 2 11 50827.7 2353.31 18
3 -2 11 46737.7 2049.89 14
3 -2 11 54119.9 1929.32 17
-3 -2 -11 50650 1734.41 13
3 2 -10 14146.9 967.159 2
-3 2 10 12618.7 1114.53 18
3 -2 10 16024.8 1110.16 14
-3 -2 -10 14276.8 905.904 15
-3 -2 -10 12349.4 788.968 13
3 -2 10 15052.5 949.802 17
3 -2 9 22697.8 1290.38 1
3 2 -9 22185.3 1221.18 2
-3 -2 -9 26697.6 1441.29 20
-3 2 9 22314.8 1453.87 18
3 -2 9 22831.7 1189.28 17
3 -2 9 25814.1 1294.61 12
3 -2 9 23712.2 1346.05 14
-3 -2 -9 24724.2 1190.89 15
3 2 -8 814.202 281.363 2
-3 2 8 1216.28 317.809 23
3 -2 7 15877.2 1047.62 1
3 2 -7 15705.1 922.54 1
3 2 -7 16637.6 1039.87 2
-3 2 7 16713.2 1051.58 23
3 2 -6 13868.4 869.253 1
3 -2 6 13653.4 952.986 1
3 -2 6 14597.4 728.402 5
3 2 -6 13107.1 929.04 2
-3 2 6 14646 987.697 23
3 2 -5 3239.31 461.246 2
3 -2 5 3640.95 376.18 5
3 -2 5 3310.48 470.401 1
3 2 -5 2501.96 375.121 1
-3 -2 -5 2961.88 409.794 23
-3 2 5 2752.14 448.326 23
3 -2 4 99123.3 2852.87 1
3 2 -4 97385.3 2733.11 1
3 -2 4 94757.8 2411.64 5
3 -2 4 98689.1 2587.64 2
3 2 -4 97477.5 2833.36 2
-3 -2 -4 97233.3 2623.59 23
-3 2 4 98428.3 2936.22 23
3 2 -3 161607 3875.84 1
3 -2 3 161911 3927.99 1
3 -2 3 163162 3578.6 5
3 -2 3 161895 3646.73 2
3 2 -3 161187 3960.79 2
-3 -2 -3 165800 3772.01 23
-3 2 3 166351 4102.02 23
3 2 -2 44145.5 1742.8 1
3 -2 2 45227.1 1748.66 1
3 -2 2 45688.8 1580.31 5
3 2 -2 47066.7 1836.97 2
3 -2 2 47436 1595.93 2
-3 2 2 46115.5 1883.57 23
-3 -2 -2 48199.6 1680.97 23
3 -2 1 143138 3408.4 5
3 -2 1 152680 3672.23 1
3 2 -1 143587 3729.98 2
3 -2 1 152701 3421.83 2
3 2 -1 143029 3662.03 1
-3 -2 -1 150793 3500.22 23
-3 2 1 151658 3903.11 23
3 -2 0 1510.03 327.175 1
3 2 0 1014.56 305.675 2
3 -2 0 1850.44 304.788 2
3 2 0 1400.11 322.281 1
-3 2 0 1147.99 337.513 23
-3 -2 0 1168.03 267.291 23
3 -2 -1 148622 3616.59 1
3 2 1 143905 3761.07 2
3 2 1 143715 3730.3 1
3 -2 -1 157574 3463.96 2
-3 2 -1 148185 3944.94 23
-3 -2 1 149836 3503.28 23
3 -2 -2 48824.3 1778.14 1
3 2 2 45392.3 1844.01 2
3 2 2 47620.1 1880.77 1
3 -2 -2 45811.8 1477.08 4
3 -2 -2 45652.5 1579.5 2
-3 2 -2 47810.7 1980.06 23
-3 -2 2 46769.5 1661.33 23
-3 2 -2 46495.8 1545.14 21
3 -2 -3 172408 3899.35 1
3 2 3 162394 4146.24 1
3 -2 -3 159911 3587.08 4
3 -2 -3 163093 3673.61 2
-3 2 -3 165874 4309.6 23
3 2 4 97427.2 2989.54 1
3 -2 -4 95244.9 2567 4
3 -2 -4 96082.3 2568.89 2
-3 2 -4 99192.9 3112.9 23
3 -2 -5 3284.76 410.632 2
3 -2 -5 2307.14 360.4 4
3 2 5 4034.85 563.136 1
-3 2 -5 3315.26 534.608 23
3 -2 -6 14750.8 878.648 2
3 2 6 13034.2 1033.18 1
3 -2 -6 13922.4 928.494 4
-3 2 -6 15029.2 1143.82 23
3 -2 -7 15700.8 924.975 2
3 2 7 15574.8 1158.54 1
3 -2 -7 17214.3 1074.15 4
-3 2 -7 14163.1 1134.45 23
3 -2 -8 181.826 161.65 4
3 2 8 -539.937 276.731 1
3 -2 -8 125.973 167.846 2
-3 2 -8 -34.7816 234.17 23
-3 2 -8 118.805 204.539 22
3 -2 -9 20851.5 1368.16 10
3 -2 -9 22494.5 1521.27 7
-3 -2 9 23843.5 1540 3
3 -2 -9 21889.5 1169.78 2
3 2 9 22984.5 1500.57 1
3 -2 -9 24609.2 1417.78 4
-3 2 -9 22958.1 1523.74 23
-3 -2 9 24329.1 1523.95 20
-3 2 -9 25722.5 1372.75 22
-3 -2 9 24651.2 1490.49 18
3 -2 -9 26354 1661.55 12
3 -2 -10 13231.6 1102.98 10
3 -2 -10 12756.9 1171.49 7
-3 -2 10 12007.1 1138.87 3
3 -2 -10 12848.7 898.191 2
3 2 10 9614.82 1002.41 1
3 -2 -10 13268.7 1097.03 4
-3 2 -10 13171 1185.42 23
-3 -2 10 13315.4 1161.06 20
-3 -2 10 11894 1043.82 18
3 -2 -10 13994.5 1217.29 12
3 -2 -11 47976.5 2392.52 7
3 -2 -11 52457.1 2259.92 10
-3 -2 11 53472.2 2512.1 3
3 -2 -11 50318.9 1923.15 2
3 2 11 50011.4 2377.62 1
3 -2 -11 49059.1 2235.09 4
-3 2 -11 44445.8 2292.99 23
-3 -2 11 48976.5 2322.36 20
-3 2 -11 49576.9 2162.06 22
-3 -2 11 46324.8 2182.65 18
3 -2 -11 46933.6 2379.58 12
3 -2 -12 2561.29 563.489 7
3 -2 -12 1415.03 443.572 12
3 -2 -12 2737.56 550.578 10
3 -2 -12 2708.02 568.377 4
3 2 12 2704.64 597.32 1
-3 -2 12 4288.44 724.801 3
3 -2 -12 3398.35 501.524 2
-3 2 -12 3652.55 620.624 22
-3 2 -12 3591.5 691.1 23
-3 -2 12 3030.15 597.887 20
-3 -2 12 3129.13 583.25 18
3 -2 -13 42259.6 2352.95 7
3 -2 -13 49181.1 2236.12 10
-3 -2 13 47327.1 2491.66 3
3 -2 -13 44511.5 1866.36 2
3 2 13 45173.2 2325.08 1
3 -2 -13 46711.3 2321.8 4
-3 -2 13 49230.3 2424.34 20
-3 2 -13 47027 2270.71 22
-3 2 -13 41550.1 2346.87 23
-3 -2 13 45996.3 2216.82 18
3 -2 -13 47793.5 2441.46 12
3 -2 -14 4252.3 771.07 12
3 -2 -14 3735.84 728.881 7
3 -2 -14 3015.32 632.106 4
3 2 14 3039.36 625.027 1
-3 -2 14 4655.07 771.526 3
3 -2 -14 4399.07 565.208 2
3 2 14 4235.85 560.946 3
-3 2 -14 3875.88 713.269 23
-3 2 -14 5655.71 789.799 22
-3 -2 14 3804.8 693.385 20
-3 -2 14 4630.13 734.049 18
-3 -2 14 5232.83 747.335 16
3 -2 -15 12303.8 1269.28 7
-3 -2 15 12881.3 1238.99 20
-3 -2 15 12544.1 1128.12 18
3 -2 -15 11286.4 1201.93 12
-3 -2 15 12370.1 1126.52 16
3 -2 -16 14174.5 1343.68 7
-3 -2 16 17331 1389.11 20
-3 -2 16 15320.5 1244.96 18
3 2 16 16137.1 986.04 18
3 -2 -16 14957.4 1362.1 12
-3 -2 16 19711.8 1408.18 16
3 -2 -17 39637.8 2233.45 7
-3 -2 17 43774.8 2198.28 20
-3 -2 17 40816 2018.11 18
3 2 17 41023.9 1620.22 18
3 -2 -17 39562.5 2195.9 12
-3 -2 17 40720.7 2064.02 16
3 -2 -18 5780.87 811.67 12
3 -2 -18 6674.36 893.655 7
3 2 18 6255.65 604.525 18
-3 -2 18 7291.29 877.876 20
-3 -2 18 5769.97 738.89 18
-3 -2 18 6257.34 815.18 16
-3 2 -19 140824 3538.11 7
3 -2 -19 126076 4066.75 7
3 2 19 132595 3277.09 18
-3 -2 19 134244 3924.78 20
-3 -2 19 129334 3712.01 18
3 -2 -19 132074 4066.1 12
-3 -2 19 128517 3864.84 16
-3 2 -20 29585.4 1368.65 7
3 -2 -20 27345.8 1629.18 7
3 2 20 27672.4 1235.6 18
-3 -2 20 28815.5 1530.39 20
3 -2 -20 30204.1 1657.01 12
-3 -2 20 28658.6 1561.33 16
-3 2 -21 12450.6 829.094 7
-3 -2 21 12693.4 912.213 20
3 2 21 12393.2 773.029 18
3 -2 -21 13560.4 1016.25 12
-3 -2 21 11046 885.936 16
-3 2 -22 11582.5 765.428 7
3 2 22 10860.4 682.128 18
-3 -2 22 11301.3 839.572 16
3 -2 -22 10706.7 799.65 12
-3 2 -23 11381 697.952 7
3 2 23 11994.3 664.413 18
-3 -2 23 11163.9 738.739 16
-3 2 -24 18287.4 813.995 7
3 2 24 16849.6 716.142 18
3 3 -24 517.163 189.86 12
-3 3 24 1191.36 237.93 18
3 3 -23 2267.35 382.628 12
3 -3 23 2549.98 302.042 9
-3 3 23 2575.18 412.02 18
3 -3 22 22056 1016.91 9
-3 3 22 20754 1194.89 18
3 3 -22 18993.7 1179.77 12
3 -3 21 30777 1340.88 9
-3 3 21 29795.8 1568.13 18
3 3 -21 29508.7 1592.16 12
3 -3 20 7779.43 714.193 9
-3 -3 -20 7832.97 644.099 7
3 -3 20 7589.29 614.897 19
-3 3 20 6722.53 800.424 18
-3 -3 -19 511.865 232.872 7
3 -3 19 1376.57 375.378 9
3 -3 19 575.17 256.952 19
-3 3 19 1198.1 440.665 18
-3 -3 -18 4672.48 521.4 7
3 -3 18 5752.67 608.767 19
-3 3 18 5408.44 811.693 18
-3 -3 -17 118899 3175.19 7
3 -3 17 118284 3127.72 19
-3 3 17 116342 3955 18
3 -3 17 118507 3597.59 14
-3 -3 -17 120039 3029.5 13
-3 -3 -16 15632.4 997.311 7
3 -3 16 16770.9 1028.11 19
-3 3 16 15324.8 1354.29 18
3 -3 16 17665.9 1265.57 14
-3 -3 -16 16956.2 985.439 13
3 -3 15 -128.088 208.745 19
-3 3 15 231.137 366.584 18
-3 -3 -15 404.62 222.332 13
3 -3 15 193.106 269.391 14
-3 3 14 11978.2 1221.39 18
3 -3 14 15019.8 973.432 19
3 -3 14 13721.5 1137.33 14
-3 -3 -14 14103.6 906.379 13
3 3 -13 32631.7 1568.19 2
3 -3 13 32249.4 1552.77 3
-3 3 13 32008.4 1963.26 18
3 -3 13 32846 1459.77 19
3 -3 13 34791.6 1577.73 17
3 -3 13 32366.8 1751.08 14
-3 -3 -13 34862.5 1452.18 13
-3 -3 -12 4203.78 490.31 10
3 3 -12 3788.99 545.654 2
3 -3 12 4154.24 538.805 3
3 -3 12 3843.63 482.064 19
-3 -3 -12 3816.48 476.27 13
3 -3 12 4206.13 533.927 17
3 -3 12 4661.21 662.594 14
-3 3 12 3843.54 674.37 18
3 3 -11 27758.8 1414.67 2
3 -3 11 26617.9 1338.36 3
-3 3 11 25539.9 1664.06 18
3 -3 11 27396.7 1563.17 14
-3 -3 -11 28116.9 1265.17 13
3 -3 11 28840.2 1398.39 17
3 3 -10 35936.4 1623.74 2
3 -3 10 33453 1464.61 3
-3 3 10 34868.6 1904.6 18
-3 -3 -10 37447.9 1536.15 15
-3 -3 -10 32953.8 1375.99 13
3 -3 10 36388.5 1776.03 14
3 -3 10 36048.4 1556.11 17
3 -3 9 50124.9 1821.65 3
3 3 -9 56872.1 2090.5 2
-3 -3 -9 55936 2150.08 20
-3 3 9 48293.1 2256.73 18
3 -3 9 54156.6 2176.21 14
-3 -3 -9 49662.3 1739.13 13
3 -3 9 59444.5 2122.95 12
-3 -3 -9 55588.1 1915.36 15
3 -3 9 57156.6 2006.67 17
3 -3 8 8813.17 689.048 3
3 3 -8 10307.5 863.463 2
-3 -3 -8 9732.85 835.839 20
-3 3 8 9809.32 831.785 23
-3 3 8 9210.38 721.607 21
-3 3 8 9735.08 941.052 18
3 -3 8 10253.3 882.414 14
3 -3 8 10023.4 815.052 12
3 -3 8 9022.53 742.149 17
-3 -3 -8 10768.3 782.173 15
3 3 -7 18295.3 992.59 1
3 -3 7 17639.2 822.237 5
3 -3 7 17498.1 1046.02 1
3 3 -7 17449.4 1108.53 2
-3 -3 -7 17965.3 1157.92 20
-3 3 7 19469.6 1037.99 21
-3 3 7 17929.4 1126.47 23
3 -3 7 18126.8 1061.45 17
3 -3 7 18529.8 1102.98 12
-3 -3 -7 17705.2 1010.81 15
-3 3 6 16620.7 1095.53 23
-3 3 6 16765.5 939.524 21
3 -3 6 16987.7 824.987 5
3 -3 6 17257.1 1026.13 1
3 3 -6 16563.1 1064.09 2
3 3 -6 16833.5 964.27 1
-3 3 5 31209.7 1530.5 23
-3 3 5 32840.8 1339.72 21
3 -3 5 35306.3 1262.53 5
3 3 -5 34641.7 1442.98 1
3 -3 5 31072 1420.2 1
3 3 -5 32810.8 1562.58 2
-3 3 4 12963.6 967.257 23
-3 3 4 10994.2 742.344 21
3 3 -4 11784.8 839.642 1
3 -3 4 12596.6 741.456 5
3 -3 4 10768.5 800.278 1
3 3 -4 12943.1 948.402 2
-3 3 3 167793 4233.25 23
-3 3 3 167049 3761.27 21
3 3 -3 162538 3948.5 1
3 -3 3 169013 3676.45 5
3 3 -3 165595 4153.21 2
3 -3 3 159463 3865.21 1
-3 3 2 88833.1 2843.76 23
-3 3 2 90134.7 2435.78 21
3 -3 2 90543.3 2583.47 1
3 3 -2 85491.1 2627.13 1
3 -3 2 90494.3 2437.31 5
3 3 -2 88327.7 2777.42 2
-3 -3 -1 126099 2909.86 23
-3 3 1 118586 3431.8 23
-3 3 1 117583 2956.96 21
3 -3 1 118912 3113.06 1
3 -3 1 116256 2959.89 5
3 3 -1 118434 3364.47 2
3 3 -1 117480 3240.01 1
-3 3 0 45980.6 1969.3 23
-3 3 0 43998.3 1602.59 21
3 -3 0 46010.5 1722.76 1
3 -3 0 43412.3 1613.62 5
3 3 0 46913.6 1931.01 2
3 3 0 45492.8 1818.66 1
-3 3 -1 119426 2972.3 21
-3 3 -1 115196 3435.04 23
3 -3 -1 118374 3017.68 5
3 -3 -1 115478 3041.74 1
3 3 1 113590 3316.48 2
3 3 1 113897 3255.07 1
3 -3 -1 111339 2771.87 4
3 -3 -1 116380 2727.29 2
-3 3 -2 89975.3 2963.45 23
-3 3 -2 87848 2483.96 21
3 -3 -2 90389.7 2580.22 5
3 3 2 86159.1 2763.23 1
3 3 2 82503.8 2752.78 2
3 -3 -2 89407.8 2416.6 4
3 -3 -2 91311.9 2313.93 2
-3 3 -3 167380 4434.67 23
3 -3 -3 163311 3567.51 2
3 3 3 160286 4179.08 1
3 -3 -3 164054 3914.64 5
3 -3 -3 164598 3797.65 4
-3 3 -4 12708.3 1058.57 23
3 -3 -4 11973.5 740.215 2
3 3 4 12809.5 994.445 1
3 -3 -4 11471 848.287 5
3 -3 -4 12399.2 849.803 4
-3 3 -5 34145.3 1783.31 23
3 -3 -5 32707.2 1304.64 2
3 3 5 33236.5 1673.64 1
3 -3 -5 31172.4 1459.14 5
3 -3 -5 30433.6 1432.96 4
-3 3 -6 15428.4 1220.08 23
3 -3 -6 18454 970.284 2
3 3 6 18406.7 1262.92 1
3 -3 -6 14245.1 982.874 5
3 -3 -6 16037.9 1058.8 4
3 -3 -7 14463.4 1121.2 10
3 -3 -7 16027.2 931.536 2
3 3 7 18659.2 1302.44 1
3 -3 -7 17507.8 1087.35 5
3 -3 -7 18620.3 1185.94 4
-3 3 -7 16490.6 1286.54 23
-3 -3 7 16962.7 1269.59 20
3 -3 -8 10001.5 956.22 10
3 -3 -8 8619.89 695.096 2
3 3 8 9376.26 952.689 1
3 -3 -8 9576.48 811.947 5
3 -3 -8 9742.19 887.3 4
-3 3 -8 8229.38 915.378 23
-3 -3 8 9456.01 971.755 20
3 -3 -8 8822.31 936.701 12
3 -3 -9 47499.3 2182.55 10
-3 -3 9 51544.2 2420.13 3
3 -3 -9 49894.5 1833.75 2
3 3 9 46262.3 2253.16 1
3 -3 -9 50360.1 1968.89 5
3 -3 -9 46952.5 2120.38 4
-3 3 -9 49618.4 2401.53 23
-3 -3 9 50243.1 2343.43 20
3 -3 -9 52587.3 2389.45 12
3 -3 -10 30596.1 1933.57 7
3 -3 -10 34279.9 1813.17 10
-3 -3 10 35370.6 2028.4 3
3 -3 -10 32808.9 1477.81 2
3 3 10 32826.4 1920.92 1
3 -3 -10 31481 1530.65 5
3 -3 -10 34055.4 1815.6 4
-3 3 -10 31833.1 1940.74 23
-3 -3 10 34372.8 1953.17 20
-3 -3 10 32776.3 1745.37 18
3 -3 -10 32090.7 1887.66 12
3 -3 -11 26895.7 1814.89 7
3 -3 -11 26106.7 1595.49 10
-3 -3 11 27831.1 1826.56 3
3 3 11 23980.6 1674.9 1
3 -3 -11 23546.8 1312.67 5
3 -3 -11 23756.4 1277.19 2
3 -3 -11 28350.3 1705.36 4
-3 3 -11 24423.1 1744.42 23
-3 -3 11 24988 1709.04 20
3 -3 -11 24912.7 1679.99 12
3 -3 -12 4306.36 748.454 7
3 -3 -12 3488.43 614.419 10
3 -3 -12 4558.84 731.589 4
3 3 12 3410.33 641.834 1
3 -3 -12 4774.82 582.295 2
-3 -3 12 4104.48 771.971 3
3 -3 -12 2927.29 473.194 5
-3 3 -12 4261.47 798.133 23
-3 -3 12 2782.03 634.201 20
3 -3 -12 4644.01 758.999 12
3 -3 -13 32295 2089.56 7
3 -3 -13 32895.5 1840.83 10
-3 -3 13 33561.2 2130.49 3
3 3 13 28114.3 1870.86 1
3 -3 -13 30472.8 1496.69 2
3 -3 -13 32036.6 1916.96 4
-3 3 -13 31564.2 2103.45 23
-3 -3 13 32473.5 2020.51 20
-3 -3 13 34587 1879.82 16
3 -3 -13 31077.4 1915.78 12
3 -3 -14 14220.5 1187.69 10
3 -3 -14 13135.5 1333.2 7
-3 -3 14 12748 1286.72 20
-3 -3 14 12668.6 1155.62 16
3 -3 -14 14546.8 1307.17 12
3 -3 -15 312.255 402.947 7
3 -3 -15 335.51 331.992 10
-3 -3 15 -121.641 320.888 20
3 3 15 -512.589 248.216 18
3 -3 -15 24.6583 273.699 12
-3 -3 15 9.80999 293.222 16
3 -3 -16 14761.1 1412.06 7
-3 -3 16 17593.6 1407.36 20
3 -3 -16 14343.5 1275.5 12
3 3 16 16421.3 995.328 18
-3 -3 16 17471 1345.48 16
3 -3 -17 117397 4100.46 7
-3 -3 17 115699 3911.86 20
3 3 17 117737 3102.99 18
3 -3 -17 118249 3907.12 12
-3 -3 17 122644 3816.74 16
3 -3 -18 4740.3 776.986 7
3 3 18 5282.74 561.58 18
-3 -3 18 4867.49 754.834 20
-3 -3 18 4369.8 683.728 16
3 -3 -18 4488.26 685.864 12
3 -3 -19 794.27 413.628 7
-3 3 -19 985.556 313.323 7
-3 -3 19 1186.28 391.722 20
3 3 19 634.411 253.628 18
-3 -3 19 959.47 366.734 16
3 -3 -19 755.099 269.947 12
-3 3 -20 9045.13 724.32 7
3 3 20 7406.14 631.87 18
-3 -3 20 8039.42 822.046 20
-3 -3 20 7458.77 769.592 16
3 -3 -20 8033.03 770.34 12
-3 3 -21 33727.2 1373.35 7
-3 -3 21 32971 1539.69 20
3 3 21 30814.4 1261.58 18
-3 -3 21 31600.7 1501.18 16
-3 3 -22 21384.1 1006.03 7
-3 -3 22 20511 1079.21 20
3 3 22 19455.1 925.653 18
-3 -3 22 20497 1092.62 16
-3 3 -23 2535.84 323.569 7
3 3 23 2461.85 305.226 18
-3 -3 23 2063.8 317.756 16
-3 3 -24 1406.51 225.782 7
3 3 24 1043.94 191.58 18
3 -4 23 5564.52 411.092 9
-3 4 23 5949.84 536.577 18
3 4 -23 5727.63 548.862 12
3 4 -22 3564.42 490.927 12
3 -4 22 3458.5 389.797 9
-3 4 22 4116.68 508.233 18
3 -4 21 6544.75 594.408 9
-3 4 21 7293.6 731.655 18
3 4 -21 7195.06 730.371 12
3 -4 20 38510.1 1589.89 9
-3 4 20 39176.8 1854.58 18
3 4 -20 36328.3 1792.68 12
3 -4 19 2230.67 445.434 9
3 -4 19 1990.29 356.019 19
-3 4 19 1930.24 496.72 18
3 -4 18 86765 2783.78 9
3 -4 18 83075.2 2410.57 19
-3 4 18 83084.4 3083.22 18
3 -4 17 17280.8 1198.41 9
3 -4 17 17000.4 997.943 19
-3 4 17 17600.2 1384.95 18
3 -4 17 16910.6 1202.57 14
-3 -4 -17 17083.2 970.374 13
3 -4 16 16461.8 1011.04 19
-3 4 16 16638.9 1391.99 18
3 -4 16 17364.6 1245.2 14
-3 -4 -16 16927.3 1002.32 13
3 -4 15 74703 2359.5 19
-3 4 15 72584.9 3057.14 18
3 -4 15 77070.5 2820.48 14
-3 -4 -15 73847.1 2307.89 13
-3 -4 -14 25487.9 1249.86 10
3 -4 14 25771.8 1302.64 19
-3 4 14 25106.3 1723.98 18
3 -4 14 26380.9 1578.96 14
-3 -4 -14 27813.2 1319.63 13
-3 -4 -13 127683 3323.29 10
3 -4 13 128631 3382.67 19
-3 4 13 127349 4215.27 18
3 -4 13 131709 3918.69 14
3 -4 13 134479 3544.81 17
-3 -4 -13 132935 3367.53 13
-3 -4 -12 55830.9 1942.42 10
3 4 -12 54557.3 2099.77 2
3 -4 12 51895 1985.75 3
3 -4 12 54175.6 1945.55 19
-3 4 12 51973.4 2481.24 18
-3 -4 -12 54502.1 1927.04 13
3 -4 12 55254.5 2052.75 17
3 -4 12 57343.3 2381.77 14
-3 -4 -11 223588 4849.96 10
3 4 -11 241368 5259.51 2
3 -4 11 202127 4830.43 3
3 -4 11 212728 4770.55 19
-3 4 11 227092 5867.65 18
3 -4 11 227921 5043.02 17
3 -4 11 208500 5420.16 14
-3 -4 -11 224078 4807.92 13
3 4 -10 14075.1 1014.65 2
3 -4 10 12741.5 877.355 3
-3 4 10 13044.9 986.588 21
-3 4 10 14763.8 1222.75 18
3 -4 10 15186.1 1148.19 14
3 -4 10 14787.2 993.128 17
-3 -4 -10 13300.6 877.021 13
3 -4 9 17941.7 1025.39 3
3 4 -9 20015.9 1206.44 2
-3 -4 -9 19174.7 1190.3 20
-3 4 9 14206.7 1005.9 21
-3 4 9 17784.8 1319.23 18
3 -4 9 16634.7 1200.5 14
3 -4 9 17745.5 1083.72 17
-3 -4 -9 17888 996.736 13
-3 -4 -9 19868.3 1100.04 15
3 -4 8 9583.64 713.621 3
3 4 -8 9238.76 825.25 2
-3 -4 -8 8471.87 801.381 20
-3 4 8 9936.96 847.006 23
-3 4 8 9057.9 759.543 21
-3 4 8 9949.91 946.012 18
3 -4 8 10048.7 922.026 14
-3 -4 -8 10521.8 741.086 13
3 -4 8 12026.9 915.283 12
-3 -4 -8 9579.63 764.258 15
3 -4 8 10913.8 843.935 17
3 -4 7 14276 773.559 5
3 -4 7 13648.3 827.057 3
3 4 -7 14408.4 1024.24 2
-3 -4 -7 13725 1010.63 20
-3 4 7 14250.7 1016.48 23
-3 4 7 14307.9 957.184 21
-3 4 7 12694.9 1058.98 18
3 -4 7 14043.5 1052.69 14
3 -4 7 13158.1 933.994 17
3 -4 7 15739.3 1032.98 12
-3 -4 -7 15497 952.729 15
3 -4 6 22146.6 1290.83 11
3 -4 6 22877.1 1015.8 5
3 4 -6 21943.2 1288.56 2
-3 4 6 22432.5 1310.34 23
-3 -4 -6 21967.6 1293.22 20
-3 4 6 19359.1 1119.39 21
-3 4 6 20468.8 1332.19 18
3 -4 6 22397.6 1325.94 14
3 -4 6 22273.7 1212.45 17
3 -4 6 25018.1 1300.06 12
-3 -4 -6 23690.9 1197.57 15
3 -4 5 1395.12 326.733 11
3 4 -5 1205.45 279.334 1
3 4 -5 1589.13 387.665 2
3 -4 5 2564 340.085 5
3 -4 5 1514.12 303.549 1
-3 4 5 1612.07 339.395 21
-3 4 5 846.199 308.885 23
-3 -4 -5 1617.77 398.518 20
3 -4 5 1216.44 274.586 17
3 -4 5 888.328 266.98 12
-3 -4 -5 2019.78 361.724 15
-3 4 4 3550.58 535.965 23
-3 4 4 3577.54 477.909 21
3 4 -4 4119.98 502.06 1
3 4 -4 2985.03 491.618 2
3 -4 4 4256.56 449.374 5
3 -4 4 4249.71 491.236 1
-3 4 3 107934 3287.85 23
-3 4 3 105815 2936.53 21
3 4 -3 108961 3036.08 1
3 -4 3 107364 2727.95 5
3 -4 3 106309 2893.04 1
3 4 -3 110212 3269.67 2
-3 4 2 54636.8 2205.83 23
-3 4 2 54081.4 1921.03 21
3 -4 2 48295.3 1716.3 5
3 4 -2 55915.4 2198.19 2
3 4 -2 54878.7 2037.41 1
-3 4 1 36414.5 1781.56 23
-3 4 1 36046.8 1548.47 21
3 -4 1 37340.8 1463.24 5
3 4 -1 38847.3 1811.46 2
3 -4 1 34646.1 1377.64 4
3 4 -1 38820.5 1689.27 1
-3 4 0 8852.76 873.293 23
-3 4 0 8402.12 719.184 21
3 -4 0 10638.5 764.053 5
3 4 0 9412.68 884.707 2
3 4 0 8987.92 799.488 1
3 -4 0 9270.44 688.731 4
-3 4 -1 37262.8 1854.87 23
-3 4 -1 38115.7 1625.84 21
3 -4 -1 38739 1544.79 5
3 4 1 37649.1 1724.9 1
3 4 1 35948.1 1774.37 2
3 -4 -1 36311.5 1463.5 4
-3 4 -2 56892.6 2342.82 23
-3 4 -2 53631.2 1992.46 21
3 -4 -2 54432.1 1906.07 5
3 4 2 52149.2 2117.55 1
3 4 2 53520.9 2227.32 2
3 -4 -2 56378.7 1931.92 4
-3 4 -3 109181 3465.69 23
3 4 3 103385 3221.18 1
3 -4 -3 99480.9 2853.14 5
3 -4 -3 106560 2966.41 4
-3 4 -4 3487.69 591.942 23
3 -4 -4 3340.33 479.639 4
3 4 4 3098.41 524.635 1
3 -4 -4 2889.61 443.567 5
3 -4 -5 1466.43 383.532 10
3 -4 -5 1064.53 308.521 4
3 4 5 1105.17 348.552 1
3 -4 -5 1573.87 352.468 5
-3 4 -5 1192.09 409.294 23
-3 -4 5 678.212 322.151 20
3 -4 -6 19691.9 1327.05 10
-3 -4 6 21654.8 1100.8 6
3 4 6 20421.3 1388.87 1
3 -4 -6 21343.4 1198.22 5
3 -4 -6 22291.8 1334.57 4
-3 4 -6 20745.6 1473.22 23
-3 -4 6 22268.6 1483.65 20
3 -4 -6 21363.6 1405.34 12
3 -4 -7 13310.2 1119.16 10
3 -4 -7 14059.1 852.086 2
-3 -4 7 12808 826.811 6
3 4 7 12960.2 1125.74 1
3 -4 -7 12142.4 907.159 5
3 -4 -7 14824.6 1100.97 4
-3 4 -7 12582.6 1198.92 23
-3 -4 7 14156.8 1206.15 20
3 -4 -7 11863.7 1044.87 12
3 -4 -8 8846.09 913.873 10
3 -4 -8 9513.25 719.557 2
3 4 8 8760.05 946.734 1
3 -4 -8 9379.91 799.101 5
3 -4 -8 8954.98 896.408 4
-3 4 -8 8716.42 1010.38 23
-3 -4 8 10373.7 1060.24 20
3 -4 -8 9436.94 968.511 12
3 -4 -9 16998.8 1293.49 10
3 -4 -9 18083 1034.9 2
3 4 9 16952.5 1363.51 1
3 -4 -9 17217.3 1092.9 5
3 -4 -9 18548.3 1327.18 4
-3 4 -9 15344.6 1380.38 23
-3 -4 9 18469.6 1440.57 20
3 -4 -9 18012.5 1345.72 12
3 -4 -10 13843.9 1176.2 10
-3 -4 10 12409.7 1243.49 3
3 -4 -10 13563.1 904.504 2
3 4 10 12453.5 1214.02 1
3 -4 -10 12970.3 942.714 5
3 -4 -10 11961.3 1100.5 4
-3 4 -10 13989.3 1330.46 23
-3 -4 10 14933.3 1318.92 20
3 -4 -10 13194.1 1155.78 12
3 -4 -11 191939 5327.34 10
-3 -4 11 224363 6080.32 3
3 4 11 212247 5915.46 1
3 -4 -11 210647 4757.51 2
3 -4 -11 210947 4838.55 5
3 -4 -11 216057 5621.19 4
-3 4 -11 211188 6063.97 23
-3 -4 11 193736 5693.56 20
3 -4 -11 211917 5557.26 12
3 -4 -12 53064.9 2698.2 7
3 -4 -12 50353.5 2333.52 10
-3 -4 12 56536.4 2764.7 3
3 4 12 48750.6 2535.16 1
3 -4 -12 49728.5 1931.33 2
3 -4 -12 45123.4 1831.8 5
3 -4 -12 48055.3 2377.59 4
-3 4 -12 49922.6 2698.29 23
-3 -4 12 51967.1 2580.47 20
-3 -4 12 52969.7 2348.61 16
3 -4 -12 49746.4 2371.59 12
3 -4 -13 125056 4427.66 7
3 -4 -13 131136 4060.47 10
-3 -4 13 122362 4322.52 20
-3 -4 13 125650 4014.21 16
3 -4 -13 131166 4114.43 12
3 -4 -14 25826.7 1889.64 7
3 -4 -14 27699.2 1703.31 10
-3 -4 14 27842.3 1923.32 20
-3 -4 14 24334.1 1615.67 16
3 -4 -14 26658.5 1681.4 12
3 -4 -15 73077.9 3277.29 7
3 -4 -15 79181.1 2969.39 10
-3 -4 15 76515.5 3203.46 20
-3 -4 15 74010.1 2916.33 16
3 -4 -15 75751.4 2943.85 12
3 4 15 79711.3 2384.66 18
3 -4 -16 16764 1291.44 10
3 -4 -16 16063.4 1441.35 7
-3 -4 16 15679.8 1371.22 20
3 4 16 16395.3 996.829 18
-3 -4 16 16707.3 1302.01 16
3 -4 -17 15977.8 1397.86 7
3 -4 -17 18293.7 1304.09 10
-3 -4 17 17257.4 1392.38 20
3 4 17 16782.3 990.714 18
-3 -4 17 15240.5 1227.13 16
-3 -4 18 81507.9 3055.87 20
3 4 18 84308.8 2416.67 18
-3 -4 18 79192.5 2874.01 16
-3 4 -19 2785.36 437.024 7
-3 -4 19 1823.61 457.766 20
3 4 19 2477.43 392.977 18
-3 -4 19 1559.75 412.428 16
-3 4 -20 42017.8 1562.9 7
3 4 20 37134.7 1427.02 18
-3 -4 20 38157.8 1808.42 20
-3 -4 20 37329.4 1702.77 16
-3 4 -21 7269.14 590.667 7
-3 -4 21 6850.21 687.56 20
3 4 21 7153.82 566.712 18
-3 -4 21 6150.75 638.111 16
-3 4 -22 3737.43 399.21 7
3 4 22 3169.22 362.609 18
-3 -4 22 3197.15 427.912 20
-3 -4 22 2619.28 382.532 16
-3 4 -23 5720.14 435.714 7
3 4 23 5889.89 435.268 18
-3 -5 -23 332.153 125.14 8
3 5 -22 1924.04 341.048 12
-3 -5 -22 1315.66 258.381 8
3 -5 22 1665.29 265.5 9
-3 5 22 1211.15 273.705 18
3 -5 21 19699 977.13 9
-3 5 21 21366.1 1146.52 18
3 5 -21 21716.3 1176.83 12
3 -5 20 4270.87 497.046 9
-3 5 20 3808.89 531.841 18
3 5 -20 4455.08 591.818 12
3 5 -19 3309.23 538.677 12
3 -5 19 3399.3 497.471 9
3 -5 19 3106.4 385.141 19
-3 5 19 3533.05 553.214 18
3 -5 18 19341.5 1188.1 9
3 -5 18 17096.7 936.77 19
-3 5 18 18035 1281.4 18
3 -5 18 18058.7 1146.62 14
3 -5 17 6428.59 720.762 9
3 -5 17 6094.18 576.806 19
-3 5 17 7281.62 858.09 18
3 -5 16 81690.3 2785.97 9
-3 -5 -16 76543.5 2308.81 10
3 -5 16 78129.1 2356.94 19
-3 5 16 78494.4 3034.69 18
-3 -5 -16 77820.2 2332.88 13
3 -5 16 80998.5 2794.46 14
3 -5 15 2245.69 487.597 9
-3 -5 -15 2374.11 392.089 10
3 -5 15 1260.67 331.991 19
-3 -5 -15 2087.16 399.395 13
3 -5 15 1117.07 375.378 14
-3 5 15 1779.48 519.019 18
3 -5 14 47723.8 2112.12 9
-3 -5 -14 47723.9 1813.89 10
3 -5 14 48881.9 1824.37 19
-3 5 14 48445.7 2364.68 18
3 -5 14 46906.5 2152.12 14
-3 -5 -14 46914.4 1779.3 13
3 -5 13 73056.7 2705.8 9
-3 -5 -13 70731.1 2333.79 10
3 -5 13 75744.5 2365.17 19
-3 5 13 72704.4 2958.92 18
3 -5 13 73935.9 2770.39 14
-3 -5 -13 68901.9 2281.38 13
3 -5 12 62712.9 2473.35 9
-3 -5 -12 63357.7 2182.09 10
3 -5 12 60075.8 2092.62 19
-3 5 12 63931.6 2744.54 18
3 -5 12 67927.1 2295.79 17
-3 -5 -12 61828.2 2127.5 13
3 -5 12 63068 2552.51 14
-3 -5 -11 220287 4929.48 10
3 5 -11 236605 5254.64 2
3 -5 11 210142 4775.63 19
-3 5 11 204325 5168.42 21
-3 5 11 217197 5721.11 18
3 -5 11 231288 5582.62 14
3 -5 11 216757 4977.82 17
-3 -5 -11 217487 4823.45 13
-3 -5 -10 187410 4393.3 10
3 5 -10 195990 4660.32 2
-3 -5 -10 192447 4288.22 6
-3 5 10 183370 5039.7 18
3 -5 10 186531 4919.26 14
-3 -5 -10 190028 4293.45 13
3 -5 10 187560 4468.31 17
-3 -5 -9 62584 2170.37 10
-3 -5 -9 63464 2131.04 6
3 5 -9 67214.3 2404.38 2
-3 -5 -9 67049.8 2343.11 20
-3 5 9 59178.8 2283.94 21
-3 5 9 63194.6 2582.92 18
3 -5 9 63168.3 2233 17
3 -5 9 65917.5 2568.3 14
-3 -5 -9 64527 2097.55 13
-3 -5 -8 101821 2860.32 6
3 5 -8 105826 3162.91 2
-3 -5 -8 94324.4 2975.01 20
-3 5 8 97868.2 2997.14 23
-3 5 8 93005 2985.08 21
-3 5 8 98071.9 3295.62 18
-3 -5 -8 112143 2982.2 15
3 -5 8 98870.4 3232.64 14
-3 -5 -8 100744 2756.24 13
3 -5 8 102130 2973.78 17
-3 -5 -7 21979.9 1194.49 6
3 -5 7 23048.1 1067.11 5
3 5 -7 23890 1380 2
-3 -5 -7 22370.8 1306.44 20
-3 5 7 21034.6 1265.8 23
-3 5 7 19808.3 1237.47 21
-3 5 7 22683.4 1419.97 18
3 -5 7 23105.1 1416.27 14
3 -5 7 22247.4 1248.35 17
-3 -5 -7 21241.7 1096.89 13
3 -5 7 27272.7 1409.4 12
-3 -5 -7 23452.7 1224.2 15
3 -5 6 13464.1 1038.05 11
-3 -5 -6 10208.4 813.178 6
3 -5 6 12591.2 778.669 5
3 5 -6 15312 1100.07 2
-3 -5 -6 12194 968.586 20
-3 5 6 13282 985.706 23
-3 5 6 11609.5 986.421 18
-3 5 6 10508.8 873.937 21
3 -5 6 12796.6 1038.16 14
3 -5 6 11651.6 897.168 17
-3 -5 -6 11992 797.791 13
3 -5 6 14904.2 1019.22 12
-3 -5 -6 13483 911.049 15
3 -5 5 23769.8 1380.99 11
-3 -5 -5 25361.6 1288.38 6
3 -5 5 25361.8 1140.58 5
3 5 -5 26234.9 1476.42 2
-3 -5 -5 25044.6 1404.46 20
-3 5 5 22972 1381.04 23
-3 5 5 23215.5 1315.34 21
3 -5 5 19843.2 1202.12 17
3 -5 5 24079.2 1416.69 14
3 -5 5 27298.5 1391.45 12
-3 -5 -5 25179.7 1258.54 15
3 -5 4 38348.2 1781.59 11
-3 -5 -4 39936.9 1667.5 6
3 -5 4 39956.7 1504.83 5
3 5 -4 43098.2 1933.93 2
-3 -5 -4 38934.8 1815.81 20
-3 5 4 40164.1 1864.6 23
-3 5 4 38492.1 1723.89 21
3 -5 4 40645.8 1854.14 14
3 -5 4 37252.6 1657.38 17
3 -5 4 42254.3 1753.93 12
-3 -5 -4 38166 1606.3 15
3 -5 3 17200.1 1175.17 11
3 -5 3 16811.3 1134.73 8
3 5 -3 20211 1176.76 1
-3 -5 -3 16965 1050.39 6
3 -5 3 17981.7 971.951 5
3 5 -3 17905.6 1243.05 2
-3 -5 -3 15755.5 1134.97 20
-3 5 3 18044.4 1232.24 23
-3 5 3 16959.8 1114 21
3 -5 3 19140.6 1223.3 14
3 -5 3 16343.7 1076.58 12
-3 -5 -3 17499.3 1052.08 15
3 -5 2 35572.1 1743.36 11
-3 -5 -2 37815 1608.67 6
3 -5 2 40354.9 1530.35 5
3 -5 2 41371.5 1592.1 4
3 5 -2 38693.2 1877.01 2
3 5 -2 37812.2 1701.98 1
-3 -5 -2 35304 1754.09 20
-3 5 2 35456.9 1797.68 23
-3 5 2 35184.3 1650.61 21
3 -5 2 36327.2 1728.99 14
-3 -5 -2 35172.1 1548.88 15
3 -5 2 37596.7 1677.86 12
3 -5 1 19889.2 1280.45 11
-3 -5 -1 21158.4 1163.71 6
3 -5 1 20922.4 1082.11 5
3 5 -1 20309.7 1370.14 2
3 -5 1 19970.3 1101.14 4
3 5 -1 21738.6 1262.98 1
-3 -5 -1 19696.8 1289.76 20
-3 5 1 18092.8 1282.45 23
-3 5 1 19118.6 1191.26 21
3 -5 1 17709.8 1129.62 12
3 -5 1 20773.1 1263.94 14
-3 -5 -1 18216.7 1095.76 15
3 -5 0 1376.74 394.556 11
3 -5 0 1281.79 322.095 4
-3 -5 0 1152.47 263.586 6
3 5 0 2076.06 472.829 2
3 -5 0 1384.07 313.163 5
3 5 0 1267.76 329.491 1
-3 5 0 1223.35 294.735 21
-3 5 0 1256.88 382.523 23
-3 -5 0 1315.46 342.605 20
3 -5 0 1537.38 346.409 12
-3 -5 0 1862.49 383.906 15
3 -5 -1 19294.3 1288.68 11
3 -5 -1 18720.4 1247.42 10
-3 -5 1 19410 1111.01 6
3 -5 -1 22052.8 1144.25 5
3 5 1 19514.3 1270.88 1
3 5 1 22455.8 1445.17 2
3 -5 -1 19214.6 1129.96 4
-3 5 -1 19842.8 1375.71 23
-3 -5 1 18916.2 1294.97 20
-3 5 -1 19477.8 1222.26 21
3 -5 -1 20821.3 1241.86 12
-3 -5 1 20044.1 1153.42 15
3 -5 -2 35083.3 1769.75 10
3 -5 -2 34932.5 1786.57 11
-3 -5 2 36712.3 1539.12 6
3 -5 -2 35289.8 1509.01 5
3 5 2 35870.2 1782.49 1
3 5 2 39838.8 1964.83 2
3 -5 -2 34265.6 1588.25 4
-3 5 -2 35165.7 1893.23 23
-3 -5 2 35004 1820.3 20
-3 5 -2 34244.8 1677.72 21
3 -5 -2 33698.6 1652.53 12
3 -5 -3 18122.3 1272.17 11
3 -5 -3 17284 1236.74 10
-3 -5 3 16406.5 1009.61 6
3 5 3 20245.4 1322.04 1
3 -5 -3 18317.2 1072.78 5
3 5 3 17662.3 1291.31 2
3 -5 -3 15961.2 1080.43 4
-3 5 -3 16369.2 1301.57 23
-3 -5 3 16531.3 1245.28 20
-3 5 -3 16511.7 1155.12 21
3 -5 -3 16720.5 1138.76 12
3 -5 -4 35880.5 1853.22 10
-3 -5 4 38804.4 1598.04 6
3 5 4 39584.2 1932.09 1
3 -5 -4 41426.1 1676.88 5
3 -5 -4 38076.3 1766 4
-3 5 -4 38849.2 2073.89 23
-3 -5 4 40133.7 2030.22 20
3 -5 -4 38371.2 1811.86 12
3 -5 -5 25148.7 1553.34 10
-3 -5 5 23010.2 1196.67 6
3 5 5 20881 1417.08 1
3 -5 -5 26838.8 1331.1 5
3 -5 -5 25381.4 1444.65 4
-3 5 -5 22693 1589.2 23
-3 -5 5 20577.3 1476.88 20
3 -5 -5 23744.6 1416.78 12
3 -5 -6 10932.3 1034.61 10
-3 -5 6 11310.3 815.335 6
3 5 6 11723 1078.33 1
3 -5 -6 12333 902.139 5
3 -5 -6 10959.3 985.225 4
-3 5 -6 11360 1139.04 23
-3 -5 6 12011.8 1147.69 20
3 -5 -6 12465.8 1013.37 12
3 -5 -7 21728.5 1499.15 10
-3 -5 7 23425.5 1178.63 6
3 5 7 21201 1483.98 1
3 -5 -7 22043.7 1234.57 5
3 -5 -7 21732.1 1420.05 4
-3 5 -7 22633 1655.11 23
-3 -5 7 22582.7 1591.95 20
3 -5 -7 23146.9 1433.98 12
3 -5 -8 98617.2 3474.16 10
-3 5 -8 99809 3748.95 23
-3 -5 8 93258.9 3509.38 20
-3 -5 8 97345.9 2670.34 6
3 5 8 95486.4 3468.2 1
3 -5 -8 97819.3 2869.97 5
3 -5 -8 93131.1 3262.07 4
3 -5 -9 60513.2 2649.34 10
3 5 9 58158.3 2688.93 1
3 -5 -9 62242.7 2190.33 5
3 -5 -9 64250.2 2669.23 4
-3 5 -9 61037.8 2909.08 23
-3 -5 9 61093.3 2780.87 20
3 -5 -10 183514 5077.65 10
3 5 10 170516 5169.95 1
3 -5 -10 174756 4261.87 5
3 -5 -10 176127 5007.56 4
-3 5 -10 181103 5532.56 23
-3 -5 10 172927 5271.54 20
-3 -5 10 187535 4925.87 16
3 -5 -11 212718 5642.54 10
3 5 11 208171 5986.09 1
-3 5 -11 213163 6227.63 23
-3 -5 11 213039 5969.06 20
-3 -5 11 220939 5601.76 16
3 -5 -12 59880.4 2634.61 10
-3 -5 12 60098.4 2877.2 20
-3 -5 12 62842.7 2648.69 16
3 -5 -13 70378.1 2858.86 10
-3 -5 13 69090.2 3110.82 20
3 5 13 72558.2 2236.49 18
-3 -5 13 72843 2880.79 16
3 -5 -14 47582.2 2292.33 10
-3 -5 14 45694.9 2468.87 20
-3 -5 14 51181.5 2357.47 16
3 5 14 52521.3 1828.4 18
3 -5 -15 1426.01 489.149 10
-3 -5 15 909.068 463.969 20
3 5 15 1292.9 317.785 18
-3 -5 15 1294.14 476.738 16
3 -5 -16 81527.1 2947.86 10
-3 -5 16 78219.9 3133.83 20
3 5 16 77739.2 2322.96 18
-3 -5 16 78794.6 2945.2 16
3 -5 -17 6139.25 743.655 10
-3 -5 17 5522.67 778.952 20
3 5 17 6056.82 586.301 18
-3 -5 17 5929.11 774.3 16
-3 -5 18 16258.2 1257.37 20
3 5 18 18278.9 985.276 18
-3 -5 18 17259.5 1198.02 16
-3 5 -19 3943.65 485.693 7
-3 -5 19 2615.2 498.409 20
3 5 19 3380.49 418.355 18
-3 -5 19 3099.12 509.297 16
-3 5 -20 4131.68 457.775 7
3 5 20 4490.9 459.021 18
-3 -5 20 4208.61 569.208 20
-3 -5 20 4223.23 532.761 16
-3 5 -21 21393.9 954.385 7
-3 -5 21 21570.1 1165.34 20
3 5 21 20429.5 924.534 18
-3 -5 21 19819 1036.28 16
-3 5 -22 1650.12 254.746 7
-3 -5 22 1711.23 302.861 20
3 5 22 1345.88 226.696 18
-3 -5 22 1196.89 228.318 16
3 5 23 346.512 122.642 18
-3 -6 -22 367.056 140.641 8
3 6 -21 2039.85 313.665 12
-3 -6 -21 1812.39 294.196 8
3 -6 21 1680.12 273.416 9
-3 6 21 1918.4 304.026 18
3 6 -20 596.768 241.688 12
3 -6 20 690.131 247.264 9
-3 -6 -20 669.755 237.39 8
-3 6 20 -29.3613 188.694 18
-3 -6 -19 11624.2 842.098 8
3 -6 19 10965.6 788.909 9
3 6 -19 10734.9 830.698 12
3 -6 18 5824.89 628.176 9
3 -6 18 4595.09 452.353 19
-3 6 18 5357.17 639.708 18
3 -6 18 5825.29 608.782 14
3 6 -18 5751.09 653.238 12
3 -6 17 64736.4 2290.09 9
-3 -6 -17 62396.6 1918.09 10
3 -6 17 63816 1917.03 19
-3 6 17 62157.1 2404.72 18
3 -6 17 63858.5 2263.19 14
3 6 -17 59000.6 2291.42 12
3 -6 16 61332.5 2280.18 9
-3 -6 -16 57651.7 1945.16 10
3 -6 16 59134.4 1889.46 19
-3 6 16 60160.1 2422.54 18
3 -6 16 61567.2 2284.15 14
3 6 -16 55028.9 2262.87 12
3 -6 15 20481.5 1292.45 9
-3 -6 -15 17770.9 1034.86 10
3 -6 15 18220.4 1001.14 19
-3 6 15 17403.8 1297.89 18
-3 -6 -15 18072.7 1020.51 13
3 -6 15 18859.1 1270.69 14
3 6 -15 17348.5 1251.71 12
3 -6 14 7773.78 826.49 9
-3 -6 -14 8015.02 715.526 10
3 -6 14 9027.5 720.185 19
-3 6 14 7429.59 873.061 18
-3 -6 -14 8374.46 705.187 13
3 -6 14 8658.11 885.329 14
3 -6 13 9663.71 931.025 9
-3 -6 -13 10640.5 849.627 10
3 -6 13 12755 863.463 19
-3 6 13 10501.2 1033.65 18
3 -6 13 9582.97 954.323 14
-3 -6 -13 10690.9 807.404 13
3 -6 12 58871.7 2403.93 9
-3 -6 -12 61010.4 2180.1 10
3 -6 12 61289.3 2059.08 19
-3 6 12 62640.2 2587.98 18
-3 -6 -12 59461.1 2057.24 13
3 6 -12 55400.7 2388.51 12
3 -6 12 62877.6 2177.07 17
3 -6 12 62241.9 2505.12 14
3 -6 11 125044 3778.1 9
-3 -6 -11 131341 3534.32 10
3 -6 11 127670 3317.28 19
-3 6 11 129182 3971.82 18
3 -6 11 130733 3929.18 14
-3 -6 -11 134672 3418.16 13
3 -6 11 132165 3489.02 17
3 -6 10 14894.6 1162.78 9
-3 -6 -10 17034 1103.61 10
-3 -6 -10 20209.9 1084.12 6
3 -6 10 17051.2 1024.59 19
-3 6 10 17593.1 1302.68 18
3 -6 10 18902.7 1127.44 17
3 -6 10 17678.9 1308.78 14
-3 -6 -10 20335.2 1119.44 13
3 -6 9 63822.1 2500.04 9
-3 -6 -9 68498.8 2342.77 10
-3 -6 -9 67686.1 2202.74 6
-3 -6 -9 71104 2372.56 20
-3 6 9 66589.7 2600.49 18
-3 6 9 59166.7 2383.17 21
3 -6 9 65431.8 2605.41 14
3 -6 9 64174.5 2251.84 17
-3 -6 -9 63513.6 2124.89 13
3 -6 8 22830.1 1424.27 9
-3 -6 -8 25664.4 1352.57 10
-3 -6 -8 25569.3 1292.8 6
-3 -6 -8 24008.2 1341.69 20
-3 6 8 25085.1 1504.08 18
-3 6 8 25690.8 1480.55 21
3 -6 8 24815.2 1542.25 14
3 -6 8 26038.1 1356.6 17
-3 -6 -8 25709.9 1245.15 13
3 -6 7 273263 6218.42 9
-3 -6 -7 292537 6051.5 10
-3 -6 -7 283335 5932.55 6
3 -6 7 267441 5606.36 5
3 6 -7 315686 6485.14 2
-3 -6 -7 283894 6115.1 20
-3 6 7 246976 6112.26 21
3 -6 7 283569 6508.4 14
-3 -6 -7 274067 5699.32 13
3 -6 7 276259 6022.92 17
-3 -6 -7 293950 5952.07 15
3 -6 6 26232.4 1464.17 9
-3 -6 -6 31298.7 1462.24 6
3 -6 6 26889.8 1248.78 5
3 6 -6 31549.2 1653.89 2
-3 -6 -6 26982 1456.9 20
-3 6 6 29854.3 1523.27 23
-3 6 6 26558 1497.68 21
3 -6 6 27672.7 1421.65 17
-3 -6 -6 28235.3 1287.44 13
-3 -6 -6 30656.5 1403.8 15
3 -6 6 27652.4 1596.04 14
3 -6 5 3820.42 580.454 11
3 -6 5 3328.19 506.396 9
-3 -6 -5 3457.42 483.985 6
3 6 -5 3866.31 596.21 2
3 -6 5 2930.16 407.734 5
-3 6 5 2786.77 476.356 21
-3 6 5 3611.38 564.28 23
-3 -6 -5 3652.54 554.812 20
3 -6 5 3348.41 521.291 17
-3 -6 -5 3613 447.565 13
3 -6 5 3656.75 512.019 12
3 -6 5 3149.98 543.965 14
-3 -6 -5 3679.92 475.746 15
3 -6 4 29134.5 1573.08 11
3 -6 4 28390.4 1591.61 8
-3 -6 -4 29735.1 1443.92 6
3 -6 4 30320.3 1332.59 5
3 6 -4 32138.7 1722.49 2
-3 -6 -4 29820.9 1557.9 20
-3 6 4 29837.8 1601.04 23
-3 6 4 25245.2 1465.32 21
3 -6 4 29165.6 1634.44 14
3 -6 4 27121.8 1424.18 17
-3 -6 -4 28164.2 1259.23 13
3 -6 4 28668.2 1446.64 12
-3 -6 -4 30240.1 1399.15 15
3 -6 3 2558.44 471.897 11
3 -6 3 2681.16 505.806 8
3 -6 3 2036.15 383.322 4
-3 -6 -3 2464.77 417.679 6
3 6 -3 3270.29 574.927 2
3 -6 3 2742.5 417.973 5
-3 6 3 2603.25 486.132 21
-3 6 3 2450.21 499.194 23
-3 -6 -3 2702.17 483.026 20
3 -6 3 3016.98 541.199 14
3 -6 3 3226.75 492.98 12
-3 -6 -3 3028.61 446.229 15
3 -6 2 20134.1 1313.86 11
3 -6 2 19851.3 1286.67 8
-3 -6 -2 21903.1 1217.61 6
3 -6 2 21515 1132.49 5
3 -6 2 20221.6 1186.55 4
3 6 -2 21527.7 1437.4 2
-3 -6 -2 21638.9 1370.85 20
-3 6 2 19375.5 1334.62 23
-3 6 2 19580.2 1283.24 21
3 -6 2 20290.7 1193.49 12
3 -6 2 22466.6 1391.86 14
-3 -6 -2 21095.2 1164.96 15
3 -6 1 6545.59 750.749 11
3 -6 1 5651.26 683.923 8
-3 -6 -1 6082.56 640.118 6
3 -6 1 6003.82 601.756 5
3 -6 1 6120.96 659.878 4
3 6 -1 7149.68 848.389 2
-3 6 1 6084.91 755.578 23
-3 -6 -1 5472.22 705.08 20
-3 6 1 5631.44 685.573 21
3 -6 1 6055.35 746.011 14
3 -6 1 6386.02 664.937 12
-3 -6 -1 6575.34 640.493 15
3 -6 0 2323.35 474.933 11
3 -6 0 1921.73 404.463 8
3 -6 0 1714.72 364.397 4
-3 -6 0 3432.75 486.921 6
3 6 0 2311.85 514.868 2
3 -6 0 3164.46 448.742 5
3 6 0 2599.86 488.977 1
-3 6 0 1988.33 428.543 21
-3 6 0 1968.68 448.419 23
-3 -6 0 1868.82 458.571 20
3 -6 0 2348.38 436.655 12
3 -6 0 2597.29 487.156 14
-3 -6 0 2443.38 394.064 15
3 -6 -1 5341.74 719.013 11
3 -6 -1 5350.2 670.055 10
-3 -6 1 6499.8 655.346 6
3 6 1 5854.64 720.968 1
3 6 1 6891.32 877.895 2
3 -6 -1 5500.2 648.664 4
-3 6 -1 3995.35 580.095 21
-3 6 -1 6111.85 771.528 23
-3 -6 1 4831.19 672.054 20
3 -6 -1 6346.13 743.687 14
-3 -6 1 5696.66 612.899 15
3 -6 -1 5695.23 635.147 12
3 -6 -2 20597.7 1416.11 11
3 -6 -2 19380.4 1348.57 10
-3 -6 2 22110.6 1210.94 6
3 -6 -2 21333.6 1164.04 5
3 6 2 22716.9 1438.99 1
3 6 2 23421.6 1559.39 2
3 -6 -2 20280.5 1267.81 4
-3 6 -2 19686.7 1439.29 23
-3 -6 2 19921.6 1386.07 20
-3 6 -2 18571.1 1292.38 21
3 -6 -2 20914.2 1234.12 12
3 -6 -2 21641 1360.4 14
-3 -6 2 19724.6 1154.5 15
3 -6 -3 2628.81 547.921 11
3 -6 -3 3258.2 582.453 10
3 -6 -3 2199.97 432.682 4
-3 -6 3 3062.02 459.389 6
3 6 3 3299.93 603.297 2
3 -6 -3 3159.44 466.417 5
3 6 3 2490.02 509.001 1
-3 6 -3 2624.76 500.865 21
-3 6 -3 1787.28 464.369 23
-3 -6 3 3175.45 591.707 20
3 -6 -3 2328.42 439.729 14
3 -6 -4 24170.8 1598.02 11
3 -6 -4 26918.6 1650.92 10
-3 -6 4 28884.3 1395.67 6
3 6 4 28517.9 1666.73 1
3 -6 -4 31552.4 1454.47 5
3 6 4 31934.3 1837.01 2
3 -6 -4 25223.7 1495.18 4
-3 6 -4 28771.5 1806.73 23
-3 -6 4 26517.2 1683.81 20
-3 6 -4 25169.9 1541.56 21
3 -6 -4 31690 1653.12 14
3 -6 -5 3359.31 620.51 10
3 -6 -5 3755.98 602.086 4
-3 -6 5 4578.55 542.971 6
3 6 5 3143.32 555.712 1
3 -6 -5 5019.82 580.35 5
-3 6 -5 3374.01 619.674 23
-3 -6 5 4183.83 692.852 20
3 -6 -5 3384.67 541.971 14
3 -6 -6 26572 1693.08 10
-3 -6 6 29396.5 1373.98 6
3 6 6 25608.6 1636.36 1
3 -6 -6 27337.9 1380.65 5
3 -6 -6 25080.1 1575.35 4
-3 6 -6 27861.9 1841.44 23
-3 -6 6 27610.2 1771.7 20
3 -6 -6 28481.1 1556.9 14
3 -6 -7 248826 6499.71 10
-3 -6 7 281357 5659.45 6
3 6 7 247906 6396.18 1
3 -6 -7 265649 5692.71 5
3 -6 -7 264795 6422.52 4
-3 6 -7 272602 6982.47 23
-3 -6 7 252306 6593.75 20
3 -6 -8 24147.5 1688.84 10
-3 -6 8 25583.4 1252.23 6
3 6 8 22952.8 1614.02 1
3 -6 -8 27908.9 1374.84 5
3 -6 -8 25795.9 1661.06 4
-3 6 -8 23176.8 1773.02 23
-3 -6 8 26275.1 1771.12 20
-3 -6 8 26733.6 1616.28 16
3 -6 -9 60012.5 2717.76 10
-3 -6 9 66663.6 2116.38 6
-3 -6 9 61209.6 2830.27 20
-3 -6 9 65971.2 2677.43 16
3 -6 -10 16505.2 1370.14 10
-3 -6 10 18151.6 1513.27 20
-3 -6 10 18186.1 1380.15 16
3 -6 -11 128889 4178.28 10
-3 -6 11 125417 4381.03 20
-3 -6 11 132707 4134.02 16
3 6 11 139042 3306.32 18
3 -6 -12 58145.8 2603.6 10
-3 -6 12 60608.9 2855.3 20
-3 -6 12 61126.5 2619.6 16
3 6 12 62058.6 1969.94 18
3 -6 -13 10203.5 1066.34 10
3 6 13 10856 758.423 18
-3 -6 13 10683.2 1158.28 20
-3 -6 13 9314.07 994.457 16
3 -6 -14 7077.76 864.243 10
-3 -6 14 8889.23 1053.11 20
3 6 14 7674.01 633.82 18
-3 -6 14 5929.9 785.471 16
3 -6 -15 18990.1 1347.81 10
3 6 15 19716.4 1019.84 18
-3 -6 15 17823 1438.48 20
-3 -6 15 15274.7 1223.17 16
3 -6 -16 58635.7 2387.55 10
-3 -6 16 62772 2664.86 20
3 6 16 60980.4 1915.38 18
-3 -6 16 56408.2 2377.99 16
3 -6 -17 65365.5 2423.51 10
3 6 17 64856 1961.7 18
-3 -6 17 67219.5 2667.62 20
-3 -6 17 61491 2389.9 16
-3 6 -18 6125.57 576.976 7
-3 -6 18 5203.95 701.553 20
3 6 18 5226.68 491.166 18
-3 -6 18 5453.02 638.775 16
-3 6 -19 11699.9 729.682 7
-3 -6 19 10324.5 887.756 20
3 6 19 10010.9 654.169 18
-3 -6 19 9030.02 760.689 16
-3 6 -20 688.928 203.683 7
-3 -6 20 580.825 250.024 20
3 6 20 516.706 179.235 18
-3 -6 20 157.23 202.748 16
-3 6 -21 1809.23 248.748 7
-3 -6 21 2071.03 348.856 20
3 6 21 2023.49 266.104 18
-3 -6 21 2085.18 317.809 16
-3 -7 -20 3977.48 402.19 8
3 -7 20 3265.5 360.05 9
-3 -7 -19 11892.6 763.49 8
3 -7 19 11362.9 738.88 9
-3 7 19 11069.8 692.528 18
-3 -7 -18 9604.73 593.163 10
-3 -7 -18 9423.45 732.681 8
3 -7 18 9606.06 731.851 9
-3 7 18 8894.88 687.671 18
3 -7 18 9963.42 718.227 14
-3 -7 -17 45.4347 204.476 8
-3 -7 -17 62.0533 139.301 10
3 -7 17 224.443 231.795 9
3 -7 17 183.426 153.85 19
-3 7 17 96.7281 149.613 18
3 -7 17 -110.818 207.52 14
-3 -7 -16 24742.3 1160.84 10
-3 -7 -16 23442.4 1311.71 8
3 -7 16 24292.1 1315.4 9
3 -7 16 24793.4 1046.82 19
-3 7 16 23974.2 1296.6 18
3 -7 16 25106.5 1314.87 14
-3 -7 -15 9626.31 757.005 10
-3 -7 -15 9579.87 859.366 8
3 -7 15 9594.69 856.537 9
3 -7 15 9261.63 655.563 19
-3 7 15 10678.7 895.597 18
3 -7 15 9316.07 843.771 14
-3 -7 -14 87760.4 2613.83 10
-3 -7 -14 87406.9 2902.29 8
3 -7 14 87534 2866.7 9
3 -7 14 89508.1 2405.31 19
-3 7 14 87311.2 2868.83 18
-3 -7 -14 85716.8 2429.56 13
3 -7 14 86747.7 2862.41 14
-3 -7 -13 47658.6 1858.47 10
-3 -7 -13 48533.7 2104.37 8
3 -7 13 48483 2061.25 9
3 -7 13 47018.4 1656.26 19
-3 7 13 44658.6 1980.27 18
-3 -7 -13 44659.4 1671.94 13
3 -7 13 47435.7 2062.73 14
-3 -7 -12 164333 4150.22 10
-3 -7 -12 177649 4593.68 8
3 -7 12 166437 4446.07 9
3 -7 12 168904 3873.06 19
-3 7 12 166526 4391.1 18
-3 -7 -12 166524 3907.03 13
3 -7 12 173819 4554.85 14
3 -7 11 11639.2 1010.8 9
-3 -7 -11 10604.8 889.891 10
-3 -7 -11 11262.5 1003.85 8
3 -7 11 11904.4 819.279 19
-3 -7 -11 12014.9 848.434 13
3 -7 11 10895.8 1005.34 14
3 -7 11 13137.3 901.673 17
3 -7 10 74255.2 2750.76 9
-3 -7 -10 80283.2 2642.37 10
-3 -7 -10 74117 2745.89 8
-3 -7 -10 84733.7 2397.21 6
3 -7 10 80379 2375.03 19
-3 -7 -10 80005.8 2408.36 13
3 -7 10 81726 2929.37 14
3 -7 10 79271.5 2477.71 17
-3 -7 -9 3556.07 564.438 8
3 -7 9 3545.87 586.076 9
-3 -7 -9 5116.32 642.695 10
-3 -7 -9 4333.64 521.676 6
3 -7 9 3592.95 454.127 19
3 -7 9 3819.91 529.788 17
-3 -7 -9 3253.38 472.121 13
3 -7 9 4375.89 690.231 14
-3 -7 -8 91900.1 2641.1 6
3 -7 8 81658.4 2853.42 9
-3 -7 -8 82013.1 2699.75 10
-3 -7 -8 79448.6 2806.08 8
-3 -7 -8 83874.4 2483.57 13
3 -7 8 83601 3017.4 14
3 -7 8 83552.6 2602.86 17
-3 -7 -7 12360.9 910.474 6
-3 -7 -7 12829.2 978.539 10
-3 -7 -7 11462.1 968.13 8
3 -7 7 11226 969.314 9
3 -7 7 12750.2 925.262 17
-3 -7 -7 11749.8 823.623 13
3 -7 7 13774.5 1155.05 14
-3 -7 -6 15170.2 1006.82 6
-3 -7 -6 14008.7 1011.51 10
-3 -7 -6 11155.4 921.865 8
3 -7 6 12726 1011.81 9
-3 -7 -6 13614.4 876.38 13
3 -7 6 13282.7 963.554 17
3 -7 6 13303.4 1145.71 14
3 -7 5 37728.2 1790.92 11
3 -7 5 33849.1 1823.57 8
-3 -7 -5 35530 1637.77 10
3 -7 5 35585.7 1687.81 9
-3 -7 -5 37819.2 1659.96 6
-3 -7 -5 33610 1623.14 20
-3 7 5 29547.7 1686.33 21
3 -7 5 33919.9 1846.62 14
3 -7 5 33340.7 1585.6 17
-3 -7 -5 35929.8 1460.15 13
-3 -7 -5 37496.9 1552.77 15
3 -7 4 4355.12 615.346 11
-3 -7 -4 5947.43 671.534 10
3 -7 4 5111.37 718.036 8
-3 -7 -4 5554.25 633.124 6
3 -7 4 5996.75 606.816 5
-3 7 4 3936.85 598.078 21
-3 -7 -4 5178.81 646.42 20
-3 -7 -4 5115.25 526.1 13
3 -7 4 4436.3 576.121 17
3 -7 4 5736.32 750.571 14
-3 -7 -4 5887.23 599.259 15
3 -7 3 9922.38 937.8 11
3 -7 3 10673.9 1002.74 8
-3 -7 -3 9937.32 851.877 6
3 -7 3 11498.6 846.765 5
3 -7 3 11289.1 915.992 4
3 7 -3 12942.9 1141.57 2
-3 -7 -3 9268.16 876.251 20
-3 7 3 9571.31 931.579 21
3 -7 3 10626.7 1008.99 14
3 -7 3 11722.7 929.929 17
-3 -7 -3 9151.58 693.322 13
3 -7 3 13382.6 956.608 12
-3 -7 -3 11278.4 816.96 15
3 -7 2 20944.7 1353.55 11
3 -7 2 21572.1 1389.65 8
-3 -7 -2 22576.5 1273.48 6
3 -7 2 22299.7 1189.36 5
3 -7 2 22006.7 1314.99 4
3 7 -2 24780.4 1569.98 2
-3 -7 -2 17318.9 1233.25 20
-3 7 2 19355.8 1335.47 23
-3 7 2 19446 1351.4 21
3 -7 2 18439.2 1193.59 17
3 -7 2 22138.4 1224.63 12
3 -7 2 20993.9 1425.92 14
-3 -7 -2 20420.3 1117.62 15
3 -7 1 411.85 300.273 11
3 -7 1 477.501 323.07 8
3 -7 1 540.455 292.507 4
-3 -7 -1 953.359 285.465 6
3 7 -1 1454.89 452.16 2
3 -7 1 896.649 312.787 5
-3 7 1 684.679 270.502 21
-3 7 1 411.149 227.186 23
-3 -7 -1 462.658 290.139 20
3 -7 1 1269.98 413.429 14
3 -7 0 1705.01 439.299 11
3 -7 0 1548.59 418.605 8
3 -7 0 1955.81 423.11 4
-3 -7 0 1004.75 330.515 6
3 7 0 1694.75 477.753 2
3 -7 0 1446.5 329.118 5
-3 7 0 1655.38 393.277 21
-3 7 0 1718.06 422.664 23
-3 -7 0 1590.14 435.993 20
3 -7 0 1366.87 398.214 14
3 -7 -1 310.222 211.659 11
3 -7 -1 1104.26 366.051 8
3 -7 -1 454.732 199.614 4
-3 -7 1 547.739 236.226 6
3 7 1 560.756 300.988 2
3 -7 -1 928.98 280.429 5
-3 7 -1 235.953 188.066 21
-3 7 -1 69.1663 237.536 23
-3 -7 1 995.729 377.973 20
3 -7 -1 1090.31 373.674 14
3 -7 -2 20027.2 1411.14 11
3 -7 -2 18469.8 1325.81 10
-3 -7 2 21490.5 1229.23 6
3 -7 -2 19954.9 1168.01 5
3 7 2 23776.7 1613.49 2
3 -7 -2 20262.1 1346.04 4
-3 7 -2 19516.8 1440.09 23
-3 -7 2 19032.5 1391.21 20
-3 7 -2 20335.1 1407.93 21
3 -7 -2 19671.3 1364.25 14
3 -7 -3 10680.8 1036.97 11
3 -7 -3 11015.2 1035.85 10
-3 -7 3 11347.6 883.64 6
3 -7 -3 10717.2 840.475 5
3 7 3 11349.5 1068.71 1
3 7 3 11496.6 1135.33 2
3 -7 -3 9140.29 911.446 4
-3 7 -3 10291 1060.4 23
-3 -7 3 10027.3 1011.16 20
-3 7 -3 9387.1 964.798 21
3 -7 -3 11042 1016.49 14
3 -7 -4 4850.38 730.458 11
3 -7 -4 5398.87 765.871 10
3 -7 -4 4519.26 671.738 4
-3 -7 4 5070.03 604.433 6
3 7 4 6287.52 845.373 2
3 -7 -4 4837.56 570.036 5
3 7 4 4021.28 645.689 1
-3 7 -4 4015.51 662.109 21
-3 7 -4 6000.85 839.738 23
-3 -7 4 3597.8 635.181 20
3 -7 -4 4935.49 703.949 14
3 -7 -5 30067.3 1833.71 11
3 -7 -5 32152.5 1869.1 10
-3 -7 5 36121.8 1589.43 6
3 7 5 33448 1879.74 1
3 7 5 34570.6 1977.41 2
3 -7 -5 35765.9 1889.37 4
-3 7 -5 33563.8 2023.79 23
-3 -7 5 31815.1 1893.79 20
-3 7 -5 31091 1832.07 21
3 -7 -5 34759.4 1815.22 14
3 -7 -6 11626 1138.56 10
3 -7 -6 12817.7 1172.8 11
-3 -7 6 16371 1025.35 6
-3 -7 6 12545 1188.59 20
3 -7 -6 12215.8 1072.41 14
-3 -7 6 12244 1086.03 16
3 -7 -7 13142.7 1227.4 10
-3 -7 7 11879.6 885.631 6
-3 -7 7 12855.6 1222.38 20
3 -7 -7 12610.8 1076.57 14
-3 -7 7 12874.8 1140.22 16
3 -7 -8 78270.4 3183.88 10
-3 -7 8 80364.5 2467.47 6
-3 -7 8 79043.2 3212.43 20
3 -7 -8 80455.7 2876.18 14
-3 -7 8 79668.5 3017.93 16
3 -7 -9 4205.88 722.174 10
-3 -7 9 3242.51 445.5 6
-3 -7 9 2640.54 660.028 20
3 7 9 3875.86 426.591 18
-3 -7 9 3155.56 652.248 16
3 -7 -9 2813.82 541.934 14
3 -7 -10 74656.1 3045.66 10
-3 -7 10 74143.9 3122.05 20
3 7 10 76866.9 2178.4 18
-3 -7 10 79373.4 3020.79 16
3 -7 -11 9344.51 1038.05 10
-3 -7 11 10046 1131.61 20
3 7 11 11169.1 735.794 18
-3 -7 11 11554.5 1107.92 16
3 -7 -12 160634 4697.7 10
3 7 12 168705 3693.68 18
-3 -7 12 163999 4935.77 20
-3 -7 12 160771 4646.58 16
3 -7 -13 45020.2 2199.01 10
3 7 13 45387.2 1559.53 18
-3 -7 13 43795.4 2321.85 20
-3 -7 13 47902.8 2200.03 16
3 -7 -14 88177 3080.86 10
-3 -7 14 86291.5 3250.22 20
3 7 14 84948.9 2306.16 18
-3 -7 14 84117.7 3004.76 16
3 -7 -15 10648.5 978.601 10
3 7 15 9731.92 664.169 18
-3 -7 15 10608.2 1062.82 20
-3 -7 15 9646.62 930.885 16
3 -7 -16 24019.6 1407.23 10
-3 -7 16 26234.1 1571.65 20
3 7 16 25641.8 1083.13 18
-3 -7 16 24099.1 1403.33 16
-3 7 -17 363.835 190.191 7
3 -7 -17 173.956 227.334 10
-3 -7 17 354.54 292.318 20
3 7 17 382.012 190.378 18
-3 -7 17 352.12 236.934 16
-3 7 -18 12071.5 685.12 7
-3 -7 18 10321.4 862.132 20
3 7 18 9374.35 595.132 18
-3 -7 18 9466.82 767.632 16
-3 7 -19 13403.4 646.434 7
3 7 19 11018.2 608.22 18
-3 -7 19 12768.7 878.224 20
-3 -7 19 11276 756.88 16
3 -7 -20 3553.36 412.466 11
3 7 20 3779.64 318.39 18
-3 -7 20 3586.02 430.761 20
-3 -8 -19 3473.48 359.307 8
3 -8 19 3518.27 358.347 9
-3 -8 -18 16958.8 864.677 8
3 -8 18 16529.7 863.073 9
-3 -8 -17 18440.6 866.233 10
-3 -8 -17 19519.6 1007.94 8
3 -8 17 19996.8 1021.74 9
3 -8 17 18763.2 948.901 14
-3 -8 -16 16495.1 885.739 10
-3 -8 -16 16226.2 980.474 8
3 -8 16 16319.8 978.996 9
3 -8 16 15831.8 935.739 14
-3 -8 -15 8311.42 666.806 10
-3 -8 -15 7617.7 701.75 8
3 -8 15 8522.45 740.433 9
3 -8 15 8375.22 722.28 14
-3 -8 -14 23511.1 1191.38 10
-3 -8 -14 22432.9 1272.38 8
3 -8 14 20943.1 1226.45 9
3 -8 14 20740.1 905.047 19
3 -8 14 21315.3 1227.2 14
-3 -8 -13 18491.8 1088.46 10
-3 -8 -13 18663.4 1192.29 8
3 -8 13 19355.9 1196.21 9
3 -8 13 17568.3 857.445 19
3 -8 13 17890.7 1169.77 14
-3 -8 -12 69474.3 2293.88 10
-3 -8 -12 64136.3 2386.53 8
3 -8 12 62021.5 2353.41 9
3 -8 12 66645.7 1912.66 19
3 -8 12 65820.7 2434.54 14
-3 -8 -11 67242.6 2312.3 10
-3 -8 -11 61146.8 2359.71 8
3 -8 11 63851.8 2395.82 9
3 -8 11 68915.7 1963.28 19
-3 -8 -11 60407.4 1942.13 13
3 -8 11 63121.8 2441.47 14
-3 -8 -10 14400.3 1030.28 10
-3 -8 -10 13283.6 1041.01 8
3 -8 10 14347.4 1098.55 9
3 -8 10 13333.5 806.504 19
-3 -8 -10 13421.4 844.112 13
3 -8 10 13448.3 1099.7 14
3 -8 10 15348.8 918.102 17
-3 -8 -9 4260.81 597.542 8
3 -8 9 3462.3 577.34 9
-3 -8 -9 3713.9 565.41 10
-3 -8 -9 4343.07 499.037 6
3 -8 9 4187.27 456.717 19
-3 -8 -9 3327.86 442.752 13
3 -8 9 4098.48 657.219 14
3 -8 9 5155.66 546.017 17
-3 -8 -8 38583.7 1750.06 10
-3 -8 -8 35946.6 1735.32 8
3 -8 8 34565.4 1732.56 9
-3 -8 -8 39053.7 1578.99 6
3 -8 8 37305.5 1432.94 19
-3 -8 -8 36229.2 1441.6 13
3 -8 8 37214.4 1885.15 14
3 -8 8 37540.2 1532.6 17
-3 -8 -7 1641.6 371.575 8
3 -8 7 1903.7 424.224 9
-3 -8 -7 2133.41 434.911 10
-3 -8 -7 1520.28 371.83 6
3 -8 7 1318.45 281.781 19
3 -8 7 1720.37 334.453 17
-3 -8 -7 1661.65 324.062 13
3 -8 7 1809.28 467.883 14
-3 -8 -6 1148.71 329.045 6
-3 -8 -6 795.789 302.513 8
3 -8 6 880.519 282.532 9
-3 -8 -6 927.122 369.875 10
-3 -8 -6 870.134 269.192 13
3 -8 6 764.878 412.345 14
3 -8 6 956.354 293.581 17
-3 -8 -5 52961.5 1997.37 6
3 -8 5 51738.7 2304.39 8
-3 -8 -5 50161.1 2011.48 10
3 -8 5 46496.2 1965.48 9
-3 -8 -5 49208.5 1709.02 13
3 -8 5 49953.3 2275.67 14
3 -8 5 49411.7 1892.26 17
-3 -8 -4 4406.25 594.396 6
3 -8 4 4139.03 609.605 11
-3 -8 -4 3411.56 545.603 10
3 -8 4 3796.69 639.07 8
3 -8 4 2993.93 582.275 14
3 -8 4 3688.81 507.465 17
-3 -8 -3 98633.4 2996.25 6
3 -8 3 105158 3212.13 11
3 -8 3 99313.5 3353.47 8
-3 -8 -3 101255 3017.22 10
3 -8 3 100331 3401.45 14
3 -8 3 97327.3 2947.63 17
-3 -8 -2 2273.55 459.114 6
3 -8 2 2270.44 481.196 11
-3 -8 -2 2236.88 415.409 10
3 -8 2 2309.18 509.431 8
3 -8 2 1538.62 362.143 17
3 -8 2 2219.1 491.379 14
3 -8 1 3988.71 618.994 11
-3 -8 -1 3973.56 536.809 10
3 -8 1 4549.61 654.528 8
-3 -8 -1 5070.89 630.46 6
-3 -8 -1 3916.85 592.194 20
3 -8 1 4620.43 587.927 17
3 -8 1 5315.07 742.142 14
3 -8 0 2776.89 497.275 11
-3 -8 0 2381.52 439.278 10
3 -8 0 2794.07 540.976 8
-3 -8 0 3377.03 524.756 6
-3 -8 0 1704.46 407.397 20
3 -8 0 2354.39 507.947 14
3 -8 -1 4369.21 656.645 11
-3 -8 1 4936.94 589.982 10
3 -8 -1 3404.6 579.123 8
-3 -8 1 4382.69 585.91 6
-3 -8 1 4719.02 666.143 20
3 -8 -1 3253.09 601.138 14
3 -8 -2 2411.88 511.506 11
-3 -8 2 2716.2 451.584 10
3 -8 -2 2802.98 543.197 8
-3 -8 2 2594.04 456.102 6
-3 -8 2 2973.77 566.643 20
3 -8 -2 2333.26 516.665 14
3 -8 -3 95311.8 3304.68 11
3 -8 -3 97316.4 3323.26 10
3 -8 -3 99295.4 3194.08 8
-3 -8 3 99335.7 2786.15 10
-3 -8 3 100493 3003.46 6
-3 -8 3 97278.8 3368.88 20
3 -8 -3 100103 3391.14 14
-3 -8 3 105080 3405.8 16
3 -8 -4 3584.58 644.592 11
3 -8 -4 5446.88 749.085 10
-3 -8 4 3975.21 568.498 6
-3 -8 4 3344.02 626.582 20
-3 -8 4 2961.58 584.581 16
3 -8 -4 3816.1 632.583 14
3 -8 -5 44114.6 2182.81 11
3 -8 -5 48856.7 2321.74 10
-3 -8 5 51043.6 1946.63 6
-3 -8 5 47387.7 2287.58 20
3 -8 -5 49140 2234.82 14
-3 -8 5 47689.2 2229.35 16
3 -8 -6 556.495 307.866 11
3 -8 -6 1517.18 504.484 10
-3 -8 6 988.215 287.755 6
-3 -8 6 400.218 321.512 20
-3 -8 6 1289.78 460.937 16
3 -8 -6 923.185 399.465 14
3 -8 -7 555.01 302.485 11
3 -8 -7 2329.14 530.335 10
-3 -8 7 1204.99 295.235 6
-3 -8 7 1069.9 421.005 20
-3 -8 7 2127.19 554.396 16
3 -8 -7 2114.38 474.995 14
3 -8 -8 33510.3 1907.86 11
3 -8 -8 35332.6 2003.9 10
-3 -8 8 37584 1574.47 6
-3 -8 8 34772 1975.71 20
3 -8 -8 35434 1837.57 14
-3 -8 8 39868.7 2017.61 16
3 -8 -9 4126.43 684.578 11
3 -8 -9 3958.96 678.571 10
-3 -8 9 3078.5 450.282 6
-3 -8 9 3343.4 634.227 20
-3 -8 9 3230.86 589.205 16
3 -8 -9 3093.8 558.931 14
3 -8 -10 13015 1158.35 11
3 -8 -10 13552 1200.13 10
-3 -8 10 11706 806.154 6
-3 -8 10 13200.2 1197.3 20
3 -8 -10 14306.9 1083.36 14
-3 -8 10 14320.1 1191.58 16
3 -8 -11 63595.7 2645.36 10
-3 -8 11 61218.4 2668.5 20
3 -8 -11 65942.7 2345.8 14
-3 -8 11 64146.7 2598.67 16
3 -8 -12 63518.6 2589.19 10
-3 -8 12 60759.2 2616.08 20
-3 -8 12 67445.9 2593.69 16
3 -8 -13 19538.6 1333.24 10
-3 -8 13 16803.2 1306.39 20
-3 -8 13 18154.4 1262.22 16
3 -8 -14 19903.9 1308.32 10
-3 -8 14 21824.4 1414.12 20
-3 -8 14 22109.4 1340.04 16
3 -8 -15 7956.73 787.835 10
-3 -8 15 8331.22 841.221 20
3 8 15 7089.41 513.914 18
-3 -8 15 8694.71 789.714 16
3 -8 -16 13959.1 997.365 11
3 -8 -16 16449.3 1051.67 10
3 8 16 15339.5 717.799 18
-3 -8 16 15838 1084.85 20
-3 -8 16 17149.4 1047.55 16
3 -8 -17 19047.6 1084.76 11
-3 -8 17 19093.6 1114.4 20
-3 -8 17 19098.9 1034.92 16
3 -8 -18 16028.3 911.143 11
-3 -8 18 16943.9 957.315 20
-3 -8 18 16274.1 844.378 16
3 -8 -19 3215.85 354.815 11
-3 -8 19 3658.92 400.036 20
-3 -9 -17 2988.67 324.866 8
3 -9 17 2782.59 321.958 9
-3 -9 -16 280.143 168.809 8
3 -9 16 254.915 160.26 9
-3 -9 -16 153.748 126.582 10
3 -9 16 281.874 133.576 14
-3 -9 -15 11628 717.451 10
-3 -9 -15 11052.3 734.581 8
3 -9 15 10631.5 738.401 9
3 -9 15 11228.8 730.753 14
-3 -9 -14 6345.27 571.26 10
-3 -9 -14 5746.11 567.315 8
3 -9 14 5363.13 559.681 9
3 -9 14 5377.24 555.719 14
-3 -9 -13 440.119 210.669 8
-3 -9 -13 476.479 232.757 10
3 -9 13 455.033 242.915 9
3 -9 13 171.752 202.753 14
-3 -9 -12 12033.9 853.423 10
-3 -9 -12 12124.9 889.283 8
3 -9 12 11862.7 886.245 9
3 -9 12 11553.3 891.529 14
-3 -9 -11 2031.74 403.188 8
3 -9 11 1847.64 390.694 9
-3 -9 -11 2541.95 431.914 10
3 -9 11 1780.36 400.22 14
-3 -9 -10 9376.57 787.682 10
-3 -9 -10 9170.9 802.873 8
3 -9 10 9138.7 814.943 9
3 -9 10 8584.45 830.291 14
-3 -9 -9 551.593 236.666 6
-3 -9 -9 134.366 175.499 8
3 -9 9 247.883 214.398 9
-3 -9 -9 121.26 250.893 10
3 -9 9 169.374 259.146 14
-3 -9 -8 3831.79 463.228 6
-3 -9 -8 3194.72 489.956 8
3 -9 8 3187.11 516.983 9
-3 -9 -8 2803.35 473.188 10
-3 -9 -8 3306.55 368.253 13
3 -9 8 2899.76 534.67 14
-3 -9 -7 14062.3 906.242 6
-3 -9 -7 13582.6 987.513 10
-3 -9 -7 12619.9 941.122 8
3 -9 7 12314.9 953.495 9
3 -9 7 11967.8 1041.77 14
-3 -9 -6 51323.9 1871.9 6
-3 -9 -6 48807.3 1954.01 10
3 -9 6 43470.4 1860.88 9
3 -9 6 48959.9 2155.74 14
-3 -9 -5 27536.3 1370.38 6
-3 -9 -5 27147.4 1433.68 10
3 -9 5 30401.5 1684.14 14
-3 -9 -4 10921.3 870.133 6
3 -9 4 9981.15 990.151 8
-3 -9 -4 10211.7 861.1 10
3 -9 4 11114.6 1019.05 14
-3 -9 -3 6525.88 693.248 6
3 -9 3 5936.95 793.996 8
-3 -9 -3 5718.15 640.971 10
3 -9 3 7146.98 834.402 14
-3 -9 -2 43849.8 1832.03 6
3 -9 2 45121.1 1882.29 11
3 -9 2 42756.4 2050.11 8
-3 -9 -2 40265.8 1740.57 10
3 -9 2 44352.2 2106.65 14
-3 -9 -1 753.07 345.25 6
3 -9 1 1169.71 360.499 11
-3 -9 -1 1648.03 366.773 10
3 -9 1 1454.36 421.278 8
3 -9 1 922.696 385.426 14
-3 -9 0 11571.6 925.092 6
3 -9 0 10347.5 894.798 11
3 -9 0 10300.7 972.798 8
-3 -9 0 10807.7 837.73 10
-3 -9 0 11676.8 1025.2 16
3 -9 0 9871.2 991.177 14
-3 -9 1 1417.97 377.645 6
3 -9 -1 981.926 328.685 11
-3 -9 1 1171.04 287.675 10
3 -9 -1 1508.63 445.064 8
3 -9 -1 1061.08 293.849 17
-3 -9 1 429.476 271.011 16
3 -9 -1 1459.44 467.799 14
-3 -9 2 42454.9 1798.42 6
3 -9 -2 42629.8 1918.41 11
3 -9 -2 44855.6 1999.23 8
-3 -9 2 41229.1 1632.44 10
3 -9 -2 43950.7 2104.45 14
3 -9 -2 37706 1632.03 17
-3 -9 2 42380.6 2014.38 16
3 -9 -3 5663.58 705.407 11
3 -9 -3 5354.99 686.465 8
-3 -9 3 4670.53 599.342 6
-3 -9 3 6026.62 713.302 20
-3 -9 3 6313.33 783.393 16
3 -9 -3 5968.99 774.884 14
3 -9 -4 9680.2 916.022 11
3 -9 -4 9468.67 917.031 10
3 -9 -4 10107.5 893.261 8
-3 -9 4 8887.46 797.726 6
-3 -9 4 9440.56 896.411 20
3 -9 -4 8208.1 893.224 14
-3 -9 4 10820.5 1005.29 16
3 -9 -5 27908 1584.84 11
3 -9 -5 27940.3 1641.66 10
-3 -9 5 29983 1446.18 6
-3 -9 5 28201.9 1597.12 20
3 -9 -5 29766.1 1681.79 14
-3 -9 5 29424.4 1678.08 16
3 -9 -6 44531.4 2039.1 11
3 -9 -6 46006.3 2156.55 10
-3 -9 6 46966 1825.89 6
-3 -9 6 42567.9 2020.06 20
3 -9 -6 49938.6 2183.73 14
-3 -9 6 48119.1 2175.92 16
3 -9 -7 12603.6 1056.76 11
3 -9 -7 11594.5 1072.2 10
-3 -9 7 11567.5 845.193 6
-3 -9 7 10068.6 955.567 20
3 -9 -7 11557.1 1005.29 14
-3 -9 7 12151.1 1065.14 16
3 -9 -8 1728.19 421.436 11
3 -9 -8 3035.3 564.872 10
-3 -9 8 3541.9 477.141 6
-3 -9 8 2985.85 554.901 20
-3 -9 8 3259.77 559.797 16
3 -9 -8 2489.67 489.878 14
3 -9 -9 359.653 280.195 11
3 -9 -9 360.994 294.567 10
-3 -9 9 403.334 220.836 6
-3 -9 9 437.522 316.864 20
-3 -9 9 245.321 264.969 16
3 -9 -9 110.784 253.491 14
3 -9 -10 7774.11 819.871 11
3 -9 -10 10683.7 1003.88 10
-3 -9 10 8191.84 641.587 6
-3 -9 10 8987.78 890.861 20
3 -9 -10 10031.3 856.344 14
-3 -9 10 8445.95 846.105 16
3 -9 -11 1502.65 381.101 11
3 -9 -11 1455.75 403.013 10
-3 -9 11 1706.33 442.914 20
-3 -9 11 2733.27 499.856 16
3 -9 -11 1816.03 362.69 14
3 -9 -12 11888.4 943.556 11
3 -9 -12 10743.4 952.419 10
-3 -9 12 12043.6 970.673 20
-3 -9 12 12752.7 984.412 16
3 -9 -13 30.4912 211.419 11
3 -9 -13 395.774 258.971 10
-3 -9 13 146.779 240.138 20
-3 -9 13 258.12 216.384 16
3 -9 -14 5550.11 598.809 11
3 -9 -14 5365.37 620.775 10
-3 -9 14 4857.41 580.403 20
-3 -9 14 5400.72 587.638 16
3 -9 -15 10786.2 777.619 11
3 -9 -15 11418.3 819.123 10
-3 -9 15 10995 799.328 20
-3 -9 15 10655.5 759.441 16
3 -9 -16 609.462 215.399 11
-3 -9 16 694.95 232.912 20
-3 -9 16 721.279 223.123 16
3 -9 -17 2552.98 310.473 11
-3 -9 17 2922.67 331.953 20
-3 -10 -14 656.954 178.278 8
3 -10 14 706.367 188.304 9
-3 -10 -14 1040.39 228.309 10
3 -10 14 1286.73 235.104 14
-3 -10 -13 21608.4 990.677 10
-3 -10 -13 20799.5 961.839 8
3 -10 13 20590 976.339 9
3 -10 13 21122.1 982.695 14
-3 -10 -12 16845.9 907.813 10
-3 -10 -12 14457.6 835.836 8
3 -10 12 14237.7 850.68 9
3 -10 12 17604.6 942.729 14
-3 -10 -11 21628.2 1074.68 10
-3 -10 -11 18070.3 979.547 8
3 -10 11 18674.3 1015.14 9
3 -10 11 18121.5 1024.39 14
-3 -10 -10 11590.8 803.626 10
-3 -10 -10 10220.2 748.997 8
3 -10 10 10399.9 767.811 9
3 -10 10 11139.8 829.224 14
-3 -10 -9 3914.35 500.83 10
-3 -10 -9 4568.12 512.455 8
3 -10 9 4125.54 503.526 9
3 -10 9 4384.23 570.765 14
-3 -10 -8 2794.36 364.438 6
-3 -10 -8 2952.23 430.605 8
3 -10 8 2342.43 372.949 9
-3 -10 -8 2003.04 400.216 10
3 -10 8 2763.98 486.57 14
-3 -10 -7 977.549 269.798 6
3 -10 7 726.545 230.175 9
-3 -10 -7 582.695 256.408 10
3 -10 7 1476.64 415.939 14
-3 -10 -6 195.176 187.826 6
-3 -10 -6 282.249 257.948 10
3 -10 6 345.042 333.963 14
-3 -10 -5 26506.4 1263.17 6
-3 -10 -5 25490.6 1288.49 10
3 -10 5 27649.1 1504.28 14
-3 -10 -4 23830.6 1219.29 6
-3 -10 -4 21453.5 1183.26 10
3 -10 4 22409.6 1373.46 14
-3 -10 -3 1095.06 318.78 6
-3 -10 -3 1369.35 342.713 10
3 -10 3 1172.94 411.122 14
-3 -10 -2 512.12 281.698 6
-3 -10 -2 -44.7078 194.441 10
3 -10 2 536.159 299.403 8
3 -10 2 227.285 298.039 14
-3 -10 -1 56623.7 2063.38 6
3 -10 1 53798.2 2204.59 8
-3 -10 -1 56807.6 1941.54 10
3 -10 1 55689.1 2291.98 14
-3 -10 0 1911.68 405.098 6
-3 -10 0 2058.87 364.671 10
3 -10 0 1871.11 447.444 8
3 -10 0 1615.35 445.825 14
-3 -10 1 58503 2099.63 6
3 -10 -1 57754.7 2242.37 8
3 -10 -1 59914.9 2383.33 14
-3 -10 1 57616.2 2251.77 16
-3 -10 2 319.475 241.727 6
3 -10 -2 388.806 265.572 8
-3 -10 2 258.778 291.284 16
3 -10 -2 -249.342 321.723 14
-3 -10 3 1522.47 363.382 6
3 -10 -3 1335.63 327.037 11
3 -10 -3 1268.52 350.858 8
-3 -10 3 1638.33 436.585 16
3 -10 -3 1287.02 394.555 14
-3 -10 4 22642.3 1216.98 6
3 -10 -4 21799.4 1185.48 11
3 -10 -4 21412.4 1222.06 8
-3 -10 4 23161.6 1392.88 16
3 -10 -4 22507 1376.71 14
-3 -10 5 27667.8 1343.04 6
3 -10 -5 27047.5 1340.9 11
3 -10 -5 29982.3 1490.64 10
-3 -10 5 27226.5 1515.77 16
3 -10 -5 28651.7 1548.46 14
-3 -10 6 150.37 220.605 6
3 -10 -6 260.87 236.274 11
3 -10 -6 376.626 250.352 10
-3 -10 6 272.856 255.144 16
3 -10 -6 237.738 272.905 14
-3 -10 7 521.613 231.404 6
3 -10 -7 626.513 260.91 11
3 -10 -7 816.041 305.253 10
-3 -10 7 622.132 289.57 16
3 -10 -7 696.376 272.056 14
-3 -10 8 2552.86 388.856 6
3 -10 -8 2139.1 388.283 11
3 -10 -8 1926.5 413.91 10
-3 -10 8 3532.08 516.781 16
3 -10 -8 3017.9 499.975 14
-3 -10 9 3668.52 421.861 6
3 -10 -9 4064.75 500.682 11
3 -10 -9 3704.79 542.949 10
-3 -10 9 4468.62 576.327 16
3 -10 -9 3823.69 497.137 14
3 -10 -10 10683.3 772.621 11
3 -10 -10 10654.5 867.795 10
3 -10 -10 11638 810.882 14
-3 -10 10 11624.2 888.599 16
3 -10 -11 17806 1096.2 10
3 -10 -11 18844.3 987.801 11
3 -10 -11 18042.7 942.883 14
-3 -10 11 19037.6 1086.65 16
3 -10 -12 15691.6 863.202 11
3 -10 -12 16487.9 1000.16 10
-3 -10 12 16642.3 954.197 16
3 -10 -13 20262 1067.81 10
-3 -10 13 23157.9 1060.8 16
-3 -11 -12 2930.35 310.376 10
-3 -11 -11 1187.97 230.187 10
3 -11 11 1155.1 231.825 14
-3 -11 -10 1123.15 244.137 10
3 -11 10 1069.61 241.203 14
-3 -11 -9 2367.28 343.961 10
3 -11 9 2711.38 389.576 14
-3 -11 -8 21037.2 999.268 10
3 -11 8 21205.2 1067.27 14
-3 -11 -7 22509.3 947.046 6
-3 -11 -7 24395.9 1100.73 10
3 -11 7 25161.9 1198.75 14
-3 -11 -6 53344.1 1654.89 6
-3 -11 -6 51914.5 1721.74 10
3 -11 6 56385.6 1938.59 14
-3 -11 -5 6111.21 536.61 6
-3 -11 -5 5022.58 505.042 10
3 -11 5 5867.81 626.885 14
-3 -11 -4 10234.9 716.96 6
-3 -11 -4 9062 661.797 10
3 -11 4 10611.3 845.553 14
-3 -11 -3 1998.61 367.4 6
-3 -11 -3 1537.7 313.217 10
3 -11 3 1876.81 406.048 14
-3 -11 -2 2276.89 378.102 6
-3 -11 -2 1974.95 316.456 10
3 -11 2 2681.35 471.09 14
-3 -11 -1 2202.84 394.417 6
3 -11 1 2023.25 429.34 14
-3 -11 0 645.24 267.008 6
3 -11 0 340.657 254.516 14
-3 -11 1 1992.22 369.427 6
3 -11 -1 2270.38 406.8 8
3 -11 -1 1605.47 377.581 14
-3 -11 2 1762.76 349.548 6
3 -11 -2 2077.08 383.242 8
3 -11 -2 1992.58 407.671 14
-3 -11 3 1786.31 353.004 6
3 -11 -3 2060.03 358.789 8
3 -11 -3 1759.34 401.54 14
-3 -11 4 10648.9 762.258 6
3 -11 -4 11351 749.928 8
3 -11 -4 11115.4 862.364 14
-3 -11 4 9931.33 781.619 16
-3 -11 5 5546.85 541.435 6
-3 -11 5 6299.46 621.395 16
3 -11 -5 5065.51 579.787 14
-3 -11 6 49961.5 1700.83 6
3 -11 -6 55463.8 1930.93 14
-3 -11 6 55239.7 1898.4 16
-3 -11 7 21376.8 1008.14 6
-3 -11 7 25274.7 1198.17 16
3 -11 -7 24390.6 1187.88 14
-3 -11 8 20203.5 930.493 6
-3 -11 8 22874.3 1099.85 16
3 -11 -8 22724.5 1076.4 14
-3 -11 9 2557.8 378.556 16
3 -11 -9 2103.16 316.294 14
-3 -11 10 1215.1 248.989 16
3 -11 -10 1390.02 236.239 14
3 -12 7 14919.4 715.059 14
3 -12 6 9247.92 592.864 14
3 -12 5 22268.8 979.911 14
-3 -12 -4 12801.7 664.348 6
3 -12 4 11730.1 725.794 14
-3 -12 -3 7284.29 522.17 6
3 -12 3 6639.96 556.32 14
-3 -12 -2 6191.2 504.337 6
3 -12 2 6838.18 576.727 14
-3 -12 -1 5749.94 493.597 6
3 -12 1 6469.15 562.493 14
-3 -12 0 4971.88 472.355 6
3 -12 0 4920 508.964 14
-3 -12 1 5942.57 511.894 6
3 -12 -1 5558.36 529.217 14
-3 -12 2 5940.9 511.609 6
3 -12 -2 6357.51 556.584 14
-3 -12 3 7170.33 545.138 6
3 -12 -3 6432.56 548.208 14
-3 -12 4 12197.3 700.847 6
3 -12 -4 13695 775.391 14
-3 -12 5 22324.7 937.858 6
3 -12 -5 24247.6 1010.53 14
-3 -12 6 9087.68 549.599 6
3 -12 -6 9536.79 579.212 14
4 0 0 112899 3507.72 1
4 0 0 114670 3425.32 2
-4 0 0 123129 3512.46 20
-4 0 0 119109 3609.29 23
4 0 0 116648 3575.55 12
4 0 1 4593.73 580.58 11
4 0 -1 3657.27 577.377 1
4 0 1 3698.07 587.715 1
4 0 1 3401.71 535.609 2
4 0 -1 3079.71 510.743 2
-4 0 -1 3597.22 584.459 23
-4 0 1 3743.72 581.626 23
-4 0 -1 4734.25 634.606 20
-4 0 1 3338.19 528.703 20
4 0 1 4630.95 665.356 12
4 0 -1 3551.85 610.655 12
4 0 2 19527.9 1325.57 1
4 0 2 18392.1 1218.39 2
4 0 -2 18562.7 1200.09 2
4 0 -2 18793.1 1249.99 1
-4 0 -2 19796.2 1246.25 20
-4 0 2 20506.7 1269.14 20
-4 0 -2 19728.3 1328.03 23
-4 0 2 18744.7 1261.34 23
4 0 2 18490.8 1227.47 12
4 0 2 19968.3 1124.04 17
4 0 -2 18440.8 1348.76 12
-4 0 -2 20628.3 1202.62 15
4 0 -3 11232.3 952.166 1
4 0 3 10515.9 982.966 1
4 0 3 9635.95 895.514 2
4 0 -3 10002.9 864.562 2
-4 0 -3 13087.9 1017.33 20
-4 0 3 11809.9 975.569 20
-4 0 -3 9131.11 915.87 23
-4 0 3 10469.9 938.466 23
4 0 3 11059.6 823.884 17
4 0 -3 11645 1079.66 12
4 0 3 10454.7 892.66 12
-4 0 -3 9785.22 807.525 15
4 0 4 32.7557 211.087 2
4 0 -4 29.7464 239.272 1
4 0 -4 2.89682 214.914 2
4 0 4 54.9095 273.645 1
-4 0 -4 -909.652 355.692 23
-4 0 4 136.328 219.924 23
-4 0 -4 414.356 261.192 20
-4 0 4 290.113 232.791 20
4 0 4 196.828 208.385 12
4 0 4 122.375 206.658 17
4 0 -4 -93.74 334.943 12
-4 0 -4 -72.8095 229.238 15
4 0 -5 1173.82 320.405 1
4 0 5 1583.89 427.587 2
4 0 5 566.126 274.355 1
4 0 -5 405.173 226.263 2
-4 0 -5 1241.55 384.885 23
-4 0 -5 837.938 295.99 20
-4 0 5 992.712 373.937 20
4 0 5 1299.91 348.481 12
4 0 5 1180.51 312.561 17
4 0 -5 1263.77 405.739 12
-4 0 -5 941.591 325.415 15
4 0 6 2383.38 493.707 1
4 0 6 2050.79 439.28 2
4 0 -6 1428.5 352.31 2
-4 0 -6 1958.86 455.626 23
-4 0 -6 2332.36 466.212 20
-4 0 6 1890.54 433.167 20
4 0 6 2239.43 386.027 17
4 0 -6 1169.15 438.236 12
4 0 6 1772.37 374.817 12
-4 0 -6 1479.52 363.655 15
4 0 -7 12203.5 949.634 2
4 0 7 13147 1161.75 1
4 0 7 11491 998.19 2
-4 0 7 11721 1008.25 20
-4 0 -7 11913.5 1082.17 23
4 0 7 15181.9 959.715 17
4 0 7 13419.8 968.954 12
-4 0 -7 12442.4 901.362 15
4 0 -7 13609 1264.14 12
4 0 -8 21704.5 1307.75 2
4 0 8 22470.9 1542.54 1
-4 0 8 21567.2 1555.16 18
4 0 8 23520.4 1223.46 17
4 0 8 23939 1286.38 12
-4 0 -8 26437.9 1293 15
4 0 -8 21708.2 1646.71 12
4 0 -9 40407.3 1838.94 2
4 0 9 38363.3 2088.63 1
-4 0 9 42682 2233.16 18
4 0 -9 44938 2406.14 12
4 0 9 47365.4 1777.57 17
4 0 9 49067.4 1895.23 12
-4 0 -9 46829.6 1788.86 15
4 0 10 248.294 230.768 1
4 0 10 546.848 217.898 19
-4 0 10 306.167 331.16 18
4 0 10 482.913 268.006 17
-4 0 -10 71.6345 164.461 13
4 0 -10 910.977 469.964 12
-4 0 -10 282.735 187.489 15
4 0 11 43595.1 1638.75 19
-4 0 11 39348.6 2187.68 18
4 0 -11 40837.1 2320.3 12
-4 0 -11 39492.1 1512.91 13
4 0 12 109059 2869.71 19
-4 0 12 103484 3750.51 18
4 0 -12 104325 3901.83 12
-4 0 -12 104934 2751.09 13
4 0 13 25255.2 1206.2 19
-4 0 13 23563.7 1682.64 18
4 0 -13 23746.3 1761.76 12
-4 0 -13 26773.5 1188.83 13
4 0 14 3185.2 424.391 19
4 0 -14 2897.01 689.164 12
-4 0 -14 2825.52 392.3 13
-4 0 14 2221.33 567.57 18
4 0 15 84416.5 2359.41 19
-4 0 15 81875.8 3141.51 18
4 0 -15 82132.7 3287.86 12
-4 0 -15 87150.2 2273.88 13
4 0 16 6835.85 573.226 19
-4 0 16 6238.79 812.297 18
4 0 -16 6061.22 839.523 12
4 0 16 6348.89 549.16 18
-4 0 -17 216.376 191.262 7
4 0 17 210.251 176.296 19
-4 0 17 -62.4235 252.553 18
4 0 17 110.631 141.306 18
4 0 -17 598.865 366.072 12
-4 0 -18 174.184 160.47 7
4 0 18 577.621 203.437 19
-4 0 18 98.5097 204.618 18
4 0 -18 105.405 229.187 12
4 0 18 167.628 139.875 18
-4 0 -19 372.443 191.849 7
4 0 -19 -16.0893 209.587 12
4 0 19 212.998 140.242 18
-4 0 -20 18793.5 870.47 7
4 0 20 18262.1 760.035 18
4 0 -20 20227.2 1149.28 12
-4 0 -21 1094.7 210.009 7
4 0 21 1105.7 231.763 9
4 0 -21 1486.56 312.245 12
4 0 -22 125.684 133.683 12
4 1 -22 2768.1 329.411 12
4 -1 21 76044.6 1966.32 9
4 1 -21 75555.8 2242.19 12
4 1 -20 5499.56 602.233 12
-4 -1 -19 1563.37 275.828 7
-4 1 19 798.5 319.444 18
4 1 -19 486.34 291.033 12
-4 -1 -18 10544.9 698.425 7
4 -1 18 11686 695.264 19
4 -1 18 10365.4 610.823 18
-4 1 18 11184.9 967.581 18
4 1 -18 10683.5 969.321 12
-4 -1 -17 23113 1107.33 7
4 -1 17 24358.5 1082.19 19
-4 1 17 24014.5 1511.67 18
4 -1 17 23240.2 986.656 18
-4 -1 -17 24499.1 998.196 13
4 1 -17 23529.7 1545.77 12
-4 -1 -16 6748.95 611.908 7
4 -1 16 7421.02 611.644 19
-4 -1 -16 6949.14 556.243 13
4 -1 16 6765.83 550.29 18
4 1 -16 5720.5 805.794 12
-4 1 16 5662.23 770.539 18
4 -1 15 10906.5 768.939 19
-4 1 15 11275.8 1114.45 18
-4 -1 -15 10896.3 727.563 13
4 1 -15 10229.4 1115.74 12
4 -1 14 5487.13 568.969 19
-4 -1 -14 5597.4 545.558 13
4 1 -14 4574.94 788.003 12
-4 1 14 3830.99 728.769 18
4 -1 13 56477.6 1931.17 19
-4 1 13 54474.2 2651.48 18
-4 -1 -13 52412.4 1808.99 13
4 1 -13 54547.7 2708.92 12
4 -1 12 4786.65 542.338 19
-4 -1 -12 4994.76 528.1 13
-4 1 12 3132.29 671.365 18
4 1 -12 5305.55 869.493 12
4 -1 11 49600.9 1803.91 19
-4 1 11 46468.1 2415.4 18
4 1 -11 48457.8 2527.26 12
-4 -1 -11 47431.2 1718.62 13
4 -1 11 51137.7 1915.59 17
4 -1 10 3898.48 522.965 17
4 1 -10 2985.44 655.454 12
-4 -1 -10 2889.5 418.51 13
4 -1 10 2648.51 480.593 14
-4 -1 -10 3068.04 441.024 15
-4 1 10 2619.02 572.091 18
4 1 -9 4311.22 580.802 2
4 -1 9 3929.7 630.658 1
-4 1 9 3684.21 672.461 18
4 -1 9 4531.43 576.794 12
4 -1 9 3630.12 522.766 14
-4 -1 -9 5027.01 571.408 15
4 -1 9 4771.88 563.718 17
4 1 -9 4966.86 798.397 12
4 1 -8 9430.35 852.901 2
4 -1 8 7330.01 872.281 1
-4 1 8 8652.03 989.475 18
4 1 -8 7796.64 982.138 12
4 -1 8 9771.04 812.476 17
4 -1 8 10061.4 849.689 12
-4 -1 -8 10814.6 837.348 15
4 -1 7 4285.06 676.509 1
4 1 -7 4852.11 638.512 2
-4 -1 -7 4652.81 669.153 20
4 1 -7 5035.47 805.878 12
4 -1 7 5129.98 592.005 17
-4 1 7 4660.52 763.29 18
4 -1 7 4761.68 600.529 12
-4 -1 -7 4976.42 592.918 15
4 -1 6 25133.5 1578.01 1
4 1 -6 25288.8 1444.28 2
-4 -1 -6 30830 1635.13 20
-4 1 6 29075.8 1619.58 23
4 -1 6 28045.2 1387.08 17
4 -1 6 28363.3 1471.08 12
-4 -1 -6 27725.7 1403.05 15
4 1 -6 28126.2 1774.3 12
4 -1 5 11036.8 1029.55 1
4 1 -5 12856.4 975.741 1
4 1 -5 10545.6 917.19 2
-4 -1 -5 13383.2 1046.47 20
-4 1 5 13466.9 1087 23
4 -1 5 10734.9 854.619 17
4 1 -5 11365.1 1105 12
-4 -1 -5 11952.9 909.242 15
4 -1 5 12549.2 970.848 12
4 1 -4 6728.19 734.164 1
4 -1 4 5844.24 738.505 1
4 1 -4 6879.04 743.972 2
-4 -1 -4 7971.47 825.649 20
-4 -1 -4 6938.54 752.896 23
-4 1 4 7132.98 787.207 23
4 -1 4 7703.19 770.005 12
4 -1 4 6829.06 682.155 17
4 1 -4 6004.42 804.37 12
-4 -1 -4 6491.93 698.355 15
4 -1 3 102578 3336.9 1
4 -1 3 98226.8 2813.63 5
4 -1 3 101521 3073.31 2
4 1 -3 100521 3177.48 2
4 1 -3 100343 3158.25 1
-4 -1 -3 105916 3298.44 20
-4 -1 -3 95136.6 3113.82 23
-4 1 3 98364 3305.02 23
4 -1 3 105323 3202.5 12
4 -1 3 101769 2983.55 17
4 1 -3 102151 3447.33 12
-4 -1 -3 104187 3062.15 15
4 -1 2 10009.5 875.894 11
4 -1 2 8948.96 763.758 5
4 -1 2 9615.93 919.436 1
4 1 -2 10114.8 909.232 1
4 -1 2 9701.97 858.397 2
4 1 -2 9963.19 910.587 2
-4 -1 -2 9934.26 918.935 20
-4 -1 -2 9259.19 858.36 23
-4 1 2 10396.5 973.527 23
4 -1 2 9506.86 900.414 12
4 1 -2 11839.8 1051.1 12
-4 -1 -2 10325.2 856.824 15
4 -1 1 289268 6166.58 11
4 1 -1 275187 6260.93 1
4 -1 1 270263 6237.28 1
4 1 -1 269314 6168.86 2
4 -1 1 269233 5983.91 2
-4 1 1 273602 5967.2 20
-4 -1 -1 290485 6343.42 20
-4 1 1 273516 6415.75 23
-4 -1 -1 252963 6029.65 23
4 -1 1 285203 6359.02 12
4 1 -1 278249 6372.55 12
4 -1 0 258172 5780.14 11
4 1 0 249486 5953.89 1
4 1 0 242699 5790.46 2
4 -1 0 248458 5614.67 2
4 -1 0 254283 5889.99 1
-4 1 0 258148 5612.1 20
-4 -1 0 261429 5960.73 20
-4 1 0 247020 6103.02 23
-4 -1 0 254232 5806.37 23
4 -1 0 262740 6054.31 12
4 1 0 255829 5929.58 12
4 -1 -1 287973 6174.94 11
4 -1 -1 270529 6180.34 1
4 1 1 264534 6290.63 1
4 1 1 258620 6166.98 2
4 -1 -1 253375 5841.88 2
-4 1 -1 289159 6014.93 20
-4 -1 1 273574 6279.53 20
-4 1 -1 272253 6461.19 23
-4 -1 1 281717 6172.66 23
4 1 1 277043 6181.44 12
4 -1 -1 284998 6500.66 12
4 -1 -2 9530.42 876.929 11
4 1 2 9119.89 920.492 1
4 -1 -2 9574.76 877.231 1
4 1 2 9748.04 924.162 2
4 -1 -2 9372.18 824.563 2
-4 1 -2 10573 856.538 20
-4 -1 2 10490.7 948.916 20
-4 1 -2 8546.59 917.445 23
-4 -1 2 10565.6 917.683 23
4 1 2 9666.39 872.262 12
4 -1 -2 10305.6 997.877 12
-4 1 -2 9326.69 797.195 15
4 -1 -3 104026 3174.96 11
4 1 3 97388.2 3325.59 1
4 -1 -3 104360 3210.61 1
4 1 3 96724.2 3220.24 2
4 -1 -3 99201.8 2987.33 2
-4 1 -3 111086 3157.85 20
-4 -1 3 101185 3304.85 20
-4 1 -3 95012.3 3384.13 23
-4 -1 3 108834 3235.4 23
4 -1 -3 108751 3569.27 12
4 1 3 102986 3081.55 12
-4 1 -3 97516.1 2902.92 15
4 -1 -4 5457.06 673.345 11
4 1 4 5873.5 744.405 1
4 1 4 6629.98 772.938 2
4 -1 -4 6533.8 681.846 2
-4 1 -4 6334.82 697.279 20
-4 -1 4 7251.66 823.949 20
-4 1 -4 7398.93 867.022 23
4 1 4 7254.32 711.849 12
4 -1 -4 6105.6 813.428 12
-4 1 -4 5613.04 611.679 15
4 -1 -5 10358.9 906.287 11
4 1 5 10774.6 1044.68 1
4 1 5 12135.8 1055.61 2
4 -1 -5 11939.2 927.881 2
-4 1 -5 14183.4 1045.39 20
-4 -1 5 12096.9 1040.15 20
-4 1 -5 10807.4 1044.57 23
4 -1 -5 11960.9 1155.11 12
-4 1 -5 12100.8 881.941 15
4 1 5 11187 880.078 12
4 -1 -6 27054.4 1515.23 11
4 -1 -6 27193.1 1428.86 2
4 1 6 24869.1 1551.43 2
4 1 6 23941.5 1597.84 1
-4 1 -6 23983.5 1606.19 23
-4 -1 6 30059.9 1687.5 20
4 -1 -6 27353.2 1765.18 12
4 1 6 31686.1 1456.75 12
-4 1 -6 29523.4 1368.89 15
4 -1 -7 4725.47 628.311 11
4 1 7 4513.26 701.835 1
4 1 7 4225.61 639.044 2
4 -1 -7 3859 532.588 2
-4 1 -7 4273.19 683.413 23
-4 -1 7 4716.12 702.815 20
4 -1 -7 4072.43 729.525 12
4 1 7 4776.64 554.435 12
-4 1 -7 5583.67 571.556 15
4 -1 -8 9256.31 865.698 11
4 -1 -8 7941.74 770.905 2
4 1 8 7618.77 882.529 2
4 1 8 8302.93 957.951 1
-4 1 -8 8702.68 987.952 23
-4 -1 8 8857.95 941.165 20
4 1 8 10465.7 805.31 12
-4 1 -8 9800.5 761.607 15
4 -1 -8 8602.49 1018.65 12
4 -1 -9 3608.08 561.075 11
4 1 9 3334.91 621.535 1
4 1 9 3714.62 609.009 2
4 -1 -9 3567.17 536.199 2
-4 1 -9 4133.61 680.608 23
4 1 9 4723.55 490.599 19
-4 -1 9 4017.81 636.248 20
4 1 9 4224.28 487.17 17
4 -1 -9 3458.27 703.115 12
-4 1 -9 4319.15 490.577 15
4 -1 -10 2937.21 544.733 11
4 1 10 3217.01 417.287 19
-4 -1 10 2886.98 563.717 20
-4 1 -10 2840.09 389.138 13
4 -1 -10 2398.15 593.994 12
4 -1 -11 46059.4 2070.12 11
-4 -1 11 50302.7 2316.45 20
4 1 11 50693.7 1742.89 19
-4 -1 11 48239.9 2401.02 18
4 -1 -11 50305.1 2584.44 12
-4 1 -11 49688.1 1675.47 13
4 1 12 5047.72 519.186 19
-4 -1 12 5261.85 754.933 20
-4 -1 12 5512.67 807.611 18
4 -1 -12 4105.12 736.083 12
4 1 13 57441.5 1831.59 19
-4 -1 13 55294.9 2395.87 20
-4 -1 13 52412.7 2510.37 18
4 -1 -13 52858.4 2654.21 12
4 1 14 5320.62 509.411 19
-4 -1 14 5978.12 772.85 20
-4 -1 14 3870.2 688.558 18
4 -1 -14 5317.82 839.921 12
4 1 15 10405.6 687.832 19
-4 -1 15 10814.4 1051.59 18
4 -1 -15 10864.7 1131.09 12
4 1 16 6485.36 525.121 19
-4 -1 16 7406.33 831.384 18
4 1 16 7507.21 613.009 18
4 -1 -16 6114.5 836.16 12
4 1 17 23323.3 971.86 19
4 1 17 24729.9 1085.24 18
4 -1 -17 23856.1 1534.7 12
-4 1 -18 10104.6 714.949 7
4 1 18 10404 655.189 18
4 -1 -18 10802.5 959.701 12
-4 1 -19 1123.31 269.261 7
4 1 19 885.654 214.866 18
4 -1 -19 1032.18 340.735 12
-4 1 -20 5917.95 490.575 7
4 1 20 4820.8 398.365 18
4 -1 -20 5379.05 569.86 12
-4 1 -21 70799.1 1807.69 7
4 1 21 68457.7 1655.65 18
4 -1 -21 69252.9 2011.51 12
4 -2 21 14817.4 729.097 9
4 2 -21 13630.3 828.428 12
4 -2 20 6035.52 528.525 9
-4 2 20 6697.66 642.812 18
4 2 -20 6161.63 630.754 12
4 -2 19 67653.7 2059.77 9
4 -2 19 64915.4 1767.09 19
-4 2 19 62499.8 2268.9 18
4 2 -19 62278.9 2282.2 12
4 -2 18 14609.5 789.095 19
-4 2 18 14687.4 1113.36 18
4 2 -18 14396.9 1104.3 12
4 -2 17 3223.22 408.745 19
-4 -2 -17 3302.48 377.858 13
4 2 -17 3184.22 590.757 12
-4 2 17 3999.38 646.23 18
4 -2 16 1474.24 315.322 19
-4 -2 -16 1580 297.033 13
4 2 -16 980.424 394.584 12
-4 2 16 1652.57 515.229 18
4 2 -15 2124.18 575.692 12
4 -2 15 1658.49 347.521 19
-4 2 15 1439.47 448.523 18
4 -2 15 1721.7 281.01 18
-4 -2 -15 1600.57 306.205 13
4 -2 14 11488 823.434 19
-4 2 14 9319.75 1099.5 18
-4 -2 -14 11437.2 781.372 13
4 2 -14 10840.1 1140.68 12
4 -2 13 27484.8 1310.73 19
-4 2 13 27055.4 1821.05 18
4 -2 13 28083.8 1518.29 14
-4 -2 -13 27049.7 1246.85 13
4 2 -13 24868.6 1787.75 12
4 -2 12 13028.4 882.22 19
-4 2 12 13208.7 1283.92 18
4 -2 12 12700 1017.53 14
4 -2 12 13413 951.623 17
4 2 -12 11939.5 1233.77 12
-4 -2 -12 11897.8 823.004 13
4 -2 11 13800.2 917.239 19
-4 2 11 14576.3 1337.77 18
4 -2 11 14420.6 1075.2 14
4 -2 11 15003.6 1006.56 17
4 2 -11 14122.3 1302.66 12
-4 -2 -11 14446.1 907.899 13
-4 2 10 35834.5 2067.31 18
4 -2 10 35771.2 1729.02 14
4 2 -10 35837.1 2113.72 12
4 -2 10 36260.9 1615.16 17
-4 -2 -10 35307.8 1477.43 13
-4 -2 -10 39878.6 1646.11 15
4 -2 9 6509.17 712.646 14
-4 2 9 6063.36 852.002 18
4 2 -9 6522.01 895.458 12
4 -2 9 7390.33 707.884 17
4 -2 9 8009.88 794.837 12
-4 -2 -9 6862.71 680.052 15
4 -2 8 4064.7 655.044 1
4 2 -8 3745.51 548.753 2
-4 -2 -8 3663.7 588.524 20
4 -2 8 3839.73 526.145 17
4 2 -8 3766.55 692.522 12
4 -2 8 3115.55 485.385 14
4 -2 8 4060.51 571.076 12
-4 2 8 3419.23 628.984 18
-4 -2 -8 3397.52 481.961 15
4 -2 7 6525.28 790.874 1
4 2 -7 6814.89 746.512 2
-4 -2 -7 7492.09 811.626 20
-4 2 7 7623.82 922.619 18
4 2 -7 6822.45 881.986 12
4 -2 7 8569.96 788.573 14
4 -2 7 7652.99 734.422 17
4 -2 7 9443.4 854.061 12
-4 -2 -7 8319.64 743.71 15
4 2 -6 1464.9 334.709 1
4 2 -6 1676.56 408.224 2
4 -2 6 963.672 327.792 1
-4 2 6 1226.08 366.166 23
-4 -2 -6 1467.74 419.53 20
4 -2 6 1841.99 387.72 17
4 2 -6 1924.41 489.088 12
4 -2 6 1438.43 362.352 12
-4 -2 -6 1586.25 378.747 15
4 2 -5 60490 2273.92 1
4 -2 5 57344.7 2360.72 1
4 2 -5 60079.4 2375.92 2
-4 -2 -5 64041.3 2496.19 20
-4 2 5 62012.1 2480.67 23
4 -2 5 62533.4 2242.22 17
4 2 -5 61795 2626.72 12
-4 -2 -5 61771.2 2226.14 15
4 -2 5 63299.4 2363.61 12
4 -2 4 11146.9 964.227 11
4 -2 4 9968.62 744.557 5
4 -2 4 9645.15 914.57 1
4 2 -4 10391 938.981 2
4 2 -4 9101.78 837.014 1
-4 -2 -4 10387.9 957.594 20
-4 2 4 10231.3 982.026 23
4 -2 4 10254.4 855.566 17
4 2 -4 9456.42 955.688 12
-4 -2 -4 10297.7 875.21 15
4 -2 4 9651.11 887.529 12
4 -2 3 7891.81 802.804 11
4 -2 3 7351.29 668.659 5
4 2 -3 6650.68 727.67 1
4 2 -3 6828.65 778.773 2
4 -2 3 6205.47 748.466 1
-4 -2 -3 7427.09 816.467 20
-4 2 3 7705.09 863.978 23
4 -2 3 8063.28 819.597 12
4 -2 3 6885.1 696.043 17
4 2 -3 7771.23 840.793 12
-4 -2 -3 7861.36 770.352 15
4 -2 2 66560.1 2438.96 11
4 -2 2 59374.3 2365.36 1
4 2 -2 56217.8 2303.39 1
4 -2 2 60538.2 2113.75 5
4 2 -2 61245.8 2436.41 2
-4 -2 -2 61597 2445.34 20
-4 2 2 59014.4 2514.5 23
4 -2 2 67294.5 2494.91 12
4 2 -2 60967.9 2467.14 12
-4 -2 -2 62237.8 2276.68 15
4 -2 1 12188.7 997.577 11
4 -2 1 8304.56 854.777 1
4 2 -1 9785.35 912.007 1
4 -2 1 9479.7 808.74 5
4 2 -1 10836.1 971.224 2
-4 -2 -1 10597.7 982.383 20
-4 2 1 9903.48 990.369 23
4 -2 1 11102.7 988.226 12
4 2 -1 11007.3 959.915 12
-4 -2 -1 11865.9 939.286 15
4 -2 0 4514.93 628.07 11
4 2 0 4720.92 646.839 1
4 -2 0 4581.22 625.29 1
4 2 0 4228.44 636.942 2
4 -2 0 3679.04 548.88 5
-4 -2 0 5477.66 714.013 20
-4 -2 0 4370.03 579.011 23
-4 2 0 4054.71 674.591 23
4 -2 0 4456.22 663.088 12
4 2 0 3814.38 571.869 12
4 -2 -1 10763.4 952.31 11
4 2 1 9564.68 931.039 1
4 -2 -1 10712 939.631 1
4 -2 -1 10008.3 860.2 5
4 2 1 8745.41 902.392 2
-4 -2 1 10782.8 1007.32 20
-4 2 -1 8945.23 967.573 23
4 2 1 9852.91 872.044 12
4 -2 -1 10404.9 1001.31 12
4 -2 -2 66269.9 2490.54 11
4 2 2 57403.1 2449.66 1
4 -2 -2 63487 2332.53 5
4 2 2 57369.1 2417.87 2
4 -2 -2 66722.5 2429.26 1
4 -2 -2 62982.9 2186.8 2
-4 -2 2 62694.6 2531.92 20
-4 2 -2 63807.4 2681.58 23
4 2 2 62446.4 2255.16 12
4 -2 -2 63584.6 2614.44 12
-4 2 -2 61397.7 2132.48 15
4 -2 -3 8887.78 881.353 11
4 2 3 7634.29 852.407 1
4 -2 -3 7098.85 749.19 5
4 2 3 7103.03 827.377 2
4 -2 -3 7310.41 692.34 2
-4 2 -3 7082.26 690.857 20
-4 -2 3 6615.79 801.807 20
-4 2 -3 8114.27 913.1 23
4 -2 -3 6473.5 809.76 12
4 -2 -4 9697.93 928.773 11
4 -2 -4 9712.65 800.21 2
4 2 4 10350.4 1004.4 2
4 2 4 8870.17 935.066 1
-4 2 -4 9135.59 996.43 23
-4 -2 4 8867.16 934.616 20
4 -2 -4 9743.41 1010.96 12
4 -2 -5 59127.3 2443.33 11
4 -2 -5 60663.1 2143.96 2
4 2 5 52308 2366.93 2
4 2 5 58400.8 2551.81 1
-4 2 -5 62742.4 2722.44 23
-4 -2 5 59621.4 2551.68 20
4 -2 -5 57258.1 2618.9 12
4 -2 -6 1533.41 420.256 11
4 2 6 1525.99 379.49 2
4 -2 -6 1956.04 414.642 2
4 2 6 1210.93 367.044 1
-4 2 -6 1236.08 412.388 23
-4 -2 6 1454.8 388.705 20
4 -2 -6 1807.48 527.294 12
4 -2 -7 5978.91 765.275 11
4 -2 -7 6338.44 678.344 2
4 2 7 7045.18 853.762 2
4 2 7 6427.23 842.923 1
-4 2 -7 7443.26 917.146 23
-4 -2 7 7001.7 860.303 20
4 -2 -7 8028.6 972.922 12
4 -2 -8 2884.76 568.378 11
4 2 8 2142.97 492.338 2
4 -2 -8 3159.21 481.256 2
4 2 8 2683.83 562.507 1
-4 2 -8 4104.31 698.638 23
-4 -2 8 2345.01 550.631 20
4 -2 -8 3145.32 657.43 12
4 -2 -9 5814.87 750.428 11
4 -2 -9 5589.53 634.632 2
4 2 9 4915.13 746.068 2
-4 2 -9 5334.31 780.024 23
-4 -2 9 5738.93 800.593 20
4 -2 -9 7261.88 959.495 12
4 -2 -10 35146.6 1881.36 11
-4 -2 10 36543.1 2039.24 20
4 -2 -10 32335.1 2031.15 12
4 -2 -11 13858.9 1160.52 11
-4 -2 11 15042.1 1286.27 20
4 -2 -11 13038.6 1276.91 12
-4 -2 12 12832.4 1208.41 20
4 -2 -12 11608.5 1199.24 12
-4 -2 13 29319.8 1794.49 20
4 -2 -13 27514.4 1839.91 12
-4 -2 14 11098.7 1054.73 20
4 -2 -14 9569.25 1048.64 12
-4 -2 15 1676.22 434.631 20
4 -2 -15 1631.17 496.583 12
4 -2 -16 1835.27 398.701 11
-4 -2 16 2002.94 447.837 20
4 2 16 2106.2 368.763 18
4 -2 -16 1718.6 434.62 12
4 -2 -17 3241.91 475.073 11
-4 -2 17 3070.71 488.046 20
4 2 17 2846.89 397.011 18
4 -2 -17 3088.83 566.825 12
-4 2 -18 15632.6 894.504 7
4 2 18 14023.8 776.564 18
4 -2 -18 13295.2 1021.42 12
-4 2 -19 65735.6 1903.85 7
4 2 19 61718.6 1751.74 18
4 -2 -19 61608 2143.04 12
-4 2 -20 6480.78 502.153 7
4 2 20 6263.57 455.82 18
4 -2 -20 5811.62 543.539 12
-4 2 -21 14693.9 695.952 7
4 2 21 12592.5 600.732 18
4 -3 21 685.499 172.287 9
4 3 -21 826.493 214.095 12
4 -3 20 13720.7 761.703 9
-4 3 20 14604.2 908.373 18
4 3 -20 14670.3 895.026 12
4 -3 19 10965 743.048 9
4 -3 19 10001.5 600.953 19
-4 3 19 11578.8 893.878 18
4 3 -19 11667.4 872.889 12
4 -3 18 4058.66 520.296 9
4 -3 18 4661.3 456.762 19
-4 3 18 4687.9 641.654 18
4 3 -18 4297.38 591.882 12
4 -3 17 106858 2949.78 9
4 -3 17 101900 2576.87 19
-4 3 17 102305 3310.63 18
-4 -3 -17 101867 2469.49 13
4 3 -17 97403.5 3195.78 12
4 -3 16 20283.5 1023.63 19
-4 3 16 17832.7 1347.61 18
-4 -3 -16 20420.9 973.615 13
4 3 -16 17773.9 1307.54 12
4 -3 15 25578.7 1207.1 19
-4 3 15 25559.4 1676.44 18
-4 -3 -15 27157.7 1190.55 13
4 3 -15 26705.2 1686.64 12
4 3 -14 2809.85 603.181 12
4 -3 14 3961.43 496.703 19
-4 3 14 2721.28 606.193 18
-4 -3 -14 4034.34 489.661 13
4 -3 14 3695.31 576.736 14
4 3 -13 80.2371 270.702 12
4 -3 13 530.81 247.029 19
-4 3 13 453.864 367.663 18
-4 -3 -13 290.133 251.928 13
4 -3 13 228.58 250.59 14
-4 -3 -12 56289 1873.56 10
4 -3 12 54657.1 1949.54 19
-4 3 12 56724.9 2650.75 18
4 -3 12 54990.3 2225.4 14
4 -3 12 59691.2 2122.95 17
-4 -3 -12 56088.9 1928.34 13
4 3 -12 52243.5 2544.25 12
-4 -3 -11 8728.45 705.336 10
4 -3 11 9408.01 763.34 19
-4 3 11 8119.83 987.973 18
4 -3 11 9445.02 888.218 14
4 3 -11 7954.01 984.432 12
4 -3 11 8794.65 782.066 17
-4 -3 -11 7688.16 693.198 13
4 -3 10 1705.91 396.648 17
-4 -3 -10 1699.54 356.453 13
4 3 -10 2011.78 516.368 12
4 -3 10 1265.58 376.232 14
-4 3 10 1527.51 500.788 18
-4 -3 -10 2158.31 436 15
-4 3 9 14120 1248.83 18
4 -3 9 11470.1 974.294 14
4 3 -9 12585.4 1206.95 12
4 -3 9 13612.9 988.867 17
-4 -3 -9 14086.3 918.088 13
-4 -3 -9 14030.5 968.959 15
-4 -3 -8 11529.9 1006.72 20
-4 3 8 11396.4 1126.71 18
4 -3 8 10263 927.394 14
4 3 -8 12860.8 1187 12
4 -3 8 12031.2 935.773 17
4 -3 8 11937.5 971.022 12
-4 -3 -8 12274.3 921.684 15
4 3 -7 210059 5256.65 2
-4 -3 -7 223745 5354.35 20
-4 3 7 218467 5408.21 23
-4 3 7 207266 5621.11 18
4 -3 7 206567 5069.12 14
4 -3 7 215741 5045.45 17
4 -3 7 221503 5189 12
-4 -3 -7 221731 4978.83 15
4 3 -7 204192 5575.97 12
4 3 -6 62945.3 2290 1
4 3 -6 59629 2407.92 2
-4 -3 -6 65332.8 2514.39 20
-4 3 6 63114 2524.83 23
4 -3 6 60434.8 2275.64 14
4 -3 6 63651.3 2287.89 17
4 -3 6 64150 2385.46 12
-4 -3 -6 64813.4 2288.73 15
4 3 -6 60700.5 2599.54 12
4 3 -5 62939.8 2341.7 1
4 -3 5 61382.3 2388.93 1
4 3 -5 64861.1 2514.63 2
-4 -3 -5 61819.7 2483.67 20
-4 3 5 62221.6 2554.44 23
4 -3 5 64312.2 2316.01 17
4 3 -5 61240.9 2586.95 12
4 -3 5 65572.6 2426.85 12
-4 -3 -5 67919.6 2355.06 15
4 -3 4 75183.7 2676.17 11
4 -3 4 64033.4 2437.93 1
4 -3 4 65789.6 2121.2 5
4 3 -4 69533.4 2500.97 1
4 3 -4 66602.1 2601.52 2
-4 -3 -4 67716.5 2608.73 20
-4 3 4 69732.3 2708.37 23
4 3 -4 70559.9 2703.97 12
4 -3 4 68439.1 2416.68 17
-4 -3 -4 64182.8 2343.55 15
4 -3 4 65198.1 2490.18 12
4 -3 3 73641.7 2655.34 11
4 -3 3 64925.8 2476.87 1
4 -3 3 67983.5 2200.01 5
4 3 -3 66152.4 2480.37 1
4 3 -3 64778.4 2595.84 2
-4 -3 -3 67475.9 2629.02 20
-4 3 3 68673.1 2743.11 23
4 -3 3 65602.8 2373.55 17
4 3 -3 66986 2589.4 12
-4 -3 -3 66036.9 2392.27 15
4 -3 3 72379.9 2600.15 12
4 -3 2 54112.4 2272.77 11
4 3 -2 51527.5 2193 1
4 -3 2 50267.2 1889.2 5
4 -3 2 50597.9 2130.59 1
4 3 -2 48979.5 2212.72 2
-4 -3 -2 53511.9 2294.22 20
-4 3 2 57584.1 2500.13 23
4 -3 2 51867.9 2203.39 12
4 3 -2 51119.4 2167.16 12
-4 -3 -2 54675.9 2139.21 15
4 -3 1 51074.1 2193.29 11
4 3 -1 45276.6 2081.95 1
4 -3 1 51019.4 1943.1 5
4 -3 1 49319.7 2085.26 1
4 3 -1 49422.2 2230.17 2
-4 -3 -1 50480.2 2247.06 20
-4 3 1 47294.5 2301.86 23
4 -3 1 47871.4 2139.82 12
-4 -3 -1 52800.9 2104.94 15
4 -3 0 154600 4265.13 11
4 3 0 141884 4152.45 1
4 -3 0 159772 3944.71 5
4 3 0 143882 4239.89 2
-4 -3 0 147570 4284.47 20
-4 3 0 154211 4541.13 23
4 -3 0 149289 4239.38 12
-4 -3 0 144613 3976.28 15
4 -3 -1 48724.4 2171.61 11
4 3 1 47799.6 2171.84 1
4 -3 -1 48627.4 1950.94 5
4 3 1 44185.8 2151.39 2
-4 -3 1 48830.3 2262.76 20
-4 3 -1 44902.8 2286.51 23
4 -3 -1 50108.1 2239.21 12
4 -3 -2 48474.8 2175.95 11
4 3 2 48336.1 2225.77 1
4 -3 -2 50927.9 2030.65 5
4 3 2 49262.1 2276.49 2
-4 -3 2 51536.8 2330.29 20
-4 3 -2 49326.3 2421.7 23
4 -3 -2 46446.9 2225.74 12
4 -3 -3 67164.8 2644.15 11
4 -3 -3 66501.8 2413.58 5
4 3 3 65887.5 2683.13 2
4 3 3 61966.3 2613.88 1
-4 -3 3 65249.1 2717.59 20
-4 3 -3 67824.8 2885.95 23
4 -3 -3 70503 2772.91 12
4 -3 -4 67506.3 2680.76 11
4 -3 -4 70265.7 2520.59 5
4 3 4 65956 2728.72 2
4 3 4 67427.9 2745.89 1
-4 3 -4 66790.8 2890.77 23
-4 -3 4 64969.3 2726.88 20
4 -3 -4 66321.7 2738.99 12
4 -3 -5 63225 2617.73 11
4 -3 -5 60389.6 2336.49 5
4 3 5 62642.6 2641.34 2
4 3 5 59128.3 2602.62 1
-4 3 -5 62035.5 2794.35 23
-4 -3 5 61562.8 2659.06 20
4 -3 -5 61154.4 2656.08 12
4 -3 -6 59261.1 2546.9 11
4 -3 -6 58807.6 2304.59 5
4 3 6 53930 2484.1 2
4 3 6 57265 2579.53 1
-4 3 -6 55582.2 2681.56 23
-4 -3 6 60301.8 2642.39 20
4 -3 -6 61637.6 2685.4 12
4 -3 -7 199914 5294.03 11
-4 -3 7 194451 4399.67 6
4 3 7 188767 5250.56 2
4 3 7 187622 5355.79 1
-4 3 -7 191419 5563.25 23
-4 -3 7 202689 5476.27 20
4 -3 -7 199455 5465.28 12
4 -3 -8 10793.8 1065.19 11
-4 -3 8 10901.9 1119 20
4 -3 -8 10007.2 1082.23 12
4 -3 -9 11734.6 1104.56 11
-4 -3 9 12461.2 1193.31 20
4 -3 -9 13329.5 1238.75 12
4 -3 -10 1449.2 421.689 11
-4 -3 10 1899.54 536.161 20
4 -3 -10 1580.14 486.699 12
-4 -3 11 7524.68 948.271 20
4 -3 -11 6967.39 900.976 12
-4 -3 12 53445.9 2571.28 20
4 -3 -12 56752.8 2612.83 12
-4 -3 13 179.765 340.278 20
4 -3 -13 609.514 360.941 12
-4 -3 14 3967.82 685.738 20
4 -3 -14 3321.29 622.074 12
-4 -3 15 26948.9 1614.76 20
4 3 15 30075.1 1289.23 18
4 -3 -15 26630.5 1620.59 12
4 -3 -16 17258 1157.96 11
-4 -3 16 18984.3 1288.11 20
4 -3 -16 18211.2 1264.56 12
-4 -3 17 103851 3110.78 20
4 3 17 105246 2596.55 18
4 -3 -17 103715 3115.69 12
4 -3 -18 3680.67 476.803 11
-4 -3 18 4518.65 549.694 20
4 3 18 4954.15 460.88 18
4 -3 -18 3949.11 533.921 12
4 -3 -19 10815.2 699.144 11
-4 3 -19 11525.8 696.51 7
-4 -3 19 11066.8 729.154 20
4 3 19 11098.8 641.192 18
-4 3 -20 12935 688.977 7
4 3 20 12267.2 637.444 18
-4 3 -21 645.623 157.738 7
4 3 21 579.631 145.874 18
4 -4 20 6406.52 482.361 9
4 4 -20 6621.71 537.652 12
4 -4 19 6173.05 527.647 9
4 -4 19 5431.6 418.534 19
-4 4 19 6641.69 636.984 18
4 4 -19 5743.33 562.516 12
4 -4 18 9774.96 723.392 9
4 -4 18 9545.59 608.073 19
-4 4 18 11924.8 916.66 18
4 4 -18 10330.7 812.863 12
4 -4 17 44374 1704.9 9
4 -4 17 43509.3 1463.38 19
-4 4 17 44660.2 1942.16 18
-4 -4 -17 44074.7 1407.78 13
4 4 -17 40338.1 1790.4 12
4 -4 16 17139.4 1072.31 9
4 -4 16 17301.9 916.196 19
-4 4 16 17693.2 1268.26 18
-4 -4 -16 16269.2 861.087 13
4 4 -16 15233.4 1113.96 12
4 -4 15 13381.6 979.802 9
4 -4 15 12653.7 809.855 19
-4 4 15 15040 1216.63 18
4 -4 15 11946.9 921.988 14
-4 -4 -15 13302.4 810.902 13
4 4 -15 12835.9 1075.17 12
-4 -4 -14 188.643 176.911 10
4 -4 14 237.009 247.218 19
-4 -4 -14 -135.105 190.038 13
4 -4 14 11.4935 263.892 14
-4 4 14 2.01296 310.854 18
4 4 -14 100.712 231.361 12
-4 -4 -13 7639.32 631.633 10
4 -4 13 7358.03 663.476 19
-4 4 13 6674.58 881.587 18
4 -4 13 8086.73 797.09 14
-4 -4 -13 7881 668.457 13
4 4 -13 6103.2 792.696 12
-4 -4 -12 4504.07 516.319 10
4 -4 12 4056.01 502.036 19
-4 4 12 4144.07 708.957 18
-4 -4 -12 4892.74 537.887 13
4 -4 12 3976.24 537.89 17
4 -4 12 4220.11 610.059 14
4 4 -12 4641.6 722.009 12
-4 -4 -11 2314.96 393.666 10
-4 -4 -11 2030.87 368.605 6
4 -4 11 2252.23 413.434 19
-4 4 11 1666.62 505.409 18
4 4 -11 1319.65 441.289 12
4 -4 11 1961.56 382.51 17
-4 -4 -11 2355.98 406.678 13
4 -4 11 1599.19 398.468 14
-4 -4 -10 11601.7 860.24 6
-4 4 10 11243.2 1107.12 18
4 -4 10 9563.6 920.741 14
4 4 -10 9884.12 1022.47 12
4 -4 10 10816 873.935 17
-4 -4 -10 10930.3 822.755 13
-4 4 9 37982.5 2041.3 18
4 4 -9 35248.9 1921.69 12
4 -4 9 35432.8 1760.45 14
4 -4 9 36441.3 1677.43 17
-4 -4 -9 37011.4 1557.79 13
-4 -4 -9 39735 1689.93 15
-4 -4 -8 6583.56 761.865 20
-4 4 8 6639.59 869.457 18
4 4 -8 5748.15 752.025 12
4 -4 8 6539.18 753.465 14
4 -4 8 6644.68 705.722 17
-4 -4 -8 6291.26 635.64 13
-4 -4 -8 6442.29 688.726 15
-4 -4 -7 73143.3 2661.94 20
4 -4 7 67625.1 2538.74 14
4 -4 7 72072.3 2481.13 17
4 -4 7 77707.6 2653.18 12
-4 -4 -7 77624.2 2518.64 15
4 4 -7 70527.5 2757.67 12
-4 -4 -6 23269.6 1436.45 20
4 -4 6 23096.7 1377.92 14
4 -4 6 22122.4 1305.8 17
4 -4 6 23605 1387.86 12
4 4 -6 23433.3 1484.81 12
-4 -4 -6 22613.2 1284.03 15
4 4 -5 6469.71 780.121 2
-4 4 5 4719.1 685.183 23
-4 -4 -5 4577.12 653.331 20
4 -4 5 6309.75 713.224 17
4 -4 5 5792.41 674.374 14
4 -4 5 6397.9 735.753 12
-4 -4 -5 6411.67 698.159 15
4 -4 4 77621.2 2827.5 11
4 -4 4 72973.7 2268.95 5
4 4 -4 76226.3 2868.89 2
-4 -4 -4 71729.9 2695.56 20
-4 4 4 71245.9 2809.1 23
4 -4 4 72601.8 2525.33 14
4 -4 4 73888.1 2588.18 17
4 -4 4 77235.1 2683.73 12
-4 -4 -4 77209.2 2583.51 15
4 -4 3 20820.5 1365.38 11
4 -4 3 19981.5 1105.88 5
4 4 -3 18954.2 1269.08 1
4 4 -3 19540.3 1394.7 2
-4 -4 -3 16472.6 1247.97 20
-4 4 3 22048.7 1493.56 23
4 -4 3 16667.6 1157.03 17
-4 -4 -3 19662.3 1237.18 15
4 -4 3 19663.9 1295.6 12
4 -4 2 5053.73 701.125 11
4 4 -2 5265.77 681.876 1
4 4 -2 5366.39 723.695 2
4 -4 2 5234.95 580.062 5
-4 4 2 5443.96 774.491 23
-4 -4 -2 3735.6 608.084 20
4 -4 2 5291.48 696.142 12
-4 -4 -2 4460.28 614.977 15
4 -4 1 48847.8 2200.61 11
4 4 -1 47842.5 2162.14 1
4 -4 1 51851.4 1943.28 5
4 4 -1 51461.3 2338.56 2
-4 -4 -1 51890.7 2302.86 20
-4 4 1 48524.3 2345.3 23
4 -4 1 49979.9 2174.38 12
-4 -4 -1 48404.9 2039.53 15
4 -4 0 355.959 340.267 11
4 4 0 393.885 251.358 2
4 -4 0 102.225 191.61 5
4 4 0 639.4 282.061 1
-4 4 0 151.486 213.539 23
-4 -4 0 619.579 322.558 20
4 -4 0 159.944 260.714 12
-4 -4 0 -126.787 249.014 15
4 -4 -1 50353.4 2266.67 11
4 4 1 45149.2 2161.64 1
4 -4 -1 50590.2 1977.42 5
4 4 1 49516.5 2338.22 2
-4 -4 1 50702.2 2338.69 20
-4 4 -1 46840.4 2358.47 23
4 -4 -1 48593.9 2182.76 12
-4 -4 1 48293.6 2057.13 15
4 -4 -2 5301.2 728.857 11
4 4 2 4868.31 707.984 1
4 4 2 4338.37 686.202 2
4 -4 -2 5977.28 676.497 5
-4 4 -2 6842.48 899.333 23
-4 -4 2 5356.07 782.506 20
4 -4 -2 5846.74 761.065 12
4 -4 -3 18129.6 1360.07 11
4 -4 -3 17648.6 1165.86 5
4 4 3 17869.2 1374.51 2
4 4 3 17719.3 1345.09 1
-4 -4 3 18602 1407.77 20
-4 4 -3 19974.7 1544.71 23
4 -4 -3 18603.5 1352.04 12
4 -4 -4 72844.9 2881.53 11
-4 -4 4 68619.3 2352.27 6
4 -4 -4 71811.7 2517.55 5
4 4 4 69074.2 2865.89 2
4 4 4 68722.7 2819.09 1
-4 4 -4 73115.1 3107.32 23
-4 -4 4 73757.2 2940.23 20
4 -4 -4 71752.3 2799.93 12
4 -4 -5 5507.65 787.632 11
-4 -4 5 6318.33 652.953 6
4 4 5 4470.72 687.64 2
4 4 5 6179.02 816.616 1
-4 -4 5 6146.91 839.949 20
-4 4 -5 3871.29 708.75 23
4 -4 -5 6212.78 818.978 12
4 -4 -6 20849.4 1508.55 11
-4 -4 6 20953.2 1158.77 6
-4 -4 6 21270.7 1546.63 20
4 -4 -6 21713.8 1500.74 12
4 -4 -7 68993.8 2854.35 11
-4 -4 7 69580.7 2232.09 6
-4 -4 7 69745.8 2939.08 20
4 -4 -7 67279.8 2778.8 12
4 -4 -8 6824.31 871.29 11
-4 -4 8 5954.87 586.178 6
-4 -4 8 5557.26 845.04 20
4 -4 -8 7063.9 883.111 12
4 -4 -9 33424.4 1949.25 11
-4 -4 9 34917.1 2050.96 20
4 -4 -9 35179.4 1967.13 12
4 -4 -10 9184.16 1022.66 11
-4 -4 10 10457.3 1123.66 20
4 -4 -10 8557.89 962.285 12
4 -4 -11 1509.55 501.229 11
-4 -4 11 1506.74 544.751 20
4 -4 -11 1895.43 427.225 12
4 -4 -12 4609.88 731.69 11
-4 -4 12 4589.91 783.671 20
4 -4 -12 3924.46 652.23 12
-4 -4 13 7244.17 925.708 20
4 -4 -13 7080.11 827.116 12
-4 -4 14 5.96315 317.249 20
4 4 14 357.54 217.551 18
4 -4 -15 12586 1041.98 11
-4 -4 15 12646.4 1089.89 20
4 4 15 12843 802.797 18
4 -4 -15 11836.9 965.771 12
4 -4 -16 15045.6 1083.17 11
4 4 16 17356.9 909.851 18
-4 -4 16 15650.9 1154.96 20
4 -4 -16 16584.5 1061.41 12
-4 -4 17 45901.2 1883.66 20
4 4 17 44709.4 1479.47 18
4 -4 -18 8737.84 697.725 11
-4 4 -18 10305.6 682.562 7
-4 -4 18 9507.46 762.666 20
4 4 18 9352.82 604.24 18
4 -4 -19 5923.98 517.044 11
-4 4 -19 6465.71 493.517 7
4 4 19 5385.84 435.48 18
-4 -4 19 5962.58 538.043 20
-4 4 -20 7021.46 473.077 7
4 4 20 6740.21 442.8 18
-4 -5 -19 1701.04 253.5 8
4 -5 19 1547.08 262.928 9
4 5 -19 1579.39 256.789 12
-4 -5 -18 6388.75 531.988 8
4 -5 18 7256.88 573.963 9
4 -5 18 6335.57 452.534 19
4 5 -18 6043.5 547.058 12
4 -5 17 5207.68 533.526 9
4 -5 17 6238.02 489.92 19
-4 5 17 6497.6 656.584 18
4 5 -17 5531.61 564.807 12
4 -5 16 24006.7 1197.65 9
4 -5 16 22800.6 1002.74 19
-4 5 16 24367.6 1358.5 18
-4 -5 -16 20963.1 951.984 13
4 5 -16 19354.2 1131.85 12
4 -5 15 382.676 257.982 9
-4 -5 -15 235.057 169.986 10
4 -5 15 470.325 223.636 19
-4 5 15 665.128 356.71 18
4 5 -15 106.237 204.102 12
-4 -5 -15 654.233 253.283 13
4 -5 15 636.014 284.861 14
4 -5 14 9421.97 810.508 9
-4 -5 -14 9319.58 661.608 10
4 -5 14 9560.52 703.293 19
-4 5 14 8796.89 895.592 18
4 -5 14 8868.47 794.249 14
4 5 -14 8482.54 832.52 12
-4 -5 -14 9502.28 691.474 13
4 -5 13 8098.8 781.711 9
-4 -5 -13 8909.26 688.401 10
4 -5 13 8265.82 678.823 19
-4 5 13 8994.28 921.045 18
4 -5 13 9258.55 834.088 14
4 5 -13 6893.08 770.357 12
-4 -5 -13 8167.78 669.244 13
4 -5 12 1931.33 412.118 9
-4 -5 -12 2494.81 402.491 10
4 -5 12 1902.32 374.912 19
-4 5 12 2041.12 471.008 18
4 -5 12 1633.93 367.383 17
4 5 -12 1151.16 337.25 12
-4 -5 -12 1813.92 382.023 13
4 -5 12 2192.78 449.633 14
4 -5 11 21551 1311.36 9
-4 -5 -11 23920.7 1219.51 10
-4 -5 -11 21836.8 1094.53 6
4 -5 11 22093.2 1161.38 19
-4 5 11 25204.7 1583.3 18
4 5 -11 21596.6 1383.77 12
4 -5 11 22749 1378.17 14
4 -5 11 23201 1262.85 17
-4 -5 -11 24663.2 1214.37 13
4 -5 10 9376.62 869.233 9
-4 -5 -10 10956.9 844.876 10
-4 -5 -10 11984 837.458 6
4 -5 10 10065.5 787.366 19
-4 5 10 11020.1 1052.51 18
4 -5 10 11139.6 976.285 14
4 -5 10 11698.1 886.349 17
-4 -5 -10 10566.4 811.71 13
4 5 -10 10135.6 943.786 12
4 -5 9 7909.02 788.26 9
-4 -5 -9 7607.86 717.994 10
-4 -5 -9 8323.42 736.39 6
-4 5 9 8208.41 893.477 18
4 -5 9 7942.54 843.257 14
4 -5 9 7854.51 754.537 17
-4 -5 -9 7933.2 711.313 13
4 -5 8 71745.3 2572.28 9
-4 -5 -8 79527.5 2527.67 6
-4 -5 -8 80748.5 2711.98 20
4 -5 8 78031.2 2761 14
4 -5 8 75154.1 2550.43 17
-4 -5 -8 75544.8 2389.18 13
-4 -5 -8 81478.8 2569.11 15
4 -5 7 172029 4398.1 9
-4 -5 -7 175512 4340.48 6
-4 -5 -7 178747 4590.45 20
4 -5 7 172377 4593.24 14
4 -5 7 175652 4414.89 17
-4 -5 -7 181201 4195.6 13
-4 -5 -7 188040 4396.05 15
4 -5 6 34078.1 1629.42 9
-4 -5 -6 35422.8 1656.41 6
-4 -5 -6 34002.2 1725.83 20
4 -5 6 35682.1 1767.05 14
4 -5 6 32727.4 1633.25 17
-4 -5 -6 35195.8 1513.1 13
4 -5 6 39893.7 1812.07 12
-4 -5 -6 36275.5 1633.45 15
-4 -5 -5 11454.2 936.69 6
-4 -5 -5 12129.5 1037.64 20
4 -5 5 13145.1 1053.69 14
4 -5 5 10941 933.561 17
4 -5 5 13818.2 1042.29 12
-4 -5 -5 11845.4 936.358 15
4 -5 4 22616.6 1434.56 11
-4 -5 -4 20211.4 1251.16 6
-4 -5 -4 19516.7 1345.25 20
4 -5 4 21005.9 1310.62 14
4 -5 4 21511.3 1316.31 17
4 -5 4 21409.5 1313.47 12
-4 -5 -4 20956.5 1249.89 15
4 -5 3 6262.44 780.241 11
-4 -5 -3 5791.05 680.293 6
-4 -5 -3 6271.51 778.27 20
4 -5 3 6026.11 710.227 14
4 -5 3 6180.62 729.946 17
4 -5 3 6728.94 738.919 12
-4 -5 -3 6747.27 716.149 15
4 -5 2 55107.9 2336.45 11
-4 -5 -2 54890.5 2147.07 6
-4 -5 -2 49458.7 2280.64 20
4 -5 2 54770.3 2150.59 14
4 -5 2 51534.6 2145.46 17
4 -5 2 59190.8 2307.07 12
-4 -5 -2 54062.3 2112.64 15
4 -5 1 3284.4 588.424 11
-4 -5 -1 2941.7 508.74 6
-4 -5 -1 2801.07 571.983 20
4 -5 1 3043.25 545.452 12
-4 -5 -1 2740.24 474.767 15
4 -5 0 19781.8 1369.14 11
-4 -5 0 18313 1185.59 6
-4 -5 0 16651.4 1293.46 20
-4 -5 0 17228.4 1169.16 15
4 -5 0 19386.5 1282.7 12
4 -5 -1 3355.21 599.478 11
-4 -5 1 2955.16 491.075 6
-4 -5 1 3430.22 634.854 20
4 -5 -1 2981.8 536.494 12
-4 -5 1 2464.71 462.049 15
4 -5 -2 54956.1 2432.38 11
-4 -5 2 52207.8 2050.67 6
-4 -5 2 52656.4 2429.79 20
4 -5 -2 54119.7 2275.75 12
-4 -5 2 51801 2128.75 15
4 -5 -3 6765.58 857.131 11
-4 -5 3 5569.49 639.21 6
-4 -5 3 5052.58 755.339 20
4 -5 -3 6102.58 743.219 12
-4 -5 3 5592.83 679.928 15
4 -5 -4 18817.7 1401.22 11
-4 -5 4 19261.1 1161.19 6
-4 -5 4 19496.9 1462.6 20
4 -5 -4 19228.7 1324.22 12
-4 -5 4 17378 1189.88 15
4 -5 -5 13167.1 1181.64 11
-4 -5 5 12214.7 898.49 6
-4 -5 5 12504.8 1192.46 20
4 -5 -5 11824.9 1040.64 12
4 -5 -6 31671.2 1891.37 11
-4 -5 6 34368.8 1510.97 6
-4 -5 6 35454.5 2039.59 20
4 -5 -6 32652.2 1770.47 12
4 -5 -7 171661 4972.68 11
-4 -5 7 173681 4076.58 6
-4 -5 7 175567 5096.47 20
4 -5 -7 173516 4697.11 12
4 -5 -8 73944.4 3029.85 11
-4 -5 8 75952.1 2298.59 6
-4 -5 8 75727.3 3134.56 20
4 -5 -8 76710.1 2823.62 12
4 -5 -9 5591.34 821.299 11
-4 -5 9 7037.4 947.318 20
4 -5 -9 8256.15 862.89 12
4 -5 -10 10861 1093.96 11
-4 -5 10 8693.31 1036.88 20
4 -5 -10 9872.43 941.805 12
4 -5 -11 21242.3 1528.33 11
-4 -5 11 22145 1602.02 20
4 -5 -11 22268.6 1382.82 12
4 -5 -12 2157 544.285 11
-4 -5 12 2653.66 594.049 20
4 -5 -12 2021.01 440.548 12
4 -5 -13 8156.56 906.277 11
-4 -5 13 9174.71 1002.33 20
4 5 13 9022.56 681.93 18
4 -5 -13 8064.02 783.256 12
4 -5 -14 8180.22 870.893 11
-4 -5 14 8531.39 904.674 20
4 5 14 9375.76 662.878 18
4 -5 -15 470.041 264.771 11
-4 -5 15 701.82 358.642 20
4 5 15 430.114 207.351 18
4 -5 -16 21447.4 1255.21 11
-4 -5 16 24094.3 1380.47 20
4 5 16 24042.2 1020.3 18
4 -5 -17 5958.8 610.477 11
-4 -5 17 5606.33 629.21 20
4 5 17 5325.23 455.644 18
4 -5 -18 5768.94 546.419 11
-4 5 -18 7604.42 536.794 7
4 5 18 6210.63 461.17 18
-4 -5 18 6313 591.329 20
4 -5 -19 1926.64 282.839 11
-4 5 -19 1723.99 251.78 7
4 5 19 1963.42 246.188 18
-4 -5 19 1846.46 302.521 20
-4 -6 -18 713.595 172.908 8
4 -6 18 706.134 196.208 9
-4 -6 -17 4243.84 418.977 8
4 -6 17 3651.95 409.097 9
4 -6 17 3687.37 333.745 19
-4 -6 -16 3966.32 442.963 8
4 -6 16 4287.59 472.34 9
4 -6 16 5017.92 424.858 19
-4 -6 -15 1570.33 302.648 8
4 -6 15 1936.33 349.601 9
-4 -6 -15 1652 266.502 10
4 -6 15 1990.26 304.514 19
-4 -6 -15 2021.18 306.835 13
4 -6 15 1378.06 323.555 14
-4 -6 -14 376.532 199.245 8
4 -6 14 1024.68 297.356 9
-4 -6 -14 558.597 206.346 10
4 -6 14 484.967 205.882 19
-4 -6 -14 471.997 219.494 13
4 -6 14 -5.97002 245.474 14
4 -6 13 5087.37 581.219 9
-4 -6 -13 4308.38 474.865 10
-4 -6 -13 4066.2 507.311 8
4 -6 13 4274.69 470.09 19
-4 -6 -13 4480.1 484.763 13
4 -6 13 4803.24 585.121 14
-4 -6 -12 759.008 258.61 8
4 -6 12 -9.12454 226.786 9
-4 -6 -12 230.316 196.034 10
4 -6 12 378.769 206.908 19
-4 -6 -12 487.751 226.656 13
4 -6 12 435.637 274.897 14
-4 -6 -11 2793.28 433.719 8
4 -6 11 2692.32 453.137 9
-4 -6 -11 2630.49 425.187 10
-4 -6 -11 3793.03 429.713 6
4 -6 11 3183.78 439.865 19
4 -6 11 2385.84 408.315 17
-4 -6 -11 2907.66 429.088 13
4 -6 11 2954.18 529.757 14
4 -6 10 2004.16 411.851 9
-4 -6 -10 1605.11 358.426 10
-4 -6 -10 2053.38 349.313 6
4 -6 10 2503.7 401.165 19
4 -6 10 2347.21 423.437 17
-4 -6 -10 1760.36 354.887 13
4 -6 10 1620.53 426.077 14
4 -6 9 8435.06 791.649 9
-4 -6 -9 7529.38 715.743 10
-4 -6 -9 7907.19 685.774 6
4 -6 9 7090.13 659.214 19
4 -6 9 6639.52 755.463 14
4 -6 9 8315.32 742.538 17
-4 -6 -9 7453.19 667.427 13
4 -6 8 128889 3612.53 9
-4 -6 -8 136789 3591.6 10
-4 -6 -8 138967 3512.01 6
-4 -6 -8 143248 3763.3 20
4 -6 8 132853 3842.2 14
4 -6 8 136164 3590.46 17
-4 -6 -8 136761 3411.43 13
4 -6 7 22811.2 1282.86 9
-4 -6 -7 24337.5 1318.36 10
-4 -6 -7 23215.9 1259.74 6
-4 -6 -7 24977.5 1394.95 20
4 -6 7 22955.4 1432.44 14
4 -6 7 24639 1348.91 17
-4 -6 -7 22086.3 1162.77 13
-4 -6 -7 25123.6 1312.58 15
-4 -6 -6 9631.61 817.574 6
-4 -6 -6 7015.56 754.955 20
4 -6 6 7825.61 836.709 14
4 -6 6 8184.43 780.623 17
-4 -6 -6 7939.39 690.69 13
-4 -6 -6 8863.09 779.103 15
-4 -6 -5 16880.5 1110.62 6
-4 -6 -5 14189.7 1081.6 20
4 -6 5 17021.3 1205.07 14
4 -6 5 13621.8 1020.91 17
-4 -6 -5 14363.5 917.209 13
-4 -6 -5 14130.6 979.242 15
4 -6 4 15076.8 1166.37 11
-4 -6 -4 15290.6 1063.06 6
-4 -6 -4 13265.4 1073.39 20
4 -6 4 15674.3 1110.69 17
4 -6 4 15227.8 1126.02 14
-4 -6 -4 13267.4 880.971 13
4 -6 4 15795.7 1106.37 12
-4 -6 -4 15193.4 1028.6 15
4 -6 3 1385.94 407.086 11
-4 -6 -3 1305.76 374.342 6
-4 -6 -3 899.932 371.587 20
4 -6 3 1354.48 381.526 17
-4 -6 -3 1437.17 310.224 13
4 -6 3 857.692 350.911 14
4 -6 3 1496.07 403.876 12
-4 -6 -3 1315.89 351.418 15
4 -6 2 28314.5 1642.78 11
-4 -6 -2 31953 1565.09 6
-4 -6 -2 25826.4 1548.25 20
4 -6 2 28654.2 1555.5 14
4 -6 2 25481.7 1462.41 17
4 -6 2 29090.5 1519.95 12
-4 -6 -2 29185.9 1444.9 15
4 -6 1 2505.07 506.944 11
-4 -6 -1 2303.47 467.87 6
-4 -6 -1 1815.25 446.385 20
4 -6 1 3105.4 535.564 17
4 -6 1 2287.66 456.008 14
4 -6 1 2105.76 446.363 12
-4 -6 -1 2517.6 464.201 15
4 -6 0 896.354 361.83 11
-4 -6 0 782.564 285.239 6
-4 -6 0 329.397 236.387 20
4 -6 0 1552.61 398.391 14
4 -6 0 1047.1 324.461 12
-4 -6 0 2081.32 426.397 15
4 -6 -1 2491.87 537.695 11
-4 -6 1 2469.46 465.907 6
-4 -6 1 2581.38 538.182 20
-4 -6 1 2226.17 434.167 15
4 -6 -1 2859.54 502.27 12
4 -6 -2 28866 1711.24 11
-4 -6 2 28167.3 1444.84 6
-4 -6 2 28081.8 1723.63 20
-4 -6 2 29166.4 1479 15
4 -6 -2 27304.8 1490.6 12
4 -6 -3 1216.59 446.506 11
-4 -6 3 1236.92 326.41 6
-4 -6 3 1365.45 450.294 20
4 -6 -3 1374.61 342.848 12
-4 -6 3 1057.8 315.121 15
4 -6 -4 14123.6 1210.62 11
-4 -6 4 13114.8 939.1 6
-4 -6 4 12334 1158.39 20
4 -6 -4 13865.4 1027.57 12
-4 -6 4 13762 1011.82 15
4 -6 -5 14510.1 1248.15 11
-4 -6 5 14504.2 973.338 6
-4 -6 5 15504.1 1301.69 20
4 -6 -5 13757.6 1041.17 12
-4 -6 5 13351.9 1002.49 15
4 -6 -6 6936.09 879.177 11
-4 -6 6 9432.48 771.288 6
-4 -6 6 9091.89 1016.65 20
4 -6 -6 7336.81 761.476 12
-4 -6 6 7556.33 750.63 15
4 -6 -7 22661.4 1573.25 11
-4 -6 7 23386 1195.81 6
-4 -6 7 24055.1 1633.92 20
4 -6 -7 21981.3 1301.78 12
-4 -6 7 21485.4 1254.92 15
4 -6 -8 134213 4194.98 11
-4 -6 8 135002 3287.67 6
-4 -6 8 130380 4209.26 20
4 -6 -8 132050 3624.19 12
-4 -6 8 128641 3505.15 15
4 -6 -9 7656.57 929.457 11
-4 -6 9 8515.11 984.975 20
-4 -6 9 6949.29 672.463 15
4 -6 -10 2024.19 523.289 11
-4 -6 10 2319.91 552.791 20
4 -6 -11 2962.14 615.335 11
-4 -6 11 2811.79 602.704 20
4 6 11 3210.2 404.705 18
4 -6 -12 583.889 344.152 11
-4 -6 12 493.53 378.245 20
4 6 12 705.72 242.676 18
4 -6 -13 3745.43 598.126 11
4 6 13 4432.81 436.981 18
-4 -6 13 5381.94 735.651 20
4 -6 -14 384.313 263.196 11
-4 -6 14 493.886 333.607 20
4 6 14 386.973 199.335 18
4 -6 -15 1878.16 410.325 11
-4 -6 15 1928.4 434.401 20
4 6 15 1734.26 275.813 18
4 -6 -16 4832.93 556.459 11
-4 -6 16 5237.07 589.138 20
4 6 16 5352.52 431.271 18
4 -6 -17 4316.52 476.546 11
-4 6 -17 5377.94 437.489 7
-4 -6 17 3999.19 483.891 20
4 6 17 4694.67 379.922 18
4 -6 -18 868.771 224.823 11
-4 6 -18 1206.27 203.643 7
-4 -6 18 848.897 226.174 20
4 6 18 1262.8 198.459 18
4 -7 17 14801.7 701.552 9
4 -7 16 11013.3 657.437 9
4 -7 16 10359.4 508.66 19
-4 -7 -15 15862 740.218 10
4 -7 15 14224.9 660.949 19
4 -7 15 14739.5 841.076 14
4 -7 14 755.719 241.6 9
-4 -7 -14 558.237 201.695 10
4 -7 14 1031.98 218.329 19
4 -7 14 335.965 204.039 14
-4 -7 -13 10239.6 692.043 10
4 -7 13 9631.14 734.318 9
4 -7 13 9572.65 607.633 19
-4 -7 -13 10544.9 644.063 13
4 -7 13 9670.38 755.428 14
-4 -7 -12 7825.59 639.666 10
4 -7 12 6572.58 629.965 9
4 -7 12 7811.81 573.728 19
4 -7 12 6844.55 677.394 14
-4 -7 -12 7330.27 569.378 13
-4 -7 -11 45933.2 1694.96 10
4 -7 11 43792.9 1733.32 9
4 -7 11 46136 1553.65 19
4 -7 11 47669.7 1890.15 14
-4 -7 -11 46641.9 1569.76 13
-4 -7 -10 8738.13 729.058 10
4 -7 10 8628.93 747.342 9
-4 -7 -10 8519.72 620.073 6
4 -7 10 9690.24 683.058 19
4 -7 10 9334.31 828.424 14
-4 -7 -10 7814.26 620.43 13
4 -7 10 8769.48 707.728 17
4 -7 9 3354.63 473.407 9
-4 -7 -9 3785.92 512.352 10
-4 -7 -9 4282.37 477.761 6
4 -7 9 2935.61 403.01 19
-4 -7 -9 3774.75 461.169 13
4 -7 9 4095.02 502.847 17
4 -7 9 3317.01 531.11 14
-4 -7 -8 9119.39 781.473 10
4 -7 8 8785.82 749.827 9
-4 -7 -8 8538.42 696.956 6
4 -7 8 8248.6 668.196 19
4 -7 8 8882.39 855.029 14
-4 -7 -8 11676.9 776.273 13
4 -7 8 8694.58 733.005 17
-4 -7 -7 7710.95 729.03 10
-4 -7 -7 6584.83 630.644 6
-4 -7 -7 6635.76 669.973 20
4 -7 7 6664.47 760.874 14
4 -7 7 7295.01 688.663 17
-4 -7 -7 6263.23 593.003 13
-4 -7 -6 36250.2 1628.54 10
-4 -7 -6 35862.9 1570.18 6
-4 -7 -6 35938 1632.2 20
4 -7 6 37883.4 1815.15 14
-4 -7 -6 35677.3 1441.21 13
4 -7 6 36251.2 1609.14 17
-4 -7 -5 32127.3 1538.22 10
-4 -7 -5 35600.9 1576.02 6
-4 -7 -5 32138.9 1566.94 20
4 -7 5 34141.2 1707.14 14
4 -7 5 32397.5 1535.85 17
-4 -7 -5 32166.7 1355.05 13
-4 -7 -4 2610.31 466.698 10
-4 -7 -4 2944.1 494.758 6
-4 -7 -4 3056.86 534.369 20
-4 -7 -4 3231.42 428.809 13
4 -7 4 3330.2 510.827 17
4 -7 4 3600.32 569.624 14
-4 -7 -4 2511.07 421.728 15
4 -7 3 31120.9 1641.4 11
-4 -7 -3 29137.5 1466.68 6
-4 -7 -3 25381.4 1449.86 20
4 -7 3 27321.7 1526.25 14
4 -7 3 25255 1385.48 17
-4 -7 -3 26831.1 1221.65 13
-4 -7 -3 29439.8 1358.68 15
4 -7 2 5488.36 701.53 11
-4 -7 -2 6497.38 717.369 6
-4 -7 -2 4611.25 670.608 20
4 -7 2 4335.68 596.353 17
-4 -7 -2 4995.89 510.104 13
4 -7 2 6193.46 661.644 12
4 -7 2 4430.56 631.85 14
-4 -7 -2 6184.14 628.465 15
4 -7 1 22834.3 1440.7 11
-4 -7 -1 24754.6 1343.43 6
-4 -7 -1 21799 1397.97 20
4 -7 1 20739.7 1283.11 17
4 -7 1 21931.5 1363.57 14
-4 -7 -1 23227.5 1095.3 13
4 -7 1 25759.8 1328.92 12
-4 -7 -1 22932.1 1207 15
4 -7 0 9999.28 948.886 11
-4 -7 0 10135.5 867.699 6
-4 -7 0 8254.22 879.138 20
4 -7 0 9495.81 880.725 14
4 -7 0 8115.53 811.986 17
-4 -7 0 8961.35 660.945 13
4 -7 0 11249.3 857.807 12
-4 -7 0 9701.87 773.901 15
4 -7 -1 23408.3 1480.23 11
-4 -7 1 22917.4 1301.49 6
-4 -7 1 21868.8 1448.3 20
4 -7 -1 25713.7 1311.03 12
-4 -7 1 23536.7 1221.8 15
4 -7 -1 22516.3 1353.7 14
4 -7 -2 4493.45 663.265 11
-4 -7 2 5590.82 643.698 6
-4 -7 2 5331.24 739.229 20
4 -7 -2 5753.77 662.002 14
4 -7 -2 5084.88 589.256 12
-4 -7 2 5111.01 566.961 15
4 -7 -3 28613 1676.73 11
-4 -7 3 26441.9 1370.79 6
-4 -7 3 26056.9 1613.04 20
4 -7 -3 28393.5 1370.58 12
-4 -7 3 28063.2 1331.36 15
4 -7 -4 3427.42 635.689 11
-4 -7 4 3103.14 465.049 6
-4 -7 4 2647.35 562.677 20
-4 -7 4 3101.99 450.796 15
4 -7 -5 33961.6 1835.63 11
-4 -7 5 32016.8 1810.81 20
-4 -7 5 33360.3 1486.38 6
4 -7 -6 35836.1 1901.42 11
-4 -7 6 34428.7 1893.59 20
-4 -7 6 35344.4 1491.89 6
4 -7 -7 6753.7 827.553 11
-4 -7 7 6410.67 603.935 6
-4 -7 7 7560.31 885.049 20
4 -7 -8 9011.86 957.025 11
-4 -7 8 8496.82 662.692 6
-4 -7 8 8100.62 894.157 20
4 7 8 9382.42 620.458 18
4 -7 -9 4426.72 674.979 11
-4 -7 9 3187.94 399.363 6
-4 -7 9 3276.76 606.626 20
4 7 9 3817.12 394.951 18
4 -7 -10 8740.15 904.543 11
-4 -7 10 7445.63 869.341 20
4 7 10 8656.92 579.269 18
4 -7 -11 47654.8 2120.08 11
-4 -7 11 49106.7 2169.79 20
4 7 11 48384 1466.99 18
4 -7 -12 7448.74 789.966 11
-4 -7 12 7168.59 814.997 20
4 7 12 8359.9 545.343 18
4 -7 -13 9104.32 830.741 11
-4 -7 13 10011.4 899.174 20
4 7 13 10608.3 594.362 18
4 -7 -14 1221.85 346.427 11
-4 -7 14 1223.7 358.756 20
4 7 14 1195.47 216.151 18
4 -7 -15 15276 943.461 11
-4 -7 15 15233 963.573 20
4 7 15 13451.8 626.95 18
4 -7 -16 10654.6 724.074 11
-4 7 -16 11855.8 599.556 7
-4 -7 16 11671.2 770.484 20
4 7 16 10376.9 504.667 18
4 -7 -17 14280.9 744.456 11
-4 -7 17 13397.5 754.503 20
-4 -8 -14 9969.28 568.121 10
4 -8 14 9166.73 586.439 9
4 -8 14 10132.5 647.74 14
4 -8 13 2593.59 341.688 9
-4 -8 -13 3351.48 369.951 10
4 -8 13 2941.59 393.135 14
-4 -8 -12 12161.4 738.318 10
4 -8 12 10357.2 691.349 9
4 -8 12 12242.5 600.576 19
4 -8 12 12249.1 798.14 14
-4 -8 -11 19159.4 975.914 10
4 -8 11 16495.2 915.745 9
4 -8 11 20333.9 829.827 19
-4 -8 -11 18114.6 820.027 13
4 -8 11 19568.2 1081.19 14
4 -8 10 1496.87 287.654 9
-4 -8 -10 1472.59 317.582 10
-4 -8 -10 1575.35 243.684 6
4 -8 10 1498.95 260.101 19
-4 -8 -10 1232.62 232.669 13
4 -8 10 1433.57 338.615 14
-4 -8 -9 6688.23 615.256 10
-4 -8 -9 6522.5 522.122 6
4 -8 9 5872.07 484.101 19
-4 -8 -9 6219.75 504.998 13
4 -8 9 5945.54 644.924 14
4 -8 9 5972.23 523.195 17
-4 -8 -8 12008.5 843.937 10
-4 -8 -8 11397.4 728.788 6
4 -8 8 10499.5 664.383 19
-4 -8 -8 11053.9 683.212 13
4 -8 8 10971.3 877.702 14
4 -8 8 11705.9 764.865 17
-4 -8 -7 14135.6 935.964 10
-4 -8 -7 12735.6 817.901 6
4 -8 7 13301.5 760.744 19
-4 -8 -7 12392.4 732.236 13
4 -8 7 12932.6 975.225 14
4 -8 7 12741.5 819.742 17
-4 -8 -6 85080.1 2585.24 10
-4 -8 -6 91161.9 2536.41 6
4 -8 6 84121.4 2279.31 19
-4 -8 -6 88171.3 2289.21 13
4 -8 6 88526.1 2811.02 14
4 -8 6 89208.7 2508.5 17
-4 -8 -5 54353.3 1985.16 10
-4 -8 -5 54885.4 1931.82 6
-4 -8 -5 55388.5 1925.17 20
4 -8 5 56167.7 2179.39 14
-4 -8 -5 55824.1 1719.05 13
4 -8 5 55263.6 1917.14 17
-4 -8 -4 27249.3 1355.42 10
-4 -8 -4 28749.1 1356.45 6
-4 -8 -4 27620.9 1329.95 20
4 -8 4 27575.9 1483.32 14
-4 -8 -4 27686.7 1135.52 13
4 -8 4 25352.3 1258.91 17
-4 -8 -3 3244.24 487.317 10
-4 -8 -3 3316.13 505.735 6
-4 -8 -3 3049.44 467.972 20
4 -8 3 3848.81 519.784 17
4 -8 3 3452.95 534.806 14
-4 -8 -2 17966.2 1084.86 10
-4 -8 -2 20844.5 1176.13 6
-4 -8 -2 20018.1 1193.05 20
4 -8 2 20816.6 1280.72 14
4 -8 2 20145.1 1148.51 17
4 -8 1 30331.9 1567.66 11
-4 -8 -1 28986.7 1373.95 10
-4 -8 -1 31066.4 1463.9 6
-4 -8 -1 27533.7 1450.55 20
4 -8 1 29569.2 1537.89 14
4 -8 1 29168.2 1418.1 17
4 -8 0 3668.69 575.596 11
-4 -8 0 3203.62 446.332 10
-4 -8 0 3280.36 510.068 6
-4 -8 0 2545.39 463.503 20
4 -8 0 2571.37 444.525 17
4 -8 0 3219.85 520.99 14
4 -8 -1 29779.1 1568.15 11
-4 -8 1 30651.6 1373.85 10
-4 -8 1 31106.5 1438.91 6
-4 -8 1 29211.3 1539.5 20
4 -8 -1 27427 1466.01 14
4 -8 -1 26077.2 1369.67 17
4 -8 -2 18673.2 1252.65 11
-4 -8 2 19733.9 1072.99 10
-4 -8 2 19816.8 1130.46 6
-4 -8 2 18832.4 1245.38 20
4 -8 -2 19979.5 1217.28 14
4 -8 -2 18418.1 1132.91 17
4 -8 -3 3734.83 581.528 11
-4 -8 3 3807.37 459.312 10
-4 -8 3 3821.85 511.274 6
-4 -8 3 3262.81 547.546 20
4 -8 -3 3900.09 544.589 14
4 -8 -4 26246.7 1489.21 11
-4 -8 4 26384.4 1174.41 10
-4 -8 4 23656.8 1441.13 20
-4 -8 4 26273.3 1275.09 6
4 -8 -5 52069.3 2182.87 11
-4 -8 5 54732.6 2250.9 20
-4 -8 5 54457.8 1880.63 6
4 -8 -6 87889 2921.8 11
-4 -8 6 85323 2901.82 20
-4 -8 6 83482.5 2399.62 6
4 -8 -7 12426.1 1024.04 11
-4 -8 7 12509.5 1034.01 20
-4 -8 7 12798.3 796.581 6
4 -8 -8 10336.3 916.643 11
-4 -8 8 10477.3 938.645 20
-4 -8 8 10449.3 687.976 6
4 -8 -9 5732.54 685.841 11
-4 -8 9 5941.2 702.582 20
4 -8 -10 1502.03 381.798 11
-4 -8 10 1289.19 352.224 20
4 -8 -11 20350.4 1180.11 11
-4 -8 11 17703.7 1136.25 20
4 -8 -12 12783.3 903.07 11
-4 -8 12 11685.3 878.06 20
4 -8 -13 3376.68 452.539 11
-4 -8 13 3133.23 445.156 20
4 -8 -14 9096.74 671.898 11
-4 -8 14 10224.3 710.726 20
4 -8 -15 8998.72 603.451 11
-4 -8 15 9408.37 625.46 20
4 -9 13 1227.58 212.918 14
-4 -9 -12 3211.97 337.44 10
4 -9 12 3328.88 357.339 14
-4 -9 -11 6900.84 512.359 10
4 -9 11 5795.27 510.808 14
-4 -9 -10 3348.8 392.163 10
4 -9 10 3206.92 409.621 14
-4 -9 -9 6816.33 447.802 6
-4 -9 -9 6736.03 562.342 10
4 -9 9 5750.17 562.428 14
-4 -9 -8 6981.4 499.846 6
-4 -9 -8 7231.27 592.803 10
4 -9 8 6014.83 599.051 14
-4 -9 -7 10681.3 665.278 6
-4 -9 -7 9818.16 713.591 10
4 -9 7 10769.7 810.701 14
4 -9 7 11742.7 655.015 17
-4 -9 -6 42604.6 1476.27 6
-4 -9 -6 40442 1537.96 10
4 -9 6 41256.1 1674.73 14
4 -9 6 41950.2 1377.74 17
-4 -9 -5 1810.36 324.297 6
-4 -9 -5 1977.63 374.122 10
4 -9 5 1523.41 281.24 17
4 -9 5 1438.02 346.495 14
-4 -9 -4 39790.4 1496.62 6
-4 -9 -4 34741.4 1439.39 10
4 -9 4 35111.6 1577.21 14
4 -9 4 35694.5 1319.08 17
-4 -9 -3 159.647 202.999 6
-4 -9 -3 6.16251 198.175 10
4 -9 3 84.4325 165.025 17
4 -9 3 302.439 233.746 14
-4 -9 -2 33565 1416.92 6
-4 -9 -2 29794.8 1313.56 10
4 -9 2 31681.4 1493.3 14
4 -9 2 31229.5 1263.68 17
-4 -9 -1 755.943 280.156 6
-4 -9 -1 690.912 253.443 10
4 -9 1 854.372 231.401 17
4 -9 1 1115.2 340.374 14
-4 -9 0 15480.5 893.112 10
-4 -9 0 17192.7 999.305 6
-4 -9 0 14247.9 903.933 20
4 -9 0 15100.7 1004.71 14
4 -9 0 14855.1 866.451 17
4 -9 -1 1047 326.241 11
-4 -9 1 523.108 217.5 10
-4 -9 1 1168.96 316.159 6
-4 -9 1 465.836 199.122 20
4 -9 -1 868.11 259.754 17
4 -9 -1 907.15 330.488 14
4 -9 -2 30349.8 1414.42 11
-4 -9 2 29287.4 1188.77 10
-4 -9 2 29422.9 1319.89 6
-4 -9 2 30130.8 1379.18 20
4 -9 -2 29891.1 1393.85 14
4 -9 -2 30219.2 1285.1 17
4 -9 -3 225.801 213.354 11
-4 -9 3 -125.667 223.946 6
-4 -9 3 56.0277 178.895 20
4 -9 -3 -136.339 233.436 17
4 -9 -3 295.124 215.215 14
4 -9 -4 38199 1603.64 11
-4 -9 4 35550.4 1415.01 6
-4 -9 4 35008.1 1537.9 20
4 -9 -4 35941.2 1463.5 14
4 -9 -4 34976.3 1399.41 17
4 -9 -5 1956.52 394.368 11
-4 -9 5 1881.22 339.454 6
-4 -9 5 1982.72 368.319 20
4 -9 -5 1497.08 294.055 17
4 -9 -6 37726.1 1596.88 11
-4 -9 6 39125.9 1402.93 6
-4 -9 6 38837.8 1610.69 20
4 -9 -6 37003.5 1411.85 17
4 -9 -7 10306.1 800.804 11
-4 -9 7 10050.9 650.021 6
-4 -9 7 9817.45 771.128 20
4 -9 -7 9551.02 667.227 17
4 -9 -8 6779.63 635.723 11
-4 -9 8 6667.54 635.133 20
-4 -9 8 6385.26 480.268 6
4 -9 -9 6054.73 585.791 11
-4 -9 9 6389.73 602.627 20
4 -9 -10 4076.4 465.634 11
-4 -9 10 2518.18 384.073 20
4 -9 -11 5327.12 498.329 11
-4 -9 11 5679.33 522.045 20
4 -9 -12 3769.38 396.154 11
-4 -9 12 3398.23 373.048 20
-4 -10 -10 23605.5 862.105 10
-4 -10 -9 8687.67 532.671 10
4 -10 9 8563.24 548.982 14
-4 -10 -8 11841.6 654.302 10
4 -10 8 13053.2 721.298 14
-4 -10 -7 571.221 158.882 6
-4 -10 -7 626.404 196.217 10
4 -10 7 1146.86 265.183 14
-4 -10 -6 611.164 177.538 6
-4 -10 -6 736.419 205.601 10
4 -10 6 1070.97 266.852 14
-4 -10 -5 6309.37 485.507 6
-4 -10 -5 6003.76 492.724 10
4 -10 5 6891.8 581.161 14
-4 -10 -4 24432.1 1020.9 6
-4 -10 -4 22322.4 982.691 10
4 -10 4 24458 1128.04 14
-4 -10 -3 469.899 212.537 6
-4 -10 -3 246.48 162.348 10
4 -10 3 263.813 189.151 14
-4 -10 -2 2034.51 328.48 6
-4 -10 -2 1863.68 285.888 10
4 -10 2 2162.96 359.9 14
-4 -10 -1 26291 1115.65 6
-4 -10 -1 22909 966.625 10
4 -10 1 25534.6 1165.87 14
-4 -10 0 2965.2 386.747 6
4 -10 0 3936.88 451.968 14
-4 -10 1 25367.2 1103.99 6
4 -10 -1 24112 1112.91 14
-4 -10 2 2312 349.35 6
4 -10 -2 2655.21 369.795 14
-4 -10 3 300.535 181.589 6
4 -10 -3 67.2028 164.145 14
-4 -10 4 20503.2 939.711 6
4 -10 -4 22547.6 950.855 14
-4 -10 5 6094.72 486.07 6
4 -10 -5 6625.1 515.946 11
-4 -10 6 676.849 195.193 6
4 -10 -6 666.667 201.295 11
-4 -10 7 779.499 183.867 6
4 -10 -7 862.783 216.718 11
4 -10 -8 12903.2 654.297 11
-4 -11 -2 13434.6 647.283 6
-4 -11 -1 12927.7 651.331 6
-4 -11 0 1711.93 252.742 6
-4 -11 1 12539.9 637.749 6
-4 -11 2 13428.4 650.767 6
-4 -11 3 561.295 146.447 6
-5 0 0 641.151 352.394 20
5 0 0 297.348 317.54 12
-5 0 0 249.057 315.613 15
-5 0 -1 17574.2 1168.76 20
-5 0 1 21045.7 1281.84 20
5 0 1 17154.2 1203.96 12
5 0 -1 17965 1267.94 12
-5 0 -1 17671.3 1148.41 15
-5 0 1 17362.6 1178.96 15
-5 0 -2 444.818 310.011 20
-5 0 2 959.384 519.763 20
5 0 2 741.112 319.054 12
5 0 -2 8.78759 274.364 12
-5 0 -2 65.5525 293.641 15
-5 0 -3 8340.04 793.334 20
-5 0 3 7065.74 733.283 20
5 0 -3 8346.75 902.302 12
-5 0 -3 8917.92 787.338 15
5 0 3 8555.69 806.908 12
-5 0 4 3374.83 533.383 20
5 0 -4 3260.89 625.059 12
5 0 4 2940.98 498.655 12
-5 0 -4 3259.85 485.321 15
-5 0 5 79240.1 2634.92 20
5 0 5 80711 2345.72 17
5 0 -5 77752.2 2970.47 12
5 0 5 84908.6 2618.96 12
-5 0 -5 79432.3 2447.55 15
5 0 6 795.558 211.061 17
5 0 -6 725.297 383.284 12
5 0 6 861.293 308.088 12
-5 0 -6 859.733 277.596 15
5 0 7 549.747 232.801 17
5 0 -7 501.156 309.849 12
5 0 7 716.866 301.924 12
-5 0 -7 453.969 222.004 15
5 0 8 15834.8 877.735 19
5 0 -8 17105 1339.51 12
-5 0 -8 18266.8 987.582 15
5 0 9 6422.03 553.537 19
-5 0 -9 6889.41 563.139 13
5 0 -9 6663.48 838.771 12
5 0 10 26766.2 1123.9 19
-5 0 -10 26337.7 1097.03 13
5 0 -10 26441.2 1637.76 12
5 0 11 11904.1 700.924 19
-5 0 -11 11389 684.988 13
5 0 -11 11212.7 1046.58 12
5 0 12 1720.63 285.108 19
5 0 -12 1556.84 450.561 12
-5 0 -12 1004.66 225.666 13
5 0 13 26961.3 1007.34 19
-5 0 -13 28138.8 988.34 13
5 0 -13 27841.5 1562.89 12
5 0 14 11433.3 588.926 19
5 0 -14 11575.2 943.15 12
5 0 15 2444.35 275.763 18
5 0 -15 2241.55 406.037 12
5 0 16 13686.4 603.44 18
5 0 -16 13027.8 861.256 12
5 0 -17 -105.332 145.803 12
5 0 18 3825.11 335.488 9
5 0 -18 4508.99 397.002 12
5 -1 18 8909.92 497.292 9
5 1 -18 8850.47 547.461 12
5 -1 17 4832.45 416.173 9
5 1 -17 3809.18 418.162 12
5 -1 16 4100.77 315.963 19
5 1 -16 3118.21 425.617 12
5 -1 15 1855.38 245.275 19
5 1 -15 1391.77 347.461 12
-5 -1 -15 1558.21 205.807 13
5 -1 14 13124.5 673.393 19
-5 -1 -14 12338.3 615.422 13
5 -1 14 13089.4 645.484 18
5 1 -14 12130.8 963.579 12
5 -1 13 3370.29 364.38 19
-5 -1 -13 2822.55 328.198 13
5 1 -13 3510.18 574.06 12
5 -1 12 951.344 239.833 19
5 1 -12 1018.46 388.361 12
-5 -1 -12 1003.72 230.67 13
5 -1 11 492.58 219.856 19
5 1 -11 120.045 273.831 12
-5 -1 -11 23.3817 141.787 13
5 -1 10 13822.7 808.603 19
-5 -1 -10 11869.5 743.422 13
5 1 -10 13363.1 1134.23 12
5 -1 9 1601.21 306.14 19
5 -1 9 1658.55 322.987 17
-5 -1 -9 1755.83 323.101 13
5 1 -9 1260.28 434.335 12
5 -1 8 17908.4 995.836 17
-5 -1 -8 15757.5 911.247 13
5 1 -8 15196 1241.65 12
-5 -1 -8 17176.4 991.663 15
5 -1 7 46185.5 1723.08 17
5 1 -7 41932.6 2110.65 12
5 -1 7 54152.2 1983.93 12
-5 -1 -7 50193 1814.68 15
5 -1 6 64537.7 2106.93 17
5 1 -6 62038.3 2575.46 12
5 -1 6 67704.7 2305.49 12
-5 -1 -6 60599.1 2109.63 15
5 -1 5 25754.6 1276.17 17
5 1 -5 26720.7 1637.72 12
5 -1 5 30383.2 1492.7 12
-5 -1 -5 28082.7 1391.63 15
-5 -1 -4 31145.2 1599.43 20
5 -1 4 28890.5 1359.9 17
5 1 -4 24869.6 1549.32 12
5 -1 4 27053.7 1454.93 12
-5 -1 -4 25245.3 1335.17 15
-5 -1 -3 164.966 296.663 20
5 -1 3 419.601 261.37 12
5 -1 3 -155.035 301.763 17
5 1 -3 311.967 270.72 12
-5 -1 -3 264.18 277.795 15
-5 -1 -2 108344 3279.59 20
5 1 -2 97935.2 3248.48 12
5 -1 2 101902 2917.51 17
-5 -1 -2 103660 3087.66 15
5 -1 2 105375 3236.76 12
-5 -1 -1 200402 4937.56 20
5 -1 1 205423 5000.15 12
5 1 -1 196932 4954.31 12
5 -1 1 197313 4578.62 17
-5 -1 -1 201257 4851.45 15
-5 1 1 185719 4653.45 15
-5 -1 0 280513 6318.5 20
5 -1 0 283591 6422.45 12
5 1 0 275097 6184.24 12
5 -1 0 271486 5886.38 17
-5 -1 0 266557 6125.74 15
-5 1 0 271302 5996.71 15
-5 1 -1 215944 4780.84 20
-5 -1 1 206477 5042.99 20
5 1 1 204328 4886.75 12
5 -1 -1 204769 5158.87 12
5 -1 -1 186012 4570.44 17
-5 1 -1 194916 4673.69 15
-5 -1 1 192334 4893.07 15
-5 -1 2 103525 3239.65 20
5 -1 -2 104823 3400.87 12
5 -1 -2 94110.5 2857.45 17
-5 1 -2 101813 2923.54 15
-5 -1 2 95075.4 3103.82 15
5 1 2 103541 3080.88 12
5 -1 -3 736.827 322.392 11
-5 -1 3 189.105 253.976 20
5 -1 -3 387.488 315.569 12
5 1 3 27.5219 219.328 12
-5 1 -3 81.056 259.408 15
-5 -1 4 26075.5 1479.85 20
5 -1 -4 26655.1 1628.15 12
5 1 4 28806.4 1403.96 12
-5 1 -4 25911.8 1278.79 15
-5 -1 5 27151.2 1515.12 20
5 -1 -5 24928.1 1599.6 12
5 1 5 27819.6 1344.25 12
-5 1 -5 26535.5 1250.19 15
-5 -1 6 60953.2 2386.73 20
5 -1 -6 60179.3 2597.32 12
5 1 6 67254.7 2168.93 12
-5 1 -6 66512.7 2049.64 15
-5 -1 7 45975.7 1997.53 20
5 -1 -7 46781.3 2253.44 12
-5 1 -7 49455.5 1675.4 15
-5 -1 8 15673.7 1091.15 20
-5 1 -8 14819.9 814.224 13
5 -1 -8 17801.4 1345.94 12
-5 -1 9 2071.11 414.269 20
-5 1 -9 2551.19 364.127 13
5 -1 -9 1880.25 510.841 12
-5 1 -10 12897 715.326 13
5 -1 -10 13633.4 1155.74 12
5 -1 -11 -29.1558 305.471 12
5 -1 -12 978.036 385.664 12
5 -1 -13 2412.11 500.908 12
5 -1 -14 11167.4 908.351 12
-5 1 -15 2447.33 305.868 7
5 1 15 1738.69 255.43 18
5 -1 -15 1537.18 349.105 12
-5 1 -16 3299.27 318.914 7
5 1 16 3332.82 305.638 18
5 -1 -16 3673.78 450.41 12
5 1 17 4531.59 321.179 18
5 -1 -17 4795.48 450.052 12
5 -2 17 23901.2 924.56 9
5 2 -17 23366.4 985.618 12
5 -2 16 793.786 220.132 9
5 -2 16 605.229 147.675 19
5 2 -16 591.693 209.565 12
5 -2 15 29880.6 1215.34 9
5 -2 15 31851.2 1045.57 19
-5 -2 -15 29991 964.166 13
5 2 -15 28999.9 1340.94 12
5 -2 14 17221.8 787.695 19
-5 -2 -14 16497.6 735.131 13
5 2 -14 15921.1 1038.9 12
5 -2 13 2044.55 306.031 19
5 2 -13 2010.23 442.51 12
-5 -2 -13 1898.17 282.721 13
-5 -2 -12 5686.53 489.093 6
5 -2 12 6099.08 520.558 19
-5 -2 -12 6899.25 529.62 13
5 2 -12 5582.97 686.385 12
5 -2 11 1848.44 311.118 19
5 2 -11 2150.55 466.849 12
-5 -2 -11 1938.48 320.617 13
-5 -2 -10 7479.12 564.832 10
5 -2 10 6271.83 557.522 19
5 2 -10 5441.02 705.155 12
-5 -2 -10 6732.68 566.409 13
5 -2 9 60611.2 1927.47 19
5 -2 9 65324.1 2059.08 17
-5 -2 -9 62132.3 1941.22 13
5 2 -9 59169.1 2430.85 12
5 -2 8 10996.5 792.956 17
-5 -2 -8 11487 788.67 13
5 2 -8 9724.74 963.11 12
-5 -2 -8 13168.2 879.785 15
5 -2 7 18752.9 1061.89 17
5 2 -7 18576.9 1308.57 12
5 -2 7 20274.7 1197.7 12
-5 -2 -7 18754.4 1078.81 15
5 -2 6 5977.29 616.891 17
5 2 -6 5574.91 721.99 12
5 -2 6 7078.72 711.34 12
-5 -2 -6 7262.52 700.293 15
-5 -2 -5 6354.63 745.364 20
5 -2 5 6348.36 645.664 17
5 2 -5 5971.05 740.528 12
5 -2 5 6862.25 734.333 12
-5 -2 -5 6642.83 676.709 15
-5 -2 -4 21707.9 1336.5 20
5 -2 4 18614.5 1129.77 17
5 2 -4 19831.8 1311.55 12
5 -2 4 21347.4 1287.6 12
-5 -2 -4 18556.6 1162.44 15
-5 -2 -3 15188.7 1142.9 20
5 2 -3 15507.9 1138.61 12
5 -2 3 14270.7 993.252 17
5 -2 3 16671.1 1147.63 12
-5 -2 -3 16134 1097.56 15
-5 -2 -2 28001.7 1585.21 20
5 2 -2 29242.9 1554.85 12
5 -2 2 29746 1461.52 17
-5 -2 -2 28955.6 1524.98 15
5 -2 2 31795.8 1632.55 12
-5 2 2 28067.2 1416.32 15
-5 -2 -1 80872.3 2809.41 20
5 2 -1 82334.5 2677.22 12
5 -2 1 76412.8 2542.28 17
-5 -2 -1 75750.2 2633.33 15
-5 2 1 74213.4 2456.38 15
5 -2 1 78639.8 2765.3 12
-5 -2 0 91293.2 3041.18 20
5 -2 0 92844.4 3067.66 12
5 2 0 88858.5 2795.92 12
5 -2 0 85327.2 2757.08 17
-5 -2 0 89137.1 2925.93 15
-5 2 0 85218.7 2625.09 15
5 -2 -1 84101.4 2768.81 11
-5 -2 1 82153.7 2873.33 20
5 -2 -1 79997.6 2877.15 12
5 -2 -1 73818.6 2545.23 17
-5 2 -1 81202.9 2487 15
-5 -2 1 80278.8 2766.06 15
5 2 1 81296.1 2591.48 12
5 -2 -2 30169.3 1549.84 11
-5 -2 2 29857.9 1656.85 20
5 -2 -2 31294.3 1714.45 12
-5 2 -2 29368.5 1337.95 15
5 2 2 30560.1 1441.93 12
-5 -2 2 29897.1 1601.8 15
5 -2 -3 15366.9 1100.77 11
-5 -2 3 15268.7 1189.76 20
5 -2 -3 18006 1302.66 12
-5 -2 3 14462.7 1120.75 15
5 -2 -4 19637 1228.16 11
-5 -2 4 17346.1 1264.48 20
5 -2 -4 19554.3 1373.23 12
5 -2 -5 6281.04 694.589 11
-5 -2 5 5081.83 689.998 20
5 -2 -5 5349.05 755.338 12
5 -2 -6 7180.36 729.703 11
-5 -2 6 5629.34 560.11 6
-5 -2 6 5341.42 703.272 20
5 -2 -6 6758.72 829.108 12
5 -2 -7 17560.3 1128.24 11
-5 -2 7 19174 1314.37 20
5 -2 -7 17077.1 1300.7 12
5 -2 -8 10202 835.322 11
-5 -2 8 10821.6 957.959 20
5 -2 -8 12102.6 1108.99 12
5 -2 -9 61443 2143.34 11
-5 -2 9 62658.3 2380.66 20
5 -2 -9 61499.2 2522.93 12
5 -2 -10 6185.8 625.953 11
-5 -2 10 6843.87 739.995 20
5 -2 -10 6134.65 773.069 12
-5 -2 11 2053.54 404.468 20
5 -2 -11 2216.7 498.504 12
-5 -2 12 5717.57 604.468 20
5 -2 -12 6658.66 757.54 12
-5 -2 13 2535.83 395.352 20
5 -2 -13 1903.66 406.838 12
5 2 14 18217 830.173 18
5 -2 -14 16166.1 1045.88 12
5 2 15 30912.5 1059.09 18
5 -2 -15 29846.2 1338.49 12
-5 2 -16 676.967 178.373 7
5 2 16 947.889 185.039 18
5 -2 -16 496.976 210.948 12
-5 2 -17 23416 811.708 7
5 2 17 24380.1 794.992 18
5 -2 -17 22999.2 928.248 12
5 -3 16 417.314 161.45 9
5 -3 16 375.96 128.888 19
5 3 -16 636.891 197.876 12
5 -3 15 5524.01 478.604 9
5 -3 15 6400.13 436.431 19
-5 -3 -15 5789.72 393.805 13
5 3 -15 4939.08 497.447 12
5 -3 14 4070.18 440.794 9
5 -3 14 4432.57 393.694 19
-5 -3 -14 5333.07 410.007 13
5 3 -14 4072.76 480.419 12
5 -3 13 9262.9 695.076 9
5 -3 13 10952.1 651.617 19
-5 -3 -13 11177.3 644.974 13
5 3 -13 12042.3 877.677 12
5 -3 12 24097.1 1175.05 9
-5 -3 -12 27102.7 1039.54 6
5 -3 12 28767.9 1140.16 19
-5 -3 -12 28595.6 1125.42 13
5 3 -12 26741 1384.85 12
-5 -3 -11 18989.5 876.393 10
-5 -3 -11 19732.3 948.291 6
5 -3 11 19555.7 960.28 19
-5 -3 -11 19418.2 945.291 13
5 3 -11 17017.5 1130.05 12
-5 -3 -10 8378.02 608.636 10
-5 -3 -10 8772.98 670.66 6
5 -3 10 8068.41 631.737 19
5 -3 10 9899.41 724.087 17
-5 -3 -10 8157.41 634.104 13
5 3 -10 7165.23 739.033 12
5 -3 9 1743.63 327.137 19
5 -3 9 2392.79 391.365 17
-5 -3 -9 1948.43 354.674 13
5 3 -9 2026.64 422.688 12
5 -3 8 8144.15 706.783 17
-5 -3 -8 9546.65 712.488 13
5 3 -8 8278.03 825.626 12
-5 -3 -8 9488.04 757.628 15
5 -3 7 38817.2 1601.88 17
5 3 -7 36885.7 1748.38 12
-5 -3 -7 38969.2 1523.35 13
-5 -3 -7 42534.6 1668.56 15
-5 -3 -6 25450.6 1416.73 20
5 -3 6 22412.4 1217.48 17
5 3 -6 20603.3 1279.66 12
5 -3 6 27804.1 1411 12
-5 -3 -6 24478.8 1260.23 15
-5 -3 -5 5982.67 716.881 20
5 -3 5 5729.16 628.939 17
5 3 -5 4508.55 601.26 12
5 -3 5 6823.1 719.551 12
-5 -3 -5 5931.21 651.777 15
-5 -3 -4 10697.6 946.683 20
5 3 -4 9667.06 839.389 12
5 -3 4 9819.3 821.127 17
5 -3 4 10371.3 888.78 12
-5 -3 -4 9948.15 843.246 15
-5 -3 -3 2261.37 490.598 20
-5 3 3 2240.41 392.508 15
5 -3 3 3295.71 506.433 17
5 3 -3 2604.2 468.188 12
5 -3 3 2927.76 509.193 12
-5 -3 -3 2899.06 503.096 15
-5 -3 -2 72033.1 2653 20
5 -3 2 71497.7 2470.19 17
5 -3 2 78017.5 2667.65 12
-5 -3 -2 75724.9 2550.95 15
-5 -3 -1 25402.8 1510.98 20
5 -3 1 28041.4 1460.96 17
-5 -3 -1 29448 1535.78 15
5 -3 1 30025.3 1594.39 12
5 -3 0 42029.2 1918.61 11
-5 -3 0 40307.5 1940.65 20
5 -3 0 38480.1 1753.9 17
-5 -3 0 42992.2 1889.47 15
5 -3 0 37428.9 1831.73 12
5 -3 -1 30200.6 1592.4 11
-5 -3 1 26732.6 1577 20
5 -3 -1 30601.1 1640.16 12
5 -3 -1 26353 1438.87 17
-5 -3 1 25739.9 1476.73 15
5 -3 -2 75661.1 2685.71 11
-5 -3 2 77957.6 2810.03 20
5 -3 -2 74596 2744.5 12
-5 -3 2 71518.2 2599.88 15
5 -3 -3 3648.32 575.314 11
-5 -3 3 3358.15 493.55 6
-5 -3 3 2405.08 531.323 20
5 -3 -3 2261.81 503.881 12
-5 -3 3 2857.95 542.584 15
5 -3 -4 9076.69 865.569 11
-5 -3 4 8860.95 739.885 6
-5 -3 4 9401.56 929.757 20
5 -3 -4 8148.24 860.086 12
-5 -3 4 8357.65 840.831 15
5 -3 -5 5270.38 678.791 11
-5 -3 5 5406.51 576.805 6
-5 -3 5 5334.65 730.243 20
-5 -3 5 4570.68 635.807 15
5 -3 -5 5533.94 740.623 12
5 -3 -6 22302.8 1334.38 11
-5 -3 6 21823.2 1106.15 6
-5 -3 6 22393.1 1436.82 20
5 -3 -6 21800.5 1427.4 12
5 -3 -7 36978.8 1731.91 11
-5 -3 7 36487.1 1403.11 6
-5 -3 7 37097.2 1861.28 20
5 -3 -7 38944.6 1924.03 12
5 -3 -8 8487.17 803.359 11
-5 -3 8 9367.58 919.629 20
5 -3 -8 8668.83 898.756 12
5 -3 -9 2119.77 438.433 11
-5 -3 9 2560.98 526.255 20
5 -3 -9 2286.35 475.177 12
5 -3 -10 7726.39 724.656 11
-5 -3 10 8754.38 851.468 20
5 -3 -10 8562.12 845.072 12
5 -3 -11 19176 1110.53 11
-5 -3 11 19886.9 1220.27 20
5 -3 -11 20292.1 1274.75 12
5 -3 -12 27470.7 1249.48 11
-5 -3 12 27675.6 1379.56 20
5 -3 -12 28859.9 1463.58 12
5 -3 -13 11039.8 705.382 11
-5 -3 13 10503.9 778.236 20
5 -3 -13 10917.2 842.924 12
-5 -3 14 4408.26 466.972 20
5 3 14 4731.05 407.359 18
5 -3 -14 4579.75 510.202 12
5 3 15 6027.39 429.328 18
5 -3 -15 5472.16 495.699 12
-5 3 -16 386.609 153.236 7
-5 -3 16 146.343 113.691 15
5 3 16 300.692 121.616 18
5 -3 -16 466.754 164.537 12
5 3 17 3536.51 274.616 18
5 -4 16 9068.7 446.902 19
5 -4 15 4616.18 401.976 9
5 -4 15 5374.31 380.376 19
-5 -4 -15 5322.25 361.116 13
5 -4 14 309.295 157.991 9
5 -4 14 -7.49607 118.4 19
-5 -4 -14 154.261 125.135 13
5 4 -14 26.0807 149.955 12
5 -4 13 18957.3 932.83 9
5 -4 13 21152.9 892.858 19
5 4 -13 19288.7 961.56 12
5 -4 12 4493.96 462.084 9
-5 -4 -12 4654.25 393.207 10
5 -4 12 4816.93 447.899 19
-5 -4 -12 4838.36 445.854 13
5 4 -12 4427.29 492.039 12
5 -4 11 9085.45 673.072 9
-5 -4 -11 9955.97 622.533 10
-5 -4 -11 9750.53 614.171 6
5 -4 11 10038.5 657.264 19
-5 -4 -11 9462.72 641.847 13
5 4 -11 8672.59 702.976 12
5 -4 10 5953.76 563.41 9
-5 -4 -10 6552.15 539.255 10
-5 -4 -10 6461.8 544.149 6
5 -4 10 5422.22 508.286 19
5 -4 10 6114.61 566.805 17
-5 -4 -10 6232.24 538.738 13
5 4 -10 6498.21 624.71 12
5 -4 9 5000.12 514.965 9
-5 -4 -9 5320.01 503.799 10
-5 -4 -9 4753.95 513.374 6
5 -4 9 5135.84 508.43 19
5 -4 9 5409.59 542.268 17
-5 -4 -9 5110.1 520.554 13
5 4 -9 3799.61 491.579 12
-5 -4 -8 16021.5 955.277 6
5 -4 8 17275.8 993.483 17
-5 -4 -8 17350.6 946.753 13
5 4 -8 15412.1 963.144 12
-5 -4 -7 30686.6 1405.18 6
5 -4 7 30609.3 1379.8 17
-5 -4 -7 30635.1 1309.74 13
-5 -4 -7 32861.7 1424.97 15
-5 -4 -6 1304.2 374.273 6
-5 -4 -6 1835.15 461.133 20
5 -4 6 1245.72 350.198 17
-5 -4 -6 1371.19 332.151 13
-5 -4 -6 1256.93 358.838 15
-5 -4 -5 12289.3 912.243 6
-5 -4 -5 12918.4 996.239 20
5 -4 5 11868.4 879.295 17
-5 -4 -5 10721.1 774.17 13
5 -4 5 11969.9 915.716 12
-5 -4 -5 12932.6 901.65 15
-5 -4 -4 49798.3 1954.92 6
-5 -4 -4 47443.1 2020.21 20
5 -4 4 50757.8 1956.16 17
5 -4 4 53516.4 2051.37 12
-5 -4 -4 50655.7 1926.3 15
-5 -4 -3 8990.62 816.027 6
-5 -4 -3 9552.23 882.983 20
5 -4 3 9081.63 812.662 17
5 -4 3 9908.2 848.803 12
-5 -4 -3 8705.26 783.594 15
-5 -4 -2 33516.3 1584.4 6
-5 -4 -2 35166.1 1727.87 20
5 -4 2 33959.5 1597.79 17
5 -4 2 36508.1 1700.94 12
-5 -4 -2 37532.3 1681.82 15
-5 -4 -1 665.303 294.16 6
-5 -4 -1 460.147 359.514 20
5 -4 1 402.904 282.137 17
5 -4 1 274.915 254.744 12
-5 -4 -1 606.944 333.182 15
5 -4 0 1479.63 426.795 11
-5 -4 0 1215.22 328.982 6
-5 -4 0 1375.43 387.874 20
5 -4 0 963.004 322.176 17
-5 -4 0 1630.07 385.733 15
5 -4 0 1465.46 404.754 12
5 -4 -1 460.122 351.988 11
-5 -4 1 274.974 274.654 6
-5 -4 1 33.4985 293.49 20
5 -4 -1 274.207 271.608 12
5 -4 -1 259.972 251.703 17
-5 -4 1 41.1385 245.333 15
5 -4 -2 36104.4 1770.13 11
-5 -4 2 31880 1504.13 6
-5 -4 2 34970.6 1800.88 20
-5 -4 2 35268.7 1674.11 15
5 -4 -2 34509.8 1703.98 12
5 -4 -3 7845.08 815.812 11
-5 -4 3 6797.32 673.506 6
-5 -4 3 8023.57 849.711 20
5 -4 -3 8769.46 852.408 12
-5 -4 3 7939.08 791.919 15
5 -4 -4 47705.2 2069.64 11
-5 -4 4 45019.2 1733.48 6
-5 -4 4 49431.5 2176.29 20
5 -4 -4 50313.1 2095.34 12
-5 -4 4 47494.8 1978.59 15
5 -4 -5 11458.8 989.971 11
-5 -4 5 12403.8 832.832 6
-5 -4 5 11932.5 1045.86 20
5 -4 -5 11091.6 959.569 12
-5 -4 5 11719.7 949.855 15
5 -4 -6 539.301 323.985 11
-5 -4 6 1282.53 290.02 6
-5 -4 6 884.796 360.388 20
5 -4 -6 1392.12 398.631 12
-5 -4 6 889.614 350.098 15
5 -4 -7 31002.1 1576.29 11
-5 -4 7 28954.8 1193.56 6
-5 -4 7 28129.5 1608.05 20
5 -4 -7 29305.9 1543.55 12
-5 -4 7 27635.6 1442.2 15
5 -4 -8 16276.8 1125.62 11
-5 -4 8 16213.5 1187.94 20
5 -4 -8 17039.6 1149.79 12
-5 -4 8 15639.7 1055.83 15
5 -4 -9 5651.16 660.963 11
-5 -4 9 4955.74 668.363 20
-5 -4 9 3807.21 524.402 15
5 -4 -9 4105.51 566.83 12
5 -4 -10 7008.69 702.67 11
-5 -4 10 6349.99 714.128 20
5 -4 -10 5242.05 611.778 12
-5 -4 10 5277.06 581.127 15
5 -4 -11 8164.3 726.872 11
-5 -4 11 9742.08 845.694 20
-5 -4 11 8327.34 689.674 15
5 -4 -12 4558.6 519.281 11
-5 -4 12 4774.94 566.451 20
5 -4 -12 4455.02 514.625 12
-5 -4 12 4088.33 465.443 15
5 -4 -13 19958.4 979.077 11
-5 -4 13 21985.1 1110.28 20
5 4 13 22900.4 904.101 18
5 -4 -13 19707.6 999.314 12
-5 -4 13 18960.1 935.379 15
5 -4 -14 307.2 177.485 11
-5 -4 14 210.734 175.713 20
-5 -4 14 149.858 160.176 15
5 4 14 208.693 136.738 18
5 -4 -14 478.801 152.222 12
-5 -4 15 5641.78 447.266 20
5 4 15 5489.97 382.213 18
-5 4 -16 9276.1 498.053 7
5 4 16 9758.14 468.758 18
5 -5 15 14797.6 581.54 19
5 -5 14 4767.63 381.327 9
5 -5 14 6067.62 397.397 19
-5 -5 -14 5271.87 367.29 13
5 -5 13 14862.8 685.283 19
-5 -5 -13 16036.6 707.166 13
-5 -5 -12 36451.3 1154.03 10
5 -5 12 39150.3 1253.18 19
-5 -5 -12 39191.1 1246.82 13
-5 -5 -11 18137.9 831.322 10
-5 -5 -11 16915.8 735.004 6
5 -5 11 17450.8 834.449 19
-5 -5 -11 17156.1 826.791 13
-5 -5 -10 5658.73 493.908 10
-5 -5 -10 5227.25 447.583 6
5 -5 10 5294.12 479.145 19
-5 -5 -10 5793.39 500.685 13
-5 -5 -9 8973.51 640.531 10
-5 -5 -9 10089.8 663.643 6
5 -5 9 9120.78 644.552 19
5 -5 9 9008.74 671.246 17
-5 -5 -9 9276.81 642.088 13
-5 -5 -8 14467.9 852.827 10
-5 -5 -8 13488.9 818.944 6
5 -5 8 13882.4 808.925 19
5 -5 8 15075.5 891.57 17
-5 -5 -8 14101 816.421 13
-5 -5 -7 47581 1695.39 6
-5 -5 -7 46111.6 1658.84 10
5 -5 7 44112.1 1654.75 17
-5 -5 -7 46094.8 1586.37 13
-5 -5 -6 18158.6 1042.76 6
5 -5 6 18089.9 1039.96 17
-5 -5 -6 16313.8 919.167 13
-5 -5 -6 20009.1 1063.82 15
-5 -5 -5 45666.4 1752.63 6
-5 -5 -5 45169.7 1839.54 20
5 -5 5 43076 1695.84 17
-5 -5 -5 42284 1556.55 13
-5 -5 -5 46715 1719.62 15
-5 -5 -4 2485.78 452.023 6
-5 -5 -4 2557.15 467.075 20
5 -5 4 2587.63 452.1 17
-5 -5 -4 2932.28 406.064 13
5 -5 4 3426.31 518.139 12
-5 -5 -4 2503.67 445.188 15
-5 -5 -3 487.839 266.045 6
-5 -5 -3 470.867 280.743 20
5 -5 3 325.884 279.644 17
-5 -5 -3 441.574 220.157 13
5 -5 3 727.13 321.335 12
-5 -5 -3 787.536 316.589 15
-5 -5 -2 11373.4 874.382 6
-5 -5 -2 11222.1 950.097 20
5 -5 2 9861.56 830.585 17
5 -5 2 11550.5 902.774 12
-5 -5 -2 11499.2 857.397 15
-5 -5 -1 17461.3 1083.22 6
-5 -5 -1 17768.1 1190.04 20
5 -5 1 16581.6 1094.78 17
5 -5 1 17678.7 1106.65 12
-5 -5 -1 17121.5 1060.67 15
-5 -5 0 32077.5 1482.83 6
-5 -5 0 33486.6 1666.01 20
5 -5 0 29860.9 1507.59 17
5 -5 0 34327.5 1585.54 12
-5 -5 0 33036.3 1523.2 15
5 -5 -1 17648.1 1198.49 11
-5 -5 1 16491.4 1028.32 6
-5 -5 1 16354.9 1181.97 20
5 -5 -1 14506.9 1040.57 17
5 -5 -1 17599.9 1116.3 12
-5 -5 1 17025.6 1075.49 15
5 -5 -2 10987.1 949.764 11
-5 -5 2 9967.07 784.224 6
-5 -5 2 10287.4 946.947 20
5 -5 -2 9431.85 840.554 17
5 -5 -2 10588.4 871.68 12
-5 -5 2 10869.4 864.052 15
5 -5 -3 612.242 339.373 11
-5 -5 3 496.998 239.174 6
-5 -5 3 167.368 308.863 20
5 -5 -3 869.352 285.92 12
-5 -5 3 398.15 290.859 15
5 -5 -4 2671.24 492.301 11
-5 -5 4 2476.69 396.292 6
-5 -5 4 2188.76 459.752 20
5 -5 -4 2883.61 467.565 12
-5 -5 4 2673.05 441.133 15
5 -5 -5 46814 1968.03 11
-5 -5 5 41820.2 1557.76 6
-5 -5 5 43723.4 1971.94 20
-5 -5 5 44611.1 1779.24 15
5 -5 -5 42930.4 1790.88 12
5 -5 -6 19524.1 1232.2 11
-5 -5 6 17369.4 912.057 6
-5 -5 6 18461.8 1252.55 20
-5 -5 6 16756.9 1044.49 15
5 -5 -6 16001.6 1054.32 12
5 -5 -7 43544.3 1871.79 11
-5 -5 7 42761.1 1436.38 6
-5 -5 7 42136.4 1909.55 20
-5 -5 7 43404.8 1699.72 15
5 -5 -7 43783.5 1749.55 12
5 -5 -8 12425.7 952.349 11
-5 -5 8 12719.2 1017.4 20
5 -5 -8 12091 869.7 12
-5 -5 8 13085.8 874.36 15
5 -5 -9 8642.66 778.271 11
-5 -5 9 9622.98 851.283 20
5 -5 -9 8748.24 707.554 12
-5 -5 9 7916.64 659.753 15
5 -5 -10 5170.38 590.346 11
-5 -5 10 5823.79 660.49 20
5 -5 -10 4780.56 508.169 12
-5 -5 10 5056.23 503.79 15
5 -5 -11 16079.9 974.952 11
-5 -5 11 18041.1 1097.95 20
5 -5 -11 15630.7 857.812 12
5 5 11 17426.9 785.094 18
-5 -5 11 17129.8 863.416 15
5 -5 -12 36971.5 1426.68 11
-5 -5 12 36754.2 1520.56 20
5 5 12 39334.9 1190.35 18
5 -5 -13 14841 794.926 11
-5 -5 13 14915.4 853.829 20
5 5 13 15977.4 673.638 18
5 -5 -14 5705.56 431.818 11
-5 -5 14 6204.21 489.86 20
5 5 14 5728.51 368.55 18
5 -6 13 4079.9 306.418 19
-5 -6 -12 1559.99 217.566 10
5 -6 12 1838.85 233.406 19
-5 -6 -12 1777.42 231.887 13
-5 -6 -11 9831.29 562.537 10
5 -6 11 9746.95 555.786 19
-5 -6 -11 9640.73 549.644 13
-5 -6 -10 3370.55 361.468 10
-5 -6 -10 3574.43 322.24 6
5 -6 10 3625.03 367.973 19
-5 -6 -10 3385.43 352.479 13
-5 -6 -9 3835.31 401.958 10
-5 -6 -9 4578.19 400.584 6
5 -6 9 3971.27 401.706 19
-5 -6 -9 4241.04 409.191 13
5 -6 9 4531.31 448.149 17
5 -6 9 3186.28 363.937 14
-5 -6 -8 1315.78 294.537 10
-5 -6 -8 1101.17 245.264 6
5 -6 8 1020.38 252.553 19
5 -6 8 1584.18 308.194 17
-5 -6 -8 1339.57 274.006 13
-5 -6 -7 30459 1249.76 10
-5 -6 -7 30784.7 1223.77 6
5 -6 7 26850.4 1119.56 19
-5 -6 -7 30040.4 1155.35 13
5 -6 7 30712.9 1257.15 17
-5 -6 -6 14304.2 845.479 6
-5 -6 -6 13194 821.27 10
5 -6 6 13284.6 834.316 17
-5 -6 -6 13053.9 750.36 13
-5 -6 -5 11388.6 784.802 10
-5 -6 -5 11351.4 779.49 6
-5 -6 -5 10874.5 809.764 20
5 -6 5 11247.3 780.866 17
-5 -6 -5 11614.4 710.959 13
-5 -6 -4 9458.62 724.343 10
-5 -6 -4 9443.22 732.766 6
-5 -6 -4 8496.6 729.367 20
5 -6 4 8980.19 713.617 17
-5 -6 -4 9542.83 644.74 13
-5 -6 -4 9809.4 715.672 15
-5 -6 -3 6477.69 627.547 6
-5 -6 -3 7086.16 684.014 20
5 -6 3 7228.72 660.075 17
-5 -6 -3 7004.5 553.315 13
-5 -6 -3 7565.33 632.016 15
-5 -6 -2 1486.75 318.217 6
-5 -6 -2 1995.14 425.081 20
5 -6 2 1221.26 332.744 17
-5 -6 -2 1549.99 295.523 13
-5 -6 -2 1594.15 328.488 15
-5 -6 -1 12505.8 860.18 6
-5 -6 -1 9999.34 844.848 20
5 -6 1 10697.6 828.957 17
-5 -6 -1 10433.8 683.995 13
5 -6 1 12719.8 861.518 12
-5 -6 -1 11709.4 802.581 15
-5 -6 0 181.961 243.062 6
-5 -6 0 76.9636 238.964 20
5 -6 0 108.967 254.751 17
-5 -6 0 309.713 178.474 13
5 -6 0 -51.9901 200.599 12
-5 -6 0 2.05881 196.316 15
5 -6 -1 12933.1 978.845 11
-5 -6 1 12053.2 822.502 6
-5 -6 1 11241.2 922.67 20
5 -6 -1 11057.3 855.806 17
-5 -6 1 10308.8 666.217 13
5 -6 -1 11939 839.722 12
-5 -6 1 11798.9 807.367 15
5 -6 -2 1652.65 415.173 11
-5 -6 2 1489.4 337.682 6
-5 -6 2 1947.66 410.279 20
5 -6 -2 1128.09 323.703 17
-5 -6 2 1287.23 245.582 13
5 -6 -2 1538.51 328.965 12
-5 -6 2 1540.26 324.454 15
5 -6 -3 8040.47 769.49 11
-5 -6 3 6897.83 597.572 6
-5 -6 3 6754 729.504 20
5 -6 -3 6117.05 637.046 17
5 -6 -3 6528.41 606.596 12
-5 -6 3 6723.1 607.178 15
5 -6 -4 10530.3 877.228 11
-5 -6 4 9023.09 669.618 6
-5 -6 4 9151.9 823.242 20
5 -6 -4 8224.13 740.469 17
5 -6 -4 10611.9 760.651 12
-5 -6 4 9412.81 703.962 15
5 -6 -5 11924.8 924.695 11
-5 -6 5 10770.4 700.403 6
-5 -6 5 11080.7 918.57 20
5 -6 -5 11160.7 771.777 12
-5 -6 5 11038.7 748.47 15
5 -6 -6 12827.9 950.33 11
-5 -6 6 11827.3 702.508 6
-5 -6 6 12415 959.88 20
5 -6 -6 12465.4 800.034 12
-5 -6 6 13389.6 802.548 15
5 -6 -7 31410.6 1493.46 11
-5 -6 7 28312.4 1449.85 20
5 -6 -7 28496.6 1199.27 12
-5 -6 7 30117.8 1193.24 15
5 -6 -8 1832.42 400.839 11
-5 -6 8 1600.55 393.417 20
-5 -6 8 1690.41 288.858 15
5 -6 -9 3584.14 484.351 11
-5 -6 9 2774.76 461.652 20
5 6 9 3652.04 335.095 18
5 -6 -10 3237.71 460.023 11
-5 -6 10 3611.6 491.962 20
5 6 10 3449.45 310.876 18
5 -6 -11 9163.18 673.712 11
-5 -6 11 8667.29 691.005 20
5 6 11 9472.99 479.483 18
5 -6 -12 1471.35 276.749 11
5 6 12 1884.13 208.223 18
-5 -6 12 2257.34 343.253 20
5 -6 -13 4023.69 364.963 11
-5 -6 13 4481.59 417.902 20
-5 -7 -10 2564.74 288.588 10
5 -7 10 2768.61 265.231 19
-5 -7 -10 2203.78 240.012 13
-5 -7 -9 3998.55 380.924 10
-5 -7 -9 4169.74 319.993 6
5 -7 9 4031.41 340.771 19
-5 -7 -9 3521.7 312.102 13
-5 -7 -8 45049.4 1419.56 10
-5 -7 -8 43807.9 1285.72 6
5 -7 8 42893.2 1277.02 19
-5 -7 -8 43024.1 1252.92 13
-5 -7 -7 20522.1 940.575 10
-5 -7 -7 20487.6 872.632 6
5 -7 7 19516.8 826.208 19
-5 -7 -7 18552.1 789.413 13
5 -7 7 20074.5 900.09 17
-5 -7 -6 45358.3 1521.79 10
-5 -7 -6 47974.7 1483.44 6
5 -7 6 42717.3 1353.21 19
-5 -7 -6 45865.5 1352.61 13
5 -7 6 44571.8 1472.89 17
-5 -7 -5 9418.7 654.511 10
-5 -7 -5 9721.41 654.847 6
5 -7 5 8586.27 564.168 19
-5 -7 -5 8970.33 552.451 13
5 -7 5 8823.27 625.67 17
-5 -7 -4 12388.3 762.68 6
-5 -7 -4 13282.1 799.983 10
-5 -7 -4 13177.2 674.11 13
5 -7 4 12656.6 770.102 17
-5 -7 -3 1536.17 300.519 10
-5 -7 -3 2044.67 350.559 6
-5 -7 -3 2015.62 363.331 20
5 -7 3 1795.39 329.464 17
-5 -7 -3 1585.14 249.268 13
-5 -7 -2 7740.98 614.767 10
-5 -7 -2 7421 607.286 6
-5 -7 -2 6153.62 582.877 20
-5 -7 -2 7117.35 488.552 13
5 -7 2 6043.13 562.135 17
-5 -7 -1 6122.96 542.421 10
-5 -7 -1 6484.29 576.736 6
-5 -7 -1 6191.29 607.378 20
5 -7 1 5689.94 550.272 17
-5 -7 -1 6703.06 526.443 15
-5 -7 0 7417.8 607.277 10
-5 -7 0 9442.06 685.724 6
-5 -7 0 8255.79 703.452 20
5 -7 0 7972.87 657.766 17
-5 -7 0 8993.4 605.299 15
-5 -7 1 5385.27 504.993 10
-5 -7 1 5738.52 533.025 6
-5 -7 1 5369.18 576.527 20
5 -7 -1 5658.81 553.957 17
-5 -7 1 5907.93 485.875 15
-5 -7 2 5774.62 511.506 10
-5 -7 2 6564.81 555.797 6
-5 -7 2 5935.78 610.886 20
5 -7 -2 5700.81 557.095 17
-5 -7 2 6540.45 504.845 15
5 -7 -3 2126.27 398.737 11
-5 -7 3 1642.1 279.513 10
-5 -7 3 1556.2 283.897 6
-5 -7 3 1655.68 365.378 20
5 -7 -3 1819.76 346.449 17
5 -7 -4 13347.9 907.671 11
-5 -7 4 12159.9 678.82 10
-5 -7 4 11649.6 702.407 6
-5 -7 4 12661.6 885.182 20
5 -7 -4 12389.7 821.628 17
5 -7 -5 10512.2 804.463 11
-5 -7 5 8544.49 570.871 6
-5 -7 5 8933.1 740.691 20
5 -7 -5 8011.8 656.877 17
5 -7 -6 47359.6 1729.04 11
-5 -7 6 44051.4 1336.19 6
-5 -7 6 43424.4 1684.29 20
5 -7 -6 43319.2 1575.87 17
5 -7 -7 20936.6 1094.16 11
-5 -7 7 19688.3 1063.57 20
5 -7 -7 19492.6 988.005 17
5 -7 -8 43901.5 1588.55 11
-5 -7 8 42904.7 1601.77 20
5 -7 -8 40322.1 1443.89 17
5 -7 -9 4208.32 461.018 11
-5 -7 9 3572.03 429.41 20
5 -7 -9 3038.65 360.627 17
5 -7 -10 3198 381.153 11
-5 -7 10 2506.97 352.617 20
5 -7 -10 2839.81 337.649 17
5 -7 -11 12453.8 665.218 11
-5 -7 11 11858.1 679.924 20
-5 -8 -8 47658.4 1315.17 10
-5 -8 -7 2792.57 302.99 10
-5 -8 -6 2705.01 289.616 6
-5 -8 -6 3079.94 331.498 10
5 -8 6 3767.16 328.353 17
-5 -8 -5 6382.35 487.754 10
-5 -8 -5 7078.04 476.541 6
5 -8 5 6455.79 387.418 19
5 -8 5 6604.76 452.67 17
-5 -8 -4 7877.82 544.417 10
-5 -8 -4 8116.1 530.165 6
5 -8 4 7014.05 419.701 19
5 -8 4 7544.03 500.588 17
-5 -8 -3 1102.01 229.582 10
-5 -8 -3 1284.24 250.816 6
5 -8 3 847.596 170.367 19
5 -8 3 1145.87 222.435 17
-5 -8 -2 13185.4 709.201 10
-5 -8 -2 14877.7 762.942 6
5 -8 2 12182.2 578.334 19
5 -8 2 13046.2 693.643 17
-5 -8 -1 878.576 211.388 10
-5 -8 -1 827.792 223.016 6
-5 -8 -1 1062.43 233.217 20
5 -8 1 723.007 210.088 17
-5 -8 0 2626.23 315.035 10
-5 -8 0 2467.74 323.264 6
-5 -8 0 2425.55 325.004 20
5 -8 0 2295.62 316.612 17
-5 -8 1 752.963 188.396 10
-5 -8 1 786.377 211.042 6
-5 -8 1 1132.71 249.486 20
5 -8 -1 856.324 228.408 17
-5 -8 2 11609.3 604.358 10
-5 -8 2 13099.9 696.286 6
-5 -8 2 12439.2 742.006 20
5 -8 -2 12786.1 712.215 17
-5 -8 3 1311.55 241.509 6
-5 -8 3 1385.27 276.162 20
5 -8 -3 1027.08 225.978 17
-5 -8 4 7721.09 494.945 6
-5 -8 4 8538.27 612.283 20
5 -8 -4 7467.21 532.936 17
-5 -8 5 6159.49 414.735 6
-5 -8 5 5782.74 503.703 20
5 -8 -5 6725.59 493.983 17
5 -8 -6 2795.47 363.236 11
-5 -8 6 2933.78 359.172 20
5 -8 -6 2609.67 317.701 17
5 -8 -7 3656.51 395.035 11
-5 -8 7 3137.65 357.657 20
5 -8 -7 3458.04 334.58 17
-5 -8 8 47050.9 1429.87 20
5 -8 -8 46280 1315.84 17
-5 -9 -2 5776.59 389.495 6
-5 -9 -1 39315.9 1150.04 6
-5 -9 0 9917.38 523.488 6
-5 -9 1 38823.8 1130.28 6
6 0 0 10230 682.343 12
-6 0 0 9895.64 644.381 15
6 0 1 9050.16 631.726 12
6 0 -1 9411.81 664.336 12
-6 0 -1 9366.1 606.176 15
-6 0 1 9079.81 625.768 15
6 0 2 17655.6 875.724 12
-6 0 -2 17260.3 819.654 15
6 0 -2 17580.7 941.81 12
-6 0 2 18026.5 900.798 15
-6 0 -3 18063.1 807.096 15
-6 0 3 18661.6 928.988 15
6 0 -3 17271.2 943.497 12
-6 0 -4 73784.2 1826.03 15
-6 0 4 73614.4 2057.42 15
6 0 -4 68058.4 2066.23 12
6 0 -5 847.498 265.59 12
-6 0 -5 1153.54 214.251 13
-6 0 5 1328.79 270.221 15
6 0 -6 96.154 169.659 12
-6 0 -6 249.882 148.638 13
-6 0 6 434.172 185.175 15
6 0 -7 951.988 252.281 12
-6 0 -7 890.753 170.947 13
-6 0 7 937.727 237.092 15
6 0 -8 5987.24 526.528 12
-6 0 -8 5631.67 344.025 13
-6 0 8 6238.15 509.06 15
6 0 -9 243.929 140.098 12
-6 0 9 263.422 165.413 15
6 0 -10 2401.32 301.684 12
-6 0 10 2037.44 272.099 15
6 1 -10 5314.69 405.187 12
-6 1 10 5620.46 407.974 15
-6 -1 -9 22715.3 838.785 6
6 1 -9 23339.4 948.861 12
-6 -1 -9 23124.5 743.36 13
-6 1 9 24419.8 935.481 15
-6 -1 -8 1912.86 264.514 6
6 1 -8 2167.7 309.561 12
-6 -1 -8 2345.96 250.102 13
-6 1 8 2270.48 310.03 15
6 -1 7 11117.3 515.255 19
-6 1 7 11773.5 668.628 15
6 1 -7 11017.1 682.48 12
6 -1 6 19840.7 750.017 19
-6 -1 -6 21129.3 823.351 13
-6 1 6 19961.9 902.907 15
6 1 -6 19257.5 932.425 12
6 -1 5 30014.6 989.32 19
-6 -1 -5 31302.7 1066.88 13
-6 1 5 32245.4 1182.83 15
6 1 -5 30379.5 1200.93 12
6 -1 4 4396.14 366.389 19
-6 -1 -4 5320.05 434.585 13
-6 -1 -4 5891.21 467.794 15
-6 1 4 5081.88 448.838 15
6 1 -4 5158.33 483.68 12
6 -1 3 23230.7 1022.22 12
-6 -1 -3 19924.3 892.192 15
6 1 -3 20050.3 949.49 12
-6 1 3 20459.6 919.1 15
6 -1 2 19399.3 952.461 12
-6 -1 -2 18069.1 864.977 15
6 1 -2 17401.8 873.643 12
-6 1 2 16231.4 808.285 15
6 -1 1 7112.96 598.018 12
6 1 -1 8366.77 589.485 12
-6 -1 -1 7555.28 568.742 15
-6 1 1 8863.75 575.557 15
6 1 0 14084 746.584 12
6 -1 0 14341 845.382 12
-6 1 0 14012.8 712.846 15
-6 -1 0 15374.4 832.754 15
6 1 1 7654.62 535.576 12
6 -1 -1 7404.91 612.674 12
-6 1 -1 7965.08 513.648 15
-6 -1 1 9066.06 645.923 15
-6 -1 2 15227.2 807.65 6
6 1 2 18139 807.29 12
-6 1 -2 16965.6 729.596 15
6 -1 -2 16743.7 934.996 12
-6 -1 2 18912.2 952.73 15
-6 -1 3 15865.8 785.389 6
6 -1 -3 17808.6 964.104 12
-6 1 -4 4367.89 362.296 13
-6 -1 4 5853.94 529.272 15
6 -1 -4 5695.53 554.274 12
-6 -1 5 33964.7 1292.31 15
6 -1 -5 32817.4 1327.85 12
-6 1 -6 18856.6 700.272 13
-6 -1 6 20394.5 980.227 15
6 -1 -6 20860.3 1022.86 12
-6 -1 7 12787.6 748.986 15
6 -1 -7 11273.9 735.172 12
6 -1 -8 2160.91 340.021 12
-6 -1 8 1940.83 298.016 15
6 -1 -9 24198.7 1037.26 12
-6 -1 9 24881.8 1010.77 15
6 -1 -10 5558.93 444.686 12
-6 -1 10 5464.95 431.02 15
6 -1 -11 3160.98 306.372 12
-6 -2 -9 1545.19 201.487 6
-6 -2 -9 1634.1 195.892 13
-6 -2 -8 12786.1 625.914 6
6 -2 8 13459 563.731 19
-6 -2 -8 13178.9 584.159 13
-6 -2 -7 1524.68 193.637 10
-6 -2 -7 1154.15 237.575 6
6 -2 7 1527.23 214.056 19
6 2 -7 1446.34 228.423 12
-6 -2 -7 1435.95 224.466 13
-6 2 7 1138.46 202.94 15
-6 -2 -6 3690.33 396.202 6
6 -2 6 3482.13 314.922 19
-6 -2 -6 3221.99 325.433 13
6 2 -6 3239.82 334.492 12
-6 2 6 2912.02 297.772 15
-6 -2 -5 26675 1095.2 6
6 -2 5 27860.7 964.9 19
-6 -2 -5 28405.5 1006.43 13
-6 2 5 28400.2 985.415 15
6 2 -5 25232.6 970.747 12
-6 -2 -4 2624.32 362.882 6
6 -2 4 2277.2 268.889 17
-6 -2 -4 2892.16 326.647 13
-6 -2 -4 3061.23 353.073 15
-6 2 4 2811.4 307.702 15
6 2 -4 2283.76 281.97 12
-6 -2 -3 7195.74 574.372 6
6 -2 3 7467.12 472.501 17
-6 -2 -3 7732.23 533.169 13
-6 -2 -3 8243.75 564.06 15
6 2 -3 7062.99 478.216 12
-6 -2 -2 15890.2 857.738 6
6 -2 2 16186.5 726.314 17
-6 -2 -2 17191.5 847.873 15
-6 -2 -1 8083.03 605.85 6
6 -2 1 6776.26 467.569 17
6 -2 1 9289.6 663.196 12
-6 -2 -1 8679.7 618.316 15
-6 -2 0 9732.91 653.466 6
6 -2 0 9458.65 547.852 17
6 -2 0 9587.41 688.371 12
-6 -2 0 10782.1 691.654 15
-6 -2 1 6654.66 520.745 6
6 -2 -1 6901.4 465.951 17
6 -2 -1 7205.03 606.722 12
-6 -2 1 7063 571.562 15
-6 -2 2 14621.3 770.437 6
6 -2 -2 15970 725.749 17
-6 -2 2 16749.8 890.507 15
-6 -2 3 6285.99 481.068 6
-6 -2 3 8711.46 614.849 20
6 -2 -3 7271.3 471.921 17
6 -2 -3 7496.6 620.42 12
-6 -2 3 8079.86 616.292 15
-6 -2 4 2690.18 356.887 20
6 -2 -4 3245.69 427.287 12
-6 -2 4 2738.67 386.12 15
-6 -2 5 29815 1117.88 20
-6 -2 5 26986.1 1141.82 15
6 -2 -5 28257.6 1214.79 12
-6 -2 6 3375.83 339.566 20
-6 -2 6 3237.92 395.575 15
6 -2 -6 2940.38 393.852 12
6 -2 -7 1167.44 263.09 12
-6 -2 7 1311.68 265.605 15
-6 -2 8 12005.1 684.16 15
6 -2 -8 12756.5 734.771 12
6 -2 -9 1449.89 252.913 12
-6 -2 9 1862.26 270.629 15
-6 -2 10 3822.23 339.008 15
6 -2 -10 3634.02 342.965 12
-6 -3 -9 3728.18 276.109 13
-6 -3 -8 12865.5 578.912 6
6 -3 8 12485.3 546.189 19
-6 -3 -8 13743.3 582.199 13
-6 -3 -7 24841.7 902.827 6
6 -3 7 24275.4 835.568 19
-6 -3 -7 23870.6 844.084 13
-6 -3 -6 2769.23 276.18 10
-6 -3 -6 3316.29 345.541 6
6 -3 6 3098.3 303.972 19
-6 -3 -6 2923.6 305.31 13
-6 -3 -5 32261.7 1159.57 6
6 -3 5 31492.5 1040.08 19
-6 -3 -5 33230.3 1082.91 13
-6 -3 -4 843.237 218.283 6
6 -3 4 758.07 197.72 17
-6 -3 -4 842.161 199 13
-6 -3 -3 5530.83 481.144 6
6 -3 3 6047.76 435.77 17
-6 -3 -3 6128.3 457.218 13
-6 -3 -3 7171.72 514.515 15
-6 -3 -2 1762.4 302.362 6
6 -3 2 1631.74 243.295 17
-6 -3 -2 2078.9 284.095 13
-6 -3 -2 2042.65 312.612 15
-6 -3 -1 2088.34 308.909 6
6 -3 1 2301.85 292.138 17
6 -3 1 2784.52 366.478 12
-6 -3 -1 2424.82 332.568 15
-6 -3 0 7457.41 549.449 6
6 -3 0 7422.93 505.958 17
6 -3 0 7962.9 604.544 12
-6 -3 0 8582.16 598.578 15
-6 -3 1 2649.28 331.738 6
-6 -3 1 2760.8 366.997 20
6 -3 -1 2242.55 284.499 17
6 -3 -1 2846.89 373.655 12
-6 -3 1 2457.85 339.137 15
-6 -3 2 1415.21 236.761 6
-6 -3 2 1427.87 291.008 20
6 -3 -2 1563.53 247.124 17
6 -3 -2 2073.31 331.999 12
-6 -3 2 1602.8 284.996 15
-6 -3 3 5753.6 432.512 6
-6 -3 3 6503.42 543.376 20
6 -3 -3 5823.35 443.593 17
6 -3 -3 6832.8 562.511 12
-6 -3 3 6503.43 528.82 15
-6 -3 4 867.049 219.134 20
6 -3 -4 797.845 185.459 17
6 -3 -4 1118.19 253.418 12
-6 -3 4 810.019 221.081 15
-6 -3 5 33289.8 1202.68 20
6 -3 -5 30535.7 1047.22 17
6 -3 -5 33787.1 1260.84 12
-6 -3 5 30866.1 1182.01 15
-6 -3 6 3405.09 356.015 20
6 -3 -6 3459.04 321.738 17
6 -3 -6 3240.08 381.944 12
-6 -3 6 3040.87 353.854 15
6 -3 -7 24047.4 994.606 12
-6 -3 7 22553.2 929.405 15
6 -3 -8 13228.4 689.192 12
-6 -3 8 12339 640.411 15
6 -3 -9 3904.21 347.379 12
-6 -3 9 3901.22 329.32 15
-6 -4 -7 6303.18 387.462 6
6 -4 7 6984.5 398.388 19
-6 -4 -7 7117.88 403.43 13
-6 -4 -6 3309.21 287.587 10
-6 -4 -6 2570.5 273.1 6
6 -4 6 2807 271.321 19
-6 -4 -6 2854.03 268.182 13
-6 -4 -5 4403.73 353.16 10
-6 -4 -5 4118.76 367.302 6
6 -4 5 4667.56 357.987 19
-6 -4 -5 4480.51 349.683 13
-6 -4 -4 4347.36 365.859 10
-6 -4 -4 4031.11 375.955 6
6 -4 4 4025.91 343.003 19
6 -4 4 4233.7 350.518 17
-6 -4 -4 4591.11 361.188 13
-6 -4 -3 4530.83 402.209 6
6 -4 3 4743.38 379.499 17
-6 -4 -3 4167.62 353.126 13
-6 -4 -2 4081.79 389.653 6
6 -4 2 4488.04 378.535 17
-6 -4 -2 4670.91 378.865 13
-6 -4 -2 4906.86 414.427 15
-6 -4 -1 9454 578.096 6
6 -4 1 9977.13 573.529 17
-6 -4 -1 8965.07 524.461 13
-6 -4 0 2059.4 281.571 6
6 -4 0 2188.26 282.71 17
-6 -4 0 2013.74 256.209 13
6 -4 0 1815.79 294.703 12
-6 -4 0 2151.8 302.317 15
-6 -4 1 9298.18 555.775 6
-6 -4 1 10374 668.424 20
6 -4 -1 9643.3 568.906 17
-6 -4 1 9501.93 531.7 13
6 -4 -1 10625.5 660.287 12
-6 -4 1 10337.1 620.024 15
-6 -4 2 4186.1 362.488 6
-6 -4 2 5370.65 478.295 20
6 -4 -2 5096.62 408.59 17
-6 -4 2 4189.61 349.122 13
6 -4 -2 4604.81 435.764 12
-6 -4 2 4942.1 420.587 15
-6 -4 3 3842.45 330.074 6
-6 -4 3 4569.36 438.959 20
6 -4 -3 3753.44 350.332 17
6 -4 -3 4482.09 421.127 12
-6 -4 3 4538.7 408.854 15
-6 -4 4 4537.28 429.213 20
6 -4 -4 4525.78 377.417 17
6 -4 -4 4439.53 412.207 12
-6 -4 4 4279.48 386.505 15
-6 -4 5 4290.03 407.75 20
6 -4 -5 4108.77 346.654 17
6 -4 -5 4752.59 406.996 12
-6 -4 5 5025.83 408.778 15
-6 -4 6 3349.61 340.48 20
6 -4 -6 3302.92 301.341 17
6 -4 -6 3405.12 334.449 12
-6 -4 6 2933.06 302.72 15
6 -4 -7 6501.95 436.803 12
-6 -4 7 6944.47 427.612 15
6 -5 5 8761.73 436.497 19
-6 -5 -4 3029.68 282.833 10
-6 -5 -4 3011.77 283.778 6
6 -5 4 2598.03 251.389 19
6 -5 4 3010.29 276.268 17
-6 -5 -4 3366.95 268.768 13
-6 -5 -3 874.434 173.336 10
-6 -5 -3 1307.6 199.814 6
6 -5 3 1125.19 180.913 19
6 -5 3 1361.74 197.842 17
-6 -5 -3 1279.55 178.275 13
-6 -5 -2 2440.89 266.944 6
-6 -5 -2 1791.75 233.5 10
-6 -5 -2 2148.35 230.154 13
6 -5 2 1813.7 230.279 17
-6 -5 -1 16459.1 699.9 6
-6 -5 -1 16083.4 701.044 10
6 -5 1 16200.2 690.934 17
-6 -5 -1 17185.8 637.399 13
-6 -5 0 3646.48 320.065 6
-6 -5 0 3352.56 316.135 10
6 -5 0 3470.8 327.306 17
-6 -5 0 3398.1 272.769 13
-6 -5 0 3868.27 334.96 15
-6 -5 1 15229.6 654.974 6
-6 -5 1 16705.3 710.627 10
6 -5 -1 17309.2 718.539 17
-6 -5 2 2110.46 251.809 10
-6 -5 2 1828.15 213.406 6
-6 -5 2 2022.9 283.324 20
6 -5 -2 1739.64 232.864 17
-6 -5 2 1846.05 234.578 15
-6 -5 3 1237.54 192.34 10
-6 -5 3 1297.74 227.233 20
6 -5 -3 1348.75 209.205 17
-6 -5 3 1187.51 190.025 15
-6 -5 4 3275.29 332.401 20
