#------------------------------------------------------------------------------
#$Date: 2024-02-04 13:34:59 +0200 (Sun, 04 Feb 2024) $
#$Revision: 289431 $
#$URL: file:///home/coder/svn-repositories/cod/cif/1/57/05/1570538.cif $
#------------------------------------------------------------------------------
#
# This file is available in the Crystallography Open Database (COD),
# http://www.crystallography.net/
#
# All data on this site have been placed in the public domain by the
# contributors.
#
data_1570538
loop_
_publ_author_name
'Hasebe, Shodai'
'Hagiwara, Yuki'
'Ueno, Takashi'
'Asahi, Toru'
'Koshima, Hideko'
_publ_section_title
;
 Negative to positive axial thermal expansion switching of an organic
 crystal: contribution to multistep photoactuation.
;
_journal_issue                   3
_journal_name_full               'Chemical science'
_journal_page_first              1088
_journal_page_last               1097
_journal_paper_doi               10.1039/d3sc04796b
_journal_volume                  15
_journal_year                    2024
_chemical_formula_moiety         'C21 H26 N2 O3'
_chemical_formula_sum            'C21 H26 N2 O3'
_chemical_formula_weight         354.44
_space_group_crystal_system      triclinic
_space_group_IT_number           2
_space_group_name_Hall           '-P 1'
_space_group_name_H-M_alt        'P -1'
_atom_sites_solution_hydrogens   geom
_atom_sites_solution_primary     dual
_audit_creation_date             2022-06-06
_audit_creation_method
;
Olex2 1.5
(compiled 2022.04.07 svn.rca3783a0 for OlexSys, GUI svn.r6498)
;
_audit_update_record
;
2023-08-31 deposited with the CCDC.	2023-12-11 downloaded from the CCDC.
;
_cell_angle_alpha                101.178(7)
_cell_angle_beta                 92.181(6)
_cell_angle_gamma                101.469(7)
_cell_formula_units_Z            2
_cell_length_a                   6.0399(7)
_cell_length_b                   10.3202(11)
_cell_length_c                   16.7772(18)
_cell_measurement_reflns_used    7707
_cell_measurement_temperature    296.75
_cell_measurement_theta_max      68
_cell_measurement_theta_min      4
_cell_volume                     1002.25(19)
_computing_molecular_graphics    'Olex2 1.5 (Dolomanov et al., 2009)'
_computing_publication_material  'Olex2 1.5 (Dolomanov et al., 2009)'
_computing_structure_refinement  'SHELXL 2014/6 (Sheldrick, 2015)'
_computing_structure_solution    'SHELXT 2014/4 (Sheldrick, 2014)'
_diffrn_ambient_temperature      296.75
_diffrn_detector_area_resol_mean 10
_diffrn_measured_fraction_theta_full 0.977
_diffrn_measured_fraction_theta_max 0.974
_diffrn_measurement_device_type  RAPID
_diffrn_measurement_method       '\w scans'
_diffrn_radiation_type           CuK\a
_diffrn_radiation_wavelength     1.54187
_diffrn_reflns_av_R_equivalents  0.0660
_diffrn_reflns_av_unetI/netI     0.0665
_diffrn_reflns_Laue_measured_fraction_full 0.977
_diffrn_reflns_Laue_measured_fraction_max 0.974
_diffrn_reflns_limit_h_max       7
_diffrn_reflns_limit_h_min       -7
_diffrn_reflns_limit_k_max       12
_diffrn_reflns_limit_k_min       -12
_diffrn_reflns_limit_l_max       20
_diffrn_reflns_limit_l_min       -20
_diffrn_reflns_number            11147
_diffrn_reflns_point_group_measured_fraction_full 0.977
_diffrn_reflns_point_group_measured_fraction_max 0.974
_diffrn_reflns_theta_full        67.687
_diffrn_reflns_theta_max         68.105
_diffrn_reflns_theta_min         4.467
_exptl_absorpt_coefficient_mu    0.631
_exptl_absorpt_correction_T_max  1
_exptl_absorpt_correction_T_min  0.6204
_exptl_absorpt_correction_type   multi-scan
_exptl_absorpt_process_details   ABSCOR(Rigaku,1995)
_exptl_crystal_colour            'clear yellowish yellow'
_exptl_crystal_colour_lustre     clear
_exptl_crystal_colour_modifier   yellowish
_exptl_crystal_colour_primary    yellow
_exptl_crystal_density_diffrn    1.174
_exptl_crystal_description       prism
_exptl_crystal_F_000             380
_exptl_crystal_size_max          1
_exptl_crystal_size_mid          0.6
_exptl_crystal_size_min          0.3
_refine_diff_density_max         0.139
_refine_diff_density_min         -0.233
_refine_diff_density_rms         0.050
_refine_ls_extinction_method     none
_refine_ls_goodness_of_fit_ref   1.149
_refine_ls_hydrogen_treatment    constr
_refine_ls_matrix_type           full
_refine_ls_number_parameters     273
_refine_ls_number_reflns         3581
_refine_ls_number_restraints     72
_refine_ls_restrained_S_all      1.152
_refine_ls_R_factor_all          0.1222
_refine_ls_R_factor_gt           0.0797
_refine_ls_shift/su_max          0.000
_refine_ls_shift/su_mean         0.000
_refine_ls_structure_factor_coef Fsqd
_refine_ls_weighting_details
'w=1/[\s^2^(Fo^2^)+(0.0650P)^2^+0.2154P] where P=(Fo^2^+2Fc^2^)/3'
_refine_ls_weighting_scheme      calc
_refine_ls_wR_factor_gt          0.1820
_refine_ls_wR_factor_ref         0.2019
_reflns_Friedel_coverage         0.000
_reflns_number_gt                2031
_reflns_number_total             3581
_reflns_threshold_expression     'I > 2\s(I)'
_cod_data_source_file            d3sc04796b3.cif
_cod_data_source_block           23point6degC
_cod_depositor_comments
'Adding full bibliography for 1570536--1570543.cif.'
_cod_database_code               1570538
_shelxl_version_number           2014/6
_shelx_space_group_comment
;
The symmetry employed for this shelxl refinement is uniquely defined
by the following loop, which should always be used as a source of
symmetry information in preference to the above space-group names.
They are only intended as comments.
;
_shelx_estimated_absorpt_t_max   1
_shelx_estimated_absorpt_t_min   0.624
_olex2_refinement_description
;
1. Fixed Uiso
 At 1.2 times of:
  All C(H) groups
 At 1.5 times of:
  All C(H,H,H) groups, All O(H) groups
2. Uiso/Uaniso restraints and constraints
C00I \\sim C00O \\sim C00P \\sim C00Q: within 2A with sigma of 0.04 and sigma
for terminal atoms of 0.08 within 2A
C00I \\sim C1 \\sim C00R \\sim C2: within 2A with sigma of 0.04 and sigma for
terminal atoms of 0.08 within 2A
3. Rigid body (RIGU) restrains
 C00I, C00P, C00O, C00Q
 with sigma for 1-2 distances of 0.004 and sigma for 1-3 distances of 0.004
 C00I, C1, C00R, C2
 with sigma for 1-2 distances of 0.004 and sigma for 1-3 distances of 0.004
4. Others
 Sof(C1)=Sof(H1A)=Sof(H1B)=Sof(H1C)=Sof(C2)=Sof(H2A)=Sof(H2B)=Sof(H2C)=
 Sof(C00R)=Sof(H00Y)=Sof(H)=Sof(HA)=1-FVAR(1)
 Sof(C00O)=Sof(H00P)=Sof(H00Q)=Sof(H00R)=Sof(C00P)=Sof(H00S)=Sof(H00T)=
 Sof(H00U)=Sof(C00Q)=Sof(H00V)=Sof(H00W)=Sof(H00X)=FVAR(1)
5.a Aromatic/amide H refined with riding coordinates:
 C009(H009), C00C(H00C), C00D(H00D), C00E(H00E), C00G(H00G), C00J(H00J),
 C00K(H00K)
5.b Idealised Me refined as rotating group:
 C00L(H00A,H00B,H00F), C00M(H00H,H00I,H00L), C00N(H00M,H00N,H00O), C00O(H00P,
 H00Q,H00R), C00P(H00S,H00T,H00U), C00Q(H00V,H00W,H00X), C1(H1A,H1B,H1C),
 C2(H2A,H2B,H2C), C00R(H00Y,H,HA)
5.c Idealised tetrahedral OH refined as rotating group:
 O001(H001)
;
_shelx_res_file
;
TITL shelxt_a_a.res in P-1
REM Old TITL SHELXT_a.res in P-1
REM SHELXT solution in P-1
REM R1 0.260, Rweak 0.087, Alpha 0.071, Orientation as input
REM Formula found by SHELXT: C23 O2 N
CELL 1.54187 6.0399 10.3202 16.7772 101.178 92.181 101.469
ZERR 2 0.0007 0.0011 0.0018 0.007 0.006 0.007
LATT 1
SFAC C H N O
UNIT 42 52 4 6
SIMU C00I C00O C00P C00Q
RIGU C00I C00P C00O C00Q
RIGU C00I C1 C00R C2
SIMU C00I C1 C00R C2

L.S. 10
PLAN  4
BOND $H
list 4
fmap 2
ACTA
OMIT -1 9 10
REM <olex2.extras>
REM <HklSrc "%.\\SHELXT_a.hkl">
REM </olex2.extras>

WGHT    0.065000    0.215400
FVAR       0.90843   0.79317
O001  4    0.352255    0.398179    0.316414    11.00000    0.08996    0.06682 =
         0.08254    0.03131    0.02922    0.01679
AFIX 147
H001  2    0.275941    0.442221    0.345556    11.00000   -1.50000
AFIX   0
N002  3    0.189564    0.606120    0.381196    11.00000    0.07199    0.06841 =
         0.06607    0.01740    0.01495    0.01253
N003  3    0.154398    0.986747    0.601223    11.00000    0.11339    0.07216 =
         0.07226    0.01831    0.00941    0.01711
O004  4    0.355786    1.029057    0.597680    11.00000    0.11892    0.09740 =
         0.11416   -0.00257    0.01837   -0.01908
O005  4    0.038510    1.044652    0.647784    11.00000    0.14547    0.09973 =
         0.10309   -0.00914    0.01509    0.03882
C006  1    0.461531    0.474318    0.266637    11.00000    0.06779    0.05741 =
         0.05962    0.02189    0.00573    0.00848
C007  1    0.443271    0.609582    0.274411    11.00000    0.06823    0.05728 =
         0.05699    0.01478    0.00839    0.01229
C008  1    0.691103    0.636735    0.166127    11.00000    0.07211    0.05516 =
         0.05914    0.01695    0.00809    0.01173
C009  1    0.306198    0.670446    0.333516    11.00000    0.07426    0.06164 =
         0.06494    0.01546    0.00729    0.01490
AFIX  43
H009  2    0.302561    0.761048    0.337086    11.00000   -1.20000
AFIX   0
C00A  1    0.595943    0.417503    0.209389    11.00000    0.06832    0.05785 =
         0.06158    0.01983    0.00528    0.01580
C00B  1    0.069769    0.675709    0.440089    11.00000    0.06715    0.06499 =
         0.05976    0.01893    0.01027    0.01238
C00C  1    0.559720    0.687608    0.224089    11.00000    0.07762    0.05208 =
         0.06481    0.01869    0.00832    0.01260
AFIX  43
H00C  2    0.547894    0.777405    0.230034    11.00000   -1.20000
AFIX   0
C00D  1    0.169940    0.798523    0.489586    11.00000    0.06775    0.06595 =
         0.06779    0.02328    0.00923    0.01036
AFIX  43
H00D  2    0.318599    0.839936    0.484297    11.00000   -1.20000
AFIX   0
C00E  1    0.704385    0.501150    0.160974    11.00000    0.07256    0.06168 =
         0.06029    0.01829    0.01130    0.01651
AFIX  43
H00E  2    0.792800    0.464598    0.122059    11.00000   -1.20000
AFIX   0
C00F  1    0.043448    0.857973    0.547025    11.00000    0.08052    0.06173 =
         0.05953    0.01807    0.00681    0.01433
C00G  1   -0.151546    0.616292    0.449998    11.00000    0.07693    0.07041 =
         0.06821    0.01633    0.00955    0.00703
AFIX  43
H00G  2   -0.218317    0.532766    0.417571    11.00000   -1.20000
AFIX   0
C00H  1    0.621633    0.270349    0.200277    11.00000    0.07583    0.05572 =
         0.07899    0.02412    0.00971    0.01478
C00I  1    0.817719    0.719249    0.109745    11.00000    0.08054    0.06195 =
         0.06651    0.02499    0.01691    0.01144
C00J  1   -0.176349    0.802290    0.556819    11.00000    0.08393    0.08147 =
         0.06715    0.02250    0.01815    0.02640
AFIX  43
H00J  2   -0.257662    0.845769    0.595614    11.00000   -1.20000
AFIX   0
C00K  1   -0.273421    0.679328    0.507152    11.00000    0.07239    0.08922 =
         0.07868    0.02183    0.01752    0.01270
AFIX  43
H00K  2   -0.422583    0.638823    0.512430    11.00000   -1.20000
AFIX   0
C00L  1    0.389916    0.173447    0.178590    11.00000    0.09853    0.05894 =
         0.11230    0.01662    0.00582    0.01122
AFIX 137
H00A  2    0.291907    0.192538    0.221086    11.00000   -1.50000
H00B  2    0.408704    0.081984    0.172958    11.00000   -1.50000
H00F  2    0.324175    0.185195    0.128158    11.00000   -1.50000
AFIX   0
C00M  1    0.729067    0.249651    0.280087    11.00000    0.10124    0.08205 =
         0.09935    0.03931    0.00068    0.02840
AFIX 137
H00H  2    0.874510    0.309826    0.293407    11.00000   -1.50000
H00I  2    0.747219    0.157950    0.273555    11.00000   -1.50000
H00L  2    0.632614    0.268240    0.323180    11.00000   -1.50000
AFIX   0
C00N  1    0.776449    0.233356    0.133279    11.00000    0.12655    0.07396 =
         0.11279    0.03490    0.04526    0.04884
AFIX 137
H00M  2    0.710365    0.240794    0.081841    11.00000   -1.50000
H00N  2    0.794212    0.142269    0.130669    11.00000   -1.50000
H00O  2    0.921944    0.293784    0.145273    11.00000   -1.50000
AFIX   0
PART 1
C00O  1    0.769299    0.859734    0.120867    21.00000    0.15272    0.07515 =
         0.12117    0.05117    0.05331    0.02873
AFIX 137
H00P  2    0.610033    0.853351    0.109591    21.00000   -1.50000
H00Q  2    0.852581    0.907699    0.084097    21.00000   -1.50000
H00R  2    0.814568    0.907270    0.175968    21.00000   -1.50000
AFIX   0
C00P  1    0.745845    0.647920    0.020868    21.00000    0.13371    0.09671 =
         0.07328    0.03707    0.01539    0.00634
AFIX 137
H00S  2    0.774924    0.558304    0.012022    21.00000   -1.50000
H00T  2    0.830633    0.697853   -0.014707    21.00000   -1.50000
H00U  2    0.586988    0.642952    0.009652    21.00000   -1.50000
AFIX   0
C00Q  1    1.070763    0.731230    0.125833    21.00000    0.08170    0.12747 =
         0.14318    0.07016    0.01876    0.00410
AFIX 137
H00V  2    1.117196    0.776183    0.181326    21.00000   -1.50000
H00W  2    1.150803    0.782421    0.089848    21.00000   -1.50000
H00X  2    1.104309    0.642663    0.116498    21.00000   -1.50000
AFIX   0
PART 2
C1    1    0.645195    0.776298    0.061711   -21.00000    0.09961    0.09568 =
         0.08792    0.04657    0.01330    0.00430
AFIX 137
H1A   2    0.536888    0.702696    0.028837   -21.00000   -1.50000
H1B   2    0.724967    0.830813    0.027286   -21.00000   -1.50000
H1C   2    0.567829    0.830404    0.099525   -21.00000   -1.50000
AFIX   0
C2    1    0.987695    0.851305    0.165882   -21.00000    0.09572    0.08024 =
         0.08954    0.03099    0.01465    0.00124
AFIX 137
H2A   2    0.899966    0.907860    0.197118   -21.00000   -1.50000
H2B   2    1.077303    0.901221    0.131394   -21.00000   -1.50000
H2C   2    1.085667    0.822408    0.202110   -21.00000   -1.50000
AFIX   0
C00R  1    0.963589    0.646062    0.053282   -21.00000    0.13309    0.09241 =
         0.10957    0.03635    0.05289    0.02668
AFIX 137
H00Y  2    1.078062    0.621295    0.085002   -21.00000   -1.50000
H     2    1.034433    0.704338    0.019190   -21.00000   -1.50000
HA    2    0.870711    0.566173    0.019871   -21.00000   -1.50000
AFIX   0
HKLF 4

REM  shelxt_a_a.res in P-1
REM R1 =  0.0797 for    2031 Fo > 4sig(Fo)  and  0.1222 for all    3581 data
REM    273 parameters refined using     72 restraints

END

WGHT      0.0650      0.2150

REM Highest difference peak  0.139,  deepest hole -0.233,  1-sigma level  0.050
Q1    1  -0.2723  0.6126  0.3784  11.00000  0.05    0.14
Q2    1   1.1135  0.2969  0.2929  11.00000  0.05    0.14
Q3    1   0.0657  0.5823  0.3163  11.00000  0.05    0.13
Q4    1  -0.2569  0.7184  0.3655  11.00000  0.05    0.13
;
_shelx_res_checksum              56631
_shelx_hkl_file
;
   0   0   2  238.80    8.55
   0   0   2  232.27    8.22
   0   0   2  238.09    7.97
   0   0   2  255.70    9.17
   0   0   2  238.95    8.55
   0   0  -2  252.74    9.22
   0   0  -2  230.81    8.17
   0   0  -2  245.33    8.42
   0   0  -2  262.61   10.18
   0   0  -2  231.73    9.13
   0   0   3 1440.41  104.43
   0   0   3 1529.88  112.79
   0   0   3 1525.77  110.15
   0   0   3 1560.50  116.71
   0   0   3 1457.56  108.76
   0   0  -3 1495.22  108.98
   0   0  -3 1450.94  110.34
   0   0  -3 1461.92  107.47
   0   0  -3 1528.56  117.03
   0   0  -3 1576.03  121.23
   0   0   4  411.97   18.39
   0   0   4  446.81   19.75
   0   0   4  414.28   20.76
   0   0   4  379.25   18.82
   0   0  -4  447.36   20.07
   0   0  -4  421.00   20.20
   0   0  -4  380.26   18.05
   0   0  -4  421.97   20.82
   0   0  -4  417.98   21.02
   0   0   5   13.64    1.19
   0   0   5   13.94    1.31
   0   0   5   13.76    2.08
   0   0   5   13.69    1.89
   0   0  -5   14.70    1.17
   0   0  -5   12.45    1.46
   0   0  -5   13.15    1.25
   0   0  -5   13.98    1.34
   0   0   6  155.52    6.61
   0   0   6  177.62    6.64
   0   0   6  175.12   10.63
   0   0   6  169.65    9.50
   0   0  -6  188.73    8.33
   0   0  -6  174.98    9.37
   0   0  -6  184.34    8.71
   0   0  -6  181.33    8.86
   0   0   7  170.02    6.55
   0   0   7  184.80    7.43
   0   0   7  177.21    9.55
   0   0   7  177.36    8.78
   0   0  -7  197.47    9.49
   0   0  -7  180.35    8.61
   0   0  -7  191.25    9.83
   0   0  -7  191.32   10.04
   0   0   8    3.13    0.77
   0   0   8    5.24    0.67
   0   0   8    6.32    1.30
   0   0   8    4.99    1.12
   0   0  -8    4.41    1.18
   0   0  -8    3.94    0.96
   0   0  -8    4.50    1.31
   0   0  -8    5.60    1.36
   0   0   9    3.96    1.13
   0   0   9    4.30    1.41
   0   0   9    4.35    1.22
   0   0  -9    4.48    2.02
   0   0  -9    3.90    1.04
   0   0  -9    5.29    2.39
   0   0  10    4.87    1.38
   0   0  10    5.75    1.72
   0   0  10    6.55    1.49
   0   0 -10    6.86    3.06
   0   0 -10    5.78    2.01
   0   0 -10    7.22    1.87
   0   0  11    3.46    1.80
   0   0 -11    5.89    1.90
   0   0 -11    5.09    1.94
   0   0  12    3.61    3.33
   0   0 -12    4.41    2.03
   0   0 -12    4.51    2.08
   0   0  13    6.69    2.66
   0   0 -13    8.45    2.60
   0   0 -13    7.60    2.70
   0   0  14    1.17    1.58
   0   0 -14    0.50    1.55
   0   0 -14   -0.35    1.62
   0   0  15   -0.27    1.53
   0   0 -15   -0.01    2.43
   0   0  16   -0.02    1.89
   0   0 -16    0.67    2.01
   0   0 -16    2.33    1.91
   0   0  17   17.83    7.72
   0   0 -17   28.25    5.06
   0   0 -17   27.37    5.03
   0   0  18   50.22    7.07
   0   0 -18   57.39    6.87
   0   0 -18   57.27    7.15
   0   0  19    0.54    1.43
   0   0 -19    1.15    2.31
   0   1 -20    2.09    1.86
   0  -1  20   -0.76    1.08
   0   1 -19   49.79    5.94
   0   1 -19   42.61    5.75
   0  -1  19   38.15    5.67
   0   1 -18    7.72    3.19
   0   1 -18    7.69    3.03
   0  -1  18    7.00    4.64
   0   1 -17   59.70    7.93
   0   1 -17   45.20   11.12
   0  -1  17   44.39    7.10
   0   1 -16    5.94    5.03
   0   1 -16    7.24    3.06
   0  -1  16    7.67    3.04
   0   1 -15    1.26    2.05
   0   1 -15    2.16    2.08
   0  -1  15    1.78    1.98
   0   1 -14   11.50    3.34
   0   1 -14   11.64    3.31
   0  -1  14   10.22    5.17
   0   1 -13   37.18    5.02
   0   1 -13   36.87    5.04
   0  -1  13   28.61    4.66
   0   1 -12    1.33    1.65
   0   1 -12    0.40    2.65
   0  -1  12    1.70    1.51
   0   1 -11    5.46    3.11
   0   1 -11    4.90    1.78
   0  -1  11    2.83    1.66
   0   1 -10    0.71    1.66
   0   1 -10    0.65    0.88
   0   1 -10    0.95    1.15
   0  -1  10    1.22    1.07
   0  -1  10   -0.16    1.12
   0  -1  10    1.39    1.61
   0   1  -9  177.16    9.84
   0   1  -9  181.13    9.12
   0   1  -9  149.48    7.66
   0   1  -9  185.43   10.73
   0  -1   9  143.87    6.63
   0  -1   9  172.45   13.23
   0  -1   9  162.03    9.78
   0  -1   9  168.01   11.66
   0   1  -8  110.70    4.98
   0   1  -8  109.67    5.90
   0   1  -8  110.72    5.44
   0   1  -8   95.13    4.65
   0   1  -8  114.15    6.49
   0  -1   8  102.02    3.70
   0  -1   8   90.32    3.66
   0  -1   8  103.12    6.19
   0  -1   8   93.29    5.85
   0  -1   8  101.31    5.42
   0   1  -7   38.73    2.98
   0   1  -7   44.57    2.73
   0   1  -7   42.42    2.42
   0   1  -7   36.68    1.96
   0   1  -7   39.13    4.53
   0  -1   7   39.19    1.51
   0  -1   7   44.84    2.32
   0  -1   7   40.34    2.87
   0  -1   7   34.74    2.81
   0  -1   7   37.20    2.46
   0   1  -6  469.07   22.81
   0   1  -6  443.04   22.72
   0   1  -6  461.50   22.57
   0   1  -6  399.82   19.61
   0   1  -6  406.37   21.54
   0  -1   6  402.59   18.17
   0  -1   6  454.78   20.18
   0  -1   6  423.01   22.57
   0  -1   6  382.84   21.19
   0  -1   6  393.68   20.40
   0   1  -5  309.92   14.72
   0   1  -5  308.85   13.81
   0   1  -5  307.19   13.22
   0   1  -5  283.18   11.92
   0   1  -5  294.69   13.58
   0  -1   5  264.23   10.54
   0  -1   5  294.83   12.15
   0  -1   5  310.96   16.73
   0  -1   5  277.06   13.48
   0  -1   5  276.84   12.54
   0   1  -4 2286.48  192.62
   0   1  -4 2074.92  181.62
   0   1  -4 1918.37  160.44
   0   1  -4 2162.74  184.14
   0  -1   4 1838.04  151.99
   0  -1   4 2219.51  181.26
   0  -1   4 2260.00  192.86
   0  -1   4 1993.48  172.92
   0  -1   4 1959.25  166.91
   0   1  -3 1109.31   69.30
   0   1  -3 1089.65   71.43
   0   1  -3 1064.14   66.84
   0   1  -3 1109.37   70.05
   0  -1   3 1102.06   67.51
   0  -1   3 1165.84   70.69
   0  -1   3 1219.50   77.34
   0  -1   3 1145.68   73.73
   0  -1   3 1122.85   73.55
   0   1  -2  660.11   33.50
   0   1  -2  601.72   30.15
   0   1  -2  689.11   33.64
   0   1  -2  751.53   37.80
   0   1  -2  692.05   34.31
   0  -1   2  766.24   37.05
   0  -1   2  708.28   35.07
   0  -1   2  711.23   37.64
   0  -1   2  711.49   35.43
   0   1  -1  703.74   33.48
   0   1  -1  681.26   30.93
   0   1  -1  632.16   30.02
   0   1  -1  631.21   30.57
   0  -1   1  639.09   29.38
   0  -1   1  627.16   29.48
   0  -1   1  610.79   29.13
   0  -1   1  610.75   28.85
   0   1   0 1122.63   64.14
   0   1   0 1068.49   61.09
   0   1   0 1141.74   66.63
   0   1   0 1093.81   64.55
   0  -1   0 1176.15   67.25
   0  -1   0 1187.69   68.28
   0  -1   0 1167.51   69.17
   0  -1   0 1111.15   64.44
   0   1   1  177.38    5.18
   0   1   1  173.42    5.86
   0   1   1  176.55    6.57
   0   1   1  172.00    5.56
   0  -1  -1  195.84    5.88
   0  -1  -1  167.28    4.45
   0  -1  -1  173.49    5.27
   0  -1  -1  185.24    5.90
   0  -1  -1  170.31    5.54
   0   1   2  970.93   58.57
   0   1   2 1026.27   61.89
   0   1   2 1078.11   67.21
   0   1   2 1059.76   67.74
   0  -1  -2  970.59   57.63
   0  -1  -2 1122.88   68.29
   0  -1  -2 1069.63   66.21
   0  -1  -2 1034.41   64.62
   0   1   3  946.16   54.58
   0   1   3  904.27   56.27
   0   1   3  864.04   51.33
   0   1   3  929.83   60.86
   0   1   3  970.76   59.43
   0  -1  -3  860.98   51.07
   0  -1  -3  911.28   54.97
   0  -1  -3  937.16   60.82
   0  -1  -3  912.00   56.90
   0   1   4  402.28   17.45
   0   1   4  412.01   19.08
   0   1   4  401.65   18.19
   0   1   4  385.93   21.74
   0   1   4  386.90   20.91
   0  -1  -4  400.11   18.52
   0  -1  -4  378.11   19.72
   0  -1  -4  437.62   21.39
   0  -1  -4  418.48   21.02
   0   1   5   71.88    2.43
   0   1   5   69.38    2.91
   0   1   5   71.02    2.79
   0   1   5   65.30    5.04
   0   1   5   68.32    3.37
   0  -1  -5   72.98    3.12
   0  -1  -5   75.31    3.50
   0  -1  -5   78.54    3.86
   0  -1  -5   74.57    3.89
   0   1   6   38.34    1.52
   0   1   6   37.58    2.54
   0   1   6   39.22    1.86
   0   1   6   34.82    4.04
   0   1   6   38.21    2.42
   0  -1  -6   38.74    2.20
   0  -1  -6   38.74    2.33
   0  -1  -6   38.77    4.11
   0  -1  -6   39.49    2.80
   0   1   7  247.19   14.57
   0   1   7  319.94   14.72
   0   1   7  356.21   16.68
   0   1   7  299.08   20.57
   0   1   7  352.19   18.40
   0  -1  -7  335.13   17.19
   0  -1  -7  327.71   17.29
   0  -1  -7  330.70   18.37
   0  -1  -7  350.65   19.64
   0   1   8    0.45    0.41
   0   1   8    1.22    0.54
   0   1   8    1.12    0.93
   0   1   8    0.38    1.64
   0   1   8    1.39    1.31
   0  -1  -8    0.94    1.24
   0  -1  -8    1.57    1.22
   0  -1  -8   -0.26    0.92
   0  -1  -8    1.99    1.01
   0   1   9   99.76    6.35
   0   1   9   88.05    9.50
   0   1   9   94.09    5.93
   0  -1  -9  110.66    9.44
   0  -1  -9   92.03    5.99
   0  -1  -9   87.54    6.47
   0  -1  -9   99.46    7.20
   0   1  10   37.06    2.61
   0   1  10   38.58    4.39
   0   1  10   40.64    3.49
   0  -1 -10   44.26    3.89
   0  -1 -10   35.10    3.34
   0  -1 -10   34.69    4.05
   0  -1 -10   38.39    4.19
   0   1  11   18.38    1.93
   0   1  11   20.57    3.38
   0  -1 -11   24.27    3.07
   0  -1 -11   18.78    2.70
   0  -1 -11   22.91    3.39
   0   1  12    2.23    1.88
   0  -1 -12    3.05    1.68
   0  -1 -12    1.86    3.02
   0   1  13    5.11    2.43
   0  -1 -13    5.34    2.23
   0  -1 -13    6.11    3.97
   0   1  14   -1.77    1.57
   0  -1 -14    1.31    2.38
   0  -1 -14    2.40    1.65
   0   1  15   10.95    5.35
   0  -1 -15    8.11    3.26
   0  -1 -15   10.56    3.37
   0   1  16   -3.57    4.25
   0  -1 -16    7.70    2.44
   0  -1 -16    2.49    2.63
   0   1  17    5.27    2.58
   0  -1 -17    4.26    2.36
   0  -1 -17    6.26    2.58
   0   1  18    3.84    2.45
   0  -1 -18   10.90    3.67
   0   1  19   -2.89    2.40
   0   1  19   -1.28    1.33
   0   2 -20   23.53    4.62
   0   2 -20    9.50    2.63
   0  -2  20    9.03    2.62
   0   2 -19   29.00    4.75
   0   2 -19   23.02    4.42
   0  -2  19   24.62    6.73
   0   2 -18    1.51    2.15
   0   2 -18    1.99    3.14
   0  -2  18    0.79    1.86
   0   2 -17   27.87    8.43
   0   2 -17   18.26    4.79
   0  -2  17   19.92    4.75
   0   2 -16    0.81    3.77
   0   2 -16    2.84    2.26
   0  -2  16    1.33    3.53
   0   2 -15    0.92    2.06
   0   2 -15    1.95    2.03
   0  -2  15    1.74    2.99
   0   2 -14   30.58    5.17
   0   2 -14   33.41    5.10
   0  -2  14   26.10    4.64
   0   2 -13    2.81    2.23
   0   2 -13    4.97    3.40
   0  -2  13    3.18    1.98
   0   2 -12  295.13   20.87
   0   2 -12  269.98   19.88
   0  -2  12  238.11   18.20
   0   2 -11   34.16    6.56
   0   2 -11   29.03    3.82
   0  -2  11   27.43    5.60
   0   2 -10   25.30    4.50
   0   2 -10   23.89    2.56
   0   2 -10   27.92    3.27
   0  -2  10   23.18    3.11
   0  -2  10   26.13    4.87
   0  -2  10   24.65    2.82
   0   2  -9   80.49    6.07
   0   2  -9   83.00    5.38
   0   2  -9   82.30    4.79
   0   2  -9   92.60    8.55
   0  -2   9   73.75    3.02
   0  -2   9   81.06    5.65
   0  -2   9   74.83    7.90
   0  -2   9   80.76    5.14
   0   2  -8  212.42   10.22
   0   2  -8  203.39   10.62
   0   2  -8  195.25    9.59
   0   2  -8  150.77    8.33
   0   2  -8  194.90   10.46
   0  -2   8  181.81    7.25
   0  -2   8  185.96   10.63
   0  -2   8  174.45   13.34
   0  -2   8  186.77    9.93
   0   2  -7   50.85    3.93
   0   2  -7   53.04    3.15
   0   2  -7   50.92    2.82
   0   2  -7   44.30    2.70
   0   2  -7   49.53    3.12
   0  -2   7   45.78    2.44
   0  -2   7   48.72    2.18
   0  -2   7   52.18    5.04
   0  -2   7   46.26    5.01
   0  -2   7   49.00    3.00
   0   2  -6  317.58   14.70
   0   2  -6  299.89   14.07
   0   2  -6  293.92   13.28
   0   2  -6  231.39   10.80
   0   2  -6  292.73   13.97
   0  -2   6  249.06   11.49
   0  -2   6  279.38   10.91
   0  -2   6  289.33   14.34
   0  -2   6  255.55   16.21
   0  -2   6  274.61   13.30
   0   2  -5 2637.99  260.38
   0   2  -5 2670.61  260.02
   0   2  -5 2615.52  252.58
   0   2  -5 2524.57  237.50
   0   2  -5 2705.14  267.69
   0  -2   5 2370.29  228.23
   0  -2   5 2911.49  274.46
   0  -2   5 2866.06  280.54
   0  -2   5 2563.25  254.84
   0  -2   5 2616.95  256.16
   0   2  -4 2898.58  274.61
   0   2  -4 2423.42  230.54
   0   2  -4 2382.51  225.03
   0   2  -4 2571.11  239.76
   0   2  -4 2823.24  270.83
   0   2  -4 2673.35  253.52
   0  -2   4 2484.39  231.39
   0  -2   4 2759.15  257.93
   0  -2   4 2599.95  251.61
   0  -2   4 2558.97  244.11
   0   2  -3 4490.81  532.19
   0   2  -3 3499.54  423.52
   0   2  -3 3919.24  462.31
   0   2  -3 3983.17  466.50
   0   2  -3 4903.95  586.39
   0   2  -3 4786.22  573.49
   0  -2   3 4336.18  510.75
   0  -2   3 4445.85  523.72
   0  -2   3 4521.92  543.46
   0  -2   3 4752.26  566.30
   0   2  -2  360.64   15.19
   0   2  -2  297.49   12.99
   0   2  -2  323.05   12.41
   0   2  -2  339.33   14.93
   0   2  -2  328.55   14.03
   0  -2   2  355.70   14.47
   0  -2   2  351.08   14.46
   0  -2   2  333.48   14.81
   0  -2   2  322.31   14.11
   0   2  -1   13.32    1.29
   0   2  -1   14.03    0.65
   0   2  -1   13.34    0.98
   0   2  -1   12.30    0.85
   0  -2   1   13.84    1.31
   0  -2   1   14.12    0.86
   0  -2   1   13.91    1.01
   0  -2   1   12.92    0.90
   0   2   0 1287.30   83.26
   0   2   0 1258.98   81.13
   0   2   0 1333.16   88.47
   0   2   0 1242.75   82.11
   0  -2   0 1370.99   88.54
   0  -2   0 1310.49   86.85
   0  -2   0 1269.81   83.59
   0   2   1 1771.96  135.09
   0   2   1 1823.78  137.32
   0   2   1 1791.44  142.25
   0   2   1 1695.95  130.45
   0   2   1 1760.04  135.58
   0  -2  -1 1669.65  128.86
   0  -2  -1 1820.04  136.90
   0  -2  -1 1861.21  146.87
   0   2   2   22.11    1.56
   0   2   2   21.83    1.19
   0   2   2   20.93    1.44
   0   2   2   22.01    1.38
   0  -2  -2   22.76    1.21
   0  -2  -2   21.81    0.67
   0  -2  -2   22.01    1.78
   0  -2  -2   22.24    1.45
   0  -2  -2   19.98    1.39
   0   2   3  331.60   13.81
   0   2   3  316.87   15.80
   0   2   3  329.88   18.21
   0   2   3  329.80   17.53
   0  -2  -3  361.89   15.62
   0  -2  -3  354.56   15.98
   0  -2  -3  337.46   15.91
   0  -2  -3  318.82   15.47
   0   2   4   26.43    1.15
   0   2   4   25.80    1.62
   0   2   4   28.19    2.30
   0   2   4   26.18    1.98
   0   2   4   28.16    1.80
   0  -2  -4   23.25    1.62
   0  -2  -4   28.04    1.68
   0  -2  -4   28.34    1.86
   0  -2  -4   27.02    1.88
   0   2   5   84.04    3.18
   0   2   5   94.28    4.40
   0   2   5   96.06    5.46
   0   2   5   90.59    5.09
   0   2   5   99.48    6.65
   0  -2  -5   99.75    5.57
   0  -2  -5   88.75    4.25
   0  -2  -5   95.03    4.95
   0  -2  -5   90.11    6.82
   0   2   6    3.92    0.49
   0   2   6    4.19    1.29
   0   2   6    5.24    1.42
   0   2   6    4.16    1.22
   0   2   6    5.20    1.03
   0  -2  -6    5.88    1.48
   0  -2  -6    6.14    1.89
   0  -2  -6    4.94    1.17
   0  -2  -6    4.92    1.93
   0   2   7    1.83    0.68
   0   2   7    2.75    0.73
   0   2   7    3.59    0.83
   0   2   7    3.49    1.22
   0   2   7    3.62    1.01
   0  -2  -7    3.78    0.92
   0  -2  -7    3.15    1.09
   0  -2  -7    3.01    1.15
   0  -2  -7    1.79    1.96
   0   2   8   21.60    1.83
   0   2   8   18.78    2.68
   0   2   8   21.42    2.29
   0  -2  -8   21.31    2.16
   0  -2  -8   21.93    2.35
   0  -2  -8   19.70    3.89
   0  -2  -8   19.70    4.14
   0   2   9  415.20   23.29
   0   2   9  360.20   25.21
   0   2   9  388.03   28.19
   0  -2  -9  389.02   24.24
   0  -2  -9  370.98   27.76
   0  -2  -9  347.95   23.80
   0  -2  -9  379.14   30.87
   0   2  10    5.45    1.21
   0   2  10    4.59    1.96
   0  -2 -10    5.47    1.64
   0  -2 -10    6.28    1.76
   0  -2 -10    4.06    3.23
   0   2  11   26.56    2.66
   0   2  11   29.15    4.06
   0  -2 -11   29.56    3.46
   0  -2 -11   26.56    4.11
   0   2  12    7.48    4.41
   0  -2 -12    9.23    3.71
   0  -2 -12    8.34    2.75
   0   2  13   26.88    7.66
   0  -2 -13   30.44    7.22
   0  -2 -13   29.31    4.90
   0   2  14   79.85    9.44
   0  -2 -14   82.78    8.68
   0  -2 -14   89.03    9.72
   0   2  15   36.10    5.87
   0  -2 -15   38.47    5.97
   0   2  16   26.11    4.79
   0   2  17   12.79    3.27
   0   2  17   11.98    2.90
   0   2  18    5.77    3.24
   0   2  18    5.81    3.32
   0   2  18    4.06    1.79
   0   3 -20   15.15    4.68
   0   3 -20    7.45    2.53
   0  -3  20   17.57    4.17
   0   3 -19    4.21    2.23
   0   3 -19    0.10    3.33
   0  -3  19    2.58    1.94
   0   3 -18    1.04    1.82
   0   3 -18   -0.42    1.61
   0  -3  18    0.71    1.57
   0   3 -17   -3.07    3.81
   0   3 -17   -0.94    2.07
   0  -3  17   -1.44    3.32
   0   3 -16   15.36    6.03
   0   3 -16   13.56    3.84
   0  -3  16    9.72    3.43
   0   3 -15    2.24    2.29
   0   3 -15    3.70    3.73
   0  -3  15    2.06    2.03
   0   3 -14    7.84    3.00
   0   3 -14    5.77    4.66
   0  -3  14    8.20    2.70
   0   3 -13   24.26    4.36
   0   3 -13   26.28    4.15
   0  -3  13   21.36    3.92
   0   3 -12   41.45    5.08
   0   3 -12   41.62    4.92
   0  -3  12   33.70    7.27
   0   3 -11   58.87    8.73
   0   3 -11   53.76    5.34
   0  -3  11   45.24    5.02
   0   3 -10  491.86   37.59
   0   3 -10  477.19   34.50
   0   3 -10  511.66   39.04
   0  -3  10  508.66   34.95
   0  -3  10  472.98   33.18
   0  -3  10  479.80   36.63
   0   3  -9    2.38    1.87
   0   3  -9    2.64    1.28
   0   3  -9    3.49    1.66
   0   3  -9    2.65    1.26
   0  -3   9    2.40    0.60
   0  -3   9    4.30    1.34
   0  -3   9    1.76    1.34
   0  -3   9    2.93    1.96
   0   3  -8  249.21   13.37
   0   3  -8  236.27   13.09
   0   3  -8  219.75   11.59
   0   3  -8  248.70   13.48
   0  -3   8  228.90   10.18
   0  -3   8  236.21   13.60
   0  -3   8  213.85   12.98
   0  -3   8  220.81   15.31
   0   3  -7   59.18    3.61
   0   3  -7   52.91    3.33
   0   3  -7   48.96    2.91
   0   3  -7   55.35    5.02
   0  -3   7   51.77    2.32
   0  -3   7   50.51    1.96
   0  -3   7   56.45    3.73
   0  -3   7   48.98    3.69
   0  -3   7   57.30    5.25
   0   3  -6   20.27    1.69
   0   3  -6   18.45    1.63
   0   3  -6   15.96    1.40
   0   3  -6   17.30    0.90
   0   3  -6   23.16    1.71
   0  -3   6   18.37    1.22
   0  -3   6   20.98    1.05
   0  -3   6   20.94    1.97
   0  -3   6   18.05    2.00
   0  -3   6   22.33    1.91
   0   3  -5  400.27   19.91
   0   3  -5  338.06   16.40
   0   3  -5  305.99   14.79
   0   3  -5  397.17   20.22
   0   3  -5  368.25   17.94
   0  -3   5  353.35   16.30
   0  -3   5  365.77   16.43
   0  -3   5  346.91   21.34
   0  -3   5  369.39   18.62
   0   3  -4    2.51    1.15
   0   3  -4    2.63    0.49
   0   3  -4    4.07    0.90
   0   3  -4    5.17    1.22
   0  -3   4    2.83    0.60
   0  -3   4    2.98    0.57
   0  -3   4    2.54    0.85
   0  -3   4    3.44    0.80
   0   3  -3  553.42   28.44
   0   3  -3  441.98   21.71
   0   3  -3  471.36   23.41
   0   3  -3  574.09   30.04
   0   3  -3  528.83   27.07
   0  -3   3  544.32   29.06
   0  -3   3  532.77   26.77
   0  -3   3  535.52   28.70
   0  -3   3  553.18   31.67
   0   3  -2  306.06   13.38
   0   3  -2  267.97    9.91
   0   3  -2  301.14   11.93
   0   3  -2  287.42   13.15
   0   3  -2  306.81   15.36
   0  -3   2  304.87   14.62
   0  -3   2  320.63   15.60
   0  -3   2  273.22   12.51
   0   3  -1 1308.55   96.05
   0   3  -1 1344.29   86.24
   0   3  -1 1173.84   76.76
   0   3  -1 1741.76  124.46
   0   3  -1 1322.91   95.40
   0  -3   1 1463.76  103.62
   0  -3   1 1446.34  103.93
   0  -3   1 1586.36  114.16
   0  -3   1 1583.99  113.18
   0   3   0  941.34   56.44
   0   3   0  906.16   56.08
   0  -3   0  969.44   58.17
   0  -3   0  934.26   58.33
   0   3   1   49.73    2.05
   0   3   1   46.16    2.05
   0   3   1   50.43    2.65
   0   3   1   47.38    3.37
   0   3   1   47.27    2.38
   0  -3  -1   59.07    3.62
   0  -3  -1   51.05    3.73
   0   3   2   48.38    2.08
   0   3   2   50.94    2.33
   0   3   2   51.53    4.17
   0   3   2   47.70    2.49
   0   3   2   48.81    2.59
   0  -3  -2   56.53    2.54
   0  -3  -2   50.20    3.26
   0  -3  -2   54.03    2.79
   0   3   3 1549.01  122.60
   0   3   3 1587.64  128.75
   0   3   3 1667.73  139.37
   0   3   3 1579.98  130.86
   0   3   3 1756.64  144.63
   0  -3  -3 1715.53  127.76
   0  -3  -3 1841.25  149.62
   0  -3  -3 1689.94  144.11
   0   3   4  263.25   11.87
   0   3   4  287.05   14.85
   0   3   4  287.96   13.67
   0   3   4  283.63   15.40
   0   3   4  302.00   15.26
   0  -3  -4  267.76   12.04
   0  -3  -4  299.02   14.81
   0  -3  -4  297.40   15.48
   0   3   5   78.27    3.37
   0   3   5   81.98    6.04
   0   3   5   90.25    4.37
   0   3   5   85.42    5.38
   0   3   5   94.75    5.11
   0  -3  -5   79.63    3.35
   0  -3  -5   85.92    4.68
   0  -3  -5   89.64    7.01
   0  -3  -5   86.96    5.25
   0   3   6    2.53    0.54
   0   3   6    3.04    0.97
   0   3   6    4.95    0.95
   0   3   6    3.31    1.24
   0   3   6    3.60    1.84
   0  -3  -6    3.29    0.72
   0  -3  -6    6.50    2.12
   0  -3  -6    3.81    1.16
   0  -3  -6    3.49    1.21
   0   3   7   77.03    6.89
   0   3   7  104.19    5.37
   0   3   7   87.95    6.51
   0   3   7   93.90    5.78
   0  -3  -7   85.43    4.57
   0  -3  -7  105.13    6.65
   0  -3  -7   94.16    6.35
   0  -3  -7   95.76    6.61
   0   3   8  173.63    9.23
   0   3   8  146.34   10.75
   0   3   8  155.20    9.55
   0  -3  -8  140.34   10.22
   0  -3  -8  166.18   10.61
   0  -3  -8  148.31   10.34
   0  -3  -8  154.46   10.85
   0   3   9   75.68    5.12
   0   3   9   65.47    6.33
   0  -3  -9   76.70    6.12
   0  -3  -9   68.04    6.47
   0   3  10    4.90    1.43
   0   3  10    5.33    2.13
   0  -3 -10    6.75    2.10
   0   3  11   42.64    5.91
   0  -3 -11   47.16    5.87
   0   3  12   24.89    4.77
   0  -3 -12   26.73    4.04
   0  -3 -12   26.90    4.63
   0   3  13    3.02    2.56
   0  -3 -13    5.59    1.97
   0   3  14    1.28    1.93
   0   3  15    0.78    1.80
   0   3  15    1.00    1.55
   0   3  16    1.84    2.60
   0   3  16    0.51    1.39
   0   3  17    1.47    1.41
   0   3  17    0.53    1.22
   0   3  18    3.90    1.58
   0   4 -20   -0.75    2.41
   0  -4  20   -1.01    1.26
   0   4 -19    2.42    1.94
   0   4 -19    1.39    2.84
   0  -4  19    1.30    1.64
   0   4 -18    2.95    2.70
   0   4 -18    5.73    2.39
   0  -4  18    3.38    2.32
   0   4 -17   36.95    6.44
   0   4 -17   36.75    5.75
   0  -4  17   28.33    8.10
   0   4 -16   24.91    7.46
   0   4 -16   23.73    4.88
   0  -4  16   21.35    4.39
   0   4 -15   35.70    5.60
   0   4 -15   34.21    8.72
   0  -4  15   29.56    5.08
   0   4 -14   -0.65    1.65
   0   4 -14   -1.62    1.58
   0  -4  14    0.63    1.50
   0   4 -13    6.80    2.72
   0   4 -13    8.07    2.69
   0  -4  13    5.98    4.07
   0   4 -12   16.60    3.35
   0   4 -12   18.08    3.27
   0  -4  12   13.98    3.12
   0   4 -11    2.73    1.85
   0   4 -11    6.04    2.74
   0  -4  11    3.54    1.81
   0   4 -10   80.08    8.65
   0   4 -10   96.36   10.69
   0   4 -10   88.32    6.77
   0   4 -10   85.18    6.36
   0  -4  10   72.73    4.24
   0  -4  10   81.87    9.75
   0  -4  10   84.20    6.65
   0   4  -9   32.52    3.31
   0   4  -9   26.99    4.57
   0   4  -9   32.37    5.11
   0   4  -9   34.61    3.25
   0  -4   9   31.02    3.17
   0  -4   9   28.94    3.34
   0  -4   9   28.95    5.49
   0  -4   9   30.90    3.34
   0   4  -8  481.09   29.31
   0   4  -8  368.39   26.41
   0   4  -8  433.49   30.77
   0   4  -8  441.93   26.64
   0  -4   8  432.68   26.01
   0  -4   8  419.02   26.68
   0  -4   8  369.30   29.18
   0  -4   8  416.30   25.98
   0   4  -7   34.13    2.81
   0   4  -7   30.56    2.46
   0   4  -7   36.73    4.17
   0   4  -7   34.05    2.61
   0  -4   7   33.82    3.02
   0  -4   7   35.09    3.16
   0  -4   7   32.13    3.07
   0  -4   7   34.91    2.91
   0   4  -6  124.28    6.59
   0   4  -6   97.88    5.07
   0   4  -6  119.98    7.67
   0   4  -6  113.24    5.66
   0  -4   6  106.64    6.47
   0  -4   6  111.66    4.78
   0  -4   6  110.55    6.44
   0  -4   6  112.65    6.11
   0   4  -5   14.83    1.73
   0   4  -5   11.00    1.07
   0   4  -5   13.42    1.87
   0   4  -5   14.72    1.74
   0   4  -5   14.21    1.38
   0  -4   5   14.27    2.06
   0  -4   5   12.23    1.76
   0  -4   5   12.05    1.70
   0  -4   5   12.33    2.63
   0   4  -4   51.91    3.07
   0   4  -4   44.64    2.70
   0   4  -4   55.71    2.35
   0   4  -4   57.41    4.98
   0   4  -4   53.74    2.85
   0  -4   4   56.61    2.83
   0  -4   4   56.62    4.03
   0  -4   4   52.92    4.86
   0  -4   4   55.71    3.19
   0   4  -3  104.85    4.95
   0   4  -3  103.62    4.35
   0   4  -3   92.81    3.27
   0   4  -3  107.46    5.27
   0   4  -3   97.73    4.40
   0  -4   3  106.70    4.67
   0  -4   3  100.09    4.67
   0  -4   3  102.33    5.43
   0  -4   3  100.56    4.88
   0   4  -2   16.14    1.53
   0   4  -2   16.37    1.69
   0  -4   2   16.64    1.44
   0  -4   2   19.64    2.11
   0   4  -1  877.79   56.62
   0   4  -1  791.50   49.64
   0   4  -1  769.58   46.95
   0  -4   1  798.15   48.07
   0  -4   1  842.53   51.34
   0  -4   1  779.35   49.17
   0  -4   1  784.77   48.28
   0   4   0    4.30    1.31
   0   4   0    2.48    1.02
   0  -4   0    3.93    1.40
   0  -4   0    4.98    1.02
   0   4   1 1532.44  121.46
   0   4   1 1628.03  139.18
   0   4   1 1538.70  125.28
   0   4   1 1551.20  126.68
   0  -4  -1 1880.48  149.79
   0  -4  -1 1639.77  134.51
   0   4   2  136.70    6.26
   0   4   2  141.63    8.17
   0   4   2  133.53    9.36
   0   4   2  144.60    7.62
   0  -4  -2  155.88    7.88
   0  -4  -2  148.30    8.26
   0   4   3    6.87    0.88
   0   4   3    6.92    1.16
   0   4   3    5.82    1.47
   0   4   3    5.68    1.19
   0   4   3    7.18    1.26
   0  -4  -3    7.12    1.28
   0  -4  -3    6.01    2.12
   0   4   4  195.75    9.46
   0   4   4  233.53   12.94
   0   4   4  214.19   10.89
   0   4   4  226.89   16.12
   0   4   4  210.13   11.64
   0   4   4  241.85   12.52
   0  -4  -4  239.18   12.43
   0  -4  -4  237.19   12.72
   0   4   5    1.05    0.56
   0   4   5    1.15    0.94
   0   4   5    0.86    0.86
   0   4   5    1.61    1.76
   0   4   5    1.73    0.94
   0   4   5    1.71    0.91
   0  -4  -5    1.56    0.97
   0  -4  -5    1.32    0.99
   0   4   6   54.26    3.03
   0   4   6   62.39    4.69
   0   4   6   68.28    4.24
   0   4   6   64.55    5.31
   0   4   6   62.69    4.75
   0   4   6   76.10    6.83
   0  -4  -6   84.15    8.18
   0  -4  -6   66.70    7.26
   0   4   7   18.24    2.09
   0   4   7   17.39    2.69
   0   4   7   14.84    2.46
   0   4   7   15.48    2.16
   0  -4  -7   21.78    2.82
   0  -4  -7   16.01    2.62
   0   4   8    2.66    1.68
   0   4   8    3.21    1.50
   0   4   9   30.82    4.34
   0   4   9   26.47    3.96
   0   4  10  131.24   11.97
   0   4  10  115.13   10.87
   0   4  11   63.38    8.04
   0   4  11   53.47    7.28
   0  -4 -11   87.26    7.90
   0   4  12   31.85    5.42
   0   4  12   26.68    4.88
   0  -4 -12   41.39    4.84
   0   4  13   17.88    6.44
   0   4  13   13.60    3.56
   0  -4 -13   22.44    3.42
   0   4  14   -5.52    3.93
   0  -4 -14    7.15    2.79
   0   4  15    2.53    1.75
   0   4  15    0.82    1.49
   0   4  16    0.45    1.30
   0   4  16    0.88    1.80
   0   4  17   -0.31    1.02
   0   5 -19    0.74    1.50
   0   5 -19    0.85    1.37
   0  -5  19    0.24    1.35
   0   5 -18    1.77    2.20
   0   5 -18    3.09    2.02
   0  -5  18    2.57    3.19
   0   5 -17   10.74    3.58
   0   5 -17   12.08    3.35
   0  -5  17   10.23    3.10
   0   5 -16   29.15    9.11
   0   5 -16   35.00    8.49
   0  -5  16   26.67    5.09
   0   5 -15   24.10    7.08
   0   5 -15   24.22    4.51
   0  -5  15   19.72    4.28
   0   5 -14    6.63    2.80
   0   5 -14    7.54    2.79
   0  -5  14    6.94    4.33
   0   5 -13    6.17    2.63
   0   5 -13    7.23    2.68
   0  -5  13    7.88    2.59
   0   5 -12   -0.88    1.18
   0   5 -12    0.49    2.04
   0  -5  12    0.82    1.21
   0   5 -11    0.89    1.18
   0   5 -11   -1.41    1.14
   0  -5  11    1.33    1.21
   0   5 -10   53.20    5.14
   0   5 -10   49.90    4.91
   0   5 -10   54.10    4.78
   0  -5  10   42.68    3.32
   0  -5  10   52.60    7.68
   0   5  -9   64.45    5.60
   0   5  -9   55.29    4.88
   0   5  -9   54.07    4.64
   0   5  -9   60.52    4.85
   0  -5   9   56.83    3.71
   0  -5   9   56.95    5.19
   0  -5   9   58.58    7.54
   0   5  -8    8.04    2.86
   0   5  -8    7.51    1.65
   0   5  -8    7.94    1.52
   0   5  -8    7.95    2.63
   0  -5   8    7.83    1.34
   0  -5   8    8.14    1.98
   0  -5   8    8.36    3.18
   0   5  -7   10.15    1.89
   0   5  -7   10.56    1.50
   0   5  -7    8.48    1.40
   0   5  -7    9.66    1.61
   0  -5   7    9.10    1.38
   0  -5   7    9.44    1.96
   0  -5   7   10.87    1.91
   0   5  -6    5.32    1.49
   0   5  -6    4.52    0.97
   0   5  -6    3.94    0.91
   0   5  -6    6.06    1.49
   0   5  -6    5.11    1.15
   0  -5   6    6.21    1.10
   0  -5   6    4.36    0.91
   0  -5   6    4.92    2.34
   0  -5   6    4.22    1.40
   0   5  -5  135.67   10.60
   0   5  -5   94.12    4.79
   0   5  -5  102.55    4.79
   0   5  -5  135.95    7.32
   0   5  -5  119.33    7.88
   0  -5   5  123.69    6.12
   0  -5   5  117.67    5.92
   0  -5   5  120.78    7.21
   0  -5   5  126.29    6.98
   0   5  -4   16.28    2.93
   0   5  -4   13.60    0.99
   0   5  -4   13.11    1.57
   0   5  -4   18.64    3.22
   0   5  -4   18.18    1.63
   0  -5   4   16.93    1.66
   0  -5   4   13.48    2.32
   0  -5   4   17.06    2.02
   0  -5   4   18.26    2.96
   0   5  -3    0.45    0.76
   0   5  -3    0.14    0.37
   0   5  -3    0.22    0.34
   0   5  -3    0.74    0.61
   0  -5   3    1.03    0.67
   0  -5   3    0.76    0.65
   0  -5   3   -0.04    0.79
   0   5  -2  189.73    9.90
   0   5  -2  190.42    9.95
   0   5  -2  185.61   11.64
   0  -5   2  182.56    9.12
   0  -5   2  196.64   12.68
   0  -5   2  181.89    9.35
   0   5  -1   -0.92    6.28
   0  -5   1   21.51    2.95
   0   5   0  324.01   17.13
   0   5   0  271.77   18.07
   0   5   0  269.34   15.10
   0   5   0  280.86   16.70
   0  -5   0  349.84   19.13
   0  -5   0  305.42   17.28
   0  -5   0  280.31   21.45
   0   5   1 1147.31   89.46
   0   5   1 1097.57   85.68
   0   5   1 1056.01   79.23
   0   5   1 1056.97   85.77
   0  -5  -1 1239.89   92.05
   0  -5  -1 1187.26   90.31
   0  -5  -1 1145.67   87.21
   0   5   2   40.66    4.40
   0   5   2   37.72    5.59
   0   5   2   35.98    3.06
   0   5   2   39.44    3.18
   0  -5  -2   40.64    3.32
   0  -5  -2   44.03    3.66
   0  -5  -2   40.51    3.62
   0   5   3  313.63   20.80
   0   5   3  319.50   20.01
   0   5   3  285.19   17.95
   0   5   3  332.99   19.39
   0  -5  -3  363.97   21.43
   0  -5  -3  334.55   18.98
   0  -5  -3  313.96   22.44
   0   5   4   10.15    2.27
   0   5   4   10.87    2.02
   0   5   4   10.58    2.06
   0   5   4    8.36    2.81
   0   5   4    8.92    1.69
   0  -5  -4   12.27    1.82
   0  -5  -4   10.53    1.84
   0   5   5    2.67    1.58
   0   5   5    2.42    1.40
   0   5   5    4.27    1.49
   0   5   5    4.52    2.09
   0   5   5    3.17    1.25
   0  -5  -5    3.60    1.37
   0  -5  -5    2.74    1.35
   0   5   6   -0.09    1.12
   0   5   6    1.48    1.10
   0   5   6    0.17    1.14
   0   5   6    0.09    0.99
   0   5   6    0.54    1.59
   0   5   7    1.55    1.43
   0   5   7    0.60    1.25
   0   5   8   23.42    3.94
   0   5   8   17.95    3.45
   0  -5  -8   32.58    4.14
   0   5   9   18.62    3.80
   0   5   9   16.34    3.45
   0  -5  -9   24.67    4.48
   0   5  10    3.23    2.35
   0   5  10    3.73    2.08
   0  -5 -10    6.61    2.45
   0   5  11   -1.74    1.55
   0   5  11    0.72    1.30
   0  -5 -11    1.35    1.42
   0   5  12    4.70    2.55
   0   5  12    2.79    3.58
   0  -5 -12    6.34    2.30
   0   5  13    3.79    2.43
   0   5  13    1.29    3.28
   0  -5 -13    8.90    3.40
   0   5  14   -0.37    1.59
   0   5  14    1.44    1.30
   0  -5 -14    1.65    1.45
   0   5  15    0.24    1.21
   0   5  15    0.63    0.93
   0  -5 -15    0.22    0.96
   0   5  16    0.81    1.75
   0   6 -19    8.14    3.65
   0   6 -19    5.98    2.05
   0  -6  19    5.88    2.01
   0   6 -18   12.12    2.90
   0   6 -18   12.96    2.85
   0  -6  18   10.14    4.36
   0   6 -17    1.66    1.61
   0   6 -17    0.67    1.58
   0  -6  17   -0.08    1.48
   0   6 -16   13.67    3.75
   0   6 -16   14.93    5.70
   0  -6  16   16.65    3.50
   0   6 -15   39.01    6.19
   0   6 -15   43.82    5.99
   0  -6  15   39.39    8.86
   0   6 -14    0.15    4.03
   0   6 -14    3.72    2.36
   0  -6  14    5.34    2.32
   0   6 -13   -0.88    2.09
   0   6 -13   -0.59    1.39
   0  -6  13    1.21    1.36
   0   6 -12   28.08    4.48
   0   6 -12   35.69    6.96
   0  -6  12   36.93    4.91
   0   6 -11    1.01    2.18
   0   6 -11    0.00    1.15
   0   6 -11    0.34    1.18
   0  -6  11   -0.30    2.14
   0   6 -10   72.66    7.07
   0   6 -10   48.78    5.53
   0   6 -10   69.67    5.99
   0  -6  10   68.91    6.43
   0   6  -9   94.73    7.89
   0   6  -9   60.31    5.60
   0   6  -9   54.95    7.25
   0   6  -9   86.13    6.33
   0  -6   9   83.00    6.93
   0   6  -8   20.57    4.94
   0   6  -8   23.26    4.10
   0  -6   8   23.07    3.12
   0   6  -7    1.94    1.53
   0   6  -7    2.31    1.18
   0  -6   7    2.75    1.13
   0  -6   7    3.41    1.53
   0  -6   7    2.97    1.45
   0   6  -6   18.39    2.79
   0   6  -6   18.99    2.72
   0   6  -6   18.36    2.08
   0  -6   6   18.58    2.16
   0  -6   6   17.19    2.72
   0  -6   6   17.33    3.98
   0   6  -5    3.89    1.56
   0   6  -5    2.32    1.44
   0   6  -5    3.43    1.79
   0  -6   5    3.49    1.16
   0  -6   5    3.00    1.13
   0  -6   5    2.70    1.45
   0  -6   5    3.92    1.33
   0   6  -4   21.61    4.07
   0   6  -4   22.79    2.34
   0  -6   4   23.72    2.38
   0  -6   4   21.77    3.79
   0  -6   4   29.55    4.79
   0  -6   4   20.54    2.62
   0   6  -3   57.81    4.60
   0  -6   3   59.40    6.05
   0  -6   3   55.50    4.10
   0  -6   3   57.49    4.23
   0   6  -2  610.09   41.19
   0   6  -2  605.36   43.28
   0   6  -2  604.61   41.26
   0  -6   2  739.12   53.84
   0  -6   2  607.95   41.45
   0  -6   2  780.54   51.24
   0   6  -1  211.70   13.01
   0   6  -1  188.84   12.49
   0   6  -1  249.36   15.23
   0  -6   1  253.30   14.87
   0  -6   1  232.28   17.89
   0   6   0   91.24    5.96
   0   6   0   90.95    6.48
   0   6   0   81.11    5.90
   0   6   0   90.79    8.56
   0  -6   0  105.29    6.84
   0  -6   0   96.56    6.38
   0  -6   0   95.45    6.45
   0   6   1    1.08    0.86
   0   6   1   -0.36    1.01
   0   6   1    0.42    0.83
   0   6   1    0.50    0.88
   0  -6  -1    1.20    0.95
   0  -6  -1    1.01    1.03
   0  -6  -1   -0.55    1.00
   0   6   2    0.96    0.90
   0   6   2    1.21    1.10
   0   6   2    0.43    1.55
   0   6   2    0.65    0.95
   0  -6  -2   -0.01    1.17
   0  -6  -2    0.55    1.75
   0   6   3   46.12    3.83
   0   6   3   52.37    5.17
   0   6   3   46.04    6.86
   0   6   3   44.53    4.29
   0   6   3   48.36    6.21
   0  -6  -3   55.08    4.96
   0  -6  -3   47.98    4.50
   0   6   4    5.08    1.42
   0   6   4    5.83    2.03
   0   6   4    6.51    3.13
   0   6   4    4.40    1.66
   0   6   4    5.34    1.60
   0  -6  -4    7.27    2.12
   0   6   5   38.35    3.79
   0   6   5   53.70    5.42
   0   6   5   43.70    4.80
   0  -6  -5   63.63    5.84
   0   6   6   27.44    4.03
   0   6   6   18.41    3.47
   0  -6  -6   32.53    4.30
   0   6   7   15.11    3.24
   0   6   7    8.89    2.77
   0  -6  -7   19.23    3.50
   0   6   8    2.20    1.86
   0   6   8    1.49    1.60
   0  -6  -8    2.14    2.00
   0   6   9    1.55    2.01
   0   6   9    2.03    1.70
   0  -6  -9    3.15    2.14
   0   6  10   85.11   10.26
   0  -6 -10  109.23   10.42
   0   6  11    0.99    1.55
   0   6  11   -0.37    1.28
   0  -6 -11    0.80    1.53
   0   6  12   29.53    5.15
   0  -6 -12   54.11    9.03
   0   6  13    0.21    2.08
   0   6  13   -0.38    0.97
   0  -6 -13    1.42    1.35
   0   6  14    1.09    1.47
   0  -6 -14    3.61    1.50
   0   7 -18    6.93    1.80
   0   7 -18    8.59    2.16
   0   7 -17    0.67    1.92
   0   7 -17    0.73    1.35
   0  -7  17    0.36    1.26
   0   7 -16    1.09    1.44
   0   7 -16    0.22    2.50
   0  -7  16    1.23    1.55
   0   7 -15    1.29    1.60
   0   7 -15    0.72    1.71
   0  -7  15    2.07    2.75
   0   7 -14    3.02    2.27
   0   7 -14    5.50    2.42
   0  -7  14    6.51    2.43
   0   7 -13    0.63    1.70
   0  -7  13    1.34    1.70
   0   7 -12   11.70    4.41
   0  -7  12   11.82    3.14
   0   7 -11    4.44    2.41
   0   7 -11    3.26    1.93
   0  -7  11    3.90    3.42
   0   7 -10    4.24    2.61
   0   7 -10    4.10    1.97
   0  -7  10    6.26    2.20
   0   7  -9  206.49   16.99
   0   7  -9  187.86   13.43
   0  -7   9  184.41   14.42
   0   7  -8   65.17    9.78
   0   7  -8   65.80    7.98
   0  -7   8   72.00    6.69
   0   7  -7  115.50    9.64
   0   7  -7  112.10    7.95
   0   7  -6  123.70   10.06
   0   7  -6  131.05    9.93
   0   7  -6  114.36    7.71
   0   7  -5   35.39    4.54
   0   7  -5   38.72    4.52
   0   7  -5   29.85    4.77
   0   7  -4   76.37    6.83
   0   7  -4   68.98    8.95
   0   7  -4   67.26    7.17
   0  -7   4   69.13    8.10
   0   7  -3    2.95    2.82
   0   7  -3    5.33    1.76
   0   7  -3    4.79    1.43
   0   7  -3    3.51    1.58
   0  -7   3    5.10    1.58
   0   7  -2    2.02    1.06
   0   7  -2    0.90    1.19
   0  -7   2    1.22    1.30
   0   7  -1   15.92    2.63
   0   7  -1   17.86    2.86
   0   7  -1   17.44    3.48
   0   7  -1   17.38    3.94
   0  -7   1   19.86    2.96
   0   7   0    2.96    1.24
   0   7   0   -4.36    2.20
   0   7   0    1.86    1.06
   0   7   0    0.94    1.15
   0  -7   0    0.60    2.41
   0   7   1   15.73    2.37
   0   7   1   16.14    4.29
   0   7   1   10.98    2.23
   0  -7  -1   16.03    4.41
   0   7   2   27.79    3.31
   0   7   2   30.30    3.92
   0   7   2   23.44    3.24
   0  -7  -2   33.94    4.15
   0   7   3    2.56    1.42
   0   7   3    2.97    1.73
   0   7   3    2.44    1.40
   0  -7  -3    3.90    1.91
   0   7   4    0.89    1.20
   0   7   4    1.04    1.55
   0   7   4    0.84    2.03
   0  -7  -4    3.29    1.85
   0   7   5    0.52    0.91
   0   7   5    0.61    1.24
   0   7   5    0.49    1.74
   0  -7  -5   -1.27    1.42
   0   7   6    6.84    2.57
   0   7   6    4.34    3.49
   0  -7  -6    9.61    2.86
   0   7   7   -0.02    1.53
   0   7   7    0.53    1.33
   0  -7  -7    1.98    1.82
   0   7   8   13.99    3.51
   0   7   8    9.48    3.01
   0  -7  -8   23.98    4.11
   0   7   9    2.00    1.96
   0  -7  -9    3.94    3.69
   0   7  10   70.35    8.48
   0  -7 -10  127.33   16.28
   0   7  11    2.38    1.80
   0  -7 -11    3.47    2.28
   0   7  12   14.41    3.14
   0  -7 -12   28.61    4.01
   0   7  13    0.20    0.95
   0  -7 -13    0.90    1.23
   0   8 -17    7.26    2.22
   0  -8  17   14.20    2.27
   0   8 -16   -1.60    2.12
   0  -8  16   -0.41    1.29
   0   8 -15   10.72    2.62
   0  -8  15    9.23    4.32
   0   8 -14    1.99    1.59
   0  -8  14    0.61    1.66
   0   8 -13   17.70    3.66
   0  -8  13   20.43    3.81
   0   8 -12   33.66    9.16
   0   8 -12   31.87    6.64
   0  -8  12   35.93    4.94
   0   8 -11    5.80    2.89
   0   8 -11    4.56    2.15
   0  -8  11   12.37    4.17
   0   8 -10    2.79    2.57
   0   8 -10    3.02    1.78
   0  -8  10    4.28    2.05
   0   8  -9  206.29   17.87
   0   8  -9  176.43   13.28
   0  -8   9  177.23   14.80
   0   8  -8    6.70    4.61
   0   8  -8    4.39    2.90
   0  -8   8    2.96    2.17
   0   8  -7  596.57   49.01
   0   8  -7  585.18   42.10
   0   8  -6   22.91    4.37
   0   8  -6   25.40    4.13
   0   8  -6   20.20    3.01
   0   8  -5    2.01    1.88
   0   8  -5    5.38    1.82
   0   8  -5   -0.97    1.21
   0   8  -4   93.30    9.35
   0   8  -4  104.09    8.64
   0   8  -4   82.18    9.05
   0   8  -3    8.72    2.80
   0   8  -3    6.28    1.79
   0  -8   3    8.40    3.84
   0   8  -2   13.67    5.05
   0   8  -2   14.04    2.78
   0   8  -2    8.10    2.04
   0  -8   2   11.82    2.63
   0   8  -1   18.57    5.34
   0   8  -1   11.51    3.00
   0   8  -1    9.62    2.19
   0  -8   1   17.41    3.00
   0   8   0   24.43    5.95
   0   8   0   15.83    3.42
   0   8   0   13.88    2.51
   0  -8   0   24.22    3.65
   0   8   1    3.39    2.79
   0   8   1    3.05    1.90
   0   8   1    2.31    2.47
   0  -8  -1    3.73    2.17
   0   8   2    4.22    2.90
   0   8   2    6.00    3.32
   0   8   2    2.61    1.66
   0  -8  -2    5.93    2.43
   0   8   3   11.93    5.25
   0   8   3   11.87    5.15
   0  -8  -3   19.47    6.31
   0   8   4    1.22    2.81
   0   8   4    1.14    1.78
   0  -8  -4    5.64    3.64
   0   8   5    0.05    1.25
   0  -8  -5    0.17    2.64
   0   8   6   11.43    3.22
   0  -8  -6   14.38    6.61
   0   8   7    1.37    1.74
   0  -8  -7    1.79    2.27
   0   8   8    4.70    2.31
   0  -8  -8    4.78    2.82
   0   8   9    0.26    1.13
   0  -8  -9   -0.14    1.54
   0   8  10    1.42    1.50
   0  -8 -10    3.47    2.10
   0   8  11    0.59    1.98
   0  -8 -11    3.16    1.89
   0  -8 -12    5.54    1.96
   0   9 -16    0.03    0.79
   0  -9  16    0.16    0.89
   0   9 -15    1.10    1.95
   0  -9  15    1.62    1.32
   0   9 -14   -0.29    0.95
   0  -9  14    0.95    1.71
   0   9 -13    3.95    1.82
   0  -9  13    4.38    1.94
   0   9 -12    5.09    2.73
   0   9 -12    5.06    3.36
   0  -9  12    6.13    2.20
   0   9 -11   25.51    7.36
   0   9 -11   15.84    4.82
   0  -9  11   21.71    5.91
   0   9 -10   18.31    4.37
   0   9 -10   13.86    2.81
   0  -9  10   17.14    3.27
   0   9  -9   15.33    3.97
   0   9  -9    8.75    2.40
   0  -9   9   11.88    2.82
   0   9  -8    0.89    1.95
   0   9  -8    0.77    1.10
   0  -9   8   -0.62    1.35
   0   9  -7   38.02    8.53
   0   9  -7   27.69    5.54
   0  -9   7   37.10    4.70
   0   9  -6   12.14    3.31
   0   9  -6    8.38    2.09
   0   9  -5   28.34    4.84
   0   9  -5   28.68    4.37
   0   9  -5   20.77    3.06
   0   9  -4   10.47    3.47
   0   9  -4   18.46    3.33
   0   9  -4    8.47    2.14
   0   9  -3    3.92    2.52
   0   9  -3    4.48    2.29
   0   9  -2    9.43    3.10
   0   9  -2    7.18    4.41
   0  -9   2    9.06    4.81
   0   9  -1    4.89    2.30
   0   9  -1    0.79    3.29
   0  -9   1    1.75    3.44
   0   9   0   24.39    4.77
   0   9   0   26.44    4.41
   0  -9   0   27.62    4.71
   0   9   1    1.66    2.05
   0   9   1    2.27    1.88
   0  -9  -1    2.87    2.20
   0   9   2   30.83    4.97
   0   9   2   24.45    4.78
   0  -9  -2   39.33    5.74
   0   9   3    5.33    2.47
   0   9   3    4.98    2.47
   0  -9  -3   10.18    3.06
   0   9   4    0.71    1.38
   0   9   4    0.89    1.46
   0  -9  -4    0.37    1.91
   0   9   5    8.20    2.65
   0  -9  -5    9.66    3.53
   0   9   6   -0.01    1.19
   0  -9  -6    0.68    1.64
   0   9   7    1.28    1.35
   0  -9  -7    0.92    1.95
   0   9   8    4.94    1.68
   0  -9  -8    4.14    2.59
   0   9   9    0.18    0.80
   0  -9  -9   -1.01    1.34
   0  -9 -10   12.51    4.58
   0 -10  14   -0.60    1.68
   0  10 -13    3.69    1.56
   0  10 -13    2.12    1.21
   0 -10  13    4.57    1.51
   0  10 -12    4.53    1.64
   0  10 -12   -0.06    1.05
   0 -10  12    0.17    1.26
   0  10 -11    1.01    2.83
   0  10 -11    0.27    1.04
   0 -10  11    0.68    1.22
   0  10 -10    3.24    2.21
   0  10 -10    1.01    1.99
   0 -10  10    2.40    2.59
   0  10  -9    2.51    2.08
   0  10  -9    0.68    1.08
   0 -10   9    0.53    1.37
   0  10  -8   -1.57    1.84
   0 -10   8    0.36    1.17
   0  10  -7   19.61    5.22
   0 -10   7   17.59    3.29
   0  10  -6    6.98    5.98
   0 -10   6    5.78    2.14
   0  10  -5    1.37    3.38
   0  10  -4    1.85    2.20
   0  10  -4    1.84    1.77
   0  10  -3   10.44    3.27
   0  10  -3    8.39    2.71
   0  10  -2    7.63    2.72
   0  10  -2    1.23    2.12
   0  10  -1   18.50    4.11
   0  10  -1   14.03    3.44
   0 -10   1   20.37    4.04
   0  10   0   11.46    2.89
   0  10   0    1.33    4.01
   0 -10   0    5.19    3.04
   0  10   1    0.97    1.28
   0  10   1   -0.31    1.87
   0 -10  -1   -3.16    2.46
   0  10   2    4.26    2.07
   0  10   2    2.25    3.13
   0 -10  -2    5.52    3.85
   0  10   3    4.36    2.97
   0  10   3    3.29    2.99
   0 -10  -3    3.93    3.83
   0  10   4    1.18    2.43
   0  10   4    1.00    1.29
   0 -10  -4    1.80    2.91
   0  10   5   -0.89    0.96
   0 -10  -5    3.90    2.34
   0  10   6   -0.18    0.73
   0 -10  -6    1.15    1.97
   0 -10  -7   79.86   12.67
   0  11 -11    2.69    1.84
   0 -11  11    2.03    1.25
   0  11 -10   22.56    6.12
   0 -11  10   14.50    2.36
   0  11  -9   10.83    5.16
   0 -11   9    8.90    3.21
   0  11  -8    4.84    2.50
   0 -11   8    1.17    2.32
   0  11  -7    0.69    2.23
   0 -11   7    1.42    1.22
   0  11  -6    0.24    1.69
   0 -11   6   -0.25    0.95
   0  11  -5    1.59    2.30
   0 -11   5    1.61    1.31
   0  11  -4    3.21    2.78
   0 -11   4    3.62    1.56
   0  11  -3    1.31    2.21
   0  11  -2    1.92    3.81
   0  11  -1   -0.29    2.64
   0  11  -1   -0.16    1.00
   0  11   0   10.82    4.33
   0  11   0    3.02    1.70
   0 -11   0    6.75    2.06
   0  11   1    9.32    2.67
   0  11   1    4.99    1.85
   0 -11  -1   10.57    2.45
   0  11   2    1.08    1.43
   0  11   2    0.62    1.00
   0 -11  -2    2.18    1.49
   0  11   3    3.08    1.23
   0 -11  -3    0.95    1.69
   0 -11  -4    1.97    1.63
   0  12  -7    0.11    2.21
   0  12  -6   27.98    4.64
   0  12  -5    1.28    1.85
   0  12  -4    2.51    2.03
   0  12  -3   -3.12    2.07
   0  12  -2   10.38    2.83
   0  12  -1    1.13    1.47
  -1  12   1   15.31    3.07
  -1  12   0   -6.18    3.99
  -1  12  -1   36.89    8.92
  -1  12  -2   36.62    9.27
  -1  12  -3   -5.90    4.59
  -1  12  -4   -2.17    2.17
  -1  12  -5   -0.30    1.69
  -1  12  -6    6.33    2.75
  -1  12  -7    8.52    2.85
  -1  12  -8   22.09    3.74
   1 -11  -5   -0.09    1.30
   1 -11  -4    0.80    1.51
  -1  11   4    0.14    1.51
   1 -11  -3    1.89    1.92
  -1  11   3    1.65    1.40
   1 -11  -2    0.47    1.48
  -1  11   2    0.04    1.19
  -1  11   2    0.10    1.13
   1 -11  -1    0.97    1.61
  -1  11   1    0.23    1.45
  -1  11   1    0.54    1.38
   1 -11   0    1.81    2.01
  -1  11   0    3.32    1.91
  -1  11   0    1.31    1.83
   1 -11   1    2.85    3.16
  -1  11  -1    3.09    2.02
  -1  11  -1    1.56    1.18
   1 -11   2   18.83    5.25
  -1  11  -2   19.85    3.60
  -1  11  -2   10.36    2.16
  -1  11  -3    0.87    1.91
  -1  11  -3    1.23    1.11
  -1  11  -4   -2.54    1.56
  -1  11  -4    0.58    0.92
  -1  11  -5    4.89    2.31
  -1  11  -5    2.54    1.44
  -1  11  -6    3.05    3.46
  -1  11  -6    2.47    2.17
  -1  11  -7    1.41    2.09
  -1  11  -7    1.05    1.21
  -1  11  -8    1.89    2.08
  -1  11  -8    1.46    1.23
  -1  11  -9    2.17    2.23
  -1  11  -9    4.03    1.44
  -1  11 -10    0.57    1.42
  -1  11 -10    0.85    1.00
  -1  11 -11    1.76    1.44
  -1  11 -11    1.69    2.03
  -1  11 -12   -1.51    1.09
   1 -10  -8    2.79    2.01
   1 -10  -7    1.24    1.46
  -1  10   7   -0.09    0.59
   1 -10  -6    8.49    2.58
  -1  10   6    2.02    1.19
   1 -10  -5    3.84    2.11
  -1  10   5    1.40    1.29
  -1  10   5    0.48    1.06
   1 -10  -4    8.51    2.90
  -1  10   4    4.75    1.98
  -1  10   4    2.33    1.53
   1 -10  -3    1.72    2.14
  -1  10   3    1.38    1.61
  -1  10   3    0.62    1.18
   1 -10  -2    0.11    1.79
  -1  10   2   -0.92    1.44
  -1  10   2    0.12    1.04
   1 -10  -1    0.22    1.99
  -1  10   1   -1.22    2.86
  -1  10   1    0.81    1.17
   1 -10   0   32.81    5.63
  -1  10   0   34.01    8.31
  -1  10   0   22.55    3.63
   1 -10   1    1.24    2.05
  -1  10  -1    0.88    1.94
  -1  10  -1   -3.19    1.40
   1 -10   2   24.49    4.65
  -1  10  -2   24.44    4.80
  -1  10  -2   17.58    5.42
   1 -10   3    0.70    3.37
  -1  10  -3    0.85    2.21
  -1  10  -3    4.19    2.44
  -1  10  -4    1.63    1.88
  -1  10  -4    0.56    1.28
  -1  10  -5    0.55    1.71
  -1  10  -5    0.45    1.20
  -1  10  -6   10.60    3.08
  -1  10  -6    4.08    2.00
  -1  10  -7   18.81    4.27
  -1  10  -7   19.79    3.13
  -1  10  -8   30.26    7.04
  -1  10  -8    6.55    4.47
   1 -10   9    8.96    2.37
  -1  10  -9   17.85    3.85
  -1  10  -9   14.90    2.77
   1 -10  10    5.00    1.89
  -1  10 -10    9.80    2.92
  -1  10 -10    9.64    2.22
   1 -10  11    1.37    1.29
  -1  10 -11    2.75    1.82
  -1  10 -11    3.13    1.53
   1 -10  12    1.53    1.64
  -1  10 -12   -0.35    2.01
   1 -10  13    0.11    0.79
  -1  10 -13   -1.17    1.12
  -1  10 -14    2.77    1.51
   1  -9 -10   89.25    8.18
   1  -9  -9    1.88    2.36
  -1   9   9   -0.16    0.74
   1  -9  -8   11.69    4.35
  -1   9   8    3.61    1.73
   1  -9  -7    7.97    2.72
  -1   9   7    2.33    1.75
   1  -9  -6    0.05    1.93
  -1   9   6   -1.97    2.17
  -1   9   6   -0.53    1.32
   1  -9  -5    5.07    2.67
  -1   9   5    1.97    2.62
  -1   9   5    2.93    1.86
   1  -9  -4    5.46    2.71
  -1   9   4    2.86    1.79
  -1   9   4    2.88    1.92
   1  -9  -3   20.17    4.14
  -1   9   3   12.85    3.05
  -1   9   3   10.22    3.13
   1  -9  -2    2.54    3.80
  -1   9   2    2.57    1.81
  -1   9   2    1.95    2.95
   1  -9  -1   -1.33    3.10
  -1   9   1    1.08    1.55
  -1   9   1    1.95    2.26
  -1   9   0    3.96    2.02
  -1   9   0    3.17    1.76
   1  -9   1    2.06    2.00
  -1   9  -1    1.48    1.59
  -1   9  -1    0.41    1.40
   1  -9   2   11.41    3.28
  -1   9  -2    8.49    2.75
  -1   9  -2   10.04    2.46
   1  -9   3    1.13    1.88
  -1   9  -3    0.63    2.66
  -1   9  -3    1.76    1.47
   1  -9   4   -0.22    2.42
  -1   9  -4   -1.26    2.66
  -1   9  -4    0.20    1.99
  -1   9  -5    0.14    1.81
  -1   9  -5    1.83    2.14
   1  -9   6   13.66    2.73
  -1   9  -6   17.67    3.93
  -1   9  -6   19.80    2.99
   1  -9   7    1.76    1.36
  -1   9  -7    1.21    1.90
  -1   9  -7    1.22    1.48
   1  -9   8    2.35    1.57
  -1   9  -8    3.44    2.12
  -1   9  -8    2.85    1.71
   1  -9   9   22.21    5.81
  -1   9  -9   35.22    8.82
  -1   9  -9   34.09    6.68
   1  -9  10    0.02    1.32
  -1   9 -10    1.13    1.84
  -1   9 -10    1.80    1.49
   1  -9  11   11.23    2.72
  -1   9 -11   17.74    3.18
   1  -9  12    1.19    1.40
  -1   9 -12    1.70    1.57
   1  -9  13    0.21    2.08
  -1   9 -13    2.74    2.71
   1  -9  14    0.47    1.14
  -1   9 -14    1.78    1.49
   1  -9  15    2.46    1.22
  -1   9 -15    3.12    1.69
  -1   9 -16   -0.20    1.71
   1  -8 -12    3.98    2.05
  -1   8  12    5.09    1.18
   1  -8 -11    0.89    2.39
  -1   8  11    0.55    1.00
   1  -8 -10    7.15    2.60
  -1   8  10    4.05    1.86
   1  -8  -9    9.84    3.22
  -1   8   9    3.59    3.59
   1  -8  -8   29.99    5.34
  -1   8   8   12.18    5.89
   1  -8  -7    2.72    2.45
  -1   8   7    1.71    2.95
   1  -8  -6   51.01    6.59
  -1   8   6   28.98    4.05
  -1   8   6   33.93    7.69
   1  -8  -5   63.66    7.79
  -1   8   5   39.23    5.09
  -1   8   5   43.43    5.86
   1  -8  -4    3.08    2.30
  -1   8   4    1.94    1.56
  -1   8   4    1.66    1.72
   1  -8  -3   42.28    6.08
  -1   8   3   39.24    4.73
  -1   8   3   32.49    4.91
   1  -8  -2    0.70    1.66
  -1   8   2    0.27    1.24
  -1   8   2    0.47    1.12
  -1   8   2    0.48    1.28
   1  -8  -1    3.44    2.24
  -1   8   1    4.75    1.79
  -1   8   1    2.17    1.55
  -1   8   1    3.02    1.80
   1  -8   0    2.86    1.86
  -1   8   0    3.08    1.53
  -1   8   0    0.18    1.34
  -1   8   0    1.28    1.51
   1  -8   1   22.65    5.88
  -1   8  -1   20.64    3.22
  -1   8  -1   16.48    4.43
  -1   8  -1   18.91    4.75
   1  -8   2   -0.73    1.84
  -1   8  -2   -0.07    1.48
  -1   8  -2    1.85    1.35
  -1   8  -2    4.35    1.53
   1  -8   3   13.28    3.60
  -1   8  -3   12.30    3.02
  -1   8  -3   27.64    3.19
   1  -8   4  163.90   12.70
  -1   8  -4  155.44   11.71
  -1   8  -4  152.92   11.16
  -1   8  -4  159.41   11.53
   1  -8   5    3.71    3.22
  -1   8  -5    0.92    2.97
  -1   8  -5    6.44    3.08
   1  -8   6   78.35    6.72
  -1   8  -6   99.57    9.21
  -1   8  -6   97.35    7.46
   1  -8   7   -0.42    1.05
  -1   8  -7    0.17    1.36
  -1   8  -7   -0.14    1.18
   1  -8   8   68.13    6.51
  -1   8  -8   78.20    7.65
  -1   8  -8   85.03    7.27
   1  -8   9  139.24   15.53
  -1   8  -9  155.50   17.04
  -1   8  -9  181.31   17.19
   1  -8  10   20.07    3.69
  -1   8 -10   25.50    4.56
  -1   8 -10   27.53    4.11
   1  -8  11   71.68    7.58
  -1   8 -11  101.89    8.46
   1  -8  12    4.62    2.07
  -1   8 -12    4.94    2.26
   1  -8  13    4.10    3.76
  -1   8 -13   12.41    4.27
   1  -8  14    6.57    2.33
  -1   8 -14   11.80    2.98
   1  -8  15    1.49    1.49
  -1   8 -15    3.51    1.89
   1  -8  16    0.18    1.20
  -1   8 -16    3.28    1.59
   1  -8  17   14.68    3.75
  -1   8 -17   17.08    4.92
   1  -7 -13    1.21    2.34
  -1   7  13    1.60    2.01
   1  -7 -12    7.36    2.21
  -1   7  12    3.36    1.98
   1  -7 -11    9.87    2.86
  -1   7  11    4.82    2.43
   1  -7 -10   28.12    4.84
  -1   7  10   13.95    3.99
   1  -7  -9    0.19    2.11
  -1   7   9    2.00    1.77
   1  -7  -8  143.61   13.66
  -1   7   8   95.47   11.38
   1  -7  -7   73.73    8.49
  -1   7   7   44.41    4.95
  -1   7   7   38.13    5.42
  -1   7   7   53.03    7.05
   1  -7  -6   45.45    6.38
  -1   7   6   33.04    6.15
  -1   7   6   22.64    4.11
  -1   7   6   31.27    5.33
   1  -7  -5    2.09    2.29
  -1   7   5    1.46    2.55
  -1   7   5    1.73    1.50
  -1   7   5    3.65    1.93
   1  -7  -4    0.72    1.85
  -1   7   4    0.79    1.22
  -1   7   4    1.67    1.52
   1  -7  -3   49.37    5.79
  -1   7   3   39.02    5.67
  -1   7   3   33.81    4.03
  -1   7   3   41.52    7.56
   1  -7  -2   10.35    2.66
   1  -7  -2    6.79    1.65
  -1   7   2    9.83    2.83
  -1   7   2    6.89    2.89
  -1   7   2    9.05    3.40
   1  -7  -1    0.78    1.54
   1  -7  -1    1.22    1.52
  -1   7   1    2.30    1.70
  -1   7   1    1.51    1.66
  -1   7   1   -0.05    1.23
   1  -7   0   53.03    5.44
   1  -7   0   44.90    4.03
  -1   7   0   55.38    7.00
  -1   7   0   46.16    4.77
   1  -7   1   36.09    4.35
   1  -7   1   37.59    3.54
  -1   7  -1   37.54    3.92
  -1   7  -1   33.80    3.61
  -1   7  -1   37.67    4.41
   1  -7   2   30.62    6.31
   1  -7   2   37.48    4.94
  -1   7  -2   35.07    3.85
  -1   7  -2   38.50    5.13
  -1   7  -2   42.18    6.17
   1  -7   3    1.42    1.22
   1  -7   3    0.29    0.88
  -1   7  -3   -0.97    1.03
  -1   7  -3   -1.39    0.88
  -1   7  -3    2.80    1.03
   1  -7   4   41.79    3.98
   1  -7   4   24.97    3.03
  -1   7  -4   28.33    3.37
  -1   7  -4   29.33    3.06
  -1   7  -4   31.27    3.36
   1  -7   5   27.74    5.45
   1  -7   5   24.42    4.57
  -1   7  -5   25.96    3.17
  -1   7  -5   27.86    3.09
  -1   7  -5   29.47    3.28
   1  -7   6    1.96    1.44
  -1   7  -6    1.72    2.08
  -1   7  -6    2.16    2.16
   1  -7   7   -0.09    0.99
  -1   7  -7    0.81    1.21
  -1   7  -7    0.70    1.10
   1  -7   8   12.19    2.47
  -1   7  -8   14.89    2.77
  -1   7  -8   16.17    2.64
   1  -7   9  219.24   20.34
  -1   7  -9  224.89   16.18
  -1   7  -9  263.79   17.35
   1  -7  10   65.24    6.66
  -1   7 -10   67.19    7.27
  -1   7 -10   84.74   10.58
   1  -7  11  206.54   17.22
  -1   7 -11  270.37   19.48
   1  -7  12   44.17    5.60
  -1   7 -12   34.67    5.07
  -1   7 -12   56.22    5.93
   1  -7  13    6.89    3.68
  -1   7 -13    4.60    2.23
  -1   7 -13    5.89    3.99
   1  -7  14    2.36    1.82
  -1   7 -14    1.84    1.87
  -1   7 -14    4.16    2.25
   1  -7  15    2.77    1.81
  -1   7 -15    2.72    3.01
  -1   7 -15    3.76    2.26
   1  -7  16    1.88    1.31
  -1   7 -16    1.16    2.53
  -1   7 -16   -0.93    1.67
   1  -7  17    0.34    1.65
  -1   7 -17   -0.34    1.14
  -1   7 -17    1.56    2.20
   1  -7  18    0.72    0.93
  -1   7 -18    0.10    1.01
  -1   7 -18   -0.74    1.22
  -1   6  15    0.09    0.88
   1  -6 -14   -1.44    1.85
  -1   6  14   -0.27    0.89
  -1   6  14   -0.61    1.21
   1  -6 -13    2.75    1.59
  -1   6  13    0.39    2.18
  -1   6  13    1.60    1.68
   1  -6 -12   -0.55    1.63
  -1   6  12   -4.14    2.38
  -1   6  12   -0.03    1.64
   1  -6 -11    1.50    1.89
  -1   6  11    0.68    1.55
  -1   6  11    2.31    1.84
   1  -6 -10   -1.88    1.62
  -1   6  10    0.70    1.28
  -1   6  10   -0.02    2.45
   1  -6  -9   56.26    9.20
  -1   6   9   23.50    4.59
  -1   6   9   38.29    8.62
   1  -6  -8  703.41   64.12
  -1   6   8  447.12   40.15
  -1   6   8  587.15   58.80
   1  -6  -7  160.64   17.34
  -1   6   7  109.92   10.40
  -1   6   7  132.37   16.90
   1  -6  -6   -0.03    2.21
  -1   6   6    0.69    0.81
  -1   6   6    0.86    1.09
  -1   6   6   -1.05    1.29
   1  -6  -5   37.98    6.70
   1  -6  -5   29.72    3.19
  -1   6   5   32.50    3.02
  -1   6   5   27.57    5.40
  -1   6   5   36.17    4.30
   1  -6  -4   25.03    5.37
   1  -6  -4   20.77    3.72
  -1   6   4   21.52    2.38
  -1   6   4   20.05    4.06
  -1   6   4   22.40    3.32
   1  -6  -3    1.06    2.25
   1  -6  -3   -0.18    1.48
   1  -6  -3    0.14    0.80
  -1   6   3    1.25    0.83
  -1   6   3    0.88    1.40
  -1   6   3    1.00    0.90
  -1   6   3    0.64    1.15
  -1   6   3    1.08    1.18
   1  -6  -2    2.48    1.46
   1  -6  -2    1.67    0.97
   1  -6  -2    1.57    0.85
  -1   6   2    1.04    0.94
  -1   6   2    0.44    1.57
  -1   6   2    1.49    0.94
  -1   6   2    0.74    1.24
  -1   6   2    2.38    1.26
   1  -6  -1   79.93    6.44
   1  -6  -1   69.79    4.59
  -1   6   1   70.63    4.73
  -1   6   1   81.30    6.91
  -1   6   1   72.59    4.67
  -1   6   1   77.15    8.57
  -1   6   1   74.69    8.46
   1  -6   0   27.25    3.36
   1  -6   0   21.97    2.40
  -1   6   0   25.06    2.50
  -1   6   0   28.52    3.67
  -1   6   0   30.55    3.15
  -1   6   0   33.57    3.51
   1  -6   1   66.62    5.11
   1  -6   1   60.21    5.04
   1  -6   1   55.49    5.34
  -1   6  -1   66.20    4.00
  -1   6  -1   47.65    3.85
  -1   6  -1   54.05    4.66
  -1   6  -1   56.64    4.98
   1  -6   2    5.22    1.56
   1  -6   2    3.33    2.55
  -1   6  -2    4.45    1.97
   1  -6   3   27.65    3.04
   1  -6   3   30.18    3.36
   1  -6   3   25.55    2.48
   1  -6   3   31.99    3.41
  -1   6  -3   32.35    2.89
  -1   6  -3   28.61    2.47
  -1   6  -3   26.97    4.42
   1  -6   4   59.34    4.70
   1  -6   4   61.64    4.99
   1  -6   4   55.69    5.77
   1  -6   4   60.04    5.09
  -1   6  -4   64.00    4.43
  -1   6  -4   63.75    4.16
  -1   6  -4   62.87    4.59
   1  -6   5   30.60    3.05
   1  -6   5   29.08    5.01
   1  -6   5   29.90    2.84
   1  -6   5   30.81    3.39
  -1   6  -5   32.11    2.91
  -1   6  -5   32.75    2.90
  -1   6  -5   33.03    3.06
   1  -6   6    8.24    1.61
   1  -6   6    8.45    1.78
   1  -6   6    7.67    1.52
   1  -6   6    7.91    1.62
   1  -6   6   10.97    3.25
  -1   6  -6    5.15    1.09
  -1   6  -6    5.58    2.18
  -1   6  -6    9.02    2.72
   1  -6   7   17.57    2.33
   1  -6   7   18.23    2.47
   1  -6   7   19.85    2.36
   1  -6   7   20.14    3.88
  -1   6  -7   22.04    2.68
  -1   6  -7   14.14    1.85
  -1   6  -7   15.48    2.30
  -1   6  -7   21.48    2.60
   1  -6   8   31.63    3.06
   1  -6   8   30.58    3.23
  -1   6  -8   34.06    3.33
  -1   6  -8   24.04    2.66
  -1   6  -8   25.66    3.26
  -1   6  -8   34.73    3.43
   1  -6   9   43.33    6.38
  -1   6  -9   42.93    3.91
  -1   6  -9   35.23    3.63
  -1   6  -9   51.90    6.62
   1  -6  10   39.56    4.42
  -1   6 -10   30.40    3.77
  -1   6 -10   46.87    4.70
   1  -6  11   10.31    2.79
  -1   6 -11   10.94    3.85
  -1   6 -11   15.10    2.93
   1  -6  12    6.65    2.47
  -1   6 -12    6.01    4.44
  -1   6 -12    9.14    2.70
   1  -6  13   50.74    9.59
  -1   6 -13   57.55    6.80
  -1   6 -13   61.40   10.05
   1  -6  14    3.63    1.90
  -1   6 -14    1.17    2.11
  -1   6 -14    2.51    2.24
   1  -6  15    2.22    1.48
  -1   6 -15    0.56    1.66
  -1   6 -15   -1.25    1.79
   1  -6  16    1.98    1.66
  -1   6 -16    1.80    1.85
  -1   6 -16    1.40    2.00
   1  -6  17   10.82    4.59
  -1   6 -17   14.01    5.49
  -1   6 -17   12.24    5.44
   1  -6  18    1.14    1.24
  -1   6 -18   -0.49    1.48
  -1   6 -18    1.03    1.45
   1  -6  19    0.58    1.01
  -1   6 -19   -0.18    1.22
  -1   6 -19   -2.13    1.22
  -1   5  16   -1.56    1.36
  -1   5  15    5.90    1.66
  -1   5  15    2.95    1.98
  -1   5  14    0.93    1.22
  -1   5  14   -0.79    2.42
   1  -5 -13    1.27    1.70
  -1   5  13   -1.16    1.71
  -1   5  13    7.68    2.00
   1  -5 -12   18.80    3.38
  -1   5  12    8.74    3.14
  -1   5  12   13.21    3.61
   1  -5 -11    1.96    2.28
  -1   5  11   -0.38    1.23
  -1   5  11   -0.01    1.40
   1  -5 -10   40.69    6.67
  -1   5  10   17.24    4.18
  -1   5  10   21.40    4.59
   1  -5  -9   41.22    4.99
  -1   5   9   16.05    6.28
  -1   5   9   21.50    4.65
   1  -5  -8   12.59    2.43
  -1   5   8    5.59    1.37
  -1   5   8    8.69    3.45
  -1   5   8    9.59    2.52
   1  -5  -7   12.45    2.42
  -1   5   7    8.02    1.44
  -1   5   7   10.57    4.13
  -1   5   7    8.99    2.09
  -1   5   7   10.36    2.47
   1  -5  -6   50.92    4.53
   1  -5  -6   36.65    3.51
  -1   5   6   40.00    3.10
  -1   5   6   44.69    5.02
  -1   5   6   41.38    3.99
  -1   5   6   44.14    4.61
   1  -5  -5    4.01    1.51
   1  -5  -5    3.47    1.31
   1  -5  -5    3.02    1.07
  -1   5   5    2.70    1.59
  -1   5   5    2.81    1.75
  -1   5   5    2.09    1.19
  -1   5   5    3.54    1.50
  -1   5   5    4.37    1.47
   1  -5  -4   14.59    2.29
   1  -5  -4   17.83    2.80
   1  -5  -4   12.30    2.57
  -1   5   4   11.80    2.48
  -1   5   4   14.36    4.03
  -1   5   4   12.94    1.80
  -1   5   4   14.20    3.62
  -1   5   4   15.15    2.37
   1  -5  -3    2.24    1.30
   1  -5  -3    3.13    0.95
   1  -5  -3    2.07    0.85
  -1   5   3    3.09    1.45
  -1   5   3    3.10    1.52
  -1   5   3    2.54    0.95
  -1   5   3    2.14    1.28
  -1   5   3    3.54    1.30
   1  -5  -2  114.41   10.01
   1  -5  -2  124.25    6.12
   1  -5  -2  109.40    7.15
  -1   5   2  109.16    7.96
  -1   5   2  119.21    8.44
  -1   5   2  107.12    7.57
  -1   5   2  114.14    7.21
  -1   5   2  119.72    7.38
   1  -5  -1   29.14    4.80
   1  -5  -1   26.98    2.16
   1  -5  -1   23.75    2.06
  -1   5   1   27.71    2.36
  -1   5   1   35.07    3.42
  -1   5   1   22.56    2.02
  -1   5   1   21.61    2.85
  -1   5   1   27.58    3.16
   1  -5   0  312.57   19.24
  -1   5   0  306.75   16.56
   1  -5   1 1735.43  146.96
   1  -5   1 1798.85  155.35
   1  -5   1 1757.49  142.66
  -1   5  -1 1722.60  141.71
  -1   5  -1 1220.58   90.81
  -1   5  -1 1427.05  107.90
  -1   5  -1 1849.83  149.00
  -1   5  -1 1721.06  146.92
   1  -5   2   12.86    1.86
   1  -5   2   10.87    3.13
  -1   5  -2   13.22    1.61
  -1   5  -2   10.37    0.78
  -1   5  -2   10.30    0.93
   1  -5   3  614.68   37.40
   1  -5   3  608.05   38.77
   1  -5   3  567.50   33.42
   1  -5   3  581.35   37.74
  -1   5  -3  585.76   36.98
  -1   5  -3  499.65   28.98
  -1   5  -3  624.35   35.60
  -1   5  -3  642.53   44.18
   1  -5   4   52.18    3.58
   1  -5   4   49.14    3.87
   1  -5   4   44.88    3.15
   1  -5   4   48.92    6.13
  -1   5  -4   56.44    3.40
  -1   5  -4   45.19    2.65
  -1   5  -4   44.75    4.13
  -1   5  -4   51.79    3.26
  -1   5  -4   51.64    3.68
   1  -5   5  126.76    7.02
   1  -5   5  127.63   10.19
   1  -5   5  118.07    8.69
   1  -5   5  129.42    7.99
  -1   5  -5  127.36    6.80
  -1   5  -5  118.12    6.21
  -1   5  -5  117.92    6.57
  -1   5  -5  137.07    7.41
   1  -5   6   11.25    1.38
   1  -5   6    7.22    1.60
   1  -5   6    8.20    1.47
   1  -5   6    6.20    1.47
   1  -5   6    9.66    1.89
  -1   5  -6    7.85    1.33
  -1   5  -6   10.12    2.05
  -1   5  -6    5.46    1.47
  -1   5  -6   10.72    2.66
   1  -5   7  230.46   12.88
   1  -5   7  229.16   17.50
   1  -5   7  227.64   13.49
   1  -5   7  217.17   13.31
   1  -5   7  249.26   15.74
  -1   5  -7  267.72   17.72
  -1   5  -7  239.48   16.65
  -1   5  -7  217.53   13.98
  -1   5  -7  209.06   12.23
  -1   5  -7  260.10   14.82
   1  -5   8  163.92    9.16
   1  -5   8  147.78    9.28
   1  -5   8  156.45   13.37
   1  -5   8  150.23    9.89
   1  -5   8  172.28   11.59
  -1   5  -8  163.22    9.54
  -1   5  -8  176.61   10.32
  -1   5  -8  155.96   11.04
  -1   5  -8  178.24   10.77
   1  -5   9    1.58    0.94
   1  -5   9    2.15    1.35
   1  -5   9    2.03    1.36
  -1   5  -9    2.12    1.72
  -1   5  -9    2.04    1.28
  -1   5  -9   10.29    2.57
  -1   5  -9    2.20    2.29
   1  -5  10    5.79    1.91
  -1   5 -10    5.77    1.84
  -1   5 -10    7.81    2.06
   1  -5  11   15.51    2.98
  -1   5 -11   17.58    2.95
  -1   5 -11   16.93    3.12
   1  -5  12    1.64    2.07
  -1   5 -12   -0.20    2.00
  -1   5 -12    0.02    1.35
   1  -5  13    8.73    2.68
  -1   5 -13   11.68    5.33
  -1   5 -13   14.43    5.34
   1  -5  14    5.21    2.45
  -1   5 -14    6.60    2.77
  -1   5 -14    7.57    2.85
   1  -5  15    1.37    1.91
  -1   5 -15    2.59    2.19
  -1   5 -15    3.42    2.18
   1  -5  16    5.21    2.36
  -1   5 -16    2.46    2.76
  -1   5 -16    8.73    2.83
   1  -5  17   -0.19    2.66
  -1   5 -17    1.57    1.79
  -1   5 -17    1.27    1.85
  -1   5 -18   11.01    5.28
  -1   5 -18    9.51    2.96
   1  -5  19    9.36    2.43
  -1   5 -19   12.76    2.93
  -1   4  17   24.18    5.36
  -1   4  16    6.42    2.54
  -1   4  16   33.77    3.41
  -1   4  15    3.16    1.75
  -1   4  15    2.63    2.04
  -1   4  14   10.04    5.38
  -1   4  14   19.97    3.97
  -1   4  13   37.34    7.99
  -1   4  13   37.32    6.07
   1  -4 -12  103.10   12.67
  -1   4  12   72.08    8.76
  -1   4  12   96.33   10.15
   1  -4 -11  112.35   12.29
  -1   4  11   89.14    9.33
  -1   4  11  111.19   11.21
   1  -4 -10   81.30    6.80
  -1   4  10   58.29    6.74
  -1   4  10   76.49    8.20
   1  -4  -9    0.17    1.13
  -1   4   9    1.60    1.09
  -1   4   9   -0.88    1.31
   1  -4  -8   41.18    3.60
   1  -4  -8   29.37    3.08
  -1   4   8   26.16    3.50
  -1   4   8   28.21    3.83
  -1   4   8   26.05    3.34
  -1   4   8   35.27    4.04
   1  -4  -7    1.71    1.15
   1  -4  -7    0.95    1.00
   1  -4  -7    0.28    1.51
  -1   4   7    1.18    0.74
  -1   4   7    1.70    2.03
  -1   4   7    1.04    1.01
  -1   4   7    1.49    1.25
  -1   4   7    1.12    1.25
   1  -4  -6    3.93    1.36
   1  -4  -6    3.84    1.18
   1  -4  -6    2.70    1.03
  -1   4   6    2.52    0.92
  -1   4   6    3.78    1.54
  -1   4   6    3.53    1.17
  -1   4   6    2.87    1.47
  -1   4   6    4.52    1.44
   1  -4  -5    5.22    0.92
   1  -4  -5    6.39    1.45
   1  -4  -5    7.52    2.07
   1  -4  -5    4.54    1.07
  -1   4   5    4.28    1.00
  -1   4   5    6.28    1.67
  -1   4   5    4.27    1.16
  -1   4   5    5.15    1.48
  -1   4   5    6.01    1.51
   1  -4  -4    3.71    1.08
   1  -4  -4    4.25    1.24
   1  -4  -4    4.07    0.94
   1  -4  -4    2.77    1.36
  -1   4   4    2.05    0.89
  -1   4   4    3.60    2.24
  -1   4   4    3.92    0.52
  -1   4   4    3.52    1.54
  -1   4   4    3.58    1.27
  -1   4   4    4.83    1.32
   1  -4  -3   34.92    1.64
   1  -4  -3   34.36    2.88
   1  -4  -3   38.91    2.35
   1  -4  -3   35.76    2.16
  -1   4   3   33.12    2.35
  -1   4   3   35.75    3.36
  -1   4   3   34.15    2.25
  -1   4   3   35.44    2.96
  -1   4   3   38.92    3.12
   1  -4  -2   72.53    3.23
   1  -4  -2   76.23    4.62
   1  -4  -2   84.62    3.92
   1  -4  -2   76.63    4.73
  -1   4   2   77.66    4.07
  -1   4   2   77.98    5.56
  -1   4   2   77.40    2.34
  -1   4   2   78.52    3.77
  -1   4   2   75.60    6.98
  -1   4   2   79.79    7.06
   1  -4  -1  698.49   37.45
   1  -4  -1  707.23   48.69
   1  -4  -1  694.85   39.17
   1  -4  -1  660.72   37.10
  -1   4   1  645.82   37.91
  -1   4   1  710.05   45.46
  -1   4   1  622.05   32.01
  -1   4   1  634.54   38.50
  -1   4   1  628.91   39.76
  -1   4   1  648.30   41.05
   1  -4   0   70.78    2.39
   1  -4   0   74.65    4.62
   1  -4   0   75.51    3.53
  -1   4   0   76.01    5.35
  -1   4   0   64.82    2.39
  -1   4   0   68.95    3.19
  -1   4   0   72.82    4.59
  -1   4   0   70.51    4.49
   1  -4   1 1693.76  142.64
   1  -4   1 1777.94  152.08
   1  -4   1 1768.01  142.67
   1  -4   1 1740.08  147.65
  -1   4  -1 1880.75  155.93
  -1   4  -1 1631.38  130.75
  -1   4  -1 1883.31  149.65
  -1   4  -1 1758.47  153.82
   1  -4   2   61.23    3.68
   1  -4   2   57.64    5.73
   1  -4   2   61.86    2.96
  -1   4  -2   67.28    3.30
  -1   4  -2   56.92    2.82
   1  -4   3  356.53   18.37
   1  -4   3  363.01   20.36
   1  -4   3  345.68   19.27
   1  -4   3  348.08   18.71
  -1   4  -3  365.79   17.51
  -1   4  -3  313.29   17.89
  -1   4  -3  372.16   18.86
  -1   4  -3  382.40   18.05
  -1   4  -3  374.98   23.21
   1  -4   4    6.90    1.36
   1  -4   4    6.68    0.99
   1  -4   4    5.74    1.45
  -1   4  -4    7.05    1.48
  -1   4  -4    6.13    1.08
  -1   4  -4    7.49    1.09
  -1   4  -4    7.92    1.30
   1  -4   5  579.13   34.17
   1  -4   5  614.79   38.39
   1  -4   5  604.12   35.59
   1  -4   5  550.05   33.30
   1  -4   5  609.18   38.20
  -1   4  -5  697.31   38.97
  -1   4  -5  613.74   35.82
  -1   4  -5  588.46   36.47
  -1   4  -5  580.75   34.74
  -1   4  -5  649.66   38.67
   1  -4   6  510.94   30.29
   1  -4   6  596.48   36.76
   1  -4   6  576.30   34.64
   1  -4   6  524.91   35.98
   1  -4   6  609.58   43.08
  -1   4  -6  557.94   31.77
  -1   4  -6  584.11   35.23
  -1   4  -6  585.69   41.59
  -1   4  -6  524.75   34.33
  -1   4  -6  599.92   35.95
   1  -4   7  461.12   25.69
   1  -4   7  453.91   27.61
   1  -4   7  464.05   31.75
   1  -4   7  428.55   30.41
   1  -4   7  463.63   33.61
  -1   4  -7  505.78   28.24
  -1   4  -7  477.57   29.13
  -1   4  -7  397.52   29.78
  -1   4  -7  504.47   30.08
   1  -4   8  985.74   69.92
   1  -4   8 1047.59   82.66
   1  -4   8 1039.32   79.89
   1  -4   8  958.76   75.06
   1  -4   8 1072.83   83.34
  -1   4  -8 1013.79   72.96
  -1   4  -8 1102.75   90.50
  -1   4  -8  865.55   76.69
  -1   4  -8  977.81   79.49
  -1   4  -8 1132.20   90.81
   1  -4   9  359.13   21.75
   1  -4   9  404.04   26.45
   1  -4   9  374.22   25.08
   1  -4   9  420.82   27.54
  -1   4  -9  471.31   28.95
  -1   4  -9  340.39   29.27
  -1   4  -9  313.95   25.43
  -1   4  -9  472.69   29.17
   1  -4  10  115.40    9.03
   1  -4  10  109.31    8.79
  -1   4 -10  135.85    9.61
  -1   4 -10  134.61    9.40
   1  -4  11    1.16    1.98
  -1   4 -11    0.33    1.27
  -1   4 -11    0.58    1.27
   1  -4  12  103.00   12.91
  -1   4 -12  111.09    9.64
  -1   4 -12  126.04   14.77
   1  -4  13    4.09    2.12
  -1   4 -13    2.96    3.53
  -1   4 -13    6.83    2.43
   1  -4  14    1.45    1.63
  -1   4 -14    0.04    3.39
  -1   4 -14    1.21    1.85
   1  -4  15   -1.03    1.21
  -1   4 -15    0.74    1.42
  -1   4 -15    0.63    1.37
   1  -4  16    3.15    3.54
  -1   4 -16    2.91    2.45
  -1   4 -16    2.73    3.98
   1  -4  17    0.29    1.53
  -1   4 -17    1.73    1.72
  -1   4 -17   -0.39    1.68
   1  -4  18    2.42    1.98
  -1   4 -18    4.25    3.63
  -1   4 -18    3.63    2.14
   1  -4  19    4.02    1.93
  -1   4 -19    5.78    2.44
  -1   4 -19    5.11    3.48
  -1   3  18   -0.90    2.13
  -1   3  17    0.68    1.17
  -1   3  17    0.82    1.42
  -1   3  16    0.16    2.73
  -1   3  16    3.52    1.96
  -1   3  15   13.01    2.68
  -1   3  15    1.03    2.86
  -1   3  14    1.04    1.69
  -1   3  13   28.99    4.69
   1  -3 -12    2.06    1.84
  -1   3  12    0.29    1.54
   1  -3 -11    8.64    2.35
   1  -3 -11    7.27    1.93
   1  -3 -11    8.64    2.73
  -1   3  11    6.60    3.67
   1  -3 -10    1.05    1.01
   1  -3 -10   -0.15    0.86
   1  -3 -10   -1.57    1.24
  -1   3  10   -0.26    1.64
   1  -3  -9    4.54    1.59
   1  -3  -9    6.32    1.47
   1  -3  -9    6.69    1.50
   1  -3  -9    5.21    1.44
   1  -3  -9    5.32    1.97
  -1   3   9    3.05    0.93
  -1   3   9    3.90    2.41
  -1   3   9    5.37    2.53
   1  -3  -8  204.66   12.67
   1  -3  -8  239.44   13.51
   1  -3  -8  258.67   16.21
   1  -3  -8  188.72   11.78
   1  -3  -8  222.92   15.21
  -1   3   8  188.14   13.47
  -1   3   8  193.97   15.85
  -1   3   8  235.55   14.24
   1  -3  -7  262.41   14.81
   1  -3  -7  275.22   15.39
   1  -3  -7  282.67   14.81
   1  -3  -7  244.83   16.34
   1  -3  -7  277.69   17.60
  -1   3   7  214.07   13.66
  -1   3   7  254.57   16.37
  -1   3   7  243.10   17.69
  -1   3   7  309.23   21.86
   1  -3  -6   61.46    3.67
   1  -3  -6   62.72    4.01
   1  -3  -6   73.12    3.90
   1  -3  -6   57.66    5.33
   1  -3  -6   60.45    4.94
  -1   3   6   49.71    4.53
  -1   3   6   58.39    6.98
  -1   3   6   67.91    3.36
  -1   3   6   56.28    5.82
  -1   3   6   70.73    4.83
   1  -3  -5  504.20   32.14
   1  -3  -5  533.61   32.04
   1  -3  -5  577.94   34.13
   1  -3  -5  511.71   29.47
   1  -3  -5  532.70   33.77
  -1   3   5  529.80   34.55
  -1   3   5  534.37   34.77
  -1   3   5  529.30   28.46
  -1   3   5  509.66   33.25
  -1   3   5  575.45   35.19
   1  -3  -4  109.01    6.47
   1  -3  -4  107.66    5.59
   1  -3  -4  113.63    4.91
   1  -3  -4  109.33    4.97
  -1   3   4  109.41    7.51
  -1   3   4  107.56    6.80
  -1   3   4  114.77    5.28
  -1   3   4  100.22    5.01
  -1   3   4  118.72    8.82
   1  -3  -3    9.11    1.21
   1  -3  -3    8.36    0.90
   1  -3  -3    7.12    0.79
  -1   3   3    8.33    1.86
  -1   3   3    6.74    2.31
  -1   3   3    8.27    0.59
  -1   3   3    6.58    0.84
  -1   3   3    7.61    1.28
  -1   3   3    6.71    1.33
   1  -3  -2  195.97    9.17
   1  -3  -2  193.42    9.04
   1  -3  -2  206.32    8.42
   1  -3  -2  202.63    7.84
  -1   3   2  181.16    9.71
  -1   3   2  202.33   10.56
  -1   3   2  206.81    7.66
  -1   3   2  199.18    9.13
  -1   3   2  190.42    9.27
  -1   3   2  202.57   12.11
   1  -3  -1  115.52    5.47
   1  -3  -1  121.90    8.08
   1  -3  -1  119.27    4.75
   1  -3  -1  118.57    4.23
  -1   3   1  111.93    4.84
  -1   3   1  120.06    6.40
  -1   3   1  109.29    5.00
  -1   3   1  118.08    5.26
  -1   3   1  108.17    7.35
  -1   3   1  110.44    5.54
   1  -3   0  983.85   58.62
   1  -3   0  933.16   61.03
   1  -3   0  923.76   54.32
  -1   3   0  944.43   58.11
  -1   3   0  898.43   54.59
  -1   3   0  948.13   55.58
  -1   3   0  931.72   59.82
   1  -3   1    5.76    0.90
   1  -3   1    5.78    1.09
   1  -3   1    5.98    0.56
  -1   3  -1    6.32    0.79
  -1   3  -1    6.01    0.74
  -1   3  -1    5.88    0.97
  -1   3  -1    5.61    0.56
   1  -3   2   17.50    1.26
   1  -3   2   19.26    1.63
   1  -3   2   15.14    1.68
   1  -3   2   14.12    1.41
   1  -3   2   14.54    1.52
  -1   3  -2   15.49    1.64
  -1   3  -2   15.13    1.96
  -1   3  -2   13.18    1.30
  -1   3  -2   13.40    1.45
   1  -3   3  285.57   13.04
   1  -3   3  304.67   12.72
   1  -3   3  290.87   14.85
   1  -3   3  276.37   12.20
   1  -3   3  295.10   14.38
  -1   3  -3  314.77   13.15
  -1   3  -3  275.65   13.44
  -1   3  -3  294.26   16.90
  -1   3  -3  282.66   13.50
   1  -3   4 1256.89   91.15
   1  -3   4 1408.76  100.26
   1  -3   4 1329.94  101.55
   1  -3   4 1369.78   98.59
   1  -3   4 1198.06   88.16
   1  -3   4 1368.28  107.74
  -1   3  -4 1364.99   97.92
  -1   3  -4 1348.68  106.39
  -1   3  -4 1257.54   95.56
  -1   3  -4 1380.37  101.69
   1  -3   5   35.47    1.78
   1  -3   5   33.56    2.63
   1  -3   5   32.69    2.19
   1  -3   5   29.54    2.19
   1  -3   5   34.01    2.54
  -1   3  -5   36.56    1.80
  -1   3  -5   43.59    3.73
  -1   3  -5   31.69    2.30
  -1   3  -5   37.60    3.60
   1  -3   6  149.61    7.60
   1  -3   6  163.49    8.68
   1  -3   6  162.46   10.49
   1  -3   6  149.00    7.91
   1  -3   6  165.88    8.74
  -1   3  -6  195.19    9.43
  -1   3  -6  190.46    9.23
  -1   3  -6  142.38    8.21
  -1   3  -6  149.67    7.90
  -1   3  -6  173.13    8.55
   1  -3   7   62.69    2.66
   1  -3   7   64.93    4.13
   1  -3   7   60.92    4.09
   1  -3   7   61.16    4.04
   1  -3   7   66.75    4.39
  -1   3  -7   64.31    2.88
  -1   3  -7   62.76    4.45
  -1   3  -7   53.83    4.18
  -1   3  -7   54.66    3.57
  -1   3  -7   65.47    4.06
   1  -3   8   65.96    2.88
   1  -3   8   65.44    4.16
   1  -3   8   67.92    4.86
   1  -3   8   64.00    6.82
   1  -3   8   72.58    5.08
  -1   3  -8   87.97    3.72
  -1   3  -8   78.50    5.38
  -1   3  -8   56.64    4.93
  -1   3  -8   76.12    4.89
   1  -3   9   83.29    6.47
   1  -3   9   79.62    8.67
   1  -3   9   86.84    6.50
  -1   3  -9  104.82    9.80
  -1   3  -9   73.73    6.40
  -1   3  -9   94.40    6.37
   1  -3  10   88.06   10.20
   1  -3  10   86.83    7.21
   1  -3  10   99.14    7.48
  -1   3 -10  109.84    7.90
  -1   3 -10   89.97    7.70
  -1   3 -10  100.26    7.36
   1  -3  11   88.13    7.62
  -1   3 -11  103.70    8.15
  -1   3 -11  107.88   12.01
   1  -3  12   71.63    7.23
  -1   3 -12   78.64    7.40
  -1   3 -12   86.02    7.78
   1  -3  13    0.89    1.33
  -1   3 -13   -0.28    1.43
  -1   3 -13    0.40    1.44
   1  -3  14    1.48    1.75
  -1   3 -14    3.13    3.64
  -1   3 -14    1.41    1.90
   1  -3  15    5.16    3.93
  -1   3 -15    4.08    2.69
   1  -3  16    0.90    1.58
  -1   3 -16    0.32    1.73
  -1   3 -16   -0.16    1.65
   1  -3  17    1.60    1.86
  -1   3 -17    2.38    2.02
  -1   3 -17    0.20    1.91
   1  -3  18   -0.07    1.50
  -1   3 -18    1.84    2.66
  -1   3 -18    0.73    1.53
   1  -3  19    2.11    2.60
  -1   3 -19    1.09    1.92
  -1   3 -19    2.12    2.72
  -1   2  18    0.14    1.47
  -1   2  18   -0.13    1.11
   1  -2 -17    3.27    1.85
  -1   2  17    2.73    1.78
  -1   2  17    3.27    2.09
   1  -2 -16   13.63    3.36
  -1   2  16    9.95    3.02
   1  -2 -15   35.00    7.72
   1  -2 -15   33.20    5.55
  -1   2  15   24.78    4.73
   1  -2 -14    2.99    2.25
   1  -2 -14    3.70    2.43
  -1   2  14    2.23    3.44
   1  -2 -13    4.47    2.13
   1  -2 -13    2.10    2.33
  -1   2  13    1.61    3.18
   1  -2 -12    0.32    1.61
   1  -2 -12    2.87    1.76
  -1   2  12    0.30    1.47
   1  -2 -11   16.37    3.00
   1  -2 -11   14.43    3.23
  -1   2  11   11.21    2.68
   1  -2 -10   10.67    2.38
   1  -2 -10   10.81    1.64
   1  -2 -10    9.20    1.66
   1  -2 -10   12.15    2.57
  -1   2  10    9.03    2.13
   1  -2  -9   69.31    5.54
   1  -2  -9   70.39    4.39
   1  -2  -9   69.08    4.46
   1  -2  -9   61.70    4.92
   1  -2  -9   69.98    6.24
  -1   2   9   64.55    5.33
  -1   2   9   72.55    5.48
   1  -2  -8    6.79    1.13
   1  -2  -8    7.08    1.89
   1  -2  -8    3.45    1.26
   1  -2  -8    9.13    1.75
  -1   2   8    3.71    1.03
  -1   2   8    4.69    2.10
  -1   2   8    3.83    1.38
  -1   2   8    6.58    1.46
   1  -2  -7 1003.74   74.97
   1  -2  -7  973.10   69.31
   1  -2  -7 1048.63   71.97
   1  -2  -7  937.39   67.91
   1  -2  -7  998.72   76.72
  -1   2   7  869.96   63.20
  -1   2   7  987.70   75.00
  -1   2   7 1101.29   76.65
  -1   2   7  942.35   69.88
  -1   2   7 1020.59   74.52
   1  -2  -6   15.52    1.86
   1  -2  -6   17.09    1.36
   1  -2  -6   13.83    1.55
   1  -2  -6   16.23    2.13
  -1   2   6   11.65    1.44
  -1   2   6   13.72    1.99
  -1   2   6   13.59    1.60
  -1   2   6   17.70    2.09
   1  -2  -5  142.11    6.93
   1  -2  -5  134.76    6.16
   1  -2  -5  133.51    6.65
   1  -2  -5  133.54    7.41
   1  -2  -5  140.47    7.52
  -1   2   5  125.30    6.27
  -1   2   5  133.06   10.08
  -1   2   5  153.19    7.76
  -1   2   5  135.04    6.46
  -1   2   5  149.27    7.61
   1  -2  -4   70.73    3.41
   1  -2  -4   72.14    3.26
   1  -2  -4   71.46    2.73
   1  -2  -4   68.90    2.99
   1  -2  -4   70.18    3.93
  -1   2   4   60.60    3.29
  -1   2   4   69.36    4.29
  -1   2   4   72.83    2.81
  -1   2   4   68.00    3.09
  -1   2   4   72.74    3.80
   1  -2  -3  566.69   34.18
   1  -2  -3  604.85   33.35
   1  -2  -3  665.46   36.17
   1  -2  -3  652.86   33.30
   1  -2  -3  604.16   34.82
  -1   2   3  553.41   31.54
  -1   2   3  635.89   38.22
  -1   2   3  701.79   38.95
  -1   2   3  645.21   33.37
  -1   2   3  636.10   36.08
   1  -2  -2  189.01    7.74
   1  -2  -2  179.80    9.13
   1  -2  -2  185.74    6.92
   1  -2  -2  180.63    6.96
  -1   2   2  181.27    7.79
  -1   2   2  188.93   11.38
  -1   2   2  179.08    6.91
  -1   2   2  191.68    6.63
  -1   2   2  195.49    8.28
   1  -2  -1    5.72    0.77
   1  -2  -1    6.63    0.95
   1  -2  -1    5.62    0.53
  -1   2   1    5.40    0.83
  -1   2   1    6.62    1.09
  -1   2   1    5.49    0.70
  -1   2   1    5.96    0.37
  -1   2   1    5.45    0.84
  -1   2   1    5.76    0.89
   1  -2   0  118.45    5.94
   1  -2   0  125.98    5.50
   1  -2   0  126.40    3.48
   1  -2   0  126.21    5.16
  -1   2   0  144.34    5.45
  -1   2   0  138.46    6.17
  -1   2   0  123.89    4.93
  -1   2   0  128.39    5.19
  -1   2   0  132.99    4.05
  -1   2   0  129.78    5.18
   1  -2   1   10.09    1.65
   1  -2   1    9.18    1.23
   1  -2   1    8.33    0.66
  -1   2  -1    9.38    1.21
  -1   2  -1    9.28    0.99
  -1   2  -1    9.79    1.11
   1  -2   2 5300.74  662.52
   1  -2   2 4813.10  615.64
   1  -2   2 4811.22  589.47
   1  -2   2 4260.82  525.29
   1  -2   2 4980.68  626.76
  -1   2  -2 5293.03  651.04
  -1   2  -2 4687.54  595.09
  -1   2  -2 4586.12  584.69
  -1   2  -2 5135.39  642.53
   1  -2   3 4050.75  492.86
   1  -2   3 4454.34  549.41
   1  -2   3 4619.69  578.46
   1  -2   3 4626.66  559.71
   1  -2   3 4163.59  512.84
   1  -2   3 4692.16  577.20
  -1   2  -3 4922.69  588.96
  -1   2  -3 4759.38  593.37
  -1   2  -3 4573.56  583.47
  -1   2  -3 4810.01  589.09
   1  -2   4 3954.18  478.86
   1  -2   4 4983.58  609.61
   1  -2   4 4785.67  609.96
   1  -2   4 4701.39  582.70
   1  -2   4 3867.80  481.32
   1  -2   4 4742.47  587.22
  -1   2  -4 4636.28  554.32
  -1   2  -4 4124.31  526.84
  -1   2  -4 4366.11  553.28
  -1   2  -4 4791.97  595.22
   1  -2   5 1869.83  159.52
   1  -2   5 2195.84  199.33
   1  -2   5 2112.83  189.70
   1  -2   5 1868.06  170.50
   1  -2   5 2174.48  196.21
  -1   2  -5 2256.95  190.00
  -1   2  -5 1958.02  180.87
  -1   2  -5 2050.01  189.14
  -1   2  -5 2204.00  196.69
   1  -2   6   88.58    2.89
   1  -2   6  105.87    7.49
   1  -2   6   95.93    5.09
   1  -2   6   87.73    4.90
   1  -2   6   93.72    6.45
  -1   2  -6  104.34    4.04
  -1   2  -6  118.54    5.63
  -1   2  -6   85.23    5.27
  -1   2  -6   92.60    5.25
  -1   2  -6  100.81    6.69
   1  -2   7  166.97    8.15
   1  -2   7  151.90    8.33
   1  -2   7  143.80    7.98
   1  -2   7  147.51    9.84
  -1   2  -7  157.51    6.04
  -1   2  -7  173.73    8.91
  -1   2  -7  124.58    7.97
  -1   2  -7  145.85    8.20
  -1   2  -7  171.80    8.43
   1  -2   8   53.89    3.42
   1  -2   8   50.69    5.53
   1  -2   8   45.07    3.68
   1  -2   8   51.61    3.42
  -1   2  -8   55.95    3.98
  -1   2  -8   42.20    3.89
  -1   2  -8   46.98    3.51
  -1   2  -8   50.79    3.63
   1  -2   9    2.49    0.84
   1  -2   9    2.30    1.28
   1  -2   9    2.61    1.32
   1  -2   9    3.76    1.19
  -1   2  -9    4.67    2.23
  -1   2  -9    5.76    1.44
  -1   2  -9    2.41    1.15
  -1   2  -9    4.38    1.26
   1  -2  10   29.38    2.45
   1  -2  10   33.77    3.51
   1  -2  10   34.33    3.63
   1  -2  10   31.31    3.16
  -1   2 -10   41.57    3.75
  -1   2 -10   32.80    3.78
  -1   2 -10   23.75    2.97
  -1   2 -10   41.17    5.77
   1  -2  11    1.72    1.32
   1  -2  11    1.26    1.36
  -1   2 -11    2.00    1.38
  -1   2 -11    1.03    1.16
  -1   2 -11    0.94    1.41
   1  -2  12   72.39    7.40
  -1   2 -12   88.42    7.70
  -1   2 -12   91.24    7.88
   1  -2  13    1.13    1.92
  -1   2 -13   -0.28    1.24
  -1   2 -13   -0.34    1.25
   1  -2  14   14.39    6.45
  -1   2 -14   26.33    7.40
  -1   2 -14   21.87    6.63
   1  -2  15    1.01    1.69
  -1   2 -15    1.44    1.84
  -1   2 -15   -0.28    1.72
   1  -2  16    5.33    2.74
  -1   2 -16    7.11    2.91
  -1   2 -16    5.40    2.77
   1  -2  17    1.31    1.97
  -1   2 -17    1.48    2.08
  -1   2 -17    2.25    1.95
   1  -2  18    0.43    3.05
  -1   2 -18    3.45    3.61
  -1   2 -18    2.53    3.10
   1  -2  19    3.15    1.87
  -1   2 -19    3.86    2.15
  -1   2 -19    2.67    1.83
  -1   1  19    3.86    1.33
  -1   1  19   -1.41    1.60
   1  -1 -18    1.99    1.90
  -1   1  18    2.48    1.62
   1  -1 -17    7.88    4.70
   1  -1 -17    8.14    2.91
  -1   1  17    4.64    2.36
   1  -1 -16   22.51    4.53
   1  -1 -16   19.33    4.78
  -1   1  16   17.64    6.30
   1  -1 -15    2.50    2.34
   1  -1 -15    3.15    2.34
  -1   1  15    1.48    2.05
   1  -1 -14    0.79    1.58
   1  -1 -14   -0.26    1.55
  -1   1  14    0.05    1.35
   1  -1 -13    5.72    2.53
   1  -1 -13    4.73    2.50
  -1   1  13    3.87    2.14
   1  -1 -12  125.69   10.69
   1  -1 -12  118.12   15.11
  -1   1  12  104.50    9.64
   1  -1 -11    5.40    3.44
   1  -1 -11    5.03    3.34
  -1   1  11    3.71    2.89
   1  -1 -10   23.76    4.73
   1  -1 -10   23.40    3.33
  -1   1  10   20.04    4.33
  -1   1  10   21.32    4.27
   1  -1  -9   23.83    4.35
   1  -1  -9   23.32    1.71
   1  -1  -9   20.22    1.76
   1  -1  -9   24.50    3.10
  -1   1   9   17.99    3.53
  -1   1   9   22.46    2.55
  -1   1   9   28.14    4.17
   1  -1  -8   61.36    4.45
   1  -1  -8   52.88    6.31
   1  -1  -8   55.25    2.88
   1  -1  -8   60.71    3.18
   1  -1  -8   56.92    4.70
  -1   1   8   51.39    3.97
  -1   1   8   69.28    4.35
  -1   1   8   52.65    3.95
  -1   1   8   61.01    4.30
   1  -1  -7  550.43   33.92
   1  -1  -7  477.01   34.80
   1  -1  -7  484.28   26.86
   1  -1  -7  494.72   28.52
   1  -1  -7  531.21   33.59
  -1   1   7  511.26   31.54
  -1   1   7  570.42   32.86
  -1   1   7  512.50   30.70
  -1   1   7  548.16   32.91
   1  -1  -6   51.61    3.40
   1  -1  -6   49.11    4.80
   1  -1  -6   50.09    2.25
   1  -1  -6   50.42    2.14
   1  -1  -6   49.57    2.86
   1  -1  -6   60.34    3.62
  -1   1   6   50.54    5.15
  -1   1   6   55.82    4.19
  -1   1   6   48.69    2.86
  -1   1   6   52.19    3.11
   1  -1  -5   40.94    2.80
   1  -1  -5   40.92    3.83
   1  -1  -5   41.04    1.81
   1  -1  -5   47.11    2.46
   1  -1  -5   40.79    2.68
  -1   1   5   39.76    2.95
  -1   1   5   48.31    2.29
  -1   1   5   39.74    2.18
  -1   1   5   46.06    4.05
   1  -1  -4  167.77    8.16
   1  -1  -4  168.74    7.84
   1  -1  -4  167.53    6.30
   1  -1  -4  167.27    5.73
   1  -1  -4  162.16    6.37
   1  -1  -4  164.98    7.51
  -1   1   4  163.35    8.35
  -1   1   4  173.33    6.87
  -1   1   4  165.43    6.52
  -1   1   4  180.47    7.77
   1  -1  -3   31.37    3.31
   1  -1  -3   32.23    2.01
   1  -1  -3   30.70    2.03
   1  -1  -3   33.45    1.17
   1  -1  -3   31.02    1.20
   1  -1  -3   31.44    2.86
  -1   1   3   31.76    3.62
  -1   1   3   36.03    1.85
  -1   1   3   31.77    1.31
  -1   1   3   34.11    1.80
   1  -1  -2 2137.28  196.47
   1  -1  -2 2149.83  198.82
   1  -1  -2 2404.42  210.84
   1  -1  -2 2116.79  178.80
   1  -1  -2 2302.17  204.51
  -1   1   2 2173.96  201.03
  -1   1   2 2288.29  207.52
  -1   1   2 2269.82  190.97
   1  -1  -1   40.06    2.14
   1  -1  -1   39.24    2.03
   1  -1  -1   35.61    2.56
  -1   1   1   39.76    2.28
  -1   1   1   37.10    1.90
  -1   1   1   40.52    2.33
  -1   1   1   39.56    1.60
   1  -1   0 1781.32  138.67
   1  -1   0 1809.07  140.49
   1  -1   0 1735.07  135.32
   1  -1   0 1863.69  139.15
  -1   1   0 1674.72  132.10
  -1   1   0 1775.23  138.40
  -1   1   0 1719.44  132.79
  -1   1   0 1841.71  137.94
   1  -1   1    3.16    0.71
   1  -1   1    2.63    0.76
   1  -1   1    3.09    0.22
   1  -1   1    2.58    0.47
  -1   1  -1    2.70    0.77
  -1   1  -1    2.86    0.76
  -1   1  -1    4.26    0.45
   1  -1   2 3846.45  423.37
   1  -1   2 3824.18  426.13
   1  -1   2 3427.47  371.69
   1  -1   2 3624.32  392.93
  -1   1  -2 4055.09  429.47
  -1   1  -2 3593.75  401.44
  -1   1  -2 3569.28  407.36
  -1   1  -2 3319.10  357.63
  -1   1  -2 3688.84  398.25
   1  -1   3    5.04    1.57
   1  -1   3    3.66    0.97
   1  -1   3    4.21    1.07
   1  -1   3    7.49    1.16
  -1   1  -3    4.65    0.43
  -1   1  -3    5.45    1.71
  -1   1  -3    4.64    1.00
  -1   1  -3    4.85    0.64
  -1   1  -3    4.94    0.62
   1  -1   4 1700.08  129.04
   1  -1   4 1713.60  134.71
   1  -1   4 1556.94  123.86
   1  -1   4 1539.29  117.08
  -1   1  -4 1467.68  101.23
  -1   1  -4 1459.35  115.47
  -1   1  -4 1494.71  120.50
  -1   1  -4 1628.60  124.64
  -1   1  -4 1681.30  126.61
   1  -1   5   29.34    2.01
   1  -1   5   27.30    1.94
   1  -1   5   31.93    1.79
  -1   1  -5   30.04    2.17
  -1   1  -5   27.67    2.28
  -1   1  -5   30.73    1.99
  -1   1  -5   31.61    1.82
   1  -1   6  128.81    6.10
   1  -1   6  110.19    5.76
   1  -1   6  106.52    5.16
  -1   1  -6  141.40    6.36
  -1   1  -6   99.02    5.70
  -1   1  -6  107.06    6.07
  -1   1  -6  121.92    6.04
  -1   1  -6  120.75    5.68
   1  -1   7  486.59   29.39
   1  -1   7  470.59   27.87
   1  -1   7  468.03   26.47
  -1   1  -7  546.05   30.51
  -1   1  -7  351.34   23.19
  -1   1  -7  476.62   28.93
  -1   1  -7  499.38   28.97
  -1   1  -7  503.71   28.21
   1  -1   8    5.13    1.00
   1  -1   8    4.19    1.35
   1  -1   8    4.70    1.17
  -1   1  -8    6.10    1.37
  -1   1  -8    6.62    1.36
  -1   1  -8    6.33    2.26
   1  -1   9   53.17    3.33
   1  -1   9   43.74    4.07
   1  -1   9   46.58    3.56
  -1   1  -9   57.90    6.25
  -1   1  -9   41.96    3.83
  -1   1  -9   53.79    4.22
   1  -1  10    5.67    1.91
   1  -1  10    3.82    1.72
   1  -1  10    4.13    1.78
   1  -1  10    5.92    1.51
  -1   1 -10   10.70    1.71
  -1   1 -10    4.70    1.59
  -1   1 -10    4.86    1.74
   1  -1  11    8.03    1.31
   1  -1  11    8.99    3.66
  -1   1 -11   12.60    2.18
  -1   1 -11    7.21    3.23
  -1   1 -11   11.58    2.28
   1  -1  12   11.93    4.44
  -1   1 -12   10.63    2.49
  -1   1 -12   10.12    4.13
   1  -1  13    3.08    2.01
  -1   1 -13    3.31    2.87
  -1   1 -13    2.31    1.97
   1  -1  14   15.70    3.91
  -1   1 -14   20.86    3.97
  -1   1 -14   17.58    3.83
   1  -1  15    7.89    3.13
  -1   1 -15   10.79    3.22
  -1   1 -15    9.10    3.09
   1  -1  16    0.87    1.76
  -1   1 -16    2.29    1.80
  -1   1 -16   -3.47    2.90
   1  -1  17    4.41    3.04
  -1   1 -17    0.45    3.09
  -1   1 -17   -0.90    2.98
   1  -1  18   10.76    3.06
  -1   1 -18   11.72    3.40
  -1   1 -18   10.30    2.94
   1  -1  19   -0.76    1.57
  -1   1 -19    2.84    1.51
  -1   1 -19    1.21    1.33
   1   0 -19    1.15    1.67
  -1   0  19    1.62    1.35
   1   0 -18   11.95    5.58
   1   0 -18   10.21    3.18
  -1   0  18    6.68    4.27
   1   0 -17   31.14    5.22
   1   0 -17   25.51    4.98
  -1   0  17   20.30    4.41
   1   0 -16   15.60    4.21
   1   0 -16   14.64    4.02
  -1   0  16   12.12    3.57
   1   0 -15   41.75    6.59
   1   0 -15   39.65    6.35
  -1   0  15   37.81    5.93
   1   0 -14    6.37    2.68
   1   0 -14    3.58    4.06
  -1   0  14    2.32    2.20
   1   0 -13    9.79    3.09
   1   0 -13    7.30    2.88
  -1   0  13    7.32    3.92
   1   0 -12   56.89    9.90
   1   0 -12   54.37    6.12
  -1   0  12   47.25    5.45
   1   0 -11    1.98    2.32
   1   0 -11    0.25    1.43
  -1   0  11    1.38    1.22
   1   0 -10  214.73   14.18
   1   0 -10  260.85   16.97
   1   0 -10  273.96   17.88
  -1   0  10  245.48   15.71
  -1   0  10  265.27   15.49
   1   0  -9  127.59    8.29
   1   0  -9  138.02    9.07
   1   0  -9  149.92    9.57
  -1   0   9  124.88    7.15
  -1   0   9  137.96    8.48
  -1   0   9  145.36    8.20
   1   0  -8  147.73   11.12
   1   0  -8  129.40    7.98
   1   0  -8  109.18    4.43
   1   0  -8  123.73    6.07
   1   0  -8  144.21    8.37
  -1   0   8  118.13    8.20
  -1   0   8  155.15    8.08
  -1   0   8  135.75    9.91
  -1   0   8  138.38    9.59
   1   0  -7  490.85   29.15
   1   0  -7  400.97   24.75
   1   0  -7  377.61   18.37
   1   0  -7  425.96   21.36
   1   0  -7  464.70   31.14
  -1   0   7  474.75   30.59
  -1   0   7  474.42   26.39
  -1   0   7  452.18   25.64
  -1   0   7  463.66   29.07
   1   0  -6   31.20    2.57
   1   0  -6   28.41    2.43
   1   0  -6   29.27    1.06
   1   0  -6   30.68    1.16
   1   0  -6   31.18    3.62
  -1   0   6   29.04    2.36
  -1   0   6   33.91    3.24
  -1   0   6   29.94    2.07
  -1   0   6   29.90    2.07
   1   0  -5   46.30    3.00
   1   0  -5   44.42    2.74
   1   0  -5   42.05    1.69
   1   0  -5   45.00    1.27
   1   0  -5   42.91    3.79
  -1   0   5   45.61    2.88
  -1   0   5   53.26    2.48
  -1   0   5   47.60    2.34
  -1   0   5   45.18    2.30
   1   0  -4  148.68    9.36
   1   0  -4  131.63    8.00
   1   0  -4  141.42    4.27
   1   0  -4  146.24    7.59
  -1   0   4  148.81    6.91
  -1   0   4  147.06    5.87
  -1   0   4  149.66    6.83
  -1   0   4  140.74    5.53
   1   0  -3  386.19   23.29
   1   0  -3  394.31   19.53
   1   0  -3  381.36   16.13
   1   0  -3  392.23   14.91
   1   0  -3  401.33   18.17
  -1   0   3  362.26   18.75
  -1   0   3  444.11   20.68
  -1   0   3  418.99   18.01
  -1   0   3  360.74   17.72
   1   0  -2  282.90   12.91
   1   0  -2  253.51   11.43
   1   0  -2  251.44   10.19
   1   0  -2  281.78   10.26
   1   0  -2  266.74   10.18
  -1   0   2  244.48   11.51
  -1   0   2  254.79   11.09
  -1   0   2  294.58   10.99
  -1   0   2  277.96   10.44
   1   0  -1 2560.66  254.22
   1   0  -1 2999.04  291.83
   1   0  -1 2789.59  264.78
   1   0  -1 2791.97  259.00
   1   0  -1 2856.97  264.68
  -1   0   1 2594.09  259.81
  -1   0   1 2965.81  286.88
  -1   0   1 2891.20  273.67
  -1   0   1 2923.61  272.30
  -1   0   1 2866.78  267.07
   1   0   0   51.01    2.11
   1   0   0   51.86    2.28
   1   0   0   46.39    1.85
   1   0   0   50.44    1.36
  -1   0   0   49.17    1.87
  -1   0   0   46.99    2.15
  -1   0   0   50.18    1.86
  -1   0   0   53.64    1.38
  -1   0   0   49.44    1.26
   1   0   1   32.32    1.94
   1   0   1   31.40    1.69
   1   0   1   30.57    1.67
   1   0   1   30.95    1.71
   1   0   1   28.56    0.98
  -1   0  -1   30.59    1.20
  -1   0  -1   28.77    1.62
  -1   0  -1   30.72    2.72
  -1   0  -1   30.68    1.52
  -1   0  -1   30.44    0.93
   1   0   2 7715.35 1293.71
   1   0   2 9999.00 1702.37
   1   0   2 8968.51 1536.81
   1   0   2 9205.31 1566.70
   1   0   2 9221.43 1541.02
  -1   0  -2 8906.49 1481.03
  -1   0  -2 9447.93 1619.62
  -1   0  -2 8728.97 1505.00
  -1   0  -2 9259.15 1571.66
  -1   0  -2 9163.36 1538.79
   1   0   3  120.87    6.05
   1   0   3  134.15    5.95
   1   0   3  135.95    7.31
   1   0   3  125.19    5.35
  -1   0  -3  138.72    5.93
  -1   0  -3  118.43    5.92
  -1   0  -3  142.06    5.67
  -1   0  -3  131.66    4.60
   1   0   4 2678.41  248.31
   1   0   4 2690.51  256.04
   1   0   4 2336.35  228.20
   1   0   4 2207.29  207.59
  -1   0  -4 2253.01  220.62
  -1   0  -4 2678.76  252.73
  -1   0  -4 2379.14  224.80
   1   0   5   62.05    4.31
   1   0   5   59.30    4.80
   1   0   5   56.63    2.57
  -1   0  -5   58.14    3.68
  -1   0  -5   67.40    3.69
  -1   0  -5   75.36    4.60
   1   0   6    0.76    0.62
   1   0   6    0.05    1.21
  -1   0  -6    0.47    0.63
  -1   0  -6    0.39    0.79
  -1   0  -6   -0.65    1.21
  -1   0  -6    1.26    0.65
   1   0   7   40.20    2.54
   1   0   7   31.37    4.44
   1   0   7   36.98    3.38
  -1   0  -7   37.80    2.71
  -1   0  -7   30.81    2.96
  -1   0  -7   33.58    3.03
  -1   0  -7   40.73    2.83
   1   0   8  380.46   20.17
   1   0   8  306.07   24.26
   1   0   8  290.07   19.03
  -1   0  -8  350.68   22.79
  -1   0  -8  298.79   22.95
  -1   0  -8  322.73   19.70
  -1   0  -8  338.57   19.71
   1   0   9   87.63    6.32
   1   0   9   74.90    9.20
   1   0   9   81.38    7.21
  -1   0  -9   97.48    5.91
  -1   0  -9   77.69    8.83
  -1   0  -9   79.44    6.15
  -1   0  -9   84.37    8.26
   1   0  10   59.70    3.87
   1   0  10   57.04    5.61
   1   0  10   60.23    4.53
  -1   0 -10   66.65    4.93
  -1   0 -10   57.77    5.34
  -1   0 -10   56.55    5.32
  -1   0 -10   66.46    7.83
   1   0  11   66.21    4.47
   1   0  11   62.18    6.46
  -1   0 -11   73.52    5.76
  -1   0 -11   61.73    5.92
  -1   0 -11   72.43    6.38
   1   0  12    4.09    1.28
   1   0  12    6.43    2.26
  -1   0 -12    6.15    1.89
  -1   0 -12    6.89    2.12
   1   0  13    3.15    1.63
   1   0  13    1.30    1.87
  -1   0 -13   -0.81    2.97
  -1   0 -13    1.06    1.75
   1   0  14   -0.40    1.68
  -1   0 -14    0.65    1.59
  -1   0 -14    1.42    1.57
   1   0  15    3.96    3.15
  -1   0 -15   -0.40    1.87
  -1   0 -15    2.82    3.06
   1   0  16   12.13    5.07
  -1   0 -16    8.71    2.86
  -1   0 -16    6.21    2.89
   1   0  17    8.54    2.95
  -1   0 -17   10.85    4.71
  -1   0 -17    7.27    2.65
   1   0  18    3.04    2.25
  -1   0 -18    5.28    2.05
  -1   0 -18    3.70    1.87
   1   0  19   12.27    2.61
   1   0  19    7.19    1.85
  -1  -1  20   -0.25    0.94
   1   1 -19    0.90    1.66
   1   1 -19    1.02    1.44
  -1  -1  19   -1.13    2.12
   1   1 -18    3.79    3.86
   1   1 -18    3.20    2.17
  -1  -1  18    1.87    1.94
   1   1 -17   57.52    7.74
   1   1 -17   46.45    7.09
  -1  -1  17   42.14    6.67
   1   1 -16   35.15    6.24
   1   1 -16   28.65    8.97
  -1  -1  16   27.16    5.27
   1   1 -15  195.92   18.73
   1   1 -15  185.61   17.69
  -1  -1  15  157.58   20.85
   1   1 -14  194.35   17.44
   1   1 -14  170.50   15.96
  -1  -1  14  148.45   14.19
   1   1 -13   45.52    9.45
   1   1 -13   39.80    5.37
  -1  -1  13   31.71    4.65
   1   1 -12    1.53    2.72
   1   1 -12    1.56    1.63
  -1  -1  12    1.14    1.43
   1   1 -11   60.70    6.10
   1   1 -11   64.23    5.97
  -1  -1  11   56.63    7.77
   1   1 -10    6.92    1.93
   1   1 -10   11.40    2.33
   1   1 -10   12.05    3.56
  -1  -1  10    9.69    1.94
  -1  -1  10   10.38    1.79
   1   1  -9    4.19    1.45
   1   1  -9    6.35    1.65
   1   1  -9    6.39    2.41
  -1  -1   9    4.66    1.75
  -1  -1   9    4.14    1.37
  -1  -1   9    4.53    1.23
   1   1  -8   63.95    6.78
   1   1  -8   59.07    4.62
   1   1  -8   65.41    4.41
  -1  -1   8   64.11    3.83
  -1  -1   8   76.42    4.47
  -1  -1   8   62.92    4.30
  -1  -1   8   64.91    3.89
   1   1  -7   23.18    3.70
   1   1  -7   19.74    2.24
   1   1  -7   21.50    2.00
  -1  -1   7   19.29    1.77
  -1  -1   7   22.36    1.97
  -1  -1   7   20.09    3.08
  -1  -1   7   19.82    1.70
   1   1  -6   15.10    1.89
   1   1  -6   14.23    1.71
   1   1  -6   15.10    1.48
  -1  -1   6   13.64    1.41
  -1  -1   6   16.36    1.50
  -1  -1   6   14.79    1.48
  -1  -1   6   14.54    1.25
   1   1  -5   29.46    2.47
   1   1  -5   25.00    2.07
   1   1  -5   29.39    1.76
  -1  -1   5   26.88    1.87
  -1  -1   5   32.94    1.84
  -1  -1   5   29.93    1.84
  -1  -1   5   26.89    1.51
   1   1  -4   62.12    5.39
   1   1  -4   55.34    4.28
   1   1  -4   58.89    2.46
  -1  -1   4   53.71    2.78
  -1  -1   4   62.31    2.66
  -1  -1   4   53.73    2.11
   1   1  -3   39.28    2.55
   1   1  -3   39.06    2.25
   1   1  -3   46.63    1.94
   1   1  -3   40.93    2.21
  -1  -1   3   35.05    2.07
  -1  -1   3   38.76    2.60
  -1  -1   3   37.34    1.34
   1   1  -2  306.02   14.59
   1   1  -2  300.18   13.43
   1   1  -2  274.34    9.95
   1   1  -2  312.01   12.97
   1   1  -2  298.25   12.02
  -1  -1   2  292.62   13.17
  -1  -1   2  335.76   13.88
  -1  -1   2  304.46   11.03
  -1  -1   2  305.17   12.65
  -1  -1   2  288.52   11.26
   1   1  -1 2168.68  187.28
   1   1  -1 2132.91  181.51
   1   1  -1 1744.72  144.46
   1   1  -1 2142.38  179.00
   1   1  -1 1808.84  143.03
  -1  -1   1 2178.02  184.26
  -1  -1   1 2202.06  184.79
  -1  -1   1 2087.07  172.19
  -1  -1   1 2341.22  194.38
  -1  -1   1 2071.51  162.61
   1   1   0  943.71   58.70
   1   1   0  963.91   58.81
   1   1   0  823.98   50.95
   1   1   0 1017.14   61.21
  -1  -1   0 1093.40   66.86
  -1  -1   0  986.29   59.74
  -1  -1   0  931.69   58.63
  -1  -1   0 1030.88   61.56
   1   1   1   61.66    3.45
   1   1   1   64.07    2.48
   1   1   1   53.73    2.31
   1   1   1   59.18    3.77
   1   1   1   56.73    1.35
  -1  -1  -1   64.36    1.93
  -1  -1  -1   56.49    2.49
  -1  -1  -1   52.79    3.45
  -1  -1  -1   64.52    2.75
   1   1   2 4354.92  579.82
   1   1   2 6133.83  813.17
   1   1   2 5237.31  704.58
   1   1   2 5640.44  762.11
   1   1   2 4932.40  644.41
  -1  -1  -2 5620.45  726.99
  -1  -1  -2 6024.75  814.08
  -1  -1  -2 4861.26  671.19
  -1  -1  -2 6193.15  841.33
  -1  -1  -2 5099.20  668.24
   1   1   3 1747.21  131.69
   1   1   3 1709.80  131.10
   1   1   3 1605.62  128.72
   1   1   3 1679.25  141.14
  -1  -1  -3 1800.31  129.63
  -1  -1  -3 1654.98  131.53
  -1  -1  -3 1427.66  123.36
  -1  -1  -3 1735.15  139.76
  -1  -1  -3 1686.28  129.61
   1   1   4  456.08   19.84
   1   1   4  524.59   25.31
   1   1   4  479.03   25.36
   1   1   4  469.11   26.15
   1   1   4  430.22   22.85
  -1  -1  -4  467.05   30.77
  -1  -1  -4  507.09   30.60
  -1  -1  -4  494.17   27.02
   1   1   5  821.73   50.51
   1   1   5  687.91   45.76
   1   1   5  658.27   39.43
  -1  -1  -5  847.66   49.91
  -1  -1  -5  710.38   47.71
  -1  -1  -5  757.57   48.68
  -1  -1  -5  762.11   49.70
   1   1   6  100.39    7.14
   1   1   6   80.65    5.63
   1   1   6   81.35    3.98
  -1  -1  -6   94.42    4.60
  -1  -1  -6   88.83    5.86
  -1  -1  -6   91.81    5.67
  -1  -1  -6   91.02    4.95
   1   1   7  421.58   25.35
   1   1   7  346.87   22.85
   1   1   7  358.51   19.58
  -1  -1  -7  406.71   24.75
  -1  -1  -7  376.03   23.90
  -1  -1  -7  385.59   24.42
  -1  -1  -7  394.07   23.02
   1   1   8   23.07    2.01
   1   1   8   18.53    2.87
   1   1   8   19.78    1.98
  -1  -1  -8   27.58    3.50
  -1  -1  -8   23.46    2.87
  -1  -1  -8   25.59    4.37
  -1  -1  -8   23.46    2.43
   1   1   9  131.78    7.00
   1   1   9  108.45    8.64
   1   1   9  102.97    6.34
  -1  -1  -9  121.31    7.18
  -1  -1  -9  109.03    8.19
  -1  -1  -9  114.04    8.26
  -1  -1  -9  118.62    7.97
   1   1  10    3.17    1.07
   1   1  10    3.26    1.70
   1   1  10    1.91    1.83
  -1  -1 -10    2.93    1.24
  -1  -1 -10    2.14    2.58
  -1  -1 -10    2.71    1.45
   1   1  11   63.30    6.43
   1   1  11   59.06    6.63
  -1  -1 -11   62.56    7.22
  -1  -1 -11   61.56    6.12
   1   1  12    7.32    2.73
   1   1  12    8.44    2.76
  -1  -1 -12   11.85    3.98
  -1  -1 -12    7.71    3.97
   1   1  13    2.64    1.30
   1   1  13    3.11    3.63
  -1  -1 -13    3.66    1.95
  -1  -1 -13    6.90    3.31
   1   1  14    1.64    3.07
  -1  -1 -14    1.58    1.64
  -1  -1 -14    0.57    1.71
   1   1  15    9.07    3.11
  -1  -1 -15    6.78    2.55
  -1  -1 -15    7.74    2.69
   1   1  16    2.68    2.27
  -1  -1 -16    3.00    3.24
  -1  -1 -16    2.90    1.91
   1   1  17    0.56    1.43
  -1  -1 -17   -0.09    1.13
   1   1  18    0.37    2.61
   1   1  18    1.33    1.06
   1   2 -20    4.40    2.17
   1   2 -20    3.11    1.78
  -1  -2  20    3.13    2.65
   1   2 -19   12.28    4.82
   1   2 -19    6.99    2.39
  -1  -2  19    4.36    2.22
   1   2 -18    5.00    2.63
   1   2 -18    3.31    2.29
  -1  -2  18    2.43    2.11
   1   2 -17   23.94    5.08
   1   2 -17   18.01    7.15
  -1  -2  17   17.53    4.35
   1   2 -16    5.44    3.08
   1   2 -16    3.16    2.68
  -1  -2  16    5.40    3.90
   1   2 -15  139.77   14.24
   1   2 -15  119.02   12.77
  -1  -2  15  109.35   11.66
   1   2 -14    5.05    4.44
   1   2 -14    3.36    2.32
  -1  -2  14    2.34    2.11
   1   2 -13   32.57    7.49
   1   2 -13   29.23    4.55
  -1  -2  13   24.72    4.14
   1   2 -12  109.40   14.04
   1   2 -12  109.02   13.79
  -1  -2  12  112.38   12.81
   1   2 -11    5.79    1.92
   1   2 -11    8.22    2.21
   1   2 -11    6.88    1.99
  -1  -2  11    5.42    1.88
  -1  -2  11    5.47    1.93
   1   2 -10  104.29   11.05
   1   2 -10  102.61    8.10
   1   2 -10  127.01    7.10
   1   2 -10  110.11    7.74
  -1  -2  10   97.22    5.76
  -1  -2  10  106.72    7.64
  -1  -2  10  107.05    7.04
   1   2  -9    6.66    1.79
   1   2  -9    7.48    1.85
   1   2  -9    7.27    1.65
  -1  -2   9    6.17    1.10
  -1  -2   9    7.70    1.62
  -1  -2   9    6.73    1.41
   1   2  -8  192.79   11.93
   1   2  -8  155.33    9.93
   1   2  -8  183.07   10.23
  -1  -2   8  159.24    8.31
  -1  -2   8  205.87   10.49
  -1  -2   8  178.74   10.16
  -1  -2   8  180.70    9.45
   1   2  -7  385.93   23.05
   1   2  -7  310.13   18.75
   1   2  -7  385.35   23.76
  -1  -2   7  330.07   17.72
  -1  -2   7  388.69   20.51
  -1  -2   7  355.14   20.03
  -1  -2   7  352.70   18.73
   1   2  -6   75.66    7.02
   1   2  -6   70.41    4.28
   1   2  -6   70.64    4.94
  -1  -2   6   67.52    3.58
  -1  -2   6   81.89    3.97
  -1  -2   6   82.69    4.31
  -1  -2   6   74.20    3.58
   1   2  -5  312.29   16.62
   1   2  -5  271.91   13.76
   1   2  -5  314.74   15.30
   1   2  -5  281.38   12.87
  -1  -2   5  268.95   13.02
  -1  -2   5  315.01   16.24
  -1  -2   5  295.78   13.26
   1   2  -4 1541.71  122.86
   1   2  -4 1497.53  120.17
   1   2  -4 1521.00  116.47
   1   2  -4 1366.03  101.20
  -1  -2   4 1309.90  100.70
  -1  -2   4 1610.40  118.90
  -1  -2   4 1455.22  106.92
   1   2  -3   28.80    3.63
   1   2  -3   25.77    1.66
   1   2  -3   26.58    1.77
   1   2  -3   26.71    1.57
  -1  -2   3   25.80    1.60
  -1  -2   3   26.46    1.26
  -1  -2   3   29.58    1.00
  -1  -2   3   26.34    1.78
  -1  -2   3   27.07    1.71
   1   2  -2  188.13    8.74
   1   2  -2  191.72    9.32
   1   2  -2  214.69    7.34
   1   2  -2  212.96   10.94
   1   2  -2  187.86    6.39
  -1  -2   2  204.22    8.51
  -1  -2   2  245.46    9.98
  -1  -2   2  207.10    7.19
  -1  -2   2  221.37    9.41
  -1  -2   2  205.68    7.87
   1   2  -1    0.82    0.54
   1   2  -1    0.36    0.63
   1   2  -1   -0.04    0.25
   1   2  -1    0.82    0.53
  -1  -2   1    0.20    0.45
  -1  -2   1    0.53    0.29
  -1  -2   1    1.21    0.34
  -1  -2   1    0.76    0.32
   1   2   0   32.42    1.82
   1   2   0   31.07    1.81
   1   2   0   34.40    1.33
   1   2   0   36.62    2.05
   1   2   0   33.87    0.88
   1   2   0   35.32    1.24
  -1  -2   0   35.96    2.00
  -1  -2   0   35.77    1.33
  -1  -2   0   29.96    1.48
  -1  -2   0   37.28    2.03
   1   2   1    3.11    0.62
   1   2   1    3.78    0.59
   1   2   1    2.34    0.53
   1   2   1    3.11    0.83
   1   2   1    2.92    0.49
   1   2   1    3.94    0.47
  -1  -2  -1    3.59    0.43
  -1  -2  -1    2.75    0.47
  -1  -2  -1    2.42    0.67
  -1  -2  -1    1.64    1.33
   1   2   2    1.38    0.47
   1   2   2    1.36    0.45
   1   2   2    1.39    0.87
   1   2   2    1.26    1.24
   1   2   2    2.43    0.54
  -1  -2  -2    2.14    0.56
  -1  -2  -2    1.37    0.45
  -1  -2  -2    1.04    0.72
  -1  -2  -2    0.45    0.76
   1   2   3   12.15    1.26
   1   2   3   11.45    1.13
   1   2   3   12.16    1.60
   1   2   3   11.71    0.76
  -1  -2  -3   13.14    0.99
  -1  -2  -3   12.64    1.56
  -1  -2  -3   13.87    2.45
  -1  -2  -3   11.69    0.92
   1   2   4   24.67    1.62
   1   2   4   26.72    1.91
   1   2   4   27.23    2.45
   1   2   4   23.75    1.39
  -1  -2  -4   29.82    1.15
  -1  -2  -4   30.37    1.41
  -1  -2  -4   24.73    2.42
  -1  -2  -4   28.54    2.38
  -1  -2  -4   24.37    1.60
   1   2   5  335.46   17.25
   1   2   5  325.57   19.23
   1   2   5  305.77   15.14
  -1  -2  -5  343.47   16.03
  -1  -2  -5  316.79   18.52
  -1  -2  -5  357.92   23.43
  -1  -2  -5  323.57   19.12
   1   2   6 1110.80   78.86
   1   2   6  981.72   83.51
   1   2   6 1010.79   74.15
  -1  -2  -6 1063.81   76.03
  -1  -2  -6 1005.03   82.75
  -1  -2  -6 1059.01   80.81
  -1  -2  -6  992.05   76.40
   1   2   7  103.12    5.62
   1   2   7   84.01    9.53
   1   2   7   84.81    4.64
  -1  -2  -7   99.57    4.97
  -1  -2  -7   97.59   10.10
  -1  -2  -7   91.92    6.69
  -1  -2  -7   86.19    7.51
   1   2   8   43.54    3.00
   1   2   8   33.62    6.17
   1   2   8   33.05    2.64
  -1  -2  -8   38.62    2.72
  -1  -2  -8   42.72    4.19
  -1  -2  -8   39.24    3.96
  -1  -2  -8   36.62    5.02
   1   2   9    7.58    1.39
   1   2   9    5.81    3.20
   1   2   9    4.87    1.24
  -1  -2  -9    4.81    1.23
  -1  -2  -9    6.52    2.04
  -1  -2  -9    5.41    2.62
   1   2  10   22.02    3.32
   1   2  10   10.49    4.68
  -1  -2 -10    8.96    2.86
  -1  -2 -10    9.93    2.38
   1   2  11   76.47    5.81
   1   2  11   67.92    7.56
  -1  -2 -11   71.59    6.13
  -1  -2 -11   63.14    6.64
   1   2  12    0.50    0.90
   1   2  12    0.09    1.41
  -1  -2 -12   -0.65    1.20
   1   2  13   67.10    5.80
   1   2  13   77.61    8.66
  -1  -2 -13   58.90    7.23
   1   2  14    4.52    2.70
  -1  -2 -14    5.32    2.32
   1   2  15   15.69    3.98
   1   2  16   13.73    3.07
   1   2  16    5.82    2.15
   1   2  17    2.61    2.74
   1   2  17    0.82    1.03
   1   2  18   -1.54    1.53
   1   3 -20   -0.50    1.72
   1   3 -20   -1.91    1.35
  -1  -3  20   -1.49    1.29
   1   3 -19    5.47    4.04
   1   3 -19    2.64    1.91
  -1  -3  19    3.45    1.85
   1   3 -18    1.24    1.71
   1   3 -18   -1.15    2.44
  -1  -3  18    0.22    1.44
   1   3 -17    1.15    2.15
   1   3 -17    1.38    1.81
  -1  -3  17   -0.14    2.82
   1   3 -16    3.49    2.47
   1   3 -16    2.24    2.09
  -1  -3  16    0.61    1.93
   1   3 -15    3.09    2.65
   1   3 -15    2.02    2.21
  -1  -3  15    2.68    2.10
   1   3 -14   30.41    5.59
   1   3 -14   27.12    4.89
  -1  -3  14   26.49    7.06
   1   3 -13   16.20    6.00
   1   3 -13    9.25    4.85
  -1  -3  13   12.58    4.89
   1   3 -12    3.47    3.43
   1   3 -12    5.02    1.91
  -1  -3  12    2.99    1.92
   1   3 -11   50.76    7.90
   1   3 -11   51.88    5.28
   1   3 -11   53.59    5.04
  -1  -3  11   41.89    3.02
  -1  -3  11   52.73    5.03
   1   3 -10   14.76    2.87
   1   3 -10   15.24    2.77
   1   3 -10   17.94    2.15
   1   3 -10   16.23    2.49
  -1  -3  10   13.66    2.39
  -1  -3  10   15.74    4.18
  -1  -3  10   14.02    2.16
   1   3  -9    0.59    1.43
   1   3  -9    1.53    1.28
   1   3  -9    1.34    0.96
   1   3  -9    2.18    1.13
  -1  -3   9    2.26    1.43
  -1  -3   9    2.44    1.22
  -1  -3   9    1.78    0.99
   1   3  -8  148.28   12.94
   1   3  -8  119.76    8.19
   1   3  -8  131.14    9.85
  -1  -3   8  159.45   10.19
  -1  -3   8  148.80    8.97
  -1  -3   8  138.35    7.65
   1   3  -7  110.20    7.47
   1   3  -7   89.89    5.87
   1   3  -7   96.06    5.42
  -1  -3   7  107.09    5.69
  -1  -3   7  119.43    5.94
  -1  -3   7   95.89    7.13
   1   3  -6 1852.74  167.15
   1   3  -6 1454.13  134.81
   1   3  -6 1857.10  162.28
   1   3  -6 1619.40  137.49
  -1  -3   6 1753.74  150.10
  -1  -3   6 1842.79  154.97
  -1  -3   6 1620.25  144.11
  -1  -3   6 1797.54  155.79
   1   3  -5    6.18    1.38
   1   3  -5    4.07    1.58
   1   3  -5    3.19    1.10
   1   3  -5    3.10    0.70
  -1  -3   5    2.33    0.94
  -1  -3   5    3.13    0.73
  -1  -3   5    2.48    1.09
  -1  -3   5    3.20    0.74
   1   3  -4    2.77    1.17
   1   3  -4    0.11    0.54
   1   3  -4    0.09    1.12
   1   3  -4    0.51    0.60
  -1  -3   4   -0.23    0.98
  -1  -3   4    0.87    0.40
  -1  -3   4    0.25    0.18
  -1  -3   4    0.30    0.17
  -1  -3   4    1.14    1.12
  -1  -3   4    0.42    0.42
   1   3  -3   17.94    1.73
   1   3  -3   16.81    1.17
   1   3  -3   16.70    1.69
   1   3  -3   15.82    0.86
  -1  -3   3   15.65    1.98
  -1  -3   3   17.42    1.31
  -1  -3   3   17.11    0.79
  -1  -3   3   16.59    1.03
   1   3  -2  459.25   25.43
   1   3  -2  456.07   22.54
   1   3  -2  466.81   21.42
   1   3  -2  498.71   23.97
  -1  -3   2  490.60   24.55
  -1  -3   2  539.71   24.02
  -1  -3   2  490.98   27.06
  -1  -3   2  469.07   23.75
   1   3  -1   43.64    2.65
   1   3  -1   41.86    1.54
   1   3  -1   46.87    1.71
   1   3  -1   42.43    1.44
  -1  -3   1   50.55    2.19
  -1  -3   1   44.68    1.24
   1   3   0  433.65   22.46
   1   3   0  432.46   19.09
   1   3   0  424.78   21.57
   1   3   0  434.69   26.89
   1   3   0  407.09   18.32
   1   3   0  402.07   19.59
  -1  -3   0  452.05   21.40
  -1  -3   0  447.86   19.20
  -1  -3   0  465.45   25.13
   1   3   1  243.06   13.77
   1   3   1  248.65   10.86
   1   3   1  251.24   13.24
   1   3   1  242.07    9.86
   1   3   1  250.84   10.18
  -1  -3  -1  283.78   13.21
  -1  -3  -1  252.99    9.59
  -1  -3  -1  259.15   16.17
   1   3   2   78.91    5.01
   1   3   2   81.20    3.68
   1   3   2   81.57    4.93
   1   3   2   73.68    3.92
   1   3   2   77.73    3.10
  -1  -3  -2   87.60    3.36
  -1  -3  -2   75.63    3.06
  -1  -3  -2   76.71    4.37
  -1  -3  -2   85.21    4.92
   1   3   3   39.29    2.97
   1   3   3   51.66    2.92
   1   3   3   54.52    6.09
   1   3   3   45.44    2.40
   1   3   3   50.96    2.42
  -1  -3  -3   65.85    3.72
  -1  -3  -3   52.32    2.03
  -1  -3  -3   45.90    2.58
  -1  -3  -3   53.12    3.70
  -1  -3  -3   57.00    5.96
   1   3   4  370.09   20.60
   1   3   4  406.37   21.52
   1   3   4  370.99   23.36
   1   3   4  338.09   18.13
   1   3   4  354.13   19.62
  -1  -3  -4  425.65   20.34
  -1  -3  -4  395.20   23.10
  -1  -3  -4  412.87   24.31
   1   3   5  132.47    7.52
   1   3   5  159.46    7.19
   1   3   5  172.34    8.56
   1   3   5  156.78   10.08
   1   3   5  153.10    7.11
  -1  -3  -5  170.47    9.93
  -1  -3  -5  171.40   10.42
   1   3   6   10.98    2.22
   1   3   6    8.46    1.84
   1   3   6    7.08    1.08
  -1  -3  -6    6.68    0.81
  -1  -3  -6    8.64    1.86
  -1  -3  -6    6.87    2.83
   1   3   7    9.76    2.43
   1   3   7    9.42    2.05
  -1  -3  -7    8.47    3.24
  -1  -3  -7    8.91    1.99
  -1  -3  -7    5.58    1.50
   1   3   8   13.33    2.80
   1   3   8    9.00    2.32
   1   3   8    8.26    1.38
  -1  -3  -8    8.02    1.79
   1   3   9    8.88    1.74
   1   3   9    6.49    2.38
  -1  -3  -9    5.81    1.92
   1   3  10    0.93    1.17
   1   3  10    0.77    1.71
  -1  -3 -10    1.86    1.31
   1   3  11   39.83    4.10
   1   3  11   32.07    5.48
   1   3  12    2.92    1.53
   1   3  12    3.28    2.36
   1   3  13    1.77    1.97
   1   3  13    0.97    1.46
   1   3  14    0.33    1.13
  -1  -3 -14    1.36    1.23
   1   3  15   -3.83    2.86
  -1  -3 -15   -0.27    1.21
   1   3  16    7.16    2.65
   1   3  17   31.77    4.32
   1   4 -19    2.38    2.99
   1   4 -19    0.74    1.37
  -1  -4  19    0.90    1.44
   1   4 -18    0.68    2.95
   1   4 -18    0.83    2.48
  -1  -4  18    0.75    2.47
   1   4 -17    1.38    1.73
   1   4 -17    0.11    1.43
  -1  -4  17   -0.39    1.40
   1   4 -16    0.57    2.04
   1   4 -16   -1.28    1.73
  -1  -4  16   -1.04    1.67
   1   4 -15   23.77    4.99
   1   4 -15   18.77    4.35
  -1  -4  15   20.82    4.23
   1   4 -14   -0.04    2.00
  -1  -4  14    2.67    2.78
   1   4 -13    4.43    2.72
   1   4 -13    4.07    2.23
  -1  -4  13    6.83    2.37
   1   4 -12    3.18    3.69
   1   4 -12    5.09    3.95
   1   4 -12    3.87    1.98
  -1  -4  12    5.69    2.17
   1   4 -11    6.13    2.44
   1   4 -11    7.61    3.96
   1   4 -11    6.36    2.00
  -1  -4  11    6.75    3.58
   1   4 -10    1.67    1.44
   1   4 -10    2.06    1.93
   1   4 -10    0.18    1.10
  -1  -4  10    0.15    0.74
  -1  -4  10    0.93    1.24
   1   4  -9  184.15   17.34
   1   4  -9  139.04   13.94
   1   4  -9  176.06    9.60
   1   4  -9  164.82   13.05
  -1  -4   9  170.14    9.39
  -1  -4   9  178.63   12.12
  -1  -4   9  161.86   11.57
  -1  -4   9  172.33   10.78
   1   4  -8  319.72   21.61
   1   4  -8  247.74   20.17
   1   4  -8  313.01   16.53
   1   4  -8  286.20   16.74
  -1  -4   8  296.27   16.44
  -1  -4   8  321.10   19.79
  -1  -4   8  284.68   18.84
  -1  -4   8  294.96   17.45
   1   4  -7  330.81   21.34
   1   4  -7  291.72   21.49
   1   4  -7  311.29   15.69
   1   4  -7  293.53   16.09
  -1  -4   7  291.54   15.80
  -1  -4   7  288.76   18.26
  -1  -4   7  295.38   16.61
   1   4  -6  214.37   13.72
   1   4  -6  178.17   10.08
   1   4  -6  202.28   11.81
   1   4  -6  182.36    9.21
  -1  -4   6  186.80    9.60
  -1  -4   6  184.52   14.70
  -1  -4   6  186.59   11.75
   1   4  -5   11.77    3.15
   1   4  -5   11.51    1.39
   1   4  -5   12.82    2.03
   1   4  -5   12.19    1.78
  -1  -4   5   15.44    1.46
  -1  -4   5   11.95    0.58
  -1  -4   5   11.43    0.50
  -1  -4   5   12.06    1.97
  -1  -4   5   14.24    2.17
   1   4  -4  390.68   22.93
   1   4  -4  353.43   18.48
   1   4  -4  425.13   23.79
   1   4  -4  382.10   18.63
  -1  -4   4  419.87   21.66
  -1  -4   4  409.21   18.75
  -1  -4   4  425.69   24.26
  -1  -4   4  418.09   21.10
   1   4  -3    4.30    1.32
   1   4  -3    3.96    0.67
   1   4  -3    6.09    1.40
   1   4  -3    4.42    0.63
  -1  -4   3    5.23    0.97
  -1  -4   3    4.53    0.65
  -1  -4   3    8.32    1.41
  -1  -4   3    4.10    1.19
   1   4  -2    0.10    0.82
   1   4  -2    0.92    0.28
   1   4  -2    0.63    0.40
  -1  -4   2   -0.54    0.59
  -1  -4   2    0.28    0.43
   1   4  -1   55.54    3.46
   1   4  -1   48.87    2.18
   1   4  -1   47.99    1.95
   1   4  -1   47.49    2.20
  -1  -4   1   56.91    3.97
   1   4   0   21.25    3.21
   1   4   0   18.76    1.35
   1   4   0   17.52    1.13
   1   4   0   15.68    1.78
  -1  -4   0   21.69    1.63
   1   4   1  264.95   17.52
   1   4   1  267.18   13.18
   1   4   1  288.90   21.16
   1   4   1  249.60   13.22
   1   4   1  284.13   12.90
  -1  -4  -1  314.24   14.69
  -1  -4  -1  298.41   17.38
   1   4   2  806.26   59.68
   1   4   2  860.00   57.11
   1   4   2  873.23   64.00
   1   4   2  771.89   50.06
   1   4   2  839.65   55.48
  -1  -4  -2  904.18   60.21
  -1  -4  -2  932.44   66.72
   1   4   3  643.65   44.68
   1   4   3  710.60   44.62
   1   4   3  692.18   48.40
   1   4   3  551.44   35.30
   1   4   3  662.77   40.09
  -1  -4  -3  810.85   48.53
  -1  -4  -3  773.85   58.71
   1   4   4    4.01    1.33
   1   4   4    3.01    1.01
   1   4   4    2.88    1.40
   1   4   4    1.65    1.25
   1   4   4    2.18    1.06
  -1  -4  -4    2.28    0.76
  -1  -4  -4    1.93    1.25
   1   4   5  146.43    8.01
   1   4   5  127.47    9.47
  -1  -4  -5  136.58    9.21
  -1  -4  -5  136.79    9.41
   1   4   6    2.36    1.10
   1   4   6    2.32    2.48
   1   4   6    1.01    0.92
   1   4   6    2.07    0.81
  -1  -4  -6    2.54    1.47
  -1  -4  -6    0.58    2.29
   1   4   7    0.79    1.08
   1   4   7    2.44    2.39
   1   4   7    0.98    0.94
   1   4   7    1.26    1.33
   1   4   8   25.64    2.73
   1   4   8   21.12    5.51
   1   4   8   11.53    2.44
   1   4   9   11.19    2.20
   1   4   9    8.57    4.71
   1   4  10    8.92    2.14
   1   4  10    7.65    4.84
   1   4  11    0.30    2.63
   1   4  12    7.23    5.09
   1   4  13    3.71    2.73
  -1  -4 -13    5.89    2.30
   1   4  14    2.96    2.21
  -1  -4 -14    2.78    1.75
   1   4  15   20.43    2.64
  -1  -4 -15    0.48    1.76
   1   4  16   -2.38    1.73
   1   5 -19   -2.39    1.55
  -1  -5  19   -3.31    1.84
   1   5 -18    5.14    4.09
   1   5 -18    1.83    3.14
  -1  -5  18    5.27    2.05
   1   5 -17    4.24    2.44
   1   5 -17    2.60    2.07
  -1  -5  17    5.28    2.15
   1   5 -16   20.60    4.71
   1   5 -16   19.78    4.15
  -1  -5  16   23.88    4.24
   1   5 -15   12.63    3.93
   1   5 -15   13.86    3.43
  -1  -5  15   13.89    5.72
   1   5 -14   47.42    7.00
   1   5 -14   44.13    9.14
  -1  -5  14   55.29    6.70
   1   5 -13    5.20    2.75
   1   5 -13    5.82    2.33
  -1  -5  13    6.71    2.55
   1   5 -12   22.96    4.54
   1   5 -12   22.15    4.12
   1   5 -12   22.71    3.75
  -1  -5  12   23.01    3.99
   1   5 -11    1.10    1.76
   1   5 -11    0.40    1.50
   1   5 -11    0.64    1.30
  -1  -5  11    1.66    2.39
   1   5 -10   -0.61    2.41
   1   5 -10   -0.06    1.15
   1   5 -10    0.45    1.67
  -1  -5  10   -0.43    1.17
   1   5  -9  121.89    9.79
   1   5  -9   94.27    7.89
   1   5  -9   88.52    5.69
   1   5  -9  105.35    7.02
  -1  -5   9  117.19    8.61
   1   5  -8  149.77   11.62
   1   5  -8  113.22    8.68
   1   5  -8  124.51    7.93
  -1  -5   8  139.14    8.19
  -1  -5   8  135.05    8.83
   1   5  -7    0.27    1.42
   1   5  -7    0.73    0.88
   1   5  -7    0.28    0.55
   1   5  -7    0.11    1.15
   1   5  -7    0.19    0.76
  -1  -5   7    0.67    0.83
  -1  -5   7    0.57    1.16
  -1  -5   7    1.33    0.87
   1   5  -6   13.84    4.51
   1   5  -6    9.37    1.50
   1   5  -6   12.18    2.27
   1   5  -6   13.09    2.25
  -1  -5   6   11.32    1.66
  -1  -5   6   12.50    2.26
  -1  -5   6    9.87    1.60
   1   5  -5    1.97    1.24
   1   5  -5    0.50    1.97
   1   5  -5    1.58    0.65
  -1  -5   5    1.55    0.89
  -1  -5   5    0.50    1.21
  -1  -5   5    0.29    1.30
   1   5  -4   38.90    3.58
   1   5  -4   35.44    2.05
  -1  -5   4   40.88    4.26
  -1  -5   4   35.96    2.12
  -1  -5   4   41.22    3.55
  -1  -5   4   35.51    2.45
   1   5  -3   93.22    6.24
   1   5  -3   78.25    4.85
  -1  -5   3  100.76    7.37
  -1  -5   3   83.24    5.36
  -1  -5   3  107.84    9.30
  -1  -5   3   87.86    4.41
   1   5  -2   13.23    1.96
   1   5  -2    8.52    0.97
   1   5  -2    9.03    1.16
  -1  -5   2   13.03    1.55
  -1  -5   2   11.43    1.31
   1   5  -1   15.28    2.12
   1   5  -1   12.14    1.11
   1   5  -1   12.02    1.26
  -1  -5   1   17.82    1.73
  -1  -5   1   14.41    1.67
   1   5   0   88.85    5.74
   1   5   0   76.64    6.24
   1   5   0   73.50    5.02
   1   5   0   75.61    3.98
  -1  -5   0   96.87    4.93
  -1  -5   0   98.65    9.45
   1   5   1   37.50    3.21
   1   5   1   37.90    2.54
   1   5   1   38.90    3.77
   1   5   1   30.01    2.11
   1   5   1   33.70    2.32
  -1  -5  -1   41.80    3.92
  -1  -5  -1   40.01    3.86
   1   5   2   14.61    3.14
   1   5   2   15.35    1.72
   1   5   2   19.44    4.00
   1   5   2    9.51    2.03
   1   5   2   11.71    1.40
  -1  -5  -2   17.98    1.88
  -1  -5  -2   17.09    2.51
   1   5   3  189.97   14.66
   1   5   3  209.86   11.79
   1   5   3  216.09   14.75
  -1  -5  -3  213.85   12.22
  -1  -5  -3  214.83   17.90
   1   5   4   32.38    3.14
   1   5   4   40.16    3.40
   1   5   4   39.21    4.60
   1   5   5   35.55    3.39
   1   5   5   35.32    4.53
   1   5   6   32.36    3.42
   1   5   6   28.63    4.38
   1   5   7    4.39    1.74
   1   5   7    5.31    2.32
   1   5   8    0.61    1.19
   1   5   8    0.37    1.55
   1   5   9    0.24    1.51
   1   5  10    0.74    1.81
   1   5  11    1.48    2.29
  -1  -5 -11    3.53    2.21
   1   5  12    1.50    2.51
  -1  -5 -12    5.44    2.33
   1   5  13    1.23    1.84
  -1  -5 -13    1.47    1.64
   1   5  14   12.43    2.50
  -1  -5 -14    2.39    1.95
   1   5  15   12.82    2.50
  -1  -5 -15   -1.22    1.22
   1   6 -18    0.20    1.38
   1   6 -18    1.20    1.90
  -1  -6  18    1.12    1.33
   1   6 -17   -1.08    2.30
   1   6 -17    0.50    1.16
  -1  -6  17    0.34    1.35
   1   6 -16    3.02    3.56
   1   6 -16    3.81    2.02
  -1  -6  16    4.70    2.23
   1   6 -15    8.68    3.18
   1   6 -15   11.17    4.80
  -1  -6  15   12.40    5.27
   1   6 -14   26.81    5.07
   1   6 -14   29.83    7.23
  -1  -6  14   37.77    5.35
   1   6 -13   39.13    6.17
   1   6 -13   30.36    5.31
   1   6 -13   36.51    5.02
  -1  -6  13   45.23    5.72
   1   6 -12   22.02    4.64
   1   6 -12   13.32    3.65
   1   6 -12   19.96    3.42
  -1  -6  12   22.52    6.27
   1   6 -11   10.60    3.44
   1   6 -11    5.08    2.52
   1   6 -11    8.40    2.32
  -1  -6  11   10.61    2.72
   1   6 -10   31.79    7.60
   1   6 -10   19.78    4.58
  -1  -6  10   24.94    3.89
   1   6  -9   18.30    3.92
   1   6  -9   14.06    2.35
  -1  -6   9   18.77    3.17
   1   6  -8   59.56    6.63
   1   6  -8   46.96    3.97
   1   6  -7   79.28    7.63
   1   6  -7   75.85    6.46
   1   6  -7   59.28    4.44
  -1  -6   7   57.18    7.04
   1   6  -6  156.36   16.75
   1   6  -6  144.71    9.77
   1   6  -6  109.61    8.76
  -1  -6   6  113.07    7.36
   1   6  -5    2.36    1.52
   1   6  -5    2.63    2.43
   1   6  -5    1.51    0.77
  -1  -6   5    1.14    0.95
   1   6  -4   -0.19    1.15
   1   6  -4    0.44    0.59
   1   6  -3   42.67    4.44
   1   6  -3   39.28    2.51
   1   6  -3   37.81    3.13
  -1  -6   3   49.00    3.62
  -1  -6   3   44.93    3.28
   1   6  -2  109.77    8.13
  -1  -6   2  122.80    7.11
  -1  -6   2  104.38    6.25
   1   6  -1   -0.27    1.06
  -1  -6   1    0.43    0.81
  -1  -6   1    0.32    0.82
   1   6   0   -0.08    0.91
   1   6   0   -0.61    0.97
  -1  -6   0   -0.39    1.13
  -1  -6   0    0.75    0.80
   1   6   1   23.81    3.15
   1   6   1   22.30    3.55
  -1  -6  -1   27.87    3.04
  -1  -6  -1   26.82    3.18
   1   6   2   13.74    2.43
   1   6   2   14.34    2.91
  -1  -6  -2   15.47    2.35
   1   6   3   18.33    2.90
   1   6   3   24.81    3.68
   1   6   4    6.63    1.82
   1   6   4    8.62    3.96
   1   6   5   85.81   12.75
   1   6   6    1.47    3.03
   1   6   7    1.05    2.96
   1   6   8    8.76    3.18
  -1  -6  -8   11.05    3.22
   1   6   9    4.90    2.95
  -1  -6  -9    9.39    3.24
   1   6  10   10.54    5.74
  -1  -6 -10   13.10    3.58
   1   6  11    0.63    2.60
  -1  -6 -11    0.31    1.59
   1   6  12   22.73    7.13
  -1  -6 -12   31.98    4.48
   1   6  13   -0.84    1.23
  -1  -6 -13    1.22    1.91
   1   6  14    8.66    2.71
  -1  -6 -14   19.18    2.74
  -1  -7  18    4.11    1.67
   1   7 -17    1.35    1.15
   1   7 -17    1.09    1.15
  -1  -7  17    2.22    1.50
   1   7 -16   -0.38    1.35
  -1  -7  16   -3.49    1.74
   1   7 -15    0.86    1.29
  -1  -7  15    0.30    1.57
   1   7 -14   18.11    3.41
  -1  -7  14   -0.72    2.44
   1   7 -13   16.10    4.12
   1   7 -13   12.43    2.91
  -1  -7  13   18.18    3.74
   1   7 -12    5.75    3.09
   1   7 -12    3.75    1.99
  -1  -7  12    8.75    4.11
   1   7 -11    0.21    3.81
   1   7 -11    0.85    1.43
  -1  -7  11    2.09    1.74
   1   7 -10    4.77    2.57
   1   7 -10    1.19    2.58
  -1  -7  10    2.23    1.96
   1   7  -9   12.39    3.66
   1   7  -9    7.07    1.97
  -1  -7   9   12.18    2.79
   1   7  -8    4.41    2.89
   1   7  -7  191.01   16.84
   1   7  -7  186.85   14.77
   1   7  -6   66.97   12.31
   1   7  -6   62.15    7.14
   1   7  -5  204.50   22.31
   1   7  -5  245.77   17.74
   1   7  -4   22.96    4.68
   1   7  -4   73.34    8.32
   1   7  -3   11.00    2.85
   1   7  -2   41.99    5.02
  -1  -7   2   41.98    4.19
   1   7  -1   -0.26    1.29
  -1  -7   1    1.27    1.66
   1   7   0   24.55    3.85
   1   7   0   27.73    6.52
  -1  -7   0   25.92    3.48
   1   7   1    1.48    1.41
   1   7   1   -2.67    2.67
  -1  -7  -1    1.51    1.37
   1   7   2    0.02    1.29
   1   7   2    0.42    1.53
  -1  -7  -2    1.32    1.37
   1   7   3    1.82    1.50
   1   7   3    1.32    1.85
  -1  -7  -3    2.31    1.77
   1   7   4    1.67    1.78
  -1  -7  -4    1.14    1.76
   1   7   5    5.60    2.66
  -1  -7  -5    7.40    2.67
   1   7   6    2.87    1.95
  -1  -7  -6    0.84    2.02
   1   7   7    1.29    1.85
  -1  -7  -7    1.04    1.89
   1   7   8    8.47    3.18
  -1  -7  -8   12.15    3.31
   1   7   9    6.55    2.72
  -1  -7  -9    7.08    2.91
   1   7  10   13.27    3.71
  -1  -7 -10   22.28    3.98
   1   7  11    4.37    2.15
  -1  -7 -11    4.89    3.67
   1   7  12   10.82    3.08
  -1  -7 -12   24.46    3.59
  -1  -8  17    0.60    1.12
  -1  -8  16    2.26    1.55
   1   8 -15    1.66    1.19
  -1  -8  15    3.37    2.87
   1   8 -14    1.23    2.33
  -1  -8  14    0.09    1.40
   1   8 -13    4.71    2.76
  -1  -8  13    5.56    2.40
   1   8 -12   11.68    4.53
  -1  -8  12   19.81    5.77
   1   8 -11   -1.67    2.39
  -1  -8  11   -1.09    1.76
   1   8 -10    8.25    5.02
  -1  -8  10    4.17    2.33
   1   8  -9    2.46    2.74
  -1  -8   9    3.27    2.07
   1   8  -8    9.01    3.87
   1   8  -7  174.87   17.90
   1   8  -7  192.14   16.08
   1   8  -6    1.29    3.81
   1   8  -6   14.89    3.64
   1   8  -5  400.39   43.50
   1   8  -5  339.76   32.30
   1   8  -4   82.39   10.93
   1   8  -4   14.69   12.54
   1   8  -3   41.68    5.94
   1   8  -2   30.97    5.01
   1   8  -1   35.40    5.04
   1   8  -1   25.17    6.02
  -1  -8   1   37.37    4.57
   1   8   0    0.59    1.74
   1   8   0    1.61    2.00
  -1  -8   0    2.08    1.70
   1   8   1   57.47    7.04
   1   8   1   71.32    7.93
  -1  -8  -1   70.91   11.37
   1   8   2   11.65    3.10
   1   8   2   16.87    5.66
  -1  -8  -2   13.84    5.19
   1   8   3    1.55    2.25
   1   8   3   -1.28    2.79
  -1  -8  -3    1.50    2.59
   1   8   4   11.32    4.72
  -1  -8  -4    5.88    2.77
   1   8   5    1.79    1.76
  -1  -8  -5    0.16    1.75
   1   8   6   -3.56    2.33
  -1  -8  -6   -2.14    3.82
   1   8   7    7.89    2.91
  -1  -8  -7    9.00    4.78
   1   8   8    0.16    1.57
  -1  -8  -8    2.45    3.04
   1   8   9   21.34    3.49
  -1  -8  -9    4.44    6.51
   1   8  10    0.18    2.10
  -1  -8 -10    0.85    1.55
   1   8  11    4.28    3.61
  -1  -8 -11   19.09    2.95
  -1  -9  15    4.03    3.01
   1   9 -14    1.91    1.60
  -1  -9  14    3.65    1.72
   1   9 -13    0.90    1.69
  -1  -9  13    0.87    1.49
   1   9 -12    1.33    2.07
  -1  -9  12    1.42    1.70
   1   9 -11    0.98    2.18
  -1  -9  11    1.10    2.65
   1   9 -10    4.02    4.50
  -1  -9  10    2.15    1.96
   1   9  -9    5.87    3.54
  -1  -9   9    6.83    2.75
   1   9  -8   83.26   10.71
  -1  -9   8   81.03    8.74
   1   9  -7   74.71   10.27
   1   9  -6   15.38    4.55
   1   9  -6   10.87    3.61
   1   9  -5    2.60    2.25
   1   9  -5   -2.77    1.87
   1   9  -4    8.29    3.96
   1   9  -3   21.25    8.89
   1   9  -2    7.43    8.11
   1   9  -2   25.84    6.75
   1   9  -1    3.98    4.03
   1   9  -1    1.42    2.01
   1   9   0    1.66    3.15
   1   9   0    1.81    1.64
  -1  -9   0   -0.79    1.54
   1   9   1   -0.20    3.16
   1   9   1    0.68    1.76
  -1  -9  -1    1.39    1.64
   1   9   2    6.50    3.13
   1   9   2   10.15    3.03
  -1  -9  -2   10.32    3.04
   1   9   3   10.71    3.74
  -1  -9  -3   16.69    3.74
   1   9   4   21.00    4.40
  -1  -9  -4   27.80    4.71
   1   9   5   -1.52    1.52
  -1  -9  -5    0.38    1.71
   1   9   6    0.64    1.55
  -1  -9  -6    1.84    1.80
   1   9   7    0.88    1.42
  -1  -9  -7    1.53    1.73
   1   9   8    0.43    0.96
  -1  -9  -8   -0.48    1.24
   1   9   9    2.18    0.89
  -1  -9  -9   -3.05    1.16
   1  10 -12    4.31    2.37
  -1 -10  12    5.33    1.92
   1  10 -11   22.43    4.58
  -1 -10  11   20.38    5.58
   1  10 -10    0.29    1.75
  -1 -10  10   -0.67    1.97
   1  10  -9    2.28    4.25
  -1 -10   9    2.08    1.73
   1  10  -8    0.67    1.92
  -1 -10   8   -0.82    1.34
   1  10  -7    5.92    3.02
  -1 -10   7    3.16    2.06
   1  10  -6    3.23    2.89
   1  10  -5    0.36    1.90
   1  10  -5   -0.49    1.42
   1  10  -4    5.09    3.26
   1  10  -3    1.15    2.23
   1  10  -2    1.04    2.19
   1  10  -2    1.55    1.84
   1  10  -1   14.88    4.41
   1  10  -1   19.18    3.72
   1  10   0    1.19    1.87
   1  10   0    0.77    2.73
   1  10   1    9.88    3.13
   1  10   1   11.27    4.77
  -1 -10  -1   11.94    4.68
   1  10   2    3.31    2.02
   1  10   2    5.87    3.41
  -1 -10  -2    5.43    3.24
   1  10   3    4.37    1.92
  -1 -10  -3    1.51    3.12
   1  10   4    4.18    1.87
  -1 -10  -4    4.99    2.01
   1  10   5    0.75    1.19
  -1 -10  -5    1.15    2.21
   1  10   6   -1.70    1.80
  -1 -10  -6    0.49    2.10
   1  11 -10   12.54    3.32
  -1 -11  10   11.02    2.26
   1  11  -9   19.82    4.42
  -1 -11   9   16.64    4.51
   1  11  -8   27.82    5.03
  -1 -11   8   20.88    3.20
   1  11  -7   16.51    6.97
  -1 -11   7   14.59    2.72
   1  11  -6    3.00    3.79
  -1 -11   6   -3.48    1.61
   1  11  -5    3.56    2.14
  -1 -11   5    1.21    1.50
   1  11  -4    5.43    2.77
   1  11  -3   -0.28    1.54
   1  11  -2    6.63    2.68
   1  11  -2    7.27    2.18
   1  11  -1    1.38    1.46
   1  11  -1    0.26    1.25
   1  11   0    0.53    2.36
   1  11   0    1.77    1.32
   1  11   1    2.89    1.49
   1  11   2    0.16    0.92
   2 -12  -1    2.76    1.21
  -2  12   1   -1.74    1.14
   2 -12   0    0.08    1.15
  -2  12   0   -1.32    1.17
  -2  12   0    0.04    0.69
   2 -12   1    7.39    1.71
  -2  12  -1   -1.55    1.94
  -2  12  -1    2.54    1.15
   2 -12   2    1.00    1.29
  -2  12  -2    1.16    0.99
   2 -12   3    5.42    1.89
  -2  12  -3   -0.22    1.92
  -2  12  -3    1.64    1.13
  -2  12  -4   -2.49    1.60
  -2  12  -4   -0.74    1.04
  -2  12  -5   30.49    4.52
  -2  12  -5    2.04    3.01
  -2  12  -6   12.84    3.13
  -2  12  -6   10.85    3.31
  -2  12  -7   -1.06    1.45
  -2  12  -7   -0.92    1.01
  -2  12  -8   24.47    2.66
   2 -11  -5    0.90    3.72
  -2  11   5    2.33    1.35
  -2  11   5    4.91    1.20
   2 -11  -4   -1.16    2.23
  -2  11   4   -0.12    0.95
  -2  11   4    0.32    0.77
   2 -11  -3    8.58    4.06
  -2  11   3    3.54    1.92
  -2  11   3    3.39    1.49
  -2  11   2   -1.30    1.12
  -2  11   2    0.73    0.85
   2 -11  -1    1.00    3.46
  -2  11   1    2.34    1.84
  -2  11   1    1.26    1.38
   2 -11   0    5.78    4.28
  -2  11   0    5.50    2.41
  -2  11   0    3.45    1.80
   2 -11   1    5.94    2.84
  -2  11  -1    7.11    2.77
  -2  11  -1    5.13    3.35
   2 -11   2    5.78    2.39
  -2  11  -2    3.03    2.41
  -2  11  -2    1.82    2.86
   2 -11   3    0.50    1.97
  -2  11  -3    0.20    2.14
  -2  11  -3    4.43    1.63
   2 -11   4    8.78    3.05
  -2  11  -4   11.01    3.24
  -2  11  -4   11.03    2.44
   2 -11   5    2.48    2.37
  -2  11  -5    2.62    1.68
  -2  11  -5   -0.71    1.37
  -2  11  -6    1.07    1.89
  -2  11  -6    2.87    1.51
  -2  11  -7    1.08    2.43
  -2  11  -7    0.74    2.09
  -2  11  -8    2.05    4.25
  -2  11  -8   10.35    3.60
  -2  11  -9   -0.47    1.09
  -2  11  -9    0.34    0.98
  -2  11 -10    6.36    2.11
  -2  11 -10   18.91    2.45
  -2  11 -11   53.44    4.73
  -2  11 -12    1.59    2.25
   2 -10  -8   -0.89    1.53
  -2  10   8   -0.61    1.48
   2 -10  -7    1.03    1.80
  -2  10   7    0.81    0.95
  -2  10   7    2.33    1.77
   2 -10  -6    6.80    2.75
  -2  10   6    4.07    2.90
  -2  10   6    2.41    2.99
   2 -10  -5   -0.61    1.91
  -2  10   5    0.52    1.80
  -2  10   5    2.17    2.14
   2 -10  -4    7.70    2.94
  -2  10   4    3.25    1.86
  -2  10   4    4.01    3.10
   2 -10  -3    5.19    3.46
  -2  10   3    6.41    2.25
  -2  10   3    7.07    3.58
   2 -10  -2   15.56    4.03
  -2  10   2    8.59    2.84
  -2  10   2    9.22    2.81
   2 -10  -1   57.58    8.30
  -2  10   1   47.61    6.41
  -2  10   1   48.83    6.25
   2 -10   0    4.84    2.90
  -2  10   0    4.27    2.27
  -2  10   0    2.92    2.17
   2 -10   1   16.39    5.86
  -2  10  -1   13.26    2.90
  -2  10  -1    0.42    3.00
   2 -10   2   66.59   12.54
  -2  10  -2   54.14    6.61
  -2  10  -2   54.78    6.57
   2 -10   3    0.23    1.90
  -2  10  -3   -2.25    2.47
   2 -10   4   29.94    5.34
  -2  10  -4   32.93    8.52
  -2  10  -4   31.44    6.91
   2 -10   5    2.85    1.91
  -2  10  -5    3.65    1.97
  -2  10  -5   -1.51    1.68
  -2  10  -6    1.88    1.67
  -2  10  -6   -0.18    1.43
  -2  10  -7    8.21    2.77
  -2  10  -7    7.67    2.47
  -2  10  -8    2.69    2.00
  -2  10  -8    4.14    1.91
  -2  10  -9   18.60    6.78
  -2  10  -9   28.94    6.20
  -2  10 -10    1.88    1.69
  -2  10 -11    0.03    1.10
  -2  10 -12    1.71    1.50
  -2  10 -13    1.35    2.50
  -2  10 -14   -1.84    1.48
   2  -9 -10    6.04    2.18
  -2   9  10    4.07    1.64
   2  -9  -9    1.76    1.57
  -2   9   9   -0.24    1.15
   2  -9  -8    2.76    2.15
  -2   9   8    0.55    1.69
  -2   9   8    2.39    1.56
   2  -9  -7   -0.22    1.98
  -2   9   7    1.19    1.06
  -2   9   7    0.01    1.42
   2  -9  -6    3.55    2.53
  -2   9   6    1.38    1.45
  -2   9   6    2.09    1.83
   2  -9  -5   -0.77    2.13
  -2   9   5    0.36    1.30
  -2   9   5   -1.61    1.55
  -2   9   4   11.56    2.99
  -2   9   4   12.76    3.29
   2  -9  -3    2.05    2.57
  -2   9   3    1.54    1.76
  -2   9   3    1.37    1.94
   2  -9  -2   -0.24    2.06
  -2   9   2   -0.76    1.44
  -2   9   2   -0.16    1.62
   2  -9  -1    0.74    2.51
  -2   9   1   -1.02    1.78
  -2   9   1   13.16    3.35
   2  -9   0    4.91    3.05
  -2   9   0    2.93    2.29
  -2   9   0   12.16    3.94
   2  -9   1    0.82    1.77
  -2   9  -1    0.46    1.32
  -2   9  -1   -0.31    1.30
  -2   9  -2    0.85    1.60
  -2   9  -2    1.62    1.58
   2  -9   3    2.52    3.42
  -2   9  -3    0.67    1.60
  -2   9  -3    1.91    1.70
   2  -9   4    9.95    3.21
  -2   9  -4    7.90    2.49
  -2   9  -4    7.92    2.57
   2  -9   5   -0.21    1.73
  -2   9  -5    1.51    2.18
  -2   9  -5   -3.78    2.42
   2  -9   6   12.32    3.65
  -2   9  -6   14.74    5.67
  -2   9  -6   17.26    3.15
  -2   9  -7    6.05    2.46
  -2   9  -7    5.68    2.23
  -2   9  -8   -0.37    1.28
  -2   9  -8    0.56    1.26
  -2   9  -9    2.91    1.87
  -2   9  -9    5.01    3.26
  -2   9 -10    4.70    2.29
  -2   9 -11    4.77    2.27
  -2   9 -12    0.59    1.46
  -2   9 -13   13.87    4.73
  -2   9 -14    0.63    1.49
  -2   9 -15   14.64    2.97
   2  -8 -12   12.12    1.74
  -2   8  12   -0.86    1.68
   2  -8 -11    0.71    1.58
  -2   8  11    2.03    1.39
   2  -8 -10    8.71    2.81
  -2   8  10    3.91    3.81
   2  -8  -9    2.20    2.21
  -2   8   9    0.99    2.88
   2  -8  -8   18.37    7.81
  -2   8   8   16.28    6.55
   2  -8  -7   -1.71    3.00
  -2   8   7    0.32    1.93
  -2   8   7    2.63    2.68
   2  -8  -6   16.93    6.16
  -2   8   6    8.58    3.63
  -2   8   6   10.47    5.34
   2  -8  -5  138.81   20.87
  -2   8   5  124.20   13.79
  -2   8   5  136.78   18.65
  -2   8   4  168.95   13.59
  -2   8   4  181.58   16.88
   2  -8  -3  120.17   19.25
  -2   8   3   94.25    9.00
  -2   8   3  108.73   10.78
   2  -8  -2   17.54    7.29
  -2   8   2   18.39    3.33
  -2   8   2   11.49    3.50
   2  -8  -1    1.91    2.03
  -2   8   1    0.78    1.35
  -2   8   1    0.37    1.62
   2  -8   0   24.43    4.78
  -2   8   0   20.12    3.91
   2  -8   1    4.41    2.20
  -2   8  -1    0.54    2.75
  -2   8  -1   -0.81    2.93
   2  -8   2    3.99    2.63
  -2   8  -2    3.90    3.29
  -2   8  -2    6.75    3.29
   2  -8   3    4.14    2.62
  -2   8  -3    5.24    2.00
  -2   8  -3    4.72    2.09
   2  -8   4    9.59    4.93
  -2   8  -4    8.67    2.37
  -2   8  -4    9.74    2.70
   2  -8   5   18.56    3.94
  -2   8  -5   17.42    2.98
  -2   8  -5   19.33    3.38
   2  -8   6   39.57    5.47
  -2   8  -6   35.75    4.20
  -2   8  -6   47.41    7.22
   2  -8   7   50.62    9.75
  -2   8  -7   52.76    9.19
  -2   8  -7   62.13    5.99
  -2   8  -8   19.79    3.60
  -2   8  -8   26.99    3.76
  -2   8  -9    1.67    1.68
  -2   8 -10   54.37    9.67
  -2   8 -11   38.32    5.37
  -2   8 -12    4.05    2.34
  -2   8 -13  148.97   12.72
  -2   8 -14   25.36    7.09
  -2   8 -15    1.09    1.91
  -2   8 -15    1.32    1.74
  -2   8 -16    1.31    1.16
  -2   8 -16    2.57    1.68
  -2   8 -17    0.24    1.93
  -2   7  14   -0.80    1.75
  -2   7  13   -1.17    1.42
   2  -7 -12    1.57    1.31
  -2   7  12   -0.58    1.47
   2  -7 -11    1.05    1.68
  -2   7  11    0.80    1.69
   2  -7 -10   14.04    4.63
  -2   7  10    1.94    2.64
   2  -7  -9    3.74    3.23
  -2   7   9    0.62    1.77
  -2   7   9    2.30    2.03
   2  -7  -8   75.62    8.99
  -2   7   8   70.48    9.46
   2  -7  -7   -1.08    1.70
  -2   7   7    0.20    1.01
  -2   7   7   -0.79    1.62
   2  -7  -6  324.12   30.19
  -2   7   6  281.58   21.78
  -2   7   6  337.75   29.54
   2  -7  -5    1.28    2.20
  -2   7   5    1.12    1.39
  -2   7   5    1.23    2.11
   2  -7  -4   71.52    8.61
  -2   7   4   65.88    6.32
  -2   7   4   76.61    9.23
   2  -7  -3    5.76    2.49
  -2   7   3    3.51    1.67
  -2   7   3    5.80    3.84
   2  -7  -2    1.48    2.88
  -2   7   2    1.75    1.19
  -2   7   2   -1.74    2.51
   2  -7  -1   -1.01    3.29
  -2   7   1    1.32    1.22
  -2   7   1    2.79    1.55
   2  -7   0    4.70    2.09
  -2   7   0    1.25    1.27
  -2   7   0    2.57    1.70
   2  -7   1   11.26    3.15
  -2   7  -1    8.23    2.00
  -2   7  -1   16.91    2.75
   2  -7   2   22.00    3.87
  -2   7  -2   18.66    2.61
  -2   7  -2   28.10    5.42
   2  -7   3    8.42    2.63
  -2   7  -3    6.43    2.75
  -2   7  -3    8.24    2.09
   2  -7   4    2.68    2.25
  -2   7  -4    1.64    1.67
  -2   7  -4   -0.89    1.15
   2  -7   5    7.90    2.63
  -2   7  -5    8.23    1.89
  -2   7  -5    9.39    2.19
   2  -7   6    1.80    1.60
  -2   7  -6    0.54    1.13
  -2   7  -6    2.41    2.29
   2  -7   7    3.31    3.37
  -2   7  -7    3.93    2.34
  -2   7  -7    4.98    1.86
   2  -7   8   28.11    4.36
  -2   7  -8   33.29    3.91
  -2   7  -8   45.55    4.34
  -2   7  -9    7.34    2.10
  -2   7  -9   16.28    2.72
  -2   7 -10   76.44    7.01
  -2   7 -10  131.11   13.30
  -2   7 -11   14.37    3.04
  -2   7 -11   29.23    4.10
  -2   7 -12    6.16    3.67
  -2   7 -12   11.82    3.07
  -2   7 -13  109.64   15.56
  -2   7 -13  130.09   11.51
   2  -7  14    5.90    2.00
  -2   7 -14    6.08    2.57
  -2   7 -14   12.64    4.73
   2  -7  15    1.28    2.29
  -2   7 -15    2.41    1.76
  -2   7 -15    2.38    2.02
   2  -7  16    0.42    1.13
  -2   7 -16    0.61    1.51
  -2   7 -16    5.07    1.83
   2  -7  17    0.67    0.86
  -2   7 -17    3.04    2.34
  -2   7 -17    1.70    2.57
  -2   6  15   -0.13    1.06
  -2   6  14    2.35    1.77
  -2   6  13    0.77    1.60
   2  -6 -12    2.19    1.82
  -2   6  12    2.01    2.02
   2  -6 -11   -1.03    2.29
  -2   6  11    1.17    1.65
   2  -6 -10   26.34    4.59
  -2   6  10   25.11    5.30
   2  -6  -9   66.14    7.65
  -2   6   9   59.50    8.34
   2  -6  -8    6.72    2.45
  -2   6   8    3.59    1.62
  -2   6   8    3.63    2.78
   2  -6  -7   13.80    3.52
  -2   6   7    9.35    3.55
  -2   6   7   10.62    3.76
   2  -6  -6  430.22   36.00
  -2   6   6  392.46   33.84
  -2   6   6  447.34   37.71
   2  -6  -5    1.73    1.89
  -2   6   5    0.10    2.16
  -2   6   5    2.81    1.85
   2  -6  -4  196.87   15.92
  -2   6   4  183.60   16.62
  -2   6   4  203.77   15.94
   2  -6  -3   27.84    4.06
  -2   6   3   25.52    4.70
  -2   6   3   26.21    3.89
   2  -6  -2   12.89    2.83
  -2   6   2   11.91    3.23
  -2   6   2   11.86    2.59
   2  -6  -1    1.25    2.12
   2  -6  -1    0.21    1.46
  -2   6   1    0.52    1.46
  -2   6   1   -0.51    2.35
  -2   6   1    1.07    2.00
  -2   6   1    0.94    2.06
   2  -6   0   38.53    7.43
   2  -6   0   35.61    3.08
  -2   6   0   33.25    3.15
  -2   6   0   29.89    4.69
  -2   6   0   44.55    4.17
  -2   6   0   47.00    4.61
   2  -6   1   49.61    5.27
   2  -6   1   47.32    3.47
  -2   6  -1   46.04    3.64
  -2   6  -1   43.01    5.27
  -2   6  -1   44.01    4.73
  -2   6  -1   54.72    5.13
   2  -6   2    5.33    1.92
   2  -6   2    2.73    1.15
  -2   6  -2    3.86    1.16
  -2   6  -2    3.86    1.89
   2  -6   3   -0.61    1.22
   2  -6   3   -0.28    0.73
   2  -6   3   -1.90    1.04
  -2   6  -3    0.16    0.73
  -2   6  -3    1.09    1.19
  -2   6  -3    0.26    1.55
   2  -6   4    2.04    2.11
   2  -6   4    0.61    1.13
  -2   6  -4    0.75    0.75
  -2   6  -4    0.19    1.44
  -2   6  -4   -0.32    1.04
   2  -6   5   44.91    4.71
  -2   6  -5   49.24    5.21
  -2   6  -5   33.79    3.17
  -2   6  -5   31.10    5.49
  -2   6  -5   51.22    3.96
   2  -6   6    7.66    2.19
  -2   6  -6    6.45    1.44
  -2   6  -6    6.07    1.58
  -2   6  -6    5.74    1.84
  -2   6  -6   10.07    3.12
   2  -6   7   71.63    9.09
  -2   6  -7   66.82    4.68
  -2   6  -7   62.22    5.63
  -2   6  -7   65.01    6.34
  -2   6  -7   94.00    6.07
   2  -6   8    9.20    2.33
   2  -6   8    6.75    1.68
   2  -6   8    7.54    2.86
  -2   6  -8    7.59    3.35
  -2   6  -8   14.90    2.28
   2  -6   9   14.36    2.84
   2  -6   9   10.93    2.24
  -2   6  -9   16.76    4.59
  -2   6  -9   23.80    2.90
  -2   6 -10  174.91   13.60
  -2   6 -10  219.29   20.16
  -2   6 -11  177.34   14.82
  -2   6 -11  222.27   16.63
  -2   6 -12  118.79   10.99
  -2   6 -12  144.00   11.93
   2  -6  13    4.77    2.09
  -2   6 -13    6.57    2.43
  -2   6 -13   10.09    4.08
   2  -6  14   -1.25    2.36
  -2   6 -14    4.50    3.34
  -2   6 -14    2.45    2.00
   2  -6  15    3.31    3.18
  -2   6 -15    5.46    2.50
  -2   6 -15    5.40    2.57
   2  -6  16    1.61    1.13
  -2   6 -16    1.20    1.50
  -2   6 -16   -2.42    1.53
   2  -6  17    0.63    1.05
  -2   6 -17    0.50    1.46
  -2   6 -17    1.39    2.55
   2  -6  18   12.90    2.61
  -2   6 -18   19.54    4.94
  -2   6 -18    8.24    2.69
  -2   5  16   -1.57    1.44
  -2   5  15    0.32    1.33
  -2   5  14   -1.21    2.90
  -2   5  13    5.64    4.31
  -2   5  12    3.97    2.59
   2  -5 -11   14.89    3.20
  -2   5  11   13.58    3.89
   2  -5 -10    1.16    1.50
  -2   5  10    0.12    1.73
   2  -5  -9   46.78    5.45
  -2   5   9   31.69    5.90
  -2   5   9   46.77    6.20
   2  -5  -8   43.40    4.88
  -2   5   8   30.08    3.52
  -2   5   8   38.34    5.27
   2  -5  -7   34.35    4.43
  -2   5   7   28.20    3.30
  -2   5   7   37.79    4.71
   2  -5  -6   92.89    8.22
  -2   5   6   88.52    6.82
  -2   5   6  100.83    8.72
   2  -5  -5   84.06    7.24
   2  -5  -5   92.35    5.61
  -2   5   5   75.61    5.81
  -2   5   5   85.79    8.73
  -2   5   5   82.91   10.35
   2  -5  -4   19.50    3.02
   2  -5  -4   21.05    2.14
  -2   5   4   15.76    2.25
  -2   5   4   16.96    3.75
  -2   5   4   20.59    4.73
  -2   5   4   22.52    3.08
   2  -5  -3   15.42    2.71
   2  -5  -3   17.90    3.00
  -2   5   3   14.69    2.00
  -2   5   3   14.30    3.28
  -2   5   3   16.38    2.66
  -2   5   3   17.36    2.68
   2  -5  -2   47.21    3.30
   2  -5  -2   59.43    5.19
   2  -5  -2   65.53    4.06
  -2   5   2   55.85    4.19
  -2   5   2   57.54    9.28
  -2   5   2   60.89    5.03
  -2   5   2   65.34    5.09
   2  -5  -1  173.49   15.20
   2  -5  -1  193.31    9.99
  -2   5   1  175.81   10.16
  -2   5   1  165.91   17.02
  -2   5   1  184.97   11.48
  -2   5   1  190.95   11.88
   2  -5   0    1.31    0.56
   2  -5   0    0.80    1.24
   2  -5   0    0.40    0.78
  -2   5   0    1.40    0.83
  -2   5   0    0.33    1.26
  -2   5   0   -0.31    0.64
   2  -5   1   76.97    4.35
   2  -5   1   90.81    6.92
  -2   5  -1   88.28    5.13
  -2   5  -1   68.29    6.00
  -2   5  -1   91.35    6.06
   2  -5   2   83.33    5.67
   2  -5   2  114.48    8.15
   2  -5   2  103.17    3.87
  -2   5  -2  113.29    7.59
  -2   5  -2   94.34    5.93
   2  -5   3  478.35   25.58
   2  -5   3  486.86   37.62
   2  -5   3  407.38   20.85
   2  -5   3  382.16   21.95
   2  -5   3  527.14   31.69
  -2   5  -3  485.81   27.16
  -2   5  -3  397.58   30.27
  -2   5  -3  520.39   31.38
  -2   5  -3  567.78   37.47
   2  -5   4    0.38    0.57
   2  -5   4   -0.32    1.13
   2  -5   4    0.92    0.71
   2  -5   4   -0.18    0.47
  -2   5  -4    0.25    0.60
  -2   5  -4    0.70    0.86
  -2   5  -4    0.89    0.90
   2  -5   5   59.93    5.18
   2  -5   5   41.20    3.85
   2  -5   5   47.79    4.10
   2  -5   5   59.58    6.97
  -2   5  -5   55.10    4.35
  -2   5  -5   47.09    4.39
  -2   5  -5   59.15    4.35
  -2   5  -5   61.91    4.23
   2  -5   6  152.12   14.90
   2  -5   6  112.02    6.56
   2  -5   6  120.51    6.77
   2  -5   6  151.49    9.71
  -2   5  -6  144.82    7.53
  -2   5  -6  135.55    9.70
  -2   5  -6  134.79    8.81
  -2   5  -6  155.28   11.71
   2  -5   7   25.28    2.55
   2  -5   7   27.51    2.58
   2  -5   7   39.51    3.95
  -2   5  -7   30.83    2.36
  -2   5  -7   35.14    3.71
  -2   5  -7   32.92    6.23
  -2   5  -7   28.99    3.13
  -2   5  -7   40.69    3.41
   2  -5   8    2.77    1.56
   2  -5   8    2.10    1.11
   2  -5   8    2.48    1.14
  -2   5  -8    2.64    1.62
  -2   5  -8    7.09    2.82
  -2   5  -8    2.21    1.30
  -2   5  -8    3.49    1.45
   2  -5   9   53.85    7.99
   2  -5   9   44.75    6.08
   2  -5   9   42.46    4.17
  -2   5  -9   58.84    5.96
  -2   5  -9   64.94    7.43
   2  -5  10   17.23    2.98
   2  -5  10   17.38    2.84
  -2   5 -10   27.14    5.92
  -2   5 -10   34.82    3.59
   2  -5  11    2.32    1.47
  -2   5 -11    3.60    1.77
  -2   5 -11    1.96    1.80
   2  -5  12   -0.10    1.29
  -2   5 -12    2.31    1.57
  -2   5 -12    0.55    1.51
   2  -5  13    2.85    1.94
  -2   5 -13    5.56    2.33
  -2   5 -13    7.19    4.01
   2  -5  14    1.63    2.94
  -2   5 -14    2.18    2.17
  -2   5 -14    5.09    2.30
   2  -5  15    3.74    2.21
  -2   5 -15    7.28    4.95
  -2   5 -15    7.97    2.65
   2  -5  16    2.45    1.80
  -2   5 -16    3.81    2.32
  -2   5 -16    4.92    3.52
   2  -5  17    0.49    1.31
  -2   5 -17    1.91    1.75
  -2   5 -17    1.48    1.63
   2  -5  18    1.81    1.73
  -2   5 -18    0.63    1.48
  -2   5 -18    0.33    1.34
  -2   4  17    8.92    2.34
  -2   4  16    3.65    3.26
  -2   4  15    0.16    1.39
  -2   4  14    8.73    3.09
  -2   4  13   15.31    3.96
  -2   4  12    6.24    2.88
  -2   4  11    1.20    1.85
   2  -4 -10    1.12    1.26
  -2   4  10    0.16    0.90
  -2   4  10    1.26    1.58
   2  -4  -9    0.47    1.04
  -2   4   9   -0.21    0.76
  -2   4   9    0.51    1.25
   2  -4  -8    2.79    1.52
   2  -4  -8    2.20    1.52
  -2   4   8    2.09    1.13
  -2   4   8    3.06    1.22
  -2   4   8    2.03    1.78
   2  -4  -7    2.81    2.09
   2  -4  -7    1.51    1.33
  -2   4   7    1.88    1.63
  -2   4   7    2.13    1.72
  -2   4   7    1.42    1.01
  -2   4   7    1.77    1.49
   2  -4  -6  174.43   14.42
   2  -4  -6  165.45   11.25
   2  -4  -6  179.26    9.31
  -2   4   6  183.92   15.18
  -2   4   6  178.17   18.73
  -2   4   6  161.73   11.19
  -2   4   6  174.02   12.41
  -2   4   6  196.04   12.86
   2  -4  -5   10.31    2.75
   2  -4  -5    9.97    2.00
   2  -4  -5   11.45    1.39
  -2   4   5    8.78    3.06
  -2   4   5    8.47    4.21
  -2   4   5   10.27    1.22
  -2   4   5    9.78    2.11
  -2   4   5   10.06    3.36
   2  -4  -4  166.50    9.90
   2  -4  -4  171.80   10.90
   2  -4  -4  189.03   11.45
  -2   4   4  179.63   14.31
  -2   4   4  176.85   13.21
  -2   4   4  171.17    8.21
  -2   4   4  181.23   11.46
  -2   4   4  201.18   11.98
   2  -4  -3  139.17    7.80
   2  -4  -3  134.82    8.69
   2  -4  -3  146.17    7.46
  -2   4   3  146.05   11.92
  -2   4   3  142.58   10.82
  -2   4   3  141.16    7.02
  -2   4   3  138.58   11.80
   2  -4  -2  205.28   13.33
   2  -4  -2  209.33   12.58
   2  -4  -2  223.00   10.98
  -2   4   2  233.13   16.65
  -2   4   2  213.75   14.92
  -2   4   2  207.48   10.41
  -2   4   2  225.86   12.99
   2  -4  -1  307.32   16.57
   2  -4  -1  342.56   24.80
   2  -4  -1  305.70   15.85
  -2   4   1  288.59   18.63
  -2   4   1  337.39   26.67
  -2   4   1  311.12   16.43
  -2   4   1  328.77   18.40
   2  -4   0    2.62    0.92
   2  -4   0    2.26    1.37
  -2   4   0    2.70    0.88
  -2   4   0    0.89    1.42
  -2   4   0    1.92    1.10
  -2   4   0    5.16    1.26
   2  -4   1   39.62    2.48
   2  -4   1   43.06    3.80
   2  -4   1   33.48    0.99
   2  -4   1   38.40    1.12
  -2   4  -1   42.31    2.64
  -2   4  -1   39.67    2.85
  -2   4  -1   43.88    3.17
  -2   4  -1   46.94    3.13
   2  -4   2    8.50    1.22
   2  -4   2    9.30    1.87
   2  -4   2    6.66    0.69
   2  -4   2    6.61    0.74
  -2   4  -2    7.86    1.12
  -2   4  -2    8.38    2.34
  -2   4  -2    9.22    1.50
   2  -4   3  518.57   30.79
   2  -4   3  417.27   31.55
   2  -4   3  409.96   23.83
  -2   4  -3  422.71   24.79
  -2   4  -3  380.31   23.82
  -2   4  -3  406.33   27.94
  -2   4  -3  421.28   26.48
   2  -4   4    3.87    0.96
   2  -4   4    4.16    1.59
   2  -4   4    3.25    0.61
   2  -4   4    3.87    0.60
   2  -4   4    4.37    2.17
  -2   4  -4    4.53    0.77
  -2   4  -4    4.44    1.40
  -2   4  -4    4.95    2.38
  -2   4  -4    4.34    1.22
   2  -4   5  391.01   20.55
   2  -4   5  361.00   23.03
   2  -4   5  286.66   15.30
   2  -4   5  310.48   15.90
   2  -4   5  360.06   21.21
  -2   4  -5  332.71   16.46
  -2   4  -5  342.52   26.68
  -2   4  -5  401.38   21.25
   2  -4   6  649.58   38.43
   2  -4   6  485.53   29.37
   2  -4   6  467.87   31.45
   2  -4   6  570.28   37.24
  -2   4  -6  550.21   31.08
  -2   4  -6  495.90   41.26
  -2   4  -6  546.35   37.62
  -2   4  -6  594.25   36.28
   2  -4   7  663.61   48.01
   2  -4   7  549.60   39.42
   2  -4   7  545.47   35.86
   2  -4   7  659.26   45.95
  -2   4  -7  584.93   44.57
  -2   4  -7  601.22   43.92
  -2   4  -7  706.08   45.72
   2  -4   8  167.44   16.72
   2  -4   8  151.30   12.33
   2  -4   8  143.20    9.39
   2  -4   8  184.96   12.18
  -2   4  -8  214.86   13.89
  -2   4  -8  159.69   12.92
  -2   4  -8  165.06   11.84
  -2   4  -8  200.68   11.78
   2  -4   9    2.74    1.42
   2  -4   9    3.14    1.26
   2  -4   9    2.82    1.30
  -2   4  -9    4.44    1.83
  -2   4  -9    2.84    1.49
   2  -4  10   10.85    2.45
   2  -4  10   11.55    2.30
  -2   4 -10   18.62    3.25
  -2   4 -10   18.87    2.64
   2  -4  11    0.49    1.70
   2  -4  11    0.62    1.27
  -2   4 -11    3.57    2.86
  -2   4 -11    1.98    1.42
   2  -4  12   16.75    3.47
  -2   4 -12   32.32    4.37
  -2   4 -12   36.50    6.74
   2  -4  13    1.62    2.58
  -2   4 -13    1.88    1.93
  -2   4 -13    2.07    1.89
   2  -4  14   15.40    3.72
  -2   4 -14   20.19    4.24
  -2   4 -14   25.31    4.21
   2  -4  15   -0.38    1.35
  -2   4 -15   -1.07    2.40
  -2   4 -15    0.25    1.48
   2  -4  16    2.12    1.91
  -2   4 -16    5.28    2.46
  -2   4 -16    2.05    3.63
   2  -4  17    0.95    1.29
  -2   4 -17    0.42    1.64
  -2   4 -17    0.21    1.46
   2  -4  18    0.73    2.30
  -2   4 -18    3.17    1.87
  -2   4 -18    2.04    1.57
  -2   4 -19    5.02    3.38
  -2   4 -19    3.04    1.45
  -2   3  18   -0.40    1.89
  -2   3  17    2.34    1.78
  -2   3  16    6.17    2.61
  -2   3  15    0.99    1.84
   2  -3 -14   44.49    6.37
  -2   3  14   47.36    6.84
   2  -3 -13    2.56    2.13
  -2   3  13    1.52    2.12
   2  -3 -12    0.23    1.53
   2  -3 -11    1.34    1.82
   2  -3 -10   73.60    6.68
  -2   3  10   44.48    7.09
   2  -3  -9    3.79    1.81
   2  -3  -9    3.47    1.36
   2  -3  -9    3.24    1.64
  -2   3   9    3.03    1.35
  -2   3   9    1.83    1.96
   2  -3  -8   10.20    1.92
   2  -3  -8    4.73    1.46
   2  -3  -8    5.13    1.12
  -2   3   8    4.29    1.51
  -2   3   8    4.39    3.41
  -2   3   8    4.82    1.57
  -2   3   8    3.36    1.94
   2  -3  -7   16.86    2.52
   2  -3  -7   14.01    2.00
   2  -3  -7   19.05    2.58
  -2   3   7   10.80    2.17
  -2   3   7   13.37    2.95
  -2   3   7   17.97    2.95
  -2   3   7   10.35    2.45
   2  -3  -6   27.45    2.87
   2  -3  -6   22.11    2.43
   2  -3  -6   25.88    1.82
  -2   3   6   19.99    2.65
  -2   3   6   22.95    3.51
  -2   3   6   28.49    2.08
  -2   3   6   17.66    2.55
   2  -3  -5   33.04    3.06
   2  -3  -5   30.09    2.76
   2  -3  -5   33.14    2.04
  -2   3   5   27.13    2.92
  -2   3   5   31.22    4.02
  -2   3   5   32.01    2.19
  -2   3   5   30.05    3.11
   2  -3  -4   22.67    3.92
   2  -3  -4   22.75    2.37
   2  -3  -4   24.44    1.81
  -2   3   4   18.98    2.52
  -2   3   4   18.71    5.62
  -2   3   4   25.12    3.29
  -2   3   4   21.01    2.63
   2  -3  -3  671.82   42.85
   2  -3  -3  629.03   40.76
   2  -3  -3  670.77   39.47
  -2   3   3  598.70   39.53
  -2   3   3  658.11   46.90
  -2   3   3  678.36   41.57
  -2   3   3  674.12   43.06
   2  -3  -2   17.74    1.93
   2  -3  -2   18.89    3.50
  -2   3   2   16.20    1.92
  -2   3   2   17.99    2.60
  -2   3   2   17.71    2.81
  -2   3   2   17.00    2.95
   2  -3  -1   17.81    3.02
   2  -3  -1   19.11    2.14
  -2   3   1   15.70    1.80
  -2   3   1   17.66    2.41
  -2   3   1   17.50    1.71
  -2   3   1   18.13    1.74
  -2   3   1   18.31    1.78
   2  -3   0   34.20    2.54
   2  -3   0   34.98    3.04
  -2   3   0   36.31    2.52
  -2   3   0   32.81    2.66
  -2   3   0   36.66    2.55
  -2   3   0   36.58    2.43
   2  -3   1  351.38   18.59
   2  -3   1  337.44   19.45
   2  -3   1  324.43   16.84
  -2   3  -1  362.00   20.78
  -2   3  -1  317.81   17.80
  -2   3  -1  372.64   23.30
  -2   3  -1  352.16   17.54
   2  -3   2   30.39    2.20
   2  -3   2   30.25    2.93
   2  -3   2   24.58    0.97
   2  -3   2   27.22    1.01
  -2   3  -2   27.62    1.69
  -2   3  -2   30.13    2.59
  -2   3  -2   31.07    2.63
   2  -3   3  151.65    7.27
   2  -3   3  133.58    8.14
   2  -3   3  108.37    4.63
   2  -3   3  112.27    4.73
   2  -3   3  131.87    8.43
  -2   3  -3  135.12    5.65
  -2   3  -3  123.31    7.52
  -2   3  -3  131.64    7.48
  -2   3  -3  134.90    6.08
   2  -3   4   38.36    3.60
   2  -3   4   41.07    3.60
   2  -3   4   27.85    2.24
   2  -3   4   33.65    1.69
   2  -3   4   41.06    2.67
  -2   3  -4   37.28    2.46
  -2   3  -4   39.44    3.48
  -2   3  -4   39.34    3.22
  -2   3  -4   44.33    2.50
   2  -3   5    4.45    1.05
   2  -3   5    3.28    1.45
   2  -3   5    3.02    1.13
   2  -3   5    3.06    0.72
   2  -3   5    4.21    1.13
  -2   3  -5    3.67    0.51
  -2   3  -5    6.17    2.29
  -2   3  -5    3.91    2.19
  -2   3  -5    3.83    1.57
   2  -3   6  254.01   13.06
   2  -3   6  233.64   14.57
   2  -3   6  186.54   10.09
   2  -3   6  188.67   12.02
   2  -3   6  228.40   15.48
  -2   3  -6  205.16   13.77
  -2   3  -6  240.52   12.16
   2  -3   7    5.68    1.18
   2  -3   7    5.59    1.93
   2  -3   7    8.24    2.36
  -2   3  -7    6.69    2.00
  -2   3  -7    6.31    1.37
   2  -3   8   25.62    3.00
   2  -3   8   19.83    2.51
   2  -3   8   21.86    3.86
   2  -3   8   26.06    2.75
  -2   3  -8   36.53    3.53
  -2   3  -8   23.94    3.75
  -2   3  -8   33.18    2.79
   2  -3   9   76.11    6.19
   2  -3   9   60.45    5.26
   2  -3   9   62.36    7.52
   2  -3   9   73.18    5.60
  -2   3  -9   86.78    7.00
  -2   3  -9   61.16    7.11
  -2   3  -9   73.14    9.71
  -2   3  -9   83.34    5.73
   2  -3  10   39.43    6.34
   2  -3  10   35.66    4.03
  -2   3 -10   46.57    5.13
  -2   3 -10   33.44    7.02
  -2   3 -10   45.33    4.07
   2  -3  11    1.04    1.02
   2  -3  11    0.71    2.02
  -2   3 -11    3.20    2.60
  -2   3 -11   -0.28    2.32
   2  -3  12   24.45    3.25
   2  -3  12   29.63    6.67
  -2   3 -12   39.27    4.86
  -2   3 -12   39.32    4.61
   2  -3  13    3.86    2.22
  -2   3 -13    6.91    2.51
  -2   3 -13    4.63    2.29
   2  -3  14   68.09    8.63
  -2   3 -14   98.19    9.76
  -2   3 -14   94.65    9.21
   2  -3  15    1.17    1.73
  -2   3 -15    1.78    2.94
  -2   3 -15    1.23    2.99
   2  -3  16    0.20    1.53
  -2   3 -16    0.58    1.88
  -2   3 -16    1.40    1.57
   2  -3  17   -0.60    1.96
  -2   3 -17    1.02    1.48
  -2   3 -17   -0.22    1.22
   2  -3  18    0.25    1.08
  -2   3 -18   -0.76    1.33
  -2   3 -18   -0.21    1.77
   2  -3  19    2.55    1.60
  -2   3 -19   11.68    3.71
  -2   3 -19    5.65    1.30
   2  -2 -17    4.37    3.38
  -2   2  17    4.34    2.25
   2  -2 -16    6.67    2.65
  -2   2  16    4.09    2.57
   2  -2 -15    5.83    2.55
  -2   2  15    2.05    1.75
   2  -2 -14   14.10    3.61
  -2   2  14    4.38    4.03
   2  -2 -13    1.71    2.22
   2  -2 -13    2.70    2.09
  -2   2  13    0.77    2.50
   2  -2 -12    1.75    3.54
   2  -2 -12    2.17    2.05
  -2   2  12    1.98    1.47
   2  -2 -11    1.58    2.81
   2  -2 -11    2.77    1.54
  -2   2  11    0.62    1.04
  -2   2  11   -0.12    1.11
   2  -2 -10    7.46    3.45
   2  -2 -10    7.66    2.10
  -2   2  10    3.30    1.49
  -2   2  10    4.52    1.48
   2  -2  -9    7.36    3.23
   2  -2  -9    7.44    1.98
  -2   2   9    3.76    1.47
  -2   2   9    5.57    1.91
  -2   2   9    7.31    1.83
  -2   2   9    4.26    1.34
   2  -2  -8  217.70   18.60
   2  -2  -8  175.30   10.46
   2  -2  -8  213.25   14.53
  -2   2   8  210.00   15.20
  -2   2   8  254.54   14.53
  -2   2   8  183.76   11.10
   2  -2  -7   18.66    4.37
   2  -2  -7   15.06    1.69
   2  -2  -7   18.13    2.13
   2  -2  -7   15.59    2.44
  -2   2   7   17.33    4.65
  -2   2   7   21.25    1.95
  -2   2   7   12.07    1.56
   2  -2  -6  502.68   34.38
   2  -2  -6  485.56   31.63
   2  -2  -6  402.50   24.24
   2  -2  -6  462.41   24.00
   2  -2  -6  457.60   29.73
  -2   2   6  471.15   33.11
  -2   2   6  507.93   29.12
   2  -2  -5 2609.31  269.31
   2  -2  -5 2581.01  263.15
   2  -2  -5 2226.68  220.37
   2  -2  -5 2565.76  244.29
   2  -2  -5 2451.12  245.09
  -2   2   5 2453.90  257.81
  -2   2   5 2509.87  252.08
  -2   2   5 1706.05  201.86
   2  -2  -4    0.00    1.05
   2  -2  -4   -0.92    0.91
   2  -2  -4   -0.80    1.01
   2  -2  -4    0.28    0.44
  -2   2   4    1.58    1.11
  -2   2   4    0.07    0.74
  -2   2   4    0.44    0.29
   2  -2  -3  748.29   49.39
   2  -2  -3  710.91   45.41
   2  -2  -3  712.09   43.69
  -2   2   3  682.15   46.80
  -2   2   3  689.06   42.30
  -2   2   3  561.04   28.84
  -2   2   3  698.23   42.16
   2  -2  -2    2.88    1.14
   2  -2  -2    2.95    1.03
   2  -2  -2    1.58    0.90
  -2   2   2    4.28    1.98
  -2   2   2    1.52    0.94
  -2   2   2    1.85    0.74
  -2   2   2    2.75    0.74
   2  -2  -1  115.65    6.32
   2  -2  -1  104.43    5.77
   2  -2  -1  104.93    5.51
  -2   2   1  102.24    5.37
  -2   2   1  104.43    6.44
  -2   2   1  105.10    4.67
   2  -2   0  288.25   17.88
   2  -2   0  310.12   19.23
  -2   2   0  301.55   15.90
  -2   2   0  313.54   15.65
  -2   2   0  309.44   14.05
   2  -2   1   17.50    2.02
   2  -2   1   20.46    2.11
   2  -2   1   23.59    1.49
  -2   2  -1   17.63    1.45
  -2   2  -1   17.56    2.12
  -2   2  -1   18.71    1.93
  -2   2  -1   22.71    1.43
   2  -2   2  105.61    7.53
   2  -2   2  124.72    6.76
   2  -2   2  108.01    3.15
   2  -2   2  104.54    3.42
   2  -2   2  110.99    6.20
  -2   2  -2  128.54    5.23
  -2   2  -2  108.58    6.51
  -2   2  -2  112.66    5.78
   2  -2   3  175.46    8.65
   2  -2   3  163.88   12.18
   2  -2   3  158.77    6.70
   2  -2   3  141.84    5.34
   2  -2   3  162.37    7.02
  -2   2  -3  152.29    6.89
  -2   2  -3  164.12    9.39
  -2   2  -3  163.26    9.29
  -2   2  -3  171.83    6.91
   2  -2   4    2.44    1.03
   2  -2   4    2.18    1.17
   2  -2   4    1.79    0.83
   2  -2   4    1.64    0.52
   2  -2   4    2.79    0.75
  -2   2  -4    2.22    0.37
  -2   2  -4    3.03    2.09
  -2   2  -4    3.03    1.22
  -2   2  -4    2.77    1.06
   2  -2   5    3.00    0.92
   2  -2   5    2.57    1.23
   2  -2   5    1.83    0.65
   2  -2   5    2.55    0.66
   2  -2   5    2.87    1.28
  -2   2  -5    2.24    0.27
  -2   2  -5    2.45    1.29
  -2   2  -5    3.82    1.31
  -2   2  -5    3.00    0.72
   2  -2   6   37.31    5.14
   2  -2   6   25.89    2.23
   2  -2   6   31.93    2.35
   2  -2   6   37.85    2.54
  -2   2  -6   37.57    3.72
  -2   2  -6   40.09    3.55
   2  -2   7    6.51    1.64
   2  -2   7    5.17    1.20
   2  -2   7    6.17    1.26
   2  -2   7    7.56    1.29
  -2   2  -7    6.59    1.95
  -2   2  -7    7.87    1.94
  -2   2  -7    7.60    1.27
   2  -2   8   10.29    1.69
   2  -2   8    3.16    2.17
   2  -2   8    3.94    1.38
   2  -2   8    5.78    1.34
  -2   2  -8    5.30    1.71
  -2   2  -8    5.15    2.02
  -2   2  -8    6.77    1.91
  -2   2  -8    5.86    1.32
   2  -2   9   17.37    4.09
   2  -2   9   11.99    3.52
   2  -2   9   13.05    2.29
   2  -2   9   15.55    2.17
  -2   2  -9   17.57    2.70
  -2   2  -9   10.63    3.10
  -2   2  -9   15.80    2.84
  -2   2  -9   26.20    3.45
   2  -2  10    1.26    1.06
   2  -2  10    1.91    2.08
  -2   2 -10    0.12    1.44
  -2   2 -10    1.84    1.46
  -2   2 -10    1.91    1.25
   2  -2  11    1.48    1.16
   2  -2  11    2.37    1.49
  -2   2 -11    3.58    2.66
  -2   2 -11    0.67    1.43
   2  -2  12    2.27    2.11
   2  -2  12    1.70    1.72
  -2   2 -12    2.72    1.84
  -2   2 -12    2.39    1.66
   2  -2  13   44.91    6.33
  -2   2 -13   65.37    6.83
  -2   2 -13   57.08    9.31
   2  -2  14    0.43    1.56
  -2   2 -14    0.51    1.60
  -2   2 -14    0.71    1.51
   2  -2  15    1.97    2.02
  -2   2 -15    3.35    3.26
  -2   2 -15    2.93    2.00
   2  -2  16    5.51    3.70
  -2   2 -16    7.16    2.59
  -2   2 -16    2.20    2.18
   2  -2  17   -0.79    1.22
  -2   2 -17   -0.34    1.40
  -2   2 -17    1.73    1.88
   2  -2  18   -0.49    1.18
  -2   2 -18    0.25    1.31
  -2   2 -18   -0.59    1.02
   2  -2  19    1.36    1.35
  -2   2 -19    3.63    1.63
  -2   1  19   -1.09    1.34
   2  -1 -18    0.31    1.50
  -2   1  18    0.66    0.94
  -2   1  18    1.51    1.45
   2  -1 -17    4.08    2.12
  -2   1  17    1.09    1.40
   2  -1 -16    2.48    1.66
  -2   1  16   -2.73    1.86
   2  -1 -15   -1.77    1.66
   2  -1 -15    1.81    1.44
  -2   1  15   -0.24    1.10
   2  -1 -14   17.29    6.70
   2  -1 -14   14.19    3.58
  -2   1  14    9.90    2.79
   2  -1 -13   21.79    6.12
   2  -1 -13   18.35    3.61
  -2   1  13    9.23    2.77
   2  -1 -12    1.43    2.13
   2  -1 -12    3.63    1.91
  -2   1  12    1.52    1.46
   2  -1 -11   20.98    3.93
   2  -1 -11   20.49    3.48
  -2   1  11   12.28    4.26
   2  -1 -10    1.60    1.28
   2  -1 -10   -0.07    1.44
   2  -1 -10    0.73    1.28
  -2   1  10    0.25    1.63
  -2   1  10    0.25    0.90
   2  -1  -9   49.91    5.51
   2  -1  -9   55.19    5.42
   2  -1  -9   52.35    5.00
  -2   1   9   56.40    5.43
  -2   1   9   63.95    5.12
  -2   1   9   42.97    3.72
   2  -1  -8    6.76    2.06
   2  -1  -8    7.21    2.10
   2  -1  -8    8.63    1.84
  -2   1   8    6.93    2.00
  -2   1   8   10.09    2.75
  -2   1   8    6.13    1.23
   2  -1  -7  131.84    9.61
   2  -1  -7  123.04    8.49
   2  -1  -7  112.27    7.00
   2  -1  -7  115.46    7.74
  -2   1   7  122.23    8.88
  -2   1   7  145.75    7.68
  -2   1   7  109.85    5.97
  -2   1   7  127.50    7.24
   2  -1  -6   91.95   10.70
   2  -1  -6   88.02    9.10
   2  -1  -6   84.24    4.19
   2  -1  -6   89.12    5.73
  -2   1   6   92.73    6.84
  -2   1   6   99.56    5.44
  -2   1   6   93.67    5.12
   2  -1  -5  668.24   52.43
   2  -1  -5  668.85   50.31
   2  -1  -5  603.07   35.88
   2  -1  -5  673.52   37.30
   2  -1  -5  629.02   39.70
  -2   1   5  614.06   48.83
  -2   1   5  781.07   52.65
  -2   1   5  593.56   35.32
   2  -1  -4   63.68    7.29
   2  -1  -4   62.09    4.28
   2  -1  -4   55.40    2.75
   2  -1  -4   57.07    2.12
   2  -1  -4   56.91    3.05
  -2   1   4   59.93    7.07
  -2   1   4   64.15    3.75
  -2   1   4   53.87    2.62
   2  -1  -3    0.86    1.73
   2  -1  -3    1.83    0.96
   2  -1  -3    2.20    0.96
  -2   1   3    3.71    1.03
  -2   1   3    0.82    1.30
  -2   1   3    0.94    0.47
  -2   1   3    0.84    0.23
  -2   1   3    0.34    0.56
   2  -1  -2  203.68   14.27
   2  -1  -2  190.08   12.97
   2  -1  -2  181.82   10.18
  -2   1   2  185.20   10.48
  -2   1   2  198.57    9.86
  -2   1   2  215.37   10.44
  -2   1   2  177.46    5.25
  -2   1   2  200.31    6.29
  -2   1   2  184.32    7.61
   2  -1  -1    5.18    2.11
   2  -1  -1    5.85    1.31
   2  -1  -1    6.00    1.01
  -2   1   1    4.89    1.97
  -2   1   1    5.64    0.89
  -2   1   1    6.11    1.01
   2  -1   0   21.87    2.97
   2  -1   0   24.22    3.53
   2  -1   0   21.82    1.89
  -2   1   0   21.44    2.25
  -2   1   0   23.16    2.98
  -2   1   0   23.90    1.65
   2  -1   1   15.63    1.39
   2  -1   1   16.73    1.84
   2  -1   1   14.33    2.66
   2  -1   1   14.72    0.57
   2  -1   1   15.49    0.86
  -2   1  -1   14.71    3.16
  -2   1  -1   15.60    0.54
   2  -1   2  306.66   14.14
   2  -1   2  316.30   20.22
   2  -1   2  286.36   15.43
   2  -1   2  278.49   11.34
   2  -1   2  278.05   13.04
  -2   1  -2  279.41   15.98
  -2   1  -2  289.92   15.71
  -2   1  -2  289.52   12.33
  -2   1  -2  308.86   12.23
   2  -1   3  733.14   45.62
   2  -1   3  709.36   45.48
   2  -1   3  684.67   38.51
   2  -1   3  668.91   37.58
  -2   1  -3  692.30   37.01
  -2   1  -3  693.64   45.96
  -2   1  -3  678.21   50.16
  -2   1  -3  744.93   43.19
  -2   1  -3  720.45   39.01
   2  -1   4 1019.99   65.78
   2  -1   4  934.57   69.40
   2  -1   4  825.17   51.28
   2  -1   4  797.23   50.68
  -2   1  -4  747.18   41.26
  -2   1  -4  749.83   47.63
  -2   1  -4  868.80   66.38
  -2   1  -4  817.51   63.88
  -2   1  -4  861.56   54.59
  -2   1  -4  911.24   55.54
   2  -1   5  186.18    9.58
   2  -1   5  186.15   10.90
   2  -1   5  167.26    9.04
   2  -1   5  178.97    8.20
  -2   1  -5  176.64   11.35
  -2   1  -5  190.70    9.38
  -2   1  -5  194.53    8.55
   2  -1   6 1488.61  116.22
   2  -1   6 1436.50  118.47
   2  -1   6 1128.05   92.27
   2  -1   6 1268.10   98.60
  -2   1  -6 1252.21  108.32
  -2   1  -6 1237.98   98.44
  -2   1  -6 1299.93   99.88
   2  -1   7    0.41    1.02
   2  -1   7   -0.33    0.86
   2  -1   7    1.58    0.69
  -2   1  -7    1.17    1.18
  -2   1  -7    0.13    0.83
  -2   1  -7    0.34    1.08
   2  -1   8  105.15    9.19
   2  -1   8   88.51    7.02
   2  -1   8   91.22    5.87
  -2   1  -8  129.76    7.83
  -2   1  -8  103.02    8.40
  -2   1  -8   95.75    6.84
  -2   1  -8  118.54    6.98
   2  -1   9  114.52    7.71
   2  -1   9   94.20    7.79
   2  -1   9   89.41    6.51
  -2   1  -9  116.58    8.29
  -2   1  -9  101.09   12.43
  -2   1  -9  118.30    7.59
   2  -1  10   72.13    5.57
   2  -1  10   55.18    5.80
   2  -1  10   53.51    4.86
  -2   1 -10   69.13    6.02
  -2   1 -10   63.89    5.39
   2  -1  11   77.65    8.47
   2  -1  11   55.74    6.49
  -2   1 -11   80.45   10.08
  -2   1 -11   64.02    8.65
   2  -1  12    2.03    1.18
   2  -1  12    2.26    1.82
  -2   1 -12    2.63    1.74
  -2   1 -12    2.67    1.64
   2  -1  13    7.35    1.81
   2  -1  13    7.84    2.84
  -2   1 -13   13.03    2.68
  -2   1 -13    9.59    2.64
   2  -1  14    2.11    1.19
   2  -1  14    1.91    3.19
  -2   1 -14    2.52    1.85
  -2   1 -14    2.09    1.84
   2  -1  15    2.10    3.34
  -2   1 -15    0.22    3.67
  -2   1 -15    4.16    2.96
   2  -1  16    2.81    2.07
  -2   1 -16    4.51    2.15
  -2   1 -16    0.43    2.96
   2  -1  17    0.56    1.39
  -2   1 -17    0.81    1.38
  -2   1 -17    0.06    1.12
   2  -1  18    0.62    1.06
  -2   1 -18    0.97    1.88
  -2   1 -18   -0.32    0.74
   2   0 -19    2.86    1.82
  -2   0  19    1.51    1.59
   2   0 -18   11.97    2.96
  -2   0  18    4.44    1.84
   2   0 -17    4.94    2.75
   2   0 -17    4.37    2.29
  -2   0  17    1.37    2.90
   2   0 -16   15.80    3.83
   2   0 -16    9.53    3.17
  -2   0  16    4.24    2.47
   2   0 -15   38.75    9.43
   2   0 -15   32.26    5.30
  -2   0  15   23.79    4.39
   2   0 -14   47.66   10.37
   2   0 -14   39.64    5.93
  -2   0  14   28.06    7.55
   2   0 -13   39.97    6.23
   2   0 -13   38.86    5.52
  -2   0  13   24.27    6.63
   2   0 -12   28.80    4.84
   2   0 -12   46.49    5.81
   2   0 -12   40.37    7.75
  -2   0  12   33.59    4.20
   2   0 -11   84.99    8.39
   2   0 -11  102.44    9.31
   2   0 -11   99.38   11.77
  -2   0  11   87.20    7.04
   2   0 -10   90.31    8.24
   2   0 -10   94.27    8.55
   2   0 -10  101.64   10.79
  -2   0  10   90.10    7.04
  -2   0  10   92.30    6.62
   2   0  -9   23.16    5.31
   2   0  -9   15.39    3.14
   2   0  -9   17.04    2.55
  -2   0   9   15.31    2.35
  -2   0   9   20.28    2.77
  -2   0   9   13.80    3.18
  -2   0   9   17.46    2.12
   2   0  -8   54.50    5.38
   2   0  -8   45.70    4.81
   2   0  -8   43.76    3.89
  -2   0   8   44.87    5.80
  -2   0   8   59.62    6.24
  -2   0   8   46.97    3.31
  -2   0   8   51.82    4.95
   2   0  -7  152.13   10.74
   2   0  -7  135.23    9.19
   2   0  -7  126.53    7.83
  -2   0   7  146.24   13.44
  -2   0   7  159.02    8.37
  -2   0   7  133.08    6.98
  -2   0   7  147.13    9.53
   2   0  -6   22.29    2.93
   2   0  -6   20.39    2.63
   2   0  -6   19.11    0.89
   2   0  -6   19.50    2.94
  -2   0   6   21.00    2.73
  -2   0   6   24.09    2.04
  -2   0   6   19.53    1.52
  -2   0   6   21.88    1.69
   2   0  -5  306.88   19.10
   2   0  -5  280.02   20.00
   2   0  -5  271.37   11.25
   2   0  -5  297.37   11.41
   2   0  -5  289.67   16.54
  -2   0   5  287.89   17.76
  -2   0   5  291.51   17.43
  -2   0   5  279.47   14.31
  -2   0   5  299.49   13.96
   2   0  -4  101.10    7.00
   2   0  -4  107.98    6.65
   2   0  -4   98.32    4.66
   2   0  -4  105.84    5.88
  -2   0   4  108.01    6.72
  -2   0   4  122.27    6.15
  -2   0   4  113.05    4.22
  -2   0   4  106.76    4.30
   2   0  -3   86.27    5.56
   2   0  -3   89.27    5.26
   2   0  -3   77.17    3.94
   2   0  -3   83.45    3.21
  -2   0   3   87.30    5.38
  -2   0   3   87.45    4.61
  -2   0   3   96.61    4.11
  -2   0   3   81.97    3.75
   2   0  -2   26.74    4.09
   2   0  -2   26.92    4.00
   2   0  -2   25.13    1.47
   2   0  -2   29.71    1.13
  -2   0   2   27.39    2.45
  -2   0   2   31.47    2.40
  -2   0   2   27.15    2.03
  -2   0   2   30.79    1.17
  -2   0   2   29.29    1.55
   2   0  -1    3.71    1.80
   2   0  -1    3.27    1.21
   2   0  -1    4.18    0.73
   2   0  -1    3.36    0.41
  -2   0   1    3.64    0.98
  -2   0   1    3.54    1.04
  -2   0   1    4.50    0.74
  -2   0   1    3.95    0.42
  -2   0   1    3.26    0.30
  -2   0   1    3.39    0.29
   2   0   0 1000.55   70.85
   2   0   0 1067.75   80.68
   2   0   0 1024.15   69.79
   2   0   0 1027.70   64.13
  -2   0   0  931.81   65.38
  -2   0   0 1030.23   72.98
  -2   0   0 1034.23   74.30
  -2   0   0 1117.00   69.48
  -2   0   0 1031.54   60.00
  -2   0   0 1128.10   66.09
   2   0   1    1.16    0.83
   2   0   1    2.30    1.22
   2   0   1    1.21    0.41
  -2   0  -1    0.69    0.90
  -2   0  -1   -0.80    0.86
  -2   0  -1    1.20    0.74
  -2   0  -1    0.23    0.60
  -2   0  -1    0.78    0.20
   2   0   2  895.22   56.17
   2   0   2  966.22   69.31
   2   0   2  817.52   54.95
   2   0   2  865.19   53.75
   2   0   2  833.77   47.99
  -2   0  -2  861.09   52.53
  -2   0  -2  876.83   60.00
  -2   0  -2  841.42   58.37
  -2   0  -2  971.50   58.36
  -2   0  -2  870.61   48.41
   2   0   3   12.43    1.27
   2   0   3   13.47    1.64
   2   0   3   12.99    1.76
   2   0   3   11.28    1.21
   2   0   3   12.59    1.05
  -2   0  -3   13.18    1.12
  -2   0  -3   13.23    1.84
  -2   0  -3   12.31    2.02
  -2   0  -3   14.57    1.86
   2   0   4 1952.23  171.80
   2   0   4 1717.56  150.49
   2   0   4 1563.91  137.64
   2   0   4 1525.49  122.43
  -2   0  -4 1633.59  146.26
  -2   0  -4 1529.18  139.74
  -2   0  -4 1725.52  143.77
  -2   0  -4 1785.61  142.95
   2   0   5    0.85    0.69
   2   0   5   -0.88    1.24
   2   0   5    1.26    0.72
  -2   0  -5    1.98    1.12
  -2   0  -5   -0.41    0.75
  -2   0  -5    0.36    0.50
   2   0   6  988.28   66.40
   2   0   6  874.28   67.24
   2   0   6  795.54   58.12
   2   0   6  732.23   51.28
  -2   0  -6  826.10   64.83
  -2   0  -6  870.84   66.35
  -2   0  -6  883.87   58.89
   2   0   7    3.07    1.14
   2   0   7    0.85    1.12
   2   0   7    0.43    1.13
  -2   0  -7    3.93    1.55
  -2   0  -7    2.01    1.86
  -2   0  -7    1.64    0.83
   2   0   8   34.29    3.23
   2   0   8   24.08    3.31
   2   0   8   21.06    3.26
  -2   0  -8   35.82    3.17
  -2   0  -8   31.89    4.06
  -2   0  -8   30.70    3.29
  -2   0  -8   28.55    3.95
   2   0   9   96.39    6.53
   2   0   9   72.22    6.64
   2   0   9   53.22    6.20
  -2   0  -9   84.51    6.35
  -2   0  -9   83.70    7.68
  -2   0  -9   75.74    6.48
  -2   0  -9   75.99    7.92
   2   0  10   45.16    5.65
   2   0  10   38.85    4.82
   2   0  10   30.58    4.89
  -2   0 -10   48.43    7.07
  -2   0 -10   42.17    4.17
   2   0  11   10.58    1.93
   2   0  11    7.73    4.22
  -2   0 -11   10.70    2.30
  -2   0 -11    8.79    2.24
   2   0  12    2.02    1.19
   2   0  12    3.72    2.88
  -2   0 -12    1.46    1.49
  -2   0 -12    0.87    1.48
   2   0  13    4.54    1.56
   2   0  13    3.63    2.39
  -2   0 -13    6.48    2.00
  -2   0 -13    3.22    3.27
   2   0  14    0.67    1.59
   2   0  14    1.32    1.56
  -2   0 -14   -0.60    2.49
  -2   0 -14   -1.28    2.11
   2   0  15    0.70    0.83
   2   0  15   -2.02    1.46
  -2   0 -15    0.45    1.37
   2   0  16   -0.04    1.28
  -2   0 -16   -0.05    1.15
   2   0  17    1.47    1.93
  -2   0 -17    6.76    2.72
   2   0  18  139.42   14.11
   2   1 -19    9.31    1.94
  -2  -1  19   -1.06    1.06
   2   1 -18    4.56    2.46
  -2  -1  18    1.85    1.53
   2   1 -17    1.51    2.35
   2   1 -17    0.23    1.82
  -2  -1  17    2.27    1.55
   2   1 -16    7.57    6.32
   2   1 -16    8.69    2.93
  -2  -1  16    6.44    2.55
   2   1 -15  130.14   18.67
   2   1 -15  110.98   11.60
  -2  -1  15   86.89   13.59
   2   1 -14   18.62    4.68
  -2  -1  14   12.66    3.15
   2   1 -13  319.91   27.14
   2   1 -13  285.90   29.58
  -2  -1  13  261.66   21.44
   2   1 -12   49.16    6.79
   2   1 -12   73.01    8.14
   2   1 -12   66.19    6.86
  -2  -1  12   65.36    6.19
   2   1 -11    8.08    4.38
   2   1 -11    8.03    2.93
   2   1 -11    7.59    2.27
  -2  -1  11    8.31    3.17
   2   1 -10    2.49    1.99
   2   1 -10    3.43    2.07
   2   1 -10    3.78    1.55
  -2  -1  10    4.19    2.38
  -2  -1  10    4.01    1.37
  -2  -1  10    3.08    2.04
   2   1  -9   80.53    7.54
   2   1  -9   71.29    6.70
   2   1  -9   71.26    5.62
  -2  -1   9   73.39    5.81
  -2  -1   9   83.71    6.02
  -2  -1   9   74.18    5.34
  -2  -1   9   70.54    4.74
   2   1  -8    1.17    1.40
   2   1  -8    0.40    1.30
   2   1  -8    1.49    0.91
  -2  -1   8    0.41    1.03
  -2  -1   8    1.08    1.62
  -2  -1   8    1.31    0.86
  -2  -1   8    0.70    0.74
   2   1  -7    4.93    2.93
   2   1  -7    4.93    1.60
   2   1  -7    3.76    1.08
  -2  -1   7    4.29    1.34
  -2  -1   7    4.27    1.23
  -2  -1   7    3.78    1.01
  -2  -1   7    3.35    0.86
   2   1  -6  452.54   34.83
   2   1  -6  405.15   25.41
   2   1  -6  379.96   21.25
  -2  -1   6  394.66   24.32
  -2  -1   6  452.39   25.03
  -2  -1   6  442.56   23.66
  -2  -1   6  380.21   20.10
   2   1  -5   33.38    3.49
   2   1  -5   29.54    4.54
   2   1  -5   28.28    1.78
  -2  -1   5   27.62    2.64
  -2  -1   5   32.30    2.32
  -2  -1   5   27.44    1.51
   2   1  -4    0.21    1.03
   2   1  -4    0.60    0.88
   2   1  -4    0.88    0.23
   2   1  -4    0.65    0.51
   2   1  -4    0.55    0.38
  -2  -1   4    0.79    0.77
  -2  -1   4    0.95    0.74
  -2  -1   4    0.34    0.15
  -2  -1   4    0.52    0.31
   2   1  -3    0.10    1.02
   2   1  -3    0.53    0.88
   2   1  -3    1.40    0.49
   2   1  -3    1.66    0.83
   2   1  -3    0.65    0.47
  -2  -1   3    0.56    0.74
  -2  -1   3    0.74    0.71
  -2  -1   3    1.13    0.50
  -2  -1   3    0.54    0.48
  -2  -1   3    0.74    0.23
   2   1  -2    7.66    1.65
   2   1  -2    8.99    2.39
   2   1  -2    7.77    0.71
   2   1  -2    9.78    0.89
  -2  -1   2    8.49    1.26
  -2  -1   2    9.44    2.12
  -2  -1   2    8.49    1.32
  -2  -1   2    8.70    0.30
   2   1  -1  379.12   21.39
   2   1  -1  361.23   20.25
   2   1  -1  359.54   17.53
   2   1  -1  430.84   20.07
  -2  -1   1  373.69   19.34
  -2  -1   1  372.88   19.61
  -2  -1   1  392.98   19.37
  -2  -1   1  393.32   18.44
   2   1   0  538.11   32.23
   2   1   0  558.77   37.01
   2   1   0  528.14   29.57
   2   1   0  578.31   33.11
  -2  -1   0  577.23   31.58
  -2  -1   0  571.89   36.56
  -2  -1   0  521.86   30.33
  -2  -1   0  625.70   34.98
   2   1   1   43.65    2.70
   2   1   1   46.56    2.90
   2   1   1   49.71    4.02
   2   1   1   45.79    2.51
  -2  -1  -1   44.02    2.55
  -2  -1  -1   44.03    2.90
  -2  -1  -1   45.41    4.20
  -2  -1  -1   49.44    2.42
   2   1   2  491.58   27.81
   2   1   2  539.57   33.25
   2   1   2  505.60   31.64
   2   1   2  540.60   33.36
  -2  -1  -2  600.75   29.88
  -2  -1  -2  548.51   35.57
  -2  -1  -2  499.47   34.31
  -2  -1  -2  615.88   35.58
   2   1   3  182.76    8.93
   2   1   3  202.71    9.80
   2   1   3  174.11    8.81
   2   1   3  182.68    9.51
   2   1   3  161.66    5.58
  -2  -1  -3  194.23    7.25
  -2  -1  -3  183.14    9.88
  -2  -1  -3  164.47   12.90
  -2  -1  -3  196.15    9.67
   2   1   4  731.06   40.43
   2   1   4  766.14   49.91
   2   1   4  835.15   53.63
   2   1   4  759.52   50.43
   2   1   4  650.55   37.90
  -2  -1  -4  864.13   43.88
  -2  -1  -4  812.13   54.59
  -2  -1  -4  710.02   50.26
  -2  -1  -4  842.77   58.00
  -2  -1  -4  603.16   41.81
   2   1   5    0.41    0.60
   2   1   5    1.02    0.87
   2   1   5    0.48    0.85
   2   1   5    0.14    0.34
  -2  -1  -5   -0.27    1.73
  -2  -1  -5   -0.68    0.89
  -2  -1  -5    0.73    0.43
   2   1   6 1031.51   71.50
   2   1   6  809.34   59.92
  -2  -1  -6  844.44   71.97
  -2  -1  -6  897.23   64.42
  -2  -1  -6  597.02   50.87
   2   1   7   68.39    4.90
   2   1   7   46.93    4.74
  -2  -1  -7   63.20    4.20
  -2  -1  -7   59.19    8.74
  -2  -1  -7   55.69    4.93
  -2  -1  -7   41.81    3.33
   2   1   8    8.36    3.04
   2   1   8    8.13    1.98
   2   1   8    5.28    1.13
  -2  -1  -8    8.20    1.54
  -2  -1  -8    9.18    4.11
  -2  -1  -8   10.26    3.18
  -2  -1  -8    7.64    1.42
   2   1   9   27.70    2.82
   2   1   9   20.75    3.54
  -2  -1  -9   23.96    4.26
   2   1  10   15.18    2.30
   2   1  10   13.98    3.00
  -2  -1 -10   14.15    2.33
   2   1  11    8.28    1.87
   2   1  11    6.96    2.58
  -2  -1 -11    7.01    1.95
   2   1  12    8.81    1.98
   2   1  12    6.20    2.81
  -2  -1 -12    8.33    2.12
   2   1  13    2.18    2.12
   2   1  13    0.02    1.91
  -2  -1 -13    3.15    2.75
   2   1  14   -0.36    0.91
   2   1  14   -0.10    1.42
  -2  -1 -14    0.41    1.18
   2   1  15    3.19    1.35
   2   1  15    4.09    2.30
   2   1  16    0.43    2.39
   2   1  17   -1.16    1.53
   2   2 -19    6.12    2.15
  -2  -2  19    0.01    1.20
   2   2 -18    3.29    2.27
   2   2 -18    1.72    1.62
  -2  -2  18    0.98    1.47
   2   2 -17    2.75    2.34
   2   2 -17    1.05    1.67
  -2  -2  17    0.62    1.57
   2   2 -16   35.79    9.05
   2   2 -16   15.99    4.04
  -2  -2  16   20.41    5.84
   2   2 -15   39.60   10.20
   2   2 -15   32.71    8.15
  -2  -2  15   33.41    5.08
   2   2 -14    1.42    2.31
   2   2 -14    2.36    2.90
  -2  -2  14    1.02    1.68
   2   2 -13   96.91   16.02
   2   2 -13  150.46   14.08
   2   2 -13  132.63   11.97
  -2  -2  13  139.77   15.89
   2   2 -12   22.99    4.63
   2   2 -12   27.66    4.95
   2   2 -12   24.19    3.93
  -2  -2  12   26.87    3.67
   2   2 -11   64.39    7.75
   2   2 -11   64.40    7.28
   2   2 -11   65.69    6.26
  -2  -2  11   66.25    5.98
   2   2 -10    3.96    2.14
   2   2 -10    3.11    2.04
   2   2 -10    2.93    1.51
  -2  -2  10    3.04    1.50
  -2  -2  10    4.35    1.28
   2   2  -9    4.12    3.51
   2   2  -9    5.85    1.98
   2   2  -9    4.10    1.41
  -2  -2   9    3.88    1.33
  -2  -2   9    5.27    1.59
  -2  -2   9    5.23    2.32
  -2  -2   9    4.35    1.19
   2   2  -8   34.58    4.44
   2   2  -8   31.32    3.86
   2   2  -8   27.40    4.19
  -2  -2   8   28.55    4.36
  -2  -2   8   38.95    3.19
  -2  -2   8   33.22    2.89
  -2  -2   8   30.63    2.49
   2   2  -7   50.45    5.15
   2   2  -7   46.17    4.29
   2   2  -7   38.43    4.36
  -2  -2   7   42.91    5.01
  -2  -2   7   55.37    5.34
  -2  -2   7   50.07    3.44
  -2  -2   7   44.91    2.82
   2   2  -6  176.21   12.31
   2   2  -6  161.18   13.20
   2   2  -6  139.76    9.44
  -2  -2   6  183.67   14.11
  -2  -2   6  190.47    9.46
  -2  -2   6  161.47    7.46
   2   2  -5  217.25   14.06
   2   2  -5  205.91   15.65
   2   2  -5  214.66   10.88
   2   2  -5  163.78    9.85
  -2  -2   5  228.91   16.14
  -2  -2   5  221.13   10.77
  -2  -2   5  208.72    8.78
   2   2  -4  279.19   21.99
   2   2  -4  262.99   14.84
   2   2  -4  284.21   16.55
   2   2  -4  235.39   11.67
  -2  -2   4  289.71   19.22
  -2  -2   4  264.10   15.04
  -2  -2   4  286.75   14.07
  -2  -2   4  261.85   11.61
   2   2  -3   31.38    4.90
   2   2  -3   31.38    2.66
  -2  -2   3   32.55    3.38
  -2  -2   3   37.34    2.23
  -2  -2   3   30.34    2.00
  -2  -2   3   35.27    2.20
  -2  -2   3   30.63    1.30
   2   2  -2   69.29    7.18
   2   2  -2   69.88    5.96
   2   2  -2   76.83    3.58
   2   2  -2   75.96    3.95
  -2  -2   2   74.03    3.83
  -2  -2   2   81.86    3.80
  -2  -2   2   71.83    3.27
   2   2  -1  187.00   10.85
   2   2  -1  202.82   10.40
   2   2  -1  210.59    8.96
   2   2  -1  241.27   11.28
  -2  -2   1  204.79    9.58
  -2  -2   1  225.17   12.70
  -2  -2   1  205.28   11.37
   2   2   0  234.53   13.30
   2   2   0  264.06   13.33
   2   2   0  274.41   12.74
   2   2   0  295.39   14.77
  -2  -2   0  292.64   13.35
  -2  -2   0  275.38   13.62
  -2  -2   0  257.52   13.13
  -2  -2   0  333.07   18.46
   2   2   1  105.96    5.83
   2   2   1  123.32    7.72
   2   2   1  121.63    5.69
   2   2   1  119.27    6.37
  -2  -2  -1  141.33    6.72
  -2  -2  -1  124.46    8.01
  -2  -2  -1  109.77    6.03
  -2  -2  -1  122.75    6.51
   2   2   2   62.21    5.04
   2   2   2   70.72    3.63
   2   2   2   77.38    4.07
   2   2   2   74.77    4.52
  -2  -2  -2   81.19    2.91
  -2  -2  -2   71.97    4.15
  -2  -2  -2   66.91    4.55
  -2  -2  -2   81.80    6.85
   2   2   3   14.35    1.99
   2   2   3   10.20    1.56
   2   2   3   13.91    1.64
   2   2   3   12.45    1.82
  -2  -2  -3   13.51    1.12
  -2  -2  -3   11.71    1.58
  -2  -2  -3   13.03    2.06
  -2  -2  -3   13.45    1.79
   2   2   4  125.00    5.62
   2   2   4  133.05    6.30
   2   2   4  169.65   11.37
   2   2   4  145.09   11.35
  -2  -2  -4  130.22    5.57
  -2  -2  -4  141.37    9.09
  -2  -2  -4  158.49    8.78
   2   2   5  172.78   12.27
   2   2   5  163.93   11.21
  -2  -2  -5  164.86   11.54
  -2  -2  -5  176.11   14.41
   2   2   6   59.79    4.01
   2   2   6   49.55    4.81
  -2  -2  -6   56.68    3.48
  -2  -2  -6   58.13    5.50
  -2  -2  -6   56.80    4.95
   2   2   7    2.54    1.11
   2   2   7    2.86    1.40
  -2  -2  -7    2.18    0.87
  -2  -2  -7    1.67    1.69
  -2  -2  -7    1.25    1.37
   2   2   8   14.47    2.10
   2   2   8    8.76    2.65
  -2  -2  -8   15.23    2.75
   2   2   9    5.05    1.48
   2   2   9    3.18    1.92
  -2  -2  -9    2.89    1.24
   2   2  10    3.13    1.37
   2   2  10   -0.07    1.85
   2   2  11    9.93    3.49
   2   2  11    7.96    2.95
   2   2  12   -0.17    1.03
   2   2  12    0.77    1.43
   2   2  13   45.66    4.90
   2   2  13   41.06    6.37
   2   2  14    2.24    1.42
   2   2  14    2.86    3.51
   2   2  15   10.98    5.24
   2   2  16   -1.73    1.38
  -2  -2 -16    0.16    0.92
   2   2  17   -2.47    1.62
   2   3 -19    6.18    3.24
  -2  -3  19   10.86    2.13
   2   3 -18   -1.30    1.80
   2   3 -18    1.80    1.20
  -2  -3  18   -0.30    1.23
   2   3 -17   -0.09    2.22
   2   3 -17    1.66    1.55
  -2  -3  17    1.29    2.45
   2   3 -16   26.76    9.74
   2   3 -16   25.62    6.87
  -2  -3  16   26.23    4.36
   2   3 -15   17.13    6.44
   2   3 -15    7.93    4.92
  -2  -3  15   12.09    3.09
   2   3 -14    8.79    3.49
   2   3 -14    7.20    2.71
  -2  -3  14   10.65    4.43
   2   3 -13    7.97    3.44
   2   3 -13   14.26    3.65
   2   3 -13    9.89    2.83
  -2  -3  13   11.88    2.88
   2   3 -12    1.74    1.79
   2   3 -12    0.87    1.76
   2   3 -12    0.26    1.35
  -2  -3  12    0.52    1.38
   2   3 -11    0.00    3.00
   2   3 -11    1.18    1.74
   2   3 -11    1.33    1.28
  -2  -3  11    0.90    1.38
   2   3 -10    3.80    3.51
   2   3 -10    2.59    1.88
   2   3 -10    1.87    2.19
  -2  -3  10    1.89    2.39
   2   3  -9   52.90    6.26
   2   3  -9   43.42    5.08
   2   3  -9   38.42    5.58
  -2  -3   9   57.28    4.42
  -2  -3   9   48.95    4.40
  -2  -3   9   38.06    4.99
   2   3  -8   18.32    3.36
   2   3  -8   13.76    2.60
   2   3  -8   11.98    2.74
  -2  -3   8   13.60    2.10
  -2  -3   8   14.50    2.03
  -2  -3   8   15.26    2.21
  -2  -3   8   12.70    2.68
   2   3  -7    2.97    1.70
   2   3  -7    0.81    2.06
   2   3  -7    1.40    0.76
  -2  -3   7    1.28    1.07
  -2  -3   7    2.29    0.94
  -2  -3   7    1.09    0.75
   2   3  -6    2.39    2.93
   2   3  -6    3.02    2.18
   2   3  -6    1.84    1.20
   2   3  -6    2.58    0.70
  -2  -3   6    2.11    1.10
  -2  -3   6    4.41    1.53
  -2  -3   6    1.63    0.68
   2   3  -5   68.22    8.95
   2   3  -5   65.93    4.87
   2   3  -5   72.85    4.70
  -2  -3   5   65.84    4.56
  -2  -3   5   74.35    4.07
  -2  -3   5   61.39    2.97
   2   3  -4 1648.72  149.26
   2   3  -4 1512.62  132.68
   2   3  -4 1782.48  156.18
   2   3  -4 1123.53  101.32
  -2  -3   4 1763.25  148.79
  -2  -3   4 1789.17  145.35
  -2  -3   4 1631.14  123.98
   2   3  -3   30.75    3.51
   2   3  -3   30.23    3.76
  -2  -3   3   35.90    2.64
  -2  -3   3   29.21    1.88
  -2  -3   3   28.41    1.63
  -2  -3   3   29.90    0.94
   2   3  -2   24.27    2.95
   2   3  -2   22.86    1.98
   2   3  -2   22.65    1.68
  -2  -3   2   29.56    2.16
  -2  -3   2   26.69    2.58
  -2  -3   2   23.23    1.63
   2   3  -1  159.23    9.55
   2   3  -1  143.39    8.87
   2   3  -1  153.96    6.59
   2   3  -1  160.27    9.15
  -2  -3   1  170.60    9.36
  -2  -3   1  169.99    7.47
  -2  -3   1  165.14    7.97
   2   3   0   16.10    2.06
   2   3   0   12.90    1.29
   2   3   0   14.75    1.20
  -2  -3   0   17.37    1.31
  -2  -3   0   13.82    1.80
  -2  -3   0   14.33    1.67
   2   3   1  115.49    6.88
   2   3   1  120.94    5.83
   2   3   1  131.13   10.21
  -2  -3  -1  140.88    5.78
  -2  -3  -1  105.85    5.72
  -2  -3  -1  111.34    6.79
  -2  -3  -1  137.12    7.98
   2   3   2  209.56   11.82
   2   3   2  215.39   11.24
   2   3   2  225.31   13.67
  -2  -3  -2  265.97   13.03
  -2  -3  -2  187.34   12.27
  -2  -3  -2  252.63   14.63
   2   3   3   11.63    1.48
   2   3   3   12.47    1.54
   2   3   3   12.75    2.14
  -2  -3  -3   13.53    0.99
  -2  -3  -3    8.73    2.14
  -2  -3  -3   12.16    2.20
  -2  -3  -3   13.30    2.07
   2   3   4   61.31    3.99
   2   3   4   60.73    5.09
  -2  -3  -4   60.22    5.43
  -2  -3  -4   63.71    5.01
   2   3   5   13.81    1.80
   2   3   5   12.32    2.37
  -2  -3  -5   11.76    2.63
  -2  -3  -5   11.42    2.27
   2   3   6   31.91    3.02
   2   3   6   28.57    6.04
   2   3   7   23.47    2.79
   2   3   7   20.55    5.70
   2   3   8   51.03    4.77
   2   3   8   43.80    8.84
   2   3   9    1.77    2.45
   2   3   9    1.59    3.06
   2   3   9    3.31    3.19
   2   3  10    3.27    1.63
   2   3  10    2.72    3.63
   2   3  11    4.89    1.89
   2   3  11    4.83    4.25
   2   3  12    1.46    1.37
   2   3  12    0.42    1.93
   2   3  13   18.89    2.99
   2   3  13   13.63    4.04
   2   3  14    6.57    2.85
   2   3  15   -0.09    1.47
  -2  -3 -15    0.79    1.13
   2   3  16   13.20    1.89
  -2  -3 -16   -0.70    1.21
   2   4 -19    7.96    2.06
  -2  -4  19    0.67    1.52
   2   4 -18    1.23    1.80
   2   4 -18    0.56    1.17
  -2  -4  18    1.80    2.24
   2   4 -17    2.68    2.14
   2   4 -17    0.97    1.43
  -2  -4  17    1.08    1.56
   2   4 -16   13.29    3.93
   2   4 -16    6.08    4.33
  -2  -4  16   11.31    2.93
   2   4 -15   11.73    5.85
   2   4 -15    5.65    2.47
  -2  -4  15   10.27    4.38
   2   4 -14    2.29    2.09
   2   4 -14    0.79    3.56
   2   4 -14    1.66    1.62
  -2  -4  14    0.94    1.79
   2   4 -13    5.11    2.80
   2   4 -13    6.08    4.33
   2   4 -13    2.84    2.05
  -2  -4  13    6.37    2.30
   2   4 -12    4.13    3.47
   2   4 -12    2.75    3.10
   2   4 -12    0.07    1.44
  -2  -4  12    1.93    1.63
   2   4 -11   25.94    5.06
   2   4 -11   21.84    4.15
   2   4 -11   17.86    5.07
  -2  -4  11   25.62    5.85
   2   4 -10   14.25    3.77
   2   4 -10   14.11    4.68
   2   4 -10    6.98    3.34
  -2  -4  10   13.55    2.61
   2   4  -9    3.79    2.14
   2   4  -9    2.73    2.55
   2   4  -9    1.32    1.09
  -2  -4   9    1.42    1.42
  -2  -4   9    1.87    1.04
   2   4  -8   26.56    4.60
   2   4  -8   21.81    5.54
  -2  -4   8   22.59    2.58
   2   4  -7  263.37   26.85
   2   4  -7  226.73   16.24
   2   4  -7  255.47   17.07
  -2  -4   7  229.55   17.32
  -2  -4   7  253.69   14.38
   2   4  -6  388.63   28.08
   2   4  -6  341.96   23.29
   2   4  -6  405.00   25.86
  -2  -4   6  349.14   24.70
  -2  -4   6  367.63   20.88
   2   4  -5  158.82   11.84
   2   4  -5  129.97    8.60
   2   4  -5  160.48   10.00
  -2  -4   5  146.01   10.85
  -2  -4   5  149.17    7.53
   2   4  -4   48.11    5.00
   2   4  -4   38.59    4.63
   2   4  -4   44.96    3.88
  -2  -4   4   45.57    3.14
  -2  -4   4   41.44    3.43
   2   4  -3    1.16    1.19
   2   4  -3    0.34    0.63
  -2  -4   3    0.14    0.70
  -2  -4   3    0.11    0.70
   2   4  -2   24.78    3.24
  -2  -4   2   25.42    2.09
  -2  -4   2   21.21    1.95
  -2  -4   2   26.91    2.83
   2   4  -1    2.60    1.43
   2   4  -1    2.16    0.66
   2   4  -1    2.26    1.32
  -2  -4   1    2.71    0.89
  -2  -4   1    2.22    1.00
   2   4   0    9.59    2.07
   2   4   0   10.32    1.87
   2   4   0    7.66    2.04
  -2  -4   0   12.14    1.28
  -2  -4   0    8.68    1.68
  -2  -4   0   10.52    2.04
   2   4   1   48.86    4.39
   2   4   1   54.87    4.77
   2   4   1   55.81    4.78
  -2  -4  -1   64.41    4.65
  -2  -4  -1   43.43    4.11
  -2  -4  -1   62.85    4.91
   2   4   2    3.92    1.36
   2   4   2    3.60    1.67
   2   4   2    8.04    2.58
  -2  -4  -2    4.14    0.85
  -2  -4  -2    1.69    1.52
  -2  -4  -2    3.80    1.59
   2   4   3    5.13    1.48
   2   4   3    7.17    2.04
   2   4   3    7.20    1.91
  -2  -4  -3    5.82    1.46
  -2  -4  -3    5.70    1.92
  -2  -4  -3    4.55    1.75
   2   4   4    1.99    2.56
   2   4   4   13.49    2.35
   2   4   5   73.22    7.93
   2   4   5   68.36    6.90
   2   4   6    7.09    2.87
   2   4   6    5.21    2.39
   2   4   7   52.07    4.88
   2   4   7   44.00    6.02
   2   4   8    1.30    1.26
   2   4   8   -0.54    1.66
   2   4   9   24.61    3.57
   2   4   9   20.39    4.56
   2   4  10    6.75    2.08
   2   4  10    3.58    2.75
   2   4  11   -0.06    1.12
   2   4  11   -0.40    1.56
   2   4  12    0.40    1.69
   2   4  13    0.22    1.53
   2   4  14   -1.49    1.61
  -2  -4 -14    2.46    1.39
   2   4  15   20.83    3.09
  -2  -4 -15   -0.37    1.42
   2   5 -18   13.97    3.15
  -2  -5  18   13.46    4.15
   2   5 -17    8.82    3.53
  -2  -5  17   18.12    3.00
   2   5 -16   28.59    5.10
  -2  -5  16   27.06    4.43
   2   5 -15   14.65    4.10
   2   5 -15   12.67    2.85
  -2  -5  15   14.62    5.51
   2   5 -14    4.96    3.13
   2   5 -14    7.73    3.12
  -2  -5  14    7.36    2.72
   2   5 -13    4.06    3.11
   2   5 -13    6.51    2.84
  -2  -5  13    5.76    2.47
   2   5 -12   19.56    8.07
   2   5 -12   14.80    6.83
  -2  -5  12   22.74    6.05
   2   5 -11    9.53    3.57
   2   5 -11    4.55    4.68
  -2  -5  11    8.06    2.57
   2   5 -10   29.69    5.73
   2   5 -10   20.71    4.31
  -2  -5  10   28.98    4.09
   2   5  -9   42.95    6.62
   2   5  -9   31.72    4.80
  -2  -5   9   42.57    4.71
   2   5  -8    5.29    4.67
   2   5  -8    3.98    1.88
   2   5  -7   61.32    7.31
   2   5  -7   64.66    5.94
   2   5  -6   50.65    6.38
   2   5  -6   52.41    5.11
   2   5  -5    1.38    1.57
   2   5  -5   -0.75    2.05
   2   5  -4   27.93    4.81
   2   5  -4   42.82    4.25
   2   5  -3   38.53    4.91
  -2  -5   3   39.60    3.20
   2   5  -2    4.23    2.09
  -2  -5   2    5.21    2.05
   2   5  -1   32.29    4.61
   2   5  -1   43.47    6.93
  -2  -5   1   38.13    4.73
  -2  -5   1   62.37    7.46
   2   5   0   75.68    6.86
   2   5   0   80.13    4.80
   2   5   0   69.05    7.46
  -2  -5   0   98.83    5.51
   2   5   1  100.57    7.99
   2   5   1   95.38    6.07
   2   5   1  105.45    8.74
  -2  -5  -1  115.08    6.37
   2   5   2    0.86    1.32
   2   5   2    0.77    0.96
   2   5   2    2.03    1.49
  -2  -5  -2    1.76    1.30
   2   5   3   22.30    2.59
   2   5   3   21.76    3.65
   2   5   4    2.94    1.39
   2   5   4    4.60    3.26
   2   5   5   97.76    7.51
   2   5   5   86.65   13.64
   2   5   6    5.56    1.94
   2   5   6    6.06    2.59
   2   5   7   70.60    6.35
   2   5   7   55.69    7.65
   2   5   8    9.32    2.41
   2   5   8    9.13    3.24
   2   5   9    3.40    1.76
   2   5   9    1.75    2.36
   2   5  10    2.18    2.21
   2   5  11    8.40    5.29
   2   5  12    4.08    4.79
  -2  -5 -12   10.02    2.82
   2   5  13    1.87    3.10
  -2  -5 -13    3.23    1.84
   2   5  14   -0.65    1.37
  -2  -5 -14   -1.17    1.27
  -2  -6  18    4.27    1.55
   2   6 -17    1.49    2.45
  -2  -6  17    2.76    1.59
   2   6 -16    1.45    1.50
  -2  -6  16    0.90    1.56
   2   6 -15    0.74    1.71
  -2  -6  15    2.79    2.82
   2   6 -14   41.55    5.34
   2   6 -14   15.29    4.28
  -2  -6  14   20.37    4.30
   2   6 -13   18.12    8.04
  -2  -6  13   21.15    4.07
   2   6 -12   16.48    5.25
  -2  -6  12   22.30    6.32
   2   6 -11   25.08    5.85
  -2  -6  11   24.76    4.18
   2   6 -10   73.61    9.78
  -2  -6  10   69.12    7.19
   2   6  -9   11.12    4.15
  -2  -6   9   11.14    2.87
   2   6  -8    0.37    3.08
   2   6  -7    8.19    3.29
   2   6  -7    6.78    2.50
   2   6  -6    5.09    3.04
   2   6  -6    6.38    2.29
   2   6  -5    2.79    2.31
   2   6  -5    2.15    1.80
   2   6  -4   60.79    7.91
   2   6  -4   77.25   10.16
   2   6  -3   25.20    4.64
   2   6  -2    9.87    3.18
   2   6  -1   21.51    4.20
   2   6  -1   28.54    4.07
  -2  -6   1   21.14    2.77
   2   6   0   14.11    3.40
   2   6   0   15.24    5.49
   2   6   1   18.89    3.81
   2   6   1   21.03    3.87
   2   6   2    2.38    1.80
   2   6   2    2.51    1.97
   2   6   3    2.21    1.94
   2   6   4    4.72    2.42
   2   6   5    2.51    2.14
   2   6   6   -0.45    1.63
   2   6   7   28.97    5.05
   2   6   8    1.12    1.92
   2   6   9    2.45    2.36
  -2  -6  -9    4.16    2.42
   2   6  10    4.36    2.60
  -2  -6 -10    7.14    2.67
   2   6  11    0.82    1.50
  -2  -6 -11   -1.69    1.51
   2   6  12    1.29    1.80
  -2  -6 -12    3.93    1.76
   2   6  13    0.28    1.80
  -2  -6 -13   16.71    3.02
  -2  -7  17   -2.18    1.41
  -2  -7  16    2.10    1.53
   2   7 -15    0.98    2.21
  -2  -7  15   11.29    2.33
   2   7 -14    5.64    2.94
  -2  -7  14    8.52    2.51
   2   7 -13    2.13    4.62
  -2  -7  13    4.84    2.28
   2   7 -12    6.06    3.20
  -2  -7  12    2.96    4.05
   2   7 -11   24.58    5.92
  -2  -7  11   24.69    4.27
  -2  -7  10    0.00    1.28
   2   7  -9   18.66    5.22
  -2  -7   9   13.10    3.31
   2   7  -8   -3.83    4.97
   2   7  -7    1.21    2.30
   2   7  -7    0.69    1.78
   2   7  -6    1.66    2.71
   2   7  -6    1.98    2.13
   2   7  -5   83.89   12.24
   2   7  -5  147.52   12.02
   2   7  -4  198.34   23.43
   2   7  -4  595.11   44.92
   2   7  -3  487.64   44.59
   2   7  -2    3.01    2.61
   2   7  -1    0.13    3.59
   2   7  -1   26.11    4.49
   2   7   0   95.31   10.25
   2   7   0  110.75   11.07
  -2  -7   0   89.99    7.99
   2   7   1    6.24    2.92
   2   7   1    8.33    5.02
  -2  -7  -1    9.16    2.38
   2   7   2   -0.75    2.77
  -2  -7  -2   -0.47    1.38
   2   7   3    4.60    2.30
  -2  -7  -3    2.00    2.02
   2   7   4   -1.22    1.54
  -2  -7  -4    0.56    1.38
   2   7   5   10.08    3.52
  -2  -7  -5   13.25    3.26
   2   7   6    1.08    1.57
  -2  -7  -6   -0.39    1.48
   2   7   7    4.44    2.62
  -2  -7  -7    5.85    2.55
   2   7   8    6.98    2.86
  -2  -7  -8    7.94    2.76
   2   7   9    1.79    1.80
  -2  -7  -9    1.50    1.79
   2   7  10   -0.36    1.10
  -2  -7 -10    0.31    1.09
   2   7  11   -0.79    1.40
  -2  -7 -11   -1.74    2.33
   2   8 -15    4.01    1.53
  -2  -8  15    5.99    3.32
   2   8 -14    3.40    2.31
  -2  -8  14    6.50    2.09
   2   8 -13   -0.10    2.40
  -2  -8  13    0.00    1.19
   2   8 -12    7.82    3.41
  -2  -8  12    5.83    4.23
   2   8 -11    0.65    2.32
  -2  -8  11    1.10    1.66
   2   8 -10    7.78    3.87
  -2  -8  10    5.79    2.70
   2   8  -9    3.83    3.15
  -2  -8   9    2.68    2.11
   2   8  -8    3.47    5.42
   2   8  -7    1.94    5.04
   2   8  -7    3.50    2.50
   2   8  -6    9.75    4.90
   2   8  -6   20.96    4.46
   2   8  -5   79.85   10.99
   2   8  -5   93.66   10.33
   2   8  -4    9.50    4.07
   2   8  -3   93.45   11.79
   2   8  -2   68.03    9.30
   2   8  -2   69.50    9.79
   2   8  -1   42.70    6.40
   2   8  -1   22.76    7.37
   2   8   0   10.73    3.72
   2   8   0   13.20    3.98
   2   8   1    9.50    3.31
   2   8   1    9.93    3.48
  -2  -8  -1   12.97    4.24
   2   8   2    2.07    2.07
  -2  -8  -2    1.38    2.66
   2   8   3    3.26    2.46
  -2  -8  -3    4.02    2.02
   2   8   4    1.42    1.62
  -2  -8  -4   -0.38    1.40
   2   8   5    6.76    4.23
  -2  -8  -5    5.01    2.29
   2   8   6    1.74    3.13
  -2  -8  -6    1.99    1.76
   2   8   7    6.01    3.83
  -2  -8  -7    4.38    3.58
   2   8   8   -0.39    2.02
  -2  -8  -8    0.86    2.23
  -2  -8  -9    5.45    1.41
  -2  -9  14    1.15    1.31
   2   9 -13    3.60    1.84
  -2  -9  13    0.45    1.65
   2   9 -12    9.65    4.51
  -2  -9  12    4.52    2.14
   2   9 -11    2.69    2.55
  -2  -9  11    2.15    2.98
   2   9 -10    1.42    2.18
  -2  -9  10    0.53    1.54
   2   9  -9    0.14    2.13
  -2  -9   9    0.51    1.47
   2   9  -8    9.56    4.16
  -2  -9   8    8.53    2.79
   2   9  -7   31.92   11.13
   2   9  -6   81.48   14.49
   2   9  -6   58.72   10.00
   2   9  -5   83.21   15.51
   2   9  -5   67.87   11.18
   2   9  -4   28.08    6.22
   2   9  -3    4.85    3.09
   2   9  -2    0.50    2.04
   2   9  -2   -2.36    2.10
   2   9  -1    5.27    2.95
   2   9  -1    5.78    4.65
   2   9   0   -0.94    3.02
   2   9   0   -1.66    3.17
   2   9   1    1.98    2.02
   2   9   2   -0.63    1.32
  -2  -9  -2    0.47    1.06
   2   9   3    1.27    1.56
  -2  -9  -3    0.22    1.35
   2   9   4   14.10    2.56
  -2  -9  -4    1.21    2.25
   2   9   5   -0.68    1.22
  -2  -9  -5    0.90    1.15
   2   9   6    2.52    1.24
  -2  -9  -6   -1.61    1.13
   2   9   7    0.58    1.17
  -2  -9  -7    0.45    1.14
   2  10 -11   14.91    3.93
  -2 -10  11    1.48    1.71
   2  10 -10   10.75    3.14
  -2 -10  10   -0.63    3.38
   2  10  -9   10.41    3.63
  -2 -10   9    9.05    2.50
   2  10  -8    3.44    2.71
  -2 -10   8    3.30    1.87
   2  10  -7    4.66    2.91
  -2 -10   7    3.81    2.03
   2  10  -6    8.11    3.66
   2  10  -5    0.90    2.13
   2  10  -4   -1.26    2.18
   2  10  -3   -1.48    3.60
   2  10  -2    0.53    2.89
   2  10  -2   12.22    2.67
   2  10  -1    1.33    1.71
   2  10  -1    1.10    1.65
   2  10   0   -0.02    1.25
   2  10   0    1.01    1.37
   2  10   1    2.88    1.79
   2  10   2   -0.23    1.18
   2  10   3   -3.33    2.80
   2  11  -5    2.14    1.84
   2  11  -4    3.52    2.06
   3 -12   1    3.38    2.48
  -3  12  -1    2.02    1.59
  -3  12  -1    2.31    1.26
   3 -12   2   13.36    2.42
  -3  12  -2   11.20    2.81
  -3  12  -2   10.99    2.25
   3 -12   3    5.45    2.09
  -3  12  -3   14.07    2.54
  -3  12  -3   13.81    2.22
  -3  12  -4    6.64    2.43
  -3  12  -4   16.36    2.30
  -3  12  -5   18.67    3.78
  -3  12  -5    5.26    3.52
   3 -11  -4   -2.30    1.94
  -3  11   4   -0.88    2.45
  -3  11   4   -2.03    1.30
   3 -11  -3    4.98    2.81
  -3  11   3    3.92    3.04
  -3  11   3    6.81    1.93
   3 -11  -2    1.89    1.96
  -3  11   2    2.82    2.24
  -3  11   2    0.47    1.38
   3 -11  -1    2.54    2.33
  -3  11   1    3.04    2.80
  -3  11   1    3.21    1.71
  -3  11   0    0.49    2.12
   3 -11   1    6.79    3.02
  -3  11  -1   10.08    3.75
  -3  11  -1    2.89    3.73
   3 -11   2    1.26    1.55
  -3  11  -2   -2.40    2.41
  -3  11  -2   -1.26    1.97
   3 -11   3   -0.63    2.68
  -3  11  -3   -1.53    2.55
  -3  11  -3   -0.27    1.32
   3 -11   4    5.37    3.51
  -3  11  -4    3.92    2.17
  -3  11  -4    4.21    1.94
   3 -11   5    2.45    1.28
  -3  11  -5    0.86    1.33
  -3  11  -5   -2.25    1.25
   3 -11   6    5.32    2.07
  -3  11  -6    7.27    2.17
  -3  11  -6    6.91    2.14
   3 -11   7    2.13    1.30
  -3  11  -7    2.05    1.39
  -3  11  -7    2.93    2.53
  -3  11  -8    0.38    1.01
  -3  11  -8   -0.26    1.90
  -3  11  -9    1.37    1.35
  -3  11 -10   -1.12    1.27
   3 -10  -7    8.82    2.47
  -3  10   7   -1.27    2.91
   3 -10  -6    1.88    3.30
  -3  10   6    2.05    1.24
  -3  10   6    1.86    2.40
   3 -10  -5    8.39    4.97
  -3  10   5    6.18    2.01
   3 -10  -4    1.36    2.89
  -3  10   4   -0.83    1.17
  -3  10   4    0.59    2.05
   3 -10  -3   16.61    6.39
  -3  10   3    9.95    2.78
  -3  10   3    9.77    4.62
   3 -10  -2   34.90    9.72
  -3  10   2   25.68    4.49
  -3  10   2   30.72    4.72
   3 -10  -1   45.05   10.76
  -3  10   1   34.37    5.19
  -3  10   1   32.29    5.28
   3 -10   0   23.82    4.90
  -3  10   0   17.83    3.66
  -3  10   0   12.07    3.83
   3 -10   1   19.67    4.71
  -3  10  -1   16.42    3.56
  -3  10  -1   14.18    3.73
   3 -10   2   -2.70    1.67
  -3  10  -2    0.19    1.20
  -3  10  -2    1.65    1.33
   3 -10   3   -5.40    2.87
  -3  10  -3   -4.16    2.06
  -3  10  -3   -0.44    3.66
   3 -10   4    6.45    3.04
  -3  10  -4    3.62    2.19
  -3  10  -4    9.59    3.77
   3 -10   5    1.35    3.42
  -3  10  -5    1.80    2.97
   3 -10   6    4.44    2.41
  -3  10  -6    3.01    2.21
  -3  10  -6    7.07    2.18
   3 -10   7    0.70    1.61
  -3  10  -7    1.39    1.48
  -3  10  -7    1.82    1.56
   3 -10   8    0.75    1.35
  -3  10  -8    1.02    2.37
  -3  10  -9    9.77    4.22
  -3  10 -10    0.88    1.42
  -3  10 -11    7.55    2.19
  -3  10 -12    0.06    1.01
  -3  10 -13   12.97    2.72
  -3   9  10   -1.17    1.21
   3  -9  -9    0.91    2.36
  -3   9   9    1.16    1.34
   3  -9  -8    0.46    3.02
  -3   9   8    1.28    1.12
  -3   9   8    2.73    1.59
   3  -9  -7    2.83    2.16
  -3   9   7    2.57    1.40
  -3   9   7    0.83    1.83
   3  -9  -6    1.40    1.84
  -3   9   6    1.98    2.01
  -3   9   6   -1.18    1.49
   3  -9  -5   20.55    4.85
  -3   9   5   15.36    5.52
  -3   9   5   16.04    3.85
   3  -9  -4    3.43    2.88
  -3   9   4    2.94    2.87
  -3   9   4    2.80    2.33
   3  -9  -3   17.09    4.80
  -3   9   3   12.87    4.65
  -3   9   3   12.85    3.77
  -3   9   2    0.26    2.05
  -3   9   2    0.30    1.57
   3  -9  -1   -0.73    3.52
  -3   9   1    1.06    2.15
  -3   9   1    0.40    2.73
   3  -9   0    1.19    4.18
  -3   9   0    1.98    2.99
   3  -9   1   15.44    4.65
  -3   9  -1   13.60    5.48
  -3   9  -1   15.13    3.58
   3  -9   2    1.55    2.48
  -3   9  -2    0.25    1.77
  -3   9  -2    4.59    2.03
   3  -9   3    1.58    2.26
  -3   9  -3    1.67    1.58
  -3   9  -3    0.69    1.81
   3  -9   4    8.84    3.51
  -3   9  -4    5.73    2.45
  -3   9  -4   10.97    2.74
   3  -9   5   18.21    3.63
  -3   9  -5    6.57    2.38
  -3   9  -5    1.89    4.32
   3  -9   6   40.96   10.04
  -3   9  -6   29.20    7.13
  -3   9  -6   61.04    5.74
   3  -9   7    2.22    2.34
  -3   9  -7    3.58    1.95
  -3   9  -7    5.43    2.09
   3  -9   8    1.78    2.01
  -3   9  -8    3.45    1.87
  -3   9  -9    0.20    2.15
  -3   9 -10    1.12    1.66
  -3   9 -11    2.36    1.83
  -3   9 -12    1.21    1.50
  -3   9 -13   15.92    5.21
  -3   9 -14    3.04    1.86
   3  -8 -11    3.01    1.05
  -3   8  11   -1.96    1.41
   3  -8 -10    0.80    2.18
  -3   8  10    0.49    0.81
  -3   8  10    0.91    1.38
   3  -8  -9    1.44    1.66
  -3   8   9    0.80    1.78
  -3   8   9    0.47    1.58
   3  -8  -8    3.91    2.17
  -3   8   8    1.17    1.26
  -3   8   8    4.80    3.15
   3  -8  -7    8.76    2.90
  -3   8   7    3.69    1.72
  -3   8   7    2.49    2.52
   3  -8  -6   29.87    5.51
  -3   8   6   19.80    3.42
  -3   8   6   24.01    4.89
   3  -8  -5   -0.60    1.93
  -3   8   5    0.99    1.19
  -3   8   5   -0.30    1.60
   3  -8  -4   11.71    3.98
  -3   8   4    8.61    2.54
  -3   8   4    9.70    3.22
   3  -8  -3   18.42    4.84
  -3   8   3   14.48    3.02
  -3   8   3   15.10    3.83
  -3   8   2   17.25    3.18
  -3   8   2   17.36    3.91
   3  -8  -1    3.26    2.63
  -3   8   1    0.83    1.54
  -3   8   1    2.34    1.98
   3  -8   0    4.29    5.40
  -3   8   0    6.48    2.10
  -3   8   0    5.80    2.71
   3  -8   1    1.54    3.32
  -3   8  -1   -1.06    1.24
   3  -8   2    1.29    1.93
  -3   8  -2   -0.59    1.19
  -3   8  -2    1.87    1.45
   3  -8   3    6.09    3.00
  -3   8  -3    3.45    2.88
  -3   8  -3    6.26    2.25
   3  -8   4    0.14    1.80
  -3   8  -4    0.11    1.17
  -3   8  -4   -1.22    1.39
   3  -8   5    5.33    2.77
  -3   8  -5    4.20    1.80
  -3   8  -5    5.86    3.57
   3  -8   6   10.72    4.94
  -3   8  -6    6.24    2.11
  -3   8  -6   12.44    2.59
   3  -8   7   15.46    4.08
  -3   8  -7   22.41    3.49
   3  -8   8   31.90    5.69
  -3   8  -8   47.29    5.06
   3  -8   9   15.97    6.41
  -3   8  -9   25.82    5.89
  -3   8 -10    1.40    1.73
  -3   8 -11    6.05    2.45
  -3   8 -12   21.95    5.58
  -3   8 -12   51.82    5.21
  -3   8 -13    4.01    1.83
  -3   8 -13    7.85    3.48
  -3   8 -14    1.85    1.41
  -3   8 -14    3.31    1.91
  -3   8 -15   43.09    5.20
  -3   8 -15  117.22    7.84
  -3   8 -16    2.47    2.33
  -3   7  13    0.36    1.88
  -3   7  12   -0.29    2.19
  -3   7  11    0.45    1.52
   3  -7 -10    0.97    1.54
  -3   7  10    0.30    0.91
  -3   7  10    2.46    1.72
   3  -7  -9    2.77    2.02
  -3   7   9    1.77    1.22
  -3   7   9   -0.18    2.09
   3  -7  -8    6.49    2.76
  -3   7   8    3.68    1.74
  -3   7   8    6.53    2.68
   3  -7  -7   22.42    4.82
  -3   7   7   16.56    3.17
  -3   7   7   21.78    4.56
   3  -7  -6    6.33    3.15
  -3   7   6    5.77    2.16
  -3   7   6    7.27    2.92
   3  -7  -5   -0.30    1.89
  -3   7   5    1.12    2.00
  -3   7   5    0.50    2.75
   3  -7  -4  206.77   20.64
  -3   7   4  192.69   20.21
  -3   7   4  222.90   26.01
   3  -7  -3    8.62    3.82
  -3   7   3   10.14    3.92
  -3   7   3    9.70    5.07
   3  -7  -2  306.59   27.43
  -3   7   2  274.69   25.99
  -3   7   2  305.33   24.52
   3  -7  -1    8.01    3.05
  -3   7   1    5.92    1.85
  -3   7   1    2.27    2.53
   3  -7   0    4.20    2.98
  -3   7   0    3.35    1.82
  -3   7   0   14.68    2.82
   3  -7   1   33.51    8.43
  -3   7  -1   25.33    3.30
  -3   7  -1   31.65    4.46
   3  -7   2   53.37    7.28
  -3   7  -2   45.20    4.69
  -3   7  -2   86.13    9.28
   3  -7   3   46.28    6.63
  -3   7  -3   39.15    4.22
  -3   7  -3   69.08    5.76
   3  -7   4    0.76    1.80
  -3   7  -4    0.70    0.97
   3  -7   5    3.92    2.64
  -3   7  -5    3.83    2.57
  -3   7  -5    5.60    2.00
   3  -7   6   12.00    4.99
  -3   7  -6    8.42    1.94
  -3   7  -6   16.43    3.94
   3  -7   7    2.32    2.15
  -3   7  -7    2.46    1.69
  -3   7  -7    4.25    1.75
   3  -7   8   -0.16    1.75
  -3   7  -8    1.02    1.46
  -3   7  -8    1.62    1.41
   3  -7   9   13.96    5.61
  -3   7  -9   10.22    4.74
  -3   7  -9   19.88    4.84
   3  -7  10   -1.18    1.33
  -3   7 -10    1.16    1.25
  -3   7 -10    1.32    1.40
  -3   7 -11    1.40    1.82
  -3   7 -11    4.65    1.99
  -3   7 -12   15.18    3.34
  -3   7 -12   24.07    3.67
  -3   7 -13    3.12    1.88
  -3   7 -13    5.58    3.22
  -3   7 -14    4.72    4.03
  -3   7 -14    7.05    2.47
  -3   7 -15   33.53    4.63
  -3   7 -15   39.39    4.90
  -3   7 -16    0.79    1.32
  -3   7 -16    1.75    2.15
  -3   6  14    4.32    2.12
  -3   6  13   -1.46    1.73
  -3   6  12    5.15    2.54
  -3   6  11   -0.02    0.77
  -3   6  11    0.93    1.46
  -3   6  10    1.07    1.14
  -3   6  10    2.12    1.93
   3  -6  -9    0.01    1.81
  -3   6   9    1.08    2.10
  -3   6   9    2.48    1.92
   3  -6  -8    1.44    1.77
  -3   6   8    1.01    1.24
  -3   6   8   -0.30    1.82
   3  -6  -7    0.23    1.94
  -3   6   7    1.70    1.35
  -3   6   7    1.27    1.91
   3  -6  -6  119.76   12.23
  -3   6   6  112.37    9.92
  -3   6   6  134.50   13.13
   3  -6  -5    9.97    3.12
  -3   6   5    6.18    2.27
  -3   6   5    6.94    2.96
   3  -6  -4  431.11   37.73
  -3   6   4  407.92   32.17
  -3   6   4  455.29   37.29
   3  -6  -3    2.76    1.64
  -3   6   3   -0.08    1.14
  -3   6   3   -1.21    1.42
   3  -6  -2  196.30   16.99
  -3   6   2  178.63   13.30
  -3   6   2  195.82   19.68
   3  -6  -1    2.11    1.77
  -3   6   1    0.26    1.17
   3  -6   0   72.47    7.89
  -3   6   0   69.39    5.98
  -3   6   0   80.22    7.27
   3  -6   1   14.30    3.36
   3  -6   1   24.09    5.85
  -3   6  -1   19.04    3.67
  -3   6  -1   11.65    2.38
   3  -6   2    1.99    1.15
   3  -6   2    0.29    1.62
  -3   6  -2   -1.07    1.43
  -3   6  -2    0.21    1.04
   3  -6   3  190.32   15.14
  -3   6  -3  167.08   10.28
  -3   6  -3  130.23   15.33
  -3   6  -3  190.97   12.06
   3  -6   4    3.03    1.14
   3  -6   4    5.60    2.31
  -3   6  -4    3.57    1.15
   3  -6   5    3.22    1.24
   3  -6   5    9.61    3.90
  -3   6  -5    3.97    1.13
  -3   6  -5    5.42    1.71
   3  -6   6    2.11    3.62
  -3   6  -6    5.28    2.67
   3  -6   7   11.74    3.18
  -3   6  -7    8.69    2.88
  -3   6  -7   15.39    2.42
   3  -6   8    2.26    1.84
  -3   6  -8    0.08    1.79
  -3   6  -8    2.20    1.44
   3  -6   9   31.00    7.46
  -3   6  -9   24.28    4.85
  -3   6  -9   36.32    5.96
  -3   6 -10   17.96    7.25
  -3   6 -10   29.71    3.99
   3  -6  11    5.32    2.46
  -3   6 -11    8.95    4.94
  -3   6 -11   11.35    2.54
  -3   6 -12   13.26    3.33
  -3   6 -12   15.14    3.11
  -3   6 -13    2.86    2.05
  -3   6 -13    3.47    3.40
  -3   6 -14   15.50    3.39
  -3   6 -14   16.31    3.45
  -3   6 -15    0.11    2.63
  -3   6 -15   -0.59    1.34
  -3   6 -16    6.02    2.32
  -3   6 -16    6.77    3.33
  -3   6 -17   -2.05    1.42
  -3   6 -17   -0.52    1.16
  -3   5  15   -3.74    1.91
  -3   5  14    8.11    2.78
  -3   5  13    1.33    1.85
  -3   5  12   -4.21    4.10
  -3   5  11    0.50    1.02
  -3   5  11    0.91    2.84
  -3   5  10    0.70    1.18
  -3   5  10    2.61    3.00
   3  -5  -9   13.39    3.08
  -3   5   9    9.57    2.32
  -3   5   9   13.37    5.32
   3  -5  -8    1.05    1.81
  -3   5   8    1.85    1.37
  -3   5   8    1.81    3.14
   3  -5  -7   14.45    3.32
  -3   5   7   12.54    2.66
  -3   5   7   14.20    5.48
   3  -5  -6    6.25    2.51
  -3   5   6    5.38    1.97
  -3   5   6    6.78    2.59
   3  -5  -5   37.08    6.51
   3  -5  -5   47.71    5.41
  -3   5   5   37.57    4.50
  -3   5   5   39.20    3.39
  -3   5   5   48.65    5.57
   3  -5  -4    2.20    1.50
   3  -5  -4    3.45    1.98
  -3   5   4    2.40    1.50
  -3   5   4    3.53    1.75
  -3   5   4    4.95    1.88
   3  -5  -3   17.38    2.77
   3  -5  -3   22.43    3.62
  -3   5   3   15.87    2.64
  -3   5   3   19.75    2.48
  -3   5   3   21.71    3.21
   3  -5  -2   86.77    7.09
   3  -5  -2  102.68    8.87
   3  -5  -2  108.49    6.74
  -3   5   2   84.66    6.81
  -3   5   2   87.32    6.50
  -3   5   2  110.76    8.16
   3  -5  -1   76.44    8.87
   3  -5  -1   93.49    7.99
   3  -5  -1   85.47    5.78
  -3   5   1   78.66    5.87
  -3   5   1   74.88    8.58
  -3   5   1   90.17    9.23
   3  -5   0    0.94    1.62
   3  -5   0   -0.07    2.64
  -3   5   0    0.29    1.00
  -3   5   0    0.31    1.13
  -3   5   0    5.29    1.45
   3  -5   1   22.67    2.73
   3  -5   1   28.00    6.37
  -3   5  -1   24.85    2.62
  -3   5  -1   19.87    2.98
  -3   5  -1   30.41    3.40
  -3   5  -1   29.08    2.99
  -3   5  -1   28.10    3.23
   3  -5   2    0.30    1.03
   3  -5   2    0.15    1.55
  -3   5  -2    1.89    0.85
  -3   5  -2    0.36    1.25
  -3   5  -2    1.04    1.24
   3  -5   3  140.85   11.92
   3  -5   3  123.39   10.38
  -3   5  -3  111.55    8.92
  -3   5  -3  105.55    8.94
  -3   5  -3  127.55    9.21
  -3   5  -3  129.63    7.85
   3  -5   4    2.34    1.06
   3  -5   4    2.65    1.91
   3  -5   4    1.19    1.41
  -3   5  -4    1.69    0.86
  -3   5  -4    1.08    1.61
  -3   5  -4    4.93    1.36
   3  -5   5  161.21   10.10
   3  -5   5  154.17   17.16
   3  -5   5  161.05   10.73
  -3   5  -5  135.52   16.73
  -3   5  -5  176.78   13.80
   3  -5   6    1.85    1.20
  -3   5  -6    2.77    1.28
  -3   5  -7   70.24    5.38
   3  -5   8    0.79    3.34
  -3   5  -8    5.31    2.12
  -3   5  -8    2.42    1.46
   3  -5   9    4.48    1.98
  -3   5  -9    3.52    2.37
  -3   5  -9    4.27    2.81
  -3   5 -10    0.27    1.68
  -3   5 -10    0.45    1.19
  -3   5 -11    1.54    3.08
  -3   5 -11    0.86    1.40
   3  -5  12    1.80    1.46
  -3   5 -12    3.02    3.97
  -3   5 -12    4.85    2.79
  -3   5 -13    1.23    1.64
  -3   5 -13    0.12    1.49
  -3   5 -14    3.44    2.84
  -3   5 -14   12.17    2.59
  -3   5 -15    0.85    1.58
  -3   5 -15    0.17    2.19
  -3   5 -16    4.72    2.00
  -3   5 -16    0.27    1.51
  -3   5 -17    2.75    1.57
  -3   5 -17    0.49    1.13
  -3   4  16    1.79    1.63
  -3   4  15   -1.01    2.72
  -3   4  14    3.26    3.58
  -3   4  13   -0.10    1.50
  -3   4  12   13.01    2.50
  -3   4  12   35.83    4.44
  -3   4  11    0.91    1.17
  -3   4  11    1.53    1.85
   3  -4 -10   13.48    3.24
  -3   4  10    8.45    2.18
  -3   4  10   13.01    3.21
   3  -4  -9   16.93    3.54
  -3   4   9   15.34    4.94
  -3   4   9   11.76    3.40
   3  -4  -8    2.02    1.82
   3  -4  -8    0.85    1.64
  -3   4   8    3.17    2.74
  -3   4   8    2.39    1.73
   3  -4  -7   26.20    3.99
   3  -4  -7   20.29    3.60
  -3   4   7   23.45    3.67
  -3   4   7   26.61    3.92
   3  -4  -6   20.72    3.47
   3  -4  -6   17.74    3.25
  -3   4   6   19.13    3.27
  -3   4   6   22.93    2.44
  -3   4   6   18.68    5.18
   3  -4  -5   19.87    3.21
   3  -4  -5   17.56    3.10
   3  -4  -5   20.28    3.00
  -3   4   5   17.19    2.98
  -3   4   5   18.80    3.37
  -3   4   5   18.85    4.77
   3  -4  -4    0.60    1.05
   3  -4  -4    0.36    1.06
   3  -4  -4    0.36    0.63
  -3   4   4   -0.21    1.00
  -3   4   4    0.60    1.40
  -3   4   4   -0.32    0.83
  -3   4   4   -0.23    0.97
   3  -4  -3  169.12   14.83
   3  -4  -3  172.17   12.29
   3  -4  -3  171.38    9.66
  -3   4   3  170.95   11.92
  -3   4   3  172.23   14.46
  -3   4   3  175.23   10.99
  -3   4   3  183.76   12.06
   3  -4  -2  258.80   17.18
   3  -4  -2  256.41   17.90
  -3   4   2  249.23   17.02
  -3   4   2  277.91   21.92
  -3   4   2  267.53   17.26
   3  -4  -1   52.79    4.68
   3  -4  -1   49.41    7.81
  -3   4   1   48.74    4.57
  -3   4   1   49.19    4.46
  -3   4   1   61.65    4.64
  -3   4   1   49.53    6.37
   3  -4   0   44.77    4.40
   3  -4   0   45.61    4.99
  -3   4   0   43.37    6.00
  -3   4   0   40.90    4.17
  -3   4   0   49.68    4.30
  -3   4   0   62.96    4.43
   3  -4   1   72.06    7.53
   3  -4   1   76.40    6.68
  -3   4  -1   63.41    6.14
  -3   4  -1   70.48    8.92
  -3   4  -1   75.22    5.75
  -3   4  -1   87.02    5.38
  -3   4  -1   82.64    5.58
   3  -4   2    1.89    1.26
   3  -4   2    2.12    1.73
  -3   4  -2    2.57    0.88
  -3   4  -2    3.10    1.56
  -3   4  -2    4.19    1.38
   3  -4   3    5.00    1.50
   3  -4   3    6.55    1.96
   3  -4   3    5.06    1.29
  -3   4  -3    3.08    0.94
  -3   4  -3    4.26    1.83
  -3   4  -3    5.94    2.90
  -3   4  -3    4.48    1.18
   3  -4   4    0.37    2.05
   3  -4   4    1.35    1.01
  -3   4  -4    0.07    1.06
  -3   4  -4    3.30    2.42
  -3   4  -4    1.94    0.92
   3  -4   5  237.38   14.43
   3  -4   5  224.13   13.79
  -3   4  -5  212.41   17.01
  -3   4  -5  254.98   16.18
   3  -4   6    5.00    1.49
   3  -4   6    1.97    2.16
   3  -4   6    5.19    2.40
  -3   4  -6    4.26    2.27
  -3   4  -6    5.71    1.33
   3  -4   7   96.77    6.92
   3  -4   7   87.19    8.46
   3  -4   7   81.73    9.00
  -3   4  -7   87.20    5.87
   3  -4   8    1.75    1.62
  -3   4  -8    2.24    2.02
   3  -4   9    0.63    1.23
  -3   4  -9    0.63    1.43
  -3   4  -9   -0.23    0.97
   3  -4  10   -1.11    1.37
  -3   4 -10   -1.51    1.66
  -3   4 -10    0.41    1.10
   3  -4  11    1.46    1.99
  -3   4 -11    0.46    1.92
  -3   4 -11    0.42    2.00
   3  -4  12    2.00    1.55
  -3   4 -12    4.04    3.91
  -3   4 -12    3.15    1.85
   3  -4  13   -1.19    1.31
  -3   4 -13    3.14    1.89
  -3   4 -13    3.31    1.62
  -3   4 -14   12.00    3.33
  -3   4 -14    9.66    2.68
  -3   4 -15    1.48    1.87
  -3   4 -15    1.59    1.55
  -3   4 -16   13.34    5.03
  -3   4 -16    6.24    2.03
  -3   4 -17    4.19    1.83
  -3   4 -17   -0.13    1.87
  -3   4 -18   -1.13    1.35
  -3   3  17   -1.27    1.36
   3  -3 -16    0.43    1.07
  -3   3  16   -0.60    2.05
   3  -3 -15    1.19    1.63
  -3   3  15    1.14    1.67
   3  -3 -14   -0.98    1.51
  -3   3  14    0.52    1.46
   3  -3 -13    4.80    4.21
  -3   3  13    3.16    2.39
   3  -3 -12   66.84   12.55
  -3   3  12   57.47    7.89
   3  -3 -11    2.86    2.53
  -3   3  11   -1.83    1.18
  -3   3  11    2.37    1.37
   3  -3 -10    2.21    3.51
  -3   3  10    2.61    1.63
  -3   3  10    1.57    1.84
   3  -3  -9    1.04    2.91
  -3   3   9    0.69    1.39
  -3   3   9    1.58    1.50
   3  -3  -8    2.77    2.73
  -3   3   8    0.74    1.37
  -3   3   8    0.95    1.37
   3  -3  -7   52.64    8.53
   3  -3  -7   37.81    4.25
  -3   3   7   45.85    5.06
  -3   3   7   46.49    4.97
   3  -3  -6   50.82    5.19
   3  -3  -6   40.95    4.08
   3  -3  -6   47.45    2.90
  -3   3   6   38.60    4.57
  -3   3   6   52.71    3.85
  -3   3   6   44.95    4.52
   3  -3  -5    0.97    1.03
   3  -3  -5   -0.92    0.82
   3  -3  -5   -0.07    0.79
  -3   3   5    0.15    0.88
  -3   3   5    0.51    1.24
  -3   3   5   -0.16    1.38
  -3   3   5   -0.17    0.80
   3  -3  -4   25.13    3.39
   3  -3  -4   22.53    2.83
   3  -3  -4   23.25    1.91
  -3   3   4   18.89    2.97
  -3   3   4   23.38    4.05
  -3   3   4   28.18    2.81
  -3   3   4   22.79    4.11
   3  -3  -3   66.11    5.47
   3  -3  -3   53.81    7.11
  -3   3   3   49.58    4.83
  -3   3   3   56.41    6.22
  -3   3   3   60.22    4.57
  -3   3   3   60.54    4.57
   3  -3  -2  148.23   13.88
   3  -3  -2  129.39   12.35
  -3   3   2  116.66    8.48
  -3   3   2  138.32    9.47
  -3   3   2  158.24    8.96
  -3   3   2  140.65    8.48
   3  -3  -1  529.69   36.09
   3  -3  -1  503.81   35.10
  -3   3   1  485.40   32.75
  -3   3   1  534.46   36.30
  -3   3   1  587.81   36.92
  -3   3   1  554.02   37.57
   3  -3   0   25.09    3.09
   3  -3   0   22.18    2.98
  -3   3   0   18.18    2.31
  -3   3   0   23.24    4.65
  -3   3   0   23.12    3.88
  -3   3   0   22.40    1.99
   3  -3   1    1.00    1.25
   3  -3   1    1.46    1.33
  -3   3  -1    1.03    0.87
  -3   3  -1    0.99    1.30
  -3   3  -1    3.10    1.31
  -3   3  -1    1.38    0.81
   3  -3   2    0.67    0.90
  -3   3  -2   -0.20    0.65
  -3   3  -2    0.22    1.10
  -3   3  -2    1.35    1.01
  -3   3  -2    0.03    0.94
   3  -3   3   15.62    2.13
   3  -3   3   13.03    1.46
  -3   3  -3    7.74    1.76
  -3   3  -3   12.41    2.54
  -3   3  -3   11.90    2.33
  -3   3  -3   13.10    1.35
   3  -3   4   11.66    2.11
   3  -3   4   13.10    2.48
   3  -3   4    8.69    1.44
  -3   3  -4    8.71    4.07
  -3   3  -4   11.05    2.29
  -3   3  -4   10.43    1.97
   3  -3   5  137.17   10.87
   3  -3   5  140.45   10.73
   3  -3   5  128.18    9.57
  -3   3  -5  139.21   11.10
  -3   3  -5  130.20   10.17
  -3   3  -5  147.84    7.27
   3  -3   6  125.61    8.07
   3  -3   6  109.33    9.19
  -3   3  -6  111.00   10.24
  -3   3  -6  124.49    6.57
   3  -3   7   14.10    2.16
   3  -3   7   10.15    2.58
   3  -3   7   10.54    1.89
  -3   3  -7   13.37    2.76
   3  -3   8    1.25    1.59
   3  -3   8    2.21    1.18
  -3   3  -8    1.75    1.08
   3  -3   9    4.93    2.16
  -3   3  -9    6.34    2.36
  -3   3  -9    5.60    1.52
   3  -3  10    1.94    2.16
  -3   3 -10   -0.03    1.49
  -3   3 -10   -0.34    1.75
   3  -3  11    4.39    1.95
  -3   3 -11    8.19    2.73
  -3   3 -11    5.85    2.00
   3  -3  12    0.70    1.35
   3  -3  12    0.75    2.21
  -3   3 -12    1.90    3.13
  -3   3 -12    1.70    1.43
   3  -3  13   13.80    4.48
   3  -3  13    7.36    4.63
  -3   3 -13   22.66    3.92
  -3   3 -13   16.49    4.88
   3  -3  14   -0.08    0.77
   3  -3  14   -0.26    1.05
  -3   3 -14    0.92    1.35
  -3   3 -14   -0.04    1.10
   3  -3  15    0.63    1.44
  -3   3 -15    3.41    1.92
   3  -3  16    7.34    2.18
  -3   3 -16   30.79    5.72
   3  -3  17    1.18    1.78
  -3   3 -17    2.89    1.78
  -3   3 -18    0.33    1.14
   3  -2 -17   -0.53    1.14
  -3   2  17    0.16    1.11
   3  -2 -16    1.93    1.85
  -3   2  16    1.19    1.65
   3  -2 -15   25.86    7.24
  -3   2  15   17.08    3.88
   3  -2 -14   39.56    6.18
  -3   2  14   25.52    5.09
   3  -2 -13    9.29    3.54
  -3   2  13    4.21    2.03
  -3   2  13    9.86    2.80
   3  -2 -12   -1.36    1.84
  -3   2  12    0.80    1.19
  -3   2  12    0.66    1.43
   3  -2 -11    7.54    2.82
  -3   2  11    3.46    1.94
  -3   2  11    4.44    2.18
   3  -2 -10    0.20    1.83
  -3   2  10    0.97    1.30
   3  -2  -9    6.40    2.89
   3  -2  -8    0.30    1.77
  -3   2   8    1.63    1.28
   3  -2  -7    0.84    1.71
   3  -2  -7    1.61    1.64
  -3   2   7    1.33    1.13
  -3   2   7    1.24    1.15
   3  -2  -6  122.80   10.37
   3  -2  -6  121.17   13.40
   3  -2  -6   84.68    8.57
  -3   2   6  113.07    9.83
  -3   2   6  121.03    9.86
  -3   2   6  109.96    7.65
   3  -2  -5   30.67    4.19
   3  -2  -5   35.46    6.26
   3  -2  -5   23.36    2.60
  -3   2   5   28.24    6.39
  -3   2   5   38.43    3.44
  -3   2   5   25.87    2.79
   3  -2  -4    3.53    1.30
   3  -2  -4   -0.84    1.30
   3  -2  -4    0.07    0.87
  -3   2   4    1.68    2.30
  -3   2   4    0.22    1.07
  -3   2   4    0.74    0.77
   3  -2  -3  361.04   26.48
   3  -2  -3  391.30   26.21
   3  -2  -3  355.97   22.39
  -3   2   3  384.12   28.27
  -3   2   3  424.65   23.44
  -3   2   3  355.65   23.83
   3  -2  -2   91.21    7.48
   3  -2  -2   96.72    7.34
   3  -2  -2   83.52    5.90
  -3   2   2   96.89    6.91
  -3   2   2   95.53    5.61
  -3   2   2   82.55    4.82
   3  -2  -1  109.60    8.10
   3  -2  -1  101.96   10.50
   3  -2  -1  104.65    7.05
  -3   2   1  106.97    7.56
  -3   2   1  110.56    9.45
  -3   2   1  102.15    6.93
   3  -2   0  170.75   10.85
   3  -2   0  163.07   10.38
  -3   2   0  168.52   15.14
  -3   2   0  172.72   10.16
  -3   2   0  152.63    7.29
   3  -2   1   -2.13    1.14
  -3   2  -1   -2.07    1.17
  -3   2  -1    1.64    0.95
   3  -2   2  229.34   17.43
   3  -2   2  229.10   14.71
  -3   2  -2  243.43   15.94
  -3   2  -2  222.55   18.32
  -3   2  -2  240.80   10.60
   3  -2   3   41.98    3.87
   3  -2   3   43.55    4.17
   3  -2   3   39.71    2.24
  -3   2  -3   42.31    6.98
  -3   2  -3   45.85    6.74
  -3   2  -3   43.30    2.91
   3  -2   4    0.59    1.15
   3  -2   4    0.90    0.61
  -3   2  -4    0.63    0.65
  -3   2  -4    0.18    2.27
  -3   2  -4    0.95    1.36
  -3   2  -4    1.23    0.53
   3  -2   5   40.08    4.89
   3  -2   5   39.71    6.39
   3  -2   5   34.94    3.62
  -3   2  -5   38.98    4.77
  -3   2  -5   40.81    4.70
  -3   2  -5   40.29    3.22
   3  -2   6    9.52    1.74
   3  -2   6    9.43    2.30
   3  -2   6    5.06    1.88
   3  -2   6    7.67    1.32
  -3   2  -6    7.12    2.66
  -3   2  -6   10.27    2.63
  -3   2  -6    9.62    1.21
   3  -2   7    1.37    1.07
   3  -2   7    3.45    1.38
   3  -2   7    0.31    1.34
   3  -2   7    0.60    0.80
   3  -2   7    0.73    0.85
  -3   2  -7    0.67    0.77
   3  -2   8   18.94    2.95
   3  -2   8    7.45    3.06
   3  -2   8   11.41    1.95
   3  -2   8   12.71    1.97
  -3   2  -8   14.50    2.84
   3  -2   9    0.40    2.07
   3  -2   9    1.02    1.79
  -3   2  -9    1.41    1.51
   3  -2  10    1.13    1.49
   3  -2  10    0.18    2.18
  -3   2 -10    3.32    1.78
   3  -2  11    1.98    1.54
   3  -2  11    1.15    2.42
  -3   2 -11    2.30    1.93
   3  -2  12   12.51    2.65
   3  -2  12    7.34    2.59
  -3   2 -12   16.61    5.37
   3  -2  13    0.67    1.98
   3  -2  13    1.23    1.52
  -3   2 -13    1.98    1.84
   3  -2  14    1.15    1.17
   3  -2  14    1.35    1.55
  -3   2 -14    2.66    1.85
   3  -2  15    3.48    1.37
   3  -2  15    4.18    1.98
  -3   2 -15   11.17    2.38
   3  -2  16    0.27    1.22
  -3   2 -16    1.92    1.62
   3  -2  17    1.02    1.39
  -3   2 -17   -0.90    1.13
   3  -1 -18   -1.19    1.09
  -3   1  18    0.85    0.88
   3  -1 -17    4.64    3.58
  -3   1  17    2.68    1.71
   3  -1 -16    1.71    2.57
  -3   1  16   -0.31    1.19
   3  -1 -15    7.73    3.21
  -3   1  15    3.71    2.41
   3  -1 -14    0.23    1.93
   3  -1 -13    1.89    2.30
  -3   1  13    1.03    1.37
   3  -1 -12   24.54    5.69
   3  -1 -11    1.43    2.24
   3  -1 -10    1.65    1.78
   3  -1 -10    0.40    1.91
   3  -1 -10    0.50    1.38
   3  -1  -9    9.91    3.17
   3  -1  -9   12.39    3.36
   3  -1  -8   37.16    5.48
   3  -1  -8   38.54    5.41
   3  -1  -7    1.51    1.81
   3  -1  -7    2.52    1.81
  -3   1   7    2.18    1.79
  -3   1   7    1.98    1.24
   3  -1  -6    2.66    2.00
   3  -1  -6    4.82    1.96
  -3   1   6    3.17    1.93
  -3   1   6    4.58    2.20
  -3   1   6    3.78    0.99
   3  -1  -5   10.63    3.83
   3  -1  -5    9.72    3.85
   3  -1  -5    7.66    1.94
  -3   1   5   11.29    2.42
  -3   1   5   12.43    2.02
  -3   1   5    6.97    1.30
  -3   1   5    7.72    1.13
   3  -1  -4   20.84    5.43
   3  -1  -4   26.78    5.47
   3  -1  -4   20.23    3.06
  -3   1   4   23.40    3.41
  -3   1   4   27.98    2.98
   3  -1  -3  211.42   19.41
   3  -1  -3  239.37   15.04
   3  -1  -3  183.89   13.06
  -3   1   3  210.73   14.48
  -3   1   3  220.86   16.81
  -3   1   3  228.86   11.31
  -3   1   3  211.31   12.04
   3  -1  -2    3.18    2.39
   3  -1  -2    3.11    1.67
  -3   1   2    3.78    1.55
  -3   1   2    4.04    0.98
  -3   1   2    2.32    0.63
   3  -1  -1  341.26   27.53
   3  -1  -1  398.94   30.65
   3  -1  -1  344.37   20.73
  -3   1   1  381.25   23.80
  -3   1   1  384.02   22.04
   3  -1   0   13.52    2.05
   3  -1   0   16.91    2.51
   3  -1   0   13.95    2.00
  -3   1   0   16.71    4.02
  -3   1   0   13.52    1.21
   3  -1   1   64.98    5.00
   3  -1   1   85.56    6.24
   3  -1   1   83.56    5.63
  -3   1  -1   84.39    6.66
  -3   1  -1   89.70    6.08
  -3   1  -1   80.64    3.56
   3  -1   2  244.40   19.15
   3  -1   2  222.84   17.65
  -3   1  -2  207.73   14.23
  -3   1  -2  227.00   14.51
  -3   1  -2  202.29    8.08
   3  -1   3  265.00   16.26
   3  -1   3  238.78   19.27
  -3   1  -3  259.75   17.54
  -3   1  -3  255.44   16.94
  -3   1  -3  257.29   11.49
   3  -1   4    0.60    1.05
   3  -1   4    0.98    1.07
   3  -1   4    0.01    0.83
  -3   1  -4   -0.59    1.22
  -3   1  -4    0.56    0.48
   3  -1   5   60.63    6.09
   3  -1   5   66.83    5.48
  -3   1  -5   62.23    5.97
  -3   1  -5   48.60    3.37
   3  -1   6  279.48   17.34
   3  -1   6  299.66   20.52
  -3   1  -6  252.73   19.88
   3  -1   7   18.41    2.41
   3  -1   7   20.75    5.06
  -3   1  -7   11.43    2.07
   3  -1   8   56.52    5.25
   3  -1   8   35.03    4.13
   3  -1   9    0.61    1.29
   3  -1   9    0.30    1.17
  -3   1  -9    0.96    1.35
   3  -1  10   63.10    5.75
   3  -1  10   27.86    4.91
  -3   1 -10   50.71    5.74
   3  -1  11   54.19    8.22
   3  -1  11   27.53    4.95
  -3   1 -11   57.19    6.19
   3  -1  12    0.11    1.89
   3  -1  12    0.22    1.40
  -3   1 -12    1.52    1.48
   3  -1  13    3.38    1.48
   3  -1  13    0.57    1.82
  -3   1 -13    3.47    1.96
   3  -1  14   -0.37    0.95
   3  -1  14   -0.32    1.27
  -3   1 -14    0.11    1.30
   3  -1  15    0.41    1.46
   3  -1  15    0.03    1.26
  -3   1 -15    1.47    2.44
   3  -1  16   -0.14    0.62
   3  -1  16   -0.62    1.67
  -3   1 -16    0.35    1.14
   3  -1  17   -1.15    1.01
  -3   1 -17   -0.16    1.09
   3   0 -18   13.40    2.50
  -3   0  18    0.32    1.59
   3   0 -17    5.34    4.38
  -3   0  17    3.83    1.81
   3   0 -16    7.25    2.99
  -3   0  16    3.01    2.05
   3   0 -15    7.47    3.84
   3   0 -14    0.40    2.31
  -3   0  14    1.11    1.29
   3   0 -13   10.22    3.78
   3   0 -13    5.38    2.63
   3   0 -12  135.36   15.11
   3   0 -12  178.98   16.61
   3   0 -12  123.86   12.15
   3   0 -11   39.03    6.62
   3   0 -11   41.93    6.71
   3   0 -11   30.67    4.71
   3   0 -10   16.34    3.71
   3   0 -10   16.59    4.03
   3   0 -10    9.68    2.64
   3   0  -9    9.38    4.70
   3   0  -9   10.85    3.10
   3   0  -9    6.32    1.94
   3   0  -8    4.60    3.86
   3   0  -8    5.86    2.24
   3   0  -8    2.63    1.29
  -3   0   8    3.24    1.04
   3   0  -7   32.21    4.44
   3   0  -7   31.17    4.12
   3   0  -7   17.99    2.32
  -3   0   7   23.77    3.20
  -3   0   7   32.08    2.99
  -3   0   7   20.96    2.00
   3   0  -6    3.09    1.94
   3   0  -6    3.34    1.80
  -3   0   6    2.71    2.38
  -3   0   6    2.78    2.00
  -3   0   6    1.92    1.15
   3   0  -5    2.07    1.60
   3   0  -5    1.33    1.49
  -3   0   5    1.80    1.94
  -3   0   5    1.49    1.23
  -3   0   5    0.95    0.85
  -3   0   5    1.46    0.85
   3   0  -4    7.34    2.14
   3   0  -4    8.94    3.28
  -3   0   4    8.31    3.30
  -3   0   4    9.22    1.67
  -3   0   4    6.00    0.76
  -3   0   4    6.48    0.68
  -3   0   4    6.05    1.12
  -3   0   4    4.78    1.06
   3   0  -3   23.03    3.46
   3   0  -3   26.46    3.32
   3   0  -3   18.95    2.73
  -3   0   3   27.33    2.77
  -3   0   3   23.84    2.66
  -3   0   3   24.19    1.26
   3   0  -2   13.51    2.53
   3   0  -2   14.32    2.51
   3   0  -2   14.25    0.86
  -3   0   2   15.46    2.44
  -3   0   2   13.10    1.45
   3   0  -1   85.05    6.87
   3   0  -1  102.91   10.41
   3   0  -1   81.18    6.71
   3   0  -1   83.76    4.33
  -3   0   1   77.98    7.25
  -3   0   1  100.12    6.61
  -3   0   1   99.54    7.94
  -3   0   1  107.09    4.74
   3   0   0   16.29    2.38
   3   0   0   21.03    2.64
   3   0   0   16.47    1.90
   3   0   0   15.36    1.60
  -3   0   0   15.62    1.78
  -3   0   0   21.68    2.57
  -3   0   0   19.50    2.19
  -3   0   0   16.00    1.06
   3   0   1    0.57    0.95
   3   0   1    2.02    1.22
   3   0   1    0.63    0.95
   3   0   1    1.24    0.50
  -3   0  -1    0.97    0.71
  -3   0  -1    0.78    1.31
  -3   0  -1    1.33    1.09
  -3   0  -1    0.86    0.47
   3   0   2  489.35   43.87
   3   0   2  725.04   51.40
   3   0   2  737.73   47.32
   3   0   2  489.58   38.16
  -3   0  -2  540.86   39.60
  -3   0  -2  775.69   51.70
  -3   0  -2  748.50   54.75
  -3   0  -2  574.85   39.19
   3   0   3   17.69    2.29
   3   0   3   18.76    2.34
   3   0   3   12.49    1.45
  -3   0  -3   16.82    2.73
  -3   0  -3   17.36    4.27
  -3   0  -3   11.38    1.37
   3   0   4  162.43    9.91
   3   0   4  151.83   10.05
  -3   0  -4  137.93   13.43
  -3   0  -4  138.64   14.38
  -3   0  -4  117.76    6.95
   3   0   5   17.90    2.18
   3   0   5   17.22    3.83
   3   0   5   12.08    2.98
  -3   0  -5   17.97    3.29
  -3   0  -5   14.37    1.90
   3   0   6 1005.38   73.30
   3   0   6  948.89   73.26
   3   0   6  732.08   57.50
  -3   0  -6  926.35   77.35
  -3   0  -6  781.84   63.22
   3   0   7    2.03    1.22
   3   0   7    3.50    1.51
   3   0   7    0.94    1.26
  -3   0  -7    0.80    1.19
   3   0   8  626.71   43.49
   3   0   8  365.52   30.02
   3   0   9    0.72    1.48
   3   0   9    1.01    1.32
  -3   0  -9    1.02    1.32
   3   0  10    3.54    2.57
   3   0  10    0.32    1.51
  -3   0 -10    1.32    1.48
   3   0  11    1.80    1.49
   3   0  11    2.51    1.73
   3   0  12    1.64    1.32
   3   0  12    0.96    1.58
  -3   0 -12    0.90    1.47
   3   0  13   -0.20    1.10
   3   0  13    0.55    1.39
  -3   0 -13    1.17    1.26
   3   0  14    0.97    1.68
   3   0  14    0.59    2.21
  -3   0 -14   -0.34    1.89
   3   0  15   -0.14    0.81
   3   0  15    1.84    1.87
  -3   0 -15    0.06    1.09
   3   0  16    0.74    0.67
   3   0  16    0.63    1.08
  -3   0 -16   -0.86    0.94
   3   0  17    0.33    0.92
  -3  -1  18    0.86    0.94
   3   1 -17    0.44    1.73
  -3  -1  17    0.09    1.05
   3   1 -16   -0.89    2.21
   3   1 -15   10.98    4.42
   3   1 -14   12.53    2.83
   3   1 -14   -0.43    3.36
   3   1 -14    2.22    2.26
   3   1 -13   26.14    5.70
   3   1 -13   51.16    6.69
   3   1 -13   20.74    4.34
   3   1 -12   98.29   11.35
   3   1 -12  110.61   11.90
   3   1 -12   63.71    7.90
   3   1 -11  491.80   48.80
   3   1 -11  472.06   40.44
   3   1 -11  322.78   27.27
   3   1 -10   -0.76    3.26
   3   1 -10    0.22    1.97
   3   1 -10    0.77    1.16
  -3  -1  10    1.16    1.04
   3   1  -9    0.37    1.76
   3   1  -9    0.19    1.69
   3   1  -9    0.54    0.94
  -3  -1   9    0.44    0.88
  -3  -1   9    0.67    1.31
   3   1  -8   53.34    6.59
   3   1  -8   55.13    5.93
  -3  -1   8   44.37    3.53
  -3  -1   8   39.20    4.37
   3   1  -7    1.87    1.57
   3   1  -7    1.81    1.44
  -3  -1   7   -0.22    1.19
  -3  -1   7    0.19    0.99
  -3  -1   7    0.40    1.13
   3   1  -6   38.62    5.09
   3   1  -6   41.22    4.57
  -3  -1   6   37.16    3.96
  -3  -1   6   41.21    3.38
  -3  -1   6   35.48    2.49
   3   1  -5   36.45    4.68
   3   1  -5   39.44    6.64
  -3  -1   5   36.23    3.74
  -3  -1   5   46.51    5.78
  -3  -1   5   33.84    2.27
   3   1  -4    0.84    2.22
   3   1  -4   -0.75    1.96
   3   1  -4    0.01    0.58
  -3  -1   4    1.36    0.99
  -3  -1   4    1.26    1.01
  -3  -1   4    0.52    0.91
   3   1  -3  163.72   16.84
   3   1  -3  163.53   11.34
   3   1  -3  160.62    7.70
  -3  -1   3  158.25   10.18
  -3  -1   3  179.01   10.31
  -3  -1   3  180.71    8.50
   3   1  -2  437.89   36.82
   3   1  -2  471.05   31.12
   3   1  -2  361.52   25.88
   3   1  -2  478.58   27.95
  -3  -1   2  464.49   29.57
  -3  -1   2  532.68   37.86
  -3  -1   2  403.45   25.91
  -3  -1   2  497.04   29.17
   3   1  -1   31.65    5.64
   3   1  -1   33.46    5.32
   3   1  -1   30.62    3.67
  -3  -1   1   32.61    2.90
  -3  -1   1   36.02    3.50
  -3  -1   1   32.55    2.79
   3   1   0   69.09    8.21
   3   1   0   80.06    5.78
   3   1   0   81.51    6.79
   3   1   0   74.76    5.72
  -3  -1   0   81.15    6.70
  -3  -1   0   81.86    5.74
  -3  -1   0   78.54    7.37
  -3  -1   0   79.84    4.28
   3   1   1   53.34    4.43
   3   1   1   65.46    4.86
   3   1   1   55.66    5.12
   3   1   1   53.14    3.47
  -3  -1  -1   57.87    3.16
  -3  -1  -1   59.72    6.70
  -3  -1  -1   65.61    6.83
  -3  -1  -1   61.36    3.46
   3   1   2    7.86    1.52
   3   1   2   10.35    1.67
   3   1   2    9.21    1.49
   3   1   2    9.32    2.21
  -3  -1  -2    9.06    1.01
  -3  -1  -2   11.23    1.97
  -3  -1  -2   11.15    2.09
  -3  -1  -2    8.65    1.26
   3   1   3    1.63    1.08
   3   1   3    2.17    1.04
   3   1   3    1.76    0.93
  -3  -1  -3    2.00    1.30
  -3  -1  -3    1.54    1.45
  -3  -1  -3    1.66    1.43
   3   1   4   42.32    5.34
   3   1   4   38.67    3.40
   3   1   4   28.97    3.05
  -3  -1  -4   35.69    4.03
  -3  -1  -4   36.28    4.43
  -3  -1  -4   35.24    4.54
   3   1   5    1.00    0.81
   3   1   5   -0.14    1.08
   3   1   5    0.75    0.97
  -3  -1  -5   -0.40    1.47
  -3  -1  -5    0.77    0.98
   3   1   6  153.69    9.45
   3   1   6  182.33   12.21
   3   1   6  137.06   13.67
  -3  -1  -6  129.40    9.84
   3   1   7   16.28    2.97
   3   1   7    9.81    4.36
   3   1   8  172.53   16.65
   3   1   8  105.30   13.58
  -3  -1  -8  126.33    9.44
   3   1   9   15.78    2.73
   3   1   9   10.74    4.69
  -3  -1  -9   13.80    2.50
   3   1  10    3.68    1.66
   3   1  10    0.81    3.18
   3   1  11    8.03    2.11
   3   1  11    4.46    3.97
  -3  -1 -11    6.17    1.98
   3   1  12    3.42    1.60
   3   1  12    1.92    3.24
  -3  -1 -12    1.99    1.53
   3   1  13   26.43    4.48
   3   1  13    4.39    3.20
   3   1  14    2.28    1.31
   3   1  14    0.22    1.67
   3   1  15    1.06    1.10
   3   1  15    2.93    1.53
   3   1  16   -2.66    1.53
   3   2 -18   -1.88    3.55
   3   2 -17    1.60    2.52
  -3  -2  17    3.13    1.42
   3   2 -16    1.58    2.43
  -3  -2  16    2.00    2.23
   3   2 -15   -3.89    2.38
   3   2 -15    0.19    1.43
  -3  -2  15   -1.31    1.33
   3   2 -14    8.84    3.47
   3   2 -14   21.31    4.32
   3   2 -14    7.43    2.61
  -3  -2  14    9.50    2.50
   3   2 -13   76.63   10.07
   3   2 -13  101.42   10.97
  -3  -2  13   68.91    7.05
   3   2 -12    4.58    4.95
   3   2 -12    6.27    3.15
  -3  -2  12    2.15    2.97
   3   2 -11  133.47   14.52
   3   2 -11  124.88   12.98
  -3  -2  11  105.10    9.02
   3   2 -10   46.96    7.13
   3   2 -10   45.41    6.46
  -3  -2  10   38.50    4.25
   3   2  -9  124.40   13.25
   3   2  -9  116.94   11.23
  -3  -2   9  110.26   10.78
   3   2  -8   -0.29    1.74
   3   2  -8    1.89    1.51
  -3  -2   8    0.17    0.87
   3   2  -7   47.07    9.23
   3   2  -7   44.06    5.09
  -3  -2   7   39.09    3.25
   3   2  -6    0.90    3.21
   3   2  -6    2.41    1.63
  -3  -2   6    2.28    1.98
  -3  -2   6    1.55    1.13
   3   2  -5    6.17    2.76
   3   2  -5    8.36    3.58
   3   2  -5    8.15    1.47
  -3  -2   5    8.01    2.73
  -3  -2   5    7.42    1.54
   3   2  -4  108.28    9.72
   3   2  -4  103.15    7.98
   3   2  -4  110.40    6.23
  -3  -2   4   95.63    9.10
  -3  -2   4  123.58   10.32
  -3  -2   4  103.96    6.35
   3   2  -3  134.94   11.46
   3   2  -3  145.95   10.35
  -3  -2   3  141.62    8.94
  -3  -2   3  163.17    9.68
   3   2  -2  349.03   26.34
   3   2  -2  376.27   30.33
   3   2  -2  433.32   26.19
  -3  -2   2  344.55   21.83
  -3  -2   2  398.81   24.65
   3   2  -1  149.91   11.30
   3   2  -1  158.13   10.02
   3   2  -1  136.78    7.65
  -3  -2   1  160.98    8.82
  -3  -2   1  160.64   12.23
  -3  -2   1  154.25   11.84
  -3  -2   1  170.36    9.29
   3   2   0   18.30    2.85
   3   2   0   19.84    2.59
   3   2   0   19.65    1.90
   3   2   0   20.94    2.12
  -3  -2   0   22.53    1.93
  -3  -2   0   22.54    2.50
  -3  -2   0   21.96    2.45
   3   2   1    7.42    1.84
   3   2   1    7.49    2.36
   3   2   1    8.46    1.39
   3   2   1    7.17    1.50
  -3  -2  -1   10.09    1.86
  -3  -2  -1    9.10    1.73
  -3  -2  -1    9.83    1.90
  -3  -2  -1    8.62    2.46
   3   2   2   10.63    2.97
   3   2   2   11.07    1.73
   3   2   2   13.57    1.76
   3   2   2   13.10    2.88
  -3  -2  -2   11.29    1.08
  -3  -2  -2   10.85    1.97
  -3  -2  -2   14.63    2.41
  -3  -2  -2   13.37    1.77
   3   2   3  123.48   10.89
   3   2   3  154.55    9.26
   3   2   3  126.91   11.56
  -3  -2  -3  126.62   10.04
  -3  -2  -3  138.80    8.85
   3   2   4   22.95    4.16
   3   2   4   16.37    2.73
  -3  -2  -4   20.55    3.53
  -3  -2  -4   19.83    4.15
   3   2   5   13.64    1.72
   3   2   5   28.03    3.71
   3   2   5   11.90    2.53
   3   2   6   -0.13    0.92
   3   2   6    0.57    1.09
   3   2   7   40.68    4.07
   3   2   7   29.83    4.66
   3   2   8    4.56    1.78
   3   2   8    3.06    2.09
   3   2   9   14.41    2.79
   3   2   9   10.42    3.16
   3   2  10   -0.18    1.21
   3   2  10   -0.46    1.43
   3   2  11    1.49    2.46
   3   2  11    1.20    1.84
   3   2  12   -1.20    1.42
   3   2  12   -1.64    1.76
   3   2  13   -0.62    1.12
   3   2  13   -0.05    1.42
   3   2  14    0.59    1.06
   3   2  14    0.85    1.41
   3   2  15    1.54    1.48
   3   3 -18   -6.45    4.33
   3   3 -17    0.61    2.58
  -3  -3  17   -0.26    0.86
   3   3 -16   17.51    3.81
  -3  -3  16    7.90    2.21
   3   3 -15    4.84    2.68
   3   3 -15   13.24    3.46
  -3  -3  15    5.18    2.10
   3   3 -14   93.79   11.70
   3   3 -14  132.68   13.15
  -3  -3  14   95.41    9.22
   3   3 -13   90.95   17.60
   3   3 -13   93.50   11.43
  -3  -3  13   79.99   11.70
   3   3 -12   20.51    5.51
   3   3 -12   22.79    5.13
  -3  -3  12   19.78    3.51
   3   3 -11   17.36    4.84
   3   3 -11   15.17    4.20
  -3  -3  11   13.32    2.88
   3   3 -10   10.94    4.08
   3   3 -10    9.58    3.41
  -3  -3  10    8.83    3.78
   3   3  -9    1.94    3.58
   3   3  -9    1.60    1.84
  -3  -3   9    0.73    1.21
   3   3  -8    0.58    3.64
   3   3  -8    1.60    1.78
  -3  -3   8    1.37    1.19
   3   3  -7   91.34   10.19
   3   3  -7   81.68    8.18
   3   3  -6   57.51    6.99
   3   3  -6   47.42    8.24
   3   3  -6   50.05    4.29
  -3  -3   6   51.59    4.15
   3   3  -5    6.66    2.71
   3   3  -5    4.64    2.00
   3   3  -5    5.15    1.63
  -3  -3   5    6.77    1.39
   3   3  -4  133.79   12.18
   3   3  -4  129.90   10.09
   3   3  -4  149.24   12.11
  -3  -3   4  151.49    9.57
  -3  -3   4  132.54    8.04
   3   3  -3   59.34    6.81
   3   3  -3   56.00    7.84
  -3  -3   3   68.38    4.97
  -3  -3   3   60.95    6.77
   3   3  -2  179.49   15.78
   3   3  -2  189.50   13.04
   3   3  -2  269.39   15.74
  -3  -3   2  245.09   13.94
  -3  -3   2  209.67   13.08
   3   3  -1   72.51    6.69
   3   3  -1   66.64    5.19
  -3  -3   1   82.49    6.13
  -3  -3   1   66.77    4.86
  -3  -3   1   76.34    5.38
   3   3   0   24.73    3.41
   3   3   0   16.70    3.33
   3   3   0   20.80    1.87
   3   3   0   26.10    2.81
  -3  -3   0   25.77    2.01
  -3  -3   0   18.88    2.31
  -3  -3   0   25.39    2.91
  -3  -3   0   33.76    3.21
   3   3   1   17.23    3.05
   3   3   1   17.04    2.15
   3   3   1   22.13    2.01
   3   3   1   23.32    2.83
  -3  -3  -1   24.22    1.83
  -3  -3  -1   25.63    3.07
  -3  -3  -1   29.06    4.44
   3   3   2    9.90    1.55
   3   3   2   11.25    2.09
  -3  -3  -2   11.23    2.47
  -3  -3  -2    9.30    2.01
   3   3   3    9.39    1.63
   3   3   3    7.92    3.43
   3   3   4   18.98    2.40
   3   3   4   15.63    4.94
   3   3   5   87.97    6.74
   3   3   5   69.71    7.26
   3   3   6   71.87    6.16
   3   3   6   57.02    6.80
   3   3   7   15.69    2.79
   3   3   7   13.30    3.36
   3   3   8   -1.07    1.21
   3   3   8    1.07    1.41
   3   3   9   -0.61    2.25
   3   3   9    1.44    1.62
   3   3  10    2.98    1.67
   3   3  10    1.05    2.07
   3   3  11    0.88    1.26
   3   3  11   -2.78    1.55
   3   3  12   -0.21    1.09
   3   3  12   -0.22    1.36
   3   3  13    0.76    1.13
   3   3  13    0.50    1.43
   3   3  14    0.95    2.32
   3   3  15    1.13    1.51
  -3  -3 -15    7.00    1.63
   3   4 -18    1.25    1.52
   3   4 -17    5.56    3.64
  -3  -4  17    3.13    2.15
   3   4 -16    7.49    4.12
  -3  -4  16    3.71    1.67
   3   4 -15    1.58    1.87
   3   4 -15    0.41    2.17
  -3  -4  15    2.19    1.46
   3   4 -14   54.62    8.64
   3   4 -14   16.67    4.75
  -3  -4  14   11.01    5.55
   3   4 -13   31.92    6.73
   3   4 -13   34.90    6.11
  -3  -4  13   30.67    4.52
   3   4 -12    0.27    2.08
   3   4 -12    0.52    1.75
  -3  -4  12    0.29    1.32
   3   4 -11    8.20    4.08
   3   4 -11    7.82    3.27
  -3  -4  11    8.50    4.04
   3   4 -10    3.87    4.58
   3   4 -10    2.44    2.16
  -3  -4  10    2.00    1.63
   3   4  -9    7.18    5.19
   3   4  -9    4.21    2.34
  -3  -4   9    3.59    1.85
   3   4  -8    5.16    2.77
   3   4  -8    1.44    3.26
  -3  -4   8    2.53    1.57
   3   4  -7    3.46    2.86
   3   4  -7    3.62    3.22
   3   4  -6   46.66    6.71
   3   4  -6   34.44    4.87
   3   4  -6   45.84    4.61
   3   4  -5   47.59    6.43
   3   4  -5   30.77    4.41
   3   4  -5   46.97    4.33
  -3  -4   5   40.04    4.82
   3   4  -4   16.54    4.39
   3   4  -4   25.68    5.06
   3   4  -3   21.10    7.81
   3   4  -3  167.33    9.00
   3   4  -2  221.05   19.65
   3   4  -2  275.81   18.54
   3   4  -1   25.75    7.04
   3   4  -1  157.69    8.71
   3   4   0   -0.14    1.40
   3   4   0    0.49    1.15
   3   4   0    2.11    2.02
  -3  -4   0    0.70    1.17
   3   4   1    4.16    2.08
   3   4   1    4.76    1.96
   3   4   1    6.82    1.91
  -3  -4  -1    5.04    1.93
   3   4   2    9.08    2.67
   3   4   2   10.41    2.48
   3   4   3    0.44    1.37
   3   4   3    0.00    1.20
   3   4   4    1.30    1.82
   3   4   4    0.74    1.57
   3   4   5    5.00    2.86
   3   4   5    5.13    3.86
   3   4   6   10.87    3.89
   3   4   6    8.64    4.85
   3   4   7   19.76    3.27
   3   4   7   16.74    6.38
   3   4   8    2.93    1.75
   3   4   8    1.84    3.57
   3   4   9   20.82    3.41
   3   4   9   13.45    6.45
   3   4  10    0.00    1.26
   3   4  10   -2.98    2.63
   3   4  11    4.53    1.79
   3   4  11    1.76    3.51
   3   4  12    3.15    3.19
   3   4  13    1.89    1.54
  -3  -4 -14   -0.75    1.13
   3   5 -17    2.64    3.16
  -3  -5  17   57.17    4.33
   3   5 -16    1.62    1.67
   3   5 -16    5.89    2.01
  -3  -5  16    4.83    1.58
   3   5 -15    2.66    2.21
   3   5 -15    4.26    3.58
  -3  -5  15    5.01    1.79
   3   5 -14    7.80    3.38
   3   5 -14    7.08    4.59
  -3  -5  14    8.26    2.34
   3   5 -13   23.83    4.74
   3   5 -13   10.94    6.08
   3   5 -13    2.94    5.83
  -3  -5  13   11.74    3.06
   3   5 -12    0.63    2.23
   3   5 -12    0.97    2.71
   3   5 -12   -0.52    2.73
  -3  -5  12    0.69    1.47
   3   5 -11   14.26    6.42
  -3  -5  11   20.31    5.69
   3   5 -10   23.35    9.87
  -3  -5  10   23.89    3.83
   3   5  -9    6.77    3.28
  -3  -5   9    3.56    2.03
   3   5  -8   52.89    8.65
  -3  -5   8   54.33    5.64
   3   5  -7    0.22    1.97
   3   5  -6    4.96    2.90
   3   5  -6    2.90    1.87
   3   5  -5    3.26    2.74
   3   5  -5    3.43    1.86
   3   5  -4    6.91    4.21
   3   5  -4   26.67    5.35
   3   5  -3   38.82    6.54
   3   5  -3   48.21    5.45
   3   5  -2   13.45    4.19
   3   5  -2   21.76    4.45
   3   5  -1   82.09    8.67
   3   5  -1   63.55    8.46
   3   5   0   45.75    6.61
   3   5   0   57.45    9.63
   3   5   1   75.43    5.69
   3   5   1   99.62   12.30
   3   5   2  150.15   10.74
   3   5   2  178.06   14.32
   3   5   3   55.90    5.17
   3   5   3   58.86    6.89
   3   5   4   23.62    3.26
   3   5   4   23.90    4.39
   3   5   5   10.97    2.38
   3   5   5    9.43    3.20
   3   5   6    0.17    1.07
   3   5   6   -0.79    1.41
   3   5   7   35.96    4.41
   3   5   7   30.46    5.41
   3   5   8   -3.23    1.66
   3   5   8    0.09    2.02
   3   5   9    7.76    2.31
   3   5   9    8.77    2.84
   3   5  10    2.34    1.94
   3   5  11    1.56    1.64
   3   5  12   10.33    2.20
  -3  -5 -12    3.99    2.31
  -3  -6  16    6.50    1.67
   3   6 -15    2.64    2.92
  -3  -6  15    2.66    2.46
   3   6 -14    2.25    2.21
  -3  -6  14    2.01    1.57
   3   6 -13    0.60    1.74
  -3  -6  13   -0.10    1.20
   3   6 -12   25.43    5.86
  -3  -6  12   23.68    4.00
   3   6 -11   10.50    7.21
  -3  -6  11   11.40    4.72
   3   6 -10   53.08   13.06
  -3  -6  10   43.89    5.49
   3   6  -9   18.02    5.21
  -3  -6   9   14.51    3.40
   3   6  -8    2.04    2.89
   3   6  -7   33.81    7.16
   3   6  -6    9.84    3.89
   3   6  -6    7.16    2.74
   3   6  -5   10.18    3.85
   3   6  -5    7.55    2.72
   3   6  -4    0.58    2.47
   3   6  -4   -2.60    1.80
   3   6  -3   22.17    5.38
   3   6  -2    1.59    2.32
   3   6  -1    3.56    2.25
   3   6  -1    0.46    1.99
   3   6   0    0.38    1.47
   3   6   0   -0.18    1.38
   3   6   1    5.67    2.64
   3   6   2    3.09    3.70
   3   6   3    2.09    3.54
   3   6   4    2.47    2.16
   3   6   5   -0.03    1.33
   3   6   6    4.35    2.46
   3   6   7   -0.37    1.52
   3   6   8    0.33    1.39
  -3  -6  -8    0.17    1.39
   3   6   9    0.77    2.18
  -3  -6  -9    7.94    2.28
   3   6  10    0.71    1.12
  -3  -6 -10   -0.80    1.14
   3   6  11    7.62    3.04
  -3  -6 -11    4.71    1.91
   3   7 -15   -0.91    1.26
  -3  -7  15   -1.52    1.11
   3   7 -14   -0.52    1.48
  -3  -7  14    0.75    1.08
   3   7 -13    4.12    2.56
  -3  -7  13    3.08    1.75
   3   7 -12    9.48    3.47
  -3  -7  12    6.30    2.34
   3   7 -11    1.22    3.50
  -3  -7  11    0.19    2.25
   3   7 -10    4.04    4.20
  -3  -7  10    0.88    1.65
   3   7  -9   14.88    4.49
  -3  -7   9    7.43    2.87
   3   7  -8   12.76    4.61
  -3  -7   8   10.46    3.02
   3   7  -7    2.97    3.11
   3   7  -6   -0.20    2.71
   3   7  -6   -2.43    2.06
   3   7  -5   26.56    7.07
   3   7  -5   40.31    5.90
   3   7  -4   40.86    7.84
   3   7  -3    0.33    2.03
   3   7  -2  150.02   19.20
   3   7  -2  265.92   27.62
   3   7  -1  194.35   19.99
   3   7  -1  183.67   24.01
   3   7   0    3.20    2.89
   3   7   0    8.56    3.22
   3   7   1    4.81    2.68
   3   7   2    1.91    1.91
  -3  -7  -2    0.79    1.40
   3   7   3    8.71    2.30
  -3  -7  -3   -0.56    1.76
  -3  -7  -4    0.49    1.32
   3   7   5   -0.83    2.91
  -3  -7  -5    1.63    1.49
   3   7   6   -0.70    2.66
  -3  -7  -6   -0.99    1.45
   3   7   7   -1.73    2.38
  -3  -7  -7    1.30    1.35
   3   7   8    0.92    1.80
  -3  -7  -8   -0.18    1.04
   3   7   9    3.31    1.17
  -3  -7  -9   -1.95    1.13
   3   8 -13   11.57    3.14
  -3  -8  13    8.78    2.19
   3   8 -12    1.82    2.11
  -3  -8  12    1.60    1.41
   3   8 -11    0.63    2.03
  -3  -8  11    0.95    2.27
   3   8 -10    3.42    4.23
  -3  -8  10    1.64    1.63
   3   8  -9    5.09    3.25
  -3  -8   9    4.09    2.09
   3   8  -8    1.23    2.83
  -3  -8   8    2.59    1.82
   3   8  -7    1.90    2.72
   3   8  -6    9.59    4.25
   3   8  -5    9.02    5.24
   3   8  -5   28.66    4.87
   3   8  -4   19.32    5.44
   3   8  -3   37.72    7.33
   3   8  -2    0.02    1.52
   3   8  -1   60.20    8.29
   3   8   0   -0.37    2.66
   3   8   1   14.97    3.60
   3   8   2   16.90    3.74
   3   8   3    0.44    1.46
   3   8   4    1.02    1.63
   3   8   5   -0.28    1.26
   3   8   6   17.58    3.27
   3   8   7   -1.87    1.21
  -3  -8  -7   -0.21    1.13
   3   9 -11   14.79    3.08
  -3  -9  11    5.24    1.97
   3   9 -10   27.85    4.76
  -3  -9  10   12.40    4.98
   3   9  -9    7.99    4.77
  -3  -9   9    4.66    1.92
   3   9  -8    1.28    3.30
  -3  -9   8    0.69    1.35
   3   9  -7   -0.19    1.91
  -3  -9   7    0.79    1.31
   3   9  -6    2.81    2.59
   3   9  -5    1.66    2.25
   3   9  -4    2.53    2.34
   3   9  -3    4.59    2.59
   3   9  -2   -1.23    1.79
   3   9  -2   -2.12    1.94
   3   9  -1    7.48    4.32
   3   9  -1   13.19    3.09
   3   9   0   -0.78    1.51
   3   9   1   11.93    2.88
   3   9   2    0.72    2.27
   3   9   3   -3.26    2.85
   3  10  -6   -1.26    2.70
  -3 -10   6   -1.78    1.30
   3  10  -5   -0.38    2.99
  -3 -10   5   -3.29    1.53
   4 -11  -2   -0.23    2.27
  -4  11   2   -0.13    0.97
  -4  11   2   -0.28    1.65
   4 -11  -1    8.59    4.45
  -4  11   1    6.15    1.92
  -4  11   1    7.36    3.24
  -4  11   0   11.59    2.62
  -4  11   0   25.55    4.46
   4 -11   1   -3.41    3.15
  -4  11  -1   -1.32    2.34
   4 -11   2    0.15    1.90
  -4  11  -2    4.37    2.75
  -4  11  -2    3.26    1.51
   4 -11   3    6.79    2.29
  -4  11  -3    3.77    3.18
  -4  11  -3    5.22    1.86
   4 -11   4    1.21    1.17
  -4  11  -4   -0.86    0.95
  -4  11  -4   -0.23    0.99
   4 -11   5   -2.59    1.39
  -4  11  -5   -0.17    1.01
  -4  11  -5   -0.40    1.29
   4 -11   6   11.18    4.29
  -4  11  -6   16.87    4.14
  -4  11  -7    1.53    1.31
  -4  11  -8    5.11    1.65
   4 -10  -6   -0.86    1.07
  -4  10   6    1.46    0.79
  -4  10   6   -1.53    0.90
   4 -10  -5   22.89    3.94
  -4  10   5   16.95    3.10
   4 -10  -4    1.55    1.66
  -4  10   4    0.36    1.27
  -4  10   4    0.63    1.29
   4 -10  -3    7.43    2.88
  -4  10   3    6.97    2.14
  -4  10   3    4.58    2.18
   4 -10  -2    1.78    2.64
  -4  10   2    1.61    1.94
  -4  10   2    7.61    2.02
   4 -10  -1    4.59    2.72
  -4  10   1    3.97    1.98
  -4  10   1    2.71    1.96
   4 -10   0   12.24    3.60
  -4  10   0    7.75    2.48
  -4  10   0    7.86    2.58
   4 -10   1    7.59    2.77
  -4  10  -1    3.69    1.83
  -4  10  -1    1.15    2.03
   4 -10   2    3.24    4.16
  -4  10  -2    2.27    1.64
  -4  10  -2    3.64    3.03
   4 -10   3    0.25    3.47
  -4  10  -3    2.36    1.41
  -4  10  -3    0.51    2.55
   4 -10   4    1.76    2.03
  -4  10  -4    1.38    1.32
  -4  10  -4    1.99    1.53
   4 -10   5    2.50    2.07
  -4  10  -5    2.28    2.57
  -4  10  -5    2.54    1.64
   4 -10   6    1.33    1.71
  -4  10  -6    0.72    1.17
  -4  10  -6    1.84    1.38
   4 -10   7    1.07    3.09
  -4  10  -7    4.18    2.64
   4 -10   8    6.36    1.96
  -4  10  -8   10.49    3.50
   4 -10   9    0.42    0.83
  -4  10  -9   -0.22    1.02
  -4  10 -10    7.26    1.94
  -4  10 -11    1.63    1.98
  -4   9   8   -0.50    1.08
  -4   9   8   -5.74    2.40
   4  -9  -7    0.18    1.40
  -4   9   7    1.80    1.87
  -4   9   7    0.54    1.32
   4  -9  -6    8.53    2.73
  -4   9   6    6.41    2.93
  -4   9   6    5.26    2.38
   4  -9  -5    1.58    1.73
  -4   9   5   -0.19    1.86
  -4   9   5   -0.11    2.50
   4  -9  -4    9.74    3.32
  -4   9   4    7.73    2.23
  -4   9   4    7.04    4.55
   4  -9  -3    1.03    1.87
  -4   9   3    0.00    1.21
  -4   9   3    1.22    2.25
   4  -9  -2    6.07    3.42
  -4   9   2    7.26    2.16
  -4   9   2    5.76    3.97
   4  -9  -1   13.49    4.19
  -4   9   1   11.47    2.62
  -4   9   1   10.05    3.00
   4  -9   0    6.63    3.31
  -4   9   0    4.35    3.22
  -4   9   0    4.74    2.36
   4  -9   1   19.17    4.99
  -4   9  -1   16.37    5.67
   4  -9   2    6.43    3.17
  -4   9  -2    3.84    2.35
   4  -9   3   24.06    6.91
  -4   9  -3    7.51    2.64
  -4   9  -3   17.78    4.97
   4  -9   4    3.96    2.52
  -4   9  -4    1.01    1.57
  -4   9  -4    6.46    3.09
   4  -9   5   18.32    4.40
  -4   9  -5   12.74    2.67
  -4   9  -5   22.10    3.36
   4  -9   6    0.20    1.62
  -4   9  -6    0.31    1.26
   4  -9   7   -0.47    1.68
  -4   9  -7   -0.67    1.29
   4  -9   8   12.74    5.24
  -4   9  -8   21.93    4.84
   4  -9   9    2.59    1.67
  -4   9  -9    3.36    1.72
   4  -9  10    0.44    1.20
  -4   9 -10    1.90    1.31
   4  -9  11    0.62    1.17
  -4   9 -11    0.59    1.11
  -4   9 -12   -1.26    2.24
  -4   9 -13   -0.27    0.88
  -4   8  10    5.71    2.38
  -4   8  10    7.31    2.07
   4  -8  -9    1.30    1.25
  -4   8   9    1.27    1.01
  -4   8   9    2.05    1.48
   4  -8  -8    2.64    1.66
  -4   8   8    1.80    1.22
  -4   8   8    0.76    1.71
   4  -8  -7    2.36    1.83
  -4   8   7    1.10    1.31
  -4   8   7    1.41    1.73
   4  -8  -6    1.34    2.09
  -4   8   6    1.93    1.47
  -4   8   6    2.05    1.85
   4  -8  -5   -1.21    1.76
  -4   8   5    0.54    1.18
  -4   8   5   -1.14    1.48
   4  -8  -4    0.06    1.88
  -4   8   4    0.07    1.31
  -4   8   4    1.26    1.55
   4  -8  -3   16.69    4.59
  -4   8   3   13.73    3.02
  -4   8   3   16.03    3.67
   4  -8  -2   14.59    4.28
  -4   8   2   10.89    2.70
  -4   8   2   12.04    3.38
   4  -8  -1    1.75    2.44
  -4   8   1    1.04    1.48
  -4   8   1    2.38    3.13
   4  -8   0   17.72    4.49
  -4   8   0   12.34    2.80
  -4   8   0   12.52    3.22
   4  -8   1   22.87    4.86
  -4   8  -1   11.95    3.74
   4  -8   2   35.16    6.16
  -4   8  -2   21.37    3.71
  -4   8  -2   41.08    4.76
   4  -8   3    9.64    6.91
  -4   8  -3    4.60    3.66
  -4   8  -3   18.85    3.33
   4  -8   4   10.71    4.17
  -4   8  -4    0.07    2.62
  -4   8  -4    1.62    3.12
   4  -8   5    9.72    3.55
  -4   8  -5    6.41    2.13
  -4   8  -5   13.06    2.54
   4  -8   6    4.13    2.75
  -4   8  -6    4.37    1.94
   4  -8   7    4.48    2.83
  -4   8  -7    5.62    2.02
   4  -8   8   -2.58    4.28
  -4   8  -8   -5.48    3.17
   4  -8   9    1.31    1.25
  -4   8  -9   -0.92    1.13
   4  -8  10    4.41    1.92
  -4   8 -10    2.61    1.53
  -4   8 -10    5.22    1.82
   4  -8  11    0.43    2.10
  -4   8 -11    1.65    1.09
  -4   8 -11    0.52    1.28
  -4   8 -12    2.63    1.61
  -4   8 -12   -2.15    2.18
  -4   8 -13    0.65    1.66
  -4   8 -13    0.20    1.01
  -4   8 -14   13.84    1.88
  -4   7  12    9.47    2.16
  -4   7  11    0.33    0.62
  -4   7  11   -0.53    1.08
  -4   7  10    0.31    0.90
  -4   7  10    1.13    1.35
  -4   7   9    0.34    1.04
  -4   7   9    2.15    2.35
   4  -7  -8    5.85    2.37
  -4   7   8    4.82    1.84
  -4   7   8    4.70    3.80
   4  -7  -7    0.54    2.67
  -4   7   7    8.17    3.27
  -4   7   7    8.30    2.55
   4  -7  -6   -0.82    1.79
  -4   7   6   -0.98    2.12
  -4   7   6   -0.24    1.58
   4  -7  -5   31.97    5.97
  -4   7   5   33.90    7.36
  -4   7   5   30.40    5.22
   4  -7  -4    7.30    3.11
  -4   7   4    4.50    3.62
  -4   7   4    5.06    2.56
   4  -7  -3    0.39    2.14
  -4   7   3    0.79    2.42
  -4   7   3    1.20    1.71
   4  -7  -2  150.73   16.27
  -4   7   2  145.60   17.12
  -4   7   2  159.34   14.72
   4  -7  -1   14.79    4.49
  -4   7   1   11.19    4.37
  -4   7   1   14.43    3.89
   4  -7   0  105.44   11.98
  -4   7   0   85.67   11.28
  -4   7   0  104.02   14.23
   4  -7   1   40.85    6.70
  -4   7  -1   28.66    4.00
  -4   7  -1   42.57    5.31
   4  -7   2   19.35    4.70
  -4   7  -2   10.83    2.62
  -4   7  -2   25.30    3.63
   4  -7   3   15.73    6.30
  -4   7  -3    7.58    2.03
  -4   7  -3   14.78    2.79
   4  -7   4    4.83    1.63
   4  -7   4    9.15    4.93
  -4   7  -4    5.61    1.58
  -4   7  -4    9.45    3.52
   4  -7   5   10.56    3.49
  -4   7  -5    9.10    2.31
   4  -7   6    1.59    2.20
  -4   7  -6   -0.49    1.69
  -4   7  -6    3.16    1.46
   4  -7   7    0.35    1.94
  -4   7  -7    0.17    1.63
  -4   7  -7    1.48    1.32
   4  -7   8   -0.72    3.88
  -4   7  -8    3.23    2.04
  -4   7  -8    2.23    2.59
   4  -7   9    1.42    2.05
  -4   7  -9    0.27    2.20
  -4   7  -9    4.70    1.69
   4  -7  10    5.23    2.43
  -4   7 -10   -1.44    4.20
  -4   7 -10    8.34    2.14
   4  -7  11   -1.44    1.95
  -4   7 -11   -0.13    1.15
  -4   7 -11    0.73    1.03
   4  -7  12    1.46    1.04
  -4   7 -12   -0.70    1.34
  -4   7 -12    2.00    2.12
  -4   7 -13    1.17    1.31
  -4   7 -13    0.96    1.25
  -4   7 -14    1.88    1.73
  -4   7 -14    0.09    0.93
  -4   7 -15   42.11    4.08
  -4   6  13   -4.53    2.86
  -4   6  12   -0.06    0.56
  -4   6  12    0.78    1.74
  -4   6  11    0.97    1.00
  -4   6  11    1.75    1.62
  -4   6  10   -0.73    1.71
  -4   6  10    1.17    1.44
  -4   6   9   -0.21    1.15
  -4   6   9   -0.52    1.56
  -4   6   8    2.36    1.52
  -4   6   8    0.32    1.91
   4  -6  -7   10.18    3.54
  -4   6   7   14.30    3.00
  -4   6   7   15.65    3.65
   4  -6  -6   13.44    3.82
  -4   6   6   15.22    3.16
  -4   6   6   15.41    5.98
   4  -6  -5    1.40    1.84
  -4   6   5    1.47    1.43
  -4   6   5   -2.09    2.64
   4  -6  -4   25.47    4.98
  -4   6   4   23.50    3.97
  -4   6   4   24.12    4.42
   4  -6  -3    1.69    2.25
  -4   6   3    2.34    1.69
  -4   6   3    1.86    1.86
   4  -6  -2  131.10   12.52
   4  -6  -2  200.45   17.83
  -4   6   2  169.32   13.67
  -4   6   2  194.08   15.29
   4  -6  -1   -0.16    1.02
   4  -6  -1    0.18    1.52
  -4   6   1    0.09    0.99
   4  -6   0  173.53   15.13
   4  -6   0  232.79   20.14
  -4   6   0  194.01   14.84
  -4   6   0  241.34   21.53
   4  -6   1    0.91    1.26
   4  -6   1    1.17    1.89
  -4   6  -1   -0.16    1.08
   4  -6   2   17.91    4.43
   4  -6   2   31.40    5.31
  -4   6  -2   20.04    4.43
  -4   6  -2   30.49    3.54
   4  -6   3    1.17    0.99
   4  -6   3    1.65    2.89
  -4   6  -3    0.53    0.89
  -4   6  -3   -0.97    1.22
   4  -6   4   17.58    2.85
   4  -6   4   24.47    4.56
  -4   6  -4   25.59    4.93
   4  -6   5   11.53    2.46
   4  -6   5   16.17    4.03
  -4   6  -5   17.51    2.54
   4  -6   6    2.21    1.35
   4  -6   6    0.80    2.21
  -4   6  -6    2.03    1.37
   4  -6   7    0.60    1.70
  -4   6  -7    0.17    1.05
  -4   6  -8    3.16    2.38
  -4   6  -8    2.10    2.61
  -4   6  -9   -2.38    1.65
  -4   6  -9    1.17    1.07
   4  -6  10    0.38    1.55
  -4   6 -10    0.02    1.93
  -4   6 -10    0.77    1.20
   4  -6  11   -3.76    2.97
  -4   6 -11   -5.47    3.53
  -4   6 -11    1.23    2.24
   4  -6  12    0.52    1.19
  -4   6 -12    3.08    1.68
  -4   6 -12    0.09    1.30
   4  -6  13    0.67    0.94
  -4   6 -13    0.97    1.41
  -4   6 -13   -0.14    1.06
  -4   6 -14    0.46    1.30
  -4   6 -14    0.40    1.44
  -4   6 -15   -3.65    3.29
  -4   5  14    9.62    2.29
  -4   5  13    0.63    0.67
  -4   5  13    0.03    1.26
  -4   5  12    5.55    2.62
  -4   5  12    8.00    2.48
  -4   5  11   -0.50    1.04
  -4   5  11   -0.36    1.48
  -4   5  10    4.42    1.82
  -4   5  10    2.93    2.30
  -4   5   9    5.48    2.27
  -4   5   9    8.55    2.73
  -4   5   8    1.78    1.69
  -4   5   8    3.56    2.03
   4  -5  -7    3.20    2.14
  -4   5   7    3.12    1.85
  -4   5   7    4.32    2.11
   4  -5  -6    5.94    2.34
   4  -5  -6    4.63    2.36
  -4   5   6    3.81    3.23
  -4   5   6    3.93    2.23
   4  -5  -5    4.10    2.20
   4  -5  -5    5.00    2.39
  -4   5   5    4.07    3.15
  -4   5   5    3.90    2.09
   4  -5  -4   22.32    4.12
   4  -5  -4   23.26    4.41
  -4   5   4   21.55    5.55
  -4   5   4   20.90    6.09
   4  -5  -3    4.98    2.12
   4  -5  -3    2.52    2.36
  -4   5   3    3.83    2.84
  -4   5   3    3.55    2.91
   4  -5  -2    2.91    2.65
   4  -5  -2    0.40    1.83
  -4   5   2    1.44    1.33
  -4   5   2    0.83    1.33
   4  -5  -1   16.60    4.60
   4  -5  -1   21.57    3.94
  -4   5   1   16.14    2.71
  -4   5   1   13.13    2.79
   4  -5   0   21.13    3.31
   4  -5   0   25.70    4.33
  -4   5   0   16.61    2.78
  -4   5   0   17.84    2.97
   4  -5   1   21.05    3.32
   4  -5   1   22.30    4.33
  -4   5  -1   15.88    2.54
  -4   5  -1   20.50    4.12
   4  -5   2    7.25    2.19
   4  -5   2    8.47    4.36
  -4   5  -2    3.82    1.52
  -4   5  -2    8.09    1.71
   4  -5   3   19.69    4.95
   4  -5   3   17.71    3.72
  -4   5  -3   10.63    3.09
  -4   5  -3   15.79    2.34
   4  -5   4    0.14    0.92
   4  -5   4   -0.94    1.46
  -4   5  -4    0.68    1.31
   4  -5   5   14.45    2.66
   4  -5   5   19.32    3.99
  -4   5  -5   15.37    2.27
   4  -5   6   23.06    3.27
   4  -5   6   24.80    4.80
  -4   5  -6   21.53    2.78
   4  -5   7   36.14    4.23
  -4   5  -7   30.39    5.18
  -4   5  -8    0.11    1.42
  -4   5  -9   85.43    9.99
  -4   5  -9   69.22    6.21
  -4   5 -10   11.21    4.05
   4  -5  11   -0.01    2.14
  -4   5 -11    1.13    2.09
   4  -5  12    3.43    1.64
  -4   5 -12   -2.65    4.03
   4  -5  13    0.52    1.14
  -4   5 -13    1.49    1.66
   4  -5  14    0.30    1.42
  -4   5 -14    2.78    1.66
  -4   5 -15    0.99    1.42
  -4   5 -16    6.31    2.07
  -4   4  15   -1.13    1.20
  -4   4  14    0.46    1.20
   4  -4 -13   -1.17    2.11
  -4   4  13    0.58    0.91
  -4   4  13    1.82    1.40
   4  -4 -12    3.48    2.87
  -4   4  12    0.68    1.15
  -4   4  12    1.32    1.60
   4  -4 -11   26.88    6.73
  -4   4  11   15.92    2.90
  -4   4  11   17.14    3.70
   4  -4 -10   39.73    5.95
  -4   4  10   29.54    6.36
  -4   4  10   24.40    4.98
   4  -4  -9   -1.16    2.19
  -4   4   9    2.68    2.96
  -4   4   9    2.54    1.75
   4  -4  -8    0.85    1.66
  -4   4   8   -0.99    1.46
  -4   4   8    1.15    1.33
   4  -4  -7    1.19    3.06
  -4   4   7    1.10    1.68
  -4   4   7    0.85    1.48
   4  -4  -6   11.36    5.12
   4  -4  -6    7.31    2.57
  -4   4   6   10.89    2.79
  -4   4   6    7.38    2.46
   4  -4  -5   18.62    5.47
   4  -4  -5   12.62    3.08
  -4   4   5   14.96    3.27
  -4   4   5   12.20    2.78
   4  -4  -4    1.81    1.77
   4  -4  -4    3.01    1.67
  -4   4   4    1.16    1.65
  -4   4   4    1.03    1.35
   4  -4  -3   27.60    4.14
   4  -4  -3   23.82    3.96
  -4   4   3   23.98    3.71
  -4   4   3   16.94    4.53
   4  -4  -2    0.83    1.36
   4  -4  -2    0.49    1.32
  -4   4   2    0.43    1.17
  -4   4   2   -0.13    0.90
   4  -4  -1    2.10    1.87
   4  -4  -1    4.20    1.91
  -4   4   1    2.62    1.54
  -4   4   1    1.60    1.22
   4  -4   0   18.16    5.29
   4  -4   0   17.55    5.53
  -4   4   0   13.51    4.14
  -4   4   0   12.54    3.34
   4  -4   1    1.67    1.51
   4  -4   1    3.45    2.78
  -4   4  -1    2.10    1.62
  -4   4  -1    0.99    0.97
   4  -4   2    7.85    2.12
   4  -4   2    7.54    2.38
  -4   4  -2    3.04    1.28
  -4   4  -2    6.80    1.32
   4  -4   3    5.87    1.99
   4  -4   3    8.04    2.31
  -4   4  -3    2.61    1.11
  -4   4  -3    4.48    1.91
  -4   4  -3    4.58    1.46
   4  -4   4    0.79    2.45
   4  -4   5    1.62    1.40
   4  -4   5    2.58    2.02
   4  -4   6    0.25    1.27
   4  -4   6   -7.06    2.84
   4  -4   7  120.37    9.50
   4  -4   7  105.42   11.14
   4  -4   9   38.56    5.94
  -4   4  -9   40.83    6.61
   4  -4  10    4.73    3.73
  -4   4 -10    2.20    2.61
   4  -4  11    2.71    1.78
  -4   4 -11    2.52    2.63
   4  -4  12    0.80    1.25
  -4   4 -12   -1.47    3.11
   4  -4  13    0.27    1.18
  -4   4 -13    1.34    1.60
   4  -4  14   -0.76    0.75
  -4   4 -14    2.68    1.33
   4  -4  15   -0.38    0.66
  -4   4 -15   -1.29    1.39
  -4   4 -16   -2.28    1.66
   4  -3 -15    5.67    2.78
  -4   3  15    1.82    1.48
   4  -3 -14    1.73    1.62
  -4   3  14    0.22    0.85
  -4   3  14    1.57    1.30
   4  -3 -13    0.47    1.64
  -4   3  13    0.27    0.93
  -4   3  13    0.30    1.28
   4  -3 -12   -1.30    2.45
  -4   3  12   -4.01    3.11
   4  -3 -11   -0.24    1.85
  -4   3  11    1.26    2.29
   4  -3 -10   28.88    5.51
  -4   3  10   15.18    6.41
   4  -3  -9    0.26    2.11
  -4   3   9    1.15    1.69
  -4   3   9    1.85    2.45
   4  -3  -8    6.58    2.78
  -4   3   8    3.36    2.29
  -4   3   8    3.78    3.13
   4  -3  -7    0.25    1.97
  -4   3   7    0.95    1.59
  -4   3   7    1.30    1.31
   4  -3  -6   16.36    3.40
  -4   3   6   10.33    2.75
  -4   3   6    6.54    2.21
   4  -3  -5   12.10    2.90
   4  -3  -5    5.78    3.43
  -4   3   5    6.75    2.34
  -4   3   5    5.96    1.89
   4  -3  -4    3.44    3.17
   4  -3  -4    1.15    2.34
  -4   3   4    1.71    1.53
  -4   3   4    1.39    1.15
   4  -3  -3   30.59    4.17
   4  -3  -3   25.34    5.51
  -4   3   3   21.02    3.42
  -4   3   3   17.63    3.83
   4  -3  -2   52.77    6.08
   4  -3  -2   44.80    7.40
  -4   3   2   43.61    4.93
  -4   3   2   50.97    4.71
   4  -3  -1  154.32   12.24
   4  -3  -1  124.85   14.30
  -4   3   1  119.89   10.00
   4  -3   0   66.71    6.75
   4  -3   0   61.44    6.25
  -4   3   0   41.07    4.82
   4  -3   1   84.79    9.87
  -4   3  -1   62.38    5.37
   4  -3   2    5.43    2.01
  -4   3  -2    3.80    2.18
   4  -3   3    2.17    1.70
   4  -3   3    2.70    1.86
   4  -3   4    1.90    1.62
   4  -3   4    0.85    3.05
   4  -3   5   10.40    3.60
   4  -3   5   11.87    4.59
   4  -3   6  107.85    8.67
   4  -3   6  103.78   10.00
   4  -3   7   53.79    5.46
   4  -3   7   53.17    6.72
   4  -3   8   17.31    4.15
   4  -3   9    1.94    2.99
  -4   3  -9    0.47    1.89
   4  -3  10    0.63    1.35
  -4   3 -10   -1.91    1.76
   4  -3  11   -0.81    1.27
  -4   3 -11    0.78    1.67
   4  -3  12    0.83    1.33
  -4   3 -12   -0.79    2.88
   4  -3  13    1.39    2.00
  -4   3 -13    1.79    1.85
   4  -3  14    0.34    0.86
  -4   3 -14    0.27    1.38
   4  -3  15    1.46    0.92
  -4   3 -15    3.64    1.64
  -4   3 -16   -3.03    1.67
   4  -2 -16    0.95    1.33
  -4   2  16    0.02    0.87
   4  -2 -15    3.81    1.85
  -4   2  15   -0.24    1.26
   4  -2 -14    2.95    1.86
  -4   2  14   -0.92    1.52
  -4   2  14    1.17    2.09
   4  -2 -13   12.66    3.37
  -4   2  13    4.92    2.25
  -4   2  13    5.15    3.65
   4  -2 -12   11.31    3.38
  -4   2  12    5.11    2.39
  -4   2  12    3.89    3.60
   4  -2 -11   -0.85    2.00
  -4   2  11   -1.18    1.46
  -4   2  11    0.62    1.29
   4  -2 -10   53.57    7.13
  -4   2  10   38.90    5.52
  -4   2  10   20.31    6.88
   4  -2  -9   31.33    5.40
  -4   2   9   11.02    5.34
   4  -2  -8    0.00    1.75
  -4   2   8    0.44    1.72
   4  -2  -7    7.27    3.23
   4  -2  -6    0.53    1.84
   4  -2  -6    0.33    1.75
   4  -2  -5   14.37    4.17
   4  -2  -5   18.09    4.05
   4  -2  -4    7.98    2.96
   4  -2  -4   12.73    3.08
   4  -2  -4    5.31    1.84
   4  -2  -3    2.54    1.85
   4  -2  -3    2.04    2.99
   4  -2  -3    1.66    1.26
  -4   2   3    1.44    1.07
   4  -2  -2    1.21    1.64
   4  -2  -2    0.63    1.76
   4  -2  -2    1.35    1.26
  -4   2   2    1.83    1.10
   4  -2  -1   73.46    7.32
   4  -2  -1   58.93    5.99
   4  -2   0   37.68    5.06
   4  -2   0   25.56    3.90
  -4   2   0   31.18    3.94
   4  -2   1  230.60   21.28
   4  -2   1  164.33   14.04
  -4   2  -1  181.19   14.32
   4  -2   2    5.07    2.02
  -4   2  -2    4.15    1.22
   4  -2   3   18.02    3.25
   4  -2   3   19.13    5.00
   4  -2   4   32.14    4.09
   4  -2   4   24.22    4.11
   4  -2   5   25.19    4.92
   4  -2   5   26.81    4.10
   4  -2   6    3.44    1.63
   4  -2   6    3.85    2.16
   4  -2   7   26.85    3.60
   4  -2   7   27.01    4.64
   4  -2   8    3.53    3.31
   4  -2   9   38.43    5.42
  -4   2  -9   46.86    6.11
   4  -2  10   -1.22    1.46
  -4   2 -10    0.24    1.64
   4  -2  11   -1.35    1.53
  -4   2 -11   -0.36    1.78
   4  -2  12   -0.37    1.94
  -4   2 -12    2.09    2.68
   4  -2  13    2.72    1.51
  -4   2 -13    4.55    2.09
   4  -2  14   -0.14    0.83
  -4   2 -14    0.01    1.17
   4  -2  15    1.15    1.46
  -4   2 -15    1.87    2.14
  -4   2 -16    2.29    1.41
   4  -1 -17    0.07    1.13
   4  -1 -16    2.58    1.80
  -4   1  16    0.62    0.95
   4  -1 -15    2.33    1.84
  -4   1  15    0.02    1.30
  -4   1  15    0.19    1.76
   4  -1 -14    3.93    2.38
  -4   1  14    1.03    1.41
  -4   1  14    1.51    2.23
   4  -1 -13   26.29    6.19
   4  -1 -12    0.91    2.32
   4  -1 -11    6.30    3.60
   4  -1 -10    0.97    3.29
   4  -1 -10    8.24    3.17
   4  -1  -9   42.29    8.29
   4  -1  -9   46.51    7.54
   4  -1  -8  109.77   13.96
   4  -1  -8  119.47   12.48
   4  -1  -7   71.71   10.01
   4  -1  -7   79.53    9.55
   4  -1  -6  282.33   25.68
   4  -1  -6  294.06   25.34
   4  -1  -5   84.84   10.03
   4  -1  -5   94.71    9.75
   4  -1  -4    3.02    2.37
   4  -1  -4    5.78    2.46
   4  -1  -3   18.82    3.66
   4  -1  -3   25.81    6.54
   4  -1  -3   26.14    4.01
  -4   1   3   16.81    2.11
   4  -1  -2    4.08    1.99
   4  -1  -2    5.72    2.17
   4  -1  -2    2.66    2.10
  -4   1   2    3.06    2.03
   4  -1  -1   20.17    3.63
   4  -1  -1   31.61    4.24
   4  -1  -1   18.66    4.28
  -4   1   1   26.44    3.10
   4  -1   0   31.13    4.28
   4  -1   0   49.67    5.24
   4  -1   0   34.17    3.78
   4  -1   1    5.09    1.97
   4  -1   1   13.70    4.39
   4  -1   1    9.45    2.00
   4  -1   2   94.29    8.13
   4  -1   2   87.10    7.61
   4  -1   3   88.21    7.63
   4  -1   3   82.41    7.74
   4  -1   4    1.16    1.50
   4  -1   4    1.39    1.53
   4  -1   5   17.27    4.11
   4  -1   5   18.51    3.51
   4  -1   6    0.07    1.07
   4  -1   6    1.13    1.94
   4  -1   7   10.76    2.30
   4  -1   7    8.74    2.74
   4  -1   8   45.87    5.88
   4  -1   9    6.87    2.56
  -4   1  -9    6.34    2.52
   4  -1  10   37.55    5.00
  -4   1 -10   29.21    4.85
   4  -1  11    2.86    2.88
  -4   1 -11    4.07    2.10
   4  -1  12    1.86    1.49
  -4   1 -12    1.73    1.69
   4  -1  13    2.28    1.44
  -4   1 -13    2.74    1.65
   4  -1  14    2.12    1.10
  -4   1 -14   -0.49    1.33
   4  -1  15    1.16    0.87
  -4   1 -15    0.76    1.15
   4   0 -17    4.99    2.46
   4   0 -16   -0.21    1.60
   4   0 -15    3.40    2.37
  -4   0  15    1.45    1.25
   4   0 -14    0.15    2.12
  -4   0  14    0.77    1.27
   4   0 -12    1.37    2.41
   4   0 -12    1.99    4.13
   4   0 -11   21.10    5.31
   4   0 -11   19.91    8.91
   4   0 -10   84.82   12.60
   4   0 -10   93.52   17.43
   4   0  -9   39.89    9.26
   4   0  -9   58.42    8.43
   4   0  -8    5.90    3.13
   4   0  -8    2.52    3.02
   4   0  -7    1.06    2.29
   4   0  -7    2.08    2.26
   4   0  -6    3.78    3.62
   4   0  -6    0.90    2.13
   4   0  -5   60.18   12.28
   4   0  -5   77.98    8.40
   4   0  -4   20.12    7.49
   4   0  -4   26.37    4.49
   4   0  -3   10.70    5.15
   4   0  -3   11.72    5.12
   4   0  -2   19.43    5.78
   4   0  -2   31.79    3.88
   4   0  -2   16.90    2.36
  -4   0   2   21.18    2.57
   4   0  -1    5.33    3.36
   4   0  -1    7.61    2.34
   4   0  -1    4.79    1.54
  -4   0   1    6.36    1.65
   4   0   0   11.01    2.73
   4   0   0   20.09    3.23
   4   0   0   14.59    2.34
  -4   0   0   13.98    3.88
   4   0   1   12.75    2.70
   4   0   1   19.35    4.76
   4   0   1   20.03    2.76
  -4   0  -1   21.53    3.19
   4   0   2    7.65    2.18
   4   0   2    8.11    3.37
   4   0   3    1.85    1.43
   4   0   3    0.34    1.91
   4   0   4    1.00    2.42
   4   0   4    1.20    1.27
   4   0   5   24.29    3.13
   4   0   5   26.21    3.53
   4   0   6    1.49    1.23
   4   0   6    1.04    1.52
   4   0   7   10.78    2.29
   4   0   7   13.28    2.92
   4   0   8  192.40   16.04
  -4   0  -8  172.78   14.35
   4   0   9    1.27    3.11
  -4   0  -9    1.87    1.66
   4   0  10  157.29   12.68
  -4   0 -10  132.87   12.04
   4   0  11   -0.01    1.18
  -4   0 -11   -0.64    1.91
   4   0  12    6.99    2.04
  -4   0 -12    5.33    1.94
   4   0  13    0.08    1.36
  -4   0 -13    3.70    1.34
   4   0  14    1.58    1.08
  -4   0 -14    0.50    1.10
   4   0  15   -0.89    0.85
   4   1 -17    3.06    2.19
   4   1 -16   -0.14    1.62
  -4  -1  16    0.29    0.73
   4   1 -15    1.01    2.20
  -4  -1  15    1.33    1.22
   4   1 -14    4.44    3.09
   4   1 -13   -0.09    1.75
   4   1 -12   40.66    7.65
   4   1 -12   43.94   11.87
   4   1 -11    3.26    3.01
   4   1 -11    4.07    4.96
   4   1 -10  234.70   25.69
   4   1 -10  242.05   33.40
   4   1  -9  704.09   83.18
   4   1  -9  688.44   67.60
   4   1  -8    5.08    5.88
   4   1  -8    6.24    3.28
   4   1  -7   40.75    7.54
   4   1  -7   40.54    6.61
   4   1  -6   78.72   10.67
   4   1  -6   84.14    9.29
   4   1  -5   10.54    3.70
   4   1  -5   11.82    3.41
   4   1  -4    0.78    1.64
   4   1  -4    0.04    1.53
   4   1  -3   -0.34    1.50
   4   1  -3    1.43    2.14
   4   1  -2    2.28    1.78
   4   1  -2    1.04    1.65
   4   1  -1    2.37    1.75
   4   1  -1    3.29    1.70
   4   1  -1    1.48    0.94
  -4  -1   1    2.16    1.99
   4   1   0    5.81    3.39
   4   1   0   10.17    3.50
   4   1   0    4.14    1.35
  -4  -1   0    5.13    1.32
  -4  -1   0    6.73    1.91
   4   1   1    4.08    1.73
   4   1   1    4.12    1.35
   4   1   2    2.99    1.49
   4   1   2    1.83    1.28
   4   1   3    1.97    1.39
   4   1   3    0.81    1.25
   4   1   4    2.86    2.02
   4   1   4    2.54    1.53
   4   1   5    7.05    1.80
   4   1   5   10.31    2.29
   4   1   6    0.52    1.00
   4   1   6    1.17    2.30
   4   1   7   51.83    8.11
   4   1   8  182.39   13.08
  -4  -1  -8  117.68   10.58
   4   1   9   88.36    7.47
  -4  -1  -9   51.06    5.85
   4   1  10    2.87    1.80
   4   1  11    4.83    1.94
   4   1  11    1.16    2.92
   4   1  12    8.68    3.24
   4   1  12    2.66    2.98
   4   1  13    6.55    1.76
   4   1  13    0.53    2.34
   4   1  14   -0.76    0.97
   4   2 -17    2.17    1.91
   4   2 -16    8.13    2.23
  -4  -2  16    1.32    1.08
   4   2 -15   -1.58    2.20
   4   2 -14    0.87    1.94
   4   2 -14    1.31    2.16
   4   2 -13   -6.07    3.29
   4   2 -12   22.45    5.75
   4   2 -12   22.04    5.78
   4   2 -11   80.92   17.21
   4   2 -11   71.10   10.72
   4   2 -10   -0.69    4.52
   4   2 -10   -1.52    2.48
   4   2  -9  122.22   16.09
   4   2  -9  113.28   13.48
   4   2  -8    7.22    3.89
   4   2  -8    6.30    3.28
   4   2  -7   30.71    6.80
   4   2  -7   30.63    5.60
   4   2  -6   61.95    9.05
   4   2  -6   57.48    7.65
   4   2  -5   27.97    5.65
   4   2  -5   28.49    4.99
   4   2  -4    9.91    3.48
   4   2  -4    8.54    4.47
   4   2  -3   31.22    5.57
   4   2  -3   35.47    4.69
   4   2  -2   70.87    8.72
   4   2  -2   92.87    8.37
   4   2  -1    1.36    1.57
   4   2  -1    0.27    1.42
   4   2   0    2.89    1.78
   4   2   0    1.86    2.30
   4   2   0    1.80    1.47
   4   2   1   42.91    4.55
   4   2   1   39.26    5.66
   4   2   2    0.74    1.21
   4   2   2    1.44    1.53
   4   2   3    1.03    1.65
   4   2   3    2.38    1.83
   4   2   4    0.44    0.85
   4   2   4    0.30    1.61
   4   2   5    2.76    1.44
   4   2   5    1.01    1.48
   4   2   6   -0.28    1.10
   4   2   6   -0.09    1.15
   4   2   7    4.47    1.86
   4   2   7    2.90    1.87
   4   2   8    3.09    1.76
   4   2   8    0.77    2.76
   4   2   9    0.79    1.44
   4   2   9    1.35    2.24
   4   2  10    1.89    2.32
   4   2  10   -0.33    2.21
   4   2  11   -0.77    2.07
   4   2  11    0.86    1.12
   4   2  12    3.26    1.38
   4   2  12   -0.35    1.21
   4   2  13   -1.06    0.87
   4   2  13    0.76    0.73
   4   3 -16    5.06    2.14
  -4  -3  16    2.63    1.12
   4   3 -15    1.33    1.99
   4   3 -15    4.38    2.20
   4   3 -14   10.04    3.80
   4   3 -14   15.64    3.86
   4   3 -13    4.18    2.91
   4   3 -13    4.14    2.83
   4   3 -12   29.89   11.12
   4   3 -12   33.90    6.54
   4   3 -11   16.34    8.64
   4   3 -11   12.38    4.41
   4   3 -10   -0.35    1.94
   4   3 -10    0.38    1.58
   4   3  -9    3.12    3.38
   4   3  -9    3.82    2.66
   4   3  -8   17.96    5.46
   4   3  -8   14.98    4.21
   4   3  -7    5.14    3.41
   4   3  -7    4.83    2.70
   4   3  -6    7.15    3.56
   4   3  -6    5.84    2.79
   4   3  -5   12.90    4.29
   4   3  -5   11.20    4.86
   4   3  -4    3.25    2.21
   4   3  -4    0.44    1.57
   4   3  -3    1.67    1.94
   4   3  -3    0.52    1.41
   4   3  -2   18.45    4.30
   4   3  -2   17.20    5.19
   4   3  -1    7.57    1.85
   4   3  -1   -2.00    1.35
   4   3   0   90.29    9.70
   4   3   0   98.31    7.83
   4   3   1    0.66    0.85
   4   3   1    0.40    1.15
   4   3   2   46.41    4.27
   4   3   2   44.30    7.37
   4   3   3   22.78    2.89
   4   3   3   17.19    3.33
   4   3   4  133.43    9.81
   4   3   4   94.70    9.81
   4   3   5   62.15    5.58
   4   3   5   31.97    5.62
   4   3   6   49.42    4.90
   4   3   6   23.21    4.85
   4   3   7   29.31    4.93
   4   3   7    7.21    3.09
   4   3   8    6.06    3.24
   4   3   8    3.48    2.02
   4   3   9    0.59    1.32
   4   3   9    0.98    1.33
   4   3  10    1.72    1.46
   4   3  10    1.17    1.42
   4   3  11   20.01    2.60
   4   3  11    2.36    2.18
   4   3  12   -0.18    0.92
   4   3  12    0.47    0.82
   4   4 -16   -0.21    1.16
   4   4 -15    2.64    1.99
   4   4 -15    4.92    2.00
   4   4 -14   13.37    2.90
   4   4 -14    0.60    2.59
   4   4 -13    1.37    3.77
   4   4 -13    1.89    1.98
   4   4 -12    0.55    3.29
   4   4 -12   -0.35    1.51
   4   4 -11    2.80    3.12
   4   4 -11    1.96    2.24
   4   4 -10    2.90    2.76
   4   4 -10    0.45    1.99
   4   4  -9   49.85    6.71
   4   4  -9    9.59    4.56
   4   4  -8    2.18    2.70
   4   4  -8    0.43    3.15
   4   4  -7   13.02    4.87
   4   4  -6    5.18    3.46
   4   4  -5   56.57   13.22
   4   4  -5   57.43    5.56
   4   4  -4   16.87    4.75
   4   4  -4    2.19    1.84
   4   4  -3   10.40    5.83
   4   4  -3    9.78    2.41
   4   4  -2    7.68    5.44
   4   4  -2   10.17    3.85
   4   4  -1    4.65    3.67
   4   4  -1    2.37    1.73
   4   4   0    7.73    2.36
   4   4   1    1.36    1.50
   4   4   2   19.52    4.32
   4   4   2   25.68    3.80
   4   4   3    1.03    1.80
   4   4   3    0.56    2.44
   4   4   4    7.99    1.94
   4   4   4    3.88    4.12
   4   4   5    0.68    1.12
   4   4   5    0.17    1.39
   4   4   6   -0.33    0.97
   4   4   6    0.60    1.14
   4   4   7   -0.11    1.13
   4   4   7   -0.75    1.31
   4   4   8    2.86    1.49
   4   4   8    1.23    1.65
   4   4   9    9.00    2.02
   4   4   9    3.44    2.12
   4   4  10   -0.47    0.92
   4   4  10    0.72    0.91
   4   4  11    0.39    1.60
   4   5 -15   -0.25    1.16
   4   5 -14   -0.01    1.47
   4   5 -14    0.79    1.51
   4   5 -13    6.14    4.78
   4   5 -12    1.26    2.29
  -4  -5  12    1.04    1.14
   4   5 -11    0.42    2.26
  -4  -5  11    0.79    1.15
   4   5 -10   -0.25    4.03
  -4  -5  10   14.03    3.54
   4   5  -9   14.77    4.85
  -4  -5   9   11.18    2.55
   4   5  -8   95.17   12.56
  -4  -5   8   81.15    7.40
   4   5  -7    6.69    4.16
  -4  -5   7    9.53    2.44
   4   5  -6    2.68    5.00
   4   5  -5   10.54    7.41
   4   5  -5   14.23    2.88
   4   5  -4    4.03    4.60
   4   5  -4    3.21    1.91
   4   5  -3    3.90    4.58
   4   5  -3    3.83    1.96
   4   5  -2    0.31    3.84
   4   5  -2    3.29    2.97
   4   5  -1   22.46    7.71
   4   5  -1   25.27    6.37
   4   5   0   32.50    4.91
   4   5   1   39.12    5.31
   4   5   2   11.86    3.13
   4   5   3    2.32    1.27
   4   5   3    2.59    1.87
   4   5   4    0.64    1.12
   4   5   4    1.93    1.59
   4   5   5   -0.69    1.08
   4   5   5   -1.01    2.34
   4   5   6    0.42    1.04
   4   5   6    1.16    2.19
   4   5   7    1.01    1.12
   4   5   7    0.45    2.23
   4   5   8    0.58    1.97
   4   5   9    0.98    1.93
   4   5  10    2.56    1.30
  -4  -5 -10    4.23    1.67
   4   6 -14    0.94    1.49
   4   6 -13    1.28    2.98
   4   6 -12   -0.61    1.71
  -4  -6  12   -0.03    0.82
   4   6 -11    2.95    1.96
  -4  -6  11   -0.32    0.99
   4   6 -10    0.33    2.12
  -4  -6  10    0.53    1.82
   4   6  -9    7.61    3.67
  -4  -6   9    6.10    1.99
   4   6  -8   27.63    5.94
  -4  -6   8   22.78    3.53
   4   6  -7   17.73    5.71
  -4  -6   7   21.25    3.38
   4   6  -6   19.08    9.13
   4   6  -5    5.69    4.55
   4   6  -5    2.29    1.85
   4   6  -4    4.59    5.11
   4   6  -4    5.31    2.23
   4   6  -3   -1.84    3.58
   4   6  -3    1.86    1.62
   4   6  -2    3.24    4.24
   4   6  -2    4.19    2.11
   4   6  -1   -1.43    2.74
   4   6   0   20.42    5.86
   4   6   1    8.42    2.63
   4   6   2   13.06    3.12
   4   6   3    1.99    1.73
   4   6   4    2.38    1.77
   4   6   5    0.70    1.42
  -4  -6  -5    1.27    1.28
   4   6   6   -0.68    1.45
  -4  -6  -6   -2.49    1.40
   4   6   7    1.43    1.29
  -4  -6  -7    1.75    1.31
   4   6   8    3.85    1.22
  -4  -6  -8   -0.30    1.26
   4   7 -12   -6.53    4.68
   4   7 -11    8.25    3.21
  -4  -7  11    7.29    1.66
   4   7 -10    6.53    2.79
  -4  -7  10    3.12    1.48
   4   7  -9    0.88    2.41
  -4  -7   9    2.04    2.07
   4   7  -8    0.92    2.48
  -4  -7   8    2.21    1.40
   4   7  -7    0.92    1.67
  -4  -7   7   -0.36    0.99
   4   7  -6    0.48    2.05
  -4  -7   6    0.94    1.30
   4   7  -5    3.85    2.83
   4   7  -4    1.73    3.19
   4   7  -4    0.83    1.48
   4   7  -3    1.20    1.97
   4   7  -3    1.44    1.56
   4   7  -2    0.99    1.46
   4   7  -2   -0.11    1.32
   4   7  -1    3.29    1.90
   4   7   0    0.81    1.42
   4   7   1   17.44    5.19
   4   7   2    3.25    2.98
   4   7   3    2.05    2.59
   4   7   4    0.92    1.24
   4   7   5    5.52    1.83
   4   7   6   -2.75    2.28
   4   8 -10    0.76    1.63
   4   8  -9   -1.94    2.02
   4   8  -8    0.24    1.62
   4   8  -7    0.42    1.33
  -4  -8   7   -0.13    0.80
   4   8  -6    0.52    1.37
  -4  -8   6   -0.07    0.91
   4   8  -5   -0.58    1.26
  -4  -8   5    0.27    0.88
   4   8  -4    0.65    1.49
   4   8  -3    0.10    1.10
   4   8  -2    0.24    1.12
   4   8  -1    2.15    1.51
   4   8   0    1.73    1.43
   4   8   1   26.22    3.84
   4   8   2    0.09    0.97
   5 -10  -2    7.59    2.11
  -5  10   2    4.21    1.66
  -5  10   2    3.86    2.46
   5 -10  -1    1.44    1.33
  -5  10   1   -0.52    0.99
  -5  10   1    0.77    1.44
   5 -10   0   20.11    3.27
  -5  10   0    8.69    2.18
   5 -10   1   -0.65    1.91
  -5  10  -1   -1.79    1.15
  -5  10  -1   -1.91    1.17
  -5  10  -2    0.41    0.90
  -5  10  -2    0.18    0.97
   5 -10   3   -4.60    1.85
  -5  10  -3    0.65    1.37
  -5  10  -3   -0.87    1.00
   5 -10   4   -1.02    3.27
  -5  10  -4   -2.30    1.17
   5 -10   5   -0.05    2.68
  -5  10  -5    3.04    1.92
   5 -10   6   -2.26    1.23
  -5  10  -6   -0.02    0.89
   5 -10   7    1.18    1.20
  -5   9   6   -0.40    2.35
  -5   9   6    3.54    1.17
   5  -9  -5    1.96    1.31
  -5   9   5   -0.02    1.91
  -5   9   5    1.01    1.12
   5  -9  -4    0.28    1.21
  -5   9   4    0.68    1.56
  -5   9   4    0.10    0.93
   5  -9  -3    1.80    1.70
  -5   9   3    0.78    2.01
  -5   9   3    1.69    1.24
   5  -9  -2    7.97    2.79
  -5   9   2    8.09    3.10
  -5   9   2    6.82    1.99
   5  -9  -1    4.73    3.07
  -5   9   1   13.21    3.31
   5  -9   0    3.57    2.40
  -5   9   0    2.30    2.73
  -5   9   0    3.46    2.59
   5  -9   1    4.39    2.33
  -5   9  -1    2.21    1.51
  -5   9  -1    1.93    2.38
   5  -9   2    8.90    2.81
  -5   9  -2    4.02    1.66
  -5   9  -2    5.18    1.71
   5  -9   3    0.37    1.51
  -5   9  -3   -0.02    0.82
  -5   9  -3    0.18    0.92
   5  -9   4    1.19    1.77
  -5   9  -4    0.41    1.03
   5  -9   5   43.36    4.21
  -5   9  -5   -0.59    1.40
   5  -9   6    3.25    2.85
  -5   9  -6    1.29    1.97
   5  -9   7    0.72    1.60
  -5   9  -7    2.21    1.09
   5  -9   8   -0.18    1.08
  -5   9  -8    0.30    0.72
   5  -9   9    0.05    1.53
  -5   8   8    0.05    1.12
  -5   8   8    6.99    1.76
  -5   8   7    4.37    1.47
  -5   8   7    3.00    2.28
   5  -8  -6    0.92    1.24
  -5   8   6    0.81    1.16
  -5   8   6    1.84    1.81
   5  -8  -5    1.17    1.56
  -5   8   5    2.67    1.33
  -5   8   5   -1.45    2.11
   5  -8  -4    7.00    3.88
  -5   8   4    6.05    1.92
  -5   8   4    4.62    1.86
   5  -8  -3    4.44    4.26
  -5   8   3    6.68    1.94
  -5   8   3    5.24    1.94
   5  -8  -2   -1.21    2.90
  -5   8   2    2.22    1.24
  -5   8   2   -0.32    1.25
   5  -8  -1    0.45    1.79
  -5   8   1   -0.05    1.12
  -5   8   1    1.03    1.17
   5  -8   0   10.37    3.17
  -5   8   0    5.13    1.90
  -5   8   0    6.64    2.05
   5  -8   1    5.76    2.56
  -5   8  -1    2.13    1.42
  -5   8  -1    0.91    2.63
   5  -8   2   12.04    3.38
  -5   8  -2    3.44    2.79
  -5   8  -2    8.89    3.24
   5  -8   3   -0.63    1.85
  -5   8  -3    1.73    1.69
  -5   8  -3    0.27    1.08
   5  -8   4   11.07    3.31
  -5   8  -4    7.20    1.93
   5  -8   5    6.57    2.87
  -5   8  -5    5.15    1.65
   5  -8   6    0.40    2.24
  -5   8  -6   -0.32    1.48
   5  -8   7   -0.63    1.44
  -5   8  -7    1.28    1.63
  -5   8  -7   -0.60    0.91
   5  -8   8   -3.47    1.46
  -5   8  -8    0.20    1.75
  -5   8  -8    0.45    0.88
   5  -8   9   -0.26    1.29
  -5   8  -9    0.78    0.84
  -5   8  -9    0.25    1.25
   5  -8  10    1.15    1.71
  -5   8 -10    0.94    0.90
   5  -8  11   -1.22    0.92
  -5   7  10    0.08    0.68
  -5   7   9   -0.28    0.78
  -5   7   9    0.45    0.80
  -5   7   8    0.90    1.11
  -5   7   8    0.86    1.13
  -5   7   7    0.51    1.10
  -5   7   7    0.21    1.10
   5  -7  -6    4.68    2.04
  -5   7   6    6.98    3.13
  -5   7   6    4.50    1.94
   5  -7  -5    4.75    3.40
  -5   7   5    4.68    2.99
  -5   7   5    2.16    2.99
   5  -7  -4    1.38    2.57
  -5   7   4   -0.92    2.08
  -5   7   4   -1.53    2.16
   5  -7  -3    7.50    3.69
  -5   7   3   -0.35    2.74
  -5   7   3    3.19    2.63
   5  -7  -2    5.00    3.56
  -5   7   2   -1.15    2.52
  -5   7   2    2.54    1.55
   5  -7  -1    0.42    2.06
  -5   7   1    0.01    1.30
  -5   7   1   -2.59    1.39
   5  -7   0   78.49    9.40
  -5   7   0   60.40    6.03
  -5   7   0   59.15    6.38
   5  -7   1    3.06    2.52
  -5   7  -1    3.11    1.39
  -5   7  -1   -0.15    1.69
   5  -7   2   87.94   10.00
  -5   7  -2   61.97    8.73
   5  -7   3    0.03    1.07
   5  -7   3    2.42    1.97
  -5   7  -3    0.25    1.14
   5  -7   4    2.85    2.64
   5  -7   5   34.70    9.77
   5  -7   6    1.25    3.09
  -5   7  -6    1.08    1.83
   5  -7   7    3.12    2.06
  -5   7  -7    0.97    2.09
   5  -7   8    1.15    1.53
  -5   7  -8   -0.42    1.61
   5  -7   9    0.66    1.65
  -5   7  -9    1.57    1.84
  -5   7 -10    2.93    3.24
   5  -7  11    0.81    1.19
  -5   7 -11    2.40    1.31
   5  -7  12    2.24    1.17
  -5   7 -12    4.61    1.46
  -5   6  11    0.05    0.79
  -5   6  11    0.63    0.78
  -5   6  10    0.67    1.38
  -5   6  10   -0.12    0.83
  -5   6   9    2.87    1.89
  -5   6   9   -1.68    1.06
  -5   6   8    2.50    1.56
  -5   6   8    1.38    1.44
  -5   6   7    2.97    1.67
  -5   6   7    1.31    1.53
  -5   6   6   -0.13    1.08
  -5   6   6    0.16    1.02
   5  -6  -5    2.06    1.33
  -5   6   5   -2.40    1.27
  -5   6   5    0.99    1.12
   5  -6  -4    0.14    1.34
   5  -6  -4    2.22    2.58
  -5   6   4    1.21    1.37
  -5   6   4    0.16    1.27
   5  -6  -3    2.20    1.80
   5  -6  -3    1.88    3.40
  -5   6   3    3.22    1.70
  -5   6   3   -0.07    2.72
   5  -6  -2    1.51    1.70
   5  -6  -2    2.78    2.11
  -5   6   2    2.78    1.54
  -5   6   2    0.51    1.42
   5  -6  -1    0.92    1.27
   5  -6  -1    1.98    1.60
  -5   6   1   -1.90    1.12
   5  -6   0   44.77    5.88
   5  -6   0   48.89    7.22
  -5   6   0   34.15    4.71
   5  -6   1   -0.86    2.50
   5  -6   1    1.20    1.92
  -5   6  -1    0.45    1.75
   5  -6   2   87.57    8.33
   5  -6   2  112.82   12.31
   5  -6   3   -0.77    1.23
   5  -6   3    3.63    2.00
   5  -6   4    8.00    2.39
   5  -6   4   10.11    3.60
   5  -6   5    0.07    1.28
   5  -6   5    3.58    2.91
  -5   6  -7   -1.18    2.16
  -5   6  -8    1.72    2.31
   5  -6   9    0.92    1.56
  -5   6  -9   -0.19    1.89
   5  -6  10   -0.18    2.55
  -5   6 -10    3.30    2.30
  -5   6 -11    2.77    3.63
   5  -6  12    0.34    1.01
  -5   6 -12    1.24    1.30
   5  -6  13   -0.51    1.14
  -5   6 -13   -1.14    1.19
  -5   5  12   11.35    2.64
  -5   5  11    0.04    0.82
  -5   5  11   -0.09    0.73
   5  -5 -10    8.88    3.69
  -5   5  10   12.74    2.25
  -5   5  10    4.40    1.91
   5  -5  -9   -0.13    1.31
  -5   5   9    1.67    1.19
  -5   5   9   -0.58    1.03
   5  -5  -8    1.06    1.51
  -5   5   8    0.82    1.33
  -5   5   8    0.09    1.17
   5  -5  -7    1.27    1.93
  -5   5   7    2.27    1.70
   5  -5  -6    4.05    2.23
  -5   5   6    1.83    1.83
   5  -5  -5    9.03    4.57
  -5   5   5    4.61    2.17
   5  -5  -4    2.95    2.71
   5  -5  -4   -0.73    1.43
  -5   5   4    0.45    1.28
   5  -5  -3    2.83    3.35
   5  -5  -3    1.47    2.15
  -5   5   3    3.44    1.77
   5  -5  -2    1.42    1.82
   5  -5  -2    1.31    1.87
  -5   5   2    1.03    1.46
   5  -5  -1   33.14    5.47
   5  -5  -1   37.54    5.77
  -5   5   1   30.23    4.34
   5  -5   0   59.29    7.22
   5  -5   0   55.32    7.29
  -5   5   0   40.06    5.23
   5  -5   1   56.41    7.31
   5  -5   1   45.04    7.54
   5  -5   2    0.46    3.27
   5  -5   2    2.47    2.30
   5  -5   3    1.07    2.24
   5  -5   3    0.73    2.09
   5  -5   4    1.66    1.53
   5  -5   4    2.86    3.85
   5  -5   5    3.40    1.80
   5  -5   6    0.64    1.37
   5  -5   7    0.74    1.87
  -5   5  -8   21.70    5.36
  -5   5  -9    1.33    2.30
   5  -5  10    0.89    1.52
  -5   5 -10    1.86    2.29
   5  -5  11   16.19    3.09
  -5   5 -11   19.61    6.64
   5  -5  12   -0.95    1.14
  -5   5 -12   -0.63    1.49
   5  -5  13   -1.39    1.62
  -5   5 -13   -3.04    1.66
  -5   4  13    0.52    1.34
   5  -4 -12    0.47    1.16
  -5   4  12    0.45    0.94
   5  -4 -11    1.31    1.58
  -5   4  11    1.27    1.28
   5  -4 -10    2.72    2.12
  -5   4  10    3.29    1.69
   5  -4  -9    2.30    2.17
  -5   4   9    2.61    2.79
   5  -4  -8   10.13    3.45
  -5   4   8    8.80    5.32
   5  -4  -7    7.95    3.42
  -5   4   7   11.63    5.29
   5  -4  -6   12.73    4.36
  -5   4   6   17.61    3.95
   5  -4  -5   -0.01    2.19
  -5   4   5    3.06    2.09
   5  -4  -4    0.96    1.63
  -5   4   4   -0.47    1.43
   5  -4  -3   -0.66    2.23
   5  -4  -3   -0.74    1.82
  -5   4   3   -3.83    1.99
   5  -4  -2    5.71    4.45
   5  -4  -2    2.50    2.24
  -5   4   2    3.46    3.57
   5  -4  -1    3.80    2.22
   5  -4  -1    2.52    2.21
  -5   4   1    1.92    2.52
   5  -4   0    4.11    2.24
   5  -4   0    2.83    2.27
  -5   4   0    1.42    2.34
   5  -4   1    6.35    2.46
   5  -4   1    5.63    2.57
  -5   4  -1    3.02    1.48
   5  -4   2    4.85    2.61
   5  -4   2    7.37    4.80
   5  -4   3    2.16    3.45
   5  -4   4    6.53    2.21
   5  -4   5    1.04    1.39
   5  -4   5    0.24    1.78
   5  -4   6   -0.20    1.22
   5  -4   7    2.01    1.67
   5  -4   9   20.93    3.92
  -5   4  -9   19.85    5.22
   5  -4  10    3.66    2.02
  -5   4 -10    3.84    2.83
   5  -4  11    9.97    2.62
  -5   4 -11   11.39    3.71
   5  -4  12   15.00    3.95
  -5   4 -12    1.42    4.98
   5  -4  13   -0.66    0.74
  -5   4 -13    1.57    1.10
   5  -4  14   -1.02    0.73
  -5   4 -14   -1.73    1.27
   5  -3 -14    3.10    1.45
   5  -3 -13    1.84    1.44
  -5   3  13    0.90    1.01
   5  -3 -12   -2.01    1.70
  -5   3  12   -0.83    1.20
   5  -3 -11    1.61    2.06
  -5   3  11    2.29    2.93
   5  -3 -10    2.22    1.90
  -5   3  10    0.07    1.68
   5  -3  -9   -1.65    2.17
  -5   3   9   -1.11    1.90
   5  -3  -8   37.17    6.70
   5  -3  -7    1.12    2.23
   5  -3  -6   68.60    8.49
  -5   3   6   46.37    7.17
   5  -3  -5   11.81    3.74
  -5   3   5    7.51    3.01
   5  -3  -4  138.11   13.97
  -5   3   4  108.08   11.79
   5  -3  -3  159.80   14.92
  -5   3   3  100.89   11.40
   5  -3  -2   28.24    5.20
   5  -3  -2   17.39    5.72
  -5   3   2   14.66    3.56
   5  -3  -1   43.50    8.69
   5  -3  -1   40.31    7.91
  -5   3   1   28.75    4.46
   5  -3   0   22.24    4.88
   5  -3   0   32.91    6.75
   5  -3   1   16.97    3.96
   5  -3   2   -0.04    2.00
   5  -3   2    3.32    2.04
   5  -3   3   25.62    4.73
   5  -3   3   21.88    4.45
   5  -3   4    1.76    2.55
   5  -3   5    0.41    1.32
   5  -3   6    0.94    1.46
   5  -3   7    1.55    1.63
   5  -3   7    2.22    3.48
   5  -3   8    6.93    2.65
   5  -3   9    8.82    2.69
  -5   3  -9    5.81    3.23
   5  -3  10    2.16    1.58
  -5   3 -10   -0.22    2.00
   5  -3  11    0.99    1.58
  -5   3 -11    2.31    1.98
   5  -3  12    3.75    3.83
  -5   3 -12   23.44    3.23
   5  -3  13    1.58    1.08
  -5   3 -13    1.41    1.44
   5  -3  14    2.26    0.95
  -5   3 -14    1.78    1.33
   5  -2 -14    7.18    1.60
  -5   2  14   -0.66    0.91
   5  -2 -13    1.65    2.53
  -5   2  13    0.13    1.59
   5  -2 -12   -0.45    2.83
  -5   2  12   -0.65    1.37
   5  -2 -11    4.80    4.10
  -5   2  11    1.77    1.87
   5  -2 -10    4.37    4.16
  -5   2  10    0.97    1.89
   5  -2  -9    0.32    3.32
  -5   2   9   -0.43    1.60
   5  -2  -8    1.32    2.77
  -5   2   8   -0.22    1.46
   5  -2  -7    1.57    4.13
  -5   2   7    2.39    2.16
   5  -2  -6    1.23    2.49
  -5   2   6    2.27    2.00
   5  -2  -5    0.56    2.06
   5  -2  -4    4.52    2.99
   5  -2  -3   11.77    3.52
  -5   2   3    5.47    2.58
   5  -2  -2    0.86    2.42
   5  -2  -2    2.79    1.51
  -5   2   2    1.53    1.67
   5  -2  -1    1.50    2.65
   5  -2  -1   -0.51    1.05
  -5   2   1    0.07    1.06
   5  -2   0    0.43    1.83
   5  -2   0   -2.73    1.49
  -5   2   0   -0.59    1.25
   5  -2   1   47.38    6.03
   5  -2   1   30.12    5.19
   5  -2   2   -2.51    2.23
   5  -2   3   66.17    7.82
   5  -2   3   51.59    7.01
   5  -2   4   -0.61    2.43
   5  -2   4   -1.91    1.87
   5  -2   5   21.85    3.57
   5  -2   5   22.03    6.93
   5  -2   6    0.41    1.26
   5  -2   6    0.40    2.23
   5  -2   7    1.57    1.62
   5  -2   7    2.38    1.81
   5  -2   8    2.97    2.07
   5  -2   9    4.35    2.14
  -5   2  -9    3.58    2.42
   5  -2  10    0.68    2.08
  -5   2 -10   -0.37    1.35
   5  -2  11   -0.47    1.84
  -5   2 -11   -0.16    2.21
   5  -2  12   -0.77    1.25
  -5   2 -12   -1.90    1.42
   5  -2  13    0.51    1.06
  -5   2 -13    1.56    1.20
   5  -1 -15   -0.92    1.43
   5  -1 -14    3.60    2.95
  -5   1  14    0.62    2.06
   5  -1 -13    7.32    4.75
  -5   1  13    4.60    1.94
   5  -1 -12    3.14    3.27
  -5   1  12   -1.19    1.44
   5  -1 -11    1.74    3.73
  -5   1  11    0.85    1.70
  -5   1  10    1.19    1.89
   5  -1  -9   36.73   12.00
   5  -1  -8   28.82   10.89
   5  -1  -7  120.98   16.49
   5  -1  -7  125.43   20.02
   5  -1  -6  116.52   15.78
   5  -1  -6  134.84   20.34
   5  -1  -5    1.36    2.30
   5  -1  -5    1.00    2.24
   5  -1  -4   44.21    7.79
   5  -1  -4   55.99    7.64
   5  -1  -3    3.66    2.63
   5  -1  -3    4.73    2.78
   5  -1  -2    4.73    2.88
   5  -1  -1    7.83    5.09
   5  -1  -1    5.36    2.03
   5  -1   0   -0.14    1.47
   5  -1   0    0.90    1.87
   5  -1   1   17.89    3.83
   5  -1   1   13.88    5.15
   5  -1   2    1.65    1.91
   5  -1   2    1.12    2.75
   5  -1   3   12.35    3.21
   5  -1   3    8.21    3.99
   5  -1   4    6.96    3.37
   5  -1   4    6.10    2.23
   5  -1   5    5.67    2.02
   5  -1   5    5.93    2.21
   5  -1   6    2.88    1.71
   5  -1   6    3.31    1.92
   5  -1   7    0.76    1.54
   5  -1   8    2.06    1.65
  -5   1  -8    0.52    1.69
   5  -1   9    5.13    3.18
  -5   1  -9    1.60    1.87
   5  -1  10    0.62    1.33
  -5   1 -10    0.81    1.36
   5  -1  11   23.75    3.54
  -5   1 -11   19.05    5.30
   5  -1  12   47.72    4.44
  -5   1 -12   31.06    3.99
   5  -1  13    0.01    1.82
  -5   1 -13    2.46    1.60
   5   0 -15    1.26    4.37
  -5   0  15   11.89    2.51
   5   0 -14    8.86    3.83
  -5   0  14    2.11    1.50
   5   0 -13  109.03   11.39
  -5   0  13   35.11    4.59
   5   0 -12    5.47    2.98
  -5   0  12    3.54    2.14
   5   0 -11   -0.72    2.23
   5   0 -10   11.72    4.50
   5   0  -9    1.99    2.38
   5   0  -9   -2.65    3.89
   5   0  -8   25.67    6.73
   5   0  -8   33.22   10.37
   5   0  -7   42.62    9.60
   5   0  -7   60.58   12.38
   5   0  -6   14.19    5.58
   5   0  -6   22.77    4.97
   5   0  -5   32.31    7.08
   5   0  -5   46.53    6.77
   5   0  -4    6.97    3.53
   5   0  -4   10.52    3.54
   5   0  -3   -0.73    1.66
   5   0  -3    0.15    1.69
   5   0  -2   -0.57    1.64
   5   0  -2   -0.60    1.81
   5   0  -1   -0.71    1.41
   5   0  -1    1.38    2.69
   5   0   0    3.93    2.16
   5   0   0    3.09    1.43
   5   0   1    1.39    1.62
   5   0   1    0.63    1.16
   5   0   2    1.21    1.66
   5   0   2    0.94    1.27
   5   0   3    8.81    4.26
   5   0   3    5.69    2.09
   5   0   4    1.53    1.36
   5   0   4    1.37    1.49
   5   0   5    1.18    1.32
   5   0   5    1.48    1.54
   5   0   6    1.60    1.31
   5   0   6    0.93    1.61
   5   0   7    0.16    2.16
   5   0   8    6.56    2.02
  -5   0  -8    3.27    1.96
   5   0   9    5.84    1.86
  -5   0  -9    2.67    1.75
   5   0  10   13.82    2.76
   5   0  11   -1.29    1.44
  -5   0 -11    4.00    1.16
   5   0  12   10.94    3.46
   5   1 -15    2.57    5.08
  -5  -1  15   19.88    2.22
   5   1 -14   -3.18    2.80
  -5  -1  14   -0.23    1.13
   5   1 -13    1.46    4.12
  -5  -1  13    3.35    1.79
   5   1 -12    3.09    4.49
   5   1 -11    2.69    3.02
   5   1 -11    7.10    4.73
   5   1 -10   -1.78    2.65
   5   1  -9   11.18    4.72
   5   1  -9   16.21    7.41
   5   1  -8   17.41    5.51
   5   1  -8   18.69    7.65
   5   1  -7  200.17   23.97
   5   1  -7  217.98   29.37
   5   1  -6   25.61    6.82
   5   1  -6   35.45    6.15
   5   1  -5   59.40    9.91
   5   1  -5   75.44    9.27
   5   1  -4   31.00    6.52
   5   1  -4   45.00    6.46
   5   1  -3    1.31    1.92
   5   1  -3    0.82    1.98
   5   1  -2    1.57    1.90
   5   1  -2    0.72    3.24
   5   1  -1    0.97    1.84
   5   1  -1    2.18    1.73
   5   1   0   19.42    3.67
   5   1   1    2.54    1.82
   5   1   1    2.03    2.22
   5   1   2    0.53    2.32
   5   1   2    0.55    1.86
   5   1   3    2.97    1.48
   5   1   3    3.31    2.69
   5   1   4    0.49    1.07
   5   1   4    1.09    1.80
   5   1   5    1.43    1.12
   5   1   5    0.23    1.26
   5   1   6   15.18    2.78
   5   1   7   19.78    2.82
  -5  -1  -7    9.57    2.44
   5   1   8   11.16    2.47
   5   1   9    6.51    2.03
   5   1  10   36.00    6.16
   5   1  11    7.83    3.10
   5   1  12    3.62    1.37
   5   2 -14   10.02    4.23
  -5  -2  14    7.48    2.06
   5   2 -13    2.66    3.36
   5   2 -12    0.68    2.03
   5   2 -12    1.46    3.10
   5   2 -11    1.63    2.03
   5   2 -11   -2.68    3.08
   5   2 -10    5.57    3.45
   5   2 -10    5.55    4.68
   5   2  -9   13.76    4.50
   5   2  -9    7.19    6.42
   5   2  -8   27.46    6.44
   5   2  -8   25.50    5.43
   5   2  -7   58.97   10.29
   5   2  -7   64.95    8.60
   5   2  -6    4.95    4.32
   5   2  -6    1.22    2.26
   5   2  -5   43.61   12.40
   5   2  -5   53.28    7.34
   5   2  -4    2.04    3.40
   5   2  -4    1.03    1.92
   5   2  -3    5.43    4.57
   5   2  -3    6.01    4.35
   5   2  -2    3.92    2.59
   5   2  -2    5.61    2.11
   5   2  -1    0.49    1.31
   5   2   0    2.17    1.65
   5   2   1    1.80    2.54
   5   2   2    9.59    1.91
   5   2   3    6.33    1.67
   5   2   4    0.81    1.10
   5   2   5    1.80    1.30
   5   2   6    0.38    1.07
   5   2   7    2.16    1.39
   5   2   8    2.54    2.29
   5   2   9   -0.18    1.60
   5   2  10    4.15    1.50
   5   2  11   11.81    1.96
   5   3 -14   12.37    2.50
   5   3 -13    8.91    3.07
   5   3 -13    8.23    2.38
   5   3 -12    0.32    1.64
   5   3 -12    0.13    1.25
   5   3 -11    0.99    2.04
   5   3 -11    0.49    1.50
   5   3 -10    0.31    2.37
   5   3 -10    2.02    1.76
   5   3  -9    4.52    3.08
   5   3  -9    3.43    2.31
   5   3  -8    3.50    6.23
   5   3  -8    7.49    2.80
   5   3  -7   -0.62    3.99
   5   3  -7   -0.86    1.67
   5   3  -6   23.78    8.49
   5   3  -6   14.18    3.72
   5   3  -5    9.52    5.96
   5   3  -5    6.20    2.66
   5   3  -4    1.91    4.13
   5   3  -3   16.66    7.31
   5   3  -2    0.16    2.34
   5   3   3    2.30    1.96
   5   3   4   13.93    3.63
   5   3   5    0.86    1.74
   5   3   6    0.79    1.05
   5   3   7    2.11    1.25
   5   3   8    0.02    0.77
   5   3   9   -3.06    1.28
   5   4 -13    1.46    1.80
   5   4 -12    2.22    1.90
   5   4 -12    0.61    1.06
   5   4 -11    1.74    1.94
   5   4 -11    0.37    1.13
   5   4 -10    2.05    2.47
   5   4 -10    2.09    1.49
   5   4  -9   -0.30    2.94
   5   4  -8    1.34    4.07
   5   4  -7   -0.96    3.82
   5   4  -6   -0.56    3.49
   5   4  -5    9.17    3.88
   5   4  -4   -4.40    4.83
   5   4  -3    1.79    3.56
   5   4   4    1.39    0.95
   5   4   5    0.29    0.78
   5   4   6    0.20    0.75
   5   4   7    1.09    0.89
   5   5 -12   -0.80    1.56
   5   5 -11   18.96    4.03
   5   5 -10    1.30    1.94
   5   5  -9    2.31    3.65
   5   5  -8    6.23    5.37
   5   5  -6   13.12    6.76
   5   5  -5   -0.39    2.90
   5   5  -4    5.13    4.46
   5   5  -3    2.30    3.34
   5   6 -10   -2.21    1.80
   5   6  -9    1.30    1.80
   5   6  -8    1.48    2.92
   5   6  -7    1.24    3.08
   5   6  -6    6.32    4.43
   5   6  -5   -2.18    3.17
   5   6  -4    1.49    2.41
  -6   8   4   -0.99    0.88
   6  -8  -3   -0.02    0.76
  -6   8   3    0.28    0.71
   6  -8  -2    3.08    2.79
  -6   8   2    6.01    1.34
   6  -8  -1   -0.21    1.79
  -6   8   1   -0.45    1.21
   6  -8   0    1.41    2.15
  -6   8   0    0.59    1.47
   6  -8   1    0.67    1.09
  -6   8  -1   -0.13    0.58
   6  -8   2    0.77    1.46
   6  -8   3    1.70    1.71
   6  -8   4   -2.72    1.91
   6  -8   5    7.95    2.49
   6  -8   6    5.45    2.09
  -6   7   6    0.19    0.85
  -6   7   5   -0.04    0.80
   6  -7  -4    1.04    0.89
  -6   7   4    0.59    1.02
   6  -7  -3    2.04    1.95
  -6   7   3    1.35    1.10
   6  -7  -2    0.35    1.87
  -6   7   2   -0.74    0.93
   6  -7  -1    0.51    0.82
   6  -7  -1    2.09    2.22
  -6   7   1    1.29    0.96
   6  -7   0    0.46    0.81
   6  -7   0    0.56    2.23
  -6   7   0    0.60    0.83
   6  -7   1    1.64    1.08
   6  -7   1    5.25    1.87
  -6   7  -1    1.37    0.94
   6  -7   2    3.28    2.20
   6  -7   3    8.37    2.96
   6  -7   4   58.05    6.72
  -6   7  -4   41.66    6.08
   6  -7   5    7.54    2.54
  -6   7  -5    4.20    2.39
   6  -7   6    0.35    1.30
  -6   7  -6   -0.79    1.32
  -6   7  -7    0.06    1.18
   6  -7   8   -0.18    0.98
  -6   7  -8    1.17    1.71
  -6   6   8    4.33    2.26
  -6   6   7   -4.68    2.67
   6  -6  -6    0.03    1.35
  -6   6   6   -0.72    1.67
   6  -6  -5   -0.29    2.02
  -6   6   5    3.72    2.19
   6  -6  -4    3.47    1.75
  -6   6   4   -3.08    1.76
   6  -6  -3    0.09    1.94
   6  -6  -3    0.18    1.04
  -6   6   3    1.01    1.70
   6  -6  -2    0.40    1.78
   6  -6  -2    0.41    2.13
  -6   6   2    1.73    1.76
   6  -6  -1    0.11    1.71
   6  -6  -1    1.79    2.13
  -6   6   1    0.24    1.56
   6  -6   0    3.01    1.51
   6  -6   0    3.48    1.88
  -6   6   0    1.77    1.16
   6  -6   1    2.19    1.58
   6  -6   1    2.57    1.94
   6  -6   2   24.80    3.81
   6  -6   2   26.96    4.74
   6  -6   3   -2.25    1.36
   6  -6   3    1.64    1.76
   6  -6   4   38.73    4.82
   6  -6   4   39.30    6.05
   6  -6   5   -0.77    1.75
   6  -6   6    4.55    2.52
  -6   6  -6    6.01    2.83
  -6   6  -7    2.59    2.30
   6  -6   8    0.54    1.08
  -6   6  -8   -0.28    1.59
   6  -6   9   -2.09    1.41
  -6   6  -9   -3.13    2.92
  -6   5   9   -0.16    0.88
   6  -5  -8    1.74    1.26
  -6   5   8    3.08    1.42
   6  -5  -7   -0.02    1.02
  -6   5   7    0.49    1.06
   6  -5  -6    1.21    1.29
  -6   5   6    0.20    1.24
   6  -5  -5    2.42    1.55
  -6   5   5    0.71    1.39
   6  -5  -4    2.27    1.67
  -6   5   4    1.03    1.36
   6  -5  -3   -0.25    1.39
  -6   5   3   -0.31    1.06
   6  -5  -2    8.55    2.56
   6  -5  -2    4.45    1.99
  -6   5   2    4.17    1.79
   6  -5  -1   16.77    3.29
   6  -5  -1    8.92    2.65
  -6   5   1    7.43    2.09
   6  -5   0   10.01    4.71
   6  -5   0    6.94    2.39
  -6   5   0    3.82    2.65
   6  -5   1   38.61    7.34
   6  -5   1   31.86    5.18
   6  -5   2   30.56    4.65
   6  -5   2   35.13    5.26
   6  -5   3   -0.05    1.31
   6  -5   3    1.04    1.61
   6  -5   4    0.89    1.38
   6  -5   5    2.14    1.63
   6  -5   5    2.72    2.20
   6  -5   6   -0.94    2.93
   6  -5   7    3.06    1.76
  -6   5  -7    3.36    2.65
  -6   5  -8    0.74    1.87
   6  -5   9   -0.13    1.07
  -6   5  -9    1.09    1.60
   6  -5  10    4.41    1.60
  -6   5 -10    3.09    3.49
   6  -4 -10   -0.47    1.12
  -6   4  10   -1.75    1.11
   6  -4  -9    0.15    2.01
  -6   4   9    1.28    1.19
   6  -4  -8    2.64    3.04
  -6   4   8    4.49    1.68
   6  -4  -7    0.39    2.16
  -6   4   7   -0.51    1.13
   6  -4  -6   12.22    4.73
  -6   4   6    9.73    2.47
   6  -4  -5    1.27    1.49
  -6   4   5   -0.20    1.14
   6  -4  -4    2.73    1.91
  -6   4   4    0.68    1.37
   6  -4  -3    1.72    1.75
  -6   4   3    0.14    1.22
   6  -4  -2   -0.10    1.96
  -6   4   2   -1.67    1.26
   6  -4  -1   -1.68    1.84
   6  -4  -1   -0.18    1.33
  -6   4   1    1.82    1.09
   6  -4   0   -1.49    1.54
   6  -4   0    1.31    1.19
   6  -4   1    3.28    1.43
   6  -4   2   26.28    6.31
   6  -4   3    1.63    1.51
   6  -4   3    0.22    1.83
   6  -4   4    6.90    2.25
   6  -4   4    5.87    4.52
   6  -4   5    0.87    1.38
   6  -4   6    2.21    1.68
   6  -4   7   -0.23    1.16
  -6   4  -7   -0.15    1.71
   6  -4   8    0.45    1.10
  -6   4  -8   -1.36    1.62
   6  -4   9    0.00    1.10
  -6   4  -9    0.76    1.55
   6  -4  10   -1.60    2.58
  -6   4 -10   -4.40    3.14
   6  -3 -11    7.00    3.27
  -6   3  11    4.67    1.49
   6  -3 -10    4.50    2.41
  -6   3  10   -0.10    1.09
   6  -3  -9    1.23    1.81
  -6   3   9    1.93    2.21
   6  -3  -8   -0.64    2.19
  -6   3   8   -5.41    3.13
   6  -3  -7   -0.27    3.49
  -6   3   7    2.58    2.89
   6  -3  -6    5.40    4.53
  -6   3   6    3.12    3.60
   6  -3  -5    6.47    4.60
  -6   3   5    6.38    4.11
   6  -3  -4   50.78    9.60
  -6   3   4   30.71    8.34
   6  -3  -3    8.05    3.97
  -6   3   3   24.64    5.28
   6  -3  -2   16.59    3.71
  -6   3   2    6.47    3.52
   6  -3  -1    2.88    2.33
  -6   3   1    1.87    1.27
   6  -3   0   -1.39    1.98
   6  -3   0    0.20    2.32
   6  -3   1    5.63    2.77
   6  -3   1    1.99    3.49
   6  -3   2    9.99    3.86
   6  -3   2    2.72    4.32
   6  -3   3    0.75    1.41
   6  -3   4    2.04    1.51
   6  -3   4    0.31    1.49
   6  -3   5    4.60    1.91
   6  -3   5    2.71    1.89
   6  -3   6    0.46    1.30
   6  -3   7   -0.25    1.32
  -6   3  -7    2.51    1.82
   6  -3   8    0.50    1.21
  -6   3  -8   -1.84    1.60
   6  -3   9    3.29    2.47
  -6   3  -9    1.23    1.82
   6  -3  10   -2.01    1.30
  -6   3 -10   -3.42    2.75
   6  -2 -11    0.22    1.43
  -6   2  11    0.41    1.69
   6  -2 -10    1.39    1.93
  -6   2  10    2.42    2.72
   6  -2  -9    5.95    2.91
  -6   2   9    5.33    2.32
   6  -2  -8    4.94    2.55
  -6   2   8    2.82    2.07
   6  -2  -7    2.80    2.25
  -6   2   7    1.31    1.83
   6  -2  -6    1.32    2.29
  -6   2   6    1.66    1.73
   6  -2  -5    3.12    4.03
  -6   2   5    1.61    1.81
   6  -2  -4   -2.15    3.29
  -6   2   4    2.46    1.73
   6  -2  -3    9.73    2.85
  -6   2   3    3.12    2.19
   6  -2  -2    0.21    1.43
  -6   2   2   -0.09    1.03
   6  -2  -1   -0.38    1.67
   6  -2   0    6.89    2.97
   6  -2   1   -1.53    1.62
   6  -2   1    1.12    1.01
   6  -2   2    8.52    3.18
   6  -2   2    1.37    1.68
   6  -2   3    4.55    1.98
   6  -2   3    2.91    1.80
   6  -2   4    2.29    1.58
   6  -2   4    0.66    1.48
   6  -2   5   20.39    3.32
   6  -2   5   15.75    3.21
   6  -2   6    0.31    1.21
   6  -2   7    0.46    2.11
  -6   2  -7    0.67    1.53
   6  -2   8    1.19    1.56
  -6   2  -8   -1.05    1.25
   6  -2   9    1.64    1.12
  -6   2  -9    0.44    1.40
   6  -2  10   -1.13    1.02
  -6   2 -10   -0.09    1.89
  -6   1  12    1.52    2.15
   6  -1 -11   17.15    3.38
  -6   1  11    7.32    2.63
   6  -1 -10    0.81    1.79
  -6   1  10    1.17    1.49
   6  -1  -9   22.87    3.83
  -6   1   9    6.45    3.10
   6  -1  -8    2.12    2.12
  -6   1   8    1.25    1.75
   6  -1  -7    0.71    1.64
  -6   1   7   -0.65    1.32
   6  -1  -6    2.36    1.86
  -6   1   6   -0.67    1.49
   6  -1  -5   -0.11    5.07
  -6   1   5   -7.13    2.68
   6  -1  -4    0.23    3.29
  -6   1   4    2.00    1.79
   6  -1  -3    6.14    2.30
  -6   1   3    0.43    1.70
   6  -1  -2    0.64    1.56
  -6   1   2   -0.11    1.08
   6  -1  -1   -1.70    2.02
   6  -1   0    2.07    2.07
   6  -1   1   12.07    3.69
   6  -1   1    0.61    1.33
   6  -1   2   -2.73    3.42
   6  -1   2    8.23    1.82
   6  -1   3   19.05    3.11
   6  -1   3   13.17    2.77
   6  -1   4    0.25    1.13
   6  -1   4    0.39    1.12
   6  -1   5    2.33    1.46
   6  -1   5    2.26    2.51
   6  -1   6   -0.18    1.52
   6  -1   7   23.34    2.30
  -6   1  -7    1.59    2.55
   6  -1   8    0.72    1.03
  -6   1  -8    0.76    1.13
   6  -1   9    2.94    1.33
   6  -1  10    3.62    1.24
   6   0 -11   22.58    3.36
  -6   0  11    8.39    2.84
   6   0 -10    0.03    1.27
  -6   0  10    0.00    1.08
   6   0  -9    1.73    2.25
  -6   0   9    3.14    1.91
   6   0  -8    1.84    1.49
  -6   0   8   -0.99    1.23
   6   0  -7    3.74    2.38
  -6   0   7    2.04    1.91
   6   0  -6    2.50    3.95
   6   0  -5    6.10    5.02
   6   0  -4   18.78    5.28
  -6   0   4    8.38    2.73
   6   0  -3    4.68    2.45
  -6   0   3    3.89    1.90
   6   0  -2    2.50    2.16
   6   0  -1    8.17    2.92
   6   0   0   -1.73    1.92
   6   0   1    2.73    2.50
   6   0   2    2.03    1.18
   6   0   2   -0.16    0.87
   6   0   3    0.24    0.99
   6   0   3    0.27    0.81
   6   0   4    0.69    1.06
   6   0   4    0.80    0.95
   6   0   5    0.59    0.95
   6   0   6    0.14    0.83
   6   0   7   -0.35    0.88
   6   0   8    2.82    1.20
   6   0   9    3.99    2.12
   6   1 -11    2.07    1.28
  -6  -1  11   -0.94    1.15
   6   1 -10    6.06    2.32
  -6  -1  10    4.55    2.04
   6   1  -9    1.46    1.82
   6   1  -8    2.92    2.25
   6   1  -7   14.15    6.09
   6   1  -6    2.34    3.04
   6   1  -5   31.90    7.54
   6   1  -4   14.26    3.47
   6   1  -3   39.84    5.56
   6   1  -2    1.36    1.67
   6   1  -1    3.77    2.00
   6   1   0    2.04    2.07
   6   1   1   -0.46    0.95
   6   1   2    0.56    0.93
   6   1   3    0.72    0.81
   6   1   3   -0.06    0.72
   6   1   4    0.37    0.76
   6   1   5    0.61    0.84
   6   1   6    0.62    1.37
   6   1   7   -0.23    1.24
   6   1   8    2.14    1.00
  -6  -2  11   -0.78    1.16
   6   2 -10    6.19    3.52
   6   2  -9    0.43    1.76
   6   2  -8    3.09    2.62
   6   2  -7    6.40    2.17
   6   2  -6   -0.74    1.69
   6   2  -6    1.61    1.26
   6   2  -5    9.98    2.52
   6   2  -4    2.75    1.63
   6   2  -3   10.94    2.55
   6   2  -2    1.24    2.12
   6   2   4    0.18    0.59
   6   2   5    1.02    0.72
   6   2   6    2.84    0.95
   6   3  -7    0.10    1.42
   6   3  -7    0.53    0.77
   6   3  -6    2.84    1.93
   6   3  -5    3.54    1.96
   7  -5  -2    0.55    0.86
   7  -5  -1    0.85    0.99
   7  -5   0    1.56    1.12
   7  -5   1    0.64    0.97
   7  -4  -3   -0.14    1.39
   7  -4  -2    5.02    1.66
   7  -4  -1   11.57    2.26
   7  -4   0   16.40    2.67
   7  -4   1   36.75    3.71
   7  -4   3    0.46    0.74
   7  -4   4   69.79    6.65
   7  -3  -5   17.12    2.17
  -7   3   5    3.47    1.12
   7  -3  -4    1.30    2.64
   7  -3  -3   31.83    7.17
   7  -3  -2   -7.40    3.04
   7  -3  -1   -0.57    1.08
   7  -3   0   -1.82    1.31
   7  -3   1   -1.66    1.26
   7  -3   2    6.38    1.78
   7  -2  -6   -0.35    1.11
   7  -2  -5   -0.10    1.66
  -7   2   5    3.12    0.83
   7  -2  -4    7.27    2.45
   7  -2  -3   10.44    4.59
   7  -2  -2    0.62    1.73
   7  -2  -1    0.27    0.97
   7  -2   0   -0.72    1.07
   7  -2   1   -0.77    1.09
   7  -2   2    7.13    1.73
  -7   2  -4   -0.37    1.15
   7  -1  -5    8.04    2.22
   7  -1  -4   -4.69    3.24
   7  -1  -3  146.96   14.88
   7  -1  -2   -0.31    1.56
   7  -1  -1   -0.95    1.08
   7  -1   0    5.35    1.54
   7  -1   1    3.86    1.35
   7   0  -5   -0.45    1.72
   7   0  -4   21.94    3.80
   7   0  -3   -0.32    0.84
   7   0  -2    2.31    1.10
   7   0  -1   -0.88    0.86
   7   0   0    0.52    0.76

_computing_structure_solution     'SHELXT 2014/4 (Sheldrick, 2014)'
_computing_structure_solution     'SHELXT 2014/4 (Sheldrick, 2014)'
;
_shelx_hkl_checksum              19330
_olex2_submission_special_instructions 'No special instructions were received'
loop_
_space_group_symop_operation_xyz
'x, y, z'
'-x, -y, -z'
loop_
_atom_site_label
_atom_site_type_symbol
_atom_site_fract_x
_atom_site_fract_y
_atom_site_fract_z
_atom_site_U_iso_or_equiv
_atom_site_adp_type
_atom_site_occupancy
_atom_site_site_symmetry_order
_atom_site_calc_flag
_atom_site_refinement_flags_posn
_atom_site_refinement_flags_adp
_atom_site_refinement_flags_occupancy
_atom_site_disorder_assembly
_atom_site_disorder_group
O001 O 0.3523(4) 0.3982(2) 0.31641(13) 0.0769(7) Uani 1 1 d . . . . .
H001 H 0.2759 0.4422 0.3456 0.115 Uiso 1 1 calc R U . . .
N002 N 0.1896(4) 0.6061(2) 0.38120(15) 0.0684(7) Uani 1 1 d . . . . .
N003 N 0.1544(6) 0.9867(3) 0.60122(18) 0.0857(9) Uani 1 1 d . . . . .
O004 O 0.3558(5) 1.0291(3) 0.59768(17) 0.1192(10) Uani 1 1 d . . . . .
O005 O 0.0385(5) 1.0447(3) 0.64778(17) 0.1182(10) Uani 1 1 d . . . . .
C006 C 0.4615(5) 0.4743(3) 0.26664(17) 0.0609(8) Uani 1 1 d . . . . .
C007 C 0.4433(5) 0.6096(3) 0.27441(16) 0.0605(8) Uani 1 1 d . . . . .
C008 C 0.6911(5) 0.6367(3) 0.16613(17) 0.0616(8) Uani 1 1 d . . . . .
C009 C 0.3062(5) 0.6704(3) 0.33352(17) 0.0665(8) Uani 1 1 d . . . . .
H009 H 0.3026 0.7610 0.3371 0.080 Uiso 1 1 calc R U . . .
C00A C 0.5959(5) 0.4175(3) 0.20939(17) 0.0612(8) Uani 1 1 d . . . . .
C00B C 0.0698(5) 0.6757(3) 0.44009(17) 0.0632(8) Uani 1 1 d . . . . .
C00C C 0.5597(5) 0.6876(3) 0.22409(17) 0.0640(8) Uani 1 1 d . . . . .
H00C H 0.5479 0.7774 0.2300 0.077 Uiso 1 1 calc R U . . .
C00D C 0.1699(5) 0.7985(3) 0.48959(18) 0.0663(8) Uani 1 1 d . . . . .
H00D H 0.3186 0.8399 0.4843 0.080 Uiso 1 1 calc R U . . .
C00E C 0.7044(5) 0.5012(3) 0.16097(17) 0.0636(8) Uani 1 1 d . . . . .
H00E H 0.7928 0.4646 0.1221 0.076 Uiso 1 1 calc R U . . .
C00F C 0.0434(6) 0.8580(3) 0.54702(18) 0.0665(8) Uani 1 1 d . . . . .
C00G C -0.1515(6) 0.6163(3) 0.45000(19) 0.0727(9) Uani 1 1 d . . . . .
H00G H -0.2183 0.5328 0.4176 0.087 Uiso 1 1 calc R U . . .
C00H C 0.6216(5) 0.2703(3) 0.20028(19) 0.0685(8) Uani 1 1 d . . . . .
C00I C 0.8177(6) 0.7192(3) 0.10974(18) 0.0683(8) Uani 1 1 d . U . . .
C00J C -0.1763(6) 0.8023(4) 0.55682(19) 0.0749(9) Uani 1 1 d . . . . .
H00J H -0.2577 0.8458 0.5956 0.090 Uiso 1 1 calc R U . . .
C00K C -0.2734(6) 0.6793(4) 0.5072(2) 0.0798(10) Uani 1 1 d . . . . .
H00K H -0.4226 0.6388 0.5124 0.096 Uiso 1 1 calc R U . . .
C00L C 0.3899(6) 0.1734(3) 0.1786(2) 0.0909(11) Uani 1 1 d . . . . .
H00A H 0.2919 0.1925 0.2211 0.136 Uiso 1 1 calc R U . . .
H00B H 0.4087 0.0820 0.1730 0.136 Uiso 1 1 calc R U . . .
H00F H 0.3242 0.1852 0.1282 0.136 Uiso 1 1 calc R U . . .
C00M C 0.7291(6) 0.2497(3) 0.2801(2) 0.0903(11) Uani 1 1 d . . . . .
H00H H 0.8745 0.3098 0.2934 0.135 Uiso 1 1 calc R U . . .
H00I H 0.7472 0.1580 0.2736 0.135 Uiso 1 1 calc R U . . .
H00L H 0.6326 0.2682 0.3232 0.135 Uiso 1 1 calc R U . . .
C00N C 0.7764(6) 0.2334(3) 0.1333(2) 0.0974(12) Uani 1 1 d . . . . .
H00M H 0.7104 0.2408 0.0818 0.146 Uiso 1 1 calc R U . . .
H00N H 0.7942 0.1423 0.1307 0.146 Uiso 1 1 calc R U . . .
H00O H 0.9219 0.2938 0.1453 0.146 Uiso 1 1 calc R U . . .
C00O C 0.7693(11) 0.8597(5) 0.1209(4) 0.110(2) Uani 0.793(6) 1 d . U P A 1
H00P H 0.6100 0.8534 0.1096 0.165 Uiso 0.793(6) 1 calc R U P A 1
H00Q H 0.8526 0.9077 0.0841 0.165 Uiso 0.793(6) 1 calc R U P A 1
H00R H 0.8146 0.9073 0.1760 0.165 Uiso 0.793(6) 1 calc R U P A 1
C00P C 0.7458(10) 0.6479(5) 0.0209(3) 0.1009(19) Uani 0.793(6) 1 d . U P A 1
H00S H 0.7749 0.5583 0.0120 0.151 Uiso 0.793(6) 1 calc R U P A 1
H00T H 0.8306 0.6979 -0.0147 0.151 Uiso 0.793(6) 1 calc R U P A 1
H00U H 0.5870 0.6430 0.0097 0.151 Uiso 0.793(6) 1 calc R U P A 1
C00Q C 1.0708(8) 0.7312(6) 0.1258(4) 0.114(2) Uani 0.793(6) 1 d . U P A 1
H00V H 1.1172 0.7762 0.1813 0.171 Uiso 0.793(6) 1 calc R U P A 1
H00W H 1.1508 0.7824 0.0898 0.171 Uiso 0.793(6) 1 calc R U P A 1
H00X H 1.1043 0.6427 0.1165 0.171 Uiso 0.793(6) 1 calc R U P A 1
C1 C 0.645(3) 0.776(2) 0.0617(12) 0.093(5) Uani 0.207(6) 1 d . U P A 2
H1A H 0.5369 0.7027 0.0288 0.139 Uiso 0.207(6) 1 calc R U P A 2
H1B H 0.7250 0.8308 0.0273 0.139 Uiso 0.207(6) 1 calc R U P A 2
H1C H 0.5678 0.8304 0.0995 0.139 Uiso 0.207(6) 1 calc R U P A 2
C2 C 0.988(3) 0.8513(18) 0.1659(10) 0.089(5) Uani 0.207(6) 1 d . U P A 2
H2A H 0.9000 0.9079 0.1971 0.133 Uiso 0.207(6) 1 calc R U P A 2
H2B H 1.0773 0.9012 0.1314 0.133 Uiso 0.207(6) 1 calc R U P A 2
H2C H 1.0857 0.8224 0.2021 0.133 Uiso 0.207(6) 1 calc R U P A 2
C00R C 0.964(4) 0.646(2) 0.0533(14) 0.108(6) Uani 0.207(6) 1 d . U P A 2
H00Y H 1.0781 0.6213 0.0850 0.162 Uiso 0.207(6) 1 calc R U P A 2
H H 1.0344 0.7043 0.0192 0.162 Uiso 0.207(6) 1 calc R U P A 2
HA H 0.8707 0.5662 0.0199 0.162 Uiso 0.207(6) 1 calc R U P A 2
loop_
_atom_site_aniso_label
_atom_site_aniso_U_11
_atom_site_aniso_U_22
_atom_site_aniso_U_33
_atom_site_aniso_U_23
_atom_site_aniso_U_13
_atom_site_aniso_U_12
O001 0.0900(17) 0.0668(13) 0.0825(15) 0.0313(12) 0.0292(12) 0.0168(12)
N002 0.0720(18) 0.0684(17) 0.0661(15) 0.0174(13) 0.0150(13) 0.0125(14)
N003 0.113(3) 0.072(2) 0.0723(19) 0.0183(16) 0.009(2) 0.017(2)
O004 0.119(2) 0.097(2) 0.114(2) -0.0026(15) 0.0184(19) -0.0191(18)
O005 0.145(3) 0.100(2) 0.103(2) -0.0091(16) 0.0151(18) 0.0388(19)
C006 0.068(2) 0.0574(18) 0.0596(17) 0.0219(14) 0.0057(15) 0.0085(15)
C007 0.068(2) 0.0573(18) 0.0570(17) 0.0148(14) 0.0084(15) 0.0123(15)
C008 0.072(2) 0.0552(17) 0.0591(17) 0.0169(14) 0.0081(15) 0.0117(15)
C009 0.074(2) 0.0616(19) 0.0649(19) 0.0155(15) 0.0073(16) 0.0149(16)
C00A 0.068(2) 0.0578(18) 0.0616(18) 0.0198(14) 0.0053(15) 0.0158(15)
C00B 0.067(2) 0.0650(19) 0.0598(18) 0.0189(15) 0.0103(16) 0.0124(17)
C00C 0.078(2) 0.0521(17) 0.0648(18) 0.0187(14) 0.0083(16) 0.0126(16)
C00D 0.068(2) 0.066(2) 0.0678(19) 0.0233(16) 0.0092(17) 0.0104(17)
C00E 0.073(2) 0.0617(18) 0.0603(17) 0.0183(14) 0.0113(15) 0.0165(16)
C00F 0.081(2) 0.062(2) 0.0595(18) 0.0181(15) 0.0068(17) 0.0143(18)
C00G 0.077(2) 0.070(2) 0.068(2) 0.0163(16) 0.0096(18) 0.0070(18)
C00H 0.076(2) 0.0557(18) 0.079(2) 0.0241(15) 0.0097(18) 0.0148(17)
C00I 0.081(2) 0.0620(19) 0.0665(19) 0.0250(15) 0.0169(16) 0.0114(16)
C00J 0.084(3) 0.081(2) 0.067(2) 0.0225(18) 0.0182(18) 0.026(2)
C00K 0.072(2) 0.089(3) 0.079(2) 0.022(2) 0.0175(19) 0.013(2)
C00L 0.099(3) 0.059(2) 0.112(3) 0.0166(19) 0.006(2) 0.011(2)
C00M 0.101(3) 0.082(2) 0.099(3) 0.0393(19) 0.001(2) 0.028(2)
C00N 0.127(3) 0.074(2) 0.113(3) 0.035(2) 0.045(2) 0.049(2)
C00O 0.153(6) 0.075(3) 0.121(5) 0.051(3) 0.053(4) 0.029(3)
C00P 0.134(5) 0.097(3) 0.073(3) 0.037(2) 0.015(3) 0.006(3)
C00Q 0.082(3) 0.127(5) 0.143(5) 0.070(4) 0.019(3) 0.004(3)
C1 0.100(10) 0.096(12) 0.088(11) 0.047(9) 0.013(7) 0.004(8)
C2 0.096(11) 0.080(9) 0.090(9) 0.031(7) 0.015(8) 0.001(7)
C00R 0.133(14) 0.092(11) 0.110(12) 0.036(9) 0.053(11) 0.027(10)
loop_
_atom_type_symbol
_atom_type_description
_atom_type_scat_dispersion_real
_atom_type_scat_dispersion_imag
_atom_type_scat_source
C C 0.0181 0.0091 'International Tables Vol C Tables 4.2.6.8 and 6.1.1.4'
H H 0.0000 0.0000 'International Tables Vol C Tables 4.2.6.8 and 6.1.1.4'
N N 0.0311 0.0180 'International Tables Vol C Tables 4.2.6.8 and 6.1.1.4'
O O 0.0492 0.0322 'International Tables Vol C Tables 4.2.6.8 and 6.1.1.4'
loop_
_geom_angle_atom_site_label_1
_geom_angle_atom_site_label_2
_geom_angle_atom_site_label_3
_geom_angle
_geom_angle_site_symmetry_1
_geom_angle_site_symmetry_3
_geom_angle_publ_flag
C006 O001 H001 109.5 . . ?
C009 N002 C00B 119.5(3) . . ?
O004 N003 O005 123.5(3) . . ?
O004 N003 C00F 118.7(3) . . ?
O005 N003 C00F 117.8(3) . . ?
O001 C006 C007 119.9(3) . . ?
O001 C006 C00A 119.3(3) . . ?
C00A C006 C007 120.8(3) . . ?
C006 C007 C009 121.7(3) . . ?
C00C C007 C006 119.4(3) . . ?
C00C C007 C009 118.9(3) . . ?
C00C C008 C00E 116.0(3) . . ?
C00C C008 C00I 123.4(3) . . ?
C00E C008 C00I 120.6(3) . . ?
N002 C009 C007 123.4(3) . . ?
N002 C009 H009 118.3 . . ?
C007 C009 H009 118.3 . . ?
C006 C00A C00H 122.0(3) . . ?
C00E C00A C006 116.3(3) . . ?
C00E C00A C00H 121.7(3) . . ?
C00D C00B N002 121.8(3) . . ?
C00D C00B C00G 119.4(3) . . ?
C00G C00B N002 118.7(3) . . ?
C007 C00C H00C 118.8 . . ?
C008 C00C C007 122.3(3) . . ?
C008 C00C H00C 118.8 . . ?
C00B C00D H00D 120.9 . . ?
C00F C00D C00B 118.2(3) . . ?
C00F C00D H00D 120.9 . . ?
C008 C00E H00E 117.5 . . ?
C00A C00E C008 125.1(3) . . ?
C00A C00E H00E 117.5 . . ?
C00D C00F N003 117.7(3) . . ?
C00J C00F N003 119.0(3) . . ?
C00J C00F C00D 123.3(3) . . ?
C00B C00G H00G 119.6 . . ?
C00K C00G C00B 120.8(3) . . ?
C00K C00G H00G 119.6 . . ?
C00A C00H C00M 110.0(3) . . ?
C00L C00H C00A 110.4(3) . . ?
C00L C00H C00M 109.5(3) . . ?
C00N C00H C00A 111.5(2) . . ?
C00N C00H C00L 108.1(3) . . ?
C00N C00H C00M 107.2(3) . . ?
C008 C00I C00P 109.4(3) . . ?
C008 C00I C1 109.2(7) . . ?
C008 C00I C2 108.2(6) . . ?
C00O C00I C008 112.5(3) . . ?
C00O C00I C00P 107.7(4) . . ?
C00O C00I C00Q 108.8(4) . . ?
C00Q C00I C008 109.4(3) . . ?
C00Q C00I C00P 109.0(4) . . ?
C1 C00I C2 105.7(11) . . ?
C00R C00I C008 114.9(7) . . ?
C00R C00I C1 111.8(12) . . ?
C00R C00I C2 106.6(12) . . ?
C00F C00J H00J 121.1 . . ?
C00F C00J C00K 117.7(3) . . ?
C00K C00J H00J 121.1 . . ?
C00G C00K C00J 120.6(3) . . ?
C00G C00K H00K 119.7 . . ?
C00J C00K H00K 119.7 . . ?
C00H C00L H00A 109.5 . . ?
C00H C00L H00B 109.5 . . ?
C00H C00L H00F 109.5 . . ?
H00A C00L H00B 109.5 . . ?
H00A C00L H00F 109.5 . . ?
H00B C00L H00F 109.5 . . ?
C00H C00M H00H 109.5 . . ?
C00H C00M H00I 109.5 . . ?
C00H C00M H00L 109.5 . . ?
H00H C00M H00I 109.5 . . ?
H00H C00M H00L 109.5 . . ?
H00I C00M H00L 109.5 . . ?
C00H C00N H00M 109.5 . . ?
C00H C00N H00N 109.5 . . ?
C00H C00N H00O 109.5 . . ?
H00M C00N H00N 109.5 . . ?
H00M C00N H00O 109.5 . . ?
H00N C00N H00O 109.5 . . ?
C00I C00O H00P 109.5 . . ?
C00I C00O H00Q 109.5 . . ?
C00I C00O H00R 109.5 . . ?
H00P C00O H00Q 109.5 . . ?
H00P C00O H00R 109.5 . . ?
H00Q C00O H00R 109.5 . . ?
C00I C00P H00S 109.5 . . ?
C00I C00P H00T 109.5 . . ?
C00I C00P H00U 109.5 . . ?
H00S C00P H00T 109.5 . . ?
H00S C00P H00U 109.5 . . ?
H00T C00P H00U 109.5 . . ?
C00I C00Q H00V 109.5 . . ?
C00I C00Q H00W 109.5 . . ?
C00I C00Q H00X 109.5 . . ?
H00V C00Q H00W 109.5 . . ?
H00V C00Q H00X 109.5 . . ?
H00W C00Q H00X 109.5 . . ?
C00I C1 H1A 109.5 . . ?
C00I C1 H1B 109.5 . . ?
C00I C1 H1C 109.5 . . ?
H1A C1 H1B 109.5 . . ?
H1A C1 H1C 109.5 . . ?
H1B C1 H1C 109.5 . . ?
C00I C2 H2A 109.5 . . ?
C00I C2 H2B 109.5 . . ?
C00I C2 H2C 109.5 . . ?
H2A C2 H2B 109.5 . . ?
H2A C2 H2C 109.5 . . ?
H2B C2 H2C 109.5 . . ?
C00I C00R H00Y 109.5 . . ?
C00I C00R H 109.5 . . ?
C00I C00R HA 109.5 . . ?
H00Y C00R H 109.5 . . ?
H00Y C00R HA 109.5 . . ?
H C00R HA 109.5 . . ?
loop_
_geom_bond_atom_site_label_1
_geom_bond_atom_site_label_2
_geom_bond_distance
_geom_bond_site_symmetry_2
_geom_bond_publ_flag
O001 H001 0.8200 . ?
O001 C006 1.357(3) . ?
N002 C009 1.280(3) . ?
N002 C00B 1.415(3) . ?
N003 O004 1.216(4) . ?
N003 O005 1.218(3) . ?
N003 C00F 1.474(4) . ?
C006 C007 1.403(4) . ?
C006 C00A 1.398(4) . ?
C007 C009 1.446(4) . ?
C007 C00C 1.393(4) . ?
C008 C00C 1.370(4) . ?
C008 C00E 1.404(4) . ?
C008 C00I 1.521(4) . ?
C009 H009 0.9300 . ?
C00A C00E 1.386(3) . ?
C00A C00H 1.536(4) . ?
C00B C00D 1.382(4) . ?
C00B C00G 1.386(4) . ?
C00C H00C 0.9300 . ?
C00D H00D 0.9300 . ?
C00D C00F 1.379(4) . ?
C00E H00E 0.9300 . ?
C00F C00J 1.367(4) . ?
C00G H00G 0.9300 . ?
C00G C00K 1.374(4) . ?
C00H C00L 1.535(4) . ?
C00H C00M 1.536(4) . ?
C00H C00N 1.529(4) . ?
C00I C00O 1.513(5) . ?
C00I C00P 1.534(5) . ?
C00I C00Q 1.518(5) . ?
C00I C1 1.564(18) . ?
C00I C2 1.634(17) . ?
C00I C00R 1.515(18) . ?
C00J H00J 0.9300 . ?
C00J C00K 1.380(4) . ?
C00K H00K 0.9300 . ?
C00L H00A 0.9600 . ?
C00L H00B 0.9600 . ?
C00L H00F 0.9600 . ?
C00M H00H 0.9600 . ?
C00M H00I 0.9600 . ?
C00M H00L 0.9600 . ?
C00N H00M 0.9600 . ?
C00N H00N 0.9600 . ?
C00N H00O 0.9600 . ?
C00O H00P 0.9600 . ?
C00O H00Q 0.9600 . ?
C00O H00R 0.9600 . ?
C00P H00S 0.9600 . ?
C00P H00T 0.9600 . ?
C00P H00U 0.9600 . ?
C00Q H00V 0.9600 . ?
C00Q H00W 0.9600 . ?
C00Q H00X 0.9600 . ?
C1 H1A 0.9600 . ?
C1 H1B 0.9600 . ?
C1 H1C 0.9600 . ?
C2 H2A 0.9600 . ?
C2 H2B 0.9600 . ?
C2 H2C 0.9600 . ?
C00R H00Y 0.9600 . ?
C00R H 0.9600 . ?
C00R HA 0.9600 . ?
