#------------------------------------------------------------------------------
#$Date: 2024-02-04 13:35:17 +0200 (Sun, 04 Feb 2024) $
#$Revision: 289433 $
#$URL: file:///home/coder/svn-repositories/cod/cif/1/57/05/1570534.cif $
#------------------------------------------------------------------------------
#
# This file is available in the Crystallography Open Database (COD),
# http://www.crystallography.net/
#
# All data on this site have been placed in the public domain by the
# contributors.
#
data_1570534
loop_
_publ_author_name
'Das, Kuhali'
'Kundu, Abhishek'
'Sarkar, Koushik'
'Adhikari, Debashis'
'Maji, Biplab'
_publ_section_title
;
 Catalytic acceptorless dehydrogenative borylation of styrenes enabled by
 a molecularly defined manganese complex.
;
_journal_issue                   3
_journal_name_full               'Chemical science'
_journal_page_first              1098
_journal_page_last               1105
_journal_paper_doi               10.1039/d3sc05523j
_journal_volume                  15
_journal_year                    2024
_chemical_formula_moiety         'C18 H14 Br Mn N2 O3 S'
_chemical_formula_sum            'C18 H14 Br Mn N2 O3 S'
_chemical_formula_weight         473.22
_space_group_crystal_system      triclinic
_space_group_IT_number           2
_space_group_name_Hall           '-P 1'
_space_group_name_H-M_alt        'P -1'
_atom_sites_solution_hydrogens   geom
_atom_sites_solution_primary     iterative
_audit_creation_date             2022-07-25
_audit_creation_method
;
Olex2 1.3-ac4
(compiled 2019.04.23 svn.r3594 for Rigaku Oxford Diffraction, GUI svn.r5739)
;
_audit_update_record
;
2022-07-25 deposited with the CCDC.	2023-12-11 downloaded from the CCDC.
;
_cell_angle_alpha                104.364(2)
_cell_angle_beta                 97.514(2)
_cell_angle_gamma                93.655(2)
_cell_formula_units_Z            2
_cell_length_a                   7.6734(2)
_cell_length_b                   11.8500(3)
_cell_length_c                   13.3321(3)
_cell_measurement_reflns_used    9103
_cell_measurement_temperature    100.00(13)
_cell_measurement_theta_max      67.9310
_cell_measurement_theta_min      3.4580
_cell_volume                     1158.45(5)
_computing_cell_refinement       'CrysAlisPro 1.171.40.84a (Rigaku OD, 2020)'
_computing_data_collection       'CrysAlisPro 1.171.40.84a (Rigaku OD, 2020)'
_computing_data_reduction        'CrysAlisPro 1.171.40.84a (Rigaku OD, 2020)'
_computing_molecular_graphics    'Olex2 (Dolomanov et al., 2009)'
_computing_publication_material  'Olex2 (Dolomanov et al., 2009)'
_computing_structure_refinement  'ShelXL (Sheldrick, 2015)'
_computing_structure_solution    'olex2.solve (Bourhis et al., 2015)'
_diffrn_ambient_environment      N~2~
_diffrn_ambient_temperature      100.00(13)
_diffrn_detector                 'Hybrid Pixel Array Detector'
_diffrn_detector_area_resol_mean 10.0000
_diffrn_detector_type            HyPix3000
_diffrn_measured_fraction_theta_full 0.996
_diffrn_measured_fraction_theta_max 0.988
_diffrn_measurement_details
;
List of Runs (angles in degrees, time in seconds):

  # Type    Start    End  Width  t~exp~   \w     \q     \k     \f   Frames
#--------------------------------------------------------------------------
  1  \w    -37.00  27.00   0.50    0.38    --  -41.33  32.00 -30.00  128
  2  \w    -24.00  35.00   0.50    0.38    --  -41.33  11.00 -90.00  118
  3  \w    -28.00  30.00   0.50    0.38    --  -41.33  21.00  30.00  116
  4  \w    -47.00 -15.00   0.50    2.00    --  -82.50  42.00  30.00   64
  5  \w    -47.00 -15.00   0.50    2.00    --  -82.50  42.00   0.00   64
  6  \w    -65.00  26.00   0.50    0.38    --  -41.33  65.00  30.00  182
  7  \w    -48.00  26.00   0.50    0.38    --  -41.33  43.00-180.00  148
  8  \w     25.00 109.00   0.50    0.38    --   41.33  43.00-180.00  168
  9  \w     73.00 165.00   0.50    2.00    --   96.67  68.00 -60.00  184
 10  \w    105.00 170.00   0.50    2.00    --   96.67  96.00-180.00  130
 11  \w     99.00 164.00   0.50    2.00    --   96.67 117.00-120.00  130
 12  \w     99.00 164.00   0.50    2.00    --   96.67 117.00-180.00  130
 13  \w     99.00 164.00   0.50    2.00    --   96.67 117.00 -60.00  130
 14  \w    101.00 164.00   0.50    2.00    --   96.67 114.00  44.00  126
 15  \w     80.00 163.00   0.50    2.00    --   96.67  42.00 -90.00  166
 16  \w     81.00 164.00   0.50    2.00    --   96.67 145.00-180.00  166
 17  \w     70.00 165.00   0.50    2.00    --   96.67  77.00-180.00  190
 18  \w     70.00 165.00   0.50    2.00    --   96.67  77.00 -90.00  190
 19  \w     71.00 170.00   0.50    2.00    --   96.67  17.00  30.00  198
 20  \w     41.00 100.00   0.50    0.38    --   41.33-138.00-180.00  118
 21  \w     41.00 100.00   0.50    0.38    --   41.33-138.00 -90.00  118
 22  \w     44.00 127.00   0.50    2.00    --   96.67-145.00-120.00  166
 23  \w     29.00 110.00   0.50    2.00    --   96.67-114.00 -46.00  162
 24  \w     26.00  85.00   0.50    0.38    --   41.33-114.00 -46.00  118
 25  \w     28.00 105.00   0.50    2.00    --   96.67 -77.00 -60.00  154
 26  \w     30.00  57.00   0.50    2.00    --   96.67 -50.00 -30.00   54
 27  \w     29.00  68.00   0.50    2.00    --   96.67 -59.00   0.00   78
 28  \w     29.00  68.00   0.50    2.00    --   96.67 -59.00 -30.00   78
 29  \w     29.00  68.00   0.50    2.00    --   96.67 -59.00 -60.00   78
 30  \w     30.00 109.00   0.50    2.00    --   96.67-117.00 -90.00  158
 31  \w     30.00 109.00   0.50    2.00    --   96.67-117.00  60.00  158
 32  \w     44.00 127.00   0.50    2.00    --   96.67-145.00 150.00  166
 33  \w     29.00  68.00   0.50    2.00    --   96.67 -59.00  90.00   78
 34  \w     27.00 127.00   0.50    2.00    --   96.67 -87.00 150.00  200
 35  \w     30.00  57.00   0.50    2.00    --   96.67 -50.00 120.00   54
 36  \w     22.00 106.00   0.50    2.00    --   96.67 -96.00 120.00  168
 37  \w     29.00  68.00   0.50    2.00    --   96.67 -59.00-150.00   78
 38  \w     30.00  57.00   0.50    2.00    --   96.67 -50.00-180.00   54
 39  \w     28.00 105.00   0.50    2.00    --   96.67 -77.00-180.00  154
 40  \w    -83.00  -4.00   0.50    0.38    --  -41.33 114.00  44.00  158
 41  \w    -83.00 -15.00   0.50    2.00    --  -82.50 114.00  44.00  136
 42  \w   -109.00 -28.00   0.50    0.38    --  -41.33 -32.00-120.00  162
 43  \w   -110.00 -14.00   0.50    0.38    --  -41.33 -77.00 -90.00  192
 44  \w   -108.00 -21.00   0.50    0.38    --  -41.33 -54.00   0.00  174
 45  \w   -109.00 -28.00   0.50    0.38    --  -41.33 -32.00  90.00  162
 46  \w   -110.00 -14.00   0.50    0.38    --  -41.33 -77.00 -30.00  192
 47  \w   -109.00 -18.00   0.50    0.38    --  -41.33 -65.00-180.00  182
 48  \w   -110.00 -14.00   0.50    0.38    --  -41.33 -77.00-120.00  192
 49  \w   -110.00 -14.00   0.50    0.38    --  -41.33 -77.00  60.00  192
 50  \w   -110.00 -14.00   0.50    0.38    --  -41.33 -77.00 120.00  192
 51  \w   -110.00 -14.00   0.50    0.38    --  -41.33 -77.00   0.00  192
 52  \w   -110.00 -14.00   0.50    0.38    --  -41.33 -77.00  90.00  192
 53  \w   -150.00 -79.00   0.50    2.00    --  -82.50-114.00 -46.00  142
 54  \w   -150.00 -69.00   0.50    2.00    --  -82.50 -33.00   0.00  162
 55  \w   -157.00 -83.00   0.50    2.00    --  -82.50 -96.00  90.00  148
;
_diffrn_measurement_device       'four-circle diffractometer'
_diffrn_measurement_device_type  'XtaLAB Synergy, Dualflex, HyPix3000'
_diffrn_measurement_method       '\w scans'
_diffrn_orient_matrix_type
'CrysAlisPro convention (1999,Acta A55,543-557)'
_diffrn_orient_matrix_UB_11      0.0421207000
_diffrn_orient_matrix_UB_12      0.0564566000
_diffrn_orient_matrix_UB_13      0.1187974000
_diffrn_orient_matrix_UB_21      0.1957539000
_diffrn_orient_matrix_UB_22      -0.0205975000
_diffrn_orient_matrix_UB_23      -0.0026148000
_diffrn_orient_matrix_UB_31      0.0364682000
_diffrn_orient_matrix_UB_32      0.1207506000
_diffrn_orient_matrix_UB_33      -0.0210545000
_diffrn_radiation_monochromator  mirror
_diffrn_radiation_probe          x-ray
_diffrn_radiation_type           'Cu K\a'
_diffrn_radiation_wavelength     1.54184
_diffrn_reflns_av_R_equivalents  0.0582
_diffrn_reflns_av_unetI/netI     0.0413
_diffrn_reflns_Laue_measured_fraction_full 0.996
_diffrn_reflns_Laue_measured_fraction_max 0.988
_diffrn_reflns_limit_h_max       9
_diffrn_reflns_limit_h_min       -9
_diffrn_reflns_limit_k_max       14
_diffrn_reflns_limit_k_min       -12
_diffrn_reflns_limit_l_max       15
_diffrn_reflns_limit_l_min       -16
_diffrn_reflns_number            16706
_diffrn_reflns_point_group_measured_fraction_full 0.996
_diffrn_reflns_point_group_measured_fraction_max 0.988
_diffrn_reflns_theta_full        67.684
_diffrn_reflns_theta_max         68.261
_diffrn_reflns_theta_min         3.462
_diffrn_source                   'micro-focus sealed X-ray tube'
_diffrn_source_type              'PhotonJet (Cu) X-ray Source'
_exptl_absorpt_coefficient_mu    7.640
_exptl_absorpt_correction_T_max  1.00000
_exptl_absorpt_correction_T_min  0.67233
_exptl_absorpt_correction_type   multi-scan
_exptl_absorpt_process_details
;
CrysAlisPro 1.171.40.84a (Rigaku Oxford Diffraction, 2020)
Empirical absorption correction using spherical harmonics,
implemented in SCALE3 ABSPACK scaling algorithm.
;
_exptl_crystal_colour            'metallic yellowish yellow'
_exptl_crystal_colour_lustre     metallic
_exptl_crystal_colour_modifier   yellowish
_exptl_crystal_colour_primary    yellow
_exptl_crystal_density_diffrn    1.357
_exptl_crystal_description       block
_exptl_crystal_F_000             472
_exptl_crystal_size_max          0.1
_exptl_crystal_size_mid          0.05
_exptl_crystal_size_min          0.03
_refine_diff_density_max         1.227
_refine_diff_density_min         -0.657
_refine_diff_density_rms         0.094
_refine_ls_extinction_method     none
_refine_ls_goodness_of_fit_ref   1.065
_refine_ls_hydrogen_treatment    constr
_refine_ls_matrix_type           full
_refine_ls_number_parameters     235
_refine_ls_number_reflns         4196
_refine_ls_number_restraints     0
_refine_ls_restrained_S_all      1.065
_refine_ls_R_factor_all          0.0426
_refine_ls_R_factor_gt           0.0398
_refine_ls_shift/su_max          0.001
_refine_ls_shift/su_mean         0.000
_refine_ls_structure_factor_coef Fsqd
_refine_ls_weighting_details
'w=1/[\s^2^(Fo^2^)+(0.0789P)^2^] where P=(Fo^2^+2Fc^2^)/3'
_refine_ls_weighting_scheme      calc
_refine_ls_wR_factor_gt          0.1099
_refine_ls_wR_factor_ref         0.1128
_reflns_Friedel_coverage         0.000
_reflns_number_gt                3820
_reflns_number_total             4196
_reflns_threshold_expression     'I > 2\s(I)'
_cod_data_source_file            d3sc05523j2.cif
_cod_data_source_block           kd-179
_cod_depositor_comments
'Adding full bibliography for 1570534--1570535.cif.'
_cod_database_code               1570534
_shelx_shelxl_version_number     2018/3
_chemical_oxdiff_formula         'C H O N S Mn Br'
_chemical_oxdiff_usercomment     100K
_shelx_space_group_comment
;
The symmetry employed for this shelxl refinement is uniquely defined
by the following loop, which should always be used as a source of
symmetry information in preference to the above space-group names.
They are only intended as comments.
;
_shelx_estimated_absorpt_t_max   0.803
_shelx_estimated_absorpt_t_min   0.515
_diffrn_oxdiff_digest_frames
;
0148af9e8848898d4cb12fc3c7b66158c5000307e5f
;
_diffrn_oxdiff_digest_hkl
;
013e3feaac5b57877dd6e6d2da697d9ca34d01
;
_reflns_odcompleteness_completeness 99.88
_reflns_odcompleteness_iscentric 1
_reflns_odcompleteness_theta     66.97
_olex2_refinement_description
;
1. Fixed Uiso
 At 1.2 times of:
  All C(H) groups, All C(H,H) groups, All N(H) groups
2.a Ternary CH refined with riding coordinates:
 N2(H2)
2.b Secondary CH2 refined with riding coordinates:
 C10(H10a,H10b), C11(H11a,H11b)
2.c Aromatic/amide H refined with riding coordinates:
 C2(H2a), C5(H5), C3(H3), C4(H4), C8(H8), C7(H7), C13(H13), C14(H14), C15(H15)
;
_smtbx_masks_void_probe_radius   1.2
_smtbx_masks_void_truncation_radius 1.2
_shelx_res_file
;
TITL kd-179_a.res in P-1
    kd-179.res
    created by SHELXL-2018/3 at 15:57:47 on 16-Jul-2022
REM Old TITL KD-179 in P-1
REM SHELXT solution in P-1
REM R1 0.131, Rweak 0.008, Alpha 0.060, Orientation as input
REM Formula found by SHELXT: C18 N4 O3 S Mn Br
CELL 1.54184 7.6734 11.85 13.3321 104.364 97.514 93.655
ZERR 2 0.0002 0.0003 0.0003 0.002 0.002 0.002
LATT 1
SFAC C H Br Mn N O S
UNIT 36 28 2 2 4 6 2

L.S. 20 0 0
PLAN  10
SIZE 0.1 0.03 0.05
CONF
BOND $H
list 4
MORE -1
ABIN
fmap 2 53
acta
REM <olex2.extras>
REM <HklSrc "%.\\KD-179.hkl">
REM </olex2.extras>

WGHT    0.078900
FVAR       0.45175
BR1   3    0.392128    0.310537    0.143466    11.00000    0.01718    0.03632 =
         0.02500    0.00452    0.00738    0.00380
MN1   4    0.280249    0.433130    0.302507    11.00000    0.01437    0.03303 =
         0.02102    0.00432    0.00498    0.00250
S1    7   -0.075327    0.032093    0.124642    11.00000    0.04574    0.03558 =
         0.03212    0.00246    0.01457    0.00542
O2    6    0.622593    0.579257    0.362035    11.00000    0.01854    0.05426 =
         0.03206    0.00377    0.00443   -0.00409
O1    6    0.163552    0.576362    0.491429    11.00000    0.02575    0.04740 =
         0.02910    0.00002    0.01194    0.00164
O3    6    0.461575    0.287968    0.425837    11.00000    0.03079    0.04962 =
         0.03114    0.01235    0.00323    0.00895
N1    5    0.119182    0.512664    0.201545    11.00000    0.01412    0.02999 =
         0.02210    0.00244    0.00580    0.00381
N2    5    0.053910    0.315397    0.252903    11.00000    0.01581    0.03286 =
         0.02462    0.00597    0.00676    0.00238
AFIX  13
H2    2    0.063041    0.275622    0.180265    11.00000   -1.20000
AFIX   0
C1    1    0.165733    0.595315    0.149443    11.00000    0.01957    0.02769 =
         0.02235    0.00288    0.00798    0.00412
C9    1   -0.052365    0.476931    0.191925    11.00000    0.01660    0.02995 =
         0.02218    0.00196    0.00658    0.00321
C2    1    0.345471    0.630812    0.149483    11.00000    0.01662    0.03294 =
         0.02989    0.00570    0.00631    0.00440
AFIX  43
H2A   2    0.433526    0.597785    0.184133    11.00000   -1.20000
AFIX   0
C6    1    0.034397    0.645123    0.093061    11.00000    0.02143    0.02956 =
         0.02558    0.00489    0.01197    0.00593
C5    1    0.086868    0.731099    0.042667    11.00000    0.02465    0.03092 =
         0.02631    0.00443    0.00751    0.00572
AFIX  43
H5    2    0.001368    0.765487    0.007487    11.00000   -1.20000
AFIX   0
C3    1    0.390807    0.713247    0.099021    11.00000    0.02008    0.03804 =
         0.03106    0.00614    0.00907   -0.00208
AFIX  43
H3    2    0.509613    0.735914    0.100544    11.00000   -1.20000
AFIX   0
C4    1    0.262413    0.764155    0.045211    11.00000    0.02809    0.03069 =
         0.03195    0.00790    0.01080    0.00346
AFIX  43
H4    2    0.295761    0.820058    0.011362    11.00000   -1.20000
AFIX   0
C10   1   -0.098665    0.383595    0.244249    11.00000    0.01458    0.03674 =
         0.02658    0.00652    0.00597    0.00222
AFIX  23
H10A  2   -0.126743    0.418689    0.313331    11.00000   -1.20000
H10B  2   -0.201072    0.332852    0.203413    11.00000   -1.20000
AFIX   0
C8    1   -0.187249    0.521511    0.135493    11.00000    0.01861    0.03474 =
         0.02554    0.00358    0.00510   -0.00125
AFIX  43
H8    2   -0.304711    0.493302    0.130905    11.00000   -1.20000
AFIX   0
C18   1    0.389961    0.345007    0.378420    11.00000    0.02083    0.04140 =
         0.02363    0.00333    0.00807    0.00355
C7    1   -0.144710    0.605814    0.087910    11.00000    0.02172    0.03426 =
         0.02524    0.00479    0.00664    0.00752
AFIX  43
H7    2   -0.232966    0.637545    0.052103    11.00000   -1.20000
AFIX   0
C11   1    0.018236    0.218195    0.302629    11.00000    0.02252    0.03569 =
         0.02726    0.00982    0.00779    0.00237
AFIX  23
H11A  2   -0.017446    0.250037    0.370332    11.00000   -1.20000
H11B  2    0.125943    0.181510    0.314032    11.00000   -1.20000
AFIX   0
C17   1    0.485996    0.527480    0.336725    11.00000    0.02652    0.04076 =
         0.02060    0.00407    0.00808    0.00580
C13   1   -0.296022    0.111268    0.244816    11.00000    0.02589    0.03736 =
         0.04427    0.00723    0.00920    0.00292
AFIX  43
H13   2   -0.347185    0.154089    0.299790    11.00000   -1.20000
AFIX   0
C16   1    0.204449    0.519522    0.416988    11.00000    0.01690    0.03910 =
         0.02800    0.00958    0.00362   -0.00159
C12   1   -0.123535    0.127717    0.236190    11.00000    0.02988    0.03062 =
         0.02690    0.00856    0.00728    0.00467
C14   1   -0.391001    0.021174    0.160521    11.00000    0.03500    0.03659 =
         0.05557    0.00978   -0.00088   -0.00559
AFIX  43
H14   2   -0.511117   -0.000839    0.154943    11.00000   -1.20000
AFIX   0
C15   1   -0.291250   -0.028872    0.090061    11.00000    0.05490    0.03144 =
         0.03822    0.00324   -0.00419   -0.00247
AFIX  43
H15   2   -0.333068   -0.088718    0.030272    11.00000   -1.20000
AFIX   0
HKLF 4




REM  kd-179_a.res in P-1
REM wR2 = 0.1128, GooF = S = 1.065, Restrained GooF = 1.065 for all data
REM R1 = 0.0398 for 3820 Fo > 4sig(Fo) and 0.0426 for all 4196 data
REM 235 parameters refined using 0 restraints

END

WGHT      0.0788      0.0000

REM Highest difference peak  1.227,  deepest hole -0.657,  1-sigma level  0.094
Q1    1   0.3736  0.2204  0.0993  11.00000  0.05    1.23
Q2    1   0.4152  0.4027  0.1839  11.00000  0.05    1.01
Q3    1   0.3008  0.5224  0.3520  11.00000  0.05    0.71
Q4    1  -0.1059  0.4878  0.1047  11.00000  0.05    0.66
Q5    1   0.2539  0.3415  0.2683  11.00000  0.05    0.65
Q6    1   0.3562  0.3543  0.0827  11.00000  0.05    0.54
Q7    1   0.4219  0.2606  0.2014  11.00000  0.05    0.49
Q8    1  -0.0610  0.1134  0.1660  11.00000  0.05    0.47
Q9    1   0.3197  0.3235  0.0628  11.00000  0.05    0.43
Q10   1  -0.0031  0.6353  0.0466  11.00000  0.05    0.42
;
_shelx_res_checksum              92112
_shelx_hkl_file
;
   0   0  -1  143.37    9.04
   0   0  -1  125.05    9.35
   0   0  -1  139.49    9.11
   0   0   1  124.67    8.84
   0   0   1  133.71    8.72
   0   0  -1  141.35    8.86
   0   0   1  129.52    8.78
   0   0  -1  145.55    9.15
   0   0  -2 1002.92   63.48
   0   0  -2  887.61   64.16
   0   0   2 1000.66   63.23
   0   0   2  959.63   63.06
   0   0  -2 1040.65   63.15
   0   0  -2 1010.71   63.74
   0   0  -2 1063.31   63.75
   0   0  -3  372.56   25.23
   0   0  -3  356.92   26.49
   0   0   3  394.53   24.86
   0   0  -3  358.31   25.41
   0   0  -3  365.74   24.66
   0   0  -3  374.71   25.69
   0   0   3  381.60   24.71
   0   0   3  384.50   24.93
   0   0  -4 2228.13  145.54
   0   0   4 2249.95  144.97
   0   0  -4 2112.64  147.30
   0   0   4 2351.34  147.22
   0   0   4 2310.09  144.90
   0   0  -4 2467.04  146.23
   0   0  -4 2150.36  146.19
   0   0   4 2422.87  145.24
   0   0  -5  727.43   50.03
   0   0   5  785.50   52.19
   0   0  -5  721.53   50.40
   0   0   5  746.91   49.49
   0   0   5  774.70   49.29
   0   0  -6  233.83   19.82
   0   0   6  295.81   22.94
   0   0   6  278.28   21.04
   0   0  -6  247.14   20.40
   0   0   6  267.25   19.58
   0   0  -7  560.28   36.26
   0   0  -7  547.45   39.84
   0   0   7  612.07   39.41
   0   0  -7  541.41   40.36
   0   0   7  529.46   40.54
   0   0   7  561.50   42.70
   0   0  -8  147.86   11.17
   0   0  -8  169.69   11.54
   0   0   8  171.71   14.72
   0   0  -8  143.19   15.38
   0   0   8  159.78   16.13
   0   0   8  176.25   18.82
   0   0  -9   10.38    2.08
   0   0   9   12.69    2.12
   0   0  -9   15.43    2.75
   0   0  -9    8.96    4.67
   0   0   9   15.22    4.26
   0   0   9    7.08    5.09
   0   0 -10   20.49    2.82
   0   0  10   15.69    2.55
   0   0 -10   10.22    2.80
   0   0 -10    4.50    5.43
   0   0  10   16.26    6.90
   0   0  10   13.25    4.43
   0   0 -11  396.30   27.00
   0   0 -12   32.57    4.38
   0   0 -12   36.20    3.59
   0   0 -13   76.18    7.16
   0   0 -13   88.52    6.54
   0   0 -14   90.79    6.70
   0   0 -15    7.97    1.37
   0   1 -15   16.31    2.09
   0   1 -15   20.04    2.05
   0   1 -14   12.25    2.10
   0   1 -14   15.26    2.15
   0   1 -13  222.84   14.43
   0  -1  13  194.54   14.56
   0   1 -12  164.70   10.58
   0  -1  12  126.54   10.67
   0  -1  11    2.25    1.95
   0  -1  11   -1.23    3.31
   0   1 -11    1.72    1.44
   0   1 -11    2.52    1.72
   0  -1  11   -2.22    5.29
   0   1 -11    9.47    6.03
   0   1 -10   35.23    4.09
   0  -1  10   31.01    3.74
   0   1 -10   39.23    3.71
   0  -1  10   25.04    5.85
   0  -1  10   37.93    9.05
   0   1 -10   25.76    8.46
   0  -1   9  253.14   19.97
   0   1  -9  204.70   15.16
   0   1  -9  255.90   15.96
   0   1  -9  209.27   23.41
   0  -1   9  248.12   24.19
   0  -1   8  765.88   54.37
   0   1  -8  799.06   51.09
   0  -1   8  840.28   59.19
   0  -1   7  142.49   12.14
   0   1  -7  138.71   12.87
   0   1  -7  128.93    9.50
   0  -1   7  150.42   15.35
   0   1  -6 1508.91  101.29
   0  -1   6 1634.55  100.67
   0   1  -6 1427.84  100.54
   0  -1   6 1776.27  104.45
   0  -1   5   32.95    4.23
   0   1  -5   33.20    4.63
   0  -1   5   30.82    3.63
   0   1  -5   25.73    4.04
   0   1  -5   35.78    6.12
   0  -1   5   37.29    6.24
   0  -1   4  277.82   18.36
   0   1  -4  284.51   19.28
   0  -1   4  296.54   19.00
   0  -1   4  279.95   20.56
   0   1  -4  232.82   20.49
   0   1  -4  243.02   18.73
   0   1  -3  787.26   50.44
   0   1  -3  698.31   49.64
   0  -1   3  837.10   50.54
   0  -1   3  772.02   49.57
   0  -1   3  786.73   50.00
   0   1  -3  841.92   50.68
   0   1  -3  862.64   49.87
   0   1  -3  712.40   51.74
   0  -1   3  857.82   51.84
   0   1  -3  784.40   49.67
   0   1  -2  730.84   50.60
   0  -1   2  870.83   50.82
   0  -1   2  759.74   50.38
   0   1  -2  775.09   50.67
   0  -1   2  765.89   50.18
   0   1  -2  863.81   50.81
   0   1  -2  768.42   51.47
   0  -1   2  900.63   51.61
   0   1  -2  782.83   50.52
   0   1  -2  884.26   50.75
   0   1  -1  740.89   42.05
   0   1  -1  606.77   41.95
   0  -1   1  642.85   41.35
   0   1  -1  663.51   41.80
   0   1  -1  692.49   41.54
   0  -1   1  626.72   41.87
   0   1  -1  688.45   41.89
   0   1  -1  625.01   41.84
   0   1   0 1277.49   80.42
   0  -1   0 1283.62   80.12
   0   1   0 1195.78   79.99
   0   1   0 1338.81   80.27
   0   1   0 1332.00   80.31
   0   1   0 1263.38   80.22
   0  -1  -1  803.91   46.44
   0  -1  -1  714.06   45.29
   0   1   1  661.04   45.79
   0   1   1  713.66   45.75
   0  -1  -1  754.22   46.28
   0  -1  -1  763.84   45.83
   0  -1  -1  659.92   46.32
   0   1   1  773.85   46.33
   0   1   1  735.59   46.10
   0   1   1  688.61   45.71
   0   1   2   87.99    6.54
   0  -1  -2  112.57    8.14
   0   1   2  107.43    7.04
   0   1   2   92.16    6.81
   0  -1  -2  103.48    8.60
   0   1   2   96.98    8.27
   0   1   2  100.70    7.70
   0  -1  -2   91.21    7.92
   0   1   2   95.58    7.25
   0  -1  -2  114.82    8.02
   0   1   2  100.18    7.44
   0  -1  -2  100.02    7.59
   0   1   3  976.02   63.62
   0  -1  -3  828.88   64.71
   0   1   3  983.23   64.81
   0  -1  -3 1043.96   64.27
   0  -1  -3 1029.40   63.84
   0  -1  -3  941.54   63.80
   0   1   3 1001.94   63.45
   0  -1  -3 1007.86   64.41
   0   1   3 1022.76   63.33
   0   1   4  434.21   29.12
   0   1   4  411.99   27.16
   0   1   4  409.21   27.96
   0  -1  -4  393.53   27.65
   0   1   4  398.28   26.73
   0   1   4  387.86   26.80
   0  -1  -4  372.31   27.40
   0  -1  -4  372.22   27.77
   0  -1  -4  367.09   26.92
   0   1   5  350.65   24.88
   0   1   5  361.94   26.16
   0  -1  -5  302.75   24.09
   0  -1  -5  303.99   24.14
   0   1   5  327.48   23.34
   0   1   5  324.27   23.22
   0  -1  -5  340.75   24.88
   0   1   6  104.00   11.29
   0   1   6  135.67   13.61
   0  -1  -6   80.22   10.01
   0  -1  -6  113.90    7.98
   0   1   6  110.08    9.98
   0  -1  -6  100.63   11.23
   0   1   7   16.32    4.73
   0   1   7   10.31    5.36
   0  -1  -7    5.16    3.78
   0   1   7   14.52    3.64
   0  -1  -7   16.77    4.49
   0  -1  -7   10.27    2.13
   0  -1  -8   35.04    3.70
   0   1   8   51.09    9.91
   0   1   8   38.92    7.44
   0   1   8   39.29    6.15
   0  -1  -8   28.23    6.45
   0  -1  -8   35.67    3.93
   0  -1  -8   39.06    7.17
   0  -1  -9    7.75    2.01
   0   1   9    2.83    3.39
   0   1   9    6.92    3.24
   0  -1  -9    7.16    4.30
   0  -1  -9    7.33    2.45
   0  -1 -10  150.79   10.75
   0   1  10  102.05   15.29
   0  -1 -10   83.72   15.99
   0   1  10  141.66   18.60
   0   1  10  133.37   14.55
   0  -1 -10  121.69   16.03
   0  -1 -10  162.44   11.27
   0  -1 -11   71.24    6.79
   0  -1 -11   71.03    6.45
   0  -1 -12  164.69   11.12
   0  -1 -12  140.87   11.88
   0  -1 -12  157.02   11.72
   0  -1 -13    6.26    1.71
   0  -1 -13    6.86    2.23
   0  -1 -13    5.77    1.91
   0  -1 -14   64.67    6.25
   0  -1 -14   86.70    5.88
   0  -1 -15    0.45    0.74
   0   2 -15    2.18    1.20
   0   2 -15    1.93    1.12
   0  -2  15    2.46    1.53
   0   2 -14   41.87    4.01
   0  -2  14   39.66    4.26
   0   2 -14   49.36    4.02
   0  -2  13   10.57    2.59
   0   2 -13    6.63    2.25
   0   2 -13    8.17    1.97
   0  -2  12   34.11    4.50
   0   2 -12   40.27    4.40
   0   2 -11    5.29    1.63
   0  -2  11    4.42    2.32
   0   2 -11    2.87    2.15
   0   2 -11    3.49    1.92
   0   2 -11    2.26    4.54
   0  -2  11    2.18    5.20
   0  -2  11    2.46    2.72
   0   2 -10  212.81   13.65
   0   2 -10  198.47   13.83
   0   2 -10  195.26   14.58
   0   2 -10  157.60   21.36
   0  -2  10  175.70   21.76
   0  -2  10  186.15   18.33
   0   2  -9   51.01    4.48
   0   2  -9   53.88    4.23
   0   2  -9   55.37    5.23
   0   2  -9   55.56   10.30
   0  -2   9   48.65   10.21
   0  -2   9   47.43    7.41
   0  -2   8  619.39   38.79
   0  -2   8  578.65   42.48
   0   2  -8  484.49   41.23
   0   2  -8  528.39   34.01
   0   2  -8  525.39   34.19
   0  -2   7  311.32   22.72
   0  -2   7  282.89   25.23
   0  -2   6  472.61   32.46
   0  -2   6  459.45   34.95
   0  -2   5    9.32    2.38
   0   2  -5    8.06    2.47
   0  -2   5   16.44    4.45
   0   2  -5    6.98    3.67
   0   2  -4   14.13    2.68
   0  -2   4   17.66    4.04
   0   2  -4   18.90    4.02
   0  -2   4   13.34    2.10
   0  -2   4   12.97    2.38
   0  -2   3   17.94    2.51
   0  -2   3   13.61    2.03
   0  -2   3   19.14    1.95
   0   2  -3   18.80    2.81
   0   2  -3   22.03    3.32
   0  -2   3   15.03    3.32
   0   2  -3   24.52    3.70
   0   2  -3   15.50    2.58
   0   2  -3   17.29    2.72
   0   2  -2  116.08    8.48
   0   2  -2  102.96    8.08
   0  -2   2  104.28    8.30
   0   2  -2  101.51    8.08
   0   2  -2  102.44    8.18
   0   2  -2  105.50    8.50
   0  -2   2  111.57    7.23
   0   2  -1 1147.00   72.47
   0   2  -1 1067.22   72.51
   0   2  -1 1107.73   71.45
   0   2  -1 1073.35   71.41
   0   2  -1 1308.69   71.99
   0   2  -1 1213.35   72.16
   0   2  -1 1065.87   72.25
   0  -2   0  240.36   16.61
   0   2   0  231.06   17.10
   0   2   0  272.04   17.40
   0   2   0  243.08   16.41
   0   2   0  278.58   17.05
   0   2   0  246.66   16.98
   0   2   0  224.65   16.69
   0  -2  -1  101.40    7.60
   0  -2  -1   73.65    5.54
   0   2   1  106.06    7.25
   0  -2  -1   89.90    7.07
   0  -2  -1   80.24    6.25
   0   2   1   86.85    7.08
   0   2   1   67.11    6.86
   0   2   1   79.54    6.75
   0   2   1   87.85    6.76
   0  -2  -2 2031.47  122.97
   0   2   2 1913.44  121.99
   0   2   2 1908.78  122.49
   0   2   2 1846.91  122.35
   0   2   2 1995.49  122.83
   0  -2  -2 1876.32  122.62
   0  -2  -2 2006.19  122.98
   0  -2  -2 1940.21  121.86
   0   2   2 1979.97  121.79
   0   2   2 1822.40  121.57
   0   2   3   26.32    3.63
   0  -2  -3   35.69    4.81
   0  -2  -3   29.86    4.03
   0  -2  -3   39.41    5.30
   0   2   3   32.41    4.90
   0   2   3   40.20    4.91
   0   2   3   34.41    5.43
   0  -2  -3   33.33    4.91
   0   2   4    5.35    2.05
   0  -2  -4    3.31    2.93
   0  -2  -4    2.81    2.11
   0   2   4    7.86    3.65
   0   2   4    4.66    2.89
   0   2   4    6.24    3.04
   0  -2  -4    7.00    3.10
   0  -2  -5  332.52   26.07
   0   2   5  325.09   24.12
   0  -2  -5  314.55   24.73
   0   2   5  389.54   27.48
   0   2   5  349.63   26.05
   0   2   5  358.19   25.18
   0  -2  -5  319.78   25.49
   0   2   6   13.70    3.23
   0  -2  -6    8.87    3.71
   0  -2  -6    9.42    2.06
   0  -2  -6    8.30    3.94
   0   2   6   11.30    3.94
   0   2   6   11.16    4.31
   0  -2  -7    2.42    1.27
   0  -2  -7    3.54    3.68
   0   2   7    3.00    2.35
   0  -2  -7    4.36    3.41
   0  -2  -7    4.34    1.91
   0   2   7    6.76    4.72
   0   2   7    4.52    3.53
   0  -2  -8  103.09    7.71
   0   2   8   96.52   10.74
   0  -2  -8   84.15   12.17
   0  -2  -8   91.41    7.78
   0  -2  -8   78.07   11.40
   0   2   8   99.58   14.09
   0   2   8  114.01   13.29
   0  -2  -9   36.31    4.05
   0  -2  -9   26.75    7.38
   0   2   9   31.09    6.04
   0  -2  -9   31.69    4.20
   0   2   9   34.83    7.98
   0   2   9   38.97    9.08
   0  -2 -10  395.46   24.05
   0  -2 -10  266.90   29.73
   0  -2 -10  356.81   24.14
   0   2  10  325.61   32.85
   0   2  10  354.87   31.59
   0  -2 -10  216.70   30.48
   0  -2 -11   18.33    3.49
   0  -2 -11   20.87    3.41
   0  -2 -12  145.07   11.55
   0  -2 -12  153.25   11.35
   0  -2 -13   93.18    7.57
   0  -2 -13   97.77    7.95
   0  -2 -13   95.78    7.07
   0  -2 -14    2.17    1.21
   0   3 -15   51.87    4.74
   0   3 -15   59.21    4.54
   0  -3  15   45.51    4.56
   0   3 -15   61.28    4.48
   0   3 -14   67.99    6.23
   0  -3  14   67.80    6.12
   0   3 -14   76.06    5.80
   0   3 -14   76.32    5.87
   0  -3  13   48.31    5.13
   0   3 -13   48.65    4.59
   0   3 -13   52.94    4.48
   0   3 -13   49.02    4.87
   0   3 -12    2.22    1.65
   0   3 -12    0.20    1.45
   0  -3  12   -1.41    2.46
   0   3 -12   -1.92    2.66
   0   3 -12   -0.50    2.13
   0   3 -11   40.99    5.03
   0   3 -11   47.05    3.89
   0   3 -11   34.48    4.08
   0  -3  11   34.79    6.91
   0   3 -10  177.52   13.77
   0   3 -10  191.71   13.11
   0   3 -10  188.40   12.76
   0  -3  10  179.86   17.60
   0   3  -9  149.95   10.40
   0   3  -9  148.93   10.64
   0   3  -9  169.29   11.59
   0   3  -9  117.32   16.29
   0  -3   9  156.79   14.77
   0   3  -8  439.97   30.03
   0   3  -8  459.20   29.86
   0   3  -8  507.25   30.88
   0  -3   8  540.06   34.67
   0   3  -8  484.85   37.36
   0  -3   7  565.14   35.51
   0   3  -7  473.55   32.30
   0  -3   7  518.85   38.05
   0   3  -7  481.17   37.37
   0   3  -6   14.62    4.25
   0  -3   6   15.98    4.66
   0  -3   6   11.26    2.97
   0  -3   5   95.34   10.19
   0   3  -5   94.51    9.78
   0  -3   5  100.93    8.77
   0  -3   4  241.61   17.84
   0  -3   4  264.31   18.59
   0   3  -4  286.67   19.38
   0   3  -4  287.58   19.15
   0  -3   4  246.96   19.51
   0   3  -4  243.12   19.12
   0   3  -4  252.39   18.62
   0   3  -4  278.47   18.96
   0  -3   3 3461.95  224.05
   0  -3   3 3511.51  224.01
   0   3  -3 3833.57  225.44
   0   3  -3 3377.59  224.49
   0   3  -3 3999.86  225.04
   0   3  -3 3464.58  224.86
   0   3  -3 3501.78  225.27
   0   3  -2   79.29    6.94
   0   3  -2   56.51    6.56
   0   3  -2   62.19    6.43
   0   3  -2   71.56    5.74
   0   3  -1 1441.45   89.92
   0   3  -1 1333.46   87.90
   0   3  -1 1482.53   88.84
   0   3  -1 1376.85   88.93
   0  -3   0  493.57   32.19
   0  -3   0  478.22   32.56
   0   3   0  435.99   33.27
   0   3   0  581.83   33.94
   0   3   0  448.08   31.88
   0   3   0  490.39   32.17
   0   3   0  551.27   33.18
   0   3   0  476.81   32.79
   0   3   0  521.26   33.25
   0  -3  -1 1621.03  105.20
   0   3   1 1807.59  105.36
   0  -3  -1 1644.58  104.84
   0   3   1 1611.20  104.81
   0   3   1 1530.08  104.27
   0   3   1 1658.19  104.69
   0  -3  -2   41.20    6.06
   0   3   2   44.33    5.37
   0   3   2   50.17    5.88
   0   3   2   55.26    6.07
   0   3   2   46.30    5.88
   0  -3  -2   45.86    6.11
   0  -3  -2   45.13    6.01
   0   3   2   53.11    5.47
   0  -3  -3  132.96   11.65
   0   3   3  120.40    9.98
   0  -3  -3   85.08   10.33
   0   3   3  123.90   10.96
   0   3   3  137.57   11.72
   0   3   3  125.42   10.90
   0  -3  -3  125.18   11.42
   0  -3  -4 2208.41  145.87
   0   3   4 2128.93  144.13
   0  -3  -4 2161.57  146.08
   0   3   4 2413.63  146.19
   0   3   4 2446.48  146.85
   0   3   4 2351.51  145.61
   0  -3  -4 2232.13  146.05
   0  -3  -5  682.48   52.20
   0   3   5  718.79   51.04
   0  -3  -5  739.59   53.41
   0   3   5  812.29   53.37
   0   3   5  793.66   52.59
   0   3   5  785.67   54.22
   0  -3  -5  724.98   53.06
   0  -3  -5  784.58   48.72
   0  -3  -6    5.65    4.21
   0   3   6    6.34    2.72
   0  -3  -6    5.35    1.84
   0  -3  -6    9.79    3.93
   0   3   6    5.27    3.57
   0   3   6    8.30    4.67
   0  -3  -7  241.80   15.50
   0   3   7  211.60   18.49
   0  -3  -7  177.79   19.97
   0  -3  -7  203.61   20.36
   0  -3  -7  210.38   15.46
   0   3   7  233.63   21.14
   0   3   7  242.88   22.53
   0  -3  -8  298.46   20.07
   0  -3  -8  239.69   25.56
   0  -3  -8  306.19   20.31
   0  -3  -8  266.38   25.85
   0   3   8  274.33   27.68
   0   3   8  293.37   26.44
   0  -3  -9   48.43    4.95
   0  -3  -9   39.08    8.81
   0   3   9   49.04    9.52
   0  -3  -9   49.21    5.09
   0  -3  -9   22.56    6.89
   0  -3 -10  329.47   23.92
   0  -3 -10  363.29   23.89
   0  -3 -11  229.76   17.33
   0  -3 -11  252.09   17.25
   0  -3 -12   -1.92    2.22
   0  -3 -12   -0.56    1.92
   0  -3 -13   11.84    2.38
   0  -3 -13   15.11    2.58
   0  -3 -13   17.88    2.03
   0  -3 -14    8.71    1.47
   0  -4  15  150.20   11.93
   0   4 -15  172.79   11.81
   0   4 -15  191.35   11.81
   0   4 -15  173.60   12.16
   0  -4  14   89.33    7.97
   0   4 -14  109.16    7.73
   0   4 -14  104.10    7.61
   0   4 -14  104.76    8.19
   0  -4  13  252.99   19.70
   0   4 -13  307.23   19.41
   0   4 -13  299.21   19.49
   0   4 -12  170.26   14.33
   0   4 -12  203.48   13.44
   0   4 -12  191.07   13.68
   0   4 -12  191.12   13.27
   0   4 -11  350.12   24.74
   0   4 -11  369.56   23.66
   0   4 -11  340.51   23.83
   0   4 -11  378.31   23.60
   0  -4  11  277.89   28.33
   0   4 -10   99.91    6.97
   0   4 -10   92.81    7.93
   0   4 -10   92.91    6.81
   0   4 -10   80.18    7.01
   0  -4  10   80.34   10.82
   0   4  -9 1563.43   96.40
   0   4  -9 1643.09  102.28
   0  -4   9 1492.73  101.48
   0   4  -9 1527.49   97.32
   0   4  -9 1499.74   96.55
   0   4  -9 1509.21   96.29
   0   4  -8    0.51    0.82
   0   4  -8    0.16    1.16
   0   4  -8    0.57    1.85
   0   4  -8   -1.75    2.61
   0  -4   8    1.66    2.48
   0   4  -8   -0.26    1.50
   0   4  -8    0.41    0.79
   0   4  -7   14.88    2.71
   0  -4   7   16.72    3.82
   0   4  -7   13.51    3.63
   0   4  -6    2.98    1.78
   0   4  -6    5.81    2.97
   0  -4   6    3.50    2.11
   0   4  -5  333.53   25.08
   0  -4   5  339.98   24.16
   0   4  -5  337.52   24.57
   0   4  -4 2773.14  176.94
   0   4  -4 2989.54  177.39
   0  -4   4 2666.16  175.15
   0   4  -4 2894.95  176.43
   0   4  -4 2655.22  176.32
   0   4  -3  447.31   32.32
   0   4  -3  455.71   32.41
   0   4  -3  448.66   31.95
   0   4  -3  481.11   31.78
   0   4  -2 1281.31   85.54
   0   4  -2 1214.46   85.35
   0   4  -2 1316.22   84.04
   0   4  -2 1392.33   85.38
   0   4  -2 1334.74   84.73
   0   4  -1 1457.31   90.17
   0   4  -1 1340.64   89.73
   0   4  -1 1348.72   88.62
   0   4  -1 1473.83   89.62
   0   4  -1 1309.75   88.79
   0  -4   0   29.74    4.57
   0   4   0   19.76    4.57
   0   4   0   40.46    5.52
   0   4   0   54.51    5.70
   0   4   0   34.10    4.73
   0   4   0   39.88    5.21
   0  -4  -1   26.17    4.68
   0   4   1   29.98    4.84
   0   4   1   22.03    4.32
   0   4   1   20.90    3.83
   0   4   1   25.95    4.21
   0  -4  -1   33.70    4.54
   0  -4  -1   30.39    5.20
   0  -4  -2  323.00   25.08
   0  -4  -2  317.50   24.40
   0   4   2  351.27   24.65
   0   4   2  332.50   24.03
   0  -4  -2  317.26   24.75
   0  -4  -3 1124.16   76.49
   0  -4  -3 1122.58   76.92
   0   4   3 1138.08   75.97
   0   4   3 1224.40   76.54
   0  -4  -3 1128.59   76.83
   0  -4  -4  470.64   35.38
   0  -4  -4  440.98   35.03
   0   4   4  510.70   35.05
   0   4   4  504.43   35.07
   0  -4  -4  446.51   35.30
   0  -4  -5  483.52   38.85
   0  -4  -5  492.41   38.52
   0  -4  -5  535.72   34.00
   0  -4  -5  439.34   38.47
   0   4   5  562.95   38.79
   0   4   5  584.24   39.44
   0  -4  -6   43.49    8.19
   0  -4  -6   42.04    7.91
   0  -4  -6   47.70    4.60
   0   4   6   48.19    8.00
   0   4   6   49.12    8.28
   0  -4  -6   48.55    4.48
   0  -4  -7  241.35   26.45
   0  -4  -7  316.04   21.43
   0  -4  -7  286.51   27.35
   0   4   7  330.83   27.77
   0  -4  -7  329.86   21.36
   0  -4  -8  153.66   20.41
   0   4   8  209.00   21.76
   0  -4  -8  166.40   20.83
   0  -4  -8  221.33   15.78
   0  -4  -8  251.89   15.87
   0  -4  -9  562.40   39.71
   0  -4  -9  642.77   39.77
   0   4  10   16.04    2.92
   0  -4 -10   15.15    3.18
   0  -4 -10   16.33    3.23
   0  -4 -11   61.50    6.41
   0  -4 -11   80.57    6.61
   0  -4 -12    0.83    1.75
   0  -4 -12    1.25    1.72
   0  -4 -13    2.76    1.40
   0   5 -15  105.05    8.06
   0  -5  15  102.29    7.99
   0   5 -15  102.56    7.68
   0   5 -15  118.04    7.73
   0   5 -14   10.29    2.40
   0  -5  14   11.25    2.69
   0   5 -14    9.18    1.90
   0   5 -14    9.62    1.81
   0   5 -13    4.74    2.05
   0  -5  13   -1.12    2.45
   0   5 -13    0.22    1.58
   0   5 -13   -0.61    1.61
   0   5 -12    6.89    2.00
   0   5 -12   10.05    2.71
   0   5 -12    6.69    2.90
   0   5 -12    9.54    2.01
   0   5 -11  374.41   25.70
   0   5 -11  380.67   24.55
   0   5 -11  387.58   24.50
   0   5 -11  356.06   24.79
   0  -5  11  289.37   29.51
   0  -5  10  221.23   21.83
   0   5 -10  226.14   17.98
   0   5 -10  261.07   18.05
   0   5 -10  259.86   16.97
   0   5 -10  244.81   17.15
   0   5 -10  262.46   16.92
   0   5  -9  307.89   20.92
   0   5  -9  302.10   20.66
   0  -5   9  286.61   25.30
   0   5  -9  303.88   21.90
   0   5  -9  322.50   21.45
   0   5  -9  338.07   21.83
   0   5  -9  323.15   26.32
   0   5  -9  328.43   20.81
   0   5  -8   24.41    2.53
   0   5  -8   24.91    2.78
   0   5  -8   22.00    3.56
   0  -5   8   34.46    5.75
   0   5  -8   36.98    6.41
   0   5  -8   28.94    3.50
   0   5  -8   24.17    3.12
   0   5  -8   29.91    2.70
   0   5  -7    7.79    1.27
   0   5  -7    7.19    1.43
   0   5  -7    5.81    2.33
   0   5  -7   10.26    3.80
   0   5  -7    8.65    1.75
   0  -5   7    9.84    3.36
   0   5  -7    5.37    1.20
   0  -5   6  361.03   26.52
   0   5  -6  347.20   24.03
   0   5  -6  399.88   27.50
   0  -5   5  425.12   31.05
   0   5  -5  402.92   32.40
   0   5  -5  439.29   28.97
   0   5  -5  519.89   32.66
   0   5  -4  240.72   19.86
   0   5  -4  216.98   19.58
   0   5  -4  262.26   19.64
   0   5  -4  254.05   19.22
   0   5  -3  279.06   22.49
   0   5  -3  274.20   22.26
   0   5  -3  284.61   21.91
   0   5  -3  291.43   21.50
   0   5  -2    8.39    3.56
   0   5  -2    8.27    3.08
   0   5  -2   15.23    4.05
   0   5  -2   11.68    2.99
   0   5  -2   10.13    3.65
   0  -5   1   32.31    4.96
   0   5  -1   25.02    5.42
   0   5  -1   38.86    5.35
   0   5  -1   30.80    5.70
   0   5  -1   24.97    4.52
   0   5  -1   37.63    5.68
   0  -5   0  162.27   14.25
   0   5   0  168.89   14.87
   0   5   0  156.61   13.75
   0   5   0  164.46   14.20
   0  -5  -1  126.92   12.91
   0  -5  -1  146.85   13.19
   0   5   1  147.51   13.13
   0   5   1  122.97   12.18
   0   5   1  131.46   12.24
   0  -5  -2   70.31    9.07
   0   5   2   81.00    9.21
   0  -5  -2   68.92    9.25
   0  -5  -3  467.67   35.80
   0   5   3  494.26   35.29
   0   5   3  515.66   34.95
   0  -5  -3  456.37   35.27
   0  -5  -3  439.51   35.79
   0  -5  -4    1.15    3.27
   0   5   4    1.94    3.38
   0   5   4    3.73    2.78
   0  -5  -4    6.77    4.06
   0  -5  -4   -1.06    2.87
   0  -5  -5   59.73   10.04
   0  -5  -5   64.37    9.92
   0  -5  -5   78.56   10.57
   0   5   5   75.89    6.00
   0   5   5   80.73   10.46
   0   5   5   63.27    9.27
   0  -5  -6  162.28   19.01
   0  -5  -6  163.55   19.30
   0   5   6  197.54   19.08
   0   5   6  228.53   20.25
   0  -5  -6  204.22   13.96
   0  -5  -7  149.92   17.16
   0  -5  -7  119.57   16.25
   0   5   7  162.39   17.08
   0  -5  -7  144.20   10.79
   0  -5  -8   44.97    9.34
   0   5   8   59.38   10.29
   0  -5  -8   47.09    9.66
   0  -5  -8   54.06    5.52
   0  -5  -8   62.09    5.66
   0   5   9  148.59   10.68
   0  -5  -9  134.06   11.13
   0  -5  -9  153.18   11.22
   0   5  10  111.48    8.08
   0  -5 -10   87.85    8.39
   0  -5 -10  114.20    8.64
   0   5  11    7.95    1.98
   0  -5 -11    6.20    2.29
   0  -5 -11    9.85    2.30
   0  -5 -12    1.54    1.49
   0  -5 -12    1.01    1.27
   0   6 -15   21.31    2.68
   0  -6  15   20.08    2.63
   0   6 -15   19.79    2.27
   0   6 -15   21.67    2.31
   0   6 -14   16.69    2.69
   0  -6  14   14.57    2.73
   0   6 -14   16.12    2.25
   0   6 -14   15.32    2.18
   0   6 -13   -0.29    2.09
   0  -6  13   -0.27    2.31
   0   6 -13    3.19    1.62
   0   6 -13    2.62    1.46
   0   6 -12  178.19   12.13
   0   6 -12  160.06   11.92
   0   6 -12  174.80   12.63
   0   6 -11   26.09    2.99
   0   6 -11   25.90    3.54
   0   6 -11   24.47    4.05
   0   6 -11   18.38    2.73
   0   6 -10  106.71    7.88
   0   6 -10   87.25    8.93
   0  -6  10   94.87   12.12
   0   6 -10   93.05   12.61
   0   6 -10  108.98    8.92
   0   6 -10  112.86    8.45
   0   6 -10   94.71    8.48
   0   6 -10  118.06    8.01
   0   6  -9   10.68    1.87
   0   6  -9    7.25    2.80
   0  -6   9   16.16    4.81
   0   6  -9   18.16    5.04
   0   6  -9   11.12    2.23
   0   6  -9   15.13    2.73
   0   6  -9   16.00    2.83
   0   6  -9   10.71    1.88
   0   6  -8    0.63    0.97
   0   6  -8   -0.69    2.28
   0  -6   8   -0.95    2.09
   0   6  -8    2.20    3.13
   0   6  -8    1.10    1.69
   0   6  -8    1.97    1.44
   0   6  -8    2.46    1.74
   0   6  -8   -0.53    1.55
   0   6  -8    0.50    1.04
   0   6  -7   28.50    2.91
   0   6  -7   28.83    3.99
   0  -6   7   32.42    5.65
   0   6  -7   39.01    3.41
   0   6  -7   29.85    3.54
   0   6  -7   34.08    3.04
   0   6  -7   29.41    3.42
   0   6  -7   38.57    6.48
   0   6  -6   51.83    4.30
   0   6  -6   62.61    8.07
   0   6  -6   56.84    5.34
   0   6  -6   56.81    5.00
   0   6  -6   51.34    4.41
   0   6  -6   61.68    4.99
   0   6  -6   57.38    4.37
   0   6  -5  154.59   15.33
   0   6  -5  139.79   15.33
   0   6  -5  158.26   11.59
   0   6  -5  172.27   15.18
   0   6  -5  185.21   15.36
   0   6  -4  233.48   15.59
   0   6  -4  232.07   20.18
   0   6  -4  230.90   20.20
   0   6  -4  221.42   15.82
   0   6  -4  245.36   19.31
   0   6  -4  249.44   19.80
   0   6  -3  664.09   51.68
   0   6  -3  682.81   50.55
   0   6  -3  786.99   51.91
   0   6  -3  750.48   47.22
   0   6  -3  781.62   52.57
   0   6  -2  153.09   15.11
   0   6  -2  151.96   10.44
   0   6  -2  170.21   15.32
   0   6  -2  131.29   12.76
   0   6  -2  145.87   14.08
   0   6  -2  142.79   13.58
   0   6  -1   -0.95    3.18
   0   6  -1    1.01    1.44
   0   6  -1    3.02    2.64
   0   6  -1    3.36    2.72
   0   6  -1    3.42    2.75
   0  -6   1    0.87    2.71
   0  -6   0   43.63    7.05
   0  -6   0   29.52    5.68
   0   6   0   35.85    6.65
   0   6   0   33.29    3.34
   0   6   0   32.73    5.68
   0   6   0   40.18    6.31
   0  -6  -1  858.78   60.23
   0  -6  -1  807.98   59.24
   0   6   1  884.82   59.95
   0   6   1  850.31   58.94
   0   6   1  890.54   59.03
   0  -6  -2   38.14    6.64
   0   6   2   35.91    6.48
   0   6   2   20.64    2.49
   0  -6  -2   35.14    6.78
   0   6   3  565.31   39.19
   0   6   3  705.25   45.59
   0  -6  -3  637.42   45.86
   0   6   3  649.89   39.61
   0   6   3  626.33   39.49
   0  -6  -3  606.42   46.09
   0  -6  -4  335.32   31.40
   0   6   4  397.81   25.83
   0   6   4  431.41   31.97
   0  -6  -4  370.09   32.04
   0  -6  -5   50.01    9.21
   0   6   5   58.57    5.01
   0   6   5   47.57    4.59
   0   6   5   66.82    9.74
   0  -6  -5   40.11    8.65
   0  -6  -6   61.23   10.30
   0   6   6   66.77    5.70
   0  -6  -6   60.05   10.44
   0   6   6   59.35    5.39
   0   6   6   60.85    9.86
   0  -6  -7   87.90   13.12
   0  -6  -7   68.25   12.36
   0   6   7  103.90    7.72
   0  -6  -8  337.56   24.62
   0   6   8  391.90   24.43
   0  -6  -9    4.55    2.01
   0   6   9    7.23    2.39
   0  -6 -10   71.12    6.08
   0   6  10   68.50    5.69
   0   6  11   39.48    3.71
   0   6  11   38.98    3.59
   0  -6 -11   41.42    3.90
   0  -6 -12   22.78    2.36
   0   7 -15    7.80    1.63
   0  -7  15    5.47    1.62
   0   7 -15    4.71    1.13
   0   7 -15    5.21    1.15
   0   7 -14   17.83    2.60
   0  -7  14   13.17    2.61
   0   7 -14   17.26    2.26
   0   7 -14   18.73    2.25
   0   7 -13   25.20    3.35
   0  -7  13   21.81    3.34
   0   7 -13   16.41    2.65
   0   7 -13   24.99    2.84
   0   7 -12  101.34    7.46
   0   7 -12   86.61    7.95
   0   7 -12   98.26    7.42
   0   7 -12   91.67    7.85
   0   7 -11   72.22    5.68
   0   7 -11   57.99    6.23
   0   7 -11   65.92    5.57
   0   7 -11   67.11    6.09
   0   7 -10   10.72    2.07
   0   7 -10    6.77    2.59
   0   7 -10   13.30    2.28
   0   7 -10    9.87    2.67
   0   7 -10    7.89    2.43
   0   7  -9  126.84    9.32
   0   7  -9  140.10   15.27
   0   7  -9  127.57   10.13
   0   7  -9  130.70    9.32
   0   7  -9  136.20    9.81
   0   7  -9  119.20   10.10
   0   7  -8  259.03   22.67
   0   7  -8  252.77   16.58
   0   7  -8  242.38   17.21
   0   7  -8  237.69   16.44
   0   7  -8  238.22   17.28
   0   7  -8  252.80   16.90
   0   7  -7  172.86   17.90
   0   7  -7  197.68   13.10
   0   7  -7  203.97   13.43
   0   7  -7  186.62   13.78
   0   7  -7  200.02   13.75
   0   7  -7  186.05   13.13
   0   7  -7  181.33   12.98
   0   7  -6   58.46    4.78
   0   7  -6   55.18    4.97
   0   7  -6   58.52    5.49
   0   7  -6   66.60    9.05
   0   7  -6   63.52    5.00
   0   7  -6   62.53    4.97
   0   7  -6   61.58    5.37
   0   7  -6   60.94    4.84
   0   7  -5 1173.39   69.66
   0   7  -5 1035.89   63.36
   0   7  -5 1088.58   69.53
   0   7  -5 1053.69   63.91
   0   7  -5  928.47   63.52
   0   7  -5  965.89   70.07
   0   7  -5  973.09   63.86
   0   7  -5  981.21   63.34
   0   7  -5 1044.25   63.42
   0   7  -5 1062.37   63.84
   0   7  -5  912.57   63.21
   0   7  -4   17.10    2.19
   0   7  -4   22.96    2.47
   0   7  -4   19.70    5.01
   0   7  -4   30.51    6.46
   0   7  -4   26.39    2.95
   0   7  -4   14.65    2.41
   0   7  -4   27.61    5.49
   0   7  -4   27.01    6.08
   0   7  -4   23.33    2.88
   0   7  -4   19.47    2.26
   0   7  -4   22.91    2.46
   0   7  -4   22.02    2.46
   0   7  -4   16.02    2.14
   0   7  -3  164.74   10.97
   0   7  -3  129.22   15.32
   0   7  -3  153.05   14.87
   0   7  -3  143.43   14.89
   0   7  -3  123.43   15.07
   0   7  -2  421.83   33.83
   0   7  -2  385.82   32.86
   0   7  -2  496.46   35.53
   0   7  -2  458.81   29.25
   0   7  -1  259.27   16.29
   0   7  -1  242.07   21.74
   0   7  -1  222.37   19.64
   0   7  -1  197.44   19.96
   0  -7   1  201.46   20.37
   0  -7   0  402.05   31.68
   0   7   0  423.30   30.66
   0   7   0  453.31   32.49
   0   7   0  443.27   26.11
   0   7   0  420.47   25.85
   0   7   0  428.40   31.28
   0   7   0  336.68   25.62
   0   7   0  380.57   25.63
   0   7   1  438.95   32.98
   0  -7  -1  400.19   33.09
   0   7   1  436.49   27.88
   0   7   1  414.58   32.57
   0   7   1  424.37   27.88
   0  -7  -1  409.54   33.83
   0   7   2  773.29   52.35
   0  -7  -2  674.65   52.26
   0   7   2  716.08   46.35
   0   7   2  738.26   46.39
   0  -7  -2  650.80   52.57
   0   7   3  177.73   17.11
   0   7   3  155.03   11.24
   0  -7  -3  151.46   17.17
   0   7   3  163.78   11.67
   0   7   3  171.49   11.65
   0  -7  -3  161.08   17.62
   0  -7  -4   -1.51    3.85
   0   7   4   -0.48    1.88
   0   7   4    0.44    1.56
   0   7   4    3.84    4.15
   0   7   4    0.55    1.76
   0  -7  -4   -1.53    3.07
   0  -7  -5   31.02    7.60
   0   7   5   39.14    4.06
   0   7   5   29.23    3.52
   0   7   5   28.44    7.26
   0  -7  -5   17.53    6.22
   0   7   6  341.09   22.19
   0   7   6  321.35   22.43
   0   7   7   59.69    5.28
   0   7   7   55.16    5.44
   0   7   8   84.28    7.48
   0   7   8  103.66    7.47
   0   7   9  163.93   12.45
   0   7   9  190.37   12.41
   0   7  10    8.32    1.93
   0   7  10    7.43    1.72
   0   7  10   10.50    1.84
   0   7  11   24.01    2.43
   0   8 -15    0.46    0.99
   0   8 -14  142.47   10.29
   0  -8  14  123.66   10.03
   0   8 -14  155.63   10.03
   0   8 -14  148.16    9.94
   0   8 -13  164.08   11.30
   0   8 -13  159.28   11.23
   0   8 -13  157.01   11.64
   0   8 -12   13.87    2.44
   0   8 -12   19.65    3.34
   0   8 -12   17.41    2.51
   0   8 -12   16.68    2.90
   0   8 -11   65.08    5.33
   0   8 -11   46.99    5.73
   0   8 -11   70.21    5.40
   0   8 -11   48.84    5.78
   0   8 -11   61.19    5.65
   0   8 -10  135.04    9.57
   0   8 -10  118.20   10.24
   0   8 -10  133.97    9.59
   0   8 -10  136.05   10.03
   0   8 -10  118.91   10.25
   0   8  -9   31.19    3.41
   0   8  -9   35.18    3.90
   0   8  -9   34.33    4.41
   0   8  -9   34.35    4.28
   0   8  -9   27.26    3.36
   0   8  -8    9.58    1.92
   0   8  -8    8.43    2.11
   0   8  -8    8.54    2.71
   0   8  -8   15.14    5.14
   0   8  -8   12.04    2.73
   0   8  -8    9.59    1.94
   0   8  -7  365.25   31.20
   0   8  -7  411.79   24.95
   0   8  -7  377.73   25.09
   0   8  -7  381.99   25.61
   0   8  -7  383.99   25.51
   0   8  -7  370.39   24.91
   0   8  -7  356.16   24.86
   0   8  -7  367.51   24.76
   0   8  -6  451.15   29.35
   0   8  -6  474.91   35.74
   0   8  -6  477.67   30.06
   0   8  -6  370.12   35.88
   0   8  -6  461.84   29.40
   0   8  -6  484.75   29.98
   0   8  -6  428.21   29.88
   0   8  -6  449.47   29.40
   0   8  -6  422.74   29.23
   0   8  -5  102.37   12.11
   0   8  -5  100.52   12.11
   0   8  -5   96.84    7.15
   0   8  -5   89.15    7.02
   0   8  -5   89.72    7.46
   0   8  -5   97.01    7.78
   0   8  -5   93.03    7.42
   0   8  -5   88.94    7.08
   0   8  -5   95.70    7.06
   0   8  -5   85.36    6.87
   0   8  -5  100.90    7.23
   0   8  -5   94.68    7.45
   0   8  -5   83.23   12.38
   0   8  -4   32.92    3.34
   0   8  -4   28.38    3.13
   0   8  -4   29.16    3.06
   0   8  -4   30.61    3.80
   0   8  -4   31.89    3.31
   0   8  -4   29.85    3.27
   0   8  -4   32.93    3.70
   0   8  -4   28.42    6.59
   0   8  -4   27.52    6.79
   0   8  -3   19.72    2.45
   0   8  -3   17.80    5.02
   0   8  -3   17.09    2.32
   0   8  -3   25.60    6.10
   0   8  -3   13.62    2.10
   0   8  -3   19.06    2.48
   0   8  -3   18.62    2.90
   0   8  -3   17.80    2.45
   0   8  -3   16.94    2.68
   0   8  -2   98.98    8.03
   0   8  -2   94.33   12.51
   0   8  -2  119.16    8.21
   0   8  -2   88.67   11.81
   0   8  -2  105.94    8.59
   0   8  -2  102.71    8.02
   0   8  -2  126.20    8.32
   0   8  -2  113.77    8.43
   0   8  -1   56.41    5.59
   0   8  -1   82.06    5.87
   0   8  -1   75.56   10.22
   0   8  -1   77.90    5.87
   0   8  -1   68.52    5.85
   0   8  -1   60.74    5.56
   0   8  -1   68.59    6.18
   0   8  -1   86.63    5.92
   0  -8   0  191.06   20.37
   0   8   0  185.15   14.75
   0   8   0  229.84   20.64
   0   8   0  232.68   15.00
   0   8   0  222.01   14.79
   0   8   0  206.27   19.65
   0   8   0  214.21   14.74
   0   8   0  233.98   14.85
   0   8   1    8.86    2.05
   0   8   1    4.50    1.88
   0   8   1    5.79    3.63
   0  -8  -1    4.34    4.33
   0   8   2   14.80    2.46
   0   8   2   12.71    2.66
   0   8   2   14.83    5.50
   0   8   3    3.93    3.73
   0  -8  -3   -1.61    3.24
   0  -8  -3   -1.53    3.37
   0   8   3    3.34    1.94
   0   8   3    3.20    2.06
   0  -8  -4   76.75   12.57
   0  -8  -4   84.93   13.28
   0   8   4  110.93    8.20
   0   8   4  106.58   13.50
   0   8   4  102.94    7.82
   0   8   4  105.57    8.32
   0   8   5  286.16   18.80
   0   8   5  269.42   19.15
   0   8   6   15.35    2.76
   0   8   6   22.16    3.19
   0   8   6   17.85    3.19
   0   8   7  197.06   13.86
   0   8   7  207.50   13.60
   0   8   7  181.19   13.68
   0   8   8   14.92    2.64
   0   8   8   19.27    2.58
   0   8   9    3.09    1.53
   0   8   9    3.45    1.58
   0   8   9    3.60    1.52
   0   8  10   31.29    2.82
   0   8  10   31.52    2.93
   0   9 -14    3.85    1.40
   0   9 -13  120.57    8.21
   0   9 -13   97.78    8.48
   0   9 -13  118.38    8.14
   0   9 -13  106.17    8.37
   0   9 -12   31.99    3.34
   0   9 -12   26.51    3.85
   0   9 -12   29.18    3.24
   0   9 -12   35.61    3.77
   0   9 -11    1.09    1.47
   0   9 -11    1.33    2.33
   0   9 -11    0.84    1.51
   0   9 -11   -0.64    2.24
   0   9 -11    2.17    1.76
   0   9 -10   14.30    2.48
   0   9 -10   11.10    3.13
   0   9 -10   12.82    2.39
   0   9 -10   15.82    3.40
   0   9 -10   15.82    2.69
   0   9  -9   20.07    2.77
   0   9  -9   18.99    3.37
   0   9  -9   18.98    2.72
   0   9  -9   20.33    3.80
   0   9  -9   21.26    3.06
   0   9  -8  137.85    9.54
   0   9  -8  117.99   10.18
   0   9  -8  126.11    9.48
   0   9  -8  126.57   10.08
   0   9  -8  122.88    9.34
   0   9  -7    3.77    1.64
   0   9  -7    8.43    2.56
   0   9  -7    5.74    4.09
   0   9  -7    3.94    1.89
   0   9  -7    2.74    1.51
   0   9  -7    4.41    2.28
   0   9  -7    4.61    1.71
   0   9  -6  262.06   18.53
   0   9  -6  247.32   18.19
   0   9  -6  272.96   17.92
   0   9  -6  261.41   17.78
   0   9  -6  261.27   17.81
   0   9  -6  230.48   23.58
   0   9  -6  275.40   18.48
   0   9  -5   13.46    4.87
   0   9  -5    7.74    2.72
   0   9  -5    6.94    1.85
   0   9  -5    6.34    1.71
   0   9  -5    7.19    1.78
   0   9  -5   13.93    4.88
   0   9  -5    7.87    2.09
   0   9  -5    7.31    2.25
   0   9  -4   -0.52    1.96
   0   9  -4   -1.30    2.87
   0   9  -4    0.90    1.65
   0   9  -4    5.58    3.77
   0   9  -4    1.77    1.48
   0   9  -4    1.27    2.10
   0   9  -4    0.44    1.66
   0   9  -4    1.44    1.32
   0   9  -3   21.48    3.32
   0   9  -3   20.87    6.06
   0   9  -3   21.78    3.05
   0   9  -3   29.53    3.10
   0   9  -3   22.28    3.07
   0   9  -3   26.97    3.75
   0   9  -2  215.71   14.41
   0   9  -2  208.11   20.49
   0   9  -2  187.84   14.06
   0   9  -2  215.29   14.23
   0   9  -2  204.20   14.71
   0   9  -2  194.75   14.08
   0   9  -1  235.38   15.93
   0   9  -1  212.74   15.65
   0   9  -1  232.34   16.30
   0   9  -1  257.50   15.98
   0   9  -1  247.42   15.86
   0   9  -1  197.74   15.68
   0   9  -1  246.95   22.35
   0   9   0   29.16    3.43
   0   9   0   22.62    5.99
   0   9   0   28.57    3.25
   0   9   0   26.81    3.24
   0   9   0   21.50    5.94
   0  -9   0   28.98    7.07
   0   9   1   41.22    4.45
   0   9   1   43.93    4.41
   0   9   1   42.95    8.17
   0  -9  -1   60.80   10.34
   0   9   2    3.26    2.15
   0   9   2    3.46    2.12
   0   9   2    2.66    3.39
   0  -9  -2    3.32    3.67
   0   9   3   70.65    6.03
   0   9   3   63.73    5.76
   0   9   3   68.04    6.06
   0   9   4   22.27    3.14
   0   9   4   19.50    2.99
   0   9   4   14.95    3.23
   0   9   5   76.14    6.60
   0   9   5   75.65    6.32
   0   9   5   89.12    7.01
   0   9   6   14.54    2.45
   0   9   6   13.22    2.47
   0   9   6   12.48    2.67
   0   9   6   16.07    2.88
   0   9   7   67.52    5.56
   0   9   7   59.27    5.38
   0   9   7   72.24    5.34
   0   9   7   61.41    5.45
   0   9   8   52.30    4.31
   0   9   8   45.29    4.22
   0   9   8   51.44    4.12
   0   9   9    5.78    1.27
   0   9   9    4.64    1.19
   0  10 -13    8.36    1.61
   0  10 -13    4.09    1.74
   0  10 -12   30.23    3.53
   0  10 -12   27.98    3.19
   0  10 -12   27.43    2.96
   0  10 -12   27.10    3.52
   0  10 -11    1.92    1.51
   0  10 -11   -2.35    2.17
   0  10 -11    0.20    1.30
   0  10 -11    2.12    2.22
   0  10 -10   -1.29    2.38
   0  10 -10    1.53    1.58
   0  10 -10   -0.64    2.25
   0  10  -9    4.36    2.74
   0  10  -9    4.58    1.78
   0  10  -9    3.31    2.34
   0  10  -8  218.15   15.62
   0  10  -8  221.88   14.83
   0  10  -8  204.11   14.77
   0  10  -8  202.98   15.30
   0  10  -7   36.50    4.74
   0  10  -7   41.24    4.22
   0  10  -7   46.34    4.93
   0  10  -7   39.14    4.92
   0  10  -7   44.69    4.49
   0  10  -7   42.05    4.20
   0  10  -6  189.79   12.92
   0  10  -6  175.76   12.24
   0  10  -6  157.18   12.10
   0  10  -6  169.30   12.95
   0  10  -6  168.29   12.11
   0  10  -6  168.86   12.29
   0  10  -5   32.15    3.65
   0  10  -5   26.27    3.39
   0  10  -5   29.68    3.70
   0  10  -5   29.28    4.30
   0  10  -5   31.51    3.38
   0  10  -4    8.03    2.08
   0  10  -4    7.56    2.15
   0  10  -4    6.47    2.84
   0  10  -4    6.72    2.13
   0  10  -3  122.65    9.79
   0  10  -3  114.69   14.85
   0  10  -3  145.00    9.68
   0  10  -3  111.84    9.38
   0  10  -3  124.69    9.48
   0  10  -3  133.83   10.22
   0  10  -2   28.61    3.71
   0  10  -2   23.20    3.79
   0  10  -2   24.94    3.25
   0  10  -2   33.77    3.69
   0  10  -2   22.63    3.20
   0  10  -1  583.02   37.94
   0  10  -1  526.87   37.28
   0  10  -1  592.19   37.44
   0  10  -1  606.15   37.55
   0  10   0   59.88    5.48
   0  10   0   65.07    5.56
   0  10   0   67.99    5.83
   0  10   1  235.96   16.44
   0  10   2   97.19    8.15
   0  10   2  111.90    8.40
   0  10   3  149.63   11.08
   0  10   3  150.73   11.08
   0  10   4   76.66    6.41
   0  10   4   67.42    6.00
   0  10   4   76.31    6.22
   0  10   5  120.51    9.00
   0  10   5  117.84    8.84
   0  10   6  182.50   12.61
   0  10   6  176.97   12.46
   0  10   6  186.43   12.57
   0  10   7   15.67    2.09
   0  10   7   12.51    1.85
   0  10   8    6.36    1.24
   0  11 -12    1.72    1.56
   0  11 -11    3.02    1.82
   0  11 -11    2.46    1.88
   0  11 -10   67.30    6.29
   0  11 -10   69.12    5.77
   0  11 -10   83.35    6.71
   0  11  -9  153.46   10.84
   0  11  -9  143.82   11.30
   0  11  -9  146.53   10.79
   0  11  -9  160.16   11.55
   0  11  -8   26.95    3.33
   0  11  -8   23.95    3.57
   0  11  -8   27.88    3.24
   0  11  -8   25.79    3.83
   0  11  -7  111.39    9.41
   0  11  -7  124.26    8.95
   0  11  -7  106.38    8.65
   0  11  -7  123.05    9.40
   0  11  -6   20.87    3.75
   0  11  -6   24.76    2.98
   0  11  -6   25.45    3.34
   0  11  -6   18.29    2.92
   0  11  -6   26.33    3.22
   0  11  -5    2.05    2.55
   0  11  -5    1.95    2.03
   0  11  -5    0.74    1.64
   0  11  -5    1.20    1.84
   0  11  -4    4.06    2.73
   0  11  -4    5.34    2.16
   0  11  -4    8.06    2.36
   0  11  -4    6.22    1.82
   0  11  -3  167.62   12.46
   0  11  -3  161.18   11.76
   0  11  -3  136.37   11.52
   0  11  -2  205.52   14.79
   0  11  -2  187.04   14.10
   0  11  -2  214.87   14.28
   0  11  -1   23.61    3.12
   0  11  -1   22.78    3.20
   0  11  -1   23.04    3.08
   0  11   0  141.38   10.51
   0  11   1   63.66    5.68
   0  11   2   28.92    3.40
   0  11   2   26.16    3.42
   0  11   3   38.78    4.08
   0  11   3   42.87    4.12
   0  11   4  169.34   11.63
   0  11   4  161.67   11.50
   0  11   5   17.77    2.38
   0  11   5   15.18    2.11
   0  11   6    7.82    1.39
   0  12 -11   41.16    3.84
   0  12 -10    7.57    1.93
   0  12  -9  126.62   10.27
   0  12  -9  151.57   10.10
   0  12  -9  147.24   10.57
   0  12  -8   23.34    2.80
   0  12  -8   16.79    2.55
   0  12  -8   25.78    3.18
   0  12  -7    2.71    1.93
   0  12  -7   -0.42    1.51
   0  12  -6    8.00    2.21
   0  12  -6    8.67    1.92
   0  12  -6   10.38    2.15
   0  12  -5   20.72    2.93
   0  12  -5   22.54    3.52
   0  12  -5   17.36    2.56
   0  12  -5   12.19    2.55
   0  12  -4   88.65    7.44
   0  12  -4   97.68    8.13
   0  12  -4   99.04    7.51
   0  12  -3    6.14    2.61
   0  12  -3    3.88    2.13
   0  12  -3    0.44    1.81
   0  12  -2   52.97    5.01
   0  12  -2   62.21    5.22
   0  12  -1   12.75    2.22
   0  12  -1   11.93    2.33
   0  12   0    7.50    2.05
   0  12   1   26.03    3.12
   0  12   2   68.24    5.56
   0  12   3   35.94    3.40
   0  12   4    3.17    1.11
   0  13  -9    7.31    1.40
   0  13  -8    2.21    1.22
   0  13  -7    2.43    1.40
   0  13  -6   11.96    2.07
   0  13  -6   12.90    2.04
   0  13  -5    0.35    1.37
   0  13  -5    3.10    1.49
   0  13  -4   32.31    3.44
   0  13  -4   36.49    3.48
   0  13  -3   14.66    2.22
   0  13  -2   25.93    2.77
   0  13  -1    1.87    1.23
   0  13  -1    1.52    1.29
   0  13   0    2.33    1.28
   0  13   1   21.98    2.38
   0  13   2   35.20    3.03
   0  14  -6   22.48    2.19
   0  14  -5   43.83    3.55
   0  14  -4    8.48    1.38
   0  14  -3   63.94    4.76
   0  14  -2    8.53    1.24
  -1  14  -2    3.72    0.99
  -1  14  -3    1.59    1.02
  -1  14  -4    8.41    1.40
  -1  14  -5    0.11    0.89
  -1  14  -5   -0.34    0.93
  -1  14  -6   50.31    4.09
  -1  14  -6   56.14    4.10
  -1  13   2   62.17    4.74
  -1  13   1    1.37    1.28
  -1  13   0   67.00    5.23
  -1  13  -1   31.13    3.03
  -1  13  -2   53.88    4.56
  -1  13  -3    2.27    1.30
  -1  13  -3    0.17    1.35
  -1  13  -4   86.65    6.92
  -1  13  -4   99.31    7.08
  -1  13  -5   60.31    5.09
  -1  13  -5   62.46    5.07
  -1  13  -6   17.08    2.42
  -1  13  -6   17.07    2.28
  -1  13  -7   19.16    2.44
  -1  13  -8    7.46    1.62
  -1  13  -9   50.68    4.49
  -1  13  -9   58.64    4.39
  -1  12   4   97.02    6.89
  -1  12   4   94.37    6.86
  -1  12   3    0.89    1.37
  -1  12   3    2.85    1.52
  -1  12   2   94.39    7.17
  -1  12   1   28.32    3.24
  -1  12   0    2.04    1.88
  -1  12  -1   60.03    5.12
  -1  12  -1   57.64    5.13
  -1  12  -2   96.52    7.50
  -1  12  -3  208.42   15.62
  -1  12  -3  257.80   15.96
  -1  12  -4    1.49    1.84
  -1  12  -4   -0.22    1.93
  -1  12  -5  101.06    7.81
  -1  12  -5   99.92    7.75
  -1  12  -6   47.50    4.48
  -1  12  -6   45.17    4.31
  -1  12  -7    9.45    2.23
  -1  12  -7    6.43    2.24
  -1  12  -8   38.86    3.65
  -1  12  -8   29.41    3.78
  -1  12  -9   13.98    2.59
  -1  12  -9   18.00    2.33
  -1  12 -10   83.15    6.25
  -1  12 -10   83.79    6.71
  -1  12 -11    0.93    1.23
  -1  11   6   26.46    2.68
  -1  11   6   25.62    2.50
  -1  11   5    6.47    1.83
  -1  11   5    6.14    1.58
  -1  11   4   43.91    4.26
  -1  11   4   46.64    4.28
  -1  11   3   34.62    3.68
  -1  11   3   30.00    3.61
  -1  11   2   35.27    3.77
  -1  11   2   32.09    3.86
  -1  11   1    8.51    2.47
  -1  11   0   20.74    2.91
  -1  11   0   22.00    3.22
  -1  11  -1  112.43    8.66
  -1  11  -1  114.40    8.70
  -1  11  -2  158.00   12.28
  -1  11  -2  196.82   12.68
  -1  11  -3  100.60    8.38
  -1  11  -3  122.91    8.75
  -1  11  -4   33.95    3.99
  -1  11  -4   43.04    4.27
  -1  11  -5    2.61    2.01
  -1  11  -5    5.26    1.94
  -1  11  -6    2.51    2.28
  -1  11  -6    3.31    2.19
  -1  11  -6    2.07    1.79
  -1  11  -7   -0.32    2.16
  -1  11  -7    0.23    1.93
  -1  11  -7   -0.31    2.22
  -1  11  -7    1.63    1.88
  -1  11  -8   32.88    4.17
  -1  11  -8   37.22    3.76
  -1  11  -8   29.72    4.22
  -1  11  -8   31.26    3.77
  -1  11  -9    3.97    2.34
  -1  11  -9    7.59    2.15
  -1  11  -9    4.32    1.88
  -1  11 -10   53.01    5.67
  -1  11 -10   65.93    5.20
  -1  11 -10   61.65    5.37
  -1  11 -11   -0.25    1.65
  -1  11 -11   -0.62    1.40
  -1  11 -12    2.86    1.62
  -1  11 -12    3.11    1.28
  -1  10   8    8.60    1.40
  -1  10   8    7.00    1.26
  -1  10   7    4.03    1.53
  -1  10   7    2.13    1.31
  -1  10   6    6.34    1.92
  -1  10   6    6.13    1.93
  -1  10   5  129.20    9.71
  -1  10   5  129.36    9.53
  -1  10   5  134.29    9.57
  -1  10   4   19.35    3.15
  -1  10   4   17.77    2.93
  -1  10   3  173.59   12.78
  -1  10   3  183.12   12.86
  -1  10   2    3.39    2.25
  -1  10   2    2.01    2.27
  -1  10   1   19.18    3.14
  -1  10   0    9.75    2.34
  -1  10   0   12.00    2.46
  -1  10   0   14.66    2.67
   1 -10   1   74.73   11.85
  -1  10  -1   96.65    8.22
  -1  10  -1  107.06    7.88
  -1  10  -1   95.88    7.73
  -1  10  -1  100.96    7.85
  -1  10  -2  393.38   25.55
  -1  10  -2  446.07   25.77
  -1  10  -2  346.84   25.27
  -1  10  -2  390.88   26.17
  -1  10  -3  117.05    8.71
  -1  10  -3  127.61    8.80
  -1  10  -3  111.44    9.25
  -1  10  -3   95.77    8.37
  -1  10  -4  237.12   15.41
  -1  10  -4  204.45   15.91
  -1  10  -4  199.73   15.11
  -1  10  -4  235.68   15.40
  -1  10  -5  115.32   10.16
  -1  10  -5  145.12   10.28
  -1  10  -5  133.12   10.58
  -1  10  -5  136.25   10.18
  -1  10  -5  141.70   11.05
  -1  10  -5  155.71   10.39
  -1  10  -6   35.71    3.79
  -1  10  -6   23.99    3.72
  -1  10  -6   24.51    3.45
  -1  10  -6   31.39    4.07
  -1  10  -7   21.57    3.56
  -1  10  -7   18.97    2.88
  -1  10  -7   19.60    3.12
  -1  10  -7   17.75    3.49
  -1  10  -8  189.63   13.41
  -1  10  -8  192.70   14.15
  -1  10  -8  183.30   13.66
  -1  10  -8  193.25   14.23
  -1  10  -9  111.56    8.22
  -1  10  -9  103.91    8.93
  -1  10  -9  108.84    9.03
  -1  10  -9   97.13    8.37
  -1  10 -10   43.67    4.11
  -1  10 -10   43.13    4.90
  -1  10 -10   39.26    4.36
  -1  10 -10   40.65    4.85
  -1  10 -11   84.36    7.71
  -1  10 -11  103.30    7.66
  -1  10 -12    8.11    2.15
  -1  10 -12    6.63    1.81
  -1  10 -13   39.91    3.70
  -1   9   9   30.98    2.79
  -1   9   9   26.63    2.71
  -1   9   8   17.52    2.18
  -1   9   8   15.56    2.25
  -1   9   8   13.67    2.23
  -1   9   7   50.79    4.90
  -1   9   7   55.50    4.78
  -1   9   7   61.76    5.13
  -1   9   6    5.81    2.03
  -1   9   6    4.01    2.34
  -1   9   5   83.09    7.14
  -1   9   5   96.03    7.14
  -1   9   5   90.25    7.50
  -1   9   4  454.50   29.75
  -1   9   4  448.50   29.40
  -1   9   4  448.45   29.83
  -1   9   3    1.79    2.19
  -1   9   3    1.51    2.11
  -1   9   2   16.97    2.81
  -1   9   2   12.74    2.63
  -1   9   1  161.37   18.17
  -1   9   1  195.49   13.49
  -1   9   0  517.73   32.66
  -1   9   0  496.58   32.44
  -1   9   0  444.57   38.59
  -1   9   0  518.10   32.52
  -1   9   0  439.51   37.83
   1  -9   0  409.57   38.20
  -1   9  -1   25.15    5.98
  -1   9  -1   17.36    2.85
  -1   9  -1   27.52    3.20
  -1   9  -1   23.30    6.32
  -1   9  -1   21.29    3.43
  -1   9  -1   23.86    3.01
   1  -9   1   20.30    5.88
  -1   9  -2  510.13   32.95
  -1   9  -2  513.93   40.04
  -1   9  -2  524.53   33.59
  -1   9  -2  460.92   32.69
  -1   9  -2  547.51   33.06
   1  -9   2  451.77   38.63
  -1   9  -3  161.70   11.24
  -1   9  -3  171.29   17.83
   1  -9   3  153.79   15.87
  -1   9  -3  149.38   11.68
  -1   9  -3  131.71   10.92
  -1   9  -3  181.39   11.42
  -1   9  -4   21.21    6.09
  -1   9  -4   19.29    2.75
  -1   9  -4   16.29    2.72
  -1   9  -4   14.23    2.50
  -1   9  -4   18.97    3.06
  -1   9  -4   26.76    3.69
  -1   9  -4   25.76    3.03
  -1   9  -5   57.17    9.28
  -1   9  -5   53.50    5.36
  -1   9  -5   66.20    5.94
  -1   9  -5   65.65    5.44
  -1   9  -5   60.65    9.98
  -1   9  -5   60.18    5.29
  -1   9  -5   53.19    5.96
  -1   9  -5   59.37    5.78
  -1   9  -5   66.33    5.42
  -1   9  -6  107.07    8.80
  -1   9  -6  103.31    8.08
  -1   9  -6   92.03    8.62
  -1   9  -6  108.74    8.42
  -1   9  -6  124.52    9.01
  -1   9  -6   93.34   12.71
  -1   9  -7  202.00   15.25
  -1   9  -7  206.98   14.58
  -1   9  -7  219.86   14.97
  -1   9  -7  221.74   15.44
  -1   9  -7  163.86   19.39
  -1   9  -8    1.17    1.75
  -1   9  -8    1.41    2.33
  -1   9  -8    1.17    1.85
  -1   9  -8    0.70    2.47
  -1   9  -8    1.71    1.53
  -1   9  -9  181.75   13.21
  -1   9  -9  166.05   12.25
  -1   9  -9  171.81   13.14
  -1   9  -9  175.46   12.72
  -1   9  -9  170.56   12.16
  -1   9 -10  142.61   11.46
  -1   9 -10  151.62   11.12
  -1   9 -10  131.50   11.26
  -1   9 -10  153.84   10.58
  -1   9 -11   16.88    3.28
  -1   9 -11   15.59    2.86
  -1   9 -11   12.91    2.27
  -1   9 -12    6.39    2.29
  -1   9 -12   10.81    2.42
  -1   9 -13   46.05    4.39
  -1   9 -14   54.58    4.55
  -1   8  10   26.84    2.69
  -1   8  10   24.27    2.57
  -1   8   9    9.98    1.89
  -1   8   9   10.97    1.96
  -1   8   9   10.11    2.07
  -1   8   8   25.64    3.12
  -1   8   8   25.23    3.18
  -1   8   7  122.60    9.53
  -1   8   7  128.75    9.34
  -1   8   6  284.71   19.87
  -1   8   6  295.96   19.60
  -1   8   5   56.21    5.56
  -1   8   5   58.23    5.25
  -1   8   4  147.58   10.58
  -1   8   4  152.61   10.73
  -1   8   4  145.89   10.31
  -1   8   4   98.93   14.40
   1  -8  -4  104.38   15.45
  -1   8   3    1.43    1.79
  -1   8   3    0.73    1.92
  -1   8   3   -1.29    3.47
  -1   8   3    0.75    1.73
   1  -8  -3    1.58    3.77
  -1   8   2  223.31   15.11
  -1   8   2  217.27   15.10
  -1   8   2  233.30   21.11
   1  -8  -2  171.01   20.36
  -1   8   1  143.94   10.11
  -1   8   1  135.75   10.00
  -1   8   1  128.98   14.63
   1  -8  -1  122.21   15.15
  -1   8   0  320.49   26.34
  -1   8   0  306.64   20.97
  -1   8   0  318.57   26.95
  -1   8   0  312.43   21.00
  -1   8   0  329.92   21.18
  -1   8  -1  591.72   41.89
  -1   8  -1  606.88   36.72
  -1   8  -1  582.19   36.64
  -1   8  -1  634.43   43.53
  -1   8  -1  552.67   37.10
  -1   8  -1  506.75   36.36
  -1   8  -1  582.26   36.66
  -1   8  -2    8.56    4.15
  -1   8  -2    9.46    1.94
   1  -8   2    9.00    3.96
  -1   8  -2    7.26    1.78
  -1   8  -2    9.99    2.28
  -1   8  -2    7.63    1.72
  -1   8  -2    9.96    1.93
  -1   8  -3    8.64    3.87
  -1   8  -3    8.36    1.80
  -1   8  -3    1.03    2.67
  -1   8  -3    7.24    1.82
  -1   8  -3    5.25    2.27
  -1   8  -3    7.91    1.74
  -1   8  -3    7.48    1.95
  -1   8  -3    9.67    1.90
  -1   8  -4    4.99    3.89
  -1   8  -4    1.61    1.42
   1  -8   4    7.42    3.02
  -1   8  -4    2.75    1.50
  -1   8  -4    2.27    1.75
  -1   8  -4    5.67    1.67
  -1   8  -4    5.16    1.55
  -1   8  -4    1.84    1.69
  -1   8  -4    2.82    1.86
  -1   8  -4    2.15    2.90
  -1   8  -5   61.23    5.55
  -1   8  -5   76.45    6.12
  -1   8  -5   66.30    9.81
  -1   8  -5   63.48    5.83
  -1   8  -5   62.21    5.91
  -1   8  -5   61.76    5.31
  -1   8  -5   76.95    9.89
  -1   8  -6  218.40   15.01
  -1   8  -6  211.50   15.79
  -1   8  -6  224.91   15.42
  -1   8  -6  232.07   15.85
  -1   8  -6  225.71   15.78
  -1   8  -6  217.78   15.09
  -1   8  -6  208.33   20.41
  -1   8  -7   20.24    5.20
  -1   8  -7   16.41    3.29
  -1   8  -7   14.37    2.96
  -1   8  -7   20.56    2.81
  -1   8  -7   18.18    3.20
  -1   8  -7   13.27    2.33
  -1   8  -7   17.25    2.35
  -1   8  -8   12.19    4.75
  -1   8  -8    5.84    2.88
  -1   8  -8    7.21    1.94
  -1   8  -8    6.78    2.65
  -1   8  -8    7.00    1.79
  -1   8  -8   12.52    3.05
  -1   8  -8    6.74    2.39
  -1   8  -9   29.92    4.54
  -1   8  -9   28.45    4.00
  -1   8  -9   30.01    3.71
  -1   8  -9   21.83    2.90
  -1   8  -9   26.69    3.13
  -1   8  -9   22.26    3.86
  -1   8 -10    4.24    2.16
  -1   8 -10    4.47    2.61
  -1   8 -10    2.96    1.56
  -1   8 -10    2.88    2.60
  -1   8 -11    1.80    2.12
  -1   8 -11    3.94    1.61
  -1   8 -11    1.38    2.11
  -1   8 -12   71.55    6.42
  -1   8 -13    1.49    1.71
  -1   8 -14  124.33    9.08
  -1   7  11   23.71    2.60
   1  -7 -11   28.31    2.73
  -1   7  10   48.77    4.07
  -1   7  10   42.70    4.10
   1  -7 -10   43.56    4.22
  -1   7   9    9.17    2.27
   1  -7  -9   10.27    2.29
  -1   7   8  396.42   26.15
  -1   7   7   53.94    5.47
  -1   7   7   65.50    5.54
  -1   7   6  117.02    8.34
   1  -7  -6   89.82   13.78
  -1   7   6  104.19    8.42
   1  -7  -6   74.60   12.61
  -1   7   5  145.99    9.61
  -1   7   5   99.44   13.68
   1  -7  -5   94.44   14.31
  -1   7   5  128.12    9.74
   1  -7  -5  110.62   15.12
  -1   7   4    9.90    4.65
  -1   7   4   14.34    2.44
   1  -7  -4    9.05    4.95
  -1   7   4   13.72    2.62
  -1   7   4    9.06    2.22
  -1   7   3    6.46    1.91
  -1   7   3    3.45    3.29
   1  -7  -3    4.21    3.59
  -1   7   3    4.45    1.78
  -1   7   2    2.15    3.65
  -1   7   2    7.23    1.83
   1  -7  -2    7.80    4.08
  -1   7   2   11.86    2.09
  -1   7   1  235.42   20.60
   1  -7  -1  216.30   21.11
  -1   7   1  239.09   15.85
  -1   7   1  217.75   20.14
   1  -7   0    5.46    3.41
  -1   7   0    3.05    1.39
  -1   7   0    4.15    1.34
  -1   7   0    4.08    3.45
  -1   7   0    5.22    1.42
  -1   7   0    4.59    3.10
  -1   7  -1  110.74   12.07
  -1   7  -1   96.43   10.97
  -1   7  -2   31.24    5.45
  -1   7  -2   24.83    5.66
  -1   7  -2   32.18    5.70
   1  -7   2   16.90    4.89
  -1   7  -3    2.22    1.15
  -1   7  -3    1.05    2.83
   1  -7   3   -0.89    2.11
  -1   7  -3    3.45    2.57
  -1   7  -3    0.24    1.47
  -1   7  -3    1.05    1.07
  -1   7  -3   -1.21    1.20
  -1   7  -4   98.85    6.83
  -1   7  -4  100.93   10.76
  -1   7  -4   98.84   11.44
   1  -7   4   91.29   10.23
  -1   7  -4   93.85    7.16
  -1   7  -4   85.65    6.83
  -1   7  -4   84.56    7.15
  -1   7  -4   98.74    7.24
  -1   7  -4   80.96    6.54
  -1   7  -4   84.52    6.49
  -1   7  -4   93.15    6.77
  -1   7  -5   44.87    4.54
  -1   7  -5   43.70    7.16
  -1   7  -5   47.80    4.19
  -1   7  -5   41.04    4.31
  -1   7  -5   44.54    4.39
  -1   7  -5   45.26    4.40
  -1   7  -5   43.06    3.83
  -1   7  -5   41.28    3.71
  -1   7  -6  485.02   32.31
  -1   7  -6  519.97   33.28
   1  -7   6  520.97   37.22
  -1   7  -6  476.83   32.96
  -1   7  -6  513.10   32.77
  -1   7  -6  487.12   32.38
  -1   7  -6  535.99   33.14
  -1   7  -6  527.92   37.93
  -1   7  -7   72.61    6.72
   1  -7   7   61.95    8.92
  -1   7  -7   57.27    8.99
  -1   7  -7   57.19    6.02
  -1   7  -7   72.84    5.95
  -1   7  -7   73.66    5.62
  -1   7  -7   67.28    6.18
  -1   7  -7   73.90    5.53
  -1   7  -8   34.21    4.69
   1  -7   8   24.50    6.00
  -1   7  -8   34.50    6.92
  -1   7  -8   36.87    3.96
  -1   7  -8   35.65    4.40
  -1   7  -8   34.84    3.60
  -1   7  -8   41.60    4.44
  -1   7  -8   35.54    3.44
  -1   7  -9   71.23    7.48
   1  -7   9   85.98   10.95
  -1   7  -9   68.36    6.87
  -1   7  -9   90.95    6.92
  -1   7  -9   88.58    6.30
  -1   7  -9   66.04    6.82
  -1   7  -9   71.05   10.75
  -1   7 -10  179.55   14.18
  -1   7 -10  168.50   13.52
  -1   7 -10  194.88   13.47
  -1   7 -10  183.54   12.72
  -1   7 -11   72.02    6.45
  -1   7 -11   64.85    7.12
  -1   7 -11   70.46    5.74
  -1   7 -12  263.78   18.39
  -1   7 -13  122.06    9.39
   1  -7  14   43.14    4.29
  -1   7 -14   55.99    4.66
  -1   7 -15   20.40    2.32
   1  -6 -12  108.86    7.25
  -1   6  12   89.30    6.93
   1  -6 -11   38.14    3.84
  -1   6  10    8.49    2.14
   1  -6 -10    5.33    2.09
  -1   6   9   47.37    4.54
   1  -6  -9   44.04    4.76
  -1   6   8  292.83   19.32
   1  -6  -8  275.54   19.74
   1  -6  -7 1006.39   61.28
  -1   6   7  900.82   60.81
  -1   6   7 1013.86   60.80
  -1   6   7  939.60   68.45
   1  -6  -6    4.78    3.80
  -1   6   6    5.34    2.09
  -1   6   6    2.67    4.00
  -1   6   6    6.05    2.20
   1  -6  -6    6.10    3.89
   1  -6  -5  183.06   20.68
  -1   6   5  218.74   15.27
  -1   6   5  181.66   19.53
  -1   6   5  225.14   20.81
  -1   6   5  242.16   15.16
   1  -6  -5  184.83   20.77
   1  -6  -4   47.86    8.08
  -1   6   4   47.55    4.26
  -1   6   4   56.51    8.92
  -1   6   4   49.41    4.37
   1  -6  -4   34.12    7.40
   1  -6  -3   66.50    9.93
   1  -6  -3   79.41   10.94
  -1   6   3   86.50    6.38
  -1   6   3   86.33   10.44
  -1   6   3   80.05    6.15
   1  -6  -2    3.29    3.28
  -1   6   2    4.55    3.39
  -1   6   2    4.39    1.55
   1  -6  -1  662.31   44.05
  -1   6   1  643.41   42.89
  -1   6   1  571.67   37.90
  -1   6   1  693.36   43.30
   1  -6   0  282.05   24.53
  -1   6   0  302.06   24.58
  -1   6   0  359.38   24.82
  -1   6  -1   19.53    4.25
  -1   6  -1   15.24    4.36
  -1   6  -1   16.88    4.30
  -1   6  -2  138.15   12.54
   1  -6   2  113.11   12.66
  -1   6  -2  155.55   13.00
  -1   6  -2  154.26   13.96
   1  -6   3  146.08   13.54
  -1   6  -3  149.77   14.34
  -1   6  -3  158.66   13.81
   1  -6   4  830.96   54.90
  -1   6  -4  782.73   51.84
  -1   6  -4  867.09   55.54
  -1   6  -4  840.48   56.32
  -1   6  -5   15.20    4.03
  -1   6  -5   11.84    2.47
   1  -6   5   16.42    3.79
  -1   6  -6 1930.57  130.04
   1  -6   6 2240.66  135.09
  -1   6  -6 2199.94  131.09
  -1   6  -6 1876.55  130.65
  -1   6  -6 2217.83  130.60
  -1   6  -6 2094.36  130.79
  -1   6  -6 2129.64  130.21
  -1   6  -6 2285.33  135.58
  -1   6  -7  215.34   14.67
  -1   6  -7  236.40   15.85
   1  -6   7  231.82   19.30
  -1   6  -7  192.36   15.28
  -1   6  -7  233.00   15.23
  -1   6  -7  225.21   14.83
  -1   6  -7  211.92   15.40
  -1   6  -7  253.52   20.12
  -1   6  -8   73.80    7.11
   1  -6   8   84.45   10.21
  -1   6  -8   63.42    9.43
  -1   6  -8   65.49    6.38
  -1   6  -8   95.17    6.50
  -1   6  -8   66.21    6.33
  -1   6  -8   75.41    5.73
  -1   6  -9   30.69    4.63
   1  -6   9   35.58    6.80
  -1   6  -9   24.81    5.99
  -1   6  -9   41.75    4.14
  -1   6  -9   31.92    4.06
  -1   6  -9   36.18    3.38
  -1   6 -10  633.36   43.33
  -1   6 -10  728.34   42.77
   1  -6  10  535.34   47.27
  -1   6 -10  650.11   41.93
  -1   6 -10  569.23   48.07
  -1   6 -11  510.43   33.29
  -1   6 -11  447.92   34.46
  -1   6 -12   23.54    3.33
   1  -6  12   13.57    2.97
  -1   6 -13  444.20   28.05
   1  -6  13  397.08   27.74
  -1   6 -14   68.52    5.46
  -1   6 -14   52.60    5.12
   1  -6  14   59.49    5.30
  -1   6 -15   12.01    1.86
   1  -6  15    9.13    1.72
   1  -5 -13  102.40    7.67
   1  -5 -13  134.51    8.21
   1  -5 -12    3.71    1.67
   1  -5 -12    3.02    1.67
   1  -5 -11   15.86    2.95
   1  -5 -11   21.33    3.12
   1  -5 -10   13.98    2.85
   1  -5 -10   10.03    2.75
  -1   5  10   12.18    2.48
   1  -5  -9   51.65    5.18
  -1   5   9   49.06    4.75
   1  -5  -9   45.46    5.16
   1  -5  -8   20.11    3.11
  -1   5   8   13.77    5.77
  -1   5   8   14.54    2.88
   1  -5  -8   22.73    6.57
   1  -5  -8   13.48    5.56
  -1   5   7  721.70   44.15
  -1   5   7  753.87   52.28
   1  -5  -7  555.41   50.84
   1  -5  -7  543.64   50.48
  -1   5   6   75.15    5.79
  -1   5   6   70.85   10.22
   1  -5  -6   61.61   10.35
   1  -5  -6   58.93    9.80
   1  -5  -6   59.23    9.84
  -1   5   5   23.43    2.76
  -1   5   5   25.47    5.90
  -1   5   5   18.39    5.31
   1  -5  -5   23.63    5.88
   1  -5  -5   23.20    5.89
  -1   5   4   58.73    4.63
  -1   5   4   60.28    8.28
  -1   5   4   65.96    8.78
   1  -5  -4   41.09    7.83
   1  -5  -4   44.27    7.86
  -1   5   3  705.10   45.49
  -1   5   3  610.08   40.33
  -1   5   3  686.71   45.00
   1  -5  -3  634.45   45.39
   1  -5  -3  685.84   46.35
  -1   5   2  587.50   39.67
  -1   5   2  781.11   44.29
  -1   5   2  727.88   44.51
   1  -5  -2  616.26   44.05
   1  -5  -2  686.36   45.27
   1  -5  -1  267.80   23.22
  -1   5   1  337.62   23.34
  -1   5   1  295.85   22.90
   1  -5   0  404.59   30.00
  -1   5   0  404.37   29.72
  -1   5   0  414.32   29.41
   1  -5   1  224.69   19.23
  -1   5  -1  258.46   20.01
  -1   5  -1  251.94   18.99
  -1   5  -1  277.24   19.55
  -1   5  -2  146.21   13.31
  -1   5  -2  135.37   12.20
   1  -5   2  167.24   13.23
  -1   5  -3  782.20   52.07
  -1   5  -3  759.31   52.96
   1  -5   3  775.97   52.13
   1  -5   3  784.98   51.94
   1  -5   4  228.51   16.65
  -1   5  -4  216.19   14.42
  -1   5  -4  207.74   16.83
  -1   5  -4  195.99   17.27
  -1   5  -4  190.45   17.74
   1  -5   5 2201.13  134.41
  -1   5  -5 2030.69  131.95
  -1   5  -5 2182.45  135.28
  -1   5  -6   27.63    5.08
  -1   5  -6   24.76    3.22
   1  -5   6   15.99    4.01
  -1   5  -7   85.63    6.29
  -1   5  -7   86.92    7.35
   1  -5   7   97.87   10.16
  -1   5  -7   74.41    6.87
  -1   5  -7  100.25    6.90
  -1   5  -7   84.96    7.10
  -1   5  -7   86.94    6.96
  -1   5  -7   88.81    6.42
  -1   5  -7  103.13   10.71
  -1   5  -8    3.23    2.21
   1  -5   8    1.90    2.44
  -1   5  -8    5.57    1.62
  -1   5  -8    4.66    2.05
  -1   5  -8    5.32    1.22
  -1   5  -9  163.13   12.79
   1  -5   9  148.07   15.85
  -1   5  -9  172.03   12.11
  -1   5  -9  167.63   11.49
  -1   5  -9  175.37   17.05
  -1   5 -10   23.11    3.21
  -1   5 -10   16.75    5.45
   1  -5  10   15.70    5.01
  -1   5 -10   18.34    3.81
   1  -5  11  106.71    9.34
  -1   5 -11  136.40    9.67
   1  -5  12    6.11    2.62
  -1   5 -12    2.76    2.22
   1  -5  13   43.71    5.00
  -1   5 -13   51.53    5.02
   1  -5  14    7.08    2.18
  -1   5 -14    2.45    1.73
   1  -5  15    2.70    1.50
  -1   5 -15    2.01    1.27
  -1   5 -15    2.81    1.35
   1  -4 -13   44.64    4.05
   1  -4 -13   42.41    3.61
   1  -4 -12   41.87    4.25
   1  -4 -12   35.22    4.24
   1  -4 -11  208.18   14.21
   1  -4 -11  178.97   14.15
   1  -4 -10   62.43    6.01
   1  -4 -10   55.93    5.96
   1  -4  -9    1.90    2.13
   1  -4  -9   -1.75    4.74
  -1   4   9    0.21    2.05
  -1   4   9   -1.60    4.07
   1  -4  -9   -1.77    3.57
   1  -4  -9    0.34    2.44
   1  -4  -8  345.26   23.21
  -1   4   8  363.55   22.70
  -1   4   8  331.82   29.89
   1  -4  -8  351.13   23.39
   1  -4  -8  256.28   28.59
   1  -4  -8  246.38   28.31
  -1   4   7   79.93   11.03
  -1   4   7   70.10    5.52
   1  -4  -7   49.03    9.26
   1  -4  -7   64.22    5.93
   1  -4  -7   53.95    9.58
  -1   4   6  264.88   17.05
  -1   4   6  279.96   23.21
   1  -4  -6  271.76   17.54
   1  -4  -6  213.31   22.15
   1  -4  -6  192.57   21.43
   1  -4  -6  214.01   21.60
  -1   4   5  434.36   29.73
  -1   4   5  446.99   30.62
   1  -4  -5  332.25   29.42
   1  -4  -5  346.20   29.40
   1  -4  -5  348.58   29.35
  -1   4   4  198.99   13.40
  -1   4   4  219.37   17.58
   1  -4  -4  189.01   17.59
   1  -4  -4  172.08   17.06
   1  -4  -4  203.86   17.91
  -1   4   3  635.31   39.34
  -1   4   3  531.42   34.98
  -1   4   3  630.15   39.38
   1  -4  -3  577.50   39.45
   1  -4  -3  509.44   39.19
   1  -4  -3  540.60   38.63
   1  -4  -2   77.13    8.47
  -1   4   2   80.20    8.49
  -1   4   2   75.19    8.23
  -1   4   2   82.45    8.05
   1  -4  -2   73.76    8.71
   1  -4  -1  540.24   36.29
   1  -4  -1  528.72   36.85
  -1   4   1  545.62   35.96
  -1   4   1  498.07   35.91
  -1   4   1  517.26   36.17
  -1   4   1  522.49   36.21
   1  -4   0    5.44    2.70
  -1   4   0    2.35    1.89
  -1   4   0    7.44    2.29
  -1   4   0    6.61    2.67
  -1   4   0    6.24    2.86
   1  -4   1    1.85    1.83
  -1   4  -1    4.63    2.03
  -1   4  -1    4.60    2.30
  -1   4  -1    4.09    1.89
  -1   4  -1    3.65    2.31
   1  -4   1    2.69    1.60
   1  -4   2  376.05   26.33
  -1   4  -2  378.58   26.15
  -1   4  -2  361.95   25.96
  -1   4  -2  390.61   27.04
  -1   4  -3 1163.70   70.47
  -1   4  -3 1038.99   70.87
   1  -4   3 1108.32   70.29
   1  -4   3 1101.28   70.16
  -1   4  -3  960.15   71.01
  -1   4  -4   11.15    2.96
  -1   4  -4    5.50    2.43
   1  -4   4    7.64    2.34
   1  -4   5  493.64   33.20
   1  -4   5  481.19   33.73
  -1   4  -5  480.33   31.39
   1  -4   6   47.44    5.60
   1  -4   6   44.56    5.79
  -1   4  -6   35.86    3.91
   1  -4   7   -0.75    2.03
  -1   4  -7    1.28    1.77
  -1   4  -8   47.67    4.54
   1  -4   8   38.75    6.47
  -1   4  -8   40.47    3.79
  -1   4  -8   38.50    4.61
  -1   4  -9  145.23   11.45
  -1   4  -9  159.55   10.84
  -1   4  -9  142.74   11.56
   1  -4   9  142.94   14.97
   1  -4  10  236.66   22.04
  -1   4 -10  260.29   22.94
  -1   4 -10  250.69   17.16
   1  -4  11   27.84    3.81
  -1   4 -11   26.17    3.05
  -1   4 -12    3.04    2.10
   1  -4  12    2.04    2.39
  -1   4 -12   -0.84    1.34
   1  -4  13    1.09    2.43
  -1   4 -13    4.02    2.08
   1  -4  14   14.64    2.77
  -1   4 -14   17.08    2.70
   1  -4  15   20.69    2.58
   1  -3 -14   20.14    2.35
   1  -3 -14   21.93    2.17
   1  -3 -13    8.34    1.97
   1  -3 -13    4.34    1.94
   1  -3 -13    7.71    1.58
   1  -3 -12   91.07    7.56
   1  -3 -12   89.00    7.81
   1  -3 -11   49.30    5.16
   1  -3 -11   43.70    5.31
   1  -3 -10   88.73    7.54
   1  -3 -10   84.23    7.81
   1  -3  -9   98.42    7.91
  -1   3   9   85.34   13.07
   1  -3  -9   82.57   12.74
   1  -3  -9   94.49    8.07
  -1   3   9   83.43   11.26
   1  -3  -9  108.96   14.23
  -1   3   8  135.31   14.98
   1  -3  -8  112.43    8.91
   1  -3  -8   97.27   13.35
   1  -3  -8  107.50   13.94
  -1   3   8  106.65   12.37
   1  -3  -7  137.02   10.06
   1  -3  -7  116.67   14.31
  -1   3   7  136.20   13.51
   1  -3  -7  109.35   14.16
  -1   3   6  513.32   33.92
   1  -3  -6  417.15   27.76
   1  -3  -6  426.82   32.91
   1  -3  -6  408.72   32.75
   1  -3  -6  388.28   31.63
  -1   3   6  421.62   31.11
  -1   3   5  754.58   47.35
   1  -3  -5  649.17   42.23
   1  -3  -5  663.71   46.81
   1  -3  -5  637.17   46.59
  -1   3   5  670.69   45.34
   1  -3  -5  622.76   46.06
  -1   3   4  288.98   22.22
  -1   3   4  297.66   21.66
   1  -3  -4  281.88   22.14
  -1   3   4  301.99   21.42
   1  -3  -4  264.32   21.89
   1  -3  -4  254.25   21.75
  -1   3   3 2025.34  133.46
  -1   3   3 2063.96  133.16
   1  -3  -3 2062.48  133.68
   1  -3  -3 2085.12  133.52
   1  -3  -3 2158.47  133.98
   1  -3  -2  166.96   12.47
  -1   3   2  146.92   12.08
  -1   3   2  142.69   11.99
  -1   3   2  132.50   11.40
   1  -3  -2  141.56   11.78
   1  -3  -2  145.76   12.43
  -1   3   1   50.86    5.22
  -1   3   1   47.81    5.10
  -1   3   1   46.27    5.19
  -1   3   1   39.73    4.34
   1  -3  -1   37.68    4.80
   1  -3  -1   36.46    4.43
   1  -3  -1   43.09    5.35
   1  -3   0  956.64   59.52
   1  -3   0  916.78   60.20
  -1   3   0  881.63   59.73
  -1   3   0 1048.55   60.06
  -1   3   0  844.52   59.03
   1  -3   1   14.65    2.55
  -1   3  -1   14.36    2.52
  -1   3  -1   19.12    2.99
  -1   3  -1   15.44    2.68
   1  -3   1   11.71    2.48
   1  -3   1   16.07    2.93
   1  -3   2   15.23    2.46
   1  -3   2    9.77    2.04
  -1   3  -2    9.38    2.19
  -1   3  -2    5.80    2.27
  -1   3  -2   10.74    2.40
   1  -3   2    8.41    2.13
   1  -3   3 3889.78  236.59
   1  -3   3 3816.60  236.52
  -1   3  -3 3212.48  237.08
   1  -3   3 3927.07  236.34
  -1   3  -3 3891.97  237.23
  -1   3  -3 3695.21  237.84
   1  -3   4  159.14   11.72
  -1   3  -4  134.82   12.98
   1  -3   5  157.07   12.53
   1  -3   5  158.40   12.18
  -1   3  -5  136.56   14.09
  -1   3  -6  122.53    8.87
   1  -3   6  133.72   10.69
   1  -3   6  131.17   11.09
  -1   3  -7  115.35    8.63
  -1   3  -7   95.09   12.86
   1  -3   7  116.95   11.04
   1  -3   8  349.84   25.36
  -1   3  -8  318.90   21.77
  -1   3  -8  317.63   21.74
  -1   3  -8  321.39   21.09
  -1   3  -8  282.41   28.30
   1  -3   9    9.74    3.53
  -1   3  -9    5.95    2.14
  -1   3  -9    4.84    1.71
  -1   3 -10  374.53   26.09
   1  -3  10  391.08   25.58
   1  -3  10  375.11   30.47
  -1   3 -10  379.43   25.26
   1  -3  11  188.23   13.13
  -1   3 -11  171.70   12.68
   1  -3  11  167.51   17.53
  -1   3 -12    3.19    1.54
   1  -3  12    2.88    2.44
  -1   3 -13   16.96    2.35
   1  -3  13   14.22    3.18
   1  -3  14  258.00   17.63
   1  -3  15   79.36    6.13
   1  -2 -14   21.75    3.01
   1  -2 -14   25.55    2.51
   1  -2 -13    2.03    1.75
   1  -2 -13   -0.31    1.94
   1  -2 -13    1.42    1.42
   1  -2 -12   82.17    6.96
   1  -2 -12   77.12    7.21
   1  -2 -11   13.66    2.89
   1  -2 -11   10.36    3.16
   1  -2 -10   95.61    7.27
   1  -2 -10   46.51   10.30
  -1   2  10   58.86    9.69
  -1   2  10   87.58   12.81
  -1   2  10   91.39   14.21
   1  -2 -10   43.24   11.55
   1  -2 -10   83.53   12.56
   1  -2 -10   89.74    7.55
   1  -2  -9  284.15   17.18
   1  -2  -9  180.41   21.55
   1  -2  -9  246.74   17.17
  -1   2   9  210.99   20.91
   1  -2  -9  219.95   23.11
  -1   2   9  200.20   23.48
   1  -2  -9  174.80   23.60
  -1   2   9  265.02   24.02
   1  -2  -8    6.45    2.23
   1  -2  -8    5.24    3.91
   1  -2  -8    1.36    3.00
  -1   2   8    6.70    3.11
   1  -2  -8   -1.78    3.94
  -1   2   8    8.99    5.05
  -1   2   8   15.48    5.81
   1  -2  -7  153.05   11.28
   1  -2  -7  129.04   15.04
   1  -2  -7  149.52   15.72
  -1   2   7  187.38   14.97
   1  -2  -7  115.30   16.16
  -1   2   7  194.97   16.97
  -1   2   7  176.67   17.13
   1  -2  -6  267.56   21.27
   1  -2  -6  247.78   16.72
  -1   2   6  284.40   20.03
   1  -2  -6  240.65   19.88
   1  -2  -6  220.50   20.69
  -1   2   6  214.46   21.10
  -1   2   6  241.12   20.81
   1  -2  -5  759.13   52.03
   1  -2  -5  760.53   52.16
   1  -2  -5  705.23   51.15
  -1   2   5  750.85   50.79
  -1   2   5  792.15   52.74
  -1   2   5  786.40   52.33
   1  -2  -4   20.50    4.17
  -1   2   4   19.49    3.45
   1  -2  -4   15.61    3.92
   1  -2  -4   16.61    3.50
  -1   2   4   15.97    4.00
  -1   2   4   13.45    4.17
  -1   2   4   16.70    3.54
   1  -2  -3 9999.00  572.29
  -1   2   3 9042.55  571.47
  -1   2   3 9238.47  571.56
   1  -2  -3 9057.43  572.04
   1  -2  -3 9743.14  572.33
  -1   2   3 9281.02  572.09
  -1   2   3 8922.92  572.16
  -1   2   3 8116.10  571.25
  -1   2   2 1590.57  111.01
   1  -2  -2 1836.26  112.39
   1  -2  -2 2021.52  112.81
  -1   2   2 1731.76  111.86
   1  -2  -2 1962.75  112.35
  -1   2   2 1773.15  111.61
  -1   2   2 1786.49  111.96
  -1   2   2 1752.23  111.94
  -1   2   2 1765.90  112.33
   1  -2  -2 1581.80  112.20
   1  -2  -1    2.61    1.44
  -1   2   1    4.90    1.52
   1  -2  -1    7.50    2.13
  -1   2   1    3.64    1.02
   1  -2  -1    2.72    1.59
  -1   2   1    1.64    1.31
  -1   2   1    4.61    1.26
  -1   2   1    4.57    2.05
   1  -2  -1    2.53    1.50
  -1   2   1    7.15    1.89
  -1   2   1    6.92    1.96
   1  -2   0  257.87   19.86
   1  -2   0  340.42   21.07
  -1   2   0  287.83   20.38
   1  -2   0  361.45   21.06
   1  -2   0  274.81   19.76
  -1   2   0  326.20   21.03
  -1   2   0  365.09   20.93
  -1   2   0  323.39   20.45
   1  -2   0  329.27   20.36
  -1   2   0  311.69   20.93
  -1   2   0  310.19   20.11
   1  -2   1 1475.69   98.05
  -1   2  -1 1607.30   98.68
   1  -2   1 1581.40   98.29
  -1   2  -1 1540.60   97.87
   1  -2   1 1572.46   97.86
  -1   2  -1 1538.11   98.41
   1  -2   2 7664.03  460.98
  -1   2  -2 7454.41  461.37
   1  -2   2 7408.88  460.89
  -1   2  -2 7716.89  461.53
  -1   2  -2 6993.34  461.65
   1  -2   2 6920.99  461.19
   1  -2   2 7349.89  460.81
   1  -2   3   56.72    4.81
   1  -2   3   46.17    4.45
  -1   2  -3   45.75    5.37
  -1   2  -3   48.37    5.79
   1  -2   3   47.20    5.64
   1  -2   3   50.64    4.67
  -1   2  -4  610.04   42.49
   1  -2   4  649.08   41.03
   1  -2   4  613.01   41.22
  -1   2  -4  602.87   43.08
   1  -2   4  585.99   42.63
   1  -2   4  644.33   41.19
   1  -2   5   39.94    6.69
  -1   2  -5   36.70    6.31
   1  -2   5   49.48    5.13
   1  -2   5   40.98    4.99
  -1   2  -6  371.24   24.89
   1  -2   6  411.18   30.35
  -1   2  -6  349.53   29.91
   1  -2   6  399.38   27.35
   1  -2   6  391.85   26.86
  -1   2  -7   52.28    9.21
   1  -2   7   57.97    9.31
   1  -2   7   60.03    7.06
  -1   2  -8  326.55   21.26
   1  -2   8  339.08   25.14
  -1   2  -8  317.20   21.87
   1  -2   8  305.38   28.75
  -1   2  -8  327.42   29.66
  -1   2  -9  586.02   39.83
   1  -2   9  651.05   44.14
   1  -2   9  581.84   48.52
   1  -2   9  618.71   39.45
   1  -2  10   27.34    5.82
   1  -2  10   21.11    3.18
   1  -2  10   30.58    9.10
  -1   2 -10   18.84    6.93
   1  -2  11   36.66    4.29
   1  -2  12   32.66    4.13
   1  -2  13  285.24   19.68
  -1   2 -13  289.79   19.28
   1  -2  14    7.63    2.13
  -1   2 -14    7.67    1.59
   1  -2  15  115.87    8.30
   1  -1 -15   47.25    4.01
   1  -1 -15   57.87    4.10
   1  -1 -14   34.81    3.17
   1  -1 -14   29.70    3.71
   1  -1 -13   20.38    2.64
   1  -1 -13   23.07    3.48
   1  -1 -12   65.73    6.53
   1  -1 -12   68.07    6.16
   1  -1 -11  350.78   22.79
   1  -1 -11  317.69   23.51
   1  -1 -11  347.93   23.28
  -1   1  10   52.42    8.73
   1  -1 -10   47.40   11.26
   1  -1 -10   64.98    5.41
  -1   1  10   66.77   12.23
   1  -1 -10   60.29    6.18
   1  -1 -10   67.45    5.85
   1  -1  -9  154.28   17.76
  -1   1   9  156.35   15.91
  -1   1   9  143.08   18.55
   1  -1  -9  173.86   11.80
   1  -1  -9  111.83   18.26
  -1   1   9  183.86   18.48
   1  -1  -9  169.98   12.53
   1  -1  -9  152.64   17.33
   1  -1  -9  182.52   12.35
   1  -1  -8  132.25   14.51
  -1   1   8  148.60   13.29
   1  -1  -8  128.38    9.65
   1  -1  -8  113.02   13.54
   1  -1  -8  125.27    8.88
   1  -1  -8   92.10   14.48
  -1   1   8  117.00   15.20
  -1   1   8  134.27   14.47
   1  -1  -7  592.44   44.10
  -1   1   7  667.23   42.90
   1  -1  -7  587.98   39.23
   1  -1  -7  614.28   43.89
  -1   1   7  712.72   46.70
   1  -1  -7  511.63   45.42
  -1   1   7  629.38   44.37
   1  -1  -6  783.93   54.83
  -1   1   6  824.66   53.67
   1  -1  -6  770.56   54.48
   1  -1  -6  800.16   50.75
  -1   1   6  846.60   56.40
   1  -1  -6  672.45   55.91
  -1   1   6  828.96   55.18
   1  -1  -5  722.24   50.10
   1  -1  -5  765.55   49.18
  -1   1   5  780.26   49.08
   1  -1  -5  749.81   49.92
  -1   1   5  715.56   50.66
  -1   1   5  642.73   49.56
   1  -1  -4 2946.11  186.48
  -1   1   4 2939.15  185.56
   1  -1  -4 3084.38  186.01
   1  -1  -4 3070.70  186.47
  -1   1   4 2804.70  186.97
  -1   1   4 2723.86  186.24
   1  -1  -3 2241.12  135.48
   1  -1  -3 2289.28  135.25
  -1   1   3 2256.95  134.86
   1  -1  -3 2350.00  135.54
  -1   1   3 2119.93  134.30
   1  -1  -3 1994.95  136.04
  -1   1   3 1961.22  135.47
  -1   1   3 2079.28  135.39
  -1   1   3 1925.24  134.33
   1  -1  -2  283.83   18.35
   1  -1  -2  271.82   18.21
  -1   1   2  280.32   18.29
  -1   1   2  256.12   17.87
  -1   1   2  239.38   17.22
  -1   1   2  250.48   17.67
   1  -1  -2  253.98   18.09
   1  -1  -2  244.47   18.52
  -1   1   2  240.98   18.26
  -1   1   2  276.21   18.39
  -1   1   2  297.22   17.85
   1  -1  -1 1120.19   69.68
   1  -1  -1 1080.47   69.31
  -1   1   1 1098.69   69.63
   1  -1  -1 1067.74   69.38
  -1   1   1 1177.09   69.77
  -1   1   1 1124.33   69.29
   1  -1  -1 1092.55   69.73
  -1   1   1 1137.87   69.56
   1  -1  -1 1130.39   69.47
  -1   1   1  985.30   69.01
  -1   1   0  276.17   18.59
  -1   1   0  281.54   17.98
   1  -1   0  277.41   18.38
   1  -1   0  264.57   18.27
   1  -1   0  293.19   18.42
  -1   1   0  295.94   18.75
  -1   1   0  284.42   18.73
  -1   1   0  293.39   18.52
   1  -1   0  264.46   17.92
   1  -1   0  261.90   18.42
  -1   1  -1  307.19   18.03
   1  -1   1  252.80   17.53
   1  -1   1  275.58   17.70
   1  -1   1  234.49   17.16
  -1   1  -1  290.92   18.11
  -1   1  -1  293.00   18.41
  -1   1  -1  264.16   18.25
   1  -1   1  273.15   17.76
   1  -1   2  204.79   14.48
  -1   1  -2  206.74   15.23
  -1   1  -2  234.31   14.59
   1  -1   2  216.86   14.53
  -1   1  -2  230.06   15.97
   1  -1   2  231.07   15.61
  -1   1  -2  195.83   13.82
  -1   1  -2  216.62   15.59
   1  -1   2  225.10   14.75
  -1   1  -3  354.29   22.05
  -1   1  -3  328.79   22.88
   1  -1   3  306.47   21.46
   1  -1   3  327.32   21.68
   1  -1   3  316.08   21.65
   1  -1   3  328.38   23.32
  -1   1  -3  354.24   23.79
  -1   1  -3  268.71   22.76
   1  -1   3  322.49   21.97
  -1   1  -4  846.06   56.60
  -1   1  -4  861.97   55.46
   1  -1   4  854.78   54.95
   1  -1   4  830.12   54.93
   1  -1   4  848.64   54.61
   1  -1   4  801.92   57.06
  -1   1  -4  884.13   57.56
   1  -1   5   47.24    4.86
   1  -1   5   37.70    4.45
  -1   1  -5   36.35    5.08
  -1   1  -5   30.07    5.51
   1  -1   5   31.30    6.40
  -1   1  -5   24.75    5.80
  -1   1  -6   24.19    5.61
   1  -1   6   29.16    4.37
   1  -1   6   34.20    4.51
   1  -1   6   31.81    6.55
  -1   1  -6   15.09    5.08
   1  -1   7  628.66   45.03
   1  -1   7  695.49   45.36
   1  -1   7  724.74   50.07
  -1   1  -7  596.60   49.08
   1  -1   8   21.20    4.42
   1  -1   8   23.58    6.93
   1  -1   8   23.41    2.78
   1  -1   9   64.42    8.75
   1  -1   9   77.59   12.47
   1  -1   9   65.99    5.67
   1  -1  10   35.43    3.87
   1  -1  10   48.50   10.75
   1  -1  11    2.40    2.16
   1  -1  12   95.31    7.82
   1  -1  13  113.40    8.72
  -1   1 -14  148.81    9.98
   1  -1  14  134.17   10.12
   1   0 -15   12.24    1.76
   1   0 -15   15.43    1.80
   1   0 -14   28.84    2.91
   1   0 -14   20.45    3.25
   1   0 -13  265.07   16.68
   1   0 -13  239.61   16.73
   1   0 -13  220.62   17.18
   1   0 -12  240.40   15.76
   1   0 -12  233.60   15.49
   1   0 -12  194.55   16.12
   1   0 -11   63.72    6.17
   1   0 -11   64.45    5.48
   1   0 -11   45.79   11.09
  -1   0  11   50.46    9.87
  -1   0  11   65.37    9.73
   1   0 -10  279.97   17.78
  -1   0  10  276.41   27.48
   1   0 -10  257.75   18.43
  -1   0  10  241.29   22.62
  -1   0   9    1.70    4.05
   1   0  -9    4.11    1.63
   1   0  -9   -1.92    4.56
   1   0  -9    3.62    1.95
   1   0  -9    1.24    2.74
  -1   0   9    1.98    2.36
   1   0  -8  437.87   39.10
   1   0  -8  473.67   31.23
  -1   0   8  550.69   39.94
   1   0  -8  490.03   36.67
   1   0  -8  486.22   31.85
  -1   0   8  541.96   35.90
   1   0  -8  488.73   37.01
  -1   0   7    6.19    3.74
  -1   0   7    1.18    3.98
   1   0  -7    1.34    2.95
   1   0  -7    2.60    3.02
   1   0  -7    5.49    1.60
   1   0  -7    0.91    3.07
  -1   0   7    0.68    1.96
  -1   0   6 1115.89   74.62
   1   0  -6 1066.54   75.09
  -1   0   6  979.17   72.42
   1   0  -6 1083.18   72.70
  -1   0   6 1215.63   72.21
   1   0  -6 1087.35   72.99
  -1   0   5  309.50   22.02
   1   0  -5  274.85   21.92
  -1   0   5  258.53   20.20
  -1   0   5  263.05   19.45
   1   0  -5  265.24   20.12
   1   0  -5  248.87   19.14
  -1   0   5  279.94   19.62
   1   0  -5  262.87   20.27
  -1   0   4 1133.96   74.07
   1   0  -4 1150.68   74.94
  -1   0   4  941.93   72.64
   1   0  -4 1128.17   73.06
  -1   0   4 1315.98   72.99
   1   0  -4 1150.19   73.27
  -1   0   4 1165.67   72.53
   1   0  -4 1063.97   72.33
   1   0  -3  101.37    9.89
  -1   0   3  118.92    9.14
   1   0  -3  105.69    8.97
  -1   0   3  125.87    8.99
  -1   0   3  115.47    8.62
   1   0  -3  112.80    9.15
   1   0  -3  101.42    8.56
   1   0  -2  257.83   17.44
  -1   0   2  284.54   17.52
  -1   0   2  277.85   17.86
  -1   0   2  253.65   17.02
   1   0  -2  237.74   16.32
   1   0  -2  245.11   17.19
   1   0  -2  283.97   18.37
  -1   0   2  250.85   16.44
  -1   0   2  304.59   17.56
   1   0  -2  241.85   16.33
  -1   0   1 1275.31   79.15
   1   0  -1 1315.20   79.52
   1   0  -1 1296.39   78.98
   1   0  -1 1125.40   78.60
  -1   0   1 1315.14   79.76
   1   0  -1 1274.53   79.47
  -1   0   1 1481.66   79.84
  -1   0   1 1462.09   79.78
   1   0  -1 1378.79   80.07
   1   0  -1 1222.12   79.23
  -1   0   0  158.32   10.28
   1   0   0  125.26    9.59
  -1   0   0  152.95   10.36
   1   0   0  142.62    9.99
   1   0   0  136.52    9.84
  -1   0   0  145.67   10.33
  -1   0   0  155.03   10.30
   1   0   0  186.75   10.84
  -1   0   0  159.93   10.09
   1   0   0  147.50    9.95
  -1   0  -1  726.15   47.25
  -1   0  -1  795.76   47.67
   1   0   1  706.75   46.86
   1   0   1  719.33   47.00
  -1   0  -1  756.05   47.56
   1   0   1  755.26   47.13
   1   0   2   48.50    4.44
   1   0   2   51.52    4.51
   1   0   2   52.46    4.26
  -1   0  -2   47.91    5.00
  -1   0  -2   53.74    5.25
  -1   0  -2   49.80    5.12
  -1   0  -2   54.94    4.76
  -1   0  -2   63.46    5.93
   1   0   2   58.30    5.97
   1   0   2   52.47    4.69
   1   0   3   30.69    5.08
  -1   0  -3   23.57    4.44
  -1   0  -3   21.59    3.62
  -1   0  -3   21.95    3.31
  -1   0  -3   32.57    4.26
   1   0   3   24.98    2.90
   1   0   3   23.87    3.00
   1   0   3   27.32    3.15
  -1   0  -3   22.00    3.61
   1   0   4  663.97   43.57
  -1   0  -4  660.95   43.70
  -1   0  -4  601.82   41.03
   1   0   4  625.48   40.80
  -1   0  -4  615.05   41.81
   1   0   4  583.00   40.76
  -1   0  -4  618.17   42.50
   1   0   4  621.69   40.61
   1   0   5   40.24    7.08
  -1   0  -5   29.94    6.16
  -1   0  -5   23.05    5.21
   1   0   5   39.10    4.64
   1   0   5   39.58    4.51
  -1   0  -5   35.75    5.46
   1   0   6   33.93    6.95
  -1   0  -6   21.76    5.90
  -1   0  -6   22.51    2.61
  -1   0  -6   18.49    4.74
   1   0   6   18.01    3.65
   1   0   6   18.36    3.62
  -1   0  -6   21.17    4.81
  -1   0  -7 1312.82   87.01
  -1   0  -7 1107.59   82.66
   1   0   7 1296.43   81.83
   1   0   7 1265.61   81.35
  -1   0  -7 1103.01   83.61
  -1   0  -7 1216.81   78.45
   1   0   8  344.50   24.61
  -1   0  -8  375.36   24.92
   1   0   8  453.46   34.84
   1   0   8  430.29   31.63
   1   0   8  403.44   28.55
  -1   0  -8  395.86   25.22
   1   0   9   72.92    6.33
  -1   0  -9   86.04    6.69
   1   0   9   88.33   14.04
   1   0   9   68.60   11.00
   1   0   9   67.40    9.15
  -1   0  -9   84.73    6.90
  -1   0 -10   65.26    5.94
   1   0  10   61.68    5.74
  -1   0 -10   74.77    6.37
  -1   0 -11    2.41    2.37
  -1   0 -11    1.22    1.76
   1   0  11    3.31    2.01
  -1   0 -12  123.65   10.22
   1   0  12  135.19    9.84
  -1   0 -12  128.81    9.98
   1   0  13    2.79    1.92
   1   1 -15   77.29    5.48
   1   1 -15   66.32    5.45
   1   1 -14   63.89    5.37
   1   1 -14   68.05    5.19
   1   1 -14   56.07    5.09
   1   1 -13    9.48    2.50
   1   1 -13   12.82    2.24
   1   1 -12  195.57   15.84
   1   1 -12  227.81   15.55
   1   1 -12  236.33   15.31
  -1  -1  11   39.10   10.24
   1   1 -11   21.14    7.98
  -1  -1  11   35.44    6.96
   1   1 -11   31.28    4.31
   1   1 -11   42.97    4.14
   1   1 -11   41.67    3.75
  -1  -1  10  142.35   15.49
   1   1 -10  177.21   12.12
   1   1 -10  159.29   11.79
  -1  -1  10  138.12   19.14
   1   1 -10  159.97   11.24
  -1  -1   9   21.99    5.03
   1   1  -9   26.04    3.14
   1   1  -9   17.42    2.38
  -1  -1   9   16.76    6.35
   1   1  -9   30.94    8.29
  -1  -1   8  220.39   16.95
   1   1  -8  214.55   13.47
   1   1  -8  185.54   17.17
  -1  -1   8  198.39   20.19
   1   1  -8  177.82   12.74
  -1  -1   7  190.55   15.38
   1   1  -7  161.83   15.62
   1   1  -7  191.17   12.72
   1   1  -7  166.16   17.87
  -1  -1   7  184.21   18.19
  -1  -1   6  951.78   58.69
   1   1  -6  835.49   58.97
  -1  -1   6  887.77   59.09
  -1  -1   6  881.38   61.17
   1   1  -6  832.80   61.22
  -1  -1   5  174.21   13.37
  -1  -1   5  211.00   14.51
   1   1  -5  160.07   13.73
  -1  -1   5  154.70   15.11
   1   1  -5  167.69   15.61
  -1  -1   4   53.47    4.87
   1   1  -4   39.55    4.47
  -1  -1   4   54.35    6.49
   1   1  -4   51.67    6.53
  -1  -1   4   43.98    4.85
   1   1  -4   45.34    5.12
  -1  -1   3  246.91   17.24
   1   1  -3  228.89   16.77
   1   1  -3  218.51   16.29
   1   1  -3  215.79   16.33
  -1  -1   3  241.71   16.27
   1   1  -3  260.36   18.00
  -1  -1   3  258.74   16.49
   1   1  -3  242.18   16.12
  -1  -1   2  112.78    8.29
   1   1  -2  105.29    7.91
   1   1  -2   89.28    6.93
  -1  -1   2  108.19    7.35
  -1  -1   2  107.12    8.18
   1   1  -2   96.80    7.73
  -1  -1   2  108.70    7.33
   1   1  -2  108.10    8.63
   1   1  -2  106.98    7.53
  -1  -1   1 2939.37  168.16
  -1  -1   1 2835.91  168.36
   1   1  -1 2553.68  167.96
   1   1  -1 2514.01  167.09
  -1  -1   1 2930.74  167.99
  -1  -1   1 2663.50  166.95
   1   1  -1 2778.26  167.42
  -1  -1   1 2658.90  167.22
   1   1  -1 2929.58  168.56
   1   1  -1 2373.37  167.59
   1   1   0   99.88    8.17
   1   1   0  114.17    7.71
  -1  -1   0  112.76    8.31
  -1  -1   0  108.30    7.85
  -1  -1   0   95.23    8.22
   1   1   0  107.07    7.66
  -1  -1   0  113.87    7.97
   1   1   0  118.05    7.98
  -1  -1  -1 1361.38   87.86
   1   1   1 1451.87   87.24
   1   1   1 1387.54   87.38
   1   1   1 1295.06   86.43
   1   1   1 1430.62   86.80
  -1  -1  -1 1318.71   86.83
  -1  -1  -1 1441.60   87.63
  -1  -1  -1 1655.06   88.24
   1   1   1 1294.27   87.36
   1   1   2  955.39   60.94
   1   1   2 1001.90   61.65
  -1  -1  -2  958.38   62.36
  -1  -1  -2  974.50   62.52
  -1  -1  -2  934.03   62.19
  -1  -1  -2  963.15   61.88
  -1  -1  -2 1130.59   63.27
   1   1   2  869.61   61.24
  -1  -1  -3  988.96   64.59
   1   1   3  975.41   63.00
   1   1   3 1086.70   65.21
  -1  -1  -3  840.11   62.97
  -1  -1  -3 1005.77   63.53
   1   1   3  987.22   62.83
  -1  -1  -3 1074.51   64.17
  -1  -1  -3  981.83   63.79
   1   1   3  925.48   62.06
  -1  -1  -4  139.47   12.70
   1   1   4  117.50   10.39
  -1  -1  -4  114.98   10.70
   1   1   4  128.68    9.74
  -1  -1  -4  103.80   10.88
   1   1   4  111.61   10.07
  -1  -1  -4  126.80   11.50
   1   1   5  384.43   30.20
  -1  -1  -5  456.57   31.12
   1   1   5  377.94   27.50
  -1  -1  -5  384.54   27.99
  -1  -1  -5  352.91   28.46
   1   1   5  381.72   26.62
  -1  -1  -5  377.95   28.65
   1   1   5  380.68   27.30
   1   1   6  692.81   47.00
  -1  -1  -6  622.16   46.40
  -1  -1  -6  602.77   44.15
  -1  -1  -6  536.33   43.80
   1   1   6  662.07   42.20
   1   1   6  662.80   42.89
  -1  -1  -6  599.41   39.75
   1   1   7   23.42    2.65
  -1  -1  -7   25.66    2.91
   1   1   7   26.25    6.87
   1   1   7   20.22    4.05
  -1  -1  -7   33.95    6.59
   1   1   7   28.04    5.11
  -1  -1  -7   28.69    6.39
  -1  -1  -7   26.19    3.23
   1   1   8  631.47   43.59
  -1  -1  -8  660.06   44.02
   1   1   8  782.76   51.49
  -1  -1  -8  652.88   50.17
  -1  -1  -8  741.50   44.42
  -1  -1  -9   44.06    4.45
   1   1   9   37.24    3.91
  -1  -1  -9   37.54    4.52
   1   1   9   32.70    7.49
   1   1   9   51.30   11.21
  -1  -1 -10   13.35    2.79
   1   1  10   15.80    2.73
  -1  -1 -10   16.70    3.32
   1   1  10   19.69    6.34
  -1  -1 -11    4.64    2.49
  -1  -1 -11    7.63    2.34
   1   1  11    5.50    2.25
  -1  -1 -12  274.58   20.11
  -1  -1 -12  299.75   19.96
  -1  -1 -13  115.85    9.35
  -1  -1 -13  124.42    9.21
  -1  -1 -14    2.17    1.25
   1   2 -15   39.18    3.86
   1   2 -15   53.09    4.00
   1   2 -14  286.27   19.30
   1   2 -14  296.08   19.24
   1   2 -14  281.04   19.37
   1   2 -13   11.06    2.27
   1   2 -13    8.04    2.54
  -1  -2  13    6.96    2.36
   1   2 -13   12.16    2.18
   1   2 -13    7.50    2.75
  -1  -2  12  298.14   22.52
   1   2 -12  345.92   23.46
   1   2 -12  340.75   22.63
   1   2 -12  360.88   22.40
   1   2 -11   22.99    3.16
  -1  -2  11   10.80    6.60
   1   2 -11   22.46    7.69
   1   2 -11   22.47    2.68
   1   2 -11   22.84    3.80
  -1  -2  11   32.52    6.71
   1   2 -10   -0.61    1.54
  -1  -2  10    1.93    4.59
   1   2 -10   -0.33    1.13
   1   2 -10   -0.33    2.24
  -1  -2  10   -1.10    2.81
   1   2  -9  194.55   21.71
   1   2  -9  205.23   14.05
  -1  -2   9  182.26   21.03
   1   2  -9  213.25   13.89
   1   2  -9  200.58   14.47
  -1  -2   9  224.33   18.63
   1   2  -8  241.10   16.21
   1   2  -8  251.16   16.40
   1   2  -8  243.32   23.51
  -1  -2   8  271.58   24.01
  -1  -2   8  267.87   20.42
  -1  -2   7 1228.08   84.41
   1   2  -7 1152.22   84.13
  -1  -2   7 1241.73   82.45
  -1  -2   7 1283.10   81.33
  -1  -2   6  100.95    8.94
  -1  -2   6   85.26   10.77
   1   2  -6   89.32   10.86
  -1  -2   5  106.50    9.16
   1   2  -5  114.49    9.24
   1   2  -5  101.25   10.79
  -1  -2   5  106.70   11.14
  -1  -2   4  736.26   47.43
  -1  -2   4  727.76   49.42
   1   2  -4  673.13   49.41
   1   2  -4  748.05   47.64
  -1  -2   3 1302.38   80.10
   1   2  -3 1204.64   81.50
   1   2  -3 1241.96   80.56
   1   2  -3 1258.30   80.95
  -1  -2   2  977.14   59.72
  -1  -2   2  949.47   58.76
   1   2  -2 1037.15   60.38
   1   2  -2  923.92   60.12
   1   2  -2  856.03   58.55
   1   2  -2  930.90   59.68
  -1  -2   1  175.54   12.36
  -1  -2   1  166.64   11.85
   1   2  -1  176.40   12.44
   1   2  -1  186.42   13.00
   1   2  -1  184.08   12.87
   1   2  -1  162.28   11.88
   1   2  -1  157.31   12.41
  -1  -2   0 2914.93  187.28
  -1  -2   0 2754.71  186.59
  -1  -2   0 2824.96  186.43
  -1  -2   0 2940.24  187.69
   1   2   0 3118.89  187.28
   1   2   0 3142.47  187.76
  -1  -2   0 3140.27  186.90
   1   2   0 3003.69  187.12
   1   2   0 3155.67  187.39
  -1  -2  -1  168.40   12.34
  -1  -2  -1  160.65   11.89
   1   2   1  141.47   10.31
   1   2   1  139.56   11.17
  -1  -2  -1  158.72   11.30
   1   2   1  155.18   11.65
  -1  -2  -1  145.37   11.49
   1   2   1  172.45   11.97
  -1  -2  -2    9.83    2.83
   1   2   2   12.93    2.75
   1   2   2   16.56    2.20
  -1  -2  -2   14.24    3.49
  -1  -2  -2   16.45    3.62
  -1  -2  -2   14.96    3.43
   1   2   2   14.74    3.10
   1   2   2   19.20    2.98
  -1  -2  -3  340.11   24.92
  -1  -2  -3  344.29   25.46
   1   2   3  333.85   24.25
  -1  -2  -3  354.84   25.83
   1   2   3  333.46   24.53
  -1  -2  -3  371.63   25.49
  -1  -2  -4  763.77   54.43
   1   2   4  789.93   53.80
  -1  -2  -4  815.44   55.25
  -1  -2  -4  697.83   55.21
   1   2   4  975.41   57.27
   1   2   4  834.84   54.19
  -1  -2  -4  822.79   54.84
  -1  -2  -5   68.26    8.87
   1   2   5   97.50    9.13
  -1  -2  -5   76.42    9.60
   1   2   5   92.56   11.12
  -1  -2  -5   64.79    9.65
   1   2   5   89.47    9.27
  -1  -2  -5   82.43    6.28
  -1  -2  -5   69.75    9.05
  -1  -2  -6  220.14   21.77
  -1  -2  -6  234.37   21.26
  -1  -2  -6  263.35   17.53
   1   2   6  258.56   21.07
   1   2   6  299.02   24.71
   1   2   6  269.36   22.15
  -1  -2  -7  211.18   20.16
  -1  -2  -7  222.09   14.93
   1   2   7  242.47   22.83
   1   2   7  241.41   20.59
  -1  -2  -7  192.82   14.57
  -1  -2  -8   20.32    6.09
  -1  -2  -8   15.90    3.08
   1   2   8   19.36    5.94
  -1  -2  -8   19.22    2.83
  -1  -2  -9  212.08   23.07
   1   2   9  262.68   24.59
  -1  -2  -9  256.35   17.28
  -1  -2  -9  227.18   16.83
  -1  -2 -10   25.95    3.96
  -1  -2 -10   18.42    3.25
  -1  -2 -11  358.43   24.69
  -1  -2 -11  356.93   24.42
  -1  -2 -12   10.71    2.87
  -1  -2 -12   13.00    2.72
  -1  -2 -13   42.03    4.61
  -1  -2 -13   55.41    4.72
  -1  -2 -14    9.04    1.59
   1   3 -16   58.01    4.72
   1   3 -16   55.31    4.49
   1   3 -16   65.69    4.54
   1   3 -15   70.02    5.45
   1   3 -15   68.00    5.04
   1   3 -15   67.95    4.96
   1   3 -14   85.08    7.55
   1   3 -14   95.03    6.89
   1   3 -14   91.39    6.77
   1   3 -14   89.06    7.00
  -1  -3  14   72.05    6.87
   1   3 -13  378.09   23.97
  -1  -3  13  309.86   23.94
   1   3 -13  347.37   24.79
   1   3 -13  365.54   24.10
   1   3 -13  390.97   23.89
   1   3 -12    3.38    1.78
   1   3 -12    1.17    2.53
   1   3 -12    3.29    1.64
   1   3 -12    6.42    2.36
  -1  -3  11  110.94   13.60
   1   3 -11   99.30   15.98
   1   3 -11  125.78   10.05
   1   3 -11  122.29    8.79
   1   3 -11  120.39    9.08
  -1  -3  10    1.10    2.27
  -1  -3  10    3.80    4.55
   1   3 -10    1.89    3.85
   1   3 -10    9.92    2.01
   1   3 -10    9.44    2.08
   1   3 -10    9.76    2.58
   1   3 -10    9.60    2.45
   1   3 -10   10.42    1.75
  -1  -3   9 1447.31   85.42
  -1  -3   9 1250.12   88.85
   1   3  -9 1270.47   88.86
   1   3  -9 1205.20   79.93
   1   3  -9 1278.49   80.36
   1   3  -9 1281.47   79.55
   1   3  -9 1238.76   79.71
  -1  -3   8 1009.89   69.27
  -1  -3   8 1102.81   68.18
   1   3  -8  995.62   63.58
   1   3  -8  984.60   63.42
   1   3  -8 1023.86   63.80
   1   3  -8 1059.65   71.65
  -1  -3   8 1075.90   71.97
   1   3  -8  984.73   64.10
  -1  -3   7  294.24   25.56
   1   3  -7  274.36   24.92
  -1  -3   7  324.09   23.01
  -1  -3   6  155.83   13.12
  -1  -3   6  158.59   15.64
   1   3  -6  150.14   14.98
   1   3  -6  175.61   13.62
   1   3  -6  164.87   13.91
  -1  -3   5  625.93   40.73
   1   3  -5  616.50   41.61
  -1  -3   5  601.16   43.06
   1   3  -5  594.73   42.51
   1   3  -5  597.18   41.09
   1   3  -4   37.97    4.95
   1   3  -4   30.98    4.27
   1   3  -4   31.07    4.49
  -1  -3   4   25.14    5.12
   1   3  -4   31.36    5.06
  -1  -3   4   34.79    3.91
   1   3  -3   10.69    2.65
   1   3  -3    6.69    2.27
   1   3  -3    6.77    2.47
   1   3  -3    5.95    2.24
   1   3  -3    4.49    2.41
   1   3  -2  511.79   33.41
   1   3  -2  492.31   33.17
   1   3  -2  498.77   33.31
   1   3  -2  484.51   33.25
   1   3  -2  465.99   33.64
   1   3  -1  155.55   12.13
   1   3  -1  160.90   12.77
   1   3  -1  139.96   11.48
   1   3  -1  148.64   12.18
   1   3  -1  173.19   12.42
  -1  -3   0  436.45   28.79
  -1  -3   0  382.50   28.98
   1   3   0  434.56   29.28
   1   3   0  434.48   29.71
   1   3   0  414.63   28.93
   1   3   0  449.69   29.28
  -1  -3  -1  392.88   26.87
  -1  -3  -1  368.18   26.12
   1   3   1  344.96   25.93
   1   3   1  408.54   26.69
   1   3   1  379.47   26.15
   1   3   1  356.60   25.82
  -1  -3  -2  190.25   16.31
  -1  -3  -2  195.44   15.66
   1   3   2  203.56   15.78
  -1  -3  -2  213.62   16.65
  -1  -3  -3  530.07   37.13
  -1  -3  -3  472.52   35.85
   1   3   3  534.99   36.25
  -1  -3  -3  539.39   37.11
  -1  -3  -4  762.00   52.10
  -1  -3  -4  767.37   52.73
   1   3   4  796.37   51.84
  -1  -3  -4  738.19   48.07
  -1  -3  -4  756.10   52.43
  -1  -3  -5  378.62   30.55
  -1  -3  -5  359.54   29.93
  -1  -3  -5  400.22   25.70
   1   3   5  414.35   30.20
   1   3   5  364.73   29.21
  -1  -3  -6   28.42    6.76
  -1  -3  -6   30.95    6.57
  -1  -3  -6   41.98    3.98
   1   3   6   30.72    6.08
   1   3   6   31.69    6.45
  -1  -3  -6   34.52    3.61
  -1  -3  -7    9.97    4.66
  -1  -3  -7    5.18    3.34
  -1  -3  -7   12.36    2.65
   1   3   7    6.42    4.20
  -1  -3  -7    8.97    2.10
  -1  -3  -8   12.81    5.50
  -1  -3  -8   17.32    3.28
   1   3   8   14.68    5.86
  -1  -3  -8   19.48    3.00
  -1  -3  -9  215.74   24.80
   1   3   9  269.96   25.66
  -1  -3  -9  269.88   18.80
  -1  -3  -9  266.29   18.49
  -1  -3 -10  149.22   11.98
  -1  -3 -10  157.30   11.77
  -1  -3 -11  108.28    9.26
  -1  -3 -11  115.63    9.11
  -1  -3 -12  158.74   11.82
  -1  -3 -12  156.43   11.56
  -1  -3 -13    1.80    1.40
   1   4 -16   -0.93    1.08
   1   4 -16    1.71    0.85
   1   4 -16    1.35    0.83
   1   4 -15  160.88   10.66
   1   4 -15  154.94   10.25
   1   4 -15  154.76   10.16
   1   4 -14   67.65    6.57
  -1  -4  14   67.76    6.08
   1   4 -14   77.62    5.79
   1   4 -14   72.25    5.64
   1   4 -14   57.62    5.74
   1   4 -13   75.37    6.08
   1   4 -13   80.67    5.98
   1   4 -13   60.59    6.09
   1   4 -13   65.74    6.89
   1   4 -12  118.68    9.29
   1   4 -12  102.53    7.78
   1   4 -12   92.60    8.09
   1   4 -12  104.33    7.93
  -1  -4  11   62.42    9.66
   1   4 -11   78.13    5.84
   1   4 -11   67.62    6.76
   1   4 -11   65.86    5.89
   1   4 -11   68.16    5.59
  -1  -4  10  310.07   26.12
   1   4 -10  335.16   20.92
   1   4 -10  277.04   21.14
   1   4 -10  311.26   21.37
   1   4 -10  315.78   21.89
   1   4 -10  297.71   21.56
   1   4 -10  331.71   20.77
   1   4 -10  317.24   20.97
   1   4  -9   57.49    4.77
   1   4  -9   51.76    4.47
  -1  -4   9   62.25    8.31
  -1  -4   9   39.31    8.09
   1   4  -9   56.51    5.04
   1   4  -9   62.80    5.62
   1   4  -9   66.94    5.37
   1   4  -9   60.29    5.47
   1   4  -9   55.59    4.59
  -1  -4   8  743.98   47.27
   1   4  -8  661.53   42.62
   1   4  -8  664.25   42.93
   1   4  -8  640.41   43.22
   1   4  -8  753.98   43.26
   1   4  -8  643.93   42.65
   1   4  -8  657.32   42.52
   1   4  -7   35.01    3.99
  -1  -4   7   36.63    5.45
   1   4  -7   42.19    6.19
   1   4  -6  423.87   30.33
   1   4  -6  474.47   30.25
   1   4  -6  385.77   26.90
   1   4  -5  673.92   48.60
   1   4  -5  745.32   48.43
   1   4  -4  136.66   13.48
   1   4  -4  189.74   14.22
   1   4  -4  155.44   13.24
   1   4  -4  162.34   13.44
   1   4  -3  294.27   22.02
   1   4  -3  294.73   21.61
   1   4  -3  288.97   21.33
   1   4  -3  269.75   21.10
   1   4  -2  935.79   63.61
   1   4  -2  944.36   63.06
   1   4  -2  981.21   63.11
   1   4  -2  947.45   62.99
  -1  -4   1  176.13   13.70
   1   4  -1  165.26   14.06
   1   4  -1  163.26   14.47
   1   4  -1  172.89   13.56
   1   4  -1  162.32   13.98
   1   4  -1  190.09   14.34
  -1  -4   0    8.18    2.49
  -1  -4   0   13.66    3.15
   1   4   0    6.90    2.74
   1   4   0    6.39    3.03
   1   4   0    7.12    2.98
   1   4   0    9.81    2.95
  -1  -4  -1    7.83    3.55
  -1  -4  -1   13.07    3.14
   1   4   1    5.92    2.66
   1   4   1    6.43    2.71
   1   4   1   12.23    3.48
   1   4   1    4.34    2.40
  -1  -4  -2   36.35    6.21
   1   4   2   45.87    6.29
  -1  -4  -2   45.35    6.80
  -1  -4  -3 1514.21   96.97
  -1  -4  -3 1355.01   96.38
   1   4   3 1376.01   95.17
   1   4   3 1503.50   95.93
  -1  -4  -3 1577.64   97.29
  -1  -4  -4   49.39    7.74
  -1  -4  -4   55.32    8.42
   1   4   4   46.84    7.24
   1   4   4   49.42    7.26
  -1  -4  -4   57.44    4.69
  -1  -4  -4   47.27    7.87
  -1  -4  -5  956.37   71.77
  -1  -4  -5 1055.29   66.08
  -1  -4  -5  964.08   71.63
   1   4   5 1089.05   71.38
   1   4   5 1028.90   70.91
  -1  -4  -6   40.35    8.13
  -1  -4  -6   51.53    4.70
  -1  -4  -6   36.13    7.58
   1   4   6   34.65    7.29
   1   4   6   35.58    7.29
  -1  -4  -6   49.69    4.47
  -1  -4  -7   48.71    9.21
  -1  -4  -7   40.03    8.22
  -1  -4  -7   52.21    5.12
   1   4   7   34.33    7.90
  -1  -4  -7   49.62    4.74
  -1  -4  -8    1.72    4.10
   1   4   8   -1.53    4.56
  -1  -4  -8    0.33    2.22
  -1  -4  -8    4.54    2.06
  -1  -4  -9  101.41    8.82
  -1  -4  -9  107.61    8.67
  -1  -4 -10  182.92   14.61
  -1  -4 -10  219.24   14.73
   1   4  11    7.10    2.05
  -1  -4 -11    9.64    2.60
  -1  -4 -11    8.38    2.43
  -1  -4 -12  289.96   21.72
  -1  -4 -12  362.42   21.86
  -1  -4 -13   28.59    2.84
   1   5 -15   16.23    2.45
  -1  -5  15   13.75    2.49
   1   5 -15   18.66    2.23
   1   5 -15   17.10    2.15
   1   5 -14   54.26    5.26
  -1  -5  14   46.90    5.27
   1   5 -14   63.45    5.05
   1   5 -14   62.43    4.95
   1   5 -13    6.31    1.95
   1   5 -13    9.84    2.42
   1   5 -13    7.89    2.93
   1   5 -13    7.89    1.97
   1   5 -12    0.97    1.91
   1   5 -12    1.60    1.77
   1   5 -12    0.78    2.45
   1   5 -12   -0.42    1.53
   1   5 -11   11.93    2.44
   1   5 -11    8.22    2.99
   1   5 -11   11.76    2.72
   1   5 -11    9.58    1.93
   1   5 -11   12.42    2.26
   1   5 -10  241.01   15.24
   1   5 -10  212.22   15.30
   1   5 -10  231.55   16.28
   1   5 -10  222.21   15.90
   1   5 -10  205.67   15.99
   1   5 -10  241.37   15.37
   1   5  -9    9.64    1.65
  -1  -5   9    8.72    4.17
   1   5  -9    9.38    1.71
   1   5  -9    9.90    2.58
   1   5  -9    8.08    2.41
   1   5  -9    9.19    2.16
   1   5  -9    8.87    1.86
   1   5  -8  128.12    9.51
   1   5  -8  128.70    9.20
   1   5  -8  125.33    9.81
   1   5  -8  154.24   10.12
   1   5  -8  136.20    9.97
   1   5  -8  161.03   10.00
   1   5  -8  133.77    9.16
   1   5  -8  111.21    9.11
   1   5  -7  239.88   16.11
   1   5  -7  256.30   20.52
   1   5  -7  251.51   15.93
   1   5  -7  225.85   16.39
   1   5  -7  275.84   16.49
   1   5  -7  243.66   16.46
   1   5  -7  221.42   15.90
   1   5  -7  233.19   15.79
   1   5  -6   10.43    3.48
   1   5  -6    2.75    2.76
   1   5  -5  118.23   11.89
   1   5  -5  120.59   11.61
   1   5  -5  107.90   10.97
   1   5  -4  228.87   18.65
   1   5  -4  224.56   18.10
   1   5  -4  206.34   17.76
   1   5  -4  226.52   18.91
   1   5  -3  671.52   46.09
   1   5  -3  686.85   45.66
   1   5  -3  646.38   45.51
   1   5  -3  625.72   46.16
   1   5  -2  195.13   17.32
   1   5  -2  209.99   17.32
   1   5  -2  209.90   17.39
   1   5  -2  218.53   18.10
   1   5  -1  171.99   16.19
   1   5  -1  201.36   17.39
   1   5  -1  187.73   15.52
   1   5  -1  214.03   16.64
  -1  -5   0  281.85   21.46
   1   5   0  237.06   21.19
   1   5   0  283.63   22.31
   1   5   0  294.34   21.49
   1   5   0  274.76   21.51
  -1  -5  -1  144.80   12.93
  -1  -5  -1  146.48   13.54
   1   5   1  130.24   12.93
   1   5   1  124.96   12.21
   1   5   1  117.60   11.82
  -1  -5  -2  505.59   35.90
   1   5   2  442.99   34.24
  -1  -5  -2  476.70   35.06
  -1  -5  -3  415.35   33.49
   1   5   3  410.45   32.35
  -1  -5  -3  502.27   34.22
  -1  -5  -3  413.85   33.36
  -1  -5  -4  850.35   60.98
   1   5   4  840.72   54.47
   1   5   4  882.58   59.94
  -1  -5  -4  936.86   61.47
  -1  -5  -4  828.68   60.58
  -1  -5  -5    4.16    3.75
   1   5   5   -1.15    3.57
   1   5   5    1.87    1.62
  -1  -5  -5   -1.36    3.25
  -1  -5  -6   66.03   10.95
  -1  -5  -6   72.22    6.28
  -1  -5  -6   55.03   10.00
   1   5   6   69.39   10.41
   1   5   6   76.81   10.67
  -1  -5  -7   50.48   10.29
   1   5   7   88.20   11.66
   1   5   7   72.77   10.65
  -1  -5  -7   52.57    9.97
  -1  -5  -7   65.26    6.17
  -1  -5  -7   65.46    5.93
  -1  -5  -8  293.27   20.61
  -1  -5  -8  297.98   20.45
  -1  -5  -9    6.99    2.54
  -1  -5  -9    6.04    2.26
   1   5  10  111.67    7.80
  -1  -5 -10   83.83    8.12
  -1  -5 -10  103.09    8.14
   1   5  11  204.50   13.67
  -1  -5 -11  196.79   14.24
  -1  -5 -11  199.30   14.06
  -1  -5 -12    0.35    1.12
   1   6 -15   32.77    3.43
   1   6 -15   37.15    3.25
  -1  -6  15   26.44    3.34
   1   6 -15   38.19    3.23
   1   6 -14   25.21    3.21
   1   6 -14   22.90    2.78
  -1  -6  14   18.40    3.06
   1   6 -14   22.70    2.71
   1   6 -13   75.45    6.48
   1   6 -13   69.85    6.97
   1   6 -13   71.84    6.16
   1   6 -13   80.20    6.12
   1   6 -12  209.79   15.32
   1   6 -12  191.96   15.80
   1   6 -12  240.04   15.21
   1   6 -12  211.90   15.72
   1   6 -12  221.53   15.00
   1   6 -11  142.04   10.19
   1   6 -11  145.24    9.85
   1   6 -11  118.10   10.26
   1   6 -11  125.98   10.63
   1   6 -11  127.95    9.58
   1   6 -10  138.59    9.84
   1   6 -10  125.05    9.87
   1   6 -10  145.67   10.29
  -1  -6  10  111.87   15.74
   1   6 -10  139.05   10.61
   1   6 -10  134.52   10.72
   1   6 -10  146.54   10.01
   1   6  -9  447.77   29.17
   1   6  -9  401.98   29.18
  -1  -6   9  354.77   35.76
   1   6  -9  467.35   29.59
   1   6  -9  437.99   29.95
   1   6  -9  488.49   30.08
   1   6  -9  438.87   29.99
   1   6  -9  458.30   30.01
   1   6  -9  490.82   29.41
   1   6  -8   65.70    5.23
   1   6  -8   59.24    5.83
   1   6  -8   55.30    8.82
   1   6  -8   77.61    5.99
   1   6  -8   68.75    5.99
   1   6  -8   64.97    5.15
   1   6  -7   10.62    1.59
   1   6  -7    8.56    2.20
   1   6  -7   15.51    4.70
   1   6  -7   13.12    4.60
   1   6  -7   13.72    2.31
   1   6  -7   10.07    1.70
   1   6  -7    8.89    2.06
   1   6  -7   10.04    1.60
   1   6  -6   14.94    1.85
   1   6  -6   14.58    2.43
   1   6  -6   10.60    3.88
   1   6  -6   10.00    4.33
   1   6  -6   17.90    2.36
   1   6  -6   16.34    1.98
   1   6  -6   12.18    2.22
   1   6  -6   12.79    1.72
   1   6  -5  353.43   29.01
   1   6  -5  333.30   28.57
   1   6  -5  394.80   28.77
   1   6  -5  377.97   28.23
   1   6  -4  725.51   49.85
   1   6  -4  698.25   44.27
   1   6  -4  695.22   49.35
   1   6  -4  665.35   48.35
   1   6  -4  644.25   48.21
   1   6  -3  206.71   18.47
   1   6  -3  198.37   13.50
   1   6  -3  178.65   17.48
   1   6  -3  195.16   17.27
   1   6  -3  199.02   17.40
   1   6  -2    2.18    1.45
   1   6  -2   -1.01    3.15
   1   6  -2    2.87    2.85
   1   6  -2    2.61    3.14
   1   6  -2    2.57    2.99
   1   6  -1  111.31   12.01
   1   6  -1   99.60    7.37
   1   6  -1   90.53   10.98
   1   6  -1   90.38   10.47
  -1  -6   0  128.22   13.35
   1   6   0  127.88    9.14
   1   6   0  154.15   14.22
   1   6   0   98.54   12.41
   1   6   0  143.97   13.13
   1   6   0  119.65   12.59
  -1  -6  -1   36.29    6.83
   1   6   1   27.79    6.00
   1   6   1   28.40    5.47
   1   6   1   42.79    6.87
   1   6   2  676.51   45.26
  -1  -6  -2  626.43   46.00
   1   6   2  672.77   39.85
   1   6   2  560.49   39.54
   1   6   2  619.38   39.72
  -1  -6  -2  647.54   46.48
   1   6   3  120.56   13.28
  -1  -6  -3  130.33   14.44
   1   6   3  117.83    8.50
   1   6   3  121.85    8.72
   1   6   3  108.55    8.51
  -1  -6  -3  117.35   13.48
  -1  -6  -3  123.84   14.15
  -1  -6  -4  177.07   19.46
   1   6   4  205.53   13.56
   1   6   4  198.01   18.95
  -1  -6  -4  186.51   19.15
  -1  -6  -4  142.48   18.08
  -1  -6  -5   14.12    5.49
   1   6   5   27.36    3.31
   1   6   5   19.45    5.91
  -1  -6  -5   29.91    7.15
  -1  -6  -6   77.25   12.33
   1   6   6   93.63    7.36
   1   6   6   88.24   12.29
  -1  -6  -6   80.02   12.50
   1   6   7  294.36   20.12
   1   6   8   79.56    6.86
   1   6   8   87.07    6.90
   1   6   9  114.15    9.25
   1   6   9  126.00    9.66
   1   6  10   22.87    2.62
  -1  -6 -10   18.26    2.63
  -1  -6 -11    5.61    1.44
   1   7 -15   14.51    2.04
   1   7 -15   15.28    1.89
  -1  -7  15    8.95    1.97
   1   7 -15   12.43    1.78
   1   7 -14   64.24    6.16
   1   7 -14   88.16    6.20
   1   7 -14   85.59    6.11
  -1  -7  14   72.22    6.40
   1   7 -13   49.86    4.75
   1   7 -13   48.24    4.41
   1   7 -13   36.00    4.65
   1   7 -13   53.75    4.44
   1   7 -12   11.87    2.49
   1   7 -12   14.46    2.46
   1   7 -12    7.59    2.89
   1   7 -12   11.40    2.88
   1   7 -12    8.66    2.12
   1   7 -11  266.15   20.45
   1   7 -11  279.39   20.09
   1   7 -11  319.33   20.02
   1   7 -11  302.17   20.68
   1   7 -11  301.81   19.86
   1   7 -10   88.20    7.91
   1   7 -10  103.22    8.68
   1   7 -10  114.34    7.99
   1   7 -10   99.30    8.55
   1   7 -10  107.89    7.90
   1   7  -9   19.58    2.61
  -1  -7   9   23.65    6.61
   1   7  -9   23.55    3.52
   1   7  -9   25.07    3.57
   1   7  -9   26.07    2.93
   1   7  -8   15.32    4.98
   1   7  -8   19.74    2.40
   1   7  -8   19.74    3.14
   1   7  -8    9.83    2.17
   1   7  -8   21.50    3.00
   1   7  -8   15.64    2.86
   1   7  -8   17.55    2.27
   1   7  -7   84.39   12.61
   1   7  -7  117.09    7.79
   1   7  -7  108.42   12.72
   1   7  -7   97.43    8.29
   1   7  -7  110.73    7.83
   1   7  -7  100.98    8.11
   1   7  -7  107.45    7.64
   1   7  -7   86.81    8.01
   1   7  -6  235.73   23.00
   1   7  -6  268.51   17.10
   1   7  -6  309.36   23.66
   1   7  -6  265.13   17.64
   1   7  -6  251.24   17.07
   1   7  -6  255.26   17.38
   1   7  -6  240.40   17.44
   1   7  -6  244.77   16.89
   1   7  -5  125.99    9.38
   1   7  -5  105.08   13.93
   1   7  -5  132.25    9.17
   1   7  -5  134.40   14.02
   1   7  -5  119.37   13.41
   1   7  -5  142.91    9.63
   1   7  -5  132.01    9.61
   1   7  -5  166.15   15.89
   1   7  -5  127.67    9.21
   1   7  -5  125.40    9.14
   1   7  -5  123.90    9.67
   1   7  -5  132.21    9.57
   1   7  -5  120.88    8.98
   1   7  -4  625.05   47.29
   1   7  -4  636.86   41.25
   1   7  -4  602.50   40.96
   1   7  -4  710.32   47.25
   1   7  -4  620.71   41.01
   1   7  -4  655.78   46.70
   1   7  -4  697.81   41.42
   1   7  -4  780.30   41.67
   1   7  -4  764.69   48.94
   1   7  -4  636.07   41.01
   1   7  -4  640.99   41.06
   1   7  -4  673.49   41.61
   1   7  -4  617.06   41.28
   1   7  -4  647.45   41.10
   1   7  -4  560.17   40.77
   1   7  -3   11.69    2.19
   1   7  -3   15.43    5.07
   1   7  -3   15.41    2.04
   1   7  -3   11.63    4.33
   1   7  -3   10.38    4.35
   1   7  -3   14.94    1.91
   1   7  -3   13.88    2.36
   1   7  -3   14.64    5.44
   1   7  -3   12.98    1.86
   1   7  -3   14.71    2.44
   1   7  -3   10.57    1.92
   1   7  -3   12.54    1.97
   1   7  -3    8.49    1.95
   1   7  -2   74.82    5.88
   1   7  -2   55.10    9.32
   1   7  -2   63.81    5.54
   1   7  -2   70.76    5.61
   1   7  -2   85.44   10.32
   1   7  -2   83.66    6.10
   1   7  -2   83.22   10.80
   1   7  -2   76.21    5.61
   1   7  -2   69.97    5.64
   1   7  -2   69.18    5.97
   1   7  -2   70.50    5.59
   1   7  -1   29.17    6.85
   1   7  -1   40.28    3.87
  -1  -7   1   34.43    6.68
   1   7  -1   49.21    4.14
   1   7  -1   31.13    6.67
   1   7  -1   36.54    3.62
   1   7  -1   34.11    3.90
   1   7  -1   43.10    3.64
   1   7  -1   35.60    3.65
   1   7  -1   44.49    3.80
   1   7  -1   52.42    7.78
   1   7  -1   41.77    3.69
   1   7   0  819.17   52.16
  -1  -7   0  753.06   52.99
   1   7   0  729.45   46.77
   1   7   0  833.67   47.12
   1   7   0  820.20   53.86
   1   7   0  712.97   46.64
   1   7   0  672.43   46.62
   1   7   0  736.53   46.63
   1   7   0  786.30   46.84
   1   7   0  735.66   52.17
   1   7   0  643.30   46.67
  -1  -7  -1  133.43   14.52
   1   7   1  126.73   13.64
  -1  -7  -1  136.35   15.11
   1   7   1  119.18    8.91
   1   7   1  101.77    8.76
   1   7   1  147.37    9.27
   1   7   1  133.36    9.07
   1   7   1  124.20    9.09
  -1  -7  -2  138.37   15.61
   1   7   2  131.09   14.40
  -1  -7  -2  117.48   14.93
   1   7   2  121.64    9.38
   1   7   2  132.65    9.70
   1   7   2  134.67    9.64
   1   7   2  141.34    9.71
  -1  -7  -3   89.46   13.07
   1   7   3   91.05   12.28
  -1  -7  -3   91.75   13.16
   1   7   3   93.81    7.66
   1   7   3  113.64    8.16
   1   7   3  115.08    8.06
   1   7   3  100.55    7.91
  -1  -7  -4   11.27    4.87
   1   7   4   10.68    5.01
  -1  -7  -4    4.73    5.17
   1   7   4   12.81    2.22
   1   7   4   16.56    2.60
   1   7   4    9.08    2.25
   1   7   4   16.24    2.89
  -1  -7  -5    5.11    4.05
  -1  -7  -5   -3.22    4.58
   1   7   5    4.22    4.56
   1   7   5   -1.17    1.93
   1   7   5    2.83    2.04
   1   7   5    2.30    2.42
   1   7   5    0.45    1.42
   1   7   6   18.58    2.87
   1   7   6   20.98    3.12
   1   7   6   13.03    2.83
   1   7   6   13.45    2.44
   1   7   7  190.11   12.52
   1   7   7  188.80   12.83
   1   7   7  177.00   12.67
   1   7   7  155.89   12.28
   1   7   8   -0.25    1.89
   1   7   8    0.23    1.79
   1   7   8    1.53    1.85
   1   7   9   56.29    4.99
   1   7   9   57.72    5.14
   1   7   9   62.02    4.97
   1   7  10   11.59    1.88
   1   7  10   10.77    1.81
   1   8 -15    1.53    0.89
   1   8 -15    0.24    0.82
  -1  -8  15    2.40    1.21
  -1  -8  14    6.03    1.86
   1   8 -14    5.53    1.62
   1   8 -14    4.22    1.43
   1   8 -14    4.15    1.76
   1   8 -14    4.56    1.33
   1   8 -13   27.23    3.41
   1   8 -13   32.18    3.35
   1   8 -13   30.51    3.80
   1   8 -13   33.27    3.33
   1   8 -12   67.84    6.17
   1   8 -12   79.32    6.17
   1   8 -12   65.42    6.58
   1   8 -12   77.15    6.06
   1   8 -11   24.61    3.82
   1   8 -11   24.84    3.29
   1   8 -11   26.34    3.98
   1   8 -11   31.81    3.45
   1   8 -10   89.50    8.44
   1   8 -10  104.68    7.82
   1   8 -10  103.05    8.54
   1   8 -10  100.30    7.73
   1   8  -9    5.81    1.81
  -1  -8   9    8.73    4.46
   1   8  -9    7.85    2.71
   1   8  -9    6.45    2.52
   1   8  -9    7.06    1.96
   1   8  -8    3.79    1.71
   1   8  -8    5.71    3.86
  -1  -8   8    9.79    4.88
   1   8  -8    8.80    2.86
   1   8  -8    7.53    2.35
   1   8  -8    5.28    1.83
   1   8  -8    2.83    1.55
   1   8  -7    5.90    1.68
   1   8  -7    5.48    2.31
   1   8  -7    6.41    4.34
   1   8  -7    4.09    3.48
   1   8  -7    2.41    1.61
   1   8  -7    5.54    2.08
   1   8  -7    7.43    1.61
   1   8  -6  536.87   40.30
   1   8  -6  529.19   33.32
   1   8  -6  534.68   33.88
   1   8  -6  382.50   39.30
   1   8  -6  493.93   33.51
   1   8  -6  509.91   33.57
   1   8  -6  527.63   33.34
   1   8  -6  532.44   33.38
   1   8  -6  549.98   34.04
   1   8  -6  464.86   33.04
   1   8  -5    3.10    1.88
   1   8  -5    2.91    3.20
   1   8  -5    1.28    1.80
   1   8  -5    0.24    1.87
   1   8  -5   -2.54    3.44
   1   8  -5    4.49    4.26
   1   8  -5    2.07    2.08
   1   8  -5    4.04    1.49
   1   8  -5    0.62    1.45
   1   8  -5    0.81    1.30
   1   8  -5    1.24    3.16
   1   8  -5    0.81    1.41
   1   8  -4  260.46   15.71
   1   8  -4  228.21   22.14
   1   8  -4  175.34   20.55
   1   8  -4  223.51   15.35
   1   8  -4  212.86   14.95
   1   8  -4  227.25   15.12
   1   8  -4  226.08   15.68
   1   8  -4  211.45   20.39
   1   8  -4  221.40   15.08
   1   8  -4  197.88   14.94
   1   8  -4  198.61   20.31
   1   8  -3   11.21    4.69
   1   8  -3   13.59    2.16
   1   8  -3   12.78    2.20
   1   8  -3   12.39    2.64
   1   8  -3   20.00    6.08
   1   8  -3    2.84    3.23
   1   8  -3   14.25    2.55
   1   8  -3   13.65    2.20
   1   8  -3   15.39    2.79
   1   8  -3   13.06    2.01
   1   8  -3   10.25    2.06
   1   8  -2    1.24    2.95
   1   8  -2    1.41    1.51
   1   8  -2   -1.27    1.34
   1   8  -2    1.39    3.32
   1   8  -2   -0.23    1.76
   1   8  -2    0.50    1.69
   1   8  -2   -1.41    3.11
   1   8  -2   -0.61    1.46
   1   8  -2    2.54    1.40
   1   8  -2   -0.54    1.66
   1   8  -2    2.10    1.36
  -1  -8   1   42.23    8.04
   1   8  -1   38.36    4.02
   1   8  -1   41.13    4.29
   1   8  -1   51.75    8.97
   1   8  -1   36.34    3.82
   1   8  -1   34.76    3.64
   1   8  -1   40.31    4.26
   1   8  -1   42.99    7.73
   1   8  -1   43.33    3.87
   1   8  -1   33.79    3.77
   1   8  -1   45.89    4.02
  -1  -8   0  161.00   17.27
  -1  -8   0  154.19   17.44
   1   8   0  187.62   18.77
   1   8   0  186.80   12.13
   1   8   0  168.65   11.65
   1   8   0  161.06   11.65
   1   8   0  163.63   11.75
   1   8   0  145.17   16.37
   1   8   0  141.98   11.60
   1   8   0  177.58   11.69
  -1  -8  -1  578.56   47.06
  -1  -8  -1  610.68   46.87
   1   8   1  597.03   45.44
   1   8   1  571.15   39.43
   1   8   1  615.83   39.52
   1   8   1  628.72   39.66
   1   8   1  646.20   39.77
  -1  -8  -2    1.60    3.54
  -1  -8  -2    1.54    3.93
   1   8   2    8.94    4.61
   1   8   2    6.08    1.78
   1   8   2    5.27    1.95
   1   8   2    6.21    2.17
   1   8   2    6.69    2.17
  -1  -8  -3  313.52   31.94
  -1  -8  -3  365.97   32.82
   1   8   3  364.28   24.88
   1   8   3  396.71   25.27
   1   8   3  318.83   30.74
   1   8   3  367.86   25.01
   1   8   3  388.57   25.15
   1   8   3  392.75   25.15
   1   8   4   48.13    4.94
   1   8   4   47.67    4.42
   1   8   4   44.80    4.61
   1   8   4   43.75    4.61
   1   8   4   46.93    4.72
   1   8   5   19.12    2.71
   1   8   5   20.41    2.87
   1   8   5   19.11    3.29
   1   8   5   19.98    3.11
   1   8   5   25.68    3.52
   1   8   6   30.06    3.81
   1   8   6   21.89    3.02
   1   8   6   27.88    3.25
   1   8   6   25.22    3.51
   1   8   7  236.22   17.10
   1   8   7  261.69   16.98
   1   8   7  263.37   17.32
   1   8   7  245.96   17.26
   1   8   8  209.08   14.05
   1   8   8  199.37   14.22
   1   8   8  215.61   14.38
   1   8   9    2.90    1.37
   1   8   9    5.32    1.38
   1   9 -14   13.49    1.76
   1   9 -14   10.12    1.64
   1   9 -14   12.08    2.10
   1   9 -13   34.75    3.48
   1   9 -13   34.18    3.92
   1   9 -13   35.37    3.43
   1   9 -12  152.94    9.87
   1   9 -12  122.71   10.21
   1   9 -12  139.49    9.70
   1   9 -12  113.21   10.06
   1   9 -11   13.86    2.38
   1   9 -11    8.08    2.87
   1   9 -11   12.32    2.26
   1   9 -11    7.37    2.82
   1   9 -10   38.20    3.94
   1   9 -10   33.19    4.50
   1   9 -10   33.50    3.80
   1   9 -10   40.50    4.81
   1   9  -9   42.80    4.18
   1   9  -9   38.50    4.50
   1   9  -9   34.25    3.78
   1   9  -9   34.90    4.85
   1   9  -8   68.13    5.37
   1   9  -8   60.47    5.99
   1   9  -8   55.08    5.60
   1   9  -8   52.63    5.14
   1   9  -8   53.48    5.01
   1   9  -7  154.52   11.14
   1   9  -7  147.83   11.45
   1   9  -7  129.17   16.39
   1   9  -7  163.08   11.19
   1   9  -7  169.97   11.91
   1   9  -6  334.57   22.24
   1   9  -6  342.29   22.01
   1   9  -6  318.64   21.94
   1   9  -6  336.50   22.73
   1   9  -6  281.99   28.11
   1   9  -6  328.36   21.98
   1   9  -6  337.28   22.43
   1   9  -5  293.18   18.57
   1   9  -5  172.86   23.45
   1   9  -5  267.80   18.17
   1   9  -5  271.73   18.82
   1   9  -5  265.00   18.08
   1   9  -5  233.20   17.99
   1   9  -5  219.18   23.72
   1   9  -5  279.82   18.22
   1   9  -5  317.97   18.88
   1   9  -5  216.65   24.62
   1   9  -4    1.65    3.33
   1   9  -4    2.39    2.00
   1   9  -4    0.32    2.19
   1   9  -4    1.85    1.73
   1   9  -4    0.44    1.38
   1   9  -4    1.41    3.12
   1   9  -4   -0.47    1.49
   1   9  -4    2.30    1.58
   1   9  -4   -1.43    1.89
   1   9  -4   -1.62    3.87
   1   9  -3   20.38    3.29
   1   9  -3   22.28    3.39
   1   9  -3   18.25    2.80
   1   9  -3   16.95    2.54
   1   9  -3   14.48    2.55
   1   9  -3   17.45    2.70
   1   9  -3   21.15    5.92
   1   9  -3   20.97    3.37
   1   9  -3   22.53    6.41
   1   9  -2   17.91    2.88
   1   9  -2   15.39    2.90
   1   9  -2    9.53    5.01
   1   9  -2   12.97    2.24
   1   9  -2   10.06    2.66
   1   9  -2   11.10    2.29
   1   9  -2   15.37    5.68
   1   9  -2   20.02    2.75
   1   9  -2    7.58    2.10
  -1  -9   1  207.21   23.60
   1   9  -1  279.44   18.07
   1   9  -1  254.58   17.70
   1   9  -1  257.11   18.18
   1   9  -1  256.37   17.82
   1   9  -1  262.60   17.87
   1   9  -1  266.85   17.82
   1   9  -1  232.18   17.78
   1   9  -1  308.21   18.46
   1   9  -1  250.11   24.88
  -1  -9   0  107.49   14.33
   1   9   0  104.52    8.00
   1   9   0  107.62    8.26
   1   9   0  100.42    7.91
   1   9   0  107.23    8.13
   1   9   1  215.27   14.41
   1   9   1  190.02   14.00
   1   9   1  214.37   14.31
   1   9   2  203.95   14.15
   1   9   2  216.97   14.42
   1   9   2  190.24   13.96
   1   9   2  197.42   14.23
   1   9   3   14.75    2.64
   1   9   3   19.08    2.93
   1   9   3   11.54    2.84
   1   9   3   11.49    2.27
   1   9   4   29.30    3.55
   1   9   4   24.77    3.29
   1   9   4   26.62    3.44
   1   9   4   17.51    3.31
   1   9   4   28.10    3.12
   1   9   5   95.92    7.29
   1   9   5   86.47    7.09
   1   9   5   82.63    7.17
   1   9   6  254.51   17.53
   1   9   6  261.63   17.57
   1   9   7   10.70    2.02
   1   9   7    9.40    2.00
   1   9   8   35.08    3.28
   1   9   8   42.19    3.53
   1   9   8   40.40    3.53
   1  10 -13   58.03    4.51
   1  10 -13   49.30    4.77
   1  10 -12   24.92    3.35
   1  10 -12   24.25    2.86
   1  10 -12   28.69    3.44
   1  10 -11   21.74    3.52
   1  10 -11   28.49    3.16
   1  10 -11   23.49    3.55
   1  10 -10   38.86    4.88
   1  10 -10   39.64    4.08
   1  10 -10   42.87    4.57
   1  10  -9   15.44    3.26
   1  10  -9   15.42    2.70
   1  10  -9   13.88    2.73
   1  10  -8   -1.63    2.62
   1  10  -8    0.74    1.68
   1  10  -8   -0.30    1.90
   1  10  -8    0.73    1.72
   1  10  -7  369.32   24.76
   1  10  -7  363.08   24.21
   1  10  -7  363.08   24.88
   1  10  -7  356.50   24.18
   1  10  -7  361.34   24.29
   1  10  -6   48.74    4.81
   1  10  -6   36.39    4.19
   1  10  -6   40.53    4.24
   1  10  -6   45.54    4.87
   1  10  -6   41.88    5.06
   1  10  -6   37.49    4.12
   1  10  -6   44.09    4.42
   1  10  -5   54.18    5.11
   1  10  -5   52.25    5.11
   1  10  -5   50.35    5.51
   1  10  -5   57.83    5.01
   1  10  -5   57.90    5.22
   1  10  -5   52.91    5.76
   1  10  -4   34.50    3.89
   1  10  -4   31.66    3.84
   1  10  -4   32.68    4.27
   1  10  -4   37.92    3.96
   1  10  -4   28.60    3.57
   1  10  -4   37.49    4.62
   1  10  -3   62.97    5.88
   1  10  -3   68.71    5.94
   1  10  -3   69.94    6.37
   1  10  -3   62.62    5.88
   1  10  -3   66.28    5.69
   1  10  -3   64.12    6.44
   1  10  -2   86.48    7.20
   1  10  -2   90.54    7.18
   1  10  -2   98.30    7.50
   1  10  -2   88.77    6.99
   1  10  -2   77.09    7.05
   1  10  -2   82.34    7.56
   1  10  -1   24.70    3.39
   1  10  -1   27.31    3.54
   1  10  -1   32.77    3.83
   1  10  -1   33.80    3.80
   1  10  -1   31.36    3.45
   1  10   0  246.42   16.74
   1  10   0  235.04   16.43
   1  10   1   23.01    3.37
   1  10   1   22.28    3.14
   1  10   1   19.69    2.77
   1  10   2   -1.49    2.28
   1  10   2   -0.48    2.00
   1  10   2   -0.86    1.43
   1  10   3    4.22    2.08
   1  10   3    4.69    2.06
   1  10   3    2.83    2.18
   1  10   4  140.78   10.55
   1  10   4  151.68   10.61
   1  10   4  146.78   10.72
   1  10   5   25.25    2.97
   1  10   5   23.46    2.84
   1  10   6    5.30    1.48
   1  10   6    5.91    1.67
   1  10   7   18.35    2.10
   1  10   7   22.35    2.26
   1  11 -12    3.00    1.66
   1  11 -12    1.07    1.02
   1  11 -12    5.11    1.64
   1  11 -11   18.16    2.85
   1  11 -11   17.41    2.37
   1  11 -11   15.34    2.68
   1  11 -10    1.90    2.26
   1  11 -10    0.82    1.40
   1  11 -10    0.77    1.78
   1  11  -9   70.80    6.21
   1  11  -9   74.47    5.75
   1  11  -8  122.58    9.48
   1  11  -8  133.14   10.04
   1  11  -7    4.85    2.18
   1  11  -7    6.11    2.04
   1  11  -7    5.78    1.94
   1  11  -7    3.93    1.95
   1  11  -7    0.32    2.47
   1  11  -6   21.39    2.96
   1  11  -6   15.82    2.73
   1  11  -6   17.55    2.93
   1  11  -6   17.02    2.71
   1  11  -6   17.34    3.37
   1  11  -5   27.49    3.45
   1  11  -5   19.79    3.19
   1  11  -5   24.57    4.12
   1  11  -5   27.46    3.22
   1  11  -5   24.65    3.33
   1  11  -4   48.83    4.58
   1  11  -4   31.60    4.22
   1  11  -4   48.46    5.13
   1  11  -4   45.49    4.26
   1  11  -4   41.03    4.48
   1  11  -4   46.57    5.31
   1  11  -3    1.20    2.07
   1  11  -3    0.26    1.89
   1  11  -3    2.96    2.37
   1  11  -3    2.74    1.63
   1  11  -3    1.71    2.07
   1  11  -3    1.94    2.43
   1  11  -2  133.15    9.72
   1  11  -2  140.65   10.00
   1  11  -2  128.58    9.57
   1  11  -2  123.26    9.70
   1  11  -2  124.36   10.15
   1  11  -1    4.13    1.62
   1  11  -1    4.91    2.06
   1  11  -1    5.40    2.20
   1  11   0   41.59    4.03
   1  11   0   40.46    4.34
   1  11   1    0.23    1.99
   1  11   2    1.29    1.87
   1  11   3   20.70    2.80
   1  11   4   61.38    5.01
   1  11   4   62.64    5.06
   1  11   5   20.90    2.29
   1  12 -11    1.02    1.11
   1  12 -11   -0.14    0.88
   1  12 -11   -0.71    1.46
   1  12 -10   14.26    2.10
   1  12 -10   16.73    2.53
   1  12  -9   10.97    2.07
   1  12  -9   13.71    2.52
   1  12  -8   75.94    7.03
   1  12  -8   85.00    6.69
   1  12  -8   94.85    6.88
   1  12  -8   88.94    7.06
   1  12  -7    2.16    1.47
   1  12  -7   -0.28    2.17
   1  12  -7    2.60    1.65
   1  12  -7    0.21    1.37
   1  12  -6   28.36    3.31
   1  12  -6   22.94    2.90
   1  12  -6   23.16    3.77
   1  12  -6   26.08    3.03
   1  12  -6   17.52    2.83
   1  12  -5   17.59    2.42
   1  12  -5   17.91    2.71
   1  12  -5   19.70    3.40
   1  12  -5   14.90    2.49
   1  12  -5   10.45    2.46
   1  12  -4   67.77    5.83
   1  12  -4   74.57    6.55
   1  12  -4   64.59    5.54
   1  12  -4   67.56    5.78
   1  12  -3   60.13    5.74
   1  12  -3   62.19    5.13
   1  12  -3   58.31    5.27
   1  12  -2  177.61   11.83
   1  12  -2  159.52   12.23
   1  12  -2  165.53   11.82
   1  12  -1   97.28    7.63
   1  12  -1  109.53    7.87
   1  12   0    2.31    1.71
   1  12   1    0.54    1.52
   1  12   2   24.10    2.70
   1  12   3  131.82    9.16
   1  12   4    1.45    0.89
   1  13  -9    9.34    1.47
   1  13  -8   35.59    3.12
   1  13  -8   29.86    3.06
   1  13  -7   22.52    2.46
   1  13  -7   18.86    2.46
   1  13  -6   11.25    1.73
   1  13  -6   11.41    1.89
   1  13  -5   -0.45    1.07
   1  13  -5    0.67    1.75
   1  13  -5    0.66    1.32
   1  13  -4   36.16    3.48
   1  13  -3  166.85   11.48
   1  13  -2    0.44    1.16
   1  13  -1   34.28    3.15
   1  13   0   10.63    1.70
   1  13   1   57.44    4.43
  -2  14  -3    0.42    0.80
  -2  14  -4   39.56    3.24
  -2  13   2  133.88    9.14
  -2  13   1  139.07    9.57
  -2  13   0   -0.56    1.25
  -2  13  -1   12.05    1.82
  -2  13  -2   16.87    2.24
  -2  13  -3   69.43    5.48
  -2  13  -4   31.87    3.22
  -2  13  -5   50.92    4.67
  -2  13  -5   69.28    4.96
  -2  13  -6   17.15    2.27
  -2  13  -6   18.98    2.23
  -2  13  -7    6.37    1.48
  -2  13  -7    6.59    1.66
  -2  13  -8    1.19    1.10
  -2  13  -8    2.54    1.36
  -2  13  -8    1.72    1.05
  -2  13  -9    7.51    1.30
  -2  13  -9    5.44    1.41
  -2  12   4    2.80    1.25
  -2  12   4    4.37    1.33
  -2  12   3   87.98    6.59
  -2  12   2    1.57    1.50
  -2  12   1  286.97   19.16
  -2  12   0    2.67    1.53
  -2  12   0    2.36    1.73
  -2  12  -1   66.82    5.61
  -2  12  -1   68.26    5.61
  -2  12  -2   40.93    4.07
  -2  12  -3  124.04    9.21
  -2  12  -4   23.63    2.92
  -2  12  -4   27.89    3.17
  -2  12  -4   19.53    2.98
  -2  12  -5   59.22    5.06
  -2  12  -5   52.90    5.30
  -2  12  -5   63.67    5.14
  -2  12  -5   52.82    5.25
  -2  12  -6   61.58    5.96
  -2  12  -6   66.98    5.65
  -2  12  -6   72.15    5.60
  -2  12  -6   68.63    5.90
  -2  12  -7    7.27    1.90
  -2  12  -7    8.16    2.44
  -2  12  -7    9.80    2.12
  -2  12  -8   -0.90    1.53
  -2  12  -8   -0.78    1.70
  -2  12  -8    1.12    1.49
  -2  12  -9   11.59    2.28
  -2  12  -9   13.26    2.03
  -2  12  -9   10.97    2.03
  -2  12 -10   74.30    6.52
  -2  12 -10   77.25    6.36
  -2  11   6    1.59    1.25
  -2  11   5   13.00    2.14
  -2  11   5   11.83    1.89
  -2  11   4    1.83    1.57
  -2  11   4    1.67    1.67
  -2  11   3  165.97   11.42
  -2  11   3  153.16   11.27
  -2  11   2  162.14   11.66
  -2  11   1   67.83    5.94
  -2  11   0   14.41    2.40
  -2  11   0   14.56    2.59
  -2  11   0    9.68    2.21
  -2  11  -1    0.91    1.79
  -2  11  -1    4.86    2.03
  -2  11  -1    2.74    1.89
  -2  11  -2    3.54    2.06
  -2  11  -2    3.55    2.00
  -2  11  -2    4.62    1.94
  -2  11  -3   36.01    3.73
  -2  11  -3   23.40    3.21
  -2  11  -3   30.32    3.62
  -2  11  -3   28.31    3.76
  -2  11  -4   57.29    4.90
  -2  11  -4   45.99    4.52
  -2  11  -4   44.70    5.03
  -2  11  -4   57.24    4.88
  -2  11  -4   35.28    4.62
  -2  11  -5    8.90    2.23
  -2  11  -5    9.06    2.19
  -2  11  -5    7.49    2.46
  -2  11  -5    9.64    2.24
  -2  11  -5    6.76    2.23
  -2  11  -6   25.28    3.23
  -2  11  -6   22.89    3.69
  -2  11  -6   22.14    3.35
  -2  11  -7   26.28    3.46
  -2  11  -7   34.15    4.23
  -2  11  -7   31.22    3.91
  -2  11  -8   32.51    4.24
  -2  11  -8   36.24    3.71
  -2  11  -8   31.29    3.81
  -2  11  -9  226.75   14.88
  -2  11  -9  204.76   15.38
  -2  11  -9  212.42   15.11
  -2  11 -10   12.54    2.06
  -2  11 -10    6.13    2.23
  -2  11 -10    8.84    2.12
  -2  11 -11   70.23    6.00
  -2  11 -11   72.57    5.53
  -2  11 -11   72.80    5.86
  -2  11 -12   13.12    1.87
  -2  10   8   60.51    4.63
  -2  10   8   62.73    4.66
  -2  10   7    1.90    1.22
  -2  10   7   -0.62    1.37
  -2  10   6    0.86    1.43
  -2  10   6    3.22    1.76
  -2  10   5  135.77   10.26
  -2  10   5  152.94   10.54
  -2  10   4  183.51   13.20
  -2  10   4  191.66   13.33
  -2  10   3    2.18    2.07
  -2  10   3   -1.20    2.05
  -2  10   2  314.89   21.33
  -2  10   2  314.48   21.23
  -2  10   1   37.70    4.17
  -2  10   0   64.20    5.52
  -2  10   0   66.95    5.75
  -2  10   0   55.85    5.40
  -2  10  -1   54.32    4.77
  -2  10  -1   58.58    4.95
  -2  10  -1   53.05    4.81
  -2  10  -2  232.49   15.25
  -2  10  -2  223.80   15.20
  -2  10  -2  192.44   15.30
  -2  10  -3  434.36   25.91
  -2  10  -3  364.29   25.48
  -2  10  -3  357.42   26.07
  -2  10  -3  433.01   25.94
  -2  10  -3  349.04   25.89
  -2  10  -4  109.37    8.16
  -2  10  -4  100.47    7.91
  -2  10  -4   94.93    8.47
  -2  10  -4  114.81    8.23
  -2  10  -4   93.50    8.25
  -2  10  -5    9.21    2.26
  -2  10  -5    9.03    2.77
  -2  10  -5    4.83    2.07
  -2  10  -5   10.24    2.35
  -2  10  -5    6.12    2.20
  -2  10  -6   50.03    5.47
  -2  10  -6   50.48    4.81
  -2  10  -6   46.41    5.01
  -2  10  -7   47.52    5.40
  -2  10  -7   46.45    4.77
  -2  10  -7   55.59    5.35
  -2  10  -8  107.92    8.22
  -2  10  -8  105.35    9.05
  -2  10  -8  103.84    8.64
  -2  10  -9   64.48    6.69
  -2  10  -9   82.68    6.20
  -2  10  -9   65.81    6.34
  -2  10 -10   21.93    2.90
  -2  10 -10   25.19    3.57
  -2  10 -10   18.41    3.12
  -2  10 -11   11.06    2.00
  -2  10 -11    9.30    2.34
  -2  10 -11    7.85    2.07
  -2  10 -12   -0.62    1.36
  -2  10 -13    4.56    1.25
  -2   9   9    6.94    1.45
  -2   9   8   -2.37    1.54
  -2   9   8   -0.17    1.48
  -2   9   8    0.14    1.25
  -2   9   7   21.39    2.89
  -2   9   7   19.23    2.59
  -2   9   6  180.90   13.05
  -2   9   6  184.92   12.77
  -2   9   5   13.83    2.93
  -2   9   5    9.51    2.32
  -2   9   5   11.10    2.38
  -2   9   4  169.16   12.43
  -2   9   4  163.65   12.22
  -2   9   4  175.89   12.05
  -2   9   3  116.72    8.57
  -2   9   3   98.69    8.35
   2  -9  -2    1.46    2.63
  -2   9   2    1.22    1.93
  -2   9   2    0.25    1.95
   2  -9  -1   -2.90    3.69
  -2   9   1    5.42    2.17
  -2   9   0    5.81    2.07
   2  -9   0    1.42    3.15
  -2   9   0    4.48    1.81
  -2   9   0    6.94    4.34
  -2   9   0    6.21    2.05
  -2   9   0    8.36    2.25
   2  -9   1   66.19   10.46
  -2   9  -1   65.39    6.53
  -2   9  -1   79.32    6.39
  -2   9  -1   87.53    6.53
  -2   9  -1   63.57   10.43
  -2   9  -1   82.22    6.46
  -2   9  -2   -0.29    1.71
   2  -9   2   -2.66    2.94
  -2   9  -2    0.73    1.54
  -2   9  -2   -1.43    2.88
  -2   9  -2   -1.15    1.77
  -2   9  -2   -0.46    1.75
   2  -9   2   -1.18    2.81
   2  -9   3  125.51   15.51
   2  -9   3  136.41   15.65
  -2   9  -3  168.21   11.34
  -2   9  -3  140.64   16.85
  -2   9  -3  151.33   11.18
  -2   9  -3  157.28   11.53
  -2   9  -3  150.75   11.67
  -2   9  -3  145.81   10.94
  -2   9  -3  173.40   11.40
   2  -9   4   96.86   12.59
  -2   9  -4  125.40    8.93
  -2   9  -4   97.90   13.57
  -2   9  -4  104.21    9.00
  -2   9  -4  111.17    8.62
  -2   9  -4  121.87    9.52
  -2   9  -4  132.83    9.03
   2  -9   5   11.51    4.36
  -2   9  -5   16.06    2.60
  -2   9  -5   11.60    2.79
  -2   9  -5   14.48    2.71
  -2   9  -5   12.63    2.97
  -2   9  -5   15.79    2.46
  -2   9  -5   15.01    2.55
  -2   9  -6  158.89   12.04
  -2   9  -6  159.15   11.21
  -2   9  -6  153.70   11.63
  -2   9  -6  153.76   11.91
   2  -9   6  136.62   15.87
  -2   9  -7  290.72   20.59
  -2   9  -7  290.98   19.75
  -2   9  -7  293.28   20.21
  -2   9  -8  182.43   13.47
  -2   9  -8  174.08   12.57
  -2   9  -8  162.80   13.32
  -2   9  -8  186.32   13.16
  -2   9  -9   94.42    7.62
  -2   9  -9   90.04    8.38
  -2   9  -9  106.64    8.30
  -2   9 -10  105.87    9.02
  -2   9 -10  107.18    8.31
  -2   9 -10  115.49    8.89
  -2   9 -11    6.68    2.16
  -2   9 -12   10.24    2.35
  -2   9 -13    1.37    1.33
  -2   8  10  175.05   11.86
  -2   8   9    1.59    1.48
  -2   8   8    0.36    1.80
  -2   8   8    0.57    1.71
  -2   8   8   -0.63    1.92
  -2   8   7   14.78    2.63
  -2   8   7   15.77    2.82
  -2   8   7   12.60    2.72
  -2   8   6   33.03    3.83
  -2   8   6   30.36    3.68
  -2   8   6   32.91    4.05
  -2   8   5  145.00   11.36
  -2   8   5  138.41   11.10
  -2   8   5  172.03   11.29
  -2   8   5  161.84   11.19
  -2   8   4   35.23    4.04
   2  -8  -4   33.55    8.06
  -2   8   4   37.93    4.07
  -2   8   4   31.65    7.41
  -2   8   4   44.45    4.20
  -2   8   3  142.35   10.49
   2  -8  -3  115.98   15.87
  -2   8   3  140.05   15.74
  -2   8   3  152.32   10.32
  -2   8   3  145.55   10.24
  -2   8   2    6.08    2.12
  -2   8   2    1.24    3.52
  -2   8   2    2.26    1.80
   2  -8  -2   -1.48    3.77
   2  -8  -2   -1.35    2.97
  -2   8   1    6.01    2.04
  -2   8   1    6.15    3.52
  -2   8   1    4.71    1.98
  -2   8   1    4.18    1.58
  -2   8   1    1.18    3.97
   2  -8  -1    9.17    4.26
  -2   8   0   19.66    2.92
   2  -8   0   12.64    5.09
  -2   8   0   18.67    5.50
  -2   8   0   24.92    2.91
  -2   8   0   14.90    2.42
  -2   8   0   19.12    2.52
  -2   8  -1  184.98   14.50
  -2   8  -1  190.78   14.72
   2  -8   1  205.21   19.90
  -2   8  -1  223.17   14.60
  -2   8  -1  232.72   14.67
  -2   8  -1  233.81   20.76
  -2   8  -1  224.25   14.63
  -2   8  -2  148.47   10.21
  -2   8  -2  162.83   16.25
  -2   8  -2  127.39   10.08
  -2   8  -2  131.32   10.32
   2  -8   2  136.08   14.77
   2  -8   2  113.96   14.28
  -2   8  -2  136.33   10.48
  -2   8  -2  164.00   10.36
  -2   8  -3  139.21    9.50
  -2   8  -3  107.06   13.77
  -2   8  -3  128.93    9.66
  -2   8  -3  128.16    9.43
   2  -8   3  143.79   14.27
   2  -8   3   93.81   12.83
  -2   8  -3  120.76    9.14
  -2   8  -3  119.88    9.82
  -2   8  -3  148.28    9.63
  -2   8  -4   45.75    8.56
  -2   8  -4   55.59    4.96
   2  -8   4   65.53    8.82
  -2   8  -4   54.35    4.76
  -2   8  -4   64.34    5.67
  -2   8  -4   55.62    4.98
  -2   8  -4   55.12    5.31
  -2   8  -4   55.39    5.19
  -2   8  -4   58.43    4.98
  -2   8  -5   50.01    5.19
  -2   8  -5   50.32    5.00
  -2   8  -5   51.32    5.28
  -2   8  -5   52.31    4.56
   2  -8   5   52.83    8.32
   2  -8   6  114.19   12.67
   2  -8   6  104.03   12.53
  -2   8  -6   80.19   11.50
  -2   8  -6  112.80    8.97
  -2   8  -6  113.86    8.65
  -2   8  -6  111.46    8.97
  -2   8  -6  111.38    8.18
  -2   8  -6  100.69    8.76
  -2   8  -7  231.33   16.97
  -2   8  -7  228.48   16.88
  -2   8  -7  250.13   16.69
   2  -8   7  228.83   21.51
  -2   8  -7  222.64   16.86
  -2   8  -7  242.61   16.17
  -2   8  -7  229.16   21.79
  -2   8  -8  777.96   56.61
  -2   8  -8  940.09   56.63
  -2   8  -8  864.77   57.00
  -2   8  -8  823.21   56.75
  -2   8  -8  936.42   56.09
  -2   8  -9    1.88    2.06
  -2   8  -9    1.24    2.80
  -2   8  -9   -0.73    2.25
  -2   8  -9   -1.15    1.80
  -2   8 -10  149.60   10.81
  -2   8 -10  121.81   11.13
  -2   8 -10  139.16   10.15
  -2   8 -11   21.00    3.88
  -2   8 -11   19.48    3.19
  -2   8 -12   57.14    5.37
  -2   8 -13  132.60    9.76
  -2   8 -14    8.99    1.62
  -2   7  11   10.10    1.66
   2  -7 -11    8.43    1.59
  -2   7  10  169.65   11.75
   2  -7 -10  169.91   12.00
  -2   7   9   -0.99    1.91
  -2   7   9    0.18    1.81
   2  -7  -9    1.02    1.65
  -2   7   8   19.84    2.95
   2  -7  -8   16.73    2.87
  -2   7   7   22.32    3.29
  -2   7   7   20.89    3.40
  -2   7   6   16.38    3.11
  -2   7   6   17.74    3.17
   2  -7  -5  274.81   29.28
  -2   7   5  358.20   23.06
  -2   7   4  358.52   22.95
  -2   7   4  303.71   28.25
  -2   7   4  356.72   22.90
   2  -7  -4  290.29   29.23
  -2   7   4  336.12   22.99
  -2   7   3    6.90    4.05
  -2   7   3   10.98    2.21
  -2   7   3   11.73    2.31
   2  -7  -3    2.43    2.74
   2  -7  -3   14.25    4.83
  -2   7   3   10.85    2.23
  -2   7   2   20.56    5.37
  -2   7   2   19.24    2.55
  -2   7   2   22.04    2.72
   2  -7  -2   15.63    5.24
   2  -7  -2    9.38    4.11
   2  -7  -1  345.78   28.47
   2  -7  -1  356.29   29.05
  -2   7   1  371.15   28.48
  -2   7   1  395.31   23.09
  -2   7   1  305.02   23.29
  -2   7   1  356.13   23.05
  -2   7   1  365.91   28.50
  -2   7   1  335.76   23.01
   2  -7   0  440.13   34.81
  -2   7   0  495.21   29.42
  -2   7   0  536.27   35.27
  -2   7   0  440.68   29.84
  -2   7   0  419.27   29.60
  -2   7   0  453.50   29.49
  -2   7   0  456.71   34.88
  -2   7   0  444.52   29.49
   2  -7   1   35.21    6.51
  -2   7  -1   30.19    3.07
  -2   7  -1   26.89    3.22
  -2   7  -1   26.79    3.04
  -2   7  -1   31.82    3.46
  -2   7  -1   28.70    3.02
   2  -7   2  552.72   39.72
  -2   7  -2  542.79   34.52
  -2   7  -2  598.46   40.77
  -2   7  -2  521.49   34.53
  -2   7  -2  499.96   34.73
  -2   7  -2  566.20   35.04
  -2   7  -2  532.91   34.52
   2  -7   3   64.71    8.68
   2  -7   3   61.98    8.69
  -2   7  -3   63.47    5.21
  -2   7  -3   54.35    8.81
  -2   7  -3   72.15    5.69
  -2   7  -3   63.10    5.43
  -2   7  -3   63.16    5.18
  -2   7  -3   63.43    5.67
  -2   7  -3   61.00    4.96
  -2   7  -3   66.77    5.27
   2  -7   4   59.03    7.89
  -2   7  -4   65.57    9.04
  -2   7  -4   48.75    4.50
  -2   7  -4   56.23    4.88
  -2   7  -4   51.63    5.04
  -2   7  -4   58.70    4.64
  -2   7  -4   58.47    5.22
  -2   7  -4   55.79    4.48
  -2   7  -4   48.11    4.54
  -2   7  -5  189.15   13.11
  -2   7  -5  181.91   12.80
  -2   7  -5  184.47   12.56
  -2   7  -5  166.62   12.91
   2  -7   5  181.23   16.57
  -2   7  -5  184.83   13.14
  -2   7  -5  179.03   12.38
  -2   7  -5  164.94   16.40
  -2   7  -6  539.83   34.96
  -2   7  -6  534.76   34.46
  -2   7  -6  477.28   34.70
  -2   7  -6  566.70   34.67
   2  -7   6  480.48   38.82
   2  -7   6  607.54   39.62
  -2   7  -6  526.14   34.12
  -2   7  -6  509.77   34.83
  -2   7  -6  545.47   39.55
  -2   7  -7  338.46   22.74
   2  -7   7  300.86   26.67
  -2   7  -7  353.01   22.29
  -2   7  -7  346.51   22.11
  -2   7  -7  273.66   22.16
  -2   7  -7  330.14   22.53
  -2   7  -7  335.33   21.72
  -2   7  -7  296.07   26.66
   2  -7   8   26.58    6.14
  -2   7  -8   24.46    3.39
  -2   7  -8   20.29    3.54
  -2   7  -8   26.51    3.32
  -2   7  -8   23.92    6.18
  -2   7  -8   20.22    3.87
  -2   7  -8   24.10    3.67
  -2   7  -8   25.68    3.01
  -2   7  -9    0.91    2.19
  -2   7  -9    2.88    2.13
  -2   7  -9    5.76    3.33
  -2   7  -9    0.66    1.69
  -2   7 -10   -0.31    2.07
  -2   7 -10    2.69    1.76
  -2   7 -10    1.29    2.90
  -2   7 -10    1.34    1.69
  -2   7 -11   20.42    4.16
  -2   7 -11   26.80    3.72
  -2   7 -11   26.08    3.55
  -2   7 -12   22.69    3.99
  -2   7 -12   23.48    3.29
  -2   7 -12   25.72    3.37
  -2   7 -13  129.16    9.48
  -2   7 -13  123.11    9.46
  -2   7 -14   26.98    2.86
  -2   7 -14   23.94    2.76
   2  -6 -12   27.70    2.85
   2  -6 -11  124.71    8.94
  -2   6  11  114.84    8.56
   2  -6 -10   55.19    5.23
   2  -6  -9  408.58   26.87
  -2   6   9  391.82   26.23
  -2   6   8  169.74   12.15
   2  -6  -7   70.28   11.58
  -2   6   7   74.74    6.57
  -2   6   7   83.80   12.14
  -2   6   7   82.52    6.42
   2  -6  -7   51.22   10.21
  -2   6   6  709.37   42.29
  -2   6   6  689.82   50.01
   2  -6  -6  480.90   48.16
   2  -6  -6  508.98   48.46
  -2   6   5   57.18    9.61
  -2   6   5   79.44    6.07
   2  -6  -5   55.95   10.24
  -2   6   4   93.11    6.98
  -2   6   4   88.29    6.80
  -2   6   4  103.61   12.00
  -2   6   4   93.37   11.21
   2  -6  -3  102.94   12.31
   2  -6  -3   95.49   12.98
  -2   6   3  134.28   13.61
  -2   6   3  126.67    8.79
  -2   6   3  136.97   13.56
   2  -6  -2  340.93   27.95
   2  -6  -2  311.66   28.17
  -2   6   2  390.97   23.40
  -2   6   2  366.76   23.29
  -2   6   2  433.18   28.99
  -2   6   2  306.86   23.55
  -2   6   1  165.73   16.40
   2  -6  -1  169.47   16.65
   2  -6  -1  137.87   16.03
  -2   6   1  199.60   12.65
  -2   6   1  200.51   16.97
  -2   6   1  187.46   12.55
   2  -6   0  914.10   66.57
  -2   6   0 1003.10   67.50
  -2   6   0 1002.43   62.52
  -2   6   0 1084.40   67.30
   2  -6   0  879.64   66.82
  -2   6  -1  351.56   28.10
   2  -6   1  382.40   28.16
  -2   6  -1  364.79   23.60
   2  -6   2   13.93    4.11
   2  -6   2   16.72    4.06
  -2   6  -2   20.88    4.67
   2  -6   3   -0.79    2.01
   2  -6   3    2.19    2.45
  -2   6  -3   -0.93    2.51
   2  -6   4   55.46    7.60
   2  -6   4   67.89    8.23
  -2   6  -4   58.10    8.31
  -2   6  -4   72.26    8.22
  -2   6  -5  791.55   47.58
   2  -6   5  867.92   51.83
  -2   6  -5  765.71   47.19
  -2   6  -5  625.83   47.22
  -2   6  -5  728.78   47.21
  -2   6  -5  701.97   47.42
  -2   6  -5  752.09   46.81
  -2   6  -5  796.88   51.45
   2  -6   6   65.02    8.26
   2  -6   6   65.39    8.41
  -2   6  -6   61.76    8.37
  -2   6  -6   63.86    5.30
  -2   6  -6   46.27    5.27
  -2   6  -6   71.69    5.35
  -2   6  -6   57.30    5.45
  -2   6  -6   56.84    4.83
  -2   6  -6   71.66    5.95
  -2   6  -7  288.07   19.12
   2  -6   7  277.42   23.04
   2  -6   7  308.44   22.89
  -2   6  -7  277.00   18.47
  -2   6  -7  229.39   18.44
  -2   6  -7  252.04   18.61
  -2   6  -7  285.85   18.06
  -2   6  -7  294.26   23.44
   2  -6   8   -1.12    2.67
  -2   6  -8    1.17    2.35
  -2   6  -8    2.95    1.76
  -2   6  -8    1.49    1.93
  -2   6  -8    0.96    1.53
  -2   6  -8   -1.45    2.51
   2  -6   9   18.28    5.05
  -2   6  -9   18.30    3.02
  -2   6  -9   18.47    3.98
  -2   6  -9   23.82    2.79
  -2   6  -9   11.64    4.52
  -2   6 -10    4.90    2.29
  -2   6 -10    4.70    3.12
  -2   6 -11   87.17    7.05
  -2   6 -11   65.95    7.40
  -2   6 -12  135.70    9.95
  -2   6 -12  115.62   10.43
  -2   6 -13    3.82    1.89
  -2   6 -13    3.98    2.00
  -2   6 -14   73.96    6.02
   2  -5 -13    8.81    1.27
   2  -5 -13    9.24    1.53
   2  -5 -12   70.70    5.86
   2  -5 -11   11.03    2.60
   2  -5 -10   30.75    4.12
   2  -5  -9  124.51    9.72
  -2   5   9  118.22    9.02
  -2   5   8  449.68   37.47
  -2   5   8  475.36   29.55
  -2   5   7   33.36    7.79
  -2   5   7   29.43    3.46
   2  -5  -7   12.91    5.69
   2  -5  -7   30.28    7.14
  -2   5   6  347.96   27.26
  -2   5   6  314.83   19.85
   2  -5  -6  220.58   24.96
   2  -5  -6  236.25   25.20
  -2   5   5  133.16    9.26
  -2   5   5  136.61   14.61
   2  -5  -5  104.43   13.59
   2  -5  -5  121.47   14.31
  -2   5   4   22.61    5.61
  -2   5   4   19.65    5.13
   2  -5  -4   22.78    2.59
  -2   5   4   30.67    2.87
  -2   5   4   22.15    5.34
   2  -5  -4   27.65    5.87
   2  -5  -4   18.41    5.50
   2  -5  -3   28.76    6.19
  -2   5   3   29.62    5.73
  -2   5   3   30.54    5.94
  -2   5   3   28.02    2.87
  -2   5   3   31.94    6.01
   2  -5  -2    7.31    3.32
   2  -5  -2    3.99    2.91
  -2   5   2    8.82    3.14
  -2   5   2    7.43    1.53
  -2   5   2    6.03    2.99
  -2   5   2   12.59    3.73
   2  -5  -1  191.50   16.90
   2  -5  -1  215.11   17.59
  -2   5   1  215.49   17.11
  -2   5   1  197.03   13.35
  -2   5   1  217.74   17.45
  -2   5   1  203.39   13.43
  -2   5   1  203.83   16.96
   2  -5   0  395.51   29.10
   2  -5   0  357.37   28.57
  -2   5   0  384.31   25.20
  -2   5   0  440.88   29.05
  -2   5   0  421.02   29.15
  -2   5   0  394.49   29.02
   2  -5   0  402.70   28.98
  -2   5  -1   96.75    9.84
   2  -5   1   88.35    9.98
   2  -5   1  103.87    9.79
   2  -5   2    4.13    2.40
  -2   5  -2    6.23    2.81
  -2   5  -2    6.67    3.29
   2  -5   2    7.26    2.87
   2  -5   3   60.64    7.28
   2  -5   3   68.63    7.59
  -2   5  -3   60.39    7.71
  -2   5  -3   55.67    7.65
  -2   5  -3   71.04    7.27
   2  -5   4    0.63    2.19
  -2   5  -4    0.63    2.05
  -2   5  -4    4.40    1.66
  -2   5  -4    1.58    2.13
   2  -5   4    0.64    1.82
   2  -5   5 1089.23   70.86
  -2   5  -5 1057.81   67.80
  -2   5  -5 1055.79   70.93
   2  -5   6  175.44   13.65
   2  -5   6  130.52   13.00
  -2   5  -6  154.27   10.49
  -2   5  -6  123.45   12.89
  -2   5  -6  117.24    9.96
  -2   5  -6  145.18    9.98
   2  -5   7  170.96   14.56
   2  -5   7  155.93   14.79
  -2   5  -7  154.74   11.02
  -2   5  -7  138.88   11.10
  -2   5  -7  157.06   11.58
  -2   5  -7  172.94   15.41
  -2   5  -8    6.69    2.01
  -2   5  -8    4.38    2.97
   2  -5   8    5.16    2.95
  -2   5  -8    2.75    2.30
  -2   5  -9  109.96    9.62
  -2   5  -9  130.96    8.99
   2  -5   9   84.82   11.84
  -2   5  -9  108.75    8.23
  -2   5  -9  102.75   12.96
  -2   5 -10   44.83    4.52
  -2   5 -10   37.04    5.14
   2  -5  11   25.46    3.76
  -2   5 -11   29.71    4.54
  -2   5 -11   28.58    3.81
   2  -5  12  225.53   15.95
   2  -5  13   94.12    7.58
   2  -5  14   40.80    4.05
  -2   5 -14   45.82    4.30
   2  -4 -13    2.89    1.36
   2  -4 -13    0.79    1.03
   2  -4 -12   33.42    3.97
   2  -4 -12   34.22    3.88
   2  -4 -11   14.59    3.22
   2  -4 -11   19.22    3.23
   2  -4 -10   24.50    3.75
   2  -4 -10   27.06    3.74
   2  -4  -9    1.03    2.18
   2  -4  -8  175.17   20.52
   2  -4  -8  206.51   15.06
   2  -4  -8  197.45   21.51
   2  -4  -8  218.94   14.38
  -2   4   8  186.13   20.77
   2  -4  -7  166.15   19.54
   2  -4  -7  179.29   19.68
   2  -4  -7  138.26   18.90
  -2   4   7  232.28   21.58
  -2   4   7  234.15   14.47
   2  -4  -7  210.79   14.32
   2  -4  -6  397.31   38.23
   2  -4  -6  495.40   39.46
   2  -4  -6  483.71   39.57
  -2   4   6  535.15   33.54
   2  -4  -6  520.71   33.48
   2  -4  -5  182.13   17.90
   2  -4  -5  193.63   18.27
  -2   4   5  193.39   13.19
  -2   4   5  229.94   19.13
   2  -4  -4  203.56   17.65
   2  -4  -4  192.72   17.06
  -2   4   4  183.48   12.58
  -2   4   4  201.36   17.19
  -2   4   4  185.81   16.12
   2  -4  -3   92.08    9.84
   2  -4  -3  110.17   11.28
   2  -4  -3  103.24   10.56
  -2   4   3  125.10   11.56
  -2   4   3  135.37   11.64
  -2   4   3   97.31    7.21
  -2   4   3  108.10   10.42
  -2   4   2   12.03    3.43
  -2   4   2   15.55    3.97
  -2   4   2   14.01    3.93
   2  -4  -2   16.99    3.75
   2  -4  -2   22.92    4.85
  -2   4   1 1660.33  107.61
  -2   4   1 1742.61  107.07
   2  -4  -1 1760.54  107.58
   2  -4  -1 1464.00  107.19
  -2   4   0    2.45    2.47
   2  -4   0    0.57    1.91
   2  -4   0    0.56    2.33
   2  -4   0    3.81    2.25
  -2   4  -1   64.74    7.33
   2  -4   1   71.58    7.20
   2  -4   1   62.58    7.21
   2  -4   2  314.48   23.90
   2  -4   2  366.06   24.36
   2  -4   2  308.20   24.22
  -2   4  -2  331.42   24.68
  -2   4  -2  353.47   23.64
  -2   4  -3  320.85   25.58
   2  -4   3  341.21   24.83
   2  -4   3  344.79   24.91
   2  -4   3  385.74   25.37
  -2   4  -4 1502.77   95.31
   2  -4   4 1505.41   97.70
   2  -4   4 1537.10   97.87
  -2   4  -5  234.74   15.50
   2  -4   5  208.08   17.70
   2  -4   5  219.22   17.64
  -2   4  -6  546.43   34.51
   2  -4   6  530.93   37.16
   2  -4   6  472.02   37.02
  -2   4  -7  209.67   14.00
  -2   4  -7  199.00   14.49
   2  -4   7  211.63   17.28
   2  -4   7  176.75   16.94
  -2   4  -8   19.83    3.46
   2  -4   8   19.99    4.78
   2  -4   9    3.03    2.05
  -2   4  -9    2.94    2.50
   2  -4   9    1.08    2.38
   2  -4  10  375.09   24.65
  -2   4 -10  351.15   25.22
   2  -4  10  355.64   29.62
   2  -4  11  174.90   12.88
   2  -4  12    3.39    2.28
   2  -4  13   72.69    6.36
   2  -4  14   31.88    3.53
  -2   4 -15   42.09    3.67
   2  -4  15   38.31    3.45
   2  -3 -14   91.29    6.43
   2  -3 -14   89.36    6.65
   2  -3 -13   69.73    5.05
   2  -3 -13   57.16    5.56
   2  -3 -13   55.84    5.25
   2  -3 -12    9.85    2.72
   2  -3 -12   10.68    2.55
   2  -3 -11   12.95    3.10
   2  -3 -11   13.86    2.86
   2  -3 -10  239.22   18.32
   2  -3 -10  264.62   17.59
   2  -3 -10  265.58   18.25
   2  -3  -9  552.01   33.70
  -2   3   9  548.25   42.13
   2  -3  -9  486.03   34.30
   2  -3  -8   -3.00    3.30
  -2   3   8   -1.13    2.50
  -2   3   8    2.81    3.79
   2  -3  -8    1.52    1.57
   2  -3  -8   -0.92    2.02
   2  -3  -8   -1.53    3.90
   2  -3  -7  927.32   66.67
   2  -3  -7  904.16   67.31
  -2   3   7  987.51   66.23
   2  -3  -7  954.73   60.67
  -2   3   7 1069.83   68.34
   2  -3  -7  952.42   67.83
   2  -3  -7  942.64   61.30
   2  -3  -6    1.04    2.95
  -2   3   6   -0.88    2.73
   2  -3  -6   -4.39    3.83
   2  -3  -6   -0.15    1.08
  -2   3   6    1.08    3.08
   2  -3  -6   -0.45    1.61
   2  -3  -6    1.13    3.04
   2  -3  -5  649.40   42.56
   2  -3  -5  686.90   42.78
  -2   3   5  538.72   36.94
  -2   3   5  685.56   42.97
   2  -3  -5  586.40   37.42
   2  -3  -5  642.14   42.62
   2  -3  -4  208.07   16.32
   2  -3  -4  203.89   16.46
  -2   3   4  169.81   12.02
  -2   3   4  208.13   16.54
   2  -3  -4  211.18   16.56
   2  -3  -3 1808.34  124.88
   2  -3  -3 1943.17  125.66
   2  -3  -3 2105.27  126.74
  -2   3   3 1947.61  126.09
  -2   3   3 2038.77  125.28
   2  -3  -3 1924.06  125.84
   2  -3  -2  955.37   66.35
   2  -3  -2 1025.02   67.37
  -2   3   2 1022.85   67.62
  -2   3   2 1066.79   67.31
  -2   3   2 1102.23   66.74
  -2   3   2 1002.01   66.51
   2  -3  -2  963.10   66.51
  -2   3   1  178.75   14.15
   2  -3  -1  185.90   14.36
   2  -3  -1  193.43   14.80
  -2   3   1  177.46   14.52
  -2   3   1  179.38   14.88
  -2   3   1  198.44   14.39
  -2   3   0   16.65    3.47
   2  -3   0   23.11    3.49
  -2   3   0   14.95    3.14
  -2   3   0   19.78    3.98
   2  -3   0   16.60    3.46
   2  -3   0   18.96    3.50
   2  -3   1  618.62   42.77
   2  -3   1  686.39   43.45
  -2   3  -1  644.29   43.50
  -2   3  -1  683.96   43.82
   2  -3   1  621.00   43.14
   2  -3   2 2014.00  131.10
   2  -3   2 2178.20  130.98
  -2   3  -2 1948.41  131.87
  -2   3  -2 2042.99  131.69
   2  -3   2 2064.71  131.04
  -2   3  -3  187.18   14.93
  -2   3  -3  148.36   13.12
   2  -3   3  174.34   13.10
   2  -3   3  156.59   12.85
   2  -3   3  173.40   13.12
  -2   3  -4 1514.97  102.73
   2  -3   4 1590.42  100.40
  -2   3  -4 1461.50  101.22
   2  -3   4 1635.23  100.41
   2  -3   4 1553.60  100.47
   2  -3   5  492.77   33.29
   2  -3   5  467.75   33.25
  -2   3  -5  441.06   35.85
  -2   3  -5  481.73   31.02
   2  -3   6  168.31   13.15
   2  -3   6  133.99   12.56
  -2   3  -6  144.23   10.57
  -2   3  -6  142.17   15.78
   2  -3   7   60.66    7.75
   2  -3   7   71.64    8.22
  -2   3  -7   77.84    6.12
  -2   3  -7   50.57    9.95
   2  -3   7   62.90    5.43
   2  -3   8   49.35    6.92
   2  -3   8   29.29    5.59
  -2   3  -8   36.63    4.28
  -2   3  -8   32.75    8.33
   2  -3   8   35.57    3.83
   2  -3   9  315.99   27.02
  -2   3  -9  350.04   23.63
  -2   3  -9  308.43   32.06
   2  -3   9  347.40   23.06
   2  -3  10   46.43    4.77
   2  -3  10   34.26    6.72
   2  -3  11  159.54   11.98
   2  -3  12   16.00    3.32
   2  -3  13   13.44    2.90
   2  -3  14    5.15    1.85
  -2   3 -15   62.25    4.70
   2  -3  15   51.08    4.37
   2  -2 -14    3.60    1.20
   2  -2 -14    2.58    1.59
   2  -2 -13    4.75    1.61
   2  -2 -13    4.28    2.17
   2  -2 -12   69.77    6.84
   2  -2 -12   72.92    6.11
   2  -2 -12   78.17    6.62
   2  -2 -11  382.66   28.53
   2  -2 -11  432.65   27.83
   2  -2 -11  441.84   28.44
  -2   2  10  154.59   18.19
   2  -2 -10  141.77   19.25
   2  -2 -10  177.59   14.28
   2  -2 -10  203.13   13.58
   2  -2 -10  219.16   14.28
  -2   2   9  246.52   22.07
   2  -2  -9  252.53   16.46
  -2   2   9  240.15   23.27
   2  -2  -9  234.98   17.18
   2  -2  -9  193.68   22.41
  -2   2   8  248.03   20.87
  -2   2   8  245.63   23.29
   2  -2  -8  237.37   15.86
  -2   2   8  216.62   21.59
   2  -2  -8  257.93   23.00
   2  -2  -8  225.98   16.48
   2  -2  -7   72.02    9.21
   2  -2  -7   79.20   10.41
  -2   2   7   58.95    8.49
   2  -2  -7   72.97    5.54
  -2   2   7   70.77   10.54
   2  -2  -7   40.50    9.15
  -2   2   7   81.36   10.47
   2  -2  -7   81.33    6.25
   2  -2  -7   67.72    9.89
  -2   2   6  642.54   45.62
   2  -2  -6  656.76   46.38
   2  -2  -6  673.69   45.70
  -2   2   6  693.19   45.29
  -2   2   6  699.92   47.07
   2  -2  -6  471.65   45.85
  -2   2   6  666.04   46.22
   2  -2  -6  637.02   41.34
   2  -2  -6  644.85   46.22
  -2   2   5   -0.74    2.01
   2  -2  -5    1.52    2.56
  -2   2   5    0.67    1.99
   2  -2  -5    0.81    2.64
  -2   2   5    5.87    3.62
   2  -2  -5    2.03    2.89
  -2   2   5    1.62    2.62
   2  -2  -5    1.64    2.44
   2  -2  -5    0.52    1.32
   2  -2  -4 2998.98  175.39
   2  -2  -4 2730.45  175.01
  -2   2   4 3058.83  175.27
  -2   2   4 2688.96  174.30
  -2   2   4 2609.48  174.90
  -2   2   4 2554.22  174.90
   2  -2  -4 2396.17  175.40
   2  -2  -4 2881.32  175.22
   2  -2  -3    7.31    2.94
  -2   2   3    6.82    2.58
  -2   2   3    9.76    2.41
  -2   2   3    5.81    2.85
   2  -2  -3    9.42    3.33
  -2   2   3    3.96    2.54
  -2   2   3    8.97    2.50
   2  -2  -3    7.97    2.79
   2  -2  -2  180.03   13.33
   2  -2  -2  149.95   12.14
  -2   2   2  178.63   13.14
   2  -2  -2  160.85   12.62
  -2   2   2  183.46   12.99
  -2   2   2  142.76   12.50
  -2   2   2  134.68   12.92
  -2   2   2  173.13   13.23
  -2   2   2  166.31   12.33
  -2   2   1  193.84   15.43
   2  -2  -1  198.67   15.10
   2  -2  -1  222.98   15.68
  -2   2   1  211.22   15.69
  -2   2   1  213.20   14.96
   2  -2  -1  204.92   14.94
  -2   2   1  225.51   16.16
   2  -2  -1  199.67   15.67
   2  -2   0    6.14    1.96
   2  -2   0    0.79    1.32
  -2   2   0    2.48    2.04
  -2   2   0    1.78    2.04
  -2   2   0    5.36    2.01
  -2   2   0    2.17    2.07
   2  -2   0    1.49    1.65
   2  -2   0    1.31    1.73
   2  -2   1   16.81    2.62
  -2   2  -1   17.96    2.73
  -2   2  -1   16.60    3.28
  -2   2  -1   19.50    3.82
  -2   2  -1   18.69    3.39
  -2   2  -1   14.67    3.21
   2  -2   1   16.44    2.96
   2  -2   1   16.48    2.83
   2  -2   2  368.47   25.88
  -2   2  -2  366.24   26.37
   2  -2   2  393.48   26.33
  -2   2  -2  382.98   27.26
  -2   2  -2  398.88   26.96
   2  -2   2  389.20   26.33
   2  -2   3  653.51   44.44
  -2   2  -3  662.59   45.41
   2  -2   3  634.62   44.39
  -2   2  -3  692.93   46.38
  -2   2  -3  709.29   46.88
   2  -2   3  726.45   44.96
  -2   2  -4  890.76   59.88
  -2   2  -4  787.35   58.08
   2  -2   4  866.01   56.89
   2  -2   4  873.43   57.00
   2  -2   4  831.34   56.77
   2  -2   4  969.01   57.69
   2  -2   5  514.15   36.45
  -2   2  -5  505.31   38.33
   2  -2   5  592.93   37.04
  -2   2  -5  532.58   34.53
  -2   2  -5  555.23   40.26
   2  -2   5  519.15   37.13
  -2   2  -6   83.44    6.59
  -2   2  -6   65.39    9.69
   2  -2   6   93.11    8.87
   2  -2   6   85.14    8.52
  -2   2  -6   74.52   11.04
   2  -2   7   32.10    3.49
  -2   2  -7   39.78    3.94
  -2   2  -7   41.12    8.47
   2  -2   7   30.63    5.26
   2  -2   7   39.80    5.68
   2  -2   8    3.94    1.87
  -2   2  -8    5.61    4.76
   2  -2   8    3.43    2.46
   2  -2   8    5.04    2.74
   2  -2   9  456.35   29.92
  -2   2  -9  438.27   40.32
   2  -2   9  443.88   34.07
   2  -2  10   83.14    7.12
   2  -2  11  158.38   11.89
   2  -2  12    2.21    2.55
   2  -2  13    1.43    2.23
   2  -2  14   20.16    2.69
   2  -1 -15   16.80    1.75
   2  -1 -15   11.47    1.53
   2  -1 -14   12.14    2.00
   2  -1 -14   13.64    1.91
   2  -1 -13   -0.65    2.08
   2  -1 -13    0.85    1.75
   2  -1 -13   -0.57    1.38
   2  -1 -12   63.91    5.52
   2  -1 -12   55.28    6.09
   2  -1 -11   40.67    4.28
   2  -1 -11   41.60    4.97
  -2   1  10  196.09   18.69
  -2   1  10  150.34   19.93
   2  -1 -10  192.23   12.82
   2  -1 -10  174.61   19.75
   2  -1 -10  184.53   13.57
  -2   1   9   39.14    7.80
  -2   1   9   48.22    7.77
   2  -1  -9   35.31    3.66
  -2   1   9   30.72    8.45
   2  -1  -9   29.89    8.54
   2  -1  -9   46.98    4.67
   2  -1  -9   23.47    6.61
  -2   1   8  131.22   14.45
  -2   1   8  123.21   13.01
   2  -1  -8  136.53    8.96
  -2   1   8  115.62   14.88
   2  -1  -8   94.26   14.74
  -2   1   8  118.19   13.68
   2  -1  -8  114.59    9.43
   2  -1  -8  123.69   14.26
  -2   1   7   69.27    8.46
  -2   1   7   69.38    9.42
  -2   1   7   62.31    8.90
  -2   1   7   55.26    9.43
   2  -1  -7   63.73   10.64
   2  -1  -7   70.73    5.78
   2  -1  -7   80.10   10.15
  -2   1   6  168.55   13.86
   2  -1  -6  150.21   13.76
  -2   1   6  158.20   14.76
  -2   1   6  155.64   15.38
   2  -1  -6  134.18   15.51
  -2   1   6  132.68   13.80
   2  -1  -6  155.83   14.51
   2  -1  -6  155.42   10.81
  -2   1   5  425.92   32.15
  -2   1   5  518.63   31.81
   2  -1  -5  450.95   31.76
  -2   1   5  458.15   33.06
   2  -1  -5  396.85   33.12
  -2   1   5  405.10   31.70
   2  -1  -5  431.47   31.99
  -2   1   4  735.93   52.37
   2  -1  -4  738.97   51.95
  -2   1   4  832.66   51.93
  -2   1   4  746.71   52.82
   2  -1  -4  696.33   53.28
  -2   1   4  877.97   52.74
   2  -1  -4  766.73   52.31
  -2   1   4  812.70   51.74
  -2   1   3  123.42   12.10
  -2   1   3  147.75   11.78
   2  -1  -3  145.70   12.27
   2  -1  -3  153.30   12.26
  -2   1   3  156.91   12.08
  -2   1   3  170.09   12.60
  -2   1   3  162.02   13.06
   2  -1  -3  155.44   13.22
   2  -1  -2    5.94    2.01
  -2   1   2    9.31    2.60
  -2   1   2    7.53    2.38
   2  -1  -2    7.97    2.33
  -2   1   2    8.03    2.10
  -2   1   2   10.40    2.77
   2  -1  -2    9.21    2.93
   2  -1  -2    6.26    1.59
  -2   1   1   16.48    3.07
  -2   1   1   13.11    2.18
   2  -1  -1   14.72    1.93
   2  -1  -1   11.62    2.54
  -2   1   1   15.26    2.68
  -2   1   1   16.22    2.89
   2  -1  -1   13.60    2.44
   2  -1  -1   10.51    2.71
  -2   1   1   12.75    2.68
   2  -1  -1   15.51    2.29
   2  -1  -1   13.92    2.52
   2  -1   0  770.50   48.96
  -2   1   0  719.89   48.78
   2  -1   0  730.76   48.31
  -2   1   0  794.43   49.97
   2  -1   0  758.72   48.89
  -2   1   0  787.06   49.86
  -2   1   0  777.21   49.57
  -2   1   0  763.72   49.44
   2  -1   0  737.54   49.05
   2  -1   1  145.31   11.04
   2  -1   1  146.34   11.02
  -2   1  -1  158.78   12.40
  -2   1  -1  159.15   11.79
   2  -1   1  156.03   11.47
  -2   1  -1  141.60   12.14
  -2   1  -1  167.87   12.51
  -2   1  -1  148.97   11.83
   2  -1   1  167.68   11.71
  -2   1  -2   31.32    4.62
  -2   1  -2   29.97    4.13
   2  -1   2   32.66    3.58
   2  -1   2   27.66    3.56
  -2   1  -2   20.92    3.98
   2  -1   2   35.20    3.91
   2  -1   3  825.53   52.47
  -2   1  -3  782.85   53.74
   2  -1   3  780.83   52.43
   2  -1   3  767.57   52.01
  -2   1  -3  752.02   54.00
  -2   1  -3  875.39   55.09
   2  -1   3  869.66   53.05
   2  -1   4   17.55    3.27
  -2   1  -4   12.72    3.81
   2  -1   4   14.40    2.67
  -2   1  -4    9.68    3.39
  -2   1  -4   17.75    4.87
   2  -1   4   12.94    3.13
   2  -1   4   13.59    2.81
  -2   1  -5   48.59    4.30
  -2   1  -5   63.36    8.92
  -2   1  -5   48.79    7.36
   2  -1   5   53.64    6.17
   2  -1   5   50.59    5.63
  -2   1  -6    2.25    1.58
  -2   1  -6    5.34    3.99
  -2   1  -6   -1.06    3.03
   2  -1   6    3.15    2.20
   2  -1   6   -0.56    1.51
   2  -1   7   10.38    2.03
  -2   1  -7   13.86    2.04
  -2   1  -7    8.09    4.66
   2  -1   7   14.32    3.60
  -2   1  -7    8.96    4.66
  -2   1  -8  221.56   15.85
   2  -1   8  228.64   15.86
  -2   1  -8  231.97   24.66
   2  -1   8  283.22   20.71
  -2   1  -9   90.32    7.44
   2  -1   9   96.77    7.51
  -2   1  -9   72.62   13.63
   2  -1  10  454.28   29.45
  -2   1 -10  430.17   29.42
   2  -1  11   13.90    2.92
  -2   1 -11    8.59    2.40
   2  -1  12    3.90    2.36
   2  -1  13    8.90    2.42
   2  -1  14  151.47   10.61
   2   0 -15   17.21    1.98
   2   0 -15   15.71    2.05
   2   0 -15   15.70    1.89
   2   0 -14   12.61    2.31
   2   0 -14   10.37    1.88
   2   0 -14   17.62    2.14
   2   0 -14   11.32    2.37
   2   0 -13    5.66    2.51
   2   0 -13    7.32    2.16
   2   0 -13    4.72    1.73
   2   0 -12  238.25   18.51
   2   0 -12  263.40   17.75
   2   0 -12  280.10   18.10
   2   0 -11   24.13    4.05
   2   0 -11   39.26    3.93
   2   0 -10  569.58   36.27
   2   0 -10  534.17   43.27
  -2   0  10  487.73   45.04
   2   0 -10  400.49   43.91
   2   0 -10  560.22   35.47
  -2   0  10  525.99   43.28
  -2   0  10  545.95   41.45
   2   0  -9   14.52    2.82
   2   0  -9   23.06    5.91
   2   0  -9   12.37    2.09
  -2   0   9    6.84    5.40
   2   0  -9    7.76    5.58
  -2   0   9   12.74    4.35
   2   0  -8    7.98    2.19
   2   0  -8    2.32    3.49
   2   0  -8   10.10    1.87
  -2   0   8   12.38    4.34
  -2   0   8    4.50    2.84
   2   0  -8    9.94    5.39
  -2   0   8   10.21    4.93
   2   0  -8    5.33    1.46
  -2   0   7   31.67    6.33
  -2   0   7   32.41    5.28
  -2   0   7   29.41    6.99
   2   0  -7   20.82    6.55
   2   0  -7   35.98    3.50
   2   0  -7   26.34    5.70
  -2   0   6  772.59   53.70
   2   0  -6  698.01   51.86
  -2   0   6  821.10   52.23
   2   0  -6  730.31   54.86
  -2   0   6  700.82   54.03
   2   0  -6  796.92   49.15
   2   0  -6  754.28   53.01
  -2   0   5 1466.93  107.78
   2   0  -5 1657.20  107.03
  -2   0   5 1656.98  106.67
  -2   0   5 1573.50  108.61
   2   0  -5 1745.31  109.83
  -2   0   5 1752.58  107.49
   2   0  -5 1625.95  107.64
  -2   0   5 1772.36  107.37
   2   0  -4  165.73   13.46
  -2   0   4  149.24   13.93
  -2   0   4  160.40   13.01
  -2   0   4  166.06   14.72
  -2   0   4  194.90   13.85
   2   0  -4  168.16   15.06
  -2   0   4  186.54   13.73
   2   0  -4  161.74   13.73
  -2   0   4  176.23   13.74
   2   0  -3  918.15   62.11
  -2   0   3  856.25   61.36
  -2   0   3 1075.86   63.23
  -2   0   3  989.49   62.27
   2   0  -3  900.23   62.13
  -2   0   3  931.53   62.24
   2   0  -3  983.69   63.60
  -2   0   3 1048.05   62.07
   2   0  -2 1261.39   84.08
  -2   0   2 1368.67   85.81
  -2   0   2 1208.61   84.39
   2   0  -2 1351.98   85.25
  -2   0   2 1406.51   85.55
  -2   0   2 1427.39   85.82
  -2   0   2 1368.05   85.35
   2   0  -2 1368.58   86.26
   2   0  -2 1365.61   84.74
   2   0  -1  568.84   41.13
   2   0  -1  590.45   40.55
  -2   0   1  755.19   42.83
  -2   0   1  642.59   41.97
   2   0  -1  647.44   41.97
  -2   0   1  654.71   42.40
  -2   0   1  713.01   42.58
  -2   0   1  649.97   41.81
   2   0  -1  696.57   42.99
   2   0  -1  672.84   41.56
   2   0   0    5.47    1.32
  -2   0   0    7.68    2.23
  -2   0   0    8.43    2.12
  -2   0   0    5.83    1.87
  -2   0   0    7.90    2.55
  -2   0   0    7.36    1.92
   2   0   0    7.61    1.77
   2   0   0    7.29    1.77
   2   0   1 1648.40  102.20
  -2   0  -1 1632.47  103.41
   2   0   1 1579.69  102.56
  -2   0  -1 1663.89  103.62
  -2   0  -1 1761.41  103.84
  -2   0  -1 1615.00  103.21
  -2   0  -1 1458.82  102.64
   2   0   1 1619.28  102.63
   2   0   2 1033.20   66.38
  -2   0  -2 1050.05   67.86
   2   0   2  947.24   66.50
  -2   0  -2 1025.69   67.33
  -2   0  -2 1110.48   68.13
  -2   0  -2  961.64   67.11
  -2   0  -2 1160.08   68.84
   2   0   2 1072.46   66.93
  -2   0  -3    3.08    2.30
   2   0   3    3.70    1.96
  -2   0  -3    5.29    2.71
  -2   0  -3    6.09    2.86
  -2   0  -3    2.94    2.66
   2   0   3    6.96    2.27
   2   0   3    4.36    1.91
  -2   0  -4  254.77   22.97
  -2   0  -4  301.53   22.47
  -2   0  -4  293.28   23.22
   2   0   4  300.05   21.45
   2   0   4  275.49   21.39
  -2   0  -5  103.66   12.01
  -2   0  -5  101.03   10.95
  -2   0  -5   78.09    9.41
   2   0   5  100.48    9.19
   2   0   5   83.84    8.62
  -2   0  -6  960.96   65.45
   2   0   6  946.16   61.43
  -2   0  -6  893.10   63.27
   2   0   6 1047.30   61.37
  -2   0  -6  850.41   57.61
   2   0   7   79.26    6.45
  -2   0  -7   82.70    6.56
  -2   0  -7   89.88   13.21
   2   0   7   67.87    8.97
  -2   0  -7   96.03   12.20
  -2   0  -7   89.26    6.83
  -2   0  -8  435.16   28.87
   2   0   8  419.10   28.63
  -2   0  -8  415.83   37.99
  -2   0  -8  447.13   29.10
  -2   0  -8  410.61   35.95
   2   0   8  518.10   34.05
   2   0   9  236.70   16.60
  -2   0  -9  227.25   16.76
  -2   0  -9  257.99   17.15
   2   0   9  245.70   21.74
  -2   0 -10    8.03    2.43
   2   0  10    5.78    2.41
  -2   0 -10    6.38    2.49
  -2   0 -11    4.66    2.21
   2   0  11    5.26    2.38
  -2   0 -12   78.77    6.78
   2   0  12   77.06    6.56
   2   0  13  181.96   12.52
  -2   0 -13  175.02   12.64
   2   0  14    0.28    1.17
   2   1 -15    3.55    1.25
   2   1 -15    5.46    1.51
   2   1 -15    3.14    1.14
   2   1 -14  300.37   19.82
   2   1 -14  317.24   19.69
   2   1 -14  271.47   19.56
   2   1 -13   58.23    5.26
   2   1 -13   58.67    4.94
   2   1 -13   60.65    5.02
   2   1 -13   46.19    5.43
   2   1 -12  450.32   32.58
   2   1 -12  519.02   33.03
   2   1 -12  494.81   32.16
   2   1 -12  492.53   31.87
   2   1 -11  907.11   59.35
   2   1 -11  967.60   58.50
  -2  -1  11  817.26   69.26
   2   1 -11  636.33   67.54
   2   1 -11  973.31   58.78
  -2  -1  11  699.73   65.87
  -2  -1  11  830.04   64.62
   2   1 -10   11.96    2.82
   2   1 -10   18.66    2.21
  -2  -1  10   17.96    6.15
  -2  -1  10   18.73    5.16
   2   1 -10   19.46    2.72
  -2  -1  10    9.81    5.95
   2   1 -10   14.92    6.73
  -2  -1   9   18.77    5.64
  -2  -1   9   17.22    4.71
   2   1  -9   16.97    2.95
   2   1  -9   20.04    2.38
  -2  -1   9   29.16    7.81
   2   1  -9   16.73    6.59
   2   1  -8  755.78   44.38
   2   1  -8  686.95   43.81
   2   1  -8  660.43   43.96
  -2  -1   8  660.27   50.27
  -2  -1   8  736.27   48.40
  -2  -1   8  714.84   52.16
   2   1  -8  690.06   52.42
   2   1  -8  651.98   43.62
  -2  -1   7  961.49   80.02
  -2  -1   7 1251.83   79.05
  -2  -1   7 1185.56   82.30
   2   1  -7 1207.42   82.95
   2   1  -7 1195.83   80.26
   2   1  -7 1209.96   75.62
  -2  -1   7 1247.85   79.75
   2   1  -6  140.21   12.36
  -2  -1   6  107.57   13.05
  -2  -1   6  145.77   12.30
  -2  -1   6  141.89   14.58
   2   1  -6  133.36   14.62
   2   1  -6  148.94   10.01
  -2  -1   6  150.17   13.22
   2   1  -6  146.81   13.28
   2   1  -5  387.97   28.43
  -2  -1   5  376.31   29.60
  -2  -1   5  412.85   28.19
   2   1  -5  416.27   31.04
  -2  -1   5  444.97   31.10
  -2  -1   5  405.64   29.34
   2   1  -4  844.66   57.80
  -2  -1   4  898.01   58.95
  -2  -1   4  873.97   57.11
  -2  -1   4  854.93   59.39
   2   1  -4  989.43   60.14
  -2  -1   4  850.52   58.49
  -2  -1   3  114.72    9.69
   2   1  -3   94.88    8.75
  -2  -1   3   87.78    9.10
  -2  -1   3  114.54    9.68
   2   1  -3  118.36   10.42
   2   1  -2   61.75    5.11
  -2  -1   2   64.85    6.44
  -2  -1   2   52.60    6.19
  -2  -1   2   80.38    6.81
  -2  -1   2   66.31    5.61
   2   1  -2   72.25    7.19
   2   1  -2   54.25    5.00
   2   1  -1  418.43   28.76
  -2  -1   1  460.96   29.78
  -2  -1   1  405.26   29.74
  -2  -1   1  468.13   30.26
  -2  -1   1  438.53   29.68
   2   1  -1  499.19   30.93
  -2  -1   1  419.46   28.56
   2   1  -1  434.17   28.59
   2   1   0 2275.91  144.80
   2   1   0 2258.98  144.23
  -2  -1   0 2504.04  145.59
  -2  -1   0 2207.21  145.69
  -2  -1   0 2361.62  145.30
  -2  -1   0 2463.98  146.02
  -2  -1   0 2204.34  144.36
   2   1   0 2221.57  144.52
  -2  -1  -1  303.52   23.23
  -2  -1  -1  333.34   22.73
  -2  -1  -1  319.11   23.52
   2   1   1  303.84   22.10
   2   1   1  329.27   22.68
  -2  -1  -1  346.53   23.28
   2   1   1  362.23   22.69
   2   1   2  300.37   20.80
   2   1   2  295.06   21.13
  -2  -1  -2  289.51   22.17
  -2  -1  -2  321.76   22.29
  -2  -1  -2  277.06   21.74
  -2  -1  -2  306.44   21.63
  -2  -1  -2  289.11   22.38
   2   1   2  298.23   21.16
  -2  -1  -3  424.72   28.85
  -2  -1  -3  348.48   27.50
  -2  -1  -3  358.14   26.99
  -2  -1  -3  395.37   28.17
   2   1   3  420.99   27.07
   2   1   3  345.19   26.29
  -2  -1  -3  388.22   27.87
   2   1   4  208.56   15.12
  -2  -1  -4  165.79   15.71
  -2  -1  -4  161.91   15.84
  -2  -1  -4  204.03   17.55
  -2  -1  -5   70.90    8.96
  -2  -1  -5   56.68    8.58
   2   1   5   78.18    7.83
   2   1   5   52.95    7.40
  -2  -1  -5   64.31    9.49
  -2  -1  -6  698.41   45.69
   2   1   6  694.81   45.47
  -2  -1  -6  687.95   52.92
   2   1   6  821.07   50.55
  -2  -1  -6  666.84   50.63
  -2  -1  -6  680.32   51.36
   2   1   6  798.15   49.83
  -2  -1  -6  721.81   45.95
   2   1   7  399.41   27.78
  -2  -1  -7  417.52   28.08
  -2  -1  -7  435.39   36.72
   2   1   7  496.75   33.05
  -2  -1  -7  418.03   34.59
  -2  -1  -7  457.03   28.43
   2   1   8   47.05    4.15
  -2  -1  -8   34.48    3.95
  -2  -1  -8   51.58   10.52
  -2  -1  -8   24.11    7.03
   2   1   8   41.42    7.18
  -2  -1  -8   33.14    4.22
  -2  -1  -9   99.41    8.06
   2   1   9   86.82    7.59
  -2  -1  -9  116.38    8.62
   2   1   9   80.66   12.57
  -2  -1 -10   15.55    3.29
   2   1  10   15.00    2.89
  -2  -1 -10   15.48    2.97
  -2  -1 -11  103.31    8.55
   2   1  11   94.73    7.87
  -2  -1 -11  102.60    8.39
  -2  -1 -12   14.32    2.79
  -2  -1 -12   16.27    2.79
   2   1  12   12.56    2.50
  -2  -1 -13   80.80    6.30
   2   1  13   72.73    5.90
  -2  -1 -14   24.65    2.49
   2   2 -15  165.64   11.81
   2   2 -15  183.69   11.85
   2   2 -15  171.16   11.95
   2   2 -14   11.34    2.10
   2   2 -14   12.72    2.86
   2   2 -14   15.65    2.27
   2   2 -14   16.44    2.61
   2   2 -13  368.43   24.58
   2   2 -13  367.69   25.50
   2   2 -13  369.47   24.79
   2   2 -13  376.99   24.52
   2   2 -12   18.94    2.64
   2   2 -12   27.59    4.08
   2   2 -12   18.73    3.12
   2   2 -12   17.53    2.57
   2   2 -11  196.13   13.43
   2   2 -11  205.57   13.21
  -2  -2  11  133.39   18.94
  -2  -2  11  179.25   18.50
  -2  -2  11  133.04   20.53
   2   2 -11  163.09   21.74
   2   2 -10    0.46    1.69
   2   2 -10    0.51    1.19
   2   2 -10    0.81    1.51
  -2  -2  10    1.97    5.02
   2   2 -10   -2.04    4.86
  -2  -2  10   -1.64    2.95
  -2  -2  10   -1.14    3.40
   2   2  -9    8.48    1.81
  -2  -2   9   22.42    6.98
   2   2  -9   19.56    7.01
  -2  -2   9   18.78    5.86
  -2  -2   9    4.88    3.12
   2   2  -9   13.92    2.58
   2   2  -9   13.12    2.19
   2   2  -9   13.43    2.53
   2   2  -9   10.81    1.63
  -2  -2   8   57.58   10.18
   2   2  -8   45.45    8.68
   2   2  -8   37.91    3.52
  -2  -2   8   23.55    6.53
  -2  -2   8   40.91    6.46
   2   2  -8   47.23    4.08
  -2  -2   8   65.49    8.27
   2   2  -8   45.11    3.79
   2   2  -8   40.48    4.05
   2   2  -8   38.04    3.30
  -2  -2   7  231.30   22.14
  -2  -2   7  264.86   20.50
  -2  -2   7  250.86   21.62
   2   2  -7  276.59   17.75
  -2  -2   7  232.86   23.18
   2   2  -7  279.24   24.16
  -2  -2   6  449.80   32.47
  -2  -2   6  492.77   32.50
   2   2  -6  410.37   27.69
  -2  -2   6  456.49   33.77
   2   2  -6  451.42   33.60
  -2  -2   5   13.69    3.78
  -2  -2   5   15.02    4.79
   2   2  -5   14.16    4.31
  -2  -2   5   16.13    3.95
   2   2  -4  145.35   12.39
  -2  -2   4  141.08   12.90
   2   2  -4  145.31   13.47
  -2  -2   4  167.26   13.36
  -2  -2   3   61.06    6.79
  -2  -2   3   68.01    7.13
   2   2  -3   60.29    6.27
  -2  -2   3   65.43    6.59
   2   2  -3   59.01    6.93
   2   2  -3   36.96    5.15
  -2  -2   2  273.86   19.51
  -2  -2   2  261.87   20.21
  -2  -2   2  272.42   19.97
   2   2  -2  279.83   20.52
   2   2  -2  263.68   19.81
  -2  -2   1 1304.36   80.90
  -2  -2   1 1226.02   81.77
   2   2  -1 1253.90   81.44
  -2  -2   1 1240.31   81.78
  -2  -2   1 1262.49   81.10
   2   2  -1 1475.69   82.83
   2   2  -1 1165.91   80.07
   2   2   0 3275.54  190.31
   2   2   0 2921.42  191.39
   2   2   0 3093.18  190.59
  -2  -2   0 3101.51  191.73
  -2  -2   0 3015.81  190.77
  -2  -2   0 2945.85  191.88
   2   2   0 2739.43  190.27
  -2  -2   0 3060.60  190.92
   2   2   1    0.70    1.48
  -2  -2  -1    0.58    2.09
  -2  -2  -1    0.51    1.76
  -2  -2  -1    1.51    2.22
   2   2   1    3.30    2.00
   2   2   1    0.47    1.90
  -2  -2  -2   91.30    9.79
   2   2   2  101.21    8.85
  -2  -2  -2  106.47   10.14
  -2  -2  -2  106.27    9.97
  -2  -2  -2   95.17    9.33
  -2  -2  -2   99.76    9.94
   2   2   2  109.52    9.41
   2   2   2   94.37    9.00
   2   2   3  145.50   12.82
  -2  -2  -3  159.15   14.36
  -2  -2  -3  156.70   14.38
  -2  -2  -3  137.43   13.99
   2   2   3  187.36   13.95
  -2  -2  -3  167.36   14.18
  -2  -2  -4   32.81    6.13
   2   2   4   39.59    5.49
  -2  -2  -4   50.14    7.29
   2   2   4   26.43    5.16
  -2  -2  -4   28.87    6.19
  -2  -2  -4   37.59    6.23
  -2  -2  -5  516.02   42.18
   2   2   5  624.35   40.83
  -2  -2  -5  556.80   41.69
   2   2   5  568.68   39.93
  -2  -2  -5  537.66   41.44
   2   2   6    2.56    2.44
  -2  -2  -6   11.04    4.56
  -2  -2  -6    5.06    3.42
  -2  -2  -6    7.02    2.13
  -2  -2  -6   -1.47    3.52
   2   2   6    4.77    2.99
   2   2   6    3.72    1.45
  -2  -2  -6    4.26    1.56
  -2  -2  -7  540.61   44.62
  -2  -2  -7  570.94   45.25
  -2  -2  -7  683.32   38.90
  -2  -2  -7  578.26   46.98
   2   2   7  656.23   44.23
   2   2   7  576.41   38.02
  -2  -2  -7  535.20   38.26
  -2  -2  -8    7.76    4.47
   2   2   8   16.23    5.98
  -2  -2  -8   13.66    2.89
   2   2   8    8.65    2.21
  -2  -2  -8   12.94    2.59
   2   2   9  157.46   18.69
   2   2   9  161.41   11.89
  -2  -2  -9  163.09   12.36
  -2  -2  -9  176.11   12.76
   2   2  10    1.67    1.92
  -2  -2 -10    5.22    2.56
  -2  -2 -10    1.08    2.33
   2   2  11   64.41    5.77
  -2  -2 -11   68.02    6.29
  -2  -2 -11   74.22    6.64
  -2  -2 -12   42.20    4.37
  -2  -2 -12   38.79    4.43
  -2  -2 -13   33.46    3.37
   2   3 -15   85.71    7.95
   2   3 -15  108.14    7.61
   2   3 -15  111.07    7.58
   2   3 -15  108.40    7.74
   2   3 -14   34.67    3.39
   2   3 -14   27.90    4.05
   2   3 -14   32.05    3.23
   2   3 -14   28.19    3.58
   2   3 -13  126.88    9.28
   2   3 -13  128.00   10.37
   2   3 -13  117.83    9.38
   2   3 -13  128.84    9.21
   2   3 -12   98.76    7.59
   2   3 -12   88.64    7.90
   2   3 -12  100.04    8.74
   2   3 -12  101.92    7.84
   2   3 -12   99.85    7.46
   2   3 -11   51.90    4.42
  -2  -3  11   37.69    8.75
  -2  -3  11   26.08    9.02
   2   3 -11   32.31    8.95
   2   3 -11   42.92    4.65
   2   3 -11   49.28    5.13
   2   3 -11   55.05    5.61
   2   3 -11   51.08    4.29
   2   3 -11   44.23    4.53
   2   3 -10    0.19    1.23
  -2  -3  10   -1.63    4.15
   2   3 -10    4.18    1.69
  -2  -3  10   -1.97    4.69
   2   3 -10    3.89    4.63
   2   3 -10    1.44    1.69
   2   3 -10    1.63    1.83
   2   3 -10   -1.80    2.06
   2   3 -10    1.69    1.15
   2   3  -9    6.73    1.39
  -2  -3   9    1.26    2.57
  -2  -3   9    5.73    3.89
   2   3  -9    6.46    1.65
  -2  -3   9    1.73    4.15
   2   3  -9    6.76    1.85
   2   3  -9    5.41    2.05
   2   3  -9    8.36    1.54
   2   3  -8   25.71    2.45
  -2  -3   8   38.98    8.48
   2   3  -8   24.72    6.36
   2   3  -8   23.88    2.58
  -2  -3   8   19.64    5.77
  -2  -3   8   36.47    6.62
   2   3  -8   28.72    2.97
   2   3  -8   30.99    3.35
   2   3  -8   26.95    2.57
  -2  -3   7    1.03    2.94
  -2  -3   7    2.03    2.59
  -2  -3   7    7.68    4.75
   2   3  -7   -1.23    2.94
   2   3  -7    2.54    2.64
  -2  -3   6  215.60   18.20
   2   3  -6  207.49   18.82
  -2  -3   6  197.82   18.98
  -2  -3   6  206.34   18.29
  -2  -3   5   34.54    5.41
  -2  -3   5   25.16    5.10
  -2  -3   5   30.56    6.40
   2   3  -5   30.45    5.68
  -2  -3   4    1.72    2.19
   2   3  -4    4.16    2.34
  -2  -3   4    0.68    2.23
   2   3  -4    3.71    3.06
   2   3  -4    0.64    2.15
   2   3  -3   40.47    5.04
   2   3  -3   30.07    4.63
  -2  -3   3   23.69    4.51
   2   3  -3   41.40    5.76
   2   3  -3   33.77    5.05
   2   3  -2   55.99    5.99
   2   3  -2   60.21    6.77
  -2  -3   2   40.82    5.61
  -2  -3   2   47.77    6.53
   2   3  -2   60.47    6.91
  -2  -3   1 2442.13  147.54
   2   3  -1 2300.08  146.34
   2   3  -1 2382.28  147.45
  -2  -3   1 2271.37  147.11
   2   3  -1 2181.89  145.62
  -2  -3   0 1590.20  100.11
   2   3   0 1456.79   98.65
  -2  -3   0 1578.81   99.50
   2   3   0 1524.21   98.79
   2   3   0 1569.63   99.80
   2   3   1  491.21   34.13
  -2  -3  -1  512.69   35.26
  -2  -3  -1  470.68   34.98
   2   3   1  501.26   34.74
  -2  -3  -2    7.55    3.46
  -2  -3  -2   19.83    4.78
   2   3   2    7.93    3.17
  -2  -3  -2   11.65    3.75
  -2  -3  -3   65.13    8.85
  -2  -3  -3   71.73    8.84
   2   3   3   65.32    7.89
  -2  -3  -3   62.92    8.49
  -2  -3  -4    5.99    3.25
  -2  -3  -4    3.18    3.58
  -2  -3  -4    5.90    3.77
   2   3   4    4.94    3.16
  -2  -3  -5  538.97   37.91
  -2  -3  -5  477.23   37.60
  -2  -3  -5  565.80   32.14
  -2  -3  -5  441.84   36.50
   2   3   5  543.45   36.82
  -2  -3  -5  441.08   31.54
   2   3   5  471.63   31.34
  -2  -3  -6  471.45   35.10
  -2  -3  -6  513.83   28.09
   2   3   6  461.38   33.71
   2   3   6  417.78   32.61
  -2  -3  -6  362.88   27.31
   2   3   6  394.27   27.05
  -2  -3  -7   41.92    8.51
  -2  -3  -7   33.10    4.20
   2   3   7   34.15    7.34
   2   3   7   36.62    7.23
  -2  -3  -7   30.03    3.69
   2   3   7   31.50    3.45
  -2  -3  -8  302.53   28.68
   2   3   8  279.53   27.52
   2   3   8  291.71   20.73
  -2  -3  -8  314.28   21.41
  -2  -3  -8  348.76   21.83
  -2  -3  -9   40.33    4.66
  -2  -3  -9   38.95    4.97
  -2  -3 -10  156.17   11.66
  -2  -3 -10  148.76   11.77
  -2  -3 -11    1.71    1.94
  -2  -3 -11    4.73    2.31
  -2  -3 -12  146.13   10.53
  -2  -3 -12  141.96   10.69
  -2  -3 -13   65.10    5.12
   2   4 -15   56.27    5.45
   2   4 -15   64.72    5.21
   2   4 -15   62.27    4.85
   2   4 -15   70.57    4.89
   2   4 -14  273.88   19.39
  -2  -4  14  237.93   18.53
   2   4 -14  288.64   18.57
   2   4 -14  278.62   18.61
   2   4 -14  297.46   18.50
   2   4 -13    3.58    1.62
   2   4 -13    7.15    2.89
   2   4 -13    6.32    1.85
   2   4 -13    2.80    2.12
   2   4 -12  213.89   14.22
   2   4 -12  179.83   15.07
   2   4 -12  215.22   14.10
   2   4 -12  193.94   14.24
   2   4 -11  208.22   13.39
   2   4 -11  188.24   13.72
   2   4 -11  190.46   14.31
   2   4 -11  183.71   14.09
   2   4 -11  206.84   14.03
   2   4 -11  180.41   13.31
   2   4 -11  191.20   13.16
   2   4 -10   80.00    6.12
   2   4 -10   69.10    6.22
  -2  -4  10   66.08   10.95
  -2  -4  10   71.80   11.76
   2   4 -10   85.97    6.79
   2   4 -10   87.30    7.01
   2   4 -10   82.32    7.17
   2   4 -10   86.44    6.35
   2   4  -9   43.13    3.60
   2   4  -9   36.82    3.68
  -2  -4   9   33.46    7.34
  -2  -4   9   43.45    8.19
   2   4  -9   58.25   10.10
   2   4  -9   42.88    3.73
   2   4  -9   47.33    4.33
   2   4  -9   33.68    4.23
   2   4  -9   44.85    4.16
   2   4  -8  261.71   18.01
  -2  -4   8  284.10   26.23
   2   4  -8  307.75   25.96
  -2  -4   8  246.74   23.93
   2   4  -8  305.15   18.78
   2   4  -8  267.12   18.83
   2   4  -8  277.56   18.20
   2   4  -8  277.77   18.47
   2   4  -7 1094.12   70.83
   2   4  -7 1027.71   65.45
   2   4  -7 1040.80   65.85
  -2  -4   7  915.66   70.87
  -2  -4   7 1063.95   73.12
   2   4  -7 1056.20   72.20
   2   4  -6   29.85    5.37
  -2  -4   6   15.01    4.52
  -2  -4   6   21.45    5.99
   2   4  -6   22.20    5.31
   2   4  -5   -0.77    2.49
  -2  -4   5   -2.93    3.52
   2   4  -5    0.87    2.59
  -2  -4   5   -0.88    2.37
  -2  -4   4  293.20   24.91
   2   4  -4  303.60   25.03
   2   4  -4  340.59   25.01
   2   4  -4  379.12   25.89
   2   4  -4  337.71   24.76
  -2  -4   3 1165.74   77.36
  -2  -4   3 1006.50   76.07
   2   4  -3 1137.64   76.99
   2   4  -3 1248.92   76.66
   2   4  -3 1323.56   77.31
   2   4  -3 1103.44   76.19
   2   4  -2   97.93   10.62
  -2  -4   2  114.41   10.69
   2   4  -2  100.78    9.98
   2   4  -1 1760.67  114.30
   2   4  -1 1688.00  113.22
  -2  -4   1 1796.48  114.16
  -2  -4   1 1781.45  113.81
  -2  -4   0  594.78   39.71
   2   4   0  528.62   38.32
   2   4   0  562.12   39.60
  -2  -4  -1   18.01    4.39
  -2  -4  -1   13.10    3.94
   2   4   1   24.26    4.68
   2   4   1   22.54    4.59
  -2  -4  -2   12.35    4.33
   2   4   2   11.97    3.93
  -2  -4  -2   11.21    3.71
  -2  -4  -2    9.32    4.08
  -2  -4  -3   42.27    7.25
   2   4   3   43.51    6.80
  -2  -4  -3   44.37    7.14
  -2  -4  -3   43.67    7.42
   2   4   4  888.22   57.02
  -2  -4  -4  825.75   57.94
   2   4   4  793.34   51.48
   2   4   4  805.26   51.54
  -2  -4  -4  808.08   57.97
  -2  -4  -5   20.06    2.93
  -2  -4  -5    7.82    4.18
  -2  -4  -5   19.30    6.15
   2   4   5    8.79    4.31
   2   4   5   13.10    4.50
   2   4   5   16.72    2.40
  -2  -4  -6  208.42   21.33
  -2  -4  -6  219.33   14.90
   2   4   6  214.97   20.29
   2   4   6  181.58   19.31
  -2  -4  -6  199.66   14.51
  -2  -4  -7  170.64   19.17
   2   4   7  143.81   17.11
   2   4   7  141.62   16.66
  -2  -4  -7  186.25   12.55
  -2  -4  -7  155.09   11.98
  -2  -4  -8   11.71    2.94
  -2  -4  -8    8.35    2.49
  -2  -4  -9   59.53    6.14
  -2  -4  -9   63.91    6.01
  -2  -4 -10  128.31   10.02
  -2  -4 -10  122.37    9.68
  -2  -4 -11  104.92    8.35
  -2  -4 -11  102.31    8.09
  -2  -4 -12    2.40    1.34
   2   5 -15   76.36    6.42
   2   5 -15   83.58    6.30
  -2  -5  15   72.80    6.38
   2   5 -14   48.58    4.27
   2   5 -14   44.49    4.11
   2   5 -14   38.85    4.88
   2   5 -14   50.51    4.62
   2   5 -13  167.97   11.68
   2   5 -13  178.53   11.61
   2   5 -13  170.30   11.74
   2   5 -13  137.54   11.95
   2   5 -13  152.52   12.44
   2   5 -12   64.42    5.49
   2   5 -12   62.45    5.30
   2   5 -12   62.20    5.54
   2   5 -12   65.95    6.53
   2   5 -12   64.87    6.14
   2   5 -11   73.92    5.73
   2   5 -11   58.66    6.42
   2   5 -11   78.50    6.56
   2   5 -11   64.36    6.48
   2   5 -11   68.43    5.50
   2   5 -11   59.91    5.55
   2   5 -10   82.01    6.36
  -2  -5  10   58.80   10.83
   2   5 -10   82.93    7.09
   2   5 -10   80.05    7.34
   2   5 -10   87.09    7.49
   2   5 -10   89.94    6.60
   2   5 -10   79.81    6.92
   2   5  -9  480.97   31.90
   2   5  -9  501.23   32.41
  -2  -5   9  419.56   38.75
   2   5  -9  484.85   32.80
   2   5  -9  529.62   32.71
   2   5  -9  498.62   32.07
   2   5  -8   23.67    2.47
   2   5  -8   24.27    2.91
  -2  -5   8   18.07    6.19
   2   5  -8   20.65    3.14
   2   5  -8   30.69    3.21
   2   5  -8   27.36    3.38
   2   5  -8   25.14    2.70
   2   5  -7   38.43    4.01
   2   5  -7   40.03    3.49
  -2  -5   7   46.18    8.08
   2   5  -7   41.74    4.23
   2   5  -7   45.84    7.57
   2   5  -7   45.28    3.89
   2   5  -7   48.99    4.39
   2   5  -7   52.81    4.22
   2   5  -7   35.98    3.60
   2   5  -7   47.41    3.75
  -2  -5   6   87.62   11.33
   2   5  -6  111.41   11.61
   2   5  -6   92.77    7.30
   2   5  -5  578.90   38.85
  -2  -5   5  471.35   38.32
   2   5  -5  543.50   38.21
   2   5  -5  504.77   38.58
   2   5  -4  232.20   18.95
  -2  -5   4  205.20   18.42
   2   5  -4  223.80   14.98
   2   5  -4  258.16   19.28
   2   5  -4  225.19   19.29
   2   5  -4  207.42   14.75
   2   5  -3  882.21   54.97
   2   5  -3  788.73   50.28
   2   5  -3  774.59   55.12
  -2  -5   3  934.80   55.80
   2   5  -3  743.03   50.37
   2   5  -3  801.00   54.50
   2   5  -2  902.53   56.27
   2   5  -2  874.27   61.10
   2   5  -2  844.82   60.08
  -2  -5   2  932.14   60.65
   2   5  -2  840.67   56.34
  -2  -5   2 1011.58   61.29
   2   5  -1    9.76    1.81
   2   5  -1    3.67    3.34
   2   5  -1   10.07    3.45
  -2  -5   1    8.26    3.28
   2   5  -1    7.22    1.61
   2   5   0   27.53    2.85
   2   5   0   21.13    5.16
   2   5   0   23.40    2.86
  -2  -5   0   40.62    6.02
  -2  -5   0   29.23    5.55
   2   5   0   25.03    4.92
   2   5   1   34.22    6.39
  -2  -5  -1   51.74    7.80
   2   5   1   35.41    6.23
  -2  -5  -1   39.42    6.58
  -2  -5  -1   45.16    7.09
  -2  -5  -2  553.70   41.31
   2   5   2  513.52   39.60
  -2  -5  -2  593.62   41.45
   2   5   3  252.76   22.43
   2   5   3  275.51   18.09
   2   5   3  263.85   18.05
   2   5   3  286.52   18.18
   2   5   3  252.58   17.89
  -2  -5  -3  258.53   23.62
   2   5   4  333.38   27.60
  -2  -5  -4  348.75   22.63
  -2  -5  -4  358.11   29.56
   2   5   4  327.64   22.31
   2   5   4  334.11   22.37
  -2  -5  -4  322.12   28.68
   2   5   5  155.69   17.79
  -2  -5  -5  185.89   13.42
  -2  -5  -5  185.34   19.59
   2   5   5  192.47   13.13
  -2  -5  -5  193.97   20.01
   2   5   5  184.27   13.08
  -2  -5  -6    8.35    4.79
   2   5   6    1.35    3.27
   2   5   6   14.85    2.76
   2   5   6   10.45    2.29
  -2  -5  -6    6.39    4.35
  -2  -5  -6   11.24    2.64
   2   5   7    3.51    2.05
  -2  -5  -7    4.25    2.49
  -2  -5  -8   13.87    2.65
   2   5   8    9.57    2.44
  -2  -5  -8    9.32    2.92
  -2  -5  -9   97.76    7.66
  -2  -5  -9   85.48    7.78
  -2  -5 -10    7.89    2.05
  -2  -5 -10    7.54    2.35
  -2  -5 -11   34.00    3.37
   2   5  11   34.70    3.14
   2   5  11   30.07    3.08
  -2  -5 -11   32.38    3.52
   2   6 -15   77.14    6.32
   2   6 -15   88.84    6.27
   2   6 -15   94.05    6.25
  -2  -6  15   72.54    6.33
   2   6 -14   15.20    2.48
   2   6 -14   14.93    2.27
   2   6 -14   15.09    2.91
   2   6 -14   17.57    2.30
   2   6 -13    9.11    2.30
   2   6 -13    5.78    2.56
   2   6 -13   12.55    2.84
   2   6 -13   12.34    2.08
   2   6 -13   13.38    2.31
   2   6 -12    1.07    2.37
   2   6 -12    1.64    2.27
   2   6 -12    4.56    1.62
   2   6 -12    2.77    1.74
   2   6 -11  169.84   13.03
   2   6 -11  156.62   13.09
   2   6 -11  173.29   13.20
   2   6 -11  177.62   12.26
   2   6 -11  187.33   12.48
   2   6 -10   59.96    5.06
  -2  -6  10   45.24    9.89
   2   6 -10   61.78    5.91
   2   6 -10   54.96    5.97
   2   6 -10   65.62    6.07
   2   6 -10   64.88    5.31
   2   6  -9  210.87   14.65
  -2  -6   9  180.47   21.08
   2   6  -9  200.72   15.42
   2   6  -9  232.75   15.52
   2   6  -9  211.49   15.51
   2   6  -9  234.91   14.95
   2   6  -8   53.44    5.23
   2   6  -8   56.42    4.57
   2   6  -8   72.21   10.34
   2   6  -8   53.94    4.90
  -2  -6   8   43.70    8.86
   2   6  -8   53.59    5.39
   2   6  -8   59.69    5.24
   2   6  -8   47.71    4.63
   2   6  -8   63.12    5.50
   2   6  -8   64.21    4.82
   2   6  -7    2.08    0.97
   2   6  -7    2.15    1.63
   2   6  -7   -3.79    3.01
   2   6  -7    1.64    1.34
  -2  -6   7    5.45    4.07
   2   6  -7    1.85    1.85
   2   6  -7    4.71    1.72
   2   6  -7    3.91    1.33
   2   6  -7    2.93    1.21
   2   6  -6   60.23    5.13
   2   6  -6   60.73    8.75
   2   6  -6   51.60    8.56
  -2  -6   6   46.21    8.40
   2   6  -6   50.78    5.10
   2   6  -6   67.83    5.09
   2   6  -6   57.56    4.70
   2   6  -6   57.57    4.71
   2   6  -5    4.02    1.43
   2   6  -5    4.43    1.56
   2   6  -5    3.28    3.27
   2   6  -5    2.05    2.46
   2   6  -5    5.35    1.91
  -2  -6   5    3.23    3.22
   2   6  -5    6.17    1.79
   2   6  -5    4.79    1.76
   2   6  -5   -2.36    3.19
   2   6  -5    4.75    1.75
   2   6  -5    4.17    1.19
   2   6  -5    2.94    1.18
  -2  -6   4  923.70   59.22
   2   6  -4  722.38   53.23
   2   6  -4  823.66   58.86
   2   6  -4  869.98   53.07
   2   6  -4  888.07   58.71
   2   6  -4  827.68   52.66
   2   6  -4  957.39   58.88
   2   6  -3   33.98    6.66
   2   6  -3   27.95    3.10
   2   6  -3   17.13    4.92
   2   6  -3   28.32    3.25
   2   6  -2  261.28   17.47
   2   6  -2  277.96   22.99
   2   6  -2  253.51   21.92
  -2  -6   2  317.14   22.80
   2   6  -2  241.06   17.58
   2   6  -1    3.42    1.58
   2   6  -1   -1.11    3.46
   2   6  -1    2.95    2.34
   2   6  -1   -0.23    1.49
   2   6   0    1.83    1.17
   2   6   0    1.59    1.48
  -2  -6   0    2.27    2.89
  -2  -6   0    1.00    2.71
   2   6   0    0.56    1.33
   2   6   0    1.80    1.46
   2   6   0    7.73    3.72
   2   6   0    1.35    1.38
   2   6   0    1.56    1.30
   2   6   0    2.60    1.19
   2   6   0    2.02    1.24
   2   6   0    3.13    1.43
   2   6   0    2.00    1.13
  -2  -6  -1    9.82    4.95
   2   6   1    1.92    3.13
  -2  -6  -1    1.11    3.00
   2   6   1    3.33    1.56
   2   6   1    1.83    1.20
   2   6   1    3.68    1.29
   2   6   1    7.38    1.65
   2   6   1    3.33    1.47
  -2  -6  -2   15.98    5.17
   2   6   2   14.87    4.77
  -2  -6  -2   22.16    5.93
   2   6   2   13.36    2.36
   2   6   2   17.16    2.27
   2   6   2   13.55    2.27
   2   6   2   17.96    2.38
   2   6   2   11.61    2.16
  -2  -6  -3  441.98   36.61
   2   6   3  439.33   35.02
  -2  -6  -3  470.93   36.75
  -2  -6  -3  423.37   36.06
   2   6   3  440.81   29.38
   2   6   3  460.31   29.55
   2   6   3  455.19   29.53
   2   6   3  454.61   29.54
   2   6   3  443.18   29.40
  -2  -6  -4  127.79   15.38
   2   6   4  108.31   13.56
  -2  -6  -4  110.11   14.31
   2   6   4  123.89    9.02
   2   6   4  109.11    8.71
   2   6   4  120.94    8.94
   2   6   4  119.45    8.98
  -2  -6  -5  449.17   40.32
   2   6   5  425.85   38.52
   2   6   5  470.54   32.60
   2   6   5  496.44   32.72
   2   6   5  560.05   33.00
  -2  -6  -5  499.87   40.92
   2   6   6   10.11    2.64
   2   6   6   15.72    2.85
   2   6   7   43.52    4.50
   2   6   7   42.33    4.54
  -2  -6  -8   45.49    4.85
   2   6   8   44.51    4.44
   2   6   8   50.13    4.76
  -2  -6  -9  239.33   18.04
   2   6   9  277.79   17.78
   2   6   9  249.10   17.78
   2   6   9  281.42   17.71
   2   6  10   44.75    3.91
  -2  -6 -10   40.54    4.17
   2   6  10   47.84    3.93
   2   6  11    8.31    1.28
   2   6  11    9.40    1.44
  -2  -7  15   36.42    3.75
   2   7 -15   48.14    3.72
   2   7 -15   46.82    3.74
   2   7 -14   18.87    2.34
   2   7 -14   14.50    2.10
   2   7 -14   12.68    2.40
   2   7 -13    4.67    1.66
   2   7 -13    3.24    1.57
   2   7 -13   -1.20    1.98
   2   7 -13    3.29    2.24
   2   7 -12    4.80    1.91
   2   7 -12    4.73    1.78
   2   7 -12   10.11    2.78
   2   7 -11   87.21    7.01
   2   7 -11   84.44    7.62
   2   7 -11   89.10    6.87
   2   7 -10  317.89   23.13
   2   7 -10  362.85   22.61
   2   7 -10  332.29   23.10
   2   7 -10  330.98   23.15
   2   7 -10  332.73   22.37
   2   7  -9  145.38   11.52
   2   7  -9  152.40   10.88
  -2  -7   9  129.20   17.22
   2   7  -9  150.14   11.77
   2   7  -9  162.89   11.67
   2   7  -9  146.47   11.56
   2   7  -9  169.83   11.19
   2   7  -8   94.34    8.31
   2   7  -8  106.12    7.73
   2   7  -8   94.20   13.32
  -2  -7   8   79.98   12.91
   2   7  -8  111.61    8.77
   2   7  -8  101.95    7.91
   2   7  -8  103.40    8.27
   2   7  -8  115.00    7.97
   2   7  -7   18.74    2.92
   2   7  -7   18.24    2.26
   2   7  -7   10.23    5.22
  -2  -7   7   14.57    5.21
   2   7  -7   19.10    3.15
   2   7  -7   18.69    2.72
   2   7  -7   22.35    2.61
   2   7  -7   17.84    2.45
   2   7  -6   49.62    9.33
   2   7  -6   55.49    4.68
   2   7  -6   50.95    8.97
   2   7  -6   58.15    5.29
   2   7  -6   55.50    4.73
   2   7  -6   55.48    5.28
   2   7  -6   51.37    5.05
   2   7  -5   32.64    7.07
   2   7  -5   34.45    3.70
   2   7  -5   33.71    3.37
   2   7  -5   32.94    3.33
   2   7  -5   33.66    6.91
   2   7  -5   36.69    3.85
   2   7  -5   39.12    3.89
   2   7  -5   45.44    8.21
   2   7  -5   31.91    3.28
   2   7  -5   31.91    3.89
   2   7  -5   31.54    3.65
   2   7  -5   32.60    3.50
   2   7  -4  655.50   54.28
   2   7  -4  800.68   48.97
   2   7  -4  744.73   48.62
   2   7  -4  734.17   48.59
   2   7  -4  865.19   49.25
   2   7  -4  809.31   56.42
   2   7  -4  749.78   48.61
   2   7  -4  772.11   49.19
   2   7  -4  770.27   48.61
   2   7  -4  684.30   48.73
   2   7  -4  775.48   48.77
   2   7  -3  355.98   23.49
   2   7  -3  306.86   28.57
   2   7  -3  323.06   23.17
   2   7  -3  342.36   23.22
   2   7  -3  350.11   29.87
   2   7  -3  390.17   23.76
   2   7  -3  359.36   23.32
   2   7  -3  354.54   23.72
   2   7  -3  365.07   23.27
   2   7  -3  357.79   23.32
   2   7  -3  352.29   23.16
   2   7  -2   98.60    7.52
   2   7  -2   74.65   11.13
   2   7  -2   93.94    7.24
   2   7  -2   97.06    7.24
   2   7  -2   93.56    7.18
   2   7  -2   97.93    7.56
   2   7  -2   95.96   12.60
   2   7  -2   89.21    7.58
   2   7  -2   92.00    7.24
   2   7  -2   99.51    7.25
   2   7  -2  104.32    7.20
   2   7  -2   96.21    7.27
   2   7  -1  236.22   15.11
   2   7  -1  225.76   15.25
  -2  -7   1  220.02   20.95
   2   7  -1  231.70   15.39
   2   7  -1  215.17   20.95
   2   7  -1  217.35   15.06
   2   7  -1  221.66   15.10
   2   7  -1  212.83   15.38
   2   7  -1  220.09   15.01
   2   7  -1  222.26   15.08
   2   7  -1  203.63   15.03
   2   7   0   51.83    4.53
   2   7   0   47.82    4.62
  -2  -7   0   62.45    9.80
   2   7   0   53.18    8.93
   2   7   0   53.90    4.83
   2   7   0   52.19    4.60
   2   7   0   52.65    4.60
   2   7   0   54.18    4.62
   2   7   0   52.70    4.51
   2   7   0   55.36    4.74
   2   7   0   42.97    4.45
  -2  -7  -1  239.90   23.37
   2   7   1  237.83   21.91
   2   7   1  254.12   16.89
   2   7   1  250.78   16.83
   2   7   1  244.24   16.81
   2   7   1  235.91   16.72
   2   7   1  263.68   16.96
   2   7   1  241.04   16.71
  -2  -7  -2   31.88    8.01
   2   7   2   16.99    6.05
   2   7   2   36.34    3.66
   2   7   2   33.38    3.76
   2   7   2   30.12    3.64
   2   7   2   35.05    3.68
   2   7   2   37.37    3.79
  -2  -7  -3  549.93   50.28
  -2  -7  -3  569.76   50.83
   2   7   3  613.89   49.75
   2   7   3  733.21   43.88
   2   7   3  657.87   43.62
   2   7   3  697.57   43.77
   2   7   3  687.11   43.76
   2   7   3  661.33   43.64
  -2  -7  -4  121.10   15.81
  -2  -7  -4  105.36   15.56
   2   7   4  139.78   10.27
   2   7   4  137.50   10.05
   2   7   4  139.80   10.27
   2   7   4  147.66   10.35
   2   7   4  139.78   10.08
   2   7   5   15.97    3.10
   2   7   5   20.64    2.82
   2   7   5   21.44    3.27
   2   7   5   15.95    3.08
   2   7   6   12.18    2.37
   2   7   6   16.91    2.98
   2   7   6   19.07    3.07
   2   7   7  188.23   13.25
   2   7   7  183.09   13.35
   2   7   7  200.56   13.61
   2   7   7  186.32   13.08
   2   7   8   77.70    5.94
   2   7   8   73.42    6.00
   2   7   8   68.98    6.08
   2   7   8   72.44    5.82
   2   7   9   22.72    2.52
   2   7   9   19.69    2.71
   2   7   9   27.35    2.65
   2   7  10   28.42    2.56
   2   7  10   22.46    2.39
   2   7  10   26.10    2.38
   2   8 -14    0.16    1.10
   2   8 -14   -0.30    1.06
   2   8 -14   -0.90    1.57
   2   8 -13   10.99    2.02
   2   8 -13   10.64    1.90
   2   8 -13    6.34    2.26
   2   8 -12  173.13   12.07
   2   8 -12  167.64   12.61
   2   8 -12  168.30   11.91
   2   8 -11   83.70    6.27
   2   8 -11   65.18    6.55
   2   8 -11   72.59    5.94
   2   8 -11   67.44    6.75
   2   8 -10  131.31    9.35
   2   8 -10  113.58    9.74
   2   8 -10  118.26    9.07
   2   8 -10  134.31   10.21
   2   8  -9   57.94    5.28
   2   8  -9   60.75    6.08
   2   8  -9   62.25    5.73
   2   8  -9   57.11    4.99
   2   8  -9   54.58    5.80
   2   8  -8   33.23    4.08
   2   8  -8   30.15    3.12
   2   8  -8   10.28    5.39
  -2  -8   8   13.79    6.97
   2   8  -8   37.41    4.36
   2   8  -8   25.63    3.47
   2   8  -8   27.33    3.26
   2   8  -8   24.43    3.18
   2   8  -7   11.58    5.49
   2   8  -7   20.06    2.67
   2   8  -7   14.38    5.46
   2   8  -7   19.74    3.30
   2   8  -7   18.15    2.73
   2   8  -7   16.84    2.40
   2   8  -7   21.56    3.32
   2   8  -6   22.23    6.22
   2   8  -6   27.97    3.40
   2   8  -6   16.82    5.67
   2   8  -6   19.48    2.75
   2   8  -6   22.02    3.23
   2   8  -6   24.10    3.40
   2   8  -6   21.23    3.41
   2   8  -6   24.97    2.92
   2   8  -6   20.30    2.58
   2   8  -6   21.22    3.34
   2   8  -5  685.82   58.26
   2   8  -5  829.22   51.70
   2   8  -5  764.40   51.39
   2   8  -5  795.66   51.37
   2   8  -5  883.95   52.02
   2   8  -5  835.84   51.79
   2   8  -5  760.10   59.43
   2   8  -5  806.47   51.41
   2   8  -5  805.44   52.02
   2   8  -5  741.99   51.65
   2   8  -4   13.21    2.76
   2   8  -4    4.45    4.12
   2   8  -4   16.03    2.44
   2   8  -4   16.32    2.52
   2   8  -4   18.97    3.08
   2   8  -4   16.98    5.82
   2   8  -4   11.99    2.19
   2   8  -4   23.02    3.32
   2   8  -4   20.11    2.69
   2   8  -4   20.26    2.77
   2   8  -4   15.85    2.70
   2   8  -3  238.78   26.23
   2   8  -3  325.52   21.25
   2   8  -3  287.09   20.84
   2   8  -3  328.18   20.98
   2   8  -3  344.78   21.48
   2   8  -3  256.01   27.14
   2   8  -3  318.07   20.97
   2   8  -3  307.49   20.85
   2   8  -3  303.82   21.37
   2   8  -3  321.98   20.80
   2   8  -3  308.22   20.95
   2   8  -2   86.61    6.84
   2   8  -2   70.85   11.06
   2   8  -2   93.81    7.15
  -2  -8   2   71.02   10.96
   2   8  -2  106.70    7.49
   2   8  -2   85.77   12.35
   2   8  -2   82.75    6.78
   2   8  -2   88.68    6.81
   2   8  -2   83.99    7.17
   2   8  -2   68.03    6.57
   2   8  -2   94.90    6.86
   2   8  -2   78.04    6.63
   2   8  -1   69.45    5.67
  -2  -8   1   60.02   10.15
   2   8  -1   78.12    6.18
   2   8  -1   53.27    9.93
   2   8  -1   67.81    5.93
   2   8  -1   66.37    5.68
   2   8  -1   67.03    5.58
   2   8  -1   64.89    5.97
   2   8  -1   61.72    5.54
   2   8  -1   71.39    5.75
   2   8  -1   56.60    5.52
  -2  -8   0   99.17   13.32
   2   8   0   95.44    7.69
   2   8   0  100.63    7.83
   2   8   0   74.35   11.83
   2   8   0   88.64    7.49
   2   8   0  102.67    7.60
   2   8   0  105.14    7.62
   2   8   0   93.53    7.44
   2   8   0   99.92    7.66
  -2  -8  -1  182.66   20.88
  -2  -8  -1  192.71   21.07
   2   8   1  205.32   14.52
   2   8   1  215.63   14.52
   2   8   1  201.06   14.45
   2   8   1  214.51   14.63
  -2  -8  -2  195.29   23.77
  -2  -8  -2  246.91   25.09
   2   8   2  271.37   18.12
   2   8   2  277.51   18.01
   2   8   2  200.90   22.63
   2   8   2  272.42   18.06
   2   8   2  256.42   17.83
   2   8   2  255.52   17.92
   2   8   2  272.84   18.10
   2   8   3   24.56    3.59
   2   8   3   24.14    3.15
   2   8   3   24.54    3.31
   2   8   3   24.93    3.39
   2   8   3   20.97    3.14
   2   8   4   32.03    3.65
   2   8   4   27.95    3.78
   2   8   4   29.48    3.71
   2   8   4   32.00    3.70
   2   8   5    1.86    1.78
   2   8   5    4.29    2.35
   2   8   5    5.93    2.20
   2   8   6  229.31   15.89
   2   8   6  234.66   16.13
   2   8   6  234.55   16.16
   2   8   7   24.34    2.75
   2   8   7   23.51    2.94
   2   8   7   21.66    3.02
   2   8   8   30.86    2.78
   2   8   8   24.80    2.59
   2   8   8   20.22    2.63
   2   8   8   24.86    2.83
   2   8   8   25.78    2.77
   2   8   9   11.08    1.53
   2   8   9    9.81    1.53
   2   8   9    9.54    1.34
   2   9 -14   60.66    4.50
   2   9 -14   50.06    4.68
   2   9 -13   26.43    2.90
   2   9 -13   29.71    3.38
   2   9 -13   25.22    2.74
   2   9 -12   34.52    3.46
   2   9 -12   27.90    3.74
   2   9 -12   27.85    3.15
   2   9 -12   30.05    3.81
   2   9 -11  229.59   14.35
   2   9 -11  192.59   14.59
   2   9 -11  195.27   13.95
   2   9 -11  195.14   14.68
   2   9 -10   41.07    4.16
   2   9 -10   43.11    4.67
   2   9 -10   36.64    3.89
   2   9 -10   42.12    4.97
   2   9  -9    6.57    2.05
   2   9  -9    6.91    2.30
   2   9  -9    5.46    1.67
   2   9  -9    3.71    2.72
   2   9  -8    2.97    2.61
   2   9  -8   -0.25    1.73
   2   9  -8   -0.24    1.65
   2   9  -7  339.89   24.43
   2   9  -7  371.30   24.07
   2   9  -7  367.73   24.71
   2   9  -7  357.55   24.05
   2   9  -6  301.05   18.54
   2   9  -6  271.32   18.32
   2   9  -6  254.77   18.09
   2   9  -6  269.14   17.91
   2   9  -6  272.95   18.64
   2   9  -6  253.39   17.87
   2   9  -6  228.09   17.65
   2   9  -5   84.34    7.60
   2   9  -5   88.47   13.18
   2   9  -5  103.19    7.71
   2   9  -5   91.90    7.21
   2   9  -5   94.15    7.95
   2   9  -5   91.68    7.17
   2   9  -5   76.57    7.05
   2   9  -5   94.59    7.24
   2   9  -4   73.61    6.32
   2   9  -4   71.08   11.60
   2   9  -4   64.81    6.03
   2   9  -4   48.35    9.86
   2   9  -4   61.72    5.64
   2   9  -4   62.75    5.62
   2   9  -4   73.12    6.49
   2   9  -4   63.35    5.72
   2   9  -4   62.04    5.62
   2   9  -3   36.10    3.94
   2   9  -3   35.29    3.94
   2   9  -3   37.45    4.44
   2   9  -3   30.12    7.86
   2   9  -3   24.27    7.05
   2   9  -3   40.01    4.45
   2   9  -3   36.44    3.83
   2   9  -3   35.26    3.90
   2   9  -3   44.80    4.74
   2   9  -3   35.52    4.03
   2   9  -2   18.28    2.90
   2   9  -2   15.86    2.70
   2   9  -2   11.86    2.61
   2   9  -2   18.84    3.12
   2   9  -2   18.57    3.18
   2   9  -2   18.12    6.38
   2   9  -2   23.41    3.55
   2   9  -2   21.12    2.80
   2   9  -2   19.32    2.95
   2   9  -2   16.49    2.72
   2   9  -1    1.86    1.65
   2   9  -1    2.44    1.97
  -2  -9   1   -1.63    3.88
   2   9  -1    0.53    2.12
   2   9  -1    3.97    2.01
   2   9  -1    4.84    3.84
   2   9  -1   -0.30    2.02
   2   9  -1    1.91    1.67
   2   9  -1   -0.22    1.64
  -2  -9   0  125.66   17.06
  -2  -9   0  124.24   17.14
   2   9   0  175.39   11.85
   2   9   0  152.55   11.57
   2   9   0  152.31   11.53
   2   9   0  168.98   11.55
   2   9   1    7.18    2.24
   2   9   1    9.75    2.63
   2   9   1   12.58    2.37
   2   9   2   17.99    2.96
   2   9   2   17.84    3.13
   2   9   2   19.19    2.79
   2   9   3    3.21    1.99
   2   9   3    5.57    2.19
   2   9   3    3.20    2.14
   2   9   3    2.57    1.71
   2   9   4    0.72    1.95
   2   9   4    0.22    1.66
   2   9   4    0.47    1.82
   2   9   4   -0.46    1.75
   2   9   4    1.33    1.55
   2   9   5   13.01    2.55
   2   9   5   12.00    2.39
   2   9   5   14.11    2.30
   2   9   5   11.85    2.14
   2   9   6   75.74    5.87
   2   9   6   64.12    5.55
   2   9   6   63.00    5.71
   2   9   6   81.90    5.70
   2   9   7   38.54    3.51
   2   9   7   37.15    3.43
   2   9   7   40.99    3.61
   2   9   7   37.18    3.31
   2   9   8    5.71    1.14
   2   9   8    5.96    1.24
   2   9   8    7.78    1.29
   2  10 -13   65.55    5.13
   2  10 -13   65.99    5.42
   2  10 -12    0.70    1.65
   2  10 -12    0.18    1.22
   2  10 -12    1.86    1.61
   2  10 -11   34.79    3.95
   2  10 -11   32.17    3.40
   2  10 -11   26.02    3.62
   2  10 -10   13.50    3.00
   2  10 -10   11.54    2.33
   2  10 -10    5.72    2.19
   2  10  -9    6.20    1.90
   2  10  -9    4.36    2.64
   2  10  -8    5.63    2.56
   2  10  -8    4.10    1.93
   2  10  -8    1.24    1.82
   2  10  -7   47.26    5.33
   2  10  -7   53.48    5.01
   2  10  -7   52.12    4.96
   2  10  -7   56.37    5.72
   2  10  -7   54.04    5.29
   2  10  -6  253.71   16.39
   2  10  -6  204.81   15.63
   2  10  -6  223.48   15.89
   2  10  -6  214.42   15.70
   2  10  -6  229.65   15.83
   2  10  -6  237.32   16.63
   2  10  -6  245.50   16.23
   2  10  -5   53.69    5.61
   2  10  -5   48.33    5.10
   2  10  -5   64.80    5.37
   2  10  -5   54.35    5.05
   2  10  -5   52.22    5.11
   2  10  -5   55.91    5.88
   2  10  -5   55.84    5.58
   2  10  -4  105.40    7.78
   2  10  -4   75.11    6.90
   2  10  -4   82.50    6.96
   2  10  -4   84.98    6.97
   2  10  -4   77.80    6.77
   2  10  -4   87.67    7.71
   2  10  -4   85.05    7.42
   2  10  -3   11.17    3.09
   2  10  -3   14.42    2.78
   2  10  -3    5.33    2.25
   2  10  -3    9.25    2.85
   2  10  -3    8.80    2.13
   2  10  -3   11.33    2.37
   2  10  -3    7.85    2.80
   2  10  -2   23.58    3.69
   2  10  -2   27.73    3.40
   2  10  -2   24.22    3.24
   2  10  -2   20.90    3.65
   2  10  -2   26.00    3.23
   2  10  -2   25.10    3.69
   2  10  -1    5.67    2.24
   2  10  -1    3.74    2.01
   2  10  -1    0.99    1.92
   2  10  -1    7.59    2.25
   2  10  -1    4.57    1.95
   2  10   0  245.11   17.10
   2  10   0  249.15   16.99
   2  10   1   35.40    4.03
   2  10   1   28.96    3.46
   2  10   2    7.13    2.08
   2  10   2    9.71    2.56
   2  10   2    9.64    2.12
   2  10   3    3.42    1.87
   2  10   3    4.36    2.01
   2  10   3    5.06    1.70
   2  10   4   98.69    7.28
   2  10   4   93.85    7.14
   2  10   4   89.59    7.11
   2  10   4   92.78    7.03
   2  10   5   95.50    6.72
   2  10   5   96.16    6.53
   2  10   6   -0.14    1.07
   2  10   6    1.51    1.19
   2  10   6    2.01    0.92
   2  11 -12   41.76    3.85
   2  11 -12   43.47    3.62
   2  11 -12   36.68    3.65
   2  11 -11    0.22    1.68
   2  11 -11    0.17    1.25
   2  11 -11    3.06    1.46
   2  11 -10    9.29    1.96
   2  11 -10    9.18    2.41
   2  11  -9    4.09    1.68
   2  11  -9    6.89    2.37
   2  11  -8   86.11    7.32
   2  11  -8   85.03    7.01
   2  11  -8   90.21    6.94
   2  11  -7    3.11    1.89
   2  11  -7    3.84    1.80
   2  11  -7    7.42    2.58
   2  11  -6  253.09   18.68
   2  11  -6  271.83   18.93
   2  11  -6  293.95   19.15
   2  11  -6  297.44   18.92
   2  11  -6  279.00   19.51
   2  11  -6  273.88   18.76
   2  11  -5    8.68    2.20
   2  11  -5    4.28    2.08
   2  11  -5    6.97    2.60
   2  11  -5    4.18    1.83
   2  11  -5    4.91    2.00
   2  11  -5    8.41    2.75
   2  11  -4    3.08    2.02
   2  11  -4    3.30    2.01
   2  11  -4    1.87    2.47
   2  11  -4    3.02    1.78
   2  11  -4    5.42    2.64
   2  11  -3    0.23    2.05
   2  11  -3    1.83    2.35
   2  11  -3    2.99    1.71
   2  11  -3    0.92    2.21
   2  11  -2  170.97   12.81
   2  11  -2  178.02   12.81
   2  11  -2  203.15   13.27
   2  11  -2  197.03   12.96
   2  11  -2  166.09   13.12
   2  11  -1  232.26   17.15
   2  11  -1  257.12   17.38
   2  11  -1  271.20   17.52
   2  11  -1  260.85   17.30
   2  11   0    1.78    2.02
   2  11   0    3.95    1.73
   2  11   1   57.72    5.03
   2  11   1   51.56    4.69
   2  11   2   56.36    5.19
   2  11   2   65.93    5.08
   2  11   3   62.66    5.11
   2  11   3   53.71    5.08
   2  11   4    9.36    1.67
   2  11   4    9.34    1.63
   2  11   4    9.75    1.48
   2  11   5   52.56    4.06
   2  12 -11    8.67    1.40
   2  12 -11    4.86    1.49
   2  12 -10   31.49    3.24
   2  12 -10   39.97    3.62
   2  12  -9   46.73    4.17
   2  12  -9   46.56    4.32
   2  12  -8   28.32    3.23
   2  12  -8   32.34    3.63
   2  12  -7  147.01   11.33
   2  12  -7  172.36   11.30
   2  12  -7  159.40   11.75
   2  12  -6   23.16    2.84
   2  12  -6   21.71    2.94
   2  12  -6   24.31    2.88
   2  12  -6   24.88    3.49
   2  12  -5   16.63    2.45
   2  12  -5   11.81    2.28
   2  12  -5   16.80    2.38
   2  12  -5   13.27    2.90
   2  12  -4   -0.20    1.73
   2  12  -4    0.78    1.45
   2  12  -4    1.33    2.03
   2  12  -3  169.98   11.68
   2  12  -3  165.22   11.94
   2  12  -3  172.25   11.64
   2  12  -3  153.57   11.96
   2  12  -2   85.58    6.62
   2  12  -2   81.27    6.77
   2  12  -2   89.85    6.63
   2  12  -1   37.04    3.54
   2  12  -1   38.53    3.67
   2  12   0   55.87    4.64
   2  12   0   59.03    4.84
   2  12   1    0.70    0.98
   2  12   1    1.89    1.37
   2  12   2    2.95    1.02
   2  12   2    1.49    1.12
   2  12   3   11.37    1.50
   2  13  -9   28.16    2.58
   2  13  -7    1.28    1.50
   2  13  -6    0.70    0.97
   2  13  -6    0.97    1.47
   2  13  -5    2.13    1.12
   2  13  -5    0.98    1.59
   2  13  -4    4.05    1.28
   2  13  -4    7.79    1.81
   2  13  -3   19.21    2.01
   2  13  -3   11.00    2.07
   2  13  -2   45.08    3.70
   2  13  -1    0.45    0.76
   2  13  -1    0.24    0.94
   2  13   0   16.56    1.85
  -3  13   1   14.41    1.75
  -3  13   0    3.56    1.21
  -3  13  -1    5.92    1.34
  -3  13  -2    0.42    1.10
  -3  13  -3   -1.16    1.23
  -3  13  -4    3.61    1.32
  -3  13  -5   24.93    2.57
  -3  13  -6  110.02    7.27
  -3  13  -6   96.40    7.54
  -3  13  -6   96.21    7.46
  -3  13  -7    2.24    0.98
  -3  13  -7    3.48    1.36
  -3  13  -7    2.20    1.15
  -3  12   4    4.58    1.20
  -3  12   4    5.93    1.26
  -3  12   3   78.68    5.90
  -3  12   2   79.49    6.09
  -3  12   1   20.47    2.62
  -3  12   0  204.94   14.37
  -3  12   0  223.45   14.58
  -3  12  -1  147.63   10.37
  -3  12  -1  144.76   10.35
  -3  12  -2   47.81    4.44
  -3  12  -2   52.68    4.58
  -3  12  -3    5.10    1.77
  -3  12  -3    4.52    1.86
  -3  12  -3    2.52    1.82
  -3  12  -4  183.10   12.20
  -3  12  -4  169.13   12.56
  -3  12  -4  178.91   12.21
  -3  12  -4  159.91   12.41
  -3  12  -5  157.86   11.54
  -3  12  -5  146.53   12.05
  -3  12  -5  169.13   12.09
  -3  12  -6   24.97    3.42
  -3  12  -6   26.81    2.95
  -3  12  -6   26.84    3.28
  -3  12  -7   45.70    4.02
  -3  12  -7   42.62    4.47
  -3  12  -7   45.04    4.32
  -3  12  -8    1.23    1.28
  -3  12  -8    1.40    1.51
  -3  12  -8    0.82    1.36
  -3  12  -9    0.27    1.06
  -3  12  -9    0.61    1.31
  -3  12  -9    0.18    1.16
  -3  11   6   11.63    1.73
  -3  11   5   21.57    2.39
  -3  11   5   21.46    2.51
  -3  11   4   89.27    6.93
  -3  11   4   95.28    7.01
  -3  11   3    8.18    2.10
  -3  11   3    4.86    1.87
  -3  11   2   90.46    7.15
  -3  11   1   85.37    6.90
  -3  11   0    1.88    1.63
  -3  11   0    1.57    1.79
  -3  11   0    1.05    1.60
  -3  11  -1    7.97    2.17
  -3  11  -1    6.65    2.07
  -3  11  -1    7.11    2.09
  -3  11  -2   67.83    5.67
  -3  11  -2   65.31    5.67
  -3  11  -2   55.11    5.83
  -3  11  -3    8.59    2.35
  -3  11  -3    8.33    2.54
  -3  11  -3    9.33    2.48
  -3  11  -3    8.47    2.52
  -3  11  -4   19.11    2.91
  -3  11  -4   22.05    3.44
  -3  11  -4   20.14    2.99
  -3  11  -4   12.99    3.05
  -3  11  -5  186.30   12.18
  -3  11  -5  158.04   12.67
  -3  11  -5  151.38   11.83
  -3  11  -5  181.27   12.19
  -3  11  -5  173.47   12.58
  -3  11  -6    4.66    2.17
  -3  11  -6    9.23    2.81
  -3  11  -6    6.79    1.94
  -3  11  -7   13.16    2.65
  -3  11  -7   11.11    2.79
  -3  11  -7   12.50    2.33
  -3  11  -8    0.26    1.73
  -3  11  -8    0.89    2.00
  -3  11  -8    1.15    1.60
  -3  11  -9   17.76    2.68
  -3  11  -9   17.81    2.87
  -3  11  -9   19.64    2.49
  -3  11 -10    9.82    2.00
  -3  11 -10   11.69    1.85
  -3  11 -10   10.09    2.08
  -3  11 -11   30.77    3.18
  -3  11 -11   37.83    3.07
  -3  10   7    1.29    1.30
  -3  10   6    5.87    1.84
  -3  10   6    3.09    1.49
  -3  10   5   11.45    2.19
  -3  10   5    8.79    2.36
  -3  10   5    9.11    2.03
  -3  10   4    9.99    2.35
  -3  10   4   11.96    2.25
  -3  10   3   31.67    3.78
  -3  10   3   34.63    3.84
  -3  10   2   29.59    3.75
  -3  10   2   29.91    3.63
  -3  10   1  116.92    9.01
  -3  10   0    0.69    1.72
  -3  10   0   -0.74    2.04
  -3  10   0   -0.23    1.78
  -3  10  -1    2.88    1.99
  -3  10  -1    1.20    1.88
  -3  10  -1    0.72    1.90
  -3  10  -1    1.92    1.96
  -3  10  -2   35.31    4.11
  -3  10  -2   31.95    4.30
  -3  10  -2   40.53    4.17
  -3  10  -2   39.87    4.48
  -3  10  -3   95.83    7.34
  -3  10  -3   82.85    7.81
  -3  10  -3  101.67    7.43
  -3  10  -3   76.02    7.06
  -3  10  -3   86.14    7.62
  -3  10  -4    1.23    1.84
  -3  10  -4    3.95    2.51
  -3  10  -4    0.43    1.58
  -3  10  -4   -0.50    1.95
  -3  10  -4    2.26    2.01
  -3  10  -4    1.84    1.66
  -3  10  -5  138.76    9.73
  -3  10  -5  117.53   10.37
  -3  10  -5  120.44    9.44
  -3  10  -5  136.32    9.72
  -3  10  -5  129.75    9.69
  -3  10  -5  124.92   10.11
  -3  10  -6   29.11    3.41
  -3  10  -6   22.75    3.61
  -3  10  -6   32.85    4.32
  -3  10  -6   19.99    3.15
  -3  10  -7    3.44    2.24
  -3  10  -7    4.67    2.65
  -3  10  -7   -1.11    1.97
  -3  10  -8   53.89    5.26
  -3  10  -8   51.18    4.69
  -3  10  -8   43.24    5.25
  -3  10  -9   31.27    3.86
  -3  10  -9   25.47    3.79
  -3  10  -9   34.14    3.59
  -3  10 -10  256.73   17.76
  -3  10 -10  223.86   17.73
  -3  10 -11    1.06    1.41
  -3  10 -11    2.18    1.29
  -3  10 -12    1.80    1.07
  -3   9   9   21.00    2.17
  -3   9   8   61.97    5.18
  -3   9   8   68.71    5.15
  -3   9   7   62.73    5.35
  -3   9   7   61.82    5.11
  -3   9   6  127.23   10.15
  -3   9   6  148.44   10.04
  -3   9   5   34.38    4.06
  -3   9   5   32.91    3.77
  -3   9   5   33.87    3.78
  -3   9   4   52.14    5.13
  -3   9   4   55.83    4.93
  -3   9   4   47.37    4.91
  -3   9   3  404.34   25.59
  -3   9   3  365.68   25.66
  -3   9   2  114.29    8.36
  -3   9   2  101.87    8.45
  -3   9   1   56.40    4.91
  -3   9   1   50.86    4.78
  -3   9   1   52.14    5.06
  -3   9   1   48.82    4.79
   3  -9   0   40.45    8.17
  -3   9   0   45.29    5.08
  -3   9   0   37.53    8.06
  -3   9   0   50.39    4.73
  -3   9   0   50.91    4.86
  -3   9   0   52.73    4.75
   3  -9   0   53.85    8.97
   3  -9   1  195.74   21.75
   3  -9   1  190.30   22.20
  -3   9  -1  265.75   17.34
  -3   9  -1  267.38   17.35
  -3   9  -1  228.28   23.30
  -3   9  -1  261.71   17.85
  -3   9  -1  234.37   17.78
  -3   9  -1  260.04   17.36
   3  -9   2  155.19   16.15
   3  -9   2  115.73   15.35
  -3   9  -2  165.13   11.05
  -3   9  -2  140.60   16.90
  -3   9  -2  133.43   10.85
  -3   9  -2  142.66   11.28
  -3   9  -2  157.36   11.66
  -3   9  -2  157.95   11.03
   3  -9   3  301.23   27.64
   3  -9   3  263.17   27.44
  -3   9  -3  346.14   22.36
  -3   9  -3  310.10   29.13
  -3   9  -3  340.78   22.46
  -3   9  -3  310.12   22.64
  -3   9  -3  335.83   23.05
  -3   9  -3  351.36   22.44
   3  -9   4  191.49   19.46
  -3   9  -4  210.71   14.43
  -3   9  -4  189.30   14.64
  -3   9  -4  210.60   14.35
  -3   9  -4  196.67   15.02
  -3   9  -4  197.13   14.03
  -3   9  -4  215.93   14.39
  -3   9  -5    8.37    2.62
  -3   9  -5    7.81    2.03
  -3   9  -5    8.38    2.23
  -3   9  -5    5.19    2.61
  -3   9  -5    7.13    2.14
  -3   9  -5    8.04    2.22
  -3   9  -6    9.39    2.62
  -3   9  -6    5.98    2.17
  -3   9  -6    9.36    2.89
  -3   9  -6    9.11    2.19
  -3   9  -7   11.95    2.69
  -3   9  -7    9.26    2.23
  -3   9  -7   14.62    3.22
  -3   9  -7   14.33    2.56
  -3   9  -8  252.39   17.22
  -3   9  -8  265.72   17.02
  -3   9  -8  254.38   17.42
  -3   9  -8  191.90   17.22
  -3   9  -8  245.74   17.68
  -3   9  -8  254.78   16.89
  -3   9  -9  130.33    9.66
  -3   9  -9  123.99    9.75
  -3   9  -9  100.09    9.79
  -3   9  -9  118.93    9.95
  -3   9  -9  141.87    9.45
  -3   9 -10  137.23   10.09
  -3   9 -10  129.36    9.85
  -3   9 -10  111.46   10.22
  -3   9 -10  139.89    9.67
  -3   9 -11   63.52    4.90
  -3   9 -11   49.76    4.95
  -3   9 -11   55.26    5.15
  -3   9 -12   22.37    2.70
   3  -8 -10   -0.14    0.85
  -3   8   9  208.11   13.72
   3  -8  -9  196.60   13.84
  -3   8   8  108.33    7.75
  -3   8   8   94.88    7.72
  -3   8   7   13.65    2.90
  -3   8   7   18.51    2.82
  -3   8   6   27.74    3.76
  -3   8   6   26.61    3.55
  -3   8   5  238.71   17.13
  -3   8   5  260.29   17.17
  -3   8   4  257.96   19.16
  -3   8   4  308.88   19.28
   3  -8  -3   59.84   10.23
  -3   8   3   80.23    6.10
  -3   8   3   68.65    6.08
  -3   8   2  227.29   14.37
   3  -8  -2  123.66   17.92
  -3   8   1   58.60    5.01
   3  -8  -1   47.07    8.75
  -3   8   1   62.75    5.63
  -3   8   1   54.68    4.89
  -3   8   1   53.75    8.97
  -3   8   1   53.11    4.86
  -3   8   0  300.79   21.01
  -3   8   0  315.15   27.44
   3  -8   0  311.60   26.60
   3  -8   0  272.59   26.45
  -3   8   0  348.94   21.10
  -3   8   0  301.32   21.26
  -3   8   0  318.44   21.67
  -3   8   0  317.16   21.70
  -3   8   0  311.50   21.09
   3  -8   1   29.26    6.12
  -3   8  -1   36.37    7.25
  -3   8  -1   28.91    3.30
  -3   8  -1   20.46    3.10
  -3   8  -1   24.11    3.43
   3  -8   1   20.67    5.81
  -3   8  -1   27.52    3.65
  -3   8  -1   29.33    3.26
   3  -8   2  731.53   56.09
   3  -8   2  722.72   56.45
  -3   8  -2  774.81   50.65
  -3   8  -2  790.94   57.80
  -3   8  -2  780.95   50.81
  -3   8  -2  805.58   51.17
  -3   8  -2  819.57   51.42
  -3   8  -2  801.68   50.74
   3  -8   3   30.32    6.27
  -3   8  -3   34.65    7.51
  -3   8  -3   33.34    3.54
  -3   8  -3   27.75    3.72
   3  -8   3   30.95    6.57
  -3   8  -3   25.72    3.39
  -3   8  -3   31.52    4.02
  -3   8  -3   32.07    3.49
   3  -8   4   42.17    7.34
  -3   8  -4   39.26    8.03
  -3   8  -4   40.52    3.94
  -3   8  -4   44.32    4.10
  -3   8  -4   37.28    4.28
  -3   8  -4   30.37    4.31
  -3   8  -4   34.09    3.61
  -3   8  -4   39.16    3.98
  -3   8  -5    8.13    2.53
  -3   8  -5    5.83    1.78
   3  -8   5    4.65    3.16
  -3   8  -5    7.85    2.34
  -3   8  -5    3.21    1.72
  -3   8  -5    4.49    2.12
  -3   8  -6   27.85    4.02
  -3   8  -6   28.27    3.30
   3  -8   6   22.60    5.83
   3  -8   6   27.85    6.28
  -3   8  -6   25.56    3.64
  -3   8  -6   30.50    3.85
  -3   8  -6   29.94    3.48
  -3   8  -7  178.69   13.65
  -3   8  -7  186.85   13.61
  -3   8  -7  201.02   13.43
  -3   8  -7  177.83   13.92
  -3   8  -7  173.70   13.89
  -3   8  -7  196.70   13.23
  -3   8  -8   11.14    2.29
  -3   8  -8    4.83    2.42
  -3   8  -8    5.52    2.27
  -3   8  -8    4.24    2.78
  -3   8  -8    4.02    2.62
  -3   8  -8    5.69    2.12
  -3   8  -9  260.16   18.27
  -3   8  -9  255.12   18.18
  -3   8  -9  271.69   17.93
  -3   8  -9  223.60   18.49
  -3   8  -9  276.04   17.82
  -3   8 -10    0.97    1.57
  -3   8 -10    1.20    1.97
  -3   8 -10    0.89    2.04
  -3   8 -10    1.57    2.67
  -3   8 -10    2.20    1.91
  -3   8 -11    3.27    1.89
  -3   8 -11   -0.27    1.79
  -3   8 -11    4.01    2.48
  -3   8 -11    2.79    1.63
  -3   8 -12    1.39    1.50
  -3   8 -13   11.15    1.88
   3  -7 -11  104.09    7.51
   3  -7 -10  117.34    8.64
  -3   7  10  115.22    8.37
   3  -7  -9    4.96    2.11
  -3   7   9    6.72    2.08
  -3   7   8    2.82    2.24
  -3   7   8    1.41    2.06
  -3   7   7   55.92    5.27
  -3   7   6  109.66    8.58
   3  -7  -5   79.81   12.03
   3  -7  -5   84.27    6.81
  -3   7   5   91.07    7.06
  -3   7   5   89.08    6.97
   3  -7  -4   68.15   11.53
   3  -7  -4   87.56    6.93
  -3   7   4   93.33    7.19
   3  -7  -4   80.13   12.27
   3  -7  -3   38.74    7.91
  -3   7   3   45.10    4.27
   3  -7  -3   31.07    7.51
   3  -7  -2    3.84    3.27
   3  -7  -2    2.41    2.68
  -3   7   2    7.77    2.24
  -3   7   1  110.07    8.87
  -3   7   1  121.85   13.64
   3  -7  -1  115.59   13.63
  -3   7   1  151.10    9.23
   3  -7  -1  105.10   13.52
  -3   7   1  129.41    9.56
  -3   7   1  120.86    9.53
  -3   7   1  120.10    8.97
  -3   7   0   41.16    3.86
  -3   7   0   28.02    6.47
   3  -7   0   27.58    6.47
  -3   7   0   53.12    4.13
  -3   7   0   37.34    3.99
  -3   7   0   43.32    4.36
   3  -7   0   50.49    8.01
  -3   7   0   40.80    4.43
  -3   7   0   38.08    3.81
   3  -7   1  216.73   19.96
   3  -7   1  227.77   19.90
  -3   7  -1  211.59   14.87
  -3   7  -1  224.04   20.45
  -3   7  -1  224.21   15.11
  -3   7  -1  212.36   15.30
  -3   7  -1  221.73   15.49
  -3   7  -1  219.23   14.95
   3  -7   2  264.48   22.58
   3  -7   2  311.94   23.89
  -3   7  -2  257.04   17.78
  -3   7  -2  243.02   23.00
  -3   7  -2  271.90   17.99
  -3   7  -2  264.58   18.22
  -3   7  -2  273.92   18.51
  -3   7  -2  257.76   17.83
   3  -7   3  115.14   11.47
   3  -7   3   74.81   10.17
  -3   7  -3   81.02    6.22
  -3   7  -3  102.50   11.74
  -3   7  -3   75.56    6.21
  -3   7  -3   82.06    6.60
  -3   7  -3   85.83    6.92
  -3   7  -3   62.27    6.03
   3  -7   4    4.04    2.73
  -3   7  -4   -1.24    2.51
  -3   7  -4    3.06    1.49
  -3   7  -4    0.25    1.48
  -3   7  -4    1.75    1.44
  -3   7  -4    2.13    1.56
   3  -7   4    5.37    3.05
  -3   7  -4    0.31    1.80
  -3   7  -4    2.03    1.29
  -3   7  -4    1.68    1.46
  -3   7  -5   49.86    5.28
  -3   7  -5   53.38    4.54
   3  -7   5   54.54    8.26
  -3   7  -5   56.10    5.09
  -3   7  -5   44.53    4.79
  -3   7  -5   53.86    4.81
   3  -7   6    3.29    2.61
   3  -7   6   -1.17    2.78
  -3   7  -6   -1.01    2.08
  -3   7  -6    1.56    1.63
  -3   7  -6    0.97    2.09
  -3   7  -6    0.57    1.69
  -3   7  -6    0.24    1.49
  -3   7  -6    3.63    1.96
   3  -7   7  304.78   24.93
   3  -7   7  231.91   23.58
  -3   7  -7  290.42   19.44
  -3   7  -7  299.63   19.51
  -3   7  -7  286.25   19.81
  -3   7  -7  238.63   19.40
  -3   7  -7  289.67   18.89
  -3   7  -8   34.07    4.08
  -3   7  -8   31.89    4.06
  -3   7  -8   31.42    4.60
  -3   7  -8   35.18    3.74
  -3   7  -9   25.16    3.68
  -3   7  -9   26.43    3.79
  -3   7  -9   29.70    4.65
  -3   7  -9   31.18    3.59
  -3   7 -10   72.39    6.68
  -3   7 -10   71.61    6.56
  -3   7 -10   69.91    7.28
  -3   7 -10   78.55    6.23
  -3   7 -11    1.19    2.05
  -3   7 -11    0.79    2.44
  -3   7 -11    1.67    1.64
  -3   7 -12   21.52    3.58
  -3   7 -12   21.38    3.11
  -3   7 -13    8.54    1.98
   3  -6 -12   50.02    4.14
  -3   6  11   14.24    2.12
   3  -6 -11   19.48    2.53
  -3   6  10   60.21    5.28
   3  -6 -10   64.92    5.69
  -3   6   9    1.97    2.15
   3  -6  -8    4.84    1.99
  -3   6   8    0.70    2.29
  -3   6   7   36.47    4.21
   3  -6  -7   38.90    4.00
  -3   6   7   36.84    4.06
   3  -6  -6  126.84    9.24
  -3   6   6  123.80    9.42
  -3   6   6  136.52   16.07
  -3   6   6  128.73    9.31
   3  -6  -5  208.26   13.66
  -3   6   5  196.47   13.74
  -3   6   5  183.20   19.79
  -3   6   5  191.63   13.58
   3  -6  -5  156.06   19.29
   3  -6  -4  258.10   16.65
  -3   6   4  250.97   16.70
  -3   6   4  259.57   23.59
   3  -6  -3   11.26    4.29
  -3   6   3   21.06    5.64
  -3   6   3   14.55    2.45
   3  -6  -3    6.52    4.31
   3  -6  -2  121.21   13.63
   3  -6  -2  135.08   14.54
  -3   6   2  146.01    9.66
  -3   6   2  143.09   14.96
   3  -6  -2  149.66   15.35
  -3   6   2  118.47    9.89
  -3   6   2  131.92   13.76
  -3   6   1  494.52   37.10
   3  -6  -1  472.90   36.94
  -3   6   1  550.80   32.20
  -3   6   1  621.92   39.13
   3  -6  -1  496.47   37.33
  -3   6   1  469.55   32.28
  -3   6   1  469.04   32.48
  -3   6   1  515.30   32.68
  -3   6   1  468.56   32.01
  -3   6   0   74.78    9.39
   3  -6   0   65.23    8.40
   3  -6   0   74.75    9.10
  -3   6   0   62.87    4.96
  -3   6   0   57.42    8.61
   3  -6   0   48.44    7.93
  -3   6   0   58.66    5.03
  -3   6   0   59.52    5.24
  -3   6   0   59.04    5.44
  -3   6   0   59.32    4.90
  -3   6  -1  884.08   57.34
   3  -6   1  899.31   56.30
   3  -6   1  945.71   57.43
  -3   6  -1  973.00   58.04
  -3   6  -1  792.13   51.64
   3  -6   1  912.29   56.84
  -3   6  -1  766.81   51.81
  -3   6  -1  780.70   52.03
  -3   6  -1  785.08   51.49
  -3   6  -2    4.10    3.08
   3  -6   2    4.11    2.88
  -3   6  -2    2.06    3.09
  -3   6  -2    4.32    1.43
  -3   6  -2    5.42    1.73
   3  -6   2    6.55    3.28
  -3   6  -2    6.22    1.88
  -3   6  -2    6.48    1.54
  -3   6  -3   50.44    8.23
   3  -6   3   64.30    8.44
   3  -6   3   79.40    9.09
  -3   6  -3   66.93    9.19
  -3   6  -3   63.14    5.37
  -3   6  -3   72.13    5.28
  -3   6  -3   64.30    5.39
  -3   6  -3   54.14    5.44
  -3   6  -3   56.56    4.99
  -3   6  -4   16.37    2.28
  -3   6  -4   20.39    2.72
  -3   6  -4   15.06    2.45
   3  -6   4   14.95    4.26
   3  -6   4   26.47    5.08
  -3   6  -4   22.69    3.06
  -3   6  -4   16.78    2.11
  -3   6  -4   11.88    4.15
  -3   6  -5  139.90   10.69
  -3   6  -5  161.19   10.87
   3  -6   5  181.16   15.28
  -3   6  -5  120.25   10.72
  -3   6  -5  146.32   10.21
  -3   6  -5  161.20   11.06
  -3   6  -6  198.51   14.22
  -3   6  -6  201.16   14.30
   3  -6   6  181.13   18.08
   3  -6   6  213.70   18.76
  -3   6  -6  207.32   13.77
  -3   6  -6  199.09   14.58
  -3   6  -7  268.64   18.44
  -3   6  -7  247.43   17.77
  -3   6  -7  267.78   17.96
   3  -6   7  305.32   23.29
  -3   6  -7  259.89   17.35
  -3   6  -7  244.99   22.33
  -3   6  -8  262.74   19.49
  -3   6  -8  286.46   19.06
   3  -6   8  322.10   24.72
   3  -6   8  235.45   23.25
  -3   6  -8  280.57   18.43
  -3   6  -8  213.33   22.88
  -3   6  -9  114.40    8.54
  -3   6  -9   94.70    8.95
  -3   6  -9   94.37    7.66
  -3   6 -10   28.21    3.86
  -3   6 -10   18.34    3.91
  -3   6 -10   25.34    3.17
  -3   6 -11   27.31    3.84
  -3   6 -11   21.81    4.11
  -3   6 -11   26.07    3.09
  -3   6 -12  122.18   11.08
  -3   6 -12  161.52   10.96
  -3   6 -13   37.62    3.97
  -3   6 -14   39.86    3.69
   3  -5 -12  166.49   11.70
   3  -5 -11   24.86    3.47
  -3   5  11   30.76    3.24
   3  -5 -10   35.33    4.24
   3  -5 -10   30.40    3.42
  -3   5  10   31.18    3.66
   3  -5  -9   11.53    2.49
   3  -5  -8  375.70   24.92
   3  -5  -7  223.52   14.12
  -3   5   7  190.97   20.79
  -3   5   7  198.71   13.92
   3  -5  -6   99.73    7.22
  -3   5   6   88.50    7.10
  -3   5   6   83.61   12.40
   3  -5  -6   77.54   12.05
   3  -5  -5  666.67   39.28
  -3   5   5  625.70   46.47
  -3   5   5  569.63   39.03
   3  -5  -5  517.17   45.29
  -3   5   4   58.02    4.91
  -3   5   4   52.10    4.66
  -3   5   4   77.04   10.17
   3  -5  -4   59.10    9.23
  -3   5   3  158.30   10.91
  -3   5   3  180.16   16.82
   3  -5  -3  169.15   16.30
  -3   5   2   54.25    8.17
  -3   5   2   53.60    4.46
   3  -5  -2   44.78    7.66
   3  -5  -2   51.11    8.01
   3  -5  -2   69.78    8.22
  -3   5   1 2536.90  162.45
  -3   5   1 2887.15  168.59
   3  -5  -1 2701.76  167.88
   3  -5  -1 2583.15  166.79
  -3   5   0  424.38   27.93
  -3   5   0  487.28   33.36
   3  -5   0  446.96   32.45
   3  -5   0  410.39   31.30
   3  -5   0  460.30   32.34
  -3   5  -1  535.02   39.41
   3  -5   1  564.74   38.92
   3  -5   1  543.13   38.15
   3  -5   1  522.55   38.68
  -3   5  -2  587.78   42.18
   3  -5   2  542.16   40.78
   3  -5   2  573.60   40.71
   3  -5   2  635.06   41.72
  -3   5  -3  358.28   29.57
   3  -5   3  412.35   28.72
   3  -5   3  375.64   28.89
   3  -5   4  165.97   14.92
   3  -5   4  145.02   14.61
  -3   5  -4  180.87   11.87
  -3   5  -4  157.21   11.62
   3  -5   5    0.83    2.25
  -3   5  -5    3.06    2.08
  -3   5  -5    2.26    1.49
   3  -5   6  707.02   56.18
   3  -5   6  860.42   57.22
  -3   5  -6  832.95   53.00
  -3   5  -6  829.30   52.68
  -3   5  -7   52.24    5.57
   3  -5   7   55.83    8.23
   3  -5   7   49.08    7.67
  -3   5  -8    3.38    2.76
   3  -5   8   10.90    4.17
   3  -5   8    3.33    2.47
  -3   5  -9  110.10    9.32
   3  -5   9   89.38   11.80
  -3   5 -10  131.64   11.50
  -3   5 -10  144.02   10.25
  -3   5 -11   33.18    4.70
  -3   5 -12   33.19    4.14
  -3   5 -13  119.58    9.14
  -3   5 -14    1.51    1.31
   3  -4 -13  159.60   11.62
   3  -4 -13  203.80   12.23
   3  -4 -12    3.57    1.55
   3  -4 -12    1.07    1.84
   3  -4 -12    4.54    1.80
   3  -4 -11   35.50    3.68
   3  -4 -11   30.77    4.08
   3  -4 -11   37.24    4.19
   3  -4 -10   11.65    2.83
   3  -4 -10   13.33    2.56
   3  -4  -9  543.04   38.79
   3  -4  -9  621.88   38.29
   3  -4  -8   33.13    8.01
   3  -4  -8   35.87    8.45
   3  -4  -8   56.37    4.53
  -3   4   8   24.65    7.33
  -3   4   8   35.09    8.42
   3  -4  -7  474.80   43.72
   3  -4  -7  467.68   43.91
   3  -4  -7  599.38   37.55
  -3   4   7  631.22   46.21
  -3   4   7  660.86   46.05
   3  -4  -6   81.49   11.57
   3  -4  -6   60.32   10.03
   3  -4  -6   81.95    6.14
  -3   4   6   73.67   10.80
  -3   4   6   75.32    6.01
  -3   4   6   89.87   11.90
   3  -4  -5    6.66    1.55
  -3   4   5   16.18    5.22
  -3   4   5    5.10    1.58
  -3   4   5   10.10    4.12
   3  -4  -5    8.52    4.12
  -3   4   4  253.45   19.86
  -3   4   4  182.74   12.89
   3  -4  -4  220.69   18.94
  -3   4   3  248.41   16.74
  -3   4   3  273.03   22.05
   3  -4  -3  277.29   21.96
   3  -4  -3  246.00   21.38
  -3   4   2  809.31   54.18
  -3   4   2  975.60   60.07
   3  -4  -2  915.86   58.15
   3  -4  -2  960.66   59.41
   3  -4  -2  927.56   59.52
  -3   4   1   57.86    4.47
  -3   4   1   49.04    7.44
   3  -4  -1   72.15    8.04
   3  -4  -1   60.52    7.21
  -3   4   1   48.62    7.35
   3  -4  -1   57.51    7.51
   3  -4   0  413.39   31.39
   3  -4   0  516.20   32.66
  -3   4   0  437.76   28.68
  -3   4   0  506.01   33.63
  -3   4   0  438.00   32.99
   3  -4   0  453.67   32.54
  -3   4  -1   17.81    4.54
   3  -4   1   13.21    3.25
   3  -4   1   18.50    4.12
   3  -4   1   16.51    3.89
  -3   4  -2   35.55    5.75
   3  -4   2   29.45    4.72
   3  -4   2   35.19    5.24
   3  -4   2   25.40    4.89
   3  -4   3   15.49    3.62
  -3   4  -3   17.45    4.52
  -3   4  -3   24.01    5.51
   3  -4   3   12.36    3.62
   3  -4   3   26.01    4.46
  -3   4  -3   18.82    2.41
   3  -4   4   41.93    5.94
   3  -4   4   44.31    6.12
   3  -4   4   41.35    5.83
  -3   4  -4   34.69    3.71
   3  -4   5  619.22   43.07
   3  -4   5  560.44   42.47
  -3   4  -5  627.55   39.76
   3  -4   6  302.86   23.61
   3  -4   6  250.00   22.76
  -3   4  -6  313.46   20.40
   3  -4   7   93.47   10.39
   3  -4   7   66.54    8.99
  -3   4  -7   73.73    6.84
   3  -4   8   24.24    5.61
   3  -4   8   23.57    5.23
  -3   4  -8   19.65    3.75
   3  -4   9   83.09   10.76
  -3   4  -9   79.40    7.66
  -3   4 -10   10.42    3.44
  -3   4 -11  163.95   13.35
   3  -4  11  181.84   12.79
   3  -4  12    5.24    2.30
  -3   4 -13   78.08    6.12
   3  -4  13   59.32    5.52
  -3   4 -14    1.54    1.34
   3  -4  14    1.35    1.29
   3  -3 -13   51.88    4.08
   3  -3 -13   42.72    3.78
   3  -3 -13   43.57    4.15
   3  -3 -12    1.60    1.67
   3  -3 -12   -0.31    2.02
   3  -3 -12    1.32    1.75
   3  -3 -11   19.08    2.97
   3  -3 -11   18.66    3.52
   3  -3 -11   24.97    3.54
   3  -3 -10   63.88    6.73
   3  -3 -10   78.08    6.18
   3  -3  -9  128.82   10.92
   3  -3  -9  113.86   16.18
   3  -3  -9  154.25   10.45
  -3   3   9  146.60   17.01
   3  -3  -8  366.77   32.24
   3  -3  -8  362.47   26.04
   3  -3  -8  335.80   32.42
  -3   3   8  406.92   33.16
   3  -3  -8  410.59   25.54
   3  -3  -7  172.19   19.25
   3  -3  -7  191.03   20.12
   3  -3  -7  203.65   14.69
  -3   3   7  198.70   20.03
   3  -3  -7  216.27   14.14
   3  -3  -6    5.94    3.57
   3  -3  -6    6.41    1.99
   3  -3  -6    9.74    4.26
   3  -3  -6    5.01    1.44
  -3   3   6    8.13    3.93
   3  -3  -5    4.24    3.02
   3  -3  -5    3.09    2.79
  -3   3   5    2.05    2.92
  -3   3   5    6.89    3.43
   3  -3  -5    3.56    1.26
  -3   3   4  185.01   17.44
  -3   3   4  183.20   12.42
   3  -3  -4  218.99   17.89
  -3   3   3    0.24    1.15
  -3   3   3    0.90    2.82
   3  -3  -3   -0.82    2.67
  -3   3   3    2.99    2.42
   3  -3  -3    2.40    2.39
   3  -3  -2  515.81   33.71
   3  -3  -2  488.58   32.28
  -3   3   2  510.38   33.47
  -3   3   2  427.75   29.22
  -3   3   2  493.24   34.05
  -3   3   2  509.37   33.58
   3  -3  -2  467.98   33.33
   3  -3  -1  254.25   18.53
   3  -3  -1  221.66   17.65
  -3   3   1  219.03   18.38
  -3   3   1  233.18   18.90
  -3   3   1  240.72   18.90
   3  -3  -1  216.23   18.31
   3  -3   0  114.18   10.11
   3  -3   0  133.03   11.02
  -3   3   0  108.61   11.14
  -3   3   0  115.74   11.46
  -3   3   0  127.28   11.97
   3  -3   0  125.84   11.36
   3  -3   1   82.33    7.77
  -3   3  -1   73.40    8.79
   3  -3   1   88.13    8.53
  -3   3  -1   83.01    9.20
  -3   3  -1   71.71    8.90
  -3   3  -1   89.13    8.98
   3  -3   1   74.68    8.18
   3  -3   2   21.62    3.76
  -3   3  -2   25.72    4.95
  -3   3  -2   20.82    4.74
   3  -3   2   26.51    4.39
   3  -3   2   25.37    4.35
   3  -3   3  332.37   24.46
   3  -3   3  376.88   25.24
  -3   3  -3  322.21   26.99
  -3   3  -3  271.05   25.60
  -3   3  -3  338.81   22.14
   3  -3   3  367.62   25.28
   3  -3   4   13.49    3.66
  -3   3  -4   17.52    5.37
  -3   3  -4   17.41    2.52
   3  -3   4   21.35    4.25
   3  -3   4   19.48    4.03
  -3   3  -5  244.98   23.63
   3  -3   5  303.55   23.10
   3  -3   5  312.85   23.23
   3  -3   5  291.72   22.65
  -3   3  -5  281.66   26.27
  -3   3  -5  313.75   20.35
   3  -3   5  320.60   23.78
  -3   3  -6    1.17    2.58
   3  -3   6    3.19    2.28
   3  -3   6    7.38    2.90
  -3   3  -6    0.27    1.82
  -3   3  -6    1.58    4.02
   3  -3   7   74.07    9.21
  -3   3  -7   67.91    6.35
  -3   3  -7   65.96   11.75
   3  -3   8    4.15    2.95
  -3   3  -8    2.10    4.63
  -3   3  -8    0.70    2.50
   3  -3   9  141.17   14.29
   3  -3   9  112.44    9.16
  -3   3  -9  124.34   10.02
  -3   3  -9  104.93   16.84
   3  -3  10   46.12    4.97
   3  -3  11  147.88   11.16
   3  -3  12  106.11    8.41
   3  -3  13    1.89    1.85
  -3   3 -14   12.15    1.97
   3  -3  14   10.35    1.82
   3  -2 -14   79.64    5.99
   3  -2 -14   89.43    6.26
   3  -2 -13   20.42    3.12
   3  -2 -13   19.19    2.38
   3  -2 -13   20.40    2.70
   3  -2 -12    0.34    2.26
   3  -2 -12    1.33    1.94
   3  -2 -12   -0.19    1.25
   3  -2 -11   58.88    5.41
   3  -2 -11   48.07    5.57
   3  -2 -11   50.49    4.90
   3  -2 -10  127.12   10.69
   3  -2 -10  136.04    9.88
   3  -2  -9   -1.37    2.37
   3  -2  -9    1.69    2.63
   3  -2  -9    2.38    1.91
   3  -2  -8  876.00   59.98
   3  -2  -8  935.89   67.43
  -3   2   8  926.06   66.38
   3  -2  -8  968.39   59.40
   3  -2  -7   15.32    4.63
  -3   2   7    1.19    2.16
   3  -2  -7    5.15    1.59
  -3   2   7    7.02    3.81
   3  -2  -7    4.32    1.95
   3  -2  -7   14.33    5.12
   3  -2  -6   44.44    4.31
   3  -2  -6   42.14    7.54
   3  -2  -6   47.13    3.96
   3  -2  -6   47.30    3.90
  -3   2   6   43.11    7.42
   3  -2  -6   47.08    4.06
   3  -2  -6   38.90    6.89
  -3   2   6   37.82    6.82
   3  -2  -5   30.49    5.63
  -3   2   5   28.63    5.75
   3  -2  -5   25.15    5.36
   3  -2  -5   26.90    3.01
  -3   2   5   20.55    4.97
  -3   2   4  816.10   56.15
   3  -2  -4  869.76   56.42
  -3   2   4  721.28   56.01
  -3   2   4  874.38   55.66
   3  -2  -4  807.66   52.04
   3  -2  -4  839.90   56.03
  -3   2   3  435.72   32.79
   3  -2  -3  490.22   33.26
  -3   2   3  437.50   33.28
  -3   2   3  493.49   32.89
   3  -2  -3  421.60   32.45
  -3   2   2  217.99   18.10
   3  -2  -2  208.08   16.52
   3  -2  -2  244.24   18.06
  -3   2   2  206.50   17.92
  -3   2   2  251.24   18.28
   3  -2  -2  223.40   17.69
   3  -2  -1 1538.31   94.37
  -3   2   1 1407.70   94.83
   3  -2  -1 1410.97   93.48
  -3   2   1 1446.75   94.86
  -3   2   1 1509.20   94.19
  -3   2   1 1440.89   94.92
   3  -2  -1 1415.09   94.17
   3  -2   0  362.71   25.70
   3  -2   0  395.49   26.72
  -3   2   0  380.24   27.69
   3  -2   0  419.71   26.84
  -3   2   0  364.95   27.28
  -3   2   0  369.58   27.14
  -3   2   0  370.51   27.75
   3  -2   0  355.16   26.70
   3  -2   1   81.03    7.14
  -3   2  -1   72.19    8.60
   3  -2   1   78.04    7.60
  -3   2  -1   79.96    8.33
  -3   2  -1   82.85    8.56
  -3   2  -1   59.12    7.97
   3  -2   1   76.91    7.80
   3  -2   2    6.08    2.22
  -3   2  -2    3.07    3.12
  -3   2  -2    5.89    2.98
  -3   2  -2    9.09    3.44
   3  -2   2   12.68    3.17
   3  -2   2    7.80    2.64
  -3   2  -3 1407.07  101.22
   3  -2   3 1570.54  100.79
   3  -2   3 1490.26  100.25
  -3   2  -3 1641.94  103.95
  -3   2  -3 1557.25   98.11
  -3   2  -3 1554.16  102.85
   3  -2   3 1723.55  101.35
  -3   2  -4  484.55   37.69
   3  -2   4  516.96   36.42
   3  -2   4  568.49   37.01
  -3   2  -4  528.15   39.92
  -3   2  -4  475.06   38.56
  -3   2  -4  519.86   34.00
   3  -2   4  583.18   37.41
  -3   2  -5  291.05   24.37
   3  -2   5  290.82   22.51
   3  -2   5  323.34   23.01
   3  -2   5  283.74   22.94
  -3   2  -5  312.43   26.63
  -3   2  -5  289.89   19.86
  -3   2  -6  455.19   30.76
  -3   2  -6  390.44   35.84
   3  -2   6  539.50   35.03
  -3   2  -6  461.33   38.70
  -3   2  -6  503.95   31.34
  -3   2  -7   93.21    7.30
   3  -2   7   90.97    7.32
  -3   2  -7   66.59   11.36
   3  -2   7  111.18   11.29
  -3   2  -7   87.27   13.60
  -3   2  -7  102.40    7.95
  -3   2  -8  162.96   11.89
   3  -2   8  158.05   11.90
   3  -2   8  209.10   17.37
  -3   2  -8  149.42   20.09
  -3   2  -8  165.00   12.49
   3  -2   9   24.56    3.57
  -3   2  -9   28.68    3.49
   3  -2   9   22.02    5.86
  -3   2 -10  458.93   33.16
   3  -2  10  557.88   33.51
   3  -2  11   51.91    5.23
   3  -2  12    7.98    2.59
   3  -2  13   14.77    2.50
   3  -2  14   36.86    3.35
   3  -1 -14  183.34   12.73
   3  -1 -14  197.96   12.98
   3  -1 -13   33.66    3.52
   3  -1 -13   32.58    3.20
   3  -1 -13   23.68    3.71
   3  -1 -12  204.65   16.55
   3  -1 -12  228.11   15.74
   3  -1 -12  258.62   16.19
   3  -1 -11   40.32    4.23
   3  -1 -11   38.39    4.83
  -3   1  10  360.21   39.63
   3  -1 -10  313.83   39.48
   3  -1 -10  549.62   32.24
   3  -1 -10  489.26   32.96
  -3   1  10  459.86   38.30
   3  -1  -9  466.56   39.39
   3  -1  -9  489.96   32.45
  -3   1   9  484.99   40.83
   3  -1  -9  485.13   31.63
   3  -1  -9  498.86   31.96
  -3   1   9  496.56   39.50
  -3   1   9  588.79   38.97
   3  -1  -8   13.48    2.70
   3  -1  -8   18.24    5.56
  -3   1   8   12.25    4.65
  -3   1   8    9.71    3.58
   3  -1  -8   13.22    2.05
  -3   1   8    9.28    5.26
   3  -1  -8    5.36    4.89
   3  -1  -8   12.89    2.33
   3  -1  -7  116.87   13.63
   3  -1  -7  129.52    9.35
   3  -1  -7  120.73    8.69
  -3   1   7  128.00   14.90
   3  -1  -7  114.06    8.52
   3  -1  -7   78.74   13.34
   3  -1  -7  126.90    8.90
   3  -1  -7  128.27   13.29
  -3   1   7  128.50   14.14
  -3   1   7  121.76   12.65
  -3   1   6  460.23   35.76
   3  -1  -6  460.75   35.14
  -3   1   6  457.84   34.30
   3  -1  -6  494.46   30.95
   3  -1  -6  482.30   35.80
  -3   1   6  505.61   35.30
  -3   1   6  435.95   35.93
   3  -1  -6  391.55   36.23
   3  -1  -5 1116.09   73.93
  -3   1   5 1089.43   74.31
  -3   1   5  959.83   72.38
  -3   1   5 1086.96   74.69
   3  -1  -5 1009.50   75.14
   3  -1  -5 1093.48   74.08
  -3   1   5 1265.89   73.92
   3  -1  -5 1121.05   69.76
   3  -1  -4   14.49    3.57
  -3   1   4    7.27    3.24
  -3   1   4    6.63    3.71
  -3   1   4    9.51    3.41
   3  -1  -4   12.19    4.35
  -3   1   4   11.65    3.27
   3  -1  -4   11.94    1.89
   3  -1  -4   10.04    3.35
   3  -1  -4    9.18    3.09
   3  -1  -3 1114.32   68.36
  -3   1   3 1075.83   68.80
  -3   1   3  918.00   67.84
   3  -1  -3 1022.04   69.00
  -3   1   3 1112.36   68.37
   3  -1  -3  941.51   67.04
   3  -1  -2  808.04   49.40
  -3   1   2  668.54   49.33
   3  -1  -2  679.77   47.63
  -3   1   2  727.75   49.28
   3  -1  -2  755.47   50.11
  -3   1   2  695.98   48.79
  -3   1   2  743.50   49.52
   3  -1  -2  781.84   48.82
   3  -1  -1  347.60   23.88
  -3   1   1  320.06   24.42
   3  -1  -1  319.50   22.89
   3  -1  -1  332.92   24.66
  -3   1   1  319.49   23.83
  -3   1   1  328.32   24.02
  -3   1   1  350.60   24.61
   3  -1  -1  316.12   23.35
   3  -1   0  657.10   46.25
   3  -1   0  720.68   46.75
   3  -1   0  699.81   45.56
  -3   1   0  678.50   47.71
  -3   1   0  703.70   47.07
  -3   1   0  727.56   47.72
  -3   1   0  677.83   47.64
   3  -1   0  738.89   46.80
  -3   1  -1  323.14   23.77
   3  -1   1  354.53   23.51
   3  -1   1  324.95   22.64
  -3   1  -1  309.86   24.51
  -3   1  -1  333.05   24.02
  -3   1  -1  319.40   24.53
  -3   1  -1  316.19   24.41
   3  -1   1  331.14   23.48
  -3   1  -2 1752.19  115.83
   3  -1   2 1776.88  114.42
   3  -1   2 1945.11  115.28
  -3   1  -2 1842.81  116.86
  -3   1  -2 1557.99  115.96
   3  -1   2 1851.79  115.39
  -3   1  -3  142.92   14.15
   3  -1   3  149.66   13.01
   3  -1   3  164.51   13.52
  -3   1  -3  204.75   16.79
  -3   1  -3  170.15   15.38
   3  -1   3  176.76   13.88
  -3   1  -4  741.88   56.19
   3  -1   4  850.29   54.79
   3  -1   4  828.78   54.99
  -3   1  -4  872.51   58.72
  -3   1  -4  662.69   56.45
  -3   1  -4  821.70   52.15
   3  -1   4  894.01   55.61
  -3   1  -5  100.03   12.28
   3  -1   5  117.04   11.07
   3  -1   5  114.81   10.82
  -3   1  -5  116.53   13.97
  -3   1  -5   86.42   12.07
  -3   1  -5  118.37    8.57
   3  -1   6   84.76    6.74
  -3   1  -6   82.24    6.74
  -3   1  -6   75.27   11.17
   3  -1   6   90.37    9.75
  -3   1  -6   63.01   11.34
  -3   1  -6  105.41    7.40
   3  -1   7   13.67    2.52
  -3   1  -7   15.55    2.36
  -3   1  -7   27.26    6.88
   3  -1   7   17.70    4.62
  -3   1  -7   17.00    6.65
  -3   1  -7   15.60    2.82
  -3   1  -8  327.36   33.89
   3  -1   8  377.03   24.56
  -3   1  -8  362.42   24.60
  -3   1  -8  296.59   31.20
   3  -1   8  410.56   29.91
  -3   1  -9  169.60   22.93
  -3   1  -9  186.28   14.16
   3  -1   9  215.89   14.29
   3  -1   9  188.21   18.84
  -3   1 -10   47.03    4.99
   3  -1  10   52.17    5.24
  -3   1 -11   59.70    5.91
   3  -1  11   74.09    6.25
   3  -1  12    9.48    2.42
  -3   1 -12    6.76    2.02
   3  -1  13   42.47    4.07
   3  -1  14    5.79    1.31
   3   0 -15   39.96    3.26
   3   0 -15   32.69    2.94
   3   0 -14    0.15    1.09
   3   0 -14   -0.37    1.50
   3   0 -13   48.19    4.34
   3   0 -13   39.29    3.75
   3   0 -13   33.50    4.42
   3   0 -12  132.11    9.37
   3   0 -12  143.59    9.88
   3   0 -11  151.52   11.94
   3   0 -11  147.49   11.12
   3   0 -11  159.28   10.89
  -3   0  10   15.20    5.75
   3   0 -10   15.79    2.62
  -3   0  10    2.00    5.16
   3   0 -10    8.94    5.75
   3   0 -10   18.02    3.18
   3   0  -9  156.18   11.72
   3   0  -9  158.51   11.08
  -3   0   9  149.74   17.42
  -3   0   9  136.37   18.12
   3   0  -9  120.73   17.81
   3   0  -9  151.64   10.84
   3   0  -9  154.74   11.24
   3   0  -8   70.01    5.88
   3   0  -8   65.38    5.27
  -3   0   8   53.53    9.34
   3   0  -8   59.69    5.05
  -3   0   8   75.59   11.40
   3   0  -8   75.81   12.21
   3   0  -8   60.38    5.39
   3   0  -7   55.84    4.55
   3   0  -7   44.76    3.86
   3   0  -7   37.02    3.60
  -3   0   7   42.27    8.30
   3   0  -7   36.50    8.08
   3   0  -7   43.50    3.97
   3   0  -7   41.57    6.77
  -3   0   7   48.05    8.17
   3   0  -6   47.20    6.89
  -3   0   6   40.69    7.02
   3   0  -6   40.40    4.04
  -3   0   6   43.01    6.53
  -3   0   6   46.78    8.10
   3   0  -6   42.54    8.21
   3   0  -5  285.61   22.47
  -3   0   5  281.36   23.16
  -3   0   5  270.21   22.05
   3   0  -5  293.41   18.85
  -3   0   5  254.01   23.15
   3   0  -5  266.95   23.78
   3   0  -4 1192.00   77.41
  -3   0   4 1075.45   77.77
  -3   0   4 1098.42   77.16
   3   0  -4 1252.03   79.49
  -3   0   4 1267.51   77.91
  -3   0   4 1166.55   77.29
   3   0  -3  691.49   47.14
  -3   0   3  598.51   47.23
  -3   0   3  643.74   46.68
   3   0  -3  791.61   49.10
  -3   0   3  745.62   47.53
  -3   0   3  778.76   47.97
   3   0  -3  669.93   45.98
   3   0  -2   97.84    9.36
   3   0  -2   99.90    8.28
  -3   0   2   91.39    9.71
  -3   0   2   90.66    8.96
  -3   0   2   94.15    8.99
   3   0  -2  128.90   11.07
  -3   0   2  103.20    9.74
  -3   0   2  116.37   10.26
   3   0  -2  102.31    8.67
   3   0  -1  175.41   14.17
  -3   0   1  181.37   15.60
  -3   0   1  203.25   15.32
   3   0  -1  239.43   17.04
  -3   0   1  187.34   14.70
  -3   0   1  178.66   15.41
  -3   0   1  221.29   16.10
   3   0  -1  190.31   14.45
  -3   0   0  348.51   25.17
   3   0   0  337.46   24.28
  -3   0   0  353.85   25.69
  -3   0   0  326.09   24.34
  -3   0   0  364.73   25.96
  -3   0   0  356.97   25.58
   3   0   0  356.91   24.39
  -3   0  -1  224.53   17.41
   3   0   1  203.35   15.59
  -3   0  -1  221.57   17.60
   3   0   1  200.66   16.18
  -3   0  -1  222.97   16.55
  -3   0  -1  231.21   17.91
  -3   0  -1  224.15   17.36
   3   0   1  226.18   16.49
  -3   0  -2 1692.07  110.84
   3   0   2 1733.91  108.98
   3   0   2 1777.23  109.65
  -3   0  -2 1634.79  110.16
  -3   0  -2 1839.22  112.21
  -3   0  -2 1626.38  110.25
  -3   0  -2 1644.11  111.07
   3   0   2 1677.06  109.58
  -3   0  -3   29.67    5.34
   3   0   3   17.64    3.62
  -3   0  -3   24.02    5.50
  -3   0  -3   20.94    4.90
   3   0   3   23.85    4.37
   3   0   3   19.58    3.87
  -3   0  -4   29.00    6.18
   3   0   4   34.30    5.17
  -3   0  -4   34.14    6.92
  -3   0  -4   30.94    6.30
   3   0   4   33.97    5.39
  -3   0  -5    1.17    2.99
   3   0   5    2.14    2.23
   3   0   5    0.74    2.01
  -3   0  -5    6.96    3.76
  -3   0  -5    0.45    1.48
  -3   0  -5    1.14    3.07
  -3   0  -6   24.33    2.84
   3   0   6   21.37    2.84
  -3   0  -6   27.31    3.31
  -3   0  -6   18.07    6.09
  -3   0  -6   20.66    5.87
   3   0   6   26.05    5.12
  -3   0  -7  191.00   13.40
   3   0   7  192.28   13.22
  -3   0  -7  185.54   13.49
  -3   0  -7  176.45   21.11
   3   0   7  177.63   17.76
  -3   0  -7  140.15   18.58
   3   0   7  205.71   17.71
   3   0   8    5.55    2.17
  -3   0  -8    8.15    2.22
  -3   0  -8    7.76    2.61
  -3   0  -8    5.38    4.59
   3   0   8    7.82    3.79
  -3   0  -8    8.69    5.55
   3   0   9  273.42   24.83
  -3   0  -9  268.88   19.58
   3   0   9  296.97   19.53
   3   0  10   -0.55    2.51
  -3   0 -10    3.51    2.19
  -3   0 -11   79.90    7.00
   3   0  11   80.40    6.89
   3   0  12    6.96    2.26
  -3   0 -12    6.71    2.00
  -3   0 -13   53.58    4.79
   3   0  13   59.97    4.82
   3   1 -15    2.69    1.31
   3   1 -15    1.98    0.97
   3   1 -14    1.18    1.76
   3   1 -14    1.62    1.19
   3   1 -13   90.43    8.12
   3   1 -13   96.24    7.23
   3   1 -13  100.05    7.62
   3   1 -12   -0.35    2.18
   3   1 -12    5.46    2.13
   3   1 -12    3.32    1.47
   3   1 -11  123.30   10.05
   3   1 -11  131.45    9.59
   3   1 -11  130.10    9.41
   3   1 -11  117.50    8.95
   3   1 -10   48.83    4.55
  -3  -1  10   37.75    8.47
  -3  -1  10   34.70    9.21
   3   1 -10   26.23    8.77
   3   1 -10   43.94    4.18
   3   1 -10   43.05    4.95
   3   1  -9   12.45    2.55
   3   1  -9   10.87    2.13
  -3  -1   9    6.23    4.46
   3   1  -9    9.28    1.97
  -3  -1   9   -1.83    4.96
   3   1  -9   -1.96    4.34
   3   1  -9    9.20    2.31
   3   1  -8    2.87    1.82
   3   1  -8    1.75    1.31
  -3  -1   8    1.38    2.77
   3   1  -8    2.22    1.26
  -3  -1   8   -1.61    4.10
   3   1  -8   -1.71    3.45
   3   1  -8    1.07    1.49
   3   1  -7   95.21    6.80
  -3  -1   7   83.96   10.16
   3   1  -7   81.14    6.23
   3   1  -7   80.74    6.01
  -3  -1   7   93.60   12.55
   3   1  -7   80.07   11.92
   3   1  -7   77.67    6.31
  -3  -1   7   69.25   10.62
   3   1  -6  300.05   24.36
  -3  -1   6  294.25   25.43
  -3  -1   6  330.81   27.06
   3   1  -6  284.67   26.33
   3   1  -6  313.82   20.75
  -3  -1   6  342.49   25.29
   3   1  -5    1.47    2.38
  -3  -1   5    1.78    3.21
  -3  -1   5    3.15    3.65
   3   1  -5    6.52    4.37
  -3  -1   5    1.62    2.42
  -3  -1   5   -0.82    2.45
   3   1  -4 1445.84   93.85
  -3  -1   4 1347.93   94.16
   3   1  -4 1515.70   95.92
  -3  -1   4 1379.44   94.10
  -3  -1   4 1501.10   94.60
  -3  -1   3  364.33   26.07
   3   1  -3  364.17   26.92
  -3  -1   3  343.07   25.78
  -3  -1   3  316.96   25.55
  -3  -1   2  116.12   10.95
  -3  -1   2  104.97   10.62
  -3  -1   2  119.47   11.24
  -3  -1   2  119.14   10.97
   3   1  -2  124.96   11.92
  -3  -1   1   82.93    8.33
  -3  -1   1   80.87    8.62
   3   1  -1   75.99    7.14
  -3  -1   1   78.20    8.26
  -3  -1   1   74.31    8.10
   3   1  -1   79.65    6.99
  -3  -1   0  193.36   15.17
  -3  -1   0  169.22   14.04
  -3  -1   0  148.19   14.06
   3   1   0  181.29   13.54
  -3  -1   0  178.58   14.47
   3   1   0  161.91   13.00
  -3  -1  -1  116.83   11.28
  -3  -1  -1  116.45   11.13
   3   1   1  119.91   10.02
   3   1   1  104.27    9.11
  -3  -1  -1  110.05   10.63
   3   1   1  103.73    9.53
  -3  -1  -2  968.51   67.42
   3   1   2  996.70   65.43
   3   1   2  984.49   66.13
  -3  -1  -2  961.18   67.10
  -3  -1  -2 1011.53   67.61
  -3  -1  -2 1173.20   68.78
   3   1   2  962.72   65.83
  -3  -1  -3  354.39   29.04
  -3  -1  -3  421.18   30.45
  -3  -1  -3  367.35   28.86
  -3  -1  -3  397.74   29.72
   3   1   3  352.58   27.57
   3   1   3  402.33   27.48
  -3  -1  -4    6.02    3.50
  -3  -1  -4    3.27    3.26
   3   1   4    1.32    2.44
  -3  -1  -4    0.97    2.75
  -3  -1  -4   -1.20    3.05
  -3  -1  -5   22.85    6.48
   3   1   5   45.92    6.54
  -3  -1  -5   45.40    8.60
   3   1   5   34.81    6.25
  -3  -1  -5   43.93    3.79
   3   1   5   33.20    3.60
  -3  -1  -6    7.30    4.57
   3   1   6    3.65    3.10
   3   1   6   12.36    4.37
  -3  -1  -6   10.02    5.00
  -3  -1  -6    6.34    1.81
   3   1   6    7.47    1.97
  -3  -1  -7  479.98   34.50
   3   1   7  533.16   34.40
  -3  -1  -7  571.73   34.99
   3   1   7  573.55   39.87
  -3  -1  -7  484.26   42.00
  -3  -1  -7  462.82   43.15
   3   1   7  567.30   40.47
  -3  -1  -8   74.23    6.82
   3   1   8   74.01    6.51
  -3  -1  -8   91.93    7.32
  -3  -1  -8   62.73   11.78
   3   1   8   74.59   10.40
  -3  -1  -8   67.09   13.07
  -3  -1  -9  232.84   16.98
   3   1   9  248.97   16.75
  -3  -1  -9  234.20   17.22
   3   1  10  209.96   14.80
  -3  -1 -10  217.53   15.22
  -3  -1 -10  197.35   15.14
   3   1  11    1.64    2.17
  -3  -1 -11    6.17    2.25
  -3  -1 -11    1.24    2.02
   3   1  12   76.34    6.37
  -3  -1 -12   87.09    6.74
  -3  -1 -13   40.90    3.67
   3   1  13   39.33    3.49
   3   2 -15    2.36    1.09
   3   2 -15    0.47    1.28
   3   2 -15    2.63    1.56
   3   2 -14    1.50    1.32
   3   2 -14    1.80    1.82
   3   2 -14    0.60    2.00
   3   2 -13   80.47    7.58
   3   2 -13   86.99    6.58
   3   2 -13   84.89    6.91
   3   2 -12  167.92   11.92
   3   2 -12  175.26   12.27
   3   2 -12  170.12   12.43
   3   2 -11    4.27    2.24
   3   2 -11    4.26    1.97
   3   2 -11    0.90    1.79
   3   2 -11    2.05    1.27
   3   2 -10  355.54   23.12
   3   2 -10  361.26   23.53
  -3  -2  10  309.56   32.51
   3   2 -10  269.19   31.13
   3   2 -10  344.04   22.73
  -3  -2  10  266.22   29.57
  -3  -2   9   48.09    9.78
   3   2  -9   73.75    6.18
   3   2  -9   63.43    5.82
   3   2  -9   68.70    5.74
   3   2  -9   71.90    6.17
  -3  -2   9   50.43   10.80
   3   2  -9   70.26   11.97
   3   2  -9   67.85    5.41
  -3  -2   8   80.92   12.80
   3   2  -8   83.37   12.73
  -3  -2   8   62.77   10.52
   3   2  -8   83.01    6.63
  -3  -2   8   68.33   10.02
   3   2  -8   82.50    6.29
   3   2  -8   85.12    6.76
   3   2  -8   75.05    6.40
  -3  -2   7   -4.33    4.68
   3   2  -7    1.45    3.70
  -3  -2   7   -1.18    2.60
  -3  -2   7    2.22    2.45
  -3  -2   7    6.54    3.92
   3   2  -7    2.18    1.20
   3   2  -7    1.78    1.39
   3   2  -7    2.17    1.33
  -3  -2   6  822.85   59.05
  -3  -2   6  747.25   58.35
  -3  -2   6  886.16   59.27
  -3  -2   6  860.99   60.74
   3   2  -6  951.20   61.53
  -3  -2   5 1101.66   74.97
  -3  -2   5 1158.74   76.64
   3   2  -5 1285.90   77.25
  -3  -2   5  954.85   74.47
  -3  -2   5 1131.77   75.19
  -3  -2   4  343.12   24.79
   3   2  -4  332.70   25.69
  -3  -2   4  277.64   24.42
  -3  -2   4  343.11   25.04
   3   2  -4  295.22   23.93
  -3  -2   3  454.24   31.39
   3   2  -3  495.86   33.16
  -3  -2   3  409.65   31.23
  -3  -2   3  416.46   31.64
   3   2  -3  392.76   30.74
  -3  -2   2  226.07   17.48
  -3  -2   2  189.33   17.44
   3   2  -2  233.00   18.92
  -3  -2   2  216.97   17.54
  -3  -2   2  221.11   18.11
   3   2  -2  221.28   17.61
  -3  -2   1 1746.44  109.98
   3   2  -1 1641.93  108.96
  -3  -2   1 1684.90  110.77
  -3  -2   1 1686.07  110.92
  -3  -2   1 1716.17  110.18
   3   2  -1 1741.08  110.55
  -3  -2   0   43.14    6.33
  -3  -2   0   43.47    5.85
   3   2   0   38.45    5.08
  -3  -2   0   42.83    6.27
   3   2   0   37.20    4.52
   3   2   0   34.59    5.51
  -3  -2  -1 1828.33  117.08
   3   2   1 1708.91  114.46
  -3  -2  -1 1899.55  116.92
   3   2   1 1824.74  114.92
   3   2   1 1731.99  115.74
  -3  -2  -2  478.26   34.87
   3   2   2  458.75   32.63
  -3  -2  -2  470.59   34.62
  -3  -2  -2  448.60   34.32
  -3  -2  -2  491.03   34.91
  -3  -2  -3    8.28    3.61
   3   2   3    2.24    2.77
  -3  -2  -3   -1.04    3.25
   3   2   3    2.54    2.15
  -3  -2  -3    2.98    3.46
  -3  -2  -4  125.43   14.80
   3   2   4  166.02   14.07
  -3  -2  -4  150.90   15.08
   3   2   4  142.10   12.97
  -3  -2  -4  118.74   13.72
   3   2   4  126.89    9.40
  -3  -2  -5   77.13   11.71
   3   2   5   93.60   11.10
  -3  -2  -5  117.07   13.34
  -3  -2  -5   90.89   12.03
   3   2   5   89.69   10.57
  -3  -2  -5   87.37    7.12
   3   2   5   94.61    7.05
  -3  -2  -6  590.51   46.62
  -3  -2  -6  599.92   46.09
   3   2   6  636.91   44.17
   3   2   6  625.46   44.89
  -3  -2  -6  633.06   39.54
  -3  -2  -6  567.24   39.11
   3   2   6  598.94   38.94
  -3  -2  -7   15.56    5.78
   3   2   7   32.94    6.88
  -3  -2  -7   20.42    3.49
   3   2   7   27.45    3.23
  -3  -2  -7   18.99    2.96
  -3  -2  -8  337.06   34.32
  -3  -2  -8  441.04   27.64
   3   2   8  423.21   26.85
  -3  -2  -8  366.85   27.04
   3   2   8  381.92   34.09
  -3  -2  -9   27.80    4.19
   3   2   9   29.59    3.80
  -3  -2  -9   27.70    3.90
  -3  -2 -10    0.68    2.25
   3   2  10   -1.90    2.06
  -3  -2 -10   -0.62    1.99
  -3  -2 -11   10.63    2.67
  -3  -2 -11   12.60    2.54
   3   2  11   10.40    2.32
  -3  -2 -12  103.95    8.81
   3   2  12  123.35    8.53
  -3  -2 -12  129.58    8.95
   3   3 -15   83.92    5.82
   3   3 -15   74.76    5.91
   3   3 -15   72.88    6.39
   3   3 -14  145.72   11.38
   3   3 -14  185.84   11.42
   3   3 -14  155.73   12.19
   3   3 -13   30.31    3.77
   3   3 -13   34.69    3.67
   3   3 -13   26.54    3.10
   3   3 -13   31.72    4.29
   3   3 -12  192.74   13.88
   3   3 -12  193.54   13.58
   3   3 -12  201.09   13.35
   3   3 -12  200.72   14.12
   3   3 -12  161.55   13.88
   3   3 -12  210.64   14.82
   3   3 -11  332.82   22.42
   3   3 -11  380.01   22.87
   3   3 -11  309.16   22.61
   3   3 -11  310.08   21.94
   3   3 -10   18.20    3.00
   3   3 -10   17.18    2.46
  -3  -3  10   14.70    6.89
   3   3 -10    4.13    4.27
   3   3 -10   20.26    3.34
  -3  -3  10   15.24    5.59
  -3  -3   9   13.70    5.51
  -3  -3   9   28.42    6.69
   3   3  -9   26.72    3.11
   3   3  -9   24.24    3.45
  -3  -3   9   19.07    7.02
   3   3  -9   22.07    7.18
  -3  -3   8  483.65   37.54
   3   3  -8  440.88   36.30
  -3  -3   8  379.67   33.93
  -3  -3   8  348.41   33.44
  -3  -3   8  438.58   34.51
   3   3  -8  463.01   33.93
   3   3  -8  426.33   27.83
   3   3  -8  450.28   28.37
   3   3  -8  410.13   27.89
  -3  -3   7  780.94   55.22
   3   3  -7  772.13   54.46
  -3  -3   7  693.32   52.03
  -3  -3   7  561.74   51.21
  -3  -3   7  746.58   52.73
   3   3  -7  726.92   46.08
   3   3  -7  734.95   46.54
   3   3  -7  719.95   46.21
  -3  -3   6    5.96    3.58
  -3  -3   6   -1.32    3.94
   3   3  -6    6.25    4.35
  -3  -3   6    5.68    3.39
  -3  -3   6   -1.07    3.34
  -3  -3   5  276.91   20.94
   3   3  -5  248.95   21.92
  -3  -3   5  232.10   21.09
  -3  -3   5  220.94   20.49
   3   3  -4  324.03   21.27
   3   3  -4  330.02   25.35
   3   3  -4  343.20   26.54
  -3  -3   4  297.51   25.81
   3   3  -4  328.26   21.29
  -3  -3   4  310.02   25.43
   3   3  -3  103.31    7.87
   3   3  -3  120.33   11.59
  -3  -3   3  116.85   12.12
   3   3  -3  118.14    7.99
  -3  -3   3  102.64   11.03
   3   3  -3  126.97   12.59
   3   3  -2  244.72   16.49
   3   3  -2  252.76   20.35
   3   3  -2  269.88   19.61
  -3  -3   2  254.45   20.24
  -3  -3   2  268.08   21.08
   3   3  -2  241.74   16.50
  -3  -3   2  272.73   21.08
  -3  -3   1 1688.83  105.52
   3   3  -1 1634.07  100.79
  -3  -3   1 1683.97  105.70
   3   3  -1 1537.09  100.72
   3   3  -1 1633.55  105.00
  -3  -3   0 2253.36  130.10
  -3  -3   0 2177.72  129.50
   3   3   0 1978.42  124.55
   3   3   0 1909.68  127.25
   3   3   0 1903.14  124.48
   3   3   0 2187.79  129.21
  -3  -3  -1   91.89   10.00
  -3  -3  -1   65.84    8.54
   3   3   1   66.26    7.89
   3   3   1   76.53    8.89
   3   3   2  255.86   19.82
  -3  -3  -2  246.66   21.11
  -3  -3  -2  249.17   21.27
  -3  -3  -2  214.60   20.18
   3   3   3  533.24   34.62
   3   3   3  559.17   39.08
   3   3   3  521.56   34.58
  -3  -3  -3  590.30   41.23
  -3  -3  -3  620.67   41.46
  -3  -3  -4  187.66   18.84
  -3  -3  -4  211.40   19.37
   3   3   4  205.10   17.77
   3   3   4  188.45   12.95
   3   3   4  172.71   12.81
   3   3   4  198.85   13.04
   3   3   5   66.17    5.50
   3   3   5   60.45    5.29
   3   3   5   72.64    9.76
  -3  -3  -5   77.33   11.10
  -3  -3  -5   75.48   10.95
  -3  -3  -6  233.50   25.40
  -3  -3  -6  281.09   26.82
  -3  -3  -6  315.89   19.95
   3   3   6  301.14   19.26
  -3  -3  -6  257.62   19.34
   3   3   6  325.07   25.96
   3   3   6  273.91   19.03
  -3  -3  -7  151.35   17.48
  -3  -3  -7  158.86   11.18
   3   3   7  137.50   16.23
   3   3   7  137.46   15.76
   3   3   7  132.67   10.00
  -3  -3  -7  134.63   10.55
   3   3   7  134.71   10.20
  -3  -3  -8   21.63    3.65
   3   3   8   18.65    3.07
  -3  -3  -8   17.14    3.07
  -3  -3  -9    5.58    2.74
  -3  -3  -9    9.12    2.57
   3   3   9    7.22    2.37
  -3  -3 -10   17.89    3.25
  -3  -3 -10   19.32    3.14
   3   3  10   19.69    2.84
  -3  -3 -11   81.41    6.87
  -3  -3 -11   82.59    6.74
  -3  -3 -12   10.16    1.76
   3   4 -15    1.19    1.61
   3   4 -15    1.60    1.03
   3   4 -14   64.38    5.91
   3   4 -14   62.90    4.88
   3   4 -14   53.83    4.95
   3   4 -13  180.89   13.29
   3   4 -13  192.15   13.81
   3   4 -13  168.59   12.66
   3   4 -13  190.00   12.61
   3   4 -12    2.54    1.44
   3   4 -12    1.90    2.66
   3   4 -12    1.90    2.32
   3   4 -12    4.05    2.65
   3   4 -12    1.97    1.89
   3   4 -12    4.13    2.25
   3   4 -11   10.69    2.72
   3   4 -11    7.23    2.79
   3   4 -11    7.65    2.53
  -3  -4  10   37.49    8.46
   3   4 -10   66.83    5.59
   3   4 -10   56.56    5.69
  -3  -4  10   31.57    9.50
   3   4 -10   48.88   10.35
   3   4 -10   51.35    5.15
  -3  -4   9  234.55   27.01
  -3  -4   9  268.69   27.44
   3   4  -9  333.24   21.83
  -3  -4   9  320.76   30.65
   3   4  -9  312.99   29.76
   3   4  -9  325.49   21.25
  -3  -4   8   12.18    5.72
   3   4  -8   17.50    5.97
   3   4  -8   12.91    2.18
   3   4  -8   29.63    6.35
  -3  -4   8   10.52    4.58
  -3  -4   8   22.80    6.48
   3   4  -8   14.13    2.71
   3   4  -8   15.71    2.46
  -3  -4   7  802.74   57.39
   3   4  -7  870.59   57.21
   3   4  -7  751.14   48.34
   3   4  -7  876.79   55.17
  -3  -4   7  713.49   55.23
  -3  -4   7  748.60   55.20
   3   4  -7  688.95   48.66
   3   4  -7  802.17   48.93
   3   4  -7  758.84   48.56
  -3  -4   6   15.10    5.17
  -3  -4   6   24.51    5.96
   3   4  -6   25.59    3.00
   3   4  -6   27.05    5.63
   3   4  -6   25.78    2.82
  -3  -4   6   27.77    7.01
   3   4  -6   23.72    5.83
   3   4  -5    2.72    2.71
  -3  -4   5    1.15    2.93
  -3  -4   5    1.05    2.49
   3   4  -5    2.25    3.05
   3   4  -5    6.04    3.74
   3   4  -4    2.50    2.38
   3   4  -4    4.32    1.57
   3   4  -4    3.88    3.28
  -3  -4   4    1.06    3.03
  -3  -4   4    3.73    2.92
   3   4  -4    5.28    1.50
   3   4  -4    5.20    3.25
   3   4  -3    3.78    3.29
   3   4  -3    1.58    1.30
   3   4  -3    0.77    2.68
  -3  -4   3    3.96    2.96
   3   4  -3    0.72    1.14
  -3  -4   3    3.32    2.36
  -3  -4   3    3.95    3.08
   3   4  -2  600.13   38.65
   3   4  -2  602.12   43.38
   3   4  -2  623.43   42.30
  -3  -4   2  633.88   43.73
   3   4  -2  582.74   38.65
  -3  -4   2  659.43   44.35
  -3  -4   1    9.02    3.76
   3   4  -1    8.06    1.68
   3   4  -1    9.05    1.77
   3   4  -1    8.25    3.64
   3   4   0  513.56   33.95
   3   4   0  529.04   33.91
   3   4   0  515.76   38.39
  -3  -4   0  589.47   39.78
   3   4   1   32.51    6.16
   3   4   1   34.41    5.82
  -3  -4  -1   39.52    6.97
  -3  -4  -1   42.08    7.32
  -3  -4  -2  199.37   17.66
  -3  -4  -2  185.16   17.45
  -3  -4  -2  200.97   17.76
   3   4   2  199.97   16.32
   3   4   2  161.06   11.68
   3   4   2  178.56   11.78
   3   4   2  163.90   11.69
   3   4   2  154.96   11.64
   3   4   2  172.97   11.75
   3   4   2  168.11   11.78
   3   4   2  178.11   11.73
  -3  -4  -3   52.76    8.42
  -3  -4  -3   51.95    8.51
  -3  -4  -3   53.02    8.75
   3   4   3   47.95    7.37
   3   4   3   46.66    4.05
   3   4   3   43.99    3.97
   3   4   3   43.48    3.91
   3   4   3   39.11    3.89
   3   4   3   42.78    4.03
  -3  -4  -4   53.16    9.28
  -3  -4  -4   64.49   10.32
   3   4   4   48.21    8.20
   3   4   4   60.14    5.03
   3   4   4   55.53    4.94
   3   4   4   57.17    4.88
   3   4   4   60.32    5.09
   3   4   4   62.40    5.19
  -3  -4  -5   16.06    2.83
  -3  -4  -5   18.92    6.08
   3   4   5   17.43    5.55
   3   4   5   12.15    2.29
   3   4   5   13.07    2.22
   3   4   5   12.91    2.37
  -3  -4  -6  197.66   13.64
  -3  -4  -6  169.68   19.80
   3   4   6  179.45   12.72
   3   4   6  182.08   13.04
   3   4   6  188.06   12.90
  -3  -4  -7  156.71   11.31
  -3  -4  -7  131.77   10.63
   3   4   7  141.08   10.38
  -3  -4  -8    2.76    2.52
  -3  -4  -8    1.52    1.93
   3   4   8    2.47    1.85
  -3  -4  -9   33.51    4.13
  -3  -4  -9   22.36    3.32
  -3  -4 -10   11.61    2.60
  -3  -4 -10   14.40    2.52
   3   4  11  145.61   10.50
  -3  -4 -11  152.00   11.01
  -3  -4 -11  161.80   10.84
   3   5 -15   18.56    1.98
   3   5 -15   14.69    2.48
   3   5 -14    1.81    1.19
   3   5 -14    0.82    1.13
   3   5 -14    0.29    2.08
   3   5 -14    2.78    1.76
   3   5 -13   82.60    6.49
   3   5 -13   76.96    6.28
   3   5 -13   87.49    7.16
   3   5 -13   84.50    7.44
   3   5 -12   13.78    3.22
   3   5 -12   16.88    3.24
   3   5 -12   15.04    3.31
   3   5 -12   22.47    2.75
   3   5 -11    2.17    2.19
   3   5 -11    1.91    2.37
   3   5 -11    2.80    2.74
   3   5 -11    1.63    2.23
   3   5 -11    4.43    1.58
  -3  -5  10   21.95    6.95
  -3  -5  10   39.95    8.84
   3   5 -10   34.93    4.27
   3   5 -10   37.26    4.67
   3   5 -10   38.23    4.17
   3   5  -9  228.36   15.73
  -3  -5   9  165.90   21.60
  -3  -5   9  170.38   21.32
   3   5  -9  209.41   16.00
   3   5  -9  262.32   16.18
   3   5  -9  243.93   16.41
   3   5  -9  221.79   15.89
   3   5  -8  382.83   31.72
   3   5  -8  362.33   24.93
  -3  -5   8  288.51   31.30
  -3  -5   8  319.00   31.25
   3   5  -8  359.01   25.39
   3   5  -8  441.33   25.46
   3   5  -8  403.05   25.60
   3   5  -8  366.89   25.22
   3   5  -7  441.25   32.46
  -3  -5   7  360.83   32.36
  -3  -5   7  328.76   31.60
   3   5  -7  362.76   25.72
   3   5  -7  412.92   25.58
   3   5  -7  404.33   25.88
   3   5  -7  369.80   25.54
   3   5  -6  160.82   16.27
  -3  -5   6  172.30   17.98
  -3  -5   6  128.81   15.90
   3   5  -6  160.72   11.69
   3   5  -6  184.98   11.80
   3   5  -6  149.87   11.42
   3   5  -5   12.56    4.30
   3   5  -5   10.77    2.25
  -3  -5   5   18.99    5.53
  -3  -5   5   14.71    4.85
   3   5  -5   17.30    2.48
   3   5  -5   15.11    2.39
   3   5  -5   24.67    5.85
   3   5  -5   12.45    2.24
   3   5  -5   11.25    1.88
   3   5  -5   16.78    2.27
   3   5  -4   11.31    1.84
   3   5  -4    9.42    1.76
  -3  -5   4   16.39    4.89
   3   5  -4   11.35    2.20
   3   5  -4   13.62    4.53
   3   5  -4   14.55    2.19
   3   5  -4   12.78    2.25
   3   5  -4   17.10    5.09
   3   5  -4   16.90    2.38
   3   5  -4   12.66    1.79
   3   5  -3    3.91    1.62
   3   5  -3   -1.12    3.18
   3   5  -3    3.68    2.75
   3   5  -3    4.59    1.71
  -3  -5   3    1.09    2.95
  -3  -5   3   -1.11    3.00
   3   5  -2  650.27   42.55
   3   5  -2  707.57   48.61
   3   5  -2  594.70   46.28
   3   5  -2  649.65   42.65
  -3  -5   2  759.20   48.72
  -3  -5   2  749.92   48.94
   3   5  -1  369.60   25.56
   3   5  -1  419.55   25.79
   3   5  -1  434.58   31.54
   3   5  -1  414.04   25.88
   3   5  -1  366.79   25.41
   3   5  -1  379.25   25.51
   3   5   0  371.55   24.39
   3   5   0  368.95   24.33
   3   5   0  361.93   24.62
  -3  -5   0  472.17   31.54
  -3  -5   0  427.25   30.69
   3   5   0  361.93   24.44
   3   5   0  359.37   24.27
   3   5   0  371.73   24.53
   3   5   0  379.85   29.87
   3   5   0  355.12   24.30
   3   5   0  375.20   24.25
   3   5   0  389.64   24.41
   3   5   0  381.07   24.36
   3   5   0  376.85   24.37
   3   5   0  371.04   24.33
   3   5   1  219.34   14.72
   3   5   1  207.36   14.69
  -3  -5  -1  241.56   20.94
  -3  -5  -1  264.08   21.29
  -3  -5  -1  225.58   20.51
   3   5   1  189.51   18.34
   3   5   1  215.94   14.67
   3   5   1  209.01   14.76
   3   5   1  218.11   14.75
   3   5   1  228.80   14.83
   3   5   1  211.27   14.72
   3   5   1  212.23   14.70
   3   5   1  226.64   14.84
   3   5   2   14.76    2.23
   3   5   2   16.32    2.24
  -3  -5  -2   14.56    5.13
  -3  -5  -2   10.21    4.67
  -3  -5  -2   22.37    5.86
   3   5   2    8.24    4.23
   3   5   2   13.69    2.18
   3   5   2   14.45    2.21
   3   5   2    8.08    1.97
   3   5   2   13.48    2.23
   3   5   2   16.35    2.31
   3   5   2   15.55    2.22
  -3  -5  -3  292.15   25.94
  -3  -5  -3  339.21   27.22
   3   5   3  270.94   24.26
   3   5   3  300.27   19.10
   3   5   3  269.15   18.98
   3   5   3  269.54   18.95
   3   5   3  279.32   19.17
   3   5   3  292.76   19.28
   3   5   3  294.04   19.11
  -3  -5  -4   78.53   12.57
  -3  -5  -4  110.37   14.46
   3   5   4   97.97   12.70
   3   5   4   99.14    7.72
   3   5   4  104.29    7.69
   3   5   4  100.19    7.86
   3   5   4  105.54    8.00
  -3  -5  -5  242.21   24.19
   3   5   5  212.17   22.04
   3   5   5  233.35   16.26
   3   5   5  231.31   16.42
   3   5   5  251.56   16.67
  -3  -5  -5  245.55   16.97
   3   5   6    5.38    2.36
  -3  -5  -6    8.45    2.87
   3   5   7    8.18    2.30
  -3  -5  -7   10.26    2.82
  -3  -5  -8    0.32    2.15
   3   5   9  208.43   14.11
  -3  -5  -9  197.51   14.55
   3   5  10   79.55    6.04
   3   5  10   75.06    5.99
  -3  -5 -10   80.98    6.50
   3   5  11   31.34    2.78
  -3  -6  15   63.02    5.01
   3   6 -14  228.74   13.92
   3   6 -14  183.82   14.15
   3   6 -14  210.08   13.71
   3   6 -14  179.62   14.25
   3   6 -13   17.42    2.48
   3   6 -13   16.22    2.29
   3   6 -13   12.66    2.93
   3   6 -13   18.72    3.18
   3   6 -12    6.27    2.60
   3   6 -12    6.99    2.51
   3   6 -12    4.00    2.77
   3   6 -12    5.77    1.81
   3   6 -11   28.55    3.98
   3   6 -11   27.63    4.20
   3   6 -11   24.11    3.06
   3   6 -10  387.43   27.77
   3   6 -10  432.70   27.22
   3   6 -10  397.38   27.91
   3   6 -10  428.12   27.81
   3   6 -10  407.48   27.42
   3   6  -9    5.27    2.36
   3   6  -9    4.76    3.79
   3   6  -9    5.87    2.03
  -3  -6   9    3.69    4.08
  -3  -6   9    5.22    4.16
   3   6  -9    8.73    2.75
   3   6  -9    6.52    2.25
   3   6  -9    5.44    2.40
   3   6  -9    4.89    1.62
   3   6  -8  495.65   43.83
  -3  -6   8  538.40   45.74
   3   6  -8  552.86   37.85
   3   6  -8  617.75   37.98
   3   6  -8  631.75   37.72
   3   6  -8  566.14   37.70
   3   6  -7  188.46   20.39
  -3  -6   7  204.78   21.94
  -3  -6   7  186.29   20.84
   3   6  -7  209.35   15.33
   3   6  -7  231.62   15.10
   3   6  -7  225.14   15.31
   3   6  -7  212.71   15.23
   3   6  -6    3.69    1.88
  -3  -6   6   10.42    5.02
  -3  -6   6    2.70    3.45
   3   6  -6    5.70    1.87
   3   6  -6   12.91    4.51
   3   6  -5   13.64    2.18
   3   6  -5   14.56    2.17
   3   6  -5   12.28    2.20
  -3  -6   5    5.49    3.57
   3   6  -5    6.06    2.21
   3   6  -5    7.31    4.02
   3   6  -5    8.88    2.32
   3   6  -5   14.92    5.09
   3   6  -5   15.24    2.51
   3   6  -5   12.75    2.47
   3   6  -5   13.54    2.09
   3   6  -4  131.68   10.29
   3   6  -4  152.54   10.36
   3   6  -4  143.42   10.41
  -3  -6   4  162.55   16.29
   3   6  -4  143.02   10.95
  -3  -6   4  182.72   17.14
   3   6  -4  135.41   14.94
   3   6  -4  146.15   10.53
   3   6  -4  149.33   10.71
   3   6  -4  115.34   14.99
   3   6  -4  160.77   10.69
   3   6  -4  152.56   10.83
   3   6  -4  138.63   10.21
   3   6  -3 1079.22   69.03
   3   6  -3 1139.34   68.99
   3   6  -3 1020.51   69.42
  -3  -6   3 1412.88   77.93
   3   6  -3  998.04   74.25
   3   6  -3 1062.46   69.13
   3   6  -3 1130.35   69.36
   3   6  -3 1066.33   75.89
   3   6  -3 1101.23   68.91
   3   6  -3 1028.28   69.26
   3   6  -3 1065.91   68.91
   3   6  -3 1105.47   68.92
   3   6  -2    8.25    1.86
   3   6  -2    9.39    1.80
   3   6  -2    4.91    2.02
  -3  -6   2    8.54    4.27
   3   6  -2    7.41    1.98
   3   6  -2    8.46    1.91
   3   6  -2    5.40    1.86
   3   6  -2    3.86    3.68
   3   6  -2    7.45    2.03
   3   6  -2    5.44    1.46
   3   6  -2    5.80    1.55
   3   6  -2    8.28    1.69
   3   6  -2    7.33    1.57
   3   6  -2    7.86    1.74
   3   6  -1  418.23   27.24
   3   6  -1  450.25   27.24
   3   6  -1  413.26   27.65
  -3  -6   1  433.46   33.46
  -3  -6   1  529.57   34.99
   3   6  -1  449.52   27.21
   3   6  -1  381.44   27.28
   3   6  -1  400.01   27.40
   3   6  -1  428.82   33.69
   3   6  -1  418.70   27.17
   3   6  -1  366.38   27.31
   3   6  -1  434.86   27.19
   3   6  -1  406.95   27.09
   3   6  -1  427.28   27.18
   3   6  -1  394.16   27.11
   3   6   0  135.29    9.97
   3   6   0  146.90    9.97
  -3  -6   0  178.39   16.96
   3   6   0  139.94   10.39
  -3  -6   0  180.31   16.64
  -3  -6   0  146.91   15.51
   3   6   0  160.15   10.07
   3   6   0  125.50   10.02
   3   6   0  142.55   10.21
   3   6   0  116.78   14.51
   3   6   0  147.09   10.05
   3   6   0  143.03   10.02
   3   6   0  128.56    9.81
   3   6   0  127.85    9.92
   3   6   0  141.59   10.01
   3   6   0  126.60    9.92
   3   6   1   54.48    4.91
   3   6   1   55.30    4.93
  -3  -6  -1   61.17    9.73
  -3  -6  -1   63.21    9.74
   3   6   1   65.79    5.01
   3   6   1   51.31    4.99
   3   6   1   51.03    4.89
   3   6   1   57.08    5.02
   3   6   1   62.51    5.12
   3   6   1   65.54    5.21
   3   6   1   55.86    4.99
   3   6   2   54.93    5.23
   3   6   2   61.72    5.26
  -3  -6  -2   50.96    9.72
  -3  -6  -2   66.39   10.47
   3   6   2   51.56    8.63
   3   6   2   64.24    5.43
   3   6   2   70.59    5.60
   3   6   2   66.71    5.56
   3   6   2   64.70    5.52
   3   6   2   68.28    5.55
   3   6   3  680.60   44.15
  -3  -6  -3  640.08   51.94
   3   6   3  573.20   49.59
  -3  -6  -3  636.14   51.95
   3   6   3  716.58   44.44
   3   6   3  700.19   44.46
   3   6   3  726.00   44.57
   3   6   3  658.46   44.25
  -3  -6  -4  323.93   32.35
   3   6   4  288.69   30.36
   3   6   4  393.67   25.40
   3   6   4  394.16   25.46
   3   6   4  392.18   25.54
  -3  -6  -4  339.08   32.65
   3   6   5    3.51    1.85
   3   6   5    7.93    2.37
   3   6   5    6.01    2.31
   3   6   6    7.22    2.18
   3   6   6    8.45    2.34
   3   6   6    6.48    2.61
  -3  -6  -6   11.75    2.72
   3   6   7   82.61    6.92
   3   6   7   90.43    7.21
  -3  -6  -7   84.98    7.33
   3   6   8  208.69   13.54
   3   6   8  185.29   13.45
  -3  -6  -8  185.66   13.81
   3   6   9    4.35    1.47
  -3  -6  -9    1.80    1.55
   3   6   9    2.60    1.32
   3   6   9    2.47    1.51
   3   6  10   78.19    5.71
   3   6  10   77.90    5.73
   3   7 -14  111.74    8.97
   3   7 -14  127.80    8.66
   3   7 -13   44.98    4.86
   3   7 -13   53.27    4.46
   3   7 -12  116.08    9.09
   3   7 -12  109.28    8.37
   3   7 -11   26.55    3.81
   3   7 -11   21.56    3.82
   3   7 -11   24.65    3.06
   3   7 -11   19.68    3.52
   3   7 -10  334.15   21.72
   3   7 -10  346.61   22.34
   3   7 -10  327.49   22.39
   3   7 -10  280.17   22.02
   3   7 -10  331.05   22.45
   3   7  -9  421.55   27.32
   3   7  -9  406.04   27.99
   3   7  -9  414.34   27.70
   3   7  -9  432.32   27.97
   3   7  -9  390.66   27.83
   3   7  -8    1.19    2.19
   3   7  -8    1.63    3.29
  -3  -7   8    1.80    3.24
  -3  -7   8    3.36    3.38
   3   7  -8    0.32    2.28
   3   7  -8    0.54    1.64
   3   7  -8    2.01    1.49
   3   7  -7   21.94    3.43
   3   7  -7   20.20    6.24
  -3  -7   7   21.98    6.59
   3   7  -7   28.18    3.59
   3   7  -7   17.41    2.58
   3   7  -7   22.78    2.82
   3   7  -6   -1.27    1.78
  -3  -7   6    4.71    4.00
   3   7  -6    2.94    3.75
   3   7  -6    3.13    2.17
   3   7  -6    4.95    2.32
   3   7  -6    4.52    1.45
   3   7  -6    3.93    1.93
   3   7  -6    4.05    1.98
   3   7  -5  157.12   11.22
   3   7  -5  149.46   10.99
   3   7  -5  123.77   11.41
  -3  -7   5  157.89   17.47
   3   7  -5  129.80   16.04
   3   7  -5  168.08   11.26
   3   7  -5  156.46   11.33
   3   7  -5  141.25   17.14
   3   7  -5  158.75   11.27
   3   7  -5  159.95   10.86
   3   7  -5  161.03   11.54
   3   7  -5  139.48   10.75
   3   7  -4  154.55   12.22
   3   7  -4  176.28   12.26
   3   7  -4  184.58   12.45
   3   7  -4  177.39   13.08
  -3  -7   4  226.45   20.01
   3   7  -4  127.69   16.74
   3   7  -4  180.52   12.60
   3   7  -4  183.78   12.77
   3   7  -4  142.59   17.81
   3   7  -4  181.77   12.25
   3   7  -4  177.57   12.79
   3   7  -4  166.94   12.19
   3   7  -3  273.14   18.20
   3   7  -3  282.42   18.13
   3   7  -3  269.96   18.76
  -3  -7   3  341.41   26.13
   3   7  -3  281.04   18.56
   3   7  -3  255.30   24.75
   3   7  -3  249.59   18.01
   3   7  -3  269.71   18.05
   3   7  -3  241.62   18.41
   3   7  -3  238.34   23.55
   3   7  -3  274.42   18.42
   3   7  -2   79.02    6.11
   3   7  -2   75.64    5.91
   3   7  -2   78.65    6.30
   3   7  -2   68.85    6.46
   3   7  -2   72.94    6.31
   3   7  -2   57.47   10.66
   3   7  -2   74.50    5.91
   3   7  -2   66.99    6.23
   3   7  -2   69.11    5.91
   3   7  -2   77.37    5.93
   3   7  -2   64.37    5.80
   3   7  -1   35.71    3.56
   3   7  -1   33.64    3.34
   3   7  -1   21.41    3.32
   3   7  -1   30.37    3.86
   3   7  -1   31.30    3.63
   3   7  -1   23.23    6.26
   3   7  -1   23.80    3.36
   3   7  -1   28.19    3.24
   3   7  -1   32.55    3.37
   3   7  -1   27.46    3.25
   3   7  -1   32.07    3.27
   3   7  -1   28.22    3.34
   3   7   0    1.32    1.55
   3   7   0    1.01    1.50
  -3  -7   0    1.52    3.35
   3   7   0   -0.88    1.61
   3   7   0    0.73    1.72
   3   7   0    3.35    1.78
   3   7   0    1.44    3.42
   3   7   0    0.67    1.39
   3   7   0    0.45    1.65
   3   7   0    1.32    1.51
   3   7   0   -0.22    1.43
   3   7   0   -1.45    1.46
   3   7   0    0.23    1.73
   3   7   1    5.08    1.90
   3   7   1    6.33    1.92
  -3  -7  -1   -1.46    2.97
  -3  -7  -1    7.96    4.77
   3   7   1    6.08    2.04
   3   7   1    9.58    1.73
   3   7   1    5.70    1.89
   3   7   1    4.18    1.88
   3   7   1    6.21    1.98
   3   7   1    8.59    2.17
   3   7   2  270.48   18.37
  -3  -7  -2  240.49   25.28
  -3  -7  -2  261.67   25.54
   3   7   2  287.10   18.57
   3   7   2  261.81   18.51
   3   7   2  267.67   18.52
   3   7   2  271.07   18.56
   3   7   2  273.06   18.53
  -3  -7  -3   -1.71    4.08
  -3  -7  -3   -1.64    3.91
   3   7   3    0.77    1.97
   3   7   3    2.54    1.92
   3   7   3    0.27    1.96
   3   7   3    0.74    1.94
   3   7   3    1.36    3.24
   3   7   3    0.25    1.73
   3   7   4   83.65    7.09
   3   7   4   87.36    7.12
   3   7   4   85.48    7.18
   3   7   4   82.48    6.97
   3   7   5    1.52    2.00
   3   7   5    0.26    2.07
   3   7   5    3.75    2.07
   3   7   5    0.49    1.74
   3   7   6    0.70    1.90
   3   7   6    0.72    2.01
   3   7   6    2.52    2.06
   3   7   6   -0.23    1.76
   3   7   7    3.82    1.73
   3   7   7    2.78    1.87
   3   7   7    2.00    1.82
   3   7   7    1.43    1.58
   3   7   8   91.63    6.80
   3   7   8   87.82    6.78
   3   7   8   84.04    6.48
   3   7   8   92.74    6.68
   3   7   9   27.02    2.48
   3   7   9   22.97    2.49
   3   8 -14    1.38    1.34
   3   8 -14    2.58    0.95
   3   8 -13    6.60    2.08
   3   8 -13   10.77    1.83
   3   8 -12    1.94    1.98
   3   8 -12    2.71    1.55
   3   8 -11  138.20   10.84
   3   8 -11  150.95   10.48
   3   8 -11  136.45   11.01
   3   8 -10    6.40    1.97
   3   8 -10    9.48    2.64
   3   8 -10    6.12    2.67
   3   8 -10    8.36    2.95
   3   8  -9  205.29   13.64
   3   8  -9  181.52   13.78
   3   8  -9  178.65   14.11
   3   8  -9  201.04   14.36
   3   8  -8    1.69    1.52
   3   8  -8   -0.33    2.25
   3   8  -8   -0.69    1.45
   3   8  -8    3.40    2.56
   3   8  -7    9.00    2.07
  -3  -8   7   11.56    5.38
   3   8  -7    9.80    2.80
   3   8  -7    9.38    2.90
   3   8  -7    5.51    1.84
   3   8  -7    5.35    2.56
   3   8  -6   20.98    2.76
   3   8  -6   16.12    2.60
  -3  -8   6   28.48    7.35
   3   8  -6   22.91    3.25
   3   8  -6   18.41    3.21
   3   8  -6   17.51    3.10
   3   8  -6   20.12    3.56
   3   8  -6   19.42    2.66
   3   8  -6    9.85    5.04
   3   8  -5    9.80    2.54
   3   8  -5    1.59    3.23
   3   8  -5    5.88    1.84
   3   8  -5    3.26    1.90
   3   8  -5    8.41    2.62
   3   8  -5    6.34    2.12
   3   8  -5    1.69    4.04
   3   8  -5   12.56    3.00
   3   8  -5    4.33    1.64
   3   8  -5    4.53    2.09
   3   8  -5    7.11    2.05
   3   8  -4  157.72   20.02
   3   8  -4  220.98   15.31
   3   8  -4  199.39   14.90
   3   8  -4  198.61   14.88
   3   8  -4  219.17   15.48
   3   8  -4  204.03   22.20
   3   8  -4  233.23   15.03
   3   8  -4  216.81   15.54
   3   8  -4  232.01   15.08
   3   8  -4  223.50   15.15
   3   8  -3   28.93    3.98
   3   8  -3   32.24    3.57
   3   8  -3   25.88    3.42
   3   8  -3   36.16    4.12
   3   8  -3   21.45    6.58
   3   8  -3   28.82    3.36
   3   8  -3   27.69    3.91
   3   8  -3   33.81    3.67
   3   8  -3   34.86    3.78
   3   8  -2    8.32    2.14
   3   8  -2    4.06    1.71
   3   8  -2    7.30    2.59
  -3  -8   2    4.67    3.72
   3   8  -2    5.50    2.41
   3   8  -2    1.63    3.29
   3   8  -2    4.58    2.19
   3   8  -2    8.65    2.05
   3   8  -2    6.32    2.01
   3   8  -2    5.09    2.02
   3   8  -2    5.15    1.79
   3   8  -1   21.33    2.93
   3   8  -1   24.68    3.30
   3   8  -1   29.08    3.53
  -3  -8   1   11.23    5.18
   3   8  -1   21.31    3.31
   3   8  -1   17.43    6.04
   3   8  -1   22.16    3.25
   3   8  -1   23.15    2.99
   3   8  -1   20.18    2.87
   3   8  -1   18.63    2.83
   3   8  -1   25.66    3.23
   3   8   0    7.43    2.22
   3   8   0    5.24    1.94
   3   8   0    3.94    2.21
  -3  -8   0    6.62    4.72
   3   8   0    3.83    2.03
   3   8   0    4.87    1.79
   3   8   0    4.09    1.91
   3   8   0    7.20    1.99
   3   8   0    3.26    2.10
   3   8   1   43.38    4.62
   3   8   1   44.23    4.45
   3   8   1   46.69    4.54
   3   8   1   48.84    4.70
   3   8   1   44.34    4.43
   3   8   1   44.58    4.42
   3   8   1   39.16    4.50
   3   8   2  241.52   16.03
   3   8   2  234.77   16.06
   3   8   2  219.11   15.87
   3   8   2  223.87   15.96
   3   8   2  227.31   16.00
   3   8   3   28.12    3.43
   3   8   3   24.17    3.47
   3   8   3   30.67    3.62
   3   8   3   33.42    3.73
   3   8   3   21.59    3.37
   3   8   4   75.50    6.23
   3   8   4   76.68    6.39
   3   8   4   77.71    6.31
   3   8   4   66.85    6.27
   3   8   4   72.28    6.18
   3   8   5   28.40    3.36
   3   8   5   29.02    3.54
   3   8   5   26.69    3.49
   3   8   5   37.51    3.77
   3   8   6    4.47    1.67
   3   8   6    5.21    1.91
   3   8   6   11.26    2.13
   3   8   6    5.76    2.05
   3   8   7   47.11    3.98
   3   8   7   46.92    4.10
   3   8   7   49.98    4.22
   3   8   7   40.63    3.91
   3   8   8   21.99    2.19
   3   8   8   21.20    2.25
   3   9 -13   22.42    2.85
   3   9 -13   23.92    2.55
   3   9 -12   16.82    2.66
   3   9 -12   18.09    2.38
   3   9 -12   16.41    2.77
   3   9 -11  105.20    8.68
   3   9 -11  120.05    8.48
   3   9 -11  109.91    8.93
   3   9 -10   72.22    6.52
   3   9 -10   79.01    6.30
   3   9 -10   76.04    7.00
   3   9  -9   25.29    3.32
   3   9  -9   25.47    4.10
   3   9  -8   17.43    2.70
   3   9  -8   13.63    2.57
   3   9  -8   15.50    3.46
   3   9  -8   15.40    3.35
   3   9  -7   18.76    2.81
   3   9  -7   20.87    3.43
   3   9  -7   24.22    3.68
   3   9  -7   18.86    2.84
   3   9  -7   19.11    3.37
   3   9  -6  126.32    9.43
   3   9  -6  117.76    9.27
   3   9  -6  135.82    9.95
   3   9  -6  123.41    9.75
   3   9  -6  122.93    9.63
   3   9  -6  130.39    9.38
   3   9  -6  127.15   10.14
   3   9  -6  112.87    9.65
   3   9  -5   23.16    3.11
   3   9  -5   21.70    3.07
   3   9  -5   22.55    3.65
   3   9  -5   23.91    3.63
   3   9  -5   20.34    3.84
   3   9  -5   19.15    2.85
   3   9  -5   19.17    3.30
   3   9  -4  371.91   29.05
   3   9  -4  440.22   29.25
   3   9  -4  483.98   29.84
   3   9  -4  463.44   29.61
   3   9  -4  450.38   29.23
   3   9  -4  441.10   29.83
   3   9  -4  475.01   29.44
   3   9  -3  126.95    9.45
   3   9  -3  108.65    9.28
   3   9  -3  121.97    9.83
   3   9  -3  131.77    9.86
   3   9  -3  127.21    9.37
   3   9  -3  120.66    9.96
   3   9  -3  123.21    9.32
   3   9  -3  136.60    9.56
   3   9  -2  106.26    8.47
   3   9  -2  110.34    8.51
   3   9  -2   96.43    8.73
   3   9  -2  111.68    8.88
   3   9  -2  121.49    8.60
   3   9  -2  107.68    8.95
   3   9  -2  107.73    8.36
   3   9  -2  117.69    8.66
   3   9  -1   27.24    3.61
   3   9  -1   32.54    3.75
   3   9  -1   30.81    4.07
   3   9  -1   34.12    3.71
   3   9  -1   29.38    3.63
   3   9  -1   30.85    3.98
   3   9   0  588.05   40.38
   3   9   0  624.31   40.60
   3   9   0  665.71   40.61
   3   9   0  621.15   40.47
   3   9   0  623.10   40.62
   3   9   1  207.02   14.95
   3   9   1  200.31   14.76
   3   9   1  224.94   15.16
   3   9   1  226.27   15.05
   3   9   2   13.60    2.63
   3   9   2   12.72    2.42
   3   9   2   15.06    2.56
   3   9   2   17.69    2.96
   3   9   2   12.78    2.49
   3   9   3  181.61   12.86
   3   9   3  187.34   12.79
   3   9   3  170.63   12.74
   3   9   3  179.96   12.81
   3   9   3  183.96   12.78
   3   9   4   24.09    3.15
   3   9   4   26.95    3.11
   3   9   4   24.14    3.18
   3   9   4   24.92    3.06
   3   9   4   28.55    3.08
   3   9   5    1.88    1.61
   3   9   5    6.62    1.71
   3   9   5    4.26    1.52
   3   9   6    2.59    1.41
   3   9   6    2.96    1.35
   3   9   6    1.74    1.16
   3   9   7  118.37    8.30
   3   9   7  123.77    8.28
   3  10 -12  126.70    8.72
   3  10 -12  124.04    8.36
   3  10 -12   99.69    8.37
   3  10 -11    1.30    1.30
   3  10 -11    4.61    2.08
   3  10 -10   98.59    7.87
   3  10 -10  113.74    8.51
   3  10  -9   54.81    5.13
   3  10  -9   61.52    5.71
   3  10  -8  115.82    8.84
   3  10  -8   97.32    8.21
   3  10  -8  114.54    8.32
   3  10  -7   49.29    5.12
   3  10  -7   50.15    4.76
   3  10  -7   56.46    5.62
   3  10  -7   47.87    4.73
   3  10  -6  283.67   18.74
   3  10  -6  297.37   18.61
   3  10  -6  247.37   18.07
   3  10  -6  273.10   18.92
   3  10  -6  247.06   18.18
   3  10  -5  185.16   13.03
   3  10  -5  200.02   12.99
   3  10  -5  175.97   12.50
   3  10  -5  179.67   13.28
   3  10  -5  144.70   12.36
   3  10  -4    0.90    2.14
   3  10  -4   -1.12    2.38
   3  10  -4    4.29    2.80
   3  10  -4    0.24    1.68
   3  10  -4    1.72    2.06
   3  10  -4    0.26    1.70
   3  10  -3    2.19    1.99
   3  10  -3    5.59    2.47
   3  10  -3    5.51    2.45
   3  10  -3    4.15    2.47
   3  10  -3    5.78    2.04
   3  10  -3    5.74    2.15
   3  10  -2   44.58    4.56
   3  10  -2   44.11    4.83
   3  10  -2   48.49    4.97
   3  10  -2   45.67    4.52
   3  10  -2   43.67    4.88
   3  10  -2   46.55    4.50
   3  10  -1   84.20    7.08
   3  10  -1   90.01    7.36
   3  10  -1   93.31    7.13
   3  10  -1   83.95    6.96
   3  10  -1   85.77    7.26
   3  10   0    8.54    2.32
   3  10   0    8.57    2.36
   3  10   0    9.57    2.23
   3  10   1  226.10   15.81
   3  10   1  225.56   15.94
   3  10   1  241.03   15.89
   3  10   2   72.40    5.95
   3  10   2   69.54    6.01
   3  10   2   74.13    5.90
   3  10   3   10.15    2.10
   3  10   3   10.83    2.04
   3  10   3    5.96    1.64
   3  10   4    0.33    1.41
   3  10   4    0.15    1.16
   3  10   4    2.14    1.34
   3  10   4    0.62    1.10
   3  10   5    4.79    1.13
   3  10   5    3.47    1.13
   3  11 -11   26.78    2.73
   3  11 -11   30.29    3.16
   3  11 -10    5.83    1.52
   3  11 -10    7.27    2.00
   3  11  -9    7.90    1.84
   3  11  -9    5.28    2.04
   3  11  -8    3.07    1.84
   3  11  -8    0.83    1.40
   3  11  -8   -1.04    1.82
   3  11  -7  134.41   10.05
   3  11  -7  147.97   10.06
   3  11  -7  131.29   10.56
   3  11  -6    5.95    2.24
   3  11  -6    0.90    1.62
   3  11  -6    5.06    1.77
   3  11  -6    4.41    2.39
   3  11  -5   44.67    4.52
   3  11  -5   30.93    3.87
   3  11  -5   43.54    4.02
   3  11  -5   38.56    4.60
   3  11  -4    3.45    2.38
   3  11  -4    2.33    2.23
   3  11  -4    1.72    1.52
   3  11  -3   -0.96    2.20
   3  11  -3    1.07    1.55
   3  11  -3   -0.28    1.97
   3  11  -2   13.77    2.88
   3  11  -2   14.26    2.51
   3  11  -2   18.52    2.50
   3  11  -2   18.32    3.01
   3  11  -1    3.40    1.86
   3  11  -1   -0.20    1.64
   3  11  -1    0.80    1.45
   3  11   0    4.91    1.89
   3  11   0   10.11    1.92
   3  11   1   16.17    2.42
   3  11   1   17.42    2.27
   3  11   2    0.96    1.41
   3  11   2    0.15    1.10
   3  11   3   36.03    3.29
   3  11   3   40.11    3.29
   3  12  -9    0.14    0.91
   3  12  -9   -0.16    1.14
   3  12  -8    4.50    1.69
   3  12  -8    2.88    1.28
   3  12  -7   58.29    4.36
   3  12  -7   51.93    4.72
   3  12  -6   23.35    2.61
   3  12  -6   20.48    3.00
   3  12  -5    6.63    1.54
   3  12  -5    5.11    2.07
   3  12  -5    4.64    1.90
   3  12  -4   19.52    2.38
   3  12  -4   14.91    2.68
   3  12  -4   17.14    2.76
   3  12  -3   21.21    2.42
   3  12  -3   18.78    2.68
   3  12  -3   16.10    2.61
   3  12  -2   41.12    3.63
   3  12  -2   40.22    3.83
   3  12  -1   -0.89    1.27
   3  12  -1   -0.29    1.14
   3  12   0   84.08    6.30
   3  12   0   86.91    6.25
   3  12   1   47.54    3.66
   3  12   1   40.99    3.48
   3  13  -6   19.95    2.02
   3  13  -6   18.24    2.26
   3  13  -5   29.88    2.65
   3  13  -5   27.89    2.92
   3  13  -4   33.77    2.81
   3  13  -4   28.31    2.99
   3  13  -3    9.26    1.37
  -4  13  -1   25.61    2.33
  -4  13  -2   18.95    2.02
  -4  13  -3    0.12    0.93
  -4  13  -4    6.26    1.23
  -4  12   3    2.20    1.04
  -4  12   2   15.45    1.98
  -4  12   1   -0.59    1.26
  -4  12   0   17.01    2.11
  -4  12   0   16.89    2.10
  -4  12   0   16.85    2.26
  -4  12  -1   45.66    3.97
  -4  12  -1   43.53    3.94
  -4  12  -2   10.74    1.98
  -4  12  -2   10.21    1.90
  -4  12  -3    6.65    1.72
  -4  12  -3    7.30    1.69
  -4  12  -4    2.65    1.48
  -4  12  -4    0.97    1.64
  -4  12  -4    1.83    1.40
  -4  12  -5   92.87    6.27
  -4  12  -5   73.86    6.62
  -4  12  -5   82.15    6.21
  -4  12  -5   74.00    6.45
  -4  12  -6   -0.68    1.51
  -4  12  -6    1.02    1.29
  -4  12  -7   57.04    5.08
  -4  12  -7   62.71    4.61
  -4  12  -7   54.09    4.84
  -4  12  -8   25.98    2.37
  -4  12  -8   21.68    2.64
  -4  12  -8   22.70    2.54
  -4  11   5   32.95    2.96
  -4  11   5   36.16    3.10
  -4  11   4   14.36    2.05
  -4  11   4   16.66    2.14
  -4  11   3    1.20    1.46
  -4  11   3    3.39    1.59
  -4  11   2   66.69    5.55
  -4  11   1  152.92   10.90
  -4  11   0   -0.19    1.47
  -4  11   0    0.96    1.57
  -4  11   0    1.63    1.67
  -4  11  -1   55.70    4.97
  -4  11  -1   57.48    5.02
  -4  11  -2   27.37    3.23
  -4  11  -2   20.27    3.42
  -4  11  -2   24.55    3.13
  -4  11  -3   70.06    5.46
  -4  11  -3   52.66    5.69
  -4  11  -3   68.65    5.49
  -4  11  -3   52.30    5.60
  -4  11  -4   27.33    3.21
  -4  11  -4   21.72    3.59
  -4  11  -4   27.64    3.23
  -4  11  -4   20.74    3.37
  -4  11  -5  166.12   11.16
  -4  11  -5  158.24   11.87
  -4  11  -5  166.48   11.19
  -4  11  -5  141.29   11.17
  -4  11  -5  149.76   11.53
  -4  11  -6   92.55    7.52
  -4  11  -6  100.07    7.92
  -4  11  -6  106.83    8.24
  -4  11  -6   96.84    7.32
  -4  11  -7    9.27    2.17
  -4  11  -7    7.73    1.82
  -4  11  -7    9.39    2.37
  -4  11  -7    9.61    1.84
  -4  11  -8    6.79    1.85
  -4  11  -8    7.55    1.67
  -4  11  -8    6.85    1.98
  -4  11  -8    7.22    1.61
  -4  11  -9   32.67    3.20
  -4  11  -9   24.90    3.12
  -4  11  -9   34.19    2.98
  -4  10   7   88.81    6.40
  -4  10   6    0.77    1.48
  -4  10   5    1.36    1.41
  -4  10   5   -0.91    1.63
  -4  10   4   23.46    3.10
  -4  10   4   24.57    3.05
  -4  10   3  210.31   15.12
   4 -10  -3  224.58   14.95
  -4  10   3  224.58   15.22
   4 -10  -2  127.23    9.04
  -4  10   2  118.19    9.25
  -4  10   1  126.31    9.47
  -4  10   1  125.03    9.43
  -4  10   1  137.23    9.76
  -4  10   0   50.20    4.62
  -4  10   0   47.10    4.52
  -4  10   0   42.94    4.54
  -4  10  -1   50.83    4.61
  -4  10  -1   43.48    4.41
  -4  10  -1   40.01    4.92
  -4  10  -1   42.32    4.47
  -4  10  -2  133.22    9.44
  -4  10  -2  107.40    9.82
  -4  10  -2  132.06    9.48
  -4  10  -2  115.01    9.74
  -4  10  -3    5.06    2.07
  -4  10  -3    4.32    2.77
  -4  10  -3    5.14    2.17
  -4  10  -3    8.73    2.58
  -4  10  -3    6.02    2.19
  -4  10  -4  365.99   23.58
  -4  10  -4  341.44   24.29
  -4  10  -4  357.36   23.57
  -4  10  -4  345.67   23.70
  -4  10  -4  343.46   24.00
  -4  10  -5   18.54    2.76
  -4  10  -5   16.69    3.18
  -4  10  -5   21.81    3.13
  -4  10  -5   20.68    2.85
  -4  10  -5   21.87    3.63
  -4  10  -6   46.97    5.17
  -4  10  -6   40.96    4.17
  -4  10  -6   39.42    4.28
  -4  10  -6   50.76    4.93
  -4  10  -7    2.94    2.16
  -4  10  -7    0.20    1.64
  -4  10  -7    4.07    1.89
  -4  10  -7    1.73    1.82
  -4  10  -8   17.78    3.12
  -4  10  -8   24.98    2.78
  -4  10  -8   18.88    2.74
  -4  10  -8   20.62    3.03
  -4  10  -9   63.12    4.83
  -4  10  -9   56.13    4.76
  -4  10  -9   46.64    4.83
  -4  10 -10   21.82    2.52
  -4  10 -10   22.07    2.47
  -4  10 -11   21.24    2.16
  -4   9   8   98.58    7.10
  -4   9   7    1.08    1.43
  -4   9   7    1.04    1.56
  -4   9   6    4.51    1.84
  -4   9   6    4.92    2.07
   4  -9  -5   62.92    5.22
  -4   9   5   72.34    5.59
  -4   9   5   54.52    5.33
   4  -9  -4  201.22   12.99
  -4   9   4  192.64   13.09
  -4   9   4  162.30   12.99
   4  -9  -3    5.18    2.07
  -4   9   3    6.17    2.42
  -4   9   3    2.22    2.28
  -4   9   2  242.25   15.57
  -4   9   2  204.79   15.51
  -4   9   1   21.30    2.94
  -4   9   1   21.15    3.16
  -4   9   1   21.55    2.97
  -4   9   0    3.57    1.99
  -4   9   0    0.71    2.15
  -4   9   0    2.17    1.84
  -4   9  -1   25.76    3.86
  -4   9  -1   28.12    3.40
  -4   9  -1   20.83    3.78
  -4   9  -1   24.19    3.36
  -4   9  -2  190.07   14.15
  -4   9  -2  198.47   14.55
  -4   9  -2  197.04   13.97
  -4   9  -2  203.13   14.78
  -4   9  -2  200.10   14.03
  -4   9  -3   58.22    5.42
  -4   9  -3   48.70    5.55
  -4   9  -3   55.48    5.24
  -4   9  -3   57.08    6.04
  -4   9  -3   61.54    5.36
  -4   9  -4   99.49    7.86
  -4   9  -4   89.70    8.08
  -4   9  -4   99.39    7.69
  -4   9  -4   92.78    8.47
  -4   9  -4   96.15    7.71
  -4   9  -5   79.05    7.25
  -4   9  -5   61.42    5.86
  -4   9  -5   77.67    6.48
  -4   9  -5   82.96    6.86
  -4   9  -6    0.37    2.40
  -4   9  -6    3.01    1.84
  -4   9  -6    4.09    2.10
  -4   9  -6    3.25    2.40
  -4   9  -7   -0.71    2.25
  -4   9  -7    3.02    1.73
  -4   9  -7   -0.31    1.93
  -4   9  -7    1.32    1.75
  -4   9  -8    1.05    1.71
  -4   9  -8    0.89    1.76
  -4   9  -8   -0.25    1.72
  -4   9  -9  127.87    9.54
  -4   9  -9  134.85    9.71
  -4   9 -10    4.80    1.69
  -4   9 -10    0.29    1.83
  -4   9 -10    0.40    1.45
  -4   9 -11   13.16    1.98
  -4   9 -11   18.56    2.18
   4  -8  -9    2.83    1.21
  -4   8   8   82.61    6.15
  -4   8   8   73.23    6.13
  -4   8   7    2.84    1.99
   4  -8  -7    1.76    1.52
  -4   8   7    3.69    1.85
   4  -8  -6   26.01    3.12
  -4   8   6   23.56    3.26
  -4   8   5   27.69    3.50
   4  -8  -5   31.96    3.52
  -4   8   5   25.57    3.58
  -4   8   4  368.40   26.45
   4  -8  -4  420.40   26.50
  -4   8   4  408.91   26.49
   4  -8  -3   78.04    6.32
  -4   8   3   70.75    6.31
  -4   8   2  347.78   23.27
  -4   8   1    8.43    4.25
  -4   8   1   11.86    2.29
  -4   8   1   15.53    2.55
   4  -8  -1    4.19    3.40
  -4   8   0   14.35    4.88
  -4   8   0   10.50    2.30
  -4   8   0   13.69    2.80
  -4   8   0   11.78    2.51
   4  -8   0    7.00    4.41
  -4   8   0   10.68    2.76
  -4   8   0    8.55    2.23
   4  -8   1   74.52   10.82
  -4   8  -1   68.51   11.21
  -4   8  -1   85.92    7.13
   4  -8   1   76.74   11.48
  -4   8  -1   83.43    7.31
  -4   8  -1  106.24    7.94
  -4   8  -1   95.58    8.01
  -4   8  -1   94.53    7.29
   4  -8   2  137.89   14.99
   4  -8   2  110.75   14.46
  -4   8  -2  134.10    9.80
  -4   8  -2  119.87   15.15
  -4   8  -2  131.07    9.94
  -4   8  -2  137.10   10.37
  -4   8  -2  125.41   10.50
  -4   8  -2  130.75    9.85
   4  -8   3  243.94   22.57
   4  -8   3  174.04   21.32
  -4   8  -3  261.84   17.14
  -4   8  -3  240.90   23.65
  -4   8  -3  251.90   17.28
  -4   8  -3  251.57   17.60
  -4   8  -3  259.90   17.99
  -4   8  -3  240.40   17.06
   4  -8   4   -1.24    3.54
  -4   8  -4    1.64    1.79
   4  -8   4   -1.35    2.72
  -4   8  -4   -1.29    2.08
  -4   8  -4    1.70    1.73
  -4   8  -4    2.25    2.51
  -4   8  -4    0.99    1.73
  -4   8  -5   78.83    7.71
  -4   8  -5   85.45    8.17
  -4   8  -5   99.14    7.34
  -4   8  -6  126.63    9.29
  -4   8  -6  113.00    9.39
  -4   8  -6  105.07    9.62
  -4   8  -6  123.81    8.89
  -4   8  -7    3.03    2.00
  -4   8  -7    2.60    2.40
  -4   8  -7    1.55    1.83
  -4   8  -8   29.65    3.58
  -4   8  -8   24.27    3.68
  -4   8  -8   21.55    3.83
  -4   8  -8   28.13    3.39
  -4   8  -9  167.04   12.40
  -4   8  -9  176.77   12.17
  -4   8  -9  186.64   12.07
  -4   8 -10   87.12    7.43
  -4   8 -10   91.70    7.19
  -4   8 -10   75.04    7.63
  -4   8 -10  103.37    7.17
  -4   8 -11    2.96    1.48
  -4   8 -11    6.20    1.98
  -4   8 -11    1.79    2.01
  -4   8 -11    4.25    1.54
  -4   8 -12    8.42    1.50
  -4   8 -12   10.92    1.61
  -4   8 -12    6.60    1.66
   4  -7 -10   88.38    6.73
   4  -7  -9    5.74    1.67
  -4   7   9    4.45    1.76
   4  -7  -8   25.07    2.95
  -4   7   8   21.91    3.01
  -4   7   8   20.92    3.10
   4  -7  -7   20.03    2.88
  -4   7   7   19.93    3.12
   4  -7  -6  335.13   22.77
  -4   7   6  346.31   22.84
   4  -7  -5   67.79    5.64
  -4   7   5   57.96    5.69
   4  -7  -4  421.57   25.71
  -4   7   4  386.01   25.67
  -4   7   4  356.59   32.85
   4  -7  -3  408.41   37.65
  -4   7   3  477.35   31.01
  -4   7   3  513.99   39.45
   4  -7  -2    5.67    4.04
  -4   7   2    5.44    2.24
  -4   7   2    4.43    4.21
   4  -7  -2    3.34    1.62
  -4   7   1    2.60    3.31
  -4   7   1    2.13    1.50
  -4   7   1    6.14    2.10
   4  -7  -1    5.36    4.01
   4  -7  -1    5.09    3.04
  -4   7   1    3.58    2.13
  -4   7   1    1.44    2.90
  -4   7   1    3.36    2.19
  -4   7   1    5.01    1.87
  -4   7   0   86.59    6.80
  -4   7   0   84.42   12.46
   4  -7   0   87.90   11.73
  -4   7   0   87.32    7.10
  -4   7   0   86.44    7.37
   4  -7   0   64.68   10.33
  -4   7   0   97.82    7.74
  -4   7   0   90.15    6.92
  -4   7  -1  463.34   40.06
  -4   7  -1  528.38   34.22
   4  -7   1  521.27   39.35
   4  -7   1  496.43   40.10
  -4   7  -1  617.65   42.60
  -4   7  -1  546.83   34.51
  -4   7  -1  550.83   34.81
  -4   7  -1  521.50   35.01
  -4   7  -1  493.72   34.17
  -4   7  -2   73.04   10.93
  -4   7  -2   75.17    6.26
   4  -7   2   79.95   10.40
  -4   7  -2   94.01   12.66
  -4   7  -2   88.77    6.62
  -4   7  -2   81.84    6.79
   4  -7   2   64.17   10.00
  -4   7  -2   75.69    7.08
  -4   7  -2   68.59    6.24
   4  -7   3  238.75   20.59
   4  -7   3  228.53   21.02
  -4   7  -3  188.32   20.54
  -4   7  -3  209.57   15.10
  -4   7  -3  240.27   15.45
  -4   7  -3  229.64   15.69
  -4   7  -3  218.92   15.92
  -4   7  -3  204.51   15.09
   4  -7   4  186.01   17.04
   4  -7   4  163.02   16.68
  -4   7  -4  150.32   11.26
  -4   7  -4  179.17   11.70
  -4   7  -4  166.30   11.85
  -4   7  -4  149.72   12.03
  -4   7  -4  141.54   11.23
  -4   7  -5  180.03   15.45
  -4   7  -5  225.80   14.82
   4  -7   5  222.98   20.62
  -4   7  -5  211.48   15.48
  -4   7  -5  238.00   15.36
  -4   7  -6   12.09    2.31
   4  -7   6   11.12    4.51
   4  -7   6   12.50    4.27
  -4   7  -6   12.44    2.55
  -4   7  -6   10.66    2.83
  -4   7  -7   79.12    7.67
  -4   7  -7   97.21    7.59
  -4   7  -7   80.64    7.86
  -4   7  -7  101.34    7.27
  -4   7  -8  362.94   24.90
  -4   7  -8  382.66   24.59
  -4   7  -8  316.38   24.92
  -4   7  -8  381.87   24.26
  -4   7  -9   12.07    2.95
  -4   7  -9   13.26    2.61
  -4   7  -9    9.83    3.04
  -4   7  -9   12.94    2.59
  -4   7 -10   42.43    4.96
  -4   7 -10   49.80    4.67
  -4   7 -10   37.30    5.17
  -4   7 -10   54.36    4.56
  -4   7 -11   35.03    4.20
  -4   7 -11   41.39    4.01
  -4   7 -11   36.45    4.63
  -4   7 -11   45.32    3.97
  -4   7 -12   47.37    4.78
  -4   7 -12   53.16    4.63
   4  -6 -11   97.34    7.30
   4  -6 -10   94.11    6.75
   4  -6 -10   81.79    7.01
   4  -6  -9   46.61    4.27
  -4   6   9   40.99    4.17
   4  -6  -8   97.60    7.67
  -4   6   8   99.46    7.79
   4  -6  -7  267.31   17.72
  -4   6   7  249.99   17.70
   4  -6  -6   12.89    2.69
  -4   6   6   16.83    2.94
   4  -6  -5  780.57   47.20
  -4   6   5  767.73   47.18
  -4   6   5  745.41   55.82
   4  -6  -4   31.09    7.44
   4  -6  -4   33.96    3.65
  -4   6   4   32.40    7.61
  -4   6   4   33.87    3.82
   4  -6  -4   17.30    5.99
   4  -6  -3   48.65    8.87
   4  -6  -3   46.55    4.46
  -4   6   3   48.27    4.48
  -4   6   3   57.16    9.58
   4  -6  -3   30.34    7.46
   4  -6  -2    9.11    2.02
   4  -6  -2   14.33    4.86
   4  -6  -2    4.49    2.91
  -4   6   2    8.78    1.83
  -4   6   2    9.12    2.25
  -4   6   2    6.99    4.39
   4  -6  -1  118.53   13.91
  -4   6   1  124.99    9.66
   4  -6  -1  127.42   14.72
  -4   6   1  129.88    9.93
  -4   6   1  130.49   10.15
  -4   6   1  135.92   10.44
  -4   6   1  157.23    9.94
  -4   6   1  166.93   16.80
   4  -6   0  212.84   19.88
  -4   6   0  229.43   15.09
   4  -6   0  261.79   21.52
  -4   6   0  215.71   15.21
  -4   6   0  202.52   15.35
  -4   6   0  222.15   15.78
  -4   6   0  238.84   21.74
   4  -6   1   21.17    5.08
  -4   6  -1   27.31    3.02
  -4   6  -1   24.72    3.01
   4  -6   1   32.29    6.53
  -4   6  -1   24.58    3.22
   4  -6   1   32.26    6.20
  -4   6  -1   21.77    3.44
  -4   6  -1   22.09    6.49
   4  -6   2  317.76   24.63
   4  -6   2  313.53   25.34
  -4   6  -2  294.39   19.87
   4  -6   2  369.70   26.22
  -4   6  -2  304.07   20.05
  -4   6  -2  264.89   20.33
  -4   6  -2  312.13   26.58
  -4   6  -3   22.23    2.80
  -4   6  -3   18.70    2.97
   4  -6   3   18.00    4.78
   4  -6   3   16.80    4.60
  -4   6  -3   13.83    2.84
  -4   6  -3   20.52    2.67
  -4   6  -4   -0.51    1.27
  -4   6  -4    0.32    1.86
   4  -6   4    1.04    2.65
  -4   6  -4    0.24    1.44
  -4   6  -4   -0.86    1.81
   4  -6   4    1.14    2.29
  -4   6  -5   16.33    2.33
   4  -6   5   14.32    4.87
  -4   6  -5   21.95    2.71
  -4   6  -5   14.61    2.82
   4  -6   6  244.32   20.53
   4  -6   6  179.05   19.01
  -4   6  -6  208.81   15.17
  -4   6  -6  200.39   15.31
  -4   6  -6  219.78   14.53
  -4   6  -7   65.20    5.88
  -4   6  -7   46.11    5.81
  -4   6  -7   55.62    4.96
  -4   6  -8   83.88    7.64
  -4   6  -8   76.57    7.88
  -4   6  -8   98.96    7.23
  -4   6  -9   46.13    5.11
  -4   6  -9   49.90    4.56
  -4   6 -10    3.22    2.25
  -4   6 -10    5.20    2.82
  -4   6 -10    1.96    1.80
  -4   6 -11   17.12    3.01
  -4   6 -11   15.59    3.30
  -4   6 -11   23.23    2.80
  -4   6 -12    2.42    1.62
  -4   6 -12    5.10    2.10
  -4   6 -12    4.76    1.46
  -4   6 -13   93.40    7.24
  -4   6 -13  100.29    7.07
   4  -5 -12    3.31    1.18
   4  -5 -12    0.68    1.10
   4  -5 -11  175.13   11.20
   4  -5 -11  143.59   11.38
   4  -5 -10   17.67    2.64
   4  -5  -9  130.39    9.65
   4  -5  -8   11.70    2.59
  -4   5   8    6.41    2.28
   4  -5  -7  283.10   18.02
  -4   5   7  242.84   17.82
   4  -5  -6   76.34   11.96
   4  -5  -6   66.90   12.11
   4  -5  -6  102.03    7.47
  -4   5   6   90.76    7.37
  -4   5   6  104.15   13.89
   4  -5  -5   93.92   14.19
   4  -5  -5  143.80    9.91
  -4   5   5  130.56    9.81
  -4   5   5  135.77   16.39
   4  -5  -5  144.42   16.51
   4  -5  -4   47.12    8.57
   4  -5  -4   56.90    4.77
   4  -5  -4   46.01    4.59
  -4   5   4   51.96    4.75
  -4   5   4   65.64   10.42
   4  -5  -4   48.42    8.81
   4  -5  -3    1.25    2.52
   4  -5  -3    4.41    1.54
  -4   5   3    2.73    3.01
  -4   5   3    1.12    1.72
   4  -5  -3    1.29    2.60
   4  -5  -2   71.00   10.23
   4  -5  -2   55.00    8.47
   4  -5  -2   77.69    6.01
  -4   5   2   73.40    5.78
  -4   5   2   76.86    5.91
  -4   5   2   71.99   10.47
  -4   5   1    3.11    1.34
   4  -5  -1    3.28    3.41
   4  -5  -1    4.82    3.01
  -4   5   1    4.75    1.81
  -4   5   1    4.02    1.70
  -4   5   1   -1.23    2.48
   4  -5   0  347.66   25.77
  -4   5   0  311.18   20.58
   4  -5   0  340.75   26.12
  -4   5   0  306.54   20.74
  -4   5   0  291.70   21.15
  -4   5   0  374.97   27.56
   4  -5   1  138.50   13.27
   4  -5   1  169.54   14.73
   4  -5   1  130.14    9.66
  -4   5  -1  144.29    9.64
   4  -5   1  170.05   14.81
  -4   5  -1  129.97    9.65
  -4   5  -1  114.32    9.95
  -4   5  -1  153.94   15.14
   4  -5   2  150.83   13.32
   4  -5   2  131.58   13.53
  -4   5  -2  135.16    9.21
   4  -5   2  145.89   13.83
  -4   5  -2  133.25    9.35
  -4   5  -2  104.08    9.51
  -4   5  -2  122.54   14.24
  -4   5  -3   47.72    4.28
   4  -5   3   38.71    6.95
  -4   5  -3   45.65    4.63
  -4   5  -3   54.10    4.51
   4  -5   3   49.20    7.63
   4  -5   3   56.81    7.82
  -4   5  -4   -0.53    1.58
   4  -5   4   -1.04    2.28
   4  -5   4    0.94    2.39
  -4   5  -5  117.87    9.44
   4  -5   5  142.69   13.84
   4  -5   5  140.17   14.23
  -4   5  -5  119.47    9.59
  -4   5  -6  123.73    9.77
   4  -5   6  136.60   14.13
  -4   5  -6  124.92   10.08
  -4   5  -7  126.82   10.24
   4  -5   7  135.27   14.67
  -4   5  -7  133.51   10.65
  -4   5  -8   29.28    4.56
  -4   5  -8   39.09    4.55
  -4   5  -9    6.24    3.06
  -4   5  -9    3.74    2.52
  -4   5 -10    0.44    1.75
  -4   5 -10   -1.65    2.51
  -4   5 -10   -0.33    2.12
  -4   5 -11   12.78    2.32
  -4   5 -11   12.36    2.81
  -4   5 -11   14.60    3.23
  -4   5 -12   26.10    3.20
  -4   5 -12   20.69    3.33
  -4   5 -13   85.44    6.60
   4  -4 -13  102.32    7.15
   4  -4 -12   46.00    4.30
   4  -4 -12   47.05    4.06
   4  -4 -11   98.88    7.86
   4  -4 -11   95.77    7.39
   4  -4 -10   12.38    2.64
   4  -4  -9  111.63    8.60
   4  -4  -8  198.36   14.01
   4  -4  -7   29.77    7.54
   4  -4  -7   49.44    4.57
  -4   4   7   50.88    9.83
   4  -4  -6  287.83   30.95
   4  -4  -6  441.59   26.01
  -4   4   6  375.67   25.77
  -4   4   6  424.07   34.38
   4  -4  -6  324.55   32.14
   4  -4  -5   20.70    5.75
   4  -4  -5   25.46    2.89
   4  -4  -5   18.98    2.73
  -4   4   5   22.54    2.89
  -4   4   5   30.73    7.34
   4  -4  -5   21.15    5.84
   4  -4  -4  115.63   14.75
   4  -4  -4  152.30   10.60
   4  -4  -4  154.91   10.52
  -4   4   4  143.97   10.40
  -4   4   4  133.22   15.84
   4  -4  -4  163.38   16.35
   4  -4  -3    4.40    3.59
   4  -4  -3   10.52    1.87
  -4   4   3    8.70    4.21
  -4   4   3    4.86    1.74
   4  -4  -3    6.87    3.60
  -4   4   2  102.91   11.94
   4  -4  -2   93.99   11.16
   4  -4  -2   93.30   10.34
   4  -4  -2   96.70    7.34
   4  -4  -2   90.95   11.16
   4  -4  -2  102.29    7.35
  -4   4   2   95.67    7.19
  -4   4   2  118.21   12.83
  -4   4   1  374.42   28.18
   4  -4  -1  390.88   27.91
   4  -4  -1  367.99   26.66
  -4   4   1  315.32   22.77
  -4   4   1  340.08   22.24
  -4   4   1  357.09   28.07
   4  -4   0  276.87   21.56
   4  -4   0  262.00   21.79
  -4   4   0  237.66   22.38
  -4   4   0  271.92   22.71
   4  -4   1  718.94   44.73
  -4   4  -1  572.13   39.42
  -4   4  -1  650.82   45.23
   4  -4   1  623.97   42.79
   4  -4   1  689.87   44.14
   4  -4   2   38.17    6.41
  -4   4  -2   35.31    3.58
   4  -4   2   48.77    6.70
  -4   4  -2   29.81    3.22
  -4   4  -2   40.27    7.03
   4  -4   2   28.00    5.23
   4  -4   3  173.37   14.53
  -4   4  -3  122.84    9.88
  -4   4  -3  134.78    9.79
  -4   4  -3  146.81   16.75
   4  -4   3  160.32   14.20
   4  -4   3  153.43   13.30
   4  -4   4   69.27    8.81
   4  -4   4   58.82    7.89
  -4   4  -4   54.02    4.95
   4  -4   4   52.51    8.00
  -4   4  -4   58.29    5.22
  -4   4  -4   64.73    5.51
  -4   4  -4   64.39   10.64
   4  -4   5  803.36   54.74
  -4   4  -5  735.13   49.64
  -4   4  -5  782.70   49.92
   4  -4   5  832.95   54.40
   4  -4   5  798.64   54.47
  -4   4  -5  717.35   58.02
  -4   4  -6    5.13    1.92
  -4   4  -6    1.97    2.27
   4  -4   6    8.29    3.74
  -4   4  -7  496.76   32.29
  -4   4  -7  469.13   32.61
   4  -4   7  489.58   37.31
  -4   4  -8  130.44    9.72
  -4   4  -8  105.30    9.86
  -4   4  -9   86.08    7.56
  -4   4  -9   83.54    8.01
  -4   4 -10   12.91    2.89
  -4   4 -10   14.39    3.63
  -4   4 -11   43.59    4.01
  -4   4 -11   37.33    4.83
  -4   4 -11   32.18    4.23
  -4   4 -12  395.16   26.31
  -4   4 -13   26.92    2.96
   4  -3 -13  100.84    7.28
   4  -3 -12  203.96   13.98
   4  -3 -11    1.09    1.89
   4  -3 -10   64.32    5.73
   4  -3  -9   86.25    7.76
   4  -3  -9   89.08    7.10
   4  -3  -8  720.22   58.66
   4  -3  -8  836.03   50.92
  -4   3   8  788.23   59.97
   4  -3  -8  746.37   51.45
   4  -3  -7  187.05   21.69
   4  -3  -7  227.71   15.85
  -4   3   7  225.85   23.29
   4  -3  -7  227.46   16.48
   4  -3  -7  250.34   16.07
   4  -3  -6  283.50   18.33
   4  -3  -6  263.18   18.15
  -4   3   6  233.71   24.54
   4  -3  -6  284.95   25.16
   4  -3  -5  432.45   35.51
   4  -3  -5  453.28   29.34
   4  -3  -5  369.27   33.82
   4  -3  -5  422.37   29.15
  -4   3   5  386.43   35.15
   4  -3  -5  517.90   29.56
   4  -3  -4  443.44   32.55
  -4   3   4  438.92   32.04
   4  -3  -4  385.21   25.93
   4  -3  -4  330.12   30.23
   4  -3  -4  374.20   25.76
  -4   3   4  422.51   32.40
   4  -3  -4  435.91   26.08
   4  -3  -3   36.79    6.58
  -4   3   3   43.17    7.11
   4  -3  -3   33.46    3.22
  -4   3   3   34.52    6.59
  -4   3   3   36.83    6.63
   4  -3  -3   22.86    5.41
   4  -3  -2   26.53    5.58
  -4   3   2   20.69    5.18
  -4   3   2   30.07    2.84
  -4   3   2   33.05    6.22
  -4   3   2   36.99    6.45
   4  -3  -2   27.34    5.40
  -4   3   1 1117.42   74.79
   4  -3  -1 1199.84   73.19
  -4   3   1 1045.77   68.99
  -4   3   1 1161.35   74.83
  -4   3   1 1160.69   75.08
   4  -3  -1 1197.66   74.14
  -4   3   0  181.13   18.29
   4  -3   0  235.01   17.78
  -4   3   0  203.29   18.38
  -4   3   0  194.58   18.93
   4  -3   0  219.95   18.01
  -4   3  -1    3.22    3.62
  -4   3  -1    5.71    3.10
  -4   3  -1    6.61    3.30
   4  -3   1    5.70    2.94
   4  -3   1    3.77    2.73
   4  -3   2  461.87   33.25
   4  -3   2  443.57   32.13
   4  -3   2  489.87   33.65
  -4   3  -2  461.23   34.26
  -4   3  -2  394.05   33.99
   4  -3   3  551.80   36.43
   4  -3   3  527.26   35.51
  -4   3  -3  449.85   31.83
   4  -3   3  552.67   36.75
  -4   3  -3  504.96   39.45
  -4   3  -3  413.71   36.98
  -4   3  -3  523.91   32.19
   4  -3   4  703.20   45.41
   4  -3   4  702.59   45.99
  -4   3  -4  602.40   41.26
   4  -3   4  767.56   46.82
  -4   3  -4  651.31   49.51
  -4   3  -4  514.65   46.79
  -4   3  -4  652.93   41.63
   4  -3   5  421.68   29.22
   4  -3   5  372.54   28.91
  -4   3  -5  349.79   24.54
   4  -3   5  359.15   29.02
  -4   3  -5  380.07   33.36
  -4   3  -5  387.13   25.10
   4  -3   6  610.45   40.04
  -4   3  -6  493.83   34.24
   4  -3   6  526.57   39.54
  -4   3  -6  473.34   43.37
  -4   3  -6  555.53   35.04
   4  -3   7   20.03    5.30
  -4   3  -7   21.77    7.96
  -4   3  -7   25.03    3.93
  -4   3  -7   22.29    3.08
   4  -3   8   12.13    4.60
  -4   3  -8   19.42    2.87
  -4   3  -8   12.99    3.32
  -4   3  -8    4.72    6.07
  -4   3  -9   26.99    4.07
  -4   3  -9   25.45    3.44
  -4   3 -10  202.97   15.29
  -4   3 -11   59.69    5.51
   4  -3  11   51.25    5.13
   4  -3  12   69.08    5.75
   4  -3  13  142.46    9.88
   4  -2 -14  215.19   14.23
   4  -2 -13   49.73    4.29
   4  -2 -12    0.83    1.78
   4  -2 -11    2.52    2.02
   4  -2 -10  145.28   12.12
   4  -2 -10  167.32   11.54
   4  -2  -9  194.89   15.36
   4  -2  -9  216.47   14.73
  -4   2   9  194.74   22.11
   4  -2  -9  219.04   15.00
   4  -2  -8    3.70    2.23
   4  -2  -8    8.14    2.08
   4  -2  -8    3.04    3.37
   4  -2  -8    4.63    1.86
  -4   2   8   11.52    5.35
   4  -2  -8    5.18    1.95
   4  -2  -7  433.38   28.70
   4  -2  -7  394.72   34.46
  -4   2   7  361.14   34.12
   4  -2  -7  407.71   27.86
  -4   2   7  328.27   33.78
   4  -2  -7  471.67   28.34
   4  -2  -7  444.10   28.14
   4  -2  -6    6.41    3.84
  -4   2   6    7.76    3.87
   4  -2  -6    4.11    1.49
  -4   2   6    6.77    4.06
   4  -2  -6    5.01    1.72
   4  -2  -6    5.52    1.68
   4  -2  -5    6.93    3.77
  -4   2   5    4.73    3.23
   4  -2  -5    8.79    1.73
   4  -2  -5    7.82    1.54
  -4   2   5    2.43    2.93
   4  -2  -5    8.78    1.77
  -4   2   4  141.93   13.68
   4  -2  -4  147.00   14.04
  -4   2   4  165.56   14.83
   4  -2  -4  123.40    8.98
   4  -2  -4  109.96   12.18
  -4   2   4  109.73   13.28
   4  -2  -4  127.28    9.07
   4  -2  -3  228.55   19.65
  -4   2   3  233.81   20.24
  -4   2   3  221.36   19.72
  -4   2   3  249.33   20.17
   4  -2  -3  211.30   18.78
   4  -2  -2  381.31   29.48
  -4   2   2  370.29   30.19
  -4   2   2  399.83   30.07
  -4   2   2  413.89   30.45
   4  -2  -2  396.78   29.30
   4  -2  -1  330.49   24.42
   4  -2  -1  319.50   25.12
  -4   2   1  327.10   26.27
  -4   2   1  359.51   26.04
  -4   2   1  338.90   26.39
   4  -2  -1  304.04   24.77
   4  -2   0   78.72    8.24
  -4   2   0   80.99    9.84
  -4   2   0   74.34    8.90
  -4   2   0   65.71    8.65
  -4   2   0   81.35   10.06
   4  -2   0   69.45    8.28
   4  -2   1   61.56    7.34
  -4   2  -1   57.00    8.42
  -4   2  -1   62.47    8.04
  -4   2  -1   48.42    8.18
  -4   2  -1   67.86    8.95
   4  -2   1   76.96    8.10
   4  -2   2  346.14   24.66
   4  -2   2  370.65   25.86
   4  -2   2  329.92   25.57
  -4   2  -2  307.43   25.86
  -4   2  -2  341.47   22.21
  -4   2  -2  288.01   26.63
  -4   2  -2  334.62   27.36
   4  -2   3    3.99    2.41
  -4   2  -3    4.06    1.35
   4  -2   3    5.56    2.69
   4  -2   3    5.76    2.88
  -4   2  -3    8.32    4.51
  -4   2  -3    7.69    1.93
  -4   2  -3    1.19    2.85
   4  -2   4  883.26   57.63
   4  -2   4  962.64   58.93
  -4   2  -4  783.71   53.87
   4  -2   4  900.61   58.69
  -4   2  -4  784.55   61.52
  -4   2  -4  817.02   60.73
  -4   2  -4  878.30   54.29
  -4   2  -5   16.60    5.28
   4  -2   5   14.76    4.31
  -4   2  -5   20.26    2.63
   4  -2   5   28.30    5.59
   4  -2   5   22.44    4.76
  -4   2  -5   15.63    5.97
  -4   2  -5   19.49    6.15
  -4   2  -5   18.20    3.13
  -4   2  -6  104.54    8.36
  -4   2  -6   86.98   12.98
   4  -2   6  115.53   12.36
  -4   2  -6  111.74   16.03
  -4   2  -6  116.50    9.03
  -4   2  -7    7.30    2.05
  -4   2  -7   10.03    4.79
   4  -2   7    7.75    3.64
  -4   2  -7   19.72    7.66
  -4   2  -7   12.90    3.10
   4  -2   8    8.25    2.41
  -4   2  -8    4.80    2.10
   4  -2   8    8.49    4.11
  -4   2  -8    7.19    5.72
  -4   2  -8    6.95    2.90
  -4   2  -9   82.79    7.78
  -4   2  -9   82.33    7.14
   4  -2   9   82.14    7.15
   4  -2  10   30.04    3.93
  -4   2 -10   32.10    3.91
  -4   2 -11   54.33    5.49
   4  -2  11   72.25    5.82
   4  -2  12    8.67    2.14
   4  -2  13   39.61    3.65
   4  -2  13   49.51    3.87
   4  -1 -14    8.90    1.64
   4  -1 -13    0.19    1.72
   4  -1 -12   29.36    3.43
   4  -1 -11   60.56    5.46
   4  -1 -10    1.02    1.83
   4  -1 -10    1.15    1.86
   4  -1 -10    0.55    2.17
   4  -1  -9  212.10   16.07
   4  -1  -9  222.58   15.47
  -4   1   9  185.56   21.61
   4  -1  -9  222.68   15.28
   4  -1  -9  234.42   15.73
   4  -1  -8  201.64   14.75
   4  -1  -8  215.21   14.25
   4  -1  -8  217.24   20.81
  -4   1   8  184.08   20.42
   4  -1  -8  184.52   13.82
   4  -1  -8  215.58   14.37
   4  -1  -7   98.37    7.58
   4  -1  -7  100.49   12.68
  -4   1   7  101.47   13.06
   4  -1  -7   96.51    7.33
   4  -1  -7  102.82    7.72
   4  -1  -6  158.51   10.65
   4  -1  -6  164.44   16.39
  -4   1   6  143.72   16.03
   4  -1  -6  140.75   10.30
  -4   1   6  134.39   15.89
   4  -1  -6  155.59   10.74
  -4   1   5  116.61   11.90
   4  -1  -5   92.71    6.90
  -4   1   5   99.46   11.57
  -4   1   5   73.97   11.21
   4  -1  -5   93.87    7.02
   4  -1  -5  109.81   11.96
  -4   1   5   69.34   10.57
   4  -1  -4  525.36   40.16
  -4   1   4  546.28   40.97
  -4   1   4  532.24   40.86
  -4   1   4  568.68   40.41
  -4   1   4  581.89   40.70
   4  -1  -3   22.59    4.98
  -4   1   3   14.98    4.40
  -4   1   3   25.66    4.91
   4  -1  -3   18.33    5.29
  -4   1   3   21.62    4.88
   4  -1  -3   19.83    4.00
   4  -1  -2  213.96   17.11
  -4   1   2  186.27   17.39
  -4   1   2  183.73   16.46
  -4   1   2  183.09   16.65
  -4   1   2  196.78   17.46
   4  -1  -2  197.37   16.04
   4  -1  -1   78.03    8.43
  -4   1   1   98.58   10.71
  -4   1   1   90.99    9.66
  -4   1   1   99.03   10.36
  -4   1   1   81.26   10.04
   4  -1  -1   99.77    9.44
  -4   1   0   18.84    5.13
  -4   1   0   10.92    3.34
  -4   1   0    8.33    3.49
  -4   1   0   18.97    4.57
   4  -1   0    9.09    3.00
   4  -1   0    8.03    2.51
  -4   1  -1    5.86    3.30
  -4   1  -1    2.24    2.04
  -4   1  -1    4.75    3.32
  -4   1  -1    4.88    2.93
   4  -1   1    4.65    2.55
   4  -1   1    6.77    2.74
   4  -1   2  247.87   18.89
   4  -1   2  208.27   17.21
   4  -1   2  242.97   18.64
  -4   1  -2  201.30   19.23
  -4   1  -2  225.51   20.15
  -4   1  -3  120.53   12.71
   4  -1   3  108.58   10.54
   4  -1   3  120.96   11.46
  -4   1  -3  111.34    8.14
   4  -1   3   87.86   10.64
  -4   1  -3  124.18   14.39
  -4   1  -3  112.56   13.01
  -4   1  -4  641.62   52.05
   4  -1   4  732.09   51.00
   4  -1   4  757.40   50.51
  -4   1  -4  718.92   46.88
   4  -1   4  749.86   51.30
  -4   1  -4  742.52   55.03
  -4   1  -4  696.18   53.39
  -4   1  -4  751.64   47.22
  -4   1  -5  169.70   12.18
  -4   1  -5  147.44   17.21
   4  -1   5  180.86   15.90
   4  -1   5  179.96   16.28
  -4   1  -5  147.76   18.66
  -4   1  -5  129.87   17.24
  -4   1  -5  186.75   12.70
   4  -1   6   24.69    3.18
  -4   1  -6   23.95    3.18
  -4   1  -6   26.72    6.96
   4  -1   6   25.94    5.61
  -4   1  -6   23.63    7.47
  -4   1  -6   27.76    3.81
  -4   1  -7   75.41    6.72
   4  -1   7   78.22    6.67
  -4   1  -7   58.18   11.27
   4  -1   7   84.14   10.94
  -4   1  -7   89.70   14.35
  -4   1  -7   84.70    7.38
  -4   1  -8    9.41    2.91
   4  -1   8   10.28    2.75
  -4   1  -8   10.93    2.61
  -4   1  -9  321.91   22.64
   4  -1   9  337.82   22.52
   4  -1  10   -0.26    2.22
  -4   1 -10   -0.31    1.98
  -4   1 -11  216.33   15.75
   4  -1  11  232.63   15.64
   4  -1  12   28.27    3.18
  -4   1 -12   36.18    3.55
   4  -1  12   35.24    3.49
   4  -1  13    2.33    1.02
   4  -1  13    2.74    1.19
   4   0 -14    2.58    1.43
   4   0 -13    4.59    1.84
   4   0 -12    1.56    1.87
   4   0 -11  122.79    9.81
   4   0 -11  135.65    9.69
   4   0 -10  135.86    9.78
   4   0 -10  116.88    9.33
   4   0 -10  133.09    9.98
   4   0  -9   76.63    6.23
  -4   0   9   68.39   11.36
   4   0  -9   73.14    5.88
  -4   0   9   67.49   12.23
   4   0  -9   40.30   10.37
   4   0  -9   74.34    6.41
   4   0  -8  593.93   37.85
   4   0  -8  646.01   45.65
  -4   0   8  565.61   45.59
   4   0  -8  564.80   37.48
  -4   0   8  510.53   46.08
   4   0  -8  500.07   46.52
   4   0  -8  611.99   38.07
  -4   0   7   41.47    7.34
   4   0  -7   43.09    3.73
   4   0  -7   36.88    7.09
  -4   0   7   25.69    6.68
  -4   0   7   34.64    8.44
   4   0  -7   22.28    7.08
   4   0  -7   32.56    3.74
  -4   0   6   52.33    8.06
   4   0  -6   48.14    4.17
   4   0  -6   50.27    8.15
  -4   0   6   33.45    7.37
  -4   0   6   46.34    9.24
   4   0  -6   42.78    8.66
   4   0  -6   49.34    4.33
  -4   0   5   18.79    4.80
   4   0  -5   15.41    2.08
  -4   0   5   22.64    5.96
   4   0  -5   14.93    5.55
   4   0  -5   15.33    2.18
   4   0  -5   19.25    5.01
  -4   0   5   15.10    5.11
   4   0  -4 2105.00  146.34
  -4   0   4 2168.05  147.07
  -4   0   4 2358.60  147.13
   4   0  -4 2429.59  148.95
  -4   0   3  476.01   38.31
  -4   0   3  523.98   38.25
  -4   0   3  576.92   39.10
   4   0  -3  516.61   33.69
   4   0  -3  586.81   40.35
  -4   0   2  120.80   12.99
  -4   0   2  103.96   12.19
  -4   0   2  147.03   13.66
   4   0  -2  138.20    9.27
  -4   0   1  801.55   48.54
   4   0  -1  651.41   45.33
  -4   0   1  662.27   47.47
  -4   0   1  659.97   47.35
   4   0  -1  656.33   42.73
   4   0  -1  683.99   45.56
  -4   0   0  522.77   36.43
  -4   0   0  569.60   37.63
   4   0   0  486.72   34.98
  -4   0   0  507.84   37.17
   4   0   0  483.02   32.11
  -4   0   0  530.10   37.05
   4   0   0  502.95   35.03
  -4   0  -1  152.47   14.39
   4   0   1  152.31   13.28
  -4   0  -1  159.24   15.25
   4   0   1  149.86   10.41
  -4   0  -1  137.86   14.11
   4   0   1  164.06   13.55
  -4   0  -2  130.32   13.58
   4   0   2  114.22   11.89
   4   0   2  143.20   12.61
  -4   0  -2  154.70   15.26
  -4   0  -2  128.24   13.74
  -4   0  -3 2036.88  138.63
   4   0   3 2128.63  136.06
   4   0   3 2259.59  137.43
  -4   0  -3 2047.58  132.80
   4   0   3 2154.13  137.02
  -4   0  -3 2218.36  140.78
  -4   0  -3 2186.92  139.62
  -4   0  -4    9.07    4.53
   4   0   4    6.27    2.85
   4   0   4    4.57    1.65
  -4   0  -4    9.13    1.86
   4   0   4    8.05    3.43
  -4   0  -4    1.53    3.67
  -4   0  -4    4.04    3.66
  -4   0  -5  199.69   13.58
   4   0   5  172.36   13.25
  -4   0  -5  149.98   18.91
  -4   0  -5  219.36   14.09
  -4   0  -5  235.17   22.48
  -4   0  -5  155.68   18.85
   4   0   5  189.07   17.21
   4   0   5  208.40   18.21
  -4   0  -6   86.91    7.27
   4   0   6   85.07    7.20
  -4   0  -6   98.87    7.86
   4   0   6   92.47   11.82
  -4   0  -6   86.76   13.94
  -4   0  -6   68.42   11.88
   4   0   6   97.28   11.30
  -4   0  -7   99.67    8.26
   4   0   7  113.20    8.27
  -4   0  -7  107.35    8.69
   4   0   7   99.87   12.15
  -4   0  -7  106.94   16.11
   4   0   7   78.35   11.79
  -4   0  -8  338.24   24.77
   4   0   8  391.50   24.72
  -4   0  -9  125.03   10.00
   4   0   9  125.75    9.79
  -4   0 -10  309.57   22.08
   4   0  10  334.64   21.90
   4   0  11    3.07    1.76
   4   0  11   -0.44    1.92
  -4   0 -11   -0.53    1.75
   4   0  12   -0.78    1.26
  -4   0 -12    0.21    1.27
   4   0  12    0.34    1.53
   4   1 -15   31.27    2.82
   4   1 -14   39.38    4.16
   4   1 -14   40.22    3.70
   4   1 -13  101.24    8.44
   4   1 -13  100.44    7.66
   4   1 -12  102.28    8.01
   4   1 -12  106.31    8.27
   4   1 -11   14.52    2.57
   4   1 -11   11.60    2.79
   4   1 -10  622.52   41.75
   4   1 -10  688.95   42.29
   4   1 -10  640.62   42.30
   4   1  -9  304.01   19.76
  -4  -1   9  238.37   26.28
  -4  -1   9  288.06   29.24
   4   1  -9  229.37   27.53
   4   1  -9  291.81   19.84
  -4  -1   8   50.72    8.85
   4   1  -8   53.63    4.74
  -4  -1   8   39.29    8.40
  -4  -1   8   74.70   12.15
   4   1  -8   49.76   10.27
   4   1  -8   51.86    4.91
  -4  -1   7   63.94    9.55
   4   1  -7   59.28    4.71
  -4  -1   7   43.88    8.34
  -4  -1   7   47.56    9.69
   4   1  -7   48.15    9.98
   4   1  -7   47.41    4.70
   4   1  -7   55.32    4.73
  -4  -1   6  319.82   24.40
   4   1  -6  259.37   17.78
  -4  -1   6  272.60   25.37
   4   1  -6  278.42   25.40
   4   1  -6  252.92   17.89
   4   1  -6  281.97   18.01
  -4  -1   6  274.37   24.16
  -4  -1   5  771.04   56.48
  -4  -1   5  787.64   55.94
  -4  -1   5  797.83   56.32
  -4  -1   5  792.79   57.76
   4   1  -5  812.32   58.16
  -4  -1   4  690.66   53.05
  -4  -1   4  785.48   53.62
  -4  -1   4  756.32   53.55
   4   1  -4  746.33   48.10
   4   1  -4  866.57   55.98
  -4  -1   3  843.27   58.02
  -4  -1   3  828.96   58.03
  -4  -1   3  872.90   58.25
   4   1  -3  810.82   52.88
   4   1  -3  929.79   60.06
  -4  -1   2  164.01   15.75
  -4  -1   2  150.60   15.30
  -4  -1   2  186.55   16.52
  -4  -1   2  175.15   16.14
   4   1  -2  178.52   11.91
  -4  -1   1    3.54    2.66
  -4  -1   1    5.30    3.19
  -4  -1   1    3.92    3.19
  -4  -1   1    7.11    3.59
   4   1  -1    3.72    1.25
   4   1  -1    7.69    2.62
  -4  -1   0  206.80   18.86
   4   1   0  232.84   17.89
  -4  -1   0  190.52   18.48
  -4  -1   0  238.70   20.00
  -4  -1   0  248.45   19.45
   4   1   0  215.75   14.80
   4   1   0  241.66   17.59
  -4  -1  -1 1075.03   72.33
   4   1   1 1066.93   70.38
  -4  -1  -1 1116.57   73.02
   4   1   1 1040.63   66.73
   4   1   1 1047.30   69.96
  -4  -1  -2  946.29   68.49
   4   1   2  981.75   66.78
   4   1   2 1004.74   66.53
  -4  -1  -2  993.12   69.34
  -4  -1  -2 1014.88   69.11
  -4  -1  -3  237.38   15.77
   4   1   3  216.77   15.53
  -4  -1  -3  208.59   20.88
  -4  -1  -3  254.81   22.54
  -4  -1  -3  243.51   21.75
   4   1   3  250.37   19.17
   4   1   3  244.49   19.80
  -4  -1  -4   91.26    7.30
   4   1   4   93.75    7.23
  -4  -1  -4   92.40   12.62
  -4  -1  -4   97.98   13.20
  -4  -1  -4   85.76   12.21
   4   1   4  102.31   10.73
   4   1   5    3.12    1.85
  -4  -1  -5    2.34    1.55
  -4  -1  -5   10.24    2.61
  -4  -1  -5   -1.74    3.84
   4   1   5    1.12    3.04
  -4  -1  -5    3.17    3.78
   4   1   5    5.79    3.37
  -4  -1  -6  135.27   10.58
   4   1   6  143.56   10.50
  -4  -1  -6  166.19   11.23
  -4  -1  -6  117.81   17.29
   4   1   6  115.36   14.74
  -4  -1  -6  116.56   16.25
   4   1   6  139.09   14.83
  -4  -1  -7   25.63    3.55
   4   1   7   31.06    3.71
  -4  -1  -7   29.14    3.89
   4   1   7    9.55    4.85
  -4  -1  -7   19.37    7.41
  -4  -1  -7   13.39    5.92
   4   1   7   37.49    7.14
   4   1   8  310.08   18.96
  -4  -1  -8  275.94   19.25
  -4  -1  -9   47.83    5.40
   4   1   9   64.51    5.62
  -4  -1  -9   55.13    5.63
   4   1  10   28.65    3.42
  -4  -1 -10   35.79    4.06
   4   1  10   27.64    3.68
   4   1  11    1.26    1.47
  -4  -1 -11    0.25    1.65
   4   1  11    3.90    1.87
  -4  -1 -12   41.52    3.82
   4   1  12   40.12    3.58
   4   2 -15   22.23    2.25
   4   2 -15   19.35    2.50
   4   2 -14   25.31    3.34
   4   2 -14   23.11    2.71
   4   2 -13    3.67    2.48
   4   2 -13    2.60    1.72
   4   2 -13    2.82    1.84
   4   2 -12  147.32   11.14
   4   2 -12  142.72   10.70
   4   2 -12  161.79   11.47
   4   2 -11  322.75   21.99
   4   2 -10   12.64    3.01
   4   2 -10   17.98    3.15
  -4  -2   9   65.91   12.46
   4   2  -9   50.17   10.49
  -4  -2   9   39.08    9.26
  -4  -2   9   46.71    9.10
   4   2  -9   55.54    5.08
   4   2  -9   55.45    5.44
   4   2  -9   52.74    5.20
  -4  -2   8  107.63   16.00
   4   2  -8  107.82   15.84
  -4  -2   8  100.79   14.34
  -4  -2   8  111.50   14.39
   4   2  -8  131.66    9.26
   4   2  -8  131.63    9.71
   4   2  -8  125.45    9.32
   4   2  -8  119.66    9.33
  -4  -2   7  241.55   21.95
   4   2  -7  231.37   15.46
  -4  -2   7  183.71   20.80
  -4  -2   7  191.67   22.56
   4   2  -7  244.61   23.97
   4   2  -7  248.21   15.71
   4   2  -7  212.38   15.51
  -4  -2   6    1.24    2.72
  -4  -2   6   -1.24    2.24
   4   2  -6    0.34    1.21
  -4  -2   6    6.20    4.41
   4   2  -6    1.54    3.39
   4   2  -6    0.98    1.28
   4   2  -6   -0.18    1.32
  -4  -2   6   -1.25    2.74
  -4  -2   5 1105.79   75.37
  -4  -2   5 1081.35   75.31
  -4  -2   5 1100.93   75.15
   4   2  -5 1280.68   78.27
   4   2  -5 1065.08   68.99
  -4  -2   4   64.49    9.31
  -4  -2   4   82.88   10.11
  -4  -2   4   78.24    9.99
  -4  -2   4   68.24    9.88
   4   2  -4   76.68    6.06
   4   2  -4   90.70   10.24
  -4  -2   3   62.38    8.65
  -4  -2   3   68.94    8.69
   4   2  -3   76.24   10.45
  -4  -2   3   54.23    8.09
  -4  -2   3   67.98    9.26
   4   2  -3   59.89    5.00
   4   2  -3   63.97    8.40
   4   2  -2   57.79    8.07
  -4  -2   2   52.90    8.29
  -4  -2   2   52.18    7.87
   4   2  -2   61.02    4.83
  -4  -2   2   59.95    8.37
  -4  -2   2   60.74    8.10
   4   2  -1   16.98    3.77
   4   2  -1   18.71    5.16
  -4  -2   1   20.10    5.38
   4   2  -1   25.70    2.53
  -4  -2   1   13.23    4.50
   4   2   0  153.15   14.92
  -4  -2   0  162.55   15.74
   4   2   0  155.60   10.87
  -4  -2   0  172.90   16.01
   4   2   0  147.24   13.69
   4   2   1    2.81    2.93
  -4  -2  -1    3.36    3.35
   4   2   1    5.28    1.42
  -4  -2  -1    2.28    2.91
  -4  -2  -2  220.80   20.17
  -4  -2  -2  228.27   19.98
  -4  -2  -2  237.11   20.43
   4   2   2  200.92   13.96
   4   2   2  212.02   18.03
   4   2   2  199.48   13.94
   4   2   3    4.87    1.72
   4   2   3    2.48    1.40
   4   2   3    8.64    4.24
  -4  -2  -3    5.49    3.71
  -4  -2  -3    5.03    3.92
   4   2   4   67.50    5.53
  -4  -2  -4   60.87    5.51
   4   2   4   59.65    5.36
   4   2   4   65.03    9.33
  -4  -2  -4   73.21   11.10
   4   2   4   73.60    8.84
   4   2   5    4.89    2.07
  -4  -2  -5    6.75    1.95
   4   2   5    5.79    1.95
   4   2   5    3.63    3.63
  -4  -2  -5   11.84    5.06
   4   2   5    4.19    3.00
  -4  -2  -6  132.25   17.33
  -4  -2  -6  127.33   10.62
   4   2   6  156.78   10.74
  -4  -2  -6  153.94   11.24
   4   2   6  113.19   14.97
   4   2   6  145.45   10.53
   4   2   7   87.82    7.54
  -4  -2  -7   82.18    7.75
   4   2   7  104.23    7.99
  -4  -2  -8   75.04    7.10
   4   2   8   70.34    6.40
  -4  -2  -8   68.77    6.70
   4   2   8   91.69    6.91
  -4  -2  -9   76.10    7.15
   4   2   9   72.65    6.37
  -4  -2  -9   83.35    6.92
   4   2   9   84.83    6.81
  -4  -2 -10    0.58    2.02
   4   2  10    0.59    1.47
  -4  -2 -10    1.63    2.02
   4   2  10    2.74    2.02
  -4  -2 -11    1.36    1.60
  -4  -2 -11    2.40    1.63
   4   2  11    6.45    1.78
  -4  -2 -12   18.96    2.18
   4   3 -15   14.77    2.28
   4   3 -14   52.55    4.41
   4   3 -14   52.41    5.11
   4   3 -13   84.89    6.94
   4   3 -13   83.56    7.46
   4   3 -13   77.19    6.65
   4   3 -12   19.62    3.19
   4   3 -12   10.27    2.89
   4   3 -12   14.17    2.93
   4   3 -11  225.80   16.51
   4   3 -11  231.70   16.31
   4   3 -10    5.00    2.59
   4   3 -10    1.84    2.17
  -4  -3   9   44.44   10.76
   4   3  -9   59.34   11.53
  -4  -3   9   43.17    9.25
  -4  -3   9   75.79   11.40
   4   3  -9   52.95    9.55
   4   3  -9   61.76    5.46
   4   3  -9   59.53    5.90
   4   3  -9   66.21    5.59
  -4  -3   8    7.82    6.36
   4   3  -8    7.48    4.78
  -4  -3   8    6.10    3.91
  -4  -3   8    4.53    3.62
   4   3  -8    8.28    2.07
   4   3  -8    4.07    3.26
   4   3  -8    7.78    2.54
   4   3  -8   10.40    2.21
   4   3  -8    6.30    1.93
  -4  -3   7  224.54   22.75
  -4  -3   7  179.93   21.76
  -4  -3   7  259.02   23.42
   4   3  -7  262.09   17.12
   4   3  -7  239.10   16.58
   4   3  -7  253.01   16.88
  -4  -3   7  210.93   24.16
   4   3  -7  307.21   26.26
  -4  -3   6  166.55   20.05
  -4  -3   6  201.05   21.28
   4   3  -6  226.57   15.79
  -4  -3   6  251.82   24.10
   4   3  -6  274.83   24.23
   4   3  -6  253.44   16.17
  -4  -3   5  211.17   20.24
  -4  -3   5  228.53   21.09
   4   3  -5  175.80   18.83
   4   3  -5  221.15   14.68
   4   3  -5  220.50   21.53
  -4  -3   4  447.76   33.25
  -4  -3   4  401.79   33.19
   4   3  -4  431.80   27.52
  -4  -3   4  428.69   33.60
   4   3  -4  410.39   27.40
   4   3  -4  431.64   32.85
   4   3  -4  402.78   27.17
   4   3  -4  480.56   35.38
  -4  -3   3   10.26    4.19
   4   3  -3   14.99    4.12
  -4  -3   3    9.24    4.21
   4   3  -3   12.99    2.14
   4   3  -3   12.27    1.80
   4   3  -3   14.87    2.22
   4   3  -3   10.72    4.17
   4   3  -2   26.24    2.99
   4   3  -2   15.76    5.06
  -4  -3   2   26.50    5.98
   4   3  -2   25.83    2.83
  -4  -3   2   23.81    5.52
   4   3  -1    1.92    1.37
   4   3  -1    2.08    2.81
  -4  -3   1    6.91    4.02
  -4  -3   1    5.71    3.85
   4   3  -1    1.33    1.17
  -4  -3   0 1017.36   61.08
   4   3   0  933.21   53.80
  -4  -3   0  921.93   60.57
   4   3   0  805.57   53.47
   4   3   0  834.65   53.57
   4   3   0  878.48   53.72
   4   3   0  883.41   59.39
   4   3   0  778.60   53.46
   4   3   0  785.44   53.45
   4   3   0  858.87   53.49
   4   3   1   40.44    6.66
  -4  -3  -1   46.93    8.20
  -4  -3  -1   48.28    8.34
  -4  -3  -1   59.99    8.84
   4   3   1   44.48    4.13
   4   3   1   48.21    4.18
   4   3   1   63.51    8.60
   4   3   1   34.94    3.90
   4   3   1   42.34    4.04
   4   3   1   48.24    4.02
   4   3   1   48.79    4.07
   4   3   1   53.40    4.11
  -4  -3  -2   97.30   12.42
  -4  -3  -2  107.67   12.67
   4   3   2   89.26   10.59
   4   3   2   86.41    6.85
   4   3   2   92.21    6.91
   4   3   2   83.63    6.85
   4   3   2   93.18    6.93
   4   3   2   92.13    6.80
   4   3   2   81.57    6.76
   4   3   2   94.32    6.80
  -4  -3  -3   94.30   12.40
  -4  -3  -3  107.71   13.58
   4   3   3   82.00   10.63
   4   3   3   86.03    6.69
   4   3   3   87.72    6.81
   4   3   3   84.36    6.72
   4   3   3   86.00    6.76
   4   3   3   80.55    6.63
   4   3   3   87.99    6.73
  -4  -3  -4  104.65   14.26
  -4  -3  -4  101.93   13.70
   4   3   4   86.66   11.84
   4   3   4  109.49    8.18
   4   3   4  107.91    8.09
   4   3   4  112.94    8.11
   4   3   4   97.96    7.96
   4   3   5   80.95    6.47
   4   3   5   74.07    6.16
   4   3   5   71.99    6.21
   4   3   5   62.62   10.15
  -4  -3  -5   75.84   12.26
  -4  -3  -5   81.39   12.35
  -4  -3  -6  330.77   33.99
  -4  -3  -6  428.77   26.98
   4   3   6  349.56   32.21
  -4  -3  -6  329.70   26.16
   4   3   6  429.51   26.35
   4   3   6  397.55   26.14
   4   3   6  413.45   26.13
  -4  -3  -7  464.51   33.72
   4   3   7  546.14   33.66
   4   3   7  502.26   33.42
  -4  -3  -7  537.99   34.34
  -4  -3  -8   -0.30    1.87
   4   3   8    1.94    2.05
   4   3   8    1.83    1.77
  -4  -3  -8   -1.03    2.26
  -4  -3  -9   92.30    7.39
   4   3   9   92.86    7.11
   4   3   9   84.51    6.88
  -4  -3  -9   84.50    7.57
  -4  -3 -10   96.54    7.58
   4   3  10  100.89    7.32
  -4  -3 -10   91.07    7.74
  -4  -3 -11   97.77    6.82
   4   3  11   94.44    6.51
   4   3  11   78.69    6.39
   4   4 -15   88.56    6.88
   4   4 -14    5.63    2.09
   4   4 -14    1.81    1.64
   4   4 -13  313.83   20.11
   4   4 -13  264.55   19.91
   4   4 -13  301.84   20.39
   4   4 -13  289.66   19.78
   4   4 -12   68.65    6.37
   4   4 -12   67.16    6.56
   4   4 -12   74.46    6.84
   4   4 -12   66.49    6.19
   4   4 -11  415.54   25.33
   4   4 -11  341.70   25.17
   4   4 -11  354.72   24.83
   4   4 -10   29.24    4.30
   4   4 -10   26.29    3.70
  -4  -4   9   19.33    7.77
   4   4  -9    3.98    4.45
   4   4  -9   14.47    2.68
   4   4  -9   12.28    4.84
  -4  -4   9   17.08    5.80
   4   4  -9    9.91    3.07
   4   4  -9   12.28    2.63
  -4  -4   8   82.29   13.54
   4   4  -8   73.69   12.09
   4   4  -8   64.81    5.61
   4   4  -8   49.89    9.28
  -4  -4   8   48.85    9.99
  -4  -4   8   63.14   10.71
   4   4  -8   61.53    5.97
   4   4  -8   72.79    6.35
   4   4  -8   74.31    6.04
  -4  -4   7   98.01   13.43
   4   4  -7  110.39    8.43
   4   4  -7  129.71   14.02
  -4  -4   7  104.05   15.43
   4   4  -7   90.26   13.80
   4   4  -7  117.57    8.33
  -4  -4   6  821.44   70.42
  -4  -4   6  879.71   71.36
   4   4  -6 1025.70   70.81
   4   4  -6 1070.93   64.82
   4   4  -6 1000.09   64.48
  -4  -4   6 1016.55   74.13
   4   4  -6 1127.98   73.96
   4   4  -5  274.38   23.01
  -4  -4   5  177.20   19.31
  -4  -4   5  177.46   19.94
   4   4  -5  214.55   14.81
  -4  -4   5  225.24   21.32
   4   4  -5  211.70   19.46
   4   4  -5  230.39   14.88
   4   4  -5  202.95   14.69
   4   4  -5  172.65   19.19
   4   4  -5  222.27   14.88
   4   4  -5  204.61   14.51
  -4  -4   4  103.59   12.72
  -4  -4   4   67.58   10.17
   4   4  -4   84.55    7.00
  -4  -4   4   92.93   12.27
   4   4  -4   77.93   10.26
   4   4  -4   85.28    6.94
   4   4  -4   93.65    6.99
   4   4  -4   85.87   11.34
   4   4  -4   87.66    6.97
   4   4  -4   90.93    6.71
   4   4  -3   78.16    6.59
  -4  -4   3   96.52   12.31
   4   4  -3   91.78    7.12
  -4  -4   3   99.63   12.40
   4   4  -3  104.97   11.08
   4   4  -3   83.21    6.73
   4   4  -3   98.31    7.11
   4   4  -3   87.37   11.23
   4   4  -3   92.70    7.06
   4   4  -3   93.23    6.77
   4   4  -2  198.23   14.25
   4   4  -2  188.69   14.15
  -4  -4   2  234.32   20.68
   4   4  -2  217.30   14.60
  -4  -4   2  251.39   21.25
   4   4  -2  196.35   14.32
   4   4  -2  203.02   14.25
   4   4  -2  211.66   14.54
   4   4  -2  197.70   19.54
   4   4  -2  235.03   14.67
   4   4  -2  235.08   14.38
   4   4  -1  933.57   65.78
   4   4  -1  971.37   65.78
  -4  -4   1 1250.75   73.83
   4   4  -1 1105.09   66.21
  -4  -4   1 1228.41   74.14
   4   4  -1 1012.66   65.83
   4   4  -1 1027.66   65.95
   4   4  -1 1026.96   66.07
   4   4  -1  979.23   71.57
   4   4  -1 1122.68   66.15
   4   4  -1 1063.68   65.86
   4   4  -1 1061.99   65.79
   4   4   0  563.77   38.91
   4   4   0  578.55   38.97
   4   4   0  641.83   39.26
  -4  -4   0  705.68   47.02
   4   4   0  600.99   39.08
   4   4   0  602.90   38.95
   4   4   0  612.94   39.16
   4   4   0  630.07   45.16
   4   4   0  619.58   39.14
   4   4   0  604.50   38.97
   4   4   0  611.14   38.91
  -4  -4  -1  388.17   30.60
  -4  -4  -1  348.65   29.40
   4   4   1  353.20   22.90
   4   4   1  338.94   22.93
   4   4   1  331.34   22.87
   4   4   1  327.38   22.82
   4   4   1  358.23   22.89
   4   4   1  346.57   22.90
   4   4   1  356.95   22.84
  -4  -4  -2   94.10   12.91
  -4  -4  -2   80.79   12.08
   4   4   2   86.30   10.80
   4   4   2   93.11    7.03
   4   4   2   89.58    7.06
   4   4   2   84.15    6.92
   4   4   2   96.08    7.08
   4   4   2   86.53    6.94
   4   4   2   88.42    7.02
   4   4   2   91.33    7.08
   4   4   2   90.65    6.94
  -4  -4  -3  124.11   15.48
  -4  -4  -3  104.33   14.67
   4   4   3  109.71   13.39
   4   4   3  130.61    9.18
   4   4   3  119.37    9.02
   4   4   3  123.70    9.02
   4   4   3  120.12    9.02
   4   4   3  116.25    8.93
   4   4   3  127.22    9.14
   4   4   3  113.47    8.99
  -4  -4  -4   34.38    8.30
  -4  -4  -4   33.12    8.16
   4   4   4   43.88    8.04
   4   4   4   48.70    4.45
   4   4   4   45.41    4.23
   4   4   4   39.85    4.17
   4   4   4   39.08    4.14
   4   4   4   38.05    4.15
  -4  -4  -5  529.20   47.11
  -4  -4  -5  560.90   47.48
   4   4   5  502.28   44.79
   4   4   5  645.71   38.97
   4   4   5  607.77   38.91
   4   4   5  585.51   38.97
   4   4   5  548.36   38.90
   4   4   5  645.73   39.08
  -4  -4  -6  128.20   10.22
   4   4   6  123.10    9.49
   4   4   6  129.69    9.70
   4   4   6  130.25    9.69
   4   4   7   98.03    7.75
   4   4   7   94.82    7.57
  -4  -4  -7  100.68    8.47
   4   4   8   47.55    4.38
   4   4   8   39.21    4.07
  -4  -4  -8   45.86    4.91
  -4  -4  -9    5.76    2.06
   4   4   9    4.73    1.78
   4   4   9    2.18    1.41
  -4  -4 -10    1.12    1.21
   4   4  10    2.75    1.33
   4   4  10    3.43    1.25
   4   5 -15  103.26    7.65
   4   5 -14  166.92   11.73
   4   5 -14  161.74   11.88
   4   5 -13   46.34    4.61
   4   5 -13   37.75    4.46
   4   5 -13   40.84    4.58
   4   5 -12  318.70   22.10
   4   5 -12  358.63   22.56
   4   5 -12  301.62   22.45
   4   5 -12  333.04   22.62
   4   5 -11   25.56    3.73
   4   5 -11   34.97    4.33
   4   5 -11   33.34    4.57
   4   5 -10   40.55    4.75
   4   5 -10   47.15    4.79
   4   5 -10   43.55    5.12
   4   5 -10   43.02    4.54
   4   5  -9   37.81    4.23
  -4  -5   9   37.29    8.64
   4   5  -9   43.14    4.87
   4   5  -9   51.42    4.84
   4   5  -9   46.55    5.15
   4   5  -9   40.40    4.69
   4   5  -8  183.54   20.25
  -4  -5   8  131.61   19.44
  -4  -5   8  149.17   19.74
   4   5  -8  193.24   14.56
   4   5  -8  222.54   14.38
   4   5  -8  214.94   14.77
   4   5  -8  205.36   14.43
   4   5  -7  249.94   24.78
  -4  -5   7  168.43   22.06
  -4  -5   7  178.87   21.95
   4   5  -7  256.04   23.35
   4   5  -7  235.06   16.97
   4   5  -7  287.63   17.31
   4   5  -7  236.70   16.78
  -4  -5   6   11.68    4.84
  -4  -5   6   17.85    6.44
  -4  -5   6   21.90    6.53
   4   5  -6   19.68    5.75
   4   5  -6   17.40    2.93
   4   5  -6   13.93    2.47
   4   5  -6   17.44    6.46
   4   5  -5   17.75    2.83
  -4  -5   5   22.97    6.69
  -4  -5   5   23.89    6.24
   4   5  -5    8.53    4.37
   4   5  -5   20.80    3.01
   4   5  -5   17.89    2.74
   4   5  -5   31.16    6.82
   4   5  -5   19.27    2.90
   4   5  -5   16.39    2.43
   4   5  -5   11.98    2.15
  -4  -5   4   43.50    8.60
   4   5  -4   38.72    4.18
  -4  -5   4   40.34    8.25
   4   5  -4   38.76    7.08
   4   5  -4   45.26    4.15
   4   5  -4   41.69    4.17
   4   5  -4   29.06    7.13
   4   5  -4   39.66    4.15
   4   5  -4   36.56    3.70
   4   5  -4   36.17    3.75
   4   5  -3  154.98   12.14
   4   5  -3  169.17   12.18
  -4  -5   3  185.32   18.86
   4   5  -3  182.95   12.74
  -4  -5   3  198.86   19.36
   4   5  -3  162.62   12.29
   4   5  -3  185.85   12.43
   4   5  -3  177.66   12.58
   4   5  -3  168.11   18.00
   4   5  -3  187.22   12.64
   4   5  -3  182.96   12.26
   4   5  -2   60.36    5.41
   4   5  -2   58.77    5.30
  -4  -5   2   73.22   10.82
   4   5  -2   78.08    5.99
  -4  -5   2   71.65   10.60
   4   5  -2   66.35    5.52
   4   5  -2   58.06    5.49
   4   5  -2   70.98    5.82
   4   5  -2   49.43    9.19
   4   5  -2   72.01    5.78
   4   5  -2   65.31    5.41
   4   5  -2   66.83    5.35
   4   5  -1 1170.19   76.51
   4   5  -1 1197.96   76.48
   4   5  -1 1263.25   76.93
  -4  -5   1 1570.28   86.65
   4   5  -1 1170.02   76.61
   4   5  -1 1265.00   76.54
   4   5  -1 1235.50   76.79
   4   5  -1 1142.28   83.15
   4   5  -1 1190.14   76.71
   4   5  -1 1170.99   76.46
   4   5  -1 1168.02   76.40
   4   5   0   12.37    2.33
  -4  -5   0   13.17    4.97
  -4  -5   0   11.13    5.05
   4   5   0   10.92    2.32
   4   5   0    8.84    2.14
   4   5   0   13.34    2.44
   4   5   0    1.32    2.98
   4   5   0   13.86    2.25
   4   5   0    9.02    2.10
   4   5   0   11.96    2.18
   4   5   0    8.15    2.02
   4   5   0   10.79    2.04
  -4  -5  -1    5.81    3.93
  -4  -5  -1    1.53    3.37
  -4  -5  -1    2.96    4.00
   4   5   1    0.44    1.68
   4   5   1    3.84    1.69
   4   5   1    5.20    1.86
   4   5   1    1.80    1.67
   4   5   1    4.34    1.77
   4   5   1    4.48    1.86
   4   5   1    4.05    1.82
  -4  -5  -2   17.66    5.82
  -4  -5  -2   14.18    5.35
   4   5   2   10.98    2.28
   4   5   2   11.09    2.38
   4   5   2   10.18    2.27
   4   5   2   11.43    2.35
   4   5   2   14.49    2.50
   4   5   2    9.19    2.20
   4   5   2    9.17    2.16
   4   5   2   12.00    2.34
   4   5   3   82.53    7.13
   4   5   3   89.61    7.31
   4   5   3   88.12    7.28
   4   5   3   84.54    7.07
  -4  -5  -3   82.25   12.70
  -4  -5  -3  101.87   13.76
   4   5   3   77.13   11.24
   4   5   3  103.44    7.39
   4   5   3   80.76    7.08
   4   5   3   91.96    7.18
   4   5   3  105.13    7.38
   4   5   4   63.75    5.98
   4   5   4   79.88    6.34
   4   5   4   75.94    6.33
  -4  -5  -4   61.28   11.56
   4   5   4   73.20    6.08
   4   5   4   74.74    6.07
   4   5   4   70.84    6.02
   4   5   4   70.21    6.10
   4   5   5   44.28    4.13
   4   5   5   35.38    3.89
  -4  -5  -5   40.32    4.69
   4   5   5   37.30    4.05
   4   5   5   45.04    4.46
   4   5   5   34.94    4.20
   4   5   5   36.78    4.16
   4   5   6   78.77    6.64
   4   5   6   81.94    6.78
   4   5   6   91.88    6.89
   4   5   6   75.21    6.78
   4   5   6   76.59    6.85
  -4  -5  -6   95.55    7.60
   4   5   7    7.73    2.19
   4   5   7   11.31    2.29
   4   5   7   10.03    2.34
  -4  -5  -7   10.20    2.69
   4   5   8    2.31    1.59
  -4  -5  -8    3.82    2.02
   4   5   8    2.03    1.52
  -4  -5  -9   21.92    2.77
   4   5   9   18.06    2.33
   4   5  10   16.87    1.87
   4   6 -14   64.87    5.55
   4   6 -14   69.18    5.65
   4   6 -13   51.12    4.97
   4   6 -12    8.01    2.50
   4   6 -12   11.65    2.95
   4   6 -11    8.94    2.77
   4   6 -11    7.27    2.86
   4   6 -10   29.17    4.23
   4   6 -10   30.80    3.79
   4   6 -10   40.74    4.28
   4   6 -10   37.40    4.61
   4   6 -10   28.15    4.02
   4   6  -9  484.38   29.80
   4   6  -9  467.19   30.10
   4   6  -9  428.10   29.84
   4   6  -9  404.85   29.82
  -4  -6   8   15.08    6.18
  -4  -6   8    5.21    3.93
   4   6  -8   16.72    3.30
   4   6  -8   17.24    3.19
   4   6  -8   14.78    3.09
  -4  -6   7  310.40   29.26
  -4  -6   7  252.51   27.01
  -4  -6   7  269.75   28.22
   4   6  -7  225.25   25.87
   4   6  -7  294.94   20.93
   4   6  -7  353.48   21.14
   4   6  -7  302.91   20.79
  -4  -6   6  104.51   14.37
   4   6  -6   90.56    8.01
  -4  -6   6  111.83   14.92
   4   6  -6   89.49   12.59
   4   6  -6  104.82    8.06
   4   6  -6   86.03    7.81
   4   6  -6   98.19    7.70
  -4  -6   5   82.57   12.72
   4   6  -5   90.82    7.60
  -4  -6   5   88.38   13.44
   4   6  -5   67.15   10.88
   4   6  -5   87.54    7.38
   4   6  -5   58.21   10.97
   4   6  -5   96.09    7.44
   4   6  -5   86.36    7.52
   4   6  -5   90.04    7.06
   4   6  -5   92.40    7.18
  -4  -6   4   39.85    8.63
   4   6  -4   39.69    4.52
  -4  -6   4   43.69    8.88
   4   6  -4   33.60    7.21
   4   6  -4   38.87    4.20
   4   6  -4   45.97    4.27
   4   6  -4   46.45    4.60
   4   6  -4   32.47    7.63
   4   6  -4   39.66    4.41
   4   6  -4   35.44    3.91
   4   6  -4   38.93    3.95
   4   6  -4   34.69    3.80
   4   6  -3   65.07    5.54
   4   6  -3   65.05    5.39
   4   6  -3   72.86    6.14
  -4  -6   3   93.49   12.40
   4   6  -3   52.13    5.46
   4   6  -3   73.96    5.95
   4   6  -3   57.79   10.06
   4   6  -3   47.73    5.46
   4   6  -3   62.22    5.31
   4   6  -2  219.11   15.75
   4   6  -2  220.11   15.63
   4   6  -2  226.31   16.23
  -4  -6   2  271.53   23.86
   4   6  -2  247.59   15.83
   4   6  -2  216.82   15.85
   4   6  -2  223.21   16.06
   4   6  -2  193.51   21.68
   4   6  -2  213.44   15.92
   4   6  -2  251.26   15.82
   4   6  -2  233.08   15.66
   4   6  -1  119.45    8.96
   4   6  -1  126.77    8.93
   4   6  -1  112.86    9.22
  -4  -6   1  135.25   15.84
  -4  -6   1  109.63   14.34
   4   6  -1  122.17    8.98
   4   6  -1  111.21    9.05
   4   6  -1  124.25    9.22
   4   6  -1   80.13   13.03
   4   6  -1  109.93    9.04
   4   6  -1  119.20    8.93
   4   6  -1  121.09    8.90
  -4  -6   0  101.43   14.27
   4   6   0   86.56    8.56
  -4  -6   0  146.14   16.00
  -4  -6   0  102.92   14.08
   4   6   0  120.00    8.56
   4   6   0  104.26    8.64
   4   6   0  114.24    8.73
   4   6   0  102.79   13.57
   4   6   0  119.07    8.63
   4   6   0  118.30    8.51
   4   6   0  120.72    8.61
   4   6   0  113.11    8.58
   4   6   0  105.02    8.41
  -4  -6  -1    4.85    4.12
  -4  -6  -1    6.37    4.54
  -4  -6  -1    1.61    4.36
   4   6   1    2.91    1.95
   4   6   1    5.14    2.08
   4   6   1    3.17    1.90
   4   6   1    0.99    1.74
   4   6   1    4.57    2.00
   4   6   1    4.33    1.87
   4   6   1    1.21    1.91
   4   6   2    2.09    1.81
   4   6   2    1.69    1.92
  -4  -6  -2    1.67    3.68
  -4  -6  -2    1.65    3.65
   4   6   2    2.64    1.69
   4   6   2    0.25    1.97
   4   6   2    4.60    2.02
   4   6   2    0.49    1.85
   4   6   2    2.50    1.96
   4   6   2    0.25    1.96
   4   6   3   43.10    4.91
   4   6   3   55.34    5.14
   4   6   3   48.13    5.15
   4   6   3   56.08    5.06
   4   6   3   53.88    4.95
   4   6   3   53.14    4.95
   4   6   3   52.82    4.89
   4   6   3   58.94    5.07
   4   6   4  210.10   14.77
   4   6   4  215.04   14.82
  -4  -6  -4  213.20   15.29
   4   6   4  225.09   15.00
   4   6   4  199.26   14.87
   4   6   4  218.34   15.10
   4   6   4  218.64   15.16
   4   6   4  206.05   14.74
   4   6   5    6.22    2.02
   4   6   5   10.16    2.38
  -4  -6  -5   10.34    2.63
   4   6   5    4.84    2.06
   4   6   5    8.95    2.31
   4   6   5    8.74    2.57
   4   6   5    8.78    2.16
  -4  -6  -6   54.83    5.50
   4   6   6   54.96    5.20
   4   6   6   60.22    5.12
  -4  -6  -7   38.10    4.18
   4   6   7   43.48    4.00
   4   6   7   36.32    3.77
  -4  -6  -8    1.30    1.50
   4   6   8    0.66    1.12
   4   6   8    0.16    1.29
   4   6   9   20.99    2.16
   4   7 -14   19.13    2.43
   4   7 -13   26.82    3.27
   4   7 -12    2.12    1.94
   4   7 -12    7.18    2.46
   4   7 -11   43.80    4.77
   4   7 -11   36.44    4.52
   4   7 -11   43.04    4.59
   4   7 -11   44.17    4.75
   4   7 -10    7.55    2.68
   4   7 -10    3.04    2.36
   4   7 -10    6.21    2.26
   4   7 -10    5.96    2.62
   4   7  -9  206.84   15.02
   4   7  -9  205.45   14.92
   4   7  -9  199.39   14.76
   4   7  -8   62.37    5.80
   4   7  -8   45.21    5.26
   4   7  -7  207.74   14.94
   4   7  -7  201.54   14.69
  -4  -7   6  306.86   27.81
   4   7  -6  256.65   19.15
  -4  -7   6  329.86   28.25
   4   7  -6  233.69   24.96
   4   7  -6  280.07   19.06
   4   7  -6  287.68   19.10
   4   7  -6  261.80   19.10
   4   7  -6  268.42   18.85
   4   7  -5  237.51   17.70
  -4  -7   5  305.33   26.56
   4   7  -5  167.25   21.68
   4   7  -5  255.94   17.53
   4   7  -5  203.35   23.60
   4   7  -5  263.46   17.41
   4   7  -5  248.57   17.60
   4   7  -5  243.11   17.15
   4   7  -5  257.38   17.18
   4   7  -4   32.30    4.40
  -4  -7   4   32.95    8.21
   4   7  -4   30.26    3.85
   4   7  -4   27.05    3.91
   4   7  -4   23.65    6.73
   4   7  -4   40.06    4.45
   4   7  -4   29.76    3.74
   4   7  -4   29.20    3.52
   4   7  -3  499.04   30.55
   4   7  -3  503.78   30.48
   4   7  -3  398.04   30.79
  -4  -7   3  521.35   39.79
   4   7  -3  472.59   30.67
   4   7  -3  430.55   30.66
   4   7  -3  383.14   37.25
   4   7  -3  433.65   30.75
   4   7  -3  482.66   30.42
   4   7  -2  534.87   33.27
   4   7  -2  561.12   33.21
   4   7  -2  478.96   33.67
  -4  -7   2  567.62   42.84
  -4  -7   2  486.12   40.44
   4   7  -2  526.77   33.42
   4   7  -2  487.65   33.39
   4   7  -2  375.70   39.40
   4   7  -2  450.22   33.30
   4   7  -2  547.93   33.21
   4   7  -2  472.89   32.98
   4   7  -1   55.36    5.30
   4   7  -1   62.92    5.29
  -4  -7   1   46.26    9.51
   4   7  -1   47.47    5.57
  -4  -7   1   66.02   10.86
  -4  -7   1   59.74   10.21
   4   7  -1   67.59    5.46
   4   7  -1   52.38    5.48
   4   7  -1   58.53    5.63
   4   7  -1   40.31    8.85
   4   7  -1   70.00    5.35
   4   7  -1   55.47    5.54
   4   7  -1   60.77    5.37
   4   7  -1   52.62    5.18
   4   7   0    3.47    2.01
   4   7   0    3.47    1.88
   4   7   0    1.28    1.76
  -4  -7   0    3.38    4.30
  -4  -7   0   -1.59    3.51
   4   7   0    1.68    1.92
   4   7   0    5.72    1.83
   4   7   0    1.91    2.23
   4   7   0    4.07    2.01
   4   7   0    2.26    1.77
   4   7   0    3.28    2.04
   4   7   1   56.25    4.89
   4   7   1   44.63    4.89
   4   7   1   51.25    4.74
   4   7   1   54.89    4.96
   4   7   1   55.95    4.86
   4   7   1   43.02    4.83
   4   7   1   46.47    4.80
   4   7   1   44.57    4.81
   4   7   2  218.13   14.72
   4   7   2  193.16   14.74
   4   7   2  219.89   14.82
   4   7   2  204.57   14.72
   4   7   2  212.47   14.68
   4   7   2  214.20   14.97
   4   7   2  225.49   15.03
   4   7   2  201.18   14.80
   4   7   3  136.52   10.03
   4   7   3  144.38   10.45
   4   7   3  138.07   10.38
   4   7   3  125.69   10.12
   4   7   3  141.49   10.14
   4   7   3  138.88   10.06
   4   7   3  138.46   10.19
   4   7   4  127.73    9.70
   4   7   4  128.37    9.84
   4   7   4  139.30    9.99
   4   7   5  235.97   15.20
   4   7   5  198.38   15.05
   4   7   5  225.72   15.27
   4   7   6   13.80    2.13
   4   7   6   10.55    2.17
   4   7   7    1.77    1.17
   4   7   7    0.99    1.39
   4   7   8    2.66    0.97
   4   7   8    4.02    1.18
   4   8 -13   28.57    3.16
   4   8 -12    2.60    1.91
   4   8 -12    3.68    1.84
   4   8 -11   98.08    7.89
   4   8 -11   93.53    7.80
   4   8 -11   90.42    7.59
   4   8 -11   98.62    7.77
   4   8 -10  164.04   13.13
   4   8 -10  195.68   13.39
   4   8  -9   43.72    5.11
   4   8  -9   46.19    5.19
   4   8  -8  125.89   10.18
   4   8  -8  135.44   10.46
   4   8  -7   62.48    6.12
   4   8  -7   62.50    6.16
   4   8  -7   67.50    6.36
   4   8  -6   26.82    3.65
   4   8  -6   18.11    3.31
   4   8  -6   29.77    4.12
   4   8  -6   20.67    3.39
   4   8  -5   19.20    3.49
   4   8  -5   21.44    3.22
   4   8  -5   18.06    3.11
   4   8  -5   19.30    3.54
   4   8  -5   23.15    3.46
   4   8  -4  240.78   15.72
   4   8  -4  203.71   15.90
   4   8  -4  210.76   15.64
   4   8  -4  196.52   15.63
   4   8  -4  223.42   15.24
   4   8  -4  229.94   15.46
   4   8  -3   29.27    3.73
   4   8  -3   27.58    3.61
   4   8  -3   31.97    4.10
   4   8  -3   24.32    4.12
   4   8  -3   34.40    4.16
   4   8  -3   23.41    3.87
   4   8  -3   28.31    3.40
   4   8  -3   27.95    3.39
   4   8  -2  171.92   11.37
   4   8  -2  135.04   11.09
   4   8  -2  149.60   11.58
   4   8  -2  153.30   11.64
   4   8  -2  168.31   11.26
   4   8  -2  138.40   11.56
   4   8  -2  159.00   11.36
   4   8  -2  156.44   11.33
   4   8  -1   13.82    2.46
   4   8  -1   11.97    2.67
   4   8  -1    9.10    2.56
   4   8  -1   10.05    2.62
   4   8  -1   13.51    2.32
   4   8  -1   13.30    2.63
   4   8  -1   13.11    2.60
   4   8  -1   11.25    2.84
   4   8   0   12.74    2.56
   4   8   0    9.81    2.69
   4   8   0   15.80    2.50
   4   8   0   13.89    2.52
   4   8   0   12.77    2.57
   4   8   0    6.82    2.55
   4   8   0   13.14    2.64
   4   8   1   44.23    4.41
   4   8   1   42.49    4.51
   4   8   1   42.81    4.25
   4   8   1   38.27    4.15
   4   8   1   42.88    4.39
   4   8   1   36.13    4.35
   4   8   2    3.75    2.18
   4   8   2    2.45    1.95
   4   8   2    3.20    2.21
   4   8   2    3.75    1.90
   4   8   2    2.25    1.76
   4   8   2    3.55    1.79
   4   8   3  357.27   23.19
   4   8   3  374.19   23.38
   4   8   3  349.02   23.25
   4   8   3  315.92   23.05
   4   8   4   94.73    7.44
   4   8   4  101.44    7.66
   4   8   4   98.18    7.65
   4   8   5   26.71    2.89
   4   8   5   24.85    2.99
   4   8   6    1.79    1.16
   4   8   6    2.50    1.37
   4   8   7   21.98    2.14
   4   8   7   21.82    2.20
   4   9 -12  105.31    7.35
   4   9 -12   83.84    6.95
   4   9 -11    3.91    2.09
   4   9 -10  157.50   11.72
   4   9  -9    7.93    2.67
   4   9  -9   13.09    2.95
   4   9  -8   16.54    3.27
   4   9  -8   16.86    3.16
   4   9  -7    0.88    2.20
   4   9  -7    1.39    2.04
   4   9  -7    2.95    2.50
   4   9  -6   62.16    5.76
   4   9  -6   59.88    5.65
   4   9  -6   60.98    6.14
   4   9  -6   56.77    5.68
   4   9  -5  318.51   21.53
   4   9  -5  308.99   21.22
   4   9  -5  304.14   20.87
   4   9  -5  308.43   21.62
   4   9  -5  317.13   21.16
   4   9  -4    1.84    2.33
   4   9  -4    0.85    2.37
   4   9  -4    1.00    2.45
   4   9  -4    0.70    1.56
   4   9  -4    0.50    2.16
   4   9  -3   23.87    3.49
   4   9  -3   23.39    3.67
   4   9  -3   25.21    3.77
   4   9  -3   17.32    2.72
   4   9  -3   18.80    3.10
   4   9  -3   17.71    3.34
   4   9  -2    0.97    1.96
   4   9  -2    0.59    2.07
   4   9  -2   -1.11    2.57
   4   9  -2   -0.31    2.24
   4   9  -2    1.41    1.69
   4   9  -2    1.10    1.85
   4   9  -2    2.69    2.04
   4   9  -1   31.25    3.67
   4   9  -1   27.77    3.72
   4   9  -1   31.12    3.83
   4   9  -1   35.94    3.69
   4   9  -1   32.05    3.62
   4   9  -1   36.15    3.91
   4   9  -1   33.32    4.09
   4   9   0  104.88    8.57
   4   9   0  114.73    8.84
   4   9   0  120.12    8.70
   4   9   0  119.22    8.78
   4   9   0  109.74    8.55
   4   9   0  120.26    8.96
   4   9   1    1.11    1.67
   4   9   1    1.64    1.95
   4   9   1    2.86    1.79
   4   9   1    3.72    1.73
   4   9   1    3.46    1.96
   4   9   2  127.67    9.49
   4   9   2  122.71    9.50
   4   9   2  138.36    9.53
   4   9   3   27.15    3.09
   4   9   3   26.05    2.91
   4   9   4   72.36    5.77
   4   9   4   75.54    5.68
   4   9   5    7.92    1.55
   4   9   5    8.35    1.47
   4  10 -12   15.48    2.08
   4  10 -11   35.18    3.59
   4  10 -10   19.58    2.89
   4  10  -9   11.64    2.59
   4  10  -8    2.74    2.00
   4  10  -7   11.94    2.73
   4  10  -7   11.41    2.47
   4  10  -6   11.22    2.92
   4  10  -6    5.12    1.72
   4  10  -6    4.81    2.03
   4  10  -6    3.84    2.09
   4  10  -5  141.75   10.37
   4  10  -5  147.15   11.13
   4  10  -5  140.90   10.85
   4  10  -5  150.69   10.82
   4  10  -4   53.41    4.68
   4  10  -4   54.76    5.45
   4  10  -4   48.78    5.10
   4  10  -4   51.97    5.16
   4  10  -3   24.75    3.51
   4  10  -3   22.20    3.50
   4  10  -3   25.41    3.61
   4  10  -3   22.03    2.95
   4  10  -3   30.43    3.43
   4  10  -2   63.76    5.69
   4  10  -2   61.73    5.90
   4  10  -2   69.18    6.09
   4  10  -2   69.44    5.70
   4  10  -2   70.93    6.18
   4  10  -2   74.67    5.90
   4  10  -1   96.03    7.67
   4  10  -1  100.83    7.82
   4  10  -1   96.43    7.51
   4  10  -1  105.40    7.72
   4  10  -1   97.55    7.90
   4  10   0  150.57   11.11
   4  10   0  149.15   10.97
   4  10   0  162.52   11.09
   4  10   0  163.64   11.23
   4  10   1    6.12    1.62
   4  10   1    3.27    1.45
   4  10   1    6.33    1.99
   4  10   2  261.41   16.98
   4  10   2  249.24   16.92
   4  10   3   40.46    3.35
   4  10   3   35.94    3.29
   4  10   4   23.89    2.15
   4  10   4   18.96    2.05
   4  11 -10    6.67    1.62
   4  11  -9    0.72    1.39
   4  11  -8   19.50    2.70
   4  11  -7   45.15    3.97
   4  11  -7   46.98    4.63
   4  11  -6   52.10    5.16
   4  11  -6   66.45    5.05
   4  11  -6   67.40    5.73
   4  11  -5   23.62    3.12
   4  11  -5   24.71    3.46
   4  11  -5   22.53    2.74
   4  11  -4   75.24    6.36
   4  11  -4   76.71    6.32
   4  11  -4   80.01    6.00
   4  11  -4   72.32    6.46
   4  11  -3   14.45    2.35
   4  11  -3   14.21    2.47
   4  11  -3   11.32    1.92
   4  11  -3   11.13    2.32
   4  11  -2    1.18    1.18
   4  11  -2    0.95    1.72
   4  11  -1    0.16    1.06
   4  11  -1    1.73    1.54
   4  11   0  176.21   11.94
   4  11   1   27.02    2.57
   4  11   2   79.75    5.69
   4  12  -7    2.64    1.35
   4  12  -6  113.53    8.34
   4  12  -6  136.14    8.93
   4  12  -5    5.28    1.17
   4  12  -5    4.79    1.57
   4  12  -5    3.08    1.46
   4  12  -4    8.68    1.40
   4  12  -4    7.30    1.71
   4  12  -4    7.93    1.71
   4  12  -3    1.95    0.96
   4  12  -3    1.54    1.32
   4  12  -2    9.85    1.37
   4  12  -2    5.96    1.48
  -5  12   0   12.96    1.58
   5 -12   0   10.34    1.51
  -5  12  -1   94.32    6.59
  -5  12  -1  101.05    6.65
   5 -12   1   82.45    6.43
  -5  12  -2   37.64    3.23
  -5  12  -2   34.87    3.19
  -5  12  -3    1.97    1.19
  -5  12  -3   -0.39    1.04
   5 -12   4    9.02    1.53
  -5  12  -4   12.59    1.71
  -5  12  -4   11.84    1.59
   5 -12   5   43.74    3.57
  -5  11   4   -0.11    0.90
  -5  11   3   67.92    5.22
   5 -11  -3   68.55    5.05
  -5  11   2   36.08    3.30
   5 -11  -2   32.35    3.07
  -5  11   1   28.26    2.99
   5 -11  -1   27.93    2.85
  -5  11   0   79.05    6.34
  -5  11   0   87.01    6.49
  -5  11   0   85.56    6.44
   5 -11   0   86.69    6.38
  -5  11  -1    1.75    1.36
  -5  11  -1    1.05    1.40
   5 -11   2   -0.17    1.35
  -5  11  -2    0.72    1.40
  -5  11  -2   -1.62    1.52
   5 -11   3   -0.18    1.43
  -5  11  -3    2.16    1.50
  -5  11  -3    1.07    1.40
   5 -11   4   94.30    7.29
  -5  11  -4   98.40    7.32
  -5  11  -4  101.92    7.39
  -5  11  -5    9.80    2.01
  -5  11  -6   80.25    6.49
  -5  11  -6   77.68    6.24
  -5  11  -7    5.58    1.38
  -5  10   6   50.68    4.04
  -5  10   5    5.66    1.46
  -5  10   5    8.75    1.75
   5 -10  -5    6.76    1.42
  -5  10   4   11.61    2.09
  -5  10   4   11.31    2.01
   5 -10  -4   10.44    1.80
  -5  10   3   25.38    2.99
   5 -10  -3   22.84    2.78
  -5  10   2  171.84   12.59
   5 -10  -2  188.75   12.56
  -5  10   1   -1.48    1.76
  -5  10   1    0.19    1.48
  -5  10   1    1.15    1.46
   5 -10  -1    1.11    1.60
  -5  10   0  120.75    8.80
  -5  10   0  119.19    8.76
  -5  10   0  112.67    8.76
   5 -10   1   17.15    2.56
  -5  10  -1   13.27    2.50
  -5  10  -1   12.69    2.42
   5 -10   2    7.25    2.19
  -5  10  -2    7.67    2.18
  -5  10  -2    7.55    2.15
  -5  10  -3   15.02    2.44
  -5  10  -3    9.95    2.71
  -5  10  -3   13.25    2.42
  -5  10  -3   12.36    2.58
  -5  10  -4   45.16    4.09
  -5  10  -4   38.34    4.19
  -5  10  -4   36.32    4.22
  -5  10  -4   42.87    4.08
  -5  10  -4   36.47    4.64
  -5  10  -5  161.19   12.28
  -5  10  -5  177.15   11.96
  -5  10  -5  154.87   11.95
  -5  10  -6   12.63    2.56
  -5  10  -6    6.09    1.88
  -5  10  -7   44.19    3.90
  -5  10  -7   45.70    4.25
  -5  10  -8    7.10    1.47
  -5  10  -8   10.22    1.91
  -5  10  -9    1.13    1.01
  -5  10  -9    2.13    1.13
  -5   9   7   17.78    2.26
   5  -9  -7   16.10    1.91
   5  -9  -6   49.67    3.99
  -5   9   6   41.27    4.09
  -5   9   5    2.41    1.53
   5  -9  -5    2.32    1.52
  -5   9   4   82.08    6.91
   5  -9  -4   94.01    6.91
  -5   9   3   13.41    2.61
   5  -9  -3   11.76    2.44
  -5   9   2  235.47   16.45
   5  -9  -2  239.41   16.40
   5  -9  -1  154.61   10.50
  -5   9   1  135.54   10.30
  -5   9   1  135.38   10.24
   5  -9   0   19.26    3.02
  -5   9   0   19.72    2.97
  -5   9   0   16.85    2.84
   5  -9   1   21.92    3.21
  -5   9  -1   21.93    3.08
  -5   9  -1   19.35    3.07
  -5   9  -2  108.13    8.25
  -5   9  -2  105.23    9.06
  -5   9  -2  104.34    8.27
  -5   9  -2  101.37    8.36
  -5   9  -2  104.30    8.64
  -5   9  -3   67.73    5.94
  -5   9  -3   62.94    6.61
  -5   9  -3   64.83    5.90
  -5   9  -3   77.22    6.32
  -5   9  -3   66.70    6.27
  -5   9  -4    0.70    1.70
  -5   9  -4   -1.39    1.96
  -5   9  -4    0.48    1.84
  -5   9  -4   -1.82    2.31
  -5   9  -5  177.44   13.90
  -5   9  -5  195.83   13.56
  -5   9  -6   98.34    9.11
  -5   9  -6  132.35    9.12
  -5   9  -7    2.76    1.57
  -5   9  -7    1.46    1.68
  -5   9  -8    2.42    1.49
  -5   9  -8    1.77    1.56
  -5   9  -9   98.21    6.96
  -5   9  -9   88.47    7.05
  -5   9 -10  118.71    8.12
  -5   9 -10  112.06    8.23
   5  -8  -8  279.47   15.75
  -5   8   8  199.49   15.61
   5  -8  -7   41.78    3.76
  -5   8   7   38.33    3.69
   5  -8  -6    6.44    1.95
  -5   8   6    8.38    2.12
  -5   8   5   24.58    3.23
   5  -8  -5   29.61    3.49
  -5   8   5   24.49    3.33
   5  -8  -4   87.68    7.02
   5  -8  -3  376.54   25.14
  -5   8   2   15.53    2.59
  -5   8   2   15.08    2.61
   5  -8  -2   22.02    3.06
  -5   8   1  101.76    8.30
  -5   8   1  101.37    8.35
   5  -8  -1  127.65    8.81
  -5   8   0   43.75    4.54
  -5   8   0   47.40    4.71
   5  -8   0   51.11    4.95
  -5   8  -1  129.24    9.86
  -5   8  -1  126.48   10.02
  -5   8  -1  137.74    9.68
  -5   8  -1  123.39   10.43
  -5   8  -1  116.25    9.55
  -5   8  -2    4.64    2.21
  -5   8  -2    6.81    2.14
  -5   8  -2    3.86    2.64
  -5   8  -2    5.68    2.24
  -5   8  -3   56.94    5.57
  -5   8  -3   63.30    5.43
  -5   8  -3   48.30    5.94
  -5   8  -3   59.34    5.49
  -5   8  -4   79.81    6.61
  -5   8  -4   72.88    7.31
  -5   8  -4   70.13    6.51
  -5   8  -5    2.54    2.26
  -5   8  -5    0.28    2.06
  -5   8  -6    9.39    2.03
  -5   8  -6    5.57    2.28
  -5   8  -7    3.63    1.83
  -5   8  -7   -1.60    1.91
  -5   8  -8   92.50    7.10
  -5   8  -8   90.63    7.32
  -5   8  -9   15.22    2.24
  -5   8  -9   17.41    2.53
  -5   8 -10   97.47    7.55
  -5   8 -10  105.05    7.43
  -5   8 -11    6.94    1.42
  -5   8 -11   11.32    1.55
   5  -8  11    9.90    1.57
   5  -7 -10   20.45    2.20
   5  -7  -9  194.12   13.04
   5  -7  -8   -0.17    1.48
  -5   7   8    0.51    1.54
   5  -7  -7   29.24    3.32
  -5   7   7   22.78    3.08
   5  -7  -6    4.50    2.19
  -5   7   6    3.45    2.17
   5  -7  -5  229.50   15.09
  -5   7   5  201.63   14.91
   5  -7  -4   77.58    6.01
  -5   7   4   56.68    5.73
   5  -7  -3   54.56    5.40
  -5   7   3   60.68    5.54
   5  -7  -3   61.12    5.49
  -5   7   2   66.97    5.88
  -5   7   2   58.86    5.82
  -5   7   1    2.35    1.84
  -5   7   1   -1.44    1.90
   5  -7  -1    4.60    2.25
   5  -7   0   37.60    7.76
  -5   7   0   33.26    3.96
   5  -7   0   30.56    6.94
   5  -7   0   37.79    4.25
  -5   7   0   31.08    8.33
  -5   7   0   30.96    3.71
  -5   7  -1   57.19   10.40
   5  -7   1   61.60    9.63
  -5   7  -1   46.69    4.85
   5  -7   1   47.74    9.15
  -5   7  -1   52.09    5.60
  -5   7  -1   42.00    4.57
  -5   7  -2  301.27   20.10
  -5   7  -2  292.40   19.88
  -5   7  -2  280.97   20.56
   5  -7   2  278.12   26.18
  -5   7  -3    0.85    1.96
  -5   7  -3    5.44    1.94
  -5   7  -3    4.11    2.36
  -5   7  -3    0.25    1.85
   5  -7   4   33.18    3.66
  -5   7  -4   23.43    3.22
  -5   7  -4   32.68    3.68
  -5   7  -5   18.04    3.02
  -5   7  -6   17.69    3.05
  -5   7  -6   15.76    2.53
  -5   7  -7   76.50    6.89
  -5   7  -7   74.26    6.45
  -5   7  -7   72.45    6.07
  -5   7  -8   28.86    3.39
  -5   7  -8   19.09    3.45
  -5   7  -8   18.65    3.57
  -5   7  -8   23.40    3.05
  -5   7  -9  135.92    9.64
  -5   7  -9  123.23    9.13
  -5   7  -9  129.16    8.89
  -5   7 -10   28.98    3.62
  -5   7 -10   35.36    3.52
  -5   7 -10   26.14    3.78
  -5   7 -10   38.50    3.44
  -5   7 -11   10.46    1.70
  -5   7 -11   10.22    1.82
   5  -6 -11  165.38   11.24
   5  -6 -10   22.34    2.51
   5  -6 -10   22.61    2.73
   5  -6  -9   66.07    5.39
   5  -6  -8    3.65    1.86
   5  -6  -7   54.28    4.87
  -5   6   7   47.06    4.69
   5  -6  -6   56.45    4.65
  -5   6   6   33.15    4.24
   5  -6  -5   40.14    4.21
   5  -6  -5   45.74    4.25
   5  -6  -4  330.25   21.84
  -5   6   4  288.87   21.60
   5  -6  -4  361.37   22.04
  -5   6   3    0.68    2.11
  -5   6   3    3.35    3.98
   5  -6  -3    3.47    2.04
   5  -6  -3    4.53    3.60
   5  -6  -2   92.61    7.12
  -5   6   2   76.07    6.62
  -5   6   2   97.93   13.42
   5  -6  -2   77.76   11.99
   5  -6  -1    4.97    2.02
   5  -6  -1    4.25    4.04
   5  -6  -1    2.53    2.80
  -5   6   1    1.60    4.08
  -5   6   1    3.42    1.83
   5  -6   0   74.38   10.53
   5  -6   0   60.40    9.36
  -5   6   0   59.22    5.33
  -5   6   0   53.64   10.53
   5  -6   1  113.19   14.26
  -5   6  -1  129.27    9.67
   5  -6   1  153.04    9.97
   5  -6   1  128.68   15.05
  -5   6  -1  117.65    9.64
  -5   6  -1  124.72   10.27
  -5   6  -1  121.09   15.78
   5  -6   2  370.88   30.63
   5  -6   2  390.88   24.42
  -5   6  -2  365.39   24.21
  -5   6  -2  352.91   24.30
  -5   6  -2  319.81   24.63
  -5   6  -2  349.43   31.79
  -5   6  -3  104.77    7.89
   5  -6   3   86.93   12.08
   5  -6   3   95.93    7.89
  -5   6  -3   91.08    7.55
   5  -6   4   12.96    4.41
  -5   6  -4    7.37    2.12
   5  -6   4   17.49    5.03
  -5   6  -5   51.35    5.50
  -5   6  -5   58.89    5.29
  -5   6  -5   49.22    4.58
  -5   6  -6  111.38    9.27
  -5   6  -6  119.10    8.98
  -5   6  -6   98.90    9.18
  -5   6  -6  117.88    8.52
  -5   6  -7  289.58   20.94
  -5   6  -7  333.07   20.79
  -5   6  -7  259.92   20.90
  -5   6  -7  311.98   20.24
  -5   6  -8    0.83    1.92
  -5   6  -8    0.66    2.27
  -5   6  -8    3.81    2.64
  -5   6  -8    1.08    1.88
  -5   6  -9  421.36   30.45
  -5   6  -9  488.15   30.38
  -5   6  -9  405.61   30.74
  -5   6  -9  499.08   30.09
  -5   6 -10   72.98    6.69
  -5   6 -10   82.91    6.56
  -5   6 -10   70.52    7.02
  -5   6 -10   88.60    6.38
  -5   6 -11   -0.46    1.21
  -5   6 -11   -0.77    1.38
  -5   6 -11    0.66    1.36
   5  -5 -11  324.81   19.44
   5  -5 -11  264.12   19.52
   5  -5 -10  155.43   10.89
   5  -5  -9   26.41    3.22
   5  -5  -8   18.26    2.96
   5  -5  -7  143.74   10.56
   5  -5  -6  257.79   18.66
   5  -5  -6  295.03   18.92
   5  -5  -5   67.07   10.85
   5  -5  -5   77.78    6.26
   5  -5  -5   76.54    6.18
  -5   5   5   64.24    5.94
  -5   5   5   70.46   11.61
   5  -5  -5   65.09   11.47
   5  -5  -4  337.80   34.31
   5  -5  -4  490.45   28.95
   5  -5  -4  457.66   28.67
  -5   5   4  396.34   28.39
  -5   5   4  471.73   37.77
   5  -5  -4  367.59   35.47
  -5   5   3  212.70   14.75
  -5   5   3  228.48   22.54
   5  -5  -3  221.00   15.07
   5  -5  -3  174.42   20.20
   5  -5  -2   14.88    2.61
   5  -5  -2   19.88    2.72
  -5   5   2   14.79    2.42
  -5   5   2   21.60    6.14
   5  -5  -2   13.58    5.28
   5  -5  -1    5.37    2.01
   5  -5  -1    9.18    4.27
   5  -5  -1    9.16    4.01
   5  -5  -1    6.43    1.93
  -5   5   1    6.53    1.91
  -5   5   1    4.50    4.28
   5  -5   0  214.52   20.72
   5  -5   0  206.32   19.94
  -5   5   0  220.71   15.01
   5  -5   0  224.06   15.19
  -5   5   0  181.33   20.75
  -5   5  -1  725.96   44.16
   5  -5   1  732.84   44.37
   5  -5   1  740.42   51.30
   5  -5   1  709.54   50.41
  -5   5  -1  563.70   44.40
  -5   5  -1  703.30   52.00
   5  -5   2    1.24    2.95
   5  -5   2    2.44    2.69
  -5   5  -2    1.49    3.28
   5  -5   2    1.24    1.73
  -5   5  -2    1.55    1.69
   5  -5   3  117.93   13.41
  -5   5  -3  106.12    8.45
  -5   5  -3  104.89    8.16
   5  -5   3  117.23   13.44
   5  -5   4  115.91   12.97
   5  -5   4  118.78   13.88
  -5   5  -4  112.47    8.55
   5  -5   4  102.13   12.94
  -5   5  -4  102.81    8.82
  -5   5  -4  108.10    8.46
  -5   5  -5  268.41   19.77
   5  -5   5  327.85   25.59
   5  -5   5  339.06   26.57
  -5   5  -5  279.67   19.94
  -5   5  -6   33.58    4.66
  -5   5  -6   42.65    4.62
  -5   5  -7  269.59   18.87
  -5   5  -7  253.70   18.44
  -5   5  -8  228.81   16.65
  -5   5  -8  220.81   16.17
  -5   5  -9   12.84    2.48
  -5   5  -9   12.00    3.37
  -5   5  -9   14.81    2.87
  -5   5 -10  107.70    7.31
  -5   5 -10   82.05    7.97
  -5   5 -10   85.87    7.57
  -5   5 -11    0.81    1.34
  -5   5 -11    0.29    1.71
  -5   5 -11    0.69    1.47
  -5   5 -12   52.91    3.72
  -5   5 -12   36.36    3.68
   5  -4 -12  358.11   23.20
   5  -4 -11   12.27    2.26
   5  -4 -11   12.80    2.22
   5  -4 -10   30.96    3.48
   5  -4  -9    8.63    2.40
   5  -4  -8   56.62    5.20
   5  -4  -7   22.75    3.13
   5  -4  -7   16.80    2.80
   5  -4  -6    4.97    2.08
  -5   4   6   13.80    5.39
   5  -4  -6    4.46    1.88
   5  -4  -6    5.18    4.40
   5  -4  -5  714.07   52.72
   5  -4  -5  705.54   44.08
   5  -4  -5  629.50   43.71
  -5   4   5  637.40   51.91
   5  -4  -5  754.24   44.12
   5  -4  -4   58.97    9.96
   5  -4  -4   78.39    6.26
   5  -4  -4   72.14    5.90
  -5   4   4   68.69   11.10
   5  -4  -4   82.76    6.25
   5  -4  -3    2.55    3.04
   5  -4  -3    0.23    1.63
  -5   4   3   -1.48    3.53
   5  -4  -3    1.14    1.60
  -5   4   2  140.16   16.69
   5  -4  -2  160.67   11.76
   5  -4  -2  173.69   17.32
  -5   4   2  154.73   17.47
   5  -4  -2  175.77   11.94
  -5   4   1  640.47   48.70
   5  -4  -1  637.63   46.41
   5  -4  -1  594.94   41.39
  -5   4   1  648.47   48.64
   5  -4  -1  681.38   41.63
   5  -4  -1  728.74   48.46
   5  -4   0   93.93   11.32
  -5   4   0   76.92   11.85
   5  -4   0  101.22    7.69
   5  -4   0  108.27   12.61
   5  -4   1  355.94   27.58
   5  -4   1  374.48   28.21
  -5   4  -1  324.04   28.55
   5  -4   1  320.00   22.21
   5  -4   2   77.61   10.46
  -5   4  -2   80.62    6.53
  -5   4  -2   71.34   10.95
  -5   4  -2   73.67   12.37
   5  -4   2   69.66    6.32
   5  -4   2   94.34   11.26
   5  -4   3   11.90    4.31
   5  -4   3    5.83    3.35
  -5   4  -3    7.53    4.81
  -5   4  -3    6.49    1.92
  -5   4  -4   51.48    5.08
   5  -4   4   62.92    9.26
   5  -4   4   38.83    7.87
  -5   4  -4   59.69    5.57
  -5   4  -4   47.92   10.42
   5  -4   5   14.62    4.71
   5  -4   5   22.02    5.40
   5  -4   5    8.77    4.14
  -5   4  -5    9.54    2.42
  -5   4  -5   17.88    3.23
  -5   4  -5   12.81    6.70
  -5   4  -6  494.25   31.93
  -5   4  -6  463.13   32.33
  -5   4  -7    2.07    1.88
  -5   4  -7    0.40    2.57
  -5   4  -8   61.03    5.88
  -5   4  -8   71.75    6.87
  -5   4  -9   22.19    3.87
  -5   4 -10   21.01    2.71
  -5   4 -10   13.63    3.11
  -5   4 -11   32.72    3.09
  -5   4 -11   22.55    3.54
   5  -4  12    1.94    1.07
  -5   4 -12    2.77    1.04
   5  -3 -13  107.86    7.50
   5  -3 -12   28.59    2.99
   5  -3 -11   97.69    7.44
   5  -3 -10   36.20    3.92
   5  -3  -9  137.44   10.70
   5  -3  -9  160.94   11.03
   5  -3  -8   15.24    2.60
   5  -3  -8   15.31    2.89
   5  -3  -8   16.61    2.84
   5  -3  -7  167.75   19.86
   5  -3  -7  174.43   13.05
  -5   3   7  145.78   19.07
   5  -3  -7  216.00   13.61
   5  -3  -7  186.71   13.33
   5  -3  -6  220.97   25.24
   5  -3  -6  265.69   18.96
  -5   3   6  253.03   26.04
   5  -3  -6  306.72   19.44
   5  -3  -6  301.46   19.41
   5  -3  -5   13.70    5.14
   5  -3  -5    6.72    2.05
  -5   3   5    4.60    3.66
   5  -3  -5    4.66    1.71
   5  -3  -5    5.26    1.94
   5  -3  -4    5.60    3.99
  -5   3   4    1.41    3.11
   5  -3  -4    1.76    1.50
   5  -3  -4    2.38    3.03
  -5   3   4    4.30    3.41
   5  -3  -4    3.00    1.77
  -5   3   3  256.00   22.85
   5  -3  -3  238.16   22.17
  -5   3   3  186.72   21.23
   5  -3  -3  233.76   16.26
   5  -3  -3  235.88   21.41
  -5   3   3  230.42   22.36
   5  -3  -3  255.83   16.49
  -5   3   2  172.70   18.54
  -5   3   2  172.40   18.37
   5  -3  -2  178.21   12.93
   5  -3  -2  200.45   18.17
  -5   3   2  189.75   18.76
   5  -3  -2  198.35   13.20
  -5   3   1  565.08   43.26
   5  -3  -1  643.76   41.46
  -5   3   1  573.22   43.38
   5  -3  -1  531.77   36.06
   5  -3  -1  609.53   41.98
  -5   3   1  564.08   42.39
   5  -3  -1  557.90   36.28
  -5   3   0  472.87   36.37
   5  -3   0  429.40   33.23
  -5   3   0  467.86   36.14
   5  -3   0  405.68   28.59
   5  -3   0  490.05   34.62
  -5   3   0  477.45   35.30
   5  -3   0  461.62   28.97
   5  -3   1   92.34   10.72
   5  -3   1  105.62   11.38
  -5   3  -1   89.47    7.00
  -5   3  -1   99.21   12.03
   5  -3   1   78.22    6.81
  -5   3  -2   70.36    5.69
  -5   3  -2   47.93    9.43
  -5   3  -2   49.43   10.48
   5  -3   2   56.74    8.59
  -5   3  -3    8.03    2.06
   5  -3   3   12.14    4.24
   5  -3   3    6.80    3.41
  -5   3  -3    6.14    2.20
  -5   3  -3    6.19    4.20
  -5   3  -3    7.45    5.58
   5  -3   4   39.55    6.98
  -5   3  -4   47.22    4.68
   5  -3   4   52.33    8.21
   5  -3   4   38.47    7.50
  -5   3  -4   44.05    9.34
  -5   3  -4   48.39    4.98
  -5   3  -4   52.07   10.59
   5  -3   5   85.97   10.89
   5  -3   5   90.41   11.83
  -5   3  -5   89.99    7.47
   5  -3   5   93.23   11.87
  -5   3  -5   93.69    8.01
  -5   3  -5   70.90   13.45
  -5   3  -6  450.13   29.21
  -5   3  -6  430.55   29.61
   5  -3   6  453.51   34.66
  -5   3  -6  340.89   37.84
  -5   3  -7   47.56    5.20
  -5   3  -7   59.13    6.11
  -5   3  -8    5.87    2.23
  -5   3  -8    4.07    2.61
  -5   3  -9   36.52    4.26
  -5   3  -9   38.32    4.92
  -5   3 -10   37.64    4.01
  -5   3 -10   33.92    4.52
  -5   3 -11  121.40    8.70
   5  -3  12    0.42    1.10
   5  -2 -13  134.75    9.32
   5  -2 -12    4.76    1.68
   5  -2 -11   17.00    2.67
   5  -2 -10    1.49    1.88
   5  -2 -10    0.26    2.19
   5  -2 -10   -0.22    1.93
   5  -2  -9  167.37   12.45
   5  -2  -9  181.66   12.69
   5  -2  -9  168.95   12.20
   5  -2  -8   27.48    3.46
   5  -2  -8   23.54    3.11
   5  -2  -8   23.89    3.50
   5  -2  -7  507.05   31.76
   5  -2  -7  462.33   39.54
  -5   2   7  442.90   39.30
   5  -2  -7  455.98   31.29
   5  -2  -7  499.08   31.82
   5  -2  -6  291.91   19.47
   5  -2  -6  264.55   26.25
  -5   2   6  218.43   24.96
   5  -2  -6  294.23   19.37
   5  -2  -5    7.16    4.28
  -5   2   5    1.49    2.69
  -5   2   5    4.01    3.61
   5  -2  -5    3.79    1.72
   5  -2  -5    2.63    1.72
   5  -2  -4    1.32    3.13
  -5   2   4   -1.42    2.85
   5  -2  -4    0.20    1.34
  -5   2   4    3.95    3.35
   5  -2  -4    1.13    1.48
  -5   2   3  121.26   13.93
   5  -2  -3  120.80   13.57
  -5   2   3   96.46   13.11
   5  -2  -3  114.02    8.31
   5  -2  -3  103.21   12.06
  -5   2   3  109.40   13.08
   5  -2  -3  114.39    8.50
  -5   2   2  721.05   49.53
  -5   2   2  643.83   48.77
   5  -2  -2  649.53   41.90
   5  -2  -2  679.92   47.08
  -5   2   2  682.48   48.05
   5  -2  -2  637.07   42.08
  -5   2   1    2.62    2.66
  -5   2   1    6.59    4.29
   5  -2  -1    9.58    3.87
  -5   2   1    3.30    2.99
   5  -2  -1    6.73    1.82
  -5   2   0  715.07   49.78
  -5   2   0  612.87   49.30
   5  -2   0  658.40   47.29
  -5   2   0  646.91   49.78
  -5   2   0  692.13   43.22
   5  -2   0  767.02   48.60
  -5   2   0  725.63   48.97
   5  -2   0  624.79   42.98
  -5   2  -1   38.16    7.65
  -5   2  -1   28.77    6.89
   5  -2   1   41.88    6.90
   5  -2   1   55.91    7.86
  -5   2  -1   53.09    4.47
  -5   2  -1   40.62    7.34
   5  -2   1   44.33    4.27
  -5   2  -2   26.64    3.02
  -5   2  -2   24.13    6.91
  -5   2  -2   21.94    3.17
  -5   2  -2   15.86    5.54
   5  -2   2   23.18    5.25
   5  -2   2   18.54    5.02
  -5   2  -3    2.86    1.74
   5  -2   3    1.07    2.56
   5  -2   3    3.27    2.95
  -5   2  -3    6.60    2.31
  -5   2  -3    1.57    2.84
   5  -2   4   94.78   12.06
  -5   2  -4  102.29    8.15
   5  -2   4   99.58   12.24
  -5   2  -4   97.10   15.01
  -5   2  -4   89.02   13.71
  -5   2  -4  110.22    8.64
   5  -2   5 1072.73   72.09
   5  -2   5 1081.41   72.96
  -5   2  -5 1011.16   66.76
   5  -2   5  964.62   72.28
  -5   2  -5  964.88   77.33
  -5   2  -5 1090.78   67.28
  -5   2  -6   27.16    3.80
   5  -2   6   29.29    6.32
  -5   2  -6   23.01    8.73
  -5   2  -6   33.75    4.63
  -5   2  -7  165.54   13.51
  -5   2  -7  185.30   13.23
  -5   2  -8   24.53    4.14
  -5   2  -8   30.58    3.84
  -5   2  -9   95.68    9.01
  -5   2  -9  116.89    8.80
  -5   2 -10   24.96    3.32
   5  -2  11  131.27    8.78
  -5   2 -11  107.41    8.73
   5  -2  12   89.60    6.50
   5  -1 -13  114.78    8.18
   5  -1 -12   94.68    7.18
   5  -1 -11   23.20    3.20
   5  -1 -11   23.51    3.00
   5  -1 -10   33.77    4.13
   5  -1 -10   40.01    4.55
   5  -1 -10   41.47    4.05
   5  -1  -9  104.15    7.92
   5  -1  -9   89.64    7.34
   5  -1  -9   96.36    7.97
   5  -1  -8  895.38   58.41
   5  -1  -8  859.43   66.57
  -5   1   8  764.07   65.91
   5  -1  -8  952.54   58.36
   5  -1  -7   -0.26    2.01
   5  -1  -7    1.58    2.84
  -5   1   7   -1.68    3.38
   5  -1  -7    2.19    1.82
   5  -1  -6  253.46   23.42
  -5   1   6  206.01   22.44
  -5   1   6  219.27   22.40
   5  -1  -6  233.75   16.23
   5  -1  -6  238.17   16.14
   5  -1  -5  147.28   16.03
  -5   1   5  144.46   16.49
  -5   1   5  147.29   16.13
   5  -1  -5  135.26   10.22
   5  -1  -5  142.00   10.11
  -5   1   4  278.53   26.14
  -5   1   4  343.54   26.99
   5  -1  -4  318.92   20.17
   5  -1  -4  284.11   19.93
   5  -1  -4  289.79   19.77
  -5   1   3   21.49    5.75
  -5   1   3   10.39    4.33
   5  -1  -3   18.06    2.51
   5  -1  -3   12.35    2.28
   5  -1  -3   17.50    2.21
  -5   1   2  631.94   48.85
   5  -1  -2  728.18   42.48
  -5   1   2  720.87   49.48
   5  -1  -2  595.16   42.12
  -5   1   1  760.31   56.20
  -5   1   1  801.35   49.66
   5  -1  -1  770.97   53.65
  -5   1   1  806.82   55.96
  -5   1   1  799.72   56.42
   5  -1  -1  739.61   49.41
  -5   1   0   27.42    6.46
   5  -1   0   25.17    4.98
   5  -1   0   21.17    4.67
  -5   1   0   19.25    2.67
  -5   1   0   25.79    6.27
  -5   1   0   25.43    5.97
   5  -1   0   21.60    2.67
   5  -1   0   17.91    2.51
   5  -1   1   36.17    6.04
   5  -1   1   31.51    5.68
  -5   1  -1   31.55    3.29
  -5   1  -1   27.18    6.71
   5  -1   1   34.05    3.28
  -5   1  -1   28.90    7.01
   5  -1   1   20.30    2.92
  -5   1  -2   30.80    3.32
   5  -1   2   24.80    5.23
   5  -1   2   16.73    4.63
  -5   1  -2   23.53    6.96
  -5   1  -2   28.02    7.33
   5  -1   3  756.14   54.46
  -5   1  -3  762.34   49.61
   5  -1   3  776.70   54.89
  -5   1  -3  705.21   58.14
  -5   1  -3  712.26   57.03
  -5   1  -3  798.55   49.93
   5  -1   4  657.11   45.22
  -5   1  -4  585.71   39.20
   5  -1   4  566.30   44.15
  -5   1  -4  548.36   48.33
  -5   1  -4  515.93   46.37
  -5   1  -4  639.61   39.65
  -5   1  -5  297.68   20.41
  -5   1  -5  317.49   20.93
  -5   1  -5  284.33   29.75
   5  -1   5  329.36   26.27
   5  -1   5  278.79   24.44
  -5   1  -6   66.95    6.46
  -5   1  -6   86.76    7.40
  -5   1  -6   54.89   12.16
   5  -1   6   78.82   10.57
  -5   1  -7    0.66    2.02
  -5   1  -7    2.76    2.86
  -5   1  -8   39.10    4.74
   5  -1   8   43.09    4.55
  -5   1  -8   42.82    5.31
  -5   1  -9   39.44    4.57
   5  -1   9   42.52    4.41
   5  -1  10  140.04   10.06
  -5   1 -10  130.46   10.28
   5  -1  10  140.75   10.07
   5  -1  11   -0.17    1.31
  -5   1 -11    0.21    1.30
   5  -1  11    0.17    1.40
   5   0 -14  259.85   16.99
   5   0 -13   76.71    5.98
   5   0 -13   60.60    5.15
   5   0 -12   11.72    2.42
   5   0 -12   14.46    2.28
   5   0 -11    8.70    2.51
   5   0 -11    5.61    1.94
   5   0 -10  205.92   14.70
   5   0 -10  207.14   14.89
   5   0  -9  404.29   26.80
   5   0  -9  396.58   26.90
   5   0  -8  173.12   12.86
  -5   0   8  173.35   20.03
   5   0  -8  186.46   13.08
  -5   0   7  159.38   17.88
   5   0  -7  181.13   11.92
  -5   0   7  148.47   18.04
  -5   0   7  164.01   19.66
   5   0  -7  133.75   18.50
   5   0  -7  159.88   11.90
   5   0  -7  158.55   11.87
  -5   0   6  200.39   18.69
   5   0  -6  149.86   10.97
  -5   0   6  129.45   16.60
  -5   0   6  162.44   18.50
   5   0  -6  145.76   18.35
   5   0  -6  156.77   11.20
  -5   0   5  368.90   30.26
   5   0  -5  346.74   23.26
  -5   0   5  337.69   30.15
  -5   0   5  329.52   30.59
   5   0  -5  402.63   32.77
   5   0  -5  356.34   23.48
  -5   0   4   80.58   10.78
   5   0  -4   69.25    5.72
   5   0  -4   69.19    5.45
   5   0  -4   71.45   11.34
  -5   0   4   69.32   10.42
   5   0  -4   65.82    5.61
  -5   0   3  693.80   51.06
   5   0  -3  635.04   44.05
  -5   0   3  731.67   50.82
  -5   0   3  761.12   51.74
   5   0  -3  732.87   44.40
  -5   0   2   82.94   11.30
   5   0  -2   80.44    6.56
  -5   0   2   99.03   12.06
  -5   0   2   80.22   10.99
   5   0  -2   93.48    6.83
  -5   0   1  159.39   16.55
   5   0  -1  155.82   10.98
  -5   0   1  138.14   15.58
  -5   0   1  155.70   16.43
   5   0   0   13.89    4.03
   5   0   0   14.91    3.86
  -5   0   0    7.64    3.93
  -5   0   0   13.32    5.04
  -5   0   0   17.50    5.12
   5   0   0   20.15    2.55
   5   0   1    4.68    2.67
   5   0   1    1.78    2.27
  -5   0  -1    1.40    1.43
  -5   0  -1    5.63    4.39
   5   0   1    3.10    1.40
   5   0   2  544.81   41.04
  -5   0  -2  544.51   36.53
   5   0   2  616.70   41.53
  -5   0  -2  587.74   45.26
  -5   0  -2  582.88   44.27
  -5   0  -3  185.93   21.26
   5   0   3  239.11   20.80
  -5   0  -3  243.69   16.18
   5   0   3  234.79   20.55
  -5   0  -3  257.65   24.69
  -5   0  -3  179.60   21.65
  -5   0  -4 1110.40   73.27
  -5   0  -4 1262.19   73.91
  -5   0  -4  976.59   80.77
  -5   0  -4 1137.09   83.33
  -5   0  -4 1040.85   80.70
   5   0   4 1151.97   79.06
  -5   0  -5   40.31    4.50
  -5   0  -5   51.31    5.18
  -5   0  -5   37.68    9.36
  -5   0  -5   31.75    7.99
  -5   0  -6   95.99    8.22
   5   0   6   90.93    7.36
  -5   0  -6   80.34    7.41
  -5   0  -7   49.51    5.62
   5   0   7   45.91    5.01
  -5   0  -7   52.05    5.25
   5   0   8  116.79    9.28
  -5   0  -8  123.60    9.79
   5   0   8  122.14    9.37
   5   0   9    9.26    2.37
  -5   0  -9    2.12    2.08
   5   0   9    5.71    2.31
   5   0  10  100.64    7.40
   5   0  10   97.53    7.47
  -5   0 -10   88.01    7.65
   5   0  10  102.86    7.57
   5   0  11    4.81    1.45
  -5   0 -11    5.38    1.55
   5   0  11    6.35    1.63
   5   1 -14   53.67    4.74
   5   1 -13   25.93    3.07
   5   1 -13   27.10    3.20
   5   1 -12  204.78   14.36
   5   1 -11   10.24    2.65
   5   1 -10   40.81    4.53
   5   1 -10   35.01    4.44
   5   1  -9  244.10   16.49
   5   1  -9  225.51   16.50
  -5  -1   8    1.60    2.89
   5   1  -8    3.22    2.15
  -5  -1   8    1.78    3.59
  -5  -1   8    2.04    5.21
   5   1  -8    8.54    5.08
   5   1  -8    5.08    2.27
   5   1  -8    3.75    2.06
  -5  -1   7   12.44    4.88
   5   1  -7    7.03    1.99
  -5  -1   7    3.34    4.55
  -5  -1   7    1.92    4.61
   5   1  -7   18.03    6.77
   5   1  -7   13.73    2.53
   5   1  -7    9.72    2.38
  -5  -1   6   58.15    9.75
   5   1  -6   65.66    5.20
  -5  -1   6   50.25   10.52
   5   1  -6   67.09   11.86
   5   1  -6   65.16    5.43
   5   1  -6   53.03    5.19
  -5  -1   6   52.89    9.72
  -5  -1   5  336.97   28.13
  -5  -1   5  337.20   28.36
  -5  -1   5  319.80   29.25
   5   1  -5  336.17   29.82
   5   1  -5  299.15   20.87
   5   1  -5  317.32   20.97
  -5  -1   4  172.23   18.04
  -5  -1   4  150.59   17.23
  -5  -1   4  197.74   18.76
   5   1  -4  178.69   12.48
   5   1  -4  171.20   17.73
  -5  -1   3  397.62   35.82
  -5  -1   3  431.71   36.54
  -5  -1   3  466.64   37.06
   5   1  -3  490.30   30.72
   5   1  -3  464.30   36.72
  -5  -1   2  260.50   23.25
  -5  -1   2  258.17   23.55
  -5  -1   2  250.53   23.16
   5   1  -2  257.95   17.54
  -5  -1   1    7.38    3.85
  -5  -1   1    6.77    4.24
  -5  -1   1    8.66    3.71
   5   1  -1    4.99    1.70
   5   1   0   66.68    8.93
  -5  -1   0   75.41   11.11
   5   1   0   80.71    6.20
   5   1   0   66.13   10.10
  -5  -1  -1    4.04    3.64
  -5  -1  -1    2.99    3.29
  -5  -1  -1    1.47    2.95
   5   1   1    0.86    1.29
   5   1   1   -0.97    2.32
   5   1   1    1.20    2.85
  -5  -1  -2  469.18   41.39
   5   1   2  532.86   40.06
   5   1   2  539.21   39.51
  -5  -1  -2  602.77   44.17
  -5  -1  -2  565.59   43.13
  -5  -1  -3   25.51    6.91
  -5  -1  -3   42.74    8.88
  -5  -1  -3   33.99    3.80
   5   1   3   32.86    3.67
  -5  -1  -3   36.51    8.83
   5   1   3   35.83    3.71
  -5  -1  -4  469.08   40.64
  -5  -1  -4  420.44   39.79
  -5  -1  -4  507.45   32.95
   5   1   4  506.53   32.60
   5   1   4  557.16   39.60
   5   1   4  483.76   32.55
  -5  -1  -5   88.03   13.70
  -5  -1  -5   90.07    8.01
   5   1   5   98.86    7.86
  -5  -1  -5  109.89    8.70
   5   1   5   90.75   12.55
   5   1   5   99.41    7.85
  -5  -1  -6    7.50    2.72
   5   1   6    4.98    2.20
  -5  -1  -6    4.24    2.13
   5   1   6    6.09    2.59
  -5  -1  -7   84.41    8.28
   5   1   7  101.72    8.09
  -5  -1  -7  101.27    8.35
   5   1   7  110.30    8.18
  -5  -1  -8  388.73   27.35
   5   1   8  404.28   27.01
   5   1   8  437.29   27.08
  -5  -1  -8  359.34   27.20
   5   1   8  436.47   27.13
   5   1   9  143.80   10.43
   5   1   9  137.66   10.47
  -5  -1  -9  144.07   10.90
   5   1   9  155.37   10.67
   5   1  10   22.10    2.64
  -5  -1 -10   16.97    2.70
   5   1  10   24.76    2.84
   5   1  11   36.78    3.19
  -5  -1 -11   32.86    3.36
   5   1  11   40.80    3.37
   5   2 -14   21.66    2.83
   5   2 -13    9.26    2.10
   5   2 -13    8.29    2.45
   5   2 -13    9.38    2.15
   5   2 -12   19.48    3.23
   5   2 -12   29.10    3.57
   5   2 -11   49.03    5.03
   5   2 -10   22.50    3.37
   5   2 -10   21.35    3.43
   5   2 -10   22.22    3.67
   5   2  -9  452.75   31.16
   5   2  -9  476.90   31.65
   5   2  -9  513.94   31.48
   5   2  -9  452.14   31.22
  -5  -2   8   70.55   11.71
   5   2  -8   87.42    6.91
  -5  -2   8   71.60   11.98
  -5  -2   8   63.99   12.80
   5   2  -8   72.72   13.11
   5   2  -8   94.68    7.24
   5   2  -8   81.85    6.99
  -5  -2   7   16.21    5.85
   5   2  -7    7.70    1.99
  -5  -2   7    8.05    6.02
   5   2  -7   12.11    5.76
   5   2  -7    6.66    1.99
   5   2  -7    4.92    2.11
  -5  -2   7    9.79    4.67
  -5  -2   6   74.36   11.53
  -5  -2   6   74.11   11.61
  -5  -2   6   72.72   11.60
  -5  -2   6   81.51   14.05
   5   2  -6   96.46   14.22
   5   2  -6   92.14    7.03
  -5  -2   5  109.70   14.43
  -5  -2   5   85.91   13.35
   5   2  -5  131.67    9.45
   5   2  -5  133.06    9.44
  -5  -2   5  127.93   15.02
   5   2  -5  165.89   18.30
   5   2  -5  114.85    9.08
  -5  -2   4 1661.16   99.49
  -5  -2   4 1360.82   98.62
  -5  -2   4 1319.59   97.96
   5   2  -4 1469.23   91.47
   5   2  -4 1425.91   91.13
   5   2  -4 1388.72   98.08
  -5  -2   3   -1.25    2.51
  -5  -2   3    2.87    3.41
  -5  -2   3    1.33    2.93
   5   2  -3    2.62    1.68
   5   2  -3    5.67    1.60
   5   2  -3    1.31    2.64
   5   2  -2  112.04   13.25
  -5  -2   2   89.81   12.68
   5   2  -2  109.09    8.22
  -5  -2   2  104.56   13.09
   5   2  -1  244.52   21.78
   5   2  -1  210.92   15.46
  -5  -2   1  241.24   22.52
   5   2  -1  246.86   15.83
  -5  -2   1  202.69   20.88
   5   2   0  233.17   21.97
   5   2   0  231.63   16.25
  -5  -2   0  246.77   23.27
   5   2   0  246.63   16.38
  -5  -2   0  225.20   22.31
  -5  -2  -1  141.30   15.62
  -5  -2  -1  102.50   13.94
   5   2   1  121.68    8.88
   5   2   1  123.37    9.02
   5   2   1  121.71    9.04
   5   2   1  115.88   13.68
  -5  -2  -1  137.96   15.80
   5   2   1  137.04    9.17
   5   2   1  117.17    8.91
   5   2   1  104.19    8.71
  -5  -2  -2  558.23   47.99
  -5  -2  -2  709.20   49.82
   5   2   2  625.53   40.63
   5   2   2  649.73   40.77
   5   2   2  660.26   46.32
   5   2   2  606.28   40.59
   5   2   2  626.49   40.70
   5   2   3  154.60   11.06
   5   2   3  163.73   11.16
   5   2   3  143.04   10.95
   5   2   3  154.27   11.06
   5   2   3  117.61   14.93
  -5  -2  -3  140.45   17.53
   5   2   4    1.72    1.73
   5   2   4    3.01    2.02
   5   2   4    2.75    2.03
   5   2   4    0.75    1.84
   5   2   4   -1.31    3.33
  -5  -2  -4   -3.68    4.38
  -5  -2  -5   20.40    3.73
   5   2   5   20.17    3.05
   5   2   5   16.19    2.87
  -5  -2  -5   11.16    2.65
   5   2   5   19.83    3.17
  -5  -2  -6    3.18    2.57
   5   2   6    1.03    1.94
   5   2   6   -1.30    2.10
  -5  -2  -6   -0.32    1.93
   5   2   6    0.79    2.35
  -5  -2  -7   54.70    5.65
   5   2   7   56.22    5.29
   5   2   7   56.65    5.13
  -5  -2  -7   44.46    5.15
   5   2   7   64.60    5.56
  -5  -2  -8    5.01    2.33
   5   2   8    4.37    2.06
   5   2   8    3.09    1.77
  -5  -2  -8    2.06    1.84
   5   2   8    3.77    2.25
  -5  -2  -9   39.65    4.16
   5   2   9   42.55    3.89
  -5  -2  -9   30.87    3.85
   5   2   9   40.29    3.90
   5   2  10   11.33    1.80
  -5  -2 -10   10.47    1.94
   5   2  10   12.16    1.93
   5   3 -14    1.31    1.64
   5   3 -14    0.55    1.23
   5   3 -13  273.83   17.93
   5   3 -13  264.89   18.19
   5   3 -13  248.40   17.61
   5   3 -12  278.28   20.88
   5   3 -12  290.11   20.74
   5   3 -11    8.26    2.73
   5   3 -11    8.02    2.64
   5   3 -10  291.48   19.98
   5   3 -10  276.40   19.40
   5   3  -9   82.61    7.83
   5   3  -9   86.60    7.34
   5   3  -9  103.48    7.81
   5   3  -9   90.89    7.36
   5   3  -8   87.41   14.46
   5   3  -8   84.26    7.20
  -5  -3   8   75.17   12.50
   5   3  -8   94.91    8.01
   5   3  -8  103.19    7.76
   5   3  -7   -1.45    3.20
  -5  -3   7   -1.68    2.62
  -5  -3   7   -1.69    3.73
   5   3  -7    0.30    2.02
  -5  -3   7    2.10    5.67
   5   3  -7    2.02    4.81
   5   3  -7    0.27    1.87
   5   3  -6  647.03   45.74
  -5  -3   6  467.57   44.94
  -5  -3   6  591.86   46.45
   5   3  -6  577.87   38.63
   5   3  -6  607.89   38.44
  -5  -3   6  535.83   48.00
   5   3  -6  689.02   49.71
  -5  -3   5  331.39   32.11
  -5  -3   5  348.47   32.01
   5   3  -5  404.16   25.65
   5   3  -5  375.07   31.14
   5   3  -5  368.02   25.47
   5   3  -5  360.46   32.08
   5   3  -5  397.87   25.60
   5   3  -5  377.02   25.29
  -5  -3   4  627.85   49.38
   5   3  -4  653.40   42.02
   5   3  -4  653.29   42.36
   5   3  -4  643.69   49.35
  -5  -3   4  637.71   50.14
  -5  -3   4  570.85   48.61
   5   3  -4  671.56   42.43
   5   3  -3  112.01    9.01
   5   3  -3  114.42   14.29
  -5  -3   3  112.30   14.87
   5   3  -3  130.22    9.24
  -5  -3   3  107.09   14.39
  -5  -3   2  136.70   16.03
   5   3  -2  133.26    9.95
   5   3  -2  128.21    9.74
   5   3  -2  133.45   10.13
   5   3  -2  160.68   16.35
  -5  -3   2  118.52   15.68
   5   3  -2  140.50   10.19
   5   3  -2  145.13    9.85
  -5  -3   1  286.69   26.24
   5   3  -1  268.55   19.00
   5   3  -1  253.10   18.78
   5   3  -1  295.65   19.30
   5   3  -1  293.60   25.76
  -5  -3   1  304.85   26.75
   5   3  -1  307.92   19.33
   5   3  -1  288.20   18.89
  -5  -3   0  159.53   17.54
   5   3   0  171.06   10.87
  -5  -3   0  157.67   17.48
   5   3   0  140.06   10.39
   5   3   0  149.16   10.62
   5   3   0  142.04   10.67
   5   3   0  113.54   15.03
   5   3   0  127.45   10.33
   5   3   0  148.36   10.45
   5   3   0  143.43   10.33
   5   3   1  808.32   51.16
   5   3   1  812.91   51.03
  -5  -3  -1  833.48   59.75
   5   3   1  773.05   51.03
   5   3   1  772.10   50.99
  -5  -3  -1  806.58   59.82
  -5  -3  -1  811.12   59.11
   5   3   2   -0.25    1.77
   5   3   2    1.88    1.87
   5   3   2    0.49    1.78
   5   3   2    1.43    1.71
  -5  -3  -2   -1.73    3.47
  -5  -3  -2   -3.17    3.50
   5   3   3   48.44    4.56
   5   3   3   43.99    4.51
   5   3   3   43.00    4.48
   5   3   3   36.44    4.27
   5   3   3   41.95    8.03
  -5  -3  -3   36.38    8.44
   5   3   4   24.08    3.25
   5   3   4   23.14    3.37
   5   3   4   24.67    3.43
   5   3   4   19.47    3.23
   5   3   5   86.43    6.95
   5   3   5   82.27    6.76
   5   3   5   71.30    6.66
   5   3   6  112.75    8.92
   5   3   6  120.73    8.90
   5   3   6  116.66    8.84
  -5  -3  -6  102.40    9.27
   5   3   7   20.28    3.27
   5   3   7   20.02    2.85
   5   3   7   19.41    2.92
  -5  -3  -7   16.33    3.17
  -5  -3  -8  195.37   14.60
   5   3   8  234.18   14.57
   5   3   8  208.58   14.36
  -5  -3  -8  193.94   14.83
  -5  -3  -9   54.20    4.94
   5   3   9   68.48    5.02
   5   3   9   54.40    4.70
  -5  -3  -9   55.48    5.14
  -5  -3 -10    2.17    1.04
   5   3  10    4.31    1.23
   5   3  10    1.27    0.90
   5   4 -14   60.96    5.15
   5   4 -14   64.69    5.34
   5   4 -13   -0.20    1.63
   5   4 -13    0.26    1.80
   5   4 -13   -0.24    1.69
   5   4 -13   -0.47    1.71
   5   4 -12  357.68   23.40
   5   4 -12  370.24   23.73
   5   4 -12  322.37   23.65
   5   4 -11  261.97   18.04
   5   4 -11  278.11   18.36
   5   4 -11  244.86   18.38
   5   4 -10   36.32    4.25
   5   4 -10   30.85    3.93
   5   4 -10   35.70    4.26
   5   4 -10   38.50    4.83
   5   4  -9   86.81    7.76
   5   4  -9   95.87    8.24
   5   4  -9   95.11    7.45
   5   4  -8  563.84   38.59
   5   4  -8  596.82   38.79
   5   4  -8  595.11   38.48
  -5  -4   7  445.51   45.41
  -5  -4   7  429.32   44.83
   5   4  -7  623.18   38.91
   5   4  -7  584.19   45.95
  -5  -4   7  566.32   49.48
   5   4  -7  623.19   49.47
   5   4  -7  624.48   38.71
  -5  -4   6   31.15    7.90
  -5  -4   6   38.96    8.87
   5   4  -6   52.12    9.08
   5   4  -6   57.47    5.47
   5   4  -6   56.88    5.04
  -5  -4   6   39.37   10.37
  -5  -4   5  701.96   54.77
  -5  -4   5  597.12   52.59
   5   4  -5  709.85   46.35
  -5  -4   5  613.68   53.22
   5   4  -5  613.45   51.56
   5   4  -5  766.87   46.41
   5   4  -5  725.04   46.34
   5   4  -5  633.45   53.10
   5   4  -5  742.98   46.40
   5   4  -5  707.71   45.98
  -5  -4   4   -1.67    3.68
   5   4  -4    2.62    1.87
   5   4  -4    2.15    1.90
   5   4  -4   -0.28    1.94
   5   4  -4    1.53    3.38
  -5  -4   4   -1.60    3.23
   5   4  -4    1.71    1.92
   5   4  -4    0.67    1.61
  -5  -4   3    1.59    3.20
   5   4  -3    3.62    2.17
   5   4  -3    1.51    3.32
   5   4  -3    4.44    2.06
  -5  -4   3    4.90    4.41
   5   4  -3   -0.29    1.90
   5   4  -2   20.14    2.84
  -5  -4   2    9.60    5.00
   5   4  -2   24.80    3.45
  -5  -4   2   24.04    6.61
   5   4  -2   31.30    3.15
   5   4  -2   21.22    3.14
   5   4  -2   23.30    3.29
   5   4  -2   26.71    6.96
   5   4  -2   23.58    3.21
   5   4  -2   25.85    3.02
   5   4  -1  173.56   13.50
   5   4  -1  175.97   13.44
  -5  -4   1  211.90   21.34
   5   4  -1  211.07   14.03
  -5  -4   1  172.78   20.04
   5   4  -1  188.57   13.74
   5   4  -1  199.74   13.62
   5   4  -1  203.87   13.96
   5   4  -1  155.58   18.89
   5   4  -1  219.60   14.05
   5   4  -1  200.32   13.61
   5   4   0   55.01    5.41
   5   4   0   56.53    5.38
   5   4   0   65.29    5.77
  -5  -4   0   77.45   12.17
  -5  -4   0   62.90   10.91
   5   4   0   58.21    5.51
   5   4   0   73.88    5.70
   5   4   0   66.30    5.74
   5   4   0   52.38    9.42
   5   4   0   65.09    5.65
   5   4   0   60.78    5.39
   5   4   1  218.96   15.19
   5   4   1  229.27   15.11
   5   4   1  191.70   14.80
   5   4   1  214.88   15.08
   5   4   1  223.51   15.09
  -5  -4  -1  235.18   23.36
  -5  -4  -1  212.64   22.17
   5   4   2  105.79    8.21
   5   4   2  119.05    8.27
   5   4   2   92.03    7.88
   5   4   2   98.79    8.07
   5   4   2   99.35    8.04
  -5  -4  -2  125.69   15.73
  -5  -4  -2   86.67   13.62
   5   4   3   34.74    4.10
   5   4   3   36.36    4.22
   5   4   3   39.34    4.14
   5   4   3   37.98    4.28
   5   4   3   41.98    4.35
   5   4   4   11.35    2.61
   5   4   4   12.75    2.70
   5   4   4   11.00    2.45
   5   4   4   10.44    2.81
  -5  -4  -5   10.22    2.84
   5   4   5    8.23    2.42
   5   4   5    9.70    2.48
   5   4   5   11.28    2.83
  -5  -4  -6  165.31   13.26
   5   4   6  168.76   12.72
   5   4   6  190.11   12.90
   5   4   6  197.64   13.05
  -5  -4  -7    2.96    2.20
   5   4   7    2.60    1.53
   5   4   7    5.17    1.88
   5   4   7    2.31    2.01
  -5  -4  -8  158.45   12.51
   5   4   8  177.05   12.10
   5   4   8  188.70   12.24
   5   4   9   66.43    5.19
   5   4   9   74.45    5.36
   5   5 -14   44.11    4.11
   5   5 -14   52.37    4.26
   5   5 -13   44.96    4.28
   5   5 -13   45.09    4.43
   5   5 -13   43.12    4.31
   5   5 -12   44.46    4.33
   5   5 -12   48.78    4.73
   5   5 -12   41.63    4.71
   5   5 -11   43.68    4.39
   5   5 -11   49.50    4.83
   5   5 -11   43.68    5.13
   5   5 -10   67.80    5.98
   5   5 -10   62.03    6.33
   5   5 -10   74.50    6.29
   5   5 -10   74.48    6.77
   5   5  -9   11.95    2.79
   5   5  -9    6.69    2.71
   5   5  -9   11.37    2.61
   5   5  -9   14.22    3.19
   5   5  -8   81.47    7.58
   5   5  -8   88.42    7.50
   5   5  -8   88.91    7.76
   5   5  -7  243.93   16.97
   5   5  -7  234.37   16.84
   5   5  -7  231.45   16.62
  -5  -5   6   44.46   11.04
  -5  -5   6   46.41    9.83
   5   5  -6   52.66    5.69
  -5  -5   6   67.81   11.58
   5   5  -6   47.59    9.00
   5   5  -6   61.62    5.82
   5   5  -6   55.73    5.68
   5   5  -6   68.48    5.80
  -5  -5   5  467.08   40.45
   5   5  -5  482.56   31.96
   5   5  -5  519.51   31.88
   5   5  -5  465.59   31.76
  -5  -5   5  563.05   41.92
   5   5  -5  459.14   31.78
   5   5  -5  477.62   31.43
  -5  -5   4  241.63   23.88
   5   5  -4  200.91   15.53
  -5  -5   4  229.60   23.24
   5   5  -4  241.11   15.47
   5   5  -4  230.57   15.56
   5   5  -4  180.10   21.11
   5   5  -4  227.04   15.59
   5   5  -4  192.25   14.80
  -5  -5   3    8.49    4.84
   5   5  -3    4.12    2.30
  -5  -5   3   10.28    5.12
   5   5  -3    3.22    2.25
   5   5  -3    3.87    2.31
   5   5  -3    6.51    4.40
   5   5  -3    7.28    2.09
   5   5  -3    4.81    2.43
   5   5  -3    4.02    1.71
   5   5  -2   24.77    3.39
   5   5  -2   25.90    3.29
  -5  -5   2   31.37    7.46
   5   5  -2   28.43    3.75
  -5  -5   2   22.35    6.94
   5   5  -2   30.11    3.49
   5   5  -2   21.71    3.44
   5   5  -2   29.36    3.73
   5   5  -2   33.69    7.40
   5   5  -2   26.15    3.57
   5   5  -2   24.47    3.22
   5   5  -1  102.90    7.78
   5   5  -1   93.30    7.71
   5   5  -1  100.29    8.05
  -5  -5   1   93.88   13.72
  -5  -5   1  103.79   13.85
   5   5  -1   91.58    7.83
   5   5  -1  109.21    7.93
   5   5  -1   90.57    7.83
   5   5  -1  104.60    8.04
   5   5  -1   99.29    7.71
   5   5   0  216.58   16.38
  -5  -5   0  232.98   24.24
  -5  -5   0  229.02   23.65
   5   5   0  227.98   16.30
   5   5   0  243.00   16.19
   5   5   0  229.11   16.29
   5   5   0  236.93   16.13
   5   5   0  229.64   16.15
   5   5   0  235.99   16.15
   5   5   1    5.49    2.35
   5   5   1    3.46    2.23
   5   5   1    1.78    1.96
   5   5   1    3.14    2.11
   5   5   1    3.25    2.05
  -5  -5  -1    1.81    4.00
  -5  -5  -1    3.45    3.81
   5   5   2    3.14    2.10
   5   5   2    4.53    2.21
   5   5   2    3.87    2.03
   5   5   2    2.17    2.10
   5   5   2    3.24    2.26
   5   5   3   84.14    6.88
   5   5   3   77.49    6.72
   5   5   3   74.19    6.69
   5   5   3   79.60    6.86
   5   5   3   88.81    6.94
   5   5   4   61.04    5.46
   5   5   4   58.02    5.42
   5   5   4   55.69    5.33
   5   5   4   60.21    5.56
  -5  -5  -5   36.27    4.51
   5   5   5   37.18    4.04
   5   5   5   38.80    4.06
   5   5   5   38.29    4.03
   5   5   5   39.51    4.19
  -5  -5  -6  131.22   11.41
   5   5   6  164.15   11.16
   5   5   6  162.86   11.15
   5   5   6  163.41   11.24
  -5  -5  -7  191.63   14.22
   5   5   7  202.22   13.74
   5   5   7  211.05   13.85
   5   5   8   13.07    1.89
   5   6 -13  224.84   15.34
   5   6 -12    4.23    1.88
   5   6 -12    1.55    1.91
   5   6 -11   62.83    5.63
   5   6 -11   64.10    5.98
   5   6 -11   58.52    5.67
   5   6 -10   17.22    2.86
   5   6 -10   16.31    3.29
   5   6 -10   14.85    3.04
   5   6 -10   13.97    3.06
   5   6  -9  135.76   10.42
   5   6  -9  129.67   10.24
   5   6  -9  125.43   10.26
   5   6  -8   55.20    5.53
   5   6  -8   52.62    5.45
   5   6  -8   50.69    5.55
   5   6  -7   78.21    6.84
   5   6  -7   78.09    6.71
   5   6  -7   68.78    6.77
   5   6  -6    3.86    2.10
   5   6  -6    4.06    2.39
   5   6  -6    3.60    2.25
   5   6  -6    4.09    2.54
   5   6  -6    2.21    2.08
   5   6  -5   17.26    3.40
   5   6  -5   18.56    3.26
   5   6  -5   16.61    3.30
   5   6  -5   23.44    3.56
   5   6  -5   18.14    2.84
   5   6  -5   20.62    3.09
   5   6  -4    1.05    2.20
  -5  -6   4    1.78    3.20
  -5  -6   4    1.80    4.30
   5   6  -4   -0.84    1.99
   5   6  -4    3.81    2.54
   5   6  -4    3.51    4.46
   5   6  -4    1.65    2.32
   5   6  -4    1.17    1.80
   5   6  -3   16.40    3.27
   5   6  -3   20.21    3.29
   5   6  -3   24.75    3.67
   5   6  -3    8.65    5.05
   5   6  -3   19.32    3.36
   5   6  -3   16.95    2.95
   5   6  -3   15.26    2.79
   5   6  -2  305.87   19.98
   5   6  -2  307.18   19.88
   5   6  -2  288.66   20.38
  -5  -6   2  307.53   28.87
  -5  -6   2  244.14   26.52
   5   6  -2  279.16   20.15
   5   6  -2  214.56   25.87
   5   6  -2  300.63   19.92
   5   6  -2  300.26   20.31
   5   6  -2  280.88   20.05
   5   6  -1   21.22    3.25
   5   6  -1   22.65    3.19
   5   6  -1   24.21    3.38
   5   6  -1   21.23    3.51
   5   6  -1   20.90    3.48
   5   6  -1   17.48    3.29
   5   6  -1   17.58    3.11
   5   6  -1   25.78    3.37
   5   6   0  244.41   16.03
   5   6   0  208.85   15.96
   5   6   0  204.51   16.11
   5   6   0  208.71   15.96
   5   6   0  227.06   15.94
   5   6   0  250.19   16.02
   5   6   0  248.45   16.05
   5   6   1  104.44    8.36
   5   6   1  108.66    8.30
   5   6   1  102.59    8.30
   5   6   1  116.91    8.49
   5   6   1   93.57    8.40
   5   6   2   54.22    5.19
   5   6   2   49.10    4.95
   5   6   2   50.80    5.04
   5   6   2   44.02    5.06
   5   6   3   30.06    3.77
   5   6   3   35.12    3.80
   5   6   3   31.87    3.72
   5   6   3   29.11    3.74
   5   6   3   32.55    3.79
  -5  -6  -4   16.20    2.93
   5   6   4   17.63    2.79
   5   6   4   20.44    2.83
   5   6   4   12.83    2.55
   5   6   4   18.51    2.93
  -5  -6  -5  217.81   17.11
   5   6   5  261.45   16.89
   5   6   5  265.76   16.89
   5   6   5  234.00   16.87
   5   6   5  261.68   16.91
  -5  -6  -6   23.88    2.96
   5   6   6   20.18    2.64
   5   6   6   22.08    2.56
   5   6   6   20.50    2.58
   5   6   7  103.70    7.39
   5   7 -13   23.09    2.58
   5   7 -12   21.35    2.77
   5   7 -12   22.86    3.04
   5   7 -11   75.67    6.30
   5   7 -11   79.33    6.66
   5   7 -11   78.47    6.57
   5   7 -11   74.77    6.55
   5   7 -10   95.27    7.83
   5   7 -10   82.54    7.64
   5   7 -10  106.06    8.05
   5   7  -9   43.71    4.82
   5   7  -9   41.94    4.82
   5   7  -9   43.56    4.96
   5   7  -8  283.01   20.37
   5   7  -8  309.12   20.67
   5   7  -7   29.59    4.06
   5   7  -7   24.71    3.80
   5   7  -7   29.21    4.02
   5   7  -6   41.06    5.10
   5   7  -6   54.36    5.48
   5   7  -6   49.00    4.99
   5   7  -6   42.92    5.01
   5   7  -6   50.52    5.14
   5   7  -5   10.31    2.65
   5   7  -5   15.21    2.92
   5   7  -5    8.27    3.00
   5   7  -5    9.12    2.90
   5   7  -4  354.58   23.20
   5   7  -4  302.46   23.41
   5   7  -4  316.23   23.25
   5   7  -4  328.09   23.41
   5   7  -4  355.60   23.04
   5   7  -4  375.54   23.06
   5   7  -3  489.65   31.58
   5   7  -3  451.51   31.87
   5   7  -3  432.24   31.56
   5   7  -3  431.71   31.59
   5   7  -3  526.94   31.49
   5   7  -3  503.85   31.33
   5   7  -2   12.52    2.71
   5   7  -2    8.28    2.44
   5   7  -2    6.98    2.78
   5   7  -2    7.72    2.75
   5   7  -2    8.07    2.54
   5   7  -2    4.50    2.49
   5   7  -2   12.42    2.63
   5   7  -1  493.49   29.56
   5   7  -1  513.49   29.51
   5   7  -1  465.15   29.71
   5   7  -1  404.07   29.72
   5   7  -1  391.61   29.43
   5   7  -1  383.51   29.41
   5   7  -1  458.08   29.46
   5   7   0    7.50    2.25
   5   7   0    5.37    2.37
   5   7   0    6.20    2.32
   5   7   0    3.64    2.41
   5   7   0    7.39    2.44
   5   7   1   33.62    3.88
   5   7   1   31.56    3.77
   5   7   1   25.59    3.49
   5   7   1   30.25    3.90
   5   7   1   30.91    3.77
   5   7   2   -0.25    1.98
   5   7   2    1.16    1.84
   5   7   2    2.20    1.85
   5   7   2    4.70    2.14
   5   7   2    2.19    2.06
   5   7   3  142.41   10.43
   5   7   3  146.84   10.35
   5   7   3  132.61   10.20
   5   7   3  148.73   10.35
   5   7   4   28.84    3.34
   5   7   4   31.73    3.33
   5   7   4   34.01    3.34
   5   7   4   30.93    3.32
   5   7   5   72.41    5.90
   5   7   5   82.40    5.79
   5   7   5   70.57    5.73
   5   7   6   37.08    3.31
   5   8 -12   18.04    2.47
   5   8 -11    1.08    1.61
   5   8 -11    1.82    1.69
   5   8 -10  116.46    9.31
   5   8 -10  129.04    9.51
   5   8  -9   55.63    5.39
   5   8  -9   54.72    5.47
   5   8  -8   33.59    4.28
   5   8  -8   44.55    4.66
   5   8  -7    5.27    2.54
   5   8  -7    8.91    2.50
   5   8  -7   12.18    2.92
   5   8  -6    0.60    1.95
   5   8  -6   -0.57    1.99
   5   8  -6    0.26    1.73
   5   8  -6    0.33    2.39
   5   8  -5    3.69    2.11
   5   8  -5    3.68    2.73
   5   8  -5    5.05    2.08
   5   8  -4    3.34    2.23
   5   8  -4   -1.07    2.00
   5   8  -4    0.62    2.27
   5   8  -4    1.32    2.47
   5   8  -4    0.49    1.88
   5   8  -3  367.86   24.23
   5   8  -3  313.31   24.39
   5   8  -3  326.50   24.21
   5   8  -3  343.61   24.36
   5   8  -3  403.31   24.12
   5   8  -3  383.32   24.12
   5   8  -2   71.21    5.67
   5   8  -2   52.71    5.64
   5   8  -2   53.70    5.68
   5   8  -2   64.21    5.97
   5   8  -2   61.87    5.59
   5   8  -2   59.36    5.43
   5   8  -1  144.97   12.08
   5   8  -1  162.56   12.36
   5   8  -1  186.92   12.16
   5   8  -1  175.91   12.25
   5   8  -1  169.19   12.14
   5   8   0   88.46    7.30
   5   8   0   88.83    7.11
   5   8   0   88.79    6.98
   5   8   0   83.93    6.99
   5   8   1    1.42    2.00
   5   8   1    1.08    1.71
   5   8   1    1.00    1.62
   5   8   1   -0.68    1.85
   5   8   2   48.66    4.58
   5   8   2   53.95    4.70
   5   8   2   47.96    4.44
   5   8   2   46.85    4.40
   5   8   3   32.64    3.47
   5   8   3   32.73    3.36
   5   8   3   38.83    3.44
   5   8   4   43.61    3.88
   5   8   5   18.38    2.07
   5   9 -11   25.02    2.86
   5   9 -10   26.29    3.21
   5   9  -9  115.38    8.58
   5   9  -9  106.38    8.55
   5   9  -8    5.83    2.10
   5   9  -8    7.19    2.26
   5   9  -7   38.70    4.15
   5   9  -7   36.78    4.01
   5   9  -7   37.65    4.30
   5   9  -6   34.95    4.27
   5   9  -6   33.56    3.92
   5   9  -5   37.53    4.48
   5   9  -5   34.29    4.10
   5   9  -5   39.35    4.17
   5   9  -4   56.71    5.64
   5   9  -4   65.38    5.69
   5   9  -4   57.62    5.97
   5   9  -4   62.99    5.44
   5   9  -3  107.77    9.72
   5   9  -3  142.09    9.96
   5   9  -3  120.08    9.98
   5   9  -3  152.59    9.87
   5   9  -2   58.32    6.04
   5   9  -2   67.20    6.24
   5   9  -2   77.59    6.40
   5   9  -2   87.89    6.18
   5   9  -2   70.03    6.01
   5   9  -1    4.88    2.17
   5   9  -1    4.55    1.93
   5   9  -1    3.79    1.77
   5   9  -1    5.60    1.85
   5   9   0   32.66    3.78
   5   9   0   36.98    3.61
   5   9   0   30.24    3.40
   5   9   0   35.79    3.61
   5   9   1    0.75    1.58
   5   9   1    3.85    1.70
   5   9   1   -0.17    1.40
   5   9   1    0.47    1.30
   5   9   2  107.96    8.36
   5   9   2  127.72    8.33
   5   9   2  115.62    8.31
   5   9   3   11.45    1.75
   5  10 -10   54.56    4.54
   5  10  -9    9.41    1.87
   5  10  -8   40.86    3.89
   5  10  -7   22.58    3.05
   5  10  -6   21.66    3.06
   5  10  -6   20.73    2.77
   5  10  -5   15.73    2.81
   5  10  -5   15.84    2.54
   5  10  -5   12.46    2.35
   5  10  -4  295.48   20.94
   5  10  -4  338.17   20.82
   5  10  -4  295.73   20.81
   5  10  -3    3.23    1.97
   5  10  -3    4.08    1.92
   5  10  -3    4.57    1.71
   5  10  -2   51.59    4.68
   5  10  -2   55.04    4.57
   5  10  -2   48.29    4.54
   5  10  -1   16.96    2.27
   5  10  -1   15.76    2.40
   5  10   0   31.25    2.94
   5  10   0   27.15    2.98
   5  10   1   59.93    4.61
   5  11  -7    4.38    1.42
   5  11  -6   76.60    6.07
   5  11  -5  106.72    7.65
   5  11  -5   97.10    7.31
   5  11  -4   15.62    2.30
   5  11  -4   18.23    2.23
   5  11  -3    6.07    1.51
   5  11  -3    3.20    1.45
   5  11  -2    4.57    1.38
  -6  11   1    7.40    1.31
   6 -11  -1    7.11    1.26
  -6  11   0   64.58    4.89
  -6  11   0   70.60    4.97
   6 -11   0   61.35    4.89
   6 -11   1   21.00    2.13
  -6  11  -1   19.14    2.16
  -6  11  -1   21.08    2.20
   6 -11   1   17.16    2.05
   6 -11   2   95.53    6.86
  -6  11  -2  107.33    6.98
  -6  11  -2  101.36    6.96
   6 -11   2   83.62    6.75
   6 -11   3   20.74    2.35
  -6  11  -3   25.59    2.49
  -6  11  -3   25.04    2.44
   6 -11   4    2.49    1.07
  -6  11  -4    0.46    0.84
  -6  11  -4    0.59    0.93
  -6  10   4    1.20    1.09
  -6  10   4   -0.81    1.03
   6 -10  -4   -0.42    0.91
  -6  10   3   -0.28    1.33
   6 -10  -3    1.24    1.07
  -6  10   2  109.17    7.82
   6 -10  -2  105.66    7.68
   6 -10  -1   95.66    6.59
  -6  10   1   83.09    6.49
  -6  10   1   84.95    6.60
  -6  10   1   86.68    6.51
   6 -10  -1   88.99    6.58
   6 -10   0    6.15    1.72
  -6  10   0    7.54    1.75
  -6  10   0    6.32    1.68
  -6  10   0    9.24    1.73
   6 -10   0    7.32    1.79
   6 -10   1   97.72    6.96
  -6  10  -1   89.32    6.87
  -6  10  -1   86.98    6.83
   6 -10   2   26.78    3.08
  -6  10  -2   28.07    3.07
  -6  10  -2   28.71    3.06
   6 -10   3    6.26    1.77
  -6  10  -3    4.19    1.57
  -6  10  -3    6.15    1.60
   6 -10   4    7.23    1.79
  -6  10  -4    9.37    1.67
  -6  10  -4    6.34    1.63
   6 -10   5   71.29    5.58
  -6  10  -6   42.22    3.83
   6 -10   6   44.02    3.72
  -6  10  -7    1.87    1.05
  -6   9   6    1.12    1.25
   6  -9  -6    1.82    1.03
  -6   9   5    1.99    1.29
   6  -9  -5    0.13    1.09
  -6   9   4   18.73    2.54
   6  -9  -4   26.28    2.68
  -6   9   3  110.87    9.31
   6  -9  -3  156.03    9.52
  -6   9   2    4.22    1.92
   6  -9  -2    4.11    1.65
   6  -9  -2    5.52    1.87
   6  -9  -1   72.79    5.61
  -6   9   1   59.80    5.29
  -6   9   1   58.52    5.33
   6  -9  -1   70.50    5.54
   6  -9   0   63.33    5.33
  -6   9   0   60.17    5.15
  -6   9   0   54.05    5.05
   6  -9   1   22.42    3.04
  -6   9  -1   21.23    3.03
  -6   9  -1   20.21    2.84
   6  -9   2    0.67    1.80
  -6   9  -2    3.42    1.79
  -6   9  -2   -0.87    1.91
   6  -9   3   76.51    5.85
  -6   9  -3   64.28    5.50
  -6   9  -3   62.37    5.49
  -6   9  -3   58.93    5.59
   6  -9   4  230.27   15.77
  -6   9  -4  229.72   15.58
  -6   9  -4  223.55   15.83
  -6   9  -4  231.72   15.62
  -6   9  -5    1.11    1.42
   6  -9   5   -0.20    1.49
  -6   9  -6   58.92    5.03
   6  -9   6   55.38    4.77
  -6   9  -7    2.77    1.51
  -6   9  -8   -0.47    1.10
   6  -8  -7   35.09    3.13
   6  -8  -6    3.57    1.49
  -6   8   5   15.90    2.41
   6  -8  -5   17.86    2.51
   6  -8  -4    5.00    1.71
   6  -8  -4    2.98    1.79
   6  -8  -3   81.82    6.41
   6  -8  -3   73.76    6.25
   6  -8  -2  158.27    9.95
  -6   8   2  116.39    9.34
  -6   8   2  103.09    9.24
   6  -8  -2  159.80    9.81
   6  -8  -1   37.10    4.04
  -6   8   1   34.32    3.78
  -6   8   1   29.31    3.54
   6  -8   0   13.08    2.78
  -6   8   0   10.51    2.48
  -6   8   0   13.56    2.58
   6  -8   1    0.25    1.98
  -6   8  -1   -1.67    1.93
  -6   8  -1    0.24    1.88
  -6   8  -2   14.54    2.62
   6  -8   2   14.49    2.93
  -6   8  -2   17.16    2.94
  -6   8  -2   14.69    2.78
  -6   8  -3    1.34    1.65
   6  -8   3   -0.25    1.94
  -6   8  -3   -0.47    1.77
  -6   8  -3    0.95    1.84
  -6   8  -4  162.19   12.29
  -6   8  -4  191.74   12.78
   6  -8   5   61.29    5.26
  -6   8  -5   55.19    5.26
   6  -8   6   67.48    5.82
  -6   8  -6   71.79    5.96
   6  -8   7   44.73    4.22
  -6   8  -7   45.68    4.34
  -6   8  -8   19.10    2.13
   6  -8   8   14.29    2.20
  -6   8  -8   15.74    2.33
  -6   8  -9   33.77    2.95
  -6   8  -9   34.45    3.12
   6  -8   9   30.40    2.99
   6  -7  -8   76.70    5.72
   6  -7  -7   13.18    2.14
   6  -7  -6    0.37    1.65
   6  -7  -5   38.60    4.02
   6  -7  -5   40.17    3.98
   6  -7  -4  155.61   10.77
   6  -7  -4  138.44   10.52
   6  -7  -3   -0.24    1.95
   6  -7  -3    0.44    1.99
  -6   7   2  427.09   30.04
  -6   7   2  407.68   30.01
   6  -7  -2  490.31   30.27
   6  -7  -1   34.35    4.19
  -6   7   1   26.33    3.58
  -6   7   1   32.15    3.67
   6  -7   0    6.07    2.38
  -6   7   0    8.37    2.33
   6  -7   1   13.24    2.90
  -6   7  -1   11.08    2.60
   6  -7   2  211.75   15.22
  -6   7  -2  205.20   15.05
  -6   7  -2  204.61   15.10
   6  -7   2  241.35   15.33
  -6   7  -3  138.21   10.70
   6  -7   3  150.92   10.98
  -6   7  -3  151.43   10.88
   6  -7   4   27.34    3.59
  -6   7  -4   23.41    3.29
   6  -7   5  128.69    9.55
  -6   7  -5  116.03    9.30
   6  -7   6   18.10    3.02
  -6   7  -6   19.55    2.86
  -6   7  -7    1.41    1.41
   6  -7   7    0.46    1.83
  -6   7  -7    2.63    1.71
  -6   7  -8   10.30    1.83
   6  -7   8    8.65    2.10
  -6   7  -8    9.60    2.05
  -6   7  -9  181.60   11.46
  -6   7  -9  160.50   11.57
   6  -7   9  157.95   11.55
   6  -6  -9   11.26    1.80
   6  -6  -8  204.09   13.84
   6  -6  -7  105.57    7.91
   6  -6  -6  137.05    9.94
   6  -6  -6  135.90   10.03
   6  -6  -5    4.56    2.08
   6  -6  -5    3.15    2.09
   6  -6  -4  277.04   19.17
   6  -6  -4  292.36   19.52
   6  -6  -3  812.87   54.01
   6  -6  -3  881.03   54.43
  -6   6   2    7.25    2.46
   6  -6  -2   10.76    2.43
   6  -6  -2   11.63    2.88
   6  -6  -1   55.61    4.93
  -6   6   1   41.20    4.53
   6  -6  -1   40.54    4.78
  -6   6   0  125.28    9.58
   6  -6   0  133.18    9.76
   6  -6   0  119.95    9.69
  -6   6  -1  334.13   23.09
   6  -6   1  309.70   23.08
   6  -6   2    2.49    2.28
  -6   6  -2    3.12    2.08
   6  -6   2    0.52    1.85
   6  -6   3  275.38   17.96
  -6   6  -3  237.59   17.43
   6  -6   4   89.71    7.68
   6  -6   5    1.13    2.27
  -6   6  -6    1.87    1.66
   6  -6   6    4.38    2.33
  -6   6  -7    0.25    1.57
  -6   6  -7    0.65    1.95
  -6   6  -7   -0.95    1.60
   6  -6   7    0.26    1.99
  -6   6  -8  294.18   19.18
  -6   6  -8  320.10   18.99
   6  -6   8  281.47   19.23
  -6   6  -9    0.20    1.26
  -6   6  -9    3.04    1.83
  -6   6  -9    0.95    1.33
   6  -6   9    1.37    1.54
  -6   6 -10   79.22    6.61
   6  -6  10   80.78    6.62
   6  -5 -10   34.06    3.14
   6  -5  -9  232.25   15.59
   6  -5  -8   62.64    5.22
   6  -5  -8   61.76    5.31
   6  -5  -7    9.35    2.13
   6  -5  -7    9.25    2.35
   6  -5  -6   64.36    5.86
   6  -5  -6   80.01    6.33
   6  -5  -5   91.91    7.57
   6  -5  -5  103.31    7.94
   6  -5  -4   17.63    2.97
   6  -5  -4   12.80    2.50
   6  -5  -4   15.78    3.01
   6  -5  -3  165.11   12.58
   6  -5  -3  201.37   12.82
  -6   5   3  160.64   12.26
   6  -5  -2    1.31    2.02
   6  -5  -2    0.53    2.00
  -6   5   2    1.91    1.80
   6  -5  -1   18.49    3.08
   6  -5  -1   17.52    3.11
  -6   5   1   18.38    2.86
   6  -5   0   18.23    3.11
   6  -5   0   23.90    3.48
  -6   5   0   23.69    3.20
   6  -5   1  283.97   21.19
   6  -5   1  351.92   21.84
  -6   5  -1  320.27   21.35
   6  -5   2  214.79   15.39
  -6   5  -2  213.12   15.04
   6  -5   3   30.10    4.08
  -6   5  -3   31.07    3.65
   6  -5   4   23.32    3.82
  -6   5  -5   12.55    2.60
   6  -5   5   12.38    2.95
  -6   5  -6    3.45    1.91
  -6   5  -6    3.20    2.46
   6  -5   6   -0.29    2.24
  -6   5  -6    2.23    1.68
  -6   5  -7   18.45    3.49
  -6   5  -7   26.08    2.93
   6  -5   7   15.17    3.03
  -6   5  -8  152.67   11.27
  -6   5  -8  146.24   11.93
   6  -5   8  134.73   11.34
  -6   5  -9   65.51    5.44
  -6   5  -9   62.02    5.99
   6  -5   9   53.99    5.40
  -6   5 -10   18.63    2.08
   6  -5  10   13.94    2.07
  -6   5 -10   12.48    1.90
   6  -4 -11   71.51    5.34
   6  -4 -10    2.86    1.43
   6  -4  -9   14.14    2.35
   6  -4  -9    9.48    2.08
   6  -4  -8   43.87    4.28
   6  -4  -8   37.09    3.88
   6  -4  -7  110.33    8.65
   6  -4  -7  127.65    8.81
   6  -4  -7   99.99    8.27
   6  -4  -6    1.05    2.25
   6  -4  -6    6.20    2.43
   6  -4  -6    3.03    1.77
   6  -4  -5  231.75   16.87
   6  -4  -5  253.61   16.95
   6  -4  -4    8.88    2.44
   6  -4  -4    3.20    2.16
   6  -4  -3   98.43    7.92
   6  -4  -3   80.92   12.24
  -6   4   3   84.87   13.10
   6  -4  -3  104.12    8.05
  -6   4   2   59.04   10.45
   6  -4  -2   60.21    5.58
  -6   4   2   45.55    9.58
   6  -4  -2   68.27    5.77
   6  -4  -2   58.87    9.63
   6  -4  -1   44.65    4.50
  -6   4   1   36.81    8.48
   6  -4  -1   50.79    4.87
   6  -4  -1   30.36    7.01
   6  -4   0   57.79    5.41
  -6   4   0   63.51   10.62
   6  -4   0   72.41    6.03
   6  -4   0   59.04    9.94
   6  -4   0   48.59    8.70
   6  -4   1    0.85    2.08
   6  -4   1    3.97    3.77
   6  -4   1    1.38    2.77
   6  -4   2  477.48   34.62
   6  -4   2  464.17   34.52
   6  -4   2  392.23   26.99
  -6   4  -3    8.78    2.39
   6  -4   3    6.16    2.56
  -6   4  -4   12.30    2.59
   6  -4   4    6.83    2.58
  -6   4  -5   17.63    3.02
  -6   4  -5   13.45    3.19
   6  -4   5   13.35    3.17
  -6   4  -6  149.31   10.93
  -6   4  -6  132.37   11.17
  -6   4  -7  187.29   12.70
  -6   4  -7  151.17   12.86
  -6   4  -8   31.44    3.53
  -6   4  -8   22.33    3.82
  -6   4  -9   84.72    6.84
  -6   4  -9   96.85    6.67
   6  -4   9   79.97    6.78
  -6   4  -9   79.15    7.34
  -6   4 -10    7.72    1.54
   6  -3 -11  216.25   14.45
   6  -3 -10   10.40    2.21
   6  -3 -10   14.52    2.39
   6  -3 -10   14.16    2.17
   6  -3  -9   40.76    4.42
   6  -3  -9   51.59    4.71
   6  -3  -9   46.77    4.32
   6  -3  -8    1.78    2.08
   6  -3  -8    3.33    2.23
   6  -3  -8   -0.83    1.70
   6  -3  -7  294.03   19.93
   6  -3  -7  285.44   19.81
   6  -3  -6  434.13   28.82
   6  -3  -6  431.00   28.74
   6  -3  -5   41.78    4.44
   6  -3  -5   32.54    4.07
  -6   3   4  390.38   34.95
   6  -3  -4  405.59   27.13
  -6   3   4  357.25   33.89
   6  -3  -4  418.42   27.05
   6  -3  -4  398.52   26.85
  -6   3   3  101.76   15.30
   6  -3  -3  126.61    9.71
  -6   3   3  121.75   16.19
   6  -3  -3  143.77   10.12
  -6   3   2  455.91   39.13
   6  -3  -2  456.44   30.87
  -6   3   2  476.85   39.63
   6  -3  -2  485.40   31.20
   6  -3  -2  482.77   37.43
  -6   3   1  151.70   17.71
   6  -3  -1  139.95   10.74
   6  -3  -1  157.37   16.44
   6  -3   0  656.89   46.35
   6  -3   0  595.95   39.72
   6  -3   0  613.95   45.53
   6  -3   1 1197.77   75.70
   6  -3   1 1109.41   74.84
   6  -3   1 1030.06   68.27
  -6   3  -2   36.49    4.21
   6  -3   2   35.48    3.93
  -6   3  -2   17.46    6.42
   6  -3   2   31.57    6.80
   6  -3   2   40.07    7.59
  -6   3  -2   35.09    9.48
   6  -3   2   30.14    3.90
  -6   3  -3    6.99    2.59
  -6   3  -3    6.94    2.57
  -6   3  -3    1.86    3.76
   6  -3   3    1.36    3.25
   6  -3   3    5.48    3.27
  -6   3  -3    9.06    6.12
   6  -3   3    2.87    2.04
  -6   3  -4   26.53    3.58
  -6   3  -4   18.20    3.38
   6  -3   4   19.46    3.34
  -6   3  -5  520.58   30.36
  -6   3  -5  474.08   30.48
  -6   3  -6    1.93    2.36
  -6   3  -6    2.33    2.82
  -6   3  -7  366.17   24.34
  -6   3  -7  346.05   24.72
  -6   3  -8   19.66    3.09
  -6   3  -8   26.72    3.88
  -6   3  -9    1.20    1.54
  -6   3  -9    4.48    2.18
  -6   3 -10    1.46    1.25
  -6   3 -10    0.94    1.16
   6  -2 -12  294.66   19.19
   6  -2 -11    3.19    1.63
   6  -2 -11    6.32    1.55
   6  -2 -10    0.69    1.77
   6  -2 -10    1.58    1.83
   6  -2  -9   95.60    7.80
   6  -2  -9   95.02    7.67
   6  -2  -8  368.96   24.44
   6  -2  -8  352.58   24.22
   6  -2  -7   96.96    7.79
   6  -2  -7   89.18    7.55
   6  -2  -6  240.71   16.23
   6  -2  -6  218.04   15.93
  -6   2   5  221.44   25.73
  -6   2   5  294.52   27.31
   6  -2  -5  296.54   19.56
   6  -2  -5  280.48   19.28
  -6   2   4   36.60    8.83
  -6   2   4   31.69    7.79
   6  -2  -4   46.22    4.54
   6  -2  -4   40.85    4.41
   6  -2  -4   41.32    4.19
  -6   2   3   65.30   11.11
   6  -2  -3   66.73    5.94
  -6   2   3   41.98    9.43
   6  -2  -3   66.77    5.86
   6  -2  -3   63.84    5.45
  -6   2   2  141.04   17.06
   6  -2  -2  158.01   10.51
  -6   2   2   99.74   14.97
   6  -2  -2  120.87    9.94
  -6   2   1  981.76   78.61
  -6   2   1 1101.82   79.82
   6  -2  -1 1236.61   71.21
   6  -2  -1 1024.20   70.72
   6  -2  -1 1141.44   76.91
  -6   2   0   13.75    5.65
   6  -2   0   11.99    4.54
   6  -2   0   19.33    2.92
   6  -2   0   11.87    2.60
  -6   2  -1  788.78   68.74
   6  -2   1 1016.80   61.83
   6  -2   1 1027.55   68.12
  -6   2  -1 1059.17   62.06
   6  -2   1  939.44   67.63
  -6   2  -1 1060.99   74.03
   6  -2   1  851.12   61.45
  -6   2  -2  212.11   25.60
   6  -2   2  299.86   19.45
  -6   2  -2  295.83   19.75
   6  -2   2  293.28   25.22
   6  -2   2  311.36   25.72
  -6   2  -2  311.36   19.82
  -6   2  -2  272.11   29.01
   6  -2   2  241.80   19.21
  -6   2  -3    3.80    2.47
  -6   2  -3   -1.92    3.45
   6  -2   3    1.34    3.41
   6  -2   3    2.66    2.94
  -6   2  -3   -2.24    4.50
   6  -2   3    1.10    1.90
  -6   2  -3    0.96    1.96
  -6   2  -4   45.45    5.33
   6  -2   4   42.82    4.73
  -6   2  -4   55.21    5.20
  -6   2  -5  457.64   31.02
  -6   2  -5  455.56   30.70
  -6   2  -6  314.96   23.20
  -6   2  -6  348.07   23.04
  -6   2  -7   18.14    3.66
  -6   2  -7   18.69    3.22
  -6   2  -8    8.93    2.73
  -6   2  -8    9.83    2.51
  -6   2  -9   31.23    3.88
   6  -2   9   24.69    3.02
  -6   2  -9   28.62    3.37
   6  -2  10    8.89    1.62
   6  -2  10    9.91    1.80
  -6   2 -10    7.14    1.67
   6  -1 -12   68.00    5.44
   6  -1 -11    6.30    1.99
   6  -1 -10  162.04   11.99
   6  -1 -10  166.92   11.91
   6  -1  -9   62.03    6.22
   6  -1  -9   75.96    6.25
   6  -1  -8   99.52    7.83
   6  -1  -8   95.50    7.81
   6  -1  -8   85.45    7.53
   6  -1  -7  124.04   10.22
   6  -1  -7  141.54   10.44
   6  -1  -7  140.63   10.23
   6  -1  -6   10.84    2.62
   6  -1  -6    9.06    2.40
  -6   1   5    3.58    4.26
  -6   1   5   -1.70    3.06
   6  -1  -5    4.58    2.16
   6  -1  -5    3.10    1.88
  -6   1   4    1.74    3.86
  -6   1   4   11.84    5.29
   6  -1  -4    6.91    2.03
   6  -1  -4    5.50    2.16
   6  -1  -4    8.04    2.04
  -6   1   3  151.78   18.17
   6  -1  -3  150.91   11.69
   6  -1  -3  176.26   12.04
  -6   1   3  166.60   18.93
  -6   1   2  148.25   18.68
   6  -1  -2  176.91   12.87
   6  -1  -2  192.67   13.19
  -6   1   2  169.34   19.63
  -6   1   1  398.57   38.18
   6  -1  -1  449.78   31.22
  -6   1   1  451.51   38.76
   6  -1  -1  529.34   31.72
  -6   1   1  487.28   39.75
  -6   1   0   72.87    6.26
  -6   1   0   61.94   10.80
  -6   1   0   61.94   10.90
   6  -1   0   71.22    6.15
   6  -1   0   69.44    6.02
   6  -1   1  184.12   19.14
  -6   1  -1  197.95   14.63
   6  -1   1  188.25   19.02
  -6   1  -1  191.68   22.71
  -6   1  -1  166.08   20.74
   6  -1   1  230.74   14.73
   6  -1   2   98.01   12.19
   6  -1   2   75.49   10.95
  -6   1  -2   82.04   13.50
  -6   1  -2   91.49    7.90
  -6   1  -2   92.57   14.81
  -6   1  -2   99.57    7.92
   6  -1   3   19.98    5.97
   6  -1   3   27.32    6.40
  -6   1  -3   37.36    9.49
  -6   1  -3   35.24    4.42
  -6   1  -3   31.29    8.49
  -6   1  -3   35.97    4.13
  -6   1  -4   11.02    3.18
  -6   1  -4   12.59    2.91
  -6   1  -5  147.40   11.96
  -6   1  -5  153.44   11.71
  -6   1  -6  135.16   11.31
  -6   1  -6  146.09   11.05
  -6   1  -7    0.38    2.41
   6  -1   7    1.95    1.87
  -6   1  -7   -0.95    2.00
  -6   1  -8   25.80    3.71
   6  -1   8   22.62    3.11
  -6   1  -8   24.98    3.45
   6  -1   9    7.93    1.80
   6  -1   9    8.99    1.99
  -6   1  -9    9.47    2.14
   6  -1  10   73.17    5.62
   6  -1  10   73.27    5.58
  -6   1 -10   73.66    5.81
   6   0 -13    1.62    1.04
   6   0 -13    2.95    1.44
   6   0 -13    0.91    1.06
   6   0 -12    9.81    1.96
   6   0 -11   15.88    2.56
   6   0 -10   26.10    3.62
   6   0 -10   27.71    3.59
   6   0  -9  225.84   16.47
   6   0  -9  242.72   16.44
   6   0  -8   -1.42    2.21
   6   0  -8    2.01    2.13
   6   0  -8   -1.57    2.11
   6   0  -7  669.43   46.38
   6   0  -7  748.99   46.64
   6   0  -7  731.81   46.34
  -6   0   6   40.40    8.95
  -6   0   6   29.76    7.64
   6   0  -6   33.83    3.89
   6   0  -6   31.28    3.87
   6   0  -6   27.40    3.54
  -6   0   5    3.55    3.57
   6   0  -5    2.24    1.71
  -6   0   5   -1.74    3.50
   6   0  -5    1.30    1.89
  -6   0   4    1.72    4.10
  -6   0   4    5.13    4.07
   6   0  -4    4.35    2.11
   6   0  -4    1.76    1.88
   6   0  -4    1.62    2.92
  -6   0   3  179.38   19.40
   6   0  -3  158.44   12.11
  -6   0   3  168.30   19.10
   6   0  -3  184.49   12.57
  -6   0   2  621.95   52.05
  -6   0   2  635.94   51.87
   6   0  -2  724.66   44.68
  -6   0   2  600.55   51.63
  -6   0   1   47.40    9.29
  -6   0   1   49.15    9.42
  -6   0   1   38.55    8.62
   6   0  -1   57.45    5.20
  -6   0   0  235.38   25.76
   6   0   0  282.36   18.99
   6   0   1  182.35   17.28
  -6   0  -1  141.19   11.66
   6   0   1  166.65   18.31
  -6   0  -1  147.34   19.09
  -6   0  -1  152.86   18.73
   6   0   1  176.72   11.85
   6   0   2  111.86   13.41
   6   0   2   96.05   12.18
  -6   0  -2  112.17   16.13
  -6   0  -2  113.19    8.73
  -6   0  -2   85.45   14.01
  -6   0  -3   14.94    6.73
  -6   0  -3   15.66    3.41
  -6   0  -3   16.96    3.00
  -6   0  -4  158.35   12.45
  -6   0  -4  157.95   12.01
  -6   0  -5   19.27    3.91
  -6   0  -5   19.05    3.28
  -6   0  -6    7.33    2.83
   6   0   6    6.88    2.17
  -6   0  -6    8.53    2.68
   6   0   6    5.40    2.25
  -6   0  -7   18.12    3.25
   6   0   7   12.02    2.52
   6   0   7   11.68    2.64
  -6   0  -7   16.07    2.94
  -6   0  -8   14.34    2.94
   6   0   8   20.09    2.65
   6   0   8   15.99    2.60
  -6   0  -8    9.90    2.44
   6   0   9   84.74    6.40
   6   0   9   83.54    6.39
  -6   0  -9   79.23    6.60
   6   0  10    3.85    1.13
   6   0  10    3.42    1.14
  -6   0 -10    4.89    1.28
   6   1 -13    2.09    1.24
   6   1 -13    4.52    1.73
   6   1 -13    2.22    1.21
   6   1 -12   42.14    4.02
   6   1 -11  442.94   29.20
   6   1 -10  181.44   13.30
   6   1 -10  188.57   13.28
   6   1  -9  319.49   20.83
   6   1  -9  300.81   20.66
   6   1  -9  288.54   20.48
   6   1  -8  738.29   47.15
   6   1  -8  718.90   47.01
   6   1  -8  717.40   46.86
   6   1  -7   43.32    4.52
   6   1  -7   47.26    4.80
   6   1  -7   39.40    4.24
  -6  -1   6   14.36    5.66
   6   1  -6    9.81    2.42
   6   1  -6   19.17    3.06
  -6  -1   6   18.04    6.34
  -6  -1   5  187.28   21.09
   6   1  -5  203.94   14.32
  -6  -1   5  203.14   21.71
  -6  -1   5  191.33   22.58
   6   1  -5  192.10   13.96
   6   1  -5  199.70   14.10
  -6  -1   4  572.66   50.83
  -6  -1   4  554.50   50.74
   6   1  -4  689.94   43.91
   6   1  -4  699.31   43.60
   6   1  -4  648.73   51.72
  -6  -1   3   13.06    5.37
  -6  -1   3   11.76    5.52
  -6  -1   3   23.50    6.64
   6   1  -3   12.29    2.59
   6   1  -3   14.14    2.44
   6   1  -3   21.17    6.45
   6   1  -2  488.75   40.68
  -6  -1   2  473.68   40.45
  -6  -1   2  455.27   40.73
  -6  -1   2  495.45   40.93
   6   1  -2  522.92   33.37
  -6  -1   1  108.72   16.30
   6   1  -1  146.01   10.68
   6   1  -1  144.52   17.00
  -6  -1   0  106.39   14.98
   6   1   0  120.36    8.72
   6   1   0  115.72   14.69
   6   1   0   97.52    8.37
  -6  -1  -1   24.16    7.47
   6   1   1   26.82    3.43
  -6  -1  -2  221.39   26.46
   6   1   2  296.26   19.55
   6   1   3  539.07   36.12
   6   1   3  563.70   36.30
  -6  -1  -4   11.30    3.25
   6   1   4    9.53    2.56
   6   1   4    9.61    2.37
  -6  -1  -4   14.52    2.86
   6   1   4   12.96    2.76
  -6  -1  -5  158.80   11.49
   6   1   5  129.34   10.36
   6   1   5  140.55   10.55
  -6  -1  -5  123.91   10.60
   6   1   5  152.76   10.69
  -6  -1  -6  180.01   14.01
  -6  -1  -6  201.51   14.57
   6   1   6  185.51   13.68
   6   1   6  210.52   13.95
  -6  -1  -6  170.06   13.84
   6   1   6  213.35   13.80
  -6  -1  -7  107.00    8.69
   6   1   7  108.92    8.13
   6   1   7  110.36    8.05
  -6  -1  -7   86.97    8.11
   6   1   7  101.82    7.93
   6   1   8   29.14    3.42
   6   1   8   26.92    3.25
  -6  -1  -8   32.56    3.59
   6   1   8   37.83    3.53
   6   1   9  165.19   10.58
   6   1   9  145.07   10.48
  -6  -1  -9  134.46   10.65
   6   1   9  161.99   10.56
   6   2 -13   19.27    2.38
   6   2 -13   23.70    2.80
   6   2 -13   19.43    2.47
   6   2 -12    2.76    1.78
   6   2 -12    1.60    1.75
   6   2 -11  187.23   13.20
   6   2 -10  599.57   38.49
   6   2 -10  569.42   38.46
   6   2 -10  634.46   38.77
   6   2 -10  562.64   38.74
   6   2  -9   66.62    5.76
   6   2  -9   77.30    6.19
   6   2  -9   59.76    5.75
   6   2  -9   53.96    6.01
   6   2  -8  291.94   20.72
   6   2  -8  319.76   21.52
   6   2  -8  336.20   21.33
   6   2  -8  293.61   20.84
   6   2  -7   -0.32    2.09
   6   2  -7   -1.16    2.49
   6   2  -6  195.27   14.00
   6   2  -5  298.04   21.41
   6   2  -5  316.54   21.23
  -6  -2   5  289.40   28.76
  -6  -2   5  249.51   27.93
   6   2  -5  341.33   21.65
   6   2  -4  228.98   16.94
   6   2  -4  239.55   24.17
   6   2  -4  254.54   16.70
  -6  -2   4  182.83   22.76
  -6  -2   4  235.01   24.18
   6   2  -4  249.34   17.06
  -6  -2   3  122.85   16.27
   6   2  -3  135.81   10.28
   6   2  -3  129.66   10.17
   6   2  -3  125.02   16.21
  -6  -2   2    1.79    3.62
   6   2  -2    5.39    2.24
   6   2  -2    4.83    2.37
   6   2  -2    8.23    4.92
  -6  -2   1    1.82    3.65
   6   2  -1    1.18    1.92
   6   2  -1    1.79    2.01
   6   2  -1    1.62    3.27
   6   2  -1    0.80    1.90
  -6  -2   0   24.12    7.66
   6   2   0   44.70    4.49
   6   2   0   35.20    4.38
   6   2   0   32.02    7.59
   6   2   0   41.41    4.42
   6   2   1  166.15   12.08
  -6  -2  -1  179.15   20.49
   6   2   1  152.51   11.75
   6   2   1  170.34   12.13
   6   2   2  102.44    8.24
   6   2   2  106.81    8.44
   6   2   3  220.15   15.42
   6   2   3  204.91   15.25
   6   2   3  213.08   15.28
   6   2   3  238.02   15.63
  -6  -2  -4   94.49    8.57
   6   2   4   95.71    7.84
   6   2   4   86.39    7.65
   6   2   4  108.99    8.07
   6   2   4   98.54    7.79
  -6  -2  -5    3.32    2.44
   6   2   5    1.57    2.26
   6   2   5    3.31    2.12
   6   2   5    3.08    2.16
   6   2   5    1.49    2.23
  -6  -2  -6   21.40    3.40
  -6  -2  -6   17.68    3.16
   6   2   6   16.77    2.96
   6   2   6   18.57    2.90
   6   2   6   24.57    3.15
  -6  -2  -7   13.27    2.63
   6   2   7   11.72    2.27
   6   2   7   10.10    2.21
  -6  -2  -7   13.06    2.44
   6   2   7   14.61    2.49
   6   2   8  121.24    8.15
   6   2   8  107.19    8.03
  -6  -2  -8   93.34    8.11
   6   2   8  121.04    8.16
   6   2   9   10.53    1.55
   6   2   9   13.19    1.70
  -6  -2  -9    8.31    1.58
   6   2   9   13.01    1.75
   6   3 -13    0.61    1.15
   6   3 -13    0.20    1.49
   6   3 -13    0.90    1.37
   6   3 -12   34.67    3.68
   6   3 -12   42.48    4.07
   6   3 -11    5.00    2.00
   6   3 -11    5.89    2.15
   6   3 -11    6.23    2.11
   6   3 -10  110.39    8.45
   6   3 -10  114.84    8.76
   6   3 -10  102.98    8.90
   6   3  -9    5.89    2.11
   6   3  -9    5.94    2.75
   6   3  -9    7.28    2.52
   6   3  -8  200.09   14.65
   6   3  -8  204.49   14.49
   6   3  -8  189.20   14.41
   6   3  -7    5.22    2.43
   6   3  -7    7.90    2.76
   6   3  -6    1.39    2.06
   6   3  -6    0.98    2.69
   6   3  -5  460.26   30.65
   6   3  -5  473.85   30.69
   6   3  -5  470.03   30.35
   6   3  -5  424.65   30.48
  -6  -3   4   -1.87    4.11
   6   3  -4    3.24    2.18
   6   3  -4    5.40    2.48
   6   3  -4    0.49    1.74
   6   3  -4    1.60    2.22
   6   3  -4   -1.73    3.12
   6   3  -3   98.55    8.26
   6   3  -3   68.54   12.32
  -6  -3   3  111.70   15.30
   6   3  -3  103.37    8.39
   6   3  -3   99.50    8.25
   6   3  -2  100.06    8.32
   6   3  -2   82.83   13.14
   6   3  -2  106.49    8.40
  -6  -3   2   89.23   13.97
   6   3  -2   97.80    8.26
  -6  -3   1    8.87    5.21
   6   3  -1   23.22    3.51
   6   3  -1   22.39    3.50
   6   3  -1   19.20    3.38
  -6  -3   1   14.89    5.95
   6   3  -1   23.26    3.35
  -6  -3   0    7.34    4.40
   6   3   0    9.91    2.55
   6   3   0    9.81    4.44
   6   3   0    5.55    2.39
   6   3   0    9.93    2.66
   6   3   0    6.52    2.28
  -6  -3   0   13.13    5.87
   6   3   0   10.93    2.56
   6   3   1   48.84    4.97
   6   3   1   51.08    4.88
   6   3   1   45.84    4.79
   6   3   1   44.89    4.63
   6   3   2  173.41   12.91
   6   3   2  186.96   12.86
   6   3   2  178.02   12.84
   6   3   2  167.85   12.66
   6   3   3   42.22    4.54
   6   3   3   41.54    4.52
   6   3   3   40.93    4.56
   6   3   3   42.14    4.47
   6   3   4  104.31    8.71
   6   3   4  127.39    9.01
   6   3   4  107.91    8.80
   6   3   4  110.68    8.75
  -6  -3  -4  115.69    9.51
   6   3   5   15.08    2.88
   6   3   5   13.07    2.77
   6   3   5   16.10    2.81
  -6  -3  -5   15.25    3.05
   6   3   6   22.57    3.22
   6   3   6   27.72    3.21
   6   3   6   23.07    3.11
  -6  -3  -6   21.07    3.30
   6   3   7   15.24    2.38
   6   3   7   13.45    2.16
   6   3   7    7.89    1.97
  -6  -3  -7   11.73    2.36
   6   3   8  146.33    9.73
   6   3   8  134.64    9.63
   6   3   8  138.98    9.65
   6   4 -13    5.96    1.59
   6   4 -13    6.50    1.52
   6   4 -13    7.42    1.60
   6   4 -12   58.88    5.06
   6   4 -12   74.98    5.54
   6   4 -12   57.64    5.39
   6   4 -12   60.40    5.42
   6   4 -11  205.78   15.14
   6   4 -11  216.93   14.97
   6   4 -11  235.38   15.33
   6   4 -11  219.01   15.48
   6   4 -10    0.77    1.99
   6   4 -10    1.22    2.31
   6   4 -10    3.01    2.13
   6   4  -9   22.49    3.88
   6   4  -9   24.97    3.71
   6   4  -9   26.94    3.82
   6   4  -8   18.46    3.65
   6   4  -8   18.83    3.35
   6   4  -8   19.62    3.40
   6   4  -7  100.21    7.79
   6   4  -7   82.18    7.76
   6   4  -6   61.59    6.02
   6   4  -6   55.17    6.00
   6   4  -6   66.87    5.91
   6   4  -6   65.07    6.18
   6   4  -5  257.42   18.38
   6   4  -5  278.92   18.51
   6   4  -5  238.76   17.83
   6   4  -5  269.21   18.36
   6   4  -5  261.40   18.33
   6   4  -4  288.63   20.40
   6   4  -4  287.75   20.27
   6   4  -4  295.96   20.59
   6   4  -4  302.22   20.50
   6   4  -3   21.49    3.37
   6   4  -3   27.65    3.85
   6   4  -3   23.62    3.78
   6   4  -3   27.79    3.84
   6   4  -2   58.64    6.26
   6   4  -2   71.51    6.48
   6   4  -2   77.61    6.57
   6   4  -2   69.17    6.24
   6   4  -1  383.88   26.01
   6   4  -1  370.14   25.73
   6   4  -1  373.89   26.16
   6   4  -1  406.04   26.27
   6   4  -1  415.80   26.25
   6   4  -1  377.66   25.68
   6   4   0  312.16   21.10
   6   4   0  314.74   20.99
   6   4   0  312.21   21.29
   6   4   0  321.30   21.06
   6   4   0  301.92   21.33
   6   4   0  312.96   21.34
   6   4   0  324.93   21.36
   6   4   0  284.42   20.84
   6   4   1   -2.02    2.47
   6   4   1    2.79    2.24
   6   4   1    0.81    2.14
   6   4   1    1.27    2.06
   6   4   2  365.89   25.20
   6   4   2  392.36   25.11
   6   4   2  360.34   25.10
   6   4   2  377.62   25.09
   6   4   3   93.17    7.87
   6   4   3  108.23    7.99
   6   4   3   99.91    7.91
   6   4   3   89.42    7.72
   6   4   4   10.85    2.54
   6   4   4    9.36    2.54
   6   4   4    9.81    2.46
   6   4   4   10.38    2.54
   6   4   5    2.56    1.99
   6   4   5    0.66    1.81
   6   4   5    1.50    1.94
  -6  -4  -5    1.47    2.03
   6   4   6   42.85    3.90
   6   4   6   36.18    3.72
   6   4   6   42.09    3.83
  -6  -4  -6   31.49    3.99
   6   4   7  203.12   13.45
   6   4   7  201.11   13.41
   6   4   7  193.14   13.35
   6   5 -12   32.96    3.46
   6   5 -12   37.02    3.70
   6   5 -11   76.98    6.16
   6   5 -11   77.26    6.48
   6   5 -11   69.35    6.13
   6   5 -10   38.98    4.35
   6   5 -10   33.83    4.25
   6   5  -9  156.41   11.55
   6   5  -9  146.46   11.33
   6   5  -9  148.14   11.39
   6   5  -8   22.24    3.77
   6   5  -8   25.41    3.72
   6   5  -8   24.39    3.86
   6   5  -7  222.09   15.38
   6   5  -7  207.36   15.04
   6   5  -7  202.61   15.22
   6   5  -6  368.55   26.58
   6   5  -6  392.34   26.64
   6   5  -6  410.31   26.36
   6   5  -6  420.03   26.72
   6   5  -6  368.91   26.41
   6   5  -5   29.58    4.09
   6   5  -5   34.28    4.41
   6   5  -5   28.10    3.65
   6   5  -5   33.17    4.22
   6   5  -5   30.49    4.03
   6   5  -4   42.30    4.58
   6   5  -4   35.75    4.53
   6   5  -4   31.76    4.46
   6   5  -3   80.82    6.72
   6   5  -3   71.82    6.86
   6   5  -3   74.06    6.92
   6   5  -3   81.47    7.04
   6   5  -3   68.84    6.53
   6   5  -2   81.52    6.86
   6   5  -2   74.36    6.89
   6   5  -2   73.06    6.79
   6   5  -2   71.26    6.77
   6   5  -2   75.66    6.33
   6   5  -1   68.80    5.86
   6   5  -1   66.33    5.71
   6   5  -1   64.01    5.74
   6   5  -1   52.03    5.79
   6   5  -1   52.16    5.88
   6   5  -1   63.72    6.00
   6   5  -1   70.53    6.17
   6   5  -1   61.93    5.67
   6   5   0  298.78   18.81
   6   5   0  279.61   18.94
   6   5   0  253.39   18.88
   6   5   0  240.08   18.65
   6   5   0  279.68   18.74
   6   5   0  281.65   18.63
   6   5   0  267.07   18.58
   6   5   1  235.74   15.95
   6   5   1  247.86   15.95
   6   5   1  190.65   15.58
   6   5   1  247.14   16.01
   6   5   1  223.60   16.03
   6   5   2    4.84    2.35
   6   5   2    5.50    2.16
   6   5   2    8.57    2.14
   6   5   2    4.03    2.28
   6   5   2    7.45    2.53
   6   5   3   50.72    4.89
   6   5   3   46.02    4.81
   6   5   3   48.14    4.80
   6   5   3   53.17    4.83
   6   5   4   10.79    2.38
   6   5   4    6.07    2.18
   6   5   4    7.28    2.09
  -6  -5  -4    5.87    2.23
   6   5   5  155.00   10.21
   6   5   5  145.57   10.11
   6   5   5  150.46   10.12
   6   5   6   40.32    3.52
   6   5   6   33.15    3.32
   6   5   6   38.42    3.40
   6   5   7   51.89    4.04
   6   6 -12   86.41    6.71
   6   6 -11   12.91    2.45
   6   6 -11   11.74    2.30
   6   6 -10   32.89    3.82
   6   6 -10   30.54    3.73
   6   6 -10   30.83    3.76
   6   6  -9   16.88    3.01
   6   6  -9   11.66    2.91
   6   6  -9   18.64    3.09
   6   6  -8  197.61   14.29
   6   6  -8  203.31   14.26
   6   6  -8  194.45   14.40
   6   6  -7   27.30    3.80
   6   6  -7   32.23    3.90
   6   6  -7   32.73    4.13
   6   6  -6   98.97    8.49
   6   6  -6   97.86    8.42
   6   6  -6   99.73    8.05
   6   6  -6   89.72    8.08
   6   6  -6  115.51    8.57
   6   6  -5   68.39    6.56
   6   6  -5   81.74    6.74
   6   6  -5   64.07    6.64
   6   6  -5   77.78    6.87
   6   6  -4    7.89    2.36
   6   6  -4    8.10    2.80
   6   6  -4    9.04    3.10
   6   6  -4    3.93    2.17
   6   6  -3    2.28    2.22
   6   6  -3   -1.41    2.23
   6   6  -3    1.28    2.14
   6   6  -3    2.30    2.64
   6   6  -3    2.78    1.93
   6   6  -2   31.88    4.16
   6   6  -2   38.90    4.49
   6   6  -2   33.42    4.33
   6   6  -2   36.41    4.34
   6   6  -2   32.98    3.97
   6   6  -2   34.74    3.78
   6   6  -1  323.68   20.43
   6   6  -1  317.75   20.30
   6   6  -1  306.31   20.55
   6   6  -1  278.76   20.61
   6   6  -1  259.46   20.31
   6   6  -1  300.73   20.56
   6   6  -1  299.59   20.28
   6   6   0    2.50    2.07
   6   6   0    2.57    1.95
   6   6   0    5.02    2.47
   6   6   0    3.05    2.40
   6   6   0    2.73    1.93
   6   6   1   23.00    3.19
   6   6   1   21.60    3.08
   6   6   1   17.88    3.16
   6   6   1   16.06    2.97
   6   6   1   19.03    2.92
   6   6   2    8.16    2.23
   6   6   2    8.54    2.11
   6   6   2    2.17    2.23
   6   6   2    8.40    2.26
   6   6   2    5.78    2.05
   6   6   3    4.25    1.84
   6   6   3    3.72    1.99
   6   6   3    3.48    1.90
   6   6   3    6.79    1.86
   6   6   3    3.81    1.77
  -6  -6  -3    2.03    1.79
   6   6   4   36.51    3.31
   6   6   4   27.19    3.13
   6   6   4   34.43    3.26
   6   6   4   24.62    2.91
  -6  -6  -4   26.73    3.31
   6   6   5   32.15    3.03
   6   6   5   29.85    2.93
   6   6   5   31.26    3.04
   6   7 -11    1.66    1.53
   6   7 -11    1.85    1.46
   6   7 -11    1.32    1.44
   6   7 -10   10.41    2.11
   6   7 -10    7.81    2.09
   6   7 -10    9.41    2.23
   6   7  -9   12.92    2.42
   6   7  -9    9.00    2.38
   6   7  -9    9.75    2.53
   6   7  -8  104.84    8.46
   6   7  -8  111.93    8.70
   6   7  -7  213.17   15.19
   6   7  -7  199.47   14.82
   6   7  -7  225.59   15.22
   6   7  -6    0.29    1.75
   6   7  -6    3.32    2.26
   6   7  -6    2.98    2.06
   6   7  -6    1.89    2.16
   6   7  -5   91.41    8.18
   6   7  -5  118.77    8.33
   6   7  -5   90.99    8.36
   6   7  -5  102.08    8.53
   6   7  -4   13.60    2.89
   6   7  -4   11.78    3.06
   6   7  -4   20.21    3.33
   6   7  -3    4.27    2.24
   6   7  -3    5.06    2.36
   6   7  -3    6.84    2.54
   6   7  -3    5.89    2.75
   6   7  -3    9.02    2.22
   6   7  -3    6.97    2.14
   6   7  -2   66.98    5.63
   6   7  -2   47.14    5.49
   6   7  -2   44.18    5.13
   6   7  -2   49.93    5.36
   6   7  -2   67.72    5.41
   6   7  -2   59.41    5.17
   6   7  -1  286.93   18.39
   6   7  -1  237.53   18.36
   6   7  -1  208.31   17.91
   6   7  -1  244.87   18.16
   6   7  -1  309.02   18.30
   6   7  -1  314.73   18.17
   6   7   0   53.28    5.74
   6   7   0   68.71    5.74
   6   7   0   74.80    5.75
   6   7   0   66.12    5.74
   6   7   1    6.81    2.24
   6   7   1    7.89    2.04
   6   7   1    4.45    1.78
   6   7   1    3.38    1.75
   6   7   2   -0.20    1.61
   6   7   2    0.96    1.56
   6   7   2    1.50    1.62
   6   7   2    1.94    1.67
   6   7   3   69.31    4.84
   6   7   3   57.74    4.60
   6   7   4  166.37   10.76
   6   7   4  174.52   10.74
   6   8 -10    7.86    1.76
   6   8 -10   10.06    1.94
   6   8  -9   85.19    6.89
   6   8  -9   91.85    7.04
   6   8  -8   16.18    2.56
   6   8  -8   18.40    2.78
   6   8  -7   97.85    8.13
   6   8  -7   94.94    7.79
   6   8  -7  120.20    8.29
   6   8  -6   51.98    5.39
   6   8  -6   55.21    5.18
   6   8  -6   56.95    5.13
   6   8  -5    3.41    2.29
   6   8  -5   -0.52    1.74
   6   8  -4    1.38    1.93
   6   8  -4    1.69    2.31
   6   8  -4    2.01    1.68
   6   8  -4    1.05    1.73
   6   8  -3   30.19    3.67
   6   8  -3   32.58    4.08
   6   8  -3   36.23    3.63
   6   8  -3   26.99    3.63
   6   8  -2  380.15   24.85
   6   8  -2  356.33   24.90
   6   8  -2  407.37   24.70
   6   8  -2  404.33   24.79
   6   8  -2  319.16   24.74
   6   8  -1    4.17    2.10
   6   8  -1    4.10    1.88
   6   8  -1    2.36    1.58
   6   8   0  112.30    8.79
   6   8   0  126.25    8.64
   6   8   0  117.14    8.68
   6   8   1   35.68    3.54
   6   8   1   33.48    3.37
   6   8   1   34.30    3.31
   6   8   2   54.11    4.52
   6   8   2   56.11    4.49
   6   8   2   55.71    4.41
   6   8   3    5.42    1.14
   6   8   3    3.85    1.05
   6   9  -9   41.50    3.75
   6   9  -8  100.05    7.45
   6   9  -7    1.27    1.55
   6   9  -6    1.81    1.73
   6   9  -6    3.46    1.47
   6   9  -5    1.62    1.76
   6   9  -5    2.33    1.47
   6   9  -4  126.54    8.96
   6   9  -4  111.09    8.54
   6   9  -4  115.61    8.71
   6   9  -3   44.82    4.28
   6   9  -3   48.49    4.50
   6   9  -3   49.10    4.22
   6   9  -3   50.46    4.44
   6   9  -2   27.53    3.32
   6   9  -2   38.49    3.36
   6   9  -1   32.40    3.28
   6   9  -1   29.07    2.99
   6   9   0   10.80    1.86
   6   9   0   10.26    1.72
   6   9   1    6.07    1.26
   6  10  -6   -2.30    1.36
   6  10  -5   13.62    2.10
   6  10  -4   19.64    2.51
   6  10  -4   20.81    2.26
   6  10  -3   20.01    2.26
   7  -9  -3   31.11    2.78
  -7   9   3   28.47    2.85
   7  -9  -3   34.58    2.86
   7  -9  -2   24.21    2.48
  -7   9   2   27.23    2.69
   7  -9  -2   26.97    2.65
   7  -9  -1   19.54    2.27
  -7   9   1   19.70    2.27
  -7   9   1   19.97    2.40
  -7   9   1   20.85    2.37
   7  -9  -1   27.10    2.54
   7  -9   0  167.33   11.77
  -7   9   0  162.49   11.88
  -7   9   0  167.78   11.91
  -7   9   0  175.29   11.99
  -7   9  -1   10.64    1.85
   7  -9   1   14.14    2.05
  -7   9  -1   14.97    2.07
  -7   9  -2   24.04    2.60
   7  -9   2   26.86    2.79
  -7   9  -2   23.28    2.68
  -7   9  -3    4.16    1.27
  -7   9  -3    1.33    1.21
   7  -9   3    4.27    1.39
   7  -9   4   43.47    3.63
   7  -8  -5   23.08    2.23
  -7   8   5   18.71    2.17
   7  -8  -4   11.28    1.80
  -7   8   4   12.59    1.96
   7  -8  -4   15.23    2.00
   7  -8  -3   13.23    1.94
   7  -8  -3   15.82    2.20
   7  -8  -2  189.30   12.69
  -7   8   2  173.13   12.67
  -7   8   2  165.70   12.65
  -7   8   1  120.63    9.43
  -7   8   1  124.68    9.53
  -7   8   0    6.27    1.82
   7  -8   0    5.66    1.93
  -7   8   0    5.24    1.79
  -7   8  -1   58.27    5.02
   7  -8   1   60.05    5.07
  -7   8  -1   56.87    5.02
  -7   8  -2   49.80    4.61
   7  -8   2   56.67    4.73
  -7   8  -2   55.01    4.73
  -7   8  -3   52.80    4.50
   7  -8   3   50.14    4.50
  -7   8  -3   53.13    4.54
   7  -8   4    2.20    1.26
   7  -8   5  225.35   15.12
   7  -8   6   14.26    1.88
   7  -7  -6   12.71    1.84
   7  -7  -6   17.92    2.06
   7  -7  -5    2.59    1.28
   7  -7  -5    2.18    1.34
   7  -7  -4    1.89    1.48
   7  -7  -4    3.60    1.65
   7  -7  -3   28.55    3.33
  -7   7   2   13.09    2.35
   7  -7  -2   19.23    2.85
  -7   7   2   14.35    2.35
  -7   7   1   52.67    5.09
  -7   7   1   57.62    5.21
  -7   7   0    3.28    1.88
   7  -7   0    4.02    2.01
  -7   7   0    3.59    1.91
  -7   7  -1   37.26    4.06
   7  -7   1   43.78    4.31
   7  -7   1   42.99    4.23
  -7   7  -1   41.04    4.23
  -7   7  -2    4.10    1.84
   7  -7   2    3.38    1.74
   7  -7   2    6.21    2.03
  -7   7  -2    4.68    1.90
  -7   7  -3   57.12    5.19
   7  -7   3   68.43    5.65
  -7   7  -3   62.11    5.32
   7  -7   4  124.46    9.25
   7  -7   5   48.78    4.44
   7  -7   6   54.38    4.68
   7  -7   7    2.30    1.25
   7  -6  -8    1.60    0.90
   7  -6  -7    0.66    1.09
   7  -6  -7    1.07    1.18
   7  -6  -6   13.29    2.03
   7  -6  -6   18.23    2.39
   7  -6  -5  227.37   15.58
   7  -6  -4   63.95    5.65
   7  -6  -3   45.23    4.56
  -7   6   3   37.07    4.19
   7  -6  -3   38.21    4.46
   7  -6  -2   35.36    3.99
   7  -6  -2   35.43    3.89
  -7   6   2   30.20    3.64
   7  -6  -2   31.89    3.88
   7  -6  -1   23.07    3.43
   7  -6  -1   30.65    3.54
  -7   6   1   26.43    3.38
   7  -6   0    4.05    2.08
   7  -6   0    7.77    2.46
  -7   6   0    8.30    2.37
   7  -6   1   11.57    2.47
   7  -6   1   17.09    2.93
  -7   6  -1   16.44    2.79
   7  -6   2   42.29    4.42
  -7   6  -2   40.21    4.18
   7  -6   2   33.97    4.19
   7  -6   3   33.88    3.82
  -7   6  -3   24.53    3.28
   7  -6   4  292.31   19.93
   7  -6   5   25.23    3.30
   7  -6   6   35.91    3.76
   7  -6   7    4.29    1.63
   7  -6   8   40.71    3.53
   7  -5  -8   -1.42    1.28
   7  -5  -7    6.27    1.83
   7  -5  -6    8.58    2.13
   7  -5  -5  427.61   29.00
   7  -5  -5  453.23   29.01
   7  -5  -4  435.58   29.69
   7  -5  -4  466.50   29.79
   7  -5  -3   67.55    5.95
   7  -5  -3   77.15    6.09
  -7   5   3   59.81    5.54
   7  -5  -3   59.69    5.95
   7  -5  -2  673.82   44.02
   7  -5  -2  763.79   44.30
  -7   5   2  662.34   43.90
   7  -5  -2  620.63   44.24
   7  -5  -1  168.02   13.34
   7  -5  -1  217.15   13.93
  -7   5   1  208.85   13.64
   7  -5  -1  170.90   13.73
   7  -5   0  124.30   10.28
   7  -5   0  160.98   10.92
  -7   5   0  148.56   10.56
   7  -5   0  134.13   10.80
   7  -5   1   10.60    2.78
  -7   5  -1    9.18    2.45
   7  -5   1    7.24    2.32
   7  -5   2  560.46   33.95
  -7   5  -2  514.12   33.51
   7  -5   2  464.74   33.62
   7  -5   3   67.41    6.26
   7  -5   4   50.11    5.01
   7  -5   5   52.91    5.08
   7  -5   6   20.12    2.91
   7  -5   7   63.50    5.31
   7  -5   8   23.85    2.60
   7  -4  -9   27.20    2.84
   7  -4  -8   24.88    2.94
   7  -4  -8   25.53    2.90
   7  -4  -7  101.61    7.25
   7  -4  -7   78.36    7.10
   7  -4  -7   89.94    7.08
   7  -4  -6  241.40   16.91
   7  -4  -6  250.79   16.96
   7  -4  -5    2.97    2.14
   7  -4  -5    4.79    2.21
   7  -4  -4  458.20   30.98
   7  -4  -4  423.85   31.13
   7  -4  -3  101.50    8.13
   7  -4  -3  125.00    8.62
  -7   4   3   95.25    7.93
   7  -4  -3   98.88    8.44
   7  -4  -2   89.41    8.04
   7  -4  -2  117.99    8.71
  -7   4   2  111.86    8.32
   7  -4  -2  102.03    8.57
   7  -4  -1   25.97    3.76
  -7   4   1   28.08    3.51
   7  -4  -1   23.03    3.65
   7  -4   0  144.17   11.45
  -7   4   0  151.34   11.23
   7  -4   0  163.09   11.74
   7  -4   1  288.95   20.46
  -7   4  -1  288.09   20.21
   7  -4   1  316.87   20.71
   7  -4   2  205.94   14.82
  -7   4  -2  213.66   14.60
   7  -4   2  198.41   14.73
   7  -4   3  172.40   12.74
   7  -4   4    9.75    2.57
   7  -4   5   29.10    3.67
   7  -4   6   16.60    2.65
  -7   4  -6   15.28    2.92
   7  -4   7   69.74    5.64
  -7   4  -7   67.83    6.15
  -7   4  -8   93.80    6.75
   7  -3 -10   52.06    4.32
   7  -3  -9   14.86    2.35
   7  -3  -9   15.12    2.33
   7  -3  -8   97.42    7.39
   7  -3  -8   91.05    7.34
   7  -3  -7   10.60    2.51
   7  -3  -7   15.24    2.73
   7  -3  -7   12.18    2.64
   7  -3  -6  119.90    9.41
   7  -3  -6  130.56    9.63
   7  -3  -5  280.43   20.27
   7  -3  -5  322.78   20.63
   7  -3  -4   72.51    6.47
   7  -3  -4   77.79    6.73
   7  -3  -4   76.09    6.76
   7  -3  -3   25.31    3.38
   7  -3  -3   29.83    3.93
   7  -3  -3   27.02    3.67
   7  -3  -2   16.67    3.36
   7  -3  -2   23.76    3.51
   7  -3  -1   82.17    7.08
   7  -3  -1   83.00    7.29
   7  -3   0   74.87    7.02
   7  -3   0   89.21    7.32
   7  -3   1  168.02   13.05
   7  -3   1  190.53   13.30
   7  -3   2    1.43    2.14
   7  -3   3   37.03    4.35
  -7   3  -4    3.19    2.30
   7  -3   4    0.80    1.93
  -7   3  -4   -2.03    2.23
  -7   3  -5   34.76    4.00
   7  -3   5   25.40    3.51
  -7   3  -5   30.04    4.07
  -7   3  -6   71.44    6.17
  -7   3  -6   63.78    6.28
  -7   3  -7   14.30    2.44
  -7   3  -7    7.96    2.31
  -7   3  -8   67.73    6.03
   7  -3   8   69.85    5.90
   7  -2 -11   27.42    2.67
   7  -2 -10   12.45    2.08
   7  -2 -10   14.66    2.22
   7  -2  -9    1.44    1.71
   7  -2  -9    1.27    1.67
   7  -2  -8   88.16    7.21
   7  -2  -8   95.41    7.47
   7  -2  -8   89.94    7.32
   7  -2  -7  133.03   10.27
   7  -2  -7  146.59   10.52
   7  -2  -7  139.35   10.60
   7  -2  -6    2.99    2.16
   7  -2  -6    4.62    2.55
   7  -2  -6    0.28    2.18
   7  -2  -5  515.27   34.73
   7  -2  -5  551.34   35.10
   7  -2  -4    2.18    1.85
   7  -2  -4    0.84    2.18
   7  -2  -4    2.26    2.10
   7  -2  -3   39.81    4.50
   7  -2  -3   45.39    4.76
   7  -2  -2    1.99    2.28
   7  -2  -2    2.64    2.25
   7  -2  -1  130.49   10.84
   7  -2  -1  167.03   11.45
   7  -2   0  266.34   19.51
   7  -2   0  305.91   19.96
   7  -2   1   30.02    3.97
   7  -2   1   37.11    4.14
   7  -2   2  102.07    8.25
  -7   2  -3  133.04   10.61
  -7   2  -3  135.37   10.69
  -7   2  -4   66.60    6.18
  -7   2  -4   61.80    6.27
  -7   2  -5   36.20    4.28
  -7   2  -5   37.81    4.68
  -7   2  -6  259.90   17.14
   7  -2   6  233.92   16.67
  -7   2  -6  240.65   17.36
   7  -2   7    2.62    1.68
  -7   2  -7    3.93    1.76
   7  -2   7    3.38    1.61
  -7   2  -7    1.79    1.85
  -7   2  -8   37.48    3.86
   7  -2   8   47.23    3.91
   7  -1 -11   93.55    6.89
   7  -1 -10    1.89    1.58
   7  -1 -10    1.17    1.60
   7  -1  -9   68.81    5.74
   7  -1  -9   69.62    5.81
   7  -1  -9   63.80    5.75
   7  -1  -8    7.74    2.28
   7  -1  -8    8.77    2.46
   7  -1  -8    8.35    2.36
   7  -1  -7  304.00   21.12
   7  -1  -7  300.46   21.28
   7  -1  -7  340.50   21.57
   7  -1  -6  322.32   21.67
   7  -1  -6  317.56   21.89
   7  -1  -6  325.77   22.08
   7  -1  -5   84.61    7.27
   7  -1  -5   87.17    7.33
   7  -1  -4   63.54    5.89
   7  -1  -4   68.05    6.22
   7  -1  -3  149.24   11.74
   7  -1  -3  177.18   12.34
   7  -1  -2  355.02   24.98
   7  -1  -2  397.01   25.57
   7  -1  -1   20.61    3.25
   7  -1  -1   23.83    3.55
   7  -1   0  284.17   19.81
   7  -1   1   75.41    6.67
  -7   1  -2   39.20    4.59
  -7   1  -2   42.12    4.91
  -7   1  -3   42.09    4.74
  -7   1  -3   37.11    4.73
  -7   1  -4  352.53   23.05
  -7   1  -4  315.22   23.08
  -7   1  -5  253.91   18.31
   7  -1   5  279.46   18.23
   7  -1   5  255.81   17.95
  -7   1  -5  261.84   18.69
  -7   1  -6  102.47    8.56
   7  -1   6  117.71    8.54
   7  -1   6  111.15    8.39
  -7   1  -6  107.41    9.02
  -7   1  -7   99.79    7.92
   7  -1   7  105.62    7.77
  -7   1  -7  101.46    8.29
  -7   1  -8    8.80    1.80
   7  -1   8   13.70    1.96
   7   0 -11    5.88    1.56
   7   0 -10   31.28    3.57
   7   0 -10   39.57    3.71
   7   0  -9   85.32    6.87
   7   0  -9   84.16    7.08
   7   0  -9   91.56    7.10
   7   0  -8  425.99   28.00
   7   0  -8  450.20   28.34
   7   0  -8  400.98   28.05
   7   0  -7   12.92    2.50
   7   0  -7    9.97    2.55
   7   0  -7   13.02    2.95
   7   0  -6   65.65    6.22
   7   0  -6   81.20    6.65
   7   0  -5   20.52    3.09
   7   0  -5   21.51    3.20
   7   0  -5   17.11    2.96
   7   0  -4  149.92   11.43
   7   0  -4  160.59   11.62
   7   0  -4  161.92   11.93
   7   0  -3    6.76    2.19
   7   0  -3   10.31    2.61
   7   0  -2  441.90   29.73
   7   0  -1  180.46   13.37
   7   0   0   13.73    2.94
   7   0   0   16.24    2.99
  -7   0  -1   18.28    3.52
   7   0   1   20.80    3.18
   7   0   2   85.59    7.40
  -7   0  -2   83.59    7.69
  -7   0  -3  123.99   10.04
   7   0   3  129.69   10.04
  -7   0  -3  132.56   10.52
   7   0   4   21.44    3.49
  -7   0  -4   24.88    3.38
   7   0   4   16.30    2.93
  -7   0  -4   19.06    3.51
  -7   0  -5  260.26   19.96
   7   0   5  327.48   20.13
   7   0   5  288.10   19.86
  -7   0  -5  303.11   20.62
   7   0   6   15.93    2.57
  -7   0  -6   12.67    2.43
   7   0   6   14.58    2.51
  -7   0  -6   16.62    2.90
  -7   0  -7    6.36    1.74
   7   0   7   14.42    2.18
  -7   0  -8    1.71    1.13
   7   0   8    0.57    1.10
   7   1 -11    5.16    1.54
   7   1 -10  132.24    9.86
   7   1 -10  144.63   10.11
   7   1  -9   49.90    4.53
   7   1  -9   48.82    4.77
   7   1  -9   44.67    4.47
   7   1  -8  371.53   23.41
   7   1  -8  320.70   22.91
   7   1  -8  353.17   22.91
   7   1  -8  333.12   23.32
   7   1  -7   99.71    7.77
   7   1  -7   86.13    7.38
   7   1  -6    6.24    2.34
   7   1  -5    3.95    2.35
   7   1  -5    4.16    2.25
   7   1  -5    4.62    2.26
   7   1  -4  184.59   14.63
   7   1  -4  216.40   14.47
   7   1  -4  204.07   14.81
   7   1  -3  272.37   18.46
   7   1  -3  248.11   18.31
   7   1  -2   14.00    3.04
   7   1  -2   15.79    3.16
   7   1  -1  207.69   14.74
   7   1  -1  194.77   14.69
   7   1   0    7.54    2.63
   7   1   0   16.49    2.97
   7   1   0   14.74    3.05
   7   1   1   16.05    3.09
   7   1   1   13.77    2.92
   7   1   2    9.52    2.79
  -7  -1  -2    8.64    2.94
   7   1   3   99.40    7.84
   7   1   3   89.66    7.46
  -7  -1  -3   90.49    8.22
   7   1   4  166.48   11.64
   7   1   4  146.33   11.34
  -7  -1  -4  162.14   12.21
   7   1   5  169.51   11.58
   7   1   5  156.61   11.42
  -7  -1  -5  149.29   11.96
   7   1   6   93.16    7.03
   7   1   6   90.69    7.06
  -7  -1  -6   86.42    7.50
  -7  -1  -7    4.89    1.42
   7   1   7    7.69    1.66
   7   1   7    3.09    1.34
   7   2 -11    7.73    1.65
   7   2 -11   11.56    2.01
   7   2 -10   52.90    4.65
   7   2 -10   43.03    4.16
   7   2 -10   48.96    4.63
   7   2  -9  264.09   19.01
   7   2  -9  289.98   19.01
   7   2  -8   38.85    4.75
   7   2  -8   53.71    4.98
   7   2  -7  204.04   14.04
   7   2  -7  182.96   14.01
   7   2  -6   78.03    6.56
   7   2  -6   69.74    6.76
   7   2  -5   34.23    4.11
   7   2  -5   36.76    4.33
   7   2  -5   29.45    3.76
   7   2  -5   27.09    3.94
   7   2  -4  120.22    9.37
   7   2  -4  108.44    9.27
   7   2  -4  109.08    9.22
   7   2  -4  119.19    8.90
   7   2  -3  362.64   25.92
   7   2  -3  402.14   26.12
   7   2  -2  130.75   10.66
   7   2  -2  144.83   10.85
   7   2  -1   15.33    3.14
   7   2  -1   17.15    3.13
   7   2  -1   21.86    3.28
   7   2   0  151.81   11.19
   7   2   0  139.04   11.16
   7   2   0  139.45   10.89
   7   2   0  147.92   11.10
   7   2   1   37.62    4.31
   7   2   2  189.20   13.40
   7   2   2  172.91   13.05
  -7  -2  -2  192.28   13.99
   7   2   3    8.53    2.65
   7   2   3   11.87    2.48
  -7  -2  -3    9.30    2.63
   7   2   4  416.48   27.29
   7   2   4  412.07   27.22
  -7  -2  -4  403.06   27.78
   7   2   5   12.02    2.40
   7   2   5    9.59    2.21
   7   2   5   13.03    2.17
  -7  -2  -5   12.74    2.68
  -7  -2  -5   10.17    2.37
   7   2   6   60.19    4.86
   7   2   6   54.67    4.66
   7   2   7    1.66    1.12
   7   2   7    1.51    1.01
   7   3 -11  103.62    7.51
   7   3 -11  101.19    7.66
   7   3 -11   98.37    7.50
   7   3 -10   10.07    2.02
   7   3 -10   11.14    2.39
   7   3 -10   12.00    2.23
   7   3  -9  211.04   15.51
   7   3  -9  229.23   15.46
   7   3  -8  111.24    9.38
   7   3  -8  130.87    9.37
   7   3  -8  112.78    9.20
   7   3  -7   19.81    3.15
   7   3  -7   16.85    3.06
   7   3  -6    5.67    2.38
   7   3  -6    2.53    2.48
   7   3  -5  164.92   13.00
   7   3  -5  184.18   13.23
   7   3  -5  189.47   12.80
   7   3  -5  176.60   13.12
   7   3  -5  162.58   12.94
   7   3  -4   91.00    7.89
   7   3  -4   93.94    7.87
   7   3  -4   84.15    7.79
   7   3  -4   99.20    8.05
   7   3  -3   21.32    3.59
   7   3  -3   24.01    3.68
   7   3  -3   26.74    4.00
   7   3  -2   38.06    4.73
   7   3  -2   48.22    5.09
   7   3  -2   43.54    4.91
   7   3  -1   30.89    3.97
   7   3  -1   25.20    3.75
   7   3  -1   28.42    3.90
   7   3  -1   25.57    3.65
   7   3   0    6.34    2.28
   7   3   0    7.42    2.41
   7   3   0    6.89    2.60
   7   3   0    1.89    1.82
   7   3   1   65.11    6.07
   7   3   2  359.53   23.51
   7   3   2  336.17   23.22
   7   3   3  292.66   19.39
   7   3   3  290.36   19.09
   7   3   3  269.21   19.14
   7   3   3  277.34   19.03
  -7  -3  -3  290.94   19.88
   7   3   4   24.08    3.12
   7   3   4   21.14    2.85
   7   3   4   22.76    3.03
   7   3   4   20.70    2.75
  -7  -3  -4   29.15    3.62
  -7  -3  -4   22.27    3.18
   7   3   5   30.14    3.05
   7   3   5   26.22    3.09
   7   3   5   33.41    3.24
   7   3   5   28.57    3.00
  -7  -3  -5   25.00    3.24
   7   3   6   10.09    1.65
   7   3   6    8.37    1.64
   7   3   6   10.90    1.62
   7   4 -11   71.52    5.63
   7   4 -11   66.05    5.43
   7   4 -10  157.64   11.84
   7   4 -10  174.59   11.85
   7   4  -9   16.41    2.91
   7   4  -9   15.98    2.78
   7   4  -9   14.69    2.65
   7   4  -8   15.29    3.06
   7   4  -8   16.96    2.82
   7   4  -8   13.96    2.78
   7   4  -7   61.61    5.72
   7   4  -7   50.88    5.18
   7   4  -7   55.23    5.59
   7   4  -6  179.77   14.64
   7   4  -6  218.53   14.86
   7   4  -6  208.41   14.44
   7   4  -6  209.74   14.80
   7   4  -5   18.39    3.18
   7   4  -5   22.70    3.50
   7   4  -5   17.59    3.20
   7   4  -5   20.97    3.59
   7   4  -4  254.53   17.46
   7   4  -4  235.67   17.47
   7   4  -4  233.02   17.56
   7   4  -4  270.13   17.77
   7   4  -3   45.52    4.60
   7   4  -3   34.37    4.56
   7   4  -3   44.61    4.90
   7   4  -3   37.65    4.69
   7   4  -2   10.06    2.88
   7   4  -2   12.72    2.74
   7   4  -2   12.58    2.93
   7   4  -2   17.71    3.00
   7   4  -1   24.17    3.54
   7   4  -1   21.22    3.40
   7   4  -1   27.06    3.68
   7   4  -1   27.59    3.78
   7   4   0    0.56    1.86
   7   4   0    0.56    1.93
   7   4   0    0.27    2.25
   7   4   1  355.82   22.97
   7   4   1  325.26   23.17
   7   4   1  349.52   23.07
   7   4   2    0.25    2.01
   7   4   2   -0.61    1.81
   7   4   2    1.78    1.76
   7   4   2   -0.61    1.61
  -7  -4  -2   -0.32    2.17
   7   4   3   99.05    7.49
   7   4   3   88.00    7.59
   7   4   3  100.80    7.59
   7   4   3   99.56    7.46
  -7  -4  -3  111.88    8.37
   7   4   4    2.31    1.47
   7   4   4    2.78    1.64
   7   4   4    0.36    1.43
   7   4   4   -0.83    1.28
  -7  -4  -4   -0.47    1.56
   7   4   5    1.77    1.29
   7   4   5    0.44    1.14
   7   4   5   -0.41    1.05
   7   5 -11    1.01    1.29
   7   5 -11    0.32    1.09
   7   5 -10   60.29    4.94
   7   5 -10   45.66    4.60
   7   5 -10   56.75    4.81
   7   5  -9    8.19    2.20
   7   5  -9    7.23    2.11
   7   5  -9    3.74    1.91
   7   5  -8   -0.51    2.07
   7   5  -8    3.75    1.96
   7   5  -8    2.86    1.91
   7   5  -7   13.30    2.76
   7   5  -7   10.51    2.41
   7   5  -7   13.23    2.77
   7   5  -6   78.96    7.03
   7   5  -6   95.16    7.21
   7   5  -6   85.52    7.18
   7   5  -6   70.90    6.52
   7   5  -6   68.06    6.69
   7   5  -6   98.11    7.24
   7   5  -5  300.71   19.06
   7   5  -5  243.76   18.85
   7   5  -5  257.19   19.06
   7   5  -5  298.23   19.26
   7   5  -4  109.42    8.26
   7   5  -4   95.38    8.25
   7   5  -4   91.24    8.27
   7   5  -4  111.87    8.67
   7   5  -3   57.44    5.55
   7   5  -3   47.11    5.47
   7   5  -3   58.68    5.65
   7   5  -2    6.99    2.44
   7   5  -2    7.95    2.32
   7   5  -2   10.07    2.66
   7   5  -2    6.27    2.29
   7   5  -1   60.45    5.78
   7   5  -1   68.09    6.02
   7   5  -1   57.50    5.86
   7   5  -1   70.84    5.97
   7   5   0    2.17    1.76
   7   5   0    4.54    1.56
   7   5   0   -0.25    2.10
   7   5   1  417.72   27.38
   7   5   1  419.82   27.25
   7   5   1  410.41   27.53
  -7  -5  -2   38.03    4.48
   7   5   2   42.49    3.98
   7   5   2   43.20    3.89
   7   5   2   46.65    4.07
   7   5   2   35.03    4.04
  -7  -5  -3   27.93    3.27
   7   5   3   29.58    3.08
   7   5   3   29.12    2.97
   7   5   3   35.45    3.24
   7   5   3   26.12    3.12
   7   5   4   25.12    2.71
   7   5   4   29.47    2.65
   7   5   4   23.92    2.59
   7   6 -10   10.06    1.81
   7   6 -10    7.92    1.68
   7   6 -10    6.71    1.67
   7   6  -9    9.16    1.95
   7   6  -9    3.27    1.64
   7   6  -9    5.59    1.80
   7   6  -8   10.60    2.20
   7   6  -8   10.68    2.07
   7   6  -8   11.29    2.32
   7   6  -7  109.62    8.08
   7   6  -7   98.95    7.88
   7   6  -7  103.16    8.19
   7   6  -6    1.28    1.63
   7   6  -6    1.97    1.86
   7   6  -6    3.48    1.76
   7   6  -6    3.83    2.19
   7   6  -5  224.96   16.81
   7   6  -5  265.72   16.92
   7   6  -5  235.31   17.06
   7   6  -5  246.20   17.08
   7   6  -4   23.30    3.30
   7   6  -4   28.21    3.63
   7   6  -4   20.50    3.53
   7   6  -3    4.32    2.06
   7   6  -3    2.78    2.13
   7   6  -3    2.42    1.95
   7   6  -2    2.85    1.83
   7   6  -2    1.74    1.72
   7   6  -2    3.69    2.13
   7   6  -2    3.96    2.13
   7   6  -1  143.70    9.68
   7   6  -1  114.74    9.67
   7   6  -1   97.91    9.27
   7   6  -1  141.22    9.40
   7   6  -1  150.35    9.37
   7   6  -1  122.21    9.57
   7   6   0  218.05   14.77
   7   6   0  226.44   14.70
   7   6   0  203.44   14.86
   7   6   1   61.73    5.12
   7   6   1   64.25    5.07
   7   6   1   60.31    5.26
   7   6   2  110.58    8.35
   7   6   2  119.31    8.33
   7   6   2  124.61    8.59
   7   6   3   28.96    2.70
   7   6   3   27.62    2.59
   7   6   3   24.42    2.66
   7   7  -9   26.43    2.87
   7   7  -9   31.86    3.07
   7   7  -8    8.06    1.77
   7   7  -8   13.53    2.13
   7   7  -7  147.24    9.93
   7   7  -7  125.39    9.84
   7   7  -6  110.45    9.08
   7   7  -6  141.76    9.33
   7   7  -6  124.12    9.36
   7   7  -5    5.27    1.73
   7   7  -5    3.68    1.72
   7   7  -5    7.83    2.21
   7   7  -4   20.84    2.73
   7   7  -4   17.12    2.84
   7   7  -4   18.60    2.87
   7   7  -3    4.29    1.70
   7   7  -3    3.89    1.69
   7   7  -3    3.77    1.83
   7   7  -3    4.87    1.77
   7   7  -2  126.21   10.23
   7   7  -2  162.26   10.12
   7   7  -2  143.71   10.25
   7   7  -2  139.15   10.38
   7   7  -1    5.19    1.47
   7   7  -1   10.34    1.76
   7   7  -1    9.52    2.07
   7   7   0  134.55    9.20
   7   7   0  137.86    9.15
   7   7   0  118.84    9.29
   7   7   1   26.12    2.43
   7   7   1   18.62    2.18
   7   7   1   20.33    2.42
   7   8  -7    1.78    1.22
   7   8  -7    0.17    1.20
   7   8  -6   11.91    2.03
   7   8  -5    5.42    1.66
   7   8  -4    1.15    1.39
   7   8  -3    9.37    1.87
   7   8  -3    7.80    1.69
   7   8  -2   27.92    2.65
   7   8  -2   27.38    2.84
   7   8  -1   26.59    2.41
   7   8  -1   21.33    2.47
   8  -7  -3  176.53   11.89
  -8   7   2   14.46    1.97
   8  -7  -2   19.61    2.15
  -8   7   2   18.66    2.10
  -8   7   1   70.92    5.77
   8  -7  -1   82.57    5.84
  -8   7   1   76.82    5.79
  -8   7   0   81.45    6.15
   8  -7   0   76.07    6.00
  -8   7   0   71.23    6.01
   8  -7   1    4.57    1.35
  -8   7  -1    2.62    1.35
  -8   7  -1    2.85    1.29
   8  -7   2    0.58    1.12
  -8   7  -2   -0.15    1.14
  -8   7  -2    1.26    1.03
   8  -7   3    0.69    1.09
   8  -6  -5   12.03    1.94
   8  -6  -5   16.93    1.98
   8  -6  -4   25.69    2.72
   8  -6  -3   19.27    2.47
  -8   6   3   17.43    2.26
   8  -6  -2  248.09   15.74
  -8   6   2  223.08   15.64
  -8   6   2  218.10   15.57
   8  -6  -2  188.09   15.81
   8  -6  -1    1.17    1.21
   8  -6  -1    1.44    1.46
  -8   6   1    0.18    1.40
  -8   6   1    0.70    1.36
   8  -6  -1   -0.24    1.23
   8  -6   0   12.95    2.09
  -8   6   0    7.39    1.81
  -8   6   0   10.77    1.90
   8  -6   0    4.07    1.70
   8  -6   1    5.01    1.65
  -8   6  -1    3.09    1.51
  -8   6  -1    1.06    1.40
   8  -6   1   -0.23    1.30
  -8   6  -2  112.14    8.41
  -8   6  -2  103.85    8.28
   8  -6   3  173.76   11.98
   8  -6   4   28.61    2.90
   8  -5  -6   11.94    1.78
   8  -5  -6   13.43    1.82
   8  -5  -6    8.51    1.74
   8  -5  -5    1.63    1.28
   8  -5  -5    3.52    1.42
   8  -5  -5    2.02    1.46
   8  -5  -4  128.50    9.88
   8  -5  -4  155.63   10.10
   8  -5  -3  141.58    9.70
   8  -5  -3  158.71    9.91
  -8   5   3  127.62    9.56
   8  -5  -3  113.95    9.79
   8  -5  -2   88.19    6.96
  -8   5   2   86.93    7.03
   8  -5  -2   82.64    7.34
   8  -5  -1    3.17    1.93
  -8   5   1    5.11    1.88
   8  -5  -1    4.79    1.97
   8  -5   0    1.71    1.79
  -8   5   0    2.27    1.73
   8  -5   0    2.38    1.62
   8  -5   1   95.96    7.12
  -8   5  -1   88.39    6.86
   8  -5   1   79.39    7.03
   8  -5   2   32.88    3.50
  -8   5  -2   29.46    3.23
   8  -5   3  283.57   18.96
   8  -5   4   13.78    2.14
   8  -5   5   47.70    4.02
   8  -4  -7    5.57    1.41
   8  -4  -7    4.20    1.34
   8  -4  -7    3.96    1.41
   8  -4  -6   12.54    1.95
   8  -4  -6   12.36    2.06
   8  -4  -6    8.32    2.03
   8  -4  -5   86.38    6.87
   8  -4  -5  105.54    7.13
   8  -4  -5   81.66    7.04
   8  -4  -4    2.28    1.50
   8  -4  -4    2.51    1.79
   8  -4  -3  254.66   17.01
   8  -4  -3  277.21   17.34
  -8   4   3  243.29   17.04
   8  -4  -3  234.40   17.43
   8  -4  -2    3.89    1.98
  -8   4   2    3.63    1.79
   8  -4  -2    0.57    1.60
   8  -4  -1    8.86    2.43
  -8   4   1    5.07    2.17
   8  -4  -1    6.29    2.13
   8  -4   0    1.87    1.86
  -8   4   0    3.54    1.90
   8  -4   0   -0.84    1.77
   8  -4   1  169.14   11.84
  -8   4  -1  163.46   11.70
   8  -4   1  160.40   11.99
   8  -4   2   22.05    2.91
  -8   4  -2   19.95    2.65
   8  -4   3   78.96    6.37
   8  -4   4   58.66    4.97
   8  -4   5    4.35    1.66
   8  -4   5    2.30    1.30
   8  -4   6   35.28    3.36
   8  -3  -8    1.70    1.14
   8  -3  -8    2.88    1.24
   8  -3  -8    1.06    1.15
   8  -3  -7   13.54    2.09
   8  -3  -7   16.32    2.21
   8  -3  -7   10.08    2.10
   8  -3  -6   13.23    2.18
   8  -3  -6   16.92    2.50
   8  -3  -6   15.49    2.52
   8  -3  -5  288.87   19.94
   8  -3  -5  312.34   20.21
   8  -3  -5  302.29   20.32
   8  -3  -4  153.46   10.39
  -8   3   4  132.90   10.03
   8  -3  -4  140.43   10.38
   8  -3  -4  136.78   10.49
   8  -3  -3   77.18    6.49
  -8   3   3   72.95    6.28
   8  -3  -3   81.50    6.56
   8  -3  -3   80.36    6.82
   8  -3  -2   40.75    4.50
  -8   3   2   55.60    4.65
   8  -3  -2   46.43    4.83
   8  -3  -1   98.13    8.08
  -8   3   1  105.57    8.10
   8  -3  -1  108.97    8.55
   8  -3   0   85.31    7.01
  -8   3   0   86.71    6.92
   8  -3   0   85.49    7.26
   8  -3   1   98.90    8.01
  -8   3  -1  103.37    7.98
   8  -3   1  108.64    8.30
   8  -3   2  161.37   11.52
  -8   3  -2  160.25   11.42
   8  -3   3    5.92    2.11
   8  -3   3    7.80    1.89
   8  -3   4    0.42    1.63
   8  -3   5   23.26    2.88
   8  -3   6    8.04    1.70
   8  -2  -9    8.52    1.45
   8  -2  -9    9.46    1.58
   8  -2  -8    2.48    1.33
   8  -2  -8    1.32    1.31
   8  -2  -8    0.35    1.29
   8  -2  -7  180.39   12.89
   8  -2  -7  193.59   13.20
   8  -2  -7  195.40   13.12
   8  -2  -6  171.82   12.34
   8  -2  -6  183.08   12.57
   8  -2  -6  182.11   12.69
   8  -2  -5   43.81    4.48
   8  -2  -5   52.28    4.75
   8  -2  -4  206.27   14.56
   8  -2  -4  223.63   14.73
   8  -2  -4  195.68   14.77
   8  -2  -3   47.73    4.59
   8  -2  -3   46.09    4.55
   8  -2  -3   46.43    4.81
   8  -2  -2   18.85    2.99
   8  -2  -2   20.55    3.12
   8  -2  -1   65.42    5.90
   8  -2  -1   72.66    6.36
   8  -2   0  346.24   23.94
   8  -2   0  377.77   24.47
   8  -2   1   75.64    6.52
   8  -2   2   76.51    6.49
   8  -2   3   36.78    4.01
   8  -2   4   34.47    3.74
   8  -2   5   28.62    3.23
   8  -2   6    1.06    1.20
   8  -1  -9   87.10    6.20
   8  -1  -9   82.04    6.07
   8  -1  -9   75.62    5.95
   8  -1  -8  130.33    8.66
   8  -1  -8  106.85    8.33
   8  -1  -8  113.39    8.28
   8  -1  -7   25.75    3.14
   8  -1  -7   32.36    3.43
   8  -1  -6  309.76   20.55
   8  -1  -6  299.40   20.38
   8  -1  -5   52.49    5.02
   8  -1  -5   62.62    5.29
   8  -1  -4    5.71    2.25
   8  -1  -4    6.93    2.05
   8  -1  -4    4.58    2.00
   8  -1  -4    8.37    2.22
   8  -1  -3    2.09    1.74
   8  -1  -3    1.23    1.88
   8  -1  -2  116.12    9.23
   8  -1  -1  113.92    9.10
   8  -1   0   56.23    4.93
   8  -1   0   35.47    4.55
   8  -1   1  178.74   13.54
   8  -1   1  196.28   13.42
   8  -1   2    2.69    1.99
   8  -1   3   18.75    2.93
  -8   1  -3   15.14    2.80
   8  -1   4    0.21    1.75
  -8   1  -4    1.85    1.68
   8  -1   5   81.66    6.39
   8   0  -9   13.17    1.96
   8   0  -9    9.40    1.73
   8   0  -9   13.00    1.75
   8   0  -8   71.82    5.30
   8   0  -8   51.01    4.77
   8   0  -7    7.76    1.94
   8   0  -7    6.92    2.03
   8   0  -6   78.23    7.22
   8   0  -6   91.16    7.07
   8   0  -5  109.60    8.20
   8   0  -5  100.91    8.35
   8   0  -4    0.61    1.86
   8   0  -4    2.58    1.84
   8   0  -4    2.13    1.80
   8   0  -3    4.36    2.06
   8   0  -3    5.31    2.39
   8   0  -2   10.91    2.56
   8   0  -2    8.13    2.49
   8   0  -1  308.45   20.40
   8   0  -1  280.54   20.26
   8   0   0   58.76    5.41
   8   0   0   52.73    5.32
   8   0   1  116.48    8.95
  -8   0  -2   50.42    5.29
   8   0   2   59.72    5.27
  -8   0  -3   -0.28    1.77
   8   0   3    2.02    1.85
   8   0   4   90.15    7.03
   8   0   5   33.03    3.29
   8   1  -9   43.51    3.97
   8   1  -8   24.06    2.93
   8   1  -7  131.61   10.04
   8   1  -7  139.68   10.00
   8   1  -6   38.96    3.79
   8   1  -6   25.65    3.54
   8   1  -5    2.64    1.77
   8   1  -5    2.52    2.11
   8   1  -5    2.08    1.74
   8   1  -5    1.38    2.03
   8   1  -5    1.99    1.86
   8   1  -4    9.62    2.55
   8   1  -4    8.53    2.29
   8   1  -4   16.22    3.09
   8   1  -3   89.04    7.26
   8   1  -3   96.31    7.46
   8   1  -2  188.45   14.37
   8   1  -2  202.27   14.48
   8   1  -2  210.41   14.59
   8   1  -1   90.89    8.16
   8   1  -1  115.72    8.50
   8   1  -1  102.52    8.27
   8   1   0  250.39   17.41
   8   1   0  267.02   17.54
   8   1   0  244.68   17.40
   8   1   0  241.30   17.17
  -8  -1  -1    2.68    1.97
   8   1   1    5.34    2.05
  -8  -1  -2    3.47    2.10
   8   1   2    4.84    2.03
  -8  -1  -3    8.92    2.30
   8   1   3   13.64    2.39
   8   1   4  234.84   15.86
   8   1   5   72.70    5.54
   8   2  -9  113.67    8.66
   8   2  -9  127.70    8.74
   8   2  -8  123.35    9.49
   8   2  -8  137.00    9.48
   8   2  -7    6.49    2.03
   8   2  -7    7.72    1.99
   8   2  -7    5.85    1.93
   8   2  -6   30.06    3.50
   8   2  -6   34.32    3.80
   8   2  -5  142.37   10.35
   8   2  -5  120.99   10.15
   8   2  -5  144.67   10.47
   8   2  -5  140.66   10.35
   8   2  -4  192.64   13.60
   8   2  -4  165.53   13.48
   8   2  -4  192.42   13.74
   8   2  -4  209.88   13.84
   8   2  -3    1.88    2.09
   8   2  -3    1.18    1.84
   8   2  -3   -0.61    1.77
   8   2  -3    3.49    2.20
   8   2  -2  489.34   32.81
   8   2  -2  482.35   32.86
   8   2  -2  516.73   32.89
   8   2  -1   81.18    7.22
   8   2  -1   79.57    7.25
   8   2   0   15.20    2.68
   8   2   0   20.54    2.93
  -8  -2   0   16.57    2.86
   8   2   0   12.06    2.63
  -8  -2  -1    2.31    1.85
   8   2   1    4.34    1.99
  -8  -2  -2   14.48    2.71
   8   2   2   12.97    2.36
   8   2   3  171.75   11.99
   8   2   4   10.22    1.87
   8   3  -9    1.04    1.27
   8   3  -9    1.32    1.28
   8   3  -8  106.41    8.16
   8   3  -8  116.70    8.13
   8   3  -8  102.47    8.06
   8   3  -7    2.75    1.87
   8   3  -7    0.80    1.55
   8   3  -7    2.03    1.64
   8   3  -6   30.69    3.20
   8   3  -6   21.66    3.14
   8   3  -5   11.03    2.45
   8   3  -5   16.84    2.83
   8   3  -5   17.38    2.79
   8   3  -5   18.10    2.89
   8   3  -4  192.22   13.64
   8   3  -4  196.33   13.80
   8   3  -4  178.41   13.74
   8   3  -4  201.27   13.86
   8   3  -3  158.11   10.93
   8   3  -3  138.41   10.90
   8   3  -3  137.15   10.98
   8   3  -3  157.19   11.13
   8   3  -2  129.71    9.33
   8   3  -2  115.29    9.37
   8   3  -2  108.41    9.39
   8   3  -1   74.62    6.54
   8   3  -1   80.14    6.67
   8   3  -1   80.35    6.62
   8   3   0   -1.75    1.76
  -8  -3   0    1.12    1.85
   8   3   1   10.96    2.24
  -8  -3  -1    6.13    2.16
   8   3   2    3.00    1.62
   8   3   3  188.87   12.87
   8   4  -8  112.21    7.95
   8   4  -8  104.53    7.74
   8   4  -8  101.69    7.83
   8   4  -7    1.84    1.58
   8   4  -7    3.03    1.44
   8   4  -7    3.52    1.63
   8   4  -6   27.39    3.20
   8   4  -6   24.11    3.16
   8   4  -6   26.60    3.21
   8   4  -5  176.27   11.70
   8   4  -5  148.75   11.55
   8   4  -5  154.71   11.73
   8   4  -5  167.41   11.74
   8   4  -4   67.60    5.44
   8   4  -4   58.66    5.40
   8   4  -4   55.95    5.44
   8   4  -4   61.49    5.60
   8   4  -3  302.96   19.77
   8   4  -3  279.26   19.91
   8   4  -3  275.75   20.03
   8   4  -3  320.60   20.17
   8   4  -2    4.53    1.73
   8   4  -2    5.80    1.98
   8   4  -2    3.94    1.74
   8   4  -1   24.13    2.88
   8   4  -1   22.28    2.87
   8   4  -1   16.57    2.68
   8   4  -1   27.37    3.09
   8   4   0   13.44    2.22
   8   4   1   54.01    4.63
   8   4   2   75.50    5.80
   8   5  -7    4.51    1.49
   8   5  -7    5.72    1.55
   8   5  -6    3.45    1.55
   8   5  -6    4.38    1.57
   8   5  -6    5.29    1.69
   8   5  -5  300.31   21.05
   8   5  -5  329.65   20.99
   8   5  -4   73.68    5.96
   8   5  -4   67.66    5.61
   8   5  -3   58.25    5.18
   8   5  -2   51.79    4.69
   8   5  -1   28.85    2.99
   8   5   0   22.59    2.54
   8   6  -5    1.61    1.32
   8   6  -4   33.47    3.35
   8   6  -3   10.84    1.88
  -9   4   1    5.41    1.33
   9  -3  -3   30.94    2.78
  -9   3   3   23.22    2.54
   9  -3  -2   22.60    2.45
  -9   3   2   25.34    2.57
   9  -3  -1   11.18    1.78
  -9   3   1   12.35    1.85
   9  -3   0   58.77    4.74
  -9   3   0   65.32    4.89
   9  -2  -4   63.03    4.96
  -9   2   4   66.00    4.96
   9  -2  -3   48.15    3.78
  -9   2   3   53.16    3.94
  -9   2   2   11.24    1.81
  -9   2   1    1.56    1.23
  -9   2   0   10.67    1.77
   9  -1  -4    3.03    1.44
  -9   1   4    2.98    1.26
   9  -1  -4    3.35    1.50
  -9   1   3   60.61    4.71
   9  -1  -3   54.06    4.94
  -9   1   2    4.79    1.44
   9  -1  -2    3.51    1.75
  -9   1   1   31.64    3.11
   9  -1  -1   32.67    3.45
  -9   1   0   98.13    6.57
   9  -1   0   76.74    6.63
   9   0  -5   90.00    6.74
   9   0  -4   96.46    7.28
   9   0  -4   97.72    7.36
   9   0  -3   16.85    2.38
   9   0  -3   15.40    2.39
   9   0  -2   61.21    5.03
   9   0  -2   58.35    5.12
   9   0  -1   11.34    2.03
  -9   0   0  309.21   20.46
   9   0   0  318.65   20.72
   9   1  -5    3.83    1.40
   9   1  -4    0.56    1.36
   9   1  -4    0.53    1.30
   9   1  -3    5.87    1.70
   9   1  -3    3.93    1.50
   9   1  -2  114.63    8.34
   9   1  -2  110.65    8.18
   9   1  -1   35.43    3.32
   9   1  -1   30.19    3.09
   9   2  -4    5.63    1.52
   9   2  -4    8.25    1.61
   9   2  -3   36.87    3.35
   9   2  -3   29.29    3.06
   9   2  -2  100.94    7.46


TITL KD-179 in P-1
REM P-1 (#2 in standard setting)
CELL 1.54184   7.673438  11.849989  13.332097 104.3640  97.5143  93.6552
ZERR   11.00   0.000163   0.000279   0.000288   0.0020   0.0018   0.0018
LATT  1
SFAC C H N O S Mn Br
UNIT 11.00 11.00 11.00 11.00 11.00 11.00 11.00
TREF
HKLF 4
END
_computing_structure_solution     'SHELXT 2014/4 (Sheldrick, 2014)'
;
_shelx_hkl_checksum              1565
_shelx_fab_file
;
-9 -2 2 0.0612 -1.2374
-9 -2 3 0.0859 0.8478
-9 -2 4 -0.4402 -0.2659
-9 -1 1 -0.6512 0.9745
-9 -1 2 0.2558 -0.5327
-9 -1 3 0.4386 -0.1401
-9 -1 4 -1.0438 0.0547
-9 -1 5 0.7499 0.1154
-9 0 1 -0.6724 -0.0062
-9 0 2 -0.0221 0.3854
-9 0 3 0.5610 -0.1145
-9 0 4 -0.4038 -0.1432
-9 0 5 -0.3707 0.0340
-9 1 1 -0.2525 -0.1838
-9 1 2 -0.1469 -0.0677
-9 1 3 0.0703 0.1142
-9 1 4 0.4314 0.0368
-9 2 1 -0.1654 0.0866
-9 2 2 -0.0773 0.0720
-9 2 3 -0.1571 -0.1918
-9 2 4 0.4117 -0.1574
-9 3 1 -0.1002 -0.1171
-9 3 2 -0.1043 -0.0563
-9 3 3 -0.1947 0.5742
-9 4 1 0.0644 0.5746
-8 -6 3 -0.3165 -0.6829
-8 -6 4 -0.1561 0.3252
-8 -6 5 0.3340 0.5151
-8 -5 1 -0.0247 0.0876
-8 -5 2 0.6869 0.2547
-8 -5 3 -0.6830 -0.0733
-8 -5 4 0.1344 -0.2359
-8 -5 5 0.1641 0.2631
-8 -5 6 -0.3119 -0.2104
-8 -5 7 0.2132 0.2533
-8 -4 1 -0.1084 -0.1052
-8 -4 2 0.8777 -0.0015
-8 -4 3 -0.6026 0.0766
-8 -4 4 -0.2645 0.2145
-8 -4 5 0.9452 -0.2764
-8 -4 6 -0.7559 0.0084
-8 -4 7 -0.3313 0.0126
-8 -4 8 0.9205 0.2753
-8 -3 1 -0.1920 -0.0154
-8 -3 2 0.4948 -0.1755
-8 -3 3 0.1009 -0.0875
-8 -3 4 -0.9464 0.2124
-8 -3 5 1.0352 0.0408
-8 -3 6 0.1192 -0.1292
-8 -3 7 -1.1067 -0.0454
-8 -3 8 0.4775 0.0556
-8 -3 9 0.5321 0.1814
-8 -2 1 -0.3198 0.4743
-8 -2 2 0.1217 -0.2119
-8 -2 3 0.3587 -0.0150
-8 -2 4 -0.4804 -0.1249
-8 -2 5 -0.2441 0.1317
-8 -2 6 1.1642 0.0185
-8 -2 7 -0.7911 0.0180
-8 -2 8 -0.5581 -0.1892
-8 -2 9 1.0027 0.2191
-8 -1 1 -0.3304 0.1874
-8 -1 2 -0.0303 0.1531
-8 -1 3 0.0768 -0.0327
-8 -1 4 0.5427 0.0091
-8 -1 5 -1.3213 -0.1499
-8 -1 6 1.2586 0.0995
-8 -1 7 -0.0987 0.0202
-8 -1 8 -0.9604 -0.0210
-8 -1 9 0.8915 -0.0617
-8 0 1 -0.3384 -0.2939
-8 0 2 -0.1202 0.0067
-8 0 3 -0.0661 0.0702
-8 0 4 0.8585 0.0759
-8 0 5 -1.2246 -0.0180
-8 0 6 0.6322 -0.0493
-8 0 7 0.5062 -0.0671
-8 0 8 -1.2050 0.1382
-8 0 9 0.9412 -0.1040
-8 1 1 -0.6026 0.3041
-8 1 2 -0.3642 -0.3230
-8 1 3 0.4315 0.0372
-8 1 4 0.1149 -0.0657
-8 1 5 -0.3553 0.1946
-8 1 6 -0.0784 -0.0550
-8 1 7 0.9528 -0.0933
-8 1 8 -1.2931 0.0335
-8 1 9 0.6651 0.1076
-8 2 1 -0.3187 0.2324
-8 2 2 -0.9811 0.1454
-8 2 3 1.1566 -0.1303
-8 2 4 -0.5600 -0.0372
-8 2 5 -0.0011 0.0170
-8 2 6 -0.2658 0.0544
-8 2 7 1.0316 -0.0344
-8 2 8 -0.9385 -0.0550
-8 2 9 0.0551 0.1594
-8 3 1 0.3199 -0.4270
-8 3 2 -1.1114 0.2055
-8 3 3 1.0330 -0.0617
-8 3 4 -0.2230 0.1384
-8 3 5 -0.2830 -0.0833
-8 3 6 -0.3158 -0.0200
-8 3 7 0.9254 -0.0140
-8 3 8 -0.4493 0.0199
-8 4 1 0.3002 0.0674
-8 4 2 -0.6285 -0.2793
-8 4 3 0.2139 0.0511
-8 4 4 0.5898 -0.0248
-8 4 5 -0.5243 0.1597
-8 4 6 -0.2681 -0.0801
-8 4 7 0.4456 -0.0395
-8 5 1 0.3856 0.4105
-8 5 2 -0.0640 -0.1793
-8 5 3 -0.9177 0.1119
-8 5 4 1.2308 -0.1765
-8 5 5 -0.5297 0.0093
-8 5 6 -0.0423 0.1229
-8 6 1 0.3923 -0.3961
-8 6 2 0.9094 0.3458
-8 6 3 -1.5032 -0.1329
-8 6 4 0.7628 0.2041
-8 6 5 0.0121 -0.3438
-8 7 1 -0.3256 -0.9691
-8 7 2 1.1024 0.5785
-8 7 3 -0.4642 -0.2454
-7 -8 1 -0.4610 -0.9191
-7 -8 2 0.0462 -0.3806
-7 -8 3 0.4871 0.8637
-7 -8 4 -0.2637 0.1445
-7 -8 5 -0.1550 -0.7047
-7 -8 6 0.2784 0.1903
-7 -8 7 -0.2784 -0.1700
-7 -7 1 0.1240 0.3060
-7 -7 2 -0.8134 -0.5894
-7 -7 3 0.7318 -0.0412
-7 -7 4 0.0407 0.4565
-7 -7 5 -0.6027 -0.0963
-7 -7 6 0.5601 0.0112
-7 -7 7 -0.0597 -0.5084
-7 -7 8 -0.4332 0.4611
-7 -7 9 0.4892 -0.0026
-7 -6 1 0.6571 0.3352
-7 -6 2 -0.8177 0.2289
-7 -6 3 -0.1238 -0.1872
-7 -6 4 1.3072 -0.2132
-7 -6 5 -1.4597 0.2160
-7 -6 6 0.4610 0.1736
-7 -6 7 0.4708 -0.1847
-7 -6 8 -0.3992 -0.1519
-7 -6 9 -0.1054 -0.0050
-7 -6 10 0.1275 0.3606
-7 -5 1 0.2620 -0.2472
-7 -5 2 0.1380 0.0543
-7 -5 3 -1.3687 0.2635
-7 -5 4 1.9998 -0.1602
-7 -5 5 -0.9587 -0.0756
-7 -5 6 -0.5319 0.0278
-7 -5 7 0.5922 0.2051
-7 -5 8 0.4774 -0.1302
-7 -5 9 -0.8815 -0.1335
-7 -5 10 0.1238 -0.0267
-7 -5 11 0.6215 0.3002
-7 -4 1 -0.1429 0.2807
-7 -4 2 0.4899 -0.2779
-7 -4 3 -1.1039 -0.1129
-7 -4 4 0.7889 0.1847
-7 -4 5 0.4096 0.0075
-7 -4 6 -0.8262 -0.0609
-7 -4 7 -0.2370 -0.0148
-7 -4 8 1.3485 0.0690
-7 -4 9 -0.9299 0.0736
-7 -4 10 -0.5210 -0.2376
-7 -4 11 1.1998 0.0231
-7 -3 1 0.0890 0.5207
-7 -3 2 0.0237 0.1085
-7 -3 3 -0.0906 -0.2206
-7 -3 4 -0.2108 -0.1039
-7 -3 5 0.4735 0.0609
-7 -3 6 -0.0483 0.1459
-7 -3 7 -1.0600 -0.1089
-7 -3 8 1.6485 -0.0363
-7 -3 9 -0.6208 0.1069
-7 -3 10 -0.7497 0.0427
-7 -3 11 0.6603 -0.2847
-7 -2 1 0.0100 0.0551
-7 -2 2 0.0914 0.0932
-7 -2 3 0.0937 0.1472
-7 -2 4 -0.2340 -0.0983
-7 -2 5 0.1843 -0.0946
-7 -2 6 0.3051 0.0281
-7 -2 7 -1.3383 0.0568
-7 -2 8 1.5208 -0.0244
-7 -2 9 -0.2289 -0.0078
-7 -2 10 -0.4045 0.0711
-7 -2 11 -0.3776 -0.1012
-7 -1 1 -0.4936 0.0565
-7 -1 2 0.4500 -0.1959
-7 -1 3 0.1640 0.0347
-7 -1 4 -0.5211 0.1020
-7 -1 5 0.4410 0.0513
-7 -1 6 0.2891 -0.1115
-7 -1 7 -1.1630 -0.0278
-7 -1 8 0.6145 0.0556
-7 -1 9 0.6713 0.0309
-7 -1 10 -0.4595 -0.0650
-7 -1 11 -0.4508 0.0149
-7 0 1 -0.9310 0.3883
-7 0 2 0.7744 -0.0837
-7 0 3 0.0661 -0.1337
-7 0 4 -0.6057 0.0024
-7 0 5 0.4776 0.0537
-7 0 6 0.3209 0.0648
-7 0 7 -0.6459 -0.0941
-7 0 8 -0.5284 0.0393
-7 0 9 1.5766 0.0166
-7 0 10 -0.8872 -0.0251
-7 0 11 -0.1379 -0.1258
-7 1 1 -1.6108 0.1363
-7 1 2 1.4308 0.1066
-7 1 3 -0.2785 0.0167
-7 1 4 -0.6277 -0.0107
-7 1 5 0.3517 -0.0880
-7 1 6 0.7271 0.0083
-7 1 7 -0.7343 0.0431
-7 1 8 -0.9417 0.0049
-7 1 9 1.9378 0.0120
-7 1 10 -0.8191 0.0675
-7 1 11 -0.4613 -0.2733
-7 2 1 -1.9072 -0.1573
-7 2 2 1.2217 -0.1220
-7 2 3 0.4262 0.1515
-7 2 4 -1.0697 0.0401
-7 2 5 -0.1456 0.0210
-7 2 6 1.5973 -0.1261
-7 2 7 -0.8503 0.0622
-7 2 8 -1.4561 -0.0528
-7 2 9 1.8985 0.0171
-7 2 10 -0.1400 0.1379
-7 2 11 -0.6843 -0.1040
-7 3 1 -1.1303 0.2089
-7 3 2 -0.2287 -0.2341
-7 3 3 1.5084 0.0005
-7 3 4 -1.0240 0.0302
-7 3 5 -0.7925 0.0231
-7 3 6 1.5673 0.0475
-7 3 7 0.2014 0.0103
-7 3 8 -2.0689 -0.1064
-7 3 9 1.1508 -0.0266
-7 3 10 0.5400 0.0066
-7 4 1 -0.0467 0.1229
-7 4 2 -1.2147 0.1474
-7 4 3 1.4966 -0.0753
-7 4 4 -0.5460 -0.0222
-7 4 5 -0.7787 -0.1287
-7 4 6 0.5786 0.1808
-7 4 7 1.2809 0.0385
-7 4 8 -1.7076 -0.0649
-7 4 9 0.0071 -0.1163
-7 5 1 0.4365 -0.3232
-7 5 2 -0.9717 0.1030
-7 5 3 1.0551 0.1476
-7 5 4 -0.4516 -0.0711
-7 5 5 -0.3837 -0.1488
-7 5 6 -0.3765 0.1532
-7 5 7 1.6789 0.0236
-7 5 8 -0.8449 0.0583
-7 6 1 0.1346 -0.0182
-7 6 2 -0.7559 -0.1838
-7 6 3 1.3214 0.1932
-7 6 4 -0.6059 -0.1557
-7 6 5 0.0561 -0.0012
-7 6 6 -1.1708 0.0110
-7 6 7 1.4803 0.1884
-7 6 8 0.0248 -0.0810
-7 7 1 0.0695 0.1074
-7 7 2 -1.3056 0.0248
-7 7 3 1.4241 0.1622
-7 7 4 -0.2820 -0.2570
-7 7 5 0.3338 0.1132
-7 7 6 -1.2019 -0.2639
-7 8 1 0.5396 -0.5110
-7 8 2 -1.1732 0.3282
-7 8 3 0.4777 -0.0829
-7 8 4 0.1449 0.1247
-7 8 5 0.3608 -0.0386
-7 9 1 0.4164 -0.8754
-7 9 2 -0.2778 0.5988
-7 9 3 0.0076 -0.6377
-6 -10 3 -0.3059 -0.2588
-6 -10 4 -0.9959 -0.6442
-6 -10 5 0.9761 0.4907
-6 -10 6 0.1323 -0.1091
-6 -9 1 -0.6553 -0.4688
-6 -9 2 0.2095 0.2959
-6 -9 3 1.4865 0.2851
-6 -9 4 -2.3262 -0.3398
-6 -9 5 1.0845 -0.0147
-6 -9 6 0.3585 -0.1957
-6 -9 7 -0.3887 0.5419
-6 -9 8 -0.0922 -0.1992
-6 -9 9 0.0713 -0.0953
-6 -8 1 -0.2820 0.1425
-6 -8 2 -1.2756 -0.0353
-6 -8 3 2.7742 -0.1796
-6 -8 4 -2.2432 0.2432
-6 -8 5 0.2991 -0.0718
-6 -8 6 0.5557 -0.1934
-6 -8 7 0.0546 0.1229
-6 -8 8 -0.5481 0.0469
-6 -8 9 0.3865 0.1810
-6 -8 10 -0.0953 -0.4358
-6 -7 1 0.2505 0.2332
-6 -7 2 -1.7309 0.3221
-6 -7 3 2.1156 -0.2896
-6 -7 4 -0.5717 0.0129
-6 -7 5 -1.0189 0.0398
-6 -7 6 0.7100 0.0640
-6 -7 7 0.5707 -0.0908
-6 -7 8 -1.1135 -0.0880
-6 -7 9 0.5905 0.2124
-6 -7 10 0.3919 -0.0949
-6 -7 11 -0.8819 -0.0504
-6 -6 1 0.3457 -0.1219
-6 -6 2 -0.9355 -0.0347
-6 -6 3 0.3613 0.2040
-6 -6 4 1.1546 -0.0624
-6 -6 5 -1.5144 -0.0720
-6 -6 6 0.0798 0.0545
-6 -6 7 1.4518 0.0240
-6 -6 8 -1.5205 -0.0233
-6 -6 9 0.0406 -0.1452
-6 -6 10 1.4401 0.2815
-6 -6 11 -1.3609 -0.3696
-6 -6 12 0.3156 0.6452
-6 -5 1 0.1731 0.3745
-6 -5 2 0.1152 -0.3805
-6 -5 3 -0.8029 -0.0886
-6 -5 4 1.3126 0.1764
-6 -5 5 -0.6564 0.0554
-6 -5 6 -0.8505 -0.0837
-6 -5 7 1.9036 -0.0072
-6 -5 8 -1.3029 0.0483
-6 -5 9 -0.4523 -0.0579
-6 -5 10 1.1340 0.0543
-6 -5 11 -0.2145 -0.2018
-6 -5 12 -0.5770 0.4531
-6 -4 1 -0.5188 0.4283
-6 -4 2 1.0094 0.1787
-6 -4 3 -1.0463 -0.3119
-6 -4 4 0.8768 -0.0363
-6 -4 5 -0.3849 0.1062
-6 -4 6 -0.6446 0.0269
-6 -4 7 1.4765 0.0272
-6 -4 8 -0.9432 -0.1541
-6 -4 9 -0.0528 0.2061
-6 -4 10 -0.1399 -0.1831
-6 -4 11 0.7523 0.0691
-6 -4 12 -0.5976 0.0257
-6 -4 13 0.1771 0.0076
-6 -3 1 -1.4233 -0.0433
-6 -3 2 1.3434 0.0368
-6 -3 3 -1.0316 0.1324
-6 -3 4 0.9483 -0.0075
-6 -3 5 -0.6297 -0.1341
-6 -3 6 -0.3021 0.0226
-6 -3 7 0.9308 0.0682
-6 -3 8 -0.4638 -0.0241
-6 -3 9 -0.0840 0.0173
-6 -3 10 -0.1105 -0.0657
-6 -3 11 0.2968 0.0721
-6 -3 12 -0.1069 0.0037
-6 -3 13 -0.0948 -0.1080
-6 -2 1 -0.7033 0.3738
-6 -2 2 0.2605 -0.4409
-6 -2 3 -0.1077 -0.0092
-6 -2 4 -0.0931 0.2311
-6 -2 5 0.3160 -0.0251
-6 -2 6 -0.3782 -0.0420
-6 -2 7 0.0816 -0.1175
-6 -2 8 0.7382 0.1700
-6 -2 9 -1.2976 -0.1017
-6 -2 10 0.6829 0.0291
-6 -2 11 0.4125 -0.0044
-6 -2 12 -0.7870 0.0968
-6 -2 13 0.4675 -0.2187
-6 -1 1 1.4272 0.5701
-6 -1 2 -1.3505 -0.0428
-6 -1 3 1.1969 -0.1938
-6 -1 4 -1.2695 -0.0452
-6 -1 5 0.6661 0.1069
-6 -1 6 0.1674 0.0354
-6 -1 7 -0.9318 -0.0146
-6 -1 8 2.1620 -0.0317
-6 -1 9 -2.3007 -0.0247
-6 -1 10 0.1264 -0.0184
-6 -1 11 1.7434 0.0965
-6 -1 12 -1.3281 0.0017
-6 -1 13 0.2686 -0.1382
-6 0 1 1.6106 0.0418
-6 0 2 -0.5614 0.0780
-6 0 3 0.1997 0.1293
-6 0 4 -0.2651 -0.0751
-6 0 5 -0.0471 -0.0789
-6 0 6 0.3703 -0.0622
-6 0 7 -1.6167 0.1918
-6 0 8 3.2343 -0.0483
-6 0 9 -1.9079 -0.0274
-6 0 10 -1.2758 -0.0992
-6 0 11 1.6613 0.1204
-6 0 12 0.1631 -0.0039
-6 0 13 -0.6915 0.0061
-6 1 1 -0.6715 0.1038
-6 1 2 1.9030 -0.2510
-6 1 3 -1.5103 0.0355
-6 1 4 0.3897 0.1839
-6 1 5 0.3942 -0.0540
-6 1 6 0.1831 -0.0892
-6 1 7 -2.4504 -0.0020
-6 1 8 2.9732 0.0723
-6 1 9 -0.0096 -0.0194
-6 1 10 -1.6950 0.0555
-6 1 11 -0.1285 -0.1153
-6 1 12 1.2640 -0.0480
-6 2 1 -1.6671 0.4789
-6 2 2 2.0427 -0.1073
-6 2 3 -0.9143 -0.1506
-6 2 4 -0.5047 0.0431
-6 2 5 0.9058 -0.0072
-6 2 6 0.6963 0.1100
-6 2 7 -2.1768 -0.0810
-6 2 8 0.4386 -0.0235
-6 2 9 1.9070 -0.0679
-6 2 10 -0.8608 0.2332
-6 2 11 -1.0457 -0.0327
-6 2 12 0.4566 -0.3904
-6 3 1 -0.4186 0.2045
-6 3 2 0.6615 0.0778
-6 3 3 -0.2718 0.0664
-6 3 4 -0.5894 -0.0576
-6 3 5 0.4963 -0.0799
-6 3 6 0.7186 0.0259
-6 3 7 -0.2738 0.1007
-6 3 8 -1.7690 -0.1296
-6 3 9 1.7092 0.0164
-6 3 10 0.3212 0.0270
-6 3 11 -0.9583 0.2860
-6 4 1 0.1735 -0.0479
-6 4 2 1.1632 -0.1686
-6 4 3 -0.9657 0.1366
-6 4 4 -0.4654 0.0364
-6 4 5 0.4349 0.0510
-6 4 6 0.2590 -0.0881
-6 4 7 0.6464 0.0457
-6 4 8 -1.4209 -0.1512
-6 4 9 0.3386 0.0901
-6 4 10 0.8215 0.0566
-6 4 11 -0.9086 0.1371
-6 5 1 -1.1917 0.2912
-6 5 2 2.3411 -0.2164
-6 5 3 -0.3462 -0.0977
-6 5 4 -1.3987 0.0399
-6 5 5 0.4146 0.0407
-6 5 6 0.4512 0.1678
-6 5 7 0.2579 -0.1284
-6 5 8 -0.5472 -0.0728
-6 5 9 -0.0240 -0.1280
-6 5 10 0.4102 0.2996
-6 6 1 -2.3923 0.2123
-6 6 2 1.1620 0.1310
-6 6 3 1.7835 -0.1254
-6 6 4 -1.8731 -0.0323
-6 6 5 -0.1317 -0.0862
-6 6 6 0.7411 0.2047
-6 6 7 -0.0897 -0.0162
-6 6 8 -0.1885 -0.1010
-6 6 9 0.0653 -0.0521
-6 7 1 -1.3422 -0.1826
-6 7 2 -1.0809 0.0032
-6 7 3 2.3845 0.1884
-6 7 4 -0.9739 -0.1233
-6 7 5 -0.6564 0.0138
-6 7 6 0.9380 -0.0066
-6 7 7 -0.5464 0.0838
-6 7 8 0.2512 -0.1765
-6 8 1 -0.0873 0.0286
-6 8 2 -1.1771 -0.2395
-6 8 3 1.1454 0.1368
-6 8 4 -0.2401 -0.0286
-6 8 5 -0.5745 -0.0040
-6 8 6 0.8442 0.1163
-6 8 7 -0.4484 -0.1460
-6 9 1 -0.4522 -0.0699
-6 9 2 -0.2354 0.1682
-6 9 3 0.6283 -0.0386
-6 9 4 -0.5753 -0.0872
-6 9 5 -0.0057 0.0383
-6 9 6 0.1347 0.1287
-6 10 1 -0.4591 -0.5709
-6 10 2 -0.2225 0.0619
-6 10 3 0.7056 0.4592
-6 10 4 -0.6234 -0.4658
-6 11 1 0.0688 -0.2989
-5 -11 2 0.9276 0.3512
-5 -11 3 -1.0886 0.2092
-5 -11 4 0.0590 -0.5737
-5 -11 5 0.6835 0.1800
-5 -11 6 -0.0119 0.4712
-5 -11 7 -0.7547 -0.3967
-5 -10 1 -1.0222 -0.1529
-5 -10 2 2.0670 -0.1994
-5 -10 3 -1.5118 0.2490
-5 -10 4 -0.0688 -0.1246
-5 -10 5 0.4307 -0.1657
-5 -10 6 0.5480 0.3094
-5 -10 7 -0.7537 -0.0834
-5 -10 8 -0.0343 0.0632
-5 -10 9 0.3143 -0.4858
-5 -10 10 -0.0601 0.7643
-5 -9 1 -1.7926 0.0731
-5 -9 2 2.0730 0.0719
-5 -9 3 -0.5350 -0.1896
-5 -9 4 -1.0218 -0.0038
-5 -9 5 0.7071 0.0879
-5 -9 6 0.2257 -0.0606
-5 -9 7 -0.0954 0.0854
-5 -9 8 -0.3483 0.0509
-5 -9 9 0.3843 -0.3516
-5 -9 10 -0.3789 0.4835
-5 -9 11 0.2232 -0.3415
-5 -8 1 -0.9170 -0.1936
-5 -8 2 0.0838 0.3115
-5 -8 3 1.6687 -0.0289
-5 -8 4 -2.2053 -0.2148
-5 -8 5 0.9899 0.1634
-5 -8 6 0.0192 -0.0755
-5 -8 7 -0.0408 0.0934
-5 -8 8 -0.2283 -0.1158
-5 -8 9 0.4872 0.0559
-5 -8 10 -0.3313 0.0254
-5 -8 11 -0.2961 0.0291
-5 -8 12 0.4713 -0.2346
-5 -7 1 1.0310 -0.2401
-5 -7 2 -1.7955 -0.0566
-5 -7 3 2.3119 0.1069
-5 -7 4 -1.4973 0.0566
-5 -7 5 0.0856 -0.0831
-5 -7 6 0.5820 0.0375
-5 -7 7 -0.4795 0.0156
-5 -7 8 0.0473 -0.1146
-5 -7 9 0.1121 0.1081
-5 -7 10 0.4230 -0.0135
-5 -7 11 -0.7844 0.1204
-5 -7 12 0.2594 -0.3719
-5 -7 13 0.3096 0.3036
-5 -6 1 1.6207 0.2140
-5 -6 2 -1.0228 -0.1499
-5 -6 3 0.4257 -0.2358
-5 -6 4 -0.0609 0.2201
-5 -6 5 -0.1574 0.0004
-5 -6 6 0.4252 0.0150
-5 -6 7 -0.5148 -0.0779
-5 -6 8 0.2292 0.0493
-5 -6 9 -0.1758 -0.0880
-5 -6 10 0.6044 0.1211
-5 -6 11 -0.7246 0.0047
-5 -6 12 0.1999 -0.0184
-5 -6 13 0.3618 -0.3558
-5 -5 1 -0.0369 0.1882
-5 -5 2 1.2707 0.1764
-5 -5 3 -0.5845 -0.1563
-5 -5 4 -0.8818 -0.1163
-5 -5 5 0.9837 0.1500
-5 -5 6 0.0854 -0.0235
-5 -5 7 -0.5356 -0.0310
-5 -5 8 -0.0945 0.0451
-5 -5 9 0.3357 -0.0620
-5 -5 10 0.6128 0.0375
-5 -5 11 -1.2941 -0.0139
-5 -5 12 0.4402 0.1678
-5 -5 13 0.8475 -0.4008
-5 -5 14 -1.0615 0.2624
-5 -4 1 -2.1135 -0.1351
-5 -4 2 1.5668 -0.0566
-5 -4 3 0.8967 0.1708
-5 -4 4 -1.8017 -0.0253
-5 -4 5 0.3744 -0.0141
-5 -4 6 0.9326 -0.0893
-5 -4 7 -0.3266 0.0827
-5 -4 8 -1.1186 -0.0277
-5 -4 9 0.6737 0.0504
-5 -4 10 1.5135 -0.0912
-5 -4 11 -1.9134 0.0865
-5 -4 12 -0.1256 -0.0203
-5 -4 13 1.3889 0.0280
-5 -4 14 -0.7734 -0.2083
-5 -3 1 -1.8850 0.3250
-5 -3 2 -0.3930 -0.3134
-5 -3 3 1.3992 -0.1795
-5 -3 4 0.1258 0.3061
-5 -3 5 -1.5252 -0.0020
-5 -3 6 1.0113 -0.1147
-5 -3 7 1.0122 -0.0127
-5 -3 8 -2.2229 0.0472
-5 -3 9 0.3035 0.0075
-5 -3 10 2.1795 -0.0317
-5 -3 11 -1.2190 0.0627
-5 -3 12 -1.1190 -0.1134
-5 -3 13 1.1580 0.1628
-5 -3 14 -0.0241 -0.1682
-5 -2 1 0.5356 0.5119
-5 -2 2 -1.7779 0.0947
-5 -2 3 0.0951 -0.3088
-5 -2 4 1.7145 0.0308
-5 -2 5 -1.3513 0.0954
-5 -2 6 -0.4051 0.0303
-5 -2 7 2.4480 -0.0806
-5 -2 8 -2.4565 0.0318
-5 -2 9 -0.4538 -0.0567
-5 -2 10 1.9147 0.0903
-5 -2 11 0.3118 -0.0063
-5 -2 12 -2.0636 -0.0663
-5 -2 13 1.2258 -0.0006
-5 -2 14 -0.2186 0.0726
-5 -1 1 2.5142 0.0701
-5 -1 2 -1.9380 -0.0158
-5 -1 3 -0.4080 0.1611
-5 -1 4 1.3367 -0.0743
-5 -1 5 -0.4556 -0.0565
-5 -1 6 -1.2460 0.0057
-5 -1 7 2.5574 0.0759
-5 -1 8 -1.1495 -0.0287
-5 -1 9 -1.6178 -0.0806
-5 -1 10 1.0984 0.0664
-5 -1 11 1.8995 0.0231
-5 -1 12 -2.7022 0.0431
-5 -1 13 1.2482 -0.1532
-5 -1 14 -0.2766 0.0413
-5 0 1 2.4302 0.3441
-5 0 2 -1.4322 -0.3920
-5 0 3 -0.4901 -0.0183
-5 0 4 1.1137 0.2037
-5 0 5 -0.0808 -0.0030
-5 0 6 -1.3392 -0.1173
-5 0 7 1.0593 0.0563
-5 0 8 1.2645 0.0113
-5 0 9 -2.2204 -0.0079
-5 0 10 -0.1685 -0.0327
-5 0 11 2.4909 -0.0295
-5 0 12 -1.8776 0.0989
-5 0 13 0.2562 0.0962
-5 0 14 0.1644 -0.3608
-5 1 1 1.3919 0.6180
-5 1 2 -0.9844 0.0001
-5 1 3 -0.3647 -0.2990
-5 1 4 0.4792 0.0280
-5 1 5 0.5123 0.0983
-5 1 6 -0.3470 0.0093
-5 1 7 -1.4011 -0.0274
-5 1 8 2.4342 -0.0234
-5 1 9 -1.1298 0.0465
-5 1 10 -1.0936 0.0254
-5 1 11 1.6920 -0.1099
-5 1 12 -0.5061 -0.1037
-5 1 13 -0.3820 0.4403
-5 2 1 1.6275 0.1953
-5 2 2 -1.3964 0.1002
-5 2 3 -0.0050 0.0566
-5 2 4 0.3683 -0.0667
-5 2 5 -0.5052 -0.0746
-5 2 6 1.6111 0.0298
-5 2 7 -2.1014 0.0310
-5 2 8 1.1113 -0.0174
-5 2 9 0.1195 0.0330
-5 2 10 -0.8066 0.0370
-5 2 11 0.6347 -0.0548
-5 2 12 0.2374 -0.1783
-5 2 13 -0.6051 0.2275
-5 3 1 2.4047 0.2173
-5 3 2 -0.7362 -0.2817
-5 3 3 -1.6226 0.0455
-5 3 4 2.1410 0.1694
-5 3 5 -1.7288 -0.0385
-5 3 6 1.1521 -0.0769
-5 3 7 -0.3062 -0.0110
-5 3 8 0.1875 -0.0334
-5 3 9 -0.5642 0.1362
-5 3 10 0.3675 0.0359
-5 3 11 -0.4540 -0.1773
-5 3 12 1.0799 0.0052
-5 3 13 -0.9174 0.0327
-5 4 1 1.7352 0.5292
-5 4 2 1.5929 -0.1283
-5 4 3 -3.3568 -0.1742
-5 4 4 1.8584 0.0467
-5 4 5 0.4527 0.0668
-5 4 6 -1.4058 0.0334
-5 4 7 0.3833 -0.0707
-5 4 8 1.4167 -0.0588
-5 4 9 -1.7800 0.0355
-5 4 10 1.1032 0.2267
-5 4 11 -1.0771 -0.1765
-5 4 12 1.0334 -0.2881
-5 5 1 0.3130 0.2277
-5 5 2 2.4742 0.0832
-5 5 3 -1.7834 0.0543
-5 5 4 -1.3314 -0.0655
-5 5 5 3.1196 -0.0851
-5 5 6 -1.8836 0.0999
-5 5 7 -0.8349 -0.0662
-5 5 8 2.0504 0.0348
-5 5 9 -1.2538 -0.0213
-5 5 10 0.4796 -0.0120
-5 5 11 -0.1728 0.3859
-5 6 1 -0.5322 -0.0347
-5 6 2 1.4171 -0.1368
-5 6 3 0.4304 0.1525
-5 6 4 -2.6524 0.0460
-5 6 5 2.6212 -0.0208
-5 6 6 -0.3300 -0.0769
-5 6 7 -1.5276 0.0465
-5 6 8 1.1550 -0.1147
-5 6 9 -0.0466 0.2322
-5 6 10 -0.4572 -0.3225
-5 6 11 0.7800 0.5465
-5 7 1 -0.8149 0.2225
-5 7 2 0.9199 -0.1441
-5 7 3 0.3767 0.0059
-5 7 4 -1.5132 -0.0288
-5 7 5 0.8400 0.0960
-5 7 6 1.0655 -0.0996
-5 7 7 -1.6409 0.0664
-5 7 8 0.5309 0.0311
-5 7 9 0.2896 -0.1633
-5 7 10 -0.4222 0.1278
-5 8 1 -0.9240 0.0996
-5 8 2 0.9293 0.1505
-5 8 3 0.1760 -0.0046
-5 8 4 -0.8565 0.0678
-5 8 5 -0.2599 -0.1943
-5 8 6 1.7132 0.0892
-5 8 7 -1.2908 -0.2263
-5 8 8 0.0346 0.6350
-5 9 1 -0.5092 -0.2810
-5 9 2 -0.0124 0.0136
-5 9 3 0.8820 0.1063
-5 9 4 -0.6735 0.2170
-5 9 5 -0.5695 -0.0987
-5 9 6 0.9738 -0.1870
-5 9 7 -0.0499 -0.1302
-5 10 1 0.2228 0.0265
-5 10 2 -0.7514 -0.4041
-5 10 3 0.8167 0.1967
-5 10 4 -0.3527 -0.0816
-5 10 5 0.0698 0.4983
-5 10 6 -0.2893 -0.6465
-5 11 1 0.3576 0.1592
-5 11 2 -0.5004 -0.1314
-5 11 3 0.3335 -0.0279
-5 11 4 -0.4200 -0.1206
-4 -12 2 -0.4977 0.1355
-4 -12 3 0.5126 0.6086
-4 -12 4 -0.2062 -0.3482
-4 -12 5 0.3310 -0.2654
-4 -12 6 -0.5948 0.4420
-4 -12 7 0.3431 -0.0829
-4 -11 1 0.1076 -0.1383
-4 -11 2 -0.2461 -0.4629
-4 -11 3 0.0052 0.2592
-4 -11 4 -0.1508 0.2125
-4 -11 5 0.7534 -0.2425
-4 -11 6 -0.7156 0.0464
-4 -11 7 0.0989 0.0745
-4 -11 8 0.3813 -0.1367
-4 -11 9 -0.7762 -0.0044
-4 -11 10 0.8728 0.3579
-4 -10 1 -0.6517 0.0022
-4 -10 2 0.6639 0.1733
-4 -10 3 -0.5931 -0.2688
-4 -10 4 -0.0199 0.0462
-4 -10 5 0.3742 0.1527
-4 -10 6 -0.0314 -0.0176
-4 -10 7 -0.3304 -0.1915
-4 -10 8 0.7849 0.1872
-4 -10 9 -1.3785 -0.2059
-4 -10 10 1.2193 0.3424
-4 -10 11 -0.4554 -0.2639
-4 -10 12 0.1433 0.0859
-4 -9 1 -0.8541 -0.5473
-4 -9 2 0.6155 0.2965
-4 -9 3 -0.5608 0.1628
-4 -9 4 0.4864 -0.2637
-4 -9 5 -0.5767 0.1185
-4 -9 6 0.5049 0.0522
-4 -9 7 -0.3781 -0.1269
-4 -9 8 0.7987 0.0245
-4 -9 9 -1.1154 0.0674
-4 -9 10 0.5194 -0.0148
-4 -9 11 0.1502 -0.1057
-4 -9 12 -0.1266 0.2635
-4 -8 1 0.4932 -0.2259
-4 -8 2 -0.1109 -0.2522
-4 -8 3 -0.9952 0.1676
-4 -8 4 1.5674 0.0846
-4 -8 5 -1.0793 0.0270
-4 -8 6 0.1395 -0.1330
-4 -8 7 0.1732 0.0657
-4 -8 8 0.1834 -0.0845
-4 -8 9 -0.0437 0.1506
-4 -8 10 -0.8076 -0.0742
-4 -8 11 1.0307 -0.1216
-4 -8 12 -0.2610 0.1518
-4 -8 13 -0.2236 0.1851
-4 -7 1 1.6165 0.1110
-4 -7 2 -0.0076 0.0646
-4 -7 3 -1.7960 -0.3580
-4 -7 4 1.5965 0.1762
-4 -7 5 0.0388 0.1385
-4 -7 6 -1.0280 -0.1074
-4 -7 7 0.6615 -0.0673
-4 -7 8 -0.1213 0.1023
-4 -7 9 0.7979 -0.0029
-4 -7 10 -1.7834 -0.0568
-4 -7 11 0.9940 -0.0110
-4 -7 12 0.7545 -0.0308
-4 -7 13 -1.0215 0.2093
-4 -7 14 0.1518 -0.1267
-4 -6 1 2.0165 -0.2417
-4 -6 2 0.2394 0.3211
-4 -6 3 -1.3510 -0.1041
-4 -6 4 -0.1479 -0.0723
-4 -6 5 1.7005 0.0560
-4 -6 6 -1.2931 0.0110
-4 -6 7 -0.1533 -0.1059
-4 -6 8 0.3769 0.1280
-4 -6 9 1.2032 0.0519
-4 -6 10 -1.7497 -0.1435
-4 -6 11 -0.3732 -0.0234
-4 -6 12 2.0604 0.1198
-4 -6 13 -1.2298 -0.0942
-4 -6 14 0.1069 0.1496
-4 -5 1 1.2671 -0.1770
-4 -5 2 0.6787 -0.2024
-4 -5 3 -0.1102 0.1726
-4 -5 4 -1.7444 0.0662
-4 -5 5 1.6378 -0.0202
-4 -5 6 0.3622 -0.0922
-4 -5 7 -1.8417 -0.0010
-4 -5 8 0.9208 0.0190
-4 -5 9 1.0368 0.1077
-4 -5 10 -0.5004 -0.0489
-4 -5 11 -1.9170 -0.1031
-4 -5 12 2.2944 0.0474
-4 -5 13 -0.7237 0.0591
-4 -5 14 -0.0413 -0.0593
-4 -5 15 -0.0998 0.0620
-4 -4 1 -0.9904 0.2920
-4 -4 2 0.7706 -0.1921
-4 -4 3 1.2973 -0.2139
-4 -4 4 -1.8218 0.1863
-4 -4 5 -0.1717 0.0754
-4 -4 6 2.2843 -0.0939
-4 -4 7 -2.5395 -0.0308
-4 -4 8 0.7351 0.0545
-4 -4 9 0.7403 -0.0362
-4 -4 10 0.4564 0.0381
-4 -4 11 -2.2264 0.0484
-4 -4 12 1.6608 -0.1559
-4 -4 13 -0.0148 0.1045
-4 -4 14 -0.5796 0.0087
-4 -4 15 0.3283 -0.0345
-4 -3 1 -1.3111 0.1080
-4 -3 2 -0.6962 0.2586
-4 -3 3 2.0203 -0.1999
-4 -3 4 -0.6984 -0.0413
-4 -3 5 -1.3590 0.0728
-4 -3 6 1.9454 -0.0051
-4 -3 7 -0.9638 -0.0610
-4 -3 8 -0.8462 0.1016
-4 -3 9 1.4797 -0.0445
-4 -3 10 0.3080 -0.0528
-4 -3 11 -1.9390 0.0660
-4 -3 12 0.9152 0.0199
-4 -3 13 0.9793 -0.0903
-4 -3 14 -1.2369 0.0584
-4 -3 15 0.3261 -0.0098
-4 -2 1 0.2085 -0.1231
-4 -2 2 -1.0825 -0.0750
-4 -2 3 1.1972 0.1671
-4 -2 4 -0.2243 -0.0153
-4 -2 5 -0.1713 -0.0028
-4 -2 6 -0.5040 -0.0675
-4 -2 7 1.5322 0.0134
-4 -2 8 -2.4829 0.0024
-4 -2 9 1.9269 0.0583
-4 -2 10 0.5508 0.0035
-4 -2 11 -1.6966 -0.1353
-4 -2 12 -0.2142 0.1055
-4 -2 13 1.8860 0.0615
-4 -2 14 -1.1528 -0.0650
-4 -2 15 -0.0125 -0.1580
-4 -1 1 -1.1681 0.4055
-4 -1 2 0.7520 -0.3374
-4 -1 3 0.7943 -0.1443
-4 -1 4 -1.4446 0.2049
-4 -1 5 1.6216 0.0676
-4 -1 6 -1.7399 -0.1140
-4 -1 7 1.7612 0.0143
-4 -1 8 -1.8842 -0.0189
-4 -1 9 0.9912 0.0100
-4 -1 10 0.8715 0.0875
-4 -1 11 -0.8131 -0.0697
-4 -1 12 -1.1639 -0.1504
-4 -1 13 1.6746 0.2004
-4 -1 14 -0.6097 0.2137
-4 -1 15 0.1325 -0.5901
-4 0 1 -4.2236 0.4755
-4 0 2 0.8461 0.1613
-4 0 3 2.6222 -0.3437
-4 0 4 -2.7723 0.0322
-4 0 5 1.2676 0.0943
-4 0 6 0.0437 0.0177
-4 0 7 -0.3076 -0.0591
-4 0 8 -0.5862 -0.0098
-4 0 9 0.7019 0.0455
-4 0 10 0.3016 -0.0188
-4 0 11 -0.1151 0.0932
-4 0 12 -0.9758 -0.1915
-4 0 13 1.0579 -0.0895
-4 0 14 -0.6374 0.5651
-4 1 1 -3.0929 0.0854
-4 1 2 -2.8750 0.0120
-4 1 3 4.9630 0.0859
-4 1 4 -2.0005 -0.0372
-4 1 5 -1.5695 -0.0528
-4 1 6 2.8522 0.0594
-4 1 7 -1.3986 0.0007
-4 1 8 -1.0012 -0.0701
-4 1 9 1.2401 0.0183
-4 1 10 0.1858 0.0540
-4 1 11 -0.3178 0.0131
-4 1 12 -0.7148 0.0327
-4 1 13 1.0992 -0.2530
-4 1 14 -0.6281 0.1818
-4 2 1 2.0471 0.4664
-4 2 2 -6.3155 -0.4129
-4 2 3 4.0766 -0.0231
-4 2 4 1.7434 0.1432
-4 2 5 -5.0267 -0.0118
-4 2 6 3.8763 -0.0176
-4 2 7 -0.3473 0.0254
-4 2 8 -1.8018 0.0440
-4 2 9 0.6590 -0.1639
-4 2 10 1.1299 0.0671
-4 2 11 -0.7029 0.0145
-4 2 12 -0.7260 0.0585
-4 2 13 0.8499 0.2143
-4 2 14 0.0803 -0.6824
-4 3 1 5.0276 0.6401
-4 3 2 -5.1228 0.0286
-4 3 3 -0.3680 -0.2383
-4 3 4 5.7343 -0.0445
-4 3 5 -5.9513 0.0552
-4 3 6 2.1827 -0.0016
-4 3 7 1.2414 0.0421
-4 3 8 -1.3108 0.0644
-4 3 9 -1.1326 -0.0099
-4 3 10 2.4946 -0.1586
-4 3 11 -1.1864 -0.0046
-4 3 12 -0.4616 -0.0909
-4 3 13 0.3375 0.7632
-4 4 1 4.0456 0.1375
-4 4 2 -1.4944 0.1308
-4 4 3 -3.6772 0.1288
-4 4 4 5.8142 -0.0847
-4 4 5 -3.0380 -0.0818
-4 4 6 -0.9730 -0.0884
-4 4 7 2.1941 0.1220
-4 4 8 -0.0159 0.0008
-4 4 9 -2.8842 0.0977
-4 4 10 3.1960 0.0006
-4 4 11 -0.8978 -0.2431
-4 4 12 -0.7493 -0.1320
-4 4 13 0.4094 0.6150
-4 5 1 2.2184 0.1830
-4 5 2 0.5173 -0.2749
-4 5 3 -3.2445 0.0581
-4 5 4 2.4375 0.2102
-4 5 5 1.1199 -0.0651
-4 5 6 -3.4304 -0.0881
-4 5 7 2.2152 -0.0443
-4 5 8 1.1211 0.0771
-4 5 9 -3.1426 -0.0333
-4 5 10 1.9079 0.1955
-4 5 11 0.4884 -0.2257
-4 5 12 -1.0508 -0.0349
-4 6 1 0.8793 0.5065
-4 6 2 0.8934 -0.1104
-4 6 3 -1.5450 -0.2155
-4 6 4 -0.4918 0.0869
-4 6 5 3.3566 0.0131
-4 6 6 -3.7792 0.0618
-4 6 7 1.2377 -0.0079
-4 6 8 1.4762 -0.0933
-4 6 9 -1.6438 0.0577
-4 6 10 -0.0533 -0.0132
-4 6 11 0.8760 0.0001
-4 7 1 -0.1914 0.3011
-4 7 2 1.2756 0.0631
-4 7 3 -0.8551 0.0726
-4 7 4 -1.4335 -0.1311
-4 7 5 3.1817 -0.0542
-4 7 6 -2.3086 -0.0086
-4 7 7 0.0114 0.1866
-4 7 8 0.9652 -0.1066
-4 7 9 -0.1621 0.0174
-4 7 10 -0.4409 -0.0791
-4 8 1 -0.9856 0.0409
-4 8 2 1.4167 -0.1191
-4 8 3 -0.2398 0.1557
-4 8 4 -1.4643 0.0395
-4 8 5 1.8053 -0.1576
-4 8 6 -0.6981 0.0777
-4 8 7 -0.3452 -0.0484
-4 8 8 0.3522 0.1531
-4 8 9 0.0105 -0.1601
-4 9 1 -0.6584 0.1598
-4 9 2 0.2082 -0.0734
-4 9 3 0.6464 -0.0254
-4 9 4 -0.8014 0.0357
-4 9 5 0.5078 -0.1545
-4 9 6 -0.2464 0.1045
-4 9 7 -0.1582 0.1123
-4 9 8 0.4597 -0.0477
-4 10 1 0.5690 0.2019
-4 10 2 -0.7451 0.0376
-4 10 3 0.3124 0.1841
-4 10 4 0.1583 -0.1965
-4 10 5 0.2245 0.0630
-4 10 6 -0.3869 -0.4288
-4 10 7 -0.3415 0.6429
-4 11 1 0.7033 -0.1892
-4 11 2 -0.2145 0.0811
-4 11 3 -0.3360 0.1447
-4 11 4 0.1492 -0.0202
-4 11 5 0.4756 0.2280
-4 12 1 0.0638 -0.4850
-4 12 2 0.1217 0.2986
-4 12 3 -0.0773 -0.3505
-3 -13 3 0.2946 0.1593
-3 -13 4 0.1324 0.0606
-3 -13 5 -0.6313 -0.3762
-3 -13 6 0.6558 0.5047
-3 -12 1 0.4669 -0.1310
-3 -12 2 -0.5673 -0.0296
-3 -12 3 0.3474 -0.0479
-3 -12 4 0.4512 0.1530
-3 -12 5 -1.0822 -0.1854
-3 -12 6 0.9946 0.3028
-3 -12 7 -0.2185 -0.4349
-3 -12 8 -0.6357 0.2175
-3 -12 9 0.7674 0.2574
-3 -11 1 0.2213 -0.1589
-3 -11 2 -0.2533 0.3083
-3 -11 3 -0.0388 -0.0531
-3 -11 4 0.6982 -0.2345
-3 -11 5 -1.0752 0.1637
-3 -11 6 0.6828 0.1135
-3 -11 7 0.1937 -0.2543
-3 -11 8 -0.6576 0.0724
-3 -11 9 0.2264 0.1895
-3 -11 10 0.4868 -0.0301
-3 -11 11 -0.5897 -0.4867
-3 -10 1 -1.0209 -0.6242
-3 -10 2 0.1374 0.2243
-3 -10 3 0.3788 0.3362
-3 -10 4 -0.0522 -0.3335
-3 -10 5 -0.2053 0.0721
-3 -10 6 -0.0482 0.0291
-3 -10 7 0.3093 -0.0527
-3 -10 8 -0.1920 0.0140
-3 -10 9 -0.4243 0.0561
-3 -10 10 1.0715 0.1115
-3 -10 11 -0.8663 -0.4480
-3 -10 12 0.1812 0.5062
-3 -9 1 -0.6861 -0.2726
-3 -9 2 -1.3821 -0.1509
-3 -9 3 1.5276 0.1079
-3 -9 4 -0.3523 0.0953
-3 -9 5 -0.1686 -0.0087
-3 -9 6 0.0790 -0.1191
-3 -9 7 0.0146 0.0343
-3 -9 8 0.1483 0.0224
-3 -9 9 -0.9766 0.0795
-3 -9 10 1.4504 -0.1108
-3 -9 11 -0.4071 -0.0183
-3 -9 12 -0.6787 0.0671
-3 -9 13 0.4237 0.1296
-3 -8 1 1.5560 -0.0815
-3 -8 2 -2.1996 0.3262
-3 -8 3 0.1544 -0.3205
-3 -8 4 1.5763 0.0413
-3 -8 5 -1.3055 0.1206
-3 -8 6 0.3662 -0.0451
-3 -8 7 0.1726 -0.0853
-3 -8 8 0.3541 0.0874
-3 -8 9 -1.5207 0.0622
-3 -8 10 1.0881 -0.1574
-3 -8 11 0.8484 0.0571
-3 -8 12 -1.4778 -0.0193
-3 -8 13 0.5573 0.2260
-3 -8 14 -0.0310 -0.3284
-3 -7 1 1.8032 -0.6460
-3 -7 2 -0.0629 0.4004
-3 -7 3 -2.6412 0.1524
-3 -7 4 2.9632 -0.1998
-3 -7 5 -1.0683 -0.0319
-3 -7 6 -0.7069 0.0851
-3 -7 7 1.0850 -0.0706
-3 -7 8 0.0386 0.0811
-3 -7 9 -0.8626 -0.0216
-3 -7 10 -0.2798 0.0067
-3 -7 11 1.5731 -0.0877
-3 -7 12 -1.0100 0.0469
-3 -7 13 -0.1306 0.0421
-3 -7 14 0.4212 0.1125
-3 -6 1 0.1593 -0.3410
-3 -6 2 1.9947 -0.2750
-3 -6 3 -3.3610 0.2431
-3 -6 4 1.9106 0.1001
-3 -6 5 0.7686 -0.0621
-3 -6 6 -2.4078 -0.1078
-3 -6 7 2.4085 0.0660
-3 -6 8 -1.2843 0.0194
-3 -6 9 0.5258 -0.0176
-3 -6 10 -0.8137 0.0234
-3 -6 11 0.7776 -0.0259
-3 -6 12 0.2774 -0.0137
-3 -6 13 -1.1591 -0.0456
-3 -6 14 1.1561 0.1750
-3 -6 15 -0.6679 -0.1133
-3 -5 1 -1.4202 0.0987
-3 -5 2 2.3778 0.0538
-3 -5 3 -1.9908 -0.2912
-3 -5 4 -0.3080 0.0815
-3 -5 5 2.4740 0.1618
-3 -5 6 -3.3201 -0.1030
-3 -5 7 2.9033 -0.0092
-3 -5 8 -1.2239 0.0109
-3 -5 9 -0.3971 0.0290
-3 -5 10 0.6012 -0.0495
-3 -5 11 -0.5900 0.0563
-3 -5 12 1.4538 -0.0516
-3 -5 13 -1.9820 0.0078
-3 -5 14 1.5014 0.0227
-3 -5 15 -0.7969 -0.0139
-3 -4 1 -1.1045 -0.4056
-3 -4 2 0.2609 0.4345
-3 -4 3 0.7464 -0.0427
-3 -4 4 -2.1041 -0.1495
-3 -4 5 2.5924 0.0046
-3 -4 6 -2.0494 0.0903
-3 -4 7 0.3497 -0.0634
-3 -4 8 2.2610 0.0207
-3 -4 9 -3.2241 0.0094
-3 -4 10 1.8641 0.0128
-3 -4 11 -1.2179 -0.0288
-3 -4 12 1.9114 -0.0106
-3 -4 13 -1.8249 0.0161
-3 -4 14 1.1655 0.0536
-3 -4 15 -0.9209 -0.1668
-3 -3 1 2.9728 -0.3486
-3 -3 2 -2.7339 -0.1755
-3 -3 3 1.6307 0.1862
-3 -3 4 -1.4261 0.0832
-3 -3 5 0.9011 -0.0542
-3 -3 6 0.8649 -0.0359
-3 -3 7 -3.6750 -0.0024
-3 -3 8 5.4611 -0.0018
-3 -3 9 -3.8833 -0.0067
-3 -3 10 1.0962 0.0467
-3 -3 11 -0.4680 0.0154
-3 -3 12 0.8304 -0.0827
-3 -3 13 -0.6280 0.0499
-3 -3 14 0.8218 0.0384
-3 -3 15 -1.0757 -0.1541
-3 -2 1 5.2760 0.3185
-3 -2 2 -0.4882 -0.1970
-3 -2 3 -1.4760 -0.2492
-3 -2 4 -0.2505 0.0995
-3 -2 5 0.7753 0.1629
-3 -2 6 1.7404 -0.0688
-3 -2 7 -4.7030 0.0092
-3 -2 8 4.6708 -0.0308
-3 -2 9 -1.4503 -0.0297
-3 -2 10 -1.3230 -0.0074
-3 -2 11 1.6571 0.0871
-3 -2 12 -0.8848 -0.0432
-3 -2 13 -0.1619 0.0190
-3 -2 14 1.0535 -0.0050
-3 -2 15 -0.8796 -0.0967
-3 -1 1 -0.2391 0.1050
-3 -1 2 5.8702 0.3493
-3 -1 3 -2.5474 -0.2136
-3 -1 4 -3.7454 -0.1027
-3 -1 5 4.2697 0.0254
-3 -1 6 0.0485 0.0418
-3 -1 7 -3.0507 0.0200
-3 -1 8 1.8223 0.0687
-3 -1 9 1.6362 -0.1015
-3 -1 10 -3.6789 -0.0001
-3 -1 11 2.8238 -0.0458
-3 -1 12 -0.4300 0.1062
-3 -1 13 -1.1680 0.0228
-3 -1 14 0.9566 -0.0845
-3 -1 15 -0.1180 -0.0377
-3 0 1 -8.3460 -0.2348
-3 0 2 6.9684 -0.0147
-3 0 3 3.4613 0.1482
-3 0 4 -9.9148 0.0704
-3 0 5 6.2736 -0.0972
-3 0 6 0.2498 -0.0720
-3 0 7 -2.2570 0.0219
-3 0 8 -0.1392 0.0741
-3 0 9 3.2201 0.0104
-3 0 10 -3.6970 -0.0259
-3 0 11 0.9690 -0.0785
-3 0 12 1.6970 0.0345
-3 0 13 -1.3648 0.1400
-3 0 14 -0.2761 -0.1230
-3 0 15 0.6212 -0.1527
-3 1 1 -9.1935 0.4180
-3 1 2 0.1463 -0.4354
-3 1 3 10.0024 -0.1135
-3 1 4 -9.8246 0.2052
-3 1 5 1.8251 0.0937
-3 1 6 3.3330 -0.1390
-3 1 7 -2.2520 0.0484
-3 1 8 -1.1819 -0.0742
-3 1 9 3.1750 0.0846
-3 1 10 -1.7102 -0.0281
-3 1 11 -1.6252 -0.0225
-3 1 12 2.2265 0.0027
-3 1 13 0.1276 0.0550
-3 1 14 -1.2407 0.1314
-3 2 1 -3.0611 0.5907
-3 2 2 -5.0476 0.0862
-3 2 3 7.7500 -0.3112
-3 2 4 -2.0458 0.0058
-3 2 5 -4.3343 0.0653
-3 2 6 4.5229 0.0177
-3 2 7 -0.6990 -0.0053
-3 2 8 -2.4751 0.0307
-3 2 9 2.6515 -0.0402
-3 2 10 0.3435 0.0012
-3 2 11 -2.6360 -0.0360
-3 2 12 0.9885 0.0461
-3 2 13 1.1605 -0.0919
-3 2 14 -0.6401 0.3812
-3 3 1 0.1477 0.0222
-3 3 2 -2.3227 0.0820
-3 3 3 0.5077 0.0682
-3 3 4 3.8283 0.0231
-3 3 5 -5.2000 -0.1239
-3 3 6 2.1265 0.0595
-3 3 7 1.6463 -0.0587
-3 3 8 -2.9960 0.0510
-3 3 9 1.0440 0.0287
-3 3 10 2.0388 -0.0424
-3 3 11 -2.0470 0.0789
-3 3 12 -0.3270 -0.0954
-3 3 13 0.6578 -0.1541
-3 4 1 -1.5293 0.3818
-3 4 2 1.3459 -0.4493
-3 4 3 -2.0919 0.0094
-3 4 4 3.4122 0.1543
-3 4 5 -2.6984 0.0490
-3 4 6 -0.0052 -0.0736
-3 4 7 1.8986 0.0463
-3 4 8 -1.2111 -0.0924
-3 4 9 -1.1156 -0.0127
-3 4 10 1.9116 -0.0026
-3 4 11 -0.2166 0.2066
-3 4 12 -0.6968 -0.0332
-3 4 13 -0.3789 -0.3534
-3 5 1 -2.1917 0.7277
-3 5 2 0.8903 -0.0768
-3 5 3 -0.7184 -0.2498
-3 5 4 1.6962 -0.0595
-3 5 5 -1.4074 0.1165
-3 5 6 -0.0361 0.0336
-3 5 7 0.5215 0.0296
-3 5 8 0.4113 0.0654
-3 5 9 -0.9878 -0.2467
-3 5 10 0.0798 0.0305
-3 5 11 0.7017 0.1045
-3 5 12 -0.0745 0.2371
-3 6 1 -0.9127 0.1765
-3 6 2 -0.7107 0.1725
-3 6 3 0.1731 0.0146
-3 6 4 1.1443 -0.0466
-3 6 5 -1.0327 -0.1426
-3 6 6 0.0688 0.0694
-3 6 7 0.2905 0.0419
-3 6 8 -0.0417 0.0890
-3 6 9 0.0098 -0.1088
-3 6 10 -0.2078 -0.0673
-3 6 11 0.1181 0.0589
-3 6 12 -0.0073 0.1112
-3 7 1 0.9547 0.2071
-3 7 2 -1.6052 -0.2708
-3 7 3 0.2696 0.0465
-3 7 4 0.7959 0.1176
-3 7 5 -0.4353 0.0271
-3 7 6 -0.6253 -0.1458
-3 7 7 1.0949 0.1533
-3 7 8 -0.3797 -0.1441
-3 7 9 -0.5380 0.0797
-3 7 10 0.4912 -0.0981
-3 7 11 0.1142 0.2185
-3 8 1 2.1818 0.6262
-3 8 2 -1.3240 -0.1578
-3 8 3 -0.1392 -0.1832
-3 8 4 0.6385 -0.0554
-3 8 5 0.1270 0.1038
-3 8 6 -1.4857 0.0452
-3 8 7 1.5351 0.0746
-3 8 8 0.1218 -0.0477
-3 8 9 -1.0410 -0.1942
-3 8 10 0.3093 0.0741
-3 9 1 1.3582 0.2781
-3 9 2 -0.0116 0.2228
-3 9 3 -0.7769 -0.0791
-3 9 4 0.6138 -0.0018
-3 9 5 0.6877 -0.2632
-3 9 6 -2.0197 0.1831
-3 9 7 1.2209 -0.0433
-3 9 8 0.6276 0.3721
-3 9 9 -0.8157 -0.5456
-3 10 1 -0.1488 -0.0186
-3 10 2 0.9159 -0.0851
-3 10 3 -0.9974 0.1221
-3 10 4 0.3902 0.1288
-3 10 5 0.9417 -0.0554
-3 10 6 -1.4388 -0.1731
-3 10 7 0.1620 -0.0990
-3 11 1 -0.4916 0.3888
-3 11 2 0.7590 -0.4274
-3 11 3 -0.7056 0.0818
-3 11 4 0.2301 -0.0746
-3 11 5 0.4604 0.4112
-3 11 6 -0.3195 -0.3548
-3 12 1 0.2060 0.3275
-3 12 2 0.1690 -0.0199
-3 12 3 -0.4141 -0.1504
-3 12 4 0.1504 -0.0945
-3 13 1 0.5122 -0.3388
-2 -13 1 -0.8650 -0.2872
-2 -13 2 1.0886 0.2303
-2 -13 3 -0.3613 0.1324
-2 -13 4 -0.5410 -0.3003
-2 -13 5 0.8389 0.0476
-2 -13 6 -0.3799 0.3057
-2 -13 7 -0.1182 -0.2816
-2 -13 9 0.5149 0.3247
-2 -12 1 -1.6049 -0.3805
-2 -12 2 1.5188 0.1983
-2 -12 3 -0.4604 0.1795
-2 -12 4 -0.7407 -0.1617
-2 -12 5 1.3341 -0.1344
-2 -12 6 -1.1549 0.1994
-2 -12 7 0.5413 0.0086
-2 -12 8 -0.1716 -0.0905
-2 -12 9 0.3372 0.0120
-2 -12 10 -0.3003 -0.1087
-2 -12 11 -0.3166 0.1818
-2 -11 1 -2.3206 -0.3663
-2 -11 2 1.9820 -0.0442
-2 -11 3 -0.2341 0.2454
-2 -11 4 -1.5694 -0.0544
-2 -11 5 2.3425 -0.0724
-2 -11 6 -1.6579 -0.0233
-2 -11 7 0.0579 0.0557
-2 -11 8 0.6662 0.0954
-2 -11 9 -0.0554 -0.1085
-2 -11 10 -0.1659 -0.0801
-2 -11 11 -0.3791 -0.0674
-2 -11 12 0.3777 0.5880
-2 -10 1 -3.0109 -0.1035
-2 -10 2 0.9422 -0.0864
-2 -10 3 1.8293 0.0353
-2 -10 4 -3.1711 -0.0168
-2 -10 5 2.5011 0.0343
-2 -10 6 -0.3075 -0.0237
-2 -10 7 -1.6105 0.0026
-2 -10 8 1.3530 0.0556
-2 -10 9 -0.0345 -0.0363
-2 -10 10 -0.2554 -0.0336
-2 -10 11 0.1281 -0.1565
-2 -10 12 -0.4947 0.4469
-2 -10 13 0.4348 -0.3351
-2 -9 1 -0.9580 -0.2065
-2 -9 2 -2.1762 0.3176
-2 -9 3 3.7497 -0.0674
-2 -9 4 -2.6370 -0.1042
-2 -9 5 -0.0740 -0.0494
-2 -9 6 2.5165 0.0694
-2 -9 7 -2.9410 0.0480
-2 -9 8 1.3437 -0.0018
-2 -9 9 0.2291 -0.0125
-2 -9 10 -0.8116 -0.0762
-2 -9 11 1.1736 -0.0031
-2 -9 12 -1.2075 0.0669
-2 -9 13 0.4400 0.1425
-2 -9 14 0.2602 -0.2304
-2 -8 1 1.8963 -0.6565
-2 -8 2 -3.4433 0.2661
-2 -8 3 2.7528 0.2448
-2 -8 4 0.1285 -0.1000
-2 -8 5 -2.9385 -0.1208
-2 -8 6 3.8687 -0.0005
-2 -8 7 -2.8079 0.0311
-2 -8 8 0.6965 0.0516
-2 -8 9 1.1128 0.0368
-2 -8 10 -1.8281 -0.0882
-2 -8 11 1.6061 -0.0067
-2 -8 12 -0.9165 -0.0495
-2 -8 13 0.3258 0.1225
-2 -8 14 -0.1408 0.1743
-2 -7 1 2.6524 -0.3624
-2 -7 2 -3.0169 -0.2349
-2 -7 3 1.3591 0.2192
-2 -7 4 1.6411 0.0363
-2 -7 5 -3.3579 0.0228
-2 -7 6 3.1732 -0.0537
-2 -7 7 -1.5380 -0.0481
-2 -7 8 -1.0928 -0.0133
-2 -7 9 2.7393 0.0866
-2 -7 10 -1.9972 0.0242
-2 -7 11 0.4278 -0.0754
-2 -7 12 0.0644 0.0132
-2 -7 13 0.3649 -0.1509
-2 -7 14 -0.4964 0.4043
-2 -7 15 -0.1018 -0.3510
-2 -6 1 2.2904 -0.0754
-2 -6 2 -1.8889 0.1587
-2 -6 3 -0.3327 -0.1915
-2 -6 4 2.7017 -0.0447
-2 -6 5 -3.0820 0.1121
-2 -6 6 1.6369 0.0421
-2 -6 7 1.2711 -0.0418
-2 -6 8 -3.9036 -0.0494
-2 -6 9 3.2229 0.0145
-2 -6 10 -0.0948 0.0171
-2 -6 11 -1.5554 0.0418
-2 -6 12 0.6654 -0.0418
-2 -6 13 0.7131 -0.0145
-2 -6 14 -0.8503 -0.0331
-2 -6 15 0.0823 0.0953
-2 -5 1 -1.3854 -0.7433
-2 -5 2 1.6310 0.5139
-2 -5 3 -3.1740 0.0538
-2 -5 4 4.0271 -0.1578
-2 -5 5 -2.1664 -0.0460
-2 -5 6 -1.6143 0.0830
-2 -5 7 4.9471 -0.0501
-2 -5 8 -4.7421 0.0588
-2 -5 9 0.8017 0.0051
-2 -5 10 2.6190 -0.0865
-2 -5 11 -2.4955 0.0810
-2 -5 12 0.2725 -0.0682
-2 -5 13 1.2264 0.1147
-2 -5 14 -0.9368 -0.0875
-2 -5 15 0.1646 -0.1067
-2 -4 1 -4.3752 -0.5591
-2 -4 2 2.5204 -0.1888
-2 -4 3 -4.0283 0.2338
-2 -4 4 4.1366 0.0850
-2 -4 5 0.0369 -0.0214
-2 -4 6 -4.8104 -0.0575
-2 -4 7 5.4426 -0.0716
-2 -4 8 -1.5336 0.0650
-2 -4 9 -2.9478 0.0209
-2 -4 10 4.2362 0.0188
-2 -4 11 -2.2879 -0.0675
-2 -4 12 -0.2010 0.0528
-2 -4 13 0.7562 -0.0651
-2 -4 14 0.2172 0.1497
-2 -4 15 -0.4632 -0.2090
-2 -3 1 0.2693 0.1549
-2 -3 2 0.1051 -0.1053
-2 -3 3 -4.8931 -0.2233
-2 -3 4 4.5360 0.0373
-2 -3 5 1.3822 0.2291
-2 -3 6 -4.7639 -0.0863
-2 -3 7 1.9095 -0.0480
-2 -3 8 3.1435 0.0136
-2 -3 9 -5.6987 -0.0332
-2 -3 10 4.5972 0.0436
-2 -3 11 -1.4756 -0.0070
-2 -3 12 -0.3598 0.0124
-2 -3 13 -0.6010 -0.0144
-2 -3 14 1.6911 -0.0083
-2 -3 15 -0.8718 0.0148
-2 -2 1 4.9434 -0.3801
-2 -2 2 1.4149 0.4541
-2 -2 3 -7.2739 -0.1051
-2 -2 4 4.1283 -0.1482
-2 -2 5 2.5214 0.0693
-2 -2 6 -3.0868 0.0080
-2 -2 7 -2.0167 0.0051
-2 -2 8 6.0712 0.0146
-2 -2 9 -5.9300 0.0226
-2 -2 10 2.5315 -0.0956
-2 -2 11 0.9623 0.0761
-2 -2 12 -0.9701 -0.0528
-2 -2 13 -1.4105 0.0690
-2 -2 14 1.9723 -0.0233
-2 -2 15 -0.5880 -0.0939
-2 -1 1 3.8471 -0.5450
-2 -1 2 3.1371 -0.0621
-2 -1 3 -4.9864 0.1044
-2 -1 4 -0.6915 0.1535
-2 -1 5 5.0241 -0.0511
-2 -1 6 -1.6780 -0.0766
-2 -1 7 -4.0186 -0.0252
-2 -1 8 5.3354 0.0409
-2 -1 9 -2.2732 0.0283
-2 -1 10 -1.9751 0.0145
-2 -1 11 3.6044 -0.0410
-2 -1 12 -1.1878 0.0023
-2 -1 13 -1.4704 -0.0438
-2 -1 14 1.2740 0.1367
-2 -1 15 -0.0962 -0.2154
-2 0 1 4.2780 0.3265
-2 0 2 -1.7989 -0.2887
-2 0 3 2.9766 -0.2529
-2 0 4 -6.6405 0.1374
-2 0 5 5.7915 0.1709
-2 0 6 0.0228 -0.0378
-2 0 7 -3.3293 -0.0771
-2 0 8 1.4383 0.0114
-2 0 9 2.1807 -0.0558
-2 0 10 -4.4279 0.0822
-2 0 11 3.4985 0.0290
-2 0 12 -0.4632 -0.0574
-2 0 13 -0.9762 -0.0298
-2 0 14 0.1998 0.0634
-2 0 15 0.3898 -0.0128
-2 1 1 9.6491 0.2758
-2 1 2 -8.6551 0.2523
-2 1 3 7.5645 -0.2034
-2 1 4 -6.6511 -0.1203
-2 1 5 2.9613 0.0582
-2 1 6 0.9514 0.0234
-2 1 7 -0.8185 0.0578
-2 1 8 -1.5605 -0.0213
-2 1 9 3.1409 -0.0366
-2 1 10 -3.3098 -0.0409
-2 1 11 1.8122 0.1218
-2 1 12 0.0074 -0.0766
-2 1 13 -0.0637 -0.0291
-2 1 14 -0.7746 -0.0780
-2 1 15 0.6678 0.3944
-2 2 1 11.9487 -0.3127
-2 2 2 -6.9142 0.0812
-2 2 3 3.0097 0.0957
-2 2 4 -1.7681 0.0821
-2 2 5 0.5210 -0.0486
-2 2 6 -0.0888 -0.1087
-2 2 7 1.2279 0.0264
-2 2 8 -1.8950 0.0419
-2 2 9 1.6542 -0.0199
-2 2 10 -1.2594 0.0312
-2 2 11 0.4579 0.0106
-2 2 12 0.0879 0.0487
-2 2 13 0.5102 -0.0893
-2 2 14 -1.0616 -0.3792
-2 3 1 4.2213 0.2586
-2 3 2 2.7128 -0.4136
-2 3 3 -3.5564 -0.1247
-2 3 4 0.7279 0.2017
-2 3 5 0.9954 0.0952
-2 3 6 -1.6515 -0.0109
-2 3 7 1.5790 -0.0743
-2 3 8 -0.2599 -0.0262
-2 3 9 -0.6782 -0.0679
-2 3 10 0.3115 0.0908
-2 3 11 -0.1011 0.0129
-2 3 12 0.1952 0.0951
-2 3 13 0.3116 0.1346
-2 3 14 -0.6440 -0.7836
-2 4 1 -5.6349 0.7067
-2 4 2 8.2832 -0.0119
-2 4 3 -4.2036 -0.3141
-2 4 4 -0.4219 -0.0182
-2 4 5 1.9909 0.0580
-2 4 6 -1.3825 0.0400
-2 4 7 -0.7635 0.1051
-2 4 8 2.5972 -0.0629
-2 4 9 -1.5842 -0.0510
-2 4 10 -0.3561 -0.0666
-2 4 11 0.1612 0.0132
-2 4 12 0.6395 0.0069
-2 4 13 -0.1999 0.5141
-2 5 1 -7.6547 0.0430
-2 5 2 6.0246 0.1850
-2 5 3 -1.0931 0.0328
-2 5 4 -1.7911 -0.0458
-2 5 5 1.2074 -0.0334
-2 5 6 1.5723 -0.0801
-2 5 7 -3.7831 0.0427
-2 5 8 2.2198 0.0457
-2 5 9 1.3009 0.0755
-2 5 10 -1.6546 -0.0083
-2 5 11 -0.5152 -0.1634
-2 5 12 0.9691 -0.1609
-2 5 13 -0.0498 0.5503
-2 6 1 -4.3361 0.1899
-2 6 2 1.4176 -0.3656
-2 6 3 1.6395 0.0302
-2 6 4 -1.5977 0.1838
-2 6 5 -1.4868 0.0042
-2 6 6 4.3028 0.0108
-2 6 7 -2.7105 -0.1293
-2 6 8 -1.7868 -0.0482
-2 6 9 2.8564 0.0457
-2 6 10 -0.0800 0.2425
-2 6 11 -1.0712 -0.1512
-2 6 12 -0.0186 -0.1877
-2 7 1 -0.7045 0.7606
-2 7 2 -1.6641 -0.1687
-2 7 3 2.1238 -0.3129
-2 7 4 0.3734 0.0743
-2 7 5 -3.7614 0.0779
-2 7 6 3.5607 0.0710
-2 7 7 0.7008 0.0253
-2 7 8 -2.8678 -0.1364
-2 7 9 0.5551 -0.0453
-2 7 10 0.8521 0.1065
-2 7 11 0.4122 0.0090
-2 8 1 0.9510 0.2849
-2 8 2 -1.9557 0.1634
-2 8 3 0.8791 -0.0202
-2 8 4 1.8293 -0.1295
-2 8 5 -3.2713 0.0007
-2 8 6 0.9355 -0.0145
-2 8 7 1.9108 0.1102
-2 8 8 -1.1433 -0.0790
-2 8 9 -0.3542 0.1090
-2 8 10 -0.4891 -0.1307
-2 9 1 0.7485 0.1193
-2 9 2 -1.5352 -0.2456
-2 9 3 0.5208 0.1432
-2 9 4 1.2398 0.1044
-2 9 5 -1.1253 -0.0905
-2 9 6 -0.9045 0.0108
-2 9 7 1.4347 -0.0786
-2 9 8 -0.1578 0.0429
-2 9 9 -0.0277 0.0541
-2 10 1 1.1664 0.4838
-2 10 2 -1.9481 -0.2089
-2 10 3 0.7697 -0.1623
-2 10 4 0.2901 0.1315
-2 10 5 0.2950 -0.0235
-2 10 6 -0.9447 0.1424
-2 10 7 0.0873 -0.2612
-2 10 8 0.7306 0.2653
-2 11 1 2.0594 0.2554
-2 11 2 -1.7374 0.1306
-2 11 3 0.2649 0.0230
-2 11 4 0.2270 -0.2391
-2 11 5 0.0618 0.1500
-2 11 6 0.2890 0.0062
-2 12 1 2.0035 -0.1711
-2 12 2 -0.7524 -0.0040
-2 12 3 -0.4153 0.4184
-2 12 4 0.5156 -0.4785
-2 13 1 1.0355 -0.1946
-2 13 2 0.0485 -0.1260
-1 -13 1 -0.1056 0.1701
-1 -13 2 -0.1839 -0.0814
-1 -13 3 -0.2390 0.1141
-1 -13 4 0.7717 -0.0922
-1 -13 5 -0.2105 0.0436
-1 -13 6 -0.8344 -0.0996
-1 -13 7 0.6898 0.0007
-1 -13 8 0.5365 0.4142
-1 -13 9 -1.0679 -0.6951
-1 -12 1 -0.7718 -0.1684
-1 -12 2 0.7159 0.0704
-1 -12 3 -1.0582 0.1352
-1 -12 4 0.4811 -0.1123
-1 -12 5 1.1293 0.0184
-1 -12 6 -1.9666 -0.0103
-1 -12 7 0.8585 -0.0869
-1 -12 8 0.8029 0.2871
-1 -12 9 -1.1010 -0.3444
-1 -12 10 0.3323 0.2768
-1 -12 11 0.1189 -0.2733
-1 -11 1 -0.4439 -0.0129
-1 -11 2 0.6880 -0.0268
-1 -11 3 -0.6172 0.0359
-1 -11 4 -0.7207 -0.0255
-1 -11 5 2.1575 0.0005
-1 -11 6 -2.0890 -0.0304
-1 -11 7 0.5638 0.1099
-1 -11 8 0.8860 -0.1143
-1 -11 9 -1.1212 -0.0300
-1 -11 10 0.5955 0.2070
-1 -11 11 -0.2449 -0.1735
-1 -11 12 0.1348 -0.0959
-1 -10 1 0.5945 -0.1129
-1 -10 2 0.1085 0.2681
-1 -10 3 0.2244 -0.0461
-1 -10 4 -1.5808 -0.0840
-1 -10 5 2.2817 -0.0279
-1 -10 6 -1.6211 -0.0016
-1 -10 7 0.0310 0.1402
-1 -10 8 1.2739 -0.1088
-1 -10 9 -1.1237 -0.0344
-1 -10 10 0.2177 0.0637
-1 -10 11 -0.0754 0.0877
-1 -10 12 0.5471 -0.3360
-1 -10 13 -0.6402 0.5860
-1 -9 1 1.3410 -0.4669
-1 -9 2 -0.0786 0.1696
-1 -9 3 0.4112 0.1989
-1 -9 4 -1.3222 -0.0528
-1 -9 5 1.3659 -0.1279
-1 -9 6 -0.3452 0.0568
-1 -9 7 -1.2132 -0.0107
-1 -9 8 1.4964 -0.0084
-1 -9 9 0.1150 0.0707
-1 -9 10 -0.9763 -0.0315
-1 -9 11 -0.3881 -0.0266
-1 -9 12 1.7695 -0.1532
-1 -9 13 -1.3896 0.4268
-1 -9 14 0.2133 -0.3542
-1 -8 1 0.3344 -0.1729
-1 -8 2 1.2710 -0.1800
-1 -8 3 -0.8369 0.1384
-1 -8 4 -0.0230 0.0143
-1 -8 5 0.0472 -0.0064
-1 -8 6 1.0053 0.0402
-1 -8 7 -1.7121 -0.0511
-1 -8 8 0.0279 -0.0916
-1 -8 9 2.2281 0.0991
-1 -8 10 -1.4562 0.1182
-1 -8 11 -1.2631 -0.1721
-1 -8 12 2.1984 -0.0339
-1 -8 13 -0.8093 0.0987
-1 -8 14 -0.5873 0.0889
-1 -8 15 0.5606 -0.1651
-1 -7 1 -2.2243 -0.0659
-1 -7 2 3.0902 0.1903
-1 -7 3 -1.3464 -0.0594
-1 -7 4 -0.4028 -0.1167
-1 -7 5 0.2452 0.0126
-1 -7 6 1.0329 0.1017
-1 -7 7 -0.5231 -0.0145
-1 -7 8 -2.0958 -0.0506
-1 -7 9 3.0887 -0.0259
-1 -7 10 -0.9412 0.0774
-1 -7 11 -1.2662 -0.0227
-1 -7 12 1.0362 0.0208
-1 -7 13 0.6546 -0.1128
-1 -7 14 -1.3813 0.0815
-1 -7 15 0.5270 0.0512
-1 -6 1 -4.3025 -0.7669
-1 -6 2 2.1464 0.4199
-1 -6 3 2.3057 0.1711
-1 -6 4 -3.8182 -0.1074
-1 -6 5 1.6724 -0.1000
-1 -6 6 0.0311 0.0329
-1 -6 7 1.2258 -0.0364
-1 -6 8 -2.9220 0.0772
-1 -6 9 2.2660 0.0297
-1 -6 10 -0.2542 -0.0891
-1 -6 11 -0.6702 0.0156
-1 -6 12 -0.4790 0.0471
-1 -6 13 2.2393 0.0037
-1 -6 14 -2.1734 -0.0851
-1 -6 15 0.6007 0.0056
-1 -5 1 -3.0635 -0.6219
-1 -5 2 -4.2146 -0.1948
-1 -5 3 9.1799 0.2787
-1 -5 4 -6.9882 0.0094
-1 -5 5 2.1434 0.0612
-1 -5 6 -0.6138 -0.0620
-1 -5 7 1.7567 -0.0907
-1 -5 8 -1.9975 -0.0105
-1 -5 9 0.7818 0.1152
-1 -5 10 0.4781 -0.0096
-1 -5 11 -0.2426 -0.0319
-1 -5 12 -1.9575 -0.0305
-1 -5 13 3.5215 0.0246
-1 -5 14 -2.2083 0.0935
-1 -5 15 0.1291 -0.1585
-1 -4 1 2.9469 0.0428
-1 -4 2 -10.5532 -0.0196
-1 -4 3 10.7636 -0.1275
-1 -4 4 -4.2166 -0.0492
-1 -4 5 -1.2822 0.1308
-1 -4 6 1.6684 0.0230
-1 -4 7 -0.0425 0.0063
-1 -4 8 -0.3478 -0.0789
-1 -4 9 -0.5796 -0.0417
-1 -4 10 1.3518 0.0648
-1 -4 11 -0.0246 0.0401
-1 -4 12 -2.5573 -0.0209
-1 -4 13 2.7450 -0.0814
-1 -4 14 -0.4202 0.0942
-1 -4 15 -0.9699 0.1227
-1 -4 16 0.5983 -0.4167
-1 -3 1 2.4604 -0.7661
-1 -3 2 -4.5056 0.6524
-1 -3 3 1.5992 -0.0318
-1 -3 4 4.6594 -0.1229
-1 -3 5 -7.7930 -0.0692
-1 -3 6 5.3247 0.0263
-1 -3 7 -1.6592 0.0357
-1 -3 8 0.7632 0.0941
-1 -3 9 -2.0267 -0.0806
-1 -3 10 2.3355 -0.0694
-1 -3 11 -0.3749 0.0592
-1 -3 12 -1.1431 0.0130
-1 -3 13 0.0232 0.0035
-1 -3 14 1.5856 -0.1141
-1 -3 15 -1.4269 0.3374
-1 -3 16 0.4287 -0.3958
-1 -2 1 -11.7888 -0.9227
-1 -2 2 8.3374 -0.0782
-1 -2 3 -6.7177 0.3056
-1 -2 4 9.2592 0.0924
-1 -2 5 -9.3334 -0.0878
-1 -2 6 4.8847 -0.0550
-1 -2 7 -1.5131 -0.0623
-1 -2 8 1.9717 0.0649
-1 -2 9 -3.1821 0.0823
-1 -2 10 2.4860 -0.0544
-1 -2 11 -1.0648 -0.0299
-1 -2 12 0.9748 0.0153
-1 -2 13 -1.7922 -0.0197
-1 -2 14 1.8438 -0.0295
-1 -2 15 -0.9146 0.1577
-1 -1 1 -19.8427 0.2445
-1 -1 2 6.2914 -0.2974
-1 -1 3 0.0567 -0.1255
-1 -1 4 2.3570 0.0868
-1 -1 5 -4.1761 0.1231
-1 -1 6 2.8202 -0.0508
-1 -1 7 -2.2332 0.0031
-1 -1 8 2.7631 -0.0531
-1 -1 9 -2.3586 -0.0055
-1 -1 10 1.6432 0.0521
-1 -1 11 -1.6622 -0.0125
-1 -1 12 1.7035 0.0489
-1 -1 13 -1.3859 -0.1274
-1 -1 14 0.9146 0.0931
-1 -1 15 -0.2729 -0.0234
-1 0 1 -4.0741 -0.3429
-1 0 2 -14.2889 0.5514
-1 0 3 15.4587 -0.0614
-1 0 4 -4.7977 -0.1774
-1 0 5 -3.1757 0.0085
-1 0 6 4.2768 -0.0152
-1 0 7 -2.8229 0.0361
-1 0 8 1.2971 0.0970
-1 0 9 -0.5843 -0.0568
-1 0 10 1.1820 -0.0805
-1 0 11 -1.3233 0.0575
-1 0 12 0.3511 0.0121
-1 0 13 -0.0244 -0.0689
-1 0 14 0.2629 0.1196
-1 0 15 -0.0637 -0.0618
-1 1 1 23.8200 -0.9697
-1 1 2 -31.8253 -0.0134
-1 1 3 17.4800 0.3325
-1 1 4 1.5089 0.1609
-1 1 5 -7.9089 -0.1204
-1 1 6 4.2371 -0.1097
-1 1 7 -0.2615 -0.0901
-1 1 8 -1.0760 0.1024
-1 1 9 0.4565 0.1152
-1 1 10 0.2597 -0.0737
-1 1 11 0.7711 0.0265
-1 1 12 -1.5924 -0.0838
-1 1 13 0.5295 -0.0375
-1 1 14 0.2823 0.0834
-1 1 15 -0.0801 0.0845
-1 2 1 36.1609 0.2461
-1 2 2 -24.4368 -0.5120
-1 2 3 0.7220 -0.2157
-1 2 4 11.1270 0.2557
-1 2 5 -6.3338 0.2251
-1 2 6 -1.0536 -0.0766
-1 2 7 3.3653 -0.1115
-1 2 8 -2.7043 -0.0707
-1 2 9 1.2533 0.0090
-1 2 10 -1.1333 0.1072
-1 2 11 2.3587 0.0683
-1 2 12 -1.8388 -0.1005
-1 2 13 -0.0202 -0.0085
-1 2 14 0.4982 -0.0995
-1 3 1 20.8491 0.3452
-1 3 2 -1.1443 0.3251
-1 3 3 -12.2347 -0.3025
-1 3 4 8.2677 -0.2274
-1 3 5 1.7731 0.1395
-1 3 6 -5.8536 0.0918
-1 3 7 4.8463 0.0557
-1 3 8 -2.1877 0.0015
-1 3 9 0.0756 -0.1734
-1 3 10 -0.7044 0.0240
-1 3 11 1.8679 0.0829
-1 3 12 -0.7246 -0.0112
-1 3 13 -0.7150 0.0290
-1 3 14 0.7206 0.0028
-1 4 1 -0.2869 -0.5503
-1 4 2 10.7370 0.2369
-1 4 3 -9.2945 0.2276
-1 4 4 -0.2898 0.0160
-1 4 5 6.5577 -0.1913
-1 4 6 -6.2428 -0.0953
-1 4 7 2.2516 0.0678
-1 4 8 1.8663 0.1442
-1 4 9 -2.3261 -0.0074
-1 4 10 -0.1431 -0.0616
-1 4 11 0.9857 -0.0582
-1 4 12 0.2301 0.0357
-1 4 13 -0.9112 -0.1312
-1 5 1 -7.1472 0.0943
-1 5 2 8.4697 -0.4999
-1 5 3 -2.4906 -0.0445
-1 5 4 -4.5795 0.3452
-1 5 5 6.5458 0.1045
-1 5 6 -2.5771 -0.1891
-1 5 7 -3.0822 -0.0945
-1 5 8 4.5018 -0.0239
-1 5 9 -1.5188 0.1278
-1 5 10 -0.5735 0.0501
-1 5 11 0.1760 0.0019
-1 5 12 0.3185 -0.0344
-1 5 13 -0.3395 -0.2418
-1 6 1 -5.9096 0.7612
-1 6 2 3.9053 -0.0865
-1 6 3 1.7847 -0.3879
-1 6 4 -5.6195 -0.0159
-1 6 5 3.5154 0.2158
-1 6 6 2.3451 0.0557
-1 6 7 -4.9106 -0.0149
-1 6 8 2.2255 -0.1020
-1 6 9 0.2001 -0.0793
-1 6 10 -0.0478 0.0243
-1 6 11 0.1119 0.2048
-1 6 12 -0.5658 -0.0584
-1 7 1 -3.1304 -0.0144
-1 7 2 -0.1495 0.2958
-1 7 3 3.7481 -0.0105
-1 7 4 -3.6024 -0.1050
-1 7 5 -0.5354 -0.0988
-1 7 6 3.7244 0.0583
-1 7 7 -2.4471 0.0451
-1 7 8 0.1439 0.1326
-1 7 9 0.0345 -0.1581
-1 7 10 -0.2638 -0.0928
-1 7 11 1.1543 0.1318
-1 8 1 -0.5240 0.0163
-1 8 2 -1.4715 -0.3132
-1 8 3 2.1584 0.1014
-1 8 4 -0.4692 0.1848
-1 8 5 -1.8412 -0.0543
-1 8 6 2.1132 -0.1185
-1 8 7 -0.7282 0.0260
-1 8 8 -0.1152 0.0562
-1 8 9 0.6259 -0.0075
-1 8 10 -1.3032 -0.0164
-1 9 1 -0.8892 0.7999
-1 9 2 -0.1574 -0.2692
-1 9 3 0.4556 -0.2626
-1 9 4 0.2796 0.0808
-1 9 5 -1.1353 0.1732
-1 9 6 1.1419 -0.1439
-1 9 7 -0.3568 0.1165
-1 9 8 -0.5816 -0.0440
-1 9 9 1.0416 -0.0796
-1 10 1 -1.5239 0.3037
-1 10 2 -0.1794 0.2617
-1 10 3 0.8124 -0.1636
-1 10 4 -0.1710 -0.0513
-1 10 5 -0.8313 -0.0390
-1 10 6 1.0115 0.0791
-1 10 7 -0.2347 -0.1052
-1 10 8 -0.3711 0.2284
-1 11 1 -0.2063 -0.0104
-1 11 2 -1.3111 -0.0586
-1 11 3 1.3696 0.0116
-1 11 4 -0.2400 0.1529
-1 11 5 -0.8645 -0.1767
-1 11 6 0.8611 0.2049
-1 12 1 0.8748 0.6051
-1 12 2 -1.5452 -0.3857
-1 12 3 1.0998 0.0985
-1 12 4 0.0431 -0.2395
-1 13 1 0.5335 0.7383
-1 13 2 -0.7466 -0.4666
0 -14 2 -0.4534 0.2397
0 -14 3 0.3118 -0.1845
0 -14 4 0.1412 -0.3561
0 -14 5 -0.8097 0.3986
0 -14 6 0.9426 -0.0282
0 -13 1 0.4692 0.0719
0 -13 2 -0.3746 0.1354
0 -13 3 -0.4154 0.0388
0 -13 4 1.4655 -0.2571
0 -13 5 -1.8657 0.0248
0 -13 6 1.1555 0.0826
0 -13 7 -0.2354 0.2240
0 -13 8 0.1403 -0.1471
0 -13 9 -0.3146 -0.3724
0 -12 1 -0.2616 0.2725
0 -12 2 0.3738 -0.0754
0 -12 3 -1.1088 -0.0230
0 -12 4 1.4050 0.0184
0 -12 5 -0.7962 -0.1022
0 -12 6 -0.1279 -0.0317
0 -12 7 0.3923 0.2027
0 -12 8 0.1105 0.0029
0 -12 9 -0.3356 -0.2367
0 -12 10 -0.0414 0.2345
0 -12 11 0.1901 -0.1986
0 -11 1 -0.3321 0.2261
0 -11 2 -0.1908 0.1888
0 -11 3 0.2092 -0.1321
0 -11 4 -0.6207 -0.0236
0 -11 5 1.2411 -0.0014
0 -11 6 -1.4128 -0.0582
0 -11 7 0.6108 0.0986
0 -11 8 0.5878 -0.0544
0 -11 9 -0.6978 0.1151
0 -11 10 -0.2024 -0.1384
0 -11 11 0.7221 0.0585
0 -11 12 -0.6280 -0.1324
0 -10 1 1.1901 -0.2866
0 -10 2 -1.7489 0.1200
0 -10 3 1.5739 0.1803
0 -10 4 -1.5817 -0.0794
0 -10 5 1.7367 -0.1263
0 -10 6 -1.2277 0.1356
0 -10 7 -0.4943 -0.0687
0 -10 8 1.8226 -0.0426
0 -10 9 -1.0064 0.1348
0 -10 10 -0.6471 -0.0705
0 -10 11 1.1595 0.0033
0 -10 12 -0.6531 -0.0706
0 -10 13 0.0654 0.0431
0 -9 1 2.2127 0.0871
0 -9 2 -1.6467 -0.3236
0 -9 3 0.5832 0.1440
0 -9 4 -0.2692 0.0673
0 -9 5 0.4917 -0.1240
0 -9 6 0.2923 0.1004
0 -9 7 -2.0627 -0.0175
0 -9 8 2.4598 -0.0234
0 -9 9 -0.9271 -0.0397
0 -9 10 -0.4249 0.0704
0 -9 11 0.4148 -0.0098
0 -9 12 0.4678 0.0443
0 -9 13 -1.1210 -0.3074
0 -9 14 0.5844 0.5464
0 -8 1 1.3074 0.1813
0 -8 2 0.3247 0.1627
0 -8 3 -1.7860 -0.0655
0 -8 4 1.7108 -0.1852
0 -8 5 -1.0439 0.0946
0 -8 6 1.4127 -0.0225
0 -8 7 -2.1164 0.0590
0 -8 8 1.7861 0.0436
0 -8 9 -0.8253 -0.0800
0 -8 10 0.1498 -0.0641
0 -8 11 -0.4338 0.1141
0 -8 12 1.7693 0.0534
0 -8 13 -2.4301 -0.2829
0 -8 14 1.1949 0.3337
0 -8 15 0.2087 -0.1845
0 -7 1 -0.4988 -0.7127
0 -7 2 2.8051 0.4175
0 -7 3 -3.9628 0.2795
0 -7 4 3.0177 -0.2178
0 -7 5 -1.5627 -0.1316
0 -7 6 0.7968 0.0717
0 -7 7 -0.5219 -0.0157
0 -7 8 0.5123 0.0769
0 -7 9 -0.2347 0.0276
0 -7 10 -0.2189 -0.1161
0 -7 11 -0.7299 0.0765
0 -7 12 2.6779 -0.0428
0 -7 13 -2.7390 0.0082
0 -7 14 0.7487 0.0094
0 -7 15 0.4919 0.0210
0 -6 1 -1.9809 -0.5106
0 -6 2 3.7967 -0.1748
0 -6 3 -3.7133 0.2399
0 -6 4 1.4872 0.1358
0 -6 5 1.0728 -0.1433
0 -6 6 -2.4661 -0.0236
0 -6 7 2.1359 0.0101
0 -6 8 -1.1528 0.0046
0 -6 9 1.1276 -0.0254
0 -6 10 -1.0614 0.0740
0 -6 11 -0.5793 0.0151
0 -6 12 1.9060 -0.0938
0 -6 13 -0.8204 0.0267
0 -6 14 -1.0023 0.0091
0 -6 15 1.1764 0.0260
0 -5 1 2.6045 0.1440
0 -5 2 -0.9140 0.0246
0 -5 3 1.0944 -0.0528
0 -5 4 -4.2534 -0.1374
0 -5 5 7.1829 0.1618
0 -5 6 -6.7975 -0.0704
0 -5 7 3.9806 0.0710
0 -5 8 -2.2157 -0.0031
0 -5 9 2.3425 -0.1141
0 -5 10 -2.1080 0.0315
0 -5 11 0.9702 0.0633
0 -5 12 -0.6607 0.0433
0 -5 13 1.6364 -0.0922
0 -5 14 -2.3251 0.0098
0 -5 15 1.5571 -0.0253
0 -4 1 11.8753 -0.7964
0 -4 2 -3.7109 0.6295
0 -4 3 2.5527 0.1526
0 -4 4 -7.6988 -0.2089
0 -4 5 10.2246 -0.1274
0 -4 6 -6.6336 0.0529
0 -4 7 2.3962 0.0642
0 -4 8 -1.9356 0.0411
0 -4 9 3.1452 0.0130
0 -4 10 -3.2332 -0.1297
0 -4 11 2.3611 0.0043
0 -4 12 -1.7217 0.0803
0 -4 13 2.0791 0.0437
0 -4 14 -2.4552 -0.0548
0 -4 15 1.4030 -0.0836
0 -3 1 2.0435 -1.2206
0 -3 2 11.8474 0.0875
0 -3 3 -7.3099 0.2084
0 -3 4 -4.0038 0.2400
0 -3 5 6.7812 -0.2294
0 -3 6 -1.8026 -0.0244
0 -3 7 -0.7450 -0.0287
0 -3 8 -1.0638 0.0525
0 -3 9 2.5706 0.0701
0 -3 10 -2.2011 -0.0297
0 -3 11 0.8880 -0.0393
0 -3 12 -0.2413 -0.0552
0 -3 13 1.3032 0.0788
0 -3 14 -1.8308 0.0395
0 -3 15 0.3516 -0.0789
0 -2 1 -33.3149 0.4699
0 -2 2 35.8581 -0.4412
0 -2 3 -15.6967 -0.0581
0 -2 4 -2.7320 0.0083
0 -2 5 4.3201 0.1673
0 -2 6 1.6613 -0.0379
0 -2 7 -2.8753 -0.0592
0 -2 8 0.9772 0.0290
0 -2 9 -0.4045 -0.0570
0 -2 10 0.9924 0.0580
0 -2 11 -1.8011 0.0199
0 -2 12 1.1864 -0.0092
0 -2 13 0.6730 -0.0599
0 -2 14 -0.6554 0.0357
0 -2 15 -0.7708 -0.0100
0 -1 1 -60.3920 0.5208
0 -1 2 38.5079 0.3955
0 -1 3 -4.2993 0.0233
0 -1 4 -12.0254 -0.3742
0 -1 5 5.4726 0.0863
0 -1 6 3.7530 0.0088
0 -1 7 -5.0533 0.0553
0 -1 8 3.8082 0.0479
0 -1 9 -3.2947 -0.0558
0 -1 10 3.1868 -0.0451
0 -1 11 -3.0115 0.0062
0 -1 12 1.2622 0.0587
0 -1 13 0.5603 0.0211
0 -1 14 -0.0400 -0.0787
0 -1 15 -0.6511 -0.0280
0 0 1 -50.8682 -1.3455
0 0 2 9.4902 0.6171
0 0 3 21.3333 0.2372
0 0 4 -19.5844 0.0642
0 0 5 1.6662 -0.1866
0 0 6 7.2246 -0.0887
0 0 7 -6.3905 0.0382
0 0 8 4.6143 0.0319
0 0 9 -3.5829 0.0815
0 0 10 3.1695 -0.0477
0 0 11 -2.3356 -0.0501
0 0 12 -0.0468 0.0049
0 0 13 1.2006 0.0639
0 0 14 -0.0324 0.0086
0 0 15 -0.4715 -0.1645
0 1 0 48.6030 1.4608
0 1 1 -8.9118 -0.6758
0 1 2 -28.1425 -0.2320
0 1 3 32.3525 -0.1207
0 1 4 -9.9950 0.3502
0 1 5 -7.3561 0.0367
0 1 6 8.4885 -0.0895
0 1 7 -4.8120 -0.0469
0 1 8 2.7573 -0.0274
0 1 9 -1.7668 0.0274
0 1 10 1.5393 0.0408
0 1 11 -0.2502 -0.0385
0 1 12 -1.7590 0.0277
0 1 13 1.2396 -0.0149
0 1 14 0.7130 0.1333
0 1 15 -0.8511 -0.3352
0 2 0 3.5929 -0.4911
0 2 1 29.8546 0.8801
0 2 2 -36.8339 -0.1192
0 2 3 15.2868 -0.2335
0 2 4 6.7040 -0.1379
0 2 5 -10.7545 0.1616
0 2 6 5.3881 0.0518
0 2 7 -1.4986 -0.0360
0 2 8 -0.2583 0.0363
0 2 9 0.5648 -0.0179
0 2 10 -0.3312 -0.0651
0 2 11 1.3819 0.0027
0 2 12 -1.8989 -0.0142
0 2 13 0.0890 0.0656
0 2 14 1.2387 0.2069
0 3 0 -23.8923 -1.3270
0 3 1 30.4986 0.2183
0 3 2 -14.6525 0.2181
0 3 3 -5.4334 0.1658
0 3 4 11.7254 -0.1289
0 3 5 -6.7318 -0.1035
0 3 6 1.0419 0.0162
0 3 7 1.8193 -0.0272
0 3 8 -2.3563 0.0566
0 3 9 1.3190 0.1166
0 3 10 -0.8026 -0.0716
0 3 11 1.3337 -0.0365
0 3 12 -0.8776 -0.1240
0 3 13 -0.4519 0.0290
0 3 14 0.5305 0.2980
0 4 0 -16.2326 0.0023
0 4 1 8.9377 -0.3182
0 4 2 3.3761 -0.0224
0 4 3 -9.3833 -0.0462
0 4 4 7.0168 0.2294
0 4 5 -1.5069 0.0305
0 4 6 -2.5101 -0.1075
0 4 7 3.2431 -0.0832
0 4 8 -1.6889 0.0071
0 4 9 0.3553 0.0268
0 4 10 -0.3336 0.1443
0 4 11 0.5823 -0.0473
0 4 12 -0.2169 -0.0745
0 4 13 -0.1711 -0.1461
0 5 0 -2.0585 -0.0185
0 5 1 -1.5244 0.2327
0 5 2 4.7982 0.0033
0 5 3 -5.0334 -0.2025
0 5 4 1.9538 -0.0642
0 5 5 2.1410 0.2038
0 5 6 -3.5169 0.0113
0 5 7 1.6513 -0.0638
0 5 8 0.3150 -0.0094
0 5 9 -0.7463 -0.0753
0 5 10 0.5223 0.0783
0 5 11 -0.3037 0.0440
0 5 12 0.1549 -0.0219
0 6 0 0.6561 -0.7356
0 6 1 -1.0917 0.2471
0 6 2 2.1651 0.0464
0 6 3 -1.7075 0.0685
0 6 4 -0.8508 -0.0742
0 6 5 2.8328 -0.0330
0 6 6 -1.8836 -0.0035
0 6 7 -0.4635 0.0627
0 6 8 1.7852 -0.0562
0 6 9 -1.8759 0.0757
0 6 10 1.3718 -0.0703
0 6 11 -0.6634 0.0583
0 6 12 0.1989 -0.1312
0 7 0 -0.6295 -0.1847
0 7 1 -0.0193 -0.0732
0 7 2 0.9741 -0.0548
0 7 3 -0.5192 -0.0915
0 7 4 -1.1635 0.1954
0 7 5 2.0248 0.0185
0 7 6 -0.8196 -0.0651
0 7 7 -1.3297 -0.0417
0 7 8 2.3968 -0.0376
0 7 9 -1.8036 0.0582
0 7 10 0.7296 0.0621
0 7 11 -0.1557 0.0207
0 8 0 -1.4359 0.1922
0 8 1 -0.0292 0.1413
0 8 2 1.3557 -0.0395
0 8 3 -0.7372 -0.1839
0 8 4 -1.3354 0.0046
0 8 5 2.3154 0.0655
0 8 6 -0.8228 0.1422
0 8 7 -1.1848 -0.1226
0 8 8 1.2465 -0.0131
0 8 9 -0.1531 -0.0625
0 8 10 -0.1673 0.1070
0 9 0 -0.9545 -0.2817
0 9 1 -1.4586 0.2222
0 9 2 2.3075 -0.0058
0 9 3 -0.3989 0.0465
0 9 4 -2.0538 -0.0822
0 9 5 2.2737 -0.0176
0 9 6 -0.5315 0.0108
0 9 7 -0.4821 0.0614
0 9 8 -0.0306 -0.0682
0 9 9 0.3247 0.0624
0 10 0 0.8646 -0.0138
0 10 1 -2.7729 -0.0752
0 10 2 2.2076 -0.1284
0 10 3 0.1847 0.1051
0 10 4 -1.7234 -0.0216
0 10 5 1.1835 0.1353
0 10 6 0.1212 -0.1106
0 10 7 -0.4733 0.0099
0 10 8 0.0818 -0.1416
0 11 0 1.7050 0.3731
0 11 1 -2.3284 0.0641
0 11 2 1.1579 -0.1740
0 11 3 0.5293 -0.1081
0 11 4 -1.0484 0.1145
0 11 5 0.2471 -0.1046
0 11 6 0.5870 0.2584
0 12 0 0.7705 0.1188
0 12 1 -0.7690 0.0419
0 12 2 -0.0453 0.2148
0 12 3 0.7391 -0.4420
0 12 4 -0.6048 0.4688
0 13 0 -0.1853 0.2859
0 13 1 0.1235 -0.3739
0 13 2 -0.3165 0.4475
1 -14 2 0.1851 -0.1613
1 -14 3 0.2124 -0.3498
1 -14 4 -0.3769 0.4089
1 -14 5 0.0646 0.0307
1 -14 6 0.0431 -0.2414
1 -13 0 -0.0534 0.5908
1 -13 1 -0.2366 -0.0273
1 -13 2 0.3181 -0.0401
1 -13 3 -0.3296 -0.2018
1 -13 4 0.3068 0.0757
1 -13 5 -0.0678 0.1246
1 -13 6 -0.5216 -0.0653
1 -13 7 0.8734 0.0616
1 -13 8 -0.4324 -0.2207
1 -13 9 -0.0763 0.3154
1 -12 0 0.4160 0.2216
1 -12 1 -1.5311 0.2092
1 -12 2 1.8443 -0.2183
1 -12 3 -1.2581 0.1272
1 -12 4 0.2725 -0.1077
1 -12 5 0.5974 -0.0105
1 -12 6 -1.0343 0.0968
1 -12 7 0.5700 0.0488
1 -12 8 0.6177 -0.2140
1 -12 9 -1.3100 0.2344
1 -12 10 1.0664 -0.3123
1 -12 11 -0.6076 0.4396
1 -11 0 2.2240 0.0394
1 -11 1 -3.0094 -0.0658
1 -11 2 1.7516 -0.0302
1 -11 3 0.3134 0.0478
1 -11 4 -1.5049 0.0413
1 -11 5 1.6521 -0.1121
1 -11 6 -1.1451 0.0880
1 -11 7 -0.1823 0.0208
1 -11 8 1.6972 -0.0547
1 -11 9 -1.9410 0.0308
1 -11 10 0.8020 -0.1451
1 -11 11 0.5349 0.2266
1 -11 12 -1.1887 -0.0563
1 -10 0 2.6951 0.7344
1 -10 1 -1.5677 -0.3986
1 -10 2 -1.2344 0.0235
1 -10 3 3.0141 -0.0097
1 -10 4 -2.6646 0.0163
1 -10 5 1.4176 -0.0472
1 -10 6 -0.0584 0.1165
1 -10 7 -1.3589 -0.0670
1 -10 8 1.9334 0.0605
1 -10 9 -0.8842 -0.1267
1 -10 10 -1.0382 0.0900
1 -10 11 2.4040 -0.0818
1 -10 12 -2.3045 0.1819
1 -10 13 0.9314 -0.2604
1 -9 0 1.0735 0.4277
1 -9 1 0.7558 0.1175
1 -9 2 -3.0201 -0.1196
1 -9 3 3.1991 0.0804
1 -9 4 -1.3131 -0.1412
1 -9 5 -0.8598 -0.0006
1 -9 6 2.1340 0.0597
1 -9 7 -2.0817 0.0617
1 -9 8 0.9168 -0.0246
1 -9 9 0.6291 -0.0779
1 -9 10 -1.9606 0.0714
1 -9 11 2.4989 -0.0902
1 -9 12 -1.6871 0.1467
1 -9 13 0.0532 -0.1928
1 -9 14 0.8261 0.2036
1 -8 0 1.1569 -0.2107
1 -8 1 0.6529 -0.0028
1 -8 2 -2.4864 0.0848
1 -8 3 1.6568 0.1333
1 -8 4 1.2673 -0.1396
1 -8 5 -3.5310 -0.0239
1 -8 6 3.2274 -0.0077
1 -8 7 -1.2314 0.0924
1 -8 8 -0.1445 -0.0831
1 -8 9 0.3834 0.0885
1 -8 10 -0.5011 -0.0763
1 -8 11 0.5159 0.0237
1 -8 12 0.2459 0.0021
1 -8 13 -1.3159 -0.0103
1 -8 14 1.3495 -0.0305
1 -7 0 2.6762 0.4977
1 -7 1 0.3906 -0.4543
1 -7 2 -1.5181 0.0869
1 -7 3 -1.3172 0.0354
1 -7 4 5.0864 0.0433
1 -7 5 -5.5506 -0.1106
1 -7 6 2.5344 0.1208
1 -7 7 -0.0102 -0.0276
1 -7 8 0.3026 -0.0876
1 -7 9 -1.6365 0.0753
1 -7 10 2.1304 -0.0297
1 -7 11 -2.0608 0.0531
1 -7 12 2.2541 -0.0440
1 -7 13 -2.4572 0.0268
1 -7 14 1.6234 -0.0842
1 -7 15 -0.1905 0.0875
1 -6 0 2.9713 0.4925
1 -6 1 -0.0214 0.0089
1 -6 2 1.9478 0.0240
1 -6 3 -7.0164 -0.0500
1 -6 4 8.9016 -0.0839
1 -6 5 -4.7781 -0.0223
1 -6 6 -0.5955 0.1229
1 -6 7 1.5616 -0.0101
1 -6 8 1.0036 0.0160
1 -6 9 -3.1614 -0.0931
1 -6 10 3.5395 -0.0038
1 -6 11 -2.9071 0.0418
1 -6 12 2.4849 0.0812
1 -6 13 -2.2935 -0.0933
1 -6 14 1.1537 0.0032
1 -6 15 0.2138 0.0092
1 -5 0 1.1647 -0.4321
1 -5 1 0.7704 0.1213
1 -5 2 4.1863 0.1241
1 -5 3 -9.2335 0.2047
1 -5 4 6.4511 -0.2874
1 -5 5 2.1469 0.0163
1 -5 6 -6.7167 0.0379
1 -5 7 3.8325 -0.0107
1 -5 8 0.7140 0.0894
1 -5 9 -2.5161 -0.0120
1 -5 10 1.9214 -0.0947
1 -5 11 -0.7481 -0.0217
1 -5 12 0.7072 0.1187
1 -5 13 -1.1096 -0.0624
1 -5 14 0.1999 0.0209
1 -5 15 0.7542 0.0011
1 -4 0 -10.0901 -0.0420
1 -4 1 8.8860 -0.3487
1 -4 2 0.7080 0.1172
1 -4 3 -5.4237 0.0851
1 -4 4 -1.6686 -0.0047
1 -4 5 11.1729 -0.0321
1 -4 6 -11.1062 -0.0051
1 -4 7 4.2870 -0.0027
1 -4 8 -0.0617 -0.0281
1 -4 9 0.1977 0.0737
1 -4 10 -1.7520 -0.0292
1 -4 11 2.3130 0.0137
1 -4 12 -1.0138 -0.0540
1 -4 13 -0.0002 0.0078
1 -4 14 -0.7647 0.0160
1 -4 15 1.1691 0.0623
1 -3 0 -26.3768 0.4480
1 -3 1 13.8325 -0.1269
1 -3 2 1.7833 0.1964
1 -3 3 -3.6483 -0.2210
1 -3 4 -7.5222 -0.0385
1 -3 5 14.5825 0.0832
1 -3 6 -9.5393 0.0129
1 -3 7 2.4355 0.0158
1 -3 8 -1.2150 0.0071
1 -3 9 3.0925 -0.0779
1 -3 10 -4.2726 -0.0079
1 -3 11 3.4284 0.1179
1 -3 12 -1.1687 -0.0348
1 -3 13 0.2017 -0.0682
1 -3 14 -0.8110 -0.0132
1 -3 15 0.5953 0.0684
1 -2 0 -23.9419 -0.5725
1 -2 1 0.6507 0.2804
1 -2 2 11.9058 0.2456
1 -2 3 -4.6914 0.0573
1 -2 4 -9.0296 -0.2321
1 -2 5 11.5084 -0.0293
1 -2 6 -4.4454 0.0536
1 -2 7 0.4128 -0.0089
1 -2 8 -1.7961 0.1079
1 -2 9 3.6547 -0.0478
1 -2 10 -3.7614 -0.0647
1 -2 11 1.8838 -0.0134
1 -2 12 0.4705 0.0942
1 -2 13 -0.8291 -0.0241
1 -2 14 0.1891 -0.0207
1 -2 15 -0.5473 -0.0683
1 -1 0 0.8417 -0.7778
1 -1 1 -19.8384 -0.1207
1 -1 2 18.2307 0.1466
1 -1 3 -2.6221 0.1148
1 -1 4 -7.8348 0.0538
1 -1 5 5.2339 -0.0606
1 -1 6 0.8063 -0.0747
1 -1 7 -1.7172 -0.0093
1 -1 8 -0.3889 0.0148
1 -1 9 1.6876 0.0566
1 -1 10 -1.1532 0.0332
1 -1 11 -1.0148 -0.0618
1 -1 12 2.3744 -0.0436
1 -1 13 -1.3691 0.0296
1 -1 14 0.4395 0.0968
1 0 0 24.0313 0.1835
1 0 1 -26.8216 -0.1509
1 0 2 12.9404 0.0373
1 0 3 1.1080 -0.1788
1 0 4 -3.7435 0.0453
1 0 5 -1.2992 0.1680
1 0 6 4.6272 -0.0475
1 0 7 -3.5810 -0.0260
1 0 8 1.2713 -0.0455
1 0 9 -0.1415 -0.0118
1 0 10 0.9670 0.0139
1 0 11 -2.5105 0.1001
1 0 12 1.9809 -0.0558
1 0 13 0.0211 -0.0745
1 1 0 25.3588 -0.4269
1 1 1 -16.3748 0.4347
1 1 2 3.8589 0.1577
1 1 3 1.2049 -0.1474
1 1 4 0.8845 -0.1702
1 1 5 -4.2528 0.0496
1 1 6 4.8175 0.0772
1 1 7 -2.7296 0.0051
1 1 8 0.5203 0.0297
1 1 9 0.0011 -0.0273
1 1 10 1.0587 -0.0740
1 1 11 -1.4981 0.0118
1 1 12 -0.0928 0.0589
1 1 13 1.3507 0.0431
1 1 14 -0.6089 -0.1289
1 2 0 10.0243 -1.0457
1 2 1 -4.6202 0.0994
1 2 2 1.1546 0.2723
1 2 3 -0.3686 0.0331
1 2 4 1.1264 -0.0205
1 2 5 -2.2203 -0.0789
1 2 6 1.6455 -0.0349
1 2 7 0.2803 -0.0119
1 2 8 -1.2500 0.0732
1 2 9 0.5426 0.0208
1 2 10 0.5571 0.0252
1 2 11 -0.3743 -0.0709
1 2 12 -0.7675 -0.0877
1 2 13 0.9265 0.1322
1 2 14 -0.2412 0.0180
1 3 0 1.3535 -0.1792
1 3 1 -3.1926 -0.1243
1 3 2 1.2440 0.0018
1 3 3 1.6024 -0.0592
1 3 4 -1.5755 0.1081
1 3 5 0.3593 0.0672
1 3 6 -0.8018 -0.0668
1 3 7 1.5745 -0.0418
1 3 8 -0.9638 -0.0074
1 3 9 -0.3072 -0.0091
1 3 10 0.9929 0.0594
1 3 11 -0.6752 0.0451
1 3 12 -0.0147 -0.0534
1 3 13 0.4067 -0.1081
1 4 0 3.8967 -0.3266
1 4 1 -3.2282 0.3799
1 4 2 -1.7708 0.0416
1 4 3 3.5696 -0.1815
1 4 4 -1.4586 -0.0443
1 4 5 -0.0360 0.0925
1 4 6 -0.2146 -0.0201
1 4 7 0.2853 0.0496
1 4 8 0.3574 -0.0064
1 4 9 -1.0280 -0.0436
1 4 10 1.2543 -0.0237
1 4 11 -0.8984 -0.0262
1 4 12 0.0438 0.1338
1 4 13 0.7913 -0.0819
1 5 0 4.4287 -0.8632
1 5 1 0.1024 0.1675
1 5 2 -3.2195 0.1772
1 5 3 1.6645 0.0469
1 5 4 1.1232 -0.0497
1 5 5 -2.0330 -0.0482
1 5 6 1.1750 -0.0475
1 5 7 -0.0136 0.0170
1 5 8 -0.1939 0.0673
1 5 9 -0.3983 0.0367
1 5 10 0.7756 -0.0253
1 5 11 -0.4680 -0.0947
1 5 12 -0.3124 -0.0164
1 6 0 1.6167 -0.2755
1 6 1 1.9317 -0.0672
1 6 2 -1.9184 -0.0912
1 6 3 -0.8949 0.0093
1 6 4 3.2033 0.1950
1 6 5 -2.7827 -0.0566
1 6 6 0.0888 -0.0456
1 6 7 1.7094 -0.0457
1 6 8 -0.9618 -0.0120
1 6 9 -0.3784 0.0792
1 6 10 0.6861 -0.0024
1 6 11 -0.2845 0.0366
1 7 0 -0.9214 -0.0690
1 7 1 2.5483 0.1915
1 7 2 -0.6659 -0.0326
1 7 3 -2.3993 -0.1754
1 7 4 3.1709 0.0664
1 7 5 -0.6724 0.0776
1 7 6 -2.0230 -0.0473
1 7 7 1.6008 0.0267
1 7 8 0.5102 -0.0152
1 7 9 -1.2598 -0.0160
1 7 10 0.6980 -0.0480
1 8 0 -2.5928 -0.3749
1 8 1 2.1661 0.1223
1 8 2 0.6013 0.0153
1 8 3 -2.1138 0.1147
1 8 4 0.6953 -0.0972
1 8 5 1.5286 0.0041
1 8 6 -1.4468 -0.0408
1 8 7 -0.6990 -0.0071
1 8 8 1.8871 0.1284
1 8 9 -1.1906 -0.0558
1 9 0 -2.0794 -0.1745
1 9 1 0.5883 -0.0110
1 9 2 0.9974 -0.1678
1 9 3 -0.4890 0.0732
1 9 4 -0.9985 0.1886
1 9 5 1.1652 -0.1215
1 9 6 0.3465 -0.0157
1 9 7 -1.6926 -0.0522
1 9 8 1.4591 0.1105
1 10 0 -0.3928 0.0915
1 10 1 -0.7908 0.0034
1 10 2 0.9474 0.0071
1 10 3 0.1870 -0.1942
1 10 4 -0.8397 0.1805
1 10 5 0.1666 -0.0033
1 10 6 0.8823 -0.1511
1 10 7 -1.1022 0.1743
1 11 0 1.0457 -0.0291
1 11 1 -1.4784 -0.0349
1 11 2 0.5667 -0.0168
1 11 3 0.5214 0.1819
1 11 4 -0.3578 -0.1793
1 11 5 -0.4183 0.2255
1 12 0 1.1318 0.0100
1 12 1 -0.5572 0.0721
1 12 2 -0.5042 -0.5091
1 12 3 0.4507 0.5496
1 12 4 0.3712 -0.2429
1 13 0 0.1287 0.1062
1 13 1 0.4257 0.3596
2 -14 3 0.1135 0.2605
2 -14 4 0.4477 0.1972
2 -13 0 -1.5283 -0.2395
2 -13 1 0.7721 0.0320
2 -13 2 0.4385 0.0514
2 -13 3 -1.2605 -0.0636
2 -13 4 1.2549 0.0653
2 -13 5 -0.3748 0.0064
2 -13 6 -0.6181 0.0967
2 -13 7 0.9797 -0.2772
2 -13 8 -0.7362 0.1437
2 -13 9 0.1073 -0.0211
2 -12 0 -1.4089 0.2355
2 -12 1 -0.8116 -0.3987
2 -12 2 2.4612 0.0313
2 -12 3 -2.1287 0.1696
2 -12 4 0.3255 -0.0877
2 -12 5 1.3298 -0.0106
2 -12 6 -1.6931 0.1364
2 -12 7 1.0449 -0.0881
2 -12 8 -0.0309 -0.0843
2 -12 9 -1.1033 -0.1085
2 -12 10 1.6806 0.4595
2 -11 0 0.0532 0.5309
2 -11 1 -2.7302 -0.1236
2 -11 2 3.1111 -0.2401
2 -11 3 -0.8338 0.0937
2 -11 4 -1.7285 0.0598
2 -11 5 2.3356 -0.0497
2 -11 6 -1.2284 0.0265
2 -11 7 0.0754 0.0646
2 -11 8 0.6508 -0.0175
2 -11 9 -1.3760 -0.2734
2 -11 10 1.6934 0.4206
2 -11 11 -1.1975 -0.3498
2 -11 12 0.3995 0.2462
2 -10 0 1.2601 0.2182
2 -10 1 -2.8310 0.1057
2 -10 2 1.5490 -0.0660
2 -10 3 1.4653 -0.0262
2 -10 4 -3.0083 -0.0212
2 -10 5 1.7757 0.0243
2 -10 6 0.0783 -0.0024
2 -10 7 -0.3195 0.0234
2 -10 8 -0.2642 0.0059
2 -10 9 0.0194 -0.0482
2 -10 10 0.6538 0.0836
2 -10 11 -0.5223 -0.1470
2 -10 12 -0.3744 0.0526
2 -10 13 0.8938 0.1362
2 -9 0 0.9621 0.1505
2 -9 1 -1.5309 -0.2276
2 -9 2 -0.3456 0.0618
2 -9 3 2.7212 0.1079
2 -9 4 -2.3866 -0.0645
2 -9 5 -0.2778 -0.0155
2 -9 6 1.4644 0.0087
2 -9 7 0.2793 0.0687
2 -9 8 -2.0231 -0.1913
2 -9 9 1.5612 0.1975
2 -9 10 -0.5161 -0.0329
2 -9 11 0.8471 -0.0062
2 -9 12 -1.6617 -0.1172
2 -9 13 1.1526 -0.0229
2 -8 0 0.7793 0.6856
2 -8 1 -0.7050 -0.3329
2 -8 2 -1.6238 -0.1193
2 -8 3 2.8018 0.0944
2 -8 4 -0.3777 0.0218
2 -8 5 -2.6549 -0.0292
2 -8 6 1.9655 0.0489
2 -8 7 1.3513 0.0334
2 -8 8 -2.7954 -0.1313
2 -8 9 1.6170 0.0217
2 -8 10 -0.7939 0.0394
2 -8 11 1.3264 0.1012
2 -8 12 -1.2861 -0.0078
2 -8 13 -0.0625 -0.3810
2 -8 14 0.9529 0.4681
2 -7 0 1.9035 0.4654
2 -7 1 0.1389 0.0933
2 -7 2 -2.8670 -0.0936
2 -7 3 1.8580 -0.0452
2 -7 4 2.3671 -0.0037
2 -7 5 -4.3628 -0.0556
2 -7 6 1.7890 0.1408
2 -7 7 1.1712 -0.0613
2 -7 8 -0.8119 0.0533
2 -7 9 -0.9604 -0.1026
2 -7 10 1.2938 -0.0227
2 -7 11 -0.8117 0.0628
2 -7 12 0.9782 0.1732
2 -7 13 -1.3339 -0.2783
2 -7 14 0.9801 0.0901
2 -6 0 3.2301 -0.0478
2 -6 1 0.9494 -0.0874
2 -6 2 -2.6154 0.1496
2 -6 3 -0.9278 0.0395
2 -6 4 5.3581 -0.1036
2 -6 5 -5.2461 -0.0032
2 -6 6 1.9015 0.0429
2 -6 7 -0.8115 -0.0253
2 -6 8 2.8045 0.0255
2 -6 9 -4.1353 0.0151
2 -6 10 3.5080 -0.0385
2 -6 11 -2.4557 -0.0121
2 -6 12 1.5248 -0.0220
2 -6 13 -0.7293 0.1013
2 -6 14 0.4351 0.0252
2 -5 0 3.2704 0.4981
2 -5 1 1.9410 -0.3632
2 -5 2 -1.5197 -0.0381
2 -5 3 -3.6575 0.1162
2 -5 4 6.9676 -0.0832
2 -5 5 -4.9859 0.0684
2 -5 6 1.7873 0.0190
2 -5 7 -2.0160 -0.0117
2 -5 8 3.8156 -0.0799
2 -5 9 -3.6543 0.0354
2 -5 10 2.1865 0.0362
2 -5 11 -0.8020 0.0849
2 -5 12 -0.4590 -0.2014
2 -5 13 0.6623 0.0032
2 -5 14 0.1833 0.2647
2 -4 0 -1.8975 0.4741
2 -4 1 5.4387 0.1311
2 -4 2 -1.3832 -0.0391
2 -4 3 -4.9987 -0.1339
2 -4 4 6.8816 -0.0453
2 -4 5 -3.4108 0.0249
2 -4 6 0.0194 0.0930
2 -4 7 -0.1535 0.0234
2 -4 8 0.9546 -0.0522
2 -4 9 -0.2170 -0.0733
2 -4 10 -0.6941 0.0372
2 -4 11 1.4876 0.0640
2 -4 12 -1.9957 0.0360
2 -4 13 0.8847 -0.1784
2 -4 14 0.5484 0.0647
2 -4 15 -0.4036 0.1456
2 -3 0 -9.9872 -0.2918
2 -3 1 7.7152 0.0869
2 -3 2 -0.3335 0.2834
2 -3 3 -5.1579 -0.0395
2 -3 4 4.6712 -0.1592
2 -3 5 0.3001 0.0056
2 -3 6 -3.7592 0.0351
2 -3 7 3.2173 -0.0049
2 -3 8 -1.9849 0.0603
2 -3 9 1.6579 -0.0327
2 -3 10 -1.5117 0.0022
2 -3 11 1.7967 -0.0956
2 -3 12 -1.3897 0.1002
2 -3 13 -0.4555 0.0766
2 -3 14 1.3010 -0.1531
2 -3 15 -0.4860 -0.0301
2 -2 0 -11.6396 0.0029
2 -2 1 5.7768 -0.2689
2 -2 2 0.0599 0.0384
2 -2 3 -2.3514 0.1168
2 -2 4 -0.2492 -0.0441
2 -2 5 5.3406 0.0350
2 -2 6 -7.0440 0.0168
2 -2 7 4.6068 -0.0807
2 -2 8 -2.1135 -0.0433
2 -2 9 0.8987 0.1237
2 -2 10 -0.6269 0.0012
2 -2 11 0.7984 -0.0408
2 -2 12 0.2415 -0.1091
2 -2 13 -1.6345 0.1090
2 -2 14 1.1142 0.2101
2 -1 0 -7.8586 0.3416
2 -1 1 4.6754 0.0944
2 -1 2 -2.0631 -0.0085
2 -1 3 1.3210 -0.2384
2 -1 4 -4.1610 -0.0103
2 -1 5 7.4679 0.1280
2 -1 6 -6.3907 0.0683
2 -1 7 2.6497 -0.0147
2 -1 8 -0.1480 -0.1248
2 -1 9 -0.5076 0.0451
2 -1 10 -0.0933 0.0031
2 -1 11 0.3308 0.0653
2 -1 12 0.7833 -0.0370
2 -1 13 -1.0874 -0.1977
2 -1 14 -0.1349 0.4113
2 0 0 -6.3028 -0.3541
2 0 1 5.2010 0.2807
2 0 2 -1.9192 0.3346
2 0 3 0.7401 -0.1522
2 0 4 -3.1336 -0.2434
2 0 5 4.4277 0.0435
2 0 6 -2.0965 0.1045
2 0 7 -0.8013 -0.0201
2 0 8 1.7949 0.0793
2 0 9 -0.8044 -0.0722
2 0 10 -0.7683 -0.0386
2 0 11 0.6763 0.0112
2 0 12 0.4470 0.0754
2 0 13 -0.1215 -0.1057
2 0 14 -0.8348 -0.0340
2 1 0 -6.5770 -0.6178
2 1 1 1.9823 -0.0243
2 1 2 3.4034 0.1886
2 1 3 -3.4009 0.1159
2 1 4 0.4255 -0.0644
2 1 5 0.3003 -0.0706
2 1 6 1.3631 0.0085
2 1 7 -2.6572 -0.0736
2 1 8 1.9638 0.1061
2 1 9 0.2887 0.0318
2 1 10 -1.5531 -0.0510
2 1 11 0.5228 0.0075
2 1 12 0.4509 -0.0641
2 1 13 0.2393 0.2263
2 1 14 -0.8429 -0.4487
2 2 0 -2.0421 -0.0773
2 2 1 -5.9717 -0.0037
2 2 2 8.5014 0.0178
2 2 3 -4.3880 -0.1266
2 2 4 0.3450 0.0479
2 2 5 0.0796 0.1431
2 2 6 1.5213 -0.0978
2 2 7 -2.2078 -0.0055
2 2 8 0.5792 -0.0297
2 2 9 1.5143 0.0324
2 2 10 -1.4819 -0.0122
2 2 11 0.0320 0.0045
2 2 12 0.3737 -0.0243
2 2 13 0.3948 0.2670
2 3 0 6.1345 -0.3016
2 3 1 -9.8139 0.2844
2 3 2 5.4644 0.1841
2 3 3 1.0592 -0.1696
2 3 4 -3.5144 -0.1460
2 3 5 1.6948 0.1277
2 3 6 1.0239 -0.0116
2 3 7 -1.2159 0.0110
2 3 8 -0.8463 0.0511
2 3 9 1.9231 -0.0478
2 3 10 -0.9424 0.0114
2 3 11 -0.3054 -0.1473
2 3 12 0.4120 0.0563
2 3 13 0.1589 0.2911
2 4 0 6.7067 -0.7836
2 4 1 -3.6684 0.1232
2 4 2 -2.7322 0.2184
2 4 3 6.2020 -0.0138
2 4 4 -4.6478 0.0036
2 4 5 0.5690 -0.0870
2 4 6 1.7460 0.0086
2 4 7 -0.4674 -0.0426
2 4 8 -1.4958 0.0664
2 4 9 1.3554 0.0603
2 4 10 0.0837 0.0040
2 4 11 -1.0313 -0.0377
2 4 12 0.7925 -0.3039
2 5 0 0.3175 -0.3262
2 5 1 3.1755 -0.0104
2 5 2 -5.9938 0.0198
2 5 3 5.0204 -0.0816
2 5 4 -1.0547 0.1091
2 5 5 -2.2694 0.0349
2 5 6 2.0019 -0.0590
2 5 7 0.4053 0.0046
2 5 8 -1.3163 -0.0843
2 5 9 0.1688 0.0721
2 5 10 1.1403 -0.0306
2 5 11 -1.3751 0.3069
2 6 0 -2.6782 -0.2579
2 6 1 3.7675 0.2760
2 6 2 -3.1082 0.0213
2 6 3 -0.1286 -0.1010
2 6 4 3.1695 -0.0767
2 6 5 -3.1515 0.0925
2 6 6 0.6728 -0.0137
2 6 7 1.1219 0.0332
2 6 8 -0.7423 0.0424
2 6 9 -0.4860 -0.1748
2 6 10 1.0410 0.0248
2 6 11 -0.7133 0.2130
2 7 0 -2.0113 -0.6200
2 7 1 0.8852 0.1460
2 7 2 1.8874 0.1287
2 7 3 -4.4002 0.0261
2 7 4 3.9334 -0.0287
2 7 5 -1.2390 -0.0753
2 7 6 -0.8484 0.0460
2 7 7 1.1285 -0.0660
2 7 8 -0.4062 0.1748
2 7 9 -0.2140 -0.1990
2 7 10 0.2808 0.1266
2 8 0 0.4413 -0.2928
2 8 1 -2.9708 -0.0481
2 8 2 4.6999 -0.0058
2 8 3 -3.7803 -0.0287
2 8 4 0.8965 0.0955
2 8 5 1.0127 -0.0232
2 8 6 -1.1142 -0.0096
2 8 7 0.6790 0.1249
2 8 8 -0.2774 -0.2736
2 8 9 -0.0280 0.1114
2 9 0 3.2850 -0.1059
2 9 1 -3.7393 0.1411
2 9 2 2.2240 0.0202
2 9 3 0.4962 -0.0616
2 9 4 -2.0616 -0.1383
2 9 5 1.4489 0.0774
2 9 6 -0.4788 -0.0931
2 9 7 0.2073 0.5722
2 9 8 0.0347 -0.6730
2 10 0 2.7983 -0.3213
2 10 1 -0.8683 0.0894
2 10 2 -1.5950 0.1000
2 10 3 3.0263 0.1651
2 10 4 -2.1562 -0.1087
2 10 5 0.3924 -0.2903
2 10 6 0.1731 0.0131
2 11 0 1.0794 -0.2830
2 11 1 0.9193 -0.0998
2 11 2 -2.4679 0.0732
2 11 3 2.1405 -0.0309
2 11 4 -0.3484 0.4851
2 11 5 -0.5924 -0.6730
2 12 0 0.5073 -0.0714
2 12 1 0.9267 -0.2202
2 12 2 -1.1975 0.2492
2 12 3 0.0972 -0.3752
2 13 0 -0.0765 0.0010
3 -13 0 -0.8479 -0.2258
3 -13 1 0.5952 0.1981
3 -13 2 0.0180 -0.1490
3 -13 3 -0.5598 -0.1631
3 -13 4 0.4836 0.3139
3 -13 5 0.0620 0.1168
3 -13 6 -0.2592 -0.5168
3 -13 7 0.0569 0.3905
3 -12 0 -0.4134 0.2068
3 -12 1 0.0932 0.1527
3 -12 2 0.7647 -0.1743
3 -12 3 -1.0797 -0.0793
3 -12 4 0.3790 0.0957
3 -12 5 0.1812 0.1119
3 -12 6 0.0390 -0.1662
3 -12 7 -0.2012 0.1572
3 -12 8 -0.1534 -0.2721
3 -12 9 0.4502 0.3041
3 -11 0 0.0545 0.0584
3 -11 1 -0.3835 0.0355
3 -11 2 1.2430 0.0299
3 -11 3 -1.0503 -0.0391
3 -11 4 -0.0227 0.0828
3 -11 5 0.3699 -0.1545
3 -11 6 0.1708 0.0697
3 -11 7 -0.4966 0.1283
3 -11 8 0.0861 -0.1952
3 -11 9 0.5652 0.2049
3 -11 10 -0.7188 -0.3923
3 -11 11 0.3484 0.5260
3 -10 0 -0.5685 0.2351
3 -10 1 -0.0290 -0.2894
3 -10 2 0.8500 -0.0809
3 -10 3 -0.1408 0.2055
3 -10 4 -1.1093 0.0444
3 -10 5 1.0197 -0.1395
3 -10 6 0.2257 0.0153
3 -10 7 -0.9127 -0.0030
3 -10 8 0.1828 0.0529
3 -10 9 0.6706 0.1102
3 -10 10 -0.2397 -0.3081
3 -10 11 -0.6238 0.2213
3 -10 12 0.5823 -0.0917
3 -9 0 -1.6106 0.6133
3 -9 1 0.2450 -0.1055
3 -9 2 0.3910 -0.3377
3 -9 3 0.8253 0.1649
3 -9 4 -1.8678 0.0401
3 -9 5 1.0896 -0.0219
3 -9 6 0.4721 0.0688
3 -9 7 -0.7013 -0.1722
3 -9 8 -0.4641 0.1038
3 -9 9 0.8973 0.0252
3 -9 10 -0.0450 0.0449
3 -9 11 -0.3634 -0.1001
3 -9 12 -0.2037 -0.1821
3 -8 0 -0.9126 0.3682
3 -8 1 -0.8384 0.0478
3 -8 2 0.5154 -0.0224
3 -8 3 1.1201 -0.0413
3 -8 4 -1.6664 -0.0387
3 -8 5 0.6197 0.0144
3 -8 6 0.3559 0.0824
3 -8 7 0.2945 -0.0820
3 -8 8 -1.6704 0.0241
3 -8 9 1.9350 -0.0849
3 -8 10 -1.3464 0.1969
3 -8 11 1.0203 -0.0078
3 -8 12 -0.9996 -0.3948
3 -8 13 1.0106 0.4185
3 -7 0 1.1400 0.2037
3 -7 1 -1.6410 -0.3157
3 -7 2 0.0813 0.1385
3 -7 3 1.2465 0.1132
3 -7 4 -0.9986 -0.1074
3 -7 5 -0.2343 0.0500
3 -7 6 0.6472 -0.0361
3 -7 7 0.7145 0.0154
3 -7 8 -2.2264 -0.0447
3 -7 9 2.2522 0.0093
3 -7 10 -1.2639 0.0781
3 -7 11 0.3053 0.0383
3 -7 12 -0.1330 -0.1734
3 -7 13 0.5684 -0.0876
3 -6 0 2.1398 0.6256
3 -6 1 -1.0192 -0.3101
3 -6 2 -0.7050 -0.1854
3 -6 3 1.1350 0.1365
3 -6 4 0.0595 -0.0233
3 -6 5 -1.8894 0.0841
3 -6 6 2.0345 -0.0055
3 -6 7 -0.1970 -0.0061
3 -6 8 -0.9689 -0.1576
3 -6 9 0.3472 0.0994
3 -6 10 0.8173 0.1063
3 -6 11 -1.3687 -0.1150
3 -6 12 0.8979 0.1480
3 -6 13 -0.4024 -0.4456
3 -6 14 0.8608 0.6246
3 -5 0 1.9887 0.5165
3 -5 1 -0.2842 0.1080
3 -5 2 -0.9311 -0.0892
3 -5 3 0.5815 -0.1352
3 -5 4 1.8086 0.0122
3 -5 5 -4.3823 0.0126
3 -5 6 3.9894 0.1255
3 -5 7 -1.6732 -0.0192
3 -5 8 0.6724 -0.1264
3 -5 9 -1.0538 0.0220
3 -5 10 1.4967 0.0673
3 -5 11 -1.5273 -0.0193
3 -5 12 1.0500 0.0922
3 -5 13 -0.7845 -0.2500
3 -5 14 0.9696 0.1714
3 -4 0 1.2909 0.0433
3 -4 1 -0.7351 -0.1020
3 -4 2 0.4762 0.2379
3 -4 3 -1.6647 -0.0652
3 -4 4 4.8473 -0.0796
3 -4 5 -6.7680 -0.0121
3 -4 6 4.7388 0.1130
3 -4 7 -1.5238 -0.0761
3 -4 8 0.1967 -0.0141
3 -4 9 -0.3512 0.0673
3 -4 10 0.8549 -0.1127
3 -4 11 -0.8410 0.1319
3 -4 12 0.0096 -0.0725
3 -4 13 0.5754 0.0706
3 -4 14 -0.3899 -0.1309
3 -3 0 2.9141 0.4099
3 -3 1 -4.0930 -0.3382
3 -3 2 3.6148 -0.0532
3 -3 3 -4.0869 0.1450
3 -3 4 5.8422 -0.1049
3 -3 5 -5.4614 0.0656
3 -3 6 1.9692 0.1035
3 -3 7 1.1254 -0.1262
3 -3 8 -1.3911 -0.0304
3 -3 9 -0.1010 0.0585
3 -3 10 1.0047 -0.0373
3 -3 11 -0.0887 0.0535
3 -3 12 -1.3762 -0.0466
3 -3 13 1.4359 0.0801
3 -3 14 -0.4084 0.0160
3 -2 0 7.8261 0.4988
3 -2 1 -6.3308 0.1357
3 -2 2 2.7140 -0.1342
3 -2 3 -1.2107 -0.0922
3 -2 4 1.3269 -0.0830
3 -2 5 -0.0855 0.0896
3 -2 6 -2.6184 0.0900
3 -2 7 3.5478 -0.0157
3 -2 8 -1.1786 -0.0008
3 -2 9 -1.6479 -0.1071
3 -2 10 1.6487 0.0608
3 -2 11 0.4169 -0.0410
3 -2 12 -1.3781 0.0481
3 -2 13 0.4215 -0.0136
3 -2 14 0.4953 0.1830
3 -1 0 8.0570 -0.1308
3 -1 1 -0.9962 0.0762
3 -1 2 -3.8194 0.3202
3 -1 3 4.3099 -0.1287
3 -1 4 -3.2246 -0.1712
3 -1 5 3.4828 0.0767
3 -1 6 -4.5005 -0.0265
3 -1 7 2.8921 0.0243
3 -1 8 1.1761 0.0852
3 -1 9 -3.0920 -0.0372
3 -1 10 1.2128 -0.0162
3 -1 11 0.9814 -0.0545
3 -1 12 -0.8328 -0.0002
3 -1 13 -0.2988 -0.0511
3 -1 14 0.3611 0.2625
3 0 0 0.1855 -0.0069
3 0 1 6.6376 -0.2900
3 0 2 -6.8618 0.1216
3 0 3 3.8293 0.0937
3 0 4 -1.8432 -0.0522
3 0 5 2.3594 0.0360
3 0 6 -2.7310 -0.0177
3 0 7 0.0851 -0.0592
3 0 8 2.8523 -0.0402
3 0 9 -2.1392 0.1132
3 0 10 -0.5980 0.0078
3 0 11 1.5586 0.0174
3 0 12 -0.4332 -0.0170
3 0 13 -0.4038 -0.2703
3 1 0 -6.9256 0.2638
3 1 1 6.8432 0.1070
3 1 2 -1.6851 -0.1015
3 1 3 -2.0696 -0.1872
3 1 4 1.9000 0.0702
3 1 5 0.2707 0.0726
3 1 6 -0.6019 0.0592
3 1 7 -1.2877 0.0094
3 1 8 1.7859 -0.1317
3 1 9 0.0680 -0.0263
3 1 10 -1.4985 0.0160
3 1 11 0.9572 0.1062
3 1 12 0.3165 0.1873
3 1 13 -0.5452 -0.3961
3 2 0 -5.6844 -0.2413
3 2 1 0.1797 0.2781
3 2 2 4.8426 0.2646
3 2 3 -5.0190 -0.2043
3 2 4 1.8962 -0.1808
3 2 5 0.6387 0.0591
3 2 6 -0.5748 0.0752
3 2 7 -0.4113 0.0481
3 2 8 0.2254 0.0543
3 2 9 0.6194 -0.0957
3 2 10 -0.8181 -0.1548
3 2 11 0.1811 0.0561
3 2 12 0.4504 0.2656
3 3 0 0.2844 -0.4584
3 3 1 -4.4908 -0.0503
3 3 2 5.0109 0.1819
3 3 3 -1.9737 0.1286
3 3 4 -1.0572 -0.0968
3 3 5 1.9318 -0.1034
3 3 6 -1.0939 0.0351
3 3 7 0.0597 -0.0321
3 3 8 0.1598 0.1085
3 3 9 0.3464 0.0670
3 3 10 -0.7167 -0.1351
3 3 11 0.4669 -0.0930
3 3 12 -0.0680 0.1066
3 4 0 2.5519 -0.0779
3 4 1 -2.8514 0.0049
3 4 2 0.7468 -0.0508
3 4 3 1.6135 -0.0711
3 4 4 -2.2930 0.1157
3 4 5 1.7586 0.0266
3 4 6 -0.7514 -0.0611
3 4 7 -0.0917 -0.0322
3 4 8 -0.0589 0.0162
3 4 9 0.7358 0.0035
3 4 10 -0.8636 0.1245
3 4 11 0.5987 -0.1506
3 5 0 0.7073 -0.2014
3 5 1 0.3092 0.2486
3 5 2 -1.6782 0.1115
3 5 3 1.9960 -0.1391
3 5 4 -1.5790 -0.1337
3 5 5 1.3807 0.1512
3 5 6 -0.9766 -0.0093
3 5 7 0.5134 -0.0239
3 5 8 -0.4458 0.0285
3 5 9 0.1997 -0.0910
3 5 10 0.0343 0.1507
3 5 11 0.2593 -0.0950
3 6 0 -1.0197 -0.5821
3 6 1 1.2922 0.0770
3 6 2 -1.3418 0.1533
3 6 3 1.0437 0.0828
3 6 4 -1.3509 -0.0818
3 6 5 1.9056 -0.0635
3 6 6 -1.4392 0.0269
3 6 7 0.3748 0.0405
3 6 8 0.6044 -0.1101
3 6 9 -1.1729 0.1194
3 6 10 0.7021 0.0487
3 7 0 -1.2146 -0.1885
3 7 1 0.2047 -0.1245
3 7 2 0.1870 0.0039
3 7 3 0.2296 -0.0540
3 7 4 -1.2858 0.1619
3 7 5 1.4407 0.0017
3 7 6 -0.2184 -0.0830
3 7 7 -0.9891 0.0819
3 7 8 1.4596 -0.2341
3 7 9 -1.1570 0.1683
3 8 0 0.7384 -0.0550
3 8 1 -1.8797 0.1820
3 8 2 1.4485 -0.0105
3 8 3 -0.2945 -0.1704
3 8 4 -0.3698 -0.0481
3 8 5 -0.2785 0.1458
3 8 6 1.1501 0.1536
3 8 7 -1.0844 -0.2246
3 8 8 0.5442 -0.0102
3 9 0 2.3082 -0.5497
3 9 1 -2.0795 0.2202
3 9 2 0.9251 0.1461
3 9 3 -0.1037 -0.0070
3 9 4 0.2609 -0.1744
3 9 5 -0.8407 -0.1729
3 9 6 0.7187 0.6444
3 9 7 -0.0374 -0.5601
3 10 0 1.0530 -0.2896
3 10 1 -0.1873 -0.1480
3 10 2 -0.5927 0.0915
3 10 3 0.5839 0.1298
3 10 4 -0.0436 -0.0275
3 10 5 -0.2634 -0.4071
3 11 0 -0.5332 0.0471
3 11 1 1.1347 0.0402
3 11 2 -1.1727 -0.1864
3 11 3 0.5986 0.2037
3 12 0 -0.7281 -0.3682
3 12 1 0.8459 0.3773
4 -13 1 0.5340 0.6803
4 -13 2 -0.1387 -0.6259
4 -13 3 -0.5250 0.1688
4 -13 4 0.2493 0.3039
4 -12 0 -0.5321 -0.4983
4 -12 1 0.6770 0.1504
4 -12 2 -0.0368 0.1059
4 -12 3 -0.4545 -0.1340
4 -12 4 0.2586 0.0612
4 -12 5 -0.0193 0.0169
4 -12 6 -0.0794 0.0913
4 -12 7 0.1054 -0.3252
4 -12 8 0.1345 0.3703
4 -11 0 -0.9225 0.2575
4 -11 1 0.5977 -0.4036
4 -11 2 0.4396 -0.0094
4 -11 3 -1.3358 0.2515
4 -11 4 1.3212 -0.1544
4 -11 5 -0.5522 -0.0167
4 -11 6 -0.1469 0.1592
4 -11 7 -0.0333 -0.1520
4 -11 8 0.5585 -0.0176
4 -11 9 -0.3176 0.1822
4 -10 0 -0.3641 0.3560
4 -10 1 -0.1477 0.0956
4 -10 2 1.2652 -0.3556
4 -10 3 -1.9306 0.1007
4 -10 4 1.2408 0.0982
4 -10 5 0.1579 -0.0815
4 -10 6 -0.7471 0.0098
4 -10 7 0.0967 0.0842
4 -10 8 0.4846 -0.1650
4 -10 9 -0.2191 0.1575
4 -10 10 -0.0573 0.0280
4 -10 11 -0.1174 -0.2304
4 -9 0 0.3463 -0.0340
4 -9 1 -0.4049 0.1129
4 -9 2 1.0197 0.0852
4 -9 3 -1.0328 -0.1348
4 -9 4 -0.1127 0.0203
4 -9 5 1.4898 0.0166
4 -9 6 -1.6235 -0.0059
4 -9 7 0.3811 0.0203
4 -9 8 0.7955 -0.0902
4 -9 9 -0.9413 0.1164
4 -9 10 0.4380 0.0285
4 -9 11 0.0623 -0.1194
4 -8 0 0.1064 0.2592
4 -8 1 0.0133 -0.3796
4 -8 2 0.2104 0.0319
4 -8 3 0.2818 0.2434
4 -8 4 -1.7563 -0.0968
4 -8 5 2.9263 -0.0699
4 -8 6 -2.1465 0.0781
4 -8 7 -0.0479 -0.0180
4 -8 8 1.3401 -0.1211
4 -8 9 -0.7654 0.1641
4 -8 10 -0.4327 -0.0157
4 -8 11 0.9370 -0.0819
4 -8 12 -0.7761 0.0032
4 -7 0 -0.6088 0.6000
4 -7 1 0.5739 -0.1264
4 -7 2 -0.5056 -0.3757
4 -7 3 1.3882 0.1935
4 -7 4 -2.9277 0.1045
4 -7 5 3.1619 -0.0924
4 -7 6 -1.2190 0.0482
4 -7 7 -0.7615 -0.0210
4 -7 8 0.6949 -0.0693
4 -7 9 0.5192 0.0584
4 -7 10 -1.0590 0.0745
4 -7 11 0.8445 -0.0765
4 -7 12 -0.6078 -0.2377
4 -6 0 -1.5267 0.3173
4 -6 1 0.8964 0.0544
4 -6 2 -0.5322 -0.0316
4 -6 3 1.4650 -0.0965
4 -6 4 -2.5122 0.0385
4 -6 5 1.7477 -0.0001
4 -6 6 0.1550 0.0665
4 -6 7 -0.6672 -0.0934
4 -6 8 -0.3843 0.0341
4 -6 9 0.9617 -0.0160
4 -6 10 -0.6729 0.0817
4 -6 11 0.5003 0.0598
4 -6 12 -0.2832 -0.4472
4 -6 13 -0.1591 0.4797
4 -5 0 -2.1317 0.2410
4 -5 1 0.4639 -0.3588
4 -5 2 0.1569 0.1129
4 -5 3 0.6548 0.1461
4 -5 4 -1.1006 -0.0875
4 -5 5 0.0098 -0.0060
4 -5 6 1.1586 0.0518
4 -5 7 -0.5771 -0.0728
4 -5 8 -0.6752 -0.0454
4 -5 9 0.8466 0.0613
4 -5 10 -0.4908 0.0668
4 -5 11 0.0687 0.0528
4 -5 12 0.8370 -0.1754
4 -5 13 -1.1716 -0.0748
4 -4 0 -2.2795 0.6303
4 -4 1 -0.3679 -0.2851
4 -4 2 1.2978 -0.2929
4 -4 3 -0.9637 0.1891
4 -4 4 0.8783 0.0062
4 -4 5 -1.7486 0.0583
4 -4 6 2.1275 0.0107
4 -4 7 -0.7135 0.0031
4 -4 8 -0.7688 -0.1555
4 -4 9 0.7430 0.0047
4 -4 10 0.0428 0.1593
4 -4 11 -1.1041 -0.0610
4 -4 12 1.8192 0.0955
4 -4 13 -1.0449 -0.1142
4 -3 0 -0.7142 0.5318
4 -3 1 -2.7516 0.1274
4 -3 2 3.5710 -0.1428
4 -3 3 -2.6928 -0.1108
4 -3 4 1.8822 -0.0260
4 -3 5 -2.2005 0.0462
4 -3 6 2.0103 0.0963
4 -3 7 -0.3061 0.0215
4 -3 8 -0.8007 -0.0565
4 -3 9 0.2648 -0.0925
4 -3 10 0.8140 0.0380
4 -3 11 -1.5720 0.0106
4 -3 12 1.2371 0.0415
4 -3 13 -0.1891 0.1013
4 -2 0 3.6549 0.1473
4 -2 1 -5.4754 -0.1431
4 -2 2 3.6367 0.2431
4 -2 3 -0.9125 -0.0270
4 -2 4 -0.0395 -0.0825
4 -2 5 -0.9164 -0.0585
4 -2 6 1.0937 0.0670
4 -2 7 0.1251 -0.0243
4 -2 8 -0.7041 0.0275
4 -2 9 0.0864 0.1057
4 -2 10 0.7289 -0.1395
4 -2 11 -0.7512 -0.0286
4 -2 12 -0.0504 0.0119
4 -2 13 0.2582 0.0678
4 -1 0 6.0293 0.4340
4 -1 1 -3.3744 -0.3841
4 -1 2 -0.9404 -0.0581
4 -1 3 2.8618 0.1631
4 -1 4 -1.5714 -0.0208
4 -1 5 -0.5480 0.0559
4 -1 6 0.8201 -0.0010
4 -1 7 0.3301 -0.1178
4 -1 8 -0.8658 -0.0670
4 -1 9 0.2273 0.1631
4 -1 10 0.3361 0.0781
4 -1 11 0.2913 -0.0911
4 -1 12 -0.9862 -0.1328
4 -1 13 0.4261 0.1338
4 0 0 2.7755 0.4994
4 0 1 1.6582 0.1047
4 0 2 -3.8768 -0.2114
4 0 3 2.5463 -0.0869
4 0 4 0.0450 -0.0241
4 0 5 -1.4459 0.1401
4 0 6 0.8003 0.1077
4 0 7 0.6423 -0.1024
4 0 8 -0.8315 -0.0742
4 0 9 -0.2418 -0.0928
4 0 10 0.4531 0.1333
4 0 11 0.5825 0.1813
4 0 12 -0.8966 -0.2500
4 1 0 -0.7359 -0.0483
4 1 1 2.1700 0.1049
4 1 2 -1.1003 0.2561
4 1 3 -0.8177 -0.1936
4 1 4 1.8816 -0.1283
4 1 5 -1.7106 0.0647
4 1 6 0.2158 0.0679
4 1 7 1.0707 0.0252
4 1 8 -0.2705 0.0276
4 1 9 -1.2162 -0.1017
4 1 10 1.1053 -0.0962
4 1 11 -0.2060 0.1346
4 1 12 -0.0788 0.1063
4 2 0 0.3760 0.0337
4 2 1 -1.1471 -0.2740
4 2 2 1.9461 0.1533
4 2 3 -2.0224 0.0733
4 2 4 1.7432 -0.0856
4 2 5 -0.7748 0.0410
4 2 6 -1.0855 -0.0577
4 2 7 1.5166 0.0099
4 2 8 0.3219 0.0435
4 2 9 -1.7934 0.0188
4 2 10 1.7157 0.0234
4 2 11 -1.0901 -0.2663
4 2 12 0.2578 0.3600
4 3 0 1.8592 0.2439
4 3 1 -1.5892 0.0903
4 3 2 1.1882 -0.1711
4 3 3 -0.9002 -0.0785
4 3 4 0.6587 0.0867
4 3 5 0.6436 0.0403
4 3 6 -2.1724 0.0058
4 3 7 1.5568 -0.0372
4 3 8 0.3733 -0.0356
4 3 9 -1.5196 0.0153
4 3 10 1.8380 0.1508
4 3 11 -1.2821 -0.2897
4 4 0 -0.3562 -0.1680
4 4 1 0.8226 0.2716
4 4 2 -0.3724 0.1549
4 4 3 -0.1896 -0.2345
4 4 4 0.1355 -0.0320
4 4 5 1.1023 0.0507
4 4 6 -2.0081 0.0235
4 4 7 1.3091 0.0503
4 4 8 -0.0668 -0.1070
4 4 9 -1.0105 0.0899
4 4 10 1.5165 0.0249
4 5 0 -2.5375 -0.2878
4 5 1 1.6595 -0.0635
4 5 2 -0.2928 0.1595
4 5 3 -0.6225 0.1015
4 5 4 0.5261 -0.1385
4 5 5 0.6810 -0.0063
4 5 6 -1.4598 0.0182
4 5 7 1.0472 0.0125
4 5 8 -0.1353 -0.0756
4 5 9 -0.6434 0.1381
4 5 10 0.5709 0.0130
4 6 0 -2.3317 -0.0078
4 6 1 0.9344 -0.0120
4 6 2 0.5082 -0.0904
4 6 3 -1.1525 0.0345
4 6 4 0.4086 0.0806
4 6 5 0.8545 -0.0870
4 6 6 -0.9592 0.1005
4 6 7 0.1659 -0.1225
4 6 8 0.2724 0.0148
4 6 9 -0.0754 0.0716
4 7 0 -1.2836 -0.1066
4 7 1 -0.1894 0.1269
4 7 2 1.0915 0.1348
4 7 3 -0.5032 -0.1717
4 7 4 -0.7760 -0.0034
4 7 5 0.9079 0.0506
4 7 6 0.2161 0.0559
4 7 7 -0.8202 -0.1518
4 7 8 0.2813 0.0964
4 8 0 0.3745 -0.4195
4 8 1 -1.2184 0.0096
4 8 2 0.5880 0.1419
4 8 3 0.8080 0.1281
4 8 4 -1.0652 -0.2505
4 8 5 -0.0728 0.1684
4 8 6 0.9968 0.0032
4 8 7 -0.6943 -0.1978
4 9 0 1.2819 -0.2342
4 9 1 -0.8398 -0.0290
4 9 2 -0.3695 -0.0503
4 9 3 0.7261 0.0603
4 9 4 0.0165 -0.0084
4 9 5 -0.6317 0.0361
4 10 0 0.5827 -0.0684
4 10 1 -0.0640 0.0779
4 10 2 -0.0798 0.2540
4 10 3 -0.4455 -0.4559
4 10 4 0.6092 0.2341
4 11 0 0.0953 -0.5716
4 11 1 -0.2516 0.0180
4 11 2 0.6496 0.5864
5 -12 0 -0.0377 -0.3952
5 -12 1 0.0543 0.3831
5 -12 2 -0.3703 -0.0922
5 -12 3 0.0550 -0.2685
5 -12 4 0.6708 0.3401
5 -12 5 -0.7566 -0.4353
5 -11 0 -0.1061 -0.1191
5 -11 1 0.4079 0.1753
5 -11 2 -0.5861 0.0257
5 -11 3 -0.1394 -0.0485
5 -11 4 0.8520 0.1878
5 -11 5 -0.6530 -0.5260
5 -11 6 0.1485 0.3284
5 -11 7 -0.0456 0.2218
5 -10 0 -0.1682 -0.2127
5 -10 1 0.8125 -0.0667
5 -10 2 -0.9755 0.0099
5 -10 3 0.1388 0.2201
5 -10 4 0.6322 0.1230
5 -10 5 -0.6081 -0.2999
5 -10 6 0.1025 -0.1621
5 -10 7 0.3615 0.2878
5 -10 8 -0.2598 0.1171
5 -10 9 -0.3568 -0.3603
5 -9 0 -0.1304 0.1422
5 -9 1 1.1266 -0.3528
5 -9 2 -0.9609 -0.2041
5 -9 3 -0.3717 0.3103
5 -9 4 1.3471 0.1347
5 -9 5 -1.0384 -0.0790
5 -9 6 -0.1299 -0.1465
5 -9 7 0.8769 -0.0503
5 -9 8 -0.2930 0.2428
5 -9 9 -0.7523 -0.3070
5 -9 10 0.8628 0.3536
5 -8 0 -0.1717 0.4226
5 -8 1 0.9501 -0.0371
5 -8 2 -0.1849 -0.3596
5 -8 3 -1.3193 0.0797
5 -8 4 1.7739 0.1651
5 -8 5 -0.7041 -0.0569
5 -8 6 -0.6937 0.0033
5 -8 7 0.8918 0.0272
5 -8 8 0.0390 -0.0310
5 -8 9 -0.5964 -0.0888
5 -8 10 0.2903 0.0467
5 -8 11 0.0724 0.0794
5 -7 0 -0.5848 0.0461
5 -7 1 1.3509 0.0799
5 -7 2 -0.3347 0.0144
5 -7 3 -1.0838 -0.0484
5 -7 4 1.0962 0.0260
5 -7 5 0.2521 -0.0558
5 -7 6 -1.3196 -0.0620
5 -7 7 1.0959 0.1863
5 -7 8 -0.4493 -0.0977
5 -7 9 0.1934 0.0872
5 -7 10 -0.0049 -0.1123
5 -7 11 -0.1474 -0.0859
5 -6 0 -1.8314 0.1712
5 -6 1 2.3678 -0.3773
5 -6 2 -0.6044 0.0326
5 -6 3 -0.9508 0.2372
5 -6 4 0.4537 0.0107
5 -6 5 1.3215 -0.1168
5 -6 6 -2.1908 -0.0570
5 -6 7 1.5636 0.0323
5 -6 8 -0.6113 -0.0149
5 -6 9 -0.1202 0.1009
5 -6 10 0.4487 0.0723
5 -6 11 -0.0685 -0.0833
5 -5 0 -2.7555 0.6028
5 -5 1 1.9149 -0.1834
5 -5 2 0.4312 -0.3843
5 -5 3 -1.2919 0.1617
5 -5 4 -0.1491 0.1945
5 -5 5 2.0933 -0.0711
5 -5 6 -2.1980 0.0164
5 -5 7 0.6559 -0.1155
5 -5 8 0.6641 0.0114
5 -5 9 -0.8530 0.0063
5 -5 10 0.0610 0.0411
5 -5 11 0.7224 0.2582
5 -5 12 -0.5946 -0.4367
5 -4 0 -2.4205 0.3141
5 -4 1 0.3159 0.1735
5 -4 2 1.5564 -0.1430
5 -4 3 -1.4666 -0.1160
5 -4 4 -0.3233 0.0371
5 -4 5 1.7759 0.0695
5 -4 6 -1.0186 0.0493
5 -4 7 -0.8005 -0.0739
5 -4 8 1.2661 -0.0246
5 -4 9 -0.1173 0.0610
5 -4 10 -0.9190 -0.0955
5 -4 11 0.6676 0.0315
5 -4 12 0.0018 0.1924
5 -3 0 -1.1259 0.1671
5 -3 1 -1.2405 -0.2481
5 -3 2 2.2818 0.1350
5 -3 3 -1.4117 0.0957
5 -3 4 -0.6340 -0.1134
5 -3 5 1.6153 0.0186
5 -3 6 -0.3050 0.0092
5 -3 7 -1.1104 -0.0193
5 -3 8 0.4703 -0.0290
5 -3 9 0.8815 0.0824
5 -3 10 -0.7517 0.0786
5 -3 11 -0.2657 -0.2289
5 -3 12 0.4291 -0.0107
5 -2 0 0.1711 0.6309
5 -2 1 -1.8401 -0.3470
5 -2 2 1.7050 -0.2038
5 -2 3 0.0380 0.1576
5 -2 4 -1.7509 0.0743
5 -2 5 1.3576 0.0043
5 -2 6 0.6822 -0.0135
5 -2 7 -1.3808 -0.0850
5 -2 8 0.0121 -0.0060
5 -2 9 0.8969 0.0147
5 -2 10 -0.2776 0.0690
5 -2 11 -0.2599 0.2424
5 -2 12 0.0273 -0.6397
5 -1 0 -0.2595 0.4825
5 -1 1 -0.5627 0.1483
5 -1 2 -0.1255 -0.1982
5 -1 3 1.3602 -0.1120
5 -1 4 -1.3105 0.0549
5 -1 5 -0.5908 0.0761
5 -1 6 2.3274 0.0421
5 -1 7 -1.6570 -0.0648
5 -1 8 -0.3673 -0.0053
5 -1 9 1.2658 -0.0379
5 -1 10 -0.9012 -0.1237
5 -1 11 0.4344 0.4652
5 0 0 -1.4628 0.0256
5 0 1 0.3782 -0.0426
5 0 2 -0.4817 0.1606
5 0 3 0.7324 -0.0260
5 0 4 0.1763 -0.0901
5 0 5 -1.9100 0.0388
5 0 6 2.4616 -0.0158
5 0 7 -0.7716 0.0060
5 0 8 -1.3787 0.0787
5 0 9 1.9504 -0.0712
5 0 10 -1.0461 -0.0616
5 0 11 -0.0258 0.0271
5 1 0 -0.6540 0.4305
5 1 1 -0.6324 -0.3965
5 1 2 0.1493 -0.0385
5 1 3 0.5124 0.1367
5 1 4 0.0704 0.0093
5 1 5 -1.4261 0.0426
5 1 6 1.5135 -0.0665
5 1 7 0.2311 -0.0411
5 1 8 -1.6511 0.0286
5 1 9 1.1382 0.0032
5 1 10 0.3350 0.1449
5 1 11 -0.8861 -0.3412
5 2 0 1.4720 0.5128
5 2 1 -1.2328 0.0762
5 2 2 -0.3465 -0.1966
5 2 3 1.0839 -0.1034
5 2 4 -0.1643 0.0707
5 2 5 -1.2466 0.0513
5 2 6 1.1002 0.0424
5 2 7 0.2494 0.0207
5 2 8 -0.5248 -0.1529
5 2 9 -0.5282 0.0031
5 2 10 1.1081 0.2213
5 3 0 1.9753 -0.1252
5 3 1 -0.2554 0.1472
5 3 2 -0.8625 0.1934
5 3 3 0.6974 -0.1461
5 3 4 0.4345 -0.0671
5 3 5 -1.3469 -0.0285
5 3 6 0.8962 0.0675
5 3 7 -0.1944 0.0889
5 3 8 0.5156 -0.0658
5 3 9 -0.8720 -0.0513
5 3 10 0.3735 0.0771
5 4 0 0.3768 0.0325
5 4 1 0.8429 -0.2640
5 4 2 -0.7507 0.0931
5 4 3 0.1647 0.1646
5 4 4 0.7119 -0.0980
5 4 5 -1.0936 -0.0445
5 4 6 0.5082 0.0486
5 4 7 -0.1229 -0.0744
5 4 8 0.2782 0.0710
5 4 9 -0.0833 0.0315
5 5 0 -1.3379 0.2786
5 5 1 1.3502 0.0501
5 5 2 -0.6512 -0.1827
5 5 3 -0.1883 0.0331
5 5 4 0.9177 0.0042
5 5 5 -0.6385 0.0120
5 5 6 -0.3462 0.0979
5 5 7 0.6248 -0.1290
5 5 8 -0.3370 0.0022
5 6 0 -1.7181 -0.1688
5 6 1 1.1133 0.1561
5 6 2 -0.1828 0.2225
5 6 3 -0.6456 -0.1905
5 6 4 0.7082 -0.1035
5 6 5 0.3467 0.1137
5 6 6 -1.2243 -0.0104
5 6 7 0.8281 0.0226
5 7 0 -0.6551 -0.1836
5 7 1 0.3321 -0.2013
5 7 2 0.0152 0.2257
5 7 3 -0.2212 0.0933
5 7 4 -0.1531 -0.2327
5 7 5 1.0070 0.1771
5 7 6 -1.0633 -0.1180
5 8 0 0.4870 0.0145
5 8 1 0.2888 0.0821
5 8 2 -0.5945 -0.1384
5 8 3 0.3375 -0.0212
5 8 4 -0.4085 0.0692
5 8 5 0.7812 -0.0038
5 9 0 0.3465 -0.2102
5 9 1 0.6831 0.2273
5 9 2 -0.5171 0.3753
5 9 3 0.0176 -0.6803
5 10 0 -0.1405 -0.3142
5 10 1 0.2694 -0.3231
6 -11 0 0.3274 -0.6068
6 -11 1 -0.9687 -0.3502
6 -11 2 0.6169 0.6659
6 -11 3 0.2415 0.0852
6 -11 4 -0.3961 -0.0111
6 -10 0 1.2398 -0.1220
6 -10 1 -1.0813 -0.3833
6 -10 2 -0.2732 -0.0400
6 -10 3 1.1165 0.1996
6 -10 4 -0.8236 0.3739
6 -10 5 0.3815 -0.3001
6 -10 6 -0.1256 -0.3967
6 -10 7 -0.0591 0.5168
6 -9 0 0.8872 0.0396
6 -9 1 -0.0369 0.1518
6 -9 2 -1.1666 -0.2147
6 -9 3 1.0335 -0.0973
6 -9 4 -0.1127 0.1543
6 -9 5 -0.3371 0.1454
6 -9 6 0.2659 -0.2368
6 -9 7 -0.0301 0.0981
6 -9 8 -0.0749 0.1269
6 -8 0 0.7630 -0.2505
6 -8 1 0.2409 0.1318
6 -8 2 -0.8919 0.1181
6 -8 3 -0.0479 -0.0550
6 -8 4 1.0989 -0.0254
6 -8 5 -1.0684 -0.0834
6 -8 6 0.3795 0.0336
6 -8 7 0.1368 -0.0242
6 -8 8 -0.1315 0.3859
6 -8 9 -0.1362 -0.4605
6 -7 0 1.2312 0.0349
6 -7 1 0.5605 -0.2498
6 -7 2 -0.7643 0.0212
6 -7 3 -0.6189 0.1227
6 -7 4 1.5773 0.1234
6 -7 5 -1.3380 -0.1107
6 -7 6 0.3671 -0.1430
6 -7 7 0.4703 -0.0384
6 -7 8 -0.6241 0.1608
6 -7 9 0.3505 0.4101
6 -6 0 0.3004 0.3311
6 -6 1 1.4298 0.0386
6 -6 2 -0.9599 -0.2787
6 -6 3 -0.3407 0.0387
6 -6 4 1.3394 0.1177
6 -6 5 -1.1826 0.0729
6 -6 6 -0.2978 -0.0858
6 -6 7 1.4026 -0.0400
6 -6 8 -0.9522 -0.2742
6 -6 9 0.1239 0.6381
6 -6 10 -0.0775 -0.3575
6 -5 0 -1.0439 -0.0551
6 -5 1 1.8472 0.1870
6 -5 2 -1.7439 -0.0194
6 -5 3 0.7824 -0.0396
6 -5 4 0.6340 0.0020
6 -5 5 -0.3077 -0.0524
6 -5 6 -1.3268 0.1090
6 -5 7 1.2308 -0.0579
6 -5 8 0.3957 -0.0184
6 -5 9 -0.7932 -0.0268
6 -5 10 -0.0806 0.1440
6 -4 0 -1.3149 0.0958
6 -4 1 2.3124 -0.3326
6 -4 2 -2.5808 0.0532
6 -4 3 0.9204 0.1957
6 -4 4 0.4673 0.0103
6 -4 5 0.5344 -0.1126
6 -4 6 -1.3150 0.0146
6 -4 7 -0.1357 -0.1126
6 -4 8 1.2097 0.1978
6 -4 9 -0.2764 -0.0592
6 -4 10 -0.6154 0.0140
6 -3 0 -0.6444 0.5972
6 -3 1 1.6704 -0.2397
6 -3 2 -0.7926 -0.3083
6 -3 3 -0.8210 0.1733
6 -3 4 0.2458 0.0693
6 -3 5 1.4495 0.0914
6 -3 6 -1.1875 -0.1358
6 -3 7 -0.1877 -0.0073
6 -3 8 0.2122 -0.0721
6 -3 9 0.4522 0.1510
6 -3 10 -0.3354 0.0053
6 -2 0 0.2959 0.2898
6 -2 1 -0.3737 0.1255
6 -2 2 1.6650 -0.0784
6 -2 3 -1.1409 -0.1067
6 -2 4 -1.2143 0.0028
6 -2 5 2.2319 0.0791
6 -2 6 -1.1241 0.0014
6 -2 7 0.0183 0.0065
6 -2 8 0.1854 -0.0787
6 -2 9 -0.1944 0.0640
6 -2 10 0.1639 -0.0282
6 -1 0 -0.2204 0.0204
6 -1 1 -0.8385 -0.2204
6 -1 2 1.4808 0.2039
6 -1 3 0.0503 0.0279
6 -1 4 -1.6541 0.0058
6 -1 5 1.3664 -0.1498
6 -1 6 -0.0296 0.1184
6 -1 7 -0.8399 -0.0649
6 -1 8 0.8277 -0.0127
6 -1 9 -0.2644 0.1012
6 -1 10 -0.1838 0.0446
6 0 0 -1.3147 0.4487
6 0 1 -0.3598 -0.3181
6 0 2 1.0035 -0.1829
6 0 3 -0.1823 0.1927
6 0 4 -0.4873 0.0542
6 0 5 0.1314 -0.0128
6 0 6 0.7069 -0.0104
6 0 7 -0.9401 -0.0399
6 0 8 0.2795 -0.0829
6 0 9 0.3635 -0.0212
6 0 10 -0.2946 0.3730
6 1 0 -0.3243 0.4472
6 1 1 -1.0775 0.1451
6 1 2 1.3207 -0.2372
6 1 3 -0.5190 -0.0024
6 1 4 -0.2278 -0.0831
6 1 5 0.0802 0.1510
6 1 6 0.4923 0.0487
6 1 7 -0.3834 -0.0383
6 1 8 -0.1831 -0.0218
6 1 9 0.3220 -0.2516
6 2 0 1.1867 0.0017
6 2 1 -1.0600 -0.0313
6 2 2 0.4084 0.2289
6 2 3 0.2795 -0.0748
6 2 4 -0.5089 -0.0915
6 2 5 0.0042 -0.0535
6 2 6 0.5240 0.0941
6 2 7 -0.3591 0.0342
6 2 8 -0.0318 0.0945
6 2 9 0.2509 -0.2462
6 3 0 0.6593 0.3070
6 3 1 0.3924 -0.4033
6 3 2 -0.7331 0.0858
6 3 3 0.5181 0.0668
6 3 4 -0.1812 0.0546
6 3 5 -0.3812 -0.0159
6 3 6 0.7642 -0.1322
6 3 7 -0.5152 -0.0236
6 3 8 0.0401 0.3057
6 4 0 -0.4258 0.4460
6 4 1 0.9009 0.1343
6 4 2 -0.4701 -0.2861
6 4 3 0.0740 -0.0184
6 4 4 0.0949 0.0415
6 4 5 -0.6234 0.1631
6 4 6 0.9350 -0.0296
6 4 7 -0.5183 -0.3892
6 5 0 -0.2749 -0.1399
6 5 1 -0.0118 0.2610
6 5 2 0.3516 0.0497
6 5 3 -0.1194 -0.1550
6 5 4 0.1163 0.0051
6 5 5 -0.6934 0.0393
6 5 6 0.7080 0.1849
6 5 7 -0.1542 -0.4634
6 6 0 0.4257 0.1490
6 6 1 -0.8708 -0.3156
6 6 2 0.4658 0.0889
6 6 3 0.3402 0.0194
6 6 4 -0.2702 -0.0417
6 6 5 -0.2179 0.2119
6 7 0 0.7796 0.4931
6 7 1 -0.6510 0.0305
6 7 2 -0.4391 -0.2729
6 7 3 1.1267 0.0450
6 7 4 -0.6566 -0.2857
6 8 0 0.5424 -0.1221
6 8 1 0.1965 0.1863
6 8 2 -0.9840 0.2217
6 8 3 0.9477 -0.1755
6 9 0 0.1318 0.0396
6 9 1 0.2388 -0.6373
7 -9 0 -0.0499 -1.0267
7 -9 1 -0.3042 0.2493
7 -9 2 0.1136 0.6470
7 -9 3 0.1335 -0.4706
7 -9 4 0.2160 -0.1147
7 -8 0 0.4300 -0.1068
7 -8 1 -0.4459 -0.3561
7 -8 2 -0.1226 0.1521
7 -8 3 0.2501 0.2280
7 -8 4 0.1822 -0.0383
7 -8 5 -0.3611 -0.3502
7 -8 6 0.0232 0.4069
7 -7 0 0.4595 0.1512
7 -7 1 -0.2571 0.1535
7 -7 2 -0.1418 -0.3035
7 -7 3 0.6092 0.0964
7 -7 4 -0.6834 0.1165
7 -7 5 0.2628 -0.1997
7 -7 6 0.0198 0.2095
7 -7 7 0.1329 -0.0405
7 -6 0 0.2355 -0.3095
7 -6 1 -0.5336 0.1768
7 -6 2 -0.1357 0.1030
7 -6 3 1.1795 0.0223
7 -6 4 -0.8494 -0.1249
7 -6 5 -0.3185 -0.0747
7 -6 6 0.4690 -0.0368
7 -6 7 0.2809 0.4638
7 -6 8 -0.4993 -0.4610
7 -5 0 0.5496 -0.0148
7 -5 1 -0.7017 -0.3835
7 -5 2 -0.4156 0.1272
7 -5 3 0.8521 0.2399
7 -5 4 0.1565 0.0068
7 -5 5 -0.7789 -0.2144
7 -5 6 0.0379 -0.0952
7 -5 7 0.7782 0.1696
7 -5 8 -0.6539 0.2202
7 -4 0 0.8539 0.3606
7 -4 1 -0.3177 -0.1149
7 -4 2 -0.3106 -0.2336
7 -4 3 -0.0409 0.1259
7 -4 4 0.4952 0.1530
7 -4 5 -0.0760 -0.1454
7 -4 6 -0.7907 0.0853
7 -4 7 1.1910 -0.2077
7 -4 8 -0.9431 0.2111
7 -3 0 1.0248 -0.1098
7 -3 1 -0.2073 0.1885
7 -3 2 0.0186 -0.0400
7 -3 3 -0.2388 0.0459
7 -3 4 0.0872 -0.0752
7 -3 5 0.5478 -0.0332
7 -3 6 -1.1752 0.0213
7 -3 7 1.2043 0.1195
7 -3 8 -0.6774 -0.1209
7 -2 0 1.0647 -0.0197
7 -2 1 0.0233 -0.3177
7 -2 2 -0.2454 0.1135
7 -2 3 -0.1430 0.2175
7 -2 4 0.1557 -0.0620
7 -2 5 0.4698 -0.0529
7 -2 6 -0.7355 -0.1544
7 -2 7 0.1392 0.0986
7 -2 8 0.3863 0.1835
7 -1 0 0.4838 0.5199
7 -1 1 0.6414 -0.2962
7 -1 2 -0.3750 -0.1796
7 -1 3 -0.5498 0.0927
7 -1 4 0.4898 0.1708
7 -1 5 0.1579 -0.0260
7 -1 6 0.0300 -0.0601
7 -1 7 -0.5700 -0.1666
7 -1 8 0.3597 0.1973
7 0 0 -0.0372 0.2070
7 0 1 0.6805 0.1706
7 0 2 -0.0093 -0.1400
7 0 3 -0.6140 -0.0981
7 0 4 0.0947 0.0759
7 0 5 0.5080 0.0614
7 0 6 -0.3637 -0.0370
7 0 7 0.1764 -0.0495
7 0 8 -0.2396 0.1083
7 1 0 -0.1659 -0.0402
7 1 1 0.4393 -0.0551
7 1 2 -0.0789 0.0424
7 1 3 0.0520 0.0342
7 1 4 -0.6964 -0.0028
7 1 5 1.1853 0.0239
7 1 6 -0.8921 -0.0577
7 1 7 0.2066 -0.1697
7 2 0 -0.2611 0.4703
7 2 1 0.2842 -0.3023
7 2 2 -0.0727 -0.1316
7 2 3 0.1028 0.0692
7 2 4 -0.6623 0.1131
7 2 5 0.9334 0.0057
7 2 6 -0.2320 0.0335
7 2 7 -0.4704 -0.3283
7 3 0 0.0487 0.5249
7 3 1 -0.3683 0.0911
7 3 2 0.7219 -0.2498
7 3 3 -0.5470 -0.0092
7 3 4 -0.1982 0.0226
7 3 5 0.3454 0.0869
7 3 6 0.2168 -0.0267
7 4 0 0.4320 -0.0886
7 4 1 -0.9783 0.1186
7 4 2 1.2355 0.0508
7 4 3 -0.6781 -0.0203
7 4 4 -0.1049 -0.0182
7 4 5 0.1241 0.0318
7 5 0 0.2519 0.1923
7 5 1 -0.9479 -0.4973
7 5 2 1.0768 0.1515
7 5 3 -0.5210 0.0538
7 5 4 0.0432 0.1097
7 6 0 0.1752 0.6134
7 6 1 -0.7873 -0.0432
7 6 2 0.8115 -0.4320
7 6 3 -0.4282 0.1936
7 7 0 0.3844 -0.5834
7 7 1 -0.4261 0.9111
8 -7 0 -0.6701 -1.0415
8 -7 1 0.1731 0.5671
8 -7 2 0.9492 0.0423
8 -7 3 -1.0886 -0.0128
8 -6 0 -0.5239 -0.0932
8 -6 1 -0.5866 -0.1633
8 -6 2 1.2996 -0.0192
8 -6 3 -0.6867 0.5335
8 -6 4 -0.3931 -0.8465
8 -5 0 0.1364 0.2714
8 -5 1 -0.7303 0.1068
8 -5 2 0.6364 -0.2448
8 -5 3 0.3114 0.3303
8 -5 4 -1.0438 -0.4740
8 -5 5 0.7623 0.3032
8 -4 0 0.2738 -0.3765
8 -4 1 -0.6883 0.1809
8 -4 2 0.3821 0.2424
8 -4 3 0.3590 -0.0638
8 -4 4 -0.3937 -0.1313
8 -4 5 0.0911 -0.1783
8 -4 6 -0.4465 0.2760
8 -3 0 0.8971 -0.1045
8 -3 1 -1.3693 -0.4054
8 -3 2 0.6339 0.2501
8 -3 3 -0.1119 0.1017
8 -3 4 0.3204 0.1131
8 -3 5 0.1076 -0.2442
8 -3 6 -0.9650 -0.1942
8 -2 0 1.5910 0.4403
8 -2 1 -1.1937 -0.0455
8 -2 2 -0.0540 -0.2995
8 -2 3 0.2917 0.0288
8 -2 4 -0.0961 0.1831
8 -2 5 0.5666 0.1995
8 -2 6 -0.7517 -0.4622
8 -1 0 0.9987 -0.1955
8 -1 1 0.0457 0.3924
8 -1 2 -0.9891 -0.0328
8 -1 3 0.6306 -0.1520
8 -1 4 0.0601 -0.1339
8 -1 5 -0.2165 0.2745
8 0 0 0.3089 -0.1421
8 0 1 0.4526 -0.2602
8 0 2 -0.6764 0.1726
8 0 3 -0.2134 0.1988
8 0 4 1.0146 -0.1261
8 0 5 -0.7629 -0.3031
8 1 0 0.2481 0.5680
8 1 1 0.2401 -0.2374
8 1 2 -0.1599 -0.2740
8 1 3 -0.5336 0.1587
8 1 4 0.6121 0.3663
8 1 5 0.0404 -0.6489
8 2 0 -0.1392 0.1478
8 2 1 0.7306 0.2057
8 2 2 -0.6454 -0.0799
8 2 3 0.2765 -0.0830
8 2 4 -0.3107 0.1799
8 3 0 -0.7552 -0.1259
8 3 1 1.2095 -0.1918
8 3 2 -0.8315 0.0713
8 3 3 0.3749 0.4042
8 4 0 -0.7296 0.2827
8 4 1 0.6156 -0.3950
8 4 2 -0.1013 -0.1411
8 5 0 -0.1831 0.4710
9 -3 0 0.6260 -0.1941
9 -2 0 0.5622 -0.0510
9 -1 0 0.8433 -0.1755
9 0 0 1.1404 0.2724
0 0 0 0.0 0.0
;
_shelx_fab_checksum              76532
_olex2_submission_special_instructions 'No special instructions were received'
_oxdiff_exptl_absorpt_empirical_details
;
Empirical correction (ABSPACK) includes:
- Absorption correction using spherical harmonics
- Frame scaling
;
_oxdiff_exptl_absorpt_empirical_full_max 1.641
_oxdiff_exptl_absorpt_empirical_full_min 0.620
loop_
_space_group_symop_operation_xyz
'x, y, z'
'-x, -y, -z'
loop_
_atom_site_label
_atom_site_type_symbol
_atom_site_fract_x
_atom_site_fract_y
_atom_site_fract_z
_atom_site_U_iso_or_equiv
_atom_site_adp_type
_atom_site_occupancy
_atom_site_site_symmetry_order
_atom_site_calc_flag
_atom_site_refinement_flags_posn
_atom_site_refinement_flags_adp
_atom_site_refinement_flags_occupancy
_atom_site_disorder_assembly
_atom_site_disorder_group
Br1 Br 0.39213(3) 0.31054(2) 0.14347(2) 0.02634(12) Uani 1 1 d . . . . .
Mn1 Mn 0.28025(5) 0.43313(4) 0.30251(3) 0.02307(14) Uani 1 1 d . . . . .
S1 S -0.07533(11) 0.03209(6) 0.12464(6) 0.0381(2) Uani 1 1 d . . . . .
O2 O 0.6226(3) 0.5793(2) 0.36204(17) 0.0366(5) Uani 1 1 d . . . . .
O1 O 0.1636(3) 0.57636(19) 0.49143(16) 0.0352(5) Uani 1 1 d . . . . .
O3 O 0.4616(3) 0.28797(19) 0.42584(17) 0.0368(5) Uani 1 1 d . . . . .
N1 N 0.1192(3) 0.51266(19) 0.20155(17) 0.0225(4) Uani 1 1 d . . . . .
N2 N 0.0539(3) 0.31540(19) 0.25290(18) 0.0244(5) Uani 1 1 d . . . . .
H2 H 0.063041 0.275622 0.180265 0.029 Uiso 1 1 calc R . . . .
C1 C 0.1657(3) 0.5953(2) 0.1494(2) 0.0233(5) Uani 1 1 d . . . . .
C9 C -0.0524(3) 0.4769(2) 0.1919(2) 0.0234(5) Uani 1 1 d . . . . .
C2 C 0.3455(3) 0.6308(2) 0.1495(2) 0.0266(6) Uani 1 1 d . . . . .
H2A H 0.433526 0.597785 0.184133 0.032 Uiso 1 1 calc R . . . .
C6 C 0.0344(3) 0.6451(2) 0.0931(2) 0.0250(5) Uani 1 1 d . . . . .
C5 C 0.0869(4) 0.7311(2) 0.0427(2) 0.0274(6) Uani 1 1 d . . . . .
H5 H 0.001368 0.765487 0.007487 0.033 Uiso 1 1 calc R . . . .
C3 C 0.3908(4) 0.7132(3) 0.0990(2) 0.0300(6) Uani 1 1 d . . . . .
H3 H 0.509613 0.735914 0.100544 0.036 Uiso 1 1 calc R . . . .
C4 C 0.2624(4) 0.7642(2) 0.0452(2) 0.0297(6) Uani 1 1 d . . . . .
H4 H 0.295761 0.820058 0.011362 0.036 Uiso 1 1 calc R . . . .
C10 C -0.0987(3) 0.3836(2) 0.2442(2) 0.0260(5) Uani 1 1 d . . . . .
H10A H -0.126743 0.418689 0.313331 0.031 Uiso 1 1 calc R . . . .
H10B H -0.201072 0.332852 0.203413 0.031 Uiso 1 1 calc R . . . .
C8 C -0.1872(4) 0.5215(2) 0.1355(2) 0.0271(6) Uani 1 1 d . . . . .
H8 H -0.304711 0.493302 0.130905 0.032 Uiso 1 1 calc R . . . .
C18 C 0.3900(4) 0.3450(3) 0.3784(2) 0.0291(6) Uani 1 1 d . . . . .
C7 C -0.1447(4) 0.6058(2) 0.0879(2) 0.0271(6) Uani 1 1 d . . . . .
H7 H -0.232966 0.637545 0.052103 0.033 Uiso 1 1 calc R . . . .
C11 C 0.0182(4) 0.2182(2) 0.3026(2) 0.0278(6) Uani 1 1 d . . . . .
H11A H -0.017446 0.250037 0.370332 0.033 Uiso 1 1 calc R . . . .
H11B H 0.125943 0.181510 0.314032 0.033 Uiso 1 1 calc R . . . .
C17 C 0.4860(4) 0.5275(3) 0.3367(2) 0.0295(6) Uani 1 1 d . . . . .
C13 C -0.2960(4) 0.1113(3) 0.2448(3) 0.0361(7) Uani 1 1 d . . . . .
H13 H -0.347185 0.154089 0.299790 0.043 Uiso 1 1 calc R . . . .
C16 C 0.2044(3) 0.5195(2) 0.4170(2) 0.0280(6) Uani 1 1 d . . . . .
C12 C -0.1235(4) 0.1277(2) 0.2362(2) 0.0286(6) Uani 1 1 d . . . . .
C14 C -0.3910(5) 0.0212(3) 0.1605(3) 0.0439(8) Uani 1 1 d . . . . .
H14 H -0.511117 -0.000839 0.154943 0.053 Uiso 1 1 calc R . . . .
C15 C -0.2913(5) -0.0289(3) 0.0901(3) 0.0439(8) Uani 1 1 d . . . . .
H15 H -0.333068 -0.088718 0.030272 0.053 Uiso 1 1 calc R . . . .
loop_
_atom_site_aniso_label
_atom_site_aniso_U_11
_atom_site_aniso_U_22
_atom_site_aniso_U_33
_atom_site_aniso_U_23
_atom_site_aniso_U_13
_atom_site_aniso_U_12
Br1 0.01718(17) 0.03632(19) 0.02500(18) 0.00452(12) 0.00738(12) 0.00380(11)
Mn1 0.0144(2) 0.0330(3) 0.0210(2) 0.00432(18) 0.00498(17) 0.00250(17)
S1 0.0457(5) 0.0356(4) 0.0321(4) 0.0025(3) 0.0146(3) 0.0054(3)
O2 0.0185(10) 0.0543(13) 0.0321(11) 0.0038(9) 0.0044(8) -0.0041(9)
O1 0.0257(11) 0.0474(12) 0.0291(11) 0.0000(9) 0.0119(8) 0.0016(9)
O3 0.0308(11) 0.0496(12) 0.0311(11) 0.0124(10) 0.0032(9) 0.0090(9)
N1 0.0141(10) 0.0300(11) 0.0221(11) 0.0024(9) 0.0058(8) 0.0038(8)
N2 0.0158(11) 0.0329(11) 0.0246(11) 0.0060(9) 0.0068(9) 0.0024(8)
C1 0.0196(13) 0.0277(13) 0.0224(13) 0.0029(10) 0.0080(10) 0.0041(10)
C9 0.0166(12) 0.0300(13) 0.0222(13) 0.0020(10) 0.0066(10) 0.0032(9)
C2 0.0166(13) 0.0329(14) 0.0299(14) 0.0057(11) 0.0063(11) 0.0044(10)
C6 0.0214(13) 0.0296(13) 0.0256(13) 0.0049(10) 0.0120(11) 0.0059(10)
C5 0.0247(14) 0.0309(13) 0.0263(14) 0.0044(11) 0.0075(11) 0.0057(10)
C3 0.0201(13) 0.0380(15) 0.0311(15) 0.0061(12) 0.0091(11) -0.0021(11)
C4 0.0281(15) 0.0307(14) 0.0319(15) 0.0079(11) 0.0108(12) 0.0035(11)
C10 0.0146(12) 0.0367(14) 0.0266(14) 0.0065(11) 0.0060(10) 0.0022(10)
C8 0.0186(13) 0.0347(14) 0.0255(14) 0.0036(11) 0.0051(10) -0.0012(10)
C18 0.0208(13) 0.0414(15) 0.0236(14) 0.0033(12) 0.0081(11) 0.0036(11)
C7 0.0217(13) 0.0343(14) 0.0252(14) 0.0048(11) 0.0066(11) 0.0075(10)
C11 0.0225(14) 0.0357(14) 0.0273(14) 0.0098(11) 0.0078(11) 0.0024(10)
C17 0.0265(15) 0.0408(15) 0.0206(13) 0.0041(11) 0.0081(11) 0.0058(12)
C13 0.0259(15) 0.0374(15) 0.0443(18) 0.0072(13) 0.0092(13) 0.0029(12)
C16 0.0169(13) 0.0391(15) 0.0280(15) 0.0096(12) 0.0036(11) -0.0016(11)
C12 0.0299(15) 0.0306(14) 0.0269(14) 0.0086(11) 0.0073(11) 0.0047(11)
C14 0.0350(18) 0.0366(16) 0.056(2) 0.0098(15) -0.0009(16) -0.0056(13)
C15 0.055(2) 0.0314(16) 0.0382(18) 0.0032(13) -0.0042(16) -0.0025(14)
loop_
_atom_type_symbol
_atom_type_description
_atom_type_scat_dispersion_real
_atom_type_scat_dispersion_imag
_atom_type_scat_source
C C 0.0181 0.0091 'International Tables Vol C Tables 4.2.6.8 and 6.1.1.4'
H H 0.0000 0.0000 'International Tables Vol C Tables 4.2.6.8 and 6.1.1.4'
Br Br -0.6763 1.2805 'International Tables Vol C Tables 4.2.6.8 and 6.1.1.4'
Mn Mn -0.5299 2.8052 'International Tables Vol C Tables 4.2.6.8 and 6.1.1.4'
N N 0.0311 0.0180 'International Tables Vol C Tables 4.2.6.8 and 6.1.1.4'
O O 0.0492 0.0322 'International Tables Vol C Tables 4.2.6.8 and 6.1.1.4'
S S 0.3331 0.5567 'International Tables Vol C Tables 4.2.6.8 and 6.1.1.4'
loop_
_geom_angle_atom_site_label_1
_geom_angle_atom_site_label_2
_geom_angle_atom_site_label_3
_geom_angle
_geom_angle_site_symmetry_1
_geom_angle_site_symmetry_3
_geom_angle_publ_flag
N1 Mn1 Br1 89.19(6) . . ?
N2 Mn1 Br1 84.86(6) . . ?
N2 Mn1 N1 77.11(8) . . ?
C18 Mn1 Br1 87.94(9) . . ?
C18 Mn1 N1 170.47(11) . . ?
C18 Mn1 N2 93.58(11) . . ?
C18 Mn1 C17 85.66(13) . . ?
C18 Mn1 C16 91.07(13) . . ?
C17 Mn1 Br1 90.15(9) . . ?
C17 Mn1 N1 103.43(11) . . ?
C17 Mn1 N2 174.97(11) . . ?
C16 Mn1 Br1 178.89(9) . . ?
C16 Mn1 N1 91.87(11) . . ?
C16 Mn1 N2 95.71(10) . . ?
C16 Mn1 C17 89.27(12) . . ?
C15 S1 C12 91.78(16) . . ?
C1 N1 Mn1 130.12(17) . . ?
C9 N1 Mn1 112.26(17) . . ?
C9 N1 C1 117.6(2) . . ?
Mn1 N2 H2 104.3 . . ?
C10 N2 Mn1 107.71(16) . . ?
C10 N2 H2 104.3 . . ?
C10 N2 C11 112.1(2) . . ?
C11 N2 Mn1 122.29(17) . . ?
C11 N2 H2 104.3 . . ?
N1 C1 C2 120.8(2) . . ?
N1 C1 C6 121.0(2) . . ?
C2 C1 C6 118.2(2) . . ?
N1 C9 C10 116.7(2) . . ?
N1 C9 C8 123.7(2) . . ?
C8 C9 C10 119.7(2) . . ?
C1 C2 H2A 119.7 . . ?
C3 C2 C1 120.6(3) . . ?
C3 C2 H2A 119.7 . . ?
C5 C6 C1 119.4(2) . . ?
C7 C6 C1 118.7(2) . . ?
C7 C6 C5 122.0(3) . . ?
C6 C5 H5 119.6 . . ?
C4 C5 C6 120.7(3) . . ?
C4 C5 H5 119.6 . . ?
C2 C3 H3 119.3 . . ?
C2 C3 C4 121.4(3) . . ?
C4 C3 H3 119.3 . . ?
C5 C4 C3 119.6(3) . . ?
C5 C4 H4 120.2 . . ?
C3 C4 H4 120.2 . . ?
N2 C10 C9 108.3(2) . . ?
N2 C10 H10A 110.0 . . ?
N2 C10 H10B 110.0 . . ?
C9 C10 H10A 110.0 . . ?
C9 C10 H10B 110.0 . . ?
H10A C10 H10B 108.4 . . ?
C9 C8 H8 120.3 . . ?
C7 C8 C9 119.5(2) . . ?
C7 C8 H8 120.3 . . ?
O3 C18 Mn1 179.0(3) . . ?
C6 C7 H7 120.2 . . ?
C8 C7 C6 119.5(3) . . ?
C8 C7 H7 120.2 . . ?
N2 C11 H11A 109.2 . . ?
N2 C11 H11B 109.2 . . ?
N2 C11 C12 111.9(2) . . ?
H11A C11 H11B 107.9 . . ?
C12 C11 H11A 109.2 . . ?
C12 C11 H11B 109.2 . . ?
O2 C17 Mn1 173.7(3) . . ?
C12 C13 H13 123.7 . . ?
C12 C13 C14 112.6(3) . . ?
C14 C13 H13 123.7 . . ?
O1 C16 Mn1 177.1(2) . . ?
C11 C12 S1 119.2(2) . . ?
C13 C12 S1 110.9(2) . . ?
C13 C12 C11 129.8(3) . . ?
C13 C14 H14 123.2 . . ?
C15 C14 C13 113.7(3) . . ?
C15 C14 H14 123.2 . . ?
S1 C15 H15 124.5 . . ?
C14 C15 S1 111.1(3) . . ?
C14 C15 H15 124.5 . . ?
loop_
_geom_bond_atom_site_label_1
_geom_bond_atom_site_label_2
_geom_bond_distance
_geom_bond_site_symmetry_2
_geom_bond_publ_flag
Br1 Mn1 2.5397(5) . ?
Mn1 N1 2.138(2) . ?
Mn1 N2 2.082(2) . ?
Mn1 C18 1.799(3) . ?
Mn1 C17 1.812(3) . ?
Mn1 C16 1.802(3) . ?
S1 C12 1.730(3) . ?
S1 C15 1.721(4) . ?
O2 C17 1.145(4) . ?
O1 C16 1.146(4) . ?
O3 C18 1.152(4) . ?
N1 C1 1.388(3) . ?
N1 C9 1.337(3) . ?
N2 H2 0.9800 . ?
N2 C10 1.473(3) . ?
N2 C11 1.492(3) . ?
C1 C2 1.416(4) . ?
C1 C6 1.424(4) . ?
C9 C10 1.495(4) . ?
C9 C8 1.407(4) . ?
C2 H2A 0.9300 . ?
C2 C3 1.368(4) . ?
C6 C5 1.418(4) . ?
C6 C7 1.410(4) . ?
C5 H5 0.9300 . ?
C5 C4 1.372(4) . ?
C3 H3 0.9300 . ?
C3 C4 1.398(4) . ?
C4 H4 0.9300 . ?
C10 H10A 0.9700 . ?
C10 H10B 0.9700 . ?
C8 H8 0.9300 . ?
C8 C7 1.354(4) . ?
C7 H7 0.9300 . ?
C11 H11A 0.9700 . ?
C11 H11B 0.9700 . ?
C11 C12 1.499(4) . ?
C13 H13 0.9300 . ?
C13 C12 1.349(4) . ?
C13 C14 1.423(4) . ?
C14 H14 0.9300 . ?
C14 C15 1.338(5) . ?
C15 H15 0.9300 . ?
loop_
_geom_torsion_atom_site_label_1
_geom_torsion_atom_site_label_2
_geom_torsion_atom_site_label_3
_geom_torsion_atom_site_label_4
_geom_torsion
_geom_torsion_site_symmetry_1
_geom_torsion_site_symmetry_2
_geom_torsion_site_symmetry_3
_geom_torsion_site_symmetry_4
_geom_torsion_publ_flag
Mn1 N1 C1 C2 7.0(4) . . . . ?
Mn1 N1 C1 C6 -174.13(18) . . . . ?
Mn1 N1 C9 C10 -4.8(3) . . . . ?
Mn1 N1 C9 C8 175.7(2) . . . . ?
Mn1 N2 C10 C9 43.8(2) . . . . ?
Mn1 N2 C11 C12 -164.41(19) . . . . ?
N1 C1 C2 C3 -179.3(3) . . . . ?
N1 C1 C6 C5 178.7(2) . . . . ?
N1 C1 C6 C7 -2.2(4) . . . . ?
N1 C9 C10 N2 -25.9(3) . . . . ?
N1 C9 C8 C7 -0.3(4) . . . . ?
N2 C11 C12 S1 74.3(3) . . . . ?
N2 C11 C12 C13 -100.7(3) . . . . ?
C1 N1 C9 C10 177.0(2) . . . . ?
C1 N1 C9 C8 -2.4(4) . . . . ?
C1 C2 C3 C4 -0.6(4) . . . . ?
C1 C6 C5 C4 1.9(4) . . . . ?
C1 C6 C7 C8 -0.6(4) . . . . ?
C9 N1 C1 C2 -175.2(2) . . . . ?
C9 N1 C1 C6 3.7(4) . . . . ?
C9 C8 C7 C6 1.9(4) . . . . ?
C2 C1 C6 C5 -2.4(4) . . . . ?
C2 C1 C6 C7 176.7(2) . . . . ?
C2 C3 C4 C5 0.0(4) . . . . ?
C6 C1 C2 C3 1.8(4) . . . . ?
C6 C5 C4 C3 -0.6(4) . . . . ?
C5 C6 C7 C8 178.5(3) . . . . ?
C10 N2 C11 C12 65.4(3) . . . . ?
C10 C9 C8 C7 -179.8(2) . . . . ?
C8 C9 C10 N2 153.6(2) . . . . ?
C7 C6 C5 C4 -177.2(3) . . . . ?
C11 N2 C10 C9 -178.9(2) . . . . ?
C13 C14 C15 S1 0.3(4) . . . . ?
C12 S1 C15 C14 -0.4(3) . . . . ?
C12 C13 C14 C15 0.0(4) . . . . ?
C14 C13 C12 S1 -0.3(3) . . . . ?
C14 C13 C12 C11 175.0(3) . . . . ?
C15 S1 C12 C11 -175.4(2) . . . . ?
C15 S1 C12 C13 0.4(2) . . . . ?
loop_
_smtbx_masks_void_nr
_smtbx_masks_void_average_x
_smtbx_masks_void_average_y
_smtbx_masks_void_average_z
_smtbx_masks_void_volume
_smtbx_masks_void_count_electrons
_smtbx_masks_void_content
1 -0.805 0.000 0.500 319.3 95.4 ?
